# Generated by pormake.
# Topology dia, (4)-cn, num edge types: 1
# Building blocks:
#     Node 0, Type 0, BuildingBlock: NAHDIM_clean_sbu_0, # of connection points: 4
#     Node 1, Type 0, BuildingBlock: NAHDIM_clean_sbu_0, # of connection points: 4
#     Node 2, Type 0, BuildingBlock: NAHDIM_clean_sbu_0, # of connection points: 4
#     Node 3, Type 0, BuildingBlock: NAHDIM_clean_sbu_0, # of connection points: 4
#     Node 4, Type 0, BuildingBlock: NAHDIM_clean_sbu_0, # of connection points: 4
#     Node 5, Type 0, BuildingBlock: NAHDIM_clean_sbu_0, # of connection points: 4
#     Node 6, Type 0, BuildingBlock: NAHDIM_clean_sbu_0, # of connection points: 4
#     Node 7, Type 0, BuildingBlock: NAHDIM_clean_sbu_0, # of connection points: 4
#     Edge 8, Type (0, 0), BuildingBlock: FUNLAD_clean_linker_1, # of connection points: 2
#     Edge 9, Type (0, 0), BuildingBlock: FUNLAD_clean_linker_1, # of connection points: 2
#     Edge 10, Type (0, 0), BuildingBlock: FUNLAD_clean_linker_1, # of connection points: 2
#     Edge 11, Type (0, 0), BuildingBlock: FUNLAD_clean_linker_1, # of connection points: 2
#     Edge 12, Type (0, 0), BuildingBlock: FUNLAD_clean_linker_1, # of connection points: 2
#     Edge 13, Type (0, 0), BuildingBlock: FUNLAD_clean_linker_1, # of connection points: 2
#     Edge 14, Type (0, 0), BuildingBlock: FUNLAD_clean_linker_1, # of connection points: 2
#     Edge 15, Type (0, 0), BuildingBlock: FUNLAD_clean_linker_1, # of connection points: 2
#     Edge 16, Type (0, 0), BuildingBlock: FUNLAD_clean_linker_1, # of connection points: 2
#     Edge 17, Type (0, 0), BuildingBlock: FUNLAD_clean_linker_1, # of connection points: 2
#     Edge 18, Type (0, 0), BuildingBlock: FUNLAD_clean_linker_1, # of connection points: 2
#     Edge 19, Type (0, 0), BuildingBlock: FUNLAD_clean_linker_1, # of connection points: 2
#     Edge 20, Type (0, 0), BuildingBlock: FUNLAD_clean_linker_1, # of connection points: 2
#     Edge 21, Type (0, 0), BuildingBlock: FUNLAD_clean_linker_1, # of connection points: 2
#     Edge 22, Type (0, 0), BuildingBlock: FUNLAD_clean_linker_1, # of connection points: 2
#     Edge 23, Type (0, 0), BuildingBlock: FUNLAD_clean_linker_1, # of connection points: 2
# Relax obj value: 0.005
# Max RMSD: 0.034
# Mean RMSD: 0.034
data_MOF--net-dia--node1-NAHDIM_clean_sbu_0--edge1-FUNLAD_clean_linker_1
_symmetry_space_group_name_H-M    P1
_symmetry_Int_Tables_number       1
_symmetry_cell_setting            triclinic
loop_
_symmetry_equiv_pos_as_xyz
'x, y, z'
_cell_length_a     38.758582
_cell_length_b     35.432447
_cell_length_c     35.522575
_cell_angle_alpha  88.543806
_cell_angle_beta   93.854067
_cell_angle_gamma 93.322627
loop_
_atom_site_label
_atom_site_type_symbol
_atom_site_fract_x
_atom_site_fract_y
_atom_site_fract_z
_atom_type_partial_charge
C0 C 0.07996 0.178 0.65705 0.0
O1 O 0.06266 0.14703 0.64538 0.0
O2 O 0.15532 0.10914 0.65391 0.0
Zn3 Zn 0.134 0.14743 0.61765 0.0
O4 O 0.09767 0.12283 0.58119 0.0
C5 C 0.19624 0.19294 0.60789 0.0
O6 O 0.1978 0.19124 0.64492 0.0
O7 O 0.11107 0.18448 0.64851 0.0
C8 C 0.09488 0.08758 0.57517 0.0
O9 O 0.11712 0.0652 0.59228 0.0
C10 C 0.1833 0.0937 0.64856 0.0
O11 O 0.19908 0.10147 0.61746 0.0
O12 O 0.17105 0.1759 0.58936 0.0
C13 C 0.93259 0.33775 0.82007 0.0
O14 O 0.94747 0.33955 0.85438 0.0
O15 O 0.85875 0.34558 0.88531 0.0
Zn16 Zn 0.88515 0.38338 0.8532 0.0
O17 O 0.92474 0.40858 0.88475 0.0
C18 C 0.82447 0.41325 0.81421 0.0
O19 O 0.81352 0.37745 0.8139 0.0
O20 O 0.90496 0.35473 0.81222 0.0
C21 C 0.92123 0.43603 0.90618 0.0
O22 O 0.89052 0.44938 0.9084 0.0
C23 C 0.83621 0.35427 0.90742 0.0
O24 O 0.82887 0.38979 0.91015 0.0
O25 O 0.85412 0.42258 0.82969 0.0
C26 C 0.58458 0.1588 0.17587 0.0
O27 O 0.58244 0.12232 0.18361 0.0
O28 O 0.66888 0.11321 0.15351 0.0
Zn29 Zn 0.63285 0.13975 0.12018 0.0
O30 O 0.60114 0.10196 0.09125 0.0
C31 C 0.68827 0.17558 0.07753 0.0
O32 O 0.7079 0.15123 0.09579 0.0
O33 O 0.6043 0.17174 0.15089 0.0
C34 C 0.61302 0.0798 0.06833 0.0
O35 O 0.64643 0.08116 0.06393 0.0
C36 C 0.6634 0.0802 0.16746 0.0
O37 O 0.633 0.06234 0.16097 0.0
O38 O 0.65623 0.17524 0.08312 0.0
C39 C 0.89896 0.79995 0.32913 0.0
O40 O 0.87622 0.78364 0.35095 0.0
O41 O 0.85281 0.83759 0.3998 0.0
Zn42 Zn 0.87888 0.86954 0.36174 0.0
O43 O 0.91617 0.90264 0.38882 0.0
C44 C 0.81723 0.91007 0.3438 0.0
O45 O 0.80995 0.89748 0.37758 0.0
O46 O 0.90343 0.83581 0.32825 0.0
C47 C 0.91064 0.92669 0.41328 0.0
O48 O 0.87877 0.9316 0.42183 0.0
C49 C 0.86721 0.82649 0.43104 0.0
O50 O 0.90004 0.83588 0.4393 0.0
O51 O 0.84552 0.90187 0.33058 0.0
C52 C 0.0845 0.66977 0.18636 0.0
O53 O 0.07489 0.63361 0.18744 0.0
O54 O 0.15944 0.60704 0.17213 0.0
Zn55 Zn 0.1327 0.64275 0.13734 0.0
O56 O 0.09469 0.61442 0.10621 0.0
C57 C 0.19289 0.65396 0.09423 0.0
O58 O 0.19903 0.62018 0.10818 0.0
O59 O 0.10983 0.68097 0.16722 0.0
C60 C 0.09955 0.58749 0.08463 0.0
O61 O 0.13101 0.57635 0.08186 0.0
C62 C 0.1469 0.57533 0.18403 0.0
O63 O 0.11447 0.56488 0.17479 0.0
O64 O 0.16582 0.66971 0.10259 0.0
C65 C 0.41917 0.29763 0.33748 0.0
O66 O 0.40899 0.28831 0.37112 0.0
O67 O 0.35361 0.33741 0.38483 0.0
Zn68 Zn 0.38783 0.36668 0.35295 0.0
O69 O 0.42441 0.39597 0.38532 0.0
C70 C 0.33323 0.41478 0.32699 0.0
O71 O 0.32119 0.40392 0.35947 0.0
O72 O 0.41252 0.32984 0.32302 0.0
C73 C 0.41857 0.42426 0.40472 0.0
O74 O 0.38697 0.43579 0.40475 0.0
C75 C 0.35822 0.33171 0.4202 0.0
O76 O 0.38685 0.345 0.4383 0.0
O77 O 0.36168 0.40269 0.31776 0.0
C78 C 0.43621 0.84135 0.83792 0.0
O79 O 0.45264 0.87443 0.84345 0.0
O80 O 0.34361 0.85355 0.90321 0.0
Zn81 Zn 0.38122 0.87694 0.87196 0.0
O82 O 0.41534 0.90862 0.90503 0.0
C83 C 0.33096 0.92377 0.83229 0.0
O84 O 0.31377 0.91727 0.86265 0.0
O85 O 0.40554 0.83569 0.84816 0.0
C86 C 0.4046 0.9305 0.92897 0.0
O87 O 0.37118 0.93215 0.93212 0.0
C88 C 0.34846 0.82409 0.92351 0.0
O89 O 0.37849 0.80858 0.92429 0.0
O90 O 0.3602 0.9098 0.83019 0.0
C91 C 0.5799 0.67541 0.67596 0.0
O92 O 0.56005 0.64558 0.66582 0.0
O93 O 0.65577 0.60587 0.65604 0.0
Zn94 Zn 0.62761 0.6445 0.62692 0.0
O95 O 0.5872 0.6182 0.59753 0.0
C96 C 0.68873 0.67025 0.58717 0.0
O97 O 0.70423 0.64391 0.60749 0.0
O98 O 0.6097 0.68055 0.66322 0.0
C99 C 0.59122 0.59015 0.57703 0.0
O100 O 0.62236 0.57792 0.57473 0.0
C101 C 0.64123 0.58144 0.67752 0.0
O102 O 0.60769 0.58141 0.68064 0.0
O103 O 0.65687 0.67502 0.59069 0.0
H104 H 0.30857 0.29856 0.42367 0.0
C105 C 0.33142 0.30962 0.44016 0.0
H106 H 0.35631 0.31463 0.49476 0.0
H107 H 0.21255 0.28745 0.57093 0.0
H108 H 0.22363 0.35477 0.57961 0.0
H109 H 0.27272 0.38924 0.55085 0.0
H110 H 0.31086 0.35657 0.51293 0.0
C111 C 0.33426 0.30281 0.47756 0.0
C112 C 0.30614 0.28128 0.49679 0.0
C113 C 0.28471 0.30056 0.51975 0.0
C114 C 0.25685 0.28051 0.53701 0.0
C115 C 0.2348 0.30092 0.55822 0.0
C116 C 0.24069 0.33968 0.56319 0.0
C117 C 0.26829 0.3591 0.54694 0.0
C118 C 0.29003 0.33997 0.52531 0.0
H119 H 0.24521 0.2276 0.60579 0.0
C120 C 0.22369 0.21467 0.58855 0.0
H121 H 0.20183 0.20585 0.53316 0.0
H122 H 0.34396 0.23527 0.45671 0.0
H123 H 0.33313 0.16785 0.44819 0.0
H124 H 0.28474 0.13305 0.47793 0.0
H125 H 0.24696 0.16545 0.51646 0.0
C126 C 0.22268 0.2194 0.55086 0.0
C127 C 0.25112 0.24094 0.53209 0.0
C128 C 0.27264 0.22166 0.50917 0.0
C129 C 0.30033 0.24179 0.49171 0.0
C130 C 0.32207 0.22158 0.46993 0.0
C131 C 0.31628 0.1828 0.46499 0.0
C132 C 0.28906 0.16321 0.48176 0.0
C133 C 0.26751 0.1822 0.50374 0.0
H134 H 0.64785 0.53374 0.71796 0.0
C135 C 0.66146 0.55328 0.69923 0.0
H136 H 0.70953 0.56936 0.67702 0.0
H137 H 0.75629 0.47536 0.83506 0.0
H138 H 0.73718 0.52918 0.86717 0.0
H139 H 0.70875 0.58069 0.83141 0.0
H140 H 0.69875 0.57833 0.76336 0.0
C141 C 0.69568 0.55098 0.69656 0.0
C142 C 0.71507 0.52144 0.71805 0.0
C143 C 0.72179 0.52392 0.75769 0.0
C144 C 0.73951 0.495 0.77813 0.0
C145 C 0.74424 0.49723 0.81792 0.0
C146 C 0.73316 0.52786 0.83677 0.0
C147 C 0.71705 0.55679 0.81665 0.0
C148 C 0.71134 0.55499 0.77759 0.0
H149 H 0.81424 0.4716 0.79535 0.0
C150 C 0.8033 0.44265 0.79585 0.0
H151 H 0.76072 0.40574 0.77875 0.0
H152 H 0.70616 0.50808 0.64239 0.0
H153 H 0.72655 0.45508 0.60994 0.0
H154 H 0.75896 0.40601 0.645 0.0
H155 H 0.77105 0.4095 0.7127 0.0
C156 C 0.77153 0.43472 0.77945 0.0
C157 C 0.75168 0.46442 0.75867 0.0
C158 C 0.74504 0.46206 0.71902 0.0
C159 C 0.72671 0.49059 0.69871 0.0
C160 C 0.72021 0.48737 0.65917 0.0
C161 C 0.73174 0.45707 0.64017 0.0
C162 C 0.74996 0.42943 0.65992 0.0
C163 C 0.75666 0.43176 0.69883 0.0
H164 H 0.60113 0.03519 0.02641 0.0
C165 C 0.58972 0.05326 0.04591 0.0
H166 H 0.5433 0.07023 0.06659 0.0
H167 H 0.45194 0.02037 0.91992 0.0
H168 H 0.45367 0.08858 0.91225 0.0
H169 H 0.49107 0.12925 0.95526 0.0
H170 H 0.52715 0.10189 0.00605 0.0
C171 C 0.5552 0.0514 0.04824 0.0
C172 C 0.53199 0.02652 0.0232 0.0
C173 C 0.51046 0.04299 0.99417 0.0
C174 C 0.48844 0.01956 0.96976 0.0
C175 C 0.46834 0.03678 0.94001 0.0
C176 C 0.46929 0.07594 0.93509 0.0
C177 C 0.49037 0.09883 0.95927 0.0
C178 C 0.51089 0.08273 0.98839 0.0
H179 H 0.41834 0.9731 0.97243 0.0
C180 C 0.42901 0.95464 0.95274 0.0
H181 H 0.4747 0.9359 0.93179 0.0
H182 H 0.5682 0.98584 0.07762 0.0
H183 H 0.56661 0.91758 0.08516 0.0
H184 H 0.52893 0.87693 0.04238 0.0
H185 H 0.49247 0.90432 0.99191 0.0
C186 C 0.46351 0.95496 0.95049 0.0
C187 C 0.48741 0.97967 0.975 0.0
C188 C 0.50912 0.96319 0.00386 0.0
C189 C 0.53121 0.98663 0.02821 0.0
C190 C 0.5516 0.96941 0.0577 0.0
C191 C 0.55077 0.93024 0.06251 0.0
C192 C 0.52953 0.90735 0.03846 0.0
C193 C 0.50879 0.92346 0.00954 0.0
H194 H 0.91636 0.74567 0.31072 0.0
C195 C 0.92062 0.77619 0.30799 0.0
H196 H 0.95154 0.82111 0.28532 0.0
H197 H 0.08044 0.72059 0.27508 0.0
H198 H 0.10163 0.7652 0.32295 0.0
H199 H 0.06305 0.81066 0.34699 0.0
H200 H 1.00295 0.81157 0.32347 0.0
C201 C 0.94613 0.79071 0.28718 0.0
C202 C 0.96998 0.76568 0.26975 0.0
C203 C 1.00536 0.76621 0.28305 0.0
C204 C 0.02781 0.74045 0.26865 0.0
C205 C 0.06251 0.74032 0.28397 0.0
C206 C 0.07498 0.7656 0.31174 0.0
C207 C 0.05324 0.79115 0.32532 0.0
C208 C 0.01879 0.79143 0.31145 0.0
H209 H 0.07143 0.72749 0.20032 0.0
C210 C 0.06463 0.69758 0.20476 0.0
H211 H 0.03025 0.65708 0.22907 0.0
H212 H 0.90487 0.76071 0.23441 0.0
H213 H 0.88377 0.71675 0.18583 0.0
H214 H 0.92238 0.67151 0.16144 0.0
H215 H 0.98234 0.67014 0.1853 0.0
C216 C 0.0378 0.68691 0.22547 0.0
C217 C 0.01503 0.71481 0.24026 0.0
C218 C 0.97984 0.71493 0.22634 0.0
C219 C 0.9574 0.74061 0.24082 0.0
C220 C 0.92275 0.741 0.22536 0.0
C221 C 0.91036 0.71613 0.1972 0.0
C222 C 0.9321 0.69069 0.18344 0.0
C223 C 0.96648 0.69011 0.19755 0.0
H224 H 0.33176 0.9513 0.77586 0.0
C225 C 0.31653 0.94658 0.80033 0.0
H226 H 0.27022 0.95771 0.82514 0.0
H227 H 0.24705 0.10576 0.72493 0.0
H228 H 0.26637 0.1332 0.78505 0.0
H229 H 0.28815 0.0932 0.83828 0.0
H230 H 0.29095 0.02551 0.83159 0.0
C231 C 0.28534 0.96121 0.80049 0.0
C232 C 0.2716 0.98492 0.76834 0.0
C233 C 0.26944 0.02431 0.77296 0.0
C234 C 0.25633 0.04727 0.74246 0.0
C235 C 0.25579 0.08677 0.74744 0.0
C236 C 0.26706 0.10297 0.78175 0.0
C237 C 0.27936 0.08046 0.8117 0.0
C238 C 0.28073 0.04161 0.80749 0.0
H239 H 0.18447 0.06363 0.70369 0.0
C240 C 0.19851 0.06891 0.67842 0.0
H241 H 0.24356 0.05839 0.65083 0.0
H242 H 0.2703 0.90996 0.75063 0.0
H243 H 0.25129 0.88259 0.69038 0.0
H244 H 0.2292 0.92256 0.63727 0.0
H245 H 0.22583 0.99017 0.64419 0.0
C246 C 0.22944 0.05417 0.67615 0.0
C247 C 0.24466 0.03061 0.70763 0.0
C248 C 0.24719 0.9913 0.70286 0.0
C249 C 0.26038 0.96834 0.73335 0.0
C250 C 0.26133 0.92891 0.72821 0.0
C251 C 0.25028 0.91277 0.69381 0.0
C252 C 0.23781 0.93526 0.66392 0.0
C253 C 0.23608 0.97405 0.66826 0.0
H254 H 0.97669 0.44048 0.92487 0.0
C255 C 0.95188 0.45248 0.92803 0.0
H256 H 0.92549 0.49303 0.95586 0.0
H257 H 0.04013 0.50434 0.09197 0.0
H258 H 0.99328 0.46972 0.12199 0.0
H259 H 0.94048 0.4471 0.08467 0.0
H260 H 0.93434 0.45879 0.01705 0.0
C261 C 0.9502 0.48145 0.95135 0.0
C262 C 0.98157 0.49657 0.97379 0.0
C263 C 0.98444 0.49021 0.01341 0.0
C264 C 0.01463 0.50381 0.03502 0.0
C265 C 0.01737 0.49569 0.07433 0.0
C266 C 0.99076 0.47557 0.0919 0.0
C267 C 0.96106 0.46279 0.07089 0.0
C268 C 0.95784 0.46978 0.03208 0.0
H269 H 0.0442 0.58005 0.06625 0.0
C270 C 0.06956 0.56938 0.06302 0.0
H271 H 0.09766 0.53044 0.03507 0.0
H272 H 0.98332 0.51616 0.89874 0.0
H273 H 0.03025 0.55059 0.8687 0.0
H274 H 0.08296 0.57337 0.90605 0.0
H275 H 0.08896 0.56199 0.97372 0.0
C276 C 0.07243 0.5407 0.03964 0.0
C277 C 0.0416 0.52448 0.01704 0.0
C278 C 0.03885 0.53061 0.97739 0.0
C279 C 0.00866 0.51698 0.95577 0.0
C280 C 0.00602 0.52491 0.91642 0.0
C281 C 0.03269 0.5449 0.89882 0.0
C282 C 0.06235 0.55776 0.91986 0.0
C283 C 0.06548 0.55095 0.95869 0.0
H284 H 0.44229 0.24306 0.33074 0.0
C285 C 0.43913 0.2709 0.31782 0.0
H286 H 0.45317 0.30833 0.2734 0.0
H287 H 0.58948 0.21803 0.25819 0.0
H288 H 0.61398 0.27306 0.29166 0.0
H289 H 0.57628 0.31995 0.3148 0.0
H290 H 0.51377 0.31179 0.30496 0.0
C291 C 0.45464 0.28012 0.28591 0.0
C292 C 0.47715 0.25324 0.2692 0.0
C293 C 0.51365 0.25906 0.27402 0.0
C294 C 0.53541 0.23256 0.25973 0.0
C295 C 0.57173 0.23799 0.267 0.0
C296 C 0.58616 0.26931 0.28653 0.0
C297 C 0.56493 0.29567 0.29963 0.0
C298 C 0.52909 0.29066 0.29372 0.0
H299 H 0.56474 0.21457 0.18543 0.0
C300 C 0.56355 0.18508 0.19476 0.0
H301 H 0.54085 0.14443 0.23141 0.0
H302 H 0.40824 0.2346 0.25382 0.0
H303 H 0.38351 0.17983 0.21991 0.0
H304 H 0.42112 0.13426 0.19429 0.0
H305 H 0.48363 0.14313 0.20243 0.0
C306 C 0.54306 0.17399 0.2225 0.0
C307 C 0.52059 0.20095 0.23936 0.0
C308 C 0.48404 0.19514 0.23461 0.0
C309 C 0.46231 0.22135 0.24947 0.0
C310 C 0.42593 0.21527 0.24364 0.0
C311 C 0.41139 0.18405 0.22406 0.0
C312 C 0.43256 0.1584 0.20962 0.0
C313 C 0.46845 0.16381 0.2146 0.0
H314 H 0.86073 0.79536 0.48492 0.0
C315 C 0.84759 0.80298 0.45804 0.0
H316 H 0.80136 0.79668 0.4231 0.0
H317 H 0.75082 0.64457 0.50543 0.0
H318 H 0.76947 0.62008 0.44741 0.0
H319 H 0.80048 0.66178 0.40266 0.0
H320 H 0.81294 0.72827 0.41557 0.0
C321 C 0.81451 0.79053 0.45036 0.0
C322 C 0.79582 0.76562 0.47758 0.0
C323 C 0.78877 0.72683 0.46963 0.0
C324 C 0.77116 0.70271 0.4956 0.0
C325 C 0.76434 0.66411 0.48685 0.0
C326 C 0.77487 0.64968 0.45362 0.0
C327 C 0.7923 0.67316 0.4284 0.0
C328 C 0.79925 0.71129 0.43615 0.0
H329 H 0.69411 0.71694 0.54527 0.0
C330 C 0.70798 0.69513 0.56094 0.0
H331 H 0.75586 0.6697 0.57077 0.0
H332 H 0.80282 0.83921 0.50005 0.0
H333 H 0.78562 0.86338 0.55882 0.0
H334 H 0.75777 0.82093 0.60536 0.0
H335 H 0.74651 0.75419 0.59318 0.0
C336 C 0.7418 0.69204 0.55625 0.0
C337 C 0.7605 0.71745 0.52941 0.0
C338 C 0.76783 0.75622 0.53754 0.0
C339 C 0.78502 0.78045 0.51131 0.0
C340 C 0.79077 0.81932 0.51945 0.0
C341 C 0.78089 0.83361 0.55302 0.0
C342 C 0.76512 0.80974 0.57917 0.0
C343 C 0.75863 0.77149 0.5717 0.0
H344 H 0.15647 0.52343 0.21785 0.0
C345 C 0.16868 0.54956 0.20713 0.0
H346 H 0.21536 0.58317 0.20443 0.0
H347 H 0.28928 0.51072 0.35051 0.0
H348 H 0.28014 0.57364 0.37179 0.0
H349 H 0.24522 0.61736 0.33221 0.0
H350 H 0.21938 0.59851 0.27101 0.0
C351 C 0.20291 0.55682 0.2143 0.0
C352 C 0.22439 0.53036 0.23771 0.0
C353 C 0.23922 0.54176 0.27348 0.0
C354 C 0.25894 0.51635 0.29654 0.0
C355 C 0.27367 0.52866 0.33203 0.0
C356 C 0.26871 0.56475 0.34458 0.0
C357 C 0.24909 0.58938 0.32227 0.0
C358 C 0.23444 0.57819 0.28715 0.0
H359 H 0.32507 0.44977 0.27501 0.0
C360 C 0.3139 0.4406 0.30121 0.0
H361 H 0.27206 0.44444 0.33581 0.0
H362 H 0.20392 0.50134 0.16842 0.0
H363 H 0.2116 0.43786 0.14781 0.0
H364 H 0.24189 0.39212 0.18973 0.0
H365 H 0.26529 0.40984 0.25215 0.0
C366 C 0.28297 0.4526 0.30921 0.0
C367 C 0.26371 0.47948 0.2839 0.0
C368 C 0.24902 0.46809 0.248 0.0
C369 C 0.23005 0.49387 0.22453 0.0
C370 C 0.21728 0.48245 0.18803 0.0
C371 C 0.2217 0.44615 0.17572 0.0
C372 C 0.23887 0.42045 0.19927 0.0
C373 C 0.25238 0.4311 0.235 0.0
H374 H 0.82598 0.2952 0.92632 0.0
C375 C 0.81882 0.32408 0.92975 0.0
H376 H 0.78831 0.35973 0.95884 0.0
H377 H 0.7125 0.18673 0.9794 0.0
H378 H 0.69696 0.19138 0.91226 0.0
H379 H 0.71777 0.24633 0.87434 0.0
H380 H 0.75474 0.29661 0.90324 0.0
C381 C 0.79497 0.33095 0.95404 0.0
C382 C 0.77928 0.29978 0.97733 0.0
C383 C 0.75658 0.27136 0.96023 0.0
C384 C 0.74333 0.24051 0.98241 0.0
C385 C 0.72222 0.21152 0.96423 0.0
C386 C 0.71327 0.21371 0.92563 0.0
C387 C 0.72509 0.24458 0.90425 0.0
C388 C 0.74648 0.27314 0.92118 0.0
H389 H 0.68579 0.22426 0.03767 0.0
C390 C 0.70309 0.20443 0.05166 0.0
H391 H 0.75484 0.18889 0.06056 0.0
H392 H 0.82174 0.34975 0.01895 0.0
H393 H 0.83563 0.34631 0.0865 0.0
H394 H 0.81102 0.29404 0.12535 0.0
H395 H 0.77255 0.24478 0.09687 0.0
C396 C 0.73701 0.20758 0.04571 0.0
C397 C 0.75165 0.23898 0.02192 0.0
C398 C 0.77392 0.26771 0.03907 0.0
C399 C 0.78775 0.29812 0.01675 0.0
C400 C 0.81023 0.3262 0.03459 0.0
C401 C 0.81845 0.32456 0.07335 0.0
C402 C 0.80463 0.29512 0.09522 0.0
C403 C 0.78261 0.26697 0.07846 0.0
H404 H 0.76762 0.93716 0.33405 0.0
C405 C 0.79207 0.93303 0.32185 0.0
H406 H 0.82199 0.94418 0.27486 0.0
H407 H 0.69372 0.97401 0.16056 0.0
H408 H 0.7142 0.91655 0.13646 0.0
H409 H 0.76059 0.88282 0.17149 0.0
H410 H 0.787 0.90649 0.23069 0.0
C411 C 0.79809 0.94884 0.28794 0.0
C412 C 0.7711 0.97038 0.26616 0.0
C413 C 0.75578 0.95606 0.23166 0.0
C414 C 0.7286 0.97517 0.21177 0.0
C415 C 0.71408 0.96039 0.17716 0.0
C416 C 0.72564 0.92745 0.16292 0.0
C417 C 0.75179 0.90849 0.18262 0.0
C418 C 0.76676 0.92245 0.21659 0.0
H419 H 0.71673 0.07735 0.1931 0.0
C420 C 0.69161 0.06206 0.18988 0.0
H421 H 0.6626 0.01143 0.20184 0.0
H422 H 0.79845 0.00899 0.32812 0.0
H423 H 0.77677 0.06526 0.35343 0.0
H424 H 0.72627 0.09519 0.32206 0.0
H425 H 0.69769 0.06957 0.26477 0.0
C426 C 0.68728 0.02746 0.20589 0.0
C427 C 0.71653 0.00847 0.22651 0.0
C428 C 0.73196 0.02293 0.26097 0.0
C429 C 0.75989 0.00446 0.28023 0.0
C430 C 0.77615 0.02082 0.3133 0.0
C431 C 0.76413 0.0533 0.328 0.0
C432 C 0.7358 0.07024 0.31025 0.0
C433 C 0.71978 0.05535 0.27717 0.0
H434 H 0.96627 0.94079 0.42568 0.0
C435 C 0.94046 0.94728 0.43287 0.0
H436 H 0.91145 0.97851 0.46811 0.0
H437 H 0.03183 0.99751 0.59639 0.0
H438 H 0.99 0.95595 0.62718 0.0
H439 H 0.93784 0.92916 0.59155 0.0
H440 H 0.92705 0.94403 0.52499 0.0
C441 C 0.93699 0.97263 0.45964 0.0
C442 C 0.96797 0.99008 0.48112 0.0
C443 C 0.97399 0.98093 0.52001 0.0
C444 C 1.00437 0.99586 0.5404 0.0
C445 C 0.00947 0.98657 0.57934 0.0
C446 C 0.98562 0.96278 0.59743 0.0
C447 C 0.95624 0.94774 0.57739 0.0
C448 C 0.95035 0.95657 0.53915 0.0
H449 H 0.04686 0.09169 0.53862 0.0
C450 C 0.06549 0.07217 0.5506 0.0
H451 H 0.07828 0.01513 0.5565 0.0
H452 H 0.96214 0.01742 0.40826 0.0
H453 H 1.0049 0.05718 0.37678 0.0
H454 H 0.05977 0.07894 0.41078 0.0
H455 H 0.07186 0.06169 0.47661 0.0
C456 C 0.06053 0.0351 0.54363 0.0
C457 C 0.02881 0.01977 0.52185 0.0
C458 C 0.02284 0.02887 0.4829 0.0
C459 C 0.99198 0.01476 0.46277 0.0
C460 C 0.98578 0.026 0.42447 0.0
C461 C 0.01001 0.04904 0.40612 0.0
C462 C 0.04083 0.06141 0.4253 0.0
C463 C 0.04734 0.0515 0.4632 0.0
H464 H 0.93243 0.31204 0.76407 0.0
C465 C 0.94705 0.31541 0.79109 0.0
H466 H 0.99172 0.30142 0.82467 0.0
H467 H 0.01954 0.1525 0.74297 0.0
H468 H 1.00185 0.12796 0.80342 0.0
H469 H 0.97828 0.16969 0.84871 0.0
H470 H 0.97252 0.23626 0.83393 0.0
C471 C 0.97736 0.299 0.7974 0.0
C472 C 0.99057 0.27403 0.76921 0.0
C473 C 0.9933 0.23502 0.7781 0.0
C474 C 0.00629 0.21082 0.75171 0.0
C475 C 0.00938 0.17212 0.76168 0.0
C476 C 0.99938 0.15763 0.79635 0.0
C477 C 0.98615 0.18112 0.82186 0.0
C478 C 0.98307 0.21935 0.81302 0.0
H479 H 0.08027 0.22841 0.69228 0.0
C480 C 0.06413 0.20467 0.68098 0.0
H481 H 0.01476 0.176 0.67926 0.0
H482 H 0.99228 0.34815 0.74468 0.0
H483 H 0.00731 0.3721 0.68305 0.0
H484 H 0.02501 0.32911 0.63524 0.0
H485 H 0.02852 0.26204 0.64914 0.0
C486 C 0.03089 0.20017 0.68956 0.0
C487 C 0.01626 0.2256 0.71635 0.0
C488 C 0.01273 0.26444 0.70706 0.0
C489 C 1.00075 0.28889 0.73391 0.0
C490 C 0.99969 0.32798 0.72481 0.0
C491 C 0.0085 0.34218 0.68959 0.0
C492 C 0.0186 0.318 0.66273 0.0
C493 C 0.02073 0.27958 0.67119 0.0
H494 H 0.58442 0.72863 0.70736 0.0
C495 C 0.56745 0.70388 0.70059 0.0
H496 H 0.51874 0.6757 0.70815 0.0
H497 H 0.49488 0.76313 0.85692 0.0
H498 H 0.50776 0.70133 0.88327 0.0
H499 H 0.5277 0.6521 0.8433 0.0
H500 H 0.5351 0.66448 0.77675 0.0
C501 C 0.53569 0.70072 0.71375 0.0
C502 C 0.52316 0.73042 0.73752 0.0
C503 C 0.51834 0.7225 0.77619 0.0
C504 C 0.5063 0.75069 0.79911 0.0
C505 C 0.50298 0.74244 0.83796 0.0
C506 C 0.51053 0.70715 0.85353 0.0
C507 C 0.5218 0.67945 0.83104 0.0
C508 C 0.52585 0.68691 0.79285 0.0
H509 H 0.43691 0.78508 0.81285 0.0
C510 C 0.45222 0.81129 0.81836 0.0
H511 H 0.49951 0.84224 0.81045 0.0
H512 H 0.52691 0.754 0.66365 0.0
H513 H 0.51421 0.81578 0.63739 0.0
H514 H 0.4943 0.86501 0.67736 0.0
H515 H 0.48679 0.85262 0.7438 0.0
C516 C 0.48434 0.81574 0.80625 0.0
C517 C 0.49846 0.78653 0.78309 0.0
C518 C 0.50354 0.79455 0.74447 0.0
C519 C 0.51554 0.76635 0.72155 0.0
C520 C 0.51886 0.77463 0.68268 0.0
C521 C 0.51141 0.80995 0.66712 0.0
C522 C 0.50016 0.83764 0.68961 0.0
C523 C 0.49605 0.83015 0.72778 0.0
H524 H 0.241 0.65854 0.06444 0.0
C525 C 0.21782 0.67303 0.06946 0.0
H526 H 0.19056 0.72252 0.05871 0.0
H527 H 0.32629 0.82165 0.02196 0.0
H528 H 0.31148 0.84919 0.08012 0.0
H529 H 0.26375 0.82077 0.11589 0.0
H530 H 0.2306 0.76459 0.09375 0.0
C531 C 0.21307 0.70713 0.05317 0.0
C532 C 0.23982 0.72593 0.02972 0.0
C533 C 0.25851 0.75921 0.04269 0.0
C534 C 0.28586 0.77579 0.0219 0.0
C535 C 0.30485 0.80828 0.0362 0.0
C536 C 0.29673 0.82429 0.06968 0.0
C537 C 0.26988 0.80828 0.08983 0.0
C538 C 0.251 0.77605 0.07674 0.0
H539 H 0.29637 0.82243 0.94535 0.0
C540 C 0.32032 0.80783 0.94591 0.0
H541 H 0.3466 0.76008 0.9664 0.0
H542 H 0.20584 0.66553 0.9939 0.0
H543 H 0.2204 0.63831 0.93548 0.0
H544 H 0.26902 0.66588 0.90053 0.0
H545 H 0.30316 0.72109 0.92366 0.0
C546 C 0.32334 0.77577 0.96654 0.0
C547 C 0.2942 0.75926 0.98796 0.0
C548 C 0.27502 0.72649 0.97454 0.0
C549 C 0.24748 0.71011 0.99513 0.0
C550 C 0.22779 0.67837 0.98014 0.0
C551 C 0.23569 0.66263 0.94644 0.0
C552 C 0.26302 0.67819 0.92673 0.0
C553 C 0.28246 0.70983 0.94038 0.0
H554 H 0.47339 0.43352 0.42483 0.0
C555 C 0.44767 0.44382 0.42658 0.0
H556 H 0.418 0.48367 0.45124 0.0
H557 H 0.5314 0.50817 0.58794 0.0
H558 H 0.48607 0.47222 0.61921 0.0
H559 H 0.43448 0.44519 0.58276 0.0
H560 H 0.42802 0.45379 0.51473 0.0
C561 C 0.4436 0.47366 0.4481 0.0
C562 C 0.4737 0.4922 0.4701 0.0
C563 C 0.47668 0.48771 0.50993 0.0
C564 C 0.50619 0.5038 0.53101 0.0
C565 C 0.50915 0.49748 0.57061 0.0
C566 C 0.4834 0.47666 0.58892 0.0
C567 C 0.45438 0.4614 0.56839 0.0
C568 C 0.45097 0.46663 0.52935 0.0
H569 H 0.53561 0.58293 0.55928 0.0
C570 C 0.56081 0.57179 0.55626 0.0
H571 H 0.5884 0.53144 0.52964 0.0
H572 H 0.47437 0.50937 0.39449 0.0
H573 H 0.5195 0.54566 0.36319 0.0
H574 H 0.57105 0.57283 0.39961 0.0
H575 H 0.57768 0.56403 0.4676 0.0
C576 C 0.56329 0.54214 0.53397 0.0
C577 C 0.53235 0.52501 0.51224 0.0
C578 C 0.52918 0.52981 0.47243 0.0
C579 C 0.49968 0.5137 0.45137 0.0
C580 C 0.49663 0.52011 0.41179 0.0
C581 C 0.52225 0.54112 0.39347 0.0
C582 C 0.55125 0.55645 0.41398 0.0
C583 C 0.55476 0.55109 0.453 0.0
loop_
_geom_bond_atom_site_label_1
_geom_bond_atom_site_label_2
_geom_bond_distance
_geom_bond_site_symmetry_2
_ccdc_geom_bond_type
C0 O1 1.160 . S
C0 O7 1.185 . S
O1 C0 1.160 . S
O2 Zn3 1.899 . S
O2 C10 1.284 . S
Zn3 O2 1.899 . S
Zn3 O4 2.032 . S
Zn3 O7 2.086 . S
Zn3 O12 1.977 . S
O4 Zn3 2.032 . S
O4 C8 1.278 . S
C5 O6 1.203 . S
C5 O12 1.267 . S
O6 C5 1.203 . S
O7 C0 1.185 . S
O7 Zn3 2.086 . S
C8 O4 1.278 . S
C8 O9 1.211 . S
O9 C8 1.211 . S
C10 O2 1.284 . S
C10 O11 1.273 . S
O11 C10 1.273 . S
O12 Zn3 1.977 . S
O12 C5 1.267 . S
C13 O14 1.160 . S
C13 O20 1.185 . S
O14 C13 1.160 . S
O15 Zn16 1.899 . S
O15 C23 1.284 . S
Zn16 O15 1.899 . S
Zn16 O17 2.032 . S
Zn16 O20 2.086 . S
Zn16 O25 1.977 . S
O17 Zn16 2.032 . S
O17 C21 1.278 . S
C18 O19 1.203 . S
C18 O25 1.267 . S
O19 C18 1.203 . S
O20 C13 1.185 . S
O20 Zn16 2.086 . S
C21 O17 1.278 . S
C21 O22 1.211 . S
O22 C21 1.211 . S
C23 O15 1.284 . S
C23 O24 1.273 . S
O24 C23 1.273 . S
O25 Zn16 1.977 . S
O25 C18 1.267 . S
C26 O27 1.160 . S
C26 O33 1.185 . S
O27 C26 1.160 . S
O28 Zn29 1.899 . S
O28 C36 1.284 . S
Zn29 O28 1.899 . S
Zn29 O30 2.032 . S
Zn29 O33 2.086 . S
Zn29 O38 1.977 . S
O30 Zn29 2.032 . S
O30 C34 1.278 . S
C31 O32 1.203 . S
C31 O38 1.267 . S
O32 C31 1.203 . S
O33 C26 1.185 . S
O33 Zn29 2.086 . S
C34 O30 1.278 . S
C34 O35 1.211 . S
O35 C34 1.211 . S
C36 O28 1.284 . S
C36 O37 1.273 . S
O37 C36 1.273 . S
O38 Zn29 1.977 . S
O38 C31 1.267 . S
C39 O40 1.160 . S
C39 O46 1.185 . S
O40 C39 1.160 . S
O41 Zn42 1.899 . S
O41 C49 1.284 . S
Zn42 O41 1.899 . S
Zn42 O43 2.032 . S
Zn42 O46 2.086 . S
Zn42 O51 1.977 . S
O43 Zn42 2.032 . S
O43 C47 1.278 . S
C44 O45 1.203 . S
C44 O51 1.267 . S
O45 C44 1.203 . S
O46 C39 1.185 . S
O46 Zn42 2.086 . S
C47 O43 1.278 . S
C47 O48 1.211 . S
O48 C47 1.211 . S
C49 O41 1.284 . S
C49 O50 1.273 . S
O50 C49 1.273 . S
O51 Zn42 1.977 . S
O51 C44 1.267 . S
C52 O53 1.160 . S
C52 O59 1.185 . S
O53 C52 1.160 . S
O54 Zn55 1.899 . S
O54 C62 1.284 . S
Zn55 O54 1.899 . S
Zn55 O56 2.032 . S
Zn55 O59 2.086 . S
Zn55 O64 1.977 . S
O56 Zn55 2.032 . S
O56 C60 1.278 . S
C57 O58 1.203 . S
C57 O64 1.267 . S
O58 C57 1.203 . S
O59 C52 1.185 . S
O59 Zn55 2.086 . S
C60 O56 1.278 . S
C60 O61 1.211 . S
O61 C60 1.211 . S
C62 O54 1.284 . S
C62 O63 1.273 . S
O63 C62 1.273 . S
O64 Zn55 1.977 . S
O64 C57 1.267 . S
C65 O66 1.160 . S
C65 O72 1.185 . S
O66 C65 1.160 . S
O67 Zn68 1.899 . S
O67 C75 1.284 . S
Zn68 O67 1.899 . S
Zn68 O69 2.032 . S
Zn68 O72 2.086 . S
Zn68 O77 1.977 . S
O69 Zn68 2.032 . S
O69 C73 1.278 . S
C70 O71 1.203 . S
C70 O77 1.267 . S
O71 C70 1.203 . S
O72 C65 1.185 . S
O72 Zn68 2.086 . S
C73 O69 1.278 . S
C73 O74 1.211 . S
O74 C73 1.211 . S
C75 O67 1.284 . S
C75 O76 1.273 . S
O76 C75 1.273 . S
O77 Zn68 1.977 . S
O77 C70 1.267 . S
C78 O79 1.160 . S
C78 O85 1.185 . S
O79 C78 1.160 . S
O80 Zn81 1.899 . S
O80 C88 1.284 . S
Zn81 O80 1.899 . S
Zn81 O82 2.032 . S
Zn81 O85 2.086 . S
Zn81 O90 1.977 . S
O82 Zn81 2.032 . S
O82 C86 1.278 . S
C83 O84 1.203 . S
C83 O90 1.267 . S
O84 C83 1.203 . S
O85 C78 1.185 . S
O85 Zn81 2.086 . S
C86 O82 1.278 . S
C86 O87 1.211 . S
O87 C86 1.211 . S
C88 O80 1.284 . S
C88 O89 1.273 . S
O89 C88 1.273 . S
O90 Zn81 1.977 . S
O90 C83 1.267 . S
C91 O92 1.160 . S
C91 O98 1.185 . S
O92 C91 1.160 . S
O93 Zn94 1.899 . S
O93 C101 1.284 . S
Zn94 O93 1.899 . S
Zn94 O95 2.032 . S
Zn94 O98 2.086 . S
Zn94 O103 1.977 . S
O95 Zn94 2.032 . S
O95 C99 1.278 . S
C96 O97 1.203 . S
C96 O103 1.267 . S
O97 C96 1.203 . S
O98 C91 1.185 . S
O98 Zn94 2.086 . S
C99 O95 1.278 . S
C99 O100 1.211 . S
O100 C99 1.211 . S
C101 O93 1.284 . S
C101 O102 1.273 . S
O102 C101 1.273 . S
O103 Zn94 1.977 . S
O103 C96 1.267 . S
H104 C105 0.951 . S
C105 H104 0.951 . S
C105 C111 1.265 . S
H106 C111 0.950 . S
H107 C115 0.949 . S
H108 C116 0.950 . S
H109 C117 0.951 . S
H110 C118 0.951 . S
C111 C105 1.265 . S
C111 H106 0.950 . S
C111 C112 1.478 . S
C112 C111 1.478 . S
C112 C113 1.397 . S
C112 C129 1.394 . S
C113 C112 1.397 . S
C113 C114 1.438 . S
C113 C118 1.429 . S
C114 C113 1.438 . S
C114 C115 1.428 . S
C114 C127 1.394 . S
C115 H107 0.949 . S
C115 C114 1.428 . S
C115 C116 1.345 . S
C116 H108 0.950 . S
C116 C115 1.345 . S
C116 C117 1.424 . S
C117 H109 0.951 . S
C117 C116 1.424 . S
C117 C118 1.347 . S
C118 H110 0.951 . S
C118 C113 1.429 . S
C118 C117 1.347 . S
H119 C120 0.951 . S
C120 H119 0.951 . S
C120 C126 1.265 . S
H121 C126 0.950 . S
H122 C130 0.949 . S
H123 C131 0.950 . S
H124 C132 0.951 . S
H125 C133 0.951 . S
C126 C120 1.265 . S
C126 H121 0.950 . S
C126 C127 1.478 . S
C127 C114 1.394 . S
C127 C126 1.478 . S
C127 C128 1.397 . S
C128 C127 1.397 . S
C128 C129 1.438 . S
C128 C133 1.429 . S
C129 C112 1.394 . S
C129 C128 1.438 . S
C129 C130 1.428 . S
C130 H122 0.949 . S
C130 C129 1.428 . S
C130 C131 1.345 . S
C131 H123 0.950 . S
C131 C130 1.345 . S
C131 C132 1.424 . S
C132 H124 0.951 . S
C132 C131 1.424 . S
C132 C133 1.347 . S
C133 H125 0.951 . S
C133 C128 1.429 . S
C133 C132 1.347 . S
H134 C135 0.951 . S
C135 H134 0.951 . S
C135 C141 1.265 . S
H136 C141 0.950 . S
H137 C145 0.949 . S
H138 C146 0.950 . S
H139 C147 0.951 . S
H140 C148 0.951 . S
C141 C135 1.265 . S
C141 H136 0.950 . S
C141 C142 1.478 . S
C142 C141 1.478 . S
C142 C143 1.397 . S
C142 C159 1.394 . S
C143 C142 1.397 . S
C143 C144 1.438 . S
C143 C148 1.429 . S
C144 C143 1.438 . S
C144 C145 1.428 . S
C144 C157 1.394 . S
C145 H137 0.949 . S
C145 C144 1.428 . S
C145 C146 1.345 . S
C146 H138 0.950 . S
C146 C145 1.345 . S
C146 C147 1.424 . S
C147 H139 0.951 . S
C147 C146 1.424 . S
C147 C148 1.347 . S
C148 H140 0.951 . S
C148 C143 1.429 . S
C148 C147 1.347 . S
H149 C150 0.951 . S
C150 H149 0.951 . S
C150 C156 1.265 . S
H151 C156 0.950 . S
H152 C160 0.949 . S
H153 C161 0.950 . S
H154 C162 0.951 . S
H155 C163 0.951 . S
C156 C150 1.265 . S
C156 H151 0.950 . S
C156 C157 1.478 . S
C157 C144 1.394 . S
C157 C156 1.478 . S
C157 C158 1.397 . S
C158 C157 1.397 . S
C158 C159 1.438 . S
C158 C163 1.429 . S
C159 C142 1.394 . S
C159 C158 1.438 . S
C159 C160 1.428 . S
C160 H152 0.949 . S
C160 C159 1.428 . S
C160 C161 1.345 . S
C161 H153 0.950 . S
C161 C160 1.345 . S
C161 C162 1.424 . S
C162 H154 0.951 . S
C162 C161 1.424 . S
C162 C163 1.347 . S
C163 H155 0.951 . S
C163 C158 1.429 . S
C163 C162 1.347 . S
H164 C165 0.951 . S
C165 H164 0.951 . S
C165 C171 1.265 . S
H166 C171 0.950 . S
H167 C175 0.949 . S
H168 C176 0.950 . S
H169 C177 0.951 . S
H170 C178 0.951 1_554 S
C171 C165 1.265 . S
C171 H166 0.950 . S
C171 C172 1.478 . S
C172 C171 1.478 . S
C172 C173 1.397 1_554 S
C172 C189 1.394 1_545 S
C173 C172 1.397 1_556 S
C173 C174 1.438 . S
C173 C178 1.429 . S
C174 C173 1.438 . S
C174 C175 1.428 . S
C174 C187 1.394 1_545 S
C175 H167 0.949 . S
C175 C174 1.428 . S
C175 C176 1.345 . S
C176 H168 0.950 . S
C176 C175 1.345 . S
C176 C177 1.424 . S
C177 H169 0.951 . S
C177 C176 1.424 . S
C177 C178 1.347 . S
C178 H170 0.951 1_556 S
C178 C173 1.429 . S
C178 C177 1.347 . S
H179 C180 0.951 . S
C180 H179 0.951 . S
C180 C186 1.265 . S
H181 C186 0.950 . S
H182 C190 0.949 . S
H183 C191 0.950 . S
H184 C192 0.951 . S
H185 C193 0.951 1_556 S
C186 C180 1.265 . S
C186 H181 0.950 . S
C186 C187 1.478 . S
C187 C174 1.394 1_565 S
C187 C186 1.478 . S
C187 C188 1.397 1_556 S
C188 C187 1.397 1_554 S
C188 C189 1.438 . S
C188 C193 1.429 . S
C189 C172 1.394 1_565 S
C189 C188 1.438 . S
C189 C190 1.428 . S
C190 H182 0.949 . S
C190 C189 1.428 . S
C190 C191 1.345 . S
C191 H183 0.950 . S
C191 C190 1.345 . S
C191 C192 1.424 . S
C192 H184 0.951 . S
C192 C191 1.424 . S
C192 C193 1.347 . S
C193 H185 0.951 1_554 S
C193 C188 1.429 . S
C193 C192 1.347 . S
H194 C195 0.951 . S
C195 H194 0.951 . S
C195 C201 1.265 . S
H196 C201 0.950 . S
H197 C205 0.949 . S
H198 C206 0.950 . S
H199 C207 0.951 . S
H200 C208 0.951 1_655 S
C201 C195 1.265 . S
C201 H196 0.950 . S
C201 C202 1.478 . S
C202 C201 1.478 . S
C202 C203 1.397 1_655 S
C202 C219 1.394 . S
C203 C202 1.397 1_455 S
C203 C204 1.438 . S
C203 C208 1.429 . S
C204 C203 1.438 . S
C204 C205 1.428 . S
C204 C217 1.394 . S
C205 H197 0.949 . S
C205 C204 1.428 . S
C205 C206 1.345 . S
C206 H198 0.950 . S
C206 C205 1.345 . S
C206 C207 1.424 . S
C207 H199 0.951 . S
C207 C206 1.424 . S
C207 C208 1.347 . S
C208 H200 0.951 1_455 S
C208 C203 1.429 . S
C208 C207 1.347 . S
H209 C210 0.951 . S
C210 H209 0.951 . S
C210 C216 1.265 . S
H211 C216 0.950 . S
H212 C220 0.949 . S
H213 C221 0.950 . S
H214 C222 0.951 . S
H215 C223 0.951 1_455 S
C216 C210 1.265 . S
C216 H211 0.950 . S
C216 C217 1.478 . S
C217 C204 1.394 . S
C217 C216 1.478 . S
C217 C218 1.397 1_455 S
C218 C217 1.397 1_655 S
C218 C219 1.438 . S
C218 C223 1.429 . S
C219 C202 1.394 . S
C219 C218 1.438 . S
C219 C220 1.428 . S
C220 H212 0.949 . S
C220 C219 1.428 . S
C220 C221 1.345 . S
C221 H213 0.950 . S
C221 C220 1.345 . S
C221 C222 1.424 . S
C222 H214 0.951 . S
C222 C221 1.424 . S
C222 C223 1.347 . S
C223 H215 0.951 1_655 S
C223 C218 1.429 . S
C223 C222 1.347 . S
H224 C225 0.951 . S
C225 H224 0.951 . S
C225 C231 1.265 . S
H226 C231 0.950 . S
H227 C235 0.949 . S
H228 C236 0.950 . S
H229 C237 0.951 . S
H230 C238 0.951 . S
C231 C225 1.265 . S
C231 H226 0.950 . S
C231 C232 1.478 . S
C232 C231 1.478 . S
C232 C233 1.397 1_565 S
C232 C249 1.394 . S
C233 C232 1.397 1_545 S
C233 C234 1.438 . S
C233 C238 1.429 . S
C234 C233 1.438 . S
C234 C235 1.428 . S
C234 C247 1.394 . S
C235 H227 0.949 . S
C235 C234 1.428 . S
C235 C236 1.345 . S
C236 H228 0.950 . S
C236 C235 1.345 . S
C236 C237 1.424 . S
C237 H229 0.951 . S
C237 C236 1.424 . S
C237 C238 1.347 . S
C238 H230 0.951 . S
C238 C233 1.429 . S
C238 C237 1.347 . S
H239 C240 0.951 . S
C240 H239 0.951 . S
C240 C246 1.265 . S
H241 C246 0.950 . S
H242 C250 0.949 . S
H243 C251 0.950 . S
H244 C252 0.951 . S
H245 C253 0.951 . S
C246 C240 1.265 . S
C246 H241 0.950 . S
C246 C247 1.478 . S
C247 C234 1.394 . S
C247 C246 1.478 . S
C247 C248 1.397 1_545 S
C248 C247 1.397 1_565 S
C248 C249 1.438 . S
C248 C253 1.429 . S
C249 C232 1.394 . S
C249 C248 1.438 . S
C249 C250 1.428 . S
C250 H242 0.949 . S
C250 C249 1.428 . S
C250 C251 1.345 . S
C251 H243 0.950 . S
C251 C250 1.345 . S
C251 C252 1.424 . S
C252 H244 0.951 . S
C252 C251 1.424 . S
C252 C253 1.347 . S
C253 H245 0.951 . S
C253 C248 1.429 . S
C253 C252 1.347 . S
H254 C255 0.951 . S
C255 H254 0.951 . S
C255 C261 1.265 . S
H256 C261 0.950 . S
H257 C265 0.949 1_455 S
H258 C266 0.950 . S
H259 C267 0.951 . S
H260 C268 0.951 . S
C261 C255 1.265 . S
C261 H256 0.950 . S
C261 C262 1.478 . S
C262 C261 1.478 . S
C262 C263 1.397 1_556 S
C262 C279 1.395 . S
C263 C262 1.397 1_554 S
C263 C264 1.437 1_655 S
C263 C268 1.429 . S
C264 C263 1.437 1_455 S
C264 C265 1.428 1_455 S
C264 C277 1.395 . S
C265 H257 0.949 1_655 S
C265 C264 1.428 1_655 S
C265 C266 1.345 . S
C266 H258 0.950 . S
C266 C265 1.345 . S
C266 C267 1.424 . S
C267 H259 0.951 . S
C267 C266 1.424 . S
C267 C268 1.347 . S
C268 H260 0.951 . S
C268 C263 1.429 . S
C268 C267 1.347 . S
H269 C270 0.951 . S
C270 H269 0.951 . S
C270 C276 1.265 . S
H271 C276 0.950 . S
H272 C280 0.949 1_655 S
H273 C281 0.950 . S
H274 C282 0.951 . S
H275 C283 0.951 . S
C276 C270 1.265 . S
C276 H271 0.950 . S
C276 C277 1.478 . S
C277 C264 1.395 . S
C277 C276 1.478 . S
C277 C278 1.397 1_554 S
C278 C277 1.397 1_556 S
C278 C279 1.437 1_455 S
C278 C283 1.429 . S
C279 C262 1.395 . S
C279 C278 1.437 1_655 S
C279 C280 1.428 1_655 S
C280 H272 0.949 1_455 S
C280 C279 1.428 1_455 S
C280 C281 1.345 . S
C281 H273 0.950 . S
C281 C280 1.345 . S
C281 C282 1.424 . S
C282 H274 0.951 . S
C282 C281 1.424 . S
C282 C283 1.347 . S
C283 H275 0.951 . S
C283 C278 1.429 . S
C283 C282 1.347 . S
H284 C285 0.951 . S
C285 H284 0.951 . S
C285 C291 1.265 . S
H286 C291 0.950 . S
H287 C295 0.949 . S
H288 C296 0.950 . S
H289 C297 0.951 . S
H290 C298 0.951 . S
C291 C285 1.265 . S
C291 H286 0.950 . S
C291 C292 1.478 . S
C292 C291 1.478 . S
C292 C293 1.397 . S
C292 C309 1.394 . S
C293 C292 1.397 . S
C293 C294 1.438 . S
C293 C298 1.429 . S
C294 C293 1.438 . S
C294 C295 1.428 . S
C294 C307 1.394 . S
C295 H287 0.949 . S
C295 C294 1.428 . S
C295 C296 1.345 . S
C296 H288 0.950 . S
C296 C295 1.345 . S
C296 C297 1.424 . S
C297 H289 0.951 . S
C297 C296 1.424 . S
C297 C298 1.347 . S
C298 H290 0.951 . S
C298 C293 1.429 . S
C298 C297 1.347 . S
H299 C300 0.951 . S
C300 H299 0.951 . S
C300 C306 1.265 . S
H301 C306 0.950 . S
H302 C310 0.949 . S
H303 C311 0.950 . S
H304 C312 0.951 . S
H305 C313 0.951 . S
C306 C300 1.265 . S
C306 H301 0.950 . S
C306 C307 1.478 . S
C307 C294 1.394 . S
C307 C306 1.478 . S
C307 C308 1.397 . S
C308 C307 1.397 . S
C308 C309 1.438 . S
C308 C313 1.429 . S
C309 C292 1.394 . S
C309 C308 1.438 . S
C309 C310 1.428 . S
C310 H302 0.949 . S
C310 C309 1.428 . S
C310 C311 1.345 . S
C311 H303 0.950 . S
C311 C310 1.345 . S
C311 C312 1.424 . S
C312 H304 0.951 . S
C312 C311 1.424 . S
C312 C313 1.347 . S
C313 H305 0.951 . S
C313 C308 1.429 . S
C313 C312 1.347 . S
H314 C315 0.951 . S
C315 H314 0.951 . S
C315 C321 1.265 . S
H316 C321 0.950 . S
H317 C325 0.949 . S
H318 C326 0.950 . S
H319 C327 0.951 . S
H320 C328 0.951 . S
C321 C315 1.265 . S
C321 H316 0.950 . S
C321 C322 1.478 . S
C322 C321 1.478 . S
C322 C323 1.397 . S
C322 C339 1.394 . S
C323 C322 1.397 . S
C323 C324 1.438 . S
C323 C328 1.429 . S
C324 C323 1.438 . S
C324 C325 1.428 . S
C324 C337 1.394 . S
C325 H317 0.949 . S
C325 C324 1.428 . S
C325 C326 1.345 . S
C326 H318 0.950 . S
C326 C325 1.345 . S
C326 C327 1.424 . S
C327 H319 0.951 . S
C327 C326 1.424 . S
C327 C328 1.347 . S
C328 H320 0.951 . S
C328 C323 1.429 . S
C328 C327 1.347 . S
H329 C330 0.951 . S
C330 H329 0.951 . S
C330 C336 1.265 . S
H331 C336 0.950 . S
H332 C340 0.949 . S
H333 C341 0.950 . S
H334 C342 0.951 . S
H335 C343 0.951 . S
C336 C330 1.265 . S
C336 H331 0.950 . S
C336 C337 1.478 . S
C337 C324 1.394 . S
C337 C336 1.478 . S
C337 C338 1.397 . S
C338 C337 1.397 . S
C338 C339 1.438 . S
C338 C343 1.429 . S
C339 C322 1.394 . S
C339 C338 1.438 . S
C339 C340 1.428 . S
C340 H332 0.949 . S
C340 C339 1.428 . S
C340 C341 1.345 . S
C341 H333 0.950 . S
C341 C340 1.345 . S
C341 C342 1.424 . S
C342 H334 0.951 . S
C342 C341 1.424 . S
C342 C343 1.347 . S
C343 H335 0.951 . S
C343 C338 1.429 . S
C343 C342 1.347 . S
H344 C345 0.951 . S
C345 H344 0.951 . S
C345 C351 1.265 . S
H346 C351 0.950 . S
H347 C355 0.949 . S
H348 C356 0.950 . S
H349 C357 0.951 . S
H350 C358 0.951 . S
C351 C345 1.265 . S
C351 H346 0.950 . S
C351 C352 1.478 . S
C352 C351 1.478 . S
C352 C353 1.397 . S
C352 C369 1.394 . S
C353 C352 1.397 . S
C353 C354 1.438 . S
C353 C358 1.429 . S
C354 C353 1.438 . S
C354 C355 1.428 . S
C354 C367 1.394 . S
C355 H347 0.949 . S
C355 C354 1.428 . S
C355 C356 1.345 . S
C356 H348 0.950 . S
C356 C355 1.345 . S
C356 C357 1.424 . S
C357 H349 0.951 . S
C357 C356 1.424 . S
C357 C358 1.347 . S
C358 H350 0.951 . S
C358 C353 1.429 . S
C358 C357 1.347 . S
H359 C360 0.951 . S
C360 H359 0.951 . S
C360 C366 1.265 . S
H361 C366 0.950 . S
H362 C370 0.949 . S
H363 C371 0.950 . S
H364 C372 0.951 . S
H365 C373 0.951 . S
C366 C360 1.265 . S
C366 H361 0.950 . S
C366 C367 1.478 . S
C367 C354 1.394 . S
C367 C366 1.478 . S
C367 C368 1.397 . S
C368 C367 1.397 . S
C368 C369 1.438 . S
C368 C373 1.429 . S
C369 C352 1.394 . S
C369 C368 1.438 . S
C369 C370 1.428 . S
C370 H362 0.949 . S
C370 C369 1.428 . S
C370 C371 1.345 . S
C371 H363 0.950 . S
C371 C370 1.345 . S
C371 C372 1.424 . S
C372 H364 0.951 . S
C372 C371 1.424 . S
C372 C373 1.347 . S
C373 H365 0.951 . S
C373 C368 1.429 . S
C373 C372 1.347 . S
H374 C375 0.951 . S
C375 H374 0.951 . S
C375 C381 1.265 . S
H376 C381 0.950 . S
H377 C385 0.949 . S
H378 C386 0.950 . S
H379 C387 0.951 . S
H380 C388 0.951 . S
C381 C375 1.265 . S
C381 H376 0.950 . S
C381 C382 1.478 . S
C382 C381 1.478 . S
C382 C383 1.397 . S
C382 C399 1.394 1_556 S
C383 C382 1.397 . S
C383 C384 1.438 . S
C383 C388 1.429 . S
C384 C383 1.438 . S
C384 C385 1.428 . S
C384 C397 1.394 1_556 S
C385 H377 0.949 . S
C385 C384 1.428 . S
C385 C386 1.345 . S
C386 H378 0.950 . S
C386 C385 1.345 . S
C386 C387 1.424 . S
C387 H379 0.951 . S
C387 C386 1.424 . S
C387 C388 1.347 . S
C388 H380 0.951 . S
C388 C383 1.429 . S
C388 C387 1.347 . S
H389 C390 0.951 . S
C390 H389 0.951 . S
C390 C396 1.265 . S
H391 C396 0.950 . S
H392 C400 0.949 . S
H393 C401 0.950 . S
H394 C402 0.951 . S
H395 C403 0.951 . S
C396 C390 1.265 . S
C396 H391 0.950 . S
C396 C397 1.478 . S
C397 C384 1.394 1_554 S
C397 C396 1.478 . S
C397 C398 1.397 . S
C398 C397 1.397 . S
C398 C399 1.438 . S
C398 C403 1.429 . S
C399 C382 1.394 1_554 S
C399 C398 1.438 . S
C399 C400 1.428 . S
C400 H392 0.949 . S
C400 C399 1.428 . S
C400 C401 1.345 . S
C401 H393 0.950 . S
C401 C400 1.345 . S
C401 C402 1.424 . S
C402 H394 0.951 . S
C402 C401 1.424 . S
C402 C403 1.347 . S
C403 H395 0.951 . S
C403 C398 1.429 . S
C403 C402 1.347 . S
H404 C405 0.951 . S
C405 H404 0.951 . S
C405 C411 1.265 . S
H406 C411 0.950 . S
H407 C415 0.949 . S
H408 C416 0.950 . S
H409 C417 0.951 . S
H410 C418 0.951 . S
C411 C405 1.265 . S
C411 H406 0.950 . S
C411 C412 1.478 . S
C412 C411 1.478 . S
C412 C413 1.397 . S
C412 C429 1.394 1_565 S
C413 C412 1.397 . S
C413 C414 1.438 . S
C413 C418 1.429 . S
C414 C413 1.438 . S
C414 C415 1.428 . S
C414 C427 1.394 1_565 S
C415 H407 0.949 . S
C415 C414 1.428 . S
C415 C416 1.345 . S
C416 H408 0.950 . S
C416 C415 1.345 . S
C416 C417 1.424 . S
C417 H409 0.951 . S
C417 C416 1.424 . S
C417 C418 1.347 . S
C418 H410 0.951 . S
C418 C413 1.429 . S
C418 C417 1.347 . S
H419 C420 0.951 . S
C420 H419 0.951 . S
C420 C426 1.265 . S
H421 C426 0.950 . S
H422 C430 0.949 . S
H423 C431 0.950 . S
H424 C432 0.951 . S
H425 C433 0.951 . S
C426 C420 1.265 . S
C426 H421 0.950 . S
C426 C427 1.478 . S
C427 C414 1.394 1_545 S
C427 C426 1.478 . S
C427 C428 1.397 . S
C428 C427 1.397 . S
C428 C429 1.438 . S
C428 C433 1.429 . S
C429 C412 1.394 1_545 S
C429 C428 1.438 . S
C429 C430 1.428 . S
C430 H422 0.949 . S
C430 C429 1.428 . S
C430 C431 1.345 . S
C431 H423 0.950 . S
C431 C430 1.345 . S
C431 C432 1.424 . S
C432 H424 0.951 . S
C432 C431 1.424 . S
C432 C433 1.347 . S
C433 H425 0.951 . S
C433 C428 1.429 . S
C433 C432 1.347 . S
H434 C435 0.951 . S
C435 H434 0.951 . S
C435 C441 1.265 . S
H436 C441 0.950 . S
H437 C445 0.949 . S
H438 C446 0.950 . S
H439 C447 0.951 . S
H440 C448 0.951 . S
C441 C435 1.265 . S
C441 H436 0.950 . S
C441 C442 1.478 . S
C442 C441 1.478 . S
C442 C443 1.397 . S
C442 C459 1.394 1_565 S
C443 C442 1.397 . S
C443 C444 1.438 1_655 S
C443 C448 1.429 . S
C444 C443 1.438 1_455 S
C444 C445 1.428 . S
C444 C457 1.394 1_565 S
C445 H437 0.949 . S
C445 C444 1.428 . S
C445 C446 1.345 . S
C446 H438 0.950 . S
C446 C445 1.345 . S
C446 C447 1.424 1_455 S
C447 H439 0.951 . S
C447 C446 1.424 1_655 S
C447 C448 1.347 . S
C448 H440 0.951 . S
C448 C443 1.429 . S
C448 C447 1.347 . S
H449 C450 0.951 . S
C450 H449 0.951 . S
C450 C456 1.265 . S
H451 C456 0.950 . S
H452 C460 0.949 . S
H453 C461 0.950 . S
H454 C462 0.951 . S
H455 C463 0.951 . S
C456 C450 1.265 . S
C456 H451 0.950 . S
C456 C457 1.478 . S
C457 C444 1.394 1_545 S
C457 C456 1.478 . S
C457 C458 1.397 . S
C458 C457 1.397 . S
C458 C459 1.438 1_455 S
C458 C463 1.429 . S
C459 C442 1.394 1_545 S
C459 C458 1.438 1_655 S
C459 C460 1.428 . S
C460 H452 0.949 . S
C460 C459 1.428 . S
C460 C461 1.345 . S
C461 H453 0.950 . S
C461 C460 1.345 . S
C461 C462 1.424 1_655 S
C462 H454 0.951 . S
C462 C461 1.424 1_455 S
C462 C463 1.347 . S
C463 H455 0.951 . S
C463 C458 1.429 . S
C463 C462 1.347 . S
H464 C465 0.951 . S
C465 H464 0.951 . S
C465 C471 1.265 . S
H466 C471 0.950 . S
H467 C475 0.949 . S
H468 C476 0.950 . S
H469 C477 0.951 . S
H470 C478 0.951 . S
C471 C465 1.265 . S
C471 H466 0.950 . S
C471 C472 1.478 . S
C472 C471 1.478 . S
C472 C473 1.397 . S
C472 C489 1.394 . S
C473 C472 1.397 . S
C473 C474 1.438 1_655 S
C473 C478 1.429 . S
C474 C473 1.438 1_455 S
C474 C475 1.428 . S
C474 C487 1.394 . S
C475 H467 0.949 . S
C475 C474 1.428 . S
C475 C476 1.345 . S
C476 H468 0.950 . S
C476 C475 1.345 . S
C476 C477 1.424 . S
C477 H469 0.951 . S
C477 C476 1.424 . S
C477 C478 1.347 1_455 S
C478 H470 0.951 . S
C478 C473 1.429 . S
C478 C477 1.347 1_655 S
H479 C480 0.951 . S
C480 H479 0.951 . S
C480 C486 1.265 . S
H481 C486 0.950 . S
H482 C490 0.949 . S
H483 C491 0.950 . S
H484 C492 0.951 . S
H485 C493 0.951 . S
C486 C480 1.265 . S
C486 H481 0.950 . S
C486 C487 1.478 . S
C487 C474 1.394 . S
C487 C486 1.478 . S
C487 C488 1.397 . S
C488 C487 1.397 . S
C488 C489 1.438 1_455 S
C488 C493 1.429 . S
C489 C472 1.394 . S
C489 C488 1.438 1_655 S
C489 C490 1.428 . S
C490 H482 0.949 . S
C490 C489 1.428 . S
C490 C491 1.345 . S
C491 H483 0.950 . S
C491 C490 1.345 . S
C491 C492 1.424 . S
C492 H484 0.951 . S
C492 C491 1.424 . S
C492 C493 1.347 1_655 S
C493 H485 0.951 . S
C493 C488 1.429 . S
C493 C492 1.347 1_455 S
H494 C495 0.951 . S
C495 H494 0.951 . S
C495 C501 1.265 . S
H496 C501 0.950 . S
H497 C505 0.949 . S
H498 C506 0.950 . S
H499 C507 0.951 . S
H500 C508 0.951 . S
C501 C495 1.265 . S
C501 H496 0.950 . S
C501 C502 1.478 . S
C502 C501 1.478 . S
C502 C503 1.397 . S
C502 C519 1.394 . S
C503 C502 1.397 . S
C503 C504 1.438 . S
C503 C508 1.429 . S
C504 C503 1.438 . S
C504 C505 1.428 . S
C504 C517 1.394 . S
C505 H497 0.949 . S
C505 C504 1.428 . S
C505 C506 1.345 . S
C506 H498 0.950 . S
C506 C505 1.345 . S
C506 C507 1.424 . S
C507 H499 0.951 . S
C507 C506 1.424 . S
C507 C508 1.347 . S
C508 H500 0.951 . S
C508 C503 1.429 . S
C508 C507 1.347 . S
H509 C510 0.951 . S
C510 H509 0.951 . S
C510 C516 1.265 . S
H511 C516 0.950 . S
H512 C520 0.949 . S
H513 C521 0.950 . S
H514 C522 0.951 . S
H515 C523 0.951 . S
C516 C510 1.265 . S
C516 H511 0.950 . S
C516 C517 1.478 . S
C517 C504 1.394 . S
C517 C516 1.478 . S
C517 C518 1.397 . S
C518 C517 1.397 . S
C518 C519 1.438 . S
C518 C523 1.429 . S
C519 C502 1.394 . S
C519 C518 1.438 . S
C519 C520 1.428 . S
C520 H512 0.949 . S
C520 C519 1.428 . S
C520 C521 1.345 . S
C521 H513 0.950 . S
C521 C520 1.345 . S
C521 C522 1.424 . S
C522 H514 0.951 . S
C522 C521 1.424 . S
C522 C523 1.347 . S
C523 H515 0.951 . S
C523 C518 1.429 . S
C523 C522 1.347 . S
H524 C525 0.951 . S
C525 H524 0.951 . S
C525 C531 1.265 . S
H526 C531 0.950 . S
H527 C535 0.949 . S
H528 C536 0.950 . S
H529 C537 0.951 . S
H530 C538 0.951 . S
C531 C525 1.265 . S
C531 H526 0.950 . S
C531 C532 1.478 . S
C532 C531 1.478 . S
C532 C533 1.397 . S
C532 C549 1.394 1_554 S
C533 C532 1.397 . S
C533 C534 1.438 . S
C533 C538 1.429 . S
C534 C533 1.438 . S
C534 C535 1.428 . S
C534 C547 1.394 1_554 S
C535 H527 0.949 . S
C535 C534 1.428 . S
C535 C536 1.345 . S
C536 H528 0.950 . S
C536 C535 1.345 . S
C536 C537 1.424 . S
C537 H529 0.951 . S
C537 C536 1.424 . S
C537 C538 1.347 . S
C538 H530 0.951 . S
C538 C533 1.429 . S
C538 C537 1.347 . S
H539 C540 0.951 . S
C540 H539 0.951 . S
C540 C546 1.265 . S
H541 C546 0.950 . S
H542 C550 0.949 . S
H543 C551 0.950 . S
H544 C552 0.951 . S
H545 C553 0.951 . S
C546 C540 1.265 . S
C546 H541 0.950 . S
C546 C547 1.478 . S
C547 C534 1.394 1_556 S
C547 C546 1.478 . S
C547 C548 1.397 . S
C548 C547 1.397 . S
C548 C549 1.438 . S
C548 C553 1.429 . S
C549 C532 1.394 1_556 S
C549 C548 1.438 . S
C549 C550 1.428 . S
C550 H542 0.949 . S
C550 C549 1.428 . S
C550 C551 1.345 . S
C551 H543 0.950 . S
C551 C550 1.345 . S
C551 C552 1.424 . S
C552 H544 0.951 . S
C552 C551 1.424 . S
C552 C553 1.347 . S
C553 H545 0.951 . S
C553 C548 1.429 . S
C553 C552 1.347 . S
H554 C555 0.951 . S
C555 H554 0.951 . S
C555 C561 1.265 . S
H556 C561 0.950 . S
H557 C565 0.949 . S
H558 C566 0.950 . S
H559 C567 0.951 . S
H560 C568 0.951 . S
C561 C555 1.265 . S
C561 H556 0.950 . S
C561 C562 1.478 . S
C562 C561 1.478 . S
C562 C563 1.397 . S
C562 C579 1.394 . S
C563 C562 1.397 . S
C563 C564 1.438 . S
C563 C568 1.429 . S
C564 C563 1.438 . S
C564 C565 1.428 . S
C564 C577 1.394 . S
C565 H557 0.949 . S
C565 C564 1.428 . S
C565 C566 1.345 . S
C566 H558 0.950 . S
C566 C565 1.345 . S
C566 C567 1.424 . S
C567 H559 0.951 . S
C567 C566 1.424 . S
C567 C568 1.347 . S
C568 H560 0.951 . S
C568 C563 1.429 . S
C568 C567 1.347 . S
H569 C570 0.951 . S
C570 H569 0.951 . S
C570 C576 1.265 . S
H571 C576 0.950 . S
H572 C580 0.949 . S
H573 C581 0.950 . S
H574 C582 0.951 . S
H575 C583 0.951 . S
C576 C570 1.265 . S
C576 H571 0.950 . S
C576 C577 1.478 . S
C577 C564 1.394 . S
C577 C576 1.478 . S
C577 C578 1.397 . S
C578 C577 1.397 . S
C578 C579 1.438 . S
C578 C583 1.429 . S
C579 C562 1.394 . S
C579 C578 1.438 . S
C579 C580 1.428 . S
C580 H572 0.949 . S
C580 C579 1.428 . S
C580 C581 1.345 . S
C581 H573 0.950 . S
C581 C580 1.345 . S
C581 C582 1.424 . S
C582 H574 0.951 . S
C582 C581 1.424 . S
C582 C583 1.347 . S
C583 H575 0.951 . S
C583 C578 1.429 . S
C583 C582 1.347 . S
C105 C75 1.485 . S
C120 C5 1.441 . S
C135 C101 1.456 . S
C150 C18 1.484 . S
C165 C34 1.439 . S
C180 C86 1.439 . S
C195 C39 1.457 . S
C210 C52 1.501 . S
C225 C83 1.499 . S
C240 C10 1.478 . S
C255 C21 1.493 . S
C270 C60 1.479 . S
C285 C65 1.445 . S
C300 C26 1.496 . S
C315 C49 1.458 . S
C330 C96 1.487 . S
C345 C62 1.454 . S
C360 C70 1.480 . S
C375 C23 1.471 . S
C390 C31 1.497 . S
C405 C44 1.437 . S
C420 C36 1.475 . S
C435 C47 1.479 . S
C450 C8 1.493 . S
C465 C13 1.460 . S
C480 C0 1.447 . S
C495 C91 1.454 . S
C510 C78 1.452 . S
C525 C57 1.438 . S
C540 C88 1.478 . S
C555 C73 1.487 . S
C570 C99 1.486 . S
