# Generated by pormake.
# Topology und, (4)-cn, num edge types: 1
# Building blocks:
#     Node 0, Type 0, BuildingBlock: GALJAG_clean_sbu_0, # of connection points: 4
#     Node 1, Type 0, BuildingBlock: GALJAG_clean_sbu_0, # of connection points: 4
#     Node 2, Type 0, BuildingBlock: GALJAG_clean_sbu_0, # of connection points: 4
#     Node 3, Type 0, BuildingBlock: GALJAG_clean_sbu_0, # of connection points: 4
#     Node 4, Type 0, BuildingBlock: GALJAG_clean_sbu_0, # of connection points: 4
#     Node 5, Type 0, BuildingBlock: GALJAG_clean_sbu_0, # of connection points: 4
#     Node 6, Type 0, BuildingBlock: GALJAG_clean_sbu_0, # of connection points: 4
#     Node 7, Type 0, BuildingBlock: GALJAG_clean_sbu_0, # of connection points: 4
#     Node 8, Type 0, BuildingBlock: GALJAG_clean_sbu_0, # of connection points: 4
#     Node 9, Type 0, BuildingBlock: GALJAG_clean_sbu_0, # of connection points: 4
#     Node 10, Type 0, BuildingBlock: GALJAG_clean_sbu_0, # of connection points: 4
#     Node 11, Type 0, BuildingBlock: GALJAG_clean_sbu_0, # of connection points: 4
#     Node 12, Type 0, BuildingBlock: GALJAG_clean_sbu_0, # of connection points: 4
#     Node 13, Type 0, BuildingBlock: GALJAG_clean_sbu_0, # of connection points: 4
#     Node 14, Type 0, BuildingBlock: GALJAG_clean_sbu_0, # of connection points: 4
#     Node 15, Type 0, BuildingBlock: GALJAG_clean_sbu_0, # of connection points: 4
#     Edge 16, Type (0, 0), BuildingBlock: MIFKUJ_clean_linker_0, # of connection points: 2
#     Edge 17, Type (0, 0), BuildingBlock: MIFKUJ_clean_linker_0, # of connection points: 2
#     Edge 18, Type (0, 0), BuildingBlock: MIFKUJ_clean_linker_0, # of connection points: 2
#     Edge 19, Type (0, 0), BuildingBlock: MIFKUJ_clean_linker_0, # of connection points: 2
#     Edge 20, Type (0, 0), BuildingBlock: MIFKUJ_clean_linker_0, # of connection points: 2
#     Edge 21, Type (0, 0), BuildingBlock: MIFKUJ_clean_linker_0, # of connection points: 2
#     Edge 22, Type (0, 0), BuildingBlock: MIFKUJ_clean_linker_0, # of connection points: 2
#     Edge 23, Type (0, 0), BuildingBlock: MIFKUJ_clean_linker_0, # of connection points: 2
#     Edge 24, Type (0, 0), BuildingBlock: MIFKUJ_clean_linker_0, # of connection points: 2
#     Edge 25, Type (0, 0), BuildingBlock: MIFKUJ_clean_linker_0, # of connection points: 2
#     Edge 26, Type (0, 0), BuildingBlock: MIFKUJ_clean_linker_0, # of connection points: 2
#     Edge 27, Type (0, 0), BuildingBlock: MIFKUJ_clean_linker_0, # of connection points: 2
#     Edge 28, Type (0, 0), BuildingBlock: MIFKUJ_clean_linker_0, # of connection points: 2
#     Edge 29, Type (0, 0), BuildingBlock: MIFKUJ_clean_linker_0, # of connection points: 2
#     Edge 30, Type (0, 0), BuildingBlock: MIFKUJ_clean_linker_0, # of connection points: 2
#     Edge 31, Type (0, 0), BuildingBlock: MIFKUJ_clean_linker_0, # of connection points: 2
#     Edge 32, Type (0, 0), BuildingBlock: MIFKUJ_clean_linker_0, # of connection points: 2
#     Edge 33, Type (0, 0), BuildingBlock: MIFKUJ_clean_linker_0, # of connection points: 2
#     Edge 34, Type (0, 0), BuildingBlock: MIFKUJ_clean_linker_0, # of connection points: 2
#     Edge 35, Type (0, 0), BuildingBlock: MIFKUJ_clean_linker_0, # of connection points: 2
#     Edge 36, Type (0, 0), BuildingBlock: MIFKUJ_clean_linker_0, # of connection points: 2
#     Edge 37, Type (0, 0), BuildingBlock: MIFKUJ_clean_linker_0, # of connection points: 2
#     Edge 38, Type (0, 0), BuildingBlock: MIFKUJ_clean_linker_0, # of connection points: 2
#     Edge 39, Type (0, 0), BuildingBlock: MIFKUJ_clean_linker_0, # of connection points: 2
#     Edge 40, Type (0, 0), BuildingBlock: MIFKUJ_clean_linker_0, # of connection points: 2
#     Edge 41, Type (0, 0), BuildingBlock: MIFKUJ_clean_linker_0, # of connection points: 2
#     Edge 42, Type (0, 0), BuildingBlock: MIFKUJ_clean_linker_0, # of connection points: 2
#     Edge 43, Type (0, 0), BuildingBlock: MIFKUJ_clean_linker_0, # of connection points: 2
#     Edge 44, Type (0, 0), BuildingBlock: MIFKUJ_clean_linker_0, # of connection points: 2
#     Edge 45, Type (0, 0), BuildingBlock: MIFKUJ_clean_linker_0, # of connection points: 2
#     Edge 46, Type (0, 0), BuildingBlock: MIFKUJ_clean_linker_0, # of connection points: 2
#     Edge 47, Type (0, 0), BuildingBlock: MIFKUJ_clean_linker_0, # of connection points: 2
# Relax obj value: 0.013
# Max RMSD: 0.034
# Mean RMSD: 0.034
data_MOF--net-und--node1-GALJAG_clean_sbu_0--edge1-MIFKUJ_clean_linker_0
_symmetry_space_group_name_H-M    P1
_symmetry_Int_Tables_number       1
_symmetry_cell_setting            triclinic
loop_
_symmetry_equiv_pos_as_xyz
'x, y, z'
_cell_length_a     81.935739
_cell_length_b     81.935246
_cell_length_c     26.200404
_cell_angle_alpha  90.035563
_cell_angle_beta   90.003202
_cell_angle_gamma 90.000099
loop_
_atom_site_label
_atom_site_type_symbol
_atom_site_fract_x
_atom_site_fract_y
_atom_site_fract_z
_atom_type_partial_charge
In0 In 0.25188 0.3394 0.00406 0.0
O1 O 0.22774 0.353 0.99207 0.0
O2 O 0.24165 0.35817 0.0588 0.0
C3 C 0.25119 0.31613 0.93173 0.0
C4 C 0.27581 0.35943 0.97128 0.0
C5 C 0.25121 0.31797 0.08157 0.0
O6 O 0.23986 0.32655 0.93608 0.0
O7 O 0.26277 0.31775 0.96302 0.0
O8 O 0.26422 0.32513 0.06823 0.0
O9 O 0.23865 0.32202 0.05674 0.0
C10 C 0.22891 0.36097 0.03325 0.0
O11 O 0.27552 0.35386 0.01624 0.0
O12 O 0.26409 0.35493 0.94345 0.0
In13 In 0.91187 0.00145 0.25973 0.0
O14 O 0.90026 0.02675 0.26631 0.0
O15 O 0.89391 0.01193 0.20261 0.0
C16 C 0.93244 0.00071 0.33961 0.0
C17 C 0.89012 0.97887 0.29017 0.0
C18 C 0.93465 0.00083 0.18559 0.0
O19 O 0.92526 0.01366 0.32601 0.0
O20 O 0.92882 0.9882 0.31394 0.0
O21 O 0.92346 0.99022 0.188 0.0
O22 O 0.93408 0.01162 0.21979 0.0
C23 C 0.89211 0.02534 0.22558 0.0
O24 O 0.90035 0.97611 0.25507 0.0
O25 O 0.89084 0.99299 0.30936 0.0
In26 In 0.24804 0.66034 0.50326 0.0
O27 O 0.27351 0.64901 0.49727 0.0
O28 O 0.25681 0.63901 0.55103 0.0
C29 C 0.2486 0.68354 0.43073 0.0
C30 C 0.22516 0.64014 0.4651 0.0
C31 C 0.24735 0.68072 0.58401 0.0
O32 O 0.2605 0.67395 0.43767 0.0
O33 O 0.23656 0.68121 0.45981 0.0
O34 O 0.23474 0.67325 0.56886 0.0
O35 O 0.26015 0.67754 0.5593 0.0
C36 C 0.2709 0.63852 0.53169 0.0
O37 O 0.22427 0.64588 0.50982 0.0
O38 O 0.23756 0.64454 0.44009 0.0
In39 In 0.58918 0.00078 0.74776 0.0
O40 O 0.60477 0.02354 0.73189 0.0
O41 O 0.60526 0.01325 0.80632 0.0
C42 C 0.56661 0.00089 0.67324 0.0
C43 C 0.60977 0.97677 0.71937 0.0
C44 C 0.56682 0.00078 0.82275 0.0
O45 O 0.57503 0.01341 0.68365 0.0
O46 O 0.56995 0.98841 0.69946 0.0
O47 O 0.57603 0.98865 0.81475 0.0
O48 O 0.56918 0.01282 0.79366 0.0
C49 C 0.61033 0.02427 0.77682 0.0
O50 O 0.60342 0.97723 0.7633 0.0
O51 O 0.60579 0.98839 0.69039 0.0
In52 In 0.74934 0.66053 0.99983 0.0
O53 O 0.72524 0.64696 0.98795 0.0
O54 O 0.73832 0.64289 0.05698 0.0
C55 C 0.74964 0.68274 0.92439 0.0
C56 C 0.77239 0.63943 0.96762 0.0
C57 C 0.74919 0.68274 0.07546 0.0
O58 O 0.73723 0.67402 0.93347 0.0
O59 O 0.76179 0.67997 0.95267 0.0
O60 O 0.76153 0.67389 0.06649 0.0
O61 O 0.73703 0.68004 0.04715 0.0
C62 C 0.72588 0.63968 0.03043 0.0
O63 O 0.77349 0.64674 0.01001 0.0
O64 O 0.75972 0.6427 0.94233 0.0
In65 In 0.08957 0.00061 0.75082 0.0
O66 O 0.09709 0.02753 0.75071 0.0
O67 O 0.1143 0.00998 0.72465 0.0
C68 C 0.06493 0.00196 0.81896 0.0
C69 C 0.10849 0.97639 0.78729 0.0
C70 C 0.07251 0.99887 0.663 0.0
O71 O 0.07717 0.0113 0.82191 0.0
O72 O 0.0653 0.99202 0.78229 0.0
O73 O 0.0778 0.9863 0.68543 0.0
O74 O 0.07641 0.01218 0.6838 0.0
C75 C 0.11112 0.02481 0.73268 0.0
O76 O 0.10476 0.9775 0.74061 0.0
O77 O 0.10261 0.98744 0.81541 0.0
In78 In 0.74948 0.33861 0.50001 0.0
O79 O 0.72367 0.34931 0.5009 0.0
O80 O 0.7408 0.35902 0.44801 0.0
C81 C 0.74944 0.3181 0.57984 0.0
C82 C 0.77198 0.35975 0.53493 0.0
C83 C 0.75059 0.31567 0.42607 0.0
O84 O 0.73696 0.32632 0.56773 0.0
O85 O 0.76183 0.32049 0.55222 0.0
O86 O 0.76232 0.32541 0.43372 0.0
O87 O 0.73842 0.31788 0.45458 0.0
C88 C 0.72648 0.35941 0.46558 0.0
O89 O 0.77375 0.35219 0.49315 0.0
O90 O 0.75887 0.35673 0.5584 0.0
In91 In 0.40998 0.00058 0.24977 0.0
O92 O 0.39556 0.97693 0.25975 0.0
O93 O 0.39571 0.98818 0.18643 0.0
C94 C 0.42954 0.00098 0.33258 0.0
C95 C 0.38771 0.02368 0.2727 0.0
C96 C 0.43337 0.00077 0.17779 0.0
O97 O 0.4224 0.98813 0.31794 0.0
O98 O 0.42636 0.01349 0.30649 0.0
O99 O 0.42255 0.01177 0.18003 0.0
O100 O 0.43217 0.98979 0.2113 0.0
C101 C 0.39081 0.9765 0.21383 0.0
O102 O 0.39994 0.02664 0.24481 0.0
O103 O 0.38668 0.00915 0.28817 0.0
In104 In 0.74993 0.83999 0.49989 0.0
O105 O 0.7259 0.85392 0.49123 0.0
O106 O 0.73898 0.85623 0.56112 0.0
C107 C 0.75015 0.81879 0.42123 0.0
C108 C 0.77278 0.8618 0.47132 0.0
C109 C 0.74996 0.81731 0.57392 0.0
O110 O 0.73757 0.82695 0.43276 0.0
O111 O 0.76251 0.82173 0.44837 0.0
O112 O 0.76187 0.82692 0.56739 0.0
O113 O 0.73814 0.8194 0.54376 0.0
C114 C 0.72657 0.86014 0.53537 0.0
O115 O 0.77513 0.85182 0.50735 0.0
O116 O 0.75896 0.86078 0.45032 0.0
In117 In 0.41102 0.50009 0.74527 0.0
O118 O 0.39882 0.52516 0.75235 0.0
O119 O 0.39007 0.50874 0.69567 0.0
C120 C 0.43406 0.50113 0.81841 0.0
C121 C 0.39134 0.47624 0.78032 0.0
C122 C 0.43182 0.50011 0.66574 0.0
O123 O 0.4236 0.51238 0.81336 0.0
O124 O 0.43263 0.48947 0.78728 0.0
O125 O 0.42463 0.48729 0.68041 0.0
O126 O 0.42812 0.51283 0.69025 0.0
C127 C 0.38887 0.52259 0.71634 0.0
O128 O 0.39725 0.47602 0.73577 0.0
O129 O 0.39534 0.48846 0.80684 0.0
In130 In 0.75243 0.15995 0.99301 0.0
O131 O 0.77816 0.14921 0.98782 0.0
O132 O 0.76244 0.14053 0.04638 0.0
C133 C 0.75147 0.1803 0.91287 0.0
C134 C 0.72984 0.13831 0.96157 0.0
C135 C 0.75165 0.18317 0.06616 0.0
O136 O 0.76421 0.1724 0.9244 0.0
O137 O 0.7393 0.17769 0.94124 0.0
O138 O 0.73999 0.17327 0.05976 0.0
O139 O 0.7636 0.18102 0.0367 0.0
C140 C 0.7763 0.13981 0.02555 0.0
O141 O 0.72859 0.14584 0.00356 0.0
O142 O 0.74252 0.14158 0.93615 0.0
In143 In 0.08918 0.49912 0.24745 0.0
O144 O 0.1048 0.47641 0.26284 0.0
O145 O 0.10442 0.4861 0.18765 0.0
C146 C 0.06777 0.49926 0.3252 0.0
C147 C 0.1103 0.52292 0.27364 0.0
C148 C 0.06595 0.49943 0.17496 0.0
O149 O 0.07518 0.48643 0.31157 0.0
O150 O 0.07146 0.51192 0.30033 0.0
O151 O 0.07568 0.51127 0.18101 0.0
O152 O 0.06817 0.48757 0.20482 0.0
C153 C 0.10978 0.47528 0.21736 0.0
O154 O 0.10331 0.52269 0.23063 0.0
O155 O 0.10674 0.51117 0.3026 0.0
In156 In 0.24906 0.16082 0.49792 0.0
O157 O 0.27519 0.15115 0.4977 0.0
O158 O 0.25725 0.13822 0.45482 0.0
C159 C 0.24982 0.18417 0.57051 0.0
C160 C 0.2259 0.14099 0.5361 0.0
C161 C 0.24867 0.17963 0.4138 0.0
O162 O 0.26047 0.17302 0.5684 0.0
O163 O 0.23893 0.18331 0.53673 0.0
O164 O 0.23609 0.17218 0.42916 0.0
O165 O 0.26133 0.17721 0.44005 0.0
C166 C 0.27198 0.13927 0.46859 0.0
O167 O 0.22351 0.14965 0.4969 0.0
O168 O 0.23991 0.14234 0.55568 0.0
In169 In 0.58951 0.49952 0.25176 0.0
O170 O 0.59804 0.47289 0.24789 0.0
O171 O 0.61365 0.49032 0.28308 0.0
C172 C 0.56559 0.49963 0.18125 0.0
C173 C 0.60896 0.52349 0.21677 0.0
C174 C 0.57116 0.49991 0.33723 0.0
O175 O 0.57664 0.48884 0.18161 0.0
O176 O 0.5668 0.51024 0.21591 0.0
O177 O 0.57761 0.51269 0.31939 0.0
O178 O 0.57447 0.48705 0.31301 0.0
C179 C 0.61134 0.47563 0.2707 0.0
O180 O 0.60486 0.52249 0.26318 0.0
O181 O 0.60324 0.51245 0.18829 0.0
In182 In 0.24962 0.83961 0.00205 0.0
O183 O 0.22634 0.85439 0.01647 0.0
O184 O 0.23795 0.85654 0.94415 0.0
C185 C 0.24946 0.81778 0.07868 0.0
C186 C 0.27355 0.86045 0.02943 0.0
C187 C 0.24914 0.81691 0.92783 0.0
O188 O 0.23711 0.82645 0.06844 0.0
O189 O 0.26176 0.82042 0.05097 0.0
O190 O 0.26187 0.82499 0.93825 0.0
O191 O 0.23676 0.82058 0.95403 0.0
C192 C 0.22626 0.86076 0.97255 0.0
O193 O 0.27334 0.85358 0.98623 0.0
O194 O 0.26171 0.85689 0.05806 0.0
In195 In 0.90973 0.50042 0.74424 0.0
O196 O 0.89371 0.52288 0.72859 0.0
O197 O 0.89527 0.51405 0.80462 0.0
C198 C 0.93098 0.50075 0.66609 0.0
C199 C 0.88854 0.47654 0.71911 0.0
C200 C 0.93323 0.49954 0.81586 0.0
O201 O 0.92351 0.51347 0.68034 0.0
O202 O 0.92743 0.48797 0.69054 0.0
O203 O 0.92342 0.48778 0.80945 0.0
O204 O 0.93096 0.51159 0.78679 0.0
C205 C 0.8894 0.5245 0.77458 0.0
O206 O 0.89493 0.4774 0.76293 0.0
O207 O 0.89274 0.4877 0.68876 0.0
H208 H 0.2771 0.30232 0.12545 0.0
H209 H 0.27614 0.27825 0.18085 0.0
H210 H 0.22352 0.27963 0.17836 0.0
H211 H 0.22437 0.30364 0.12304 0.0
H212 H 0.236 0.27297 0.27454 0.0
H213 H 0.24209 0.25413 0.10227 0.0
H214 H 0.25487 0.25292 0.01716 0.0
H215 H 0.29967 0.23625 0.08437 0.0
H216 H 0.28722 0.23763 0.17004 0.0
H217 H 0.22205 0.19304 0.36695 0.0
H218 H 0.22194 0.21599 0.30689 0.0
H219 H 0.27458 0.21642 0.30715 0.0
H220 H 0.27479 0.19357 0.36708 0.0
H221 H 0.26137 0.22187 0.21057 0.0
H222 H 0.25554 0.24158 0.38285 0.0
H223 H 0.24281 0.24287 0.46804 0.0
H224 H 0.1975 0.25793 0.40051 0.0
H225 H 0.2099 0.25646 0.31477 0.0
C226 C 0.26534 0.29763 0.13734 0.0
C227 C 0.25081 0.30478 0.11978 0.0
C228 C 0.26481 0.28384 0.1687 0.0
C229 C 0.24975 0.27707 0.18306 0.0
C230 C 0.23525 0.28466 0.16753 0.0
C231 C 0.23577 0.29834 0.13589 0.0
C232 C 0.24909 0.2617 0.21257 0.0
C233 C 0.24136 0.26174 0.26031 0.0
C234 C 0.25629 0.24713 0.19414 0.0
C235 C 0.26377 0.24615 0.14264 0.0
C236 C 0.25471 0.25034 0.09896 0.0
C237 C 0.26188 0.2496 0.0506 0.0
C238 C 0.27808 0.24455 0.04538 0.0
C239 C 0.28712 0.24018 0.08849 0.0
C240 C 0.28001 0.24094 0.13696 0.0
C241 C 0.23358 0.19784 0.3534 0.0
C242 C 0.24843 0.19164 0.37192 0.0
C243 C 0.2335 0.21096 0.31933 0.0
C244 C 0.24826 0.218 0.3032 0.0
C245 C 0.26308 0.21118 0.31927 0.0
C246 C 0.26317 0.19817 0.35359 0.0
C247 C 0.24832 0.23316 0.27257 0.0
C248 C 0.25596 0.23308 0.22467 0.0
C249 C 0.24103 0.24769 0.29083 0.0
C250 C 0.23359 0.24873 0.34236 0.0
C251 C 0.24282 0.24504 0.38613 0.0
C252 C 0.23567 0.24582 0.43452 0.0
C253 C 0.21934 0.25044 0.43967 0.0
C254 C 0.21014 0.25433 0.39644 0.0
C255 C 0.21722 0.25353 0.34794 0.0
H256 H 0.21383 0.25104 0.47717 0.0
H257 H 0.28362 0.24398 0.00791 0.0
H258 H 0.94863 0.02669 0.38071 0.0
H259 H 0.97293 0.02578 0.43521 0.0
H260 H 0.97004 0.97325 0.43982 0.0
H261 H 0.94587 0.97404 0.38496 0.0
H262 H 0.97791 0.9881 0.53538 0.0
H263 H 0.9948 0.98853 0.35944 0.0
H264 H 0.99523 0.99919 0.27146 0.0
H265 H 0.01465 0.0447 0.32556 0.0
H266 H 0.01405 0.0344 0.41405 0.0
H267 H 0.0573 0.97193 0.62414 0.0
H268 H 0.03404 0.97159 0.56545 0.0
H269 H 0.03745 0.02386 0.5489 0.0
H270 H 0.06072 0.02429 0.60724 0.0
H271 H 0.02936 0.00861 0.4584 0.0
H272 H 0.01204 0.0089 0.63355 0.0
H273 H 0.0114 0.99887 0.72225 0.0
H274 H 0.9925 0.95284 0.67076 0.0
H275 H 0.99332 0.9625 0.58158 0.0
C276 C 0.95301 0.01497 0.39411 0.0
C277 C 0.94545 0.00042 0.37844 0.0
C278 C 0.9669 0.01447 0.42498 0.0
C279 C 0.97333 0.99944 0.44093 0.0
C280 C 0.96526 0.98495 0.42774 0.0
C281 C 0.95149 0.98543 0.39638 0.0
C282 C 0.989 0.99874 0.46876 0.0
C283 C 0.98921 0.99239 0.51841 0.0
C284 C 0.00364 0.0046 0.44668 0.0
C285 C 0.00422 0.01075 0.39344 0.0
C286 C 0.99903 0.00086 0.35264 0.0
C287 C 0.99933 0.00683 0.30267 0.0
C288 C 0.00493 0.02263 0.29294 0.0
C289 C 0.01029 0.03247 0.33316 0.0
C290 C 0.00998 0.02657 0.38323 0.0
C291 C 0.05333 0.98329 0.60705 0.0
C292 C 0.0607 0.99816 0.6206 0.0
C293 C 0.04001 0.98309 0.57377 0.0
C294 C 0.03388 0.99774 0.55362 0.0
C295 C 0.04196 0.01244 0.56423 0.0
C296 C 0.05523 0.01266 0.59763 0.0
C297 C 0.01829 0.99796 0.5251 0.0
C298 C 0.01809 0.00426 0.47534 0.0
C299 C 0.00363 0.99213 0.54718 0.0
C300 C 0.00291 0.98636 0.60083 0.0
C301 C 0.00787 0.9966 0.6411 0.0
C302 C 0.00746 0.99098 0.69146 0.0
C303 C 0.00196 0.97521 0.70212 0.0
C304 C 0.9968 0.96504 0.66243 0.0
C305 C 0.99722 0.97058 0.61197 0.0
H306 H 0.00165 0.97089 0.74114 0.0
H307 H 0.00514 0.02723 0.25423 0.0
H308 H 0.27332 0.69683 0.62433 0.0
H309 H 0.27295 0.71927 0.68552 0.0
H310 H 0.22055 0.71549 0.69658 0.0
H311 H 0.22082 0.69301 0.63467 0.0
H312 H 0.23033 0.74671 0.68148 0.0
H313 H 0.24439 0.70322 0.79455 0.0
H314 H 0.25982 0.67928 0.82478 0.0
H315 H 0.30371 0.70787 0.82988 0.0
H316 H 0.28858 0.73194 0.79896 0.0
H317 H 0.22262 0.79995 0.89482 0.0
H318 H 0.22211 0.77657 0.83695 0.0
H319 H 0.27431 0.78 0.81831 0.0
H320 H 0.27492 0.80346 0.87651 0.0
H321 H 0.264 0.74866 0.8388 0.0
H322 H 0.24993 0.79193 0.72375 0.0
H323 H 0.23439 0.81584 0.69368 0.0
H324 H 0.19034 0.78746 0.69285 0.0
H325 H 0.20557 0.76343 0.72364 0.0
C326 C 0.26172 0.70063 0.64022 0.0
C327 C 0.24709 0.69317 0.62476 0.0
C328 C 0.26154 0.71343 0.67533 0.0
C329 C 0.24673 0.71898 0.69588 0.0
C330 C 0.23211 0.71137 0.6812 0.0
C331 C 0.23228 0.6985 0.64607 0.0
C332 C 0.24655 0.73326 0.73064 0.0
C333 C 0.23746 0.74703 0.71637 0.0
C334 C 0.25622 0.73382 0.77539 0.0
C335 C 0.26537 0.71936 0.79397 0.0
C336 C 0.25736 0.70438 0.80169 0.0
C337 C 0.26605 0.69078 0.81903 0.0
C338 C 0.28274 0.69204 0.82912 0.0
C339 C 0.29078 0.70691 0.82199 0.0
C340 C 0.28215 0.72054 0.80461 0.0
C341 C 0.23398 0.79582 0.87807 0.0
C342 C 0.24882 0.80354 0.89008 0.0
C343 C 0.23366 0.78249 0.84493 0.0
C344 C 0.24815 0.77662 0.82316 0.0
C345 C 0.26298 0.78437 0.83475 0.0
C346 C 0.26331 0.79779 0.86774 0.0
C347 C 0.24783 0.7621 0.7895 0.0
C348 C 0.25683 0.74829 0.804 0.0
C349 C 0.23806 0.76149 0.74501 0.0
C350 C 0.22887 0.77593 0.72652 0.0
C351 C 0.2369 0.79083 0.7176 0.0
C352 C 0.22815 0.80439 0.70034 0.0
C353 C 0.21138 0.80318 0.6915 0.0
C354 C 0.20333 0.78839 0.69979 0.0
C355 C 0.21201 0.77479 0.71711 0.0
H356 H 0.20463 0.8137 0.67811 0.0
H357 H 0.28945 0.68151 0.84256 0.0
H358 H 0.45731 0.97809 0.16691 0.0
H359 H 0.47999 0.97828 0.1066 0.0
H360 H 0.46252 0.02362 0.04322 0.0
H361 H 0.43956 0.0234 0.10334 0.0
H362 H 0.47185 0.00234 0.96919 0.0
H363 H 0.49451 0.02356 0.12396 0.0
H364 H 0.5008 0.02391 0.21598 0.0
H365 H 0.5278 0.97928 0.2004 0.0
H366 H 0.52146 0.97852 0.10836 0.0
H367 H 0.54401 0.02433 0.83842 0.0
H368 H 0.52142 0.02403 0.89912 0.0
H369 H 0.53722 0.9771 0.95496 0.0
H370 H 0.55997 0.9773 0.89396 0.0
H371 H 0.52885 0.99918 0.03268 0.0
H372 H 0.50609 0.97824 0.87715 0.0
H373 H 0.49996 0.97836 0.78502 0.0
H374 H 0.47327 0.02313 0.80217 0.0
H375 H 0.47946 0.02341 0.89433 0.0
C376 C 0.45825 0.98809 0.14006 0.0
C377 C 0.44671 0.00078 0.13996 0.0
C378 C 0.47126 0.98821 0.10577 0.0
C379 C 0.47307 0.00108 0.07096 0.0
C380 C 0.46137 0.01361 0.06995 0.0
C381 C 0.4483 0.01348 0.10431 0.0
C382 C 0.48722 0.00142 0.03581 0.0
C383 C 0.48431 0.00189 0.98307 0.0
C384 C 0.50347 0.00046 0.05401 0.0
C385 C 0.50737 0.00091 0.10933 0.0
C386 C 0.50167 0.01375 0.14022 0.0
C387 C 0.50527 0.01403 0.19238 0.0
C388 C 0.51466 0.0016 0.21405 0.0
C389 C 0.52051 0.98888 0.18357 0.0
C390 C 0.51693 0.98853 0.1314 0.0
C391 C 0.54275 0.01397 0.86376 0.0
C392 C 0.55372 0.0008 0.86137 0.0
C393 C 0.5298 0.0138 0.89826 0.0
C394 C 0.52757 0.00047 0.93105 0.0
C395 C 0.53874 0.98748 0.92978 0.0
C396 C 0.55168 0.98759 0.89494 0.0
C397 C 0.51345 9e-05 0.96619 0.0
C398 C 0.51637 0.99963 0.01888 0.0
C399 C 0.49722 0.00112 0.94797 0.0
C400 C 0.49338 0.00093 0.89259 0.0
C401 C 0.49903 0.98819 0.86122 0.0
C402 C 0.49553 0.98817 0.80899 0.0
C403 C 0.48627 0.00077 0.78773 0.0
C404 C 0.48046 0.01339 0.81868 0.0
C405 C 0.48395 0.01348 0.87093 0.0
H406 H 0.48357 0.00073 0.74728 0.0
H407 H 0.51743 0.00185 0.25444 0.0
H408 H 0.2747 0.79802 0.10529 0.0
H409 H 0.27443 0.77545 0.16598 0.0
H410 H 0.224 0.78554 0.20115 0.0
H411 H 0.22421 0.80835 0.14053 0.0
H412 H 0.24218 0.7789 0.28697 0.0
H413 H 0.2332 0.7549 0.12225 0.0
H414 H 0.23914 0.74959 0.03149 0.0
H415 H 0.28545 0.72879 0.07213 0.0
H416 H 0.27989 0.73421 0.16314 0.0
H417 H 0.22377 0.70428 0.40779 0.0
H418 H 0.22414 0.72716 0.34826 0.0
H419 H 0.27409 0.71612 0.30918 0.0
H420 H 0.27372 0.69293 0.36835 0.0
H421 H 0.25619 0.72333 0.2254 0.0
H422 H 0.26525 0.74725 0.39001 0.0
H423 H 0.25945 0.75267 0.4808 0.0
H424 H 0.21321 0.7737 0.44058 0.0
H425 H 0.21862 0.76818 0.34955 0.0
C426 C 0.26357 0.79552 0.12615 0.0
C427 C 0.24944 0.80489 0.11799 0.0
C428 C 0.26343 0.78257 0.16066 0.0
C429 C 0.24913 0.77868 0.18744 0.0
C430 C 0.23513 0.78833 0.18065 0.0
C431 C 0.23527 0.80132 0.14603 0.0
C432 C 0.24878 0.76433 0.22177 0.0
C433 C 0.24502 0.76671 0.27344 0.0
C434 C 0.25287 0.74851 0.20418 0.0
C435 C 0.25619 0.7451 0.14949 0.0
C436 C 0.24471 0.74931 0.11182 0.0
C437 C 0.248 0.74626 0.06033 0.0
C438 C 0.26268 0.7389 0.04604 0.0
C439 C 0.27409 0.73452 0.08325 0.0
C440 C 0.27087 0.73756 0.1348 0.0
C441 C 0.23483 0.70667 0.3864 0.0
C442 C 0.24876 0.69688 0.39289 0.0
C443 C 0.23504 0.7198 0.35257 0.0
C444 C 0.24922 0.7235 0.32495 0.0
C445 C 0.26304 0.7135 0.33034 0.0
C446 C 0.26282 0.70029 0.36414 0.0
C447 C 0.2496 0.73789 0.29069 0.0
C448 C 0.25336 0.73552 0.23899 0.0
C449 C 0.24552 0.75372 0.30828 0.0
C450 C 0.24228 0.75716 0.36298 0.0
C451 C 0.25379 0.75292 0.40055 0.0
C452 C 0.25058 0.75603 0.45205 0.0
C453 C 0.23596 0.76349 0.46646 0.0
C454 C 0.22453 0.7679 0.42937 0.0
C455 C 0.22766 0.7648 0.37781 0.0
H456 H 0.23349 0.76588 0.50636 0.0
H457 H 0.26521 0.73655 0.00616 0.0
H458 H 0.44075 0.97532 0.38967 0.0
H459 H 0.4635 0.9756 0.45046 0.0
H460 H 0.46911 0.02745 0.42793 0.0
H461 H 0.44653 0.02725 0.36715 0.0
H462 H 0.49778 0.01153 0.41782 0.0
H463 H 0.45359 0.01289 0.53799 0.0
H464 H 0.42802 0.00355 0.57801 0.0
H465 H 0.45026 0.95752 0.61397 0.0
H466 H 0.47592 0.9665 0.57348 0.0
H467 H 0.55484 0.0267 0.61807 0.0
H468 H 0.53112 0.02684 0.5611 0.0
H469 H 0.52426 0.97531 0.58741 0.0
H470 H 0.54773 0.97515 0.6448 0.0
H471 H 0.49606 0.99121 0.59601 0.0
H472 H 0.53998 0.98943 0.47504 0.0
H473 H 0.56558 0.99841 0.43434 0.0
H474 H 0.54389 0.04475 0.39903 0.0
H475 H 0.51822 0.03613 0.44017 0.0
C476 C 0.44668 0.9868 0.39831 0.0
C477 C 0.44189 0.00125 0.37362 0.0
C478 C 0.45966 0.98696 0.43304 0.0
C479 C 0.46798 0.00156 0.44369 0.0
C480 C 0.46289 0.01605 0.42011 0.0
C481 C 0.44994 0.01591 0.38555 0.0
C482 C 0.48254 0.00166 0.47727 0.0
C483 C 0.49736 0.00731 0.45704 0.0
C484 C 0.48205 0.99574 0.52793 0.0
C485 C 0.46663 0.99031 0.5522 0.0
C486 C 0.45299 0.00072 0.554 0.0
C487 C 0.43848 0.9955 0.57687 0.0
C488 C 0.4375 0.97994 0.59839 0.0
C489 C 0.45103 0.96957 0.59721 0.0
C490 C 0.46556 0.97472 0.57434 0.0
C491 C 0.54836 0.01539 0.61128 0.0
C492 C 0.55314 0.00091 0.63579 0.0
C493 C 0.53483 0.01547 0.5787 0.0
C494 C 0.52597 0.00105 0.56981 0.0
C495 C 0.53088 0.98657 0.59382 0.0
C496 C 0.54435 0.98649 0.62641 0.0
C497 C 0.51132 0.00109 0.53657 0.0
C498 C 0.49648 0.99546 0.55682 0.0
C499 C 0.51179 0.00697 0.48583 0.0
C500 C 0.52723 0.0122 0.46119 0.0
C501 C 0.54071 0.00159 0.45901 0.0
C502 C 0.55523 0.0066 0.43577 0.0
C503 C 0.55638 0.02216 0.41424 0.0
C504 C 0.543 0.03272 0.4158 0.0
C505 C 0.52846 0.02777 0.43904 0.0
H506 H 0.56762 0.02601 0.39625 0.0
H507 H 0.42626 0.97592 0.6161 0.0
H508 H 0.27043 0.18791 0.65209 0.0
H509 H 0.27059 0.21033 0.71423 0.0
H510 H 0.22995 0.23275 0.63647 0.0
H511 H 0.22976 0.21053 0.5744 0.0
H512 H 0.2535 0.2548 0.65883 0.0
H513 H 0.2239 0.21272 0.74605 0.0
H514 H 0.21929 0.18519 0.78113 0.0
H515 H 0.2611 0.1906 0.87851 0.0
H516 H 0.2661 0.2181 0.84343 0.0
H517 H 0.23004 0.31174 0.85191 0.0
H518 H 0.22987 0.28916 0.79029 0.0
H519 H 0.27144 0.26769 0.86581 0.0
H520 H 0.2717 0.29013 0.92718 0.0
H521 H 0.24748 0.24517 0.84483 0.0
H522 H 0.27701 0.2873 0.75731 0.0
H523 H 0.28145 0.31488 0.72235 0.0
H524 H 0.2395 0.30937 0.62562 0.0
H525 H 0.23467 0.28183 0.66059 0.0
C526 C 0.26153 0.19762 0.64839 0.0
C527 C 0.25005 0.19745 0.60857 0.0
C528 C 0.2616 0.21038 0.68392 0.0
C529 C 0.2502 0.22313 0.6801 0.0
C530 C 0.23884 0.22303 0.6401 0.0
C531 C 0.23872 0.21028 0.6048 0.0
C532 C 0.25011 0.2367 0.71751 0.0
C533 C 0.25198 0.25272 0.69944 0.0
C534 C 0.24845 0.23393 0.77054 0.0
C535 C 0.24549 0.21739 0.79167 0.0
C536 C 0.2322 0.20798 0.77459 0.0
C537 C 0.2295 0.1924 0.79455 0.0
C538 C 0.23993 0.18613 0.83191 0.0
C539 C 0.25305 0.19546 0.84949 0.0
C540 C 0.25582 0.21105 0.8296 0.0
C541 C 0.23913 0.30221 0.85523 0.0
C542 C 0.25093 0.30272 0.89411 0.0
C543 C 0.23906 0.28936 0.82003 0.0
C544 C 0.25071 0.27683 0.82339 0.0
C545 C 0.26235 0.27725 0.86257 0.0
C546 C 0.26252 0.29012 0.89742 0.0
C547 C 0.25084 0.26325 0.78611 0.0
C548 C 0.24899 0.24724 0.8042 0.0
C549 C 0.2525 0.26602 0.7331 0.0
C550 C 0.25537 0.28258 0.71199 0.0
C551 C 0.26864 0.29203 0.72893 0.0
C552 C 0.27125 0.30764 0.70905 0.0
C553 C 0.26074 0.31389 0.6719 0.0
C554 C 0.24762 0.30452 0.65447 0.0
C555 C 0.24494 0.28891 0.67429 0.0
H556 H 0.26278 0.32598 0.65653 0.0
H557 H 0.23781 0.17407 0.84734 0.0
H558 H 0.06233 0.01994 0.90664 0.0
H559 H 0.03973 0.01977 0.96792 0.0
H560 H 0.01409 0.98468 0.87482 0.0
H561 H 0.03651 0.98489 0.81338 0.0
H562 H 0.99379 0.00838 0.9089 0.0
H563 H 0.03397 0.97239 0.97991 0.0
H564 H 0.0613 0.96438 0.01026 0.0
H565 H 0.0598 0.00216 0.12382 0.0
H566 H 0.03254 0.01056 0.09363 0.0
H567 H 0.93653 0.98224 0.09878 0.0
H568 H 0.95843 0.98247 0.03477 0.0
H569 H 0.98403 0.01918 0.12156 0.0
H570 H 0.96228 0.01908 0.18521 0.0
H571 H 0.00412 0.99418 0.09015 0.0
H572 H 0.96396 0.03023 0.01853 0.0
H573 H 0.93654 0.03806 0.98842 0.0
H574 H 0.93793 0.99986 0.87626 0.0
H575 H 0.96527 0.99163 0.90625 0.0
C576 C 0.05185 0.01224 0.89924 0.0
C577 C 0.05123 0.00235 0.8555 0.0
C578 C 0.03898 0.01211 0.93429 0.0
C579 C 0.02532 0.00206 0.92615 0.0
C580 C 0.02453 0.99248 0.88187 0.0
C581 C 0.03739 0.99257 0.84695 0.0
C582 C 0.01195 0.00133 0.96415 0.0
C583 C 0.99601 0.00507 0.94839 0.0
C584 C 0.01491 0.99727 0.01582 0.0
C585 C 0.03129 0.99222 0.03414 0.0
C586 C 0.03953 0.97908 0.01107 0.0
C587 C 0.055 0.97445 0.02829 0.0
C588 C 0.0623 0.98278 0.06885 0.0
C589 C 0.05413 0.99574 0.09235 0.0
C590 C 0.03867 0.00043 0.07522 0.0
C591 C 0.94683 0.99035 0.10407 0.0
C592 C 0.94768 0.00069 0.14676 0.0
C593 C 0.95928 0.9905 0.06751 0.0
C594 C 0.97277 0.00092 0.07338 0.0
C595 C 0.97371 0.01107 0.11634 0.0
C596 C 0.96124 0.01104 0.15253 0.0
C597 C 0.986 0.00129 0.03493 0.0
C598 C 0.00191 0.99746 0.05062 0.0
C599 C 0.983 0.00524 0.98324 0.0
C600 C 0.96658 0.01019 0.96504 0.0
C601 C 0.95836 0.0234 0.98776 0.0
C602 C 0.94284 0.02793 0.97066 0.0
C603 C 0.93548 0.01943 0.93056 0.0
C604 C 0.94364 0.00641 0.90738 0.0
C605 C 0.95914 0.00181 0.9244 0.0
H606 H 0.92347 0.02296 0.91736 0.0
H607 H 0.07428 0.97917 0.08214 0.0
H608 H 0.77464 0.7034 0.90249 0.0
H609 H 0.77463 0.72616 0.84247 0.0
H610 H 0.72516 0.71465 0.79915 0.0
H611 H 0.7251 0.69168 0.8592 0.0
H612 H 0.74483 0.72189 0.71632 0.0
H613 H 0.73182 0.74524 0.87935 0.0
H614 H 0.73582 0.75061 0.97111 0.0
H615 H 0.782 0.77319 0.9394 0.0
H616 H 0.77839 0.76773 0.84746 0.0
H617 H 0.72544 0.79592 0.59396 0.0
H618 H 0.72571 0.77307 0.65363 0.0
H619 H 0.77467 0.78574 0.69958 0.0
H620 H 0.77442 0.80885 0.64009 0.0
H621 H 0.75547 0.77785 0.78102 0.0
H622 H 0.76857 0.75467 0.61823 0.0
H623 H 0.76479 0.74921 0.52644 0.0
H624 H 0.71876 0.72621 0.55745 0.0
H625 H 0.72215 0.73175 0.64942 0.0
C626 C 0.76378 0.70563 0.87999 0.0
C627 C 0.74983 0.69581 0.88568 0.0
C628 C 0.76378 0.71868 0.84588 0.0
C629 C 0.74982 0.72221 0.81695 0.0
C630 C 0.73603 0.71214 0.82133 0.0
C631 C 0.73601 0.69906 0.85563 0.0
C632 C 0.7496 0.73659 0.78279 0.0
C633 C 0.74693 0.73415 0.73049 0.0
C634 C 0.75275 0.75252 0.8013 0.0
C635 C 0.7549 0.75593 0.85655 0.0
C636 C 0.74289 0.75123 0.89197 0.0
C637 C 0.74507 0.75431 0.94402 0.0
C638 C 0.75917 0.7622 0.96109 0.0
C639 C 0.7711 0.76706 0.92613 0.0
C640 C 0.76898 0.76399 0.87404 0.0
C641 C 0.73625 0.79391 0.61692 0.0
C642 C 0.74996 0.80411 0.6122 0.0
C643 C 0.7364 0.7808 0.65084 0.0
C644 C 0.7503 0.77757 0.6804 0.0
C645 C 0.76385 0.788 0.6769 0.0
C646 C 0.7637 0.80117 0.64292 0.0
C647 C 0.75067 0.76316 0.71449 0.0
C648 C 0.75338 0.76558 0.7668 0.0
C649 C 0.74758 0.74721 0.69597 0.0
C650 C 0.74555 0.74377 0.64069 0.0
C651 C 0.75758 0.74856 0.60545 0.0
C652 C 0.75552 0.74543 0.55339 0.0
C653 C 0.74152 0.7374 0.53611 0.0
C654 C 0.72958 0.73245 0.57089 0.0
C655 C 0.73158 0.73557 0.623 0.0
H656 H 0.73995 0.73499 0.49578 0.0
H657 H 0.76084 0.76457 0.0014 0.0
H658 H 0.72823 0.29152 0.41345 0.0
H659 H 0.72902 0.26886 0.35308 0.0
H660 H 0.77483 0.2865 0.29358 0.0
H661 H 0.77412 0.30935 0.35426 0.0
H662 H 0.75309 0.27832 0.21789 0.0
H663 H 0.77462 0.25366 0.36904 0.0
H664 H 0.7757 0.24537 0.45943 0.0
H665 H 0.73094 0.21873 0.44166 0.0
H666 H 0.72948 0.22701 0.35124 0.0
H667 H 0.774 0.20743 0.07729 0.0
H668 H 0.7735 0.2301 0.13768 0.0
H669 H 0.72808 0.21237 0.19972 0.0
H670 H 0.72852 0.1895 0.13915 0.0
H671 H 0.74981 0.22061 0.27426 0.0
H672 H 0.7281 0.24539 0.12356 0.0
H673 H 0.72673 0.25393 0.03343 0.0
H674 H 0.77159 0.28046 0.05044 0.0
H675 H 0.77333 0.27193 0.14059 0.0
C676 C 0.73848 0.29062 0.3875 0.0
C677 C 0.75111 0.30223 0.3885 0.0
C678 C 0.73896 0.27759 0.35324 0.0
C679 C 0.75207 0.27589 0.31926 0.0
C680 C 0.76463 0.28757 0.31968 0.0
C681 C 0.76421 0.30059 0.35429 0.0
C682 C 0.75237 0.26213 0.28252 0.0
C683 C 0.75266 0.26568 0.23017 0.0
C684 C 0.75129 0.24568 0.29867 0.0
C685 C 0.75188 0.24106 0.35342 0.0
C686 C 0.76491 0.24617 0.38451 0.0
C687 C 0.76563 0.24142 0.4357 0.0
C688 C 0.75343 0.23147 0.45618 0.0
C689 C 0.74041 0.22637 0.42566 0.0
C690 C 0.73964 0.23108 0.37443 0.0
C691 C 0.7639 0.20832 0.10381 0.0
C692 C 0.7513 0.19667 0.10357 0.0
C693 C 0.76359 0.22136 0.13808 0.0
C694 C 0.75067 0.22303 0.1728 0.0
C695 C 0.73814 0.21132 0.17308 0.0
C696 C 0.73839 0.19829 0.13851 0.0
C697 C 0.75052 0.23679 0.20958 0.0
C698 C 0.75027 0.23324 0.26195 0.0
C699 C 0.75161 0.25324 0.19344 0.0
C700 C 0.75091 0.25791 0.13876 0.0
C701 C 0.73777 0.25289 0.10796 0.0
C702 C 0.73689 0.2578 0.05693 0.0
C703 C 0.74902 0.2678 0.03633 0.0
C704 C 0.76216 0.27278 0.06655 0.0
C705 C 0.7631 0.26792 0.11761 0.0
H706 H 0.74827 0.27166 0.99691 0.0
H707 H 0.75405 0.22773 0.49575 0.0
H708 H 0.77731 0.19374 0.8623 0.0
H709 H 0.77662 0.21703 0.80366 0.0
H710 H 0.72408 0.21814 0.81348 0.0
H711 H 0.72467 0.19497 0.87231 0.0
H712 H 0.73637 0.22408 0.71389 0.0
H713 H 0.74418 0.24101 0.88721 0.0
H714 H 0.758 0.2404 0.97058 0.0
H715 H 0.80186 0.25879 0.90187 0.0
H716 H 0.78856 0.25866 0.81738 0.0
H717 H 0.72306 0.30494 0.6285 0.0
H718 H 0.72307 0.28167 0.68731 0.0
H719 H 0.77564 0.27994 0.68098 0.0
H720 H 0.77573 0.30307 0.62209 0.0
H721 H 0.76294 0.27439 0.77938 0.0
H722 H 0.75533 0.25711 0.60608 0.0
H723 H 0.74167 0.25748 0.5224 0.0
H724 H 0.69754 0.23971 0.59098 0.0
H725 H 0.71068 0.24004 0.6757 0.0
C726 C 0.76561 0.19877 0.85121 0.0
C727 C 0.75105 0.19269 0.87217 0.0
C728 C 0.76523 0.21206 0.81785 0.0
C729 C 0.7503 0.21936 0.80482 0.0
C730 C 0.73571 0.21266 0.82319 0.0
C731 C 0.73608 0.1995 0.85694 0.0
C732 C 0.74995 0.2348 0.77573 0.0
C733 C 0.74201 0.23513 0.72835 0.0
C734 C 0.75751 0.24912 0.79468 0.0
C735 C 0.76542 0.24962 0.84572 0.0
C736 C 0.75683 0.24473 0.88967 0.0
C737 C 0.76458 0.24452 0.93717 0.0
C738 C 0.78078 0.24962 0.9416 0.0
C739 C 0.78931 0.25484 0.89839 0.0
C740 C 0.7817 0.25483 0.8506 0.0
C741 C 0.73461 0.29977 0.64039 0.0
C742 C 0.74939 0.30568 0.62045 0.0
C743 C 0.7346 0.28649 0.67383 0.0
C744 C 0.74935 0.27903 0.68793 0.0
C745 C 0.76415 0.28554 0.67045 0.0
C746 C 0.76416 0.29869 0.63667 0.0
C747 C 0.74938 0.26366 0.71746 0.0
C748 C 0.75726 0.26335 0.76495 0.0
C749 C 0.74178 0.24935 0.6986 0.0
C750 C 0.73394 0.24881 0.64746 0.0
C751 C 0.74265 0.25347 0.60351 0.0
C752 C 0.735 0.25355 0.55584 0.0
C753 C 0.71877 0.24856 0.55131 0.0
C754 C 0.71012 0.24358 0.59454 0.0
C755 C 0.71764 0.24371 0.64247 0.0
H756 H 0.7129 0.24854 0.51429 0.0
H757 H 0.78672 0.24954 0.97851 0.0
H758 H 0.77428 0.69265 0.13723 0.0
H759 H 0.77436 0.71585 0.19634 0.0
H760 H 0.72404 0.72581 0.15904 0.0
H761 H 0.72394 0.70284 0.09965 0.0
H762 H 0.74183 0.75312 0.15622 0.0
H763 H 0.73438 0.70859 0.27259 0.0
H764 H 0.74076 0.6822 0.31311 0.0
H765 H 0.78725 0.70074 0.36165 0.0
H766 H 0.78124 0.72719 0.32077 0.0
H767 H 0.72491 0.80888 0.36003 0.0
H768 H 0.72485 0.78591 0.29999 0.0
H769 H 0.7755 0.77656 0.3342 0.0
H770 H 0.77562 0.79934 0.39427 0.0
H771 H 0.75749 0.74898 0.33863 0.0
H772 H 0.76474 0.79361 0.22209 0.0
H773 H 0.75813 0.81999 0.18189 0.0
H774 H 0.71164 0.80121 0.13412 0.0
H775 H 0.71789 0.77477 0.17469 0.0
C776 C 0.76321 0.69971 0.14203 0.0
C777 C 0.74911 0.69593 0.11389 0.0
C778 C 0.76325 0.71293 0.17584 0.0
C779 C 0.74917 0.72251 0.18225 0.0
C780 C 0.73505 0.71861 0.15459 0.0
C781 C 0.735 0.70544 0.12084 0.0
C782 C 0.74923 0.73689 0.21664 0.0
C783 C 0.74504 0.75218 0.19629 0.0
C784 C 0.75377 0.73572 0.26861 0.0
C785 C 0.75743 0.71981 0.29313 0.0
C786 C 0.74602 0.70699 0.2915 0.0
C787 C 0.74956 0.69203 0.31462 0.0
C788 C 0.76442 0.68978 0.33981 0.0
C789 C 0.77576 0.7025 0.34205 0.0
C790 C 0.77229 0.71748 0.31894 0.0
C791 C 0.73606 0.80203 0.35428 0.0
C792 C 0.75026 0.8059 0.38179 0.0
C793 C 0.73602 0.78893 0.31997 0.0
C794 C 0.75019 0.77957 0.31257 0.0
C795 C 0.76443 0.7836 0.33945 0.0
C796 C 0.76449 0.79667 0.37358 0.0
C797 C 0.7501 0.76519 0.27818 0.0
C798 C 0.75427 0.74991 0.29856 0.0
C799 C 0.74551 0.76637 0.22628 0.0
C800 C 0.74172 0.78226 0.20192 0.0
C801 C 0.75305 0.79515 0.20342 0.0
C802 C 0.74938 0.81011 0.18048 0.0
C803 C 0.73446 0.81229 0.1556 0.0
C804 C 0.72319 0.79951 0.15349 0.0
C805 C 0.72679 0.78453 0.17642 0.0
H806 H 0.73164 0.82388 0.13784 0.0
H807 H 0.76713 0.67819 0.35771 0.0
H808 H 0.54138 0.5222 0.17343 0.0
H809 H 0.51897 0.52284 0.11213 0.0
H810 H 0.53674 0.47836 0.04351 0.0
H811 H 0.55946 0.47782 0.10439 0.0
H812 H 0.52843 0.50035 0.9722 0.0
H813 H 0.50343 0.47833 0.1233 0.0
H814 H 0.4958 0.47769 0.21435 0.0
H815 H 0.47003 0.52299 0.19736 0.0
H816 H 0.47767 0.524 0.1063 0.0
H817 H 0.45845 0.479 0.83067 0.0
H818 H 0.48071 0.47965 0.8924 0.0
H819 H 0.46211 0.52479 0.95418 0.0
H820 H 0.43959 0.52415 0.8924 0.0
H821 H 0.47074 0.50336 0.02902 0.0
H822 H 0.49522 0.52539 0.87861 0.0
H823 H 0.5032 0.5267 0.78796 0.0
H824 H 0.53005 0.482 0.80372 0.0
H825 H 0.52208 0.48031 0.8944 0.0
C826 C 0.54053 0.51254 0.14528 0.0
C827 C 0.55215 0.49993 0.14373 0.0
C828 C 0.52766 0.51289 0.11044 0.0
C829 C 0.52605 0.50053 0.07371 0.0
C830 C 0.53774 0.488 0.07168 0.0
C831 C 0.55068 0.48768 0.10648 0.0
C832 C 0.51227 0.50082 0.037 0.0
C833 C 0.51581 0.50076 0.98461 0.0
C834 C 0.49582 0.50189 0.05327 0.0
C835 C 0.49122 0.5013 0.10805 0.0
C836 C 0.49623 0.48821 0.13905 0.0
C837 C 0.49187 0.48777 0.19063 0.0
C838 C 0.48241 0.50028 0.21157 0.0
C839 C 0.47733 0.51329 0.18103 0.0
C840 C 0.48165 0.5138 0.12942 0.0
C841 C 0.45906 0.48907 0.85741 0.0
C842 C 0.44729 0.50155 0.85668 0.0
C843 C 0.47185 0.48946 0.89249 0.0
C844 C 0.47318 0.50237 0.92742 0.0
C845 C 0.46132 0.51474 0.92738 0.0
C846 C 0.44849 0.51438 0.89209 0.0
C847 C 0.48691 0.50275 0.96426 0.0
C848 C 0.48337 0.50296 0.01664 0.0
C849 C 0.50336 0.50186 0.948 0.0
C850 C 0.50796 0.50267 0.89325 0.0
C851 C 0.50271 0.51577 0.86266 0.0
C852 C 0.50728 0.5166 0.81131 0.0
C853 C 0.51718 0.50448 0.79017 0.0
C854 C 0.52244 0.49142 0.82023 0.0
C855 C 0.51791 0.49052 0.87161 0.0
H856 H 0.52075 0.50518 0.75046 0.0
H857 H 0.47903 0.49989 0.25148 0.0
H858 H 0.05287 0.47306 0.3698 0.0
H859 H 0.02954 0.47354 0.42834 0.0
H860 H 0.03018 0.52618 0.42724 0.0
H861 H 0.05342 0.5258 0.36863 0.0
H862 H 0.02516 0.51305 0.52451 0.0
H863 H 0.00388 0.50791 0.35461 0.0
H864 H 0.00157 0.49563 0.26898 0.0
H865 H 0.98641 0.45024 0.33568 0.0
H866 H 0.98888 0.46218 0.42184 0.0
H867 H 0.94559 0.52722 0.62205 0.0
H868 H 0.96881 0.52711 0.56306 0.0
H869 H 0.9686 0.47447 0.56257 0.0
H870 H 0.94547 0.47447 0.62156 0.0
H871 H 0.97335 0.48784 0.46576 0.0
H872 H 0.9948 0.49298 0.63573 0.0
H873 H 0.99713 0.50529 0.72132 0.0
H874 H 0.01196 0.55076 0.65436 0.0
H875 H 0.00947 0.53878 0.56826 0.0
C876 C 0.04816 0.48472 0.38256 0.0
C877 C 0.05488 0.49939 0.36451 0.0
C878 C 0.03482 0.48498 0.41578 0.0
C879 C 0.02807 0.4999 0.43161 0.0
C880 C 0.03521 0.51455 0.41537 0.0
C881 C 0.04844 0.5143 0.38182 0.0
C882 C 0.01313 0.50026 0.46332 0.0
C883 C 0.01378 0.50771 0.51148 0.0
C884 C 0.99837 0.49308 0.44646 0.0
C885 C 0.99674 0.48589 0.3947 0.0
C886 C 0.00018 0.49527 0.35105 0.0
C887 C 0.99882 0.48838 0.30241 0.0
C888 C 0.99389 0.47215 0.2969 0.0
C889 C 0.99026 0.4628 0.34002 0.0
C890 C 0.99163 0.46963 0.38877 0.0
C891 C 0.95037 0.51564 0.60883 0.0
C892 C 0.9438 0.50085 0.62654 0.0
C893 C 0.96366 0.51559 0.57536 0.0
C894 C 0.97049 0.50077 0.55896 0.0
C895 C 0.9635 0.48602 0.57488 0.0
C896 C 0.95032 0.48605 0.60865 0.0
C897 C 0.98539 0.5006 0.527 0.0
C898 C 0.98473 0.49319 0.47878 0.0
C899 C 0.00013 0.50783 0.5438 0.0
C900 C 0.00177 0.51503 0.59553 0.0
C901 C 0.99843 0.50564 0.63923 0.0
C902 C 0.9998 0.51255 0.68784 0.0
C903 C 0.00464 0.52881 0.69327 0.0
C904 C 0.00818 0.53817 0.65009 0.0
C905 C 0.0068 0.53133 0.60137 0.0
H906 H 0.0057 0.53414 0.73093 0.0
H907 H 0.99284 0.46683 0.25921 0.0
H908 H 0.05977 0.52208 0.10056 0.0
H909 H 0.03728 0.52194 0.0389 0.0
H910 H 0.01943 0.47687 0.10322 0.0
H911 H 0.04203 0.47673 0.16387 0.0
H912 H 0.01844 0.47555 0.0024 0.0
H913 H 0.00146 0.5139 0.13104 0.0
H914 H 0.00428 0.53813 0.18623 0.0
H915 H 0.00781 0.56885 0.05395 0.0
H916 H 0.00523 0.54477 0.99796 0.0
H917 H 0.93939 0.4766 0.88942 0.0
H918 H 0.96193 0.47646 0.95098 0.0
H919 H 0.98001 0.52156 0.88753 0.0
H920 H 0.95738 0.52197 0.82703 0.0
H921 H 0.98081 0.52277 0.98823 0.0
H922 H 0.99782 0.48433 0.85959 0.0
H923 H 0.99498 0.46006 0.80458 0.0
H924 H 0.99132 0.42946 0.93707 0.0
H925 H 0.99393 0.45358 0.99289 0.0
C926 C 0.05106 0.51214 0.10139 0.0
C927 C 0.05263 0.49943 0.13702 0.0
C928 C 0.03818 0.5121 0.06634 0.0
C929 C 0.02656 0.49948 0.06686 0.0
C930 C 0.02825 0.48671 0.10207 0.0
C931 C 0.04116 0.48668 0.13679 0.0
C932 C 0.01258 0.49953 0.03087 0.0
C933 C 0.01009 0.4858 0.99973 0.0
C934 C 0.00187 0.51301 0.02671 0.0
C935 C 0.0033 0.52752 0.06033 0.0
C936 C 0.00295 0.52581 0.11373 0.0
C937 C 0.00448 0.53952 0.14515 0.0
C938 C 0.00626 0.55502 0.12361 0.0
C939 C 0.00645 0.55684 0.07059 0.0
C940 C 0.00494 0.54317 0.03899 0.0
C941 C 0.94817 0.48647 0.88874 0.0
C942 C 0.94665 0.49928 0.85346 0.0
C943 C 0.96107 0.48635 0.92373 0.0
C944 C 0.97276 0.49892 0.92348 0.0
C945 C 0.97114 0.51176 0.88848 0.0
C946 C 0.95821 0.51195 0.85385 0.0
C947 C 0.98668 0.49881 0.95967 0.0
C948 C 0.98916 0.51252 0.99089 0.0
C949 C 0.99737 0.4853 0.96392 0.0
C950 C 0.99592 0.47078 0.9304 0.0
C951 C 0.9963 0.47244 0.87698 0.0
C952 C 0.99475 0.45871 0.84566 0.0
C953 C 0.99293 0.44323 0.86731 0.0
C954 C 0.99271 0.44145 0.92035 0.0
C955 C 0.99424 0.45515 0.95185 0.0
H956 H 0.99172 0.43262 0.843 0.0
H957 H 0.00746 0.56562 0.148 0.0
H958 H 0.44536 0.47379 0.61751 0.0
H959 H 0.46921 0.4738 0.56106 0.0
H960 H 0.4715 0.52632 0.57024 0.0
H961 H 0.44767 0.52642 0.6263 0.0
H962 H 0.47766 0.51477 0.47295 0.0
H963 H 0.49404 0.50363 0.64593 0.0
H964 H 0.49296 0.48835 0.72681 0.0
H965 H 0.50946 0.44508 0.65008 0.0
H966 H 0.50992 0.45991 0.56817 0.0
H967 H 0.55813 0.52645 0.38569 0.0
H968 H 0.53491 0.52662 0.44461 0.0
H969 H 0.53333 0.47401 0.44031 0.0
H970 H 0.55658 0.47374 0.38197 0.0
H971 H 0.52686 0.48563 0.53558 0.0
H972 H 0.5097 0.49551 0.36366 0.0
H973 H 0.50998 0.50967 0.28073 0.0
H974 H 0.49458 0.55406 0.35341 0.0
H975 H 0.49476 0.5403 0.43716 0.0
C976 C 0.4508 0.48534 0.6068 0.0
C977 C 0.44475 0.5001 0.62657 0.0
C978 C 0.46444 0.48533 0.57476 0.0
C979 C 0.47223 0.50005 0.56215 0.0
C980 C 0.46568 0.51483 0.57966 0.0
C981 C 0.4521 0.51486 0.61178 0.0
C982 C 0.48776 0.50005 0.53324 0.0
C983 C 0.48848 0.50856 0.48687 0.0
C984 C 0.50175 0.49167 0.55116 0.0
C985 C 0.50185 0.48285 0.60071 0.0
C986 C 0.4973 0.49082 0.64614 0.0
C987 C 0.49679 0.48224 0.69221 0.0
C988 C 0.50121 0.46578 0.69364 0.0
C989 C 0.50605 0.45784 0.64892 0.0
C990 C 0.50637 0.46631 0.60261 0.0
C991 C 0.55304 0.51492 0.39815 0.0
C992 C 0.55905 0.50009 0.37891 0.0
C993 C 0.53974 0.51504 0.43159 0.0
C994 C 0.53225 0.50033 0.44608 0.0
C995 C 0.53891 0.48549 0.42945 0.0
C996 C 0.55216 0.48536 0.39602 0.0
C997 C 0.51679 0.50039 0.47535 0.0
C998 C 0.51606 0.49188 0.52174 0.0
C999 C 0.50274 0.50865 0.45728 0.0
C1000 C 0.50243 0.51691 0.40683 0.0
C1001 C 0.50653 0.50833 0.36208 0.0
C1002 C 0.50659 0.51629 0.3149 0.0
C1003 C 0.50227 0.53274 0.31177 0.0
C1004 C 0.49793 0.5413 0.35588 0.0
C1005 C 0.49799 0.53345 0.40326 0.0
H1006 H 0.50227 0.53886 0.27516 0.0
H1007 H 0.50087 0.45918 0.7294 0.0
H1008 H 0.11532 0.46562 0.11966 0.0
H1009 H 0.13482 0.44512 0.08962 0.0
H1010 H 0.14972 0.43591 0.24479 0.0
H1011 H 0.12991 0.4562 0.27535 0.0
H1012 H 0.17585 0.4426 0.16915 0.0
H1013 H 0.12872 0.40844 0.1966 0.0
H1014 H 0.09983 0.40065 0.18671 0.0
H1015 H 0.10603 0.39766 0.02424 0.0
H1016 H 0.13492 0.40568 0.03311 0.0
H1017 H 0.22649 0.37468 0.12737 0.0
H1018 H 0.20565 0.39343 0.15843 0.0
H1019 H 0.18208 0.39233 0.01113 0.0
H1020 H 0.2027 0.37298 0.98031 0.0
H1021 H 0.15995 0.3911 0.0826 0.0
H1022 H 0.20588 0.42527 0.05089 0.0
H1023 H 0.23453 0.43435 0.0556 0.0
H1024 H 0.23058 0.43916 0.21833 0.0
H1025 H 0.20195 0.42989 0.21468 0.0
C1026 C 0.12268 0.45915 0.14742 0.0
C1027 C 0.12114 0.46248 0.19983 0.0
C1028 C 0.13376 0.44744 0.1302 0.0
C1029 C 0.14364 0.43903 0.16504 0.0
C1030 C 0.14215 0.4423 0.21742 0.0
C1031 C 0.13083 0.45382 0.23478 0.0
C1032 C 0.15588 0.42719 0.14636 0.0
C1033 C 0.17244 0.4312 0.15095 0.0
C1034 C 0.1513 0.41269 0.12089 0.0
C1035 C 0.13394 0.40783 0.11549 0.0
C1036 C 0.12389 0.40628 0.15872 0.0
C1037 C 0.10752 0.40179 0.15331 0.0
C1038 C 0.10108 0.39871 0.10486 0.0
C1039 C 0.11102 0.40007 0.06173 0.0
C1040 C 0.1274 0.40458 0.06694 0.0
C1041 C 0.21689 0.37845 0.10151 0.0
C1042 C 0.21627 0.37246 0.05129 0.0
C1043 C 0.20501 0.38923 0.11927 0.0
C1044 C 0.19244 0.39455 0.08687 0.0
C1045 C 0.19169 0.38844 0.03678 0.0
C1046 C 0.20349 0.37744 0.01915 0.0
C1047 C 0.18007 0.40639 0.10563 0.0
C1048 C 0.16346 0.40246 0.10088 0.0
C1049 C 0.1846 0.42113 0.13017 0.0
C1050 C 0.20181 0.42673 0.13255 0.0
C1051 C 0.21116 0.42814 0.08773 0.0
C1052 C 0.22739 0.43334 0.0902 0.0
C1053 C 0.23438 0.43729 0.13724 0.0
C1054 C 0.22515 0.43608 0.18192 0.0
C1055 C 0.20891 0.43087 0.17967 0.0
H1056 H 0.24695 0.44131 0.13907 0.0
H1057 H 0.08841 0.39522 0.10075 0.0
H1058 H 0.80488 0.86362 0.49971 0.0
H1059 H 0.82545 0.88295 0.46888 0.0
H1060 H 0.78911 0.90617 0.37428 0.0
H1061 H 0.76871 0.88662 0.40371 0.0
H1062 H 0.8158 0.90287 0.32222 0.0
H1063 H 0.80244 0.92306 0.48914 0.0
H1064 H 0.79883 0.92152 0.58247 0.0
H1065 H 0.84958 0.90979 0.60059 0.0
H1066 H 0.85344 0.91106 0.50726 0.0
H1067 H 0.86537 0.98321 0.35811 0.0
H1068 H 0.84586 0.96289 0.38855 0.0
H1069 H 0.86906 0.9262 0.29521 0.0
H1070 H 0.88837 0.94663 0.26352 0.0
H1071 H 0.84914 0.9361 0.44136 0.0
H1072 H 0.84073 0.89856 0.25604 0.0
H1073 H 0.84191 0.90249 0.16273 0.0
H1074 H 0.83038 0.95326 0.18149 0.0
H1075 H 0.82892 0.94959 0.27479 0.0
C1076 C 0.8013 0.87287 0.47242 0.0
C1077 C 0.7852 0.87364 0.45418 0.0
C1078 C 0.81304 0.88394 0.45494 0.0
C1079 C 0.8088 0.89612 0.41956 0.0
C1080 C 0.7927 0.89686 0.4014 0.0
C1081 C 0.78103 0.88572 0.41843 0.0
C1082 C 0.82105 0.90811 0.40116 0.0
C1083 C 0.82312 0.91009 0.34831 0.0
C1084 C 0.83046 0.91772 0.43509 0.0
C1085 C 0.82818 0.91699 0.4912 0.0
C1086 C 0.8128 0.92003 0.51301 0.0
C1087 C 0.81071 0.91923 0.5659 0.0
C1088 C 0.82396 0.91551 0.59743 0.0
C1089 C 0.83932 0.91264 0.57612 0.0
C1090 C 0.84147 0.91341 0.52323 0.0
C1091 C 0.86628 0.97082 0.34392 0.0
C1092 C 0.87833 0.96651 0.30823 0.0
C1093 C 0.85517 0.95921 0.36154 0.0
C1094 C 0.85591 0.94304 0.34394 0.0
C1095 C 0.86808 0.93865 0.30873 0.0
C1096 C 0.87913 0.95032 0.29075 0.0
C1097 C 0.84386 0.93087 0.36245 0.0
C1098 C 0.84189 0.9288 0.41529 0.0
C1099 C 0.83421 0.9215 0.32852 0.0
C1100 C 0.83491 0.92382 0.27242 0.0
C1101 C 0.8384 0.91055 0.24021 0.0
C1102 C 0.83912 0.91273 0.18734 0.0
C1103 C 0.83628 0.92813 0.16621 0.0
C1104 C 0.83265 0.94136 0.19791 0.0
C1105 C 0.83189 0.93923 0.25079 0.0
H1106 H 0.83686 0.9298 0.12528 0.0
H1107 H 0.82232 0.9149 0.63837 0.0
H1108 H 0.30347 0.63803 0.5085 0.0
H1109 H 0.32411 0.61896 0.54041 0.0
H1110 H 0.28698 0.59331 0.62535 0.0
H1111 H 0.26647 0.6126 0.59492 0.0
H1112 H 0.31255 0.59669 0.68249 0.0
H1113 H 0.30298 0.57845 0.51086 0.0
H1114 H 0.30102 0.5812 0.41732 0.0
H1115 H 0.35155 0.59492 0.4101 0.0
H1116 H 0.35376 0.59244 0.50372 0.0
H1117 H 0.36522 0.51853 0.64464 0.0
H1118 H 0.34561 0.53868 0.61401 0.0
H1119 H 0.36617 0.57465 0.7158 0.0
H1120 H 0.38565 0.55434 0.74753 0.0
H1121 H 0.34917 0.56633 0.56532 0.0
H1122 H 0.33608 0.60083 0.75376 0.0
H1123 H 0.33565 0.59555 0.84648 0.0
H1124 H 0.32624 0.54477 0.81855 0.0
H1125 H 0.3264 0.54978 0.72575 0.0
C1126 C 0.29973 0.62829 0.53385 0.0
C1127 C 0.28337 0.62677 0.54914 0.0
C1128 C 0.31152 0.61737 0.55197 0.0
C1129 C 0.30709 0.60459 0.58497 0.0
C1130 C 0.29072 0.60309 0.60011 0.0
C1131 C 0.279 0.61408 0.58249 0.0
C1132 C 0.31941 0.59277 0.604 0.0
C1133 C 0.32059 0.5901 0.65683 0.0
C1134 C 0.32977 0.58397 0.57061 0.0
C1135 C 0.32849 0.58542 0.51432 0.0
C1136 C 0.31364 0.58217 0.48935 0.0
C1137 C 0.31249 0.58366 0.43632 0.0
C1138 C 0.32614 0.58828 0.4078 0.0
C1139 C 0.34098 0.59137 0.43225 0.0
C1140 C 0.34219 0.58991 0.48528 0.0
C1141 C 0.36554 0.53071 0.66067 0.0
C1142 C 0.37693 0.53485 0.69864 0.0
C1143 C 0.35436 0.54224 0.64294 0.0
C1144 C 0.35434 0.55816 0.66274 0.0
C1145 C 0.3658 0.56238 0.70045 0.0
C1146 C 0.37694 0.55079 0.71847 0.0
C1147 C 0.34228 0.57024 0.64376 0.0
C1148 C 0.3412 0.57301 0.59097 0.0
C1149 C 0.3317 0.57879 0.67708 0.0
C1150 C 0.33145 0.57566 0.73283 0.0
C1151 C 0.33388 0.58855 0.76744 0.0
C1152 C 0.33369 0.5856 0.82 0.0
C1153 C 0.33098 0.56983 0.83839 0.0
C1154 C 0.3284 0.55697 0.80426 0.0
C1155 C 0.32856 0.55985 0.75168 0.0
H1156 H 0.33085 0.56757 0.87908 0.0
H1157 H 0.32523 0.58942 0.36675 0.0
H1158 H 0.72675 0.12622 0.86531 0.0
H1159 H 0.70592 0.10743 0.83324 0.0
H1160 H 0.68402 0.10547 0.98277 0.0
H1161 H 0.70473 0.12452 0.01507 0.0
H1162 H 0.68961 0.07413 0.93306 0.0
H1163 H 0.66552 0.12695 0.90002 0.0
H1164 H 0.66532 0.15487 0.86493 0.0
H1165 H 0.67226 0.13577 0.71383 0.0
H1166 H 0.67274 0.10773 0.74814 0.0
H1167 H 0.61716 0.03283 0.87452 0.0
H1168 H 0.63704 0.0528 0.90441 0.0
H1169 H 0.65023 0.06363 0.74855 0.0
H1170 H 0.6297 0.04408 0.71835 0.0
H1171 H 0.64972 0.09058 0.80012 0.0
H1172 H 0.67424 0.03861 0.8277 0.0
H1173 H 0.67618 0.01022 0.85833 0.0
H1174 H 0.67092 0.02668 0.01309 0.0
H1175 H 0.66873 0.05516 0.98333 0.0
C1176 C 0.7175 0.12179 0.89139 0.0
C1177 C 0.71734 0.12682 0.9427 0.0
C1178 C 0.7056 0.11111 0.87296 0.0
C1179 C 0.69343 0.10516 0.90562 0.0
C1180 C 0.69334 0.10998 0.95703 0.0
C1181 C 0.70512 0.12086 0.97535 0.0
C1182 C 0.68087 0.09378 0.88603 0.0
C1183 C 0.68072 0.07775 0.90454 0.0
C1184 C 0.66974 0.09841 0.84742 0.0
C1185 C 0.66933 0.11525 0.82672 0.0
C1186 C 0.66714 0.12871 0.85937 0.0
C1187 C 0.66695 0.14455 0.83961 0.0
C1188 C 0.66882 0.14709 0.7872 0.0
C1189 C 0.67083 0.13378 0.75442 0.0
C1190 C 0.67105 0.11791 0.774 0.0
C1191 C 0.62426 0.03951 0.84659 0.0
C1192 C 0.622 0.03683 0.79412 0.0
C1193 C 0.6357 0.05086 0.86373 0.0
C1194 C 0.64545 0.05946 0.82882 0.0
C1195 C 0.64293 0.05709 0.77625 0.0
C1196 C 0.63123 0.04591 0.75901 0.0
C1197 C 0.65828 0.07083 0.84744 0.0
C1198 C 0.65857 0.08688 0.82865 0.0
C1199 C 0.66978 0.06612 0.88512 0.0
C1200 C 0.67117 0.04901 0.90323 0.0
C1201 C 0.67338 0.03617 0.86824 0.0
C1202 C 0.67455 0.02006 0.88545 0.0
C1203 C 0.67364 0.01665 0.93761 0.0
C1204 C 0.67161 0.02934 0.97269 0.0
C1205 C 0.67042 0.04547 0.95568 0.0
H1206 H 0.67454 0.00417 0.95087 0.0
H1207 H 0.66867 0.15937 0.77198 0.0
H1208 H 0.11989 0.53001 0.37028 0.0
H1209 H 0.13864 0.55146 0.39806 0.0
H1210 H 0.14529 0.56653 0.24179 0.0
H1211 H 0.12616 0.54522 0.21361 0.0
H1212 H 0.17525 0.56128 0.30435 0.0
H1213 H 0.12408 0.59012 0.30544 0.0
H1214 H 0.09508 0.59397 0.32746 0.0
H1215 H 0.10699 0.59253 0.48699 0.0
H1216 H 0.13605 0.58841 0.46591 0.0
H1217 H 0.22131 0.63153 0.36549 0.0
H1218 H 0.20113 0.6129 0.32932 0.0
H1219 H 0.18118 0.60464 0.47959 0.0
H1220 H 0.20098 0.62383 0.51567 0.0
H1221 H 0.1574 0.60711 0.41498 0.0
H1222 H 0.20727 0.57671 0.41843 0.0
H1223 H 0.23634 0.57117 0.40127 0.0
H1224 H 0.22731 0.57342 0.23998 0.0
H1225 H 0.19821 0.5792 0.25621 0.0
C1226 C 0.12531 0.53791 0.34179 0.0
C1227 C 0.12159 0.53597 0.28978 0.0
C1228 C 0.13597 0.55017 0.35775 0.0
C1229 C 0.14326 0.56056 0.32196 0.0
C1230 C 0.13973 0.5586 0.2699 0.0
C1231 C 0.1288 0.54649 0.25393 0.0
C1232 C 0.15478 0.5733 0.33937 0.0
C1233 C 0.17137 0.5715 0.32774 0.0
C1234 C 0.14968 0.58624 0.37128 0.0
C1235 C 0.13222 0.5888 0.38407 0.0
C1236 C 0.1205 0.59047 0.34521 0.0
C1237 C 0.10405 0.59274 0.35753 0.0
C1238 C 0.09919 0.59345 0.40859 0.0
C1239 C 0.11077 0.59195 0.44745 0.0
C1240 C 0.12723 0.58967 0.43534 0.0
C1241 C 0.2126 0.62576 0.3908 0.0
C1242 C 0.21276 0.62904 0.44344 0.0
C1243 C 0.20111 0.61505 0.37012 0.0
C1244 C 0.1898 0.6071 0.40181 0.0
C1245 C 0.18979 0.61058 0.45435 0.0
C1246 C 0.20114 0.62151 0.47497 0.0
C1247 C 0.17804 0.59513 0.38025 0.0
C1248 C 0.16137 0.59701 0.39123 0.0
C1249 C 0.18312 0.58207 0.34845 0.0
C1250 C 0.2006 0.57857 0.33855 0.0
C1251 C 0.21151 0.57615 0.37931 0.0
C1252 C 0.22799 0.57295 0.36975 0.0
C1253 C 0.23368 0.57199 0.31957 0.0
C1254 C 0.22289 0.57419 0.27883 0.0
C1255 C 0.2064 0.57743 0.28819 0.0
H1256 H 0.24644 0.5695 0.31224 0.0
H1257 H 0.08645 0.59521 0.41805 0.0
H1258 H 0.62641 0.95494 0.77876 0.0
H1259 H 0.64574 0.93395 0.74995 0.0
H1260 H 0.63737 0.94806 0.5936 0.0
H1261 H 0.61834 0.96921 0.62204 0.0
H1262 H 0.63677 0.913 0.61398 0.0
H1263 H 0.66967 0.96136 0.64311 0.0
H1264 H 0.6799 0.9842 0.69542 0.0
H1265 H 0.69883 0.95031 0.80546 0.0
H1266 H 0.68848 0.92726 0.75411 0.0
H1267 H 0.70222 0.87549 0.48271 0.0
H1268 H 0.68174 0.89432 0.51665 0.0
H1269 H 0.70151 0.888 0.66811 0.0
H1270 H 0.72239 0.86973 0.63396 0.0
H1271 H 0.69566 0.91835 0.65471 0.0
H1272 H 0.66454 0.86995 0.62801 0.0
H1273 H 0.65365 0.8463 0.58077 0.0
H1274 H 0.63061 0.87848 0.47339 0.0
H1275 H 0.64156 0.90233 0.51961 0.0
C1276 C 0.62867 0.9535 0.73828 0.0
C1277 C 0.62096 0.96372 0.70262 0.0
C1278 C 0.63969 0.94155 0.72192 0.0
C1279 C 0.64295 0.93952 0.6697 0.0
C1280 C 0.63496 0.94944 0.63403 0.0
C1281 C 0.62418 0.96155 0.65037 0.0
C1282 C 0.65505 0.92738 0.65205 0.0
C1283 C 0.64968 0.91418 0.62241 0.0
C1284 C 0.67177 0.92876 0.66449 0.0
C1285 C 0.67814 0.9426 0.69508 0.0
C1286 C 0.67588 0.95878 0.67868 0.0
C1287 C 0.68173 0.97177 0.70811 0.0
C1288 C 0.68996 0.96871 0.75382 0.0
C1289 C 0.69242 0.95266 0.77009 0.0
C1290 C 0.68658 0.93963 0.74083 0.0
C1291 C 0.70214 0.8781 0.52325 0.0
C1292 C 0.71387 0.87115 0.55571 0.0
C1293 C 0.69038 0.88878 0.5427 0.0
C1294 C 0.68989 0.89241 0.59516 0.0
C1295 C 0.70161 0.88542 0.62756 0.0
C1296 C 0.71351 0.87494 0.60801 0.0
C1297 C 0.67747 0.90384 0.61608 0.0
C1298 C 0.68277 0.91698 0.64639 0.0
C1299 C 0.66062 0.90223 0.60494 0.0
C1300 C 0.654 0.88792 0.57702 0.0
C1301 C 0.65725 0.87198 0.5941 0.0
C1302 C 0.65105 0.85854 0.56754 0.0
C1303 C 0.64148 0.86088 0.52404 0.0
C1304 C 0.63805 0.87668 0.50707 0.0
C1305 C 0.64424 0.89017 0.53346 0.0
H1306 H 0.63668 0.85046 0.50353 0.0
H1307 H 0.69447 0.97878 0.77656 0.0
H1308 H 0.37606 0.45216 0.72625 0.0
H1309 H 0.3572 0.43143 0.75913 0.0
H1310 H 0.36338 0.45041 0.91148 0.0
H1311 H 0.38206 0.47127 0.87887 0.0
H1312 H 0.36493 0.4154 0.90363 0.0
H1313 H 0.33082 0.46073 0.85263 0.0
H1314 H 0.32057 0.48134 0.79203 0.0
H1315 H 0.30521 0.44335 0.68979 0.0
H1316 H 0.31559 0.42251 0.7495 0.0
H1317 H 0.2979 0.37699 0.02704 0.0
H1318 H 0.31839 0.39613 0.99473 0.0
H1319 H 0.30359 0.38528 0.84022 0.0
H1320 H 0.28267 0.36676 0.87249 0.0
H1321 H 0.30702 0.41606 0.84833 0.0
H1322 H 0.34028 0.37056 0.89584 0.0
H1323 H 0.35119 0.34915 0.95249 0.0
H1324 H 0.36897 0.38577 0.05576 0.0
H1325 H 0.35797 0.40741 4e-05 0.0
C1326 C 0.37344 0.45186 0.76676 0.0
C1327 C 0.38045 0.46335 0.8 0.0
C1328 C 0.36267 0.44005 0.78544 0.0
C1329 C 0.35888 0.43947 0.83766 0.0
C1330 C 0.36618 0.45067 0.87108 0.0
C1331 C 0.37677 0.4626 0.85235 0.0
C1332 C 0.34693 0.42748 0.85731 0.0
C1333 C 0.35222 0.4156 0.89206 0.0
C1334 C 0.33049 0.42755 0.84103 0.0
C1335 C 0.32414 0.44007 0.80528 0.0
C1336 C 0.32539 0.45677 0.81703 0.0
C1337 C 0.31953 0.4685 0.78288 0.0
C1338 C 0.31228 0.46366 0.73702 0.0
C1339 C 0.31084 0.44708 0.72529 0.0
C1340 C 0.3167 0.43531 0.75928 0.0
C1341 C 0.2991 0.37866 0.98621 0.0
C1342 C 0.28871 0.37042 0.95226 0.0
C1343 C 0.31087 0.38953 0.96772 0.0
C1344 C 0.31271 0.39202 0.91491 0.0
C1345 C 0.30241 0.38362 0.88108 0.0
C1346 C 0.29048 0.373 0.89956 0.0
C1347 C 0.32495 0.40377 0.89478 0.0
C1348 C 0.31973 0.41571 0.85993 0.0
C1349 C 0.34151 0.40357 0.91043 0.0
C1350 C 0.34816 0.3906 0.94401 0.0
C1351 C 0.3464 0.37404 0.93083 0.0
C1352 C 0.35262 0.36187 0.96273 0.0
C1353 C 0.36073 0.3661 0.00776 0.0
C1354 C 0.36267 0.38252 0.02091 0.0
C1355 C 0.35646 0.39474 0.98915 0.0
H1356 H 0.36554 0.35666 0.03241 0.0
H1357 H 0.30775 0.47275 0.71064 0.0
H1358 H 0.77315 0.11452 0.09199 0.0
H1359 H 0.79465 0.09692 0.12547 0.0
H1360 H 0.83048 0.12344 0.0377 0.0
H1361 H 0.80882 0.14069 0.00239 0.0
H1362 H 0.83734 0.09294 0.03296 0.0
H1363 H 0.82577 0.12913 0.16965 0.0
H1364 H 0.80883 0.1442 0.23154 0.0
H1365 H 0.79286 0.099 0.29769 0.0
H1366 H 0.80954 0.08365 0.23572 0.0
H1367 H 0.8896 0.05688 0.25899 0.0
H1368 H 0.87217 0.07848 0.22416 0.0
H1369 H 0.85262 0.04449 0.11405 0.0
H1370 H 0.87035 0.02311 0.1475 0.0
H1371 H 0.84096 0.08231 0.21905 0.0
H1372 H 0.84278 0.06288 0.00478 0.0
H1373 H 0.86221 0.05039 0.94434 0.0
H1374 H 0.90241 0.0671 0.03558 0.0
H1375 H 0.88325 0.0799 0.09615 0.0
C1376 C 0.78561 0.11658 0.07976 0.0
C1377 C 0.78934 0.12901 0.04478 0.0
C1378 C 0.79791 0.10658 0.09919 0.0
C1379 C 0.81426 0.10906 0.085 0.0
C1380 C 0.81798 0.12133 0.04939 0.0
C1381 C 0.80561 0.13119 0.0293 0.0
C1382 C 0.82737 0.09866 0.10694 0.0
C1383 C 0.83817 0.09067 0.07366 0.0
C1384 C 0.82882 0.09606 0.16021 0.0
C1385 C 0.81882 0.10524 0.19777 0.0
C1386 C 0.81857 0.1224 0.19718 0.0
C1387 C 0.80902 0.131 0.23231 0.0
C1388 C 0.79975 0.12257 0.26846 0.0
C1389 C 0.80004 0.10552 0.26964 0.0
C1390 C 0.80955 0.09686 0.23456 0.0
C1391 C 0.88162 0.05407 0.22725 0.0
C1392 C 0.88139 0.03835 0.20576 0.0
C1393 C 0.87165 0.0664 0.20742 0.0
C1394 C 0.86127 0.0632 0.16592 0.0
C1395 C 0.86082 0.04739 0.1452 0.0
C1396 C 0.87089 0.03514 0.16459 0.0
C1397 C 0.85057 0.0762 0.14493 0.0
C1398 C 0.84023 0.08468 0.17838 0.0
C1399 C 0.84992 0.07967 0.092 0.0
C1400 C 0.86155 0.07223 0.05524 0.0
C1401 C 0.85577 0.06397 0.01181 0.0
C1402 C 0.86673 0.05682 0.97755 0.0
C1403 C 0.88353 0.05791 0.9862 0.0
C1404 C 0.88939 0.06621 0.02902 0.0
C1405 C 0.87848 0.0734 0.06335 0.0
H1406 H 0.89199 0.05234 0.95968 0.0
H1407 H 0.79236 0.12924 0.29562 0.0
H1408 H 0.77373 0.62545 0.87365 0.0
H1409 H 0.79424 0.60666 0.84069 0.0
H1410 H 0.81982 0.6086 0.98457 0.0
H1411 H 0.79944 0.62786 0.01745 0.0
H1412 H 0.84089 0.60986 0.90814 0.0
H1413 H 0.79604 0.57557 0.95184 0.0
H1414 H 0.76745 0.56621 0.95334 0.0
H1415 H 0.76838 0.55977 0.79071 0.0
H1416 H 0.79693 0.56932 0.78814 0.0
H1417 H 0.88554 0.53541 0.87174 0.0
H1418 H 0.86643 0.55614 0.90256 0.0
H1419 H 0.84865 0.5632 0.74925 0.0
H1420 H 0.86809 0.54267 0.71781 0.0
H1421 H 0.824 0.55728 0.83016 0.0
H1422 H 0.86999 0.59152 0.78993 0.0
H1423 H 0.8989 0.59981 0.79304 0.0
H1424 H 0.89597 0.60481 0.95593 0.0
H1425 H 0.86709 0.5963 0.95388 0.0
C1426 C 0.78371 0.62188 0.89836 0.0
C1427 C 0.78493 0.62804 0.94827 0.0
C1428 C 0.7954 0.61107 0.8795 0.0
C1429 C 0.80843 0.60599 0.91041 0.0
C1430 C 0.80983 0.61231 0.96009 0.0
C1431 C 0.79817 0.62326 0.97889 0.0
C1432 C 0.82057 0.59411 0.89056 0.0
C1433 C 0.83719 0.59828 0.89173 0.0
C1434 C 0.81575 0.57908 0.8684 0.0
C1435 C 0.79858 0.57332 0.86975 0.0
C1436 C 0.79011 0.57229 0.91634 0.0
C1437 C 0.77392 0.56693 0.91739 0.0
C1438 C 0.76609 0.56244 0.87213 0.0
C1439 C 0.77446 0.56327 0.82573 0.0
C1440 C 0.79065 0.56865 0.82445 0.0
C1441 C 0.87763 0.54145 0.84453 0.0
C1442 C 0.87826 0.53745 0.7924 0.0
C1443 C 0.86678 0.5533 0.86218 0.0
C1444 C 0.8562 0.56118 0.82812 0.0
C1445 C 0.85677 0.55724 0.77601 0.0
C1446 C 0.86788 0.54558 0.75814 0.0
C1447 C 0.84418 0.57313 0.84752 0.0
C1448 C 0.82761 0.56891 0.84645 0.0
C1449 C 0.84907 0.58796 0.87046 0.0
C1450 C 0.86642 0.5931 0.8718 0.0
C1451 C 0.87555 0.59422 0.82648 0.0
C1452 C 0.89193 0.599 0.82803 0.0
C1453 C 0.89928 0.60279 0.87467 0.0
C1454 C 0.89026 0.60185 0.91984 0.0
C1455 C 0.87389 0.59706 0.9185 0.0
H1456 H 0.91196 0.60649 0.87579 0.0
H1457 H 0.75356 0.55828 0.87304 0.0
H1458 H 0.23072 0.11559 0.60106 0.0
H1459 H 0.21018 0.09689 0.63551 0.0
H1460 H 0.1724 0.12295 0.55509 0.0
H1461 H 0.19299 0.14151 0.51922 0.0
H1462 H 0.16773 0.11441 0.67031 0.0
H1463 H 0.17965 0.09193 0.50278 0.0
H1464 H 0.1983 0.08231 0.4353 0.0
H1465 H 0.21781 0.04621 0.5372 0.0
H1466 H 0.19944 0.05581 0.60556 0.0
H1467 H 0.10405 0.05649 0.70973 0.0
H1468 H 0.12288 0.07731 0.67798 0.0
H1469 H 0.16301 0.04354 0.6944 0.0
H1470 H 0.14404 0.02247 0.72319 0.0
H1471 H 0.16602 0.05711 0.60922 0.0
H1472 H 0.15578 0.07816 0.77663 0.0
H1473 H 0.13927 0.08768 0.84948 0.0
H1474 H 0.11907 0.12593 0.75698 0.0
H1475 H 0.13532 0.1165 0.68336 0.0
C1476 C 0.21804 0.11735 0.59076 0.0
C1477 C 0.21342 0.12995 0.55737 0.0
C1478 C 0.20635 0.10668 0.61046 0.0
C1479 C 0.18985 0.1086 0.59779 0.0
C1480 C 0.18512 0.12135 0.56529 0.0
C1481 C 0.19686 0.13185 0.54471 0.0
C1482 C 0.17766 0.09693 0.61755 0.0
C1483 C 0.16711 0.10192 0.65661 0.0
C1484 C 0.17735 0.08058 0.60062 0.0
C1485 C 0.18829 0.0747 0.55942 0.0
C1486 C 0.18802 0.08205 0.51094 0.0
C1487 C 0.19852 0.07658 0.4725 0.0
C1488 C 0.20927 0.06369 0.482 0.0
C1489 C 0.2095 0.05621 0.52992 0.0
C1490 C 0.19904 0.06165 0.5685 0.0
C1491 C 0.11693 0.05362 0.70705 0.0
C1492 C 0.12262 0.03791 0.71887 0.0
C1493 C 0.12771 0.06554 0.68912 0.0
C1494 C 0.14446 0.06211 0.68423 0.0
C1495 C 0.15016 0.04651 0.69753 0.0
C1496 C 0.13934 0.03449 0.71421 0.0
C1497 C 0.15595 0.07441 0.66285 0.0
C1498 C 0.16646 0.06956 0.62324 0.0
C1499 C 0.15643 0.09082 0.68015 0.0
C1500 C 0.14664 0.09651 0.72434 0.0
C1501 C 0.14772 0.08852 0.77172 0.0
C1502 C 0.13843 0.09392 0.81317 0.0
C1503 C 0.12809 0.10737 0.80782 0.0
C1504 C 0.12706 0.11549 0.76104 0.0
C1505 C 0.13632 0.11013 0.71945 0.0
H1506 H 0.12091 0.11153 0.83996 0.0
H1507 H 0.21738 0.05947 0.45219 0.0
H1508 H 0.69331 0.35703 0.47376 0.0
H1509 H 0.67282 0.37584 0.43866 0.0
H1510 H 0.71121 0.4064 0.37933 0.0
H1511 H 0.7317 0.38747 0.41288 0.0
H1512 H 0.68389 0.42204 0.44199 0.0
H1513 H 0.69529 0.38635 0.29731 0.0
H1514 H 0.69731 0.35937 0.25601 0.0
H1515 H 0.64675 0.35024 0.28831 0.0
H1516 H 0.64451 0.37708 0.33054 0.0
H1517 H 0.64374 0.47893 0.28929 0.0
H1518 H 0.66263 0.45812 0.32013 0.0
H1519 H 0.62377 0.42253 0.31844 0.0
H1520 H 0.60504 0.44321 0.28467 0.0
H1521 H 0.65003 0.40816 0.29099 0.0
H1522 H 0.63686 0.44261 0.43123 0.0
H1523 H 0.63327 0.46842 0.47834 0.0
H1524 H 0.68448 0.47856 0.46395 0.0
H1525 H 0.68835 0.4529 0.41611 0.0
C1526 C 0.69735 0.36777 0.45324 0.0
C1527 C 0.71406 0.37082 0.44593 0.0
C1528 C 0.68566 0.37844 0.43317 0.0
C1529 C 0.69057 0.39243 0.40642 0.0
C1530 C 0.70724 0.39563 0.39986 0.0
C1531 C 0.7189 0.38481 0.41892 0.0
C1532 C 0.67837 0.40386 0.38539 0.0
C1533 C 0.67657 0.41913 0.40868 0.0
C1534 C 0.66845 0.3997 0.34324 0.0
C1535 C 0.66979 0.38363 0.31762 0.0
C1536 C 0.68465 0.37852 0.29608 0.0
C1537 C 0.68583 0.36327 0.27239 0.0
C1538 C 0.67218 0.35307 0.26968 0.0
C1539 C 0.65732 0.35813 0.29052 0.0
C1540 C 0.65609 0.37337 0.31431 0.0
C1541 C 0.63929 0.46662 0.295 0.0
C1542 C 0.62294 0.46267 0.28499 0.0
C1543 C 0.65005 0.45475 0.31303 0.0
C1544 C 0.64454 0.43884 0.32315 0.0
C1545 C 0.62831 0.43473 0.31131 0.0
C1546 C 0.61762 0.44654 0.29204 0.0
C1547 C 0.65565 0.42666 0.34696 0.0
C1548 C 0.65723 0.41117 0.32443 0.0
C1549 C 0.66511 0.43048 0.39072 0.0
C1550 C 0.66287 0.44589 0.4197 0.0
C1551 C 0.64734 0.45039 0.43782 0.0
C1552 C 0.64526 0.46499 0.46468 0.0
C1553 C 0.65863 0.47514 0.47403 0.0
C1554 C 0.67413 0.47069 0.45663 0.0
C1555 C 0.67628 0.45611 0.42968 0.0
H1556 H 0.657 0.48644 0.49484 0.0
H1557 H 0.67312 0.34127 0.25132 0.0
H1558 H 0.37195 0.95511 0.26764 0.0
H1559 H 0.35331 0.93452 0.23346 0.0
H1560 H 0.36746 0.94766 0.08013 0.0
H1561 H 0.38548 0.96878 0.11421 0.0
H1562 H 0.33664 0.94435 0.08175 0.0
H1563 H 0.38043 0.91114 0.14197 0.0
H1564 H 0.40066 0.9007 0.20351 0.0
H1565 H 0.36206 0.88498 0.30281 0.0
H1566 H 0.34159 0.89553 0.24217 0.0
H1567 H 0.29772 0.87412 0.97123 0.0
H1568 H 0.31911 0.89304 0.99972 0.0
H1569 H 0.30038 0.89068 0.15337 0.0
H1570 H 0.27896 0.87197 0.12523 0.0
H1571 H 0.33472 0.88753 0.1468 0.0
H1572 H 0.29127 0.92246 0.0847 0.0
H1573 H 0.27179 0.93232 0.01992 0.0
H1574 H 0.31149 0.94383 0.91917 0.0
H1575 H 0.3312 0.93381 0.98313 0.0
C1576 C 0.37112 0.95352 0.22667 0.0
C1577 C 0.38015 0.96351 0.19356 0.0
C1578 C 0.36055 0.94168 0.20712 0.0
C1579 C 0.35914 0.93931 0.15412 0.0
C1580 C 0.3683 0.94922 0.1211 0.0
C1581 C 0.37863 0.96127 0.14061 0.0
C1582 C 0.34767 0.92695 0.13303 0.0
C1583 C 0.33646 0.93185 0.09542 0.0
C1584 C 0.34721 0.91066 0.15117 0.0
C1585 C 0.35948 0.90426 0.1877 0.0
C1586 C 0.37626 0.90556 0.1771 0.0
C1587 C 0.38777 0.89961 0.2118 0.0
C1588 C 0.38265 0.89221 0.25709 0.0
C1589 C 0.36601 0.89072 0.26773 0.0
C1590 C 0.35444 0.89667 0.23318 0.0
C1591 C 0.2982 0.87763 0.01106 0.0
C1592 C 0.28665 0.87164 0.04598 0.0
C1593 C 0.31039 0.88843 0.02724 0.0
C1594 C 0.31126 0.89327 0.07861 0.0
C1595 C 0.29991 0.88706 0.11361 0.0
C1596 C 0.28765 0.87644 0.0974 0.0
C1597 C 0.32378 0.90504 0.09606 0.0
C1598 C 0.33511 0.90001 0.13296 0.0
C1599 C 0.32453 0.92112 0.07676 0.0
C1600 C 0.31269 0.92722 0.03845 0.0
C1601 C 0.29583 0.92696 0.04856 0.0
C1602 C 0.28475 0.9326 0.01203 0.0
C1603 C 0.29039 0.93865 0.96539 0.0
C1604 C 0.30713 0.93911 0.95526 0.0
C1605 C 0.31826 0.93347 0.99165 0.0
H1606 H 0.2818 0.94302 0.93716 0.0
H1607 H 0.39158 0.88761 0.28391 0.0
H1608 H 0.7734 0.37249 0.63074 0.0
H1609 H 0.79369 0.39128 0.66532 0.0
H1610 H 0.81849 0.39192 0.51997 0.0
H1611 H 0.79848 0.37257 0.48573 0.0
H1612 H 0.84005 0.39054 0.59243 0.0
H1613 H 0.79322 0.42386 0.5612 0.0
H1614 H 0.76433 0.43213 0.56616 0.0
H1615 H 0.76799 0.43594 0.72922 0.0
H1616 H 0.79687 0.42746 0.7253 0.0
H1617 H 0.88112 0.46705 0.62264 0.0
H1618 H 0.86194 0.44579 0.59606 0.0
H1619 H 0.85067 0.43564 0.7536 0.0
H1620 H 0.87027 0.45668 0.7807 0.0
H1621 H 0.82265 0.44149 0.67935 0.0
H1622 H 0.87097 0.40903 0.70597 0.0
H1623 H 0.9001 0.40229 0.69544 0.0
H1624 H 0.89358 0.3988 0.53319 0.0
H1625 H 0.86444 0.40579 0.54269 0.0
C1626 C 0.78317 0.37664 0.60612 0.0
C1627 C 0.78431 0.37115 0.55543 0.0
C1628 C 0.79473 0.38745 0.62588 0.0
C1629 C 0.80748 0.39327 0.59503 0.0
C1630 C 0.80875 0.38763 0.5445 0.0
C1631 C 0.7973 0.37662 0.52491 0.0
C1632 C 0.81947 0.40521 0.61552 0.0
C1633 C 0.8362 0.40175 0.61093 0.0
C1634 C 0.81452 0.41975 0.64048 0.0
C1635 C 0.79716 0.42485 0.643 0.0
C1636 C 0.78783 0.42633 0.59816 0.0
C1637 C 0.77147 0.43108 0.60077 0.0
C1638 C 0.76432 0.43451 0.64799 0.0
C1639 C 0.77354 0.43325 0.69269 0.0
C1640 C 0.78991 0.42848 0.69029 0.0
C1641 C 0.87461 0.46024 0.65166 0.0
C1642 C 0.87715 0.46349 0.70373 0.0
C1643 C 0.86371 0.4481 0.63641 0.0
C1644 C 0.85497 0.43919 0.67291 0.0
C1645 C 0.85737 0.44243 0.72498 0.0
C1646 C 0.86856 0.45437 0.74034 0.0
C1647 C 0.84306 0.42675 0.65612 0.0
C1648 C 0.82639 0.43018 0.6612 0.0
C1649 C 0.84806 0.41236 0.63083 0.0
C1650 C 0.86556 0.4081 0.62501 0.0
C1651 C 0.87578 0.40699 0.668 0.0
C1652 C 0.89228 0.40309 0.66223 0.0
C1653 C 0.89869 0.40016 0.61366 0.0
C1654 C 0.8886 0.40109 0.57078 0.0
C1655 C 0.87208 0.40501 0.57634 0.0
H1656 H 0.91147 0.39713 0.60927 0.0
H1657 H 0.75165 0.43819 0.64994 0.0
H1658 H 0.30495 0.14389 0.46435 0.0
H1659 H 0.3255 0.12495 0.43025 0.0
H1660 H 0.28779 0.0896 0.3994 0.0
H1661 H 0.26716 0.1086 0.43194 0.0
H1662 H 0.31874 0.07862 0.4556 0.0
H1663 H 0.29851 0.10692 0.30452 0.0
H1664 H 0.29242 0.13171 0.25472 0.0
H1665 H 0.34279 0.14595 0.26223 0.0
H1666 H 0.34914 0.12135 0.31281 0.0
H1667 H 0.35685 0.01897 0.30731 0.0
H1668 H 0.33788 0.03949 0.33958 0.0
H1669 H 0.3733 0.07726 0.30909 0.0
H1670 H 0.39203 0.05675 0.27422 0.0
H1671 H 0.34493 0.0885 0.28761 0.0
H1672 H 0.36664 0.06117 0.43241 0.0
H1673 H 0.37438 0.03786 0.48671 0.0
H1674 H 0.32409 0.02363 0.49856 0.0
H1675 H 0.31606 0.04673 0.44371 0.0
C1676 C 0.30108 0.13205 0.45048 0.0
C1677 C 0.28449 0.12768 0.45066 0.0
C1678 C 0.31279 0.1213 0.43095 0.0
C1679 C 0.30808 0.10596 0.41232 0.0
C1680 C 0.2916 0.10141 0.41365 0.0
C1681 C 0.27986 0.11227 0.4321 0.0
C1682 C 0.32031 0.09463 0.39083 0.0
C1683 C 0.32438 0.08063 0.41867 0.0
C1684 C 0.32805 0.0977 0.34363 0.0
C1685 C 0.32426 0.11241 0.31297 0.0
C1686 C 0.30826 0.11542 0.29601 0.0
C1687 C 0.30476 0.12942 0.26754 0.0
C1688 C 0.3172 0.14043 0.25546 0.0
C1689 C 0.33317 0.13743 0.2717 0.0
C1690 C 0.33672 0.12346 0.30024 0.0
C1691 C 0.36053 0.03167 0.30712 0.0
C1692 C 0.37592 0.03629 0.28863 0.0
C1693 C 0.34973 0.04339 0.32594 0.0
C1694 C 0.35431 0.0599 0.32816 0.0
C1695 C 0.36952 0.0646 0.30812 0.0
C1696 C 0.38021 0.05289 0.28822 0.0
C1697 C 0.34327 0.07215 0.35192 0.0
C1698 C 0.33942 0.0864 0.32468 0.0
C1699 C 0.336 0.0695 0.40037 0.0
C1700 C 0.34076 0.05561 0.43357 0.0
C1701 C 0.35724 0.05301 0.4463 0.0
C1702 C 0.36168 0.03984 0.47722 0.0
C1703 C 0.34974 0.02925 0.49598 0.0
C1704 C 0.33332 0.03183 0.48396 0.0
C1705 C 0.32882 0.04498 0.453 0.0
H1706 H 0.3532 0.01906 0.51991 0.0
H1707 H 0.31447 0.15126 0.23341 0.0
H1708 H 0.6139 0.53216 0.1177 0.0
H1709 H 0.63267 0.55278 0.0848 0.0
H1710 H 0.64807 0.56393 0.23851 0.0
H1711 H 0.62875 0.54376 0.27169 0.0
H1712 H 0.64558 0.59084 0.18806 0.0
H1713 H 0.67118 0.53946 0.15449 0.0
H1714 H 0.67335 0.51138 0.12118 0.0
H1715 H 0.66582 0.52899 0.96865 0.0
H1716 H 0.66338 0.55716 0.00115 0.0
H1717 H 0.72196 0.62743 0.12614 0.0
H1718 H 0.70088 0.60858 0.15599 0.0
H1719 H 0.67998 0.60726 0.00497 0.0
H1720 H 0.70097 0.62634 0.97485 0.0
H1721 H 0.68491 0.57594 0.05175 0.0
H1722 H 0.66077 0.62816 0.08961 0.0
H1723 H 0.66028 0.65584 0.12661 0.0
H1724 H 0.66729 0.6358 0.27641 0.0
H1725 H 0.66805 0.60801 0.2402 0.0
C1726 C 0.62125 0.53905 0.14446 0.0
C1727 C 0.61995 0.53631 0.19722 0.0
C1728 C 0.63204 0.55078 0.12561 0.0
C1729 C 0.64206 0.5597 0.15906 0.0
C1730 C 0.64052 0.55718 0.2119 0.0
C1731 C 0.62951 0.54564 0.23084 0.0
C1732 C 0.65419 0.57155 0.13897 0.0
C1733 C 0.65429 0.58749 0.15868 0.0
C1734 C 0.66544 0.56731 0.10001 0.0
C1735 C 0.66693 0.55039 0.08032 0.0
C1736 C 0.66986 0.53733 0.11389 0.0
C1737 C 0.67116 0.5214 0.09515 0.0
C1738 C 0.66968 0.5184 0.04285 0.0
C1739 C 0.66694 0.53133 0.00916 0.0
C1740 C 0.66561 0.54728 0.02771 0.0
C1741 C 0.71286 0.62316 0.09929 0.0
C1742 C 0.71308 0.62835 0.04818 0.0
C1743 C 0.70081 0.61244 0.11644 0.0
C1744 C 0.68885 0.60663 0.08272 0.0
C1745 C 0.68911 0.61166 0.03153 0.0
C1746 C 0.70106 0.62257 0.01446 0.0
C1747 C 0.67625 0.59509 0.10096 0.0
C1748 C 0.67611 0.57923 0.08095 0.0
C1749 C 0.66519 0.59931 0.14023 0.0
C1750 C 0.66461 0.61601 0.16211 0.0
C1751 C 0.66234 0.62966 0.13039 0.0
C1752 C 0.66199 0.64537 0.15123 0.0
C1753 C 0.66379 0.64758 0.20381 0.0
C1754 C 0.66591 0.63407 0.23568 0.0
C1755 C 0.66628 0.61834 0.21502 0.0
H1756 H 0.66352 0.65975 0.21988 0.0
H1757 H 0.67069 0.50606 0.02842 0.0
H1758 H 0.20379 0.87712 0.03046 0.0
H1759 H 0.18307 0.89644 0.00068 0.0
H1760 H 0.19885 0.88882 0.84524 0.0
H1761 H 0.21996 0.87011 0.87507 0.0
H1762 H 0.19442 0.91939 0.85896 0.0
H1763 H 0.16257 0.87176 0.89709 0.0
H1764 H 0.15222 0.84919 0.95025 0.0
H1765 H 0.13256 0.88366 0.05738 0.0
H1766 H 0.14299 0.90644 0.00516 0.0
H1767 H 0.12612 0.95409 0.73293 0.0
H1768 H 0.14536 0.93385 0.76626 0.0
H1769 H 0.13473 0.94947 0.91993 0.0
H1770 H 0.11551 0.96978 0.8869 0.0
H1771 H 0.13613 0.91525 0.90855 0.0
H1772 H 0.16812 0.96281 0.86681 0.0
H1773 H 0.1779 0.98478 0.81027 0.0
H1774 H 0.19675 0.94917 0.70542 0.0
H1775 H 0.18685 0.92697 0.76101 0.0
C1776 C 0.20278 0.87957 0.98996 0.0
C1777 C 0.21346 0.87213 0.95507 0.0
C1778 C 0.19088 0.89054 0.97291 0.0
C1779 C 0.18922 0.89394 0.92056 0.0
C1780 C 0.19988 0.88644 0.88579 0.0
C1781 C 0.21193 0.87571 0.90287 0.0
C1782 C 0.17667 0.90561 0.90182 0.0
C1783 C 0.18165 0.9183 0.86932 0.0
C1784 C 0.16002 0.90447 0.91608 0.0
C1785 C 0.15371 0.8908 0.94748 0.0
C1786 C 0.15615 0.87452 0.93218 0.0
C1787 C 0.15025 0.86169 0.9621 0.0
C1788 C 0.14178 0.86499 0.00724 0.0
C1789 C 0.13915 0.88113 0.02245 0.0
C1790 C 0.14504 0.894 0.99269 0.0
C1791 C 0.12781 0.95314 0.77382 0.0
C1792 C 0.1194 0.96356 0.80732 0.0
C1793 C 0.13881 0.94161 0.79278 0.0
C1794 C 0.14154 0.94029 0.84551 0.0
C1795 C 0.13279 0.95033 0.87912 0.0
C1796 C 0.12188 0.96195 0.86018 0.0
C1797 C 0.15393 0.92878 0.86549 0.0
C1798 C 0.14892 0.91622 0.89827 0.0
C1799 C 0.17051 0.9299 0.85105 0.0
C1800 C 0.17661 0.94323 0.81784 0.0
C1801 C 0.17424 0.95967 0.83151 0.0
C1802 C 0.17982 0.97216 0.79966 0.0
C1803 C 0.18791 0.96837 0.75422 0.0
C1804 C 0.19046 0.95208 0.7406 0.0
C1805 C 0.18488 0.93954 0.77228 0.0
H1806 H 0.19222 0.97806 0.72961 0.0
H1807 H 0.13722 0.85504 0.03035 0.0
loop_
_geom_bond_atom_site_label_1
_geom_bond_atom_site_label_2
_geom_bond_distance
_geom_bond_site_symmetry_2
_ccdc_geom_bond_type
In0 O1 2.294 1_554 S
In0 O2 2.326 . S
In0 O6 2.266 1_554 S
In0 O7 2.326 1_554 S
In0 O8 2.266 . S
In0 O9 2.326 . S
In0 O11 2.294 . S
In0 O12 2.326 1_554 S
O1 In0 2.294 1_556 S
O1 C10 1.240 1_556 S
O2 In0 2.326 . S
O2 C10 1.252 . S
C3 O6 1.252 . S
C3 O7 1.260 . S
C4 O11 1.240 1_556 S
C4 O12 1.252 . S
C5 O8 1.252 . S
C5 O9 1.260 . S
O6 In0 2.266 1_556 S
O6 C3 1.252 . S
O7 In0 2.326 1_556 S
O7 C3 1.260 . S
O8 In0 2.266 . S
O8 C5 1.252 . S
O9 In0 2.326 . S
O9 C5 1.260 . S
C10 O1 1.240 1_554 S
C10 O2 1.252 . S
O11 In0 2.294 . S
O11 C4 1.240 1_554 S
O12 In0 2.326 1_556 S
O12 C4 1.252 . S
In13 O14 2.294 . S
In13 O15 2.326 . S
In13 O19 2.266 . S
In13 O20 2.326 1_545 S
In13 O21 2.266 1_545 S
In13 O22 2.326 . S
In13 O24 2.294 1_545 S
In13 O25 2.326 1_545 S
O14 In13 2.294 . S
O14 C23 1.240 . S
O15 In13 2.326 . S
O15 C23 1.252 . S
C16 O19 1.254 . S
C16 O20 1.258 1_545 S
C17 O24 1.240 . S
C17 O25 1.252 . S
C18 O21 1.254 1_545 S
C18 O22 1.258 . S
O19 In13 2.266 . S
O19 C16 1.254 . S
O20 In13 2.326 1_565 S
O20 C16 1.258 1_565 S
O21 In13 2.266 1_565 S
O21 C18 1.254 1_565 S
O22 In13 2.326 . S
O22 C18 1.258 . S
C23 O14 1.240 . S
C23 O15 1.252 . S
O24 In13 2.294 1_565 S
O24 C17 1.240 . S
O25 In13 2.326 1_565 S
O25 C17 1.252 . S
In26 O27 2.294 . S
In26 O28 2.326 . S
In26 O32 2.266 . S
In26 O33 2.326 . S
In26 O34 2.266 . S
In26 O35 2.326 . S
In26 O37 2.294 . S
In26 O38 2.326 . S
O27 In26 2.294 . S
O27 C36 1.240 . S
O28 In26 2.326 . S
O28 C36 1.252 . S
C29 O32 1.252 . S
C29 O33 1.260 . S
C30 O37 1.240 . S
C30 O38 1.252 . S
C31 O34 1.252 . S
C31 O35 1.260 . S
O32 In26 2.266 . S
O32 C29 1.252 . S
O33 In26 2.326 . S
O33 C29 1.260 . S
O34 In26 2.266 . S
O34 C31 1.252 . S
O35 In26 2.326 . S
O35 C31 1.260 . S
C36 O27 1.240 . S
C36 O28 1.252 . S
O37 In26 2.294 . S
O37 C30 1.240 . S
O38 In26 2.326 . S
O38 C30 1.252 . S
In39 O40 2.294 . S
In39 O41 2.326 . S
In39 O45 2.266 . S
In39 O46 2.326 1_545 S
In39 O47 2.266 1_545 S
In39 O48 2.326 . S
In39 O50 2.294 1_545 S
In39 O51 2.326 1_545 S
O40 In39 2.294 . S
O40 C49 1.240 . S
O41 In39 2.326 . S
O41 C49 1.252 . S
C42 O45 1.254 . S
C42 O46 1.258 1_545 S
C43 O50 1.240 . S
C43 O51 1.252 . S
C44 O47 1.254 1_545 S
C44 O48 1.258 . S
O45 In39 2.266 . S
O45 C42 1.254 . S
O46 In39 2.326 1_565 S
O46 C42 1.258 1_565 S
O47 In39 2.266 1_565 S
O47 C44 1.254 1_565 S
O48 In39 2.326 . S
O48 C44 1.258 . S
C49 O40 1.240 . S
C49 O41 1.252 . S
O50 In39 2.294 1_565 S
O50 C43 1.240 . S
O51 In39 2.326 1_565 S
O51 C43 1.252 . S
In52 O53 2.294 1_554 S
In52 O54 2.326 . S
In52 O58 2.266 1_554 S
In52 O59 2.326 1_554 S
In52 O60 2.266 . S
In52 O61 2.326 . S
In52 O63 2.294 . S
In52 O64 2.326 1_554 S
O53 In52 2.294 1_556 S
O53 C62 1.240 1_556 S
O54 In52 2.326 . S
O54 C62 1.252 . S
C55 O58 1.252 . S
C55 O59 1.260 . S
C56 O63 1.240 1_556 S
C56 O64 1.252 . S
C57 O60 1.252 . S
C57 O61 1.260 . S
O58 In52 2.266 1_556 S
O58 C55 1.252 . S
O59 In52 2.326 1_556 S
O59 C55 1.260 . S
O60 In52 2.266 . S
O60 C57 1.252 . S
O61 In52 2.326 . S
O61 C57 1.260 . S
C62 O53 1.240 1_554 S
C62 O54 1.252 . S
O63 In52 2.294 . S
O63 C56 1.240 1_554 S
O64 In52 2.326 1_556 S
O64 C56 1.252 . S
In65 O66 2.294 . S
In65 O67 2.326 . S
In65 O71 2.266 . S
In65 O72 2.326 1_545 S
In65 O73 2.266 1_545 S
In65 O74 2.326 . S
In65 O76 2.294 1_545 S
In65 O77 2.326 1_545 S
O66 In65 2.294 . S
O66 C75 1.240 . S
O67 In65 2.326 . S
O67 C75 1.252 . S
C68 O71 1.254 . S
C68 O72 1.258 1_545 S
C69 O76 1.240 . S
C69 O77 1.252 . S
C70 O73 1.254 1_545 S
C70 O74 1.258 . S
O71 In65 2.266 . S
O71 C68 1.254 . S
O72 In65 2.326 1_565 S
O72 C68 1.258 1_565 S
O73 In65 2.266 1_565 S
O73 C70 1.254 1_565 S
O74 In65 2.326 . S
O74 C70 1.258 . S
C75 O66 1.240 . S
C75 O67 1.252 . S
O76 In65 2.294 1_565 S
O76 C69 1.240 . S
O77 In65 2.326 1_565 S
O77 C69 1.252 . S
In78 O79 2.294 . S
In78 O80 2.326 . S
In78 O84 2.266 . S
In78 O85 2.326 . S
In78 O86 2.266 . S
In78 O87 2.326 . S
In78 O89 2.294 . S
In78 O90 2.326 . S
O79 In78 2.294 . S
O79 C88 1.240 . S
O80 In78 2.326 . S
O80 C88 1.252 . S
C81 O84 1.252 . S
C81 O85 1.260 . S
C82 O89 1.240 . S
C82 O90 1.252 . S
C83 O86 1.252 . S
C83 O87 1.260 . S
O84 In78 2.266 . S
O84 C81 1.252 . S
O85 In78 2.326 . S
O85 C81 1.260 . S
O86 In78 2.266 . S
O86 C83 1.252 . S
O87 In78 2.326 . S
O87 C83 1.260 . S
C88 O79 1.240 . S
C88 O80 1.252 . S
O89 In78 2.294 . S
O89 C82 1.240 . S
O90 In78 2.326 . S
O90 C82 1.252 . S
In91 O92 2.294 1_545 S
In91 O93 2.326 1_545 S
In91 O97 2.266 1_545 S
In91 O98 2.326 . S
In91 O99 2.266 . S
In91 O100 2.326 1_545 S
In91 O102 2.294 . S
In91 O103 2.326 . S
O92 In91 2.294 1_565 S
O92 C101 1.240 . S
O93 In91 2.326 1_565 S
O93 C101 1.252 . S
C94 O97 1.254 1_545 S
C94 O98 1.258 . S
C95 O102 1.240 . S
C95 O103 1.252 . S
C96 O99 1.254 . S
C96 O100 1.258 1_545 S
O97 In91 2.266 1_565 S
O97 C94 1.254 1_565 S
O98 In91 2.326 . S
O98 C94 1.258 . S
O99 In91 2.266 . S
O99 C96 1.254 . S
O100 In91 2.326 1_565 S
O100 C96 1.258 1_565 S
C101 O92 1.240 . S
C101 O93 1.252 . S
O102 In91 2.294 . S
O102 C95 1.240 . S
O103 In91 2.326 . S
O103 C95 1.252 . S
In104 O105 2.294 . S
In104 O106 2.326 . S
In104 O110 2.266 . S
In104 O111 2.326 . S
In104 O112 2.266 . S
In104 O113 2.326 . S
In104 O115 2.294 . S
In104 O116 2.326 . S
O105 In104 2.294 . S
O105 C114 1.240 . S
O106 In104 2.326 . S
O106 C114 1.252 . S
C107 O110 1.252 . S
C107 O111 1.260 . S
C108 O115 1.240 . S
C108 O116 1.252 . S
C109 O112 1.252 . S
C109 O113 1.260 . S
O110 In104 2.266 . S
O110 C107 1.252 . S
O111 In104 2.326 . S
O111 C107 1.260 . S
O112 In104 2.266 . S
O112 C109 1.252 . S
O113 In104 2.326 . S
O113 C109 1.260 . S
C114 O105 1.240 . S
C114 O106 1.252 . S
O115 In104 2.294 . S
O115 C108 1.240 . S
O116 In104 2.326 . S
O116 C108 1.252 . S
In117 O118 2.294 . S
In117 O119 2.326 . S
In117 O123 2.266 . S
In117 O124 2.326 . S
In117 O125 2.266 . S
In117 O126 2.326 . S
In117 O128 2.294 . S
In117 O129 2.326 . S
O118 In117 2.294 . S
O118 C127 1.240 . S
O119 In117 2.326 . S
O119 C127 1.252 . S
C120 O123 1.252 . S
C120 O124 1.260 . S
C121 O128 1.240 . S
C121 O129 1.252 . S
C122 O125 1.252 . S
C122 O126 1.260 . S
O123 In117 2.266 . S
O123 C120 1.252 . S
O124 In117 2.326 . S
O124 C120 1.260 . S
O125 In117 2.266 . S
O125 C122 1.252 . S
O126 In117 2.326 . S
O126 C122 1.260 . S
C127 O118 1.240 . S
C127 O119 1.252 . S
O128 In117 2.294 . S
O128 C121 1.240 . S
O129 In117 2.326 . S
O129 C121 1.252 . S
In130 O131 2.294 1_554 S
In130 O132 2.326 . S
In130 O136 2.266 1_554 S
In130 O137 2.326 1_554 S
In130 O138 2.266 . S
In130 O139 2.326 . S
In130 O141 2.294 . S
In130 O142 2.326 1_554 S
O131 In130 2.294 1_556 S
O131 C140 1.240 1_556 S
O132 In130 2.326 . S
O132 C140 1.252 . S
C133 O136 1.252 . S
C133 O137 1.260 . S
C134 O141 1.240 1_556 S
C134 O142 1.252 . S
C135 O138 1.252 . S
C135 O139 1.260 . S
O136 In130 2.266 1_556 S
O136 C133 1.252 . S
O137 In130 2.326 1_556 S
O137 C133 1.260 . S
O138 In130 2.266 . S
O138 C135 1.252 . S
O139 In130 2.326 . S
O139 C135 1.260 . S
C140 O131 1.240 1_554 S
C140 O132 1.252 . S
O141 In130 2.294 . S
O141 C134 1.240 1_554 S
O142 In130 2.326 1_556 S
O142 C134 1.252 . S
In143 O144 2.294 . S
In143 O145 2.326 . S
In143 O149 2.266 . S
In143 O150 2.326 . S
In143 O151 2.266 . S
In143 O152 2.326 . S
In143 O154 2.294 . S
In143 O155 2.326 . S
O144 In143 2.294 . S
O144 C153 1.240 . S
O145 In143 2.326 . S
O145 C153 1.252 . S
C146 O149 1.252 . S
C146 O150 1.260 . S
C147 O154 1.240 . S
C147 O155 1.252 . S
C148 O151 1.252 . S
C148 O152 1.260 . S
O149 In143 2.266 . S
O149 C146 1.252 . S
O150 In143 2.326 . S
O150 C146 1.260 . S
O151 In143 2.266 . S
O151 C148 1.252 . S
O152 In143 2.326 . S
O152 C148 1.260 . S
C153 O144 1.240 . S
C153 O145 1.252 . S
O154 In143 2.294 . S
O154 C147 1.240 . S
O155 In143 2.326 . S
O155 C147 1.252 . S
In156 O157 2.294 . S
In156 O158 2.326 . S
In156 O162 2.266 . S
In156 O163 2.326 . S
In156 O164 2.266 . S
In156 O165 2.326 . S
In156 O167 2.294 . S
In156 O168 2.326 . S
O157 In156 2.294 . S
O157 C166 1.240 . S
O158 In156 2.326 . S
O158 C166 1.252 . S
C159 O162 1.252 . S
C159 O163 1.260 . S
C160 O167 1.240 . S
C160 O168 1.252 . S
C161 O164 1.252 . S
C161 O165 1.260 . S
O162 In156 2.266 . S
O162 C159 1.252 . S
O163 In156 2.326 . S
O163 C159 1.260 . S
O164 In156 2.266 . S
O164 C161 1.252 . S
O165 In156 2.326 . S
O165 C161 1.260 . S
C166 O157 1.240 . S
C166 O158 1.252 . S
O167 In156 2.294 . S
O167 C160 1.240 . S
O168 In156 2.326 . S
O168 C160 1.252 . S
In169 O170 2.294 . S
In169 O171 2.326 . S
In169 O175 2.266 . S
In169 O176 2.326 . S
In169 O177 2.266 . S
In169 O178 2.326 . S
In169 O180 2.294 . S
In169 O181 2.326 . S
O170 In169 2.294 . S
O170 C179 1.240 . S
O171 In169 2.326 . S
O171 C179 1.252 . S
C172 O175 1.252 . S
C172 O176 1.260 . S
C173 O180 1.240 . S
C173 O181 1.252 . S
C174 O177 1.252 . S
C174 O178 1.260 . S
O175 In169 2.266 . S
O175 C172 1.252 . S
O176 In169 2.326 . S
O176 C172 1.260 . S
O177 In169 2.266 . S
O177 C174 1.252 . S
O178 In169 2.326 . S
O178 C174 1.260 . S
C179 O170 1.240 . S
C179 O171 1.252 . S
O180 In169 2.294 . S
O180 C173 1.240 . S
O181 In169 2.326 . S
O181 C173 1.252 . S
In182 O183 2.294 . S
In182 O184 2.326 1_554 S
In182 O188 2.266 . S
In182 O189 2.326 . S
In182 O190 2.266 1_554 S
In182 O191 2.326 1_554 S
In182 O193 2.294 1_554 S
In182 O194 2.326 . S
O183 In182 2.294 . S
O183 C192 1.240 1_554 S
O184 In182 2.326 1_556 S
O184 C192 1.252 . S
C185 O188 1.252 . S
C185 O189 1.260 . S
C186 O193 1.240 1_554 S
C186 O194 1.252 . S
C187 O190 1.252 . S
C187 O191 1.260 . S
O188 In182 2.266 . S
O188 C185 1.252 . S
O189 In182 2.326 . S
O189 C185 1.260 . S
O190 In182 2.266 1_556 S
O190 C187 1.252 . S
O191 In182 2.326 1_556 S
O191 C187 1.260 . S
C192 O183 1.240 1_556 S
C192 O184 1.252 . S
O193 In182 2.294 1_556 S
O193 C186 1.240 1_556 S
O194 In182 2.326 . S
O194 C186 1.252 . S
In195 O196 2.294 . S
In195 O197 2.326 . S
In195 O201 2.266 . S
In195 O202 2.326 . S
In195 O203 2.266 . S
In195 O204 2.326 . S
In195 O206 2.294 . S
In195 O207 2.326 . S
O196 In195 2.294 . S
O196 C205 1.240 . S
O197 In195 2.326 . S
O197 C205 1.252 . S
C198 O201 1.252 . S
C198 O202 1.260 . S
C199 O206 1.240 . S
C199 O207 1.252 . S
C200 O203 1.252 . S
C200 O204 1.260 . S
O201 In195 2.266 . S
O201 C198 1.252 . S
O202 In195 2.326 . S
O202 C198 1.260 . S
O203 In195 2.266 . S
O203 C200 1.252 . S
O204 In195 2.326 . S
O204 C200 1.260 . S
C205 O196 1.240 . S
C205 O197 1.252 . S
O206 In195 2.294 . S
O206 C199 1.240 . S
O207 In195 2.326 . S
O207 C199 1.252 . S
H208 C226 0.951 . S
H209 C228 0.951 . S
H210 C230 0.950 . S
H211 C231 0.950 . S
H212 C233 0.950 . S
H213 C236 0.950 . S
H214 C237 0.950 . S
H215 C239 0.950 . S
H216 C240 0.950 . S
H217 C241 0.951 . S
H218 C243 0.951 . S
H219 C245 0.950 . S
H220 C246 0.950 . S
H221 C248 0.950 . S
H222 C251 0.950 . S
H223 C252 0.950 . S
H224 C254 0.950 . S
H225 C255 0.950 . S
C226 H208 0.951 . S
C226 C227 1.366 . S
C226 C228 1.388 . S
C227 C226 1.366 . S
C227 C231 1.385 . S
C228 H209 0.951 . S
C228 C226 1.388 . S
C228 C229 1.366 . S
C229 C228 1.366 . S
C229 C230 1.414 . S
C229 C232 1.499 . S
C230 H210 0.950 . S
C230 C229 1.414 . S
C230 C231 1.374 . S
C231 H211 0.950 . S
C231 C227 1.385 . S
C231 C230 1.374 . S
C232 C229 1.499 . S
C232 C233 1.373 . S
C232 C234 1.389 . S
C233 H212 0.950 . S
C233 C232 1.373 . S
C233 C249 1.377 . S
C234 C232 1.389 . S
C234 C235 1.524 . S
C234 C248 1.377 . S
C235 C234 1.524 . S
C235 C236 1.397 . S
C235 C240 1.363 . S
C236 H213 0.950 . S
C236 C235 1.397 . S
C236 C237 1.334 . S
C237 H214 0.950 . S
C237 C236 1.334 . S
C237 C238 1.287 . S
C238 C237 1.287 . S
C238 C239 1.524 . S
C238 H257 0.913 . S
C239 H215 0.950 . S
C239 C238 1.524 . S
C239 C240 1.415 . S
C240 H216 0.950 . S
C240 C235 1.363 . S
C240 C239 1.415 . S
C241 H217 0.951 . S
C241 C242 1.366 . S
C241 C243 1.388 . S
C242 C241 1.366 . S
C242 C246 1.385 . S
C243 H218 0.951 . S
C243 C241 1.388 . S
C243 C244 1.366 . S
C244 C243 1.366 . S
C244 C245 1.414 . S
C244 C247 1.499 . S
C245 H219 0.950 . S
C245 C244 1.414 . S
C245 C246 1.374 . S
C246 H220 0.950 . S
C246 C242 1.385 . S
C246 C245 1.374 . S
C247 C244 1.499 . S
C247 C248 1.373 . S
C247 C249 1.389 . S
C248 H221 0.950 . S
C248 C234 1.377 . S
C248 C247 1.373 . S
C249 C233 1.377 . S
C249 C247 1.389 . S
C249 C250 1.524 . S
C250 C249 1.524 . S
C250 C251 1.397 . S
C250 C255 1.363 . S
C251 H222 0.950 . S
C251 C250 1.397 . S
C251 C252 1.334 . S
C252 H223 0.950 . S
C252 C251 1.334 . S
C252 C253 1.287 . S
C253 C252 1.287 . S
C253 C254 1.524 . S
C253 H256 0.999 . S
C254 H224 0.950 . S
C254 C253 1.524 . S
C254 C255 1.415 . S
C255 H225 0.950 . S
C255 C250 1.363 . S
C255 C254 1.415 . S
H256 C253 0.999 . S
H257 C238 0.913 . S
H258 C276 0.951 . S
H259 C278 0.951 . S
H260 C280 0.950 . S
H261 C281 0.950 . S
H262 C283 0.950 . S
H263 C286 0.950 1_655 S
H264 C287 0.950 . S
H265 C289 0.950 . S
H266 C290 0.950 . S
H267 C291 0.951 . S
H268 C293 0.951 . S
H269 C295 0.950 . S
H270 C296 0.950 . S
H271 C298 0.950 . S
H272 C301 0.950 1_455 S
H273 C302 0.950 . S
H274 C304 0.950 . S
H275 C305 0.950 . S
C276 H258 0.951 . S
C276 C277 1.384 . S
C276 C278 1.388 . S
C277 C276 1.384 . S
C277 C281 1.366 1_545 S
C278 H259 0.951 . S
C278 C276 1.388 . S
C278 C279 1.352 1_545 S
C279 C278 1.352 1_565 S
C279 C280 1.427 . S
C279 C282 1.498 . S
C280 H260 0.950 . S
C280 C279 1.427 . S
C280 C281 1.374 . S
C281 H261 0.950 . S
C281 C277 1.366 1_565 S
C281 C280 1.374 . S
C282 C279 1.498 . S
C282 C283 1.370 1_565 S
C282 C284 1.392 1_655 S
C283 H262 0.950 . S
C283 C282 1.370 1_545 S
C283 C299 1.377 . S
C284 C282 1.392 1_455 S
C284 C285 1.524 . S
C284 C298 1.376 . S
C285 C284 1.524 . S
C285 C286 1.397 . S
C285 C290 1.363 1_565 S
C286 H263 0.950 1_455 S
C286 C285 1.397 . S
C286 C287 1.334 . S
C287 H264 0.950 . S
C287 C286 1.334 . S
C287 C288 1.287 . S
C288 C287 1.287 . S
C288 C289 1.524 1_565 S
C288 H307 0.913 . S
C289 H265 0.950 . S
C289 C288 1.524 1_545 S
C289 C290 1.415 . S
C290 H266 0.950 . S
C290 C285 1.363 1_545 S
C290 C289 1.415 . S
C291 H267 0.951 . S
C291 C292 1.374 . S
C291 C293 1.388 . S
C292 C291 1.374 . S
C292 C296 1.376 1_565 S
C293 H268 0.951 . S
C293 C291 1.388 . S
C293 C294 1.342 1_565 S
C294 C293 1.342 1_545 S
C294 C295 1.437 . S
C294 C297 1.500 . S
C295 H269 0.950 . S
C295 C294 1.437 . S
C295 C296 1.374 . S
C296 H270 0.950 . S
C296 C292 1.376 1_545 S
C296 C295 1.374 . S
C297 C294 1.500 . S
C297 C298 1.374 1_545 S
C297 C299 1.389 1_455 S
C298 H271 0.950 . S
C298 C284 1.376 . S
C298 C297 1.374 1_565 S
C299 C283 1.377 . S
C299 C297 1.389 1_655 S
C299 C300 1.524 . S
C300 C299 1.524 . S
C300 C301 1.397 . S
C300 C305 1.363 1_545 S
C301 H272 0.950 1_655 S
C301 C300 1.397 . S
C301 C302 1.334 . S
C302 H273 0.950 . S
C302 C301 1.334 . S
C302 C303 1.287 . S
C303 C302 1.287 . S
C303 C304 1.524 1_545 S
C303 H306 0.999 . S
C304 H274 0.950 . S
C304 C303 1.524 1_565 S
C304 C305 1.415 . S
C305 H275 0.950 . S
C305 C300 1.363 1_565 S
C305 C304 1.415 . S
H306 C303 0.999 . S
H307 C288 0.913 . S
H308 C326 0.951 . S
H309 C328 0.951 . S
H310 C330 0.950 . S
H311 C331 0.950 . S
H312 C333 0.950 . S
H313 C336 0.950 . S
H314 C337 0.950 . S
H315 C339 0.950 . S
H316 C340 0.950 . S
H317 C341 0.951 . S
H318 C343 0.951 . S
H319 C345 0.950 . S
H320 C346 0.950 . S
H321 C348 0.950 . S
H322 C351 0.950 . S
H323 C352 0.950 . S
H324 C354 0.950 . S
H325 C355 0.950 . S
C326 H308 0.951 . S
C326 C327 1.366 . S
C326 C328 1.388 . S
C327 C326 1.366 . S
C327 C331 1.385 . S
C328 H309 0.951 . S
C328 C326 1.388 . S
C328 C329 1.366 . S
C329 C328 1.366 . S
C329 C330 1.414 . S
C329 C332 1.499 . S
C330 H310 0.950 . S
C330 C329 1.414 . S
C330 C331 1.374 . S
C331 H311 0.950 . S
C331 C327 1.385 . S
C331 C330 1.374 . S
C332 C329 1.499 . S
C332 C333 1.373 . S
C332 C334 1.389 . S
C333 H312 0.950 . S
C333 C332 1.373 . S
C333 C349 1.377 . S
C334 C332 1.389 . S
C334 C335 1.524 . S
C334 C348 1.377 . S
C335 C334 1.524 . S
C335 C336 1.397 . S
C335 C340 1.363 . S
C336 H313 0.950 . S
C336 C335 1.397 . S
C336 C337 1.334 . S
C337 H314 0.950 . S
C337 C336 1.334 . S
C337 C338 1.287 . S
C338 C337 1.287 . S
C338 C339 1.524 . S
C338 H357 0.913 . S
C339 H315 0.950 . S
C339 C338 1.524 . S
C339 C340 1.415 . S
C340 H316 0.950 . S
C340 C335 1.363 . S
C340 C339 1.415 . S
C341 H317 0.951 . S
C341 C342 1.366 . S
C341 C343 1.388 . S
C342 C341 1.366 . S
C342 C346 1.385 . S
C343 H318 0.951 . S
C343 C341 1.388 . S
C343 C344 1.366 . S
C344 C343 1.366 . S
C344 C345 1.414 . S
C344 C347 1.499 . S
C345 H319 0.950 . S
C345 C344 1.414 . S
C345 C346 1.374 . S
C346 H320 0.950 . S
C346 C342 1.385 . S
C346 C345 1.374 . S
C347 C344 1.499 . S
C347 C348 1.373 . S
C347 C349 1.389 . S
C348 H321 0.950 . S
C348 C334 1.377 . S
C348 C347 1.373 . S
C349 C333 1.377 . S
C349 C347 1.389 . S
C349 C350 1.524 . S
C350 C349 1.524 . S
C350 C351 1.397 . S
C350 C355 1.363 . S
C351 H322 0.950 . S
C351 C350 1.397 . S
C351 C352 1.334 . S
C352 H323 0.950 . S
C352 C351 1.334 . S
C352 C353 1.287 . S
C353 C352 1.287 . S
C353 C354 1.524 . S
C353 H356 0.999 . S
C354 H324 0.950 . S
C354 C353 1.524 . S
C354 C355 1.415 . S
C355 H325 0.950 . S
C355 C350 1.363 . S
C355 C354 1.415 . S
H356 C353 0.999 . S
H357 C338 0.913 . S
H358 C376 0.951 . S
H359 C378 0.951 . S
H360 C380 0.950 . S
H361 C381 0.950 . S
H362 C383 0.950 . S
H363 C386 0.950 . S
H364 C387 0.950 . S
H365 C389 0.950 . S
H366 C390 0.950 . S
H367 C391 0.951 . S
H368 C393 0.951 . S
H369 C395 0.950 . S
H370 C396 0.950 . S
H371 C398 0.950 . S
H372 C401 0.950 . S
H373 C402 0.950 . S
H374 C404 0.950 . S
H375 C405 0.950 . S
C376 H358 0.951 . S
C376 C377 1.359 1_565 S
C376 C378 1.388 . S
C377 C376 1.359 1_545 S
C377 C381 1.392 . S
C378 H359 0.951 . S
C378 C376 1.388 . S
C378 C379 1.366 1_565 S
C379 C378 1.366 1_545 S
C379 C380 1.414 . S
C379 C382 1.499 . S
C380 H360 0.950 . S
C380 C379 1.414 . S
C380 C381 1.374 . S
C381 H361 0.950 . S
C381 C377 1.392 . S
C381 C380 1.374 . S
C382 C379 1.499 . S
C382 C383 1.373 1_544 S
C382 C384 1.389 . S
C383 H362 0.950 . S
C383 C382 1.373 1_566 S
C383 C399 1.377 . S
C384 C382 1.389 . S
C384 C385 1.524 . S
C384 C398 1.377 . S
C385 C384 1.524 . S
C385 C386 1.397 . S
C385 C390 1.363 . S
C386 H363 0.950 . S
C386 C385 1.397 . S
C386 C387 1.334 . S
C387 H364 0.950 . S
C387 C386 1.334 . S
C387 C388 1.287 . S
C388 C387 1.287 . S
C388 C389 1.524 . S
C388 H407 0.913 . S
C389 H365 0.950 . S
C389 C388 1.524 . S
C389 C390 1.415 . S
C390 H366 0.950 . S
C390 C385 1.363 . S
C390 C389 1.415 . S
C391 H367 0.951 . S
C391 C392 1.363 1_545 S
C391 C393 1.388 . S
C392 C391 1.363 1_565 S
C392 C396 1.387 . S
C393 H368 0.951 . S
C393 C391 1.388 . S
C393 C394 1.348 1_545 S
C394 C393 1.348 1_565 S
C394 C395 1.431 . S
C394 C397 1.501 . S
C395 H369 0.950 . S
C395 C394 1.431 . S
C395 C396 1.374 . S
C396 H370 0.950 . S
C396 C392 1.387 . S
C396 C395 1.374 . S
C397 C394 1.501 . S
C397 C398 1.373 1_566 S
C397 C399 1.389 . S
C398 H371 0.950 . S
C398 C384 1.377 . S
C398 C397 1.373 1_544 S
C399 C383 1.377 . S
C399 C397 1.389 . S
C399 C400 1.524 . S
C400 C399 1.524 . S
C400 C401 1.397 . S
C400 C405 1.363 . S
C401 H372 0.950 . S
C401 C400 1.397 . S
C401 C402 1.334 . S
C402 H373 0.950 . S
C402 C401 1.334 . S
C402 C403 1.287 . S
C403 C402 1.287 . S
C403 C404 1.524 . S
C403 H406 0.999 . S
C404 H374 0.950 . S
C404 C403 1.524 . S
C404 C405 1.415 . S
C405 H375 0.950 . S
C405 C400 1.363 . S
C405 C404 1.415 . S
H406 C403 0.999 . S
H407 C388 0.913 . S
H408 C426 0.951 . S
H409 C428 0.951 . S
H410 C430 0.950 . S
H411 C431 0.950 . S
H412 C433 0.950 . S
H413 C436 0.950 . S
H414 C437 0.950 . S
H415 C439 0.950 . S
H416 C440 0.950 . S
H417 C441 0.951 . S
H418 C443 0.951 . S
H419 C445 0.950 . S
H420 C446 0.950 . S
H421 C448 0.950 . S
H422 C451 0.950 . S
H423 C452 0.950 . S
H424 C454 0.950 . S
H425 C455 0.950 . S
C426 H408 0.951 . S
C426 C427 1.366 . S
C426 C428 1.388 . S
C427 C426 1.366 . S
C427 C431 1.385 . S
C428 H409 0.951 . S
C428 C426 1.388 . S
C428 C429 1.366 . S
C429 C428 1.366 . S
C429 C430 1.414 . S
C429 C432 1.499 . S
C430 H410 0.950 . S
C430 C429 1.414 . S
C430 C431 1.374 . S
C431 H411 0.950 . S
C431 C427 1.385 . S
C431 C430 1.374 . S
C432 C429 1.499 . S
C432 C433 1.373 . S
C432 C434 1.389 . S
C433 H412 0.950 . S
C433 C432 1.373 . S
C433 C449 1.377 . S
C434 C432 1.389 . S
C434 C435 1.524 . S
C434 C448 1.377 . S
C435 C434 1.524 . S
C435 C436 1.397 . S
C435 C440 1.363 . S
C436 H413 0.950 . S
C436 C435 1.397 . S
C436 C437 1.334 . S
C437 H414 0.950 . S
C437 C436 1.334 . S
C437 C438 1.287 . S
C438 C437 1.287 . S
C438 C439 1.524 . S
C438 H457 0.913 . S
C439 H415 0.950 . S
C439 C438 1.524 . S
C439 C440 1.415 . S
C440 H416 0.950 . S
C440 C435 1.363 . S
C440 C439 1.415 . S
C441 H417 0.951 . S
C441 C442 1.366 . S
C441 C443 1.388 . S
C442 C441 1.366 . S
C442 C446 1.385 . S
C443 H418 0.951 . S
C443 C441 1.388 . S
C443 C444 1.366 . S
C444 C443 1.366 . S
C444 C445 1.414 . S
C444 C447 1.499 . S
C445 H419 0.950 . S
C445 C444 1.414 . S
C445 C446 1.374 . S
C446 H420 0.950 . S
C446 C442 1.385 . S
C446 C445 1.374 . S
C447 C444 1.499 . S
C447 C448 1.373 . S
C447 C449 1.389 . S
C448 H421 0.950 . S
C448 C434 1.377 . S
C448 C447 1.373 . S
C449 C433 1.377 . S
C449 C447 1.389 . S
C449 C450 1.524 . S
C450 C449 1.524 . S
C450 C451 1.397 . S
C450 C455 1.363 . S
C451 H422 0.950 . S
C451 C450 1.397 . S
C451 C452 1.334 . S
C452 H423 0.950 . S
C452 C451 1.334 . S
C452 C453 1.287 . S
C453 C452 1.287 . S
C453 C454 1.524 . S
C453 H456 0.999 . S
C454 H424 0.950 . S
C454 C453 1.524 . S
C454 C455 1.415 . S
C455 H425 0.950 . S
C455 C450 1.363 . S
C455 C454 1.415 . S
H456 C453 0.999 . S
H457 C438 0.913 . S
H458 C476 0.951 . S
H459 C478 0.951 . S
H460 C480 0.950 . S
H461 C481 0.950 . S
H462 C483 0.950 . S
H463 C486 0.899 1_545 S
H464 C487 0.950 1_545 S
H465 C489 0.950 . S
H466 C490 0.950 . S
H467 C491 0.951 . S
H468 C493 0.951 . S
H469 C495 0.950 . S
H470 C496 0.950 . S
H471 C498 0.950 . S
H472 C501 0.885 1_565 S
H473 C502 0.950 1_565 S
H474 C504 0.950 . S
H475 C505 0.950 . S
C476 H458 0.951 . S
C476 C477 1.375 . S
C476 C478 1.388 . S
C477 C476 1.375 . S
C477 C481 1.375 1_565 S
C478 H459 0.951 . S
C478 C476 1.388 . S
C478 C479 1.360 1_565 S
C479 C478 1.360 1_545 S
C479 C480 1.420 . S
C479 C482 1.498 . S
C480 H460 0.950 . S
C480 C479 1.420 . S
C480 C481 1.374 . S
C481 H461 0.950 . S
C481 C477 1.375 1_545 S
C481 C480 1.374 . S
C482 C479 1.498 . S
C482 C483 1.395 . S
C482 C484 1.368 1_545 S
C483 H462 0.950 . S
C483 C482 1.395 . S
C483 C499 1.377 . S
C484 C482 1.368 1_565 S
C484 C485 1.524 . S
C484 C498 1.377 . S
C485 C484 1.524 . S
C485 C486 1.434 . S
C485 C490 1.363 . S
C486 H463 0.899 1_565 S
C486 C485 1.434 . S
C486 C487 1.348 . S
C487 H464 0.950 1_565 S
C487 C486 1.348 . S
C487 C488 1.287 . S
C488 C487 1.287 . S
C488 C489 1.524 . S
C488 H507 0.913 . S
C489 H465 0.950 . S
C489 C488 1.524 . S
C489 C490 1.415 . S
C490 H466 0.950 . S
C490 C485 1.363 . S
C490 C489 1.415 . S
C491 H467 0.951 . S
C491 C492 1.389 . S
C491 C493 1.388 . S
C492 C491 1.389 . S
C492 C496 1.361 1_545 S
C493 H468 0.951 . S
C493 C491 1.388 . S
C493 C494 1.360 . S
C494 C493 1.360 . S
C494 C495 1.420 1_545 S
C494 C497 1.498 1_545 S
C495 H469 0.950 . S
C495 C494 1.420 1_565 S
C495 C496 1.374 . S
C496 H470 0.950 . S
C496 C492 1.361 1_565 S
C496 C495 1.374 . S
C497 C494 1.498 1_565 S
C497 C498 1.388 . S
C497 C499 1.374 1_565 S
C498 H471 0.950 . S
C498 C484 1.377 . S
C498 C497 1.388 . S
C499 C483 1.377 . S
C499 C497 1.374 1_545 S
C499 C500 1.524 . S
C500 C499 1.524 . S
C500 C501 1.445 . S
C500 C505 1.363 . S
C501 H472 0.885 1_545 S
C501 C500 1.445 . S
C501 C502 1.353 . S
C502 H473 0.950 1_545 S
C502 C501 1.353 . S
C502 C503 1.287 . S
C503 C502 1.287 . S
C503 C504 1.524 . S
C503 H506 0.999 . S
C504 H474 0.950 . S
C504 C503 1.524 . S
C504 C505 1.415 . S
C505 H475 0.950 . S
C505 C500 1.363 . S
C505 C504 1.415 . S
H506 C503 0.999 . S
H507 C488 0.913 . S
H508 C526 0.951 . S
H509 C528 0.951 . S
H510 C530 0.950 . S
H511 C531 0.950 . S
H512 C533 0.950 . S
H513 C536 0.950 . S
H514 C537 0.950 . S
H515 C539 0.950 . S
H516 C540 0.950 . S
H517 C541 0.951 . S
H518 C543 0.951 . S
H519 C545 0.950 . S
H520 C546 0.950 . S
H521 C548 0.950 . S
H522 C551 0.950 . S
H523 C552 0.950 . S
H524 C554 0.950 . S
H525 C555 0.950 . S
C526 H508 0.951 . S
C526 C527 1.366 . S
C526 C528 1.388 . S
C527 C526 1.366 . S
C527 C531 1.385 . S
C528 H509 0.951 . S
C528 C526 1.388 . S
C528 C529 1.366 . S
C529 C528 1.366 . S
C529 C530 1.414 . S
C529 C532 1.499 . S
C530 H510 0.950 . S
C530 C529 1.414 . S
C530 C531 1.374 . S
C531 H511 0.950 . S
C531 C527 1.385 . S
C531 C530 1.374 . S
C532 C529 1.499 . S
C532 C533 1.373 . S
C532 C534 1.389 . S
C533 H512 0.950 . S
C533 C532 1.373 . S
C533 C549 1.377 . S
C534 C532 1.389 . S
C534 C535 1.524 . S
C534 C548 1.377 . S
C535 C534 1.524 . S
C535 C536 1.397 . S
C535 C540 1.363 . S
C536 H513 0.950 . S
C536 C535 1.397 . S
C536 C537 1.334 . S
C537 H514 0.950 . S
C537 C536 1.334 . S
C537 C538 1.287 . S
C538 C537 1.287 . S
C538 C539 1.524 . S
C538 H557 0.913 . S
C539 H515 0.950 . S
C539 C538 1.524 . S
C539 C540 1.415 . S
C540 H516 0.950 . S
C540 C535 1.363 . S
C540 C539 1.415 . S
C541 H517 0.951 . S
C541 C542 1.366 . S
C541 C543 1.388 . S
C542 C541 1.366 . S
C542 C546 1.385 . S
C543 H518 0.951 . S
C543 C541 1.388 . S
C543 C544 1.366 . S
C544 C543 1.366 . S
C544 C545 1.414 . S
C544 C547 1.499 . S
C545 H519 0.950 . S
C545 C544 1.414 . S
C545 C546 1.374 . S
C546 H520 0.950 . S
C546 C542 1.385 . S
C546 C545 1.374 . S
C547 C544 1.499 . S
C547 C548 1.373 . S
C547 C549 1.389 . S
C548 H521 0.950 . S
C548 C534 1.377 . S
C548 C547 1.373 . S
C549 C533 1.377 . S
C549 C547 1.389 . S
C549 C550 1.524 . S
C550 C549 1.524 . S
C550 C551 1.397 . S
C550 C555 1.363 . S
C551 H522 0.950 . S
C551 C550 1.397 . S
C551 C552 1.334 . S
C552 H523 0.950 . S
C552 C551 1.334 . S
C552 C553 1.287 . S
C553 C552 1.287 . S
C553 C554 1.524 . S
C553 H556 0.999 . S
C554 H524 0.950 . S
C554 C553 1.524 . S
C554 C555 1.415 . S
C555 H525 0.950 . S
C555 C550 1.363 . S
C555 C554 1.415 . S
H556 C553 0.999 . S
H557 C538 0.913 . S
H558 C576 0.951 . S
H559 C578 0.951 . S
H560 C580 0.950 . S
H561 C581 0.950 . S
H562 C583 0.950 . S
H563 C586 0.950 . S
H564 C587 0.950 . S
H565 C589 0.950 . S
H566 C590 0.950 . S
H567 C591 0.951 . S
H568 C593 0.951 . S
H569 C595 0.950 1_565 S
H570 C596 0.950 . S
H571 C598 0.950 . S
H572 C601 0.950 . S
H573 C602 0.950 . S
H574 C604 0.950 . S
H575 C605 0.950 . S
C576 H558 0.951 . S
C576 C577 1.365 . S
C576 C578 1.387 1_545 S
C577 C576 1.365 . S
C577 C581 1.385 . S
C578 H559 0.951 . S
C578 C576 1.387 1_565 S
C578 C579 1.365 . S
C579 C578 1.365 . S
C579 C580 1.413 1_565 S
C579 C582 1.499 . S
C580 H560 0.950 . S
C580 C579 1.413 1_545 S
C580 C581 1.373 . S
C581 H561 0.950 . S
C581 C577 1.385 . S
C581 C580 1.373 . S
C582 C579 1.499 . S
C582 C583 1.350 1_565 S
C582 C584 1.424 1_556 S
C583 H562 0.950 . S
C583 C582 1.350 1_545 S
C583 C599 1.364 1_455 S
C584 C582 1.424 1_554 S
C584 C585 1.524 . S
C584 C598 1.364 1_455 S
C585 C584 1.524 . S
C585 C586 1.397 1_554 S
C585 C590 1.363 . S
C586 H563 0.950 . S
C586 C585 1.397 1_556 S
C586 C587 1.334 . S
C587 H564 0.950 . S
C587 C586 1.334 . S
C587 C588 1.287 1_556 S
C588 C587 1.287 1_554 S
C588 C589 1.524 . S
C588 H607 0.913 . S
C589 H565 0.950 . S
C589 C588 1.524 . S
C589 C590 1.415 . S
C590 H566 0.950 . S
C590 C585 1.363 . S
C590 C589 1.415 . S
C591 H567 0.951 . S
C591 C592 1.366 1_545 S
C591 C593 1.387 . S
C592 C591 1.366 1_565 S
C592 C596 1.385 . S
C593 H568 0.951 . S
C593 C591 1.387 . S
C593 C594 1.365 . S
C594 C593 1.365 . S
C594 C595 1.413 . S
C594 C597 1.499 . S
C595 H569 0.950 1_545 S
C595 C594 1.413 . S
C595 C596 1.374 1_545 S
C596 H570 0.950 . S
C596 C592 1.385 . S
C596 C595 1.374 1_565 S
C597 C594 1.499 . S
C597 C598 1.339 1_545 S
C597 C599 1.434 1_554 S
C598 H571 0.950 . S
C598 C584 1.364 1_655 S
C598 C597 1.339 1_565 S
C599 C583 1.364 1_655 S
C599 C597 1.434 1_556 S
C599 C600 1.524 . S
C600 C599 1.524 . S
C600 C601 1.397 1_556 S
C600 C605 1.363 . S
C601 H572 0.950 . S
C601 C600 1.397 1_554 S
C601 C602 1.334 . S
C602 H573 0.950 . S
C602 C601 1.334 . S
C602 C603 1.287 1_554 S
C603 C602 1.287 1_556 S
C603 C604 1.524 . S
C603 H606 0.999 . S
C604 H574 0.950 . S
C604 C603 1.524 . S
C604 C605 1.415 . S
C605 H575 0.950 . S
C605 C600 1.363 . S
C605 C604 1.415 . S
H606 C603 0.999 . S
H607 C588 0.913 . S
H608 C626 0.951 . S
H609 C628 0.951 . S
H610 C630 0.950 . S
H611 C631 0.950 . S
H612 C633 0.950 . S
H613 C636 0.950 . S
H614 C637 0.950 . S
H615 C639 0.950 . S
H616 C640 0.950 . S
H617 C641 0.951 . S
H618 C643 0.951 . S
H619 C645 0.950 . S
H620 C646 0.950 . S
H621 C648 0.950 . S
H622 C651 0.950 . S
H623 C652 0.950 . S
H624 C654 0.950 . S
H625 C655 0.950 . S
C626 H608 0.951 . S
C626 C627 1.366 . S
C626 C628 1.388 . S
C627 C626 1.366 . S
C627 C631 1.385 . S
C628 H609 0.951 . S
C628 C626 1.388 . S
C628 C629 1.366 . S
C629 C628 1.366 . S
C629 C630 1.414 . S
C629 C632 1.499 . S
C630 H610 0.950 . S
C630 C629 1.414 . S
C630 C631 1.374 . S
C631 H611 0.950 . S
C631 C627 1.385 . S
C631 C630 1.374 . S
C632 C629 1.499 . S
C632 C633 1.373 . S
C632 C634 1.389 . S
C633 H612 0.950 . S
C633 C632 1.373 . S
C633 C649 1.377 . S
C634 C632 1.389 . S
C634 C635 1.524 . S
C634 C648 1.377 . S
C635 C634 1.524 . S
C635 C636 1.397 . S
C635 C640 1.363 . S
C636 H613 0.950 . S
C636 C635 1.397 . S
C636 C637 1.334 . S
C637 H614 0.950 . S
C637 C636 1.334 . S
C637 C638 1.287 . S
C638 C637 1.287 . S
C638 C639 1.524 . S
C638 H657 0.913 . S
C639 H615 0.950 . S
C639 C638 1.524 . S
C639 C640 1.415 . S
C640 H616 0.950 . S
C640 C635 1.363 . S
C640 C639 1.415 . S
C641 H617 0.951 . S
C641 C642 1.366 . S
C641 C643 1.388 . S
C642 C641 1.366 . S
C642 C646 1.385 . S
C643 H618 0.951 . S
C643 C641 1.388 . S
C643 C644 1.366 . S
C644 C643 1.366 . S
C644 C645 1.414 . S
C644 C647 1.499 . S
C645 H619 0.950 . S
C645 C644 1.414 . S
C645 C646 1.374 . S
C646 H620 0.950 . S
C646 C642 1.385 . S
C646 C645 1.374 . S
C647 C644 1.499 . S
C647 C648 1.373 . S
C647 C649 1.389 . S
C648 H621 0.950 . S
C648 C634 1.377 . S
C648 C647 1.373 . S
C649 C633 1.377 . S
C649 C647 1.389 . S
C649 C650 1.524 . S
C650 C649 1.524 . S
C650 C651 1.397 . S
C650 C655 1.363 . S
C651 H622 0.950 . S
C651 C650 1.397 . S
C651 C652 1.334 . S
C652 H623 0.950 . S
C652 C651 1.334 . S
C652 C653 1.287 . S
C653 C652 1.287 . S
C653 C654 1.524 . S
C653 H656 0.999 . S
C654 H624 0.950 . S
C654 C653 1.524 . S
C654 C655 1.415 . S
C655 H625 0.950 . S
C655 C650 1.363 . S
C655 C654 1.415 . S
H656 C653 0.999 . S
H657 C638 0.913 . S
H658 C676 0.951 . S
H659 C678 0.951 . S
H660 C680 0.950 . S
H661 C681 0.950 . S
H662 C683 0.950 . S
H663 C686 0.950 . S
H664 C687 0.950 . S
H665 C689 0.950 . S
H666 C690 0.950 . S
H667 C691 0.951 . S
H668 C693 0.951 . S
H669 C695 0.950 . S
H670 C696 0.950 . S
H671 C698 0.950 . S
H672 C701 0.950 . S
H673 C702 0.950 . S
H674 C704 0.950 . S
H675 C705 0.950 . S
C676 H658 0.951 . S
C676 C677 1.366 . S
C676 C678 1.388 . S
C677 C676 1.366 . S
C677 C681 1.385 . S
C678 H659 0.951 . S
C678 C676 1.388 . S
C678 C679 1.366 . S
C679 C678 1.366 . S
C679 C680 1.414 . S
C679 C682 1.499 . S
C680 H660 0.950 . S
C680 C679 1.414 . S
C680 C681 1.374 . S
C681 H661 0.950 . S
C681 C677 1.385 . S
C681 C680 1.374 . S
C682 C679 1.499 . S
C682 C683 1.373 . S
C682 C684 1.389 . S
C683 H662 0.950 . S
C683 C682 1.373 . S
C683 C699 1.377 . S
C684 C682 1.389 . S
C684 C685 1.524 . S
C684 C698 1.377 . S
C685 C684 1.524 . S
C685 C686 1.397 . S
C685 C690 1.363 . S
C686 H663 0.950 . S
C686 C685 1.397 . S
C686 C687 1.334 . S
C687 H664 0.950 . S
C687 C686 1.334 . S
C687 C688 1.287 . S
C688 C687 1.287 . S
C688 C689 1.524 . S
C688 H707 0.913 . S
C689 H665 0.950 . S
C689 C688 1.524 . S
C689 C690 1.415 . S
C690 H666 0.950 . S
C690 C685 1.363 . S
C690 C689 1.415 . S
C691 H667 0.951 . S
C691 C692 1.366 . S
C691 C693 1.388 . S
C692 C691 1.366 . S
C692 C696 1.385 . S
C693 H668 0.951 . S
C693 C691 1.388 . S
C693 C694 1.366 . S
C694 C693 1.366 . S
C694 C695 1.414 . S
C694 C697 1.499 . S
C695 H669 0.950 . S
C695 C694 1.414 . S
C695 C696 1.374 . S
C696 H670 0.950 . S
C696 C692 1.385 . S
C696 C695 1.374 . S
C697 C694 1.499 . S
C697 C698 1.373 . S
C697 C699 1.389 . S
C698 H671 0.950 . S
C698 C684 1.377 . S
C698 C697 1.373 . S
C699 C683 1.377 . S
C699 C697 1.389 . S
C699 C700 1.524 . S
C700 C699 1.524 . S
C700 C701 1.397 . S
C700 C705 1.363 . S
C701 H672 0.950 . S
C701 C700 1.397 . S
C701 C702 1.334 . S
C702 H673 0.950 . S
C702 C701 1.334 . S
C702 C703 1.287 . S
C703 C702 1.287 . S
C703 C704 1.524 . S
C703 H706 0.999 . S
C704 H674 0.950 . S
C704 C703 1.524 . S
C704 C705 1.415 . S
C705 H675 0.950 . S
C705 C700 1.363 . S
C705 C704 1.415 . S
H706 C703 0.999 . S
H707 C688 0.913 . S
H708 C726 0.951 . S
H709 C728 0.951 . S
H710 C730 0.950 . S
H711 C731 0.950 . S
H712 C733 0.950 . S
H713 C736 0.950 . S
H714 C737 0.950 . S
H715 C739 0.950 . S
H716 C740 0.950 . S
H717 C741 0.951 . S
H718 C743 0.951 . S
H719 C745 0.950 . S
H720 C746 0.950 . S
H721 C748 0.950 . S
H722 C751 0.950 . S
H723 C752 0.950 . S
H724 C754 0.950 . S
H725 C755 0.950 . S
C726 H708 0.951 . S
C726 C727 1.366 . S
C726 C728 1.388 . S
C727 C726 1.366 . S
C727 C731 1.385 . S
C728 H709 0.951 . S
C728 C726 1.388 . S
C728 C729 1.366 . S
C729 C728 1.366 . S
C729 C730 1.414 . S
C729 C732 1.499 . S
C730 H710 0.950 . S
C730 C729 1.414 . S
C730 C731 1.374 . S
C731 H711 0.950 . S
C731 C727 1.385 . S
C731 C730 1.374 . S
C732 C729 1.499 . S
C732 C733 1.373 . S
C732 C734 1.389 . S
C733 H712 0.950 . S
C733 C732 1.373 . S
C733 C749 1.377 . S
C734 C732 1.389 . S
C734 C735 1.524 . S
C734 C748 1.377 . S
C735 C734 1.524 . S
C735 C736 1.397 . S
C735 C740 1.363 . S
C736 H713 0.950 . S
C736 C735 1.397 . S
C736 C737 1.334 . S
C737 H714 0.950 . S
C737 C736 1.334 . S
C737 C738 1.287 . S
C738 C737 1.287 . S
C738 C739 1.524 . S
C738 H757 0.913 . S
C739 H715 0.950 . S
C739 C738 1.524 . S
C739 C740 1.415 . S
C740 H716 0.950 . S
C740 C735 1.363 . S
C740 C739 1.415 . S
C741 H717 0.951 . S
C741 C742 1.366 . S
C741 C743 1.388 . S
C742 C741 1.366 . S
C742 C746 1.385 . S
C743 H718 0.951 . S
C743 C741 1.388 . S
C743 C744 1.366 . S
C744 C743 1.366 . S
C744 C745 1.414 . S
C744 C747 1.499 . S
C745 H719 0.950 . S
C745 C744 1.414 . S
C745 C746 1.374 . S
C746 H720 0.950 . S
C746 C742 1.385 . S
C746 C745 1.374 . S
C747 C744 1.499 . S
C747 C748 1.373 . S
C747 C749 1.389 . S
C748 H721 0.950 . S
C748 C734 1.377 . S
C748 C747 1.373 . S
C749 C733 1.377 . S
C749 C747 1.389 . S
C749 C750 1.524 . S
C750 C749 1.524 . S
C750 C751 1.397 . S
C750 C755 1.363 . S
C751 H722 0.950 . S
C751 C750 1.397 . S
C751 C752 1.334 . S
C752 H723 0.950 . S
C752 C751 1.334 . S
C752 C753 1.287 . S
C753 C752 1.287 . S
C753 C754 1.524 . S
C753 H756 0.999 . S
C754 H724 0.950 . S
C754 C753 1.524 . S
C754 C755 1.415 . S
C755 H725 0.950 . S
C755 C750 1.363 . S
C755 C754 1.415 . S
H756 C753 0.999 . S
H757 C738 0.913 . S
H758 C776 0.951 . S
H759 C778 0.951 . S
H760 C780 0.950 . S
H761 C781 0.950 . S
H762 C783 0.950 . S
H763 C786 0.950 . S
H764 C787 0.950 . S
H765 C789 0.950 . S
H766 C790 0.950 . S
H767 C791 0.951 . S
H768 C793 0.951 . S
H769 C795 0.950 . S
H770 C796 0.950 . S
H771 C798 0.950 . S
H772 C801 0.950 . S
H773 C802 0.950 . S
H774 C804 0.950 . S
H775 C805 0.950 . S
C776 H758 0.951 . S
C776 C777 1.366 . S
C776 C778 1.388 . S
C777 C776 1.366 . S
C777 C781 1.385 . S
C778 H759 0.951 . S
C778 C776 1.388 . S
C778 C779 1.366 . S
C779 C778 1.366 . S
C779 C780 1.414 . S
C779 C782 1.499 . S
C780 H760 0.950 . S
C780 C779 1.414 . S
C780 C781 1.374 . S
C781 H761 0.950 . S
C781 C777 1.385 . S
C781 C780 1.374 . S
C782 C779 1.499 . S
C782 C783 1.373 . S
C782 C784 1.389 . S
C783 H762 0.950 . S
C783 C782 1.373 . S
C783 C799 1.377 . S
C784 C782 1.389 . S
C784 C785 1.524 . S
C784 C798 1.377 . S
C785 C784 1.524 . S
C785 C786 1.397 . S
C785 C790 1.363 . S
C786 H763 0.950 . S
C786 C785 1.397 . S
C786 C787 1.334 . S
C787 H764 0.950 . S
C787 C786 1.334 . S
C787 C788 1.287 . S
C788 C787 1.287 . S
C788 C789 1.524 . S
C788 H807 0.913 . S
C789 H765 0.950 . S
C789 C788 1.524 . S
C789 C790 1.415 . S
C790 H766 0.950 . S
C790 C785 1.363 . S
C790 C789 1.415 . S
C791 H767 0.951 . S
C791 C792 1.366 . S
C791 C793 1.388 . S
C792 C791 1.366 . S
C792 C796 1.385 . S
C793 H768 0.951 . S
C793 C791 1.388 . S
C793 C794 1.366 . S
C794 C793 1.366 . S
C794 C795 1.414 . S
C794 C797 1.499 . S
C795 H769 0.950 . S
C795 C794 1.414 . S
C795 C796 1.374 . S
C796 H770 0.950 . S
C796 C792 1.385 . S
C796 C795 1.374 . S
C797 C794 1.499 . S
C797 C798 1.373 . S
C797 C799 1.389 . S
C798 H771 0.950 . S
C798 C784 1.377 . S
C798 C797 1.373 . S
C799 C783 1.377 . S
C799 C797 1.389 . S
C799 C800 1.524 . S
C800 C799 1.524 . S
C800 C801 1.397 . S
C800 C805 1.363 . S
C801 H772 0.950 . S
C801 C800 1.397 . S
C801 C802 1.334 . S
C802 H773 0.950 . S
C802 C801 1.334 . S
C802 C803 1.287 . S
C803 C802 1.287 . S
C803 C804 1.524 . S
C803 H806 0.999 . S
C804 H774 0.950 . S
C804 C803 1.524 . S
C804 C805 1.415 . S
C805 H775 0.950 . S
C805 C800 1.363 . S
C805 C804 1.415 . S
H806 C803 0.999 . S
H807 C788 0.913 . S
H808 C826 0.951 . S
H809 C828 0.951 . S
H810 C830 0.950 . S
H811 C831 0.950 . S
H812 C833 0.950 . S
H813 C836 0.950 . S
H814 C837 0.950 . S
H815 C839 0.950 . S
H816 C840 0.950 . S
H817 C841 0.951 . S
H818 C843 0.951 . S
H819 C845 0.950 . S
H820 C846 0.950 . S
H821 C848 0.950 . S
H822 C851 0.950 . S
H823 C852 0.950 . S
H824 C854 0.950 . S
H825 C855 0.950 . S
C826 H808 0.951 . S
C826 C827 1.366 . S
C826 C828 1.388 . S
C827 C826 1.366 . S
C827 C831 1.385 . S
C828 H809 0.951 . S
C828 C826 1.388 . S
C828 C829 1.366 . S
C829 C828 1.366 . S
C829 C830 1.414 . S
C829 C832 1.499 . S
C830 H810 0.950 . S
C830 C829 1.414 . S
C830 C831 1.374 . S
C831 H811 0.950 . S
C831 C827 1.385 . S
C831 C830 1.374 . S
C832 C829 1.499 . S
C832 C833 1.373 1_554 S
C832 C834 1.389 . S
C833 H812 0.950 . S
C833 C832 1.373 1_556 S
C833 C849 1.377 . S
C834 C832 1.389 . S
C834 C835 1.524 . S
C834 C848 1.377 . S
C835 C834 1.524 . S
C835 C836 1.397 . S
C835 C840 1.363 . S
C836 H813 0.950 . S
C836 C835 1.397 . S
C836 C837 1.334 . S
C837 H814 0.950 . S
C837 C836 1.334 . S
C837 C838 1.287 . S
C838 C837 1.287 . S
C838 C839 1.524 . S
C838 H857 0.913 . S
C839 H815 0.950 . S
C839 C838 1.524 . S
C839 C840 1.415 . S
C840 H816 0.950 . S
C840 C835 1.363 . S
C840 C839 1.415 . S
C841 H817 0.951 . S
C841 C842 1.366 . S
C841 C843 1.388 . S
C842 C841 1.366 . S
C842 C846 1.385 . S
C843 H818 0.951 . S
C843 C841 1.388 . S
C843 C844 1.366 . S
C844 C843 1.366 . S
C844 C845 1.414 . S
C844 C847 1.499 . S
C845 H819 0.950 . S
C845 C844 1.414 . S
C845 C846 1.374 . S
C846 H820 0.950 . S
C846 C842 1.385 . S
C846 C845 1.374 . S
C847 C844 1.499 . S
C847 C848 1.373 1_556 S
C847 C849 1.389 . S
C848 H821 0.950 . S
C848 C834 1.377 . S
C848 C847 1.373 1_554 S
C849 C833 1.377 . S
C849 C847 1.389 . S
C849 C850 1.524 . S
C850 C849 1.524 . S
C850 C851 1.397 . S
C850 C855 1.363 . S
C851 H822 0.950 . S
C851 C850 1.397 . S
C851 C852 1.334 . S
C852 H823 0.950 . S
C852 C851 1.334 . S
C852 C853 1.287 . S
C853 C852 1.287 . S
C853 C854 1.524 . S
C853 H856 0.999 . S
C854 H824 0.950 . S
C854 C853 1.524 . S
C854 C855 1.415 . S
C855 H825 0.950 . S
C855 C850 1.363 . S
C855 C854 1.415 . S
H856 C853 0.999 . S
H857 C838 0.913 . S
H858 C876 0.951 . S
H859 C878 0.951 . S
H860 C880 0.950 . S
H861 C881 0.950 . S
H862 C883 0.950 . S
H863 C886 0.950 . S
H864 C887 0.950 . S
H865 C889 0.950 . S
H866 C890 0.950 . S
H867 C891 0.951 . S
H868 C893 0.951 . S
H869 C895 0.950 . S
H870 C896 0.950 . S
H871 C898 0.950 . S
H872 C901 0.950 . S
H873 C902 0.950 . S
H874 C904 0.950 . S
H875 C905 0.950 . S
C876 H858 0.951 . S
C876 C877 1.366 . S
C876 C878 1.388 . S
C877 C876 1.366 . S
C877 C881 1.385 . S
C878 H859 0.951 . S
C878 C876 1.388 . S
C878 C879 1.366 . S
C879 C878 1.366 . S
C879 C880 1.414 . S
C879 C882 1.499 . S
C880 H860 0.950 . S
C880 C879 1.414 . S
C880 C881 1.374 . S
C881 H861 0.950 . S
C881 C877 1.385 . S
C881 C880 1.374 . S
C882 C879 1.499 . S
C882 C883 1.373 . S
C882 C884 1.389 1_455 S
C883 H862 0.950 . S
C883 C882 1.373 . S
C883 C899 1.377 . S
C884 C882 1.389 1_655 S
C884 C885 1.524 . S
C884 C898 1.377 . S
C885 C884 1.524 . S
C885 C886 1.397 1_655 S
C885 C890 1.363 . S
C886 H863 0.950 . S
C886 C885 1.397 1_455 S
C886 C887 1.334 . S
C887 H864 0.950 . S
C887 C886 1.334 . S
C887 C888 1.287 1_455 S
C888 C887 1.287 1_655 S
C888 C889 1.524 . S
C888 H907 0.913 . S
C889 H865 0.950 . S
C889 C888 1.524 . S
C889 C890 1.415 . S
C890 H866 0.950 . S
C890 C885 1.363 . S
C890 C889 1.415 . S
C891 H867 0.951 . S
C891 C892 1.366 . S
C891 C893 1.388 . S
C892 C891 1.366 . S
C892 C896 1.385 . S
C893 H868 0.951 . S
C893 C891 1.388 . S
C893 C894 1.366 . S
C894 C893 1.366 . S
C894 C895 1.414 . S
C894 C897 1.499 . S
C895 H869 0.950 . S
C895 C894 1.414 . S
C895 C896 1.374 . S
C896 H870 0.950 . S
C896 C892 1.385 . S
C896 C895 1.374 . S
C897 C894 1.499 . S
C897 C898 1.373 . S
C897 C899 1.389 1_655 S
C898 H871 0.950 . S
C898 C884 1.377 . S
C898 C897 1.373 . S
C899 C883 1.377 . S
C899 C897 1.389 1_455 S
C899 C900 1.524 . S
C900 C899 1.524 . S
C900 C901 1.397 1_455 S
C900 C905 1.363 . S
C901 H872 0.950 . S
C901 C900 1.397 1_655 S
C901 C902 1.334 . S
C902 H873 0.950 . S
C902 C901 1.334 . S
C902 C903 1.287 1_655 S
C903 C902 1.287 1_455 S
C903 C904 1.524 . S
C903 H906 0.999 . S
C904 H874 0.950 . S
C904 C903 1.524 . S
C904 C905 1.415 . S
C905 H875 0.950 . S
C905 C900 1.363 . S
C905 C904 1.415 . S
H906 C903 0.999 . S
H907 C888 0.913 . S
H908 C926 0.951 . S
H909 C928 0.951 . S
H910 C930 0.950 . S
H911 C931 0.950 . S
H912 C933 0.950 . S
H913 C936 0.950 . S
H914 C937 0.950 . S
H915 C939 0.950 . S
H916 C940 0.950 . S
H917 C941 0.951 . S
H918 C943 0.951 . S
H919 C945 0.950 . S
H920 C946 0.950 . S
H921 C948 0.950 . S
H922 C951 0.950 . S
H923 C952 0.950 . S
H924 C954 0.950 . S
H925 C955 0.950 . S
C926 H908 0.951 . S
C926 C927 1.366 . S
C926 C928 1.388 . S
C927 C926 1.366 . S
C927 C931 1.385 . S
C928 H909 0.951 . S
C928 C926 1.388 . S
C928 C929 1.366 . S
C929 C928 1.366 . S
C929 C930 1.414 . S
C929 C932 1.499 . S
C930 H910 0.950 . S
C930 C929 1.414 . S
C930 C931 1.374 . S
C931 H911 0.950 . S
C931 C927 1.385 . S
C931 C930 1.374 . S
C932 C929 1.499 . S
C932 C933 1.395 . S
C932 C934 1.389 1_554 S
C933 H912 0.950 . S
C933 C932 1.395 . S
C933 C949 1.355 1_455 S
C934 C932 1.389 1_556 S
C934 C935 1.524 . S
C934 C948 1.355 1_455 S
C935 C934 1.524 . S
C935 C936 1.397 1_556 S
C935 C940 1.363 . S
C936 H913 0.950 . S
C936 C935 1.397 1_554 S
C936 C937 1.334 . S
C937 H914 0.950 . S
C937 C936 1.334 . S
C937 C938 1.287 1_554 S
C938 C937 1.287 1_556 S
C938 C939 1.524 . S
C938 H957 0.913 . S
C939 H915 0.950 . S
C939 C938 1.524 . S
C939 C940 1.415 . S
C940 H916 0.950 . S
C940 C935 1.363 . S
C940 C939 1.415 . S
C941 H917 0.951 . S
C941 C942 1.366 . S
C941 C943 1.388 . S
C942 C941 1.366 . S
C942 C946 1.385 . S
C943 H918 0.951 . S
C943 C941 1.388 . S
C943 C944 1.366 . S
C944 C943 1.366 . S
C944 C945 1.414 . S
C944 C947 1.499 . S
C945 H919 0.950 . S
C945 C944 1.414 . S
C945 C946 1.374 . S
C946 H920 0.950 . S
C946 C942 1.385 . S
C946 C945 1.374 . S
C947 C944 1.499 . S
C947 C948 1.395 . S
C947 C949 1.389 1_556 S
C948 H921 0.950 . S
C948 C934 1.355 1_655 S
C948 C947 1.395 . S
C949 C933 1.355 1_655 S
C949 C947 1.389 1_554 S
C949 C950 1.524 . S
C950 C949 1.524 . S
C950 C951 1.397 1_554 S
C950 C955 1.363 . S
C951 H922 0.950 . S
C951 C950 1.397 1_556 S
C951 C952 1.334 . S
C952 H923 0.950 . S
C952 C951 1.334 . S
C952 C953 1.287 1_556 S
C953 C952 1.287 1_554 S
C953 C954 1.524 . S
C953 H956 0.999 . S
C954 H924 0.950 . S
C954 C953 1.524 . S
C954 C955 1.415 . S
C955 H925 0.950 . S
C955 C950 1.363 . S
C955 C954 1.415 . S
H956 C953 0.999 . S
H957 C938 0.913 . S
H958 C976 0.951 . S
H959 C978 0.951 . S
H960 C980 0.950 . S
H961 C981 0.950 . S
H962 C983 0.950 . S
H963 C986 0.950 . S
H964 C987 0.950 . S
H965 C989 0.950 . S
H966 C990 0.950 . S
H967 C991 0.951 . S
H968 C993 0.951 . S
H969 C995 0.950 . S
H970 C996 0.950 . S
H971 C998 0.950 . S
H972 C1001 0.950 . S
H973 C1002 0.950 . S
H974 C1004 0.950 . S
H975 C1005 0.950 . S
C976 H958 0.951 . S
C976 C977 1.366 . S
C976 C978 1.388 . S
C977 C976 1.366 . S
C977 C981 1.385 . S
C978 H959 0.951 . S
C978 C976 1.388 . S
C978 C979 1.366 . S
C979 C978 1.366 . S
C979 C980 1.414 . S
C979 C982 1.499 . S
C980 H960 0.950 . S
C980 C979 1.414 . S
C980 C981 1.374 . S
C981 H961 0.950 . S
C981 C977 1.385 . S
C981 C980 1.374 . S
C982 C979 1.499 . S
C982 C983 1.373 . S
C982 C984 1.389 . S
C983 H962 0.950 . S
C983 C982 1.373 . S
C983 C999 1.377 . S
C984 C982 1.389 . S
C984 C985 1.524 . S
C984 C998 1.377 . S
C985 C984 1.524 . S
C985 C986 1.397 . S
C985 C990 1.363 . S
C986 H963 0.950 . S
C986 C985 1.397 . S
C986 C987 1.334 . S
C987 H964 0.950 . S
C987 C986 1.334 . S
C987 C988 1.287 . S
C988 C987 1.287 . S
C988 C989 1.524 . S
C988 H1007 0.913 . S
C989 H965 0.950 . S
C989 C988 1.524 . S
C989 C990 1.415 . S
C990 H966 0.950 . S
C990 C985 1.363 . S
C990 C989 1.415 . S
C991 H967 0.951 . S
C991 C992 1.366 . S
C991 C993 1.388 . S
C992 C991 1.366 . S
C992 C996 1.385 . S
C993 H968 0.951 . S
C993 C991 1.388 . S
C993 C994 1.366 . S
C994 C993 1.366 . S
C994 C995 1.414 . S
C994 C997 1.499 . S
C995 H969 0.950 . S
C995 C994 1.414 . S
C995 C996 1.374 . S
C996 H970 0.950 . S
C996 C992 1.385 . S
C996 C995 1.374 . S
C997 C994 1.499 . S
C997 C998 1.373 . S
C997 C999 1.389 . S
C998 H971 0.950 . S
C998 C984 1.377 . S
C998 C997 1.373 . S
C999 C983 1.377 . S
C999 C997 1.389 . S
C999 C1000 1.524 . S
C1000 C999 1.524 . S
C1000 C1001 1.397 . S
C1000 C1005 1.363 . S
C1001 H972 0.950 . S
C1001 C1000 1.397 . S
C1001 C1002 1.334 . S
C1002 H973 0.950 . S
C1002 C1001 1.334 . S
C1002 C1003 1.287 . S
C1003 C1002 1.287 . S
C1003 C1004 1.524 . S
C1003 H1006 0.999 . S
C1004 H974 0.950 . S
C1004 C1003 1.524 . S
C1004 C1005 1.415 . S
C1005 H975 0.950 . S
C1005 C1000 1.363 . S
C1005 C1004 1.415 . S
H1006 C1003 0.999 . S
H1007 C988 0.913 . S
H1008 C1026 0.951 . S
H1009 C1028 0.951 . S
H1010 C1030 0.950 . S
H1011 C1031 0.950 . S
H1012 C1033 0.950 . S
H1013 C1036 0.950 . S
H1014 C1037 0.950 . S
H1015 C1039 0.950 . S
H1016 C1040 0.950 . S
H1017 C1041 0.951 . S
H1018 C1043 0.951 . S
H1019 C1045 0.950 . S
H1020 C1046 0.950 1_556 S
H1021 C1048 0.950 . S
H1022 C1051 0.950 . S
H1023 C1052 0.950 . S
H1024 C1054 0.950 . S
H1025 C1055 0.950 . S
C1026 H1008 0.951 . S
C1026 C1027 1.366 . S
C1026 C1028 1.388 . S
C1027 C1026 1.366 . S
C1027 C1031 1.385 . S
C1028 H1009 0.951 . S
C1028 C1026 1.388 . S
C1028 C1029 1.366 . S
C1029 C1028 1.366 . S
C1029 C1030 1.414 . S
C1029 C1032 1.499 . S
C1030 H1010 0.950 . S
C1030 C1029 1.414 . S
C1030 C1031 1.374 . S
C1031 H1011 0.950 . S
C1031 C1027 1.385 . S
C1031 C1030 1.374 . S
C1032 C1029 1.499 . S
C1032 C1033 1.373 . S
C1032 C1034 1.389 . S
C1033 H1012 0.950 . S
C1033 C1032 1.373 . S
C1033 C1049 1.377 . S
C1034 C1032 1.389 . S
C1034 C1035 1.524 . S
C1034 C1048 1.377 . S
C1035 C1034 1.524 . S
C1035 C1036 1.397 . S
C1035 C1040 1.363 . S
C1036 H1013 0.950 . S
C1036 C1035 1.397 . S
C1036 C1037 1.334 . S
C1037 H1014 0.950 . S
C1037 C1036 1.334 . S
C1037 C1038 1.287 . S
C1038 C1037 1.287 . S
C1038 C1039 1.524 . S
C1038 H1057 0.913 . S
C1039 H1015 0.950 . S
C1039 C1038 1.524 . S
C1039 C1040 1.415 . S
C1040 H1016 0.950 . S
C1040 C1035 1.363 . S
C1040 C1039 1.415 . S
C1041 H1017 0.951 . S
C1041 C1042 1.366 . S
C1041 C1043 1.388 . S
C1042 C1041 1.366 . S
C1042 C1046 1.385 . S
C1043 H1018 0.951 . S
C1043 C1041 1.388 . S
C1043 C1044 1.366 . S
C1044 C1043 1.366 . S
C1044 C1045 1.414 . S
C1044 C1047 1.499 . S
C1045 H1019 0.950 . S
C1045 C1044 1.414 . S
C1045 C1046 1.374 . S
C1046 H1020 0.950 1_554 S
C1046 C1042 1.385 . S
C1046 C1045 1.374 . S
C1047 C1044 1.499 . S
C1047 C1048 1.373 . S
C1047 C1049 1.389 . S
C1048 H1021 0.950 . S
C1048 C1034 1.377 . S
C1048 C1047 1.373 . S
C1049 C1033 1.377 . S
C1049 C1047 1.389 . S
C1049 C1050 1.524 . S
C1050 C1049 1.524 . S
C1050 C1051 1.397 . S
C1050 C1055 1.363 . S
C1051 H1022 0.950 . S
C1051 C1050 1.397 . S
C1051 C1052 1.334 . S
C1052 H1023 0.950 . S
C1052 C1051 1.334 . S
C1052 C1053 1.287 . S
C1053 C1052 1.287 . S
C1053 C1054 1.524 . S
C1053 H1056 0.999 . S
C1054 H1024 0.950 . S
C1054 C1053 1.524 . S
C1054 C1055 1.415 . S
C1055 H1025 0.950 . S
C1055 C1050 1.363 . S
C1055 C1054 1.415 . S
H1056 C1053 0.999 . S
H1057 C1038 0.913 . S
H1058 C1076 0.951 . S
H1059 C1078 0.951 . S
H1060 C1080 0.950 . S
H1061 C1081 0.950 . S
H1062 C1083 0.950 . S
H1063 C1086 0.950 . S
H1064 C1087 0.950 . S
H1065 C1089 0.950 . S
H1066 C1090 0.950 . S
H1067 C1091 0.951 . S
H1068 C1093 0.951 . S
H1069 C1095 0.950 . S
H1070 C1096 0.950 . S
H1071 C1098 0.950 . S
H1072 C1101 0.950 . S
H1073 C1102 0.950 . S
H1074 C1104 0.950 . S
H1075 C1105 0.950 . S
C1076 H1058 0.951 . S
C1076 C1077 1.366 . S
C1076 C1078 1.388 . S
C1077 C1076 1.366 . S
C1077 C1081 1.385 . S
C1078 H1059 0.951 . S
C1078 C1076 1.388 . S
C1078 C1079 1.366 . S
C1079 C1078 1.366 . S
C1079 C1080 1.414 . S
C1079 C1082 1.499 . S
C1080 H1060 0.950 . S
C1080 C1079 1.414 . S
C1080 C1081 1.374 . S
C1081 H1061 0.950 . S
C1081 C1077 1.385 . S
C1081 C1080 1.374 . S
C1082 C1079 1.499 . S
C1082 C1083 1.373 . S
C1082 C1084 1.389 . S
C1083 H1062 0.950 . S
C1083 C1082 1.373 . S
C1083 C1099 1.377 . S
C1084 C1082 1.389 . S
C1084 C1085 1.524 . S
C1084 C1098 1.377 . S
C1085 C1084 1.524 . S
C1085 C1086 1.397 . S
C1085 C1090 1.363 . S
C1086 H1063 0.950 . S
C1086 C1085 1.397 . S
C1086 C1087 1.334 . S
C1087 H1064 0.950 . S
C1087 C1086 1.334 . S
C1087 C1088 1.287 . S
C1088 C1087 1.287 . S
C1088 C1089 1.524 . S
C1088 H1107 0.913 . S
C1089 H1065 0.950 . S
C1089 C1088 1.524 . S
C1089 C1090 1.415 . S
C1090 H1066 0.950 . S
C1090 C1085 1.363 . S
C1090 C1089 1.415 . S
C1091 H1067 0.951 . S
C1091 C1092 1.366 . S
C1091 C1093 1.388 . S
C1092 C1091 1.366 . S
C1092 C1096 1.385 . S
C1093 H1068 0.951 . S
C1093 C1091 1.388 . S
C1093 C1094 1.366 . S
C1094 C1093 1.366 . S
C1094 C1095 1.414 . S
C1094 C1097 1.499 . S
C1095 H1069 0.950 . S
C1095 C1094 1.414 . S
C1095 C1096 1.374 . S
C1096 H1070 0.950 . S
C1096 C1092 1.385 . S
C1096 C1095 1.374 . S
C1097 C1094 1.499 . S
C1097 C1098 1.373 . S
C1097 C1099 1.389 . S
C1098 H1071 0.950 . S
C1098 C1084 1.377 . S
C1098 C1097 1.373 . S
C1099 C1083 1.377 . S
C1099 C1097 1.389 . S
C1099 C1100 1.524 . S
C1100 C1099 1.524 . S
C1100 C1101 1.397 . S
C1100 C1105 1.363 . S
C1101 H1072 0.950 . S
C1101 C1100 1.397 . S
C1101 C1102 1.334 . S
C1102 H1073 0.950 . S
C1102 C1101 1.334 . S
C1102 C1103 1.287 . S
C1103 C1102 1.287 . S
C1103 C1104 1.524 . S
C1103 H1106 0.999 . S
C1104 H1074 0.950 . S
C1104 C1103 1.524 . S
C1104 C1105 1.415 . S
C1105 H1075 0.950 . S
C1105 C1100 1.363 . S
C1105 C1104 1.415 . S
H1106 C1103 0.999 . S
H1107 C1088 0.913 . S
H1108 C1126 0.951 . S
H1109 C1128 0.951 . S
H1110 C1130 0.950 . S
H1111 C1131 0.950 . S
H1112 C1133 0.950 . S
H1113 C1136 0.950 . S
H1114 C1137 0.950 . S
H1115 C1139 0.950 . S
H1116 C1140 0.950 . S
H1117 C1141 0.951 . S
H1118 C1143 0.951 . S
H1119 C1145 0.950 . S
H1120 C1146 0.950 . S
H1121 C1148 0.950 . S
H1122 C1151 0.950 . S
H1123 C1152 0.950 . S
H1124 C1154 0.950 . S
H1125 C1155 0.950 . S
C1126 H1108 0.951 . S
C1126 C1127 1.366 . S
C1126 C1128 1.388 . S
C1127 C1126 1.366 . S
C1127 C1131 1.385 . S
C1128 H1109 0.951 . S
C1128 C1126 1.388 . S
C1128 C1129 1.366 . S
C1129 C1128 1.366 . S
C1129 C1130 1.414 . S
C1129 C1132 1.499 . S
C1130 H1110 0.950 . S
C1130 C1129 1.414 . S
C1130 C1131 1.374 . S
C1131 H1111 0.950 . S
C1131 C1127 1.385 . S
C1131 C1130 1.374 . S
C1132 C1129 1.499 . S
C1132 C1133 1.373 . S
C1132 C1134 1.389 . S
C1133 H1112 0.950 . S
C1133 C1132 1.373 . S
C1133 C1149 1.377 . S
C1134 C1132 1.389 . S
C1134 C1135 1.524 . S
C1134 C1148 1.377 . S
C1135 C1134 1.524 . S
C1135 C1136 1.397 . S
C1135 C1140 1.363 . S
C1136 H1113 0.950 . S
C1136 C1135 1.397 . S
C1136 C1137 1.334 . S
C1137 H1114 0.950 . S
C1137 C1136 1.334 . S
C1137 C1138 1.287 . S
C1138 C1137 1.287 . S
C1138 C1139 1.524 . S
C1138 H1157 0.913 . S
C1139 H1115 0.950 . S
C1139 C1138 1.524 . S
C1139 C1140 1.415 . S
C1140 H1116 0.950 . S
C1140 C1135 1.363 . S
C1140 C1139 1.415 . S
C1141 H1117 0.951 . S
C1141 C1142 1.366 . S
C1141 C1143 1.388 . S
C1142 C1141 1.366 . S
C1142 C1146 1.385 . S
C1143 H1118 0.951 . S
C1143 C1141 1.388 . S
C1143 C1144 1.366 . S
C1144 C1143 1.366 . S
C1144 C1145 1.414 . S
C1144 C1147 1.499 . S
C1145 H1119 0.950 . S
C1145 C1144 1.414 . S
C1145 C1146 1.374 . S
C1146 H1120 0.950 . S
C1146 C1142 1.385 . S
C1146 C1145 1.374 . S
C1147 C1144 1.499 . S
C1147 C1148 1.373 . S
C1147 C1149 1.389 . S
C1148 H1121 0.950 . S
C1148 C1134 1.377 . S
C1148 C1147 1.373 . S
C1149 C1133 1.377 . S
C1149 C1147 1.389 . S
C1149 C1150 1.524 . S
C1150 C1149 1.524 . S
C1150 C1151 1.397 . S
C1150 C1155 1.363 . S
C1151 H1122 0.950 . S
C1151 C1150 1.397 . S
C1151 C1152 1.334 . S
C1152 H1123 0.950 . S
C1152 C1151 1.334 . S
C1152 C1153 1.287 . S
C1153 C1152 1.287 . S
C1153 C1154 1.524 . S
C1153 H1156 0.999 . S
C1154 H1124 0.950 . S
C1154 C1153 1.524 . S
C1154 C1155 1.415 . S
C1155 H1125 0.950 . S
C1155 C1150 1.363 . S
C1155 C1154 1.415 . S
H1156 C1153 0.999 . S
H1157 C1138 0.913 . S
H1158 C1176 0.951 . S
H1159 C1178 0.951 . S
H1160 C1180 0.950 . S
H1161 C1181 0.950 1_554 S
H1162 C1183 0.950 . S
H1163 C1186 0.950 . S
H1164 C1187 0.950 . S
H1165 C1189 0.950 . S
H1166 C1190 0.950 . S
H1167 C1191 0.951 . S
H1168 C1193 0.951 . S
H1169 C1195 0.950 . S
H1170 C1196 0.950 . S
H1171 C1198 0.950 . S
H1172 C1201 0.950 . S
H1173 C1202 0.950 . S
H1174 C1204 0.950 . S
H1175 C1205 0.950 1_554 S
C1176 H1158 0.951 . S
C1176 C1177 1.366 . S
C1176 C1178 1.388 . S
C1177 C1176 1.366 . S
C1177 C1181 1.385 . S
C1178 H1159 0.951 . S
C1178 C1176 1.388 . S
C1178 C1179 1.366 . S
C1179 C1178 1.366 . S
C1179 C1180 1.414 . S
C1179 C1182 1.499 . S
C1180 H1160 0.950 . S
C1180 C1179 1.414 . S
C1180 C1181 1.374 . S
C1181 H1161 0.950 1_556 S
C1181 C1177 1.385 . S
C1181 C1180 1.374 . S
C1182 C1179 1.499 . S
C1182 C1183 1.373 . S
C1182 C1184 1.389 . S
C1183 H1162 0.950 . S
C1183 C1182 1.373 . S
C1183 C1199 1.377 . S
C1184 C1182 1.389 . S
C1184 C1185 1.524 . S
C1184 C1198 1.377 . S
C1185 C1184 1.524 . S
C1185 C1186 1.397 . S
C1185 C1190 1.363 . S
C1186 H1163 0.950 . S
C1186 C1185 1.397 . S
C1186 C1187 1.334 . S
C1187 H1164 0.950 . S
C1187 C1186 1.334 . S
C1187 C1188 1.287 . S
C1188 C1187 1.287 . S
C1188 C1189 1.524 . S
C1188 H1207 0.913 . S
C1189 H1165 0.950 . S
C1189 C1188 1.524 . S
C1189 C1190 1.415 . S
C1190 H1166 0.950 . S
C1190 C1185 1.363 . S
C1190 C1189 1.415 . S
C1191 H1167 0.951 . S
C1191 C1192 1.366 . S
C1191 C1193 1.388 . S
C1192 C1191 1.366 . S
C1192 C1196 1.385 . S
C1193 H1168 0.951 . S
C1193 C1191 1.388 . S
C1193 C1194 1.366 . S
C1194 C1193 1.366 . S
C1194 C1195 1.414 . S
C1194 C1197 1.499 . S
C1195 H1169 0.950 . S
C1195 C1194 1.414 . S
C1195 C1196 1.374 . S
C1196 H1170 0.950 . S
C1196 C1192 1.385 . S
C1196 C1195 1.374 . S
C1197 C1194 1.499 . S
C1197 C1198 1.373 . S
C1197 C1199 1.389 . S
C1198 H1171 0.950 . S
C1198 C1184 1.377 . S
C1198 C1197 1.373 . S
C1199 C1183 1.377 . S
C1199 C1197 1.389 . S
C1199 C1200 1.524 . S
C1200 C1199 1.524 . S
C1200 C1201 1.397 . S
C1200 C1205 1.363 . S
C1201 H1172 0.950 . S
C1201 C1200 1.397 . S
C1201 C1202 1.334 . S
C1202 H1173 0.950 . S
C1202 C1201 1.334 . S
C1202 C1203 1.287 . S
C1203 C1202 1.287 . S
C1203 C1204 1.524 1_556 S
C1203 H1206 0.999 1_556 S
C1204 H1174 0.950 . S
C1204 C1203 1.524 1_554 S
C1204 C1205 1.415 1_554 S
C1205 H1175 0.950 1_556 S
C1205 C1200 1.363 . S
C1205 C1204 1.415 1_556 S
H1206 C1203 0.999 1_554 S
H1207 C1188 0.913 . S
H1208 C1226 0.951 . S
H1209 C1228 0.951 . S
H1210 C1230 0.950 . S
H1211 C1231 0.950 . S
H1212 C1233 0.950 . S
H1213 C1236 0.950 . S
H1214 C1237 0.950 . S
H1215 C1239 0.950 . S
H1216 C1240 0.950 . S
H1217 C1241 0.951 . S
H1218 C1243 0.951 . S
H1219 C1245 0.950 . S
H1220 C1246 0.950 . S
H1221 C1248 0.950 . S
H1222 C1251 0.950 . S
H1223 C1252 0.950 . S
H1224 C1254 0.950 . S
H1225 C1255 0.950 . S
C1226 H1208 0.951 . S
C1226 C1227 1.366 . S
C1226 C1228 1.388 . S
C1227 C1226 1.366 . S
C1227 C1231 1.385 . S
C1228 H1209 0.951 . S
C1228 C1226 1.388 . S
C1228 C1229 1.366 . S
C1229 C1228 1.366 . S
C1229 C1230 1.414 . S
C1229 C1232 1.499 . S
C1230 H1210 0.950 . S
C1230 C1229 1.414 . S
C1230 C1231 1.374 . S
C1231 H1211 0.950 . S
C1231 C1227 1.385 . S
C1231 C1230 1.374 . S
C1232 C1229 1.499 . S
C1232 C1233 1.373 . S
C1232 C1234 1.389 . S
C1233 H1212 0.950 . S
C1233 C1232 1.373 . S
C1233 C1249 1.377 . S
C1234 C1232 1.389 . S
C1234 C1235 1.524 . S
C1234 C1248 1.377 . S
C1235 C1234 1.524 . S
C1235 C1236 1.397 . S
C1235 C1240 1.363 . S
C1236 H1213 0.950 . S
C1236 C1235 1.397 . S
C1236 C1237 1.334 . S
C1237 H1214 0.950 . S
C1237 C1236 1.334 . S
C1237 C1238 1.287 . S
C1238 C1237 1.287 . S
C1238 C1239 1.524 . S
C1238 H1257 0.913 . S
C1239 H1215 0.950 . S
C1239 C1238 1.524 . S
C1239 C1240 1.415 . S
C1240 H1216 0.950 . S
C1240 C1235 1.363 . S
C1240 C1239 1.415 . S
C1241 H1217 0.951 . S
C1241 C1242 1.366 . S
C1241 C1243 1.388 . S
C1242 C1241 1.366 . S
C1242 C1246 1.385 . S
C1243 H1218 0.951 . S
C1243 C1241 1.388 . S
C1243 C1244 1.366 . S
C1244 C1243 1.366 . S
C1244 C1245 1.414 . S
C1244 C1247 1.499 . S
C1245 H1219 0.950 . S
C1245 C1244 1.414 . S
C1245 C1246 1.374 . S
C1246 H1220 0.950 . S
C1246 C1242 1.385 . S
C1246 C1245 1.374 . S
C1247 C1244 1.499 . S
C1247 C1248 1.373 . S
C1247 C1249 1.389 . S
C1248 H1221 0.950 . S
C1248 C1234 1.377 . S
C1248 C1247 1.373 . S
C1249 C1233 1.377 . S
C1249 C1247 1.389 . S
C1249 C1250 1.524 . S
C1250 C1249 1.524 . S
C1250 C1251 1.397 . S
C1250 C1255 1.363 . S
C1251 H1222 0.950 . S
C1251 C1250 1.397 . S
C1251 C1252 1.334 . S
C1252 H1223 0.950 . S
C1252 C1251 1.334 . S
C1252 C1253 1.287 . S
C1253 C1252 1.287 . S
C1253 C1254 1.524 . S
C1253 H1256 0.999 . S
C1254 H1224 0.950 . S
C1254 C1253 1.524 . S
C1254 C1255 1.415 . S
C1255 H1225 0.950 . S
C1255 C1250 1.363 . S
C1255 C1254 1.415 . S
H1256 C1253 0.999 . S
H1257 C1238 0.913 . S
H1258 C1276 0.951 . S
H1259 C1278 0.951 . S
H1260 C1280 0.950 . S
H1261 C1281 0.950 . S
H1262 C1283 0.950 . S
H1263 C1286 0.950 . S
H1264 C1287 0.950 . S
H1265 C1289 0.950 . S
H1266 C1290 0.950 . S
H1267 C1291 0.951 . S
H1268 C1293 0.951 . S
H1269 C1295 0.950 . S
H1270 C1296 0.950 . S
H1271 C1298 0.950 . S
H1272 C1301 0.950 . S
H1273 C1302 0.950 . S
H1274 C1304 0.950 . S
H1275 C1305 0.950 . S
C1276 H1258 0.951 . S
C1276 C1277 1.366 . S
C1276 C1278 1.388 . S
C1277 C1276 1.366 . S
C1277 C1281 1.385 . S
C1278 H1259 0.951 . S
C1278 C1276 1.388 . S
C1278 C1279 1.366 . S
C1279 C1278 1.366 . S
C1279 C1280 1.414 . S
C1279 C1282 1.499 . S
C1280 H1260 0.950 . S
C1280 C1279 1.414 . S
C1280 C1281 1.374 . S
C1281 H1261 0.950 . S
C1281 C1277 1.385 . S
C1281 C1280 1.374 . S
C1282 C1279 1.499 . S
C1282 C1283 1.373 . S
C1282 C1284 1.389 . S
C1283 H1262 0.950 . S
C1283 C1282 1.373 . S
C1283 C1299 1.377 . S
C1284 C1282 1.389 . S
C1284 C1285 1.524 . S
C1284 C1298 1.377 . S
C1285 C1284 1.524 . S
C1285 C1286 1.397 . S
C1285 C1290 1.363 . S
C1286 H1263 0.950 . S
C1286 C1285 1.397 . S
C1286 C1287 1.334 . S
C1287 H1264 0.950 . S
C1287 C1286 1.334 . S
C1287 C1288 1.287 . S
C1288 C1287 1.287 . S
C1288 C1289 1.524 . S
C1288 H1307 0.913 . S
C1289 H1265 0.950 . S
C1289 C1288 1.524 . S
C1289 C1290 1.415 . S
C1290 H1266 0.950 . S
C1290 C1285 1.363 . S
C1290 C1289 1.415 . S
C1291 H1267 0.951 . S
C1291 C1292 1.366 . S
C1291 C1293 1.388 . S
C1292 C1291 1.366 . S
C1292 C1296 1.385 . S
C1293 H1268 0.951 . S
C1293 C1291 1.388 . S
C1293 C1294 1.366 . S
C1294 C1293 1.366 . S
C1294 C1295 1.414 . S
C1294 C1297 1.499 . S
C1295 H1269 0.950 . S
C1295 C1294 1.414 . S
C1295 C1296 1.374 . S
C1296 H1270 0.950 . S
C1296 C1292 1.385 . S
C1296 C1295 1.374 . S
C1297 C1294 1.499 . S
C1297 C1298 1.373 . S
C1297 C1299 1.389 . S
C1298 H1271 0.950 . S
C1298 C1284 1.377 . S
C1298 C1297 1.373 . S
C1299 C1283 1.377 . S
C1299 C1297 1.389 . S
C1299 C1300 1.524 . S
C1300 C1299 1.524 . S
C1300 C1301 1.397 . S
C1300 C1305 1.363 . S
C1301 H1272 0.950 . S
C1301 C1300 1.397 . S
C1301 C1302 1.334 . S
C1302 H1273 0.950 . S
C1302 C1301 1.334 . S
C1302 C1303 1.287 . S
C1303 C1302 1.287 . S
C1303 C1304 1.524 . S
C1303 H1306 0.999 . S
C1304 H1274 0.950 . S
C1304 C1303 1.524 . S
C1304 C1305 1.415 . S
C1305 H1275 0.950 . S
C1305 C1300 1.363 . S
C1305 C1304 1.415 . S
H1306 C1303 0.999 . S
H1307 C1288 0.913 . S
H1308 C1326 0.951 . S
H1309 C1328 0.951 . S
H1310 C1330 0.950 . S
H1311 C1331 0.950 . S
H1312 C1333 0.950 . S
H1313 C1336 0.950 . S
H1314 C1337 0.950 . S
H1315 C1339 0.950 . S
H1316 C1340 0.950 . S
H1317 C1341 0.951 1_554 S
H1318 C1343 0.951 . S
H1319 C1345 0.950 . S
H1320 C1346 0.950 . S
H1321 C1348 0.950 . S
H1322 C1351 0.950 . S
H1323 C1352 0.950 . S
H1324 C1354 0.950 . S
H1325 C1355 0.950 1_554 S
C1326 H1308 0.951 . S
C1326 C1327 1.366 . S
C1326 C1328 1.388 . S
C1327 C1326 1.366 . S
C1327 C1331 1.385 . S
C1328 H1309 0.951 . S
C1328 C1326 1.388 . S
C1328 C1329 1.366 . S
C1329 C1328 1.366 . S
C1329 C1330 1.414 . S
C1329 C1332 1.499 . S
C1330 H1310 0.950 . S
C1330 C1329 1.414 . S
C1330 C1331 1.374 . S
C1331 H1311 0.950 . S
C1331 C1327 1.385 . S
C1331 C1330 1.374 . S
C1332 C1329 1.499 . S
C1332 C1333 1.373 . S
C1332 C1334 1.389 . S
C1333 H1312 0.950 . S
C1333 C1332 1.373 . S
C1333 C1349 1.377 . S
C1334 C1332 1.389 . S
C1334 C1335 1.524 . S
C1334 C1348 1.377 . S
C1335 C1334 1.524 . S
C1335 C1336 1.397 . S
C1335 C1340 1.363 . S
C1336 H1313 0.950 . S
C1336 C1335 1.397 . S
C1336 C1337 1.334 . S
C1337 H1314 0.950 . S
C1337 C1336 1.334 . S
C1337 C1338 1.287 . S
C1338 C1337 1.287 . S
C1338 C1339 1.524 . S
C1338 H1357 0.913 . S
C1339 H1315 0.950 . S
C1339 C1338 1.524 . S
C1339 C1340 1.415 . S
C1340 H1316 0.950 . S
C1340 C1335 1.363 . S
C1340 C1339 1.415 . S
C1341 H1317 0.951 1_556 S
C1341 C1342 1.366 . S
C1341 C1343 1.388 . S
C1342 C1341 1.366 . S
C1342 C1346 1.385 . S
C1343 H1318 0.951 . S
C1343 C1341 1.388 . S
C1343 C1344 1.366 . S
C1344 C1343 1.366 . S
C1344 C1345 1.414 . S
C1344 C1347 1.499 . S
C1345 H1319 0.950 . S
C1345 C1344 1.414 . S
C1345 C1346 1.374 . S
C1346 H1320 0.950 . S
C1346 C1342 1.385 . S
C1346 C1345 1.374 . S
C1347 C1344 1.499 . S
C1347 C1348 1.373 . S
C1347 C1349 1.389 . S
C1348 H1321 0.950 . S
C1348 C1334 1.377 . S
C1348 C1347 1.373 . S
C1349 C1333 1.377 . S
C1349 C1347 1.389 . S
C1349 C1350 1.524 . S
C1350 C1349 1.524 . S
C1350 C1351 1.397 . S
C1350 C1355 1.363 . S
C1351 H1322 0.950 . S
C1351 C1350 1.397 . S
C1351 C1352 1.334 . S
C1352 H1323 0.950 . S
C1352 C1351 1.334 . S
C1352 C1353 1.287 1_556 S
C1353 C1352 1.287 1_554 S
C1353 C1354 1.524 . S
C1353 H1356 0.999 . S
C1354 H1324 0.950 . S
C1354 C1353 1.524 . S
C1354 C1355 1.415 1_554 S
C1355 H1325 0.950 1_556 S
C1355 C1350 1.363 . S
C1355 C1354 1.415 1_556 S
H1356 C1353 0.999 . S
H1357 C1338 0.913 . S
H1358 C1376 0.951 . S
H1359 C1378 0.951 . S
H1360 C1380 0.950 . S
H1361 C1381 0.950 . S
H1362 C1383 0.950 . S
H1363 C1386 0.950 . S
H1364 C1387 0.950 . S
H1365 C1389 0.950 . S
H1366 C1390 0.950 . S
H1367 C1391 0.951 . S
H1368 C1393 0.951 . S
H1369 C1395 0.950 . S
H1370 C1396 0.950 . S
H1371 C1398 0.950 . S
H1372 C1401 0.950 . S
H1373 C1402 0.950 . S
H1374 C1404 0.949 1_556 S
H1375 C1405 0.950 . S
C1376 H1358 0.951 . S
C1376 C1377 1.366 . S
C1376 C1378 1.388 . S
C1377 C1376 1.366 . S
C1377 C1381 1.385 . S
C1378 H1359 0.951 . S
C1378 C1376 1.388 . S
C1378 C1379 1.366 . S
C1379 C1378 1.366 . S
C1379 C1380 1.414 . S
C1379 C1382 1.499 . S
C1380 H1360 0.950 . S
C1380 C1379 1.414 . S
C1380 C1381 1.374 . S
C1381 H1361 0.950 . S
C1381 C1377 1.385 . S
C1381 C1380 1.374 . S
C1382 C1379 1.499 . S
C1382 C1383 1.373 . S
C1382 C1384 1.389 . S
C1383 H1362 0.950 . S
C1383 C1382 1.373 . S
C1383 C1399 1.377 . S
C1384 C1382 1.389 . S
C1384 C1385 1.524 . S
C1384 C1398 1.377 . S
C1385 C1384 1.524 . S
C1385 C1386 1.397 . S
C1385 C1390 1.363 . S
C1386 H1363 0.950 . S
C1386 C1385 1.397 . S
C1386 C1387 1.334 . S
C1387 H1364 0.950 . S
C1387 C1386 1.334 . S
C1387 C1388 1.287 . S
C1388 C1387 1.287 . S
C1388 C1389 1.524 . S
C1388 H1407 0.913 . S
C1389 H1365 0.950 . S
C1389 C1388 1.524 . S
C1389 C1390 1.415 . S
C1390 H1366 0.950 . S
C1390 C1385 1.363 . S
C1390 C1389 1.415 . S
C1391 H1367 0.951 . S
C1391 C1392 1.366 . S
C1391 C1393 1.388 . S
C1392 C1391 1.366 . S
C1392 C1396 1.385 . S
C1393 H1368 0.951 . S
C1393 C1391 1.388 . S
C1393 C1394 1.366 . S
C1394 C1393 1.366 . S
C1394 C1395 1.414 . S
C1394 C1397 1.499 . S
C1395 H1369 0.950 . S
C1395 C1394 1.414 . S
C1395 C1396 1.374 . S
C1396 H1370 0.950 . S
C1396 C1392 1.385 . S
C1396 C1395 1.374 . S
C1397 C1394 1.499 . S
C1397 C1398 1.373 . S
C1397 C1399 1.389 . S
C1398 H1371 0.950 . S
C1398 C1384 1.377 . S
C1398 C1397 1.373 . S
C1399 C1383 1.377 . S
C1399 C1397 1.389 . S
C1399 C1400 1.524 . S
C1400 C1399 1.524 . S
C1400 C1401 1.397 . S
C1400 C1405 1.363 . S
C1401 H1372 0.950 . S
C1401 C1400 1.397 . S
C1401 C1402 1.334 . S
C1402 H1373 0.950 . S
C1402 C1401 1.334 . S
C1402 C1403 1.287 1_554 S
C1403 C1402 1.287 1_556 S
C1403 C1404 1.524 1_556 S
C1403 H1406 0.999 . S
C1404 H1374 0.949 1_554 S
C1404 C1403 1.524 1_554 S
C1404 C1405 1.415 . S
C1405 H1375 0.950 . S
C1405 C1400 1.363 . S
C1405 C1404 1.415 . S
H1406 C1403 0.999 . S
H1407 C1388 0.913 . S
H1408 C1426 0.951 . S
H1409 C1428 0.951 . S
H1410 C1430 0.950 . S
H1411 C1431 0.950 . S
H1412 C1433 0.950 . S
H1413 C1436 0.950 . S
H1414 C1437 0.950 1_554 S
H1415 C1439 0.950 . S
H1416 C1440 0.950 . S
H1417 C1441 0.951 . S
H1418 C1443 0.951 . S
H1419 C1445 0.950 . S
H1420 C1446 0.950 . S
H1421 C1448 0.950 . S
H1422 C1451 0.950 . S
H1423 C1452 0.950 . S
H1424 C1454 0.950 . S
H1425 C1455 0.950 . S
C1426 H1408 0.951 . S
C1426 C1427 1.366 . S
C1426 C1428 1.388 . S
C1427 C1426 1.366 . S
C1427 C1431 1.385 . S
C1428 H1409 0.951 . S
C1428 C1426 1.388 . S
C1428 C1429 1.366 . S
C1429 C1428 1.366 . S
C1429 C1430 1.414 . S
C1429 C1432 1.499 . S
C1430 H1410 0.950 . S
C1430 C1429 1.414 . S
C1430 C1431 1.374 . S
C1431 H1411 0.950 . S
C1431 C1427 1.385 . S
C1431 C1430 1.374 . S
C1432 C1429 1.499 . S
C1432 C1433 1.373 . S
C1432 C1434 1.389 . S
C1433 H1412 0.950 . S
C1433 C1432 1.373 . S
C1433 C1449 1.377 . S
C1434 C1432 1.389 . S
C1434 C1435 1.524 . S
C1434 C1448 1.377 . S
C1435 C1434 1.524 . S
C1435 C1436 1.397 . S
C1435 C1440 1.363 . S
C1436 H1413 0.950 . S
C1436 C1435 1.397 . S
C1436 C1437 1.334 . S
C1437 H1414 0.950 1_556 S
C1437 C1436 1.334 . S
C1437 C1438 1.287 . S
C1438 C1437 1.287 . S
C1438 C1439 1.524 . S
C1438 H1457 0.913 . S
C1439 H1415 0.950 . S
C1439 C1438 1.524 . S
C1439 C1440 1.415 . S
C1440 H1416 0.950 . S
C1440 C1435 1.363 . S
C1440 C1439 1.415 . S
C1441 H1417 0.951 . S
C1441 C1442 1.366 . S
C1441 C1443 1.388 . S
C1442 C1441 1.366 . S
C1442 C1446 1.385 . S
C1443 H1418 0.951 . S
C1443 C1441 1.388 . S
C1443 C1444 1.366 . S
C1444 C1443 1.366 . S
C1444 C1445 1.414 . S
C1444 C1447 1.499 . S
C1445 H1419 0.950 . S
C1445 C1444 1.414 . S
C1445 C1446 1.374 . S
C1446 H1420 0.950 . S
C1446 C1442 1.385 . S
C1446 C1445 1.374 . S
C1447 C1444 1.499 . S
C1447 C1448 1.373 . S
C1447 C1449 1.389 . S
C1448 H1421 0.950 . S
C1448 C1434 1.377 . S
C1448 C1447 1.373 . S
C1449 C1433 1.377 . S
C1449 C1447 1.389 . S
C1449 C1450 1.524 . S
C1450 C1449 1.524 . S
C1450 C1451 1.397 . S
C1450 C1455 1.363 . S
C1451 H1422 0.950 . S
C1451 C1450 1.397 . S
C1451 C1452 1.334 . S
C1452 H1423 0.950 . S
C1452 C1451 1.334 . S
C1452 C1453 1.287 . S
C1453 C1452 1.287 . S
C1453 C1454 1.524 . S
C1453 H1456 0.999 . S
C1454 H1424 0.950 . S
C1454 C1453 1.524 . S
C1454 C1455 1.415 . S
C1455 H1425 0.950 . S
C1455 C1450 1.363 . S
C1455 C1454 1.415 . S
H1456 C1453 0.999 . S
H1457 C1438 0.913 . S
H1458 C1476 0.951 . S
H1459 C1478 0.951 . S
H1460 C1480 0.950 . S
H1461 C1481 0.950 . S
H1462 C1483 0.950 . S
H1463 C1486 0.950 . S
H1464 C1487 0.950 . S
H1465 C1489 0.950 . S
H1466 C1490 0.950 . S
H1467 C1491 0.951 . S
H1468 C1493 0.951 . S
H1469 C1495 0.950 . S
H1470 C1496 0.950 . S
H1471 C1498 0.950 . S
H1472 C1501 0.950 . S
H1473 C1502 0.950 . S
H1474 C1504 0.950 . S
H1475 C1505 0.950 . S
C1476 H1458 0.951 . S
C1476 C1477 1.366 . S
C1476 C1478 1.388 . S
C1477 C1476 1.366 . S
C1477 C1481 1.385 . S
C1478 H1459 0.951 . S
C1478 C1476 1.388 . S
C1478 C1479 1.366 . S
C1479 C1478 1.366 . S
C1479 C1480 1.414 . S
C1479 C1482 1.499 . S
C1480 H1460 0.950 . S
C1480 C1479 1.414 . S
C1480 C1481 1.374 . S
C1481 H1461 0.950 . S
C1481 C1477 1.385 . S
C1481 C1480 1.374 . S
C1482 C1479 1.499 . S
C1482 C1483 1.373 . S
C1482 C1484 1.389 . S
C1483 H1462 0.950 . S
C1483 C1482 1.373 . S
C1483 C1499 1.377 . S
C1484 C1482 1.389 . S
C1484 C1485 1.524 . S
C1484 C1498 1.377 . S
C1485 C1484 1.524 . S
C1485 C1486 1.397 . S
C1485 C1490 1.363 . S
C1486 H1463 0.950 . S
C1486 C1485 1.397 . S
C1486 C1487 1.334 . S
C1487 H1464 0.950 . S
C1487 C1486 1.334 . S
C1487 C1488 1.287 . S
C1488 C1487 1.287 . S
C1488 C1489 1.524 . S
C1488 H1507 0.913 . S
C1489 H1465 0.950 . S
C1489 C1488 1.524 . S
C1489 C1490 1.415 . S
C1490 H1466 0.950 . S
C1490 C1485 1.363 . S
C1490 C1489 1.415 . S
C1491 H1467 0.951 . S
C1491 C1492 1.366 . S
C1491 C1493 1.388 . S
C1492 C1491 1.366 . S
C1492 C1496 1.385 . S
C1493 H1468 0.951 . S
C1493 C1491 1.388 . S
C1493 C1494 1.366 . S
C1494 C1493 1.366 . S
C1494 C1495 1.414 . S
C1494 C1497 1.499 . S
C1495 H1469 0.950 . S
C1495 C1494 1.414 . S
C1495 C1496 1.374 . S
C1496 H1470 0.950 . S
C1496 C1492 1.385 . S
C1496 C1495 1.374 . S
C1497 C1494 1.499 . S
C1497 C1498 1.373 . S
C1497 C1499 1.389 . S
C1498 H1471 0.950 . S
C1498 C1484 1.377 . S
C1498 C1497 1.373 . S
C1499 C1483 1.377 . S
C1499 C1497 1.389 . S
C1499 C1500 1.524 . S
C1500 C1499 1.524 . S
C1500 C1501 1.397 . S
C1500 C1505 1.363 . S
C1501 H1472 0.950 . S
C1501 C1500 1.397 . S
C1501 C1502 1.334 . S
C1502 H1473 0.950 . S
C1502 C1501 1.334 . S
C1502 C1503 1.287 . S
C1503 C1502 1.287 . S
C1503 C1504 1.524 . S
C1503 H1506 0.999 . S
C1504 H1474 0.950 . S
C1504 C1503 1.524 . S
C1504 C1505 1.415 . S
C1505 H1475 0.950 . S
C1505 C1500 1.363 . S
C1505 C1504 1.415 . S
H1506 C1503 0.999 . S
H1507 C1488 0.913 . S
H1508 C1526 0.951 . S
H1509 C1528 0.951 . S
H1510 C1530 0.950 . S
H1511 C1531 0.950 . S
H1512 C1533 0.950 . S
H1513 C1536 0.950 . S
H1514 C1537 0.950 . S
H1515 C1539 0.950 . S
H1516 C1540 0.950 . S
H1517 C1541 0.951 . S
H1518 C1543 0.951 . S
H1519 C1545 0.950 . S
H1520 C1546 0.950 . S
H1521 C1548 0.950 . S
H1522 C1551 0.950 . S
H1523 C1552 0.950 . S
H1524 C1554 0.950 . S
H1525 C1555 0.950 . S
C1526 H1508 0.951 . S
C1526 C1527 1.366 . S
C1526 C1528 1.388 . S
C1527 C1526 1.366 . S
C1527 C1531 1.385 . S
C1528 H1509 0.951 . S
C1528 C1526 1.388 . S
C1528 C1529 1.366 . S
C1529 C1528 1.366 . S
C1529 C1530 1.414 . S
C1529 C1532 1.499 . S
C1530 H1510 0.950 . S
C1530 C1529 1.414 . S
C1530 C1531 1.374 . S
C1531 H1511 0.950 . S
C1531 C1527 1.385 . S
C1531 C1530 1.374 . S
C1532 C1529 1.499 . S
C1532 C1533 1.373 . S
C1532 C1534 1.389 . S
C1533 H1512 0.950 . S
C1533 C1532 1.373 . S
C1533 C1549 1.377 . S
C1534 C1532 1.389 . S
C1534 C1535 1.524 . S
C1534 C1548 1.377 . S
C1535 C1534 1.524 . S
C1535 C1536 1.397 . S
C1535 C1540 1.363 . S
C1536 H1513 0.950 . S
C1536 C1535 1.397 . S
C1536 C1537 1.334 . S
C1537 H1514 0.950 . S
C1537 C1536 1.334 . S
C1537 C1538 1.287 . S
C1538 C1537 1.287 . S
C1538 C1539 1.524 . S
C1538 H1557 0.913 . S
C1539 H1515 0.950 . S
C1539 C1538 1.524 . S
C1539 C1540 1.415 . S
C1540 H1516 0.950 . S
C1540 C1535 1.363 . S
C1540 C1539 1.415 . S
C1541 H1517 0.951 . S
C1541 C1542 1.366 . S
C1541 C1543 1.388 . S
C1542 C1541 1.366 . S
C1542 C1546 1.385 . S
C1543 H1518 0.951 . S
C1543 C1541 1.388 . S
C1543 C1544 1.366 . S
C1544 C1543 1.366 . S
C1544 C1545 1.414 . S
C1544 C1547 1.499 . S
C1545 H1519 0.950 . S
C1545 C1544 1.414 . S
C1545 C1546 1.374 . S
C1546 H1520 0.950 . S
C1546 C1542 1.385 . S
C1546 C1545 1.374 . S
C1547 C1544 1.499 . S
C1547 C1548 1.373 . S
C1547 C1549 1.389 . S
C1548 H1521 0.950 . S
C1548 C1534 1.377 . S
C1548 C1547 1.373 . S
C1549 C1533 1.377 . S
C1549 C1547 1.389 . S
C1549 C1550 1.524 . S
C1550 C1549 1.524 . S
C1550 C1551 1.397 . S
C1550 C1555 1.363 . S
C1551 H1522 0.950 . S
C1551 C1550 1.397 . S
C1551 C1552 1.334 . S
C1552 H1523 0.950 . S
C1552 C1551 1.334 . S
C1552 C1553 1.287 . S
C1553 C1552 1.287 . S
C1553 C1554 1.524 . S
C1553 H1556 0.999 . S
C1554 H1524 0.950 . S
C1554 C1553 1.524 . S
C1554 C1555 1.415 . S
C1555 H1525 0.950 . S
C1555 C1550 1.363 . S
C1555 C1554 1.415 . S
H1556 C1553 0.999 . S
H1557 C1538 0.913 . S
H1558 C1576 0.951 . S
H1559 C1578 0.951 . S
H1560 C1580 0.950 . S
H1561 C1581 0.950 . S
H1562 C1583 0.950 . S
H1563 C1586 0.950 . S
H1564 C1587 0.950 . S
H1565 C1589 0.950 . S
H1566 C1590 0.950 . S
H1567 C1591 0.953 1_556 S
H1568 C1593 0.951 . S
H1569 C1595 0.950 . S
H1570 C1596 0.950 . S
H1571 C1598 0.950 . S
H1572 C1601 0.950 . S
H1573 C1602 0.950 . S
H1574 C1604 0.950 . S
H1575 C1605 0.950 . S
C1576 H1558 0.951 . S
C1576 C1577 1.366 . S
C1576 C1578 1.388 . S
C1577 C1576 1.366 . S
C1577 C1581 1.385 . S
C1578 H1559 0.951 . S
C1578 C1576 1.388 . S
C1578 C1579 1.366 . S
C1579 C1578 1.366 . S
C1579 C1580 1.414 . S
C1579 C1582 1.499 . S
C1580 H1560 0.950 . S
C1580 C1579 1.414 . S
C1580 C1581 1.374 . S
C1581 H1561 0.950 . S
C1581 C1577 1.385 . S
C1581 C1580 1.374 . S
C1582 C1579 1.499 . S
C1582 C1583 1.373 . S
C1582 C1584 1.389 . S
C1583 H1562 0.950 . S
C1583 C1582 1.373 . S
C1583 C1599 1.377 . S
C1584 C1582 1.389 . S
C1584 C1585 1.524 . S
C1584 C1598 1.377 . S
C1585 C1584 1.524 . S
C1585 C1586 1.397 . S
C1585 C1590 1.363 . S
C1586 H1563 0.950 . S
C1586 C1585 1.397 . S
C1586 C1587 1.334 . S
C1587 H1564 0.950 . S
C1587 C1586 1.334 . S
C1587 C1588 1.287 . S
C1588 C1587 1.287 . S
C1588 C1589 1.524 . S
C1588 H1607 0.913 . S
C1589 H1565 0.950 . S
C1589 C1588 1.524 . S
C1589 C1590 1.415 . S
C1590 H1566 0.950 . S
C1590 C1585 1.363 . S
C1590 C1589 1.415 . S
C1591 H1567 0.953 1_554 S
C1591 C1592 1.366 . S
C1591 C1593 1.388 . S
C1592 C1591 1.366 . S
C1592 C1596 1.385 . S
C1593 H1568 0.951 . S
C1593 C1591 1.388 . S
C1593 C1594 1.366 . S
C1594 C1593 1.366 . S
C1594 C1595 1.414 . S
C1594 C1597 1.499 . S
C1595 H1569 0.950 . S
C1595 C1594 1.414 . S
C1595 C1596 1.374 . S
C1596 H1570 0.950 . S
C1596 C1592 1.385 . S
C1596 C1595 1.374 . S
C1597 C1594 1.499 . S
C1597 C1598 1.373 . S
C1597 C1599 1.389 . S
C1598 H1571 0.950 . S
C1598 C1584 1.377 . S
C1598 C1597 1.373 . S
C1599 C1583 1.377 . S
C1599 C1597 1.389 . S
C1599 C1600 1.524 . S
C1600 C1599 1.524 . S
C1600 C1601 1.397 . S
C1600 C1605 1.363 1_554 S
C1601 H1572 0.950 . S
C1601 C1600 1.397 . S
C1601 C1602 1.334 1_554 S
C1602 H1573 0.950 . S
C1602 C1601 1.334 1_556 S
C1602 C1603 1.287 . S
C1603 C1602 1.287 . S
C1603 C1604 1.524 . S
C1603 H1606 0.999 . S
C1604 H1574 0.950 . S
C1604 C1603 1.524 . S
C1604 C1605 1.415 . S
C1605 H1575 0.950 . S
C1605 C1600 1.363 1_556 S
C1605 C1604 1.415 . S
H1606 C1603 0.999 . S
H1607 C1588 0.913 . S
H1608 C1626 0.951 . S
H1609 C1628 0.951 . S
H1610 C1630 0.950 . S
H1611 C1631 0.950 . S
H1612 C1633 0.950 . S
H1613 C1636 0.950 . S
H1614 C1637 0.950 . S
H1615 C1639 0.950 . S
H1616 C1640 0.950 . S
H1617 C1641 0.951 . S
H1618 C1643 0.951 . S
H1619 C1645 0.950 . S
H1620 C1646 0.950 . S
H1621 C1648 0.950 . S
H1622 C1651 0.950 . S
H1623 C1652 0.950 . S
H1624 C1654 0.950 . S
H1625 C1655 0.950 . S
C1626 H1608 0.951 . S
C1626 C1627 1.366 . S
C1626 C1628 1.388 . S
C1627 C1626 1.366 . S
C1627 C1631 1.385 . S
C1628 H1609 0.951 . S
C1628 C1626 1.388 . S
C1628 C1629 1.366 . S
C1629 C1628 1.366 . S
C1629 C1630 1.414 . S
C1629 C1632 1.499 . S
C1630 H1610 0.950 . S
C1630 C1629 1.414 . S
C1630 C1631 1.374 . S
C1631 H1611 0.950 . S
C1631 C1627 1.385 . S
C1631 C1630 1.374 . S
C1632 C1629 1.499 . S
C1632 C1633 1.373 . S
C1632 C1634 1.389 . S
C1633 H1612 0.950 . S
C1633 C1632 1.373 . S
C1633 C1649 1.377 . S
C1634 C1632 1.389 . S
C1634 C1635 1.524 . S
C1634 C1648 1.377 . S
C1635 C1634 1.524 . S
C1635 C1636 1.397 . S
C1635 C1640 1.363 . S
C1636 H1613 0.950 . S
C1636 C1635 1.397 . S
C1636 C1637 1.334 . S
C1637 H1614 0.950 . S
C1637 C1636 1.334 . S
C1637 C1638 1.287 . S
C1638 C1637 1.287 . S
C1638 C1639 1.524 . S
C1638 H1657 0.913 . S
C1639 H1615 0.950 . S
C1639 C1638 1.524 . S
C1639 C1640 1.415 . S
C1640 H1616 0.950 . S
C1640 C1635 1.363 . S
C1640 C1639 1.415 . S
C1641 H1617 0.951 . S
C1641 C1642 1.366 . S
C1641 C1643 1.388 . S
C1642 C1641 1.366 . S
C1642 C1646 1.385 . S
C1643 H1618 0.951 . S
C1643 C1641 1.388 . S
C1643 C1644 1.366 . S
C1644 C1643 1.366 . S
C1644 C1645 1.414 . S
C1644 C1647 1.499 . S
C1645 H1619 0.950 . S
C1645 C1644 1.414 . S
C1645 C1646 1.374 . S
C1646 H1620 0.950 . S
C1646 C1642 1.385 . S
C1646 C1645 1.374 . S
C1647 C1644 1.499 . S
C1647 C1648 1.373 . S
C1647 C1649 1.389 . S
C1648 H1621 0.950 . S
C1648 C1634 1.377 . S
C1648 C1647 1.373 . S
C1649 C1633 1.377 . S
C1649 C1647 1.389 . S
C1649 C1650 1.524 . S
C1650 C1649 1.524 . S
C1650 C1651 1.397 . S
C1650 C1655 1.363 . S
C1651 H1622 0.950 . S
C1651 C1650 1.397 . S
C1651 C1652 1.334 . S
C1652 H1623 0.950 . S
C1652 C1651 1.334 . S
C1652 C1653 1.287 . S
C1653 C1652 1.287 . S
C1653 C1654 1.524 . S
C1653 H1656 0.999 . S
C1654 H1624 0.950 . S
C1654 C1653 1.524 . S
C1654 C1655 1.415 . S
C1655 H1625 0.950 . S
C1655 C1650 1.363 . S
C1655 C1654 1.415 . S
H1656 C1653 0.999 . S
H1657 C1638 0.913 . S
H1658 C1676 0.951 . S
H1659 C1678 0.951 . S
H1660 C1680 0.950 . S
H1661 C1681 0.950 . S
H1662 C1683 0.950 . S
H1663 C1686 0.950 . S
H1664 C1687 0.950 . S
H1665 C1689 0.950 . S
H1666 C1690 0.950 . S
H1667 C1691 0.951 . S
H1668 C1693 0.951 . S
H1669 C1695 0.950 . S
H1670 C1696 0.950 . S
H1671 C1698 0.950 . S
H1672 C1701 0.950 . S
H1673 C1702 0.950 . S
H1674 C1704 0.950 . S
H1675 C1705 0.950 . S
C1676 H1658 0.951 . S
C1676 C1677 1.366 . S
C1676 C1678 1.388 . S
C1677 C1676 1.366 . S
C1677 C1681 1.385 . S
C1678 H1659 0.951 . S
C1678 C1676 1.388 . S
C1678 C1679 1.366 . S
C1679 C1678 1.366 . S
C1679 C1680 1.414 . S
C1679 C1682 1.499 . S
C1680 H1660 0.950 . S
C1680 C1679 1.414 . S
C1680 C1681 1.374 . S
C1681 H1661 0.950 . S
C1681 C1677 1.385 . S
C1681 C1680 1.374 . S
C1682 C1679 1.499 . S
C1682 C1683 1.373 . S
C1682 C1684 1.389 . S
C1683 H1662 0.950 . S
C1683 C1682 1.373 . S
C1683 C1699 1.377 . S
C1684 C1682 1.389 . S
C1684 C1685 1.524 . S
C1684 C1698 1.377 . S
C1685 C1684 1.524 . S
C1685 C1686 1.397 . S
C1685 C1690 1.363 . S
C1686 H1663 0.950 . S
C1686 C1685 1.397 . S
C1686 C1687 1.334 . S
C1687 H1664 0.950 . S
C1687 C1686 1.334 . S
C1687 C1688 1.287 . S
C1688 C1687 1.287 . S
C1688 C1689 1.524 . S
C1688 H1707 0.913 . S
C1689 H1665 0.950 . S
C1689 C1688 1.524 . S
C1689 C1690 1.415 . S
C1690 H1666 0.950 . S
C1690 C1685 1.363 . S
C1690 C1689 1.415 . S
C1691 H1667 0.951 . S
C1691 C1692 1.366 . S
C1691 C1693 1.388 . S
C1692 C1691 1.366 . S
C1692 C1696 1.385 . S
C1693 H1668 0.951 . S
C1693 C1691 1.388 . S
C1693 C1694 1.366 . S
C1694 C1693 1.366 . S
C1694 C1695 1.414 . S
C1694 C1697 1.499 . S
C1695 H1669 0.950 . S
C1695 C1694 1.414 . S
C1695 C1696 1.374 . S
C1696 H1670 0.950 . S
C1696 C1692 1.385 . S
C1696 C1695 1.374 . S
C1697 C1694 1.499 . S
C1697 C1698 1.373 . S
C1697 C1699 1.389 . S
C1698 H1671 0.950 . S
C1698 C1684 1.377 . S
C1698 C1697 1.373 . S
C1699 C1683 1.377 . S
C1699 C1697 1.389 . S
C1699 C1700 1.524 . S
C1700 C1699 1.524 . S
C1700 C1701 1.397 . S
C1700 C1705 1.363 . S
C1701 H1672 0.950 . S
C1701 C1700 1.397 . S
C1701 C1702 1.334 . S
C1702 H1673 0.950 . S
C1702 C1701 1.334 . S
C1702 C1703 1.287 . S
C1703 C1702 1.287 . S
C1703 C1704 1.524 . S
C1703 H1706 0.999 . S
C1704 H1674 0.950 . S
C1704 C1703 1.524 . S
C1704 C1705 1.415 . S
C1705 H1675 0.950 . S
C1705 C1700 1.363 . S
C1705 C1704 1.415 . S
H1706 C1703 0.999 . S
H1707 C1688 0.913 . S
H1708 C1726 0.951 . S
H1709 C1728 0.951 . S
H1710 C1730 0.950 . S
H1711 C1731 0.950 . S
H1712 C1733 0.950 . S
H1713 C1736 0.950 . S
H1714 C1737 0.950 . S
H1715 C1739 0.950 . S
H1716 C1740 0.950 1_556 S
H1717 C1741 0.951 . S
H1718 C1743 0.951 . S
H1719 C1745 0.950 . S
H1720 C1746 0.950 1_556 S
H1721 C1748 0.950 . S
H1722 C1751 0.950 . S
H1723 C1752 0.950 . S
H1724 C1754 0.950 . S
H1725 C1755 0.950 . S
C1726 H1708 0.951 . S
C1726 C1727 1.366 . S
C1726 C1728 1.388 . S
C1727 C1726 1.366 . S
C1727 C1731 1.385 . S
C1728 H1709 0.951 . S
C1728 C1726 1.388 . S
C1728 C1729 1.366 . S
C1729 C1728 1.366 . S
C1729 C1730 1.414 . S
C1729 C1732 1.499 . S
C1730 H1710 0.950 . S
C1730 C1729 1.414 . S
C1730 C1731 1.374 . S
C1731 H1711 0.950 . S
C1731 C1727 1.385 . S
C1731 C1730 1.374 . S
C1732 C1729 1.499 . S
C1732 C1733 1.373 . S
C1732 C1734 1.389 . S
C1733 H1712 0.950 . S
C1733 C1732 1.373 . S
C1733 C1749 1.377 . S
C1734 C1732 1.389 . S
C1734 C1735 1.524 . S
C1734 C1748 1.377 . S
C1735 C1734 1.524 . S
C1735 C1736 1.397 . S
C1735 C1740 1.363 . S
C1736 H1713 0.950 . S
C1736 C1735 1.397 . S
C1736 C1737 1.334 . S
C1737 H1714 0.950 . S
C1737 C1736 1.334 . S
C1737 C1738 1.284 1_554 S
C1738 C1737 1.284 1_556 S
C1738 C1739 1.525 . S
C1738 H1757 0.915 . S
C1739 H1715 0.950 . S
C1739 C1738 1.525 . S
C1739 C1740 1.415 1_556 S
C1740 H1716 0.950 1_554 S
C1740 C1735 1.363 . S
C1740 C1739 1.415 1_554 S
C1741 H1717 0.951 . S
C1741 C1742 1.366 . S
C1741 C1743 1.388 . S
C1742 C1741 1.366 . S
C1742 C1746 1.385 . S
C1743 H1718 0.951 . S
C1743 C1741 1.388 . S
C1743 C1744 1.366 . S
C1744 C1743 1.366 . S
C1744 C1745 1.414 . S
C1744 C1747 1.499 . S
C1745 H1719 0.950 . S
C1745 C1744 1.414 . S
C1745 C1746 1.374 . S
C1746 H1720 0.950 1_554 S
C1746 C1742 1.385 . S
C1746 C1745 1.374 . S
C1747 C1744 1.499 . S
C1747 C1748 1.373 . S
C1747 C1749 1.389 . S
C1748 H1721 0.950 . S
C1748 C1734 1.377 . S
C1748 C1747 1.373 . S
C1749 C1733 1.377 . S
C1749 C1747 1.389 . S
C1749 C1750 1.524 . S
C1750 C1749 1.524 . S
C1750 C1751 1.397 . S
C1750 C1755 1.363 . S
C1751 H1722 0.950 . S
C1751 C1750 1.397 . S
C1751 C1752 1.334 . S
C1752 H1723 0.950 . S
C1752 C1751 1.334 . S
C1752 C1753 1.287 . S
C1753 C1752 1.287 . S
C1753 C1754 1.524 . S
C1753 H1756 0.999 . S
C1754 H1724 0.950 . S
C1754 C1753 1.524 . S
C1754 C1755 1.415 . S
C1755 H1725 0.950 . S
C1755 C1750 1.363 . S
C1755 C1754 1.415 . S
H1756 C1753 0.999 . S
H1757 C1738 0.915 . S
H1758 C1776 0.951 . S
H1759 C1778 0.951 . S
H1760 C1780 0.950 . S
H1761 C1781 0.950 . S
H1762 C1783 0.950 . S
H1763 C1786 0.950 1_556 S
H1764 C1787 0.950 . S
H1765 C1789 0.950 . S
H1766 C1790 0.950 . S
H1767 C1791 0.951 . S
H1768 C1793 0.951 . S
H1769 C1795 0.950 . S
H1770 C1796 0.950 . S
H1771 C1798 0.950 . S
H1772 C1801 0.950 . S
H1773 C1802 0.950 . S
H1774 C1804 0.950 . S
H1775 C1805 0.950 . S
C1776 H1758 0.951 . S
C1776 C1777 1.366 . S
C1776 C1778 1.388 . S
C1777 C1776 1.366 . S
C1777 C1781 1.385 . S
C1778 H1759 0.951 . S
C1778 C1776 1.388 . S
C1778 C1779 1.366 . S
C1779 C1778 1.366 . S
C1779 C1780 1.414 . S
C1779 C1782 1.499 . S
C1780 H1760 0.950 . S
C1780 C1779 1.414 . S
C1780 C1781 1.374 . S
C1781 H1761 0.950 . S
C1781 C1777 1.385 . S
C1781 C1780 1.374 . S
C1782 C1779 1.499 . S
C1782 C1783 1.373 . S
C1782 C1784 1.389 . S
C1783 H1762 0.950 . S
C1783 C1782 1.373 . S
C1783 C1799 1.377 . S
C1784 C1782 1.389 . S
C1784 C1785 1.524 . S
C1784 C1798 1.377 . S
C1785 C1784 1.524 . S
C1785 C1786 1.397 1_556 S
C1785 C1790 1.363 1_556 S
C1786 H1763 0.950 1_554 S
C1786 C1785 1.397 1_554 S
C1786 C1787 1.334 . S
C1787 H1764 0.950 . S
C1787 C1786 1.334 . S
C1787 C1788 1.287 . S
C1788 C1787 1.287 . S
C1788 C1789 1.524 . S
C1788 H1807 0.913 . S
C1789 H1765 0.950 . S
C1789 C1788 1.524 . S
C1789 C1790 1.415 . S
C1790 H1766 0.950 . S
C1790 C1785 1.363 1_554 S
C1790 C1789 1.415 . S
C1791 H1767 0.951 . S
C1791 C1792 1.366 . S
C1791 C1793 1.388 . S
C1792 C1791 1.366 . S
C1792 C1796 1.385 . S
C1793 H1768 0.951 . S
C1793 C1791 1.388 . S
C1793 C1794 1.366 . S
C1794 C1793 1.366 . S
C1794 C1795 1.414 . S
C1794 C1797 1.499 . S
C1795 H1769 0.950 . S
C1795 C1794 1.414 . S
C1795 C1796 1.374 . S
C1796 H1770 0.950 . S
C1796 C1792 1.385 . S
C1796 C1795 1.374 . S
C1797 C1794 1.499 . S
C1797 C1798 1.373 . S
C1797 C1799 1.389 . S
C1798 H1771 0.950 . S
C1798 C1784 1.377 . S
C1798 C1797 1.373 . S
C1799 C1783 1.377 . S
C1799 C1797 1.389 . S
C1799 C1800 1.524 . S
C1800 C1799 1.524 . S
C1800 C1801 1.397 . S
C1800 C1805 1.363 . S
C1801 H1772 0.950 . S
C1801 C1800 1.397 . S
C1801 C1802 1.334 . S
C1802 H1773 0.950 . S
C1802 C1801 1.334 . S
C1802 C1803 1.287 . S
C1803 C1802 1.287 . S
C1803 C1804 1.524 . S
C1803 H1806 0.999 . S
C1804 H1774 0.950 . S
C1804 C1803 1.524 . S
C1804 C1805 1.415 . S
C1805 H1775 0.950 . S
C1805 C1800 1.363 . S
C1805 C1804 1.415 . S
H1806 C1803 0.999 . S
H1807 C1788 0.913 . S
C227 C5 1.453 . S
C242 C161 1.451 . S
C277 C16 1.452 . S
C292 C70 1.453 1_565 S
C327 C31 1.452 . S
C342 C187 1.454 . S
C377 C96 1.452 . S
C392 C44 1.452 1_565 S
C427 C185 1.453 . S
C442 C29 1.451 . S
C477 C94 1.452 1_565 S
C492 C42 1.452 . S
C527 C159 1.453 . S
C542 C3 1.454 . S
C577 C68 1.452 . S
C592 C18 1.452 1_565 S
C627 C55 1.453 . S
C642 C109 1.454 . S
C677 C83 1.453 . S
C692 C135 1.451 . S
C727 C133 1.453 . S
C742 C81 1.454 . S
C777 C57 1.452 . S
C792 C107 1.451 . S
C827 C172 1.453 . S
C842 C120 1.453 . S
C877 C146 1.453 . S
C892 C198 1.453 . S
C927 C148 1.452 . S
C942 C200 1.452 . S
C977 C122 1.453 . S
C992 C174 1.453 . S
C1027 C153 1.568 . S
C1042 C10 1.567 . S
C1077 C108 1.568 . S
C1092 C17 1.573 . S
C1127 C36 1.568 . S
C1142 C127 1.568 . S
C1177 C134 1.568 . S
C1192 C49 1.564 . S
C1227 C147 1.568 . S
C1242 C30 1.568 . S
C1277 C43 1.568 . S
C1292 C114 1.573 . S
C1327 C121 1.568 . S
C1342 C4 1.569 . S
C1377 C140 1.568 . S
C1392 C23 1.562 . S
C1427 C56 1.568 . S
C1442 C205 1.569 . S
C1477 C160 1.568 . S
C1492 C75 1.563 . S
C1527 C88 1.568 . S
C1542 C179 1.568 . S
C1577 C101 1.568 . S
C1592 C186 1.573 . S
C1627 C82 1.568 . S
C1642 C199 1.568 . S
C1677 C166 1.568 . S
C1692 C95 1.563 . S
C1727 C173 1.568 . S
C1742 C62 1.567 . S
C1777 C192 1.568 . S
C1792 C69 1.574 . S
