# Generated by pormake.
# Topology sml, (6)-cn, num edge types: 1
# Building blocks:
#     Node 0, Type 0, BuildingBlock: KUMBUR_clean_sbu_1, # of connection points: 6
#     Node 1, Type 0, BuildingBlock: KUMBUR_clean_sbu_1, # of connection points: 6
#     Node 2, Type 0, BuildingBlock: KUMBUR_clean_sbu_1, # of connection points: 6
#     Node 3, Type 0, BuildingBlock: KUMBUR_clean_sbu_1, # of connection points: 6
#     Node 4, Type 0, BuildingBlock: KUMBUR_clean_sbu_1, # of connection points: 6
#     Node 5, Type 0, BuildingBlock: KUMBUR_clean_sbu_1, # of connection points: 6
#     Edge 6, Type (0, 0), BuildingBlock: XIVTED_clean_linker_0, # of connection points: 2
#     Edge 7, Type (0, 0), BuildingBlock: XIVTED_clean_linker_0, # of connection points: 2
#     Edge 8, Type (0, 0), BuildingBlock: XIVTED_clean_linker_0, # of connection points: 2
#     Edge 9, Type (0, 0), BuildingBlock: XIVTED_clean_linker_0, # of connection points: 2
#     Edge 10, Type (0, 0), BuildingBlock: XIVTED_clean_linker_0, # of connection points: 2
#     Edge 11, Type (0, 0), BuildingBlock: XIVTED_clean_linker_0, # of connection points: 2
#     Edge 12, Type (0, 0), BuildingBlock: XIVTED_clean_linker_0, # of connection points: 2
#     Edge 13, Type (0, 0), BuildingBlock: XIVTED_clean_linker_0, # of connection points: 2
#     Edge 14, Type (0, 0), BuildingBlock: XIVTED_clean_linker_0, # of connection points: 2
#     Edge 15, Type (0, 0), BuildingBlock: XIVTED_clean_linker_0, # of connection points: 2
#     Edge 16, Type (0, 0), BuildingBlock: XIVTED_clean_linker_0, # of connection points: 2
#     Edge 17, Type (0, 0), BuildingBlock: XIVTED_clean_linker_0, # of connection points: 2
#     Edge 18, Type (0, 0), BuildingBlock: XIVTED_clean_linker_0, # of connection points: 2
#     Edge 19, Type (0, 0), BuildingBlock: XIVTED_clean_linker_0, # of connection points: 2
#     Edge 20, Type (0, 0), BuildingBlock: XIVTED_clean_linker_0, # of connection points: 2
#     Edge 21, Type (0, 0), BuildingBlock: XIVTED_clean_linker_0, # of connection points: 2
#     Edge 22, Type (0, 0), BuildingBlock: XIVTED_clean_linker_0, # of connection points: 2
#     Edge 23, Type (0, 0), BuildingBlock: XIVTED_clean_linker_0, # of connection points: 2
# Relax obj value: 0.063
# Max RMSD: 0.175
# Mean RMSD: 0.175
data_MOF--net-sml--node1-KUMBUR_clean_sbu_1--edge1-XIVTED_clean_linker_0
_symmetry_space_group_name_H-M    P1
_symmetry_Int_Tables_number       1
_symmetry_cell_setting            triclinic
loop_
_symmetry_equiv_pos_as_xyz
'x, y, z'
_cell_length_a     33.296725
_cell_length_b     33.313788
_cell_length_c     24.243801
_cell_angle_alpha  90.058259
_cell_angle_beta   90.032586
_cell_angle_gamma 120.11376
loop_
_atom_site_label
_atom_site_type_symbol
_atom_site_fract_x
_atom_site_fract_y
_atom_site_fract_z
_atom_type_partial_charge
Tb0 Tb 0.1618 0.43655 0.92244 0.0
C1 C 0.33198 0.44225 0.05714 0.0
N2 N 0.28988 0.40516 0.04454 0.0
C3 C 0.32582 0.36034 0.02201 0.0
C4 C 0.37294 0.43993 0.05224 0.0
C5 C 0.28615 0.36431 0.02769 0.0
C6 C 0.36943 0.39832 0.03429 0.0
C7 C 0.37705 0.52268 0.08607 0.0
C8 C 0.33399 0.48313 0.07357 0.0
C9 C 0.41799 0.52045 0.08186 0.0
C10 C 0.41595 0.47921 0.06489 0.0
Tb11 Tb 0.22785 0.41585 0.05516 0.0
N12 N 0.29377 0.48446 0.07517 0.0
C13 C 0.37766 0.56334 0.10208 0.0
C14 C 0.29411 0.52362 0.0925 0.0
C15 C 0.33598 0.56368 0.10564 0.0
H16 H 0.25244 0.33444 0.01981 0.0
H17 H 0.33602 0.59473 0.11891 0.0
H18 H 0.12281 0.50491 0.96572 0.0
H19 H 0.07329 0.25798 0.85038 0.0
H20 H 0.26244 0.52429 0.09724 0.0
H21 H 0.41002 0.59448 0.11214 0.0
H22 H 0.14104 0.3329 0.87238 0.0
H23 H 0.32271 0.32792 1.00851 0.0
H24 H 0.45142 0.55049 0.09129 0.0
H25 H 0.44784 0.47812 0.06147 0.0
H26 H 0.04674 0.50012 0.97697 0.0
H27 H 0.4001 0.39513 0.02988 0.0
H28 H 0.99433 0.24649 0.86026 0.0
N29 N 0.0938 0.43607 0.93493 0.0
C30 C 0.05459 0.3962 0.92075 0.0
C31 C 0.04848 0.47063 0.96118 0.0
C32 C 0.01048 0.39193 0.92642 0.0
C33 C 0.09147 0.47314 0.95508 0.0
C34 C 0.00781 0.4299 0.94669 0.0
N35 N 0.10201 0.36379 0.90054 0.0
C36 C 0.10737 0.32853 0.88002 0.0
C37 C 0.01879 0.31642 0.88948 0.0
C38 C 0.0588 0.35879 0.90319 0.0
C39 C 0.02418 0.27959 0.87128 0.0
C40 C 0.06868 0.28585 0.86604 0.0
H41 H 0.97456 0.42801 0.95169 0.0
H42 H 0.93637 0.34586 0.91657 0.0
H43 H 0.94377 0.27993 0.88361 0.0
O44 O 0.17534 0.43744 0.83648 0.0
O45 O 0.11879 0.39814 0.99337 0.0
O46 O 0.15891 0.36423 0.02539 0.0
O47 O 0.15843 0.48672 0.8732 0.0
O48 O 0.20444 0.40432 0.90688 0.0
O49 O 0.19943 0.36516 0.98756 0.0
O50 O 0.21243 0.4188 0.13998 0.0
O51 O 0.27348 0.45964 0.98769 0.0
O52 O 0.2298 0.48896 0.95325 0.0
O53 O 0.22747 0.36637 0.10889 0.0
O54 O 0.19019 0.45357 0.07041 0.0
O55 O 0.18838 0.48938 0.98834 0.0
C56 C 0.1226 0.36965 0.02741 0.0
C57 C 0.17259 0.49443 0.77423 0.0
C58 C 0.17991 0.49613 0.67324 0.0
C59 C 0.18094 0.53889 0.67289 0.0
C60 C 0.17334 0.53692 0.77215 0.0
C61 C 0.17761 0.55895 0.72189 0.0
C62 C 0.1761 0.47417 0.72453 0.0
C63 C 0.21234 0.37543 0.93566 0.0
C64 C 0.16861 0.47225 0.82853 0.0
C65 C 0.97059 0.3498 0.91269 0.0
C66 C 0.97477 0.3122 0.89414 0.0
C67 C 0.26765 0.48626 0.95243 0.0
C68 C 0.21062 0.36206 0.20686 0.0
C69 C 0.20413 0.36439 0.30764 0.0
C70 C 0.19851 0.31964 0.3104 0.0
C71 C 0.20531 0.31761 0.21139 0.0
C72 C 0.20969 0.38532 0.25524 0.0
C73 C 0.19915 0.29662 0.26272 0.0
C74 C 0.18281 0.48338 0.0425 0.0
C75 C 0.21712 0.38315 0.15138 0.0
H76 H 0.18496 0.55735 0.63468 0.0
H77 H 0.17097 0.55346 0.80953 0.0
H78 H 0.17853 0.59188 0.72091 0.0
H79 H 0.17508 0.44117 0.72573 0.0
H80 H 0.19302 0.30201 0.34954 0.0
H81 H 0.20562 0.29879 0.17507 0.0
H82 H 0.21422 0.4198 0.2522 0.0
H83 H 0.19476 0.26221 0.26557 0.0
Tb84 Tb 0.85707 0.26718 0.43856 0.0
C85 C 0.67533 0.10176 0.32201 0.0
N86 N 0.71965 0.11005 0.32223 0.0
C87 C 0.69185 0.02879 0.33387 0.0
C88 C 0.63732 0.05652 0.32845 0.0
C89 C 0.7284 0.07431 0.32691 0.0
C90 C 0.64611 0.01986 0.33493 0.0
C91 C 0.62281 0.13203 0.31368 0.0
C92 C 0.66813 0.1389 0.3148 0.0
C93 C 0.58472 0.08705 0.32051 0.0
C94 C 0.59196 0.04938 0.32795 0.0
Tb95 Tb 0.77631 0.18583 0.31312 0.0
N96 N 0.70593 0.18206 0.31005 0.0
C97 C 0.61726 0.17057 0.30559 0.0
C98 C 0.7007 0.21947 0.29962 0.0
C99 C 0.65637 0.2144 0.29802 0.0
H100 H 0.76361 0.08088 0.32469 0.0
H101 H 0.65239 0.24427 0.29072 0.0
H102 H 0.89685 0.37651 0.40172 0.0
H103 H 0.94143 0.16519 0.46573 0.0
H104 H 0.73051 0.25324 0.29281 0.0
H105 H 0.583 0.1668 0.30444 0.0
H106 H 0.87598 0.17919 0.46918 0.0
H107 H 0.69895 1.0006 0.33808 0.0
H108 H 0.54957 0.081 0.31992 0.0
H109 H 0.56225 0.01487 0.33294 0.0
H110 H 0.97243 0.44399 0.37598 0.0
H111 H 0.61787 0.98456 0.34014 0.0
H112 H 0.01924 0.22814 0.43809 0.0
N113 N 0.92438 0.33171 0.41381 0.0
C114 C 0.9628 0.32726 0.41384 0.0
C115 C 0.97013 0.41129 0.38632 0.0
C116 C 0.00652 0.36477 0.39914 0.0
C117 C 0.92733 0.37294 0.40058 0.0
C118 C 0.00989 0.40721 0.38554 0.0
N119 N 0.91432 0.24812 0.43791 0.0
C120 C 0.9087 0.20635 0.45405 0.0
C121 C 0.99649 0.27791 0.42498 0.0
C122 C 0.95759 0.28408 0.42603 0.0
C123 C 0.99024 0.23431 0.43835 0.0
C124 C 0.94628 0.19858 0.45355 0.0
H125 H 0.04294 0.43693 0.37419 0.0
H126 H 0.07896 0.38689 0.38608 0.0
H127 H 0.07052 0.31117 0.40943 0.0
O128 O 0.86391 0.25518 0.52252 0.0
O129 O 0.88516 0.27172 0.35517 0.0
O130 O 0.84576 0.19657 0.32712 0.0
O131 O 0.87548 0.32136 0.49563 0.0
O132 O 0.80977 0.19285 0.45438 0.0
O133 O 0.8078 0.15933 0.371 0.0
O134 O 0.79047 0.21626 0.2342 0.0
O135 O 0.73847 0.18962 0.38586 0.0
O136 O 0.78633 0.25542 0.43885 0.0
O137 O 0.76471 0.14326 0.24377 0.0
O138 O 0.8102 0.26182 0.30465 0.0
O139 O 0.82449 0.29908 0.39037 0.0
C140 C 0.88222 0.23811 0.32423 0.0
C141 C 0.84258 0.29588 0.58434 0.0
C142 C 0.82352 0.28608 0.68296 0.0
C143 C 0.78686 0.29453 0.67205 0.0
C144 C 0.80607 0.3046 0.57493 0.0
C145 C 0.77833 0.30372 0.6185 0.0
C146 C 0.85117 0.28659 0.63845 0.0
C147 C 0.79815 0.15589 0.42391 0.0
C148 C 0.87136 0.29571 0.538 0.0
C149 C 0.0452 0.35856 0.39767 0.0
C150 C 0.04027 0.31533 0.4107 0.0
C151 C 0.74549 0.22006 0.42498 0.0
C152 C 0.81528 0.18094 0.16868 0.0
C153 C 0.8481 0.20068 0.07555 0.0
C154 C 0.88122 0.18834 0.09108 0.0
C155 C 0.84819 0.16812 0.18278 0.0
C156 C 0.81542 0.19726 0.11509 0.0
C157 C 0.88115 0.17219 0.14425 0.0
C158 C 0.81762 0.29718 0.33643 0.0
C159 C 0.78083 0.17779 0.20935 0.0
H160 H 0.76425 0.29341 0.70484 0.0
H161 H 0.79904 0.31214 0.53386 0.0
H162 H 0.74998 0.31008 0.6107 0.0
H163 H 0.87965 0.2803 0.64582 0.0
H164 H 0.90742 0.19142 0.06219 0.0
H165 H 0.84879 0.15552 0.22377 0.0
H166 H 0.78947 0.20638 0.10399 0.0
H167 H 0.90686 0.1629 0.15569 0.0
Tb168 Tb 0.58365 0.73327 0.59587 0.0
C169 C 0.59583 0.90865 0.7281 0.0
N170 N 0.62907 0.89696 0.72041 0.0
C171 C 0.68628 0.97697 0.7067 0.0
C172 C 0.60655 0.95524 0.72537 0.0
C173 C 0.67402 0.93027 0.71033 0.0
C174 C 0.65239 0.98952 0.71415 0.0
C175 C 0.51548 0.88429 0.74862 0.0
C176 C 0.55089 0.87368 0.73938 0.0
C177 C 0.52591 0.93067 0.74585 0.0
C178 C 0.57131 0.96604 0.73415 0.0
Tb179 Tb 0.60452 0.8198 0.7267 0.0
N180 N 0.54187 0.82908 0.74031 0.0
C181 C 0.47067 0.84791 0.76016 0.0
C182 C 0.49862 0.79363 0.75331 0.0
C183 C 0.4623 0.80244 0.76281 0.0
H184 H 0.70053 0.92088 0.7055 0.0
H185 H 0.42791 0.77417 0.77244 0.0
H186 H 0.5014 0.62636 0.62743 0.0
H187 H 0.76735 0.80871 0.55421 0.0
H188 H 0.49183 0.75857 0.75645 0.0
H189 H 0.44244 0.85458 0.76748 0.0
H190 H 0.69469 0.80978 0.56555 0.0
H191 H 0.72187 0.00326 0.69839 0.0
H192 H 0.49913 0.93954 0.75267 0.0
H193 H 0.57883 1.00165 0.7322 0.0
H194 H 0.49515 0.54983 0.63918 0.0
H195 H 0.66204 0.02573 0.71153 0.0
H196 H 0.76782 0.73503 0.56405 0.0
N197 N 0.57351 0.66106 0.60856 0.0
C198 C 0.61188 0.65722 0.60124 0.0
C199 C 0.52821 0.57977 0.6286 0.0
C200 C 0.60984 0.61415 0.6071 0.0
C201 C 0.53195 0.62325 0.62235 0.0
C202 C 0.56727 0.57514 0.6208 0.0
N203 N 0.65437 0.73829 0.58595 0.0
C204 C 0.69434 0.77781 0.57213 0.0
C205 C 0.69433 0.69461 0.58199 0.0
C206 C 0.65363 0.69706 0.58924 0.0
C207 C 0.73576 0.73543 0.56994 0.0
C208 C 0.73566 0.77712 0.56468 0.0
H209 H 0.56424 0.54141 0.62566 0.0
H210 H 0.64943 0.57872 0.60364 0.0
H211 H 0.72324 0.64905 0.5813 0.0
O212 O 0.59181 0.75214 0.51211 0.0
O213 O 0.61466 0.72479 0.67148 0.0
O214 O 0.65445 0.79942 0.7008 0.0
O215 O 0.53861 0.6843 0.53765 0.0
O216 O 0.62034 0.80881 0.58083 0.0
O217 O 0.65758 0.84096 0.66276 0.0
O218 O 0.59492 0.79023 0.80574 0.0
O219 O 0.56164 0.82256 0.65831 0.0
O220 O 0.5307 0.75075 0.6171 0.0
O221 O 0.64741 0.86127 0.79148 0.0
O222 O 0.558 0.74474 0.73909 0.0
O223 O 0.52586 0.70805 0.65507 0.0
C224 C 0.6447 0.75632 0.70512 0.0
C225 C 0.57142 0.69128 0.4486 0.0
C226 C 0.58651 0.69298 0.34959 0.0
C227 C 0.59313 0.65477 0.35627 0.0
C228 C 0.57814 0.65312 0.45436 0.0
C229 C 0.58904 0.63512 0.40837 0.0
C230 C 0.57569 0.711 0.39622 0.0
C231 C 0.64902 0.845 0.61072 0.0
C232 C 0.55965 0.71122 0.496 0.0
C233 C 0.65028 0.61153 0.59956 0.0
C234 C 0.69238 0.65163 0.58695 0.0
C235 C 0.53507 0.79204 0.62067 0.0
C236 C 0.61134 0.84256 0.87928 0.0
C237 C 0.59758 0.83367 0.97878 0.0
C238 C 0.58443 0.86772 0.97704 0.0
C239 C 0.59828 0.87661 0.87867 0.0
C240 C 0.61069 0.821 0.92939 0.0
C241 C 0.58473 0.8889 0.92728 0.0
C242 C 0.52735 0.70892 0.70978 0.0
C243 C 0.62577 0.82911 0.8283 0.0
H244 H 0.60197 0.64039 0.32136 0.0
H245 H 0.57475 0.63704 0.4941 0.0
H246 H 0.5943 0.60577 0.4131 0.0
H247 H 0.56981 0.74004 0.39174 0.0
H248 H 0.57351 0.87774 0.01412 0.0
H249 H 0.59877 0.89392 0.84087 0.0
H250 H 0.62123 0.79505 0.93002 0.0
H251 H 0.57455 0.91507 0.92641 0.0
Tb252 Tb 0.73155 0.57084 0.11842 0.0
C253 C 0.87945 0.54315 0.98457 0.0
N254 N 0.88219 0.58421 0.99702 0.0
C255 C 0.96221 0.61646 0.02234 0.0
C256 C 0.91794 0.53681 0.99159 0.0
C257 C 0.92301 0.62096 0.01473 0.0
C258 C 0.95962 0.5741 1.01103 0.0
C259 C 0.83324 0.46415 0.95171 0.0
C260 C 0.83742 0.5072 0.96579 0.0
C261 C 0.87127 0.45733 0.95925 0.0
C262 C 0.91351 0.49357 0.97922 0.0
Tb263 Tb 0.81603 0.58783 0.9852 0.0
N264 N 0.80122 0.51501 0.95963 0.0
C265 C 0.79144 0.42973 0.92894 0.0
C266 C 0.76232 0.4831 0.93211 0.0
C267 C 0.75621 0.43965 0.918 0.0
H268 H 0.92557 0.65402 0.02167 0.0
H269 H 0.72477 0.41429 0.89731 0.0
H270 H 0.6245 0.49527 0.078 0.0
H271 H 0.81235 0.75115 0.18199 0.0
H272 H 0.73666 0.49124 0.91822 0.0
H273 H 0.78682 0.39623 0.91739 0.0
H274 H 0.8102 0.67799 0.16368 0.0
H275 H 0.99446 0.64575 0.03659 0.0
H276 H 0.86857 0.4244 0.94897 0.0
H277 H 0.94263 0.48793 0.98448 0.0
H278 H 0.55059 0.49438 0.06425 0.0
H279 H 0.99001 0.57066 0.01698 0.0
H280 H 0.74169 0.75689 0.16979 0.0
N281 N 0.6615 0.56578 0.10405 0.0
C282 C 0.65949 0.60465 0.11559 0.0
C283 C 0.58101 0.52567 0.07853 0.0
C284 C 0.61796 0.6056 0.10864 0.0
C285 C 0.62307 0.52643 0.08585 0.0
C286 C 0.5784 0.5654 0.09 0.0
N287 N 0.73977 0.64224 0.13631 0.0
C288 C 0.77946 0.67977 0.15556 0.0
C289 C 0.69946 0.68549 0.1434 0.0
C290 C 0.69991 0.64417 0.13225 0.0
C291 C 0.74062 0.72452 0.16066 0.0
C292 C 0.78064 0.72148 0.16723 0.0
H293 H 0.5458 0.56472 0.08415 0.0
H294 H 0.58578 0.64801 0.11474 0.0
H295 H 0.65721 0.71808 0.14517 0.0
O296 O 0.7467 0.57354 0.20445 0.0
O297 O 0.72589 0.6071 0.04615 0.0
O298 O 0.79939 0.64077 0.01179 0.0
O299 O 0.67959 0.52277 0.17074 0.0
O300 O 0.80728 0.60849 0.13203 0.0
O301 O 0.84432 0.64245 0.04905 0.0
O302 O 0.80212 0.58968 0.8998 0.0
O303 O 0.82251 0.55125 0.05786 0.0
O304 O 0.74909 0.51911 0.09156 0.0
O305 O 0.86985 0.63684 0.93495 0.0
O306 O 0.74002 0.5518 0.9732 0.0
O307 O 0.7064 0.51529 0.05599 0.0
C308 C 0.75759 0.63536 1.01132 0.0
C309 C 0.68777 0.51868 0.2698 0.0
C310 C 0.69587 0.51792 0.37049 0.0
C311 C 0.65215 0.47722 0.37268 0.0
C312 C 0.64432 0.4779 0.27372 0.0
C313 C 0.62674 0.45748 0.32473 0.0
C314 C 0.71351 0.53879 0.31855 0.0
C315 C 0.84451 0.63738 0.10328 0.0
C316 C 0.7052 0.53909 0.2145 0.0
C317 C 0.61741 0.64669 0.11974 0.0
C318 C 0.65805 0.68653 0.13705 0.0
C319 C 0.79064 0.52431 0.09358 0.0
C320 C 0.86187 0.64516 0.83632 0.0
C321 C 0.85323 0.64852 0.73599 0.0
C322 C 0.89737 0.68873 0.73434 0.0
C323 C 0.90575 0.68539 0.83301 0.0
C324 C 0.83564 0.62673 0.78749 0.0
C325 C 0.92325 0.70691 0.78242 0.0
C326 C 0.70446 0.5204 1.0021 0.0
C327 C 0.84419 0.62334 0.89095 0.0
H328 H 0.63717 0.4608 0.41176 0.0
H329 H 0.62372 0.46157 0.23721 0.0
H330 H 0.59314 0.42617 0.32714 0.0
H331 H 0.74717 0.57007 0.31606 0.0
H332 H 0.91241 0.70583 0.6956 0.0
H333 H 0.92668 0.70041 0.86965 0.0
H334 H 0.80164 0.59585 0.78962 0.0
H335 H 0.95721 0.73778 0.78041 0.0
Tb336 Tb 0.26295 0.82914 0.278 0.0
C337 C 0.13159 0.65337 0.41604 0.0
N338 N 0.12334 0.68803 0.40185 0.0
C339 C 0.04564 0.63196 0.37486 0.0
C340 C 0.09732 0.60639 0.40904 0.0
C341 C 0.08082 0.67804 0.38244 0.0
C342 C 0.05398 0.59595 0.38794 0.0
C343 C 0.18461 0.63049 0.45308 0.0
C344 C 0.17498 0.66546 0.43666 0.0
C345 C 0.15099 0.58357 0.44522 0.0
C346 C 0.10746 0.57154 0.42313 0.0
Tb347 Tb 0.18315 0.76222 0.41445 0.0
N348 N 0.20663 0.71132 0.44365 0.0
C349 C 0.22695 0.64367 0.47902 0.0
C350 C 0.24522 0.72352 0.4751 0.0
C351 C 0.25688 0.69036 0.49129 0.0
H352 H 0.07408 0.70565 0.37306 0.0
H353 H 0.28826 0.70072 0.51477 0.0
H354 H 0.37084 0.86002 0.31446 0.0
H355 H 0.18385 0.92946 0.2132 0.0
H356 H 0.26623 0.7583 0.49034 0.0
H357 H 0.23567 0.61794 0.49241 0.0
H358 H 0.18444 0.8583 0.23562 0.0
H359 H 0.0121 0.62427 0.35905 0.0
H360 H 0.15795 0.5563 0.4572 0.0
H361 H 0.08169 0.53522 0.4178 0.0
H362 H 0.44603 0.9326 0.32323 0.0
H363 H 0.02672 0.56028 0.38191 0.0
H364 H 0.25632 0.00537 0.21837 0.0
N365 N 0.33426 0.89373 0.28816 0.0
C366 C 0.33707 0.93453 0.27419 0.0
C367 C 0.41559 0.93366 0.30968 0.0
C368 C 0.37946 0.9768 0.27793 0.0
C369 C 0.37276 0.89263 0.30541 0.0
C370 C 0.41899 0.97595 0.29591 0.0
N371 N 0.25613 0.89263 0.2576 0.0
C372 C 0.21615 0.89072 0.24029 0.0
C373 C 0.29805 0.9758 0.24482 0.0
C374 C 0.29676 0.93398 0.25822 0.0
C375 C 0.25679 0.97404 0.22908 0.0
C376 C 0.21577 0.93128 0.22646 0.0
H377 H 0.45221 0.00768 0.29935 0.0
H378 H 0.41314 0.0513 0.26687 0.0
H379 H 0.34194 0.05042 0.23761 0.0
O380 O 0.24399 0.81174 0.19325 0.0
O381 O 0.26811 0.87327 0.34793 0.0
O382 O 0.19745 0.83198 0.39148 0.0
O383 O 0.31312 0.83218 0.22374 0.0
O384 O 0.18687 0.79183 0.26776 0.0
O385 O 0.15141 0.78656 0.35296 0.0
O386 O 0.19297 0.77662 0.50031 0.0
O387 O 0.17384 0.71972 0.34024 0.0
O388 O 0.24697 0.76115 0.30757 0.0
O389 O 0.12585 0.75269 0.46176 0.0
O390 O 0.25935 0.80641 0.42395 0.0
O391 O 0.28933 0.80042 0.34038 0.0
C392 C 0.23815 0.86973 0.38571 0.0
C393 C 0.30135 0.81417 0.12637 0.0
C394 C 0.2911 0.80238 0.02632 0.0
C395 C 0.33379 0.80334 0.02364 0.0
C396 C 0.34375 0.81476 0.12211 0.0
C397 C 0.35976 0.80942 0.07115 0.0
C398 C 0.27503 0.80803 0.07815 0.0
C399 C 0.15057 0.7836 0.29837 0.0
C400 C 0.28553 0.81965 0.18154 0.0
C401 C 0.38089 0.01847 0.26435 0.0
C402 C 0.34031 0.01797 0.24776 0.0
C403 C 0.20565 0.72464 0.30474 0.0
C404 C 0.12981 0.76736 0.5607 0.0
C405 C 0.13541 0.7773 0.66121 0.0
C406 C 0.09122 0.77312 0.66141 0.0
C407 C 0.08567 0.76307 0.56233 0.0
C408 C 0.15456 0.77433 0.61042 0.0
C409 C 0.06662 0.76599 0.61235 0.0
C410 C 0.29405 0.81032 0.39359 0.0
C411 C 0.14993 0.76552 0.50695 0.0
H412 H 0.34757 0.80002 0.98452 0.0
H413 H 0.3647 0.81923 0.15831 0.0
H414 H 0.39255 0.81012 0.06843 0.0
H415 H 0.24216 0.80723 0.08099 0.0
H416 H 0.07525 0.77454 0.69971 0.0
H417 H 0.0659 0.7578 0.52482 0.0
H418 H 0.18874 0.77788 0.60958 0.0
H419 H 0.03256 0.76262 0.61312 0.0
Tb420 Tb 0.41643 0.16299 0.76487 0.0
C421 C 0.40051 0.32943 0.64808 0.0
N422 N 0.37517 0.28247 0.64393 0.0
C423 C 0.30467 0.28555 0.64664 0.0
C424 C 0.37882 0.35627 0.65373 0.0
C425 C 0.32779 0.26048 0.64056 0.0
C426 C 0.33027 0.33359 0.65401 0.0
C427 C 0.476 0.39958 0.64663 0.0
C428 C 0.44839 0.35085 0.6443 0.0
C429 C 0.45467 0.42642 0.65402 0.0
C430 C 0.40618 0.40481 0.65758 0.0
Tb431 Tb 0.41755 0.24595 0.63623 0.0
N432 N 0.46786 0.32385 0.63738 0.0
C433 C 0.52416 0.41983 0.64087 0.0
C434 C 0.51465 0.34336 0.63017 0.0
C435 C 0.54352 0.39158 0.63221 0.0
H436 H 0.30762 0.22342 0.63384 0.0
H437 H 0.58065 0.40693 0.62715 0.0
H438 H 0.48542 0.12035 0.72867 0.0
H439 H 0.23904 0.07722 0.8364 0.0
H440 H 0.52979 0.32178 0.62346 0.0
H441 H 0.54662 0.45715 0.64245 0.0
H442 H 0.31659 0.14417 0.81847 0.0
H443 H 0.26714 0.26783 0.64534 0.0
H444 H 0.47531 0.46391 0.65627 0.0
H445 H 0.39016 0.426 0.66232 0.0
H446 H 0.47574 0.04425 0.70533 0.0
H447 H 0.31226 0.35293 0.65842 0.0
H448 H 0.22241 0.9978 0.81427 0.0
N449 N 0.41342 0.09419 0.74446 0.0
C450 C 0.37149 0.0553 0.75252 0.0
C451 C 0.44593 0.04692 0.71769 0.0
C452 C 0.36475 0.01075 0.74142 0.0
C453 C 0.45101 0.0903 0.72973 0.0
C454 C 0.40249 0.007 0.7228 0.0
N455 N 0.34319 0.10365 0.78326 0.0
C456 C 0.30964 0.10999 0.80719 0.0
C457 C 0.29168 0.02071 0.78369 0.0
C458 C 0.33544 0.0601 0.77357 0.0
C459 C 0.25651 0.02716 0.80581 0.0
C460 C 0.2657 0.07196 0.81812 0.0
H461 H 0.39877 0.97343 0.71385 0.0
H462 H 0.31507 0.93692 0.74177 0.0
H463 H 0.25106 0.94566 0.7787 0.0
O464 O 0.41415 0.17731 0.85033 0.0
O465 O 0.36066 0.13136 0.70276 0.0
O466 O 0.404 0.1749 0.63133 0.0
O467 O 0.45356 0.14582 0.82065 0.0
O468 O 0.38779 0.2085 0.77915 0.0
O469 O 0.35924 0.20845 0.69302 0.0
O470 O 0.44485 0.26546 0.55609 0.0
O471 O 0.45341 0.2828 0.71239 0.0
O472 O 0.47498 0.23314 0.75128 0.0
O473 O 0.37137 0.22078 0.56887 0.0
O474 O 0.4782 0.23645 0.63555 0.0
O475 O 0.47014 0.17933 0.69975 0.0
C476 C 0.36717 0.1379 0.64945 0.0
C477 C 0.45559 0.15741 0.91968 0.0
C478 C 0.46131 0.17464 0.01879 0.0
C479 C 0.48536 0.15026 0.02576 0.0
C480 C 0.47997 0.13364 0.92824 0.0
C481 C 0.49458 0.13005 0.98087 0.0
C482 C 0.44605 0.17776 0.96531 0.0
C483 C 0.36235 0.21777 0.74598 0.0
C484 C 0.44054 0.16024 0.86298 0.0
C485 C 0.32095 0.97139 0.75035 0.0
C486 C 0.28451 0.97635 0.77151 0.0
C487 C 0.47521 0.27275 0.75074 0.0
C488 C 0.39504 0.26354 0.48501 0.0
C489 C 0.39544 0.27222 0.38464 0.0
C490 C 0.37527 0.30024 0.39145 0.0
C491 C 0.37542 0.29195 0.49097 0.0
C492 C 0.40519 0.25403 0.43194 0.0
C493 C 0.36557 0.31014 0.44429 0.0
C494 C 0.49055 0.20757 0.65689 0.0
C495 C 0.40434 0.24209 0.53273 0.0
H496 H 0.49663 0.14622 0.06625 0.0
H497 H 0.48764 0.11748 0.89419 0.0
H498 H 0.51306 0.11137 0.98694 0.0
H499 H 0.42757 0.19646 0.95914 0.0
H500 H 0.36763 0.31506 0.35602 0.0
H501 H 0.36749 0.29985 0.5314 0.0
H502 H 0.41995 0.23166 0.42749 0.0
H503 H 0.35033 0.33199 0.44905 0.0
H504 H 0.40193 0.30849 0.77455 0.0
H505 H 0.18609 0.2833 0.94095 0.0
H506 H 0.27075 0.18064 0.77133 0.0
H507 H 0.28424 0.41223 0.86365 0.0
H508 H 0.22122 0.24419 0.89091 0.0
H509 H 0.36393 0.34718 0.81824 0.0
C510 C 0.36503 0.28873 0.78288 0.0
C511 C 0.33915 0.24159 0.76916 0.0
C512 C 0.23485 0.28099 0.88483 0.0
C513 C 0.29594 0.28492 0.82054 0.0
C514 C 0.21507 0.30325 0.9135 0.0
C515 C 0.23249 0.35091 0.90627 0.0
C516 C 0.27281 0.30687 0.84974 0.0
C517 C 0.26982 0.37534 0.87006 0.0
C518 C 0.34341 0.31073 0.80772 0.0
C519 C 0.2916 0.2172 0.78113 0.0
N520 N 0.28912 0.35316 0.84355 0.0
N521 N 0.27148 0.23904 0.80681 0.0
H522 H 0.11983 0.31316 0.11229 0.0
H523 H 0.88102 0.2812 0.2308 0.0
H524 H 0.03996 0.36773 0.03615 0.0
H525 H 0.95561 0.22355 0.31147 0.0
H526 H 0.9373 0.30861 0.15589 0.0
H527 H 0.05911 0.27584 0.18268 0.0
C528 C 0.08945 0.317 0.11001 0.0
C529 C 0.08517 0.34383 0.06822 0.0
C530 C 0.94164 0.28996 0.18977 0.0
C531 C 0.01563 0.30118 0.14843 0.0
C532 C 0.9095 0.27453 0.23258 0.0
C533 C 0.91396 0.25048 0.27708 0.0
C534 C 0.97919 0.2819 0.19185 0.0
C535 C 0.95104 0.24184 0.27737 0.0
C536 C 0.05482 0.29568 0.15022 0.0
C537 C 0.045 0.34754 0.06741 0.0
N538 N 0.98258 0.25784 0.23545 0.0
N539 N 0.01204 0.32666 0.10687 0.0
H540 H 0.73069 0.12323 0.50213 0.0
H541 H 0.73767 0.89306 0.57 0.0
H542 H 0.81637 0.08486 0.40867 0.0
H543 H 0.61351 0.90124 0.59113 0.0
H544 H 0.77432 0.9687 0.52295 0.0
H545 H 0.69437 0.04733 0.54802 0.0
C546 C 0.7419 0.09879 0.49146 0.0
C547 C 0.77635 0.11009 0.45145 0.0
C548 C 0.73907 0.95388 0.53795 0.0
C549 C 0.73556 0.02367 0.50425 0.0
C550 C 0.71824 0.91087 0.5648 0.0
C551 C 0.67256 0.89105 0.58415 0.0
C552 C 0.71436 0.9776 0.53176 0.0
C553 C 0.64882 0.91548 0.5766 0.0
C554 C 0.72105 0.0555 0.51739 0.0
C555 C 0.78961 0.07722 0.43898 0.0
N556 N 0.67013 0.95771 0.5515 0.0
N557 N 0.76945 0.03558 0.46559 0.0
H558 H 0.60399 0.67087 0.75174 0.0
H559 H 0.81331 0.7063 0.93982 0.0
H560 H 0.72591 0.80675 0.7642 0.0
H561 H 0.66992 0.61469 0.98403 0.0
H562 H 0.7873 0.73928 0.8664 0.0
H563 H 0.63301 0.64448 0.82763 0.0
C564 C 0.63703 0.69518 0.77036 0.0
C565 C 0.66264 0.74112 0.75164 0.0
C566 C 0.7618 0.71224 0.89268 0.0
C567 C 0.69633 0.71076 0.83827 0.0
C568 C 0.77653 0.69332 0.93437 0.0
C569 C 0.74379 0.65773 0.96827 0.0
C570 C 0.71408 0.69458 0.88421 0.0
C571 C 0.69652 0.64215 0.95922 0.0
C572 C 0.65344 0.6801 0.81386 0.0
C573 C 0.70509 0.77111 0.77764 0.0
N574 N 0.68315 0.66029 0.91781 0.0
N575 N 0.72096 0.75527 0.81942 0.0
H576 H 0.13233 0.76937 0.18724 0.0
H577 H 0.86354 0.62704 0.21063 0.0
H578 H 0.06739 0.7685 0.34179 0.0
H579 H 0.9255 0.71454 0.06837 0.0
H580 H 0.93792 0.66964 0.25891 0.0
H581 H 0.05758 0.74079 0.14083 0.0
C582 C 0.10255 0.76335 0.21158 0.0
C583 C 0.10622 0.77037 0.26904 0.0
C584 C 0.93504 0.67952 0.21717 0.0
C585 C 0.02036 0.73679 0.21583 0.0
C586 C 0.89262 0.65525 0.18944 0.0
C587 C 0.8884 0.66621 0.13451 0.0
C588 C 0.97387 0.71441 0.18957 0.0
C589 C 0.92745 0.70357 0.10978 0.0
C590 C 0.05993 0.74713 0.18487 0.0
C591 C 0.06618 0.76231 0.29785 0.0
N592 N 0.96883 0.72567 0.13701 0.0
N593 N 0.02473 0.74502 0.27118 0.0
H594 H 0.29196 0.05034 0.66968 0.0
H595 H 0.30856 0.9588 0.37107 0.0
H596 H 0.38318 0.13596 0.53966 0.0
H597 H 0.19885 0.87333 0.48457 0.0
H598 H 0.33475 0.02373 0.43367 0.0
H599 H 0.25597 0.98491 0.60469 0.0
C600 C 0.30446 0.05546 0.62769 0.0
C601 C 0.34141 0.09858 0.61064 0.0
C602 C 0.30466 0.99099 0.44499 0.0
C603 C 0.29997 0.0242 0.53592 0.0
C604 C 0.28955 0.95365 0.40893 0.0
C605 C 0.25126 0.91033 0.42216 0.0
C606 C 0.2819 0.98524 0.49557 0.0
C607 C 0.22838 0.90617 0.47243 0.0
C608 C 0.28369 0.01817 0.59051 0.0
C609 C 0.35528 0.1034 0.5552 0.0
N610 N 0.24432 0.94306 0.50762 0.0
N611 N 0.33485 0.06673 0.52019 0.0
H612 H 0.22784 0.45038 0.65057 0.0
H613 H 0.16323 0.41739 0.32789 0.0
H614 H 0.13972 0.4948 0.57359 0.0
H615 H 0.24433 0.36556 0.40698 0.0
H616 H 0.15836 0.45038 0.4164 0.0
H617 H 0.23578 0.42065 0.5613 0.0
C618 C 0.20983 0.45357 0.61513 0.0
C619 C 0.18322 0.47539 0.61989 0.0
C620 C 0.17713 0.43168 0.41434 0.0
C621 C 0.1928 0.442 0.517 0.0
C622 C 0.18034 0.41324 0.36363 0.0
C623 C 0.20381 0.38816 0.35984 0.0
C624 C 0.19737 0.4249 0.46178 0.0
C625 C 0.22496 0.38369 0.40794 0.0
C626 C 0.2147 0.43691 0.56397 0.0
C627 C 0.16126 0.479 0.57201 0.0
N628 N 0.22103 0.40158 0.45675 0.0
N629 N 0.1666 0.46263 0.52277 0.0
H630 H 0.83362 0.27103 0.04035 0.0
H631 H 0.84748 0.22231 0.71843 0.0
H632 H 0.86043 0.16506 0.97904 0.0
H633 H 0.81876 0.32713 0.77931 0.0
H634 H 0.85653 0.20376 0.8136 0.0
H635 H 0.8308 0.29403 0.94516 0.0
C636 C 0.83872 0.25245 1.00692 0.0
C637 C 0.84714 0.21592 0.01791 0.0
C638 C 0.84832 0.23088 0.80613 0.0
C639 C 0.84416 0.24225 0.90857 0.0
C640 C 0.84349 0.24176 0.75168 0.0
C641 C 0.83197 0.27614 0.74057 0.0
C642 C 0.84158 0.25449 0.85005 0.0
C643 C 0.82675 0.29975 0.7857 0.0
C644 C 0.83732 0.26575 0.95253 0.0
C645 C 0.8543 0.19371 0.97276 0.0
N646 N 0.83142 0.28839 0.83826 0.0
N647 N 0.85246 0.20707 0.92026 0.0
H648 H 0.62861 0.78522 0.32291 0.0
H649 H 0.56593 0.74161 1.0009 0.0
H650 H 0.55378 0.64868 0.25005 0.0
H651 H 0.63005 0.87638 0.07853 0.0
H652 H 0.5646 0.70688 0.09039 0.0
H653 H 0.63274 0.81918 0.23245 0.0
C654 C 0.61285 0.76235 0.28791 0.0
C655 C 0.59058 0.71399 0.29425 0.0
C656 C 0.57916 0.74406 0.08779 0.0
C657 C 0.59536 0.75274 0.19017 0.0
C658 C 0.58009 0.76393 0.03666 0.0
C659 C 0.59793 0.81197 0.03224 0.0
C660 C 0.59657 0.77246 0.13479 0.0
C661 C 0.61536 0.83913 0.08011 0.0
C662 C 0.61537 0.78178 0.23617 0.0
C663 C 0.57157 0.68614 0.2471 0.0
N664 N 0.61425 0.81903 0.12925 0.0
N665 N 0.57416 0.7059 0.19716 0.0
H666 H 0.84426 0.69637 0.64904 0.0
H667 H 0.707 0.47154 0.45695 0.0
H668 H 0.80251 0.5573 0.70236 0.0
H669 H 0.7436 0.60942 0.40432 0.0
H670 H 0.74282 0.50279 0.54633 0.0
H671 H 0.808 0.66562 0.55954 0.0
C672 C 0.8274 0.6593 0.64203 0.0
C673 C 0.82689 0.62946 0.68342 0.0
C674 C 0.74316 0.52633 0.51533 0.0
C675 C 0.78475 0.59388 0.5806 0.0
C676 C 0.72264 0.5085 0.46415 0.0
C677 C 0.72193 0.53782 0.42297 0.0
C678 C 0.76338 0.57405 0.52587 0.0
C679 C 0.74356 0.58553 0.43457 0.0
C680 C 0.80657 0.64176 0.59082 0.0
C681 C 0.80359 0.58166 0.67205 0.0
N682 N 0.76319 0.60211 0.48497 0.0
N683 N 0.78372 0.56544 0.62173 0.0
H684 H 0.14488 0.83467 0.74774 0.0
H685 H 0.27574 0.74181 0.94177 0.0
H686 H 0.18262 0.73402 0.6961 0.0
H687 H 0.24637 0.84872 0.99202 0.0
H688 H 0.23954 0.73712 0.85273 0.0
H689 H 0.18083 0.83999 0.83754 0.0
C690 C 0.16075 0.81367 0.75529 0.0
C691 C 0.16047 0.78363 0.71432 0.0
C692 C 0.24086 0.76158 0.88315 0.0
C693 C 0.20163 0.78945 0.81734 0.0
C694 C 0.26159 0.76432 0.9341 0.0
C695 C 0.26453 0.79604 0.9744 0.0
C696 C 0.22267 0.7907 0.87203 0.0
C697 C 0.24469 0.8236 0.96237 0.0
C698 C 0.18134 0.81679 0.80658 0.0
C699 C 0.18225 0.75786 0.7262 0.0
N700 N 0.22484 0.82048 0.91218 0.0
N701 N 0.20166 0.76117 0.77663 0.0
H702 H 0.47409 0.27255 0.35097 0.0
H703 H 0.38131 0.17531 0.04723 0.0
H704 H 0.342 0.24862 0.29038 0.0
H705 H 0.52104 0.22235 0.10319 0.0
H706 H 0.36572 0.20281 0.13431 0.0
H707 H 0.49098 0.25356 0.25982 0.0
C708 C 0.44854 0.26317 0.31849 0.0
C709 C 0.40645 0.26196 0.32855 0.0
C710 C 0.39987 0.20736 0.12727 0.0
C711 C 0.42569 0.24028 0.22343 0.0
C712 C 0.40888 0.19195 0.07741 0.0
C713 C 0.45238 0.19593 0.06806 0.0
C714 C 0.43459 0.22681 0.16807 0.0
C715 C 0.48666 0.21755 0.10894 0.0
C716 C 0.45833 0.25261 0.26624 0.0
C717 C 0.37502 0.25028 0.28444 0.0
N718 N 0.47692 0.23174 0.1571 0.0
N719 N 0.38511 0.23958 0.23395 0.0
H720 H 0.2145 0.57457 0.01799 0.0
H721 H 0.12991 0.63634 0.29653 0.0
H722 H 0.14068 0.47087 0.14261 0.0
H723 H 0.26041 0.72986 0.21833 0.0
H724 H 0.11824 0.57626 0.2291 0.0
H725 H 0.21504 0.63345 0.07934 0.0
C726 C 0.19764 0.56406 0.0578 0.0
C727 C 0.17781 0.51793 0.07552 0.0
C728 C 0.14918 0.61017 0.22672 0.0
C729 C 0.17803 0.58481 0.14539 0.0
C730 C 0.15594 0.64439 0.26518 0.0
C731 C 0.19635 0.68819 0.2634 0.0
C732 C 0.18247 0.62037 0.18539 0.0
C733 C 0.22868 0.69677 0.22133 0.0
C734 C 0.19824 0.59766 0.09284 0.0
C735 C 0.1567 0.50622 0.1277 0.0
N736 N 0.22095 0.6633 0.1839 0.0
N737 N 0.15736 0.53948 0.16092 0.0
H738 H 0.663 0.14014 0.44514 0.0
H739 H 0.49709 0.1311 0.63036 0.0
H740 H 0.73495 0.28773 0.47438 0.0
H741 H 0.56979 0.28 0.61541 0.0
H742 H 0.55664 0.12876 0.57433 0.0
H743 H 0.5992 0.13181 0.50284 0.0
C744 C 0.66537 0.17079 0.4639 0.0
C745 C 0.70482 0.21459 0.456 0.0
C746 C 0.55975 0.16205 0.58284 0.0
C747 C 0.63249 0.20539 0.52375 0.0
C748 C 0.52617 0.1634 0.61623 0.0
C749 C 0.52888 0.20585 0.62838 0.0
C750 C 0.59608 0.20358 0.56091 0.0
C751 C 0.56629 0.24651 0.60698 0.0
C752 C 0.62913 0.16598 0.49769 0.0
C753 C 0.70592 0.25314 0.48086 0.0
N754 N 0.59832 0.24435 0.57442 0.0
N755 N 0.67046 0.24761 0.51363 0.0
H756 H 0.26235 0.5344 0.86464 0.0
H757 H 0.43909 0.64786 0.67379 0.0
H758 H 0.35906 0.50732 0.95252 0.0
H759 H 0.5282 0.68286 0.8164 0.0
H760 H 0.37444 0.58969 0.72895 0.0
H761 H 0.32387 0.58379 0.80081 0.0
C762 C 0.29647 0.53858 0.87039 0.0
C763 C 0.30542 0.5165 0.91404 0.0
C764 C 0.40811 0.61028 0.74818 0.0
C765 C 0.37624 0.57302 0.84052 0.0
C766 C 0.44513 0.64311 0.71657 0.0
C767 C 0.48891 0.67067 0.74075 0.0
C768 C 0.41505 0.60478 0.80424 0.0
C769 C 0.49479 0.66286 0.79638 0.0
C770 C 0.33153 0.5665 0.83349 0.0
C771 C 0.35055 0.5236 0.91947 0.0
N772 N 0.45827 0.63061 0.82627 0.0
N773 N 0.38448 0.55174 0.88348 0.0
H774 H 0.77799 0.34889 0.36693 0.0
H775 H 0.86448 0.50887 0.09672 0.0
H776 H 0.86286 0.33717 0.24117 0.0
H777 H 0.73797 0.47594 0.18223 0.0
H778 H 0.87621 0.45913 0.16128 0.0
H779 H 0.77534 0.40967 0.31169 0.0
C780 C 0.79668 0.35967 0.32823 0.0
C781 C 0.82033 0.33777 0.30821 0.0
C782 C 0.84604 0.46309 0.16598 0.0
C783 C 0.81777 0.40691 0.24538 0.0
C784 C 0.83928 0.49142 0.12907 0.0
C785 C 0.79985 0.49615 0.13347 0.0
C786 C 0.8136 0.44003 0.20825 0.0
C787 C 0.76865 0.47302 0.17686 0.0
C788 C 0.7949 0.39398 0.29662 0.0
C789 C 0.8437 0.35265 0.25767 0.0
N790 N 0.77617 0.446 0.21253 0.0
N791 N 0.84187 0.38623 0.22801 0.0
H792 H 0.34995 0.77633 0.36237 0.0
H793 H 0.51115 0.86032 0.63167 0.0
H794 H 0.33252 0.85605 0.49075 0.0
H795 H 0.48828 0.74473 0.52908 0.0
H796 H 0.45636 0.87068 0.57379 0.0
H797 H 0.4128 0.77742 0.41536 0.0
C798 C 0.35983 0.79469 0.40139 0.0
C799 C 0.33576 0.81584 0.42242 0.0
C800 C 0.46351 0.84312 0.56416 0.0
C801 C 0.40757 0.8169 0.48363 0.0
C802 C 0.49468 0.83712 0.59724 0.0
C803 C 0.50368 0.801 0.58602 0.0
C804 C 0.44216 0.81344 0.51893 0.0
C805 C 0.48191 0.77256 0.54004 0.0
C806 C 0.3955 0.795 0.43184 0.0
C807 C 0.35002 0.83899 0.47336 0.0
N808 N 0.45233 0.77941 0.50833 0.0
N809 N 0.38489 0.83872 0.50247 0.0
H810 H 0.66995 0.53266 0.90567 0.0
H811 H 0.51698 0.26291 0.84293 0.0
H812 H 0.6477 0.42822 0.02594 0.0
H813 H 0.5012 0.36538 0.7517 0.0
H814 H 0.56731 0.32307 0.90839 0.0
H815 H 0.6101 0.4724 0.84702 0.0
C816 C 0.65197 0.49705 0.91999 0.0
C817 C 0.6638 0.48531 0.97061 0.0
C818 C 0.55274 0.33236 0.87411 0.0
C819 C 0.59596 0.41613 0.90334 0.0
C820 C 0.52418 0.29807 0.83642 0.0
C821 C 0.5053 0.30913 0.79103 0.0
C822 C 0.56311 0.37832 0.86614 0.0
C823 C 0.51543 0.35527 0.78546 0.0
C824 C 0.61785 0.46271 0.88653 0.0
C825 C 0.63944 0.43874 0.98732 0.0
N826 N 0.54402 0.38823 0.82219 0.0
N827 N 0.60712 0.40572 0.9534 0.0
loop_
_geom_bond_atom_site_label_1
_geom_bond_atom_site_label_2
_geom_bond_distance
_geom_bond_site_symmetry_2
_ccdc_geom_bond_type
Tb0 N29 2.617 . S
Tb0 N35 2.572 . S
Tb0 O44 2.465 . S
Tb0 O45 2.387 1_556 S
Tb0 O47 2.428 . S
Tb0 O48 2.308 . S
Tb0 O52 2.349 . S
Tb0 O55 2.393 . S
Tb0 C64 2.802 . S
C1 N2 1.379 . S
C1 C4 1.416 . S
C1 C8 1.424 . S
N2 C1 1.379 . S
N2 C5 1.334 . S
N2 Tb11 2.617 . S
C3 C5 1.390 . S
C3 C6 1.339 . S
C3 H23 0.930 . S
C4 C1 1.416 . S
C4 C6 1.416 . S
C4 C10 1.448 . S
C5 N2 1.334 . S
C5 C3 1.390 . S
C5 H16 0.930 . S
C6 C3 1.339 . S
C6 C4 1.416 . S
C6 H27 0.930 . S
C7 C8 1.413 . S
C7 C9 1.427 . S
C7 C13 1.416 . S
C8 C1 1.424 . S
C8 C7 1.413 . S
C8 N12 1.361 . S
C9 C7 1.427 . S
C9 C10 1.328 . S
C9 H24 0.929 . S
C10 C4 1.448 . S
C10 C9 1.328 . S
C10 H25 0.930 . S
Tb11 N2 2.617 . S
Tb11 N12 2.572 . S
Tb11 O46 2.349 . S
Tb11 O49 2.393 . S
Tb11 O50 2.465 . S
Tb11 O51 2.387 1_554 S
Tb11 O53 2.428 . S
Tb11 O54 2.308 . S
Tb11 C75 2.802 . S
N12 C8 1.361 . S
N12 Tb11 2.572 . S
N12 C14 1.340 . S
C13 C7 1.416 . S
C13 C15 1.332 . S
C13 H21 0.931 . S
C14 N12 1.340 . S
C14 C15 1.407 . S
C14 H20 0.930 . S
C15 C13 1.332 . S
C15 C14 1.407 . S
C15 H17 0.929 . S
H16 C5 0.930 . S
H17 C15 0.929 . S
H18 C33 0.930 . S
H19 C40 0.929 . S
H20 C14 0.930 . S
H21 C13 0.931 . S
H22 C36 0.930 . S
H23 C3 0.930 . S
H24 C9 0.929 . S
H25 C10 0.930 . S
H26 C31 0.930 . S
H27 C6 0.930 . S
H28 C39 0.931 1_655 S
N29 Tb0 2.617 . S
N29 C30 1.379 . S
N29 C33 1.334 . S
C30 N29 1.379 . S
C30 C32 1.421 . S
C30 C38 1.424 . S
C31 H26 0.930 . S
C31 C33 1.390 . S
C31 C34 1.349 . S
C32 C30 1.421 . S
C32 C34 1.422 . S
C32 C65 1.446 1_455 S
C33 H18 0.930 . S
C33 N29 1.334 . S
C33 C31 1.390 . S
C34 C31 1.349 . S
C34 C32 1.422 . S
C34 H41 0.912 1_455 S
N35 Tb0 2.572 . S
N35 C36 1.340 . S
N35 C38 1.361 . S
C36 H22 0.930 . S
C36 N35 1.340 . S
C36 C40 1.407 . S
C37 C38 1.427 . S
C37 C39 1.431 . S
C37 C66 1.399 1_455 S
C38 C30 1.424 . S
C38 N35 1.361 . S
C38 C37 1.427 . S
C39 H28 0.931 1_455 S
C39 C37 1.431 . S
C39 C40 1.332 . S
C40 H19 0.929 . S
C40 C36 1.407 . S
C40 C39 1.332 . S
H41 C34 0.912 1_655 S
H42 C65 0.930 . S
H43 C66 0.929 . S
O44 Tb0 2.465 . S
O44 C64 1.264 . S
O45 Tb0 2.387 1_554 S
O45 C56 1.264 . S
O46 Tb11 2.349 . S
O46 C56 1.243 . S
O47 Tb0 2.428 . S
O47 C64 1.256 . S
O48 Tb0 2.308 . S
O48 C63 1.266 . S
O49 Tb11 2.393 . S
O49 C63 1.248 1_554 S
O50 Tb11 2.465 . S
O50 C75 1.264 . S
O51 Tb11 2.387 1_556 S
O51 C67 1.264 . S
O52 Tb0 2.349 . S
O52 C67 1.243 . S
O53 Tb11 2.428 . S
O53 C75 1.256 . S
O54 Tb11 2.308 . S
O54 C74 1.266 . S
O55 Tb0 2.393 . S
O55 C74 1.248 1_556 S
C56 O45 1.264 . S
C56 O46 1.243 . S
C57 C60 1.399 . S
C57 C62 1.383 . S
C57 C64 1.496 . S
C58 C59 1.399 . S
C58 C62 1.389 . S
C59 C58 1.399 . S
C59 C61 1.380 . S
C59 H76 0.929 . S
C60 C57 1.399 . S
C60 C61 1.392 . S
C60 H77 0.929 . S
C61 C59 1.380 . S
C61 C60 1.392 . S
C61 H78 0.929 . S
C62 C57 1.383 . S
C62 C58 1.389 . S
C62 H79 0.931 . S
C63 O48 1.266 . S
C63 O49 1.248 1_556 S
C64 Tb0 2.802 . S
C64 O44 1.264 . S
C64 O47 1.256 . S
C64 C57 1.496 . S
C65 C32 1.446 1_655 S
C65 H42 0.930 . S
C65 C66 1.328 . S
C66 C37 1.399 1_655 S
C66 H43 0.929 . S
C66 C65 1.328 . S
C67 O51 1.264 . S
C67 O52 1.243 . S
C68 C71 1.399 . S
C68 C72 1.383 . S
C68 C75 1.496 . S
C69 C70 1.399 . S
C69 C72 1.389 . S
C70 C69 1.399 . S
C70 C73 1.380 . S
C70 H80 0.929 . S
C71 C68 1.399 . S
C71 C73 1.392 . S
C71 H81 0.929 . S
C72 C68 1.383 . S
C72 C69 1.389 . S
C72 H82 0.931 . S
C73 C70 1.380 . S
C73 C71 1.392 . S
C73 H83 0.929 . S
C74 O54 1.266 . S
C74 O55 1.248 1_554 S
C75 Tb11 2.802 . S
C75 O50 1.264 . S
C75 O53 1.256 . S
C75 C68 1.496 . S
H76 C59 0.929 . S
H77 C60 0.929 . S
H78 C61 0.929 . S
H79 C62 0.931 . S
H80 C70 0.929 . S
H81 C71 0.929 . S
H82 C72 0.931 . S
H83 C73 0.929 . S
Tb84 N113 2.617 . S
Tb84 N119 2.572 . S
Tb84 O128 2.465 . S
Tb84 O129 2.387 . S
Tb84 O131 2.428 . S
Tb84 O132 2.308 . S
Tb84 O136 2.349 . S
Tb84 O139 2.393 . S
Tb84 C148 2.802 . S
C85 N86 1.379 . S
C85 C88 1.416 . S
C85 C92 1.424 . S
N86 C85 1.379 . S
N86 C89 1.334 . S
N86 Tb95 2.617 . S
C87 C89 1.390 . S
C87 C90 1.346 1_545 S
C87 H107 0.930 1_545 S
C88 C85 1.416 . S
C88 C90 1.402 1_545 S
C88 C94 1.448 . S
C89 N86 1.334 . S
C89 C87 1.390 . S
C89 H100 0.930 . S
C90 C87 1.346 1_565 S
C90 C88 1.402 1_565 S
C90 H111 0.937 . S
C91 C92 1.413 . S
C91 C93 1.427 . S
C91 C97 1.416 . S
C92 C85 1.424 . S
C92 C91 1.413 . S
C92 N96 1.361 . S
C93 C91 1.427 . S
C93 C94 1.328 . S
C93 H108 0.929 . S
C94 C88 1.448 . S
C94 C93 1.328 . S
C94 H109 0.930 . S
Tb95 N86 2.617 . S
Tb95 N96 2.572 . S
Tb95 O130 2.349 . S
Tb95 O133 2.393 . S
Tb95 O134 2.465 . S
Tb95 O135 2.387 . S
Tb95 O137 2.428 . S
Tb95 O138 2.308 . S
Tb95 C159 2.802 . S
N96 C92 1.361 . S
N96 Tb95 2.572 . S
N96 C98 1.340 . S
C97 C91 1.416 . S
C97 C99 1.332 . S
C97 H105 0.931 . S
C98 N96 1.340 . S
C98 C99 1.407 . S
C98 H104 0.930 . S
C99 C97 1.332 . S
C99 C98 1.407 . S
C99 H101 0.929 . S
H100 C89 0.930 . S
H101 C99 0.929 . S
H102 C117 0.930 . S
H103 C124 0.929 . S
H104 C98 0.930 . S
H105 C97 0.931 . S
H106 C120 0.930 . S
H107 C87 0.930 1_565 S
H108 C93 0.929 . S
H109 C94 0.930 . S
H110 C115 0.930 . S
H111 C90 0.937 . S
H112 C123 0.931 1_455 S
N113 Tb84 2.617 . S
N113 C114 1.379 . S
N113 C117 1.334 . S
C114 N113 1.379 . S
C114 C116 1.419 . S
C114 C122 1.424 . S
C115 H110 0.930 . S
C115 C117 1.390 . S
C115 C118 1.358 . S
C116 C114 1.419 . S
C116 C118 1.410 . S
C116 C149 1.443 1_655 S
C117 H102 0.930 . S
C117 N113 1.334 . S
C117 C115 1.390 . S
C118 C115 1.358 . S
C118 C116 1.410 . S
C118 H125 0.921 1_655 S
N119 Tb84 2.572 . S
N119 C120 1.340 . S
N119 C122 1.361 . S
C120 H106 0.930 . S
C120 N119 1.340 . S
C120 C124 1.407 . S
C121 C122 1.441 . S
C121 C123 1.404 . S
C121 C150 1.413 1_655 S
C122 C114 1.424 . S
C122 N119 1.361 . S
C122 C121 1.441 . S
C123 H112 0.931 1_655 S
C123 C121 1.404 . S
C123 C124 1.332 . S
C124 H103 0.929 . S
C124 C120 1.407 . S
C124 C123 1.332 . S
H125 C118 0.921 1_455 S
H126 C149 0.930 . S
H127 C150 0.929 . S
O128 Tb84 2.465 . S
O128 C148 1.264 . S
O129 Tb84 2.387 . S
O129 C140 1.264 . S
O130 Tb95 2.349 . S
O130 C140 1.243 . S
O131 Tb84 2.428 . S
O131 C148 1.256 . S
O132 Tb84 2.308 . S
O132 C147 1.266 . S
O133 Tb95 2.393 . S
O133 C147 1.248 . S
O134 Tb95 2.465 . S
O134 C159 1.264 . S
O135 Tb95 2.387 . S
O135 C151 1.264 . S
O136 Tb84 2.349 . S
O136 C151 1.243 . S
O137 Tb95 2.428 . S
O137 C159 1.256 . S
O138 Tb95 2.308 . S
O138 C158 1.266 . S
O139 Tb84 2.393 . S
O139 C158 1.248 . S
C140 O129 1.264 . S
C140 O130 1.243 . S
C141 C144 1.399 . S
C141 C146 1.383 . S
C141 C148 1.496 . S
C142 C143 1.399 . S
C142 C146 1.389 . S
C143 C142 1.399 . S
C143 C145 1.380 . S
C143 H160 0.929 . S
C144 C141 1.399 . S
C144 C145 1.392 . S
C144 H161 0.929 . S
C145 C143 1.380 . S
C145 C144 1.392 . S
C145 H162 0.929 . S
C146 C141 1.383 . S
C146 C142 1.389 . S
C146 H163 0.931 . S
C147 O132 1.266 . S
C147 O133 1.248 . S
C148 Tb84 2.802 . S
C148 O128 1.264 . S
C148 O131 1.256 . S
C148 C141 1.496 . S
C149 C116 1.443 1_455 S
C149 H126 0.930 . S
C149 C150 1.328 . S
C150 C121 1.413 1_455 S
C150 H127 0.929 . S
C150 C149 1.328 . S
C151 O135 1.264 . S
C151 O136 1.243 . S
C152 C155 1.399 . S
C152 C156 1.383 . S
C152 C159 1.496 . S
C153 C154 1.399 . S
C153 C156 1.389 . S
C154 C153 1.399 . S
C154 C157 1.380 . S
C154 H164 0.929 1_554 S
C155 C152 1.399 . S
C155 C157 1.392 . S
C155 H165 0.929 . S
C156 C152 1.383 . S
C156 C153 1.389 . S
C156 H166 0.931 . S
C157 C154 1.380 . S
C157 C155 1.392 . S
C157 H167 0.929 . S
C158 O138 1.266 . S
C158 O139 1.248 . S
C159 Tb95 2.802 . S
C159 O134 1.264 . S
C159 O137 1.256 . S
C159 C152 1.496 . S
H160 C143 0.929 . S
H161 C144 0.929 . S
H162 C145 0.929 . S
H163 C146 0.931 . S
H164 C154 0.929 1_556 S
H165 C155 0.929 . S
H166 C156 0.931 . S
H167 C157 0.929 . S
Tb168 N197 2.617 . S
Tb168 N203 2.572 . S
Tb168 O212 2.465 . S
Tb168 O213 2.387 . S
Tb168 O215 2.428 . S
Tb168 O216 2.308 . S
Tb168 O220 2.349 . S
Tb168 O223 2.393 . S
Tb168 C232 2.802 . S
C169 N170 1.379 . S
C169 C172 1.416 . S
C169 C176 1.424 . S
N170 C169 1.379 . S
N170 C173 1.334 . S
N170 Tb179 2.617 . S
C171 C173 1.390 . S
C171 C174 1.331 1_565 S
C171 H191 0.930 1_565 S
C172 C169 1.416 . S
C172 C174 1.409 1_565 S
C172 C178 1.448 . S
C173 N170 1.334 . S
C173 C171 1.390 . S
C173 H184 0.930 . S
C174 C171 1.331 1_545 S
C174 C172 1.409 1_545 S
C174 H195 0.945 . S
C175 C176 1.413 . S
C175 C177 1.427 . S
C175 C181 1.416 . S
C176 C169 1.424 . S
C176 C175 1.413 . S
C176 N180 1.361 . S
C177 C175 1.427 . S
C177 C178 1.328 . S
C177 H192 0.929 . S
C178 C172 1.448 . S
C178 C177 1.328 . S
C178 H193 0.930 . S
Tb179 N170 2.617 . S
Tb179 N180 2.572 . S
Tb179 O214 2.349 . S
Tb179 O217 2.393 . S
Tb179 O218 2.465 . S
Tb179 O219 2.387 . S
Tb179 O221 2.428 . S
Tb179 O222 2.308 . S
Tb179 C243 2.802 . S
N180 C176 1.361 . S
N180 Tb179 2.572 . S
N180 C182 1.340 . S
C181 C175 1.416 . S
C181 C183 1.332 . S
C181 H189 0.931 . S
C182 N180 1.340 . S
C182 C183 1.407 . S
C182 H188 0.930 . S
C183 C181 1.332 . S
C183 C182 1.407 . S
C183 H185 0.929 . S
H184 C173 0.930 . S
H185 C183 0.929 . S
H186 C201 0.930 . S
H187 C208 0.929 . S
H188 C182 0.930 . S
H189 C181 0.931 . S
H190 C204 0.930 . S
H191 C171 0.930 1_545 S
H192 C177 0.929 . S
H193 C178 0.930 . S
H194 C199 0.930 . S
H195 C174 0.945 . S
H196 C207 0.931 . S
N197 Tb168 2.617 . S
N197 C198 1.379 . S
N197 C201 1.334 . S
C198 N197 1.379 . S
C198 C200 1.416 . S
C198 C206 1.424 . S
C199 H194 0.930 . S
C199 C201 1.390 . S
C199 C202 1.339 . S
C200 C198 1.416 . S
C200 C202 1.416 . S
C200 C233 1.448 . S
C201 H186 0.930 . S
C201 N197 1.334 . S
C201 C199 1.390 . S
C202 C199 1.339 . S
C202 C200 1.416 . S
C202 H209 0.930 . S
N203 Tb168 2.572 . S
N203 C204 1.340 . S
N203 C206 1.361 . S
C204 H190 0.930 . S
C204 N203 1.340 . S
C204 C208 1.407 . S
C205 C206 1.413 . S
C205 C207 1.416 . S
C205 C234 1.427 . S
C206 C198 1.424 . S
C206 N203 1.361 . S
C206 C205 1.413 . S
C207 H196 0.931 . S
C207 C205 1.416 . S
C207 C208 1.332 . S
C208 H187 0.929 . S
C208 C204 1.407 . S
C208 C207 1.332 . S
H209 C202 0.930 . S
H210 C233 0.930 . S
H211 C234 0.929 . S
O212 Tb168 2.465 . S
O212 C232 1.264 . S
O213 Tb168 2.387 . S
O213 C224 1.264 . S
O214 Tb179 2.349 . S
O214 C224 1.243 . S
O215 Tb168 2.428 . S
O215 C232 1.256 . S
O216 Tb168 2.308 . S
O216 C231 1.266 . S
O217 Tb179 2.393 . S
O217 C231 1.248 . S
O218 Tb179 2.465 . S
O218 C243 1.264 . S
O219 Tb179 2.387 . S
O219 C235 1.264 . S
O220 Tb168 2.349 . S
O220 C235 1.243 . S
O221 Tb179 2.428 . S
O221 C243 1.256 . S
O222 Tb179 2.308 . S
O222 C242 1.266 . S
O223 Tb168 2.393 . S
O223 C242 1.248 . S
C224 O213 1.264 . S
C224 O214 1.243 . S
C225 C228 1.399 . S
C225 C230 1.383 . S
C225 C232 1.496 . S
C226 C227 1.399 . S
C226 C230 1.389 . S
C227 C226 1.399 . S
C227 C229 1.380 . S
C227 H244 0.929 . S
C228 C225 1.399 . S
C228 C229 1.392 . S
C228 H245 0.929 . S
C229 C227 1.380 . S
C229 C228 1.392 . S
C229 H246 0.929 . S
C230 C225 1.383 . S
C230 C226 1.389 . S
C230 H247 0.931 . S
C231 O216 1.266 . S
C231 O217 1.248 . S
C232 Tb168 2.802 . S
C232 O212 1.264 . S
C232 O215 1.256 . S
C232 C225 1.496 . S
C233 C200 1.448 . S
C233 H210 0.930 . S
C233 C234 1.328 . S
C234 C205 1.427 . S
C234 H211 0.929 . S
C234 C233 1.328 . S
C235 O219 1.264 . S
C235 O220 1.243 . S
C236 C239 1.399 . S
C236 C240 1.383 . S
C236 C243 1.496 . S
C237 C238 1.399 1_556 S
C237 C240 1.389 . S
C238 C237 1.399 1_554 S
C238 C241 1.380 1_554 S
C238 H248 0.929 . S
C239 C236 1.399 . S
C239 C241 1.392 . S
C239 H249 0.929 . S
C240 C236 1.383 . S
C240 C237 1.389 . S
C240 H250 0.931 . S
C241 C238 1.380 1_556 S
C241 C239 1.392 . S
C241 H251 0.929 . S
C242 O222 1.266 . S
C242 O223 1.248 . S
C243 Tb179 2.802 . S
C243 O218 1.264 . S
C243 O221 1.256 . S
C243 C236 1.496 . S
H244 C227 0.929 . S
H245 C228 0.929 . S
H246 C229 0.929 . S
H247 C230 0.931 . S
H248 C238 0.929 . S
H249 C239 0.929 . S
H250 C240 0.931 . S
H251 C241 0.929 . S
Tb252 N281 2.617 . S
Tb252 N287 2.572 . S
Tb252 O296 2.465 . S
Tb252 O297 2.387 1_554 S
Tb252 O299 2.428 . S
Tb252 O300 2.308 . S
Tb252 O304 2.349 . S
Tb252 O307 2.393 . S
Tb252 C316 2.802 . S
C253 N254 1.379 . S
C253 C256 1.416 . S
C253 C260 1.424 . S
N254 C253 1.379 . S
N254 C257 1.334 . S
N254 Tb263 2.617 . S
C255 C257 1.390 . S
C255 C258 1.331 1_655 S
C255 H275 0.930 1_655 S
C256 C253 1.416 . S
C256 C258 1.409 1_655 S
C256 C262 1.448 . S
C257 N254 1.334 . S
C257 C255 1.390 . S
C257 H268 0.930 . S
C258 C255 1.331 1_455 S
C258 C256 1.409 1_455 S
C258 H279 0.945 . S
C259 C260 1.413 . S
C259 C261 1.427 . S
C259 C265 1.416 . S
C260 C253 1.424 . S
C260 C259 1.413 . S
C260 N264 1.361 . S
C261 C259 1.427 . S
C261 C262 1.328 . S
C261 H276 0.929 . S
C262 C256 1.448 . S
C262 C261 1.328 . S
C262 H277 0.930 . S
Tb263 N254 2.617 . S
Tb263 N264 2.572 . S
Tb263 O298 2.349 . S
Tb263 O301 2.393 1_556 S
Tb263 O302 2.465 . S
Tb263 O303 2.387 1_556 S
Tb263 O305 2.428 . S
Tb263 O306 2.308 . S
Tb263 C327 2.802 . S
N264 C260 1.361 . S
N264 Tb263 2.572 . S
N264 C266 1.340 . S
C265 C259 1.416 . S
C265 C267 1.332 . S
C265 H273 0.931 . S
C266 N264 1.340 . S
C266 C267 1.407 . S
C266 H272 0.930 . S
C267 C265 1.332 . S
C267 C266 1.407 . S
C267 H269 0.929 . S
H268 C257 0.930 . S
H269 C267 0.929 . S
H270 C285 0.930 . S
H271 C292 0.929 . S
H272 C266 0.930 . S
H273 C265 0.931 . S
H274 C288 0.930 . S
H275 C255 0.930 1_455 S
H276 C261 0.929 . S
H277 C262 0.930 . S
H278 C283 0.930 . S
H279 C258 0.945 . S
H280 C291 0.931 . S
N281 Tb252 2.617 . S
N281 C282 1.379 . S
N281 C285 1.334 . S
C282 N281 1.379 . S
C282 C284 1.416 . S
C282 C290 1.424 . S
C283 H278 0.930 . S
C283 C285 1.390 . S
C283 C286 1.339 . S
C284 C282 1.416 . S
C284 C286 1.416 . S
C284 C317 1.448 . S
C285 H270 0.930 . S
C285 N281 1.334 . S
C285 C283 1.390 . S
C286 C283 1.339 . S
C286 C284 1.416 . S
C286 H293 0.930 . S
N287 Tb252 2.572 . S
N287 C288 1.340 . S
N287 C290 1.361 . S
C288 H274 0.930 . S
C288 N287 1.340 . S
C288 C292 1.407 . S
C289 C290 1.413 . S
C289 C291 1.416 . S
C289 C318 1.427 . S
C290 C282 1.424 . S
C290 N287 1.361 . S
C290 C289 1.413 . S
C291 H280 0.931 . S
C291 C289 1.416 . S
C291 C292 1.332 . S
C292 H271 0.929 . S
C292 C288 1.407 . S
C292 C291 1.332 . S
H293 C286 0.930 . S
H294 C317 0.930 . S
H295 C318 0.929 . S
O296 Tb252 2.465 . S
O296 C316 1.264 . S
O297 Tb252 2.387 1_556 S
O297 C308 1.263 . S
O298 Tb263 2.349 . S
O298 C308 1.243 . S
O299 Tb252 2.428 . S
O299 C316 1.256 . S
O300 Tb252 2.308 . S
O300 C315 1.266 . S
O301 Tb263 2.393 1_554 S
O301 C315 1.248 . S
O302 Tb263 2.465 . S
O302 C327 1.264 . S
O303 Tb263 2.387 1_554 S
O303 C319 1.264 . S
O304 Tb252 2.349 . S
O304 C319 1.243 . S
O305 Tb263 2.428 . S
O305 C327 1.256 . S
O306 Tb263 2.308 . S
O306 C326 1.266 . S
O307 Tb252 2.393 . S
O307 C326 1.248 1_554 S
C308 O297 1.263 . S
C308 O298 1.243 . S
C309 C312 1.399 . S
C309 C314 1.383 . S
C309 C316 1.496 . S
C310 C311 1.399 . S
C310 C314 1.389 . S
C311 C310 1.399 . S
C311 C313 1.380 . S
C311 H328 0.929 . S
C312 C309 1.399 . S
C312 C313 1.392 . S
C312 H329 0.929 . S
C313 C311 1.380 . S
C313 C312 1.392 . S
C313 H330 0.929 . S
C314 C309 1.383 . S
C314 C310 1.389 . S
C314 H331 0.931 . S
C315 O300 1.266 . S
C315 O301 1.248 . S
C316 Tb252 2.802 . S
C316 O296 1.264 . S
C316 O299 1.256 . S
C316 C309 1.496 . S
C317 C284 1.448 . S
C317 H294 0.930 . S
C317 C318 1.328 . S
C318 C289 1.427 . S
C318 H295 0.929 . S
C318 C317 1.328 . S
C319 O303 1.264 . S
C319 O304 1.243 . S
C320 C323 1.399 . S
C320 C324 1.383 . S
C320 C327 1.496 . S
C321 C322 1.399 . S
C321 C324 1.389 . S
C322 C321 1.399 . S
C322 C325 1.380 . S
C322 H332 0.929 . S
C323 C320 1.399 . S
C323 C325 1.392 . S
C323 H333 0.929 . S
C324 C320 1.383 . S
C324 C321 1.389 . S
C324 H334 0.931 . S
C325 C322 1.380 . S
C325 C323 1.392 . S
C325 H335 0.929 . S
C326 O306 1.266 . S
C326 O307 1.248 1_556 S
C327 Tb263 2.802 . S
C327 O302 1.264 . S
C327 O305 1.256 . S
C327 C320 1.496 . S
H328 C311 0.929 . S
H329 C312 0.929 . S
H330 C313 0.929 . S
H331 C314 0.931 . S
H332 C322 0.929 . S
H333 C323 0.929 . S
H334 C324 0.931 . S
H335 C325 0.929 . S
Tb336 N365 2.617 . S
Tb336 N371 2.572 . S
Tb336 O380 2.465 . S
Tb336 O381 2.387 . S
Tb336 O383 2.428 . S
Tb336 O384 2.308 . S
Tb336 O388 2.349 . S
Tb336 O391 2.393 . S
Tb336 C400 2.802 . S
C337 N338 1.379 . S
C337 C340 1.416 . S
C337 C344 1.424 . S
N338 C337 1.379 . S
N338 C341 1.334 . S
N338 Tb347 2.617 . S
C339 C341 1.390 . S
C339 C342 1.346 1_455 S
C339 H359 0.930 1_455 S
C340 C337 1.416 . S
C340 C342 1.402 1_455 S
C340 C346 1.448 . S
C341 N338 1.334 . S
C341 C339 1.390 . S
C341 H352 0.930 . S
C342 C339 1.346 1_655 S
C342 C340 1.402 1_655 S
C342 H363 0.937 . S
C343 C344 1.413 . S
C343 C345 1.427 . S
C343 C349 1.416 . S
C344 C337 1.424 . S
C344 C343 1.413 . S
C344 N348 1.361 . S
C345 C343 1.427 . S
C345 C346 1.328 . S
C345 H360 0.929 . S
C346 C340 1.448 . S
C346 C345 1.328 . S
C346 H361 0.930 . S
Tb347 N338 2.617 . S
Tb347 N348 2.572 . S
Tb347 O382 2.349 . S
Tb347 O385 2.393 . S
Tb347 O386 2.465 . S
Tb347 O387 2.387 . S
Tb347 O389 2.428 . S
Tb347 O390 2.308 . S
Tb347 C411 2.802 . S
N348 C344 1.361 . S
N348 Tb347 2.572 . S
N348 C350 1.340 . S
C349 C343 1.416 . S
C349 C351 1.332 . S
C349 H357 0.931 . S
C350 N348 1.340 . S
C350 C351 1.407 . S
C350 H356 0.930 . S
C351 C349 1.332 . S
C351 C350 1.407 . S
C351 H353 0.929 . S
H352 C341 0.930 . S
H353 C351 0.929 . S
H354 C369 0.930 . S
H355 C376 0.929 . S
H356 C350 0.930 . S
H357 C349 0.931 . S
H358 C372 0.930 . S
H359 C339 0.930 1_655 S
H360 C345 0.929 . S
H361 C346 0.930 . S
H362 C367 0.930 . S
H363 C342 0.937 . S
H364 C375 0.931 1_545 S
N365 Tb336 2.617 . S
N365 C366 1.379 . S
N365 C369 1.334 . S
C366 N365 1.379 . S
C366 C368 1.419 . S
C366 C374 1.424 . S
C367 H362 0.930 . S
C367 C369 1.390 . S
C367 C370 1.358 . S
C368 C366 1.419 . S
C368 C370 1.410 . S
C368 C401 1.442 1_565 S
C369 H354 0.930 . S
C369 N365 1.334 . S
C369 C367 1.390 . S
C370 C367 1.358 . S
C370 C368 1.410 . S
C370 H377 0.920 1_565 S
N371 Tb336 2.572 . S
N371 C372 1.340 . S
N371 C374 1.361 . S
C372 H358 0.930 . S
C372 N371 1.340 . S
C372 C376 1.407 . S
C373 C374 1.441 . S
C373 C375 1.404 . S
C373 C402 1.412 1_565 S
C374 C366 1.424 . S
C374 N371 1.361 . S
C374 C373 1.441 . S
C375 H364 0.931 1_565 S
C375 C373 1.404 . S
C375 C376 1.332 . S
C376 H355 0.929 . S
C376 C372 1.407 . S
C376 C375 1.332 . S
H377 C370 0.920 1_545 S
H378 C401 0.930 . S
H379 C402 0.929 . S
O380 Tb336 2.465 . S
O380 C400 1.264 . S
O381 Tb336 2.387 . S
O381 C392 1.264 . S
O382 Tb347 2.349 . S
O382 C392 1.243 . S
O383 Tb336 2.428 . S
O383 C400 1.256 . S
O384 Tb336 2.308 . S
O384 C399 1.266 . S
O385 Tb347 2.393 . S
O385 C399 1.248 . S
O386 Tb347 2.465 . S
O386 C411 1.264 . S
O387 Tb347 2.387 . S
O387 C403 1.264 . S
O388 Tb336 2.349 . S
O388 C403 1.243 . S
O389 Tb347 2.428 . S
O389 C411 1.256 . S
O390 Tb347 2.308 . S
O390 C410 1.266 . S
O391 Tb336 2.393 . S
O391 C410 1.248 . S
C392 O381 1.264 . S
C392 O382 1.243 . S
C393 C396 1.399 . S
C393 C398 1.383 . S
C393 C400 1.496 . S
C394 C395 1.399 1_554 S
C394 C398 1.389 . S
C395 C394 1.399 1_556 S
C395 C397 1.380 1_556 S
C395 H412 0.929 . S
C396 C393 1.399 . S
C396 C397 1.392 . S
C396 H413 0.929 . S
C397 C395 1.380 1_554 S
C397 C396 1.392 . S
C397 H414 0.929 . S
C398 C393 1.383 . S
C398 C394 1.389 . S
C398 H415 0.931 . S
C399 O384 1.266 . S
C399 O385 1.248 . S
C400 Tb336 2.802 . S
C400 O380 1.264 . S
C400 O383 1.256 . S
C400 C393 1.496 . S
C401 C368 1.442 1_545 S
C401 H378 0.930 . S
C401 C402 1.328 . S
C402 C373 1.412 1_545 S
C402 H379 0.929 . S
C402 C401 1.328 . S
C403 O387 1.264 . S
C403 O388 1.243 . S
C404 C407 1.399 . S
C404 C408 1.383 . S
C404 C411 1.496 . S
C405 C406 1.399 . S
C405 C408 1.389 . S
C406 C405 1.399 . S
C406 C409 1.380 . S
C406 H416 0.929 . S
C407 C404 1.399 . S
C407 C409 1.392 . S
C407 H417 0.929 . S
C408 C404 1.383 . S
C408 C405 1.389 . S
C408 H418 0.931 . S
C409 C406 1.380 . S
C409 C407 1.392 . S
C409 H419 0.929 . S
C410 O390 1.266 . S
C410 O391 1.248 . S
C411 Tb347 2.802 . S
C411 O386 1.264 . S
C411 O389 1.256 . S
C411 C404 1.496 . S
H412 C395 0.929 . S
H413 C396 0.929 . S
H414 C397 0.929 . S
H415 C398 0.931 . S
H416 C406 0.929 . S
H417 C407 0.929 . S
H418 C408 0.931 . S
H419 C409 0.929 . S
Tb420 N449 2.617 . S
Tb420 N455 2.572 . S
Tb420 O464 2.465 . S
Tb420 O465 2.387 . S
Tb420 O467 2.428 . S
Tb420 O468 2.308 . S
Tb420 O472 2.349 . S
Tb420 O475 2.393 . S
Tb420 C484 2.802 . S
C421 N422 1.379 . S
C421 C424 1.416 . S
C421 C428 1.424 . S
N422 C421 1.379 . S
N422 C425 1.334 . S
N422 Tb431 2.617 . S
C423 C425 1.390 . S
C423 C426 1.339 . S
C423 H443 0.930 . S
C424 C421 1.416 . S
C424 C426 1.416 . S
C424 C430 1.448 . S
C425 N422 1.334 . S
C425 C423 1.390 . S
C425 H436 0.930 . S
C426 C423 1.339 . S
C426 C424 1.416 . S
C426 H447 0.930 . S
C427 C428 1.413 . S
C427 C429 1.427 . S
C427 C433 1.416 . S
C428 C421 1.424 . S
C428 C427 1.413 . S
C428 N432 1.361 . S
C429 C427 1.427 . S
C429 C430 1.328 . S
C429 H444 0.929 . S
C430 C424 1.448 . S
C430 C429 1.328 . S
C430 H445 0.930 . S
Tb431 N422 2.617 . S
Tb431 N432 2.572 . S
Tb431 O466 2.349 . S
Tb431 O469 2.393 . S
Tb431 O470 2.465 . S
Tb431 O471 2.387 . S
Tb431 O473 2.428 . S
Tb431 O474 2.308 . S
Tb431 C495 2.802 . S
N432 C428 1.361 . S
N432 Tb431 2.572 . S
N432 C434 1.340 . S
C433 C427 1.416 . S
C433 C435 1.332 . S
C433 H441 0.931 . S
C434 N432 1.340 . S
C434 C435 1.407 . S
C434 H440 0.930 . S
C435 C433 1.332 . S
C435 C434 1.407 . S
C435 H437 0.929 . S
H436 C425 0.930 . S
H437 C435 0.929 . S
H438 C453 0.930 . S
H439 C460 0.929 . S
H440 C434 0.930 . S
H441 C433 0.931 . S
H442 C456 0.930 . S
H443 C423 0.930 . S
H444 C429 0.929 . S
H445 C430 0.930 . S
H446 C451 0.930 . S
H447 C426 0.930 . S
H448 C459 0.931 1_565 S
N449 Tb420 2.617 . S
N449 C450 1.379 . S
N449 C453 1.334 . S
C450 N449 1.379 . S
C450 C452 1.422 . S
C450 C458 1.424 . S
C451 H446 0.930 . S
C451 C453 1.390 . S
C451 C454 1.350 . S
C452 C450 1.422 . S
C452 C454 1.422 . S
C452 C485 1.446 1_545 S
C453 H438 0.930 . S
C453 N449 1.334 . S
C453 C451 1.390 . S
C454 C451 1.350 . S
C454 C452 1.422 . S
C454 H461 0.911 1_545 S
N455 Tb420 2.572 . S
N455 C456 1.340 . S
N455 C458 1.361 . S
C456 H442 0.930 . S
C456 N455 1.340 . S
C456 C460 1.407 . S
C457 C458 1.427 . S
C457 C459 1.432 . S
C457 C486 1.398 1_545 S
C458 C450 1.424 . S
C458 N455 1.361 . S
C458 C457 1.427 . S
C459 H448 0.931 1_545 S
C459 C457 1.432 . S
C459 C460 1.332 . S
C460 H439 0.929 . S
C460 C456 1.407 . S
C460 C459 1.332 . S
H461 C454 0.911 1_565 S
H462 C485 0.930 . S
H463 C486 0.929 . S
O464 Tb420 2.465 . S
O464 C484 1.264 . S
O465 Tb420 2.387 . S
O465 C476 1.264 . S
O466 Tb431 2.349 . S
O466 C476 1.243 . S
O467 Tb420 2.428 . S
O467 C484 1.256 . S
O468 Tb420 2.308 . S
O468 C483 1.266 . S
O469 Tb431 2.393 . S
O469 C483 1.248 . S
O470 Tb431 2.465 . S
O470 C495 1.264 . S
O471 Tb431 2.387 . S
O471 C487 1.264 . S
O472 Tb420 2.349 . S
O472 C487 1.243 . S
O473 Tb431 2.428 . S
O473 C495 1.256 . S
O474 Tb431 2.308 . S
O474 C494 1.266 . S
O475 Tb420 2.393 . S
O475 C494 1.248 . S
C476 O465 1.264 . S
C476 O466 1.243 . S
C477 C480 1.399 . S
C477 C482 1.383 . S
C477 C484 1.496 . S
C478 C479 1.399 . S
C478 C482 1.389 1_554 S
C479 C478 1.399 . S
C479 C481 1.380 1_554 S
C479 H496 0.929 . S
C480 C477 1.399 . S
C480 C481 1.392 . S
C480 H497 0.929 . S
C481 C479 1.380 1_556 S
C481 C480 1.392 . S
C481 H498 0.931 . S
C482 C477 1.383 . S
C482 C478 1.389 1_556 S
C482 H499 0.931 . S
C483 O468 1.266 . S
C483 O469 1.248 . S
C484 Tb420 2.802 . S
C484 O464 1.264 . S
C484 O467 1.256 . S
C484 C477 1.496 . S
C485 C452 1.446 1_565 S
C485 H462 0.930 . S
C485 C486 1.328 . S
C486 C457 1.398 1_565 S
C486 H463 0.929 . S
C486 C485 1.328 . S
C487 O471 1.264 . S
C487 O472 1.243 . S
C488 C491 1.399 . S
C488 C492 1.383 . S
C488 C495 1.496 . S
C489 C490 1.399 . S
C489 C492 1.389 . S
C490 C489 1.399 . S
C490 C493 1.380 . S
C490 H500 0.929 . S
C491 C488 1.399 . S
C491 C493 1.392 . S
C491 H501 0.929 . S
C492 C488 1.383 . S
C492 C489 1.389 . S
C492 H502 0.931 . S
C493 C490 1.380 . S
C493 C491 1.392 . S
C493 H503 0.929 . S
C494 O474 1.266 . S
C494 O475 1.248 . S
C495 Tb431 2.802 . S
C495 O470 1.264 . S
C495 O473 1.256 . S
C495 C488 1.496 . S
H496 C479 0.929 . S
H497 C480 0.929 . S
H498 C481 0.931 . S
H499 C482 0.931 . S
H500 C490 0.929 . S
H501 C491 0.929 . S
H502 C492 0.931 . S
H503 C493 0.929 . S
H504 C510 0.930 . S
H505 C514 0.930 . S
H506 C519 0.929 . S
H507 C517 0.929 . S
H508 C512 0.929 . S
H509 C518 0.929 . S
C510 H504 0.930 . S
C510 C511 1.367 . S
C510 C518 1.378 . S
C511 C510 1.367 . S
C511 C519 1.433 . S
C512 H508 0.929 . S
C512 C514 1.378 . S
C512 C516 1.350 . S
C513 C516 1.463 . S
C513 C518 1.350 . S
C513 N521 1.427 . S
C514 H505 0.930 . S
C514 C512 1.378 . S
C514 C515 1.367 . S
C515 C514 1.367 . S
C515 C517 1.433 . S
C516 C512 1.350 . S
C516 C513 1.463 . S
C516 N520 1.427 . S
C517 H507 0.929 . S
C517 C515 1.433 . S
C517 N520 1.384 . S
C518 H509 0.929 . S
C518 C510 1.378 . S
C518 C513 1.350 . S
C519 H506 0.929 . S
C519 C511 1.433 . S
C519 N521 1.384 . S
N520 C516 1.427 . S
N520 C517 1.384 . S
N521 C513 1.427 . S
N521 C519 1.384 . S
H522 C528 0.930 . S
H523 C532 0.930 . S
H524 C537 0.929 . S
H525 C535 0.929 . S
H526 C530 0.929 . S
H527 C536 0.929 . S
C528 H522 0.930 . S
C528 C529 1.367 . S
C528 C536 1.378 . S
C529 C528 1.367 . S
C529 C537 1.433 . S
C530 H526 0.929 . S
C530 C532 1.378 . S
C530 C534 1.350 . S
C531 C534 1.463 1_455 S
C531 C536 1.350 . S
C531 N539 1.427 . S
C532 H523 0.930 . S
C532 C530 1.378 . S
C532 C533 1.367 . S
C533 C532 1.367 . S
C533 C535 1.433 . S
C534 C530 1.350 . S
C534 C531 1.463 1_655 S
C534 N538 1.427 . S
C535 H525 0.929 . S
C535 C533 1.433 . S
C535 N538 1.384 . S
C536 H527 0.929 . S
C536 C528 1.378 . S
C536 C531 1.350 . S
C537 H524 0.929 . S
C537 C529 1.433 . S
C537 N539 1.384 . S
N538 C534 1.427 . S
N538 C535 1.384 . S
N539 C531 1.427 . S
N539 C537 1.384 . S
H540 C546 0.930 . S
H541 C550 0.930 . S
H542 C555 0.929 . S
H543 C553 0.929 . S
H544 C548 0.929 . S
H545 C554 0.929 . S
C546 H540 0.930 . S
C546 C547 1.367 . S
C546 C554 1.378 . S
C547 C546 1.367 . S
C547 C555 1.433 . S
C548 H544 0.929 . S
C548 C550 1.378 . S
C548 C552 1.350 . S
C549 C552 1.463 1_545 S
C549 C554 1.350 . S
C549 N557 1.427 . S
C550 H541 0.930 . S
C550 C548 1.378 . S
C550 C551 1.367 . S
C551 C550 1.367 . S
C551 C553 1.433 . S
C552 C548 1.350 . S
C552 C549 1.463 1_565 S
C552 N556 1.427 . S
C553 H543 0.929 . S
C553 C551 1.433 . S
C553 N556 1.384 . S
C554 H545 0.929 . S
C554 C546 1.378 . S
C554 C549 1.350 . S
C555 H542 0.929 . S
C555 C547 1.433 . S
C555 N557 1.384 . S
N556 C552 1.427 . S
N556 C553 1.384 . S
N557 C549 1.427 . S
N557 C555 1.384 . S
H558 C564 0.930 . S
H559 C568 0.930 . S
H560 C573 0.929 . S
H561 C571 0.929 . S
H562 C566 0.929 . S
H563 C572 0.929 . S
C564 H558 0.930 . S
C564 C565 1.367 . S
C564 C572 1.378 . S
C565 C564 1.367 . S
C565 C573 1.433 . S
C566 H562 0.929 . S
C566 C568 1.378 . S
C566 C570 1.350 . S
C567 C570 1.463 . S
C567 C572 1.350 . S
C567 N575 1.427 . S
C568 H559 0.930 . S
C568 C566 1.378 . S
C568 C569 1.367 . S
C569 C568 1.367 . S
C569 C571 1.433 . S
C570 C566 1.350 . S
C570 C567 1.463 . S
C570 N574 1.427 . S
C571 H561 0.929 . S
C571 C569 1.433 . S
C571 N574 1.384 . S
C572 H563 0.929 . S
C572 C564 1.378 . S
C572 C567 1.350 . S
C573 H560 0.929 . S
C573 C565 1.433 . S
C573 N575 1.384 . S
N574 C570 1.427 . S
N574 C571 1.384 . S
N575 C567 1.427 . S
N575 C573 1.384 . S
H576 C582 0.930 . S
H577 C586 0.930 . S
H578 C591 0.929 . S
H579 C589 0.929 . S
H580 C584 0.929 . S
H581 C590 0.929 . S
C582 H576 0.930 . S
C582 C583 1.367 . S
C582 C590 1.378 . S
C583 C582 1.367 . S
C583 C591 1.433 . S
C584 H580 0.929 . S
C584 C586 1.378 . S
C584 C588 1.350 . S
C585 C588 1.463 1_455 S
C585 C590 1.350 . S
C585 N593 1.427 . S
C586 H577 0.930 . S
C586 C584 1.378 . S
C586 C587 1.367 . S
C587 C586 1.367 . S
C587 C589 1.433 . S
C588 C584 1.350 . S
C588 C585 1.463 1_655 S
C588 N592 1.427 . S
C589 H579 0.929 . S
C589 C587 1.433 . S
C589 N592 1.384 . S
C590 H581 0.929 . S
C590 C582 1.378 . S
C590 C585 1.350 . S
C591 H578 0.929 . S
C591 C583 1.433 . S
C591 N593 1.384 . S
N592 C588 1.427 . S
N592 C589 1.384 . S
N593 C585 1.427 . S
N593 C591 1.384 . S
H594 C600 0.930 . S
H595 C604 0.930 . S
H596 C609 0.929 . S
H597 C607 0.929 . S
H598 C602 0.929 1_545 S
H599 C608 0.929 1_565 S
C600 H594 0.930 . S
C600 C601 1.367 . S
C600 C608 1.378 . S
C601 C600 1.367 . S
C601 C609 1.433 . S
C602 H598 0.929 1_565 S
C602 C604 1.378 . S
C602 C606 1.350 . S
C603 C606 1.463 1_545 S
C603 C608 1.350 . S
C603 N611 1.427 . S
C604 H595 0.930 . S
C604 C602 1.378 . S
C604 C605 1.367 . S
C605 C604 1.367 . S
C605 C607 1.433 . S
C606 C602 1.350 . S
C606 C603 1.463 1_565 S
C606 N610 1.427 . S
C607 H597 0.929 . S
C607 C605 1.433 . S
C607 N610 1.384 . S
C608 H599 0.929 1_545 S
C608 C600 1.378 . S
C608 C603 1.350 . S
C609 H596 0.929 . S
C609 C601 1.433 . S
C609 N611 1.384 . S
N610 C606 1.427 . S
N610 C607 1.384 . S
N611 C603 1.427 . S
N611 C609 1.384 . S
H612 C618 0.930 . S
H613 C622 0.930 . S
H614 C627 0.929 . S
H615 C625 0.929 . S
H616 C620 0.929 . S
H617 C626 0.929 . S
C618 H612 0.930 . S
C618 C619 1.367 . S
C618 C626 1.378 . S
C619 C618 1.367 . S
C619 C627 1.433 . S
C620 H616 0.929 . S
C620 C622 1.378 . S
C620 C624 1.350 . S
C621 C624 1.463 . S
C621 C626 1.350 . S
C621 N629 1.427 . S
C622 H613 0.930 . S
C622 C620 1.378 . S
C622 C623 1.367 . S
C623 C622 1.367 . S
C623 C625 1.433 . S
C624 C620 1.350 . S
C624 C621 1.463 . S
C624 N628 1.427 . S
C625 H615 0.929 . S
C625 C623 1.433 . S
C625 N628 1.384 . S
C626 H617 0.929 . S
C626 C618 1.378 . S
C626 C621 1.350 . S
C627 H614 0.929 . S
C627 C619 1.433 . S
C627 N629 1.384 . S
N628 C624 1.427 . S
N628 C625 1.384 . S
N629 C621 1.427 . S
N629 C627 1.384 . S
H630 C636 0.930 . S
H631 C640 0.930 . S
H632 C645 0.929 . S
H633 C643 0.929 . S
H634 C638 0.929 . S
H635 C644 0.929 . S
C636 H630 0.930 . S
C636 C637 1.367 . S
C636 C644 1.378 . S
C637 C636 1.367 . S
C637 C645 1.433 . S
C638 H634 0.929 . S
C638 C640 1.378 . S
C638 C642 1.350 . S
C639 C642 1.463 . S
C639 C644 1.350 . S
C639 N647 1.427 . S
C640 H631 0.930 . S
C640 C638 1.378 . S
C640 C641 1.367 . S
C641 C640 1.367 . S
C641 C643 1.433 . S
C642 C638 1.350 . S
C642 C639 1.463 . S
C642 N646 1.427 . S
C643 H633 0.929 . S
C643 C641 1.433 . S
C643 N646 1.384 . S
C644 H635 0.929 . S
C644 C636 1.378 . S
C644 C639 1.350 . S
C645 H632 0.929 . S
C645 C637 1.433 . S
C645 N647 1.384 . S
N646 C642 1.427 . S
N646 C643 1.384 . S
N647 C639 1.427 . S
N647 C645 1.384 . S
H648 C654 0.930 . S
H649 C658 0.930 . S
H650 C663 0.929 . S
H651 C661 0.929 . S
H652 C656 0.929 . S
H653 C662 0.929 . S
C654 H648 0.930 . S
C654 C655 1.367 . S
C654 C662 1.378 . S
C655 C654 1.367 . S
C655 C663 1.433 . S
C656 H652 0.929 . S
C656 C658 1.378 . S
C656 C660 1.350 . S
C657 C660 1.463 . S
C657 C662 1.350 . S
C657 N665 1.427 . S
C658 H649 0.930 . S
C658 C656 1.378 . S
C658 C659 1.367 . S
C659 C658 1.367 . S
C659 C661 1.433 . S
C660 C656 1.350 . S
C660 C657 1.463 . S
C660 N664 1.427 . S
C661 H651 0.929 . S
C661 C659 1.433 . S
C661 N664 1.384 . S
C662 H653 0.929 . S
C662 C654 1.378 . S
C662 C657 1.350 . S
C663 H650 0.929 . S
C663 C655 1.433 . S
C663 N665 1.384 . S
N664 C660 1.427 . S
N664 C661 1.384 . S
N665 C657 1.427 . S
N665 C663 1.384 . S
H666 C672 0.930 . S
H667 C676 0.930 . S
H668 C681 0.929 . S
H669 C679 0.929 . S
H670 C674 0.929 . S
H671 C680 0.929 . S
C672 H666 0.930 . S
C672 C673 1.367 . S
C672 C680 1.378 . S
C673 C672 1.367 . S
C673 C681 1.433 . S
C674 H670 0.929 . S
C674 C676 1.378 . S
C674 C678 1.350 . S
C675 C678 1.463 . S
C675 C680 1.350 . S
C675 N683 1.427 . S
C676 H667 0.930 . S
C676 C674 1.378 . S
C676 C677 1.367 . S
C677 C676 1.367 . S
C677 C679 1.433 . S
C678 C674 1.350 . S
C678 C675 1.463 . S
C678 N682 1.427 . S
C679 H669 0.929 . S
C679 C677 1.433 . S
C679 N682 1.384 . S
C680 H671 0.929 . S
C680 C672 1.378 . S
C680 C675 1.350 . S
C681 H668 0.929 . S
C681 C673 1.433 . S
C681 N683 1.384 . S
N682 C678 1.427 . S
N682 C679 1.384 . S
N683 C675 1.427 . S
N683 C681 1.384 . S
H684 C690 0.930 . S
H685 C694 0.930 . S
H686 C699 0.929 . S
H687 C697 0.929 . S
H688 C692 0.929 . S
H689 C698 0.929 . S
C690 H684 0.930 . S
C690 C691 1.367 . S
C690 C698 1.378 . S
C691 C690 1.367 . S
C691 C699 1.433 . S
C692 H688 0.929 . S
C692 C694 1.378 . S
C692 C696 1.350 . S
C693 C696 1.463 . S
C693 C698 1.350 . S
C693 N701 1.427 . S
C694 H685 0.930 . S
C694 C692 1.378 . S
C694 C695 1.367 . S
C695 C694 1.367 . S
C695 C697 1.433 . S
C696 C692 1.350 . S
C696 C693 1.463 . S
C696 N700 1.427 . S
C697 H687 0.929 . S
C697 C695 1.433 . S
C697 N700 1.384 . S
C698 H689 0.929 . S
C698 C690 1.378 . S
C698 C693 1.350 . S
C699 H686 0.929 . S
C699 C691 1.433 . S
C699 N701 1.384 . S
N700 C696 1.427 . S
N700 C697 1.384 . S
N701 C693 1.427 . S
N701 C699 1.384 . S
H702 C708 0.930 . S
H703 C712 0.930 . S
H704 C717 0.929 . S
H705 C715 0.929 . S
H706 C710 0.929 . S
H707 C716 0.929 . S
C708 H702 0.930 . S
C708 C709 1.367 . S
C708 C716 1.378 . S
C709 C708 1.367 . S
C709 C717 1.433 . S
C710 H706 0.929 . S
C710 C712 1.378 . S
C710 C714 1.350 . S
C711 C714 1.463 . S
C711 C716 1.350 . S
C711 N719 1.427 . S
C712 H703 0.930 . S
C712 C710 1.378 . S
C712 C713 1.367 . S
C713 C712 1.367 . S
C713 C715 1.433 . S
C714 C710 1.350 . S
C714 C711 1.463 . S
C714 N718 1.427 . S
C715 H705 0.929 . S
C715 C713 1.433 . S
C715 N718 1.384 . S
C716 H707 0.929 . S
C716 C708 1.378 . S
C716 C711 1.350 . S
C717 H704 0.929 . S
C717 C709 1.433 . S
C717 N719 1.384 . S
N718 C714 1.427 . S
N718 C715 1.384 . S
N719 C711 1.427 . S
N719 C717 1.384 . S
H720 C726 0.930 . S
H721 C730 0.930 . S
H722 C735 0.929 . S
H723 C733 0.929 . S
H724 C728 0.929 . S
H725 C734 0.929 . S
C726 H720 0.930 . S
C726 C727 1.367 . S
C726 C734 1.378 . S
C727 C726 1.367 . S
C727 C735 1.433 . S
C728 H724 0.929 . S
C728 C730 1.378 . S
C728 C732 1.350 . S
C729 C732 1.463 . S
C729 C734 1.350 . S
C729 N737 1.427 . S
C730 H721 0.930 . S
C730 C728 1.378 . S
C730 C731 1.367 . S
C731 C730 1.367 . S
C731 C733 1.433 . S
C732 C728 1.350 . S
C732 C729 1.463 . S
C732 N736 1.427 . S
C733 H723 0.929 . S
C733 C731 1.433 . S
C733 N736 1.384 . S
C734 H725 0.929 . S
C734 C726 1.378 . S
C734 C729 1.350 . S
C735 H722 0.929 . S
C735 C727 1.433 . S
C735 N737 1.384 . S
N736 C732 1.427 . S
N736 C733 1.384 . S
N737 C729 1.427 . S
N737 C735 1.384 . S
H738 C744 0.930 . S
H739 C748 0.930 . S
H740 C753 0.929 . S
H741 C751 0.929 . S
H742 C746 0.929 . S
H743 C752 0.929 . S
C744 H738 0.930 . S
C744 C745 1.367 . S
C744 C752 1.378 . S
C745 C744 1.367 . S
C745 C753 1.433 . S
C746 H742 0.929 . S
C746 C748 1.378 . S
C746 C750 1.350 . S
C747 C750 1.463 . S
C747 C752 1.350 . S
C747 N755 1.427 . S
C748 H739 0.930 . S
C748 C746 1.378 . S
C748 C749 1.367 . S
C749 C748 1.367 . S
C749 C751 1.433 . S
C750 C746 1.350 . S
C750 C747 1.463 . S
C750 N754 1.427 . S
C751 H741 0.929 . S
C751 C749 1.433 . S
C751 N754 1.384 . S
C752 H743 0.929 . S
C752 C744 1.378 . S
C752 C747 1.350 . S
C753 H740 0.929 . S
C753 C745 1.433 . S
C753 N755 1.384 . S
N754 C750 1.427 . S
N754 C751 1.384 . S
N755 C747 1.427 . S
N755 C753 1.384 . S
H756 C762 0.930 . S
H757 C766 0.930 . S
H758 C771 0.929 . S
H759 C769 0.929 . S
H760 C764 0.929 . S
H761 C770 0.929 . S
C762 H756 0.930 . S
C762 C763 1.367 . S
C762 C770 1.378 . S
C763 C762 1.367 . S
C763 C771 1.433 . S
C764 H760 0.929 . S
C764 C766 1.378 . S
C764 C768 1.350 . S
C765 C768 1.463 . S
C765 C770 1.350 . S
C765 N773 1.427 . S
C766 H757 0.930 . S
C766 C764 1.378 . S
C766 C767 1.367 . S
C767 C766 1.367 . S
C767 C769 1.433 . S
C768 C764 1.350 . S
C768 C765 1.463 . S
C768 N772 1.427 . S
C769 H759 0.929 . S
C769 C767 1.433 . S
C769 N772 1.384 . S
C770 H761 0.929 . S
C770 C762 1.378 . S
C770 C765 1.350 . S
C771 H758 0.929 . S
C771 C763 1.433 . S
C771 N773 1.384 . S
N772 C768 1.427 . S
N772 C769 1.384 . S
N773 C765 1.427 . S
N773 C771 1.384 . S
H774 C780 0.930 . S
H775 C784 0.930 . S
H776 C789 0.929 . S
H777 C787 0.929 . S
H778 C782 0.929 . S
H779 C788 0.929 . S
C780 H774 0.930 . S
C780 C781 1.367 . S
C780 C788 1.378 . S
C781 C780 1.367 . S
C781 C789 1.433 . S
C782 H778 0.929 . S
C782 C784 1.378 . S
C782 C786 1.350 . S
C783 C786 1.463 . S
C783 C788 1.350 . S
C783 N791 1.427 . S
C784 H775 0.930 . S
C784 C782 1.378 . S
C784 C785 1.367 . S
C785 C784 1.367 . S
C785 C787 1.433 . S
C786 C782 1.350 . S
C786 C783 1.463 . S
C786 N790 1.427 . S
C787 H777 0.929 . S
C787 C785 1.433 . S
C787 N790 1.384 . S
C788 H779 0.929 . S
C788 C780 1.378 . S
C788 C783 1.350 . S
C789 H776 0.929 . S
C789 C781 1.433 . S
C789 N791 1.384 . S
N790 C786 1.427 . S
N790 C787 1.384 . S
N791 C783 1.427 . S
N791 C789 1.384 . S
H792 C798 0.930 . S
H793 C802 0.930 . S
H794 C807 0.929 . S
H795 C805 0.929 . S
H796 C800 0.929 . S
H797 C806 0.929 . S
C798 H792 0.930 . S
C798 C799 1.367 . S
C798 C806 1.378 . S
C799 C798 1.367 . S
C799 C807 1.433 . S
C800 H796 0.929 . S
C800 C802 1.378 . S
C800 C804 1.350 . S
C801 C804 1.463 . S
C801 C806 1.350 . S
C801 N809 1.427 . S
C802 H793 0.930 . S
C802 C800 1.378 . S
C802 C803 1.367 . S
C803 C802 1.367 . S
C803 C805 1.433 . S
C804 C800 1.350 . S
C804 C801 1.463 . S
C804 N808 1.427 . S
C805 H795 0.929 . S
C805 C803 1.433 . S
C805 N808 1.384 . S
C806 H797 0.929 . S
C806 C798 1.378 . S
C806 C801 1.350 . S
C807 H794 0.929 . S
C807 C799 1.433 . S
C807 N809 1.384 . S
N808 C804 1.427 . S
N808 C805 1.384 . S
N809 C801 1.427 . S
N809 C807 1.384 . S
H810 C816 0.930 . S
H811 C820 0.930 . S
H812 C825 0.929 . S
H813 C823 0.929 . S
H814 C818 0.929 . S
H815 C824 0.929 . S
C816 H810 0.930 . S
C816 C817 1.367 . S
C816 C824 1.378 . S
C817 C816 1.367 . S
C817 C825 1.433 . S
C818 H814 0.929 . S
C818 C820 1.378 . S
C818 C822 1.350 . S
C819 C822 1.463 . S
C819 C824 1.350 . S
C819 N827 1.427 . S
C820 H811 0.930 . S
C820 C818 1.378 . S
C820 C821 1.367 . S
C821 C820 1.367 . S
C821 C823 1.433 . S
C822 C818 1.350 . S
C822 C819 1.463 . S
C822 N826 1.427 . S
C823 H813 0.929 . S
C823 C821 1.433 . S
C823 N826 1.384 . S
C824 H815 0.929 . S
C824 C816 1.378 . S
C824 C819 1.350 . S
C825 H812 0.929 . S
C825 C817 1.433 . S
C825 N827 1.384 . S
N826 C822 1.427 . S
N826 C823 1.384 . S
N827 C819 1.427 . S
N827 C825 1.384 . S
C511 C483 1.363 . S
C515 C63 1.367 . S
C529 C56 1.329 . S
C533 C140 1.319 . S
C547 C147 1.368 . S
C551 C231 1.371 . S
C565 C224 1.319 . S
C569 C308 1.332 . S
C583 C399 1.371 . S
C587 C315 1.368 . S
C601 C476 1.333 . S
C605 C392 1.326 . S
C619 C58 1.123 . S
C623 C69 1.123 . S
C637 C153 1.119 1_556 S
C641 C142 1.119 . S
C655 C226 1.125 . S
C659 C237 1.125 1_554 S
C673 C321 1.101 . S
C677 C310 1.101 . S
C691 C405 1.110 . S
C695 C394 1.110 1_556 S
C709 C489 1.121 . S
C713 C478 1.121 . S
C727 C74 1.628 . S
C731 C403 1.633 . S
C745 C151 1.629 . S
C749 C494 1.627 . S
C763 C67 1.633 . S
C767 C242 1.628 . S
C781 C158 1.626 . S
C785 C319 1.634 . S
C799 C410 1.626 . S
C803 C235 1.630 . S
C817 C326 1.630 . S
C821 C487 1.628 . S
