# Generated by pormake.
# Topology reo, (8)-cn, num edge types: 1
# Building blocks:
#     Node 0, Type 0, BuildingBlock: VETTIZ_charged_sbu_0, # of connection points: 8
#     Node 1, Type 0, BuildingBlock: VETTIZ_charged_sbu_0, # of connection points: 8
#     Node 2, Type 0, BuildingBlock: VETTIZ_charged_sbu_0, # of connection points: 8
#     Edge 3, Type (0, 0), BuildingBlock: XIVTED_clean_linker_0, # of connection points: 2
#     Edge 4, Type (0, 0), BuildingBlock: XIVTED_clean_linker_0, # of connection points: 2
#     Edge 5, Type (0, 0), BuildingBlock: XIVTED_clean_linker_0, # of connection points: 2
#     Edge 6, Type (0, 0), BuildingBlock: XIVTED_clean_linker_0, # of connection points: 2
#     Edge 7, Type (0, 0), BuildingBlock: XIVTED_clean_linker_0, # of connection points: 2
#     Edge 8, Type (0, 0), BuildingBlock: XIVTED_clean_linker_0, # of connection points: 2
#     Edge 9, Type (0, 0), BuildingBlock: XIVTED_clean_linker_0, # of connection points: 2
#     Edge 10, Type (0, 0), BuildingBlock: XIVTED_clean_linker_0, # of connection points: 2
#     Edge 11, Type (0, 0), BuildingBlock: XIVTED_clean_linker_0, # of connection points: 2
#     Edge 12, Type (0, 0), BuildingBlock: XIVTED_clean_linker_0, # of connection points: 2
#     Edge 13, Type (0, 0), BuildingBlock: XIVTED_clean_linker_0, # of connection points: 2
#     Edge 14, Type (0, 0), BuildingBlock: XIVTED_clean_linker_0, # of connection points: 2
# Relax obj value: 0.145
# Max RMSD: 0.165
# Mean RMSD: 0.165
data_MOF--net-reo--node1-VETTIZ_charged_sbu_0--edge1-XIVTED_clean_linker_0
_symmetry_space_group_name_H-M    P1
_symmetry_Int_Tables_number       1
_symmetry_cell_setting            triclinic
loop_
_symmetry_equiv_pos_as_xyz
'x, y, z'
_cell_length_a     22.808267
_cell_length_b     23.827431
_cell_length_c     24.820619
_cell_angle_alpha  89.313335
_cell_angle_beta   89.18374
_cell_angle_gamma 90.31233
loop_
_atom_site_label
_atom_site_type_symbol
_atom_site_fract_x
_atom_site_fract_y
_atom_site_fract_z
_atom_type_partial_charge
Fe0 Fe 0.04064 0.00396 0.42013 0.0
O1 O 0.02262 0.05503 0.48104 0.0
Fe2 Fe 0.07166 0.87653 0.48156 0.0
Fe3 Fe 0.97009 0.11971 0.47459 0.0
O4 O 0.02043 0.94174 0.47147 0.0
O5 O 1.01931 0.94132 0.47582 0.0
O6 O 0.02154 0.05462 0.48547 0.0
Fe7 Fe 1.00123 0.99227 0.53679 0.0
C8 C 0.06404 0.12777 0.38597 0.0
O9 O 0.95611 0.00491 0.39484 0.0
O10 O 0.93452 0.0954 0.40252 0.0
O11 O 0.98115 0.9212 0.58312 0.0
O12 O 1.00275 0.84594 0.52868 0.0
O13 O 0.04049 0.8583 0.40656 0.0
O14 O 0.05585 0.94304 0.36192 0.0
O15 O 0.89994 0.08529 0.5176 0.0
O16 O 0.91561 0.99436 0.51357 0.0
C17 C 0.04732 0.88901 0.36318 0.0
O18 O 0.08579 0.99104 0.56252 0.0
O19 O 0.10811 0.90077 0.55306 0.0
O20 O 0.06067 0.07497 0.37366 0.0
O21 O 0.03941 0.15034 0.42802 0.0
C22 C 0.9275 0.04789 0.38062 0.0
C23 C 0.88374 0.03503 0.52799 0.0
C24 C 0.99306 0.10733 0.59345 0.0
O25 O 0.99999 0.13819 0.55014 0.0
O26 O 0.98558 0.05317 0.5948 0.0
C27 C 0.97799 0.86841 0.57071 0.0
O28 O 0.14151 0.91095 0.43784 0.0
O29 O 0.1262 0.00181 0.44332 0.0
C30 C 0.11512 0.948 0.5755 0.0
C31 C 0.15791 0.96132 0.42821 0.0
Fe32 Fe 0.45313 -0.00121 -0.01859 0.0
O33 O 0.51989 0.99276 0.03211 0.0
Fe34 Fe 0.51996 0.05871 0.86716 0.0
Fe35 Fe 0.52261 0.93548 0.0896 0.0
O36 O 0.51679 0.00253 0.92523 0.0
O37 O 0.52277 0.00128 0.92456 0.0
O38 O 0.52584 0.99161 0.03146 0.0
Fe39 Fe 0.58953 0.99539 0.97531 0.0
C40 C 0.40712 0.99656 0.10013 0.0
O41 O 0.44991 0.91312 0.97291 0.0
O42 O 0.45564 0.88651 0.05881 0.0
O43 O 0.64723 -8e-05 0.90781 0.0
O44 O 0.58507 0.00916 0.8355 0.0
O45 O 0.44908 0.01291 0.84185 0.0
O46 O 0.39179 0.00386 0.91928 0.0
O47 O 0.58291 0.8831 0.05362 0.0
O48 O 0.59114 0.90918 0.96723 0.0
C49 C 0.40042 0.00087 0.86736 0.0
O50 O 0.59269 0.08112 -0.0163 0.0
O51 O 0.58708 0.1075 0.89776 0.0
O52 O 0.39536 0.99421 0.04884 0.0
O53 O 0.45742 0.98497 0.12117 0.0
C54 C 0.43946 0.87779 0.01064 0.0
C55 C 0.59807 0.87329 0.00505 0.0
C56 C 0.64192 0.99394 0.08942 0.0
O57 O 0.59334 0.98154 0.11491 0.0
O58 O 0.65078 0.99064 0.03754 0.0
C59 C 0.63535 0.99746 0.85655 0.0
O60 O 0.45973 0.11115 0.9033 0.0
O61 O 0.45178 0.08492 -0.01035 0.0
C62 C 0.60333 0.11629 0.94588 0.0
C63 C 0.44453 0.12081 0.95191 0.0
Fe64 Fe 0.02912 0.43365 -0.01532 0.0
O65 O 1.01868 0.50041 0.03118 0.0
Fe66 Fe 0.08342 0.49143 0.86451 0.0
Fe67 Fe 0.95967 0.5032 0.08968 0.0
O68 O 0.02649 0.4892 0.92409 0.0
O69 O 0.02472 0.49409 0.92318 0.0
O70 O 1.0168 0.50534 0.03025 0.0
Fe71 Fe 1.01407 0.56081 0.96962 0.0
C72 C 0.90413 0.41398 0.01787 0.0
O73 O 0.03199 0.38437 0.05478 0.0
O74 O 1.01727 0.44722 0.12362 0.0
O75 O 0.10313 0.5713 0.97517 0.0
O76 O 0.13066 0.56118 0.88952 0.0
O77 O 0.14287 0.43976 0.90255 0.0
O78 O 0.11901 0.43951 -0.01012 0.0
O79 O 1.00335 0.57625 0.10807 0.0
O80 O 1.00542 0.62395 0.02622 0.0
C81 C 0.15485 0.42897 0.95159 0.0
O82 O 1.01114 0.61014 0.89967 0.0
O83 O 0.02576 0.54749 0.83071 0.0
O84 O 0.94001 0.42334 -0.02084 0.0
O85 O 0.91265 0.43332 0.06483 0.0
C86 C 0.03662 0.40014 0.10459 0.0
C87 C 1.0119 0.62076 0.07804 0.0
C88 C 0.88842 0.56561 0.00237 0.0
O89 O 0.90022 0.55484 0.05145 0.0
O90 O 0.92426 0.55462 0.96423 0.0
C91 C 0.13916 0.58045 0.93653 0.0
O92 O 0.03935 0.41859 0.84616 0.0
O93 O 0.03737 0.37058 0.9279 0.0
C94 C 1.00638 0.59448 0.84987 0.0
C95 C 0.03032 0.37413 0.87615 0.0
H96 H 0.07712 0.42452 0.20455 0.0
H97 H 0.10157 0.10371 0.28329 0.0
H98 H 0.06277 0.28865 0.09167 0.0
H99 H 0.08908 0.23958 0.39661 0.0
H100 H 0.12083 0.17202 0.21122 0.0
H101 H 0.11318 0.35876 0.27174 0.0
C102 C 0.08175 0.38084 0.19376 0.0
C103 C 0.06485 0.36163 0.14302 0.0
C104 C 0.11504 0.18671 0.25207 0.0
C105 C 0.10633 0.28619 0.21989 0.0
C106 C 0.10407 0.14776 0.29334 0.0
C107 C 0.09112 0.1662 0.3457 0.0
C108 C 0.11298 0.2442 0.26346 0.0
C109 C 0.09666 0.2236 0.35649 0.0
C110 C 0.10283 0.34339 0.23208 0.0
C111 C 0.07387 0.30499 0.13075 0.0
N112 N 0.10595 0.2607 0.31545 0.0
N113 N 0.09293 0.26893 0.16938 0.0
H114 H 0.92601 0.96587 0.30471 0.0
H115 H 0.63584 0.06967 0.16902 0.0
H116 H 0.8417 0.12069 0.34958 0.0
H117 H 0.75604 0.95931 0.08735 0.0
H118 H 0.71048 0.08903 0.23587 0.0
H119 H 0.86309 0.96069 0.22614 0.0
C120 C 0.89408 -0.00135 0.29818 0.0
C121 C 0.88855 0.04351 0.33405 0.0
C122 C 0.72101 0.0613 0.2029 0.0
C123 C 0.81691 0.03789 0.2442 0.0
C124 C 0.67851 0.05025 0.16489 0.0
C125 C 0.69011 0.01265 0.12319 0.0
C126 C 0.77491 0.03344 0.19983 0.0
C127 C 0.74582 0.98863 0.11909 0.0
C128 C 0.8587 0.99595 0.25302 0.0
C129 C 0.84712 0.08522 0.32314 0.0
N130 N 0.78609 -0.00136 0.15773 0.0
N131 N 0.81242 0.0811 0.27941 0.0
H132 H 0.02381 0.92848 0.26136 0.0
H133 H 0.97302 0.7281 0.06427 0.0
H134 H 0.08453 0.78292 0.34915 0.0
H135 H 0.09537 0.62672 0.15296 0.0
H136 H 0.99374 0.80682 0.12374 0.0
H137 H 0.02988 0.87481 0.17771 0.0
C138 C 0.03817 0.88524 0.26291 0.0
C139 C 0.05174 0.85924 0.31218 0.0
C140 C 1.01768 0.76815 0.12908 0.0
C141 C 0.05911 0.79832 0.21774 0.0
C142 C 1.00548 0.72322 0.09542 0.0
C143 C 0.03137 0.67105 0.10535 0.0
C144 C 0.05632 0.76005 0.17209 0.0
C145 C 0.07334 0.66615 0.14544 0.0
C146 C 0.04151 0.85469 0.21533 0.0
C147 C 0.07165 0.80389 0.31226 0.0
N148 N 0.08393 0.70996 0.1779 0.0
N149 N 0.07449 0.7753 0.26578 0.0
H150 H 0.30318 0.9405 0.10836 0.0
H151 H 0.21116 0.06022 0.39572 0.0
H152 H 0.40583 0.06949 0.18332 0.0
H153 H 0.19374 0.8858 0.35276 0.0
H154 H 0.26454 0.07773 0.31028 0.0
H155 H 0.23945 0.93616 0.18901 0.0
C156 C 0.31082 0.96937 0.14095 0.0
C157 C 0.35939 0.00556 0.13942 0.0
C158 C 0.24919 0.03568 0.32007 0.0
C159 C 0.28794 0.00021 0.23147 0.0
C160 C 0.21932 0.02551 0.36889 0.0
C161 C 0.19859 0.97131 0.38193 0.0
C162 C 0.2569 0.99167 0.2836 0.0
C163 C 0.20955 0.9281 0.34506 0.0
C164 C 0.27517 0.9663 0.18715 0.0
C165 C 0.3685 0.04121 0.18318 0.0
N166 N 0.23735 0.93936 0.29743 0.0
N167 N 0.33324 0.03751 0.22771 0.0
H168 H 0.9411 0.8918 0.67371 0.0
H169 H 0.96643 0.57067 0.74955 0.0
H170 H 0.95196 0.75695 0.55915 0.0
H171 H 0.97889 0.70549 0.8638 0.0
H172 H 0.92967 0.63674 0.68296 0.0
H173 H 0.9216 0.82295 0.74524 0.0
C174 C 0.93817 0.84786 0.66329 0.0
C175 C 0.95077 0.82983 0.61074 0.0
C176 C 0.93976 0.6518 0.72279 0.0
C177 C 0.92872 0.75121 0.69236 0.0
C178 C 0.96125 0.61418 0.76076 0.0
C179 C 0.97785 0.63304 0.81169 0.0
C180 C 0.93559 0.70883 0.73553 0.0
C181 C 0.9681 0.68943 0.82453 0.0
C182 C 0.92707 0.8086 0.70425 0.0
C183 C 0.94471 0.77259 0.59946 0.0
N184 N 0.94868 0.72568 0.78623 0.0
N185 N 0.93536 0.73516 0.6402 0.0
H186 H 0.28606 0.03473 0.87259 0.0
H187 H 0.20148 0.87461 0.60335 0.0
H188 H 0.40542 0.92867 0.78465 0.0
H189 H 0.11881 0.02873 0.65277 0.0
H190 H 0.26491 0.87959 0.68166 0.0
H191 H 0.21099 0.01683 0.80448 0.0
C192 C 0.29583 0.00676 0.8396 0.0
C193 C 0.35172 0.98347 0.83351 0.0
C194 C 0.23274 0.9122 0.6753 0.0
C195 C 0.26727 0.96307 0.7564 0.0
C196 C 0.1967 0.9095 0.63062 0.0
C197 C 0.15529 0.95165 0.62126 0.0
C198 C 0.22679 0.95694 0.71117 0.0
C199 C 0.1507 0.99573 0.65812 0.0
C200 C 0.25344 0.99699 0.8007 0.0
C201 C 0.36282 0.94782 0.79014 0.0
N202 N 0.18605 0.99722 0.70161 0.0
N203 N 0.32099 0.93884 0.75302 0.0
H204 H 0.93867 0.37093 0.80978 0.0
H205 H 0.02767 0.07377 0.694 0.0
H206 H 0.07013 0.26646 0.88264 0.0
H207 H 0.93956 0.20645 0.60796 0.0
H208 H 1.01912 0.12869 0.77708 0.0
H209 H 0.91095 0.29339 0.75215 0.0
C210 C 0.96121 0.33118 0.81376 0.0
C211 C 1.00779 0.32493 0.84917 0.0
C212 C 1.00109 0.14516 0.74003 0.0
C213 C 0.97772 0.23714 0.7831 0.0
C214 C 1.00631 0.11424 0.69284 0.0
C215 C 0.98619 0.13694 0.64418 0.0
C216 C 0.9745 0.19811 0.73802 0.0
C217 C 0.95752 0.1886 0.64446 0.0
C218 C 0.94537 0.28702 0.78119 0.0
C219 C 0.03469 0.2726 0.85463 0.0
N220 N 0.95287 0.21762 0.69065 0.0
N221 N 0.02027 0.23067 0.82063 0.0
H222 H 0.63928 0.91995 0.77736 0.0
H223 H 0.84306 0.11332 0.59867 0.0
H224 H 0.73553 0.05837 0.84366 0.0
H225 H 0.83422 0.9359 0.5653 0.0
H226 H 0.79161 0.09612 0.6838 0.0
H227 H 0.7027 0.92429 0.69657 0.0
C228 C 0.67514 0.94997 0.77553 0.0
C229 C 0.68295 0.98843 0.81721 0.0
C230 C 0.80073 0.06101 0.65772 0.0
C231 C 0.75307 0.9955 0.72439 0.0
C232 C 0.82931 0.0708 0.60856 0.0
C233 C 0.84283 0.02597 0.57431 0.0
C234 C 0.7842 0.0062 0.67257 0.0
C235 C 0.82438 0.97175 0.59018 0.0
C236 C 0.71085 0.9527 0.7294 0.0
C237 C 0.72893 0.02742 0.81268 0.0
N238 N 0.79564 0.96336 0.63812 0.0
N239 N 0.76156 0.03078 0.76646 0.0
H240 H 0.25447 0.42296 0.89002 0.0
H241 H 0.37125 0.14605 0.03784 0.0
H242 H 0.17584 0.35679 0.03676 0.0
H243 H 0.44381 0.21621 0.89014 0.0
H244 H 0.30842 0.22906 0.04645 0.0
H245 H 0.33327 0.35494 0.8982 0.0
C246 C 0.25427 0.39462 0.92449 0.0
C247 C 0.20815 0.39538 0.96247 0.0
C248 C 0.33868 0.22652 0.01257 0.0
C249 C 0.2981 0.31606 0.97164 0.0
C250 C 0.37475 0.17924 0.00774 0.0
C251 C 0.41244 0.17373 0.96281 0.0
C252 C 0.34055 0.26863 0.97233 0.0
C253 C 0.41492 0.21809 0.92505 0.0
C254 C 0.29929 0.35554 0.92909 0.0
C255 C 0.21054 0.35778 0.00652 0.0
N256 N 0.37927 0.26319 0.93046 0.0
N257 N 0.25425 0.31904 0.00946 0.0
H258 H 0.21412 0.62992 0.86186 0.0
H259 H 0.39337 0.80063 0.0827 0.0
H260 H 0.17987 0.61773 0.03317 0.0
H261 H 0.40018 0.84127 0.91268 0.0
H262 H 0.32565 0.72376 0.06418 0.0
H263 H 0.2926 0.69779 0.87898 0.0
C264 C 0.2234 0.64101 0.90307 0.0
C265 C 0.19 0.61815 0.94608 0.0
C266 C 0.34223 0.74929 0.03088 0.0
C267 C 0.27988 0.69585 0.9659 0.0
C268 C 0.38116 0.79315 0.04138 0.0
C269 C 0.40246 0.82786 -0.00074 0.0
C270 C 0.3245 0.73961 -0.0222 0.0
C271 C 0.3848 0.81587 0.94653 0.0
C272 C 0.26808 0.67995 0.91278 0.0
C273 C 0.20409 0.63436 -0.00136 0.0
N274 N 0.34677 0.77292 0.93735 0.0
N275 N 0.24777 0.67218 0.007 0.0
H276 H 0.64962 0.19283 0.87339 0.0
H277 H 0.82922 0.365 0.09283 0.0
H278 H 0.64318 0.15308 0.0436 0.0
H279 H 0.8638 0.37551 0.92148 0.0
H280 H 0.75089 0.29685 0.07623 0.0
H281 H 0.7177 0.26954 0.89134 0.0
C282 C 0.66199 0.20047 0.91463 0.0
C283 C 0.64065 0.16607 0.95698 0.0
C284 C 0.77546 0.31437 0.04231 0.0
C285 C 0.71904 0.25416 -0.02222 0.0
C286 C 0.82006 0.35347 0.05171 0.0
C287 C 0.85346 0.37599 0.00854 0.0
C288 C 0.76373 0.29796 -0.01068 0.0
C289 C 0.83953 0.3592 0.95611 0.0
C290 C 0.70114 0.24424 0.92481 0.0
C291 C 0.65855 0.17825 0.00959 0.0
N292 N 0.79589 0.32125 0.94805 0.0
N293 N 0.69678 0.22114 0.01846 0.0
H294 H 0.86742 0.63517 0.91521 0.0
H295 H 0.59388 0.77687 0.06503 0.0
H296 H 0.78998 0.57596 0.06514 0.0
H297 H 0.67468 0.84822 0.92147 0.0
H298 H 0.65575 0.69458 0.05601 0.0
H299 H 0.78839 0.70429 0.90743 0.0
C300 C 0.83313 0.63577 0.94585 0.0
C301 C 0.83564 0.59991 -0.00881 0.0
C302 C 0.6598 0.72786 0.02608 0.0
C303 C 0.74548 0.67926 -0.01727 0.0
C304 C 0.62433 0.77502 0.03121 0.0
C305 C 0.62952 0.81999 -0.00564 0.0
C306 C 0.70156 0.72543 -0.01596 0.0
C307 C 0.6693 0.81464 0.95093 0.0
C308 C 0.78826 0.67556 0.94156 0.0
C309 C 0.79025 0.60303 0.02979 0.0
N310 N 0.70441 0.76857 0.94737 0.0
N311 N 0.74751 0.64218 0.02487 0.0
loop_
_geom_bond_atom_site_label_1
_geom_bond_atom_site_label_2
_geom_bond_distance
_geom_bond_site_symmetry_2
_ccdc_geom_bond_type
Fe0 O1 1.895 . S
Fe0 O4 1.706 1_645 S
Fe0 O9 2.077 1_545 S
Fe0 O14 1.918 1_545 S
Fe0 O20 2.094 1_655 S
Fe0 O29 1.938 1_655 S
O1 Fe0 1.895 . S
O1 Fe3 1.715 . S
Fe2 O4 1.886 . S
Fe2 O5 1.715 . S
Fe2 O12 1.935 . S
Fe2 O13 2.077 . S
Fe2 O19 1.935 . S
Fe2 O28 2.077 . S
Fe3 O1 1.715 . S
Fe3 O6 1.886 . S
Fe3 O10 1.935 . S
Fe3 O15 2.077 . S
Fe3 O21 1.935 . S
Fe3 O25 2.077 . S
O4 Fe0 1.706 1_465 S
O4 Fe2 1.886 . S
O5 Fe2 1.715 . S
O5 Fe7 1.892 . S
O6 Fe3 1.886 . S
O6 Fe7 1.708 1_645 S
Fe7 O5 1.892 . S
Fe7 O6 1.708 1_465 S
Fe7 O11 2.090 1_455 S
Fe7 O16 1.938 1_455 S
Fe7 O18 2.077 1_565 S
Fe7 O26 1.922 1_565 S
C8 O20 1.381 1_655 S
C8 O21 1.421 . S
O9 Fe0 2.077 1_565 S
O9 C22 1.381 1_565 S
O10 Fe3 1.935 . S
O10 C22 1.421 . S
O11 Fe7 2.090 1_655 S
O11 C27 1.381 1_655 S
O12 Fe2 1.935 . S
O12 C27 1.421 . S
O13 Fe2 2.077 . S
O13 C17 1.381 . S
O14 Fe0 1.918 1_565 S
O14 C17 1.421 1_655 S
O15 Fe3 2.077 . S
O15 C23 1.381 . S
O16 Fe7 1.938 1_655 S
O16 C23 1.421 1_565 S
C17 O13 1.381 . S
C17 O14 1.421 1_455 S
O18 Fe7 2.077 1_545 S
O18 C30 1.381 1_545 S
O19 Fe2 1.935 . S
O19 C30 1.421 . S
O20 Fe0 2.094 1_455 S
O20 C8 1.381 1_455 S
O21 Fe3 1.935 . S
O21 C8 1.421 . S
C22 O9 1.381 1_545 S
C22 O10 1.421 . S
C23 O15 1.381 . S
C23 O16 1.421 1_545 S
C24 O25 1.381 . S
C24 O26 1.421 1_655 S
O25 Fe3 2.077 . S
O25 C24 1.381 . S
O26 Fe7 1.922 1_545 S
O26 C24 1.421 1_455 S
C27 O11 1.381 1_455 S
C27 O12 1.421 . S
O28 Fe2 2.077 . S
O28 C31 1.381 . S
O29 Fe0 1.938 1_455 S
O29 C31 1.421 1_545 S
C30 O18 1.381 1_565 S
C30 O19 1.421 . S
C31 O28 1.381 . S
C31 O29 1.421 1_565 S
Fe32 O33 1.895 . S
Fe32 O36 1.706 1_564 S
Fe32 O41 2.077 1_554 S
Fe32 O46 1.918 1_554 S
Fe32 O52 2.094 1_565 S
Fe32 O61 1.938 1_565 S
O33 Fe32 1.895 . S
O33 Fe35 1.715 . S
Fe34 O36 1.886 . S
Fe34 O37 1.715 . S
Fe34 O44 1.935 . S
Fe34 O45 2.077 . S
Fe34 O51 1.935 . S
Fe34 O60 2.077 . S
Fe35 O33 1.715 . S
Fe35 O38 1.886 . S
Fe35 O42 1.935 . S
Fe35 O47 2.077 . S
Fe35 O53 1.935 . S
Fe35 O57 2.077 . S
O36 Fe32 1.706 1_546 S
O36 Fe34 1.886 . S
O37 Fe34 1.715 . S
O37 Fe39 1.892 . S
O38 Fe35 1.886 . S
O38 Fe39 1.708 1_564 S
Fe39 O37 1.892 . S
Fe39 O38 1.708 1_546 S
Fe39 O43 2.090 1_545 S
Fe39 O48 1.938 1_545 S
Fe39 O50 2.077 1_556 S
Fe39 O58 1.922 1_556 S
C40 O52 1.381 1_565 S
C40 O53 1.421 . S
O41 Fe32 2.077 1_556 S
O41 C54 1.381 1_556 S
O42 Fe35 1.935 . S
O42 C54 1.421 . S
O43 Fe39 2.090 1_565 S
O43 C59 1.381 1_565 S
O44 Fe34 1.935 . S
O44 C59 1.421 . S
O45 Fe34 2.077 . S
O45 C49 1.381 . S
O46 Fe32 1.918 1_556 S
O46 C49 1.421 1_565 S
O47 Fe35 2.077 . S
O47 C55 1.381 . S
O48 Fe39 1.938 1_565 S
O48 C55 1.421 1_556 S
C49 O45 1.381 . S
C49 O46 1.421 1_545 S
O50 Fe39 2.077 1_554 S
O50 C62 1.381 1_554 S
O51 Fe34 1.935 . S
O51 C62 1.421 . S
O52 Fe32 2.094 1_545 S
O52 C40 1.381 1_545 S
O53 Fe35 1.935 . S
O53 C40 1.421 . S
C54 O41 1.381 1_554 S
C54 O42 1.421 . S
C55 O47 1.381 . S
C55 O48 1.421 1_554 S
C56 O57 1.381 . S
C56 O58 1.421 1_565 S
O57 Fe35 2.077 . S
O57 C56 1.381 . S
O58 Fe39 1.922 1_554 S
O58 C56 1.421 1_545 S
C59 O43 1.381 1_545 S
C59 O44 1.421 . S
O60 Fe34 2.077 . S
O60 C63 1.381 . S
O61 Fe32 1.938 1_545 S
O61 C63 1.421 1_554 S
C62 O50 1.381 1_556 S
C62 O51 1.421 . S
C63 O60 1.381 . S
C63 O61 1.421 1_556 S
Fe64 O65 1.895 . S
Fe64 O68 1.706 1_654 S
Fe64 O73 2.094 1_655 S
Fe64 O78 1.938 1_655 S
Fe64 O84 2.077 1_554 S
Fe64 O93 1.918 1_554 S
O65 Fe64 1.895 . S
O65 Fe67 1.715 . S
Fe66 O68 1.886 . S
Fe66 O69 1.715 . S
Fe66 O76 1.935 . S
Fe66 O77 2.077 . S
Fe66 O83 1.935 . S
Fe66 O92 2.077 . S
Fe67 O65 1.715 . S
Fe67 O70 1.886 . S
Fe67 O74 1.935 . S
Fe67 O79 2.077 . S
Fe67 O85 1.935 . S
Fe67 O89 2.077 . S
O68 Fe64 1.706 1_456 S
O68 Fe66 1.886 . S
O69 Fe66 1.715 . S
O69 Fe71 1.892 . S
O70 Fe67 1.886 . S
O70 Fe71 1.708 1_654 S
Fe71 O69 1.892 . S
Fe71 O70 1.708 1_456 S
Fe71 O75 2.077 1_556 S
Fe71 O80 1.922 1_556 S
Fe71 O82 2.090 1_455 S
Fe71 O90 1.938 1_455 S
C72 O84 1.381 1_554 S
C72 O85 1.421 . S
O73 Fe64 2.094 1_455 S
O73 C86 1.381 1_455 S
O74 Fe67 1.935 . S
O74 C86 1.421 . S
O75 Fe71 2.077 1_554 S
O75 C91 1.381 1_554 S
O76 Fe66 1.935 . S
O76 C91 1.421 . S
O77 Fe66 2.077 . S
O77 C81 1.381 . S
O78 Fe64 1.938 1_455 S
O78 C81 1.421 1_554 S
O79 Fe67 2.077 . S
O79 C87 1.381 . S
O80 Fe71 1.922 1_554 S
O80 C87 1.421 1_455 S
C81 O77 1.381 . S
C81 O78 1.421 1_556 S
O82 Fe71 2.090 1_655 S
O82 C94 1.381 1_655 S
O83 Fe66 1.935 . S
O83 C94 1.421 . S
O84 Fe64 2.077 1_556 S
O84 C72 1.381 1_556 S
O85 Fe67 1.935 . S
O85 C72 1.421 . S
C86 O73 1.381 1_655 S
C86 O74 1.421 . S
C87 O79 1.381 . S
C87 O80 1.421 1_655 S
C88 O89 1.381 . S
C88 O90 1.421 1_554 S
O89 Fe67 2.077 . S
O89 C88 1.381 . S
O90 Fe71 1.938 1_655 S
O90 C88 1.421 1_556 S
C91 O75 1.381 1_556 S
C91 O76 1.421 . S
O92 Fe66 2.077 . S
O92 C95 1.381 . S
O93 Fe64 1.918 1_556 S
O93 C95 1.421 1_655 S
C94 O82 1.381 1_455 S
C94 O83 1.421 . S
C95 O92 1.381 . S
C95 O93 1.421 1_455 S
H96 C102 0.930 . S
H97 C106 0.930 . S
H98 C111 0.929 . S
H99 C109 0.929 . S
H100 C104 0.929 . S
H101 C110 0.929 . S
C102 H96 0.930 . S
C102 C103 1.367 . S
C102 C110 1.378 . S
C103 C102 1.367 . S
C103 C111 1.433 1_655 S
C104 H100 0.929 . S
C104 C106 1.378 . S
C104 C108 1.347 1_455 S
C105 C108 1.463 . S
C105 C110 1.350 . S
C105 N113 1.427 1_655 S
C106 H97 0.930 . S
C106 C104 1.378 . S
C106 C107 1.360 1_455 S
C107 C106 1.360 1_655 S
C107 C109 1.441 . S
C108 C104 1.347 1_655 S
C108 C105 1.463 . S
C108 N112 1.430 . S
C109 H99 0.929 . S
C109 C107 1.441 . S
C109 N112 1.384 . S
C110 H101 0.929 . S
C110 C102 1.378 . S
C110 C105 1.350 . S
C111 H98 0.929 . S
C111 C103 1.433 1_455 S
C111 N113 1.384 . S
N112 C108 1.430 . S
N112 C109 1.384 . S
N113 C105 1.427 1_455 S
N113 C111 1.384 . S
H114 C120 0.930 . S
H115 C124 0.930 . S
H116 C129 0.929 . S
H117 C127 0.929 . S
H118 C122 0.929 . S
H119 C128 0.929 . S
C120 H114 0.930 . S
C120 C121 1.367 . S
C120 C128 1.378 . S
C121 C120 1.367 . S
C121 C129 1.433 1_545 S
C122 H118 0.929 . S
C122 C124 1.378 . S
C122 C126 1.358 . S
C123 C126 1.462 1_545 S
C123 C128 1.350 . S
C123 N131 1.427 1_545 S
C124 H115 0.930 . S
C124 C122 1.378 . S
C124 C125 1.367 . S
C125 C124 1.367 . S
C125 C127 1.433 1_565 S
C126 C122 1.358 . S
C126 C123 1.462 1_565 S
C126 N130 1.419 1_565 S
C127 H117 0.929 . S
C127 C125 1.433 1_545 S
C127 N130 1.384 . S
C128 H119 0.929 . S
C128 C120 1.378 . S
C128 C123 1.350 . S
C129 H116 0.929 . S
C129 C121 1.433 1_565 S
C129 N131 1.384 . S
N130 C126 1.419 1_545 S
N130 C127 1.384 . S
N131 C123 1.427 1_565 S
N131 C129 1.384 . S
H132 C138 0.930 . S
H133 C142 0.930 . S
H134 C147 0.929 . S
H135 C145 0.929 . S
H136 C140 0.929 . S
H137 C146 0.929 . S
C138 H132 0.930 . S
C138 C139 1.365 1_655 S
C138 C146 1.378 . S
C139 C138 1.365 1_455 S
C139 C147 1.435 . S
C140 H136 0.929 . S
C140 C142 1.378 . S
C140 C144 1.350 . S
C141 C144 1.462 1_655 S
C141 C146 1.362 . S
C141 N149 1.415 1_655 S
C142 H133 0.930 . S
C142 C140 1.378 . S
C142 C143 1.368 1_455 S
C143 C142 1.368 1_655 S
C143 C145 1.432 . S
C144 C140 1.350 . S
C144 C141 1.462 1_455 S
C144 N148 1.427 1_455 S
C145 H135 0.929 . S
C145 C143 1.432 . S
C145 N148 1.384 . S
C146 H137 0.929 . S
C146 C138 1.378 . S
C146 C141 1.362 . S
C147 H134 0.929 . S
C147 C139 1.435 . S
C147 N149 1.384 . S
N148 C144 1.427 1_655 S
N148 C145 1.384 . S
N149 C141 1.415 1_455 S
N149 C147 1.384 . S
H150 C156 0.930 . S
H151 C160 0.930 . S
H152 C165 0.929 . S
H153 C163 0.929 . S
H154 C158 0.929 . S
H155 C164 0.929 . S
C156 H150 0.930 . S
C156 C157 1.367 . S
C156 C164 1.378 . S
C157 C156 1.367 . S
C157 C165 1.433 1_565 S
C158 H154 0.929 . S
C158 C160 1.378 . S
C158 C162 1.351 . S
C159 C162 1.462 1_565 S
C159 C164 1.350 . S
C159 N167 1.427 1_565 S
C160 H151 0.930 . S
C160 C158 1.378 . S
C160 C161 1.362 1_545 S
C161 C160 1.362 1_565 S
C161 C163 1.438 . S
C162 C158 1.351 . S
C162 C159 1.462 1_545 S
C162 N166 1.427 1_545 S
C163 H153 0.929 . S
C163 C161 1.438 . S
C163 N166 1.384 . S
C164 H155 0.929 . S
C164 C156 1.378 . S
C164 C159 1.350 . S
C165 H152 0.929 . S
C165 C157 1.433 1_545 S
C165 N167 1.384 . S
N166 C162 1.427 1_565 S
N166 C163 1.384 . S
N167 C159 1.427 1_545 S
N167 C165 1.384 . S
H168 C174 0.930 . S
H169 C178 0.930 . S
H170 C183 0.929 . S
H171 C181 0.929 . S
H172 C176 0.929 . S
H173 C182 0.929 . S
C174 H168 0.930 . S
C174 C175 1.367 . S
C174 C182 1.378 . S
C175 C174 1.367 . S
C175 C183 1.433 1_455 S
C176 H172 0.929 . S
C176 C178 1.378 . S
C176 C180 1.350 1_655 S
C177 C180 1.463 . S
C177 C182 1.350 . S
C177 N185 1.427 1_455 S
C178 H169 0.930 . S
C178 C176 1.378 . S
C178 C179 1.367 1_655 S
C179 C178 1.367 1_455 S
C179 C181 1.433 . S
C180 C176 1.350 1_455 S
C180 C177 1.463 . S
C180 N184 1.427 . S
C181 H171 0.929 . S
C181 C179 1.433 . S
C181 N184 1.384 . S
C182 H173 0.929 . S
C182 C174 1.378 . S
C182 C177 1.350 . S
C183 H170 0.929 . S
C183 C175 1.433 1_655 S
C183 N185 1.384 . S
N184 C180 1.427 . S
N184 C181 1.384 . S
N185 C177 1.427 1_655 S
N185 C183 1.384 . S
H186 C192 0.930 . S
H187 C196 0.930 . S
H188 C201 0.929 . S
H189 C199 0.929 . S
H190 C194 0.929 . S
H191 C200 0.929 . S
C192 H186 0.930 . S
C192 C193 1.367 . S
C192 C200 1.378 . S
C193 C192 1.367 . S
C193 C201 1.433 1_545 S
C194 H190 0.929 . S
C194 C196 1.378 . S
C194 C198 1.351 . S
C195 C198 1.462 1_545 S
C195 C200 1.352 . S
C195 N203 1.425 1_545 S
C196 H187 0.930 . S
C196 C194 1.378 . S
C196 C197 1.367 . S
C197 C196 1.367 . S
C197 C199 1.433 1_565 S
C198 C194 1.351 . S
C198 C195 1.462 1_565 S
C198 N202 1.426 1_565 S
C199 H189 0.929 . S
C199 C197 1.433 1_545 S
C199 N202 1.384 . S
C200 H191 0.929 . S
C200 C192 1.378 . S
C200 C195 1.352 . S
C201 H188 0.929 . S
C201 C193 1.433 1_565 S
C201 N203 1.384 . S
N202 C198 1.426 1_545 S
N202 C199 1.384 . S
N203 C195 1.425 1_565 S
N203 C201 1.384 . S
H204 C210 0.930 . S
H205 C214 0.930 . S
H206 C219 0.929 . S
H207 C217 0.929 . S
H208 C212 0.929 . S
H209 C218 0.929 . S
C210 H204 0.930 . S
C210 C211 1.367 . S
C210 C218 1.378 . S
C211 C210 1.367 . S
C211 C219 1.433 1_455 S
C212 H208 0.929 . S
C212 C214 1.378 . S
C212 C216 1.353 . S
C213 C216 1.462 1_455 S
C213 C218 1.354 . S
C213 N221 1.423 1_455 S
C214 H205 0.930 . S
C214 C212 1.378 . S
C214 C215 1.367 . S
C215 C214 1.367 . S
C215 C217 1.433 1_655 S
C216 C212 1.353 . S
C216 C213 1.462 1_655 S
C216 N220 1.424 1_655 S
C217 H207 0.929 . S
C217 C215 1.433 1_455 S
C217 N220 1.384 . S
C218 H209 0.929 . S
C218 C210 1.378 . S
C218 C213 1.354 . S
C219 H206 0.929 . S
C219 C211 1.433 1_655 S
C219 N221 1.384 . S
N220 C216 1.424 1_455 S
N220 C217 1.384 . S
N221 C213 1.423 1_655 S
N221 C219 1.384 . S
H222 C228 0.930 . S
H223 C232 0.930 . S
H224 C237 0.929 . S
H225 C235 0.929 . S
H226 C230 0.929 . S
H227 C236 0.929 . S
C228 H222 0.930 . S
C228 C229 1.358 1_565 S
C228 C236 1.378 . S
C229 C228 1.358 1_545 S
C229 C237 1.443 . S
C230 H226 0.929 . S
C230 C232 1.378 . S
C230 C234 1.350 . S
C231 C234 1.463 . S
C231 C236 1.346 1_545 S
C231 N239 1.431 . S
C232 H223 0.930 . S
C232 C230 1.378 . S
C232 C233 1.367 . S
C233 C232 1.367 . S
C233 C235 1.433 1_545 S
C234 C230 1.350 . S
C234 C231 1.463 . S
C234 N238 1.427 1_545 S
C235 H225 0.929 . S
C235 C233 1.433 1_565 S
C235 N238 1.384 . S
C236 H227 0.929 . S
C236 C228 1.378 . S
C236 C231 1.346 1_565 S
C237 H224 0.929 . S
C237 C229 1.443 . S
C237 N239 1.384 . S
N238 C234 1.427 1_565 S
N238 C235 1.384 . S
N239 C231 1.431 . S
N239 C237 1.384 . S
H240 C246 0.930 . S
H241 C250 0.930 . S
H242 C255 0.929 . S
H243 C253 0.929 . S
H244 C248 0.929 . S
H245 C254 0.929 . S
C246 H240 0.930 . S
C246 C247 1.361 1_554 S
C246 C254 1.378 . S
C247 C246 1.361 1_556 S
C247 C255 1.440 . S
C248 H244 0.929 . S
C248 C250 1.378 . S
C248 C252 1.350 . S
C249 C252 1.463 . S
C249 C254 1.345 1_556 S
C249 N257 1.432 . S
C250 H241 0.930 . S
C250 C248 1.378 . S
C250 C251 1.367 . S
C251 C250 1.367 . S
C251 C253 1.433 1_556 S
C252 C248 1.350 . S
C252 C249 1.463 . S
C252 N256 1.427 1_556 S
C253 H243 0.929 . S
C253 C251 1.433 1_554 S
C253 N256 1.384 . S
C254 H245 0.929 . S
C254 C246 1.378 . S
C254 C249 1.345 1_554 S
C255 H242 0.929 . S
C255 C247 1.440 . S
C255 N257 1.384 . S
N256 C252 1.427 1_554 S
N256 C253 1.384 . S
N257 C249 1.432 . S
N257 C255 1.384 . S
H258 C264 0.930 . S
H259 C268 0.930 . S
H260 C273 0.929 . S
H261 C271 0.929 . S
H262 C266 0.929 . S
H263 C272 0.929 . S
C264 H258 0.930 . S
C264 C265 1.367 . S
C264 C272 1.378 . S
C265 C264 1.367 . S
C265 C273 1.433 1_556 S
C266 H262 0.929 . S
C266 C268 1.378 . S
C266 C270 1.350 . S
C267 C270 1.463 1_556 S
C267 C272 1.350 . S
C267 N275 1.427 1_556 S
C268 H259 0.930 . S
C268 C266 1.378 . S
C268 C269 1.367 . S
C269 C268 1.367 . S
C269 C271 1.433 1_554 S
C270 C266 1.350 . S
C270 C267 1.463 1_554 S
C270 N274 1.427 1_554 S
C271 H261 0.929 . S
C271 C269 1.433 1_556 S
C271 N274 1.384 . S
C272 H263 0.929 . S
C272 C264 1.378 . S
C272 C267 1.350 . S
C273 H260 0.929 . S
C273 C265 1.433 1_554 S
C273 N275 1.384 . S
N274 C270 1.427 1_556 S
N274 C271 1.384 . S
N275 C267 1.427 1_554 S
N275 C273 1.384 . S
H276 C282 0.930 . S
H277 C286 0.930 . S
H278 C291 0.929 . S
H279 C289 0.929 . S
H280 C284 0.929 . S
H281 C290 0.929 . S
C282 H276 0.930 . S
C282 C283 1.367 . S
C282 C290 1.378 . S
C283 C282 1.367 . S
C283 C291 1.433 1_556 S
C284 H280 0.929 . S
C284 C286 1.378 . S
C284 C288 1.350 . S
C285 C288 1.463 1_556 S
C285 C290 1.350 . S
C285 N293 1.427 1_556 S
C286 H277 0.930 . S
C286 C284 1.378 . S
C286 C287 1.367 . S
C287 C286 1.367 . S
C287 C289 1.433 1_554 S
C288 C284 1.350 . S
C288 C285 1.463 1_554 S
C288 N292 1.427 1_554 S
C289 H279 0.929 . S
C289 C287 1.433 1_556 S
C289 N292 1.384 . S
C290 H281 0.929 . S
C290 C282 1.378 . S
C290 C285 1.350 . S
C291 H278 0.929 . S
C291 C283 1.433 1_554 S
C291 N293 1.384 . S
N292 C288 1.427 1_556 S
N292 C289 1.384 . S
N293 C285 1.427 1_554 S
N293 C291 1.384 . S
H294 C300 0.930 . S
H295 C304 0.930 . S
H296 C309 0.929 . S
H297 C307 0.929 . S
H298 C302 0.929 . S
H299 C308 0.929 . S
C300 H294 0.930 . S
C300 C301 1.367 . S
C300 C308 1.378 . S
C301 C300 1.367 . S
C301 C309 1.433 1_554 S
C302 H298 0.929 . S
C302 C304 1.378 . S
C302 C306 1.344 1_556 S
C303 C306 1.463 . S
C303 C308 1.350 . S
C303 N311 1.427 1_554 S
C304 H295 0.930 . S
C304 C302 1.378 . S
C304 C305 1.358 1_556 S
C305 C304 1.358 1_554 S
C305 C307 1.443 . S
C306 C302 1.344 1_554 S
C306 C303 1.463 . S
C306 N310 1.434 . S
C307 H297 0.929 . S
C307 C305 1.443 . S
C307 N310 1.384 . S
C308 H299 0.929 . S
C308 C300 1.378 . S
C308 C303 1.350 . S
C309 H296 0.929 . S
C309 C301 1.433 1_556 S
C309 N311 1.384 . S
N310 C306 1.434 . S
N310 C307 1.384 . S
N311 C303 1.427 1_556 S
N311 C309 1.384 . S
C103 C86 1.173 . S
C107 C8 1.175 . S
C121 C22 1.124 . S
C125 C56 1.128 . S
C139 C17 1.137 . S
C143 C87 1.122 . S
C157 C40 1.169 . S
C161 C31 1.165 . S
C175 C27 1.167 . S
C179 C94 1.183 . S
C193 C49 1.115 . S
C197 C30 1.136 . S
C211 C95 1.131 . S
C215 C24 1.114 . S
C229 C59 1.188 . S
C233 C23 1.158 . S
C247 C81 1.180 . S
C251 C63 1.152 . S
C265 C91 1.123 . S
C269 C54 1.126 . S
C283 C62 1.128 . S
C287 C72 1.123 . S
C301 C88 1.155 . S
C305 C55 1.184 . S
