# Generated by pormake.
# Topology afw, (4)-cn, num edge types: 1
# Building blocks:
#     Node 0, Type 0, BuildingBlock: GALJAG_clean_sbu_0, # of connection points: 4
#     Node 1, Type 0, BuildingBlock: GALJAG_clean_sbu_0, # of connection points: 4
#     Node 2, Type 0, BuildingBlock: GALJAG_clean_sbu_0, # of connection points: 4
#     Node 3, Type 0, BuildingBlock: GALJAG_clean_sbu_0, # of connection points: 4
#     Node 4, Type 0, BuildingBlock: GALJAG_clean_sbu_0, # of connection points: 4
#     Node 5, Type 0, BuildingBlock: GALJAG_clean_sbu_0, # of connection points: 4
#     Node 6, Type 0, BuildingBlock: GALJAG_clean_sbu_0, # of connection points: 4
#     Node 7, Type 0, BuildingBlock: GALJAG_clean_sbu_0, # of connection points: 4
#     Node 8, Type 0, BuildingBlock: GALJAG_clean_sbu_0, # of connection points: 4
#     Edge 9, Type (0, 0), BuildingBlock: FUNLAD_clean_linker_1, # of connection points: 2
#     Edge 10, Type (0, 0), BuildingBlock: FUNLAD_clean_linker_1, # of connection points: 2
#     Edge 11, Type (0, 0), BuildingBlock: FUNLAD_clean_linker_1, # of connection points: 2
#     Edge 12, Type (0, 0), BuildingBlock: FUNLAD_clean_linker_1, # of connection points: 2
#     Edge 13, Type (0, 0), BuildingBlock: FUNLAD_clean_linker_1, # of connection points: 2
#     Edge 14, Type (0, 0), BuildingBlock: FUNLAD_clean_linker_1, # of connection points: 2
#     Edge 15, Type (0, 0), BuildingBlock: FUNLAD_clean_linker_1, # of connection points: 2
#     Edge 16, Type (0, 0), BuildingBlock: FUNLAD_clean_linker_1, # of connection points: 2
#     Edge 17, Type (0, 0), BuildingBlock: FUNLAD_clean_linker_1, # of connection points: 2
#     Edge 18, Type (0, 0), BuildingBlock: FUNLAD_clean_linker_1, # of connection points: 2
#     Edge 19, Type (0, 0), BuildingBlock: FUNLAD_clean_linker_1, # of connection points: 2
#     Edge 20, Type (0, 0), BuildingBlock: FUNLAD_clean_linker_1, # of connection points: 2
#     Edge 21, Type (0, 0), BuildingBlock: FUNLAD_clean_linker_1, # of connection points: 2
#     Edge 22, Type (0, 0), BuildingBlock: FUNLAD_clean_linker_1, # of connection points: 2
#     Edge 23, Type (0, 0), BuildingBlock: FUNLAD_clean_linker_1, # of connection points: 2
#     Edge 24, Type (0, 0), BuildingBlock: FUNLAD_clean_linker_1, # of connection points: 2
#     Edge 25, Type (0, 0), BuildingBlock: FUNLAD_clean_linker_1, # of connection points: 2
#     Edge 26, Type (0, 0), BuildingBlock: FUNLAD_clean_linker_1, # of connection points: 2
# Relax obj value: 0.092
# Max RMSD: 0.157
# Mean RMSD: 0.157
data_MOF--net-afw--node1-GALJAG_clean_sbu_0--edge1-FUNLAD_clean_linker_1
_symmetry_space_group_name_H-M    P1
_symmetry_Int_Tables_number       1
_symmetry_cell_setting            triclinic
loop_
_symmetry_equiv_pos_as_xyz
'x, y, z'
_cell_length_a     47.770775
_cell_length_b     48.105472
_cell_length_c     27.84418
_cell_angle_alpha  90.131225
_cell_angle_beta   90.198206
_cell_angle_gamma 120.43119
loop_
_atom_site_label
_atom_site_type_symbol
_atom_site_fract_x
_atom_site_fract_y
_atom_site_fract_z
_atom_type_partial_charge
In0 In 0.0159 0.20506 0.01292 0.0
O1 O 0.00866 0.22833 0.94619 0.0
O2 O 0.05153 0.25558 0.9882 0.0
C3 C 0.96843 0.14323 0.00444 0.0
C4 C 0.99401 0.22729 0.08278 0.0
C5 C 0.06619 0.19503 0.01621 0.0
O6 O 0.97829 0.16198 0.96885 0.0
O7 O 0.98214 0.15578 0.04386 0.0
O8 O 0.05774 0.205 0.05217 0.0
O9 O 0.04974 0.19076 0.97849 0.0
C10 C 0.03479 0.25472 0.95253 0.0
O11 O 0.01941 0.22568 0.08788 0.0
O12 O 0.9796 0.21734 0.04296 0.0
In13 In 0.81619 0.83512 0.05387 0.0
O14 O 0.7933 0.81153 0.9817 0.0
O15 O 0.76658 0.8241 0.02974 0.0
C16 C 0.87725 0.84619 0.05356 0.0
C17 C 0.78494 0.78448 0.11189 0.0
C18 C 0.8326 0.89713 0.06024 0.0
O19 O 0.86114 0.84109 0.01505 0.0
O20 O 0.86223 0.84457 0.09154 0.0
O21 O 0.82428 0.8792 0.09684 0.0
O22 O 0.83188 0.88355 0.02107 0.0
C23 C 0.76725 0.81151 0.99034 0.0
O24 O 0.78758 0.81139 0.12188 0.0
O25 O 0.79903 0.78377 0.074 0.0
In26 In 0.18818 0.01396 0.99116 0.0
O27 O 0.20876 0.01131 0.06437 0.0
O28 O 0.23967 0.04817 0.01545 0.0
C29 C 0.12485 0.96807 -0.00305 0.0
C30 C 0.21409 0.98972 0.9312 0.0
C31 C 0.18115 0.06536 0.97737 0.0
O32 O 0.14192 0.98111 0.03405 0.0
O33 O 0.13983 0.97746 0.95783 0.0
O34 O 0.18447 0.05031 0.94278 0.0
O35 O 0.1817 0.0547 0.01847 0.0
C36 C 0.23668 0.03506 0.05577 0.0
O37 O 0.21254 0.01447 0.92097 0.0
O38 O 0.20197 0.97686 0.97108 0.0
In39 In 0.67261 0.52207 0.33626 0.0
O40 O 0.66134 0.54277 0.26976 0.0
O41 O 0.71074 0.56133 0.28986 0.0
C42 C 0.62163 0.46219 0.34592 0.0
C43 C 0.66288 0.55634 0.40353 0.0
C44 C 0.71895 0.50664 0.33389 0.0
O45 O 0.62604 0.47826 0.30796 0.0
O46 O 0.64235 0.4765 0.37868 0.0
O47 O 0.72066 0.52817 0.36203 0.0
O48 O 0.69415 0.49323 0.30708 0.0
C49 C 0.69088 0.56278 0.26174 0.0
O50 O 0.68327 0.54733 0.40963 0.0
O51 O 0.64761 0.54785 0.36428 0.0
In52 In 0.50351 0.16421 0.30897 0.0
O53 O 0.48679 0.14738 0.23133 0.0
O54 O 0.4527 0.14635 0.2814 0.0
C55 C 0.56739 0.18432 0.30896 0.0
C56 C 0.48093 0.11158 0.36395 0.0
C57 C 0.50631 0.22067 0.32531 0.0
O58 O 0.55061 0.17603 0.27078 0.0
O59 O 0.55187 0.18192 0.34684 0.0
O60 O 0.48956 0.19632 0.35127 0.0
O61 O 0.52145 0.21647 0.29172 0.0
C62 C 0.45802 0.14083 0.23918 0.0
O63 O 0.48405 0.13771 0.3796 0.0
O64 O 0.48974 0.11224 0.32114 0.0
In65 In 0.87897 0.36545 0.35216 0.0
O66 O 0.90697 0.36629 0.41999 0.0
O67 O 0.93032 0.40453 0.3696 0.0
C68 C 0.81724 0.31793 0.36625 0.0
C69 C 0.89742 0.33866 0.2843 0.0
C70 C 0.86802 0.41464 0.34465 0.0
O71 O 0.83773 0.32908 0.40025 0.0
O72 O 0.82812 0.33026 0.3257 0.0
O73 O 0.88299 0.40881 0.3126 0.0
O74 O 0.85902 0.39601 0.38034 0.0
C75 C 0.93228 0.39226 0.4084 0.0
O76 O 0.89047 0.36009 0.27458 0.0
O77 O 0.89486 0.33072 0.32792 0.0
In78 In 0.36387 0.88113 0.67744 0.0
O79 O 0.36469 0.90494 0.60603 0.0
O80 O 0.3999 0.9331 0.65943 0.0
C81 C 0.31313 0.82138 0.66448 0.0
C82 C 0.33865 0.8997 0.74774 0.0
C83 C 0.41317 0.86935 0.67998 0.0
O84 O 0.32328 0.84207 0.63129 0.0
O85 O 0.32844 0.83094 0.70378 0.0
O86 O 0.41063 0.88727 0.71068 0.0
O87 O 0.39107 0.85757 0.64854 0.0
C88 C 0.38869 0.9319 0.61803 0.0
O89 O 0.36002 0.89225 0.75613 0.0
O90 O 0.33037 0.89796 0.70426 0.0
In91 In 0.17176 0.51818 0.71102 0.0
O92 O 0.14893 0.49473 0.63836 0.0
O93 O 0.11815 0.49265 0.69543 0.0
C94 C 0.23541 0.53898 0.70622 0.0
C95 C 0.15423 0.47119 0.7754 0.0
C96 C 0.17775 0.57672 0.71377 0.0
O97 O 0.21645 0.52393 0.67143 0.0
O98 O 0.22221 0.54319 0.74246 0.0
O99 O 0.17343 0.56042 0.75143 0.0
O100 O 0.17807 0.56308 0.67518 0.0
C101 C 0.12035 0.4853 0.65274 0.0
O102 O 0.14695 0.49292 0.78056 0.0
O103 O 0.17082 0.47373 0.73881 0.0
In104 In 0.54036 0.69076 0.66669 0.0
O105 O 0.56278 0.6891 0.73886 0.0
O106 O 0.59022 0.72864 0.69157 0.0
C107 C 0.48021 0.63945 0.66034 0.0
C108 C 0.56898 0.67283 0.6016 0.0
C109 C 0.52234 0.73513 0.67023 0.0
O110 O 0.49573 0.64764 0.69977 0.0
O111 O 0.49543 0.65632 0.62458 0.0
O112 O 0.53988 0.7348 0.63651 0.0
O113 O 0.51448 0.71363 0.70158 0.0
C114 C 0.58907 0.71515 0.73083 0.0
O115 O 0.56241 0.69473 0.59286 0.0
O116 O 0.56079 0.66005 0.64262 0.0
H117 H 0.16532 0.0935 0.93473 0.0
C118 C 0.17328 0.09088 0.97018 0.0
H119 H 0.17958 0.10493 0.04299 0.0
H120 H 0.14467 0.20714 0.93066 0.0
H121 H 0.19675 0.22834 0.89102 0.0
H122 H 0.23018 0.20318 0.90321 0.0
H123 H 0.21171 0.15659 0.95498 0.0
C124 C 0.17209 0.10799 0.00743 0.0
C125 C 0.15414 0.12561 0.00347 0.0
C126 C 0.16549 0.15298 0.9735 0.0
C127 C 0.14643 0.16773 0.967 0.0
C128 C 0.15822 0.19501 0.93682 0.0
C129 C 0.18807 0.20745 0.91394 0.0
C130 C 0.20688 0.19325 0.92075 0.0
C131 C 0.1959 0.1664 0.95028 0.0
H132 H 0.1031 0.18875 0.05423 0.0
C133 C 0.0911 0.18582 0.0198 0.0
H134 H 0.08464 0.16754 0.94893 0.0
H135 H 0.1263 0.07463 0.06615 0.0
H136 H 0.07476 0.05392 0.10616 0.0
H137 H 0.04017 0.0775 0.09119 0.0
H138 H 0.05781 0.12296 0.03789 0.0
C139 C 0.09627 0.17048 0.98369 0.0
C140 C 0.11632 0.15528 0.99089 0.0
C141 C 0.10501 0.12796 0.02107 0.0
C142 C 0.12431 0.11356 0.02819 0.0
C143 C 0.11272 0.08662 0.05919 0.0
C144 C 0.08298 0.07427 0.08223 0.0
C145 C 0.06362 0.08765 0.07402 0.0
C146 C 0.07425 0.11401 0.0436 0.0
H147 H 0.85083 0.9434 0.09865 0.0
C148 C 0.84538 0.93205 0.06339 0.0
H149 H 0.84837 0.93875 0.98835 0.0
H150 H 0.88439 0.08275 0.07666 0.0
H151 H 0.82911 0.05626 0.10642 0.0
H152 H 0.79323 -0.00262 0.09839 0.0
H153 H 0.81247 0.96461 0.06089 0.0
C154 C 0.85319 0.95014 0.02355 0.0
C155 C 0.87353 0.98581 0.02581 0.0
C156 C 0.86165 0.00458 0.04717 0.0
C157 C 0.88212 0.03857 0.05102 0.0
C158 C 0.86982 0.05682 0.0728 0.0
C159 C 0.83813 0.04194 0.08993 0.0
C160 C 0.81795 0.00878 0.08546 0.0
C161 C 0.82938 0.99022 0.06418 0.0
H162 H 0.93483 0.09896 0.96426 0.0
C163 C 0.94429 0.10874 -0.00025 0.0
H164 H 0.94442 0.09865 0.07363 0.0
H165 H 0.90355 0.95694 0.98108 0.0
H166 H 0.95844 0.98356 0.95061 0.0
H167 H 0.99437 0.04237 0.95926 0.0
H168 H 0.97526 0.07495 -0.00271 0.0
C169 C 0.93561 0.08906 0.03783 0.0
C170 C 0.91411 0.05369 0.03268 0.0
C171 C 0.92592 0.03498 0.01087 0.0
C172 C 0.90545 0.00102 0.00687 0.0
C173 C 0.91784 0.98287 0.98485 0.0
C174 C 0.94943 -0.00216 0.9673 0.0
C175 C 0.96964 0.03093 0.97215 0.0
C176 C 0.95824 0.04938 0.99385 0.0
H177 H 0.92314 0.85926 0.09022 0.0
C178 C 0.91202 0.85671 0.05511 0.0
H179 H 0.9207 0.86643 0.98094 0.0
H180 H 0.05924 0.98422 0.05469 0.0
H181 H 0.02767 0.01058 0.06418 0.0
H182 H 0.96825 0.98016 0.05548 0.0
H183 H 0.93979 0.92337 0.03471 0.0
C184 C 0.93099 0.86746 0.01621 0.0
C185 C 0.9669 0.88551 0.02183 0.0
C186 C 0.98321 0.91882 0.03346 0.0
C187 C 0.01752 0.93625 0.03951 0.0
C188 C 0.03318 0.96964 0.05031 0.0
C189 C 0.01542 0.98514 0.05584 0.0
C190 C 0.98191 0.96802 0.05066 0.0
C191 C 0.96587 0.93534 0.0391 0.0
H192 H 0.07776 0.93434 0.96373 0.0
C193 C 0.08965 0.9451 -0.00227 0.0
H194 H 0.08283 0.95127 0.07094 0.0
H195 H 0.94291 0.822 0.00013 0.0
H196 H 0.97392 0.79478 0.99347 0.0
H197 H 0.03323 0.82452 0.00637 0.0
H198 H 0.06197 0.88164 0.02569 0.0
C199 C 0.07157 0.93926 0.03727 0.0
C200 C 0.03546 0.9203 0.03394 0.0
C201 C 0.019 0.88679 0.02337 0.0
C202 C 0.98471 0.86947 0.01683 0.0
C203 C 0.9689 0.83617 0.00575 0.0
C204 C 0.98639 0.82029 0.00185 0.0
C205 C 0.0198 0.83705 0.00903 0.0
C206 C 0.03604 0.86988 0.0198 0.0
H207 H 0.87392 0.45973 0.3145 0.0
C208 C 0.86012 0.44027 0.33961 0.0
H209 H 0.82104 0.41871 0.38789 0.0
H210 H 0.79223 0.52572 0.44021 0.0
H211 H 0.81232 0.51784 0.51593 0.0
H212 H 0.8393 0.4857 0.51998 0.0
H213 H 0.84586 0.4608 0.44837 0.0
C214 C 0.83463 0.43831 0.36283 0.0
C215 C 0.82439 0.46263 0.35768 0.0
C216 C 0.82205 0.47821 0.39953 0.0
C217 C 0.80726 0.49742 0.39701 0.0
C218 C 0.80363 0.51122 0.43983 0.0
C219 C 0.8151 0.50693 0.48362 0.0
C220 C 0.83025 0.4888 0.48592 0.0
C221 C 0.83373 0.47453 0.44454 0.0
H222 H 0.73591 0.47326 0.31678 0.0
C223 C 0.74315 0.49653 0.33306 0.0
H224 H 0.78053 0.53785 0.3676 0.0
H225 H 0.82255 0.43481 0.26972 0.0
H226 H 0.80916 0.44871 0.19315 0.0
H227 H 0.79211 0.48921 0.18782 0.0
H228 H 0.78704 0.51491 0.25996 0.0
C229 C 0.77321 0.51462 0.35119 0.0
C230 C 0.79568 0.50168 0.35235 0.0
C231 C 0.80189 0.48958 0.3097 0.0
C232 C 0.81452 0.46851 0.31247 0.0
C233 C 0.81572 0.45302 0.26979 0.0
C234 C 0.80766 0.46048 0.22542 0.0
C235 C 0.79787 0.48312 0.22243 0.0
C236 C 0.79486 0.49749 0.26401 0.0
H237 H 0.48819 0.25204 0.35186 0.0
C238 C 0.50783 0.25167 0.33291 0.0
H239 H 0.55239 0.27798 0.29719 0.0
H240 H 0.56206 0.40251 0.22868 0.0
H241 H 0.55587 0.37452 0.15371 0.0
H242 H 0.5387 0.31677 0.15259 0.0
H243 H 0.5282 0.28687 0.2268 0.0
C244 C 0.53317 0.27905 0.31644 0.0
C245 C 0.53514 0.31092 0.31808 0.0
C246 C 0.53959 0.3277 0.27431 0.0
C247 C 0.54862 0.36077 0.27492 0.0
C248 C 0.55483 0.37734 0.23067 0.0
C249 C 0.55128 0.36151 0.18716 0.0
C250 C 0.54165 0.32902 0.18652 0.0
C251 C 0.53587 0.3122 0.22942 0.0
H252 H 0.60321 0.41396 0.37484 0.0
C253 C 0.59757 0.42775 0.34978 0.0
H254 H 0.56577 0.4267 0.29663 0.0
H255 H 0.52817 0.28654 0.40984 0.0
H256 H 0.52604 0.31223 0.48337 0.0
H257 H 0.53298 0.36667 0.48231 0.0
H258 H 0.54363 0.39624 0.40728 0.0
C259 C 0.57113 0.41267 0.32153 0.0
C260 C 0.55222 0.37666 0.3194 0.0
C261 C 0.54255 0.35841 0.36238 0.0
C262 C 0.53578 0.32603 0.36228 0.0
C263 C 0.53106 0.31021 0.40693 0.0
C264 C 0.53012 0.32486 0.44966 0.0
C265 C 0.5342 0.35557 0.44912 0.0
C266 C 0.54047 0.37231 0.40607 0.0
H267 H 0.61502 0.20222 0.27432 0.0
C268 C 0.60289 0.198 0.30875 0.0
H269 H 0.60848 0.20379 0.38393 0.0
H270 H 0.75288 0.23004 0.30834 0.0
H271 H 0.72441 0.17385 0.28345 0.0
H272 H 0.6648 0.14065 0.28975 0.0
H273 H 0.63327 0.16345 0.32051 0.0
C274 C 0.6205 0.20712 0.34958 0.0
C275 C 0.65668 0.22599 0.349 0.0
C276 C 0.67478 0.21206 0.33185 0.0
C277 C 0.70923 0.23104 0.32907 0.0
C278 C 0.72669 0.21669 0.31118 0.0
C279 C 0.71066 0.18446 0.29693 0.0
C280 C 0.6771 0.16577 0.30042 0.0
C281 C 0.65926 0.17923 0.31782 0.0
H282 H 0.77409 0.28639 0.41021 0.0
C283 C 0.78257 0.29422 0.37386 0.0
H284 H 0.76958 0.29149 0.30062 0.0
H285 H 0.62955 0.25987 0.38578 0.0
H286 H 0.65816 0.31563 0.41192 0.0
H287 H 0.71783 0.3485 0.40688 0.0
H288 H 0.74922 0.32575 0.37592 0.0
C289 C 0.76121 0.28419 0.33717 0.0
C290 C 0.72557 0.26366 0.34441 0.0
C291 C 0.70758 0.27735 0.36291 0.0
C292 C 0.67312 0.25844 0.36547 0.0
C293 C 0.65575 0.27293 0.38335 0.0
C294 C 0.67186 0.305 0.39834 0.0
C295 C 0.70544 0.3235 0.39553 0.0
C296 C 0.7232 0.31004 0.37785 0.0
H297 H 0.46223 0.87907 0.69941 0.0
C298 C 0.43985 0.86251 0.68069 0.0
H299 H 0.41374 0.81957 0.64087 0.0
H300 H 0.51686 0.79337 0.55722 0.0
H301 H 0.49417 0.80301 0.48559 0.0
H302 H 0.458 0.82555 0.49124 0.0
H303 H 0.44387 0.83802 0.56863 0.0
C304 C 0.43629 0.83578 0.65957 0.0
C305 C 0.46274 0.82806 0.657 0.0
C306 C 0.47202 0.82236 0.61128 0.0
C307 C 0.4936 0.81024 0.60791 0.0
C308 C 0.50096 0.80302 0.56193 0.0
C309 C 0.48812 0.80848 0.52044 0.0
C310 C 0.46773 0.82113 0.52362 0.0
C311 C 0.45969 0.82803 0.56835 0.0
H312 H 0.48918 0.75049 0.69596 0.0
C313 C 0.50982 0.75729 0.67255 0.0
H314 H 0.54297 0.79188 0.62415 0.0
H315 H 0.44861 0.83351 0.75158 0.0
H316 H 0.47676 0.83046 0.82182 0.0
H317 H 0.521 0.81842 0.81419 0.0
H318 H 0.53616 0.80791 0.73585 0.0
C319 C 0.52249 0.78495 0.64788 0.0
C320 C 0.50663 0.80481 0.65021 0.0
C321 C 0.50053 0.81433 0.6954 0.0
C322 C 0.47714 0.82415 0.69926 0.0
C323 C 0.46804 0.82864 0.74577 0.0
C324 C 0.48375 0.82652 0.78666 0.0
C325 C 0.50851 0.81955 0.78241 0.0
C326 C 0.51681 0.81337 0.73739 0.0
H327 H 0.27714 0.78017 0.62084 0.0
C328 C 0.28698 0.78783 0.65684 0.0
H329 H 0.28626 0.77381 0.72894 0.0
H330 H 0.15193 0.64309 0.7107 0.0
H331 H 0.13325 0.67631 0.74853 0.0
H332 H 0.16981 0.73506 0.75728 0.0
H333 H 0.22524 0.761 0.72801 0.0
C334 C 0.27705 0.76628 0.69262 0.0
C335 C 0.25438 0.73139 0.68408 0.0
C336 C 0.22222 0.71663 0.70172 0.0
C337 C 0.20127 0.68272 0.69724 0.0
C338 C 0.16904 0.66866 0.71421 0.0
C339 C 0.15798 0.68747 0.73572 0.0
C340 C 0.17856 0.72056 0.74061 0.0
C341 C 0.21031 0.73512 0.72378 0.0
H342 H 0.19266 0.62297 0.75004 0.0
C343 C 0.18677 0.61084 0.71536 0.0
H344 H 0.18739 0.6159 0.64013 0.0
H345 H 0.31512 0.75199 0.64746 0.0
H346 H 0.33341 0.71897 0.60874 0.0
H347 H 0.29678 0.66029 0.59969 0.0
H348 H 0.24192 0.63431 0.62997 0.0
C349 C 0.1925 0.62796 0.67482 0.0
C350 C 0.21275 0.66369 0.67569 0.0
C351 C 0.24462 0.6786 0.65663 0.0
C352 C 0.26558 0.71247 0.66123 0.0
C353 C 0.29781 0.72651 0.64396 0.0
C354 C 0.30874 0.70779 0.62183 0.0
C355 C 0.28815 0.67477 0.6168 0.0
C356 C 0.25658 0.66018 0.63424 0.0
H357 H 0.28435 0.56513 0.73731 0.0
C358 C 0.27061 0.55171 0.70576 0.0
H359 H 0.27325 0.53415 0.63725 0.0
H360 H 0.42212 0.65669 0.69105 0.0
H361 H 0.39852 0.69051 0.67981 0.0
H362 H 0.34005 0.66651 0.66299 0.0
H363 H 0.30476 0.60849 0.65726 0.0
C364 C 0.28641 0.54827 0.66862 0.0
C365 C 0.32232 0.56289 0.67113 0.0
C366 C 0.34274 0.59693 0.67268 0.0
C367 C 0.37658 0.6108 0.68123 0.0
C368 C 0.3963 0.64483 0.68402 0.0
C369 C 0.38307 0.66456 0.67767 0.0
C370 C 0.35013 0.65104 0.66823 0.0
C371 C 0.33011 0.61767 0.66551 0.0
H372 H 0.43515 0.60859 0.62026 0.0
C373 C 0.44553 0.6151 0.6562 0.0
H374 H 0.43533 0.61362 0.73016 0.0
H375 H 0.29036 0.49699 0.66725 0.0
H376 H 0.31448 0.46329 0.6755 0.0
H377 H 0.37344 0.48753 0.68858 0.0
H378 H 0.4087 0.54572 0.69374 0.0
C379 C 0.42568 0.60564 0.69415 0.0
C380 C 0.39012 0.59068 0.68653 0.0
C381 C 0.36999 0.55678 0.68307 0.0
C382 C 0.336 0.54284 0.67535 0.0
C383 C 0.31634 0.50885 0.67288 0.0
C384 C 0.32987 0.48924 0.67755 0.0
C385 C 0.36308 0.50289 0.68491 0.0
C386 C 0.38303 0.53627 0.68773 0.0
H387 H 0.02725 0.2816 0.89471 0.0
C388 C 0.04412 0.28302 0.92224 0.0
H389 H 0.08868 0.3123 0.95802 0.0
H390 H 0.09822 0.39233 0.7566 0.0
H391 H 0.09096 0.34552 0.71268 0.0
H392 H 0.08114 0.29658 0.75557 0.0
H393 H 0.07738 0.29381 0.84229 0.0
C394 C 0.07232 0.31062 0.92943 0.0
C395 C 0.08064 0.3406 0.90303 0.0
C396 C 0.08483 0.34232 0.8525 0.0
C397 C 0.09299 0.37132 0.82808 0.0
C398 C 0.09415 0.37159 0.77721 0.0
C399 C 0.0897 0.34477 0.7515 0.0
C400 C 0.084 0.31717 0.77563 0.0
C401 C 0.08161 0.31582 0.8255 0.0
H402 H 0.15503 0.42974 0.80623 0.0
C403 C 0.14232 0.44315 0.80689 0.0
H404 H 0.10071 0.44389 0.83047 0.0
H405 H 0.07128 0.34447 -0.00057 0.0
H406 H 0.08009 0.39189 0.04316 0.0
H407 H 0.09863 0.44346 0.00137 0.0
H408 H 0.10798 0.44775 0.91542 0.0
C409 C 0.11402 0.43107 0.83019 0.0
C410 C 0.09987 0.39935 0.85464 0.0
C411 C 0.09491 0.39743 0.90489 0.0
C412 C 0.08496 0.36791 0.92908 0.0
C413 C 0.07952 0.36644 0.97927 0.0
C414 C 0.08438 0.39347 0.00484 0.0
C415 C 0.09476 0.42249 0.98131 0.0
C416 C 0.10005 0.42461 0.93194 0.0
H417 H 0.71732 0.79741 0.97079 0.0
C418 C 0.73869 0.79693 0.95861 0.0
H419 H 0.75827 0.7809 0.90477 0.0
H420 H 0.62241 0.67001 0.82816 0.0
H421 H 0.64671 0.63982 0.85853 0.0
H422 H 0.69836 0.66704 0.90373 0.0
H423 H 0.72639 0.72471 0.91796 0.0
C424 C 0.7376 0.7827 0.91665 0.0
C425 C 0.70694 0.76657 0.88801 0.0
C426 C 0.69065 0.73273 0.88059 0.0
C427 C 0.66043 0.7169 0.85556 0.0
C428 C 0.64515 0.68323 0.84753 0.0
C429 C 0.65884 0.66558 0.86477 0.0
C430 C 0.68794 0.6809 0.89016 0.0
C431 C 0.70379 0.71406 0.89804 0.0
H432 H 0.63954 0.74961 0.74996 0.0
C433 C 0.61721 0.72923 0.76337 0.0
H434 H 0.59456 0.6982 0.82204 0.0
H435 H 0.73381 0.83235 0.88922 0.0
H436 H 0.70724 0.86184 0.86567 0.0
H437 H 0.65138 0.83328 0.83321 0.0
H438 H 0.62235 0.77525 0.82246 0.0
C439 C 0.61644 0.7189 0.8083 0.0
C440 C 0.64624 0.73484 0.83893 0.0
C441 C 0.66179 0.76845 0.84858 0.0
C442 C 0.69287 0.78455 0.8709 0.0
C443 C 0.70929 0.81859 0.87534 0.0
C444 C 0.69445 0.83588 0.86154 0.0
C445 C 0.66309 0.81984 0.84301 0.0
C446 C 0.64684 0.78654 0.83656 0.0
H447 H 0.33227 0.91045 0.82277 0.0
C448 C 0.32416 0.90939 0.78594 0.0
H449 H 0.29217 0.91461 0.7393 0.0
H450 H 0.18901 0.89679 0.89268 0.0
H451 H 0.16055 0.84493 0.85206 0.0
H452 H 0.18892 0.82908 0.79399 0.0
H453 H 0.24586 0.86505 0.776 0.0
C454 C 0.30117 0.91671 0.77582 0.0
C455 C 0.28528 0.92532 0.81393 0.0
C456 C 0.25212 0.90381 0.8244 0.0
C457 C 0.23587 0.91276 0.85823 0.0
C458 C 0.20259 0.89109 0.86749 0.0
C459 C 0.18596 0.86125 0.84443 0.0
C460 C 0.20192 0.85233 0.81171 0.0
C461 C 0.2346 0.87325 0.80164 0.0
H462 H 0.23979 0.9899 0.86563 0.0
C463 C 0.23034 0.97782 0.89972 0.0
H464 H 0.22534 0.94103 0.94661 0.0
H465 H 0.34886 0.97276 0.80108 0.0
H466 H 0.37799 0.02304 0.84532 0.0
H467 H 0.35065 0.03682 0.90811 0.0
H468 H 0.29381 0.00059 0.92628 0.0
C469 C 0.23509 0.95372 0.91303 0.0
C470 C 0.25288 0.94315 0.88141 0.0
C471 C 0.28649 0.96395 0.87288 0.0
C472 C 0.30258 0.95535 0.83826 0.0
C473 C 0.33566 0.97746 0.82825 0.0
C474 C 0.35266 0.00654 0.85323 0.0
C475 C 0.33725 0.01435 0.88845 0.0
C476 C 0.30456 0.99342 0.8983 0.0
H477 H 0.43833 0.12402 0.16589 0.0
C478 C 0.43229 0.1274 0.2022 0.0
H479 H 0.3958 0.12336 0.24919 0.0
H480 H 0.30151 0.12555 0.09489 0.0
H481 H 0.32509 0.17958 0.12783 0.0
H482 H 0.37204 0.2011 0.1831 0.0
H483 H 0.39562 0.16869 0.20588 0.0
C484 C 0.40167 0.11922 0.21317 0.0
C485 C 0.37523 0.10686 0.17671 0.0
C486 C 0.36194 0.12625 0.16339 0.0
C487 C 0.33517 0.114 0.13106 0.0
C488 C 0.32211 0.13376 0.11888 0.0
C489 C 0.33536 0.16481 0.1376 0.0
C490 C 0.36176 0.17691 0.16877 0.0
C491 C 0.375 0.15799 0.18164 0.0
H492 H 0.25978 0.03483 0.12468 0.0
C493 C 0.26403 0.04633 0.08979 0.0
H494 H 0.29817 0.08212 0.0435 0.0
H495 H 0.39351 0.06253 0.19717 0.0
H496 H 0.37133 0.00935 0.16179 0.0
H497 H 0.32707 0.98938 0.1019 0.0
H498 H 0.30432 0.02227 0.07772 0.0
C499 C 0.29396 0.07007 0.07793 0.0
C500 C 0.32177 0.08241 0.11202 0.0
C501 C 0.33553 0.06326 0.12444 0.0
C502 C 0.36194 0.07529 0.15752 0.0
C503 C 0.37417 0.05507 0.17108 0.0
C504 C 0.36156 0.0244 0.15119 0.0
C505 C 0.33657 0.01312 0.11758 0.0
C506 C 0.32362 0.03221 0.1042 0.0
H507 H 0.99675 0.24972 0.15306 0.0
C508 C 0.98285 0.24106 0.11988 0.0
H509 H 0.94235 0.23512 0.08009 0.0
H510 H 0.87048 0.24517 0.26429 0.0
H511 H 0.83777 0.18798 0.24666 0.0
H512 H 0.85462 0.16285 0.18455 0.0
H513 H 0.90421 0.19482 0.13948 0.0
C514 C 0.95689 0.24431 0.11262 0.0
C515 C 0.94669 0.25965 0.14931 0.0
C516 C 0.91776 0.24056 0.17536 0.0
C517 C 0.90828 0.25496 0.21149 0.0
C518 C 0.87905 0.23542 0.23676 0.0
C519 C 0.86 0.20255 0.22696 0.0
C520 C 0.86947 0.18841 0.19196 0.0
C521 C 0.89799 0.20705 0.16635 0.0
H522 H 0.90874 0.33151 0.21021 0.0
C523 C 0.90809 0.32432 0.24736 0.0
H524 H 0.91617 0.29526 0.29569 0.0
H525 H 0.00153 0.30376 0.10162 0.0
H526 H 0.03515 0.3606 0.12068 0.0
H527 H 0.02095 0.38485 0.18756 0.0
H528 H 0.9727 0.35252 0.23501 0.0
C529 C 0.91749 0.3032 0.25882 0.0
C530 C 0.92783 0.28838 0.22139 0.0
C531 C 0.95694 0.30747 0.19551 0.0
C532 C 0.96597 0.29321 0.15856 0.0
C533 C 0.99417 0.31308 0.13135 0.0
C534 C 0.01361 0.34581 0.14172 0.0
C535 C 0.00555 0.35948 0.17924 0.0
C536 C 0.97762 0.34066 0.20599 0.0
H537 H 0.72773 0.60186 0.21821 0.0
C538 C 0.70207 0.58916 0.22723 0.0
H539 H 0.6587 0.591 0.22586 0.0
H540 H 0.78604 0.73986 0.21665 0.0
H541 H 0.7892 0.73189 0.3018 0.0
H542 H 0.75051 0.68029 0.34002 0.0
H543 H 0.70904 0.63605 0.29266 0.0
C544 C 0.68406 0.60234 0.21562 0.0
C545 C 0.70034 0.63535 0.19531 0.0
C546 C 0.72281 0.66172 0.22409 0.0
C547 C 0.7437 0.69206 0.20263 0.0
C548 C 0.7682 0.71688 0.23136 0.0
C549 C 0.77053 0.71253 0.28036 0.0
C550 C 0.74886 0.68345 0.30183 0.0
C551 C 0.72531 0.65821 0.27419 0.0
H552 H 0.75087 0.7566 0.16999 0.0
C553 C 0.765 0.75537 0.14043 0.0
H554 H 0.7764 0.726 0.09832 0.0
H555 H 0.65684 0.5907 0.13233 0.0
H556 H 0.64997 0.59955 0.0482 0.0
H557 H 0.68372 0.65309 0.01154 0.0
H558 H 0.7247 0.69796 0.05843 0.0
C559 C 0.76303 0.7273 0.12892 0.0
C560 C 0.74027 0.69652 0.15304 0.0
C561 C 0.71584 0.6708 0.12526 0.0
C562 C 0.696 0.64007 0.14643 0.0
C563 C 0.67243 0.61452 0.11779 0.0
C564 C 0.66821 0.6193 0.06959 0.0
C565 C 0.68723 0.64944 0.04894 0.0
C566 C 0.71077 0.67497 0.07625 0.0
H567 H 0.0678 0.45856 0.64075 0.0
C568 C 0.09102 0.46743 0.62297 0.0
H569 H 0.11438 0.47144 0.55691 0.0
H570 H 0.98756 0.35564 0.46114 0.0
H571 H 0.02426 0.33463 0.46121 0.0
H572 H 0.07767 0.36434 0.50145 0.0
H573 H 0.09489 0.41543 0.54141 0.0
C574 C 0.09155 0.46328 0.57542 0.0
C575 C 0.06049 0.44666 0.5477 0.0
C576 C 0.05069 0.41671 0.52492 0.0
C577 C 0.01968 0.39934 0.5023 0.0
C578 C 0.0107 0.36969 0.47923 0.0
C579 C 0.03154 0.35735 0.479 0.0
C580 C 0.06162 0.37409 0.50164 0.0
C581 C 0.0712 0.4034 0.52445 0.0
H582 H 0.98182 0.43111 0.42473 0.0
C583 C 0.96237 0.40783 0.43698 0.0
H584 H 0.94844 0.37085 0.48823 0.0
H585 H 0.07396 0.50624 0.57972 0.0
H586 H 0.03658 0.52632 0.58236 0.0
H587 H 0.9807 0.49354 0.55103 0.0
H588 H 0.96224 0.4409 0.51574 0.0
C589 C 0.96693 0.39469 0.47646 0.0
C590 C -0.00154 0.41187 0.50281 0.0
C591 C 0.0082 0.44177 0.52584 0.0
C592 C 0.03967 0.45973 0.54668 0.0
C593 C 0.04969 0.49072 0.56587 0.0
C594 C 0.02858 0.50271 0.56718 0.0
C595 C -0.00282 0.48433 0.54934 0.0
C596 C 0.98699 0.45423 0.52884 0.0
H597 H 0.66819 0.5788 0.4749 0.0
C598 C 0.65648 0.57452 0.43994 0.0
H599 H 0.62309 0.57965 0.39638 0.0
H600 H 0.54082 0.58486 0.56757 0.0
H601 H 0.50526 0.53055 0.53787 0.0
H602 H 0.52413 0.50674 0.47657 0.0
H603 H 0.57862 0.53713 0.44451 0.0
C604 C 0.63549 0.58466 0.43087 0.0
C605 C 0.62507 0.59895 0.46891 0.0
C606 C 0.59321 0.58069 0.48743 0.0
C607 C 0.58248 0.59425 0.52308 0.0
C608 C 0.55039 0.57563 0.54073 0.0
C609 C 0.52967 0.54442 0.52395 0.0
C610 C 0.54028 0.53103 0.48941 0.0
C611 C 0.57163 0.54881 0.47124 0.0
H612 H 0.58875 0.67243 0.53016 0.0
C613 C 0.58437 0.66229 0.56607 0.0
H614 H 0.58683 0.62889 0.61249 0.0
H615 H 0.68696 0.641 0.43854 0.0
H616 H 0.72298 0.69491 0.46954 0.0
H617 H 0.70512 0.71761 0.53402 0.0
H618 H 0.65098 0.68668 0.56744 0.0
C619 C 0.59199 0.63978 0.57705 0.0
C620 C 0.60366 0.626 0.53998 0.0
C621 C 0.63565 0.64417 0.52184 0.0
C622 C 0.64627 0.63074 0.48573 0.0
C623 C 0.67793 0.64973 0.46689 0.0
C624 C 0.69881 0.68076 0.48422 0.0
C625 C 0.68872 0.69357 0.52045 0.0
C626 C 0.65754 0.6756 0.53919 0.0
H627 H 0.42358 0.98238 0.60098 0.0
C628 C 0.40325 0.96023 0.58672 0.0
H629 H 0.37202 0.93809 0.52724 0.0
H630 H 0.40034 0.0733 0.44578 0.0
H631 H 0.34373 0.04882 0.46825 0.0
H632 H 0.31625 0.99705 0.51145 0.0
H633 H 0.34515 0.96927 0.53202 0.0
C634 C 0.39288 0.95966 0.54175 0.0
C635 C 0.4087 0.98938 0.51219 0.0
C636 C 0.39146 0.00529 0.50059 0.0
C637 C 0.40746 0.03536 0.47635 0.0
C638 C 0.38955 0.0506 0.46471 0.0
C639 C 0.35701 0.03679 0.47733 0.0
C640 C 0.34152 0.00763 0.50162 0.0
C641 C 0.35842 0.99195 0.51322 0.0
H642 H 0.46447 0.06036 0.37539 0.0
C643 C 0.46705 0.08191 0.3924 0.0
H644 H 0.45828 0.10161 0.45442 0.0
H645 H 0.44727 0.96269 0.52228 0.0
H646 H 0.50443 0.98795 0.50268 0.0
H647 H 0.53357 0.04241 0.46748 0.0
H648 H 0.50555 0.07154 0.45068 0.0
C649 C 0.45692 0.08053 0.43764 0.0
C650 C 0.44069 0.04949 0.46404 0.0
C651 C 0.45795 0.03355 0.47574 0.0
C652 C 0.44165 0.00299 0.4985 0.0
C653 C 0.45886 0.98662 0.50704 0.0
C654 C 0.49163 0.00074 0.49564 0.0
C655 C 0.50799 0.03133 0.47564 0.0
C656 C 0.49151 0.04768 0.4658 0.0
loop_
_geom_bond_atom_site_label_1
_geom_bond_atom_site_label_2
_geom_bond_distance
_geom_bond_site_symmetry_2
_ccdc_geom_bond_type
In0 O1 2.294 1_554 S
In0 O2 2.326 . S
In0 O6 2.266 1_454 S
In0 O7 2.326 1_455 S
In0 O8 2.266 . S
In0 O9 2.326 1_554 S
In0 O11 2.294 . S
In0 O12 2.326 1_455 S
O1 In0 2.294 1_556 S
O1 C10 1.240 . S
O2 In0 2.326 . S
O2 C10 1.252 1_554 S
C3 O6 1.252 1_554 S
C3 O7 1.260 . S
C4 O11 1.240 1_655 S
C4 O12 1.252 . S
C5 O8 1.252 . S
C5 O9 1.260 1_554 S
O6 In0 2.266 1_656 S
O6 C3 1.252 1_556 S
O7 In0 2.326 1_655 S
O7 C3 1.260 . S
O8 In0 2.266 . S
O8 C5 1.252 . S
O9 In0 2.326 1_556 S
O9 C5 1.260 1_556 S
C10 O1 1.240 . S
C10 O2 1.252 1_556 S
O11 In0 2.294 . S
O11 C4 1.240 1_455 S
O12 In0 2.326 1_655 S
O12 C4 1.252 . S
In13 O14 2.294 1_554 S
In13 O15 2.326 . S
In13 O19 2.266 1_554 S
In13 O20 2.326 . S
In13 O21 2.266 . S
In13 O22 2.326 1_554 S
In13 O24 2.294 . S
In13 O25 2.326 . S
O14 In13 2.294 1_556 S
O14 C23 1.240 . S
O15 In13 2.326 . S
O15 C23 1.252 1_554 S
C16 O19 1.252 1_554 S
C16 O20 1.260 . S
C17 O24 1.240 . S
C17 O25 1.252 . S
C18 O21 1.252 . S
C18 O22 1.260 1_554 S
O19 In13 2.266 1_556 S
O19 C16 1.252 1_556 S
O20 In13 2.326 . S
O20 C16 1.260 . S
O21 In13 2.266 . S
O21 C18 1.252 . S
O22 In13 2.326 1_556 S
O22 C18 1.260 1_556 S
C23 O14 1.240 . S
C23 O15 1.252 1_556 S
O24 In13 2.294 . S
O24 C17 1.240 . S
O25 In13 2.326 . S
O25 C17 1.252 . S
In26 O27 2.294 . S
In26 O28 2.326 . S
In26 O32 2.266 1_545 S
In26 O33 2.326 1_544 S
In26 O34 2.266 1_554 S
In26 O35 2.326 . S
In26 O37 2.294 1_554 S
In26 O38 2.326 1_545 S
O27 In26 2.294 . S
O27 C36 1.240 . S
O28 In26 2.326 . S
O28 C36 1.252 . S
C29 O32 1.252 . S
C29 O33 1.260 1_554 S
C30 O37 1.240 . S
C30 O38 1.252 1_546 S
C31 O34 1.252 1_554 S
C31 O35 1.260 . S
O32 In26 2.266 1_565 S
O32 C29 1.252 . S
O33 In26 2.326 1_566 S
O33 C29 1.260 1_556 S
O34 In26 2.266 1_556 S
O34 C31 1.252 1_556 S
O35 In26 2.326 . S
O35 C31 1.260 . S
C36 O27 1.240 . S
C36 O28 1.252 . S
O37 In26 2.294 1_556 S
O37 C30 1.240 . S
O38 In26 2.326 1_565 S
O38 C30 1.252 1_564 S
In39 O40 2.294 . S
In39 O41 2.326 . S
In39 O45 2.266 . S
In39 O46 2.326 . S
In39 O47 2.266 . S
In39 O48 2.326 . S
In39 O50 2.294 . S
In39 O51 2.326 . S
O40 In39 2.294 . S
O40 C49 1.240 . S
O41 In39 2.326 . S
O41 C49 1.252 . S
C42 O45 1.252 . S
C42 O46 1.260 . S
C43 O50 1.240 . S
C43 O51 1.252 . S
C44 O47 1.252 . S
C44 O48 1.260 . S
O45 In39 2.266 . S
O45 C42 1.252 . S
O46 In39 2.326 . S
O46 C42 1.260 . S
O47 In39 2.266 . S
O47 C44 1.252 . S
O48 In39 2.326 . S
O48 C44 1.260 . S
C49 O40 1.240 . S
C49 O41 1.252 . S
O50 In39 2.294 . S
O50 C43 1.240 . S
O51 In39 2.326 . S
O51 C43 1.252 . S
In52 O53 2.294 . S
In52 O54 2.326 . S
In52 O58 2.266 . S
In52 O59 2.326 . S
In52 O60 2.266 . S
In52 O61 2.326 . S
In52 O63 2.294 . S
In52 O64 2.326 . S
O53 In52 2.294 . S
O53 C62 1.240 . S
O54 In52 2.326 . S
O54 C62 1.252 . S
C55 O58 1.252 . S
C55 O59 1.260 . S
C56 O63 1.240 . S
C56 O64 1.252 . S
C57 O60 1.252 . S
C57 O61 1.260 . S
O58 In52 2.266 . S
O58 C55 1.252 . S
O59 In52 2.326 . S
O59 C55 1.260 . S
O60 In52 2.266 . S
O60 C57 1.252 . S
O61 In52 2.326 . S
O61 C57 1.260 . S
C62 O53 1.240 . S
C62 O54 1.252 . S
O63 In52 2.294 . S
O63 C56 1.240 . S
O64 In52 2.326 . S
O64 C56 1.252 . S
In65 O66 2.294 . S
In65 O67 2.326 . S
In65 O71 2.266 . S
In65 O72 2.326 . S
In65 O73 2.266 . S
In65 O74 2.326 . S
In65 O76 2.294 . S
In65 O77 2.326 . S
O66 In65 2.294 . S
O66 C75 1.240 . S
O67 In65 2.326 . S
O67 C75 1.252 . S
C68 O71 1.252 . S
C68 O72 1.260 . S
C69 O76 1.240 . S
C69 O77 1.252 . S
C70 O73 1.252 . S
C70 O74 1.260 . S
O71 In65 2.266 . S
O71 C68 1.252 . S
O72 In65 2.326 . S
O72 C68 1.260 . S
O73 In65 2.266 . S
O73 C70 1.252 . S
O74 In65 2.326 . S
O74 C70 1.260 . S
C75 O66 1.240 . S
C75 O67 1.252 . S
O76 In65 2.294 . S
O76 C69 1.240 . S
O77 In65 2.326 . S
O77 C69 1.252 . S
In78 O79 2.294 . S
In78 O80 2.326 . S
In78 O84 2.266 . S
In78 O85 2.326 . S
In78 O86 2.266 . S
In78 O87 2.326 . S
In78 O89 2.294 . S
In78 O90 2.326 . S
O79 In78 2.294 . S
O79 C88 1.240 . S
O80 In78 2.326 . S
O80 C88 1.252 . S
C81 O84 1.252 . S
C81 O85 1.260 . S
C82 O89 1.240 . S
C82 O90 1.252 . S
C83 O86 1.252 . S
C83 O87 1.260 . S
O84 In78 2.266 . S
O84 C81 1.252 . S
O85 In78 2.326 . S
O85 C81 1.260 . S
O86 In78 2.266 . S
O86 C83 1.252 . S
O87 In78 2.326 . S
O87 C83 1.260 . S
C88 O79 1.240 . S
C88 O80 1.252 . S
O89 In78 2.294 . S
O89 C82 1.240 . S
O90 In78 2.326 . S
O90 C82 1.252 . S
In91 O92 2.294 . S
In91 O93 2.326 . S
In91 O97 2.266 . S
In91 O98 2.326 . S
In91 O99 2.266 . S
In91 O100 2.326 . S
In91 O102 2.294 . S
In91 O103 2.326 . S
O92 In91 2.294 . S
O92 C101 1.240 . S
O93 In91 2.326 . S
O93 C101 1.252 . S
C94 O97 1.252 . S
C94 O98 1.260 . S
C95 O102 1.240 . S
C95 O103 1.252 . S
C96 O99 1.252 . S
C96 O100 1.260 . S
O97 In91 2.266 . S
O97 C94 1.252 . S
O98 In91 2.326 . S
O98 C94 1.260 . S
O99 In91 2.266 . S
O99 C96 1.252 . S
O100 In91 2.326 . S
O100 C96 1.260 . S
C101 O92 1.240 . S
C101 O93 1.252 . S
O102 In91 2.294 . S
O102 C95 1.240 . S
O103 In91 2.326 . S
O103 C95 1.252 . S
In104 O105 2.294 . S
In104 O106 2.326 . S
In104 O110 2.266 . S
In104 O111 2.326 . S
In104 O112 2.266 . S
In104 O113 2.326 . S
In104 O115 2.294 . S
In104 O116 2.326 . S
O105 In104 2.294 . S
O105 C114 1.240 . S
O106 In104 2.326 . S
O106 C114 1.252 . S
C107 O110 1.252 . S
C107 O111 1.260 . S
C108 O115 1.240 . S
C108 O116 1.252 . S
C109 O112 1.252 . S
C109 O113 1.260 . S
O110 In104 2.266 . S
O110 C107 1.252 . S
O111 In104 2.326 . S
O111 C107 1.260 . S
O112 In104 2.266 . S
O112 C109 1.252 . S
O113 In104 2.326 . S
O113 C109 1.260 . S
C114 O105 1.240 . S
C114 O106 1.252 . S
O115 In104 2.294 . S
O115 C108 1.240 . S
O116 In104 2.326 . S
O116 C108 1.252 . S
H117 C118 0.951 . S
C118 H117 0.951 . S
C118 C124 1.265 . S
H119 C124 0.950 . S
H120 C128 0.949 . S
H121 C129 0.950 . S
H122 C130 0.951 . S
H123 C131 0.951 . S
C124 C118 1.265 . S
C124 H119 0.950 . S
C124 C125 1.478 . S
C125 C124 1.478 . S
C125 C126 1.397 1_554 S
C125 C142 1.394 . S
C126 C125 1.397 1_556 S
C126 C127 1.438 . S
C126 C131 1.429 . S
C127 C126 1.438 . S
C127 C128 1.428 . S
C127 C140 1.394 1_556 S
C128 H120 0.949 . S
C128 C127 1.428 . S
C128 C129 1.345 . S
C129 H121 0.950 . S
C129 C128 1.345 . S
C129 C130 1.424 . S
C130 H122 0.951 . S
C130 C129 1.424 . S
C130 C131 1.347 . S
C131 H123 0.951 . S
C131 C126 1.429 . S
C131 C130 1.347 . S
H132 C133 0.951 . S
C133 H132 0.951 . S
C133 C139 1.265 . S
H134 C139 0.950 . S
H135 C143 0.949 . S
H136 C144 0.950 . S
H137 C145 0.951 . S
H138 C146 0.951 . S
C139 C133 1.265 . S
C139 H134 0.950 . S
C139 C140 1.478 . S
C140 C127 1.394 1_554 S
C140 C139 1.478 . S
C140 C141 1.397 . S
C141 C140 1.397 . S
C141 C142 1.438 . S
C141 C146 1.429 . S
C142 C125 1.394 . S
C142 C141 1.438 . S
C142 C143 1.428 . S
C143 H135 0.949 . S
C143 C142 1.428 . S
C143 C144 1.345 . S
C144 H136 0.950 . S
C144 C143 1.345 . S
C144 C145 1.424 . S
C145 H137 0.951 . S
C145 C144 1.424 . S
C145 C146 1.347 . S
C146 H138 0.951 . S
C146 C141 1.429 . S
C146 C145 1.347 . S
H147 C148 0.951 . S
C148 H147 0.951 . S
C148 C154 1.265 . S
H149 C154 0.950 . S
H150 C158 0.949 . S
H151 C159 0.950 . S
H152 C160 0.951 . S
H153 C161 0.951 . S
C154 C148 1.265 . S
C154 H149 0.950 . S
C154 C155 1.478 . S
C155 C154 1.478 . S
C155 C156 1.397 1_565 S
C155 C172 1.394 1_564 S
C156 C155 1.397 1_545 S
C156 C157 1.438 . S
C156 C161 1.429 1_545 S
C157 C156 1.438 . S
C157 C158 1.428 . S
C157 C170 1.394 . S
C158 H150 0.949 . S
C158 C157 1.428 . S
C158 C159 1.345 . S
C159 H151 0.950 . S
C159 C158 1.345 . S
C159 C160 1.424 . S
C160 H152 0.951 . S
C160 C159 1.424 . S
C160 C161 1.347 1_545 S
C161 H153 0.951 . S
C161 C156 1.429 1_565 S
C161 C160 1.347 1_565 S
H162 C163 0.951 . S
C163 H162 0.951 . S
C163 C169 1.265 . S
H164 C169 0.950 . S
H165 C173 0.949 . S
H166 C174 0.950 . S
H167 C175 0.951 . S
H168 C176 0.951 . S
C169 C163 1.265 . S
C169 H164 0.950 . S
C169 C170 1.478 . S
C170 C157 1.394 . S
C170 C169 1.478 . S
C170 C171 1.397 1_554 S
C171 C170 1.397 1_556 S
C171 C172 1.438 . S
C171 C176 1.429 . S
C172 C155 1.394 1_546 S
C172 C171 1.438 . S
C172 C173 1.428 1_545 S
C173 H165 0.949 . S
C173 C172 1.428 1_565 S
C173 C174 1.345 . S
C174 H166 0.950 . S
C174 C173 1.345 . S
C174 C175 1.424 1_565 S
C175 H167 0.951 . S
C175 C174 1.424 1_545 S
C175 C176 1.347 . S
C176 H168 0.951 . S
C176 C171 1.429 . S
C176 C175 1.347 . S
H177 C178 0.951 . S
C178 H177 0.951 . S
C178 C184 1.265 1_554 S
H179 C184 0.950 . S
H180 C188 0.949 . S
H181 C189 0.950 . S
H182 C190 0.949 1_545 S
H183 C191 0.951 . S
C184 C178 1.265 1_556 S
C184 H179 0.950 . S
C184 C185 1.478 1_556 S
C185 C184 1.478 1_554 S
C185 C186 1.397 1_655 S
C185 C202 1.394 . S
C186 C185 1.397 1_455 S
C186 C187 1.438 . S
C186 C191 1.429 1_455 S
C187 C186 1.438 . S
C187 C188 1.428 . S
C187 C200 1.394 . S
C188 H180 0.949 . S
C188 C187 1.428 . S
C188 C189 1.345 1_565 S
C189 H181 0.950 . S
C189 C188 1.345 1_545 S
C189 C190 1.424 1_545 S
C190 H182 0.949 1_565 S
C190 C189 1.424 1_565 S
C190 C191 1.347 1_455 S
C191 H183 0.951 . S
C191 C186 1.429 1_655 S
C191 C190 1.347 1_655 S
H192 C193 0.951 1_556 S
C193 H192 0.951 1_554 S
C193 C199 1.265 . S
H194 C199 0.950 . S
H195 C203 0.949 . S
H196 C204 0.950 . S
H197 C205 0.951 . S
H198 C206 0.951 . S
C199 C193 1.265 . S
C199 H194 0.950 . S
C199 C200 1.478 . S
C200 C187 1.394 . S
C200 C199 1.478 . S
C200 C201 1.397 . S
C201 C200 1.397 . S
C201 C202 1.438 1_455 S
C201 C206 1.429 . S
C202 C185 1.394 . S
C202 C201 1.438 1_655 S
C202 C203 1.428 1_554 S
C203 H195 0.949 . S
C203 C202 1.428 1_556 S
C203 C204 1.345 . S
C204 H196 0.950 . S
C204 C203 1.345 . S
C204 C205 1.424 1_656 S
C205 H197 0.951 . S
C205 C204 1.424 1_454 S
C205 C206 1.347 . S
C206 H198 0.951 . S
C206 C201 1.429 . S
C206 C205 1.347 . S
H207 C208 0.951 . S
C208 H207 0.951 . S
C208 C214 1.265 . S
H209 C214 0.950 . S
H210 C218 0.949 . S
H211 C219 0.950 . S
H212 C220 0.951 . S
H213 C221 0.951 . S
C214 C208 1.265 . S
C214 H209 0.950 . S
C214 C215 1.478 . S
C215 C214 1.478 . S
C215 C216 1.397 . S
C215 C232 1.394 . S
C216 C215 1.397 . S
C216 C217 1.438 . S
C216 C221 1.429 . S
C217 C216 1.438 . S
C217 C218 1.428 . S
C217 C230 1.394 . S
C218 H210 0.949 . S
C218 C217 1.428 . S
C218 C219 1.345 . S
C219 H211 0.950 . S
C219 C218 1.345 . S
C219 C220 1.424 . S
C220 H212 0.951 . S
C220 C219 1.424 . S
C220 C221 1.347 . S
C221 H213 0.951 . S
C221 C216 1.429 . S
C221 C220 1.347 . S
H222 C223 0.951 . S
C223 H222 0.951 . S
C223 C229 1.265 . S
H224 C229 0.950 . S
H225 C233 0.949 . S
H226 C234 0.950 . S
H227 C235 0.951 . S
H228 C236 0.951 . S
C229 C223 1.265 . S
C229 H224 0.950 . S
C229 C230 1.478 . S
C230 C217 1.394 . S
C230 C229 1.478 . S
C230 C231 1.397 . S
C231 C230 1.397 . S
C231 C232 1.438 . S
C231 C236 1.429 . S
C232 C215 1.394 . S
C232 C231 1.438 . S
C232 C233 1.428 . S
C233 H225 0.949 . S
C233 C232 1.428 . S
C233 C234 1.345 . S
C234 H226 0.950 . S
C234 C233 1.345 . S
C234 C235 1.424 . S
C235 H227 0.951 . S
C235 C234 1.424 . S
C235 C236 1.347 . S
C236 H228 0.951 . S
C236 C231 1.429 . S
C236 C235 1.347 . S
H237 C238 0.951 . S
C238 H237 0.951 . S
C238 C244 1.265 . S
H239 C244 0.950 . S
H240 C248 0.949 . S
H241 C249 0.950 . S
H242 C250 0.951 . S
H243 C251 0.951 . S
C244 C238 1.265 . S
C244 H239 0.950 . S
C244 C245 1.478 . S
C245 C244 1.478 . S
C245 C246 1.397 . S
C245 C262 1.394 . S
C246 C245 1.397 . S
C246 C247 1.438 . S
C246 C251 1.429 . S
C247 C246 1.438 . S
C247 C248 1.428 . S
C247 C260 1.394 . S
C248 H240 0.949 . S
C248 C247 1.428 . S
C248 C249 1.345 . S
C249 H241 0.950 . S
C249 C248 1.345 . S
C249 C250 1.424 . S
C250 H242 0.951 . S
C250 C249 1.424 . S
C250 C251 1.347 . S
C251 H243 0.951 . S
C251 C246 1.429 . S
C251 C250 1.347 . S
H252 C253 0.951 . S
C253 H252 0.951 . S
C253 C259 1.265 . S
H254 C259 0.950 . S
H255 C263 0.949 . S
H256 C264 0.950 . S
H257 C265 0.951 . S
H258 C266 0.951 . S
C259 C253 1.265 . S
C259 H254 0.950 . S
C259 C260 1.478 . S
C260 C247 1.394 . S
C260 C259 1.478 . S
C260 C261 1.397 . S
C261 C260 1.397 . S
C261 C262 1.438 . S
C261 C266 1.429 . S
C262 C245 1.394 . S
C262 C261 1.438 . S
C262 C263 1.428 . S
C263 H255 0.949 . S
C263 C262 1.428 . S
C263 C264 1.345 . S
C264 H256 0.950 . S
C264 C263 1.345 . S
C264 C265 1.424 . S
C265 H257 0.951 . S
C265 C264 1.424 . S
C265 C266 1.347 . S
C266 H258 0.951 . S
C266 C261 1.429 . S
C266 C265 1.347 . S
H267 C268 0.951 . S
C268 H267 0.951 . S
C268 C274 1.265 . S
H269 C274 0.950 . S
H270 C278 0.949 . S
H271 C279 0.950 . S
H272 C280 0.951 . S
H273 C281 0.951 . S
C274 C268 1.265 . S
C274 H269 0.950 . S
C274 C275 1.478 . S
C275 C274 1.478 . S
C275 C276 1.397 . S
C275 C292 1.394 . S
C276 C275 1.397 . S
C276 C277 1.438 . S
C276 C281 1.429 . S
C277 C276 1.438 . S
C277 C278 1.428 . S
C277 C290 1.394 . S
C278 H270 0.949 . S
C278 C277 1.428 . S
C278 C279 1.345 . S
C279 H271 0.950 . S
C279 C278 1.345 . S
C279 C280 1.424 . S
C280 H272 0.951 . S
C280 C279 1.424 . S
C280 C281 1.347 . S
C281 H273 0.951 . S
C281 C276 1.429 . S
C281 C280 1.347 . S
H282 C283 0.951 . S
C283 H282 0.951 . S
C283 C289 1.265 . S
H284 C289 0.950 . S
H285 C293 0.949 . S
H286 C294 0.950 . S
H287 C295 0.951 . S
H288 C296 0.951 . S
C289 C283 1.265 . S
C289 H284 0.950 . S
C289 C290 1.478 . S
C290 C277 1.394 . S
C290 C289 1.478 . S
C290 C291 1.397 . S
C291 C290 1.397 . S
C291 C292 1.438 . S
C291 C296 1.429 . S
C292 C275 1.394 . S
C292 C291 1.438 . S
C292 C293 1.428 . S
C293 H285 0.949 . S
C293 C292 1.428 . S
C293 C294 1.345 . S
C294 H286 0.950 . S
C294 C293 1.345 . S
C294 C295 1.424 . S
C295 H287 0.951 . S
C295 C294 1.424 . S
C295 C296 1.347 . S
C296 H288 0.951 . S
C296 C291 1.429 . S
C296 C295 1.347 . S
H297 C298 0.951 . S
C298 H297 0.951 . S
C298 C304 1.265 . S
H299 C304 0.950 . S
H300 C308 0.949 . S
H301 C309 0.950 . S
H302 C310 0.951 . S
H303 C311 0.951 . S
C304 C298 1.265 . S
C304 H299 0.950 . S
C304 C305 1.478 . S
C305 C304 1.478 . S
C305 C306 1.397 . S
C305 C322 1.394 . S
C306 C305 1.397 . S
C306 C307 1.438 . S
C306 C311 1.429 . S
C307 C306 1.438 . S
C307 C308 1.428 . S
C307 C320 1.394 . S
C308 H300 0.949 . S
C308 C307 1.428 . S
C308 C309 1.345 . S
C309 H301 0.950 . S
C309 C308 1.345 . S
C309 C310 1.424 . S
C310 H302 0.951 . S
C310 C309 1.424 . S
C310 C311 1.347 . S
C311 H303 0.951 . S
C311 C306 1.429 . S
C311 C310 1.347 . S
H312 C313 0.951 . S
C313 H312 0.951 . S
C313 C319 1.265 . S
H314 C319 0.950 . S
H315 C323 0.949 . S
H316 C324 0.950 . S
H317 C325 0.951 . S
H318 C326 0.951 . S
C319 C313 1.265 . S
C319 H314 0.950 . S
C319 C320 1.478 . S
C320 C307 1.394 . S
C320 C319 1.478 . S
C320 C321 1.397 . S
C321 C320 1.397 . S
C321 C322 1.438 . S
C321 C326 1.429 . S
C322 C305 1.394 . S
C322 C321 1.438 . S
C322 C323 1.428 . S
C323 H315 0.949 . S
C323 C322 1.428 . S
C323 C324 1.345 . S
C324 H316 0.950 . S
C324 C323 1.345 . S
C324 C325 1.424 . S
C325 H317 0.951 . S
C325 C324 1.424 . S
C325 C326 1.347 . S
C326 H318 0.951 . S
C326 C321 1.429 . S
C326 C325 1.347 . S
H327 C328 0.951 . S
C328 H327 0.951 . S
C328 C334 1.265 . S
H329 C334 0.950 . S
H330 C338 0.949 . S
H331 C339 0.950 . S
H332 C340 0.951 . S
H333 C341 0.951 . S
C334 C328 1.265 . S
C334 H329 0.950 . S
C334 C335 1.478 . S
C335 C334 1.478 . S
C335 C336 1.397 . S
C335 C352 1.394 . S
C336 C335 1.397 . S
C336 C337 1.438 . S
C336 C341 1.429 . S
C337 C336 1.438 . S
C337 C338 1.428 . S
C337 C350 1.394 . S
C338 H330 0.949 . S
C338 C337 1.428 . S
C338 C339 1.345 . S
C339 H331 0.950 . S
C339 C338 1.345 . S
C339 C340 1.424 . S
C340 H332 0.951 . S
C340 C339 1.424 . S
C340 C341 1.347 . S
C341 H333 0.951 . S
C341 C336 1.429 . S
C341 C340 1.347 . S
H342 C343 0.951 . S
C343 H342 0.951 . S
C343 C349 1.265 . S
H344 C349 0.950 . S
H345 C353 0.949 . S
H346 C354 0.950 . S
H347 C355 0.951 . S
H348 C356 0.951 . S
C349 C343 1.265 . S
C349 H344 0.950 . S
C349 C350 1.478 . S
C350 C337 1.394 . S
C350 C349 1.478 . S
C350 C351 1.397 . S
C351 C350 1.397 . S
C351 C352 1.438 . S
C351 C356 1.429 . S
C352 C335 1.394 . S
C352 C351 1.438 . S
C352 C353 1.428 . S
C353 H345 0.949 . S
C353 C352 1.428 . S
C353 C354 1.345 . S
C354 H346 0.950 . S
C354 C353 1.345 . S
C354 C355 1.424 . S
C355 H347 0.951 . S
C355 C354 1.424 . S
C355 C356 1.347 . S
C356 H348 0.951 . S
C356 C351 1.429 . S
C356 C355 1.347 . S
H357 C358 0.951 . S
C358 H357 0.951 . S
C358 C364 1.265 . S
H359 C364 0.950 . S
H360 C368 0.949 . S
H361 C369 0.950 . S
H362 C370 0.951 . S
H363 C371 0.951 . S
C364 C358 1.265 . S
C364 H359 0.950 . S
C364 C365 1.478 . S
C365 C364 1.478 . S
C365 C366 1.397 . S
C365 C382 1.394 . S
C366 C365 1.397 . S
C366 C367 1.438 . S
C366 C371 1.429 . S
C367 C366 1.438 . S
C367 C368 1.428 . S
C367 C380 1.394 . S
C368 H360 0.949 . S
C368 C367 1.428 . S
C368 C369 1.345 . S
C369 H361 0.950 . S
C369 C368 1.345 . S
C369 C370 1.424 . S
C370 H362 0.951 . S
C370 C369 1.424 . S
C370 C371 1.347 . S
C371 H363 0.951 . S
C371 C366 1.429 . S
C371 C370 1.347 . S
H372 C373 0.951 . S
C373 H372 0.951 . S
C373 C379 1.265 . S
H374 C379 0.950 . S
H375 C383 0.949 . S
H376 C384 0.950 . S
H377 C385 0.951 . S
H378 C386 0.951 . S
C379 C373 1.265 . S
C379 H374 0.950 . S
C379 C380 1.478 . S
C380 C367 1.394 . S
C380 C379 1.478 . S
C380 C381 1.397 . S
C381 C380 1.397 . S
C381 C382 1.438 . S
C381 C386 1.429 . S
C382 C365 1.394 . S
C382 C381 1.438 . S
C382 C383 1.428 . S
C383 H375 0.949 . S
C383 C382 1.428 . S
C383 C384 1.345 . S
C384 H376 0.950 . S
C384 C383 1.345 . S
C384 C385 1.424 . S
C385 H377 0.951 . S
C385 C384 1.424 . S
C385 C386 1.347 . S
C386 H378 0.951 . S
C386 C381 1.429 . S
C386 C385 1.347 . S
H387 C388 0.951 . S
C388 H387 0.951 . S
C388 C394 1.265 . S
H389 C394 0.950 . S
H390 C398 0.949 . S
H391 C399 0.950 . S
H392 C400 0.951 . S
H393 C401 0.951 . S
C394 C388 1.265 . S
C394 H389 0.950 . S
C394 C395 1.478 . S
C395 C394 1.478 . S
C395 C396 1.397 . S
C395 C412 1.394 . S
C396 C395 1.397 . S
C396 C397 1.438 . S
C396 C401 1.429 . S
C397 C396 1.438 . S
C397 C398 1.428 . S
C397 C410 1.394 . S
C398 H390 0.949 . S
C398 C397 1.428 . S
C398 C399 1.345 . S
C399 H391 0.950 . S
C399 C398 1.345 . S
C399 C400 1.424 . S
C400 H392 0.951 . S
C400 C399 1.424 . S
C400 C401 1.347 . S
C401 H393 0.951 . S
C401 C396 1.429 . S
C401 C400 1.347 . S
H402 C403 0.951 . S
C403 H402 0.951 . S
C403 C409 1.265 . S
H404 C409 0.950 . S
H405 C413 0.949 . S
H406 C414 0.950 1_554 S
H407 C415 0.951 . S
H408 C416 0.951 . S
C409 C403 1.265 . S
C409 H404 0.950 . S
C409 C410 1.478 . S
C410 C397 1.394 . S
C410 C409 1.478 . S
C410 C411 1.397 . S
C411 C410 1.397 . S
C411 C412 1.438 . S
C411 C416 1.429 . S
C412 C395 1.394 . S
C412 C411 1.438 . S
C412 C413 1.428 . S
C413 H405 0.949 . S
C413 C412 1.428 . S
C413 C414 1.345 . S
C414 H406 0.950 1_556 S
C414 C413 1.345 . S
C414 C415 1.424 . S
C415 H407 0.951 . S
C415 C414 1.424 . S
C415 C416 1.347 . S
C416 H408 0.951 . S
C416 C411 1.429 . S
C416 C415 1.347 . S
H417 C418 0.951 . S
C418 H417 0.951 . S
C418 C424 1.265 . S
H419 C424 0.950 . S
H420 C428 0.949 . S
H421 C429 0.950 . S
H422 C430 0.951 . S
H423 C431 0.951 . S
C424 C418 1.265 . S
C424 H419 0.950 . S
C424 C425 1.478 . S
C425 C424 1.478 . S
C425 C426 1.397 . S
C425 C442 1.394 . S
C426 C425 1.397 . S
C426 C427 1.438 . S
C426 C431 1.429 . S
C427 C426 1.438 . S
C427 C428 1.428 . S
C427 C440 1.394 . S
C428 H420 0.949 . S
C428 C427 1.428 . S
C428 C429 1.345 . S
C429 H421 0.950 . S
C429 C428 1.345 . S
C429 C430 1.424 . S
C430 H422 0.951 . S
C430 C429 1.424 . S
C430 C431 1.347 . S
C431 H423 0.951 . S
C431 C426 1.429 . S
C431 C430 1.347 . S
H432 C433 0.951 . S
C433 H432 0.951 . S
C433 C439 1.265 . S
H434 C439 0.950 . S
H435 C443 0.949 . S
H436 C444 0.950 . S
H437 C445 0.951 . S
H438 C446 0.951 . S
C439 C433 1.265 . S
C439 H434 0.950 . S
C439 C440 1.478 . S
C440 C427 1.394 . S
C440 C439 1.478 . S
C440 C441 1.397 . S
C441 C440 1.397 . S
C441 C442 1.438 . S
C441 C446 1.429 . S
C442 C425 1.394 . S
C442 C441 1.438 . S
C442 C443 1.428 . S
C443 H435 0.949 . S
C443 C442 1.428 . S
C443 C444 1.345 . S
C444 H436 0.950 . S
C444 C443 1.345 . S
C444 C445 1.424 . S
C445 H437 0.951 . S
C445 C444 1.424 . S
C445 C446 1.347 . S
C446 H438 0.951 . S
C446 C441 1.429 . S
C446 C445 1.347 . S
H447 C448 0.951 . S
C448 H447 0.951 . S
C448 C454 1.265 . S
H449 C454 0.950 . S
H450 C458 0.949 . S
H451 C459 0.950 . S
H452 C460 0.951 . S
H453 C461 0.951 . S
C454 C448 1.265 . S
C454 H449 0.950 . S
C454 C455 1.478 . S
C455 C454 1.478 . S
C455 C456 1.397 . S
C455 C472 1.394 . S
C456 C455 1.397 . S
C456 C457 1.438 . S
C456 C461 1.429 . S
C457 C456 1.438 . S
C457 C458 1.428 . S
C457 C470 1.394 . S
C458 H450 0.949 . S
C458 C457 1.428 . S
C458 C459 1.345 . S
C459 H451 0.950 . S
C459 C458 1.345 . S
C459 C460 1.424 . S
C460 H452 0.951 . S
C460 C459 1.424 . S
C460 C461 1.347 . S
C461 H453 0.951 . S
C461 C456 1.429 . S
C461 C460 1.347 . S
H462 C463 0.951 . S
C463 H462 0.951 . S
C463 C469 1.265 . S
H464 C469 0.950 . S
H465 C473 0.949 . S
H466 C474 0.950 . S
H467 C475 0.951 . S
H468 C476 0.951 . S
C469 C463 1.265 . S
C469 H464 0.950 . S
C469 C470 1.478 . S
C470 C457 1.394 . S
C470 C469 1.478 . S
C470 C471 1.397 . S
C471 C470 1.397 . S
C471 C472 1.438 . S
C471 C476 1.429 1_565 S
C472 C455 1.394 . S
C472 C471 1.438 . S
C472 C473 1.428 . S
C473 H465 0.949 . S
C473 C472 1.428 . S
C473 C474 1.345 1_565 S
C474 H466 0.950 . S
C474 C473 1.345 1_545 S
C474 C475 1.424 . S
C475 H467 0.951 . S
C475 C474 1.424 . S
C475 C476 1.347 . S
C476 H468 0.951 . S
C476 C471 1.429 1_545 S
C476 C475 1.347 . S
H477 C478 0.951 . S
C478 H477 0.951 . S
C478 C484 1.265 . S
H479 C484 0.950 . S
H480 C488 0.949 . S
H481 C489 0.950 . S
H482 C490 0.951 . S
H483 C491 0.951 . S
C484 C478 1.265 . S
C484 H479 0.950 . S
C484 C485 1.478 . S
C485 C484 1.478 . S
C485 C486 1.397 . S
C485 C502 1.394 . S
C486 C485 1.397 . S
C486 C487 1.438 . S
C486 C491 1.429 . S
C487 C486 1.438 . S
C487 C488 1.428 . S
C487 C500 1.394 . S
C488 H480 0.949 . S
C488 C487 1.428 . S
C488 C489 1.345 . S
C489 H481 0.950 . S
C489 C488 1.345 . S
C489 C490 1.424 . S
C490 H482 0.951 . S
C490 C489 1.424 . S
C490 C491 1.347 . S
C491 H483 0.951 . S
C491 C486 1.429 . S
C491 C490 1.347 . S
H492 C493 0.951 . S
C493 H492 0.951 . S
C493 C499 1.265 . S
H494 C499 0.950 . S
H495 C503 0.949 . S
H496 C504 0.950 . S
H497 C505 0.951 1_565 S
H498 C506 0.951 . S
C499 C493 1.265 . S
C499 H494 0.950 . S
C499 C500 1.478 . S
C500 C487 1.394 . S
C500 C499 1.478 . S
C500 C501 1.397 . S
C501 C500 1.397 . S
C501 C502 1.438 . S
C501 C506 1.429 . S
C502 C485 1.394 . S
C502 C501 1.438 . S
C502 C503 1.428 . S
C503 H495 0.949 . S
C503 C502 1.428 . S
C503 C504 1.345 . S
C504 H496 0.950 . S
C504 C503 1.345 . S
C504 C505 1.424 . S
C505 H497 0.951 1_545 S
C505 C504 1.424 . S
C505 C506 1.347 . S
C506 H498 0.951 . S
C506 C501 1.429 . S
C506 C505 1.347 . S
H507 C508 0.951 1_455 S
C508 H507 0.951 1_655 S
C508 C514 1.265 . S
H509 C514 0.950 . S
H510 C518 0.949 . S
H511 C519 0.950 . S
H512 C520 0.951 . S
H513 C521 0.951 . S
C514 C508 1.265 . S
C514 H509 0.950 . S
C514 C515 1.478 . S
C515 C514 1.478 . S
C515 C516 1.397 . S
C515 C532 1.394 . S
C516 C515 1.397 . S
C516 C517 1.438 . S
C516 C521 1.429 . S
C517 C516 1.438 . S
C517 C518 1.428 . S
C517 C530 1.394 . S
C518 H510 0.949 . S
C518 C517 1.428 . S
C518 C519 1.345 . S
C519 H511 0.950 . S
C519 C518 1.345 . S
C519 C520 1.424 . S
C520 H512 0.951 . S
C520 C519 1.424 . S
C520 C521 1.347 . S
C521 H513 0.951 . S
C521 C516 1.429 . S
C521 C520 1.347 . S
H522 C523 0.951 . S
C523 H522 0.951 . S
C523 C529 1.265 . S
H524 C529 0.950 . S
H525 C533 0.949 . S
H526 C534 0.950 1_455 S
H527 C535 0.953 1_455 S
H528 C536 0.951 . S
C529 C523 1.265 . S
C529 H524 0.950 . S
C529 C530 1.478 . S
C530 C517 1.394 . S
C530 C529 1.478 . S
C530 C531 1.397 . S
C531 C530 1.397 . S
C531 C532 1.438 . S
C531 C536 1.429 . S
C532 C515 1.394 . S
C532 C531 1.438 . S
C532 C533 1.428 . S
C533 H525 0.949 . S
C533 C532 1.428 . S
C533 C534 1.345 . S
C534 H526 0.950 1_655 S
C534 C533 1.345 . S
C534 C535 1.424 . S
C535 H527 0.953 1_655 S
C535 C534 1.424 . S
C535 C536 1.347 . S
C536 H528 0.951 . S
C536 C531 1.429 . S
C536 C535 1.347 . S
H537 C538 0.951 . S
C538 H537 0.951 . S
C538 C544 1.265 . S
H539 C544 0.950 . S
H540 C548 0.949 . S
H541 C549 0.950 . S
H542 C550 0.951 . S
H543 C551 0.951 . S
C544 C538 1.265 . S
C544 H539 0.950 . S
C544 C545 1.478 . S
C545 C544 1.478 . S
C545 C546 1.397 . S
C545 C562 1.394 . S
C546 C545 1.397 . S
C546 C547 1.438 . S
C546 C551 1.429 . S
C547 C546 1.438 . S
C547 C548 1.428 . S
C547 C560 1.394 . S
C548 H540 0.949 . S
C548 C547 1.428 . S
C548 C549 1.345 . S
C549 H541 0.950 . S
C549 C548 1.345 . S
C549 C550 1.424 . S
C550 H542 0.951 . S
C550 C549 1.424 . S
C550 C551 1.347 . S
C551 H543 0.951 . S
C551 C546 1.429 . S
C551 C550 1.347 . S
H552 C553 0.951 . S
C553 H552 0.951 . S
C553 C559 1.265 . S
H554 C559 0.950 . S
H555 C563 0.949 . S
H556 C564 0.950 . S
H557 C565 0.951 . S
H558 C566 0.951 . S
C559 C553 1.265 . S
C559 H554 0.950 . S
C559 C560 1.478 . S
C560 C547 1.394 . S
C560 C559 1.478 . S
C560 C561 1.397 . S
C561 C560 1.397 . S
C561 C562 1.438 . S
C561 C566 1.429 . S
C562 C545 1.394 . S
C562 C561 1.438 . S
C562 C563 1.428 . S
C563 H555 0.949 . S
C563 C562 1.428 . S
C563 C564 1.345 . S
C564 H556 0.950 . S
C564 C563 1.345 . S
C564 C565 1.424 . S
C565 H557 0.951 . S
C565 C564 1.424 . S
C565 C566 1.347 . S
C566 H558 0.951 . S
C566 C561 1.429 . S
C566 C565 1.347 . S
H567 C568 0.951 . S
C568 H567 0.951 . S
C568 C574 1.265 . S
H569 C574 0.950 . S
H570 C578 0.949 1_655 S
H571 C579 0.950 . S
H572 C580 0.951 . S
H573 C581 0.951 . S
C574 C568 1.265 . S
C574 H569 0.950 . S
C574 C575 1.478 . S
C575 C574 1.478 . S
C575 C576 1.397 . S
C575 C592 1.394 . S
C576 C575 1.397 . S
C576 C577 1.438 . S
C576 C581 1.429 . S
C577 C576 1.438 . S
C577 C578 1.428 . S
C577 C590 1.394 1_455 S
C578 H570 0.949 1_455 S
C578 C577 1.428 . S
C578 C579 1.345 . S
C579 H571 0.950 . S
C579 C578 1.345 . S
C579 C580 1.424 . S
C580 H572 0.951 . S
C580 C579 1.424 . S
C580 C581 1.347 . S
C581 H573 0.951 . S
C581 C576 1.429 . S
C581 C580 1.347 . S
H582 C583 0.951 . S
C583 H582 0.951 . S
C583 C589 1.265 . S
H584 C589 0.950 . S
H585 C593 0.949 . S
H586 C594 0.950 . S
H587 C595 0.951 . S
H588 C596 0.951 . S
C589 C583 1.265 . S
C589 H584 0.950 . S
C589 C590 1.478 . S
C590 C577 1.394 1_655 S
C590 C589 1.478 . S
C590 C591 1.397 . S
C591 C590 1.397 . S
C591 C592 1.438 1_655 S
C591 C596 1.429 . S
C592 C575 1.394 . S
C592 C591 1.438 1_455 S
C592 C593 1.428 . S
C593 H585 0.949 . S
C593 C592 1.428 . S
C593 C594 1.345 1_455 S
C594 H586 0.950 . S
C594 C593 1.345 1_655 S
C594 C595 1.424 . S
C595 H587 0.951 . S
C595 C594 1.424 . S
C595 C596 1.347 . S
C596 H588 0.951 . S
C596 C591 1.429 . S
C596 C595 1.347 . S
H597 C598 0.951 . S
C598 H597 0.951 . S
C598 C604 1.265 . S
H599 C604 0.950 . S
H600 C608 0.949 . S
H601 C609 0.950 . S
H602 C610 0.951 . S
H603 C611 0.951 . S
C604 C598 1.265 . S
C604 H599 0.950 . S
C604 C605 1.478 . S
C605 C604 1.478 . S
C605 C606 1.397 . S
C605 C622 1.394 . S
C606 C605 1.397 . S
C606 C607 1.438 . S
C606 C611 1.429 . S
C607 C606 1.438 . S
C607 C608 1.428 . S
C607 C620 1.394 . S
C608 H600 0.949 . S
C608 C607 1.428 . S
C608 C609 1.345 . S
C609 H601 0.950 . S
C609 C608 1.345 . S
C609 C610 1.424 . S
C610 H602 0.951 . S
C610 C609 1.424 . S
C610 C611 1.347 . S
C611 H603 0.951 . S
C611 C606 1.429 . S
C611 C610 1.347 . S
H612 C613 0.951 . S
C613 H612 0.951 . S
C613 C619 1.265 . S
H614 C619 0.950 . S
H615 C623 0.949 . S
H616 C624 0.950 . S
H617 C625 0.951 . S
H618 C626 0.951 . S
C619 C613 1.265 . S
C619 H614 0.950 . S
C619 C620 1.478 . S
C620 C607 1.394 . S
C620 C619 1.478 . S
C620 C621 1.397 . S
C621 C620 1.397 . S
C621 C622 1.438 . S
C621 C626 1.429 . S
C622 C605 1.394 . S
C622 C621 1.438 . S
C622 C623 1.428 . S
C623 H615 0.949 . S
C623 C622 1.428 . S
C623 C624 1.345 . S
C624 H616 0.950 . S
C624 C623 1.345 . S
C624 C625 1.424 . S
C625 H617 0.951 . S
C625 C624 1.424 . S
C625 C626 1.347 . S
C626 H618 0.951 . S
C626 C621 1.429 . S
C626 C625 1.347 . S
H627 C628 0.951 . S
C628 H627 0.951 . S
C628 C634 1.265 . S
H629 C634 0.950 . S
H630 C638 0.949 . S
H631 C639 0.950 . S
H632 C640 0.951 . S
H633 C641 0.951 1_565 S
C634 C628 1.265 . S
C634 H629 0.950 . S
C634 C635 1.478 . S
C635 C634 1.478 . S
C635 C636 1.397 1_565 S
C635 C652 1.394 . S
C636 C635 1.397 1_545 S
C636 C637 1.438 . S
C636 C641 1.429 . S
C637 C636 1.438 . S
C637 C638 1.428 . S
C637 C650 1.394 . S
C638 H630 0.949 . S
C638 C637 1.428 . S
C638 C639 1.345 . S
C639 H631 0.950 . S
C639 C638 1.345 . S
C639 C640 1.424 . S
C640 H632 0.951 . S
C640 C639 1.424 . S
C640 C641 1.347 . S
C641 H633 0.951 1_545 S
C641 C636 1.429 . S
C641 C640 1.347 . S
H642 C643 0.951 . S
C643 H642 0.951 . S
C643 C649 1.265 . S
H644 C649 0.950 . S
H645 C653 0.949 . S
H646 C654 0.950 . S
H647 C655 0.951 . S
H648 C656 0.951 . S
C649 C643 1.265 . S
C649 H644 0.950 . S
C649 C650 1.478 . S
C650 C637 1.394 . S
C650 C649 1.478 . S
C650 C651 1.397 . S
C651 C650 1.397 . S
C651 C652 1.438 1_545 S
C651 C656 1.429 . S
C652 C635 1.394 . S
C652 C651 1.438 1_565 S
C652 C653 1.428 . S
C653 H645 0.949 . S
C653 C652 1.428 . S
C653 C654 1.345 . S
C654 H646 0.950 . S
C654 C653 1.345 . S
C654 C655 1.424 1_565 S
C655 H647 0.951 . S
C655 C654 1.424 1_545 S
C655 C656 1.347 . S
C656 H648 0.951 . S
C656 C651 1.429 . S
C656 C655 1.347 . S
C118 C31 1.054 . S
C133 C5 1.118 . S
C148 C18 1.051 . S
C163 C3 1.116 . S
C178 C16 1.085 . S
C193 C29 1.053 . S
C208 C70 1.118 . S
C223 C44 1.053 . S
C238 C57 1.118 . S
C253 C42 1.054 . S
C268 C55 1.053 . S
C283 C68 1.117 . S
C298 C83 1.116 . S
C313 C109 1.052 . S
C328 C81 1.119 . S
C343 C96 1.079 . S
C358 C94 1.073 . S
C373 C107 1.061 . S
C388 C10 1.405 . S
C403 C95 1.403 . S
C418 C23 1.398 . S
C433 C114 1.398 . S
C448 C82 1.412 . S
C463 C30 1.411 1_565 S
C478 C62 1.411 . S
C493 C36 1.411 . S
C508 C4 1.409 . S
C523 C69 1.407 . S
C538 C49 1.407 . S
C553 C17 1.409 . S
C568 C101 1.401 . S
C583 C75 1.399 . S
C598 C43 1.412 . S
C613 C108 1.412 . S
C628 C88 1.399 . S
C643 C56 1.401 . S
