# Generated by pormake.
# Topology mon, (4)-cn, num edge types: 1
# Building blocks:
#     Node 0, Type 0, BuildingBlock: TATPOV_clean_sbu_0, # of connection points: 4
#     Node 1, Type 0, BuildingBlock: TATPOV_clean_sbu_0, # of connection points: 4
#     Node 2, Type 0, BuildingBlock: TATPOV_clean_sbu_0, # of connection points: 4
#     Node 3, Type 0, BuildingBlock: TATPOV_clean_sbu_0, # of connection points: 4
#     Node 4, Type 0, BuildingBlock: TATPOV_clean_sbu_0, # of connection points: 4
#     Node 5, Type 0, BuildingBlock: TATPOV_clean_sbu_0, # of connection points: 4
#     Node 6, Type 0, BuildingBlock: TATPOV_clean_sbu_0, # of connection points: 4
#     Node 7, Type 0, BuildingBlock: TATPOV_clean_sbu_0, # of connection points: 4
#     Node 8, Type 0, BuildingBlock: TATPOV_clean_sbu_0, # of connection points: 4
#     Node 9, Type 0, BuildingBlock: TATPOV_clean_sbu_0, # of connection points: 4
#     Node 10, Type 0, BuildingBlock: TATPOV_clean_sbu_0, # of connection points: 4
#     Node 11, Type 0, BuildingBlock: TATPOV_clean_sbu_0, # of connection points: 4
#     Node 12, Type 0, BuildingBlock: TATPOV_clean_sbu_0, # of connection points: 4
#     Node 13, Type 0, BuildingBlock: TATPOV_clean_sbu_0, # of connection points: 4
#     Node 14, Type 0, BuildingBlock: TATPOV_clean_sbu_0, # of connection points: 4
#     Node 15, Type 0, BuildingBlock: TATPOV_clean_sbu_0, # of connection points: 4
#     Edge 16, Type (0, 0), BuildingBlock: UVAHIK_clean_linker_0, # of connection points: 2
#     Edge 17, Type (0, 0), BuildingBlock: UVAHIK_clean_linker_0, # of connection points: 2
#     Edge 18, Type (0, 0), BuildingBlock: UVAHIK_clean_linker_0, # of connection points: 2
#     Edge 19, Type (0, 0), BuildingBlock: UVAHIK_clean_linker_0, # of connection points: 2
#     Edge 20, Type (0, 0), BuildingBlock: UVAHIK_clean_linker_0, # of connection points: 2
#     Edge 21, Type (0, 0), BuildingBlock: UVAHIK_clean_linker_0, # of connection points: 2
#     Edge 22, Type (0, 0), BuildingBlock: UVAHIK_clean_linker_0, # of connection points: 2
#     Edge 23, Type (0, 0), BuildingBlock: UVAHIK_clean_linker_0, # of connection points: 2
#     Edge 24, Type (0, 0), BuildingBlock: UVAHIK_clean_linker_0, # of connection points: 2
#     Edge 25, Type (0, 0), BuildingBlock: UVAHIK_clean_linker_0, # of connection points: 2
#     Edge 26, Type (0, 0), BuildingBlock: UVAHIK_clean_linker_0, # of connection points: 2
#     Edge 27, Type (0, 0), BuildingBlock: UVAHIK_clean_linker_0, # of connection points: 2
#     Edge 28, Type (0, 0), BuildingBlock: UVAHIK_clean_linker_0, # of connection points: 2
#     Edge 29, Type (0, 0), BuildingBlock: UVAHIK_clean_linker_0, # of connection points: 2
#     Edge 30, Type (0, 0), BuildingBlock: UVAHIK_clean_linker_0, # of connection points: 2
#     Edge 31, Type (0, 0), BuildingBlock: UVAHIK_clean_linker_0, # of connection points: 2
#     Edge 32, Type (0, 0), BuildingBlock: UVAHIK_clean_linker_0, # of connection points: 2
#     Edge 33, Type (0, 0), BuildingBlock: UVAHIK_clean_linker_0, # of connection points: 2
#     Edge 34, Type (0, 0), BuildingBlock: UVAHIK_clean_linker_0, # of connection points: 2
#     Edge 35, Type (0, 0), BuildingBlock: UVAHIK_clean_linker_0, # of connection points: 2
#     Edge 36, Type (0, 0), BuildingBlock: UVAHIK_clean_linker_0, # of connection points: 2
#     Edge 37, Type (0, 0), BuildingBlock: UVAHIK_clean_linker_0, # of connection points: 2
#     Edge 38, Type (0, 0), BuildingBlock: UVAHIK_clean_linker_0, # of connection points: 2
#     Edge 39, Type (0, 0), BuildingBlock: UVAHIK_clean_linker_0, # of connection points: 2
#     Edge 40, Type (0, 0), BuildingBlock: UVAHIK_clean_linker_0, # of connection points: 2
#     Edge 41, Type (0, 0), BuildingBlock: UVAHIK_clean_linker_0, # of connection points: 2
#     Edge 42, Type (0, 0), BuildingBlock: UVAHIK_clean_linker_0, # of connection points: 2
#     Edge 43, Type (0, 0), BuildingBlock: UVAHIK_clean_linker_0, # of connection points: 2
#     Edge 44, Type (0, 0), BuildingBlock: UVAHIK_clean_linker_0, # of connection points: 2
#     Edge 45, Type (0, 0), BuildingBlock: UVAHIK_clean_linker_0, # of connection points: 2
#     Edge 46, Type (0, 0), BuildingBlock: UVAHIK_clean_linker_0, # of connection points: 2
#     Edge 47, Type (0, 0), BuildingBlock: UVAHIK_clean_linker_0, # of connection points: 2
# Relax obj value: 0.114
# Max RMSD: 0.119
# Mean RMSD: 0.119
data_MOF--net-mon--node1-TATPOV_clean_sbu_0--edge1-UVAHIK_clean_linker_0
_symmetry_space_group_name_H-M    P1
_symmetry_Int_Tables_number       1
_symmetry_cell_setting            triclinic
loop_
_symmetry_equiv_pos_as_xyz
'x, y, z'
_cell_length_a     43.437414
_cell_length_b     43.464378
_cell_length_c     109.46153
_cell_angle_alpha  90.23354
_cell_angle_beta   90.17231
_cell_angle_gamma 90.027085
loop_
_atom_site_label
_atom_site_type_symbol
_atom_site_fract_x
_atom_site_fract_y
_atom_site_fract_z
_atom_type_partial_charge
Zn0 Zn -0.00097 0.95752 0.58203 0.0
Zn1 Zn 0.0033 0.0185 0.58412 0.0
O2 O 0.04064 0.00332 0.59391 0.0
O3 O 0.03341 0.95316 0.59437 0.0
O4 O 0.00713 0.0642 0.58535 0.0
O5 O 0.00794 0.96037 0.564 0.0
O6 O 0.00578 0.01079 0.56571 0.0
C7 C 0.04864 0.97672 0.59754 0.0
C8 C 0.94395 0.98606 0.59126 0.0
O9 O 0.96039 0.01031 0.59134 0.0
O10 O 0.9549 0.96088 0.58737 0.0
C11 C 0.00661 0.07759 0.59568 0.0
O12 O 0.00352 0.06104 0.60562 0.0
C13 C 0.00822 0.98672 0.55911 0.0
Zn14 Zn 0.29636 0.72463 0.83607 0.0
Zn15 Zn 0.23627 0.73124 0.83814 0.0
O16 O 0.25314 0.76841 0.84799 0.0
O17 O 0.3027 0.75771 0.84876 0.0
O18 O 0.19016 0.73532 0.83909 0.0
O19 O 0.29464 0.73502 0.81821 0.0
O20 O 0.24415 0.73368 0.81964 0.0
C21 C 0.2802 0.77448 0.85184 0.0
C22 C 0.26732 0.67046 0.84501 0.0
O23 O 0.24383 0.688 0.84541 0.0
O24 O 0.29257 0.68033 0.84084 0.0
C25 C 0.17579 0.73846 0.84912 0.0
O26 O 0.19147 0.73993 0.85939 0.0
C27 C 0.2684 0.73599 0.81317 0.0
Zn28 Zn 0.52799 0.03073 0.09561 0.0
Zn29 Zn 0.52046 0.96912 0.09406 0.0
O30 O 0.48089 0.98317 0.10278 0.0
O31 O 0.48818 0.03315 0.10489 0.0
O32 O 0.5159 0.9234 0.09307 0.0
O33 O 0.52819 0.03229 0.07697 0.0
O34 O 0.52233 0.982 0.07625 0.0
C35 C 0.47193 0.00938 0.10659 0.0
C36 C 0.57693 -0.00309 0.10695 0.0
O37 O 0.56177 0.97371 0.10313 0.0
O38 O 0.56718 0.02392 0.10507 0.0
C39 C 0.51491 0.90767 0.10281 0.0
O40 O 0.51601 0.9219 0.11341 0.0
C41 C 0.52538 0.00766 0.07082 0.0
Zn42 Zn 0.22607 0.25431 0.33623 0.0
Zn43 Zn 0.28739 0.25145 0.33733 0.0
O44 O 0.27472 0.20892 0.34381 0.0
O45 O 0.2245 0.20981 0.34105 0.0
O46 O 0.33327 0.25008 0.338 0.0
O47 O 0.2285 0.26444 0.31826 0.0
O48 O 0.27866 0.25758 0.31917 0.0
C49 C 0.24867 0.1955 0.34413 0.0
C50 C 0.25244 0.2999 0.35209 0.0
O51 O 0.27755 0.28912 0.34794 0.0
O52 O 0.22695 0.28795 0.34903 0.0
C53 C 0.34723 0.24788 0.34816 0.0
O54 O 0.3311 0.24604 0.35827 0.0
C55 C 0.25439 0.26311 0.313 0.0
Zn56 Zn 0.00622 0.03495 0.40523 0.0
Zn57 Zn 0.0113 0.97374 0.40394 0.0
O58 O 0.05359 0.98814 0.39778 0.0
O59 O 0.05079 0.03826 0.40054 0.0
O60 O 0.01465 0.92798 0.40309 0.0
O61 O -0.00411 0.03172 0.42317 0.0
O62 O 0.00441 0.98187 0.42209 0.0
C63 C 0.06608 0.01464 0.39753 0.0
C64 C 0.96213 0.00725 0.38904 0.0
O65 O 0.9737 0.98243 0.39312 0.0
O66 O 0.97297 0.03306 0.39231 0.0
C67 C 0.01767 0.9145 0.39285 0.0
O68 O 0.0188 0.93103 0.38283 0.0
C69 C -0.00199 0.00578 0.42834 0.0
Zn70 Zn 0.22673 0.72598 0.659 0.0
Zn71 Zn 0.2867 0.73668 0.65763 0.0
O72 O 0.26847 0.77748 0.65117 0.0
O73 O 0.21901 0.7697 0.65427 0.0
O74 O 0.33228 0.74331 0.65681 0.0
O75 O 0.23062 0.7163 0.67693 0.0
O76 O 0.27928 0.73015 0.67592 0.0
C77 C 0.24079 0.7872 0.65105 0.0
C78 C 0.257 0.6843 0.64291 0.0
O79 O 0.28091 0.69787 0.64697 0.0
O80 O 0.23046 0.69305 0.64615 0.0
C81 C 0.34541 0.74682 0.64655 0.0
O82 O 0.3286 0.74688 0.63655 0.0
C83 C 0.25612 0.72154 0.68216 0.0
Zn84 Zn 0.53629 0.95818 0.91748 0.0
Zn85 Zn 0.52939 0.01797 0.91382 0.0
O86 O 0.49094 -0.00017 0.90523 0.0
O87 O 0.50069 0.9501 0.90604 0.0
O88 O 0.52595 0.06365 0.91114 0.0
O89 O 0.5293 0.96427 0.93548 0.0
O90 O 0.52855 0.01432 0.93258 0.0
C91 C 0.48391 0.97216 0.9025 0.0
C92 C 0.58863 0.98412 0.90602 0.0
O93 O 0.57136 0.00783 0.90583 0.0
O94 O 0.57942 0.95967 0.91107 0.0
C95 C 0.52386 0.07495 0.90048 0.0
O96 O 0.5231 0.0563 0.891 0.0
C97 C 0.52783 0.99132 0.93976 0.0
Zn98 Zn 0.30138 0.27388 0.15882 0.0
Zn99 Zn 0.2403 0.26756 0.15708 0.0
O100 O 0.25617 0.22906 0.14829 0.0
O101 O 0.30616 0.23724 0.14747 0.0
O102 O 0.19465 0.26294 0.15582 0.0
O103 O 0.2986 0.26783 0.17706 0.0
O104 O 0.24806 0.26762 0.1755 0.0
C105 C 0.28288 0.22095 0.1448 0.0
C106 C 0.27163 0.32622 0.14814 0.0
O107 O 0.24791 0.3091 0.14872 0.0
O108 O 0.29725 0.31689 0.15224 0.0
C109 C 0.18171 0.26262 0.1454 0.0
O110 O 0.1987 0.26523 0.13555 0.0
C111 C 0.27234 0.26696 0.18204 0.0
Zn112 Zn 0.73055 0.22457 0.15202 0.0
Zn113 Zn 0.79203 0.23317 0.15227 0.0
O114 O 0.77579 0.27199 0.14365 0.0
O115 O 0.72574 0.26377 0.14254 0.0
O116 O 0.83763 0.23908 0.15208 0.0
O117 O 0.73166 0.22545 0.17064 0.0
O118 O 0.78191 0.23211 0.17037 0.0
C119 C 0.74898 0.28037 0.14032 0.0
C120 C 0.76371 0.17566 0.14038 0.0
O121 O 0.78714 0.19129 0.14362 0.0
O122 O 0.73681 0.1851 0.14272 0.0
C123 C 0.8517 0.24076 0.14195 0.0
O124 O 0.83583 0.23915 0.13173 0.0
C125 C 0.75694 0.22902 0.17629 0.0
Zn126 Zn 0.79931 0.75503 0.6442 0.0
Zn127 Zn 0.73818 0.74917 0.6483 0.0
O128 O 0.74835 0.71126 0.63775 0.0
O129 O 0.79751 0.71731 0.63346 0.0
O130 O 0.69244 0.74601 0.65036 0.0
O131 O 0.80575 0.7508 0.66257 0.0
O132 O 0.75579 0.74604 0.66548 0.0
C133 C 0.77274 0.70214 0.63243 0.0
C134 C 0.76501 0.80756 0.63659 0.0
O135 O 0.74246 0.79229 0.64079 0.0
O136 O 0.79195 0.79654 0.63671 0.0
C137 C 0.67632 0.74798 0.64069 0.0
O138 O 0.69034 0.75118 0.63015 0.0
C139 C 0.78313 0.74704 0.66971 0.0
Zn140 Zn 0.79729 0.23473 0.33142 0.0
Zn141 Zn 0.73535 0.23876 0.33221 0.0
O142 O 0.74988 0.27757 0.34139 0.0
O143 O 0.80042 0.27312 0.34169 0.0
O144 O 0.68963 0.2421 0.33341 0.0
O145 O 0.79407 0.23714 0.31289 0.0
O146 O 0.7435 0.2395 0.31391 0.0
C147 C 0.77624 0.28762 0.34459 0.0
C148 C 0.76862 0.18239 0.34252 0.0
O149 O 0.74383 0.19669 0.34006 0.0
O150 O 0.79454 0.19385 0.3399 0.0
C151 C 0.67729 0.24156 0.34391 0.0
O152 O 0.69494 0.23879 0.35362 0.0
C153 C 0.76809 0.2388 0.30762 0.0
Zn154 Zn 0.73639 0.78317 0.81793 0.0
Zn155 Zn 0.79106 0.76578 0.82546 0.0
O156 O 0.7638 0.73153 0.83277 0.0
O157 O 0.71788 0.74917 0.82795 0.0
O158 O 0.83453 0.75471 0.83017 0.0
O159 O 0.74644 0.77442 0.80055 0.0
O160 O 0.79355 0.7636 0.80657 0.0
C161 C 0.73455 0.72901 0.83305 0.0
C162 C 0.76534 0.83018 0.83161 0.0
O163 O 0.78506 0.8089 0.83334 0.0
O164 O 0.74246 0.82562 0.82468 0.0
C165 C 0.84608 0.75888 0.84073 0.0
O166 O 0.82872 0.77003 0.8495 0.0
C167 C 0.77373 0.76661 0.79804 0.0
Zn168 Zn 0.4967 0.45928 0.08024 0.0
Zn169 Zn 0.5058 0.5198 0.08115 0.0
O170 O 0.54 0.50308 0.09217 0.0
O171 O 0.52791 0.45411 0.09389 0.0
O172 O 0.51159 0.56538 0.08236 0.0
O173 O 0.51089 0.45931 0.06273 0.0
O174 O 0.51275 0.50994 0.06305 0.0
C175 C 0.54493 0.4767 0.09676 0.0
C176 C 0.44261 0.49218 0.08689 0.0
O177 O 0.46122 0.51478 0.08715 0.0
O178 O 0.45165 0.46572 0.08367 0.0
C179 C 0.51014 0.57774 0.09288 0.0
O180 O 0.50552 0.56018 0.10244 0.0
C181 C 0.51521 0.48456 0.05726 0.0
Zn182 Zn 0.0229 0.52889 0.58455 0.0
Zn183 Zn 0.01995 0.46692 0.58456 0.0
O184 O 0.97981 0.47975 0.59316 0.0
O185 O 0.98337 0.53031 0.59407 0.0
O186 O 0.01824 0.42102 0.58516 0.0
O187 O 0.02215 0.52693 0.56593 0.0
O188 O 0.01998 0.47633 0.56639 0.0
C189 C 0.96897 0.50573 0.5964 0.0
C190 C 0.07477 0.50091 0.5962 0.0
O191 O 0.06126 0.47609 0.5931 0.0
O192 O 0.06289 0.52677 0.59381 0.0
C193 C 0.01737 0.40778 0.59548 0.0
O194 O 0.01723 0.42463 0.60547 0.0
C195 C 0.02085 0.50131 0.56037 0.0
Zn196 Zn 0.49175 0.52303 0.90643 0.0
Zn197 Zn 0.50653 0.4652 0.90228 0.0
O198 O 0.53732 0.48781 0.89114 0.0
O199 O 0.51946 0.53515 0.89251 0.0
O200 O 0.51638 0.42018 0.90045 0.0
O201 O 0.50829 0.52173 0.92349 0.0
O202 O 0.51463 0.47203 0.92065 0.0
C203 C 0.53811 0.51596 0.88793 0.0
C204 C 0.44019 0.48766 0.89882 0.0
O205 O 0.46084 0.46746 0.89684 0.0
O206 O 0.44717 0.51323 0.90363 0.0
C207 C 0.5117 0.40477 0.89073 0.0
O208 O 0.50098 0.41882 0.881 0.0
C209 C 0.51554 0.49558 0.92762 0.0
Zn210 Zn 0.01515 0.46326 0.4049 0.0
Zn211 Zn 0.01245 0.52524 0.40471 0.0
O212 O 0.97313 0.5125 0.39539 0.0
O213 O 0.97646 0.46188 0.3948 0.0
O214 O 0.01118 0.57113 0.40403 0.0
O215 O 0.0134 0.4654 0.42348 0.0
O216 O 0.01135 0.516 0.42291 0.0
C217 C 0.96252 0.48647 0.39207 0.0
C218 C 0.06793 0.491 0.39392 0.0
O219 O 0.05435 0.51589 0.39681 0.0
O220 O 0.05576 0.4652 0.39617 0.0
C221 C 0.01292 0.58426 0.39371 0.0
O222 O 0.01483 0.56729 0.38378 0.0
C223 C 0.01196 0.49108 0.42898 0.0
C224 C 0.00852 0.12666 0.60777 0.0
C225 C 0.0093 0.11143 0.59643 0.0
C226 C 0.01084 0.15871 0.60839 0.0
C227 C 0.0369 0.22588 0.59064 0.0
H228 H 0.9817 0.27183 0.61168 0.0
C229 C 0.01859 0.35597 0.58549 0.0
C230 C 0.01712 0.37385 0.5962 0.0
C231 C 0.01881 0.32393 0.58614 0.0
C232 C -0.00247 0.25929 0.60588 0.0
H233 H 0.01312 0.11786 0.57683 0.0
H234 H 0.01685 0.17361 0.57791 0.0
H235 H 0.98026 0.21567 0.61177 0.0
H236 H 0.01457 0.37213 0.61598 0.0
H237 H 0.01503 0.31603 0.61709 0.0
H238 H 0.05391 0.26943 0.58464 0.0
C239 C 0.01488 0.16082 0.58634 0.0
C240 C -0.00327 0.22715 0.60594 0.0
C241 C 0.01254 0.12886 0.58573 0.0
C242 C 0.01569 0.35899 0.60756 0.0
C243 C 0.01582 0.32689 0.6082 0.0
C244 C 0.03767 0.25795 0.59058 0.0
C245 C 0.01406 0.17611 0.59767 0.0
C246 C 0.01614 0.21013 0.5982 0.0
C247 C 0.01751 0.30905 0.59749 0.0
C248 C 0.01774 0.275 0.59808 0.0
H249 H 0.0061 0.11387 0.61619 0.0
H250 H 0.01042 0.16984 0.61726 0.0
H251 H 0.05256 0.21339 0.58475 0.0
H252 H 0.01963 0.3667 0.57659 0.0
H253 H 0.01965 0.31079 0.57771 0.0
C254 C 0.89814 0.74343 0.83312 0.0
C255 C 0.87932 0.75316 0.84281 0.0
C256 C 0.92979 0.7397 0.83481 0.0
C257 C 0.9939 0.76472 0.8547 0.0
H258 H 0.03781 0.69956 0.83787 0.0
C259 C 0.12546 0.74491 0.86008 0.0
C260 C 0.14169 0.73944 0.84919 0.0
C261 C 0.09324 0.74533 0.86011 0.0
C262 C 0.02589 0.71799 0.84257 0.0
H263 H 0.87896 0.76588 0.86199 0.0
H264 H 0.93425 0.75891 0.86499 0.0
H265 H 0.98181 0.70158 0.83671 0.0
H266 H 0.13675 0.73019 0.82978 0.0
H267 H 0.0807 0.73095 0.82985 0.0
H268 H 0.03814 0.78113 0.86052 0.0
C269 C 0.92454 0.75465 0.85602 0.0
C270 C 0.99379 0.71917 0.8419 0.0
C271 C 0.89282 0.75846 0.85432 0.0
C272 C 0.125 0.73444 0.83834 0.0
C273 C 0.09286 0.73465 0.83838 0.0
C274 C 0.02604 0.76343 0.85542 0.0
C275 C 0.94345 0.74547 0.84625 0.0
C276 C 0.97741 0.74284 0.84779 0.0
C277 C 0.0766 0.74003 0.84927 0.0
C278 C 0.0424 0.74033 0.8492 0.0
H279 H 0.88856 0.73922 0.82412 0.0
H280 H 0.94366 0.73306 0.82703 0.0
H281 H 0.98208 0.78347 0.85923 0.0
H282 H 0.13762 0.74883 0.8686 0.0
H283 H 0.08134 0.74935 0.86865 0.0
C284 C 0.51547 0.63044 0.084 0.0
C285 C 0.51248 0.61149 0.09429 0.0
C286 C 0.5167 0.66237 0.08531 0.0
C287 C 0.49573 0.72491 0.10653 0.0
H288 H 0.55096 0.77308 0.08644 0.0
C289 C 0.51284 0.85607 0.1129 0.0
C290 C 0.51396 0.87371 0.10217 0.0
C291 C 0.51298 0.82396 0.11226 0.0
C292 C 0.53522 0.75995 0.09204 0.0
H293 H 0.50893 0.61116 0.11406 0.0
H294 H 0.51146 0.66692 0.11635 0.0
H295 H 0.55139 0.71714 0.08481 0.0
H296 H 0.5157 0.87148 0.08237 0.0
H297 H 0.51576 0.81553 0.08129 0.0
H298 H 0.47958 0.76781 0.11375 0.0
C299 C 0.51238 0.65709 0.10725 0.0
C300 C 0.53546 0.72792 0.0911 0.0
C301 C 0.51111 0.62513 0.10594 0.0
C302 C 0.51491 0.85858 0.09081 0.0
C303 C 0.51516 0.82652 0.09018 0.0
C304 C 0.49555 0.75697 0.10749 0.0
C305 C 0.51503 0.67607 0.09694 0.0
C306 C 0.51556 0.71005 0.09827 0.0
C307 C 0.51436 0.80886 0.1009 0.0
C308 C 0.51513 0.77482 0.10018 0.0
H309 H 0.51649 0.62065 0.07489 0.0
H310 H 0.51833 0.67636 0.07717 0.0
H311 H 0.47982 0.71182 0.11206 0.0
H312 H 0.51213 0.86704 0.12179 0.0
H313 H 0.51259 0.81094 0.12068 0.0
C314 C 0.62962 0.24239 0.35672 0.0
C315 C 0.64353 0.24387 0.34516 0.0
C316 C 0.59765 0.24435 0.35785 0.0
C317 C 0.5283 0.27081 0.34149 0.0
H318 H 0.48524 0.21338 0.36242 0.0
C319 C 0.39815 0.25093 0.33771 0.0
C320 C 0.38122 0.24813 0.34856 0.0
C321 C 0.43022 0.25169 0.33801 0.0
C322 C 0.49697 0.22984 0.35668 0.0
H323 H 0.63485 0.24863 0.32572 0.0
H324 H 0.57917 0.2518 0.32769 0.0
H325 H 0.54142 0.21266 0.36169 0.0
H326 H 0.38467 0.24377 0.36826 0.0
H327 H 0.44088 0.24521 0.36878 0.0
H328 H 0.48393 0.28778 0.33637 0.0
C329 C 0.59296 0.2495 0.3359 0.0
C330 C 0.52911 0.22943 0.35625 0.0
C331 C 0.62486 0.24748 0.33477 0.0
C332 C 0.39707 0.24591 0.35974 0.0
C333 C 0.42924 0.24661 0.36004 0.0
C334 C 0.49622 0.27122 0.34192 0.0
C335 C 0.57901 0.24794 0.34744 0.0
C336 C 0.54506 0.24963 0.34852 0.0
C337 C 0.44611 0.24965 0.34917 0.0
C338 C 0.4802 0.25045 0.34937 0.0
H339 H 0.64339 0.23967 0.36491 0.0
H340 H 0.58754 0.24334 0.36687 0.0
H341 H 0.53999 0.28705 0.33563 0.0
H342 H 0.38666 0.25259 0.32894 0.0
H343 H 0.4426 0.25353 0.32947 0.0
C344 C 0.01835 0.86319 0.40304 0.0
C345 C 0.0193 0.88058 0.39226 0.0
C346 C 0.01935 0.83115 0.40255 0.0
C347 C 0.00383 0.76557 0.38222 0.0
H348 H 0.05188 0.72076 0.40619 0.0
C349 C 0.01627 0.6329 0.3816 0.0
C350 C 0.01388 0.61817 0.39296 0.0
C351 C 0.018 0.66495 0.38095 0.0
C352 C 0.03816 0.73296 0.3995 0.0
H353 H 0.02227 0.878 0.37249 0.0
H354 H 0.02419 0.82187 0.37166 0.0
H355 H 0.05362 0.77679 0.406 0.0
H356 H 0.01105 0.6255 0.41255 0.0
H357 H 0.0138 0.68133 0.41141 0.0
H358 H 0.98817 0.72164 0.37581 0.0
C359 C 0.02239 0.83311 0.38048 0.0
C360 C 0.03917 0.76502 0.39938 0.0
C361 C 0.02144 0.86524 0.38096 0.0
C362 C 0.013 0.63613 0.40365 0.0
C363 C 0.01478 0.66811 0.40301 0.0
C364 C 0.00283 0.73344 0.38234 0.0
C365 C 0.02132 0.81576 0.39127 0.0
C366 C 0.02172 0.78168 0.39085 0.0
C367 C 0.01747 0.68286 0.39167 0.0
C368 C 0.01968 0.71684 0.39109 0.0
H369 H 0.01662 0.87429 0.41189 0.0
H370 H 0.01802 0.81841 0.41102 0.0
H371 H 0.98988 0.77779 0.37562 0.0
H372 H 0.01705 0.61969 0.37319 0.0
H373 H 0.02028 0.67569 0.37209 0.0
C374 C 0.3973 0.74782 0.65656 0.0
C375 C 0.37933 0.74921 0.64588 0.0
C376 C 0.42938 0.74873 0.6559 0.0
C377 C 0.49342 0.73379 0.63475 0.0
H378 H 0.54123 0.77995 0.65854 0.0
C379 C 0.62474 0.75022 0.63052 0.0
C380 C 0.64232 0.74769 0.64127 0.0
C381 C 0.59264 0.75068 0.63103 0.0
C382 C 0.5282 0.76668 0.65191 0.0
H383 H 0.38094 0.75326 0.62614 0.0
H384 H 0.43698 0.75516 0.62501 0.0
H385 H 0.48514 0.78117 0.65944 0.0
H386 H 0.63999 0.74342 0.66098 0.0
H387 H 0.58388 0.74395 0.66186 0.0
H388 H 0.53647 0.71925 0.62724 0.0
C389 C 0.42623 0.75292 0.63388 0.0
C390 C 0.49608 0.76741 0.65242 0.0
C391 C 0.39412 0.75202 0.63454 0.0
C392 C 0.6271 0.74545 0.65254 0.0
C393 C 0.59497 0.74596 0.65305 0.0
C394 C 0.52553 0.73308 0.63424 0.0
C395 C 0.44422 0.75106 0.64455 0.0
C396 C 0.47833 0.75091 0.64386 0.0
C397 C 0.57739 0.74865 0.6423 0.0
C398 C 0.54327 0.74946 0.64283 0.0
H399 H 0.38663 0.74559 0.66544 0.0
H400 H 0.44257 0.74689 0.66428 0.0
H401 H 0.48042 0.72043 0.62814 0.0
H402 H 0.63575 0.75208 0.62169 0.0
H403 H 0.57976 0.75314 0.6226 0.0
C404 C 0.52461 0.35578 0.90154 0.0
C405 C 0.51631 0.371 0.89071 0.0
C406 C 0.52729 0.32378 0.90178 0.0
C407 C 0.50178 0.25374 0.8854 0.0
H408 H 0.56406 0.21467 0.9055 0.0
C409 C 0.51923 0.12147 0.88709 0.0
C410 C 0.52336 0.10873 0.89877 0.0
C411 C 0.51937 0.15339 0.88548 0.0
C412 C 0.54641 0.22526 0.89991 0.0
H413 H 0.50506 0.3645 0.87155 0.0
H414 H 0.51028 0.30858 0.87193 0.0
H415 H 0.56354 0.27051 0.90357 0.0
H416 H 0.53077 0.11959 0.91792 0.0
H417 H 0.53099 0.17517 0.9151 0.0
H418 H 0.48471 0.20834 0.88177 0.0
C419 C 0.51417 0.32141 0.88029 0.0
C420 C 0.54608 0.25726 0.89881 0.0
C421 C 0.51137 0.35348 0.88006 0.0
C422 C 0.52755 0.12861 0.9088 0.0
C423 C 0.52789 0.16047 0.90718 0.0
C424 C 0.50222 0.22168 0.88646 0.0
C425 C 0.52191 0.30614 0.89119 0.0
C426 C 0.52351 0.27195 0.89167 0.0
C427 C 0.52388 0.17323 0.8955 0.0
C428 C 0.5243 0.20713 0.89385 0.0
H429 H 0.52848 0.36852 0.90993 0.0
H430 H 0.53282 0.31283 0.91038 0.0
H431 H 0.48382 0.26427 0.87996 0.0
H432 H 0.51596 0.1068 0.87917 0.0
H433 H 0.51643 0.16254 0.87636 0.0
C434 C 0.12994 0.25691 0.15503 0.0
C435 C 0.14792 0.25952 0.14444 0.0
C436 C 0.09802 0.25411 0.15418 0.0
C437 C 0.03242 0.26932 0.13377 0.0
H438 H 0.99011 0.21261 0.15524 0.0
C439 C 0.90149 0.2449 0.13057 0.0
C440 C 0.8856 0.24338 0.14172 0.0
C441 C 0.93362 0.24648 0.1304 0.0
C442 C 0.00158 0.22874 0.14926 0.0
H443 H 0.14651 0.26117 0.12463 0.0
H444 H 0.09065 0.25603 0.12316 0.0
H445 H 0.04609 0.21562 0.15578 0.0
H446 H 0.89094 0.24276 0.16144 0.0
H447 H 0.94686 0.24573 0.16114 0.0
H448 H 0.98777 0.28251 0.1273 0.0
C449 C 0.10129 0.25647 0.13212 0.0
C450 C 0.03363 0.23046 0.14957 0.0
C451 C 0.13328 0.25926 0.13297 0.0
C452 C 0.90246 0.24378 0.15269 0.0
C453 C 0.93453 0.24528 0.15252 0.0
C454 C 0.0003 0.26757 0.13345 0.0
C455 C 0.08334 0.25383 0.14273 0.0
C456 C 0.04938 0.251 0.14193 0.0
C457 C 0.95046 0.24646 0.14138 0.0
C458 C 0.98455 0.2475 0.1413 0.0
H459 H 0.14047 0.25714 0.16401 0.0
H460 H 0.08478 0.25259 0.16253 0.0
H461 H 0.0439 0.2856 0.12786 0.0
H462 H 0.88915 0.24462 0.12195 0.0
H463 H 0.9453 0.24715 0.12168 0.0
C464 C -0.00154 0.97523 0.44767 0.0
C465 C 0.99507 0.00367 0.44175 0.0
C466 C -0.00158 0.97367 0.4604 0.0
C467 C 0.01471 0.02109 0.48739 0.0
H468 H 0.97352 0.95557 0.50487 0.0
C469 C 0.00599 0.01812 0.54001 0.0
C470 C 0.00932 0.98935 0.54567 0.0
C471 C 0.00444 0.02022 0.5273 0.0
C472 C 0.98544 0.9738 0.5001 0.0
H473 H 0.98783 0.05262 0.44456 0.0
H474 H 0.98756 0.04978 0.46678 0.0
H475 H 0.96864 0.95853 0.4827 0.0
H476 H 0.01472 0.94033 0.54242 0.0
H477 H 0.0125 0.94412 0.52026 0.0
H478 H 0.03172 0.03624 0.50477 0.0
C479 C 0.99069 0.0288 0.46155 0.0
C480 C 0.98257 0.97553 0.48743 0.0
C481 C 0.99065 0.03036 0.44883 0.0
C482 C 0.01196 0.96284 0.53835 0.0
C483 C 0.01046 0.96496 0.52566 0.0
C484 C 0.01764 0.01933 0.50007 0.0
C485 C 0.99504 0.00051 0.46747 0.0
C486 C -0.00276 -0.00085 0.48095 0.0
C487 C 0.00625 0.99361 0.52 0.0
C488 C 0.00312 -0.0044 0.50655 0.0
H489 H 0.00189 0.95424 0.44249 0.0
H490 H 0.00204 0.95158 0.46471 0.0
H491 H 0.02669 0.03927 0.48261 0.0
H492 H 0.00381 0.03898 0.54539 0.0
H493 H 0.00095 0.0426 0.52321 0.0
C494 C 0.23807 0.73268 0.79369 0.0
C495 C 0.26625 0.73769 0.79972 0.0
C496 C 0.2368 0.73136 0.78094 0.0
C497 C 0.28648 0.71621 0.75432 0.0
H498 H 0.21852 0.75095 0.73595 0.0
C499 C 0.286 0.72662 0.70169 0.0
C500 C 0.25823 0.71986 0.69563 0.0
C501 C 0.28715 0.72772 0.71444 0.0
C502 C 0.23747 0.74085 0.74098 0.0
H503 H 0.31495 0.74664 0.79707 0.0
H504 H 0.31258 0.74495 0.77488 0.0
H505 H 0.21989 0.75671 0.75812 0.0
H506 H 0.21012 0.70795 0.69821 0.0
H507 H 0.21226 0.70975 0.72043 0.0
H508 H 0.30415 0.70056 0.73715 0.0
C509 C 0.29161 0.74127 0.78 0.0
C510 C 0.23827 0.74415 0.75367 0.0
C511 C 0.2929 0.74246 0.79272 0.0
C512 C 0.23188 0.71335 0.70258 0.0
C513 C 0.23301 0.71459 0.71531 0.0
C514 C 0.28574 0.713 0.74163 0.0
C515 C 0.26366 0.73516 0.77397 0.0
C516 C 0.2628 0.7319 0.76048 0.0
C517 C 0.26053 0.72221 0.72136 0.0
C518 C 0.26122 0.72527 0.73484 0.0
H519 H 0.21714 0.72883 0.79882 0.0
H520 H 0.21494 0.72639 0.77657 0.0
H521 H 0.30541 0.70599 0.75932 0.0
H522 H 0.30671 0.73175 0.6966 0.0
H523 H 0.30865 0.73384 0.71886 0.0
C524 C 0.52453 0.98099 0.05055 0.0
C525 C 0.52585 0.00852 0.05731 0.0
C526 C 0.52538 0.9815 0.03783 0.0
C527 C 0.51114 0.03049 0.01116 0.0
H528 H 0.56143 0.96956 0.99466 0.0
C529 C 0.52735 0.02542 0.95839 0.0
C530 C 0.52636 -0.00418 0.95315 0.0
C531 C 0.52761 0.02912 0.9711 0.0
C532 C 0.54708 0.98657 -0.00087 0.0
H533 H 0.52877 0.05825 0.05597 0.0
H534 H 0.53031 0.05905 0.03365 0.0
H535 H 0.5616 0.97213 0.01687 0.0
H536 H 0.52389 0.94699 0.95718 0.0
H537 H 0.52403 0.95349 0.9792 0.0
H538 H 0.49638 0.04465 0.99334 0.0
C539 C 0.52848 0.03713 0.03826 0.0
C540 C 0.5472 0.98804 0.01184 0.0
C541 C 0.52775 0.03663 0.05103 0.0
C542 C 0.52493 0.97012 0.96088 0.0
C543 C 0.52521 0.97382 0.97353 0.0
C544 C 0.511 0.02899 -0.00161 0.0
C545 C 0.52752 0.00953 0.03154 0.0
C546 C 0.52885 0.00965 0.01801 0.0
C547 C 0.52698 0.00328 0.97879 0.0
C548 C 0.52857 0.00664 0.99226 0.0
H549 H 0.52293 0.95894 0.05508 0.0
H550 H 0.52409 0.95988 0.03289 0.0
H551 H 0.49663 0.04728 0.01568 0.0
H552 H 0.52845 0.04569 0.95268 0.0
H553 H 0.52907 0.05211 0.97491 0.0
C554 C 0.29672 0.2644 0.20273 0.0
C555 C 0.27 0.2661 0.19549 0.0
C556 C 0.29469 0.26473 0.21544 0.0
C557 C 0.24097 0.25114 0.24082 0.0
H558 H 0.29972 0.29997 0.25934 0.0
C559 C 0.22924 0.2704 0.29263 0.0
C560 C 0.25619 0.26658 0.2996 0.0
C561 C 0.2307 0.27171 0.27992 0.0
C562 C 0.28332 0.28606 0.25429 0.0
H563 H 0.22014 0.2692 0.19593 0.0
H564 H 0.21665 0.2701 0.21815 0.0
H565 H 0.30256 0.29891 0.23709 0.0
H566 H 0.30589 0.26191 0.2987 0.0
H567 H 0.30836 0.26412 0.27649 0.0
H568 H 0.22174 0.2383 0.25803 0.0
C569 C 0.23914 0.26816 0.21397 0.0
C570 C 0.28496 0.2854 0.24156 0.0
C571 C 0.24116 0.26777 0.20125 0.0
C572 C 0.2847 0.26486 0.2936 0.0
C573 C 0.28615 0.26627 0.28088 0.0
C574 C 0.23928 0.25186 0.25355 0.0
C575 C 0.2659 0.26684 0.2212 0.0
C576 C 0.26388 0.26783 0.2347 0.0
C577 C 0.25912 0.26935 0.27391 0.0
C578 C 0.2605 0.26925 0.26041 0.0
H579 H 0.31929 0.26293 0.19859 0.0
H580 H 0.31568 0.26315 0.22077 0.0
H581 H 0.22467 0.23705 0.2358 0.0
H582 H 0.20691 0.27191 0.29697 0.0
H583 H 0.20955 0.27453 0.27477 0.0
C584 C 0.78556 0.23247 0.19613 0.0
C585 C 0.75746 0.23003 0.1898 0.0
C586 C 0.78612 0.23395 0.20887 0.0
C587 C 0.73979 0.21631 0.23615 0.0
H588 H 0.79648 0.27255 0.25216 0.0
C589 C 0.73764 0.23888 0.28814 0.0
C590 C 0.76633 0.23931 0.29413 0.0
C591 C 0.73602 0.23852 0.2754 0.0
C592 C 0.78071 0.25656 0.24782 0.0
H593 H 0.70787 0.22719 0.19191 0.0
H594 H 0.70886 0.23015 0.21414 0.0
H595 H 0.79456 0.27025 0.22992 0.0
H596 H 0.81581 0.23999 0.2914 0.0
H597 H 0.81292 0.23927 0.26918 0.0
H598 H 0.72593 0.20268 0.25408 0.0
C599 C 0.73049 0.2305 0.20925 0.0
C600 C 0.77963 0.2552 0.23508 0.0
C601 C 0.72993 0.22895 0.1965 0.0
C602 C 0.79334 0.2397 0.28709 0.0
C603 C 0.7917 0.23946 0.27435 0.0
C604 C 0.74081 0.21774 0.24889 0.0
C605 C 0.7586 0.2331 0.21557 0.0
C606 C 0.75928 0.23494 0.22911 0.0
C607 C 0.76304 0.23872 0.26838 0.0
C608 C 0.76139 0.23777 0.25486 0.0
H609 H 0.80722 0.23322 0.19126 0.0
H610 H 0.80819 0.23544 0.21347 0.0
H611 H 0.72415 0.20016 0.23183 0.0
H612 H 0.71639 0.23862 0.29329 0.0
H613 H 0.7136 0.23831 0.27104 0.0
C614 C 0.81811 0.74717 0.68802 0.0
C615 C 0.78844 0.74378 0.68299 0.0
C616 C 0.8228 0.74461 0.70062 0.0
C617 C 0.78627 0.71496 0.72869 0.0
H618 H 0.83107 0.78022 0.74526 0.0
C619 C 0.75788 0.75409 0.77677 0.0
C620 C 0.78166 0.75971 0.78522 0.0
C621 C 0.76455 0.74737 0.76464 0.0
C622 C 0.8191 0.76147 0.74075 0.0
H623 H 0.74053 0.73465 0.68725 0.0
H624 H 0.74865 0.73046 0.70913 0.0
H625 H 0.83189 0.77713 0.72294 0.0
H626 H 0.83117 0.76271 0.78757 0.0
H627 H 0.84286 0.75162 0.76602 0.0
H628 H 0.77217 0.70029 0.74645 0.0
C629 C 0.76839 0.7347 0.70335 0.0
C630 C 0.81952 0.75969 0.72799 0.0
C631 C 0.76368 0.73739 0.6908 0.0
C632 C 0.8124 0.75845 0.78124 0.0
C633 C 0.81908 0.75216 0.76896 0.0
C634 C 0.78576 0.71681 0.7414 0.0
C635 C 0.79795 0.73838 0.70841 0.0
C636 C 0.80213 0.7371 0.72184 0.0
C637 C 0.79514 0.74641 0.7606 0.0
C638 C 0.80121 0.74075 0.74751 0.0
H639 H 0.8377 0.75206 0.68224 0.0
H640 H 0.84584 0.74745 0.70427 0.0
H641 H 0.77325 0.69688 0.72421 0.0
H642 H 0.73396 0.75472 0.77953 0.0
H643 H 0.74563 0.74353 0.75834 0.0
C644 C 0.52831 0.46335 0.9459 0.0
C645 C 0.52371 0.49247 0.94067 0.0
C646 C 0.53351 0.46055 0.95845 0.0
C647 C 0.55439 0.50477 0.98631 0.0
H648 H 0.50354 0.44448 0.00272 0.0
C649 C 0.52429 0.51193 0.03749 0.0
C650 C 0.52236 0.48433 0.04408 0.0
C651 C 0.52933 0.51139 0.02489 0.0
C652 C 0.51832 0.46107 -0.00172 0.0
H653 H 0.52222 0.54155 0.94442 0.0
H654 H 0.53092 0.5366 0.96624 0.0
H655 H 0.50454 0.44575 0.98052 0.0
H656 H 0.52541 0.43455 0.04269 0.0
H657 H 0.53446 0.43371 0.02078 0.0
H658 H 0.56753 0.52057 0.00413 0.0
C659 C 0.53081 0.51595 0.96067 0.0
C660 C 0.51893 0.46177 0.98555 0.0
C661 C 0.52556 0.51875 0.94816 0.0
C662 C 0.52648 0.45625 0.03788 0.0
C663 C 0.53157 0.45572 0.02531 0.0
C664 C 0.55379 0.50407 -0.00094 0.0
C665 C 0.53432 0.48682 0.96598 0.0
C666 C 0.53655 0.48395 0.97943 0.0
C667 C 0.5326 0.48324 0.01865 0.0
C668 C 0.53536 0.48253 0.00517 0.0
H669 H 0.52716 0.44267 0.94036 0.0
H670 H 0.53646 0.43781 0.96229 0.0
H671 H 0.56851 0.52186 0.98183 0.0
H672 H 0.52122 0.53394 0.042 0.0
H673 H 0.52966 0.53298 0.01999 0.0
C674 C 0.01987 0.52778 0.54007 0.0
C675 C 0.02006 0.50039 0.54686 0.0
C676 C 0.01878 0.52685 0.52732 0.0
C677 C 0.03463 0.47626 0.50103 0.0
H678 H 0.98061 0.53211 0.48363 0.0
C679 C 0.01211 0.46482 0.44931 0.0
C680 C 0.01164 0.49215 0.44249 0.0
C681 C 0.01267 0.46586 0.46206 0.0
C682 C -0.00395 0.51659 0.48835 0.0
H683 H 0.01931 0.45054 0.54557 0.0
H684 H 0.01723 0.44899 0.52334 0.0
H685 H 0.9829 0.53401 0.50589 0.0
H686 H 0.01118 0.54201 0.44373 0.0
H687 H 0.01247 0.54377 0.46596 0.0
H688 H 0.04788 0.45889 0.4835 0.0
C689 C 0.01823 0.47116 0.52788 0.0
C690 C -0.00264 0.51768 0.50109 0.0
C691 C 0.01926 0.47207 0.54062 0.0
C692 C 0.01145 0.52052 0.4487 0.0
C693 C 0.01203 0.52154 0.46145 0.0
C694 C 0.03335 0.47519 0.48829 0.0
C695 C 0.01792 0.49853 0.52109 0.0
C696 C 0.01665 0.49751 0.50756 0.0
C697 C 0.01279 0.49423 0.46827 0.0
C698 C 0.01403 0.49532 0.48181 0.0
H699 H 0.02054 0.54998 0.54459 0.0
H700 H 0.01894 0.54832 0.52234 0.0
H701 H 0.05006 0.46073 0.50575 0.0
H702 H 0.01216 0.44258 0.44482 0.0
H703 H 0.0128 0.44441 0.46706 0.0
C704 C 0.20586 0.83221 0.65181 0.0
C705 C 0.23336 0.81912 0.64756 0.0
C706 C 0.19674 0.86123 0.64796 0.0
C707 C 0.20085 0.90955 0.62143 0.0
H708 H 0.14723 0.95933 0.64175 0.0
C709 C 0.10381 0.98816 0.60232 0.0
C710 C 0.07628 0.97277 0.60514 0.0
C711 C 0.13111 0.98069 0.60849 0.0
C712 C 0.16277 0.94628 0.63599 0.0
H713 H 0.27371 0.82673 0.63638 0.0
H714 H 0.25722 0.87786 0.62933 0.0
H715 H 0.18448 0.92484 0.6513 0.0
H716 H 0.05496 0.93917 0.61696 0.0
H717 H 0.10224 0.92711 0.62807 0.0
H718 H 0.17762 0.92977 0.60613 0.0
C719 C 0.24291 0.86546 0.63573 0.0
C720 C 0.18393 0.92642 0.64143 0.0
C721 C 0.25232 0.8363 0.63975 0.0
C722 C 0.07595 0.95128 0.61465 0.0
C723 C 0.10288 0.94456 0.62102 0.0
C724 C 0.17996 0.92981 0.61599 0.0
C725 C 0.21475 0.878 0.63969 0.0
C726 C 0.20155 0.90624 0.6342 0.0
C727 C 0.13079 0.9586 0.6178 0.0
C728 C 0.15948 0.9468 0.62326 0.0
H729 H 0.19089 0.8197 0.65794 0.0
H730 H 0.17463 0.86979 0.65102 0.0
H731 H 0.21407 0.89432 0.6156 0.0
H732 H 0.10454 0.00465 0.59493 0.0
H733 H 0.15251 0.9915 0.6058 0.0
C734 C 0.27549 0.83112 0.85533 0.0
C735 C 0.28653 0.80232 0.85912 0.0
C736 C 0.28734 0.85816 0.86054 0.0
C737 C 0.34333 0.90139 0.86514 0.0
H738 H 0.35808 0.91485 0.89972 0.0
C739 C 0.45618 0.94204 0.88663 0.0
C740 C 0.45556 0.96498 0.89567 0.0
C741 C 0.42888 0.93135 0.88139 0.0
C742 C 0.35361 0.91189 0.89005 0.0
H743 H 0.31658 0.77885 0.87184 0.0
H744 H 0.33624 0.82591 0.8813 0.0
H745 H 0.31916 0.87741 0.89314 0.0
H746 H 0.42624 -0.00458 0.90616 0.0
H747 H 0.37794 0.97554 0.89732 0.0
H748 H 0.37987 0.93365 0.86206 0.0
C749 C 0.3188 0.82772 0.87424 0.0
C750 C 0.33148 0.89044 0.88629 0.0
C751 C 0.30766 0.80083 0.86882 0.0
C752 C 0.42723 0.97793 0.8991 0.0
C753 C 0.39971 0.96654 0.8941 0.0
C754 C 0.3659 0.92235 0.86889 0.0
C755 C 0.30964 0.85662 0.86985 0.0
C756 C 0.3269 0.88428 0.87381 0.0
C757 C 0.40038 0.94281 0.88534 0.0
C758 C 0.37191 0.92698 0.88137 0.0
H759 H 0.25946 0.83277 0.84776 0.0
H760 H 0.2801 0.88023 0.85698 0.0
H761 H 0.34047 0.89678 0.85547 0.0
H762 H 0.47778 0.93168 0.88388 0.0
H763 H 0.42995 0.91279 0.87477 0.0
C764 C 0.41493 0.00303 0.10609 0.0
C765 C 0.44152 0.01326 0.1122 0.0
C766 C 0.38596 0.01394 0.10965 0.0
C767 C 0.34391 0.05786 0.13335 0.0
H768 H 0.31696 0.10993 0.10668 0.0
C769 C 0.26943 0.16559 0.14145 0.0
C770 C 0.28742 0.19136 0.13845 0.0
C771 C 0.27728 0.13641 0.13698 0.0
C772 C 0.32357 0.09498 0.11414 0.0
H773 H 0.45895 0.04027 0.12735 0.0
H774 H 0.40849 0.05836 0.13386 0.0
H775 H 0.35162 0.06691 0.10257 0.0
H776 H 0.32605 0.20745 0.12777 0.0
H777 H 0.33915 0.15679 0.11967 0.0
H778 H 0.31765 0.08742 0.14504 0.0
C779 C 0.40978 0.04223 0.12631 0.0
C780 C 0.34324 0.07027 0.11179 0.0
C781 C 0.43866 0.03204 0.12256 0.0
C782 C 0.31191 0.18791 0.13024 0.0
C783 C 0.31923 0.15898 0.12554 0.0
C784 C 0.32383 0.08229 0.13567 0.0
C785 C 0.38333 0.03448 0.11955 0.0
C786 C 0.35498 0.05265 0.12148 0.0
C787 C 0.30263 0.13285 0.12918 0.0
C788 C 0.31497 0.10207 0.12618 0.0
H789 H 0.41675 0.98878 0.09798 0.0
H790 H 0.3659 0.00781 0.10427 0.0
H791 H 0.35267 0.04457 0.14096 0.0
H792 H 0.25051 0.16768 0.14782 0.0
H793 H 0.2643 0.11652 0.13995 0.0
C794 C 0.11392 -0.00421 0.38695 0.0
C795 C 0.09852 0.0184 0.39383 0.0
C796 C 0.14366 0.00138 0.38254 0.0
C797 C 0.18862 0.03486 0.36582 0.0
H798 H 0.24148 0.09412 0.38214 0.0
C799 C 0.2199 0.1462 0.34459 0.0
C800 C 0.24598 0.16319 0.34806 0.0
C801 C 0.21489 0.11694 0.34926 0.0
C802 C 0.22782 0.0769 0.37743 0.0
H803 H 0.10299 0.06343 0.40228 0.0
H804 H 0.15404 0.07326 0.39456 0.0
H805 H 0.20835 0.06101 0.39417 0.0
H806 H 0.28848 0.16207 0.35848 0.0
H807 H 0.27933 0.11065 0.36694 0.0
H808 H 0.20697 0.05185 0.34904 0.0
C809 C 0.14365 0.05113 0.39259 0.0
C810 C 0.20855 0.05811 0.38434 0.0
C811 C 0.11405 0.0457 0.39686 0.0
C812 C 0.26804 0.14951 0.35573 0.0
C813 C 0.26283 0.12013 0.36055 0.0
C814 C 0.20819 0.05336 0.35891 0.0
C815 C 0.15855 0.02946 0.38509 0.0
C816 C 0.18687 0.0389 0.37854 0.0
C817 C 0.23573 0.10389 0.35761 0.0
C818 C 0.22595 0.07641 0.36461 0.0
H819 H 0.10254 0.97441 0.38456 0.0
H820 H 0.15457 0.98424 0.3768 0.0
H821 H 0.17251 0.02003 0.36105 0.0
H822 H 0.20269 0.15594 0.33855 0.0
H823 H 0.1935 0.10549 0.34693 0.0
C824 C 0.91007 0.98655 0.38376 0.0
C825 C 0.93463 0.00653 0.38118 0.0
C826 C 0.88161 0.99043 0.37791 0.0
C827 C 0.84197 0.03095 0.35271 0.0
H828 H 0.78605 0.06088 0.37761 0.0
C829 C 0.75837 0.12625 0.34117 0.0
C830 C 0.76786 0.15183 0.34807 0.0
C831 C 0.76578 0.09651 0.34507 0.0
C832 C 0.80085 0.05184 0.3705 0.0
H833 H 0.94992 0.04419 0.36984 0.0
H834 H 0.9008 0.05037 0.35937 0.0
H835 H 0.82811 0.02653 0.38329 0.0
H836 H 0.78992 0.16699 0.36476 0.0
H837 H 0.80214 0.11531 0.37177 0.0
H838 H 0.8166 0.0586 0.34012 0.0
C839 C 0.90321 0.03192 0.36594 0.0
C840 C 0.82485 0.03206 0.37374 0.0
C841 C 0.93125 0.0286 0.37199 0.0
C842 C 0.7822 0.14744 0.35939 0.0
C843 C 0.78899 0.11783 0.36341 0.0
C844 C 0.81782 0.05048 0.34945 0.0
C845 C 0.87779 0.01372 0.36917 0.0
C846 C 0.84685 0.02331 0.36501 0.0
C847 C 0.78227 0.09216 0.356 0.0
C848 C 0.79846 0.06287 0.35849 0.0
H849 H 0.91218 0.96946 0.39089 0.0
H850 H 0.86227 0.9763 0.38061 0.0
H851 H 0.85856 0.02431 0.34581 0.0
H852 H 0.74759 0.12934 0.33232 0.0
H853 H 0.76048 0.07712 0.33918 0.0
C854 C 0.62981 0.97447 0.1075 0.0
C855 C 0.60708 0.99307 0.11286 0.0
C856 C 0.66056 0.97718 0.11127 0.0
C857 C 0.71714 0.01933 0.11214 0.0
H858 H 0.74031 0.04534 0.1448 0.0
C859 C 0.74888 0.13835 0.12434 0.0
C860 C 0.76717 0.14545 0.13451 0.0
C861 C 0.74559 0.10795 0.12049 0.0
C862 C 0.73512 0.0374 0.13563 0.0
H863 H 0.59758 0.02647 0.12705 0.0
H864 H 0.65069 0.03064 0.13386 0.0
H865 H 0.69996 0.00706 0.14209 0.0
H866 H 0.79823 0.12716 0.14816 0.0
H867 H 0.79147 0.07334 0.14171 0.0
H868 H 0.75003 0.05209 0.10567 0.0
C869 C 0.64522 0.0141 0.12674 0.0
C870 C 0.71183 0.01555 0.13408 0.0
C871 C 0.61481 0.01196 0.12279 0.0
C872 C 0.78416 0.12207 0.14022 0.0
C873 C 0.78028 0.09138 0.13655 0.0
C874 C 0.74038 0.04124 0.11369 0.0
C875 C 0.66867 -0.00205 0.12063 0.0
C876 C 0.70088 0.00838 0.12232 0.0
C877 C 0.7599 0.08397 0.12696 0.0
C878 C 0.74763 0.05237 0.12542 0.0
H879 H 0.62428 0.95986 0.09976 0.0
H880 H 0.6782 0.9646 0.10638 0.0
H881 H 0.70935 0.01412 0.10295 0.0
H882 H 0.73556 0.15611 0.11984 0.0
H883 H 0.72938 0.10308 0.11319 0.0
C884 C 0.75716 0.8866 0.83308 0.0
C885 C 0.76656 0.85911 0.83862 0.0
C886 C 0.75024 0.91239 0.84018 0.0
C887 C 0.74475 0.94069 0.87268 0.0
H888 H 0.66571 0.97026 0.86112 0.0
C889 C 0.6408 0.96168 0.90297 0.0
C890 C 0.61881 0.98401 0.89984 0.0
C891 C 0.66734 0.95794 0.896 0.0
C892 C 0.68811 0.96306 0.86441 0.0
H893 H 0.77868 0.83752 0.85573 0.0
H894 H 0.76507 0.88183 0.86827 0.0
H895 H 0.6987 0.94209 0.84737 0.0
H896 H 0.60843 0.02151 0.8875 0.0
H897 H 0.6548 0.01452 0.87509 0.0
H898 H 0.73242 0.95972 0.8901 0.0
C899 C 0.76383 0.88413 0.85843 0.0
C900 C 0.70725 0.94681 0.85648 0.0
C901 C 0.77157 0.85857 0.85127 0.0
C902 C 0.62493 0.004 0.89009 0.0
C903 C 0.65141 -1e-05 0.88299 0.0
C904 C 0.72537 0.95671 0.88067 0.0
C905 C 0.75151 0.91083 0.85301 0.0
C906 C 0.73525 0.93422 0.86064 0.0
C907 C 0.67236 0.97623 0.88565 0.0
C908 C 0.69627 0.96688 0.87673 0.0
H909 H 0.75351 0.8876 0.82329 0.0
H910 H 0.74191 0.93286 0.83564 0.0
H911 H 0.76646 0.93204 0.87613 0.0
H912 H 0.63689 0.94616 0.91053 0.0
H913 H 0.68281 0.93923 0.89823 0.0
C914 C 0.7534 0.863 0.63984 0.0
C915 C 0.76055 0.8387 0.63186 0.0
C916 C 0.7571 0.8935 0.63603 0.0
C917 C 0.77567 0.94235 0.60919 0.0
H918 H 0.84451 0.96998 0.62901 0.0
C919 C 0.89048 0.96671 0.58983 0.0
C920 C 0.91168 0.98678 0.59534 0.0
C921 C 0.86078 0.96402 0.5944 0.0
C922 C 0.8247 0.96363 0.62351 0.0
H923 H 0.77456 0.82649 0.61355 0.0
H924 H 0.78019 0.87945 0.60675 0.0
H925 H 0.80734 0.93438 0.63754 0.0
H926 H 0.91809 0.02133 0.60944 0.0
H927 H 0.86589 0.01574 0.61783 0.0
H928 H 0.79474 0.96946 0.5948 0.0
C929 C 0.77172 0.87535 0.6159 0.0
C930 C 0.80332 0.94313 0.62842 0.0
C931 C 0.76872 0.84502 0.61978 0.0
C932 C 0.9021 0.00557 0.60509 0.0
C933 C 0.87231 0.00243 0.60985 0.0
C934 C 0.79692 0.96301 0.60432 0.0
C935 C 0.76739 0.89988 0.62414 0.0
C936 C 0.78017 0.93039 0.62096 0.0
C937 C 0.85162 0.98102 0.60471 0.0
C938 C 0.82308 0.97167 0.61111 0.0
H939 H 0.74737 0.85842 0.64925 0.0
H940 H 0.75383 0.91197 0.64257 0.0
H941 H 0.75768 0.93325 0.60333 0.0
H942 H 0.89718 0.95224 0.58221 0.0
H943 H 0.84574 0.9469 0.59033 0.0
C944 C 0.75424 0.33743 0.14046 0.0
C945 C 0.74396 0.31046 0.13464 0.0
C946 C 0.74301 0.36611 0.13674 0.0
C947 C 0.70131 0.40746 0.1126 0.0
H948 H 0.64707 0.43699 0.13819 0.0
C949 C 0.57293 0.44705 0.11273 0.0
C950 C 0.57253 0.47128 0.10431 0.0
C951 C 0.60047 0.43815 0.11826 0.0
C952 C 0.66264 0.4296 0.13104 0.0
H953 H 0.71616 0.29201 0.1199 0.0
H954 H 0.69761 0.34207 0.11305 0.0
H955 H 0.68815 0.4006 0.14317 0.0
H956 H 0.60015 0.50636 0.09553 0.0
H957 H 0.64874 0.48987 0.1049 0.0
H958 H 0.67453 0.4349 0.10033 0.0
C959 C 0.714 0.3412 0.12052 0.0
C960 C 0.6862 0.40895 0.13388 0.0
C961 C 0.72448 0.3126 0.12445 0.0
C962 C 0.59984 0.48766 0.10205 0.0
C963 C 0.62759 0.47825 0.10736 0.0
C964 C 0.67812 0.42856 0.10979 0.0
C965 C 0.72216 0.36806 0.12694 0.0
C966 C 0.70465 0.39653 0.12457 0.0
C967 C 0.6282 0.45291 0.11527 0.0
C968 C 0.65762 0.43852 0.11889 0.0
H969 H 0.76899 0.33616 0.14844 0.0
H970 H 0.74938 0.38654 0.14185 0.0
H971 H 0.71522 0.39807 0.10528 0.0
H972 H 0.55218 0.43412 0.11465 0.0
H973 H 0.6004 0.4183 0.12422 0.0
C974 C 0.76267 0.34298 0.34772 0.0
C975 C 0.77926 0.31679 0.35132 0.0
C976 C 0.76986 0.37183 0.35273 0.0
C977 C 0.8108 0.41121 0.37779 0.0
H978 H 0.85062 0.45997 0.3528 0.0
C979 C 0.93175 0.46547 0.37494 0.0
C980 C 0.9333 0.48412 0.38538 0.0
C981 C 0.90332 0.45741 0.36995 0.0
C982 C 0.83885 0.44722 0.35987 0.0
H983 H 0.81444 0.29942 0.36351 0.0
H984 H 0.8262 0.34939 0.37258 0.0
H985 H 0.81434 0.41952 0.34687 0.0
H986 H 0.90692 0.51039 0.39853 0.0
H987 H 0.85664 0.49506 0.39006 0.0
H988 H 0.83719 0.43716 0.39075 0.0
C989 C 0.80794 0.34788 0.36584 0.0
C990 C 0.81803 0.42417 0.35649 0.0
C991 C 0.80142 0.31936 0.3606 0.0
C992 C 0.90611 0.49619 0.39037 0.0
C993 C 0.87749 0.48743 0.38556 0.0
C994 C 0.83125 0.43455 0.38118 0.0
C995 C 0.79298 0.3745 0.36168 0.0
C996 C 0.80536 0.40479 0.36539 0.0
C997 C 0.87591 0.46721 0.37552 0.0
C998 C 0.84688 0.45142 0.37221 0.0
H999 H 0.74561 0.34147 0.3405 0.0
H1000 H 0.75825 0.39212 0.34933 0.0
H1001 H 0.80125 0.39652 0.3848 0.0
H1002 H 0.9525 0.45584 0.37101 0.0
H1003 H 0.9028 0.44143 0.36232 0.0
C1004 C 0.93409 0.52936 0.61163 0.0
C1005 C 0.93855 0.50803 0.60217 0.0
C1006 C 0.90447 0.53661 0.61553 0.0
C1007 C 0.83229 0.55013 0.60186 0.0
H1008 H 0.81057 0.57351 0.63495 0.0
C1009 C 0.7936 0.66798 0.61624 0.0
C1010 C 0.77368 0.67214 0.62616 0.0
C1011 C 0.80044 0.63847 0.61202 0.0
C1012 C 0.81555 0.56646 0.62566 0.0
H1013 H 0.91602 0.47627 0.58974 0.0
H1014 H 0.86365 0.49005 0.59625 0.0
H1015 H 0.85014 0.53463 0.63155 0.0
H1016 H 0.74344 0.64915 0.63891 0.0
H1017 H 0.75634 0.59713 0.63178 0.0
H1018 H 0.79994 0.58424 0.59597 0.0
C1019 C 0.88319 0.50051 0.60083 0.0
C1020 C 0.83832 0.5443 0.62373 0.0
C1021 C 0.91303 0.49262 0.59714 0.0
C1022 C 0.75879 0.64647 0.6312 0.0
C1023 C 0.76619 0.61678 0.62715 0.0
C1024 C 0.80976 0.57255 0.60379 0.0
C1025 C 0.87869 0.52323 0.60982 0.0
C1026 C 0.84813 0.53733 0.61183 0.0
C1027 C 0.78798 0.61253 0.61783 0.0
C1028 C 0.80256 0.5822 0.61571 0.0
H1029 H 0.95349 0.54153 0.61561 0.0
H1030 H 0.9017 0.55452 0.62235 0.0
H1031 H 0.83951 0.54526 0.59259 0.0
H1032 H 0.80529 0.68746 0.6122 0.0
H1033 H 0.81758 0.63596 0.60492 0.0
C1034 C 0.73663 0.67719 0.84338 0.0
C1035 C 0.71948 0.70168 0.83846 0.0
C1036 C 0.72172 0.65056 0.84754 0.0
C1037 C 0.64879 0.60806 0.84354 0.0
H1038 H 0.66289 0.57592 0.87606 0.0
C1039 C 0.55512 0.55284 0.87206 0.0
C1040 C 0.56176 0.52734 0.87943 0.0
C1041 C 0.57827 0.56694 0.86532 0.0
C1042 C 0.65919 0.58413 0.86684 0.0
H1043 H 0.67317 0.71765 0.83441 0.0
H1044 H 0.64759 0.67175 0.84161 0.0
H1045 H 0.69733 0.61547 0.86792 0.0
H1046 H 0.59754 0.49589 0.88526 0.0
H1047 H 0.63857 0.52125 0.87358 0.0
H1048 H 0.60979 0.57804 0.84268 0.0
C1049 C 0.67249 0.67276 0.84209 0.0
C1050 C 0.67885 0.60678 0.8622 0.0
C1051 C 0.68722 0.69924 0.83805 0.0
C1052 C 0.59182 0.5154 0.87956 0.0
C1053 C 0.61527 0.52998 0.87297 0.0
C1054 C 0.6292 0.58556 0.84817 0.0
C1055 C 0.68951 0.64793 0.8467 0.0
C1056 C 0.673 0.61987 0.85071 0.0
C1057 C 0.60871 0.55618 0.86593 0.0
C1058 C 0.63345 0.57429 0.86005 0.0
H1059 H 0.76151 0.67835 0.84383 0.0
H1060 H 0.73537 0.63179 0.85113 0.0
H1061 H 0.64416 0.61725 0.83454 0.0
H1062 H 0.53213 0.56249 0.8718 0.0
H1063 H 0.57258 0.58729 0.8601 0.0
C1064 C 0.38404 0.48927 0.9026 0.0
C1065 C 0.40842 0.48332 0.89457 0.0
C1066 C 0.35446 0.49467 0.89807 0.0
C1067 C 0.31055 0.53842 0.88642 0.0
H1068 H 0.28459 0.5214 0.85319 0.0
C1069 C 0.24769 0.63075 0.85965 0.0
C1070 C 0.26603 0.63863 0.84959 0.0
C1071 C 0.25127 0.60202 0.86524 0.0
C1072 C 0.29111 0.52607 0.86257 0.0
H1073 H 0.42101 0.47564 0.87573 0.0
H1074 H 0.37002 0.48677 0.86766 0.0
H1075 H 0.31721 0.48445 0.86388 0.0
H1076 H 0.2999 0.62183 0.83669 0.0
H1077 H 0.30597 0.57201 0.84631 0.0
H1078 H 0.28589 0.58067 0.88491 0.0
C1079 C 0.37298 0.48629 0.87748 0.0
C1080 C 0.31 0.50503 0.86868 0.0
C1081 C 0.40238 0.47998 0.88207 0.0
C1082 C 0.28578 0.61646 0.84455 0.0
C1083 C 0.28896 0.58772 0.84997 0.0
C1084 C 0.29144 0.55917 0.88038 0.0
C1085 C 0.34908 0.49555 0.88538 0.0
C1086 C 0.32161 0.51193 0.8804 0.0
C1087 C 0.27278 0.58066 0.86069 0.0
C1088 C 0.28316 0.55416 0.86814 0.0
H1089 H 0.38829 0.49174 0.91231 0.0
H1090 H 0.33645 0.5006 0.90447 0.0
H1091 H 0.31895 0.54492 0.89538 0.0
H1092 H 0.23219 0.64745 0.86367 0.0
H1093 H 0.23847 0.59712 0.87349 0.0
C1094 C 0.10977 0.51797 0.61272 0.0
C1095 C 0.10501 0.50023 0.60218 0.0
C1096 C 0.13948 0.52302 0.61711 0.0
C1097 C 0.20552 0.52733 0.62576 0.0
H1098 H 0.2424 0.57724 0.60043 0.0
C1099 C 0.27699 0.6315 0.63886 0.0
C1100 C 0.2595 0.65692 0.63508 0.0
C1101 C 0.27271 0.6028 0.63322 0.0
C1102 C 0.23313 0.56269 0.60754 0.0
H1103 H 0.1269 0.47251 0.58823 0.0
H1104 H 0.17952 0.4826 0.59562 0.0
H1105 H 0.20429 0.53829 0.59493 0.0
H1106 H 0.22639 0.67352 0.62188 0.0
H1107 H 0.21964 0.62399 0.61179 0.0
H1108 H 0.23203 0.55382 0.63848 0.0
C1109 C 0.16016 0.4918 0.60067 0.0
C1110 C 0.2114 0.54029 0.6044 0.0
C1111 C 0.13019 0.48604 0.59647 0.0
C1112 C 0.24012 0.65415 0.62489 0.0
C1113 C 0.23647 0.62582 0.61908 0.0
C1114 C 0.22747 0.5495 0.62889 0.0
C1115 C 0.16504 0.5111 0.61083 0.0
C1116 C 0.19577 0.5241 0.61358 0.0
C1117 C 0.25151 0.59954 0.62357 0.0
C1118 C 0.23967 0.56893 0.61988 0.0
H1119 H 0.0906 0.52922 0.61721 0.0
H1120 H 0.14254 0.5384 0.62483 0.0
H1121 H 0.19391 0.51495 0.63298 0.0
H1122 H 0.29189 0.63318 0.64679 0.0
H1123 H 0.28443 0.58285 0.63688 0.0
C1124 C 0.10409 0.47434 0.37784 0.0
C1125 C 0.09869 0.49148 0.38847 0.0
C1126 C 0.1341 0.46835 0.37409 0.0
C1127 C 0.20263 0.44681 0.38869 0.0
H1128 H 0.22812 0.43252 0.35524 0.0
C1129 C 0.23012 0.33162 0.36873 0.0
C1130 C 0.25234 0.32804 0.35959 0.0
C1131 C 0.22568 0.36018 0.37427 0.0
C1132 C 0.22216 0.43698 0.36468 0.0
H1133 H 0.11979 0.5174 0.4032 0.0
H1134 H 0.17282 0.50567 0.39691 0.0
H1135 H 0.19137 0.47341 0.35977 0.0
H1136 H 0.28865 0.35072 0.3495 0.0
H1137 H 0.27983 0.40142 0.35886 0.0
H1138 H 0.23072 0.4081 0.3934 0.0
C1139 C 0.15381 0.49766 0.39131 0.0
C1140 C 0.20103 0.46032 0.36726 0.0
C1141 C 0.12361 0.50436 0.39488 0.0
C1142 C 0.27146 0.35298 0.3566 0.0
C1143 C 0.26645 0.38189 0.36193 0.0
C1144 C 0.22347 0.42324 0.3861 0.0
C1145 C 0.15924 0.47868 0.38111 0.0
C1146 C 0.18954 0.46399 0.37915 0.0
C1147 C 0.24288 0.38587 0.37055 0.0
C1148 C 0.23174 0.41686 0.37396 0.0
H1149 H 0.08509 0.46409 0.37283 0.0
H1150 H 0.13754 0.45325 0.36631 0.0
H1151 H 0.19411 0.44908 0.39794 0.0
H1152 H 0.21518 0.31268 0.37119 0.0
H1153 H 0.20704 0.36266 0.38076 0.0
C1154 C 0.38655 0.48714 0.08316 0.0
C1155 C 0.41072 0.49586 0.09094 0.0
C1156 C 0.35685 0.48349 0.08777 0.0
C1157 C 0.31197 0.48392 0.1173 0.0
H1158 H 0.28611 0.40432 0.1049 0.0
C1159 C 0.29071 0.37979 0.14611 0.0
C1160 C 0.27002 0.35676 0.14241 0.0
C1161 C 0.29304 0.40707 0.13956 0.0
C1162 C 0.29214 0.42696 0.10834 0.0
H1163 H 0.42302 0.50988 0.10927 0.0
H1164 H 0.37191 0.50153 0.11759 0.0
H1165 H 0.31935 0.43596 0.0927 0.0
H1166 H 0.23373 0.34501 0.12958 0.0
H1167 H 0.23868 0.39258 0.11774 0.0
H1168 H 0.28715 0.47268 0.13359 0.0
C1169 C 0.37503 0.49863 0.10785 0.0
C1170 C 0.31138 0.44536 0.10129 0.0
C1171 C 0.40452 0.50323 0.10313 0.0
C1172 C 0.25 0.36241 0.13257 0.0
C1173 C 0.25275 0.38958 0.12583 0.0
C1174 C 0.29308 0.46518 0.12444 0.0
C1175 C 0.35114 0.4871 0.10035 0.0
C1176 C 0.3232 0.47319 0.106 0.0
C1177 C 0.27508 0.41166 0.12903 0.0
C1178 C 0.28462 0.43573 0.1203 0.0
H1179 H 0.39097 0.48167 0.07366 0.0
H1180 H 0.3389 0.47571 0.0816 0.0
H1181 H 0.31963 0.5057 0.12105 0.0
H1182 H 0.30612 0.37614 0.15377 0.0
H1183 H 0.31073 0.42342 0.14217 0.0
loop_
_geom_bond_atom_site_label_1
_geom_bond_atom_site_label_2
_geom_bond_distance
_geom_bond_site_symmetry_2
_ccdc_geom_bond_type
Zn0 O3 2.031 . S
Zn0 O5 2.049 . S
Zn0 O10 2.067 1_455 S
Zn1 O2 1.962 . S
Zn1 O4 1.986 . S
Zn1 O6 1.996 . S
Zn1 O9 1.943 1_455 S
O2 Zn1 1.962 . S
O2 C7 1.254 1_545 S
O3 Zn0 2.031 . S
O3 C7 1.269 . S
O4 Zn1 1.986 . S
O4 C11 1.262 . S
O5 Zn0 2.049 . S
O5 C13 1.260 1_565 S
O6 Zn1 1.996 . S
O6 C13 1.257 . S
C7 O2 1.254 1_565 S
C7 O3 1.269 . S
C8 O9 1.227 1_565 S
C8 O10 1.288 . S
O9 Zn1 1.943 1_655 S
O9 C8 1.227 1_545 S
O10 Zn0 2.067 1_655 S
O10 C8 1.288 . S
C11 O4 1.262 . S
C11 O12 1.232 . S
O12 C11 1.232 . S
C13 O5 1.260 1_545 S
C13 O6 1.257 . S
Zn14 O17 2.031 . S
Zn14 O19 2.049 . S
Zn14 O24 2.067 . S
Zn15 O16 1.962 . S
Zn15 O18 1.986 . S
Zn15 O20 1.996 . S
Zn15 O23 1.943 . S
O16 Zn15 1.962 . S
O16 C21 1.254 . S
O17 Zn14 2.031 . S
O17 C21 1.269 . S
O18 Zn15 1.986 . S
O18 C25 1.262 . S
O19 Zn14 2.049 . S
O19 C27 1.260 . S
O20 Zn15 1.996 . S
O20 C27 1.257 . S
C21 O16 1.254 . S
C21 O17 1.269 . S
C22 O23 1.249 . S
C22 O24 1.270 . S
O23 Zn15 1.943 . S
O23 C22 1.249 . S
O24 Zn14 2.067 . S
O24 C22 1.270 . S
C25 O18 1.262 . S
C25 O26 1.232 . S
O26 C25 1.232 . S
C27 O19 1.260 . S
C27 O20 1.257 . S
Zn28 O31 2.031 . S
Zn28 O33 2.049 . S
Zn28 O38 2.067 . S
Zn29 O30 1.962 . S
Zn29 O32 1.986 . S
Zn29 O34 1.996 . S
Zn29 O37 1.943 . S
O30 Zn29 1.962 . S
O30 C35 1.254 1_565 S
O31 Zn28 2.031 . S
O31 C35 1.269 . S
O32 Zn29 1.986 . S
O32 C39 1.262 . S
O33 Zn28 2.049 . S
O33 C41 1.260 1_545 S
O34 Zn29 1.996 . S
O34 C41 1.257 . S
C35 O30 1.254 1_545 S
C35 O31 1.269 . S
C36 O37 1.227 1_545 S
C36 O38 1.287 . S
O37 Zn29 1.943 . S
O37 C36 1.227 1_565 S
O38 Zn28 2.067 . S
O38 C36 1.287 . S
C39 O32 1.262 . S
C39 O40 1.232 . S
O40 C39 1.232 . S
C41 O33 1.260 1_565 S
C41 O34 1.257 . S
Zn42 O45 2.031 . S
Zn42 O47 2.049 . S
Zn42 O52 2.067 . S
Zn43 O44 1.962 . S
Zn43 O46 1.986 . S
Zn43 O48 1.996 . S
Zn43 O51 1.943 . S
O44 Zn43 1.962 . S
O44 C49 1.254 . S
O45 Zn42 2.031 . S
O45 C49 1.269 . S
O46 Zn43 1.986 . S
O46 C53 1.262 . S
O47 Zn42 2.049 . S
O47 C55 1.260 . S
O48 Zn43 1.996 . S
O48 C55 1.257 . S
C49 O44 1.254 . S
C49 O45 1.269 . S
C50 O51 1.249 . S
C50 O52 1.270 . S
O51 Zn43 1.943 . S
O51 C50 1.249 . S
O52 Zn42 2.067 . S
O52 C50 1.270 . S
C53 O46 1.262 . S
C53 O54 1.232 . S
O54 C53 1.232 . S
C55 O47 1.260 . S
C55 O48 1.257 . S
Zn56 O59 2.031 . S
Zn56 O61 2.049 . S
Zn56 O66 2.067 1_455 S
Zn57 O58 1.962 . S
Zn57 O60 1.986 . S
Zn57 O62 1.996 . S
Zn57 O65 1.943 1_455 S
O58 Zn57 1.962 . S
O58 C63 1.254 1_565 S
O59 Zn56 2.031 . S
O59 C63 1.269 . S
O60 Zn57 1.986 . S
O60 C67 1.262 . S
O61 Zn56 2.049 . S
O61 C69 1.260 1_545 S
O62 Zn57 1.996 . S
O62 C69 1.257 . S
C63 O58 1.254 1_545 S
C63 O59 1.269 . S
C64 O65 1.227 1_545 S
C64 O66 1.288 . S
O65 Zn57 1.943 1_655 S
O65 C64 1.227 1_565 S
O66 Zn56 2.067 1_655 S
O66 C64 1.288 . S
C67 O60 1.262 . S
C67 O68 1.232 . S
O68 C67 1.232 . S
C69 O61 1.260 1_565 S
C69 O62 1.257 . S
Zn70 O73 2.031 . S
Zn70 O75 2.049 . S
Zn70 O80 2.067 . S
Zn71 O72 1.962 . S
Zn71 O74 1.986 . S
Zn71 O76 1.996 . S
Zn71 O79 1.943 . S
O72 Zn71 1.962 . S
O72 C77 1.254 . S
O73 Zn70 2.031 . S
O73 C77 1.269 . S
O74 Zn71 1.986 . S
O74 C81 1.262 . S
O75 Zn70 2.049 . S
O75 C83 1.260 . S
O76 Zn71 1.996 . S
O76 C83 1.257 . S
C77 O72 1.254 . S
C77 O73 1.269 . S
C78 O79 1.249 . S
C78 O80 1.270 . S
O79 Zn71 1.943 . S
O79 C78 1.249 . S
O80 Zn70 2.067 . S
O80 C78 1.270 . S
C81 O74 1.262 . S
C81 O82 1.232 . S
O82 C81 1.232 . S
C83 O75 1.260 . S
C83 O76 1.257 . S
Zn84 O87 2.031 . S
Zn84 O89 2.049 . S
Zn84 O94 2.067 . S
Zn85 O86 1.962 . S
Zn85 O88 1.986 . S
Zn85 O90 1.996 . S
Zn85 O93 1.943 . S
O86 Zn85 1.962 . S
O86 C91 1.254 1_545 S
O87 Zn84 2.031 . S
O87 C91 1.269 . S
O88 Zn85 1.986 . S
O88 C95 1.262 . S
O89 Zn84 2.049 . S
O89 C97 1.260 1_565 S
O90 Zn85 1.996 . S
O90 C97 1.257 . S
C91 O86 1.254 1_565 S
C91 O87 1.269 . S
C92 O93 1.227 1_565 S
C92 O94 1.287 . S
O93 Zn85 1.943 . S
O93 C92 1.227 1_545 S
O94 Zn84 2.067 . S
O94 C92 1.287 . S
C95 O88 1.262 . S
C95 O96 1.232 . S
O96 C95 1.232 . S
C97 O89 1.260 1_545 S
C97 O90 1.257 . S
Zn98 O101 2.031 . S
Zn98 O103 2.049 . S
Zn98 O108 2.067 . S
Zn99 O100 1.962 . S
Zn99 O102 1.986 . S
Zn99 O104 1.996 . S
Zn99 O107 1.943 . S
O100 Zn99 1.962 . S
O100 C105 1.254 . S
O101 Zn98 2.031 . S
O101 C105 1.269 . S
O102 Zn99 1.986 . S
O102 C109 1.262 . S
O103 Zn98 2.049 . S
O103 C111 1.260 . S
O104 Zn99 1.996 . S
O104 C111 1.257 . S
C105 O100 1.254 . S
C105 O101 1.269 . S
C106 O107 1.249 . S
C106 O108 1.270 . S
O107 Zn99 1.943 . S
O107 C106 1.249 . S
O108 Zn98 2.067 . S
O108 C106 1.270 . S
C109 O102 1.262 . S
C109 O110 1.232 . S
O110 C109 1.232 . S
C111 O103 1.260 . S
C111 O104 1.257 . S
Zn112 O115 2.031 . S
Zn112 O117 2.049 . S
Zn112 O122 2.067 . S
Zn113 O114 1.962 . S
Zn113 O116 1.986 . S
Zn113 O118 1.996 . S
Zn113 O121 1.943 . S
O114 Zn113 1.962 . S
O114 C119 1.254 . S
O115 Zn112 2.031 . S
O115 C119 1.269 . S
O116 Zn113 1.986 . S
O116 C123 1.262 . S
O117 Zn112 2.049 . S
O117 C125 1.260 . S
O118 Zn113 1.996 . S
O118 C125 1.257 . S
C119 O114 1.254 . S
C119 O115 1.269 . S
C120 O121 1.249 . S
C120 O122 1.270 . S
O121 Zn113 1.943 . S
O121 C120 1.249 . S
O122 Zn112 2.067 . S
O122 C120 1.270 . S
C123 O116 1.262 . S
C123 O124 1.232 . S
O124 C123 1.232 . S
C125 O117 1.260 . S
C125 O118 1.257 . S
Zn126 O129 2.031 . S
Zn126 O131 2.049 . S
Zn126 O136 2.067 . S
Zn127 O128 1.962 . S
Zn127 O130 1.986 . S
Zn127 O132 1.996 . S
Zn127 O135 1.943 . S
O128 Zn127 1.962 . S
O128 C133 1.254 . S
O129 Zn126 2.031 . S
O129 C133 1.269 . S
O130 Zn127 1.986 . S
O130 C137 1.262 . S
O131 Zn126 2.049 . S
O131 C139 1.260 . S
O132 Zn127 1.996 . S
O132 C139 1.257 . S
C133 O128 1.254 . S
C133 O129 1.269 . S
C134 O135 1.249 . S
C134 O136 1.270 . S
O135 Zn127 1.943 . S
O135 C134 1.249 . S
O136 Zn126 2.067 . S
O136 C134 1.270 . S
C137 O130 1.262 . S
C137 O138 1.232 . S
O138 C137 1.232 . S
C139 O131 1.260 . S
C139 O132 1.257 . S
Zn140 O143 2.031 . S
Zn140 O145 2.049 . S
Zn140 O150 2.067 . S
Zn141 O142 1.962 . S
Zn141 O144 1.986 . S
Zn141 O146 1.996 . S
Zn141 O149 1.943 . S
O142 Zn141 1.962 . S
O142 C147 1.254 . S
O143 Zn140 2.031 . S
O143 C147 1.269 . S
O144 Zn141 1.986 . S
O144 C151 1.262 . S
O145 Zn140 2.049 . S
O145 C153 1.260 . S
O146 Zn141 1.996 . S
O146 C153 1.257 . S
C147 O142 1.254 . S
C147 O143 1.269 . S
C148 O149 1.249 . S
C148 O150 1.270 . S
O149 Zn141 1.943 . S
O149 C148 1.249 . S
O150 Zn140 2.067 . S
O150 C148 1.270 . S
C151 O144 1.262 . S
C151 O152 1.232 . S
O152 C151 1.232 . S
C153 O145 1.260 . S
C153 O146 1.257 . S
Zn154 O157 2.031 . S
Zn154 O159 2.049 . S
Zn154 O164 2.067 . S
Zn155 O156 1.962 . S
Zn155 O158 1.986 . S
Zn155 O160 1.996 . S
Zn155 O163 1.943 . S
O156 Zn155 1.962 . S
O156 C161 1.254 . S
O157 Zn154 2.031 . S
O157 C161 1.269 . S
O158 Zn155 1.986 . S
O158 C165 1.262 . S
O159 Zn154 2.049 . S
O159 C167 1.260 . S
O160 Zn155 1.996 . S
O160 C167 1.257 . S
C161 O156 1.254 . S
C161 O157 1.269 . S
C162 O163 1.249 . S
C162 O164 1.270 . S
O163 Zn155 1.943 . S
O163 C162 1.249 . S
O164 Zn154 2.067 . S
O164 C162 1.270 . S
C165 O158 1.262 . S
C165 O166 1.232 . S
O166 C165 1.232 . S
C167 O159 1.260 . S
C167 O160 1.257 . S
Zn168 O171 2.031 . S
Zn168 O173 2.049 . S
Zn168 O178 2.067 . S
Zn169 O170 1.962 . S
Zn169 O172 1.986 . S
Zn169 O174 1.996 . S
Zn169 O177 1.943 . S
O170 Zn169 1.962 . S
O170 C175 1.254 . S
O171 Zn168 2.031 . S
O171 C175 1.269 . S
O172 Zn169 1.986 . S
O172 C179 1.262 . S
O173 Zn168 2.049 . S
O173 C181 1.260 . S
O174 Zn169 1.996 . S
O174 C181 1.257 . S
C175 O170 1.254 . S
C175 O171 1.269 . S
C176 O177 1.249 . S
C176 O178 1.270 . S
O177 Zn169 1.943 . S
O177 C176 1.249 . S
O178 Zn168 2.067 . S
O178 C176 1.270 . S
C179 O172 1.262 . S
C179 O180 1.232 . S
O180 C179 1.232 . S
C181 O173 1.260 . S
C181 O174 1.257 . S
Zn182 O185 2.031 . S
Zn182 O187 2.049 . S
Zn182 O192 2.067 . S
Zn183 O184 1.962 1_455 S
Zn183 O186 1.986 . S
Zn183 O188 1.996 . S
Zn183 O191 1.943 . S
O184 Zn183 1.962 1_655 S
O184 C189 1.254 . S
O185 Zn182 2.031 . S
O185 C189 1.269 1_455 S
O186 Zn183 1.986 . S
O186 C193 1.262 . S
O187 Zn182 2.049 . S
O187 C195 1.260 . S
O188 Zn183 1.996 . S
O188 C195 1.257 . S
C189 O184 1.254 . S
C189 O185 1.269 1_655 S
C190 O191 1.249 . S
C190 O192 1.270 . S
O191 Zn183 1.943 . S
O191 C190 1.249 . S
O192 Zn182 2.067 . S
O192 C190 1.270 . S
C193 O186 1.262 . S
C193 O194 1.232 . S
O194 C193 1.232 . S
C195 O187 1.260 . S
C195 O188 1.257 . S
Zn196 O199 2.031 . S
Zn196 O201 2.049 . S
Zn196 O206 2.067 . S
Zn197 O198 1.962 . S
Zn197 O200 1.986 . S
Zn197 O202 1.996 . S
Zn197 O205 1.943 . S
O198 Zn197 1.962 . S
O198 C203 1.254 . S
O199 Zn196 2.031 . S
O199 C203 1.269 . S
O200 Zn197 1.986 . S
O200 C207 1.262 . S
O201 Zn196 2.049 . S
O201 C209 1.260 . S
O202 Zn197 1.996 . S
O202 C209 1.257 . S
C203 O198 1.254 . S
C203 O199 1.269 . S
C204 O205 1.249 . S
C204 O206 1.270 . S
O205 Zn197 1.943 . S
O205 C204 1.249 . S
O206 Zn196 2.067 . S
O206 C204 1.270 . S
C207 O200 1.262 . S
C207 O208 1.232 . S
O208 C207 1.232 . S
C209 O201 1.260 . S
C209 O202 1.257 . S
Zn210 O213 2.031 . S
Zn210 O215 2.049 . S
Zn210 O220 2.067 . S
Zn211 O212 1.962 1_455 S
Zn211 O214 1.986 . S
Zn211 O216 1.996 . S
Zn211 O219 1.943 . S
O212 Zn211 1.962 1_655 S
O212 C217 1.254 . S
O213 Zn210 2.031 . S
O213 C217 1.269 1_455 S
O214 Zn211 1.986 . S
O214 C221 1.262 . S
O215 Zn210 2.049 . S
O215 C223 1.260 . S
O216 Zn211 1.996 . S
O216 C223 1.257 . S
C217 O212 1.254 . S
C217 O213 1.269 1_655 S
C218 O219 1.249 . S
C218 O220 1.270 . S
O219 Zn211 1.943 . S
O219 C218 1.249 . S
O220 Zn210 2.067 . S
O220 C218 1.270 . S
C221 O214 1.262 . S
C221 O222 1.232 . S
O222 C221 1.232 . S
C223 O215 1.260 . S
C223 O216 1.257 . S
C224 C225 1.349 . S
C224 C226 1.327 . S
C224 H249 0.950 . S
C225 C224 1.349 . S
C225 C241 1.349 1_455 S
C226 C224 1.327 . S
C226 C245 1.429 . S
C226 H250 0.950 . S
C227 C244 1.574 . S
C227 C246 1.375 . S
C227 H251 0.943 1_455 S
H228 C232 0.949 . S
C229 C230 1.349 . S
C229 C231 1.327 . S
C229 H252 0.950 1_455 S
C230 C229 1.349 . S
C230 C242 1.349 . S
C231 C229 1.327 . S
C231 C247 1.429 . S
C231 H253 0.950 1_455 S
C232 H228 0.949 . S
C232 C240 1.574 . S
C232 C248 1.368 . S
H233 C241 0.950 . S
H234 C239 0.950 . S
H235 C240 0.949 . S
H236 C242 0.950 . S
H237 C243 0.950 . S
H238 C244 0.949 1_655 S
C239 H234 0.950 . S
C239 C241 1.327 . S
C239 C245 1.429 1_655 S
C240 C232 1.574 . S
C240 H235 0.949 . S
C240 C246 1.368 . S
C241 C225 1.349 1_655 S
C241 H233 0.950 . S
C241 C239 1.327 . S
C242 C230 1.349 . S
C242 H236 0.950 . S
C242 C243 1.327 . S
C243 H237 0.950 . S
C243 C242 1.327 . S
C243 C247 1.429 . S
C244 C227 1.574 . S
C244 H238 0.949 1_455 S
C244 C248 1.368 . S
C245 C226 1.429 . S
C245 C239 1.429 1_455 S
C245 C246 1.523 . S
C246 C227 1.375 . S
C246 C240 1.368 . S
C246 C245 1.523 . S
C247 C231 1.429 . S
C247 C243 1.429 . S
C247 C248 1.523 . S
C248 C232 1.368 . S
C248 C244 1.368 . S
C248 C247 1.523 . S
H249 C224 0.950 . S
H250 C226 0.950 . S
H251 C227 0.943 1_655 S
H252 C229 0.950 1_655 S
H253 C231 0.950 1_655 S
C254 C255 1.349 . S
C254 C256 1.327 . S
C254 H279 0.950 . S
C255 C254 1.349 . S
C255 C271 1.349 . S
C256 C254 1.327 . S
C256 C275 1.429 . S
C256 H280 0.950 . S
C257 C274 1.538 1_655 S
C257 C276 1.382 . S
C257 H281 0.970 . S
H258 C262 0.949 . S
C259 C260 1.349 . S
C259 C261 1.327 . S
C259 H282 0.950 . S
C260 C259 1.349 . S
C260 C272 1.349 . S
C261 C259 1.327 . S
C261 C277 1.429 . S
C261 H283 0.950 . S
C262 H258 0.949 . S
C262 C270 1.583 . S
C262 C278 1.368 . S
H263 C271 0.950 . S
H264 C269 0.950 . S
H265 C270 0.944 1_655 S
H266 C272 0.950 . S
H267 C273 0.950 . S
H268 C274 0.949 . S
C269 H264 0.950 . S
C269 C271 1.327 . S
C269 C275 1.429 . S
C270 C262 1.583 . S
C270 H265 0.944 1_455 S
C270 C276 1.365 1_455 S
C271 C255 1.349 . S
C271 H263 0.950 . S
C271 C269 1.327 . S
C272 C260 1.349 . S
C272 H266 0.950 . S
C272 C273 1.327 . S
C273 H267 0.950 . S
C273 C272 1.327 . S
C273 C277 1.429 . S
C274 C257 1.538 1_455 S
C274 H268 0.949 . S
C274 C278 1.368 . S
C275 C256 1.429 . S
C275 C269 1.429 . S
C275 C276 1.523 . S
C276 C257 1.382 . S
C276 C270 1.365 1_655 S
C276 C275 1.523 . S
C277 C261 1.429 . S
C277 C273 1.429 . S
C277 C278 1.523 . S
C278 C262 1.368 . S
C278 C274 1.368 . S
C278 C277 1.523 . S
H279 C254 0.950 . S
H280 C256 0.950 . S
H281 C257 0.970 . S
H282 C259 0.950 . S
H283 C261 0.950 . S
C284 C285 1.349 . S
C284 C286 1.327 . S
C284 H309 0.950 . S
C285 C284 1.349 . S
C285 C301 1.349 . S
C286 C284 1.327 . S
C286 C305 1.429 . S
C286 H310 0.950 . S
C287 C304 1.574 . S
C287 C306 1.368 . S
C287 H311 0.949 . S
H288 C292 0.949 . S
C289 C290 1.349 . S
C289 C291 1.327 . S
C289 H312 0.950 . S
C290 C289 1.349 . S
C290 C302 1.349 . S
C291 C289 1.327 . S
C291 C307 1.429 . S
C291 H313 0.950 . S
C292 H288 0.949 . S
C292 C300 1.574 . S
C292 C308 1.368 . S
H293 C301 0.950 . S
H294 C299 0.950 . S
H295 C300 0.949 . S
H296 C302 0.950 . S
H297 C303 0.950 . S
H298 C304 0.949 . S
C299 H294 0.950 . S
C299 C301 1.327 . S
C299 C305 1.429 . S
C300 C292 1.574 . S
C300 H295 0.949 . S
C300 C306 1.368 . S
C301 C285 1.349 . S
C301 H293 0.950 . S
C301 C299 1.327 . S
C302 C290 1.349 . S
C302 H296 0.950 . S
C302 C303 1.327 . S
C303 H297 0.950 . S
C303 C302 1.327 . S
C303 C307 1.429 . S
C304 C287 1.574 . S
C304 H298 0.949 . S
C304 C308 1.368 . S
C305 C286 1.429 . S
C305 C299 1.429 . S
C305 C306 1.523 . S
C306 C287 1.368 . S
C306 C300 1.368 . S
C306 C305 1.523 . S
C307 C291 1.429 . S
C307 C303 1.429 . S
C307 C308 1.523 . S
C308 C292 1.368 . S
C308 C304 1.368 . S
C308 C307 1.523 . S
H309 C284 0.950 . S
H310 C286 0.950 . S
H311 C287 0.949 . S
H312 C289 0.950 . S
H313 C291 0.950 . S
C314 C315 1.349 . S
C314 C316 1.327 . S
C314 H339 0.950 . S
C315 C314 1.349 . S
C315 C331 1.349 . S
C316 C314 1.327 . S
C316 C335 1.429 . S
C316 H340 0.950 . S
C317 C334 1.574 . S
C317 C336 1.368 . S
C317 H341 0.949 . S
H318 C322 0.949 . S
C319 C320 1.349 . S
C319 C321 1.327 . S
C319 H342 0.950 . S
C320 C319 1.349 . S
C320 C332 1.349 . S
C321 C319 1.327 . S
C321 C337 1.429 . S
C321 H343 0.950 . S
C322 H318 0.949 . S
C322 C330 1.574 . S
C322 C338 1.368 . S
H323 C331 0.950 . S
H324 C329 0.950 . S
H325 C330 0.949 . S
H326 C332 0.950 . S
H327 C333 0.950 . S
H328 C334 0.949 . S
C329 H324 0.950 . S
C329 C331 1.327 . S
C329 C335 1.429 . S
C330 C322 1.574 . S
C330 H325 0.949 . S
C330 C336 1.368 . S
C331 C315 1.349 . S
C331 H323 0.950 . S
C331 C329 1.327 . S
C332 C320 1.349 . S
C332 H326 0.950 . S
C332 C333 1.327 . S
C333 H327 0.950 . S
C333 C332 1.327 . S
C333 C337 1.429 . S
C334 C317 1.574 . S
C334 H328 0.949 . S
C334 C338 1.368 . S
C335 C316 1.429 . S
C335 C329 1.429 . S
C335 C336 1.523 . S
C336 C317 1.368 . S
C336 C330 1.368 . S
C336 C335 1.523 . S
C337 C321 1.429 . S
C337 C333 1.429 . S
C337 C338 1.523 . S
C338 C322 1.368 . S
C338 C334 1.368 . S
C338 C337 1.523 . S
H339 C314 0.950 . S
H340 C316 0.950 . S
H341 C317 0.949 . S
H342 C319 0.950 . S
H343 C321 0.950 . S
C344 C345 1.349 1_655 S
C344 C346 1.327 . S
C344 H369 0.950 . S
C345 C344 1.349 1_455 S
C345 C361 1.349 . S
C346 C344 1.327 . S
C346 C365 1.429 1_655 S
C346 H370 0.950 . S
C347 C364 1.574 . S
C347 C366 1.368 . S
C347 H371 0.949 . S
H348 C352 0.949 1_655 S
C349 C350 1.349 . S
C349 C351 1.327 . S
C349 H372 0.950 . S
C350 C349 1.349 . S
C350 C362 1.349 . S
C351 C349 1.327 . S
C351 C367 1.429 . S
C351 H373 0.950 . S
C352 H348 0.949 1_455 S
C352 C360 1.574 . S
C352 C368 1.368 . S
H353 C361 0.950 . S
H354 C359 0.950 . S
H355 C360 0.943 1_655 S
H356 C362 0.950 1_655 S
H357 C363 0.950 1_655 S
H358 C364 0.949 . S
C359 H354 0.950 . S
C359 C361 1.327 . S
C359 C365 1.429 . S
C360 C352 1.574 . S
C360 H355 0.943 1_455 S
C360 C366 1.375 . S
C361 C345 1.349 . S
C361 H353 0.950 . S
C361 C359 1.327 . S
C362 C350 1.349 . S
C362 H356 0.950 1_455 S
C362 C363 1.327 . S
C363 H357 0.950 1_455 S
C363 C362 1.327 . S
C363 C367 1.429 . S
C364 C347 1.574 . S
C364 H358 0.949 . S
C364 C368 1.368 . S
C365 C346 1.429 1_455 S
C365 C359 1.429 . S
C365 C366 1.523 . S
C366 C347 1.368 . S
C366 C360 1.375 . S
C366 C365 1.523 . S
C367 C351 1.429 . S
C367 C363 1.429 . S
C367 C368 1.523 . S
C368 C352 1.368 . S
C368 C364 1.368 . S
C368 C367 1.523 . S
H369 C344 0.950 . S
H370 C346 0.950 . S
H371 C347 0.949 . S
H372 C349 0.950 . S
H373 C351 0.950 . S
C374 C375 1.349 . S
C374 C376 1.327 . S
C374 H399 0.950 . S
C375 C374 1.349 . S
C375 C391 1.349 . S
C376 C374 1.327 . S
C376 C395 1.429 . S
C376 H400 0.950 . S
C377 C394 1.574 . S
C377 C396 1.368 . S
C377 H401 0.949 . S
H378 C382 0.949 . S
C379 C380 1.349 . S
C379 C381 1.327 . S
C379 H402 0.950 . S
C380 C379 1.349 . S
C380 C392 1.349 . S
C381 C379 1.327 . S
C381 C397 1.429 . S
C381 H403 0.950 . S
C382 H378 0.949 . S
C382 C390 1.574 . S
C382 C398 1.368 . S
H383 C391 0.950 . S
H384 C389 0.950 . S
H385 C390 0.949 . S
H386 C392 0.950 . S
H387 C393 0.950 . S
H388 C394 0.949 . S
C389 H384 0.950 . S
C389 C391 1.327 . S
C389 C395 1.429 . S
C390 C382 1.574 . S
C390 H385 0.949 . S
C390 C396 1.368 . S
C391 C375 1.349 . S
C391 H383 0.950 . S
C391 C389 1.327 . S
C392 C380 1.349 . S
C392 H386 0.950 . S
C392 C393 1.327 . S
C393 H387 0.950 . S
C393 C392 1.327 . S
C393 C397 1.429 . S
C394 C377 1.574 . S
C394 H388 0.949 . S
C394 C398 1.368 . S
C395 C376 1.429 . S
C395 C389 1.429 . S
C395 C396 1.523 . S
C396 C377 1.368 . S
C396 C390 1.368 . S
C396 C395 1.523 . S
C397 C381 1.429 . S
C397 C393 1.429 . S
C397 C398 1.523 . S
C398 C382 1.368 . S
C398 C394 1.368 . S
C398 C397 1.523 . S
H399 C374 0.950 . S
H400 C376 0.950 . S
H401 C377 0.949 . S
H402 C379 0.950 . S
H403 C381 0.950 . S
C404 C405 1.349 . S
C404 C406 1.327 . S
C404 H429 0.950 . S
C405 C404 1.349 . S
C405 C421 1.349 . S
C406 C404 1.327 . S
C406 C425 1.429 . S
C406 H430 0.950 . S
C407 C424 1.574 . S
C407 C426 1.368 . S
C407 H431 0.949 . S
H408 C412 0.949 . S
C409 C410 1.349 . S
C409 C411 1.327 . S
C409 H432 0.950 . S
C410 C409 1.349 . S
C410 C422 1.349 . S
C411 C409 1.327 . S
C411 C427 1.429 . S
C411 H433 0.950 . S
C412 H408 0.949 . S
C412 C420 1.574 . S
C412 C428 1.368 . S
H413 C421 0.950 . S
H414 C419 0.950 . S
H415 C420 0.949 . S
H416 C422 0.950 . S
H417 C423 0.950 . S
H418 C424 0.949 . S
C419 H414 0.950 . S
C419 C421 1.327 . S
C419 C425 1.429 . S
C420 C412 1.574 . S
C420 H415 0.949 . S
C420 C426 1.368 . S
C421 C405 1.349 . S
C421 H413 0.950 . S
C421 C419 1.327 . S
C422 C410 1.349 . S
C422 H416 0.950 . S
C422 C423 1.327 . S
C423 H417 0.950 . S
C423 C422 1.327 . S
C423 C427 1.429 . S
C424 C407 1.574 . S
C424 H418 0.949 . S
C424 C428 1.368 . S
C425 C406 1.429 . S
C425 C419 1.429 . S
C425 C426 1.523 . S
C426 C407 1.368 . S
C426 C420 1.368 . S
C426 C425 1.523 . S
C427 C411 1.429 . S
C427 C423 1.429 . S
C427 C428 1.523 . S
C428 C412 1.368 . S
C428 C424 1.368 . S
C428 C427 1.523 . S
H429 C404 0.950 . S
H430 C406 0.950 . S
H431 C407 0.949 . S
H432 C409 0.950 . S
H433 C411 0.950 . S
C434 C435 1.349 . S
C434 C436 1.327 . S
C434 H459 0.950 . S
C435 C434 1.349 . S
C435 C451 1.349 . S
C436 C434 1.327 . S
C436 C455 1.429 . S
C436 H460 0.950 . S
C437 C454 1.583 . S
C437 C456 1.368 . S
C437 H461 0.949 . S
H438 C442 0.970 . S
C439 C440 1.349 . S
C439 C441 1.327 . S
C439 H462 0.950 . S
C440 C439 1.349 . S
C440 C452 1.349 . S
C441 C439 1.327 . S
C441 C457 1.429 . S
C441 H463 0.950 . S
C442 H438 0.970 . S
C442 C450 1.538 1_655 S
C442 C458 1.382 . S
H443 C451 0.950 . S
H444 C449 0.950 . S
H445 C450 0.949 . S
H446 C452 0.950 . S
H447 C453 0.950 . S
H448 C454 0.944 1_655 S
C449 H444 0.950 . S
C449 C451 1.327 . S
C449 C455 1.429 . S
C450 C442 1.538 1_455 S
C450 H445 0.949 . S
C450 C456 1.368 . S
C451 C435 1.349 . S
C451 H443 0.950 . S
C451 C449 1.327 . S
C452 C440 1.349 . S
C452 H446 0.950 . S
C452 C453 1.327 . S
C453 H447 0.950 . S
C453 C452 1.327 . S
C453 C457 1.429 . S
C454 C437 1.583 . S
C454 H448 0.944 1_455 S
C454 C458 1.365 1_455 S
C455 C436 1.429 . S
C455 C449 1.429 . S
C455 C456 1.523 . S
C456 C437 1.368 . S
C456 C450 1.368 . S
C456 C455 1.523 . S
C457 C441 1.429 . S
C457 C453 1.429 . S
C457 C458 1.523 . S
C458 C442 1.382 . S
C458 C454 1.365 1_655 S
C458 C457 1.523 . S
H459 C434 0.950 . S
H460 C436 0.950 . S
H461 C437 0.949 . S
H462 C439 0.950 . S
H463 C441 0.950 . S
C464 C465 1.349 . S
C464 C466 1.327 . S
C464 H489 0.950 . S
C465 C464 1.349 . S
C465 C481 1.349 1_465 S
C466 C464 1.327 . S
C466 C485 1.429 . S
C466 H490 0.950 . S
C467 C484 1.574 . S
C467 C486 1.368 1_645 S
C467 H491 0.949 . S
H468 C472 0.949 . S
C469 C470 1.349 1_655 S
C469 C471 1.327 . S
C469 H492 0.950 . S
C470 C469 1.349 1_455 S
C470 C482 1.349 1_545 S
C471 C469 1.327 . S
C471 C487 1.429 1_655 S
C471 H493 0.950 . S
C472 H468 0.949 . S
C472 C480 1.574 . S
C472 C488 1.368 1_565 S
H473 C481 0.950 . S
H474 C479 0.950 . S
H475 C480 0.949 . S
H476 C482 0.950 . S
H477 C483 0.950 . S
H478 C484 0.949 . S
C479 H474 0.950 . S
C479 C481 1.327 . S
C479 C485 1.429 1_645 S
C480 C472 1.574 . S
C480 H475 0.949 . S
C480 C486 1.368 . S
C481 C465 1.349 1_645 S
C481 H473 0.950 . S
C481 C479 1.327 . S
C482 C470 1.349 1_565 S
C482 H476 0.950 . S
C482 C483 1.327 . S
C483 H477 0.950 . S
C483 C482 1.327 . S
C483 C487 1.429 1_565 S
C484 C467 1.574 . S
C484 H478 0.949 . S
C484 C488 1.368 1_655 S
C485 C466 1.429 . S
C485 C479 1.429 1_465 S
C485 C486 1.523 . S
C486 C467 1.368 1_465 S
C486 C480 1.368 . S
C486 C485 1.523 . S
C487 C471 1.429 1_455 S
C487 C483 1.429 1_545 S
C487 C488 1.523 . S
C488 C472 1.368 1_545 S
C488 C484 1.368 1_455 S
C488 C487 1.523 . S
H489 C464 0.950 . S
H490 C466 0.950 . S
H491 C467 0.949 . S
H492 C469 0.950 . S
H493 C471 0.950 . S
C494 C495 1.349 . S
C494 C496 1.327 . S
C494 H519 0.950 . S
C495 C494 1.349 . S
C495 C511 1.349 . S
C496 C494 1.327 . S
C496 C515 1.429 . S
C496 H520 0.950 . S
C497 C514 1.574 . S
C497 C516 1.368 . S
C497 H521 0.949 . S
H498 C502 0.949 . S
C499 C500 1.349 . S
C499 C501 1.327 . S
C499 H522 0.950 . S
C500 C499 1.349 . S
C500 C512 1.349 . S
C501 C499 1.327 . S
C501 C517 1.429 . S
C501 H523 0.950 . S
C502 H498 0.949 . S
C502 C510 1.574 . S
C502 C518 1.368 . S
H503 C511 0.950 . S
H504 C509 0.950 . S
H505 C510 0.949 . S
H506 C512 0.950 . S
H507 C513 0.950 . S
H508 C514 0.949 . S
C509 H504 0.950 . S
C509 C511 1.327 . S
C509 C515 1.429 . S
C510 C502 1.574 . S
C510 H505 0.949 . S
C510 C516 1.368 . S
C511 C495 1.349 . S
C511 H503 0.950 . S
C511 C509 1.327 . S
C512 C500 1.349 . S
C512 H506 0.950 . S
C512 C513 1.327 . S
C513 H507 0.950 . S
C513 C512 1.327 . S
C513 C517 1.429 . S
C514 C497 1.574 . S
C514 H508 0.949 . S
C514 C518 1.368 . S
C515 C496 1.429 . S
C515 C509 1.429 . S
C515 C516 1.523 . S
C516 C497 1.368 . S
C516 C510 1.368 . S
C516 C515 1.523 . S
C517 C501 1.429 . S
C517 C513 1.429 . S
C517 C518 1.523 . S
C518 C502 1.368 . S
C518 C514 1.368 . S
C518 C517 1.523 . S
H519 C494 0.950 . S
H520 C496 0.950 . S
H521 C497 0.949 . S
H522 C499 0.950 . S
H523 C501 0.950 . S
C524 C525 1.349 . S
C524 C526 1.327 . S
C524 H549 0.950 . S
C525 C524 1.349 . S
C525 C541 1.349 1_565 S
C526 C524 1.327 . S
C526 C545 1.429 . S
C526 H550 0.950 . S
C527 C544 1.574 1_554 S
C527 C546 1.368 1_545 S
C527 H551 0.949 . S
H528 C532 0.949 . S
C529 C530 1.349 . S
C529 C531 1.327 . S
C529 H552 0.950 . S
C530 C529 1.349 . S
C530 C542 1.349 1_545 S
C531 C529 1.327 . S
C531 C547 1.429 . S
C531 H553 0.950 . S
C532 H528 0.949 . S
C532 C540 1.574 1_556 S
C532 C548 1.368 1_565 S
H533 C541 0.950 . S
H534 C539 0.950 . S
H535 C540 0.949 . S
H536 C542 0.950 . S
H537 C543 0.950 . S
H538 C544 0.949 . S
C539 H534 0.950 . S
C539 C541 1.327 . S
C539 C545 1.429 1_545 S
C540 C532 1.574 1_554 S
C540 H535 0.949 . S
C540 C546 1.368 . S
C541 C525 1.349 1_545 S
C541 H533 0.950 . S
C541 C539 1.327 . S
C542 C530 1.349 1_565 S
C542 H536 0.950 . S
C542 C543 1.327 . S
C543 H537 0.950 . S
C543 C542 1.327 . S
C543 C547 1.429 1_565 S
C544 C527 1.574 1_556 S
C544 H538 0.949 . S
C544 C548 1.368 . S
C545 C526 1.429 . S
C545 C539 1.429 1_565 S
C545 C546 1.523 . S
C546 C527 1.368 1_565 S
C546 C540 1.368 . S
C546 C545 1.523 . S
C547 C531 1.429 . S
C547 C543 1.429 1_545 S
C547 C548 1.523 . S
C548 C532 1.368 1_545 S
C548 C544 1.368 . S
C548 C547 1.523 . S
H549 C524 0.950 . S
H550 C526 0.950 . S
H551 C527 0.949 . S
H552 C529 0.950 . S
H553 C531 0.950 . S
C554 C555 1.349 . S
C554 C556 1.327 . S
C554 H579 0.950 . S
C555 C554 1.349 . S
C555 C571 1.349 . S
C556 C554 1.327 . S
C556 C575 1.429 . S
C556 H580 0.950 . S
C557 C574 1.574 . S
C557 C576 1.368 . S
C557 H581 0.949 . S
H558 C562 0.949 . S
C559 C560 1.349 . S
C559 C561 1.327 . S
C559 H582 0.950 . S
C560 C559 1.349 . S
C560 C572 1.349 . S
C561 C559 1.327 . S
C561 C577 1.429 . S
C561 H583 0.950 . S
C562 H558 0.949 . S
C562 C570 1.574 . S
C562 C578 1.368 . S
H563 C571 0.950 . S
H564 C569 0.950 . S
H565 C570 0.949 . S
H566 C572 0.950 . S
H567 C573 0.950 . S
H568 C574 0.949 . S
C569 H564 0.950 . S
C569 C571 1.327 . S
C569 C575 1.429 . S
C570 C562 1.574 . S
C570 H565 0.949 . S
C570 C576 1.368 . S
C571 C555 1.349 . S
C571 H563 0.950 . S
C571 C569 1.327 . S
C572 C560 1.349 . S
C572 H566 0.950 . S
C572 C573 1.327 . S
C573 H567 0.950 . S
C573 C572 1.327 . S
C573 C577 1.429 . S
C574 C557 1.574 . S
C574 H568 0.949 . S
C574 C578 1.368 . S
C575 C556 1.429 . S
C575 C569 1.429 . S
C575 C576 1.523 . S
C576 C557 1.368 . S
C576 C570 1.368 . S
C576 C575 1.523 . S
C577 C561 1.429 . S
C577 C573 1.429 . S
C577 C578 1.523 . S
C578 C562 1.368 . S
C578 C574 1.368 . S
C578 C577 1.523 . S
H579 C554 0.950 . S
H580 C556 0.950 . S
H581 C557 0.949 . S
H582 C559 0.950 . S
H583 C561 0.950 . S
C584 C585 1.349 . S
C584 C586 1.327 . S
C584 H609 0.950 . S
C585 C584 1.349 . S
C585 C601 1.349 . S
C586 C584 1.327 . S
C586 C605 1.429 . S
C586 H610 0.950 . S
C587 C604 1.574 . S
C587 C606 1.368 . S
C587 H611 0.949 . S
H588 C592 0.949 . S
C589 C590 1.349 . S
C589 C591 1.327 . S
C589 H612 0.950 . S
C590 C589 1.349 . S
C590 C602 1.349 . S
C591 C589 1.327 . S
C591 C607 1.429 . S
C591 H613 0.950 . S
C592 H588 0.949 . S
C592 C600 1.574 . S
C592 C608 1.368 . S
H593 C601 0.950 . S
H594 C599 0.950 . S
H595 C600 0.949 . S
H596 C602 0.950 . S
H597 C603 0.950 . S
H598 C604 0.949 . S
C599 H594 0.950 . S
C599 C601 1.327 . S
C599 C605 1.429 . S
C600 C592 1.574 . S
C600 H595 0.949 . S
C600 C606 1.368 . S
C601 C585 1.349 . S
C601 H593 0.950 . S
C601 C599 1.327 . S
C602 C590 1.349 . S
C602 H596 0.950 . S
C602 C603 1.327 . S
C603 H597 0.950 . S
C603 C602 1.327 . S
C603 C607 1.429 . S
C604 C587 1.574 . S
C604 H598 0.949 . S
C604 C608 1.368 . S
C605 C586 1.429 . S
C605 C599 1.429 . S
C605 C606 1.523 . S
C606 C587 1.368 . S
C606 C600 1.368 . S
C606 C605 1.523 . S
C607 C591 1.429 . S
C607 C603 1.429 . S
C607 C608 1.523 . S
C608 C592 1.368 . S
C608 C604 1.368 . S
C608 C607 1.523 . S
H609 C584 0.950 . S
H610 C586 0.950 . S
H611 C587 0.949 . S
H612 C589 0.950 . S
H613 C591 0.950 . S
C614 C615 1.349 . S
C614 C616 1.327 . S
C614 H639 0.950 . S
C615 C614 1.349 . S
C615 C631 1.349 . S
C616 C614 1.327 . S
C616 C635 1.429 . S
C616 H640 0.950 . S
C617 C634 1.574 . S
C617 C636 1.368 . S
C617 H641 0.949 . S
H618 C622 0.949 . S
C619 C620 1.349 . S
C619 C621 1.327 . S
C619 H642 0.950 . S
C620 C619 1.349 . S
C620 C632 1.349 . S
C621 C619 1.327 . S
C621 C637 1.429 . S
C621 H643 0.950 . S
C622 H618 0.949 . S
C622 C630 1.574 . S
C622 C638 1.368 . S
H623 C631 0.950 . S
H624 C629 0.950 . S
H625 C630 0.949 . S
H626 C632 0.950 . S
H627 C633 0.950 . S
H628 C634 0.949 . S
C629 H624 0.950 . S
C629 C631 1.327 . S
C629 C635 1.429 . S
C630 C622 1.574 . S
C630 H625 0.949 . S
C630 C636 1.368 . S
C631 C615 1.349 . S
C631 H623 0.950 . S
C631 C629 1.327 . S
C632 C620 1.349 . S
C632 H626 0.950 . S
C632 C633 1.327 . S
C633 H627 0.950 . S
C633 C632 1.327 . S
C633 C637 1.429 . S
C634 C617 1.574 . S
C634 H628 0.949 . S
C634 C638 1.368 . S
C635 C616 1.429 . S
C635 C629 1.429 . S
C635 C636 1.523 . S
C636 C617 1.368 . S
C636 C630 1.368 . S
C636 C635 1.523 . S
C637 C621 1.429 . S
C637 C633 1.429 . S
C637 C638 1.523 . S
C638 C622 1.368 . S
C638 C634 1.368 . S
C638 C637 1.523 . S
H639 C614 0.950 . S
H640 C616 0.950 . S
H641 C617 0.949 . S
H642 C619 0.950 . S
H643 C621 0.950 . S
C644 C645 1.349 . S
C644 C646 1.327 . S
C644 H669 0.950 . S
C645 C644 1.349 . S
C645 C661 1.349 . S
C646 C644 1.327 . S
C646 C665 1.429 . S
C646 H670 0.950 . S
C647 C664 1.574 1_556 S
C647 C666 1.368 . S
C647 H671 0.949 . S
H648 C652 0.949 . S
C649 C650 1.349 . S
C649 C651 1.327 . S
C649 H672 0.950 . S
C650 C649 1.349 . S
C650 C662 1.349 . S
C651 C649 1.327 . S
C651 C667 1.429 . S
C651 H673 0.950 . S
C652 H648 0.949 . S
C652 C660 1.574 1_554 S
C652 C668 1.368 . S
H653 C661 0.950 . S
H654 C659 0.950 . S
H655 C660 0.949 . S
H656 C662 0.950 . S
H657 C663 0.950 . S
H658 C664 0.949 . S
C659 H654 0.950 . S
C659 C661 1.327 . S
C659 C665 1.429 . S
C660 C652 1.574 1_556 S
C660 H655 0.949 . S
C660 C666 1.368 . S
C661 C645 1.349 . S
C661 H653 0.950 . S
C661 C659 1.327 . S
C662 C650 1.349 . S
C662 H656 0.950 . S
C662 C663 1.327 . S
C663 H657 0.950 . S
C663 C662 1.327 . S
C663 C667 1.429 . S
C664 C647 1.574 1_554 S
C664 H658 0.949 . S
C664 C668 1.368 . S
C665 C646 1.429 . S
C665 C659 1.429 . S
C665 C666 1.523 . S
C666 C647 1.368 . S
C666 C660 1.368 . S
C666 C665 1.523 . S
C667 C651 1.429 . S
C667 C663 1.429 . S
C667 C668 1.523 . S
C668 C652 1.368 . S
C668 C664 1.368 . S
C668 C667 1.523 . S
H669 C644 0.950 . S
H670 C646 0.950 . S
H671 C647 0.949 . S
H672 C649 0.950 . S
H673 C651 0.950 . S
C674 C675 1.349 . S
C674 C676 1.327 . S
C674 H699 0.950 . S
C675 C674 1.349 . S
C675 C691 1.349 . S
C676 C674 1.327 . S
C676 C695 1.429 . S
C676 H700 0.950 . S
C677 C694 1.574 . S
C677 C696 1.368 . S
C677 H701 0.949 . S
H678 C682 0.949 . S
C679 C680 1.349 . S
C679 C681 1.327 . S
C679 H702 0.950 . S
C680 C679 1.349 . S
C680 C692 1.349 . S
C681 C679 1.327 . S
C681 C697 1.429 . S
C681 H703 0.950 . S
C682 H678 0.949 . S
C682 C690 1.574 . S
C682 C698 1.368 . S
H683 C691 0.950 . S
H684 C689 0.950 . S
H685 C690 0.949 . S
H686 C692 0.950 . S
H687 C693 0.950 . S
H688 C694 0.949 . S
C689 H684 0.950 . S
C689 C691 1.327 . S
C689 C695 1.429 . S
C690 C682 1.574 . S
C690 H685 0.949 . S
C690 C696 1.368 . S
C691 C675 1.349 . S
C691 H683 0.950 . S
C691 C689 1.327 . S
C692 C680 1.349 . S
C692 H686 0.950 . S
C692 C693 1.327 . S
C693 H687 0.950 . S
C693 C692 1.327 . S
C693 C697 1.429 . S
C694 C677 1.574 . S
C694 H688 0.949 . S
C694 C698 1.368 . S
C695 C676 1.429 . S
C695 C689 1.429 . S
C695 C696 1.523 . S
C696 C677 1.368 . S
C696 C690 1.368 . S
C696 C695 1.523 . S
C697 C681 1.429 . S
C697 C693 1.429 . S
C697 C698 1.523 . S
C698 C682 1.368 . S
C698 C694 1.368 . S
C698 C697 1.523 . S
H699 C674 0.950 . S
H700 C676 0.950 . S
H701 C677 0.949 . S
H702 C679 0.950 . S
H703 C681 0.950 . S
C704 C705 1.349 . S
C704 C706 1.327 . S
C704 H729 0.950 . S
C705 C704 1.349 . S
C705 C721 1.349 . S
C706 C704 1.327 . S
C706 C725 1.429 . S
C706 H730 0.950 . S
C707 C724 1.574 . S
C707 C726 1.368 . S
C707 H731 0.949 . S
H708 C712 0.949 . S
C709 C710 1.349 . S
C709 C711 1.327 . S
C709 H732 0.950 . S
C710 C709 1.349 . S
C710 C722 1.349 . S
C711 C709 1.327 . S
C711 C727 1.429 . S
C711 H733 0.950 . S
C712 H708 0.949 . S
C712 C720 1.574 . S
C712 C728 1.368 . S
H713 C721 0.950 . S
H714 C719 0.950 . S
H715 C720 0.949 . S
H716 C722 0.950 1_545 S
H717 C723 0.950 . S
H718 C724 0.949 . S
C719 H714 0.950 . S
C719 C721 1.327 . S
C719 C725 1.429 . S
C720 C712 1.574 . S
C720 H715 0.949 . S
C720 C726 1.368 . S
C721 C705 1.349 . S
C721 H713 0.950 . S
C721 C719 1.327 . S
C722 C710 1.349 . S
C722 H716 0.950 1_565 S
C722 C723 1.327 . S
C723 H717 0.950 . S
C723 C722 1.327 . S
C723 C727 1.429 . S
C724 C707 1.574 . S
C724 H718 0.949 . S
C724 C728 1.368 . S
C725 C706 1.429 . S
C725 C719 1.429 . S
C725 C726 1.523 . S
C726 C707 1.368 . S
C726 C720 1.368 . S
C726 C725 1.523 . S
C727 C711 1.429 . S
C727 C723 1.429 . S
C727 C728 1.523 . S
C728 C712 1.368 . S
C728 C724 1.368 . S
C728 C727 1.523 . S
H729 C704 0.950 . S
H730 C706 0.950 . S
H731 C707 0.949 . S
H732 C709 0.950 . S
H733 C711 0.950 . S
C734 C735 1.349 . S
C734 C736 1.327 . S
C734 H759 0.950 . S
C735 C734 1.349 . S
C735 C751 1.349 . S
C736 C734 1.327 . S
C736 C755 1.429 . S
C736 H760 0.950 . S
C737 C754 1.574 . S
C737 C756 1.368 . S
C737 H761 0.949 . S
H738 C742 0.949 . S
C739 C740 1.349 . S
C739 C741 1.327 . S
C739 H762 0.950 . S
C740 C739 1.349 . S
C740 C752 1.349 . S
C741 C739 1.327 . S
C741 C757 1.429 . S
C741 H763 0.950 . S
C742 H738 0.949 . S
C742 C750 1.574 . S
C742 C758 1.368 . S
H743 C751 0.950 . S
H744 C749 0.950 . S
H745 C750 0.949 . S
H746 C752 0.950 1_545 S
H747 C753 0.950 . S
H748 C754 0.949 . S
C749 H744 0.950 . S
C749 C751 1.327 . S
C749 C755 1.429 . S
C750 C742 1.574 . S
C750 H745 0.949 . S
C750 C756 1.368 . S
C751 C735 1.349 . S
C751 H743 0.950 . S
C751 C749 1.327 . S
C752 C740 1.349 . S
C752 H746 0.950 1_565 S
C752 C753 1.327 . S
C753 H747 0.950 . S
C753 C752 1.327 . S
C753 C757 1.429 . S
C754 C737 1.574 . S
C754 H748 0.949 . S
C754 C758 1.368 . S
C755 C736 1.429 . S
C755 C749 1.429 . S
C755 C756 1.523 . S
C756 C737 1.368 . S
C756 C750 1.368 . S
C756 C755 1.523 . S
C757 C741 1.429 . S
C757 C753 1.429 . S
C757 C758 1.523 . S
C758 C742 1.368 . S
C758 C754 1.368 . S
C758 C757 1.523 . S
H759 C734 0.950 . S
H760 C736 0.950 . S
H761 C737 0.949 . S
H762 C739 0.950 . S
H763 C741 0.950 . S
C764 C765 1.349 . S
C764 C766 1.327 . S
C764 H789 0.950 . S
C765 C764 1.349 . S
C765 C781 1.349 . S
C766 C764 1.327 . S
C766 C785 1.429 . S
C766 H790 0.950 . S
C767 C784 1.574 . S
C767 C786 1.368 . S
C767 H791 0.949 . S
H768 C772 0.949 . S
C769 C770 1.349 . S
C769 C771 1.327 . S
C769 H792 0.950 . S
C770 C769 1.349 . S
C770 C782 1.349 . S
C771 C769 1.327 . S
C771 C787 1.429 . S
C771 H793 0.950 . S
C772 H768 0.949 . S
C772 C780 1.574 . S
C772 C788 1.368 . S
H773 C781 0.950 1_565 S
H774 C779 0.950 . S
H775 C780 0.949 . S
H776 C782 0.950 . S
H777 C783 0.950 . S
H778 C784 0.949 . S
C779 H774 0.950 . S
C779 C781 1.327 . S
C779 C785 1.429 . S
C780 C772 1.574 . S
C780 H775 0.949 . S
C780 C786 1.368 . S
C781 C765 1.349 . S
C781 H773 0.950 1_545 S
C781 C779 1.327 . S
C782 C770 1.349 . S
C782 H776 0.950 . S
C782 C783 1.327 . S
C783 H777 0.950 . S
C783 C782 1.327 . S
C783 C787 1.429 . S
C784 C767 1.574 . S
C784 H778 0.949 . S
C784 C788 1.368 . S
C785 C766 1.429 . S
C785 C779 1.429 . S
C785 C786 1.523 . S
C786 C767 1.368 . S
C786 C780 1.368 . S
C786 C785 1.523 . S
C787 C771 1.429 . S
C787 C783 1.429 . S
C787 C788 1.523 . S
C788 C772 1.368 . S
C788 C784 1.368 . S
C788 C787 1.523 . S
H789 C764 0.950 . S
H790 C766 0.950 . S
H791 C767 0.949 . S
H792 C769 0.950 . S
H793 C771 0.950 . S
C794 C795 1.349 . S
C794 C796 1.327 . S
C794 H819 0.950 1_545 S
C795 C794 1.349 . S
C795 C811 1.349 . S
C796 C794 1.327 . S
C796 C815 1.429 . S
C796 H820 0.950 . S
C797 C814 1.574 . S
C797 C816 1.368 . S
C797 H821 0.949 . S
H798 C802 0.949 . S
C799 C800 1.349 . S
C799 C801 1.327 . S
C799 H822 0.950 . S
C800 C799 1.349 . S
C800 C812 1.349 . S
C801 C799 1.327 . S
C801 C817 1.429 . S
C801 H823 0.950 . S
C802 H798 0.949 . S
C802 C810 1.574 . S
C802 C818 1.368 . S
H803 C811 0.950 . S
H804 C809 0.950 . S
H805 C810 0.949 . S
H806 C812 0.950 . S
H807 C813 0.950 . S
H808 C814 0.949 . S
C809 H804 0.950 . S
C809 C811 1.327 . S
C809 C815 1.429 . S
C810 C802 1.574 . S
C810 H805 0.949 . S
C810 C816 1.368 . S
C811 C795 1.349 . S
C811 H803 0.950 . S
C811 C809 1.327 . S
C812 C800 1.349 . S
C812 H806 0.950 . S
C812 C813 1.327 . S
C813 H807 0.950 . S
C813 C812 1.327 . S
C813 C817 1.429 . S
C814 C797 1.574 . S
C814 H808 0.949 . S
C814 C818 1.368 . S
C815 C796 1.429 . S
C815 C809 1.429 . S
C815 C816 1.523 . S
C816 C797 1.368 . S
C816 C810 1.368 . S
C816 C815 1.523 . S
C817 C801 1.429 . S
C817 C813 1.429 . S
C817 C818 1.523 . S
C818 C802 1.368 . S
C818 C814 1.368 . S
C818 C817 1.523 . S
H819 C794 0.950 1_565 S
H820 C796 0.950 . S
H821 C797 0.949 . S
H822 C799 0.950 . S
H823 C801 0.950 . S
C824 C825 1.349 . S
C824 C826 1.327 . S
C824 H849 0.950 . S
C825 C824 1.349 . S
C825 C841 1.349 . S
C826 C824 1.327 . S
C826 C845 1.429 . S
C826 H850 0.950 . S
C827 C844 1.574 . S
C827 C846 1.368 . S
C827 H851 0.949 . S
H828 C832 0.949 . S
C829 C830 1.349 . S
C829 C831 1.327 . S
C829 H852 0.950 . S
C830 C829 1.349 . S
C830 C842 1.349 . S
C831 C829 1.327 . S
C831 C847 1.429 . S
C831 H853 0.950 . S
C832 H828 0.949 . S
C832 C840 1.574 . S
C832 C848 1.368 . S
H833 C841 0.950 . S
H834 C839 0.950 . S
H835 C840 0.949 . S
H836 C842 0.950 . S
H837 C843 0.950 . S
H838 C844 0.949 . S
C839 H834 0.950 . S
C839 C841 1.327 . S
C839 C845 1.429 . S
C840 C832 1.574 . S
C840 H835 0.949 . S
C840 C846 1.368 . S
C841 C825 1.349 . S
C841 H833 0.950 . S
C841 C839 1.327 . S
C842 C830 1.349 . S
C842 H836 0.950 . S
C842 C843 1.327 . S
C843 H837 0.950 . S
C843 C842 1.327 . S
C843 C847 1.429 . S
C844 C827 1.574 . S
C844 H838 0.949 . S
C844 C848 1.368 . S
C845 C826 1.429 . S
C845 C839 1.429 . S
C845 C846 1.523 . S
C846 C827 1.368 . S
C846 C840 1.368 . S
C846 C845 1.523 . S
C847 C831 1.429 . S
C847 C843 1.429 . S
C847 C848 1.523 . S
C848 C832 1.368 . S
C848 C844 1.368 . S
C848 C847 1.523 . S
H849 C824 0.950 . S
H850 C826 0.950 . S
H851 C827 0.949 . S
H852 C829 0.950 . S
H853 C831 0.950 . S
C854 C855 1.349 . S
C854 C856 1.327 . S
C854 H879 0.950 1_545 S
C855 C854 1.349 . S
C855 C871 1.349 . S
C856 C854 1.327 . S
C856 C875 1.429 . S
C856 H880 0.950 . S
C857 C874 1.574 . S
C857 C876 1.368 . S
C857 H881 0.949 . S
H858 C862 0.949 . S
C859 C860 1.349 . S
C859 C861 1.327 . S
C859 H882 0.950 . S
C860 C859 1.349 . S
C860 C872 1.349 . S
C861 C859 1.327 . S
C861 C877 1.429 . S
C861 H883 0.950 . S
C862 H858 0.949 . S
C862 C870 1.574 . S
C862 C878 1.368 . S
H863 C871 0.950 . S
H864 C869 0.950 . S
H865 C870 0.949 . S
H866 C872 0.950 . S
H867 C873 0.950 . S
H868 C874 0.949 . S
C869 H864 0.950 . S
C869 C871 1.327 . S
C869 C875 1.429 . S
C870 C862 1.574 . S
C870 H865 0.949 . S
C870 C876 1.368 . S
C871 C855 1.349 . S
C871 H863 0.950 . S
C871 C869 1.327 . S
C872 C860 1.349 . S
C872 H866 0.950 . S
C872 C873 1.327 . S
C873 H867 0.950 . S
C873 C872 1.327 . S
C873 C877 1.429 . S
C874 C857 1.574 . S
C874 H868 0.949 . S
C874 C878 1.368 . S
C875 C856 1.429 . S
C875 C869 1.429 . S
C875 C876 1.523 . S
C876 C857 1.368 . S
C876 C870 1.368 . S
C876 C875 1.523 . S
C877 C861 1.429 . S
C877 C873 1.429 . S
C877 C878 1.523 . S
C878 C862 1.368 . S
C878 C874 1.368 . S
C878 C877 1.523 . S
H879 C854 0.950 1_565 S
H880 C856 0.950 . S
H881 C857 0.949 . S
H882 C859 0.950 . S
H883 C861 0.950 . S
C884 C885 1.349 . S
C884 C886 1.327 . S
C884 H909 0.950 . S
C885 C884 1.349 . S
C885 C901 1.349 . S
C886 C884 1.327 . S
C886 C905 1.429 . S
C886 H910 0.950 . S
C887 C904 1.574 . S
C887 C906 1.368 . S
C887 H911 0.949 . S
H888 C892 0.949 . S
C889 C890 1.349 . S
C889 C891 1.327 . S
C889 H912 0.950 . S
C890 C889 1.349 . S
C890 C902 1.349 . S
C891 C889 1.327 . S
C891 C907 1.429 . S
C891 H913 0.950 . S
C892 H888 0.949 . S
C892 C900 1.574 . S
C892 C908 1.368 . S
H893 C901 0.950 . S
H894 C899 0.950 . S
H895 C900 0.949 . S
H896 C902 0.950 . S
H897 C903 0.950 . S
H898 C904 0.949 . S
C899 H894 0.950 . S
C899 C901 1.327 . S
C899 C905 1.429 . S
C900 C892 1.574 . S
C900 H895 0.949 . S
C900 C906 1.368 . S
C901 C885 1.349 . S
C901 H893 0.950 . S
C901 C899 1.327 . S
C902 C890 1.349 . S
C902 H896 0.950 . S
C902 C903 1.327 . S
C903 H897 0.950 . S
C903 C902 1.327 . S
C903 C907 1.429 . S
C904 C887 1.574 . S
C904 H898 0.949 . S
C904 C908 1.368 . S
C905 C886 1.429 . S
C905 C899 1.429 . S
C905 C906 1.523 . S
C906 C887 1.368 . S
C906 C900 1.368 . S
C906 C905 1.523 . S
C907 C891 1.429 . S
C907 C903 1.429 . S
C907 C908 1.523 . S
C908 C892 1.368 . S
C908 C904 1.368 . S
C908 C907 1.523 . S
H909 C884 0.950 . S
H910 C886 0.950 . S
H911 C887 0.949 . S
H912 C889 0.950 . S
H913 C891 0.950 . S
C914 C915 1.349 . S
C914 C916 1.327 . S
C914 H939 0.950 . S
C915 C914 1.349 . S
C915 C931 1.349 . S
C916 C914 1.327 . S
C916 C935 1.429 . S
C916 H940 0.950 . S
C917 C934 1.574 . S
C917 C936 1.368 . S
C917 H941 0.949 . S
H918 C922 0.949 . S
C919 C920 1.349 . S
C919 C921 1.327 . S
C919 H942 0.950 . S
C920 C919 1.349 . S
C920 C932 1.349 . S
C921 C919 1.327 . S
C921 C937 1.429 . S
C921 H943 0.950 . S
C922 H918 0.949 . S
C922 C930 1.574 . S
C922 C938 1.368 . S
H923 C931 0.950 . S
H924 C929 0.950 . S
H925 C930 0.949 . S
H926 C932 0.950 . S
H927 C933 0.950 . S
H928 C934 0.949 . S
C929 H924 0.950 . S
C929 C931 1.327 . S
C929 C935 1.429 . S
C930 C922 1.574 . S
C930 H925 0.949 . S
C930 C936 1.368 . S
C931 C915 1.349 . S
C931 H923 0.950 . S
C931 C929 1.327 . S
C932 C920 1.349 . S
C932 H926 0.950 . S
C932 C933 1.327 . S
C933 H927 0.950 . S
C933 C932 1.327 . S
C933 C937 1.429 . S
C934 C917 1.574 . S
C934 H928 0.949 . S
C934 C938 1.368 . S
C935 C916 1.429 . S
C935 C929 1.429 . S
C935 C936 1.523 . S
C936 C917 1.368 . S
C936 C930 1.368 . S
C936 C935 1.523 . S
C937 C921 1.429 . S
C937 C933 1.429 . S
C937 C938 1.523 . S
C938 C922 1.368 . S
C938 C934 1.368 . S
C938 C937 1.523 . S
H939 C914 0.950 . S
H940 C916 0.950 . S
H941 C917 0.949 . S
H942 C919 0.950 . S
H943 C921 0.950 . S
C944 C945 1.349 . S
C944 C946 1.327 . S
C944 H969 0.950 . S
C945 C944 1.349 . S
C945 C961 1.349 . S
C946 C944 1.327 . S
C946 C965 1.429 . S
C946 H970 0.950 . S
C947 C964 1.574 . S
C947 C966 1.368 . S
C947 H971 0.949 . S
H948 C952 0.949 . S
C949 C950 1.349 . S
C949 C951 1.327 . S
C949 H972 0.950 . S
C950 C949 1.349 . S
C950 C962 1.349 . S
C951 C949 1.327 . S
C951 C967 1.429 . S
C951 H973 0.950 . S
C952 H948 0.949 . S
C952 C960 1.574 . S
C952 C968 1.368 . S
H953 C961 0.950 . S
H954 C959 0.950 . S
H955 C960 0.949 . S
H956 C962 0.950 . S
H957 C963 0.950 . S
H958 C964 0.949 . S
C959 H954 0.950 . S
C959 C961 1.327 . S
C959 C965 1.429 . S
C960 C952 1.574 . S
C960 H955 0.949 . S
C960 C966 1.368 . S
C961 C945 1.349 . S
C961 H953 0.950 . S
C961 C959 1.327 . S
C962 C950 1.349 . S
C962 H956 0.950 . S
C962 C963 1.327 . S
C963 H957 0.950 . S
C963 C962 1.327 . S
C963 C967 1.429 . S
C964 C947 1.574 . S
C964 H958 0.949 . S
C964 C968 1.368 . S
C965 C946 1.429 . S
C965 C959 1.429 . S
C965 C966 1.523 . S
C966 C947 1.368 . S
C966 C960 1.368 . S
C966 C965 1.523 . S
C967 C951 1.429 . S
C967 C963 1.429 . S
C967 C968 1.523 . S
C968 C952 1.368 . S
C968 C964 1.368 . S
C968 C967 1.523 . S
H969 C944 0.950 . S
H970 C946 0.950 . S
H971 C947 0.949 . S
H972 C949 0.950 . S
H973 C951 0.950 . S
C974 C975 1.349 . S
C974 C976 1.327 . S
C974 H999 0.950 . S
C975 C974 1.349 . S
C975 C991 1.349 . S
C976 C974 1.327 . S
C976 C995 1.429 . S
C976 H1000 0.950 . S
C977 C994 1.574 . S
C977 C996 1.368 . S
C977 H1001 0.949 . S
H978 C982 0.949 . S
C979 C980 1.349 . S
C979 C981 1.327 . S
C979 H1002 0.950 . S
C980 C979 1.349 . S
C980 C992 1.349 . S
C981 C979 1.327 . S
C981 C997 1.429 . S
C981 H1003 0.950 . S
C982 H978 0.949 . S
C982 C990 1.574 . S
C982 C998 1.368 . S
H983 C991 0.950 . S
H984 C989 0.950 . S
H985 C990 0.949 . S
H986 C992 0.950 . S
H987 C993 0.950 . S
H988 C994 0.949 . S
C989 H984 0.950 . S
C989 C991 1.327 . S
C989 C995 1.429 . S
C990 C982 1.574 . S
C990 H985 0.949 . S
C990 C996 1.368 . S
C991 C975 1.349 . S
C991 H983 0.950 . S
C991 C989 1.327 . S
C992 C980 1.349 . S
C992 H986 0.950 . S
C992 C993 1.327 . S
C993 H987 0.950 . S
C993 C992 1.327 . S
C993 C997 1.429 . S
C994 C977 1.574 . S
C994 H988 0.949 . S
C994 C998 1.368 . S
C995 C976 1.429 . S
C995 C989 1.429 . S
C995 C996 1.523 . S
C996 C977 1.368 . S
C996 C990 1.368 . S
C996 C995 1.523 . S
C997 C981 1.429 . S
C997 C993 1.429 . S
C997 C998 1.523 . S
C998 C982 1.368 . S
C998 C994 1.368 . S
C998 C997 1.523 . S
H999 C974 0.950 . S
H1000 C976 0.950 . S
H1001 C977 0.949 . S
H1002 C979 0.950 . S
H1003 C981 0.950 . S
C1004 C1005 1.349 . S
C1004 C1006 1.327 . S
C1004 H1029 0.950 . S
C1005 C1004 1.349 . S
C1005 C1021 1.349 . S
C1006 C1004 1.327 . S
C1006 C1025 1.429 . S
C1006 H1030 0.950 . S
C1007 C1024 1.574 . S
C1007 C1026 1.368 . S
C1007 H1031 0.949 . S
H1008 C1012 0.949 . S
C1009 C1010 1.349 . S
C1009 C1011 1.327 . S
C1009 H1032 0.950 . S
C1010 C1009 1.349 . S
C1010 C1022 1.349 . S
C1011 C1009 1.327 . S
C1011 C1027 1.429 . S
C1011 H1033 0.950 . S
C1012 H1008 0.949 . S
C1012 C1020 1.574 . S
C1012 C1028 1.368 . S
H1013 C1021 0.950 . S
H1014 C1019 0.950 . S
H1015 C1020 0.949 . S
H1016 C1022 0.950 . S
H1017 C1023 0.950 . S
H1018 C1024 0.949 . S
C1019 H1014 0.950 . S
C1019 C1021 1.327 . S
C1019 C1025 1.429 . S
C1020 C1012 1.574 . S
C1020 H1015 0.949 . S
C1020 C1026 1.368 . S
C1021 C1005 1.349 . S
C1021 H1013 0.950 . S
C1021 C1019 1.327 . S
C1022 C1010 1.349 . S
C1022 H1016 0.950 . S
C1022 C1023 1.327 . S
C1023 H1017 0.950 . S
C1023 C1022 1.327 . S
C1023 C1027 1.429 . S
C1024 C1007 1.574 . S
C1024 H1018 0.949 . S
C1024 C1028 1.368 . S
C1025 C1006 1.429 . S
C1025 C1019 1.429 . S
C1025 C1026 1.523 . S
C1026 C1007 1.368 . S
C1026 C1020 1.368 . S
C1026 C1025 1.523 . S
C1027 C1011 1.429 . S
C1027 C1023 1.429 . S
C1027 C1028 1.523 . S
C1028 C1012 1.368 . S
C1028 C1024 1.368 . S
C1028 C1027 1.523 . S
H1029 C1004 0.950 . S
H1030 C1006 0.950 . S
H1031 C1007 0.949 . S
H1032 C1009 0.950 . S
H1033 C1011 0.950 . S
C1034 C1035 1.349 . S
C1034 C1036 1.327 . S
C1034 H1059 0.950 . S
C1035 C1034 1.349 . S
C1035 C1051 1.349 . S
C1036 C1034 1.327 . S
C1036 C1055 1.429 . S
C1036 H1060 0.950 . S
C1037 C1054 1.574 . S
C1037 C1056 1.368 . S
C1037 H1061 0.949 . S
H1038 C1042 0.949 . S
C1039 C1040 1.349 . S
C1039 C1041 1.327 . S
C1039 H1062 0.950 . S
C1040 C1039 1.349 . S
C1040 C1052 1.349 . S
C1041 C1039 1.327 . S
C1041 C1057 1.429 . S
C1041 H1063 0.950 . S
C1042 H1038 0.949 . S
C1042 C1050 1.574 . S
C1042 C1058 1.368 . S
H1043 C1051 0.950 . S
H1044 C1049 0.950 . S
H1045 C1050 0.949 . S
H1046 C1052 0.950 . S
H1047 C1053 0.950 . S
H1048 C1054 0.949 . S
C1049 H1044 0.950 . S
C1049 C1051 1.327 . S
C1049 C1055 1.429 . S
C1050 C1042 1.574 . S
C1050 H1045 0.949 . S
C1050 C1056 1.368 . S
C1051 C1035 1.349 . S
C1051 H1043 0.950 . S
C1051 C1049 1.327 . S
C1052 C1040 1.349 . S
C1052 H1046 0.950 . S
C1052 C1053 1.327 . S
C1053 H1047 0.950 . S
C1053 C1052 1.327 . S
C1053 C1057 1.429 . S
C1054 C1037 1.574 . S
C1054 H1048 0.949 . S
C1054 C1058 1.368 . S
C1055 C1036 1.429 . S
C1055 C1049 1.429 . S
C1055 C1056 1.523 . S
C1056 C1037 1.368 . S
C1056 C1050 1.368 . S
C1056 C1055 1.523 . S
C1057 C1041 1.429 . S
C1057 C1053 1.429 . S
C1057 C1058 1.523 . S
C1058 C1042 1.368 . S
C1058 C1054 1.368 . S
C1058 C1057 1.523 . S
H1059 C1034 0.950 . S
H1060 C1036 0.950 . S
H1061 C1037 0.949 . S
H1062 C1039 0.950 . S
H1063 C1041 0.950 . S
C1064 C1065 1.349 . S
C1064 C1066 1.327 . S
C1064 H1089 0.950 . S
C1065 C1064 1.349 . S
C1065 C1081 1.349 . S
C1066 C1064 1.327 . S
C1066 C1085 1.429 . S
C1066 H1090 0.950 . S
C1067 C1084 1.574 . S
C1067 C1086 1.368 . S
C1067 H1091 0.949 . S
H1068 C1072 0.949 . S
C1069 C1070 1.349 . S
C1069 C1071 1.327 . S
C1069 H1092 0.950 . S
C1070 C1069 1.349 . S
C1070 C1082 1.349 . S
C1071 C1069 1.327 . S
C1071 C1087 1.429 . S
C1071 H1093 0.950 . S
C1072 H1068 0.949 . S
C1072 C1080 1.574 . S
C1072 C1088 1.368 . S
H1073 C1081 0.950 . S
H1074 C1079 0.950 . S
H1075 C1080 0.949 . S
H1076 C1082 0.950 . S
H1077 C1083 0.950 . S
H1078 C1084 0.949 . S
C1079 H1074 0.950 . S
C1079 C1081 1.327 . S
C1079 C1085 1.429 . S
C1080 C1072 1.574 . S
C1080 H1075 0.949 . S
C1080 C1086 1.368 . S
C1081 C1065 1.349 . S
C1081 H1073 0.950 . S
C1081 C1079 1.327 . S
C1082 C1070 1.349 . S
C1082 H1076 0.950 . S
C1082 C1083 1.327 . S
C1083 H1077 0.950 . S
C1083 C1082 1.327 . S
C1083 C1087 1.429 . S
C1084 C1067 1.574 . S
C1084 H1078 0.949 . S
C1084 C1088 1.368 . S
C1085 C1066 1.429 . S
C1085 C1079 1.429 . S
C1085 C1086 1.523 . S
C1086 C1067 1.368 . S
C1086 C1080 1.368 . S
C1086 C1085 1.523 . S
C1087 C1071 1.429 . S
C1087 C1083 1.429 . S
C1087 C1088 1.523 . S
C1088 C1072 1.368 . S
C1088 C1084 1.368 . S
C1088 C1087 1.523 . S
H1089 C1064 0.950 . S
H1090 C1066 0.950 . S
H1091 C1067 0.949 . S
H1092 C1069 0.950 . S
H1093 C1071 0.950 . S
C1094 C1095 1.349 . S
C1094 C1096 1.327 . S
C1094 H1119 0.950 . S
C1095 C1094 1.349 . S
C1095 C1111 1.349 . S
C1096 C1094 1.327 . S
C1096 C1115 1.429 . S
C1096 H1120 0.950 . S
C1097 C1114 1.574 . S
C1097 C1116 1.368 . S
C1097 H1121 0.949 . S
H1098 C1102 0.949 . S
C1099 C1100 1.349 . S
C1099 C1101 1.327 . S
C1099 H1122 0.950 . S
C1100 C1099 1.349 . S
C1100 C1112 1.349 . S
C1101 C1099 1.327 . S
C1101 C1117 1.429 . S
C1101 H1123 0.950 . S
C1102 H1098 0.949 . S
C1102 C1110 1.574 . S
C1102 C1118 1.368 . S
H1103 C1111 0.950 . S
H1104 C1109 0.950 . S
H1105 C1110 0.949 . S
H1106 C1112 0.950 . S
H1107 C1113 0.950 . S
H1108 C1114 0.949 . S
C1109 H1104 0.950 . S
C1109 C1111 1.327 . S
C1109 C1115 1.429 . S
C1110 C1102 1.574 . S
C1110 H1105 0.949 . S
C1110 C1116 1.368 . S
C1111 C1095 1.349 . S
C1111 H1103 0.950 . S
C1111 C1109 1.327 . S
C1112 C1100 1.349 . S
C1112 H1106 0.950 . S
C1112 C1113 1.327 . S
C1113 H1107 0.950 . S
C1113 C1112 1.327 . S
C1113 C1117 1.429 . S
C1114 C1097 1.574 . S
C1114 H1108 0.949 . S
C1114 C1118 1.368 . S
C1115 C1096 1.429 . S
C1115 C1109 1.429 . S
C1115 C1116 1.523 . S
C1116 C1097 1.368 . S
C1116 C1110 1.368 . S
C1116 C1115 1.523 . S
C1117 C1101 1.429 . S
C1117 C1113 1.429 . S
C1117 C1118 1.523 . S
C1118 C1102 1.368 . S
C1118 C1114 1.368 . S
C1118 C1117 1.523 . S
H1119 C1094 0.950 . S
H1120 C1096 0.950 . S
H1121 C1097 0.949 . S
H1122 C1099 0.950 . S
H1123 C1101 0.950 . S
C1124 C1125 1.349 . S
C1124 C1126 1.327 . S
C1124 H1149 0.950 . S
C1125 C1124 1.349 . S
C1125 C1141 1.349 . S
C1126 C1124 1.327 . S
C1126 C1145 1.429 . S
C1126 H1150 0.950 . S
C1127 C1144 1.574 . S
C1127 C1146 1.368 . S
C1127 H1151 0.949 . S
H1128 C1132 0.949 . S
C1129 C1130 1.349 . S
C1129 C1131 1.327 . S
C1129 H1152 0.950 . S
C1130 C1129 1.349 . S
C1130 C1142 1.349 . S
C1131 C1129 1.327 . S
C1131 C1147 1.429 . S
C1131 H1153 0.950 . S
C1132 H1128 0.949 . S
C1132 C1140 1.574 . S
C1132 C1148 1.368 . S
H1133 C1141 0.950 . S
H1134 C1139 0.950 . S
H1135 C1140 0.949 . S
H1136 C1142 0.950 . S
H1137 C1143 0.950 . S
H1138 C1144 0.949 . S
C1139 H1134 0.950 . S
C1139 C1141 1.327 . S
C1139 C1145 1.429 . S
C1140 C1132 1.574 . S
C1140 H1135 0.949 . S
C1140 C1146 1.368 . S
C1141 C1125 1.349 . S
C1141 H1133 0.950 . S
C1141 C1139 1.327 . S
C1142 C1130 1.349 . S
C1142 H1136 0.950 . S
C1142 C1143 1.327 . S
C1143 H1137 0.950 . S
C1143 C1142 1.327 . S
C1143 C1147 1.429 . S
C1144 C1127 1.574 . S
C1144 H1138 0.949 . S
C1144 C1148 1.368 . S
C1145 C1126 1.429 . S
C1145 C1139 1.429 . S
C1145 C1146 1.523 . S
C1146 C1127 1.368 . S
C1146 C1140 1.368 . S
C1146 C1145 1.523 . S
C1147 C1131 1.429 . S
C1147 C1143 1.429 . S
C1147 C1148 1.523 . S
C1148 C1132 1.368 . S
C1148 C1144 1.368 . S
C1148 C1147 1.523 . S
H1149 C1124 0.950 . S
H1150 C1126 0.950 . S
H1151 C1127 0.949 . S
H1152 C1129 0.950 . S
H1153 C1131 0.950 . S
C1154 C1155 1.349 . S
C1154 C1156 1.327 . S
C1154 H1179 0.950 . S
C1155 C1154 1.349 . S
C1155 C1171 1.349 . S
C1156 C1154 1.327 . S
C1156 C1175 1.429 . S
C1156 H1180 0.950 . S
C1157 C1174 1.574 . S
C1157 C1176 1.368 . S
C1157 H1181 0.949 . S
H1158 C1162 0.949 . S
C1159 C1160 1.349 . S
C1159 C1161 1.327 . S
C1159 H1182 0.950 . S
C1160 C1159 1.349 . S
C1160 C1172 1.349 . S
C1161 C1159 1.327 . S
C1161 C1177 1.429 . S
C1161 H1183 0.950 . S
C1162 H1158 0.949 . S
C1162 C1170 1.574 . S
C1162 C1178 1.368 . S
H1163 C1171 0.950 . S
H1164 C1169 0.950 . S
H1165 C1170 0.949 . S
H1166 C1172 0.950 . S
H1167 C1173 0.950 . S
H1168 C1174 0.949 . S
C1169 H1164 0.950 . S
C1169 C1171 1.327 . S
C1169 C1175 1.429 . S
C1170 C1162 1.574 . S
C1170 H1165 0.949 . S
C1170 C1176 1.368 . S
C1171 C1155 1.349 . S
C1171 H1163 0.950 . S
C1171 C1169 1.327 . S
C1172 C1160 1.349 . S
C1172 H1166 0.950 . S
C1172 C1173 1.327 . S
C1173 H1167 0.950 . S
C1173 C1172 1.327 . S
C1173 C1177 1.429 . S
C1174 C1157 1.574 . S
C1174 H1168 0.949 . S
C1174 C1178 1.368 . S
C1175 C1156 1.429 . S
C1175 C1169 1.429 . S
C1175 C1176 1.523 . S
C1176 C1157 1.368 . S
C1176 C1170 1.368 . S
C1176 C1175 1.523 . S
C1177 C1161 1.429 . S
C1177 C1173 1.429 . S
C1177 C1178 1.523 . S
C1178 C1162 1.368 . S
C1178 C1174 1.368 . S
C1178 C1177 1.523 . S
H1179 C1154 0.950 . S
H1180 C1156 0.950 . S
H1181 C1157 0.949 . S
H1182 C1159 0.950 . S
H1183 C1161 0.950 . S
C225 C11 0.918 . S
C230 C193 0.918 . S
C255 C165 0.919 . S
C260 C25 0.919 . S
C285 C179 0.918 . S
C290 C39 0.918 . S
C315 C151 0.919 . S
C320 C53 0.919 . S
C345 C67 0.918 . S
C350 C221 0.918 . S
C375 C81 0.919 . S
C380 C137 0.919 . S
C405 C207 0.918 . S
C410 C95 0.918 . S
C435 C109 0.919 . S
C440 C123 0.919 . S
C465 C69 1.510 . S
C470 C13 1.510 . S
C495 C27 1.510 . S
C500 C83 1.510 . S
C525 C41 1.510 . S
C530 C97 1.510 . S
C555 C111 1.510 . S
C560 C55 1.510 . S
C585 C125 1.510 . S
C590 C153 1.510 . S
C615 C139 1.510 . S
C620 C167 1.510 . S
C645 C209 1.510 . S
C650 C181 1.510 . S
C675 C195 1.510 . S
C680 C223 1.510 . S
C705 C77 1.301 . S
C710 C7 1.301 . S
C735 C21 1.301 . S
C740 C91 1.301 . S
C765 C35 1.301 . S
C770 C105 1.301 . S
C795 C63 1.301 . S
C800 C49 1.301 . S
C825 C64 1.209 . S
C830 C148 1.199 . S
C855 C36 1.209 . S
C860 C120 1.199 . S
C885 C162 1.199 . S
C890 C92 1.209 . S
C915 C134 1.199 . S
C920 C8 1.209 . S
C945 C119 1.301 . S
C950 C175 1.301 . S
C975 C147 1.301 . S
C980 C217 1.301 . S
C1005 C189 1.301 . S
C1010 C133 1.301 . S
C1035 C161 1.301 . S
C1040 C203 1.301 . S
C1065 C204 1.199 . S
C1070 C22 1.199 . S
C1095 C190 1.199 . S
C1100 C78 1.199 . S
C1125 C218 1.199 . S
C1130 C50 1.199 . S
C1155 C176 1.199 . S
C1160 C106 1.199 . S
