# Generated by pormake.
# Topology pts-e, (5)-cn, num edge types: 1
# Building blocks:
#     Node 0, Type 0, BuildingBlock: XOMCOT_clean_sbu_1, # of connection points: 5
#     Node 1, Type 0, BuildingBlock: XOMCOT_clean_sbu_1, # of connection points: 5
#     Node 2, Type 0, BuildingBlock: XOMCOT_clean_sbu_1, # of connection points: 5
#     Node 3, Type 0, BuildingBlock: XOMCOT_clean_sbu_1, # of connection points: 5
#     Node 4, Type 0, BuildingBlock: XOMCOT_clean_sbu_1, # of connection points: 5
#     Node 5, Type 0, BuildingBlock: XOMCOT_clean_sbu_1, # of connection points: 5
#     Node 6, Type 0, BuildingBlock: XOMCOT_clean_sbu_1, # of connection points: 5
#     Node 7, Type 0, BuildingBlock: XOMCOT_clean_sbu_1, # of connection points: 5
#     Edge 8, Type (0, 0), BuildingBlock: EZIPEK_clean_linker_0, # of connection points: 2
#     Edge 9, Type (0, 0), BuildingBlock: EZIPEK_clean_linker_0, # of connection points: 2
#     Edge 10, Type (0, 0), BuildingBlock: EZIPEK_clean_linker_0, # of connection points: 2
#     Edge 11, Type (0, 0), BuildingBlock: EZIPEK_clean_linker_0, # of connection points: 2
#     Edge 12, Type (0, 0), BuildingBlock: EZIPEK_clean_linker_0, # of connection points: 2
#     Edge 13, Type (0, 0), BuildingBlock: EZIPEK_clean_linker_0, # of connection points: 2
#     Edge 14, Type (0, 0), BuildingBlock: EZIPEK_clean_linker_0, # of connection points: 2
#     Edge 15, Type (0, 0), BuildingBlock: EZIPEK_clean_linker_0, # of connection points: 2
#     Edge 16, Type (0, 0), BuildingBlock: EZIPEK_clean_linker_0, # of connection points: 2
#     Edge 17, Type (0, 0), BuildingBlock: EZIPEK_clean_linker_0, # of connection points: 2
#     Edge 18, Type (0, 0), BuildingBlock: EZIPEK_clean_linker_0, # of connection points: 2
#     Edge 19, Type (0, 0), BuildingBlock: EZIPEK_clean_linker_0, # of connection points: 2
#     Edge 20, Type (0, 0), BuildingBlock: EZIPEK_clean_linker_0, # of connection points: 2
#     Edge 21, Type (0, 0), BuildingBlock: EZIPEK_clean_linker_0, # of connection points: 2
#     Edge 22, Type (0, 0), BuildingBlock: EZIPEK_clean_linker_0, # of connection points: 2
#     Edge 23, Type (0, 0), BuildingBlock: EZIPEK_clean_linker_0, # of connection points: 2
#     Edge 24, Type (0, 0), BuildingBlock: EZIPEK_clean_linker_0, # of connection points: 2
#     Edge 25, Type (0, 0), BuildingBlock: EZIPEK_clean_linker_0, # of connection points: 2
#     Edge 26, Type (0, 0), BuildingBlock: EZIPEK_clean_linker_0, # of connection points: 2
#     Edge 27, Type (0, 0), BuildingBlock: EZIPEK_clean_linker_0, # of connection points: 2
# Relax obj value: 0.523
# Max RMSD: 0.254
# Mean RMSD: 0.254
data_MOF--net-pts-e--node1-XOMCOT_clean_sbu_1--edge1-EZIPEK_clean_linker_0
_symmetry_space_group_name_H-M    P1
_symmetry_Int_Tables_number       1
_symmetry_cell_setting            triclinic
loop_
_symmetry_equiv_pos_as_xyz
'x, y, z'
_cell_length_a     26.456265
_cell_length_b     26.479762
_cell_length_c     35.575385
_cell_angle_alpha  89.926628
_cell_angle_beta   89.954961
_cell_angle_gamma 90.208435
loop_
_atom_site_label
_atom_site_type_symbol
_atom_site_fract_x
_atom_site_fract_y
_atom_site_fract_z
_atom_type_partial_charge
C0 C 0.18435 0.06505 0.18042 0.0
C1 C 0.13284 0.06404 0.17491 0.0
N2 N 0.12053 0.01925 0.15953 0.0
N3 N 0.20412 0.0205 0.16949 0.0
C4 C 0.16432 0.99404 0.15604 0.0
H5 H 0.20563 0.09595 0.1922 0.0
Co6 Co 0.26976 0.99452 0.17261 0.0
C7 C 0.24191 0.91371 0.23313 0.0
O8 O 0.2787 0.92616 0.25614 0.0
N9 N 0.33551 0.96811 0.17436 0.0
C10 C 0.40834 0.92997 0.1874 0.0
C11 C 0.35659 0.92804 0.19184 0.0
C12 C 0.37489 0.99147 0.15738 0.0
N13 N 0.41948 0.97047 0.16612 0.0
O14 O 0.26072 0.96394 0.12426 0.0
H15 H 0.33649 0.89913 0.207 0.0
H16 H 0.3715 0.02476 0.13996 0.0
O17 O 0.23824 0.93563 0.20089 0.0
C18 C 0.2692 0.00093 0.10175 0.0
O19 O 0.28008 0.04548 0.11586 0.0
N20 N 0.28244 0.03334 0.21604 0.0
C21 C 0.27593 0.12368 0.25459 0.0
C22 C 0.25014 0.08079 0.26771 0.0
C23 C 0.25468 0.03543 0.2483 0.0
C24 C 0.31319 0.07307 0.2067 0.0
C25 C 0.31267 0.11783 0.22704 0.0
H26 H 0.23073 0.00523 0.25684 0.0
H27 H 0.3328 0.07371 0.18034 0.0
H28 H 0.16729 0.95647 0.14431 0.0
H29 H 0.10639 0.09382 0.18159 0.0
H30 H 0.43574 0.90446 0.19955 0.0
H31 H 0.22236 0.08362 0.29002 0.0
H32 H 0.33461 0.14989 0.21725 0.0
C33 C 0.9189 0.14827 0.69171 0.0
C34 C 0.92395 0.09717 0.68494 0.0
N35 N 0.96957 0.08935 0.66921 0.0
N36 N 0.96167 0.17226 0.68092 0.0
C37 C 0.99124 0.13528 0.66662 0.0
H38 H 0.88655 0.16638 0.70439 0.0
Co39 Co 0.98236 0.24012 0.68565 0.0
C40 C 0.04943 0.18014 0.74025 0.0
O41 O 0.01326 0.14712 0.74622 0.0
N42 N 0.00459 0.30747 0.69033 0.0
C43 C 0.0228 0.37881 0.72019 0.0
C44 C 0.02365 0.32709 0.72234 0.0
C45 C 0.99384 0.34815 0.66863 0.0
N46 N 0.00362 0.39213 0.68658 0.0
O47 O 0.01824 0.23403 0.63852 0.0
H48 H 0.0332 0.3054 0.74709 0.0
H49 H 0.97484 0.34575 0.64177 0.0
O50 O 0.04205 0.21757 0.71763 0.0
C51 C 0.98284 0.24054 0.61424 0.0
O52 O 0.93684 0.24944 0.62642 0.0
N53 N 0.938 0.25107 0.72665 0.0
C54 C 0.85583 0.27932 0.77145 0.0
C55 C 0.88999 0.24189 0.78339 0.0
C56 C 0.93182 0.22958 0.76121 0.0
C57 C 0.90444 0.28683 0.71482 0.0
C58 C 0.86613 0.30459 0.73799 0.0
H59 H 0.95667 0.20133 0.77154 0.0
H60 H 0.90713 0.30165 0.6867 0.0
H61 H 0.02894 0.14155 0.6557 0.0
H62 H 0.89648 0.06795 0.69122 0.0
H63 H 0.03282 0.40482 0.74246 0.0
H64 H 0.88394 0.22151 0.80946 0.0
H65 H 0.84309 0.33589 0.72864 0.0
C66 C 0.83958 0.93444 0.14223 0.0
C67 C 0.89033 0.92666 0.13646 0.0
N68 N 0.91348 0.97203 0.1366 0.0
N69 N 0.83116 0.9844 0.1463 0.0
C70 C 0.87666 0.00636 0.14122 0.0
H71 H 0.81073 0.90555 0.144 0.0
Co72 Co 0.76877 0.01442 0.15421 0.0
C73 C 0.83739 0.07552 0.21144 0.0
O74 O 0.87448 0.04286 0.21249 0.0
N75 N 0.70515 0.04372 0.1614 0.0
C76 C 0.63529 0.05481 0.19462 0.0
C77 C 0.68706 0.05656 0.19551 0.0
C78 C 0.66359 0.03763 0.13964 0.0
N79 N 0.62038 0.04162 0.15973 0.0
O80 O 0.7791 0.05312 0.10832 0.0
H81 H 0.70975 0.06015 0.22065 0.0
H82 H 0.66506 0.02563 0.11067 0.0
O83 O 0.79861 0.06811 0.18988 0.0
C84 C 0.76671 0.0215 0.08236 0.0
O85 O 0.74884 0.97715 0.09246 0.0
N86 N 0.7554 0.96876 0.19373 0.0
C87 C 0.74852 0.87297 0.22453 0.0
C88 C 0.78595 0.90667 0.23676 0.0
C89 C 0.78862 0.95476 0.22105 0.0
C90 C 0.71551 0.93796 0.18509 0.0
C91 C 0.71028 0.89037 0.20116 0.0
H92 H 0.82135 0.97676 0.2271 0.0
H93 H 0.69121 0.94714 0.16209 0.0
H94 H 0.88306 0.04674 0.14196 0.0
H95 H 0.90922 0.89056 0.13444 0.0
H96 H 0.61047 0.05871 0.21866 0.0
H97 H 0.81614 0.89408 0.25507 0.0
H98 H 0.68076 0.86513 0.19142 0.0
C99 C 0.07279 0.81643 0.64301 0.0
C100 C 0.08024 0.86751 0.63789 0.0
N101 N 0.03453 0.88972 0.63709 0.0
N102 N 0.02272 0.80708 0.64565 0.0
C103 C 0.00054 0.85212 0.64027 0.0
H104 H 0.10186 0.78822 0.64604 0.0
Co105 Co 0.99022 0.74631 0.65589 0.0
C106 C 0.91978 0.78407 0.71984 0.0
O107 O 0.93753 0.74948 0.74278 0.0
N108 N 0.95794 0.68356 0.66449 0.0
C109 C 0.91096 0.61947 0.68553 0.0
C110 C 0.91487 0.67121 0.6828 0.0
C111 C 0.9769 0.63849 0.65354 0.0
N112 N 0.95051 0.59903 0.66743 0.0
O113 O 0.95565 0.75259 0.60875 0.0
H114 H 0.88769 0.69753 0.69362 0.0
H115 H 0.01068 0.63425 0.63674 0.0
O116 O 0.93569 0.78518 0.6854 0.0
C117 C 0.98871 0.73835 0.58461 0.0
O118 O 0.03217 0.72095 0.59677 0.0
N119 N 0.03191 0.73805 0.69842 0.0
C120 C 0.124 0.74486 0.73536 0.0
C121 C 0.08556 0.77939 0.74306 0.0
C122 C 0.03982 0.77548 0.72416 0.0
C123 C 0.06789 0.7017 0.69341 0.0
C124 C 0.11368 0.70335 0.71265 0.0
H125 H 0.01446 0.80658 0.72664 0.0
H126 H 0.06507 0.67544 0.67062 0.0
H127 H 0.96007 0.85785 0.64093 0.0
H128 H 0.11616 0.88722 0.6377 0.0
H129 H 0.88196 0.59844 0.70036 0.0
H130 H 0.09272 0.81227 0.76044 0.0
H131 H 0.14301 0.67633 0.70601 0.0
C132 C 0.19617 0.93167 0.89183 0.0
C133 C 0.14591 0.91924 0.89607 0.0
N134 N 0.1187 0.96043 0.88758 0.0
N135 N 0.20024 0.9804 0.88087 0.0
C136 C 0.15218 0.99694 0.87882 0.0
H137 H 0.22774 0.90637 0.89552 0.0
Co138 Co 0.26096 0.0132 0.86916 0.0
C139 C 0.2221 0.08973 0.81167 0.0
O140 O 0.25287 0.06987 0.78675 0.0
N141 N 0.32386 0.04491 0.85922 0.0
C142 C 0.38869 0.09286 0.84043 0.0
C143 C 0.3368 0.08933 0.84291 0.0
C144 C 0.36879 0.02431 0.86889 0.0
N145 N 0.40848 0.05149 0.85646 0.0
O146 O 0.25999 0.04397 0.91769 0.0
H147 H 0.31096 0.11792 0.83335 0.0
H148 H 0.37278 0.98892 0.88376 0.0
O149 O 0.22221 0.07084 0.84507 0.0
C150 C 0.27676 0.00989 0.93994 0.0
O151 O 0.294 0.96782 0.92527 0.0
N152 N 0.26362 0.97583 0.82429 0.0
C153 C 0.25208 0.88744 0.78359 0.0
C154 C 0.21531 0.92513 0.78157 0.0
C155 C 0.2217 0.96925 0.8023 0.0
C156 C 0.30138 0.94075 0.82366 0.0
C157 C 0.297 0.89677 0.80264 0.0
H158 H 0.18995 0.99457 0.80443 0.0
H159 H 0.33183 0.94234 0.84337 0.0
H160 H 0.14146 0.03432 0.86986 0.0
H161 H 0.13043 0.88266 0.90347 0.0
H162 H 0.41023 0.12284 0.8272 0.0
H163 H 0.17977 0.91833 0.76726 0.0
H164 H 0.32548 0.86765 0.80516 0.0
C165 C 0.05737 0.16291 0.39823 0.0
C166 C 0.06109 0.11102 0.39945 0.0
N167 N 0.01509 0.09176 0.39207 0.0
N168 N 0.00938 0.17581 0.38968 0.0
C169 C 0.98446 0.13149 0.38657 0.0
H170 H 0.08791 0.18957 0.40226 0.0
Co171 Co 0.98505 0.24111 0.38165 0.0
C172 C 0.91619 0.22094 0.3145 0.0
O173 O 0.94255 0.25509 0.29607 0.0
N174 N 0.96037 0.30805 0.375 0.0
C175 C 0.91927 0.37702 0.35605 0.0
C176 C 0.91786 0.32513 0.35812 0.0
C177 C 0.98402 0.35088 0.3863 0.0
N178 N 0.9615 0.3929 0.37332 0.0
O179 O 0.94829 0.23634 0.42809 0.0
H180 H 0.88744 0.30203 0.34757 0.0
H181 H 0.01812 0.35189 0.40294 0.0
O182 O 0.92839 0.2122 0.34906 0.0
C183 C 0.98279 0.24848 0.45189 0.0
O184 O 0.02735 0.26214 0.43895 0.0
N185 N 0.02939 0.24715 0.34062 0.0
C186 C 0.1212 0.23905 0.30364 0.0
C187 C 0.08201 0.205 0.29575 0.0
C188 C 0.03608 0.20965 0.31469 0.0
C189 C 0.06712 0.28146 0.34684 0.0
C190 C 0.11233 0.27971 0.32726 0.0
H191 H 0.00856 0.1797 0.31181 0.0
H192 H 0.06616 0.30598 0.37058 0.0
H193 H 0.94494 0.12801 0.37972 0.0
H194 H 0.09492 0.08912 0.40438 0.0
H195 H 0.89219 0.40116 0.34208 0.0
H196 H 0.08838 0.17269 0.27772 0.0
H197 H 0.14253 0.30574 0.33442 0.0
C198 C 0.86692 0.0668 0.83085 0.0
C199 C 0.91646 0.05707 0.83957 0.0
N200 N 0.9182 0.01273 0.85776 0.0
N201 N 0.8372 0.02876 0.8438 0.0
C202 C 0.87009 0.99628 0.86 0.0
H203 H 0.85473 0.09921 0.81505 0.0
Co204 Co 0.76743 0.01572 0.83748 0.0
C205 C 0.794 0.94053 0.79051 0.0
O206 O 0.78288 0.97834 0.76815 0.0
N207 N 0.69898 0.00289 0.82901 0.0
C208 C 0.62773 0.01232 0.79673 0.0
C209 C 0.67934 0.01146 0.79459 0.0
C210 C 0.65815 -0.00199 0.85176 0.0
N211 N 0.6144 0.00461 0.83269 0.0
O212 O 0.76084 0.00318 0.89378 0.0
H213 H 0.70103 0.02157 0.76999 0.0
H214 H 0.66022 0.99348 0.8818 0.0
O215 O 0.78502 0.94554 0.82583 0.0
C216 C 0.78237 0.02929 0.92003 0.0
O217 O 0.81215 0.06718 0.91098 0.0
N218 N 0.75083 0.08413 0.84303 0.0
C219 C 0.73478 0.18772 0.83892 0.0
C220 C 0.75411 0.16076 0.80804 0.0
C221 C 0.76005 0.10895 0.81036 0.0
C222 C 0.72618 0.10831 0.87158 0.0
C223 C 0.71842 0.16052 0.87036 0.0
H224 H 0.77492 0.08848 0.7865 0.0
H225 H 0.71221 0.08796 0.89535 0.0
H226 H 0.85912 0.96056 0.87241 0.0
H227 H 0.94893 0.08031 0.83261 0.0
H228 H 0.60193 0.02154 0.77414 0.0
H229 H 0.76639 0.17939 0.78255 0.0
H230 H 0.70031 0.1792 0.89379 0.0
C231 C 0.92442 0.8131 0.36096 0.0
C232 C 0.91702 0.86359 0.36832 0.0
N233 N 0.96272 0.88545 0.37144 0.0
N234 N 0.97455 0.80368 0.35909 0.0
C235 C 0.99684 0.84857 0.36612 0.0
H236 H 0.89522 0.78501 0.35687 0.0
Co237 Co 0.00523 0.74098 0.35021 0.0
C238 C 0.08501 0.78143 0.29444 0.0
O239 O 0.06397 0.75778 0.26615 0.0
N240 N 0.03554 0.67693 0.34238 0.0
C241 C 0.04735 0.60341 0.31349 0.0
C242 C 0.0485 0.65493 0.30947 0.0
C243 C 0.0301 0.63757 0.36641 0.0
N244 N 0.03448 0.59247 0.34914 0.0
O245 O 0.03144 0.74291 0.40081 0.0
H246 H 0.05072 0.67354 0.28273 0.0
H247 H 0.01753 0.64142 0.39497 0.0
O248 O 0.06634 0.77718 0.32785 0.0
C249 C 0.99334 0.73277 0.42207 0.0
O250 O 0.95008 0.72166 0.40584 0.0
N251 N 0.97053 0.73616 0.30426 0.0
C252 C 0.88116 0.7394 0.2641 0.0
C253 C 0.91594 0.77928 0.26152 0.0
C254 C 0.9608 0.77688 0.28187 0.0
C255 C 0.93912 0.69501 0.30345 0.0
C256 C 0.89473 0.69526 0.28263 0.0
H257 H 0.98361 0.81049 0.28378 0.0
H258 H 0.94469 0.6641 0.32259 0.0
H259 H 0.03732 0.85434 0.3673 0.0
H260 H 0.88118 0.88292 0.37071 0.0
H261 H 0.05071 0.57607 0.29102 0.0
H262 H 0.90612 0.81405 0.24721 0.0
H263 H 0.86839 0.66399 0.285 0.0
C264 C 0.22718 0.02136 0.04063 0.0
C265 C 0.26696 0.99695 0.0603 0.0
C266 C 0.31678 0.99506 1.00239 0.0
C267 C 0.27457 0.01315 0.98167 0.0
N268 N 0.18605 0.03617 0.98105 0.0
N269 N 0.34689 0.95395 0.05902 0.0
C270 C 0.22879 0.02457 1.00073 0.0
C271 C 0.31077 0.9814 0.04078 0.0
N272 N 0.18822 0.0426 0.06013 0.0
N273 N 0.36331 0.99318 0.9857 0.0
H274 H 0.34343 0.94333 0.08715 0.0
H275 H 0.37765 0.93766 0.04541 0.0
H276 H 0.36969 0.00581 0.9583 0.0
H277 H 0.39639 0.98469 1.00021 0.0
H278 H 0.16188 0.06672 0.04792 0.0
H279 H 0.18442 0.03909 0.08913 0.0
H280 H 0.15066 0.03952 0.9936 0.0
H281 H 0.18462 0.0387 0.95191 0.0
C282 C 0.99555 0.28786 0.51489 0.0
C283 C 0.97695 0.24632 0.49357 0.0
C284 C 0.96579 0.1985 0.55217 0.0
C285 C 0.98985 0.23792 0.57276 0.0
N286 N 0.03571 0.31646 0.57239 0.0
N287 N 0.95294 0.15825 0.49182 0.0
C288 C 0.00755 0.28133 0.5536 0.0
C289 C 0.96425 0.20054 0.51214 0.0
N290 N -0.00018 0.3343 0.49835 0.0
N291 N 0.94318 0.15949 0.57089 0.0
H292 H 0.95078 0.15789 0.46262 0.0
H293 H 0.94941 0.12251 0.50386 0.0
H294 H 0.94524 0.15546 0.59994 0.0
H295 H 0.91959 0.13327 0.55783 0.0
H296 H 0.00878 0.36707 0.51312 0.0
H297 H 0.98879 0.34098 0.47065 0.0
H298 H 0.05343 0.34686 0.55918 0.0
H299 H 0.04568 0.31221 0.60057 0.0
C300 C 0.73486 0.04973 0.01953 0.0
C301 C 0.77487 0.02964 0.04122 0.0
C302 C 0.81744 0.00343 0.98274 0.0
C303 C 0.77531 0.01954 0.96125 0.0
N304 N 0.68798 0.04452 0.96127 0.0
N305 N 0.84895 0.9768 0.04311 0.0
C306 C 0.73227 0.03895 0.98025 0.0
C307 C 0.81472 0.0036 0.02267 0.0
N308 N 0.69902 0.07881 0.03654 0.0
N309 N 0.8605 0.98795 0.96506 0.0
H310 H 0.84911 0.97704 0.0722 0.0
H311 H 0.87478 0.9518 0.03128 0.0
H312 H 0.86257 0.98288 0.93612 0.0
H313 H 0.89472 0.98256 0.97897 0.0
H314 H 0.67117 0.09817 0.02175 0.0
H315 H 0.70051 0.08766 0.06509 0.0
H316 H 0.65418 0.05518 0.97396 0.0
H317 H 0.68379 0.03131 0.93401 0.0
C318 C 0.96676 0.6974 0.48492 0.0
C319 C 0.99431 0.73474 0.46412 0.0
C320 C 0.01303 0.77862 0.52331 0.0
C321 C 0.98239 0.74344 0.54332 0.0
N322 N 0.92236 0.67532 0.54246 0.0
N323 N 0.03513 0.81677 0.46378 0.0
C324 C 0.95648 0.70503 0.52376 0.0
C325 C 0.01529 0.77691 0.48336 0.0
N326 N 0.95278 0.65306 0.4682 0.0
N327 N 0.04072 0.81353 0.54263 0.0
H328 H 0.03737 0.81816 0.43467 0.0
H329 H 0.04549 0.85082 0.47625 0.0
H330 H 0.03635 0.8191 0.5713 0.0
H331 H 0.06948 0.83515 0.53061 0.0
H332 H 0.93773 0.62245 0.48288 0.0
H333 H 0.96099 0.64436 0.44041 0.0
H334 H 0.89817 0.65002 0.52901 0.0
H335 H 0.91475 0.67952 0.57106 0.0
C336 C 0.18525 0.23082 0.25325 0.0
C337 C 0.17314 0.22733 0.29173 0.0
C338 C 0.25277 0.18414 0.30367 0.0
C339 C 0.2562 0.174 0.26495 0.0
N340 N 0.23034 0.19423 0.20116 0.0
N341 N 0.19637 0.20269 0.35508 0.0
C342 C 0.225 0.20069 0.23904 0.0
C343 C 0.20795 0.20607 0.31771 0.0
N344 N 0.15802 0.26215 0.23049 0.0
N345 N 0.29108 0.16939 0.32681 0.0
H346 H 0.16361 0.21759 0.36677 0.0
H347 H 0.21786 0.18222 0.37426 0.0
H348 H 0.32357 0.15221 0.31616 0.0
H349 H 0.29272 0.17853 0.35526 0.0
H350 H 0.16766 0.26986 0.20267 0.0
H351 H 0.12851 0.28433 0.24073 0.0
H352 H 0.20356 0.20605 0.18164 0.0
H353 H 0.26078 0.17596 0.18887 0.0
C354 C 0.7784 0.266 0.85614 0.0
C355 C 0.73639 0.24383 0.83814 0.0
C356 C 0.75958 0.28059 0.77867 0.0
C357 C 0.80908 0.28892 0.79382 0.0
N358 N 0.85584 0.31507 0.84835 0.0
N359 N 0.67166 0.26108 0.79368 0.0
C360 C 0.81462 0.29146 0.83344 0.0
C361 C 0.72104 0.26497 0.8039 0.0
N362 N 0.78571 0.25782 0.89353 0.0
N363 N 0.75045 0.28007 0.74091 0.0
H364 H 0.64511 0.24504 0.81196 0.0
H365 H 0.65726 0.27737 0.76926 0.0
H366 H 0.77705 0.28859 0.72047 0.0
H367 H 0.71618 0.26811 0.72952 0.0
H368 H 0.81833 0.26827 0.90793 0.0
H369 H 0.75805 0.24036 0.90996 0.0
H370 H 0.86169 0.31968 0.87707 0.0
H371 H 0.88226 0.33333 0.83117 0.0
C372 C 0.75593 0.80156 0.26813 0.0
C373 C 0.7567 0.81852 0.23065 0.0
C374 C 0.81817 0.7537 0.21437 0.0
C375 C 0.82837 0.7487 0.25299 0.0
N376 N 0.80151 0.75818 0.31748 0.0
N377 N 0.77889 0.80401 0.1657 0.0
C378 C 0.79429 0.76812 0.2802 0.0
C379 C 0.78338 0.79107 0.2027 0.0
N380 N 0.72033 0.82029 0.29207 0.0
N381 N 0.84379 0.72425 0.18938 0.0
H382 H 0.75175 0.82923 0.15605 0.0
H383 H 0.80216 0.79021 0.14451 0.0
H384 H 0.8697 0.69714 0.19841 0.0
H385 H 0.83656 0.72354 0.16064 0.0
H386 H 0.71547 0.808 0.31964 0.0
H387 H 0.69284 0.8456 0.28273 0.0
H388 H 0.78197 0.77609 0.33903 0.0
H389 H 0.82793 0.73208 0.32699 0.0
C390 C 0.23944 0.82401 0.73328 0.0
C391 C 0.23865 0.8358 0.7719 0.0
C392 C 0.18649 0.76156 0.78472 0.0
C393 C 0.17608 0.75885 0.746 0.0
N394 N 0.19894 0.77932 0.68209 0.0
N395 N 0.21762 0.81311 0.83586 0.0
C396 C 0.20586 0.7864 0.71974 0.0
C397 C 0.21539 0.80274 0.79829 0.0
N398 N 0.27132 0.84986 0.70989 0.0
N399 N 0.16623 0.72601 0.80815 0.0
H400 H 0.23984 0.84205 0.84686 0.0
H401 H 0.19632 0.79419 0.85609 0.0
H402 H 0.14442 0.69616 0.79776 0.0
H403 H 0.17447 0.72349 0.8367 0.0
H404 H 0.27651 0.84115 0.68164 0.0
H405 H 0.29596 0.87767 0.71986 0.0
H406 H 0.21394 0.80287 0.66144 0.0
H407 H 0.17749 0.74965 0.67137 0.0
C408 C 0.84158 0.81013 0.75755 0.0
C409 C 0.88536 0.82431 0.73626 0.0
C410 C 0.8713 0.91327 0.75493 0.0
C411 C 0.82659 0.89931 0.77469 0.0
N412 N 0.76519 0.83589 0.79079 0.0
N413 N 0.93997 0.89111 0.71399 0.0
C414 C 0.8109 0.84802 0.77519 0.0
C415 C 0.89905 0.87639 0.73443 0.0
N416 N 0.82907 0.76021 0.76091 0.0
N417 N 0.88974 0.96154 0.75813 0.0
H418 H 0.968 0.8663 0.70618 0.0
H419 H 0.94545 0.92781 0.70427 0.0
H420 H 0.87276 0.98925 0.77449 0.0
H421 H 0.92494 0.97326 0.74831 0.0
H422 H 0.80256 0.74644 0.78 0.0
H423 H 0.84659 0.73181 0.74553 0.0
H424 H 0.74808 0.8006 0.78842 0.0
H425 H 0.74237 0.86237 0.80422 0.0
C426 C 0.15442 0.90031 0.26101 0.0
C427 C 0.20072 0.87945 0.24785 0.0
C428 C 0.17532 0.79687 0.27473 0.0
C429 C 0.12761 0.817 0.28513 0.0
N430 N 0.0702 0.88723 0.28586 0.0
N431 N 0.25383 0.80684 0.2395 0.0
C432 C 0.11719 0.86875 0.27822 0.0
C433 C 0.21088 0.82742 0.25427 0.0
N434 N 0.14558 0.95072 0.25696 0.0
N435 N 0.18676 0.74852 0.2851 0.0
H436 H 0.28001 0.82798 0.22413 0.0
H437 H 0.26194 0.76845 0.23984 0.0
H438 H 0.16162 0.72583 0.30027 0.0
H439 H 0.22212 0.73214 0.28159 0.0
H440 H 0.11864 0.97049 0.27236 0.0
H441 H 0.16402 0.97232 0.23677 0.0
H442 H 0.05734 0.92226 0.27677 0.0
H443 H 0.04283 0.8663 0.29987 0.0
C444 C 0.1442 0.16335 0.74088 0.0
C445 C 0.0985 0.17173 0.76066 0.0
C446 C 0.13968 0.14194 0.8192 0.0
C447 C 0.18372 0.12881 0.79827 0.0
N448 N 0.23501 0.15593 0.74579 0.0
N449 N 0.05815 0.18459 0.82042 0.0
C450 C 0.18823 0.14849 0.76108 0.0
C451 C 0.09792 0.16558 0.80046 0.0
N452 N 0.14546 0.16697 0.7026 0.0
N453 N 0.13799 0.1334 0.857 0.0
H454 H 0.02909 0.20473 0.80762 0.0
H455 H 0.05603 0.185 0.84961 0.0
H456 H 0.17039 0.12835 0.87312 0.0
H457 H 0.10473 0.13299 0.87263 0.0
H458 H 0.17645 0.15546 0.6867 0.0
H459 H 0.11438 0.17779 0.68657 0.0
H460 H 0.24064 0.17351 0.71987 0.0
H461 H 0.26803 0.15147 0.76146 0.0
C462 C 0.85153 0.16777 0.22775 0.0
C463 C 0.84002 0.11796 0.23942 0.0
C464 C 0.85913 0.14201 0.30525 0.0
C465 C 0.87781 0.18951 0.29243 0.0
N466 N 0.86247 0.25496 0.24668 0.0
N467 N 0.81789 0.06192 0.28993 0.0
C468 C 0.86493 0.20475 0.25518 0.0
C469 C 0.83925 0.10644 0.27855 0.0
N470 N 0.85183 0.17944 0.19037 0.0
N471 N 0.85833 0.13178 0.34282 0.0
H472 H 0.79975 0.03781 0.27113 0.0
H473 H 0.81445 0.05028 0.31773 0.0
H474 H 0.86094 0.16018 0.36295 0.0
H475 H 0.8524 0.09612 0.35428 0.0
H476 H 0.8659 0.21348 0.17991 0.0
H477 H 0.84062 0.15382 0.1697 0.0
H478 H 0.84977 0.26857 0.22087 0.0
H479 H 0.86616 0.28281 0.26724 0.0
C480 C 0.04681 0.96347 0.17088 0.0
C481 C 0.0705 0.00219 0.14962 0.0
C482 C 0.99174 0.014 0.11449 0.0
C483 C 0.96672 0.98156 0.1402 0.0
N484 N 0.96856 0.93665 0.19926 0.0
N485 N 0.06533 0.06601 0.10151 0.0
C486 C 0.9937 0.95923 0.17015 0.0
C487 C 0.04282 0.02804 0.12144 0.0
N488 N 0.07454 0.92994 0.19118 0.0
N489 N 0.96704 0.03025 0.0831 0.0
H490 H 0.10346 0.07513 0.10448 0.0
H491 H 0.04573 0.09001 0.08352 0.0
H492 H 0.92975 0.02014 0.0774 0.0
H493 H 0.98455 0.05003 0.06137 0.0
H494 H 0.05852 0.89847 0.20425 0.0
H495 H 0.1137 0.92933 0.19064 0.0
H496 H 0.98682 0.92362 0.22334 0.0
H497 H 0.92928 0.93657 0.20158 0.0
C498 C 0.97117 0.01538 0.62659 0.0
C499 C 0.99092 0.04149 0.65816 0.0
C500 C 0.03945 0.96683 0.67581 0.0
C501 C 0.02321 0.9422 0.64264 0.0
N502 N 0.98119 0.94557 0.58295 0.0
N503 N 0.05604 0.04648 0.70561 0.0
C504 C 0.9914 0.96743 0.61684 0.0
C505 C 0.02908 0.01873 0.6804 0.0
N506 N 0.93263 0.03606 0.60638 0.0
N507 N 0.06138 0.94008 0.70431 0.0
H508 H 0.05207 0.08518 0.70783 0.0
H509 H 0.08694 0.03227 0.72033 0.0
H510 H 0.06626 0.90107 0.70355 0.0
H511 H 0.06904 0.95566 0.7306 0.0
H512 H 0.91325 0.01683 0.58531 0.0
H513 H 0.91782 0.07153 0.61245 0.0
H514 H 0.96184 0.96376 0.56139 0.0
H515 H 0.99621 0.91065 0.57529 0.0
C516 C 0.98684 0.95129 0.84944 0.0
C517 C 0.96334 0.98898 0.8714 0.0
C518 C 0.03846 0.99425 0.91109 0.0
C519 C 0.06483 0.96447 0.88466 0.0
N520 N 0.06603 0.9171 0.82693 0.0
N521 N 0.96459 0.04555 0.92402 0.0
C522 C 0.03941 0.94293 0.85356 0.0
C523 C 0.98841 0.00983 0.90288 0.0
N524 N 0.95872 0.92353 0.82492 0.0
N525 N 0.06162 0.00703 0.94397 0.0
H526 H 0.92704 0.05572 0.91926 0.0
H527 H 0.98232 0.06624 0.94511 0.0
H528 H 0.09783 0.99426 0.95046 0.0
H529 H 0.04369 0.02587 0.96588 0.0
H530 H 0.97291 0.89313 0.80971 0.0
H531 H 0.91965 0.92729 0.82346 0.0
H532 H 0.05042 0.90519 0.80155 0.0
H533 H 0.10484 0.91093 0.82889 0.0
C534 C 0.98001 0.95701 0.41377 0.0
C535 C 0.9735 0.93809 0.3769 0.0
C536 C 0.99703 0.02002 0.35021 0.0
C537 C 0.00196 0.03954 0.38707 0.0
N538 N 0.99391 0.03016 0.45388 0.0
N539 N 0.96714 0.9518 0.31037 0.0
C540 C 0.99233 0.0089 0.41893 0.0
C541 C 0.97945 0.96978 0.34516 0.0
N542 N 0.97466 0.92489 0.44358 0.0
N543 N 0.01099 0.04923 0.32025 0.0
H544 H 0.95514 0.91472 0.30595 0.0
H545 H 0.96554 0.97423 0.28635 0.0
H546 H 0.02443 0.08606 0.32334 0.0
H547 H 0.01304 0.03598 0.29275 0.0
H548 H 0.98318 0.93437 0.47123 0.0
H549 H 0.96316 0.88744 0.44026 0.0
H550 H 0.98336 0.01156 0.47845 0.0
H551 H 0.00361 0.06794 0.45808 0.0
C552 C 0.50431 0.96242 0.13814 0.0
C553 C 0.46889 0.99111 0.15854 0.0
C554 C 0.5301 0.06012 0.16257 0.0
C555 C 0.56893 0.02752 0.15023 0.0
N556 N 0.59187 0.94436 0.12647 0.0
N557 N 0.45077 0.0649 0.19578 0.0
C558 C 0.55584 0.97794 0.13742 0.0
C559 C 0.48213 0.03978 0.17182 0.0
N560 N 0.48837 0.92072 0.11891 0.0
N561 N 0.54001 0.11042 0.16649 0.0
H562 H 0.41765 0.04888 0.20628 0.0
H563 H 0.46064 0.09883 0.20869 0.0
H564 H 0.57507 0.1259 0.15927 0.0
H565 H 0.51218 0.13683 0.17287 0.0
H566 H 0.51138 0.90088 0.10033 0.0
H567 H 0.4506 0.9092 0.11867 0.0
H568 H 0.58453 0.90596 0.123 0.0
H569 H 0.62925 0.95369 0.12173 0.0
C570 C 0.93089 0.50866 0.65667 0.0
C571 C 0.96545 0.54658 0.66799 0.0
C572 C 0.02868 0.48128 0.67971 0.0
C573 C 0.99137 0.44329 0.67554 0.0
N574 N 0.90265 0.42324 0.66746 0.0
N575 N 0.04351 0.56684 0.69987 0.0
C576 C 0.94124 0.45737 0.66557 0.0
C577 C 0.01369 0.53249 0.6818 0.0
N578 N 0.88835 0.52162 0.63735 0.0
N579 N 0.07842 0.46829 0.682 0.0
H580 H 0.03108 0.60304 0.70637 0.0
H581 H 0.07746 0.55721 0.71284 0.0
H582 H 0.09046 0.43098 0.67928 0.0
H583 H 0.1075 0.49498 0.68236 0.0
H584 H 0.86388 0.49494 0.62573 0.0
H585 H 0.88071 0.55883 0.62961 0.0
H586 H 0.86489 0.43315 0.66371 0.0
H587 H 0.90747 0.38659 0.6771 0.0
C588 C 0.49783 0.06433 0.8742 0.0
C589 C 0.46056 0.03578 0.85518 0.0
C590 C 0.52587 0.97768 0.83303 0.0
C591 C 0.56362 0.01078 0.84662 0.0
N592 N 0.58572 0.08961 0.87641 0.0
N593 N 0.43978 0.96989 0.81104 0.0
C594 C 0.54978 0.05494 0.86675 0.0
C595 C 0.47459 0.99315 0.8335 0.0
N596 N 0.48334 0.10028 0.89941 0.0
N597 N 0.53963 0.93185 0.81893 0.0
H598 H 0.40282 0.9828 0.80829 0.0
H599 H 0.44887 0.94138 0.7921 0.0
H600 H 0.57728 0.92015 0.81841 0.0
H601 H 0.51366 0.90401 0.81134 0.0
H602 H 0.50866 0.11939 0.91677 0.0
H603 H 0.44538 0.10748 0.90532 0.0
H604 H 0.57727 0.12498 0.88746 0.0
H605 H 0.62386 0.08466 0.87055 0.0
C606 C 0.02973 0.45216 0.35425 0.0
C607 C 0.98257 0.44317 0.37204 0.0
C608 C 0.96933 0.53419 0.37719 0.0
C609 C 0.01872 0.54307 0.36223 0.0
N610 N 0.10062 0.50938 0.34755 0.0
N611 N 0.91416 0.47488 0.40939 0.0
C612 C 0.05055 0.50148 0.35472 0.0
C613 C 0.95469 0.48406 0.38662 0.0
N614 N 0.05272 0.41481 0.33421 0.0
N615 N 0.93475 0.57214 0.37971 0.0
H616 H 0.9032 0.43834 0.41693 0.0
H617 H 0.89508 0.50337 0.4237 0.0
H618 H 0.94162 0.60894 0.37117 0.0
H619 H 0.89702 0.56585 0.3868 0.0
H620 H 0.08529 0.42081 0.31829 0.0
H621 H 0.03582 0.37983 0.32957 0.0
H622 H 0.1264 0.47996 0.34461 0.0
H623 H 0.11695 0.5453 0.34871 0.0
loop_
_geom_bond_atom_site_label_1
_geom_bond_atom_site_label_2
_geom_bond_distance
_geom_bond_site_symmetry_2
_ccdc_geom_bond_type
C0 C1 1.351 . S
C0 N3 1.368 1_545 S
C0 H5 0.931 . S
C1 C0 1.351 . S
C1 N2 1.373 1_545 S
C1 H29 0.930 . S
N2 C1 1.373 1_565 S
N2 C4 1.340 . S
N3 C0 1.368 1_565 S
N3 C4 1.321 . S
N3 Co6 2.135 . S
C4 N2 1.340 . S
C4 N3 1.321 . S
C4 H28 0.930 . S
H5 C0 0.931 . S
Co6 N3 2.135 . S
Co6 N9 2.121 . S
Co6 O14 2.055 . S
Co6 O17 2.039 . S
Co6 N20 2.140 1_565 S
C7 O8 1.227 . S
C7 O17 1.265 . S
O8 C7 1.227 . S
N9 Co6 2.121 . S
N9 C11 1.375 . S
N9 C12 1.313 . S
C10 C11 1.338 . S
C10 N13 1.377 . S
C10 H30 0.930 . S
C11 N9 1.375 . S
C11 C10 1.338 . S
C11 H15 0.931 . S
C12 N9 1.313 . S
C12 N13 1.344 . S
C12 H16 0.930 . S
N13 C10 1.377 . S
N13 C12 1.344 . S
O14 Co6 2.055 . S
O14 C18 1.253 1_565 S
H15 C11 0.931 . S
H16 C12 0.930 . S
O17 Co6 2.039 . S
O17 C7 1.265 . S
C18 O14 1.253 1_545 S
C18 O19 1.227 . S
O19 C18 1.227 . S
N20 Co6 2.140 1_545 S
N20 C23 1.346 . S
N20 C24 1.345 . S
C21 C22 1.387 . S
C21 C25 1.391 . S
C22 C21 1.387 . S
C22 C23 1.369 . S
C22 H31 0.929 . S
C23 N20 1.346 . S
C23 C22 1.369 . S
C23 H26 0.928 . S
C24 N20 1.345 . S
C24 C25 1.371 . S
C24 H27 0.931 . S
C25 C21 1.391 . S
C25 C24 1.371 . S
C25 H32 0.930 . S
H26 C23 0.928 . S
H27 C24 0.931 . S
H28 C4 0.930 . S
H29 C1 0.930 . S
H30 C10 0.930 . S
H31 C22 0.929 . S
H32 C25 0.930 . S
C33 C34 1.351 . S
C33 N36 1.368 1_655 S
C33 H38 0.931 . S
C34 C33 1.351 . S
C34 N35 1.373 1_655 S
C34 H62 0.930 . S
N35 C34 1.373 1_455 S
N35 C37 1.340 . S
N36 C33 1.368 1_455 S
N36 C37 1.321 . S
N36 Co39 2.135 . S
C37 N35 1.340 . S
C37 N36 1.321 . S
C37 H61 0.930 . S
H38 C33 0.931 . S
Co39 N36 2.135 . S
Co39 N42 2.121 . S
Co39 O47 2.055 . S
Co39 O50 2.039 . S
Co39 N53 2.140 1_455 S
C40 O41 1.227 . S
C40 O50 1.265 . S
O41 C40 1.227 . S
N42 Co39 2.121 . S
N42 C44 1.375 . S
N42 C45 1.313 . S
C43 C44 1.338 . S
C43 N46 1.377 . S
C43 H63 0.930 . S
C44 N42 1.375 . S
C44 C43 1.338 . S
C44 H48 0.931 . S
C45 N42 1.313 . S
C45 N46 1.344 . S
C45 H49 0.930 . S
N46 C43 1.377 . S
N46 C45 1.344 . S
O47 Co39 2.055 . S
O47 C51 1.253 . S
H48 C44 0.931 . S
H49 C45 0.930 . S
O50 Co39 2.039 . S
O50 C40 1.265 . S
C51 O47 1.253 . S
C51 O52 1.227 1_455 S
O52 C51 1.227 1_655 S
N53 Co39 2.140 1_655 S
N53 C56 1.346 . S
N53 C57 1.345 . S
C54 C55 1.387 . S
C54 C58 1.391 . S
C55 C54 1.387 . S
C55 C56 1.369 . S
C55 H64 0.929 . S
C56 N53 1.346 . S
C56 C55 1.369 . S
C56 H59 0.928 . S
C57 N53 1.345 . S
C57 C58 1.371 . S
C57 H60 0.931 . S
C58 C54 1.391 . S
C58 C57 1.371 . S
C58 H65 0.930 . S
H59 C56 0.928 . S
H60 C57 0.931 . S
H61 C37 0.930 . S
H62 C34 0.930 . S
H63 C43 0.930 . S
H64 C55 0.929 . S
H65 C58 0.930 . S
C66 C67 1.351 . S
C66 N69 1.368 1_565 S
C66 H71 0.931 . S
C67 C66 1.351 . S
C67 N68 1.373 1_565 S
C67 H95 0.930 . S
N68 C67 1.373 1_545 S
N68 C70 1.340 . S
N69 C66 1.368 1_545 S
N69 C70 1.321 . S
N69 Co72 2.135 . S
C70 N68 1.340 . S
C70 N69 1.321 . S
C70 H94 0.930 . S
H71 C66 0.931 . S
Co72 N69 2.135 . S
Co72 N75 2.121 . S
Co72 O80 2.055 . S
Co72 O83 2.039 . S
Co72 N86 2.140 1_545 S
C73 O74 1.227 . S
C73 O83 1.265 . S
O74 C73 1.227 . S
N75 Co72 2.121 . S
N75 C77 1.375 . S
N75 C78 1.313 . S
C76 C77 1.338 . S
C76 N79 1.377 . S
C76 H96 0.930 . S
C77 N75 1.375 . S
C77 C76 1.338 . S
C77 H81 0.931 . S
C78 N75 1.313 . S
C78 N79 1.344 . S
C78 H82 0.930 . S
N79 C76 1.377 . S
N79 C78 1.344 . S
O80 Co72 2.055 . S
O80 C84 1.253 . S
H81 C77 0.931 . S
H82 C78 0.930 . S
O83 Co72 2.039 . S
O83 C73 1.265 . S
C84 O80 1.253 . S
C84 O85 1.227 1_545 S
O85 C84 1.227 1_565 S
N86 Co72 2.140 1_565 S
N86 C89 1.346 . S
N86 C90 1.345 . S
C87 C88 1.387 . S
C87 C91 1.391 . S
C88 C87 1.387 . S
C88 C89 1.369 . S
C88 H97 0.929 . S
C89 N86 1.346 . S
C89 C88 1.369 . S
C89 H92 0.928 . S
C90 N86 1.345 . S
C90 C91 1.371 . S
C90 H93 0.931 . S
C91 C87 1.391 . S
C91 C90 1.371 . S
C91 H98 0.930 . S
H92 C89 0.928 . S
H93 C90 0.931 . S
H94 C70 0.930 . S
H95 C67 0.930 . S
H96 C76 0.930 . S
H97 C88 0.929 . S
H98 C91 0.930 . S
C99 C100 1.351 . S
C99 N102 1.368 1_455 S
C99 H104 0.931 . S
C100 C99 1.351 . S
C100 N101 1.373 1_455 S
C100 H128 0.930 . S
N101 C100 1.373 1_655 S
N101 C103 1.340 . S
N102 C99 1.368 1_655 S
N102 C103 1.321 . S
N102 Co105 2.135 . S
C103 N101 1.340 . S
C103 N102 1.321 . S
C103 H127 0.930 . S
H104 C99 0.931 . S
Co105 N102 2.135 . S
Co105 N108 2.121 . S
Co105 O113 2.055 . S
Co105 O116 2.039 . S
Co105 N119 2.140 1_655 S
C106 O107 1.227 . S
C106 O116 1.265 . S
O107 C106 1.227 . S
N108 Co105 2.121 . S
N108 C110 1.375 . S
N108 C111 1.313 . S
C109 C110 1.338 . S
C109 N112 1.377 . S
C109 H129 0.930 . S
C110 N108 1.375 . S
C110 C109 1.338 . S
C110 H114 0.931 . S
C111 N108 1.313 . S
C111 N112 1.344 . S
C111 H115 0.930 . S
N112 C109 1.377 . S
N112 C111 1.344 . S
O113 Co105 2.055 . S
O113 C117 1.253 1_655 S
H114 C110 0.931 . S
H115 C111 0.930 . S
O116 Co105 2.039 . S
O116 C106 1.265 . S
C117 O113 1.253 1_455 S
C117 O118 1.227 . S
O118 C117 1.227 . S
N119 Co105 2.140 1_455 S
N119 C122 1.346 . S
N119 C123 1.345 . S
C120 C121 1.387 . S
C120 C124 1.391 . S
C121 C120 1.387 . S
C121 C122 1.369 . S
C121 H130 0.929 . S
C122 N119 1.346 . S
C122 C121 1.369 . S
C122 H125 0.928 . S
C123 N119 1.345 . S
C123 C124 1.371 . S
C123 H126 0.931 . S
C124 C120 1.391 . S
C124 C123 1.371 . S
C124 H131 0.930 . S
H125 C122 0.928 . S
H126 C123 0.931 . S
H127 C103 0.930 . S
H128 C100 0.930 . S
H129 C109 0.930 . S
H130 C121 0.929 . S
H131 C124 0.930 . S
C132 C133 1.351 . S
C132 N135 1.368 1_565 S
C132 H137 0.931 . S
C133 C132 1.351 . S
C133 N134 1.373 1_565 S
C133 H161 0.930 . S
N134 C133 1.373 1_545 S
N134 C136 1.340 . S
N135 C132 1.368 1_545 S
N135 C136 1.321 . S
N135 Co138 2.135 . S
C136 N134 1.340 . S
C136 N135 1.321 . S
C136 H160 0.930 . S
H137 C132 0.931 . S
Co138 N135 2.135 . S
Co138 N141 2.121 . S
Co138 O146 2.055 . S
Co138 O149 2.039 . S
Co138 N152 2.140 1_545 S
C139 O140 1.227 . S
C139 O149 1.265 . S
O140 C139 1.227 . S
N141 Co138 2.121 . S
N141 C143 1.375 . S
N141 C144 1.313 . S
C142 C143 1.338 . S
C142 N145 1.377 . S
C142 H162 0.930 . S
C143 N141 1.375 . S
C143 C142 1.338 . S
C143 H147 0.931 . S
C144 N141 1.313 . S
C144 N145 1.344 . S
C144 H148 0.930 . S
N145 C142 1.377 . S
N145 C144 1.344 . S
O146 Co138 2.055 . S
O146 C150 1.253 . S
H147 C143 0.931 . S
H148 C144 0.930 . S
O149 Co138 2.039 . S
O149 C139 1.265 . S
C150 O146 1.253 . S
C150 O151 1.227 1_545 S
O151 C150 1.227 1_565 S
N152 Co138 2.140 1_565 S
N152 C155 1.346 . S
N152 C156 1.345 . S
C153 C154 1.387 . S
C153 C157 1.391 . S
C154 C153 1.387 . S
C154 C155 1.369 . S
C154 H163 0.929 . S
C155 N152 1.346 . S
C155 C154 1.369 . S
C155 H158 0.928 . S
C156 N152 1.345 . S
C156 C157 1.371 . S
C156 H159 0.931 . S
C157 C153 1.391 . S
C157 C156 1.371 . S
C157 H164 0.930 . S
H158 C155 0.928 . S
H159 C156 0.931 . S
H160 C136 0.930 . S
H161 C133 0.930 . S
H162 C142 0.930 . S
H163 C154 0.929 . S
H164 C157 0.930 . S
C165 C166 1.351 . S
C165 N168 1.368 1_455 S
C165 H170 0.931 . S
C166 C165 1.351 . S
C166 N167 1.373 1_455 S
C166 H194 0.930 . S
N167 C166 1.373 1_655 S
N167 C169 1.340 . S
N168 C165 1.368 1_655 S
N168 C169 1.321 . S
N168 Co171 2.135 . S
C169 N167 1.340 . S
C169 N168 1.321 . S
C169 H193 0.930 . S
H170 C165 0.931 . S
Co171 N168 2.135 . S
Co171 N174 2.121 . S
Co171 O179 2.055 . S
Co171 O182 2.039 . S
Co171 N185 2.140 1_655 S
C172 O173 1.227 . S
C172 O182 1.265 . S
O173 C172 1.227 . S
N174 Co171 2.121 . S
N174 C176 1.375 . S
N174 C177 1.313 . S
C175 C176 1.338 . S
C175 N178 1.377 . S
C175 H195 0.930 . S
C176 N174 1.375 . S
C176 C175 1.338 . S
C176 H180 0.931 . S
C177 N174 1.313 . S
C177 N178 1.344 . S
C177 H181 0.930 . S
N178 C175 1.377 . S
N178 C177 1.344 . S
O179 Co171 2.055 . S
O179 C183 1.253 1_655 S
H180 C176 0.931 . S
H181 C177 0.930 . S
O182 Co171 2.039 . S
O182 C172 1.265 . S
C183 O179 1.253 1_455 S
C183 O184 1.227 . S
O184 C183 1.227 . S
N185 Co171 2.140 1_455 S
N185 C188 1.346 . S
N185 C189 1.345 . S
C186 C187 1.387 . S
C186 C190 1.391 . S
C187 C186 1.387 . S
C187 C188 1.369 . S
C187 H196 0.929 . S
C188 N185 1.346 . S
C188 C187 1.369 . S
C188 H191 0.928 . S
C189 N185 1.345 . S
C189 C190 1.371 . S
C189 H192 0.931 . S
C190 C186 1.391 . S
C190 C189 1.371 . S
C190 H197 0.930 . S
H191 C188 0.928 . S
H192 C189 0.931 . S
H193 C169 0.930 . S
H194 C166 0.930 . S
H195 C175 0.930 . S
H196 C187 0.929 . S
H197 C190 0.930 . S
C198 C199 1.351 . S
C198 N201 1.368 1_545 S
C198 H203 0.931 . S
C199 C198 1.351 . S
C199 N200 1.373 1_545 S
C199 H227 0.930 . S
N200 C199 1.373 1_565 S
N200 C202 1.340 . S
N201 C198 1.368 1_565 S
N201 C202 1.321 . S
N201 Co204 2.135 . S
C202 N200 1.340 . S
C202 N201 1.321 . S
C202 H226 0.930 . S
H203 C198 0.931 . S
Co204 N201 2.135 . S
Co204 N207 2.121 . S
Co204 O212 2.055 . S
Co204 O215 2.039 . S
Co204 N218 2.140 1_565 S
C205 O206 1.227 . S
C205 O215 1.265 . S
O206 C205 1.227 . S
N207 Co204 2.121 . S
N207 C209 1.375 . S
N207 C210 1.313 . S
C208 C209 1.338 . S
C208 N211 1.377 . S
C208 H228 0.930 . S
C209 N207 1.375 . S
C209 C208 1.338 . S
C209 H213 0.931 . S
C210 N207 1.313 . S
C210 N211 1.344 . S
C210 H214 0.930 . S
N211 C208 1.377 . S
N211 C210 1.344 . S
O212 Co204 2.055 . S
O212 C216 1.253 1_565 S
H213 C209 0.931 . S
H214 C210 0.930 . S
O215 Co204 2.039 . S
O215 C205 1.265 . S
C216 O212 1.253 1_545 S
C216 O217 1.227 . S
O217 C216 1.227 . S
N218 Co204 2.140 1_545 S
N218 C221 1.346 . S
N218 C222 1.345 . S
C219 C220 1.387 . S
C219 C223 1.391 . S
C220 C219 1.387 . S
C220 C221 1.369 . S
C220 H229 0.929 . S
C221 N218 1.346 . S
C221 C220 1.369 . S
C221 H224 0.928 . S
C222 N218 1.345 . S
C222 C223 1.371 . S
C222 H225 0.931 . S
C223 C219 1.391 . S
C223 C222 1.371 . S
C223 H230 0.930 . S
H224 C221 0.928 . S
H225 C222 0.931 . S
H226 C202 0.930 . S
H227 C199 0.930 . S
H228 C208 0.930 . S
H229 C220 0.929 . S
H230 C223 0.930 . S
C231 C232 1.351 . S
C231 N234 1.368 1_655 S
C231 H236 0.931 . S
C232 C231 1.351 . S
C232 N233 1.373 1_655 S
C232 H260 0.930 . S
N233 C232 1.373 1_455 S
N233 C235 1.340 . S
N234 C231 1.368 1_455 S
N234 C235 1.321 . S
N234 Co237 2.135 . S
C235 N233 1.340 . S
C235 N234 1.321 . S
C235 H259 0.930 . S
H236 C231 0.931 . S
Co237 N234 2.135 . S
Co237 N240 2.121 . S
Co237 O245 2.055 . S
Co237 O248 2.039 . S
Co237 N251 2.140 1_455 S
C238 O239 1.227 . S
C238 O248 1.265 . S
O239 C238 1.227 . S
N240 Co237 2.121 . S
N240 C242 1.375 . S
N240 C243 1.313 . S
C241 C242 1.338 . S
C241 N244 1.377 . S
C241 H261 0.930 . S
C242 N240 1.375 . S
C242 C241 1.338 . S
C242 H246 0.931 . S
C243 N240 1.313 . S
C243 N244 1.344 . S
C243 H247 0.930 . S
N244 C241 1.377 . S
N244 C243 1.344 . S
O245 Co237 2.055 . S
O245 C249 1.253 . S
H246 C242 0.931 . S
H247 C243 0.930 . S
O248 Co237 2.039 . S
O248 C238 1.265 . S
C249 O245 1.253 . S
C249 O250 1.227 1_455 S
O250 C249 1.227 1_655 S
N251 Co237 2.140 1_655 S
N251 C254 1.346 . S
N251 C255 1.345 . S
C252 C253 1.387 . S
C252 C256 1.391 . S
C253 C252 1.387 . S
C253 C254 1.369 . S
C253 H262 0.929 . S
C254 N251 1.346 . S
C254 C253 1.369 . S
C254 H257 0.928 . S
C255 N251 1.345 . S
C255 C256 1.371 . S
C255 H258 0.931 . S
C256 C252 1.391 . S
C256 C255 1.371 . S
C256 H263 0.930 . S
H257 C254 0.928 . S
H258 C255 0.931 . S
H259 C235 0.930 . S
H260 C232 0.930 . S
H261 C241 0.930 . S
H262 C253 0.929 . S
H263 C256 0.930 . S
C264 C265 1.363 . S
C264 C270 1.379 1_554 S
C264 N272 1.356 . S
C265 C264 1.363 . S
C265 C271 1.363 1_545 S
C266 C267 1.363 1_565 S
C266 C271 1.379 1_556 S
C266 N273 1.356 . S
C267 C266 1.363 1_545 S
C267 C270 1.363 . S
N268 C270 1.356 . S
N268 H280 0.984 . S
N268 H281 0.985 . S
N269 C271 1.356 . S
N269 H274 0.984 . S
N269 H275 0.985 . S
C270 C264 1.379 1_556 S
C270 C267 1.363 . S
C270 N268 1.356 . S
C271 C265 1.363 1_565 S
C271 C266 1.379 1_554 S
C271 N269 1.356 . S
N272 C264 1.356 . S
N272 H278 0.984 . S
N272 H279 0.984 . S
N273 C266 1.356 . S
N273 H276 0.984 . S
N273 H277 0.985 . S
H274 N269 0.984 . S
H275 N269 0.985 . S
H276 N273 0.984 . S
H277 N273 0.985 . S
H278 N272 0.984 . S
H279 N272 0.984 . S
H280 N268 0.984 . S
H281 N268 0.985 . S
C282 C283 1.363 . S
C282 C288 1.379 . S
C282 N290 1.356 . S
C283 C282 1.363 . S
C283 C289 1.363 1_455 S
C284 C285 1.363 1_655 S
C284 C289 1.379 . S
C284 N291 1.356 . S
C285 C284 1.363 1_455 S
C285 C288 1.363 . S
N286 C288 1.356 . S
N286 H298 0.984 . S
N286 H299 0.985 . S
N287 C289 1.356 . S
N287 H292 0.984 . S
N287 H293 0.985 . S
C288 C282 1.379 . S
C288 C285 1.363 . S
C288 N286 1.356 . S
C289 C283 1.363 1_655 S
C289 C284 1.379 . S
C289 N287 1.356 . S
N290 C282 1.356 . S
N290 H296 0.984 . S
N290 H297 0.984 . S
N291 C284 1.356 . S
N291 H294 0.984 . S
N291 H295 0.985 . S
H292 N287 0.984 . S
H293 N287 0.985 . S
H294 N291 0.984 . S
H295 N291 0.985 . S
H296 N290 0.984 . S
H297 N290 0.984 . S
H298 N286 0.984 . S
H299 N286 0.985 . S
C300 C301 1.363 . S
C300 C306 1.379 1_554 S
C300 N308 1.356 . S
C301 C300 1.363 . S
C301 C307 1.363 1_545 S
C302 C303 1.363 1_565 S
C302 C307 1.379 1_556 S
C302 N309 1.356 . S
C303 C302 1.363 1_545 S
C303 C306 1.363 . S
N304 C306 1.356 . S
N304 H316 0.984 . S
N304 H317 0.985 . S
N305 C307 1.356 . S
N305 H310 0.984 . S
N305 H311 0.985 . S
C306 C300 1.379 1_556 S
C306 C303 1.363 . S
C306 N304 1.356 . S
C307 C301 1.363 1_565 S
C307 C302 1.379 1_554 S
C307 N305 1.356 . S
N308 C300 1.356 . S
N308 H314 0.984 . S
N308 H315 0.984 . S
N309 C302 1.356 . S
N309 H312 0.984 . S
N309 H313 0.985 . S
H310 N305 0.984 . S
H311 N305 0.985 . S
H312 N309 0.984 . S
H313 N309 0.985 . S
H314 N308 0.984 . S
H315 N308 0.984 . S
H316 N304 0.984 . S
H317 N304 0.985 . S
C318 C319 1.363 1_655 S
C318 C324 1.379 . S
C318 N326 1.356 . S
C319 C318 1.363 1_455 S
C319 C325 1.363 . S
C320 C321 1.363 . S
C320 C325 1.379 . S
C320 N327 1.356 . S
C321 C320 1.363 . S
C321 C324 1.363 1_455 S
N322 C324 1.356 . S
N322 H334 0.984 . S
N322 H335 0.985 . S
N323 C325 1.356 . S
N323 H328 0.984 . S
N323 H329 0.985 . S
C324 C318 1.379 . S
C324 C321 1.363 1_655 S
C324 N322 1.356 . S
C325 C319 1.363 . S
C325 C320 1.379 . S
C325 N323 1.356 . S
N326 C318 1.356 . S
N326 H332 0.984 . S
N326 H333 0.984 . S
N327 C320 1.356 . S
N327 H330 0.984 . S
N327 H331 0.985 . S
H328 N323 0.984 . S
H329 N323 0.985 . S
H330 N327 0.984 . S
H331 N327 0.985 . S
H332 N326 0.984 . S
H333 N326 0.984 . S
H334 N322 0.984 . S
H335 N322 0.985 . S
C336 C337 1.363 . S
C336 C342 1.379 . S
C336 N344 1.356 . S
C337 C336 1.363 . S
C337 C343 1.363 . S
C338 C339 1.363 . S
C338 C343 1.379 . S
C338 N345 1.356 . S
C339 C338 1.363 . S
C339 C342 1.363 . S
N340 C342 1.356 . S
N340 H352 0.984 . S
N340 H353 0.985 . S
N341 C343 1.356 . S
N341 H346 0.984 . S
N341 H347 0.985 . S
C342 C336 1.379 . S
C342 C339 1.363 . S
C342 N340 1.356 . S
C343 C337 1.363 . S
C343 C338 1.379 . S
C343 N341 1.356 . S
N344 C336 1.356 . S
N344 H350 0.984 . S
N344 H351 0.984 . S
N345 C338 1.356 . S
N345 H348 0.984 . S
N345 H349 0.985 . S
H346 N341 0.984 . S
H347 N341 0.985 . S
H348 N345 0.984 . S
H349 N345 0.985 . S
H350 N344 0.984 . S
H351 N344 0.984 . S
H352 N340 0.984 . S
H353 N340 0.985 . S
C354 C355 1.363 . S
C354 C360 1.379 . S
C354 N362 1.356 . S
C355 C354 1.363 . S
C355 C361 1.363 . S
C356 C357 1.363 . S
C356 C361 1.379 . S
C356 N363 1.356 . S
C357 C356 1.363 . S
C357 C360 1.363 . S
N358 C360 1.356 . S
N358 H370 0.984 . S
N358 H371 0.985 . S
N359 C361 1.356 . S
N359 H364 0.984 . S
N359 H365 0.985 . S
C360 C354 1.379 . S
C360 C357 1.363 . S
C360 N358 1.356 . S
C361 C355 1.363 . S
C361 C356 1.379 . S
C361 N359 1.356 . S
N362 C354 1.356 . S
N362 H368 0.984 . S
N362 H369 0.984 . S
N363 C356 1.356 . S
N363 H366 0.984 . S
N363 H367 0.985 . S
H364 N359 0.984 . S
H365 N359 0.985 . S
H366 N363 0.984 . S
H367 N363 0.985 . S
H368 N362 0.984 . S
H369 N362 0.984 . S
H370 N358 0.984 . S
H371 N358 0.985 . S
C372 C373 1.363 . S
C372 C378 1.379 . S
C372 N380 1.356 . S
C373 C372 1.363 . S
C373 C379 1.363 . S
C374 C375 1.363 . S
C374 C379 1.379 . S
C374 N381 1.356 . S
C375 C374 1.363 . S
C375 C378 1.363 . S
N376 C378 1.356 . S
N376 H388 0.984 . S
N376 H389 0.985 . S
N377 C379 1.356 . S
N377 H382 0.984 . S
N377 H383 0.985 . S
C378 C372 1.379 . S
C378 C375 1.363 . S
C378 N376 1.356 . S
C379 C373 1.363 . S
C379 C374 1.379 . S
C379 N377 1.356 . S
N380 C372 1.356 . S
N380 H386 0.984 . S
N380 H387 0.984 . S
N381 C374 1.356 . S
N381 H384 0.984 . S
N381 H385 0.985 . S
H382 N377 0.984 . S
H383 N377 0.985 . S
H384 N381 0.984 . S
H385 N381 0.985 . S
H386 N380 0.984 . S
H387 N380 0.984 . S
H388 N376 0.984 . S
H389 N376 0.985 . S
C390 C391 1.363 . S
C390 C396 1.379 . S
C390 N398 1.356 . S
C391 C390 1.363 . S
C391 C397 1.363 . S
C392 C393 1.363 . S
C392 C397 1.379 . S
C392 N399 1.356 . S
C393 C392 1.363 . S
C393 C396 1.363 . S
N394 C396 1.356 . S
N394 H406 0.984 . S
N394 H407 0.985 . S
N395 C397 1.356 . S
N395 H400 0.984 . S
N395 H401 0.985 . S
C396 C390 1.379 . S
C396 C393 1.363 . S
C396 N394 1.356 . S
C397 C391 1.363 . S
C397 C392 1.379 . S
C397 N395 1.356 . S
N398 C390 1.356 . S
N398 H404 0.984 . S
N398 H405 0.984 . S
N399 C392 1.356 . S
N399 H402 0.984 . S
N399 H403 0.985 . S
H400 N395 0.984 . S
H401 N395 0.985 . S
H402 N399 0.984 . S
H403 N399 0.985 . S
H404 N398 0.984 . S
H405 N398 0.984 . S
H406 N394 0.984 . S
H407 N394 0.985 . S
C408 C409 1.363 . S
C408 C414 1.379 . S
C408 N416 1.356 . S
C409 C408 1.363 . S
C409 C415 1.363 . S
C410 C411 1.363 . S
C410 C415 1.379 . S
C410 N417 1.356 . S
C411 C410 1.363 . S
C411 C414 1.363 . S
N412 C414 1.356 . S
N412 H424 0.984 . S
N412 H425 0.985 . S
N413 C415 1.356 . S
N413 H418 0.984 . S
N413 H419 0.985 . S
C414 C408 1.379 . S
C414 C411 1.363 . S
C414 N412 1.356 . S
C415 C409 1.363 . S
C415 C410 1.379 . S
C415 N413 1.356 . S
N416 C408 1.356 . S
N416 H422 0.984 . S
N416 H423 0.984 . S
N417 C410 1.356 . S
N417 H420 0.984 . S
N417 H421 0.985 . S
H418 N413 0.984 . S
H419 N413 0.985 . S
H420 N417 0.984 . S
H421 N417 0.985 . S
H422 N416 0.984 . S
H423 N416 0.984 . S
H424 N412 0.984 . S
H425 N412 0.985 . S
C426 C427 1.363 . S
C426 C432 1.379 . S
C426 N434 1.356 . S
C427 C426 1.363 . S
C427 C433 1.363 . S
C428 C429 1.363 . S
C428 C433 1.379 . S
C428 N435 1.356 . S
C429 C428 1.363 . S
C429 C432 1.363 . S
N430 C432 1.356 . S
N430 H442 0.984 . S
N430 H443 0.985 . S
N431 C433 1.356 . S
N431 H436 0.984 . S
N431 H437 0.985 . S
C432 C426 1.379 . S
C432 C429 1.363 . S
C432 N430 1.356 . S
C433 C427 1.363 . S
C433 C428 1.379 . S
C433 N431 1.356 . S
N434 C426 1.356 . S
N434 H440 0.984 . S
N434 H441 0.984 . S
N435 C428 1.356 . S
N435 H438 0.984 . S
N435 H439 0.985 . S
H436 N431 0.984 . S
H437 N431 0.985 . S
H438 N435 0.984 . S
H439 N435 0.985 . S
H440 N434 0.984 . S
H441 N434 0.984 . S
H442 N430 0.984 . S
H443 N430 0.985 . S
C444 C445 1.363 . S
C444 C450 1.379 . S
C444 N452 1.356 . S
C445 C444 1.363 . S
C445 C451 1.363 . S
C446 C447 1.363 . S
C446 C451 1.379 . S
C446 N453 1.356 . S
C447 C446 1.363 . S
C447 C450 1.363 . S
N448 C450 1.356 . S
N448 H460 0.984 . S
N448 H461 0.985 . S
N449 C451 1.356 . S
N449 H454 0.984 . S
N449 H455 0.985 . S
C450 C444 1.379 . S
C450 C447 1.363 . S
C450 N448 1.356 . S
C451 C445 1.363 . S
C451 C446 1.379 . S
C451 N449 1.356 . S
N452 C444 1.356 . S
N452 H458 0.984 . S
N452 H459 0.984 . S
N453 C446 1.356 . S
N453 H456 0.984 . S
N453 H457 0.985 . S
H454 N449 0.984 . S
H455 N449 0.985 . S
H456 N453 0.984 . S
H457 N453 0.985 . S
H458 N452 0.984 . S
H459 N452 0.984 . S
H460 N448 0.984 . S
H461 N448 0.985 . S
C462 C463 1.363 . S
C462 C468 1.379 . S
C462 N470 1.356 . S
C463 C462 1.363 . S
C463 C469 1.363 . S
C464 C465 1.363 . S
C464 C469 1.379 . S
C464 N471 1.356 . S
C465 C464 1.363 . S
C465 C468 1.363 . S
N466 C468 1.356 . S
N466 H478 0.984 . S
N466 H479 0.985 . S
N467 C469 1.356 . S
N467 H472 0.984 . S
N467 H473 0.985 . S
C468 C462 1.379 . S
C468 C465 1.363 . S
C468 N466 1.356 . S
C469 C463 1.363 . S
C469 C464 1.379 . S
C469 N467 1.356 . S
N470 C462 1.356 . S
N470 H476 0.984 . S
N470 H477 0.984 . S
N471 C464 1.356 . S
N471 H474 0.984 . S
N471 H475 0.985 . S
H472 N467 0.984 . S
H473 N467 0.985 . S
H474 N471 0.984 . S
H475 N471 0.985 . S
H476 N470 0.984 . S
H477 N470 0.984 . S
H478 N466 0.984 . S
H479 N466 0.985 . S
C480 C481 1.363 . S
C480 C486 1.379 1_455 S
C480 N488 1.356 . S
C481 C480 1.363 . S
C481 C487 1.363 1_565 S
C482 C483 1.363 . S
C482 C487 1.379 1_655 S
C482 N489 1.356 . S
C483 C482 1.363 . S
C483 C486 1.363 1_545 S
N484 C486 1.356 . S
N484 H496 0.984 . S
N484 H497 0.985 1_565 S
N485 C487 1.356 . S
N485 H490 0.984 1_545 S
N485 H491 0.985 . S
C486 C480 1.379 1_655 S
C486 C483 1.363 1_565 S
C486 N484 1.356 . S
C487 C481 1.363 1_545 S
C487 C482 1.379 1_455 S
C487 N485 1.356 . S
N488 C480 1.356 . S
N488 H494 0.984 . S
N488 H495 0.984 . S
N489 C482 1.356 . S
N489 H492 0.984 . S
N489 H493 0.985 . S
H490 N485 0.984 1_565 S
H491 N485 0.985 . S
H492 N489 0.984 . S
H493 N489 0.985 . S
H494 N488 0.984 . S
H495 N488 0.984 . S
H496 N484 0.984 . S
H497 N484 0.985 1_545 S
C498 C499 1.363 1_655 S
C498 C504 1.379 1_545 S
C498 N506 1.356 . S
C499 C498 1.363 1_455 S
C499 C505 1.363 . S
C500 C501 1.363 1_455 S
C500 C505 1.379 1_565 S
C500 N507 1.356 . S
C501 C500 1.363 1_655 S
C501 C504 1.363 . S
N502 C504 1.356 . S
N502 H514 0.984 . S
N502 H515 0.985 . S
N503 C505 1.356 . S
N503 H508 0.984 . S
N503 H509 0.985 . S
C504 C498 1.379 1_565 S
C504 C501 1.363 . S
C504 N502 1.356 . S
C505 C499 1.363 . S
C505 C500 1.379 1_545 S
C505 N503 1.356 . S
N506 C498 1.356 . S
N506 H512 0.984 . S
N506 H513 0.984 1_655 S
N507 C500 1.356 . S
N507 H510 0.984 1_455 S
N507 H511 0.985 . S
H508 N503 0.984 . S
H509 N503 0.985 . S
H510 N507 0.984 1_655 S
H511 N507 0.985 . S
H512 N506 0.984 . S
H513 N506 0.984 1_455 S
H514 N502 0.984 . S
H515 N502 0.985 . S
C516 C517 1.363 . S
C516 C522 1.379 1_655 S
C516 N524 1.356 . S
C517 C516 1.363 . S
C517 C523 1.363 1_565 S
C518 C519 1.363 . S
C518 C523 1.379 1_455 S
C518 N525 1.356 . S
C519 C518 1.363 . S
C519 C522 1.363 1_545 S
N520 C522 1.356 . S
N520 H532 0.984 . S
N520 H533 0.985 1_565 S
N521 C523 1.356 . S
N521 H526 0.984 1_545 S
N521 H527 0.985 . S
C522 C516 1.379 1_455 S
C522 C519 1.363 1_565 S
C522 N520 1.356 . S
C523 C517 1.363 1_545 S
C523 C518 1.379 1_655 S
C523 N521 1.356 . S
N524 C516 1.356 . S
N524 H530 0.984 . S
N524 H531 0.984 . S
N525 C518 1.356 . S
N525 H528 0.984 . S
N525 H529 0.985 . S
H526 N521 0.984 1_565 S
H527 N521 0.985 . S
H528 N525 0.984 . S
H529 N525 0.985 . S
H530 N524 0.984 . S
H531 N524 0.984 . S
H532 N520 0.984 . S
H533 N520 0.985 1_545 S
C534 C535 1.363 1_655 S
C534 C540 1.379 1_565 S
C534 N542 1.356 . S
C535 C534 1.363 1_455 S
C535 C541 1.363 . S
C536 C537 1.363 1_455 S
C536 C541 1.379 1_545 S
C536 N543 1.356 . S
C537 C536 1.363 1_655 S
C537 C540 1.363 . S
N538 C540 1.356 . S
N538 H550 0.984 . S
N538 H551 0.985 . S
N539 C541 1.356 . S
N539 H544 0.984 . S
N539 H545 0.985 . S
C540 C534 1.379 1_545 S
C540 C537 1.363 . S
C540 N538 1.356 . S
C541 C535 1.363 . S
C541 C536 1.379 1_565 S
C541 N539 1.356 . S
N542 C534 1.356 . S
N542 H548 0.984 . S
N542 H549 0.984 1_655 S
N543 C536 1.356 . S
N543 H546 0.984 1_455 S
N543 H547 0.985 . S
H544 N539 0.984 . S
H545 N539 0.985 . S
H546 N543 0.984 1_655 S
H547 N543 0.985 . S
H548 N542 0.984 . S
H549 N542 0.984 1_455 S
H550 N538 0.984 . S
H551 N538 0.985 . S
C552 C553 1.363 . S
C552 C558 1.379 . S
C552 N560 1.356 . S
C553 C552 1.363 . S
C553 C559 1.363 1_565 S
C554 C555 1.363 . S
C554 C559 1.379 . S
C554 N561 1.356 . S
C555 C554 1.363 . S
C555 C558 1.363 1_545 S
N556 C558 1.356 . S
N556 H568 0.984 . S
N556 H569 0.985 . S
N557 C559 1.356 . S
N557 H562 0.984 . S
N557 H563 0.985 . S
C558 C552 1.379 . S
C558 C555 1.363 1_565 S
C558 N556 1.356 . S
C559 C553 1.363 1_545 S
C559 C554 1.379 . S
C559 N557 1.356 . S
N560 C552 1.356 . S
N560 H566 0.984 . S
N560 H567 0.984 . S
N561 C554 1.356 . S
N561 H564 0.984 . S
N561 H565 0.985 . S
H562 N557 0.984 . S
H563 N557 0.985 . S
H564 N561 0.984 . S
H565 N561 0.985 . S
H566 N560 0.984 . S
H567 N560 0.984 . S
H568 N556 0.984 . S
H569 N556 0.985 . S
C570 C571 1.363 . S
C570 C576 1.379 . S
C570 N578 1.356 . S
C571 C570 1.363 . S
C571 C577 1.363 1_655 S
C572 C573 1.363 . S
C572 C577 1.379 . S
C572 N579 1.356 . S
C573 C572 1.363 . S
C573 C576 1.363 1_455 S
N574 C576 1.356 . S
N574 H586 0.984 . S
N574 H587 0.985 . S
N575 C577 1.356 . S
N575 H580 0.984 . S
N575 H581 0.985 . S
C576 C570 1.379 . S
C576 C573 1.363 1_655 S
C576 N574 1.356 . S
C577 C571 1.363 1_455 S
C577 C572 1.379 . S
C577 N575 1.356 . S
N578 C570 1.356 . S
N578 H584 0.984 . S
N578 H585 0.984 . S
N579 C572 1.356 . S
N579 H582 0.984 . S
N579 H583 0.985 . S
H580 N575 0.984 . S
H581 N575 0.985 . S
H582 N579 0.984 . S
H583 N579 0.985 . S
H584 N578 0.984 . S
H585 N578 0.984 . S
H586 N574 0.984 . S
H587 N574 0.985 . S
C588 C589 1.363 . S
C588 C594 1.379 . S
C588 N596 1.356 . S
C589 C588 1.363 . S
C589 C595 1.363 1_545 S
C590 C591 1.363 . S
C590 C595 1.379 . S
C590 N597 1.356 . S
C591 C590 1.363 . S
C591 C594 1.363 1_565 S
N592 C594 1.356 . S
N592 H604 0.984 . S
N592 H605 0.985 . S
N593 C595 1.356 . S
N593 H598 0.984 . S
N593 H599 0.985 . S
C594 C588 1.379 . S
C594 C591 1.363 1_545 S
C594 N592 1.356 . S
C595 C589 1.363 1_565 S
C595 C590 1.379 . S
C595 N593 1.356 . S
N596 C588 1.356 . S
N596 H602 0.984 . S
N596 H603 0.984 . S
N597 C590 1.356 . S
N597 H600 0.984 . S
N597 H601 0.985 . S
H598 N593 0.984 . S
H599 N593 0.985 . S
H600 N597 0.984 . S
H601 N597 0.985 . S
H602 N596 0.984 . S
H603 N596 0.984 . S
H604 N592 0.984 . S
H605 N592 0.985 . S
C606 C607 1.363 1_455 S
C606 C612 1.379 . S
C606 N614 1.356 . S
C607 C606 1.363 1_655 S
C607 C613 1.363 . S
C608 C609 1.363 1_655 S
C608 C613 1.379 . S
C608 N615 1.356 . S
C609 C608 1.363 1_455 S
C609 C612 1.363 . S
N610 C612 1.356 . S
N610 H622 0.984 . S
N610 H623 0.985 . S
N611 C613 1.356 . S
N611 H616 0.984 . S
N611 H617 0.985 . S
C612 C606 1.379 . S
C612 C609 1.363 . S
C612 N610 1.356 . S
C613 C607 1.363 . S
C613 C608 1.379 . S
C613 N611 1.356 . S
N614 C606 1.356 . S
N614 H620 0.984 . S
N614 H621 0.984 . S
N615 C608 1.356 . S
N615 H618 0.984 . S
N615 H619 0.985 . S
H616 N611 0.984 . S
H617 N611 0.985 . S
H618 N615 0.984 . S
H619 N615 0.985 . S
H620 N614 0.984 . S
H621 N614 0.984 . S
H622 N610 0.984 . S
H623 N610 0.985 . S
C265 C18 1.690 . S
C267 C150 1.690 . S
C283 C183 1.690 . S
C285 C51 1.690 . S
C301 C84 1.690 . S
C303 C216 1.690 . S
C319 C249 1.690 . S
C321 C117 1.690 . S
C337 C186 0.689 . S
C339 C21 0.689 . S
C355 C219 0.689 . S
C357 C54 0.689 . S
C373 C87 0.689 . S
C375 C252 0.689 . S
C391 C153 0.689 . S
C393 C120 0.689 . S
C409 C106 1.427 . S
C411 C205 1.427 . S
C427 C7 1.427 . S
C429 C238 1.427 . S
C445 C40 1.427 . S
C447 C139 1.427 . S
C463 C73 1.427 . S
C465 C172 1.427 . S
C481 N2 0.920 . S
C483 N68 0.920 . S
C499 N35 0.919 . S
C501 N101 0.919 . S
C517 N200 0.919 . S
C519 N134 0.919 . S
C535 N233 0.920 . S
C537 N167 0.920 . S
C553 N13 1.256 . S
C555 N79 1.256 . S
C571 N112 1.256 . S
C573 N46 1.256 . S
C589 N145 1.256 . S
C591 N211 1.256 . S
C607 N178 1.256 . S
C609 N244 1.256 . S
