# Generated by pormake.
# Topology vmd, (6)-cn, num edge types: 1
# Building blocks:
#     Node 0, Type 0, BuildingBlock: IZENUY_clean_sbu_0, # of connection points: 6
#     Node 1, Type 0, BuildingBlock: IZENUY_clean_sbu_0, # of connection points: 6
#     Node 2, Type 0, BuildingBlock: IZENUY_clean_sbu_0, # of connection points: 6
#     Node 3, Type 0, BuildingBlock: IZENUY_clean_sbu_0, # of connection points: 6
#     Node 4, Type 0, BuildingBlock: IZENUY_clean_sbu_0, # of connection points: 6
#     Node 5, Type 0, BuildingBlock: IZENUY_clean_sbu_0, # of connection points: 6
#     Node 6, Type 0, BuildingBlock: IZENUY_clean_sbu_0, # of connection points: 6
#     Node 7, Type 0, BuildingBlock: IZENUY_clean_sbu_0, # of connection points: 6
#     Edge 8, Type (0, 0), BuildingBlock: TEMPAE_clean_linker_10, # of connection points: 2
#     Edge 9, Type (0, 0), BuildingBlock: TEMPAE_clean_linker_10, # of connection points: 2
#     Edge 10, Type (0, 0), BuildingBlock: TEMPAE_clean_linker_10, # of connection points: 2
#     Edge 11, Type (0, 0), BuildingBlock: TEMPAE_clean_linker_10, # of connection points: 2
#     Edge 12, Type (0, 0), BuildingBlock: TEMPAE_clean_linker_10, # of connection points: 2
#     Edge 13, Type (0, 0), BuildingBlock: TEMPAE_clean_linker_10, # of connection points: 2
#     Edge 14, Type (0, 0), BuildingBlock: TEMPAE_clean_linker_10, # of connection points: 2
#     Edge 15, Type (0, 0), BuildingBlock: TEMPAE_clean_linker_10, # of connection points: 2
#     Edge 16, Type (0, 0), BuildingBlock: TEMPAE_clean_linker_10, # of connection points: 2
#     Edge 17, Type (0, 0), BuildingBlock: TEMPAE_clean_linker_10, # of connection points: 2
#     Edge 18, Type (0, 0), BuildingBlock: TEMPAE_clean_linker_10, # of connection points: 2
#     Edge 19, Type (0, 0), BuildingBlock: TEMPAE_clean_linker_10, # of connection points: 2
#     Edge 20, Type (0, 0), BuildingBlock: TEMPAE_clean_linker_10, # of connection points: 2
#     Edge 21, Type (0, 0), BuildingBlock: TEMPAE_clean_linker_10, # of connection points: 2
#     Edge 22, Type (0, 0), BuildingBlock: TEMPAE_clean_linker_10, # of connection points: 2
#     Edge 23, Type (0, 0), BuildingBlock: TEMPAE_clean_linker_10, # of connection points: 2
#     Edge 24, Type (0, 0), BuildingBlock: TEMPAE_clean_linker_10, # of connection points: 2
#     Edge 25, Type (0, 0), BuildingBlock: TEMPAE_clean_linker_10, # of connection points: 2
#     Edge 26, Type (0, 0), BuildingBlock: TEMPAE_clean_linker_10, # of connection points: 2
#     Edge 27, Type (0, 0), BuildingBlock: TEMPAE_clean_linker_10, # of connection points: 2
#     Edge 28, Type (0, 0), BuildingBlock: TEMPAE_clean_linker_10, # of connection points: 2
#     Edge 29, Type (0, 0), BuildingBlock: TEMPAE_clean_linker_10, # of connection points: 2
#     Edge 30, Type (0, 0), BuildingBlock: TEMPAE_clean_linker_10, # of connection points: 2
#     Edge 31, Type (0, 0), BuildingBlock: TEMPAE_clean_linker_10, # of connection points: 2
# Relax obj value: 0.251
# Max RMSD: 0.249
# Mean RMSD: 0.249
data_MOF--net-vmd--node1-IZENUY_clean_sbu_0--edge1-TEMPAE_clean_linker_10
_symmetry_space_group_name_H-M    P1
_symmetry_Int_Tables_number       1
_symmetry_cell_setting            triclinic
loop_
_symmetry_equiv_pos_as_xyz
'x, y, z'
_cell_length_a     47.821664
_cell_length_b     26.679424
_cell_length_c     28.844888
_cell_angle_alpha  90.014287
_cell_angle_beta   97.533905
_cell_angle_gamma 89.993129
loop_
_atom_site_label
_atom_site_type_symbol
_atom_site_fract_x
_atom_site_fract_y
_atom_site_fract_z
_atom_type_partial_charge
Fe0 Fe 0.16424 0.45923 0.25841 0.0
Fe1 Fe 0.16738 0.36278 0.31569 0.0
O2 O 0.18164 0.40269 0.27596 0.0
Fe3 Fe 0.21332 0.38651 0.25418 0.0
O4 O 0.23098 0.44321 0.27793 0.0
O5 O 0.19658 0.49362 0.25002 0.0
O6 O 0.16908 0.48222 0.31784 0.0
C7 C 0.16118 0.45927 0.35201 0.0
C8 C 0.17879 0.42763 0.17554 0.0
O9 O 0.15284 0.41417 0.34773 0.0
C10 C 0.189 0.29455 0.25252 0.0
O11 O 0.1286 0.43549 0.26342 0.0
O12 O 0.13481 0.35497 0.27681 0.0
O13 O 0.20303 0.41627 0.19654 0.0
O14 O 0.15889 0.43887 0.19829 0.0
C15 C 0.2226 0.35457 0.34947 0.0
O16 O 0.18017 0.30414 0.29125 0.0
O17 O 0.19784 0.32937 0.22878 0.0
C18 C 0.11896 0.39119 0.263 0.0
O19 O 0.19864 0.36868 0.35724 0.0
O20 O 0.22879 0.35287 0.30797 0.0
C21 C 0.22217 0.48676 0.26669 0.0
Fe22 Fe 0.86192 0.45703 0.2385 0.0
Fe23 Fe 0.85935 0.36043 0.1814 0.0
O24 O 0.84478 0.40027 0.22086 0.0
Fe25 Fe 0.81303 0.38383 0.24229 0.0
O26 O 0.79526 0.44028 0.2181 0.0
O27 O 0.82939 0.49107 0.24636 0.0
O28 O 0.85732 0.4799 0.17907 0.0
C29 C 0.86545 0.45701 0.14504 0.0
C30 C 0.84704 0.42564 0.32117 0.0
O31 O 0.87379 0.41191 0.14933 0.0
C32 C 0.83783 0.29217 0.24461 0.0
O33 O 0.89771 0.4337 0.234 0.0
O34 O 0.89187 0.35312 0.22054 0.0
O35 O 0.82293 0.41393 0.2999 0.0
O36 O 0.86705 0.43684 0.29866 0.0
C37 C 0.80424 0.35145 0.14715 0.0
O38 O 0.84674 0.30174 0.20596 0.0
O39 O 0.82861 0.32691 0.26806 0.0
C40 C 0.90753 0.38953 0.23446 0.0
O41 O 0.82819 0.3658 0.13956 0.0
O42 O 0.7979 0.34981 0.18854 0.0
C43 C 0.80389 0.48396 0.22926 0.0
Fe44 Fe 0.81167 0.63465 0.73802 0.0
Fe45 Fe 0.86036 0.65961 0.68279 0.0
O46 O 0.84453 0.61914 0.72014 0.0
Fe47 Fe 0.86151 0.56261 0.73904 0.0
O48 O 0.82861 0.52758 0.74378 0.0
O49 O 0.79532 0.57819 0.71228 0.0
O50 O 0.79795 0.66729 0.68267 0.0
C51 C 0.80598 0.66424 0.64245 0.0
C52 C 0.84364 0.59413 0.81952 0.0
O53 O 0.83095 0.65301 0.63811 0.0
C54 C 0.90727 0.63133 0.73915 0.0
O55 O 0.82575 0.69188 0.76506 0.0
O56 O 0.8457 0.71796 0.70522 0.0
O57 O 0.86448 0.58272 0.79905 0.0
O58 O 0.81993 0.60504 0.7963 0.0
C59 C 0.86849 0.56354 0.64698 0.0
O60 O 0.89147 0.66766 0.72519 0.0
O61 O 0.89758 0.58696 0.73787 0.0
C62 C 0.83506 0.72706 0.74248 0.0
O63 O 0.8767 0.60863 0.65264 0.0
O64 O 0.85907 0.54014 0.67958 0.0
C65 C 0.80355 0.53469 0.72424 0.0
Fe66 Fe 0.16519 0.56388 0.75834 0.0
Fe67 Fe 0.2149 0.63631 0.75976 0.0
O68 O 0.18185 0.62071 0.77708 0.0
Fe69 Fe 0.16556 0.66134 0.8136 0.0
O70 O 0.14949 0.61045 0.84437 0.0
O71 O 0.16727 0.54179 0.81782 0.0
O72 O 0.19836 0.52936 0.75455 0.0
C73 C 0.22326 0.5367 0.77474 0.0
C74 C 0.11895 0.63171 0.7572 0.0
O75 O 0.23128 0.58035 0.78678 0.0
C76 C 0.19076 0.72826 0.75315 0.0
O77 O 0.16257 0.58366 0.69828 0.0
O78 O 0.20723 0.60552 0.70186 0.0
O79 O 0.13452 0.66833 0.77095 0.0
O80 O 0.12891 0.58754 0.7587 0.0
C81 C 0.2193 0.67087 0.85426 0.0
O82 O 0.20071 0.69291 0.73151 0.0
O83 O 0.17977 0.71961 0.79018 0.0
C84 C 0.18361 0.59484 0.67822 0.0
O85 O 0.22802 0.67082 0.81449 0.0
O86 O 0.19493 0.656 0.85854 0.0
C87 C 0.1575 0.56522 0.85008 0.0
Fe88 Fe 0.66532 0.95916 0.26835 0.0
Fe89 Fe 0.66755 0.8615 0.32363 0.0
O90 O 0.68229 0.90193 0.28491 0.0
Fe91 Fe 0.7141 0.88569 0.26334 0.0
O92 O 0.73189 0.94152 0.28841 0.0
O93 O 0.69795 0.99321 0.26132 0.0
O94 O 0.66977 0.98094 0.32813 0.0
C95 C 0.66155 0.95742 0.36168 0.0
C96 C 0.68035 0.93031 0.18511 0.0
O97 O 0.65318 0.91238 0.35667 0.0
C98 C 0.68954 0.79384 0.26 0.0
O99 O 0.62946 0.93578 0.27208 0.0
O100 O 0.63507 0.85491 0.28427 0.0
O101 O 0.70427 0.91683 0.20605 0.0
O102 O 0.66032 0.94033 0.20793 0.0
C103 C 0.72249 0.8514 0.35799 0.0
O104 O 0.68016 0.80316 0.29833 0.0
O105 O 0.69859 0.82894 0.23677 0.0
C106 C 0.61958 0.89162 0.27054 0.0
O107 O 0.69863 0.86628 0.36544 0.0
O108 O 0.72917 0.851 0.31679 0.0
C109 C 0.72345 0.98541 0.27797 0.0
Fe110 Fe 0.36273 0.96143 0.2294 0.0
Fe111 Fe 0.3599 0.86487 0.1723 0.0
O112 O 0.34545 0.90472 0.21193 0.0
Fe113 Fe 0.31365 0.88838 0.23328 0.0
O114 O 0.29613 0.945 0.2098 0.0
O115 O 0.33034 0.99599 0.23715 0.0
O116 O 0.35824 0.9842 0.16987 0.0
C117 C 0.36631 0.96103 0.13598 0.0
C118 C 0.34769 0.93123 0.3123 0.0
O119 O 0.37492 0.91614 0.14076 0.0
C120 C 0.33724 0.79602 0.23393 0.0
O121 O 0.39839 0.93728 0.22521 0.0
O122 O 0.39218 0.85663 0.21188 0.0
O123 O 0.32379 0.91776 0.29127 0.0
O124 O 0.3677 0.94169 0.28957 0.0
C125 C 0.30459 0.85966 0.13743 0.0
O126 O 0.34649 0.80614 0.19568 0.0
O127 O 0.32881 0.83073 0.25828 0.0
C128 C 0.40792 0.89284 0.22632 0.0
O129 O 0.32903 0.87162 0.13039 0.0
O130 O 0.29822 0.8561 0.17873 0.0
C131 C 0.30476 0.98861 0.22075 0.0
Fe132 Fe 0.30797 0.14155 0.73128 0.0
Fe133 Fe 0.35715 0.17735 0.68184 0.0
O134 O 0.34169 0.12975 0.7136 0.0
Fe135 Fe 0.35926 0.07149 0.72542 0.0
O136 O 0.32886 0.03381 0.70185 0.0
O137 O 0.29512 0.07747 0.72702 0.0
O138 O 0.2921 0.15034 0.66969 0.0
C139 C 0.30178 0.18171 0.64299 0.0
C140 C 0.33771 0.09735 0.80982 0.0
O141 O 0.32397 0.20492 0.65748 0.0
C142 C 0.40598 0.13231 0.73074 0.0
O143 O 0.3147 0.20854 0.74078 0.0
O144 O 0.35927 0.22065 0.73134 0.0
O145 O 0.35007 0.06787 0.78463 0.0
O146 O 0.32155 0.13228 0.79272 0.0
C147 C 0.36306 0.09177 0.62996 0.0
O148 O 0.3937 0.15948 0.69882 0.0
O149 O 0.3922 0.10079 0.75094 0.0
C150 C 0.33732 0.23376 0.74876 0.0
O151 O 0.35502 0.13694 0.63088 0.0
O152 O 0.37069 0.06736 0.66729 0.0
C153 C 0.30382 0.03761 0.71061 0.0
Fe154 Fe 0.66864 0.17616 0.81523 0.0
Fe155 Fe 0.6662 0.07016 0.77175 0.0
O156 O 0.68386 0.12837 0.78331 0.0
Fe157 Fe 0.71749 0.13991 0.76522 0.0
O158 O 0.73362 0.14841 0.8267 0.0
O159 O 0.70199 0.20332 0.83938 0.0
O160 O 0.67079 0.13583 0.86618 0.0
C161 C 0.66278 0.09068 0.86727 0.0
C162 C 0.68846 0.23242 0.74825 0.0
O163 O 0.655 0.06619 0.83004 0.0
C164 C 0.68735 0.09594 0.68699 0.0
O165 O 0.63201 0.15863 0.79846 0.0
O166 O 0.63323 0.09956 0.74655 0.0
O167 O 0.71098 0.20694 0.75602 0.0
O168 O 0.66651 0.21948 0.76575 0.0
C169 C 0.72155 0.03601 0.78579 0.0
O170 O 0.67516 0.06643 0.71237 0.0
O171 O 0.70359 0.13087 0.70391 0.0
C172 C 0.61959 0.13133 0.76674 0.0
O173 O 0.69662 0.03239 0.79508 0.0
O174 O 0.73016 0.07574 0.76908 0.0
C175 C 0.72413 0.17981 0.85361 0.0
C176 C 0.30715 0.2107 0.56359 0.0
C177 C 0.28898 0.19324 0.59462 0.0
C178 C 0.29686 0.23122 0.52027 0.0
C179 C 0.26747 0.23407 0.50694 0.0
C180 C 0.2489 0.21249 0.53605 0.0
C181 C 0.2599 0.19233 0.57999 0.0
C182 C 0.31753 0.25305 0.49031 0.0
C183 C 0.21744 0.21285 0.52166 0.0
C184 C 0.24216 0.34657 0.43277 0.0
C185 C 0.23897 0.32644 0.38759 0.0
C186 C 0.25136 0.31674 0.47178 0.0
C187 C 0.25667 0.26506 0.46555 0.0
C188 C 0.25394 0.24469 0.41978 0.0
C189 C 0.2453 0.27582 0.38121 0.0
C190 C 0.25519 0.34058 0.51972 0.0
C191 C 0.25875 0.18968 0.41145 0.0
H192 H 0.32976 0.21056 0.57413 0.0
H193 H 0.2458 0.17838 0.60354 0.0
H194 H 0.31353 0.23778 0.45429 0.0
H195 H 0.31469 0.29431 0.48788 0.0
H196 H 0.3398 0.24504 0.50457 0.0
H197 H 0.20623 0.18877 0.54466 0.0
H198 H 0.20936 0.25171 0.52323 0.0
H199 H 0.2124 0.19974 0.48498 0.0
H200 H 0.23666 0.3855 0.43761 0.0
H201 H 0.24183 0.25985 0.34635 0.0
H202 H 0.27719 0.33505 0.53661 0.0
H203 H 0.24108 0.32234 0.54226 0.0
H204 H 0.25056 0.38141 0.51838 0.0
H205 H 0.2621 0.18233 0.3747 0.0
H206 H 0.2399 0.16834 0.4188 0.0
H207 H 0.27715 0.17501 0.43492 0.0
C208 C 0.71911 0.20865 0.93321 0.0
C209 C 0.73709 0.19096 0.90197 0.0
C210 C 0.72961 0.22875 0.9766 0.0
C211 C 0.75903 0.23096 0.98977 0.0
C212 C 0.77739 0.2091 0.96045 0.0
C213 C 0.76618 0.18935 0.91645 0.0
C214 C 0.70916 0.25091 0.00679 0.0
C215 C 0.80886 0.20877 0.97468 0.0
C216 C 0.78493 0.34323 0.06376 0.0
C217 C 0.78801 0.32322 0.10896 0.0
C218 C 0.77563 0.31341 0.0248 0.0
C219 C 0.7701 0.26182 0.03111 0.0
C220 C 0.77279 0.24153 0.0769 0.0
C221 C 0.78154 0.27268 0.11542 0.0
C222 C 0.77188 0.33716 0.97683 0.0
C223 C 0.76777 0.18661 0.08531 0.0
H224 H 0.69649 0.20905 0.92278 0.0
H225 H 0.78013 0.17519 0.89274 0.0
H226 H 0.71318 0.23559 0.04278 0.0
H227 H 0.71219 0.29212 0.00924 0.0
H228 H 0.68682 0.24325 0.99269 0.0
H229 H 0.81985 0.1844 0.95158 0.0
H230 H 0.81721 0.24744 0.97305 0.0
H231 H 0.81389 0.19563 0.01133 0.0
H232 H 0.79055 0.38209 0.05888 0.0
H233 H 0.78493 0.25679 0.15031 0.0
H234 H 0.74981 0.33204 0.96005 0.0
H235 H 0.78582 0.31855 0.95423 0.0
H236 H 0.77676 0.3779 0.9781 0.0
H237 H 0.74922 0.17219 0.06201 0.0
H238 H 0.76455 0.17935 0.12214 0.0
H239 H 0.78647 0.16497 0.07773 0.0
C240 C 0.72128 0.77851 0.40947 0.0
C241 C 0.73684 0.81836 0.39417 0.0
C242 C 0.73149 0.75065 0.44904 0.0
C243 C 0.75797 0.76303 0.47404 0.0
C244 C 0.77441 0.80195 0.45763 0.0
C245 C 0.76357 0.8294 0.41758 0.0
C246 C 0.71344 0.70922 0.46501 0.0
C247 C 0.80295 0.81554 0.48323 0.0
C248 C 0.7722 0.72674 0.60243 0.0
C249 C 0.78901 0.68411 0.6002 0.0
C250 C 0.76169 0.75272 0.56144 0.0
C251 C 0.76817 0.73533 0.51758 0.0
C252 C 0.78398 0.69087 0.51514 0.0
C253 C 0.79414 0.66578 0.55649 0.0
C254 C 0.74458 0.79977 0.56519 0.0
C255 C 0.79118 0.67087 0.46912 0.0
H256 H 0.7005 0.77024 0.39119 0.0
H257 H 0.77535 0.8606 0.40583 0.0
H258 H 0.72547 0.67359 0.46874 0.0
H259 H 0.70746 0.71862 0.49987 0.0
H260 H 0.69388 0.70304 0.44034 0.0
H261 H 0.8136 0.84508 0.4648 0.0
H262 H 0.80059 0.82916 0.51886 0.0
H263 H 0.81671 0.78191 0.48732 0.0
H264 H 0.76865 0.7414 0.63624 0.0
H265 H 0.80725 0.63279 0.55482 0.0
H266 H 0.72397 0.79662 0.5427 0.0
H267 H 0.7558 0.83237 0.55249 0.0
H268 H 0.74069 0.80739 0.60168 0.0
H269 H 0.77174 0.66587 0.44398 0.0
H270 H 0.8025 0.63443 0.47318 0.0
H271 H 0.80469 0.69826 0.45351 0.0
C272 C 0.28781 0.85908 0.05282 0.0
C273 C 0.28673 0.83807 0.0971 0.0
C274 C 0.27719 0.83326 0.01208 0.0
C275 C 0.26554 0.78493 0.01582 0.0
C276 C 0.26338 0.7643 0.06054 0.0
C277 C 0.27391 0.79137 0.10084 0.0
C278 C 0.27944 0.85696 0.96513 0.0
C279 C 0.251 0.71288 0.0658 0.0
C280 C 0.21564 0.73556 0.91397 0.0
C281 C 0.23281 0.70219 0.89281 0.0
C282 C 0.22617 0.763 0.9536 0.0
C283 C 0.25464 0.75685 0.97284 0.0
C284 C 0.27244 0.72435 0.9509 0.0
C285 C 0.26129 0.69744 0.91064 0.0
C286 C 0.20666 0.79803 0.97524 0.0
C287 C 0.30298 0.71723 0.9706 0.0
H288 H 0.29809 0.89502 0.05008 0.0
H289 H 0.27375 0.77464 0.13507 0.0
H290 H 0.29464 0.83548 0.94698 0.0
H291 H 0.25878 0.85585 0.9426 0.0
H292 H 0.28665 0.89654 0.96847 0.0
H293 H 0.25034 0.70274 0.103 0.0
H294 H 0.22926 0.7111 0.0469 0.0
H295 H 0.26373 0.6844 0.0499 0.0
H296 H 0.19364 0.73986 0.8996 0.0
H297 H 0.27446 0.6716 0.8942 0.0
H298 H 0.21544 0.83658 0.97709 0.0
H299 H 0.20487 0.78605 0.01156 0.0
H300 H 0.18518 0.79917 0.95524 0.0
H301 H 0.31408 0.75384 0.97262 0.0
H302 H 0.31407 0.69111 0.94918 0.0
H303 H 0.30444 0.70229 0.00674 0.0
C304 C 0.29321 0.07751 0.23838 0.0
C305 C 0.28419 0.03041 0.22064 0.0
C306 C 0.27403 0.11685 0.24103 0.0
C307 C 0.24502 0.10924 0.22526 0.0
C308 C 0.23575 0.06207 0.20673 0.0
C309 C 0.25543 0.02316 0.2047 0.0
C310 C 0.28485 0.16661 0.26105 0.0
C311 C 0.20504 0.05264 0.18932 0.0
C312 C 0.19873 0.205 0.27584 0.0
C313 C 0.19668 0.24238 0.24131 0.0
C314 C 0.21278 0.15964 0.26979 0.0
C315 C 0.2248 0.15132 0.22809 0.0
C316 C 0.22053 0.18695 0.1915 0.0
C317 C 0.20652 0.23199 0.19853 0.0
C318 C 0.21639 0.12204 0.30924 0.0
C319 C 0.23275 0.17942 0.14631 0.0
H320 H 0.31532 0.08363 0.25085 0.0
H321 H 0.24822 0.98694 0.19092 0.0
H322 H 0.28031 0.19646 0.23434 0.0
H323 H 0.27382 0.17688 0.29122 0.0
H324 H 0.30791 0.16605 0.27284 0.0
H325 H 0.20138 0.01447 0.17435 0.0
H326 H 0.19226 0.05715 0.21847 0.0
H327 H 0.19728 0.08059 0.16218 0.0
H328 H 0.19109 0.21247 0.30892 0.0
H329 H 0.20475 0.26034 0.17139 0.0
H330 H 0.23914 0.11594 0.32122 0.0
H331 H 0.2074 0.08541 0.29671 0.0
H332 H 0.20598 0.13426 0.33958 0.0
H333 H 0.25599 0.18411 0.15281 0.0
H334 H 0.22415 0.20673 0.11903 0.0
H335 H 0.22844 0.14094 0.13268 0.0
C336 C 0.73501 0.07444 0.26119 0.0
C337 C 0.74409 0.02714 0.27835 0.0
C338 C 0.75414 0.11379 0.25841 0.0
C339 C 0.7832 0.10605 0.27351 0.0
C340 C 0.79258 0.05872 0.29156 0.0
C341 C 0.77292 0.01975 0.29369 0.0
C342 C 0.7432 0.16365 0.23883 0.0
C343 C 0.82335 0.04916 0.30826 0.0
C344 C 0.82847 0.20244 0.22164 0.0
C345 C 0.83063 0.23986 0.25615 0.0
C346 C 0.81482 0.15678 0.22813 0.0
C347 C 0.80336 0.14817 0.27031 0.0
C348 C 0.80782 0.18385 0.30685 0.0
C349 C 0.82137 0.22924 0.29933 0.0
C350 C 0.81091 0.11927 0.18862 0.0
C351 C 0.79618 0.17606 0.35251 0.0
H352 H 0.71285 0.08072 0.24919 0.0
H353 H 0.78018 0.98338 0.307 0.0
H354 H 0.74821 0.19349 0.26542 0.0
H355 H 0.75374 0.17377 0.20808 0.0
H356 H 0.72004 0.16333 0.22797 0.0
H357 H 0.82707 0.01104 0.32331 0.0
H358 H 0.83583 0.05339 0.27868 0.0
H359 H 0.83143 0.07721 0.33512 0.0
H360 H 0.83564 0.21011 0.18823 0.0
H361 H 0.82323 0.25764 0.32645 0.0
H362 H 0.7881 0.11373 0.17674 0.0
H363 H 0.81965 0.08242 0.20098 0.0
H364 H 0.82132 0.13131 0.15822 0.0
H365 H 0.77293 0.18074 0.34678 0.0
H366 H 0.80507 0.20326 0.37969 0.0
H367 H 0.80067 0.13751 0.36586 0.0
C368 C 0.82178 0.79162 0.7983 0.0
C369 C 0.8254 0.77823 0.75242 0.0
C370 C 0.80683 0.83508 0.80754 0.0
C371 C 0.79461 0.86531 0.76988 0.0
C372 C 0.79914 0.85299 0.7236 0.0
C373 C 0.81474 0.80989 0.71549 0.0
C374 C 0.80302 0.84732 0.85742 0.0
C375 C 0.78615 0.88371 0.68233 0.0
C376 C 0.72926 0.94289 0.78418 0.0
C377 C 0.7404 0.99153 0.78845 0.0
C378 C 0.74674 0.90135 0.77887 0.0
C379 C 0.77612 0.90853 0.77861 0.0
C380 C 0.78763 0.95725 0.78523 0.0
C381 C 0.76965 0.99811 0.78973 0.0
C382 C 0.73359 0.85004 0.77159 0.0
C383 C 0.81884 0.96648 0.78611 0.0
H384 H 0.8298 0.76702 0.8269 0.0
H385 H 0.81693 0.79917 0.67987 0.0
H386 H 0.80871 0.88699 0.86543 0.0
H387 H 0.78054 0.84257 0.86229 0.0
H388 H 0.81604 0.82288 0.88294 0.0
H389 H 0.7926 0.87036 0.64881 0.0
H390 H 0.76281 0.88182 0.67968 0.0
H391 H 0.79226 0.92365 0.68728 0.0
H392 H 0.7067 0.93751 0.78271 0.0
H393 H 0.77846 0.03557 0.79324 0.0
H394 H 0.74403 0.82337 0.79784 0.0
H395 H 0.73674 0.83565 0.73655 0.0
H396 H 0.71062 0.85044 0.77422 0.0
H397 H 0.83107 0.94139 0.81193 0.0
H398 H 0.82474 1.00593 0.79502 0.0
H399 H 0.82517 0.9577 0.75135 0.0
C400 C 0.2961 0.94462 0.71337 0.0
C401 C 0.28495 0.99317 0.70767 0.0
C402 C 0.27851 0.9032 0.71841 0.0
C403 C 0.24899 0.91034 0.71681 0.0
C404 C 0.23752 0.95892 0.7087 0.0
C405 C 0.25562 0.99973 0.70466 0.0
C406 C 0.29166 0.85209 0.72743 0.0
C407 C 0.20617 0.96806 0.70568 0.0
C408 C 0.20447 0.79209 0.69694 0.0
C409 C 0.20002 0.77957 0.74265 0.0
C410 C 0.21919 0.8358 0.6877 0.0
C411 C 0.23034 0.86721 0.72522 0.0
C412 C 0.22485 0.85587 0.77122 0.0
C413 C 0.20948 0.81248 0.77929 0.0
C414 C 0.22396 0.84705 0.63805 0.0
C415 C 0.23665 0.88788 0.81237 0.0
H416 H 0.31873 0.93928 0.71621 0.0
H417 H 0.24681 0.03712 0.70007 0.0
H418 H 0.28764 0.83838 0.76227 0.0
H419 H 0.28189 0.82486 0.70108 0.0
H420 H 0.3148 0.85252 0.72639 0.0
H421 H 0.20038 1.00724 0.69554 0.0
H422 H 0.19453 0.94225 0.67983 0.0
H423 H 0.19905 0.96022 0.74003 0.0
H424 H 0.19733 0.76659 0.66856 0.0
H425 H 0.2066 0.80255 0.81481 0.0
H426 H 0.24661 0.84216 0.63448 0.0
H427 H 0.21837 0.88655 0.62908 0.0
H428 H 0.21141 0.82208 0.6124 0.0
H429 H 0.26004 0.8864 0.81666 0.0
H430 H 0.22939 0.87535 0.84554 0.0
H431 H 0.23041 0.92759 0.80607 0.0
C432 C 0.75462 0.51985 0.21406 0.0
C433 C 0.78358 0.52642 0.22877 0.0
C434 C 0.7354 0.55966 0.21595 0.0
C435 C 0.74533 0.60711 0.23303 0.0
C436 C 0.77454 0.61401 0.24741 0.0
C437 C 0.79322 0.57382 0.24498 0.0
C438 C 0.70445 0.55088 0.20014 0.0
C439 C 0.78612 0.66389 0.26591 0.0
C440 C 0.70701 0.73057 0.20621 0.0
C441 C 0.69758 0.74163 0.24918 0.0
C442 C 0.72081 0.68517 0.19925 0.0
C443 C 0.72553 0.65 0.23622 0.0
C444 C 0.71424 0.65933 0.27846 0.0
C445 C 0.70025 0.70484 0.2843 0.0
C446 C 0.7322 0.67663 0.15349 0.0
C447 C 0.71886 0.62309 0.31893 0.0
H448 H 0.7469 0.48348 0.20148 0.0
H449 H 0.81549 0.57956 0.25642 0.0
H450 H 0.69222 0.55734 0.22972 0.0
H451 H 0.69663 0.57794 0.17222 0.0
H452 H 0.70015 0.51224 0.18669 0.0
H453 H 0.80938 0.66316 0.27556 0.0
H454 H 0.78079 0.6935 0.23921 0.0
H455 H 0.7763 0.67465 0.29725 0.0
H456 H 0.7049 0.75854 0.17871 0.0
H457 H 0.69312 0.71285 0.31766 0.0
H458 H 0.72736 0.63806 0.14047 0.0
H459 H 0.7555 0.68068 0.15894 0.0
H460 H 0.72343 0.70378 0.12619 0.0
H461 H 0.714 0.58421 0.30681 0.0
H462 H 0.70572 0.63245 0.34679 0.0
H463 H 0.74136 0.62405 0.3344 0.0
C464 C 0.32052 0.73169 0.28735 0.0
C465 C 0.32861 0.74388 0.24365 0.0
C466 C 0.30643 0.68659 0.29419 0.0
C467 C 0.30007 0.65283 0.25637 0.0
C468 C 0.30982 0.66338 0.21306 0.0
C469 C 0.32408 0.70862 0.20729 0.0
C470 C 0.2966 0.67682 0.34101 0.0
C471 C 0.3034 0.62863 0.17172 0.0
C472 C 0.27157 0.52229 0.27838 0.0
C473 C 0.24238 0.52927 0.26648 0.0
C474 C 0.29067 0.56206 0.27549 0.0
C475 C 0.28039 0.60996 0.2604 0.0
C476 C 0.25097 0.61733 0.24894 0.0
C477 C 0.23241 0.5771 0.2522 0.0
C478 C 0.32187 0.55272 0.28801 0.0
C479 C 0.23902 0.66774 0.23274 0.0
H480 H 0.32401 0.75858 0.31571 0.0
H481 H 0.33001 0.71771 0.17327 0.0
H482 H 0.27333 0.68096 0.33771 0.0
H483 H 0.30174 0.63791 0.35273 0.0
H484 H 0.30624 0.7032 0.36834 0.0
H485 H 0.31522 0.63899 0.14244 0.0
H486 H 0.3086 0.58936 0.18214 0.0
H487 H 0.28051 0.63006 0.15883 0.0
H488 H 0.27955 0.48557 0.28939 0.0
H489 H 0.20996 0.58315 0.24298 0.0
H490 H 0.33075 0.57892 0.316 0.0
H491 H 0.3329 0.56003 0.25717 0.0
H492 H 0.32648 0.51369 0.30008 0.0
H493 H 0.24543 0.69659 0.25976 0.0
H494 H 0.21563 0.66738 0.22542 0.0
H495 H 0.24761 0.67932 0.20046 0.0
C496 C 0.31979 0.29197 0.8049 0.0
C497 C 0.33398 0.28522 0.76584 0.0
C498 C 0.306 0.33721 0.81214 0.0
C499 C 0.30599 0.3763 0.77894 0.0
C500 C 0.32265 0.37139 0.74195 0.0
C501 C 0.33661 0.32583 0.73595 0.0
C502 C 0.28898 0.34096 0.85253 0.0
C503 C 0.32326 0.41202 0.70573 0.0
C504 C 0.23747 0.44977 0.75449 0.0
C505 C 0.24431 0.49531 0.77755 0.0
C506 C 0.25745 0.41121 0.75445 0.0
C507 C 0.28502 0.41789 0.77849 0.0
C508 C 0.29202 0.46347 0.80237 0.0
C509 C 0.27164 0.5017 0.80148 0.0
C510 C 0.24904 0.36329 0.72834 0.0
C511 C 0.32104 0.47184 0.82875 0.0
H512 H 0.31745 0.26031 0.82769 0.0
H513 H 0.34706 0.32034 0.70516 0.0
H514 H 0.29157 0.37837 0.86932 0.0
H515 H 0.26628 0.33611 0.83938 0.0
H516 H 0.29513 0.31175 0.87939 0.0
H517 H 0.34075 0.40648 0.68443 0.0
H518 H 0.30305 0.41173 0.68191 0.0
H519 H 0.32548 0.44951 0.72244 0.0
H520 H 0.21652 0.44441 0.73571 0.0
H521 H 0.27717 0.53668 0.81949 0.0
H522 H 0.25123 0.33109 0.75288 0.0
H523 H 0.26326 0.3563 0.70156 0.0
H524 H 0.22696 0.36437 0.71069 0.0
H525 H 0.32575 0.44258 0.85598 0.0
H526 H 0.32313 0.50924 0.84578 0.0
H527 H 0.33717 0.46849 0.80458 0.0
C528 C 0.75524 0.49971 0.69759 0.0
C529 C 0.78257 0.49324 0.72151 0.0
C530 C 0.73483 0.46159 0.69663 0.0
C531 C 0.7418 0.41596 0.72037 0.0
C532 C 0.76936 0.40914 0.7444 0.0
C533 C 0.78939 0.44767 0.74448 0.0
C534 C 0.70581 0.47013 0.67029 0.0
C535 C 0.77771 0.36112 0.77034 0.0
C536 C 0.68964 0.32429 0.76192 0.0
C537 C 0.69203 0.28395 0.73161 0.0
C538 C 0.70396 0.3696 0.7565 0.0
C539 C 0.72076 0.37449 0.71969 0.0
C540 C 0.72055 0.33574 0.6861 0.0
C541 C 0.70637 0.29078 0.69272 0.0
C542 C 0.70353 0.40994 0.79305 0.0
C543 C 0.73771 0.33951 0.64589 0.0
H544 H 0.74973 0.53472 0.67962 0.0
H545 H 0.81034 0.44228 0.76324 0.0
H546 H 0.7011 0.44106 0.64286 0.0
H547 H 0.68967 0.46661 0.69442 0.0
H548 H 0.70373 0.50764 0.65348 0.0
H549 H 0.79981 0.36205 0.78795 0.0
H550 H 0.7635 0.35412 0.79712 0.0
H551 H 0.77545 0.329 0.74569 0.0
H552 H 0.6791 0.31872 0.79259 0.0
H553 H 0.70852 0.25929 0.66963 0.0
H554 H 0.70145 0.44758 0.77665 0.0
H555 H 0.72374 0.40924 0.81686 0.0
H556 H 0.68601 0.40444 0.81432 0.0
H557 H 0.73528 0.37701 0.62927 0.0
H558 H 0.73157 0.31047 0.61885 0.0
H559 H 0.76038 0.33444 0.6592 0.0
C560 C 0.07556 0.34803 0.28193 0.0
C561 C 0.08812 0.38364 0.25546 0.0
C562 C 0.0461 0.3449 0.27964 0.0
C563 C 0.02886 0.37721 0.24919 0.0
C564 C 0.04148 0.41154 0.22072 0.0
C565 C 0.07099 0.41489 0.22475 0.0
C566 C 0.03348 0.30866 0.31134 0.0
C567 C 0.02382 0.44562 0.18681 0.0
C568 C 0.95118 0.34691 0.21587 0.0
C569 C 0.93841 0.3824 0.24218 0.0
C570 C 0.98066 0.34424 0.21822 0.0
C571 C 0.9977 0.37693 0.24858 0.0
C572 C 0.98488 0.41114 0.27692 0.0
C573 C 0.95535 0.414 0.27282 0.0
C574 C 0.99348 0.30812 0.18666 0.0
C575 C 1.00234 0.44561 0.31073 0.0
H576 H 0.08878 0.32422 0.30614 0.0
H577 H 0.08071 0.44227 0.20414 0.0
H578 H 0.0223 0.32985 0.33646 0.0
H579 H 0.01768 0.2843 0.29072 0.0
H580 H 0.04972 0.28453 0.33141 0.0
H581 H 0.03679 0.46691 0.16432 0.0
H582 H 1.00786 0.42346 0.16406 0.0
H583 H 1.01225 0.47277 0.20637 0.0
H584 H 0.9381 0.32282 0.1917 0.0
H585 H 0.94547 0.44131 0.29331 0.0
H586 H 1.00944 0.28412 0.20738 0.0
H587 H 1.00453 0.32942 0.16145 0.0
H588 H 0.9774 0.28362 0.1667 0.0
H589 H 0.01844 0.4238 0.33354 0.0
H590 H 0.98924 0.46672 0.33315 0.0
H591 H 0.01374 0.47292 0.29109 0.0
C592 C 0.07556 0.674 0.77756 0.0
C593 C 0.08795 0.63857 0.75058 0.0
C594 C 0.04616 0.67627 0.77695 0.0
C595 C 0.02865 0.64331 0.74761 0.0
C596 C 0.04101 0.60906 0.71865 0.0
C597 C 0.07054 0.60651 0.72109 0.0
C598 C 0.03395 0.71237 0.80927 0.0
C599 C 0.02306 0.57435 0.68579 0.0
C600 C 0.95571 0.60683 0.77543 0.0
C601 C 0.93823 0.63857 0.74572 0.0
C602 C 0.98522 0.60937 0.77772 0.0
C603 C 0.99751 0.6433 0.74841 0.0
C604 C 0.97993 0.67599 0.71887 0.0
C605 C 0.95054 0.67373 0.71839 0.0
C606 C 1.00323 0.57495 0.8108 0.0
C607 C 0.99208 0.71179 0.68623 0.0
H608 H 0.08895 0.69836 0.801 0.0
H609 H 0.08006 0.57911 0.70022 0.0
H610 H 0.01787 0.73665 0.7892 0.0
H611 H 0.02318 0.69108 0.83485 0.0
H612 H 0.05034 0.7366 0.82881 0.0
H613 H 0.03573 0.55312 0.66276 0.0
H614 H 1.01207 0.54717 0.7062 0.0
H615 H 1.00661 0.59603 0.66357 0.0
H616 H 0.94625 0.57962 0.79656 0.0
H617 H 0.93709 0.69783 0.69478 0.0
H618 H 0.01967 0.59683 0.83283 0.0
H619 H 0.01423 0.5476 0.79056 0.0
H620 H 0.99061 0.55391 0.83401 0.0
H621 H 1.00816 0.73625 0.70607 0.0
H622 H 0.97565 0.73584 0.66656 0.0
H623 H 1.00283 0.69025 0.66078 0.0
C624 C 0.45204 0.84986 0.21029 0.0
C625 C 0.43869 0.8851 0.23602 0.0
C626 C 0.48159 0.84669 0.21486 0.0
C627 C 0.49805 0.87856 0.24687 0.0
C628 C 0.48457 0.91245 0.2746 0.0
C629 C 0.45504 0.91587 0.26828 0.0
C630 C 0.49516 0.81096 0.18388 0.0
C631 C 0.50136 0.94604 0.31011 0.0
C632 C 0.57529 0.84849 0.28549 0.0
C633 C 0.58875 0.88455 0.26082 0.0
C634 C 0.54574 0.84554 0.28084 0.0
C635 C 0.52936 0.8785 0.24981 0.0
C636 C 0.54293 0.91333 0.22314 0.0
C637 C 0.57248 0.91646 0.22954 0.0
C638 C 0.53207 0.80876 0.3107 0.0
C639 C 0.52624 0.94814 0.18869 0.0
H640 H 0.43941 0.82642 0.1849 0.0
H641 H 0.44469 0.94295 0.28833 0.0
H642 H 0.507 0.83257 0.15996 0.0
H643 H 0.51056 0.78647 0.20524 0.0
H644 H 0.47942 0.78696 0.16254 0.0
H645 H 0.48768 0.96685 0.33179 0.0
H646 H 0.51681 0.92359 0.33356 0.0
H647 H 0.51347 0.97361 0.29196 0.0
H648 H 0.58785 0.82413 0.31011 0.0
H649 H 0.5829 0.94416 0.21027 0.0
H650 H 0.51665 0.78498 0.28859 0.0
H651 H 0.52024 0.82953 0.33521 0.0
H652 H 0.54774 0.78407 0.33136 0.0
H653 H 0.51074 0.92652 0.16454 0.0
H654 H 0.53997 0.96971 0.16768 0.0
H655 H 0.51417 0.97505 0.20767 0.0
C656 C 0.57355 0.1648 0.78565 0.0
C657 C 0.58819 0.13242 0.75879 0.0
C658 C 0.54405 0.16386 0.78248 0.0
C659 C 0.52852 0.13007 0.75128 0.0
C660 C 0.54299 0.09784 0.72338 0.0
C661 C 0.57268 0.09927 0.72755 0.0
C662 C 0.52952 0.19895 0.8128 0.0
C663 C 0.5271 0.06175 0.68924 0.0
C664 C 0.45278 0.10059 0.77081 0.0
C665 C 0.43738 0.13314 0.73882 0.0
C666 C 0.48247 0.09893 0.77516 0.0
C667 C 0.49706 0.13025 0.74665 0.0
C668 C 0.48164 0.16342 0.7147 0.0
C669 C 0.45214 0.16465 0.71138 0.0
C670 C 0.49824 0.06356 0.81012 0.0
C671 C 0.4963 0.1975 0.68367 0.0
H672 H 0.58519 0.1906 0.81002 0.0
H673 H 0.58371 0.07401 0.70676 0.0
H674 H 0.51512 0.22437 0.79053 0.0
H675 H 0.51644 0.17718 0.8347 0.0
H676 H 0.5447 0.22211 0.83613 0.0
H677 H 0.54141 0.03914 0.67014 0.0
H678 H 0.5143 0.03594 0.70804 0.0
H679 H 0.51229 0.08267 0.66338 0.0
H680 H 0.44165 0.07602 0.79206 0.0
H681 H 0.4406 0.18996 0.68642 0.0
H682 H 0.51311 0.08495 0.8355 0.0
H683 H 0.51096 0.03702 0.79193 0.0
H684 H 0.48385 0.04172 0.82972 0.0
H685 H 0.51077 0.22325 0.70541 0.0
H686 H 0.48119 0.22031 0.65986 0.0
H687 H 0.5093 0.17497 0.66223 0.0
C688 C 0.15995 0.48815 0.89977 0.0
C689 C 0.15649 0.54026 0.89555 0.0
C690 C 0.16232 0.46474 0.94366 0.0
C691 C 0.16165 0.49427 0.98423 0.0
C692 C 0.15743 0.5467 0.98008 0.0
C693 C 0.15468 0.56902 0.93573 0.0
C694 C 0.16635 0.40865 0.94673 0.0
C695 C 0.15686 0.57952 0.02264 0.0
C696 C 0.14762 0.43942 0.10004 0.0
C697 C 0.1749 0.43764 0.12477 0.0
C698 C 0.14309 0.45553 0.05342 0.0
C699 C 0.16636 0.4709 0.0313 0.0
C700 C 0.19406 0.46717 0.05543 0.0
C701 C 0.19802 0.45015 0.10184 0.0
C702 C 0.11331 0.45814 0.02853 0.0
C703 C 0.21939 0.48365 0.03307 0.0
H704 H 0.1613 0.4657 0.86882 0.0
H705 H 0.15227 0.60934 0.93277 0.0
H706 H 0.18757 0.39995 0.96541 0.0
H707 H 0.15065 0.39168 0.96713 0.0
H708 H 0.1643 0.39068 0.91169 0.0
H709 H 0.15265 0.61946 0.01329 0.0
H710 H 0.14041 0.56624 0.04348 0.0
H711 H 0.17743 0.57709 0.04536 0.0
H712 H 0.1297 0.42933 0.11755 0.0
H713 H 0.21912 0.44908 0.12087 0.0
H714 H 0.11196 0.43966 0.99385 0.0
H715 H 0.10711 0.4979 0.02239 0.0
H716 H 0.0979 0.44012 0.04894 0.0
H717 H 0.21955 0.46481 -0.00117 0.0
H718 H 0.23959 0.47539 0.05543 0.0
H719 H 0.21818 0.52461 0.02639 0.0
C720 C 0.87781 0.43952 0.39672 0.0
C721 C 0.85062 0.43611 0.37188 0.0
C722 C 0.88197 0.45608 0.44321 0.0
C723 C 0.85838 0.47004 0.46517 0.0
C724 C 0.83079 0.46469 0.44097 0.0
C725 C 0.82722 0.4474 0.39462 0.0
C726 C 0.91167 0.46065 0.46812 0.0
C727 C 0.80514 0.47967 0.46319 0.0
C728 C 0.86575 0.48678 0.59686 0.0
C729 C 0.86868 0.53896 0.60115 0.0
C730 C 0.86295 0.46361 0.55283 0.0
C731 C 0.86264 0.49346 0.51224 0.0
C732 C 0.86596 0.54607 0.51641 0.0
C733 C 0.86918 0.56814 0.56087 0.0
C734 C 0.85973 0.40737 0.54967 0.0
C735 C 0.86539 0.57922 0.47383 0.0
H736 H 0.89596 0.43041 0.37938 0.0
H737 H 0.80617 0.44507 0.37553 0.0
H738 H 0.91693 0.50078 0.47448 0.0
H739 H 0.91344 0.44189 0.5027 0.0
H740 H 0.92749 0.44404 0.44765 0.0
H741 H 0.78513 0.46998 0.4409 0.0
H742 H 0.80538 0.46105 0.49761 0.0
H743 H 0.80548 0.52072 0.4695 0.0
H744 H 0.8653 0.46407 0.62791 0.0
H745 H 0.87103 0.60855 0.56391 0.0
H746 H 0.87588 0.39125 0.52966 0.0
H747 H 0.83877 0.39775 0.53052 0.0
H748 H 0.86178 0.38934 0.58467 0.0
H749 H 0.88253 0.56823 0.45342 0.0
H750 H 0.8679 0.61953 0.48312 0.0
H751 H 0.84513 0.57431 0.45071 0.0
C752 C 0.87283 0.58565 0.89704 0.0
C753 C 0.84611 0.58531 0.87038 0.0
C754 C 0.87647 0.56994 0.94375 0.0
C755 C 0.85283 0.55301 0.96408 0.0
C756 C 0.82557 0.55504 0.93813 0.0
C757 C 0.82249 0.57155 0.89152 0.0
C758 C 0.90582 0.56896 0.9705 0.0
C759 C 0.7999 0.53699 0.95865 0.0
C760 C 0.8663 0.45438 0.05883 0.0
C761 C 0.8644 0.4825 0.09936 0.0
C762 C 0.86253 0.47698 0.01462 0.0
C763 C 0.85703 0.52907 0.0109 0.0
C764 C 0.85569 0.55792 0.0517 0.0
C765 C 0.85924 0.53422 0.09549 0.0
C766 C 0.86389 0.44489 0.97181 0.0
C767 C 0.85015 0.61363 0.049 0.0
H768 H 0.89111 0.5968 0.8809 0.0
H769 H 0.80182 0.57107 0.87097 0.0
H770 H 0.90598 0.58703 0.00517 0.0
H771 H 0.91268 0.52953 0.97674 0.0
H772 H 0.92142 0.58825 0.95136 0.0
H773 H 0.77999 0.54533 0.93553 0.0
H774 H 0.80135 0.49586 0.96422 0.0
H775 H 0.79893 0.55461 0.99323 0.0
H776 H 0.86994 0.41432 0.06146 0.0
H777 H 0.85768 0.55617 0.12668 0.0
H778 H 0.88055 0.45907 0.95183 0.0
H779 H 0.84357 0.44703 0.94841 0.0
H780 H 0.86837 0.40494 0.98077 0.0
H781 H 0.86618 0.63245 0.03053 0.0
H782 H 0.85053 0.63092 0.08412 0.0
H783 H 0.82926 0.6209 0.02851 0.0
C784 C 0.16866 0.53598 0.4021 0.0
C785 C 0.16255 0.48458 0.39785 0.0
C786 C 0.17252 0.55936 0.44605 0.0
C787 C 0.17047 0.53053 0.48661 0.0
C788 C 0.16403 0.4788 0.48252 0.0
C789 C 0.16002 0.45651 0.43817 0.0
C790 C 0.17911 0.6147 0.44916 0.0
C791 C 0.16186 0.44674 0.52507 0.0
C792 C 0.20495 0.57099 0.60671 0.0
C793 C 0.1814 0.58607 0.62739 0.0
C794 C 0.20192 0.55465 0.56004 0.0
C795 C 0.17478 0.55418 0.53357 0.0
C796 C 0.15127 0.57241 0.55347 0.0
C797 C 0.15485 0.58788 0.60025 0.0
C798 C 0.22744 0.53515 0.53998 0.0
C799 C 0.12207 0.5731 0.52619 0.0
H800 H 0.17074 0.55789 0.3711 0.0
H801 H 0.15562 0.41669 0.43526 0.0
H802 H 0.16326 0.63446 0.46734 0.0
H803 H 0.19999 0.6207 0.47012 0.0
H804 H 0.17934 0.63201 0.41418 0.0
H805 H 0.15674 0.40707 0.51583 0.0
H806 H 0.18209 0.44775 0.54879 0.0
H807 H 0.1453 0.4618 0.54482 0.0
H808 H 0.22548 0.56935 0.62767 0.0
H809 H 0.13663 0.60004 0.61607 0.0
H810 H 0.22897 0.55269 0.50555 0.0
H811 H 0.2253 0.49412 0.53421 0.0
H812 H 0.24735 0.54236 0.56349 0.0
H813 H 0.12247 0.59125 0.49169 0.0
H814 H 0.10664 0.59318 0.54511 0.0
H815 H 0.11456 0.53408 0.51956 0.0
C816 C 0.65895 0.01303 0.91456 0.0
C817 C 0.66351 0.06496 0.9129 0.0
C818 C 0.66192 0.98724 0.95727 0.0
C819 C 0.66947 0.01404 -0.00065 0.0
C820 C 0.67389 0.06649 0.99803 0.0
C821 C 0.67086 0.09131 0.95482 0.0
C822 C 0.65726 0.93125 0.95733 0.0
C823 C 0.68188 0.09641 0.04226 0.0
C824 C 0.65081 0.96147 0.11319 0.0
C825 C 0.67716 0.94499 0.13517 0.0
C826 C 0.64794 0.98295 0.06855 0.0
C827 C 0.67191 0.98756 0.04496 0.0
C828 C 0.69828 0.96864 0.06576 0.0
C829 C 0.70062 0.94762 0.11075 0.0
C830 C 0.61945 1.00265 0.04751 0.0
C831 C 0.72423 0.97236 0.04124 0.0
H832 H 0.65355 0.99219 0.88237 0.0
H833 H 0.67449 0.13135 0.95393 0.0
H834 H 0.67652 0.91215 0.97438 0.0
H835 H 0.63992 0.92199 0.97791 0.0
H836 H 0.65191 0.91585 0.92147 0.0
H837 H 0.68487 0.13686 0.03512 0.0
H838 H 0.66523 0.09264 0.06546 0.0
H839 H 0.70172 0.08158 0.06165 0.0
H840 H 0.63247 0.95925 0.13156 0.0
H841 H 0.72103 0.93493 0.12739 0.0
H842 H 0.61336 0.98639 0.01224 0.0
H843 H 0.62056 0.04391 0.04327 0.0
H844 H 0.60264 0.99401 0.06947 0.0
H845 H 0.71988 0.9567 0.00539 0.0
H846 H 0.74256 0.95228 0.06041 0.0
H847 H 0.73003 0.01233 0.03781 0.0
C848 C 0.36792 0.01421 0.58293 0.0
C849 C 0.36269 0.06595 0.58441 0.0
C850 C 0.36541 0.98827 0.54031 0.0
C851 C 0.35763 0.01471 0.49811 0.0
C852 C 0.35254 0.06697 0.49923 0.0
C853 C 0.35513 0.09196 0.54237 0.0
C854 C 0.3708 0.93247 0.54047 0.0
C855 C 0.34428 0.09653 0.45488 0.0
C856 C 0.37696 0.96285 0.38437 0.0
C857 C 0.3508 0.94551 0.36235 0.0
C858 C 0.37958 0.98432 0.42902 0.0
C859 C 0.35555 0.98805 0.45259 0.0
C860 C 0.32941 0.96816 0.43181 0.0
C861 C 0.32732 0.94717 0.38681 0.0
C862 C 0.40782 1.00506 0.45004 0.0
C863 C 0.30343 0.97088 0.45631 0.0
H864 H 0.37352 0.99362 0.6152 0.0
H865 H 0.35097 0.13184 0.5431 0.0
H866 H 0.3518 0.91258 0.52348 0.0
H867 H 0.38827 0.92388 0.51994 0.0
H868 H 0.37634 0.91736 0.57639 0.0
H869 H 0.34077 0.13686 0.46186 0.0
H870 H 0.36102 0.09336 0.4318 0.0
H871 H 0.32465 0.08091 0.43543 0.0
H872 H 0.39531 0.96139 0.36598 0.0
H873 H 0.30705 0.93381 0.37018 0.0
H874 H 0.41404 0.98918 0.48543 0.0
H875 H 0.40625 0.0463 0.45402 0.0
H876 H 0.42476 0.99687 0.4282 0.0
H877 H 0.30796 0.95546 0.49223 0.0
H878 H 0.28536 0.95003 0.43721 0.0
H879 H 0.2971 1.01061 0.45958 0.0
C880 C 0.36451 0.0378 0.0859 0.0
C881 C 0.36412 0.98542 0.08972 0.0
C882 C 0.36025 0.06125 0.04195 0.0
C883 C 0.35472 0.03157 0.00108 0.0
C884 C 0.35404 0.97866 0.00485 0.0
C885 C 0.35913 0.95622 0.04909 0.0
C886 C 0.36172 0.11768 0.03921 0.0
C887 C 0.34766 0.94569 0.96218 0.0
C888 C 0.31934 0.08625 0.8864 0.0
C889 C 0.34213 0.08839 0.86058 0.0
C890 C 0.32321 0.06923 0.93295 0.0
C891 C 0.35058 0.05539 0.95409 0.0
C892 C 0.37385 0.06062 0.92883 0.0
C893 C 0.36926 0.0764 0.88218 0.0
C894 C 0.29782 0.06321 0.95851 0.0
C895 C 0.40343 0.04739 0.95037 0.0
H896 H 0.36823 0.06045 0.11732 0.0
H897 H 0.35826 0.91574 0.05196 0.0
H898 H 0.37826 0.12887 0.01763 0.0
H899 H 0.34139 0.13279 0.02185 0.0
H900 H 0.36648 0.1353 0.07425 0.0
H901 H 0.34615 0.90543 0.9714 0.0
H902 H 0.32747 0.95728 0.94154 0.0
H903 H 0.36443 0.95002 0.93933 0.0
H904 H 0.29834 0.09506 0.8694 0.0
H905 H 0.38689 0.07838 0.8621 0.0
H906 H 0.30159 0.08144 0.99332 0.0
H907 H 0.29414 0.02278 0.96443 0.0
H908 H 0.27843 0.07938 0.93867 0.0
H909 H 0.40848 0.06577 0.98496 0.0
H910 H 0.41949 0.0587 0.92782 0.0
H911 H 0.40506 1.00632 0.95612 0.0
C912 C 0.65588 0.07381 0.61482 0.0
C913 C 0.68291 0.08674 0.63626 0.0
C914 C 0.6514 0.05777 0.56822 0.0
C915 C 0.67468 0.05323 0.54291 0.0
C916 C 0.70191 0.06811 0.56385 0.0
C917 C 0.70565 0.08538 0.61032 0.0
C918 C 0.62194 0.04355 0.54683 0.0
C919 C 0.72732 0.06293 0.53822 0.0
C920 C 0.66773 0.9532 0.4486 0.0
C921 C 0.66284 0.98202 0.40775 0.0
C922 C 0.67211 0.97606 0.49273 0.0
C923 C 0.67079 0.02897 0.4961 0.0
C924 C 0.66517 0.05821 0.455 0.0
C925 C 0.66166 0.03439 0.4112 0.0
C926 C 0.67862 0.94358 0.5357 0.0
C927 C 0.6629 0.11457 0.45731 0.0
H928 H 0.63827 0.07523 0.63498 0.0
H929 H 0.72658 0.09496 0.62718 0.0
H930 H 0.61673 0.06142 0.51204 0.0
H931 H 0.62068 1.00238 0.54153 0.0
H932 H 0.60579 0.05469 0.56927 0.0
H933 H 0.74655 0.07976 0.55795 0.0
H934 H 0.73142 0.02262 0.53238 0.0
H935 H 0.72331 0.08101 0.50337 0.0
H936 H 0.66914 0.91276 0.446 0.0
H937 H 0.65794 0.05674 0.37961 0.0
H938 H 0.66197 0.94827 0.55876 0.0
H939 H 0.69888 0.95538 0.55597 0.0
H940 H 0.68008 0.90321 0.52688 0.0
H941 H 0.64632 0.12522 0.47901 0.0
H942 H 0.65776 0.13176 0.42214 0.0
H943 H 0.68306 0.13066 0.4743 0.0
loop_
_geom_bond_atom_site_label_1
_geom_bond_atom_site_label_2
_geom_bond_distance
_geom_bond_site_symmetry_2
_ccdc_geom_bond_type
Fe0 O2 1.918 . S
Fe0 O5 1.997 . S
Fe0 O6 2.002 . S
Fe0 O11 1.976 . S
Fe0 O14 1.996 . S
Fe1 O2 1.918 . S
Fe1 O9 1.997 . S
Fe1 O12 1.996 . S
Fe1 O16 1.976 . S
Fe1 O19 2.002 . S
O2 Fe0 1.918 . S
O2 Fe1 1.918 . S
O2 Fe3 1.918 . S
Fe3 O2 1.918 . S
Fe3 O4 2.002 . S
Fe3 O13 1.976 . S
Fe3 O17 1.996 . S
Fe3 O20 1.997 . S
O4 Fe3 2.002 . S
O4 C21 1.295 . S
O5 Fe0 1.997 . S
O5 C21 1.235 . S
O6 Fe0 2.002 . S
O6 C7 1.295 . S
C7 O6 1.295 . S
C7 O9 1.235 . S
C8 O13 1.287 . S
C8 O14 1.255 . S
O9 Fe1 1.997 . S
O9 C7 1.235 . S
C10 O16 1.287 . S
C10 O17 1.255 . S
O11 Fe0 1.976 . S
O11 C18 1.287 . S
O12 Fe1 1.996 . S
O12 C18 1.255 . S
O13 Fe3 1.976 . S
O13 C8 1.287 . S
O14 Fe0 1.996 . S
O14 C8 1.255 . S
C15 O19 1.295 . S
C15 O20 1.235 . S
O16 Fe1 1.976 . S
O16 C10 1.287 . S
O17 Fe3 1.996 . S
O17 C10 1.255 . S
C18 O11 1.287 . S
C18 O12 1.255 . S
O19 Fe1 2.002 . S
O19 C15 1.295 . S
O20 Fe3 1.997 . S
O20 C15 1.235 . S
C21 O4 1.295 . S
C21 O5 1.235 . S
Fe22 O24 1.918 . S
Fe22 O27 1.997 . S
Fe22 O28 2.002 . S
Fe22 O33 1.976 . S
Fe22 O36 1.996 . S
Fe23 O24 1.918 . S
Fe23 O31 1.997 . S
Fe23 O34 1.996 . S
Fe23 O38 1.976 . S
Fe23 O41 2.002 . S
O24 Fe22 1.918 . S
O24 Fe23 1.918 . S
O24 Fe25 1.918 . S
Fe25 O24 1.918 . S
Fe25 O26 2.002 . S
Fe25 O35 1.976 . S
Fe25 O39 1.996 . S
Fe25 O42 1.997 . S
O26 Fe25 2.002 . S
O26 C43 1.295 . S
O27 Fe22 1.997 . S
O27 C43 1.235 . S
O28 Fe22 2.002 . S
O28 C29 1.295 . S
C29 O28 1.295 . S
C29 O31 1.235 . S
C30 O35 1.287 . S
C30 O36 1.255 . S
O31 Fe23 1.997 . S
O31 C29 1.235 . S
C32 O38 1.287 . S
C32 O39 1.255 . S
O33 Fe22 1.976 . S
O33 C40 1.287 . S
O34 Fe23 1.996 . S
O34 C40 1.255 . S
O35 Fe25 1.976 . S
O35 C30 1.287 . S
O36 Fe22 1.996 . S
O36 C30 1.255 . S
C37 O41 1.295 . S
C37 O42 1.235 . S
O38 Fe23 1.976 . S
O38 C32 1.287 . S
O39 Fe25 1.996 . S
O39 C32 1.255 . S
C40 O33 1.287 . S
C40 O34 1.255 . S
O41 Fe23 2.002 . S
O41 C37 1.295 . S
O42 Fe25 1.997 . S
O42 C37 1.235 . S
C43 O26 1.295 . S
C43 O27 1.235 . S
Fe44 O46 1.918 . S
Fe44 O49 1.997 . S
Fe44 O50 2.002 . S
Fe44 O55 1.976 . S
Fe44 O58 1.996 . S
Fe45 O46 1.918 . S
Fe45 O53 1.997 . S
Fe45 O56 1.996 . S
Fe45 O60 1.976 . S
Fe45 O63 2.002 . S
O46 Fe44 1.918 . S
O46 Fe45 1.918 . S
O46 Fe47 1.918 . S
Fe47 O46 1.918 . S
Fe47 O48 2.002 . S
Fe47 O57 1.976 . S
Fe47 O61 1.996 . S
Fe47 O64 1.997 . S
O48 Fe47 2.002 . S
O48 C65 1.295 . S
O49 Fe44 1.997 . S
O49 C65 1.235 . S
O50 Fe44 2.002 . S
O50 C51 1.295 . S
C51 O50 1.295 . S
C51 O53 1.235 . S
C52 O57 1.287 . S
C52 O58 1.255 . S
O53 Fe45 1.997 . S
O53 C51 1.235 . S
C54 O60 1.287 . S
C54 O61 1.255 . S
O55 Fe44 1.976 . S
O55 C62 1.287 . S
O56 Fe45 1.996 . S
O56 C62 1.255 . S
O57 Fe47 1.976 . S
O57 C52 1.287 . S
O58 Fe44 1.996 . S
O58 C52 1.255 . S
C59 O63 1.295 . S
C59 O64 1.235 . S
O60 Fe45 1.976 . S
O60 C54 1.287 . S
O61 Fe47 1.996 . S
O61 C54 1.255 . S
C62 O55 1.287 . S
C62 O56 1.255 . S
O63 Fe45 2.002 . S
O63 C59 1.295 . S
O64 Fe47 1.997 . S
O64 C59 1.235 . S
C65 O48 1.295 . S
C65 O49 1.235 . S
Fe66 O68 1.918 . S
Fe66 O71 1.997 . S
Fe66 O72 2.002 . S
Fe66 O77 1.976 . S
Fe66 O80 1.996 . S
Fe67 O68 1.918 . S
Fe67 O75 1.997 . S
Fe67 O78 1.996 . S
Fe67 O82 1.976 . S
Fe67 O85 2.002 . S
O68 Fe66 1.918 . S
O68 Fe67 1.918 . S
O68 Fe69 1.918 . S
Fe69 O68 1.918 . S
Fe69 O70 2.002 . S
Fe69 O79 1.976 . S
Fe69 O83 1.996 . S
Fe69 O86 1.997 . S
O70 Fe69 2.002 . S
O70 C87 1.295 . S
O71 Fe66 1.997 . S
O71 C87 1.235 . S
O72 Fe66 2.002 . S
O72 C73 1.295 . S
C73 O72 1.295 . S
C73 O75 1.235 . S
C74 O79 1.287 . S
C74 O80 1.255 . S
O75 Fe67 1.997 . S
O75 C73 1.235 . S
C76 O82 1.287 . S
C76 O83 1.255 . S
O77 Fe66 1.976 . S
O77 C84 1.287 . S
O78 Fe67 1.996 . S
O78 C84 1.255 . S
O79 Fe69 1.976 . S
O79 C74 1.287 . S
O80 Fe66 1.996 . S
O80 C74 1.255 . S
C81 O85 1.295 . S
C81 O86 1.235 . S
O82 Fe67 1.976 . S
O82 C76 1.287 . S
O83 Fe69 1.996 . S
O83 C76 1.255 . S
C84 O77 1.287 . S
C84 O78 1.255 . S
O85 Fe67 2.002 . S
O85 C81 1.295 . S
O86 Fe69 1.997 . S
O86 C81 1.235 . S
C87 O70 1.295 . S
C87 O71 1.235 . S
Fe88 O90 1.918 . S
Fe88 O93 1.997 . S
Fe88 O94 2.002 . S
Fe88 O99 1.976 . S
Fe88 O102 1.996 . S
Fe89 O90 1.918 . S
Fe89 O97 1.997 . S
Fe89 O100 1.996 . S
Fe89 O104 1.976 . S
Fe89 O107 2.002 . S
O90 Fe88 1.918 . S
O90 Fe89 1.918 . S
O90 Fe91 1.918 . S
Fe91 O90 1.918 . S
Fe91 O92 2.002 . S
Fe91 O101 1.976 . S
Fe91 O105 1.996 . S
Fe91 O108 1.997 . S
O92 Fe91 2.002 . S
O92 C109 1.295 . S
O93 Fe88 1.997 . S
O93 C109 1.235 . S
O94 Fe88 2.002 . S
O94 C95 1.295 . S
C95 O94 1.295 . S
C95 O97 1.235 . S
C96 O101 1.287 . S
C96 O102 1.255 . S
O97 Fe89 1.997 . S
O97 C95 1.235 . S
C98 O104 1.287 . S
C98 O105 1.255 . S
O99 Fe88 1.976 . S
O99 C106 1.287 . S
O100 Fe89 1.996 . S
O100 C106 1.255 . S
O101 Fe91 1.976 . S
O101 C96 1.287 . S
O102 Fe88 1.996 . S
O102 C96 1.255 . S
C103 O107 1.295 . S
C103 O108 1.235 . S
O104 Fe89 1.976 . S
O104 C98 1.287 . S
O105 Fe91 1.996 . S
O105 C98 1.255 . S
C106 O99 1.287 . S
C106 O100 1.255 . S
O107 Fe89 2.002 . S
O107 C103 1.295 . S
O108 Fe91 1.997 . S
O108 C103 1.235 . S
C109 O92 1.295 . S
C109 O93 1.235 . S
Fe110 O112 1.918 . S
Fe110 O115 1.997 . S
Fe110 O116 2.002 . S
Fe110 O121 1.976 . S
Fe110 O124 1.996 . S
Fe111 O112 1.918 . S
Fe111 O119 1.997 . S
Fe111 O122 1.996 . S
Fe111 O126 1.976 . S
Fe111 O129 2.002 . S
O112 Fe110 1.918 . S
O112 Fe111 1.918 . S
O112 Fe113 1.918 . S
Fe113 O112 1.918 . S
Fe113 O114 2.002 . S
Fe113 O123 1.976 . S
Fe113 O127 1.996 . S
Fe113 O130 1.997 . S
O114 Fe113 2.002 . S
O114 C131 1.295 . S
O115 Fe110 1.997 . S
O115 C131 1.235 . S
O116 Fe110 2.002 . S
O116 C117 1.295 . S
C117 O116 1.295 . S
C117 O119 1.235 . S
C118 O123 1.287 . S
C118 O124 1.255 . S
O119 Fe111 1.997 . S
O119 C117 1.235 . S
C120 O126 1.287 . S
C120 O127 1.255 . S
O121 Fe110 1.976 . S
O121 C128 1.287 . S
O122 Fe111 1.996 . S
O122 C128 1.255 . S
O123 Fe113 1.976 . S
O123 C118 1.287 . S
O124 Fe110 1.996 . S
O124 C118 1.255 . S
C125 O129 1.295 . S
C125 O130 1.235 . S
O126 Fe111 1.976 . S
O126 C120 1.287 . S
O127 Fe113 1.996 . S
O127 C120 1.255 . S
C128 O121 1.287 . S
C128 O122 1.255 . S
O129 Fe111 2.002 . S
O129 C125 1.295 . S
O130 Fe113 1.997 . S
O130 C125 1.235 . S
C131 O114 1.295 . S
C131 O115 1.235 . S
Fe132 O134 1.918 . S
Fe132 O137 1.997 . S
Fe132 O138 2.002 . S
Fe132 O143 1.976 . S
Fe132 O146 1.996 . S
Fe133 O134 1.918 . S
Fe133 O141 1.997 . S
Fe133 O144 1.996 . S
Fe133 O148 1.976 . S
Fe133 O151 2.002 . S
O134 Fe132 1.918 . S
O134 Fe133 1.918 . S
O134 Fe135 1.918 . S
Fe135 O134 1.918 . S
Fe135 O136 2.002 . S
Fe135 O145 1.976 . S
Fe135 O149 1.996 . S
Fe135 O152 1.997 . S
O136 Fe135 2.002 . S
O136 C153 1.295 . S
O137 Fe132 1.997 . S
O137 C153 1.235 . S
O138 Fe132 2.002 . S
O138 C139 1.295 . S
C139 O138 1.295 . S
C139 O141 1.235 . S
C140 O145 1.287 . S
C140 O146 1.255 . S
O141 Fe133 1.997 . S
O141 C139 1.235 . S
C142 O148 1.287 . S
C142 O149 1.255 . S
O143 Fe132 1.976 . S
O143 C150 1.287 . S
O144 Fe133 1.996 . S
O144 C150 1.255 . S
O145 Fe135 1.976 . S
O145 C140 1.287 . S
O146 Fe132 1.996 . S
O146 C140 1.255 . S
C147 O151 1.295 . S
C147 O152 1.235 . S
O148 Fe133 1.976 . S
O148 C142 1.287 . S
O149 Fe135 1.996 . S
O149 C142 1.255 . S
C150 O143 1.287 . S
C150 O144 1.255 . S
O151 Fe133 2.002 . S
O151 C147 1.295 . S
O152 Fe135 1.997 . S
O152 C147 1.235 . S
C153 O136 1.295 . S
C153 O137 1.235 . S
Fe154 O156 1.918 . S
Fe154 O159 1.997 . S
Fe154 O160 2.002 . S
Fe154 O165 1.976 . S
Fe154 O168 1.996 . S
Fe155 O156 1.918 . S
Fe155 O163 1.997 . S
Fe155 O166 1.996 . S
Fe155 O170 1.976 . S
Fe155 O173 2.002 . S
O156 Fe154 1.918 . S
O156 Fe155 1.918 . S
O156 Fe157 1.918 . S
Fe157 O156 1.918 . S
Fe157 O158 2.002 . S
Fe157 O167 1.976 . S
Fe157 O171 1.996 . S
Fe157 O174 1.997 . S
O158 Fe157 2.002 . S
O158 C175 1.295 . S
O159 Fe154 1.997 . S
O159 C175 1.235 . S
O160 Fe154 2.002 . S
O160 C161 1.295 . S
C161 O160 1.295 . S
C161 O163 1.235 . S
C162 O167 1.287 . S
C162 O168 1.255 . S
O163 Fe155 1.997 . S
O163 C161 1.235 . S
C164 O170 1.287 . S
C164 O171 1.255 . S
O165 Fe154 1.976 . S
O165 C172 1.287 . S
O166 Fe155 1.996 . S
O166 C172 1.255 . S
O167 Fe157 1.976 . S
O167 C162 1.287 . S
O168 Fe154 1.996 . S
O168 C162 1.255 . S
C169 O173 1.295 . S
C169 O174 1.235 . S
O170 Fe155 1.976 . S
O170 C164 1.287 . S
O171 Fe157 1.996 . S
O171 C164 1.255 . S
C172 O165 1.287 . S
C172 O166 1.255 . S
O173 Fe155 2.002 . S
O173 C169 1.295 . S
O174 Fe157 1.997 . S
O174 C169 1.235 . S
C175 O158 1.295 . S
C175 O159 1.235 . S
C176 C177 1.391 . S
C176 C178 1.394 . S
C176 H192 0.931 . S
C177 C176 1.391 . S
C177 C181 1.376 . S
C178 C176 1.394 . S
C178 C179 1.369 . S
C178 C182 1.531 . S
C179 C178 1.369 . S
C179 C180 1.410 . S
C179 C187 1.503 . S
C180 C179 1.410 . S
C180 C181 1.392 . S
C180 C183 1.511 . S
C181 C177 1.376 . S
C181 C180 1.392 . S
C181 H193 0.929 . S
C182 C178 1.531 . S
C182 H194 0.960 . S
C182 H195 0.962 . S
C182 H196 0.960 . S
C183 C180 1.511 . S
C183 H197 0.961 . S
C183 H198 0.961 . S
C183 H199 0.961 . S
C184 C185 1.370 . S
C184 C186 1.363 . S
C184 H200 0.931 . S
C185 C184 1.370 . S
C185 C189 1.408 . S
C186 C184 1.363 . S
C186 C187 1.370 . S
C186 C190 1.524 . S
C187 C179 1.503 . S
C187 C186 1.370 . S
C187 C188 1.403 . S
C188 C187 1.403 . S
C188 C189 1.404 . S
C188 C191 1.539 . S
C189 C185 1.408 . S
C189 C188 1.404 . S
C189 H201 0.930 . S
C190 C186 1.524 . S
C190 H202 0.956 . S
C190 H203 0.961 . S
C190 H204 0.961 . S
C191 C188 1.539 . S
C191 H205 0.958 . S
C191 H206 0.961 . S
C191 H207 0.960 . S
H192 C176 0.931 . S
H193 C181 0.929 . S
H194 C182 0.960 . S
H195 C182 0.962 . S
H196 C182 0.960 . S
H197 C183 0.961 . S
H198 C183 0.961 . S
H199 C183 0.961 . S
H200 C184 0.931 . S
H201 C189 0.930 . S
H202 C190 0.956 . S
H203 C190 0.961 . S
H204 C190 0.961 . S
H205 C191 0.958 . S
H206 C191 0.961 . S
H207 C191 0.960 . S
C208 C209 1.391 . S
C208 C210 1.394 . S
C208 H224 0.931 . S
C209 C208 1.391 . S
C209 C213 1.376 . S
C210 C208 1.394 . S
C210 C211 1.369 . S
C210 C214 1.531 . S
C211 C210 1.369 . S
C211 C212 1.410 . S
C211 C219 1.503 1_556 S
C212 C211 1.410 . S
C212 C213 1.392 . S
C212 C215 1.511 . S
C213 C209 1.376 . S
C213 C212 1.392 . S
C213 H225 0.929 . S
C214 C210 1.531 . S
C214 H226 0.960 1_556 S
C214 H227 0.962 . S
C214 H228 0.960 . S
C215 C212 1.511 . S
C215 H229 0.961 . S
C215 H230 0.961 . S
C215 H231 0.961 . S
C216 C217 1.370 . S
C216 C218 1.363 . S
C216 H232 0.931 . S
C217 C216 1.370 . S
C217 C221 1.408 . S
C218 C216 1.363 . S
C218 C219 1.370 . S
C218 C222 1.524 1_554 S
C219 C211 1.503 1_554 S
C219 C218 1.370 . S
C219 C220 1.403 . S
C220 C219 1.403 . S
C220 C221 1.404 . S
C220 C223 1.539 . S
C221 C217 1.408 . S
C221 C220 1.404 . S
C221 H233 0.930 . S
C222 C218 1.524 1_556 S
C222 H234 0.956 . S
C222 H235 0.961 . S
C222 H236 0.961 . S
C223 C220 1.539 . S
C223 H237 0.958 . S
C223 H238 0.961 . S
C223 H239 0.960 . S
H224 C208 0.931 . S
H225 C213 0.929 . S
H226 C214 0.960 1_554 S
H227 C214 0.962 . S
H228 C214 0.960 . S
H229 C215 0.961 . S
H230 C215 0.961 . S
H231 C215 0.961 . S
H232 C216 0.931 . S
H233 C221 0.930 . S
H234 C222 0.956 . S
H235 C222 0.961 . S
H236 C222 0.961 . S
H237 C223 0.958 . S
H238 C223 0.961 . S
H239 C223 0.960 . S
C240 C241 1.391 . S
C240 C242 1.394 . S
C240 H256 0.931 . S
C241 C240 1.391 . S
C241 C245 1.376 . S
C242 C240 1.394 . S
C242 C243 1.369 . S
C242 C246 1.531 . S
C243 C242 1.369 . S
C243 C244 1.410 . S
C243 C251 1.503 . S
C244 C243 1.410 . S
C244 C245 1.392 . S
C244 C247 1.511 . S
C245 C241 1.376 . S
C245 C244 1.392 . S
C245 H257 0.929 . S
C246 C242 1.531 . S
C246 H258 0.960 . S
C246 H259 0.962 . S
C246 H260 0.960 . S
C247 C244 1.511 . S
C247 H261 0.961 . S
C247 H262 0.961 . S
C247 H263 0.961 . S
C248 C249 1.370 . S
C248 C250 1.363 . S
C248 H264 0.931 . S
C249 C248 1.370 . S
C249 C253 1.408 . S
C250 C248 1.363 . S
C250 C251 1.370 . S
C250 C254 1.524 . S
C251 C243 1.503 . S
C251 C250 1.370 . S
C251 C252 1.403 . S
C252 C251 1.403 . S
C252 C253 1.404 . S
C252 C255 1.539 . S
C253 C249 1.408 . S
C253 C252 1.404 . S
C253 H265 0.930 . S
C254 C250 1.524 . S
C254 H266 0.956 . S
C254 H267 0.961 . S
C254 H268 0.961 . S
C255 C252 1.539 . S
C255 H269 0.958 . S
C255 H270 0.961 . S
C255 H271 0.960 . S
H256 C240 0.931 . S
H257 C245 0.929 . S
H258 C246 0.960 . S
H259 C246 0.962 . S
H260 C246 0.960 . S
H261 C247 0.961 . S
H262 C247 0.961 . S
H263 C247 0.961 . S
H264 C248 0.931 . S
H265 C253 0.930 . S
H266 C254 0.956 . S
H267 C254 0.961 . S
H268 C254 0.961 . S
H269 C255 0.958 . S
H270 C255 0.961 . S
H271 C255 0.960 . S
C272 C273 1.391 . S
C272 C274 1.394 . S
C272 H288 0.931 . S
C273 C272 1.391 . S
C273 C277 1.376 . S
C274 C272 1.394 . S
C274 C275 1.369 . S
C274 C278 1.531 1_554 S
C275 C274 1.369 . S
C275 C276 1.410 . S
C275 C283 1.503 1_554 S
C276 C275 1.410 . S
C276 C277 1.392 . S
C276 C279 1.511 . S
C277 C273 1.376 . S
C277 C276 1.392 . S
C277 H289 0.929 . S
C278 C274 1.531 1_556 S
C278 H290 0.960 . S
C278 H291 0.962 . S
C278 H292 0.960 . S
C279 C276 1.511 . S
C279 H293 0.961 . S
C279 H294 0.961 . S
C279 H295 0.961 . S
C280 C281 1.370 . S
C280 C282 1.363 . S
C280 H296 0.931 . S
C281 C280 1.370 . S
C281 C285 1.408 . S
C282 C280 1.363 . S
C282 C283 1.370 . S
C282 C286 1.524 . S
C283 C275 1.503 1_556 S
C283 C282 1.370 . S
C283 C284 1.403 . S
C284 C283 1.403 . S
C284 C285 1.404 . S
C284 C287 1.539 . S
C285 C281 1.408 . S
C285 C284 1.404 . S
C285 H297 0.930 . S
C286 C282 1.524 . S
C286 H298 0.956 . S
C286 H299 0.961 1_556 S
C286 H300 0.961 . S
C287 C284 1.539 . S
C287 H301 0.958 . S
C287 H302 0.961 . S
C287 H303 0.960 1_556 S
H288 C272 0.931 . S
H289 C277 0.929 . S
H290 C278 0.960 . S
H291 C278 0.962 . S
H292 C278 0.960 . S
H293 C279 0.961 . S
H294 C279 0.961 . S
H295 C279 0.961 . S
H296 C280 0.931 . S
H297 C285 0.930 . S
H298 C286 0.956 . S
H299 C286 0.961 1_554 S
H300 C286 0.961 . S
H301 C287 0.958 . S
H302 C287 0.961 . S
H303 C287 0.960 1_554 S
C304 C305 1.391 . S
C304 C306 1.394 . S
C304 H320 0.931 . S
C305 C304 1.391 . S
C305 C309 1.376 . S
C306 C304 1.394 . S
C306 C307 1.369 . S
C306 C310 1.531 . S
C307 C306 1.369 . S
C307 C308 1.410 . S
C307 C315 1.503 . S
C308 C307 1.410 . S
C308 C309 1.392 . S
C308 C311 1.511 . S
C309 C305 1.376 . S
C309 C308 1.392 . S
C309 H321 0.929 1_545 S
C310 C306 1.531 . S
C310 H322 0.960 . S
C310 H323 0.962 . S
C310 H324 0.960 . S
C311 C308 1.511 . S
C311 H325 0.961 . S
C311 H326 0.961 . S
C311 H327 0.961 . S
C312 C313 1.370 . S
C312 C314 1.363 . S
C312 H328 0.931 . S
C313 C312 1.370 . S
C313 C317 1.408 . S
C314 C312 1.363 . S
C314 C315 1.370 . S
C314 C318 1.524 . S
C315 C307 1.503 . S
C315 C314 1.370 . S
C315 C316 1.403 . S
C316 C315 1.403 . S
C316 C317 1.404 . S
C316 C319 1.539 . S
C317 C313 1.408 . S
C317 C316 1.404 . S
C317 H329 0.930 . S
C318 C314 1.524 . S
C318 H330 0.956 . S
C318 H331 0.961 . S
C318 H332 0.961 . S
C319 C316 1.539 . S
C319 H333 0.958 . S
C319 H334 0.961 . S
C319 H335 0.960 . S
H320 C304 0.931 . S
H321 C309 0.929 1_565 S
H322 C310 0.960 . S
H323 C310 0.962 . S
H324 C310 0.960 . S
H325 C311 0.961 . S
H326 C311 0.961 . S
H327 C311 0.961 . S
H328 C312 0.931 . S
H329 C317 0.930 . S
H330 C318 0.956 . S
H331 C318 0.961 . S
H332 C318 0.961 . S
H333 C319 0.958 . S
H334 C319 0.961 . S
H335 C319 0.960 . S
C336 C337 1.391 . S
C336 C338 1.394 . S
C336 H352 0.931 . S
C337 C336 1.391 . S
C337 C341 1.376 . S
C338 C336 1.394 . S
C338 C339 1.369 . S
C338 C342 1.531 . S
C339 C338 1.369 . S
C339 C340 1.410 . S
C339 C347 1.503 . S
C340 C339 1.410 . S
C340 C341 1.392 . S
C340 C343 1.511 . S
C341 C337 1.376 . S
C341 C340 1.392 . S
C341 H353 0.929 1_545 S
C342 C338 1.531 . S
C342 H354 0.960 . S
C342 H355 0.962 . S
C342 H356 0.960 . S
C343 C340 1.511 . S
C343 H357 0.961 . S
C343 H358 0.961 . S
C343 H359 0.961 . S
C344 C345 1.370 . S
C344 C346 1.363 . S
C344 H360 0.931 . S
C345 C344 1.370 . S
C345 C349 1.408 . S
C346 C344 1.363 . S
C346 C347 1.370 . S
C346 C350 1.524 . S
C347 C339 1.503 . S
C347 C346 1.370 . S
C347 C348 1.403 . S
C348 C347 1.403 . S
C348 C349 1.404 . S
C348 C351 1.539 . S
C349 C345 1.408 . S
C349 C348 1.404 . S
C349 H361 0.930 . S
C350 C346 1.524 . S
C350 H362 0.956 . S
C350 H363 0.961 . S
C350 H364 0.961 . S
C351 C348 1.539 . S
C351 H365 0.958 . S
C351 H366 0.961 . S
C351 H367 0.960 . S
H352 C336 0.931 . S
H353 C341 0.929 1_565 S
H354 C342 0.960 . S
H355 C342 0.962 . S
H356 C342 0.960 . S
H357 C343 0.961 . S
H358 C343 0.961 . S
H359 C343 0.961 . S
H360 C344 0.931 . S
H361 C349 0.930 . S
H362 C350 0.956 . S
H363 C350 0.961 . S
H364 C350 0.961 . S
H365 C351 0.958 . S
H366 C351 0.961 . S
H367 C351 0.960 . S
C368 C369 1.391 . S
C368 C370 1.394 . S
C368 H384 0.931 . S
C369 C368 1.391 . S
C369 C373 1.376 . S
C370 C368 1.394 . S
C370 C371 1.369 . S
C370 C374 1.531 . S
C371 C370 1.369 . S
C371 C372 1.410 . S
C371 C379 1.503 . S
C372 C371 1.410 . S
C372 C373 1.392 . S
C372 C375 1.511 . S
C373 C369 1.376 . S
C373 C372 1.392 . S
C373 H385 0.929 . S
C374 C370 1.531 . S
C374 H386 0.960 . S
C374 H387 0.962 . S
C374 H388 0.960 . S
C375 C372 1.511 . S
C375 H389 0.961 . S
C375 H390 0.961 . S
C375 H391 0.961 . S
C376 C377 1.370 . S
C376 C378 1.363 . S
C376 H392 0.931 . S
C377 C376 1.370 . S
C377 C381 1.408 . S
C378 C376 1.363 . S
C378 C379 1.370 . S
C378 C382 1.524 . S
C379 C371 1.503 . S
C379 C378 1.370 . S
C379 C380 1.403 . S
C380 C379 1.403 . S
C380 C381 1.404 . S
C380 C383 1.539 . S
C381 C377 1.408 . S
C381 C380 1.404 . S
C381 H393 0.930 1_565 S
C382 C378 1.524 . S
C382 H394 0.956 . S
C382 H395 0.961 . S
C382 H396 0.961 . S
C383 C380 1.539 . S
C383 H397 0.958 . S
C383 H398 0.961 1_565 S
C383 H399 0.960 . S
H384 C368 0.931 . S
H385 C373 0.929 . S
H386 C374 0.960 . S
H387 C374 0.962 . S
H388 C374 0.960 . S
H389 C375 0.961 . S
H390 C375 0.961 . S
H391 C375 0.961 . S
H392 C376 0.931 . S
H393 C381 0.930 1_545 S
H394 C382 0.956 . S
H395 C382 0.961 . S
H396 C382 0.961 . S
H397 C383 0.958 . S
H398 C383 0.961 1_545 S
H399 C383 0.960 . S
C400 C401 1.391 . S
C400 C402 1.394 . S
C400 H416 0.931 . S
C401 C400 1.391 . S
C401 C405 1.376 . S
C402 C400 1.394 . S
C402 C403 1.369 . S
C402 C406 1.531 . S
C403 C402 1.369 . S
C403 C404 1.410 . S
C403 C411 1.503 . S
C404 C403 1.410 . S
C404 C405 1.392 . S
C404 C407 1.511 . S
C405 C401 1.376 . S
C405 C404 1.392 . S
C405 H417 0.929 1_565 S
C406 C402 1.531 . S
C406 H418 0.960 . S
C406 H419 0.962 . S
C406 H420 0.960 . S
C407 C404 1.511 . S
C407 H421 0.961 . S
C407 H422 0.961 . S
C407 H423 0.961 . S
C408 C409 1.370 . S
C408 C410 1.363 . S
C408 H424 0.931 . S
C409 C408 1.370 . S
C409 C413 1.408 . S
C410 C408 1.363 . S
C410 C411 1.370 . S
C410 C414 1.524 . S
C411 C403 1.503 . S
C411 C410 1.370 . S
C411 C412 1.403 . S
C412 C411 1.403 . S
C412 C413 1.404 . S
C412 C415 1.539 . S
C413 C409 1.408 . S
C413 C412 1.404 . S
C413 H425 0.930 . S
C414 C410 1.524 . S
C414 H426 0.956 . S
C414 H427 0.961 . S
C414 H428 0.961 . S
C415 C412 1.539 . S
C415 H429 0.958 . S
C415 H430 0.961 . S
C415 H431 0.960 . S
H416 C400 0.931 . S
H417 C405 0.929 1_545 S
H418 C406 0.960 . S
H419 C406 0.962 . S
H420 C406 0.960 . S
H421 C407 0.961 . S
H422 C407 0.961 . S
H423 C407 0.961 . S
H424 C408 0.931 . S
H425 C413 0.930 . S
H426 C414 0.956 . S
H427 C414 0.961 . S
H428 C414 0.961 . S
H429 C415 0.958 . S
H430 C415 0.961 . S
H431 C415 0.960 . S
C432 C433 1.391 . S
C432 C434 1.394 . S
C432 H448 0.931 . S
C433 C432 1.391 . S
C433 C437 1.376 . S
C434 C432 1.394 . S
C434 C435 1.369 . S
C434 C438 1.531 . S
C435 C434 1.369 . S
C435 C436 1.410 . S
C435 C443 1.503 . S
C436 C435 1.410 . S
C436 C437 1.392 . S
C436 C439 1.511 . S
C437 C433 1.376 . S
C437 C436 1.392 . S
C437 H449 0.929 . S
C438 C434 1.531 . S
C438 H450 0.960 . S
C438 H451 0.962 . S
C438 H452 0.960 . S
C439 C436 1.511 . S
C439 H453 0.961 . S
C439 H454 0.961 . S
C439 H455 0.961 . S
C440 C441 1.370 . S
C440 C442 1.363 . S
C440 H456 0.931 . S
C441 C440 1.370 . S
C441 C445 1.408 . S
C442 C440 1.363 . S
C442 C443 1.370 . S
C442 C446 1.524 . S
C443 C435 1.503 . S
C443 C442 1.370 . S
C443 C444 1.403 . S
C444 C443 1.403 . S
C444 C445 1.404 . S
C444 C447 1.539 . S
C445 C441 1.408 . S
C445 C444 1.404 . S
C445 H457 0.930 . S
C446 C442 1.524 . S
C446 H458 0.956 . S
C446 H459 0.961 . S
C446 H460 0.961 . S
C447 C444 1.539 . S
C447 H461 0.958 . S
C447 H462 0.961 . S
C447 H463 0.960 . S
H448 C432 0.931 . S
H449 C437 0.929 . S
H450 C438 0.960 . S
H451 C438 0.962 . S
H452 C438 0.960 . S
H453 C439 0.961 . S
H454 C439 0.961 . S
H455 C439 0.961 . S
H456 C440 0.931 . S
H457 C445 0.930 . S
H458 C446 0.956 . S
H459 C446 0.961 . S
H460 C446 0.961 . S
H461 C447 0.958 . S
H462 C447 0.961 . S
H463 C447 0.960 . S
C464 C465 1.391 . S
C464 C466 1.394 . S
C464 H480 0.931 . S
C465 C464 1.391 . S
C465 C469 1.376 . S
C466 C464 1.394 . S
C466 C467 1.369 . S
C466 C470 1.531 . S
C467 C466 1.369 . S
C467 C468 1.410 . S
C467 C475 1.503 . S
C468 C467 1.410 . S
C468 C469 1.392 . S
C468 C471 1.511 . S
C469 C465 1.376 . S
C469 C468 1.392 . S
C469 H481 0.929 . S
C470 C466 1.531 . S
C470 H482 0.960 . S
C470 H483 0.962 . S
C470 H484 0.960 . S
C471 C468 1.511 . S
C471 H485 0.961 . S
C471 H486 0.961 . S
C471 H487 0.961 . S
C472 C473 1.370 . S
C472 C474 1.363 . S
C472 H488 0.931 . S
C473 C472 1.370 . S
C473 C477 1.408 . S
C474 C472 1.363 . S
C474 C475 1.370 . S
C474 C478 1.524 . S
C475 C467 1.503 . S
C475 C474 1.370 . S
C475 C476 1.403 . S
C476 C475 1.403 . S
C476 C477 1.404 . S
C476 C479 1.539 . S
C477 C473 1.408 . S
C477 C476 1.404 . S
C477 H489 0.930 . S
C478 C474 1.524 . S
C478 H490 0.956 . S
C478 H491 0.961 . S
C478 H492 0.961 . S
C479 C476 1.539 . S
C479 H493 0.958 . S
C479 H494 0.961 . S
C479 H495 0.960 . S
H480 C464 0.931 . S
H481 C469 0.929 . S
H482 C470 0.960 . S
H483 C470 0.962 . S
H484 C470 0.960 . S
H485 C471 0.961 . S
H486 C471 0.961 . S
H487 C471 0.961 . S
H488 C472 0.931 . S
H489 C477 0.930 . S
H490 C478 0.956 . S
H491 C478 0.961 . S
H492 C478 0.961 . S
H493 C479 0.958 . S
H494 C479 0.961 . S
H495 C479 0.960 . S
C496 C497 1.391 . S
C496 C498 1.394 . S
C496 H512 0.931 . S
C497 C496 1.391 . S
C497 C501 1.376 . S
C498 C496 1.394 . S
C498 C499 1.369 . S
C498 C502 1.531 . S
C499 C498 1.369 . S
C499 C500 1.410 . S
C499 C507 1.503 . S
C500 C499 1.410 . S
C500 C501 1.392 . S
C500 C503 1.511 . S
C501 C497 1.376 . S
C501 C500 1.392 . S
C501 H513 0.929 . S
C502 C498 1.531 . S
C502 H514 0.960 . S
C502 H515 0.962 . S
C502 H516 0.960 . S
C503 C500 1.511 . S
C503 H517 0.961 . S
C503 H518 0.961 . S
C503 H519 0.961 . S
C504 C505 1.370 . S
C504 C506 1.363 . S
C504 H520 0.931 . S
C505 C504 1.370 . S
C505 C509 1.408 . S
C506 C504 1.363 . S
C506 C507 1.370 . S
C506 C510 1.524 . S
C507 C499 1.503 . S
C507 C506 1.370 . S
C507 C508 1.403 . S
C508 C507 1.403 . S
C508 C509 1.404 . S
C508 C511 1.539 . S
C509 C505 1.408 . S
C509 C508 1.404 . S
C509 H521 0.930 . S
C510 C506 1.524 . S
C510 H522 0.956 . S
C510 H523 0.961 . S
C510 H524 0.961 . S
C511 C508 1.539 . S
C511 H525 0.958 . S
C511 H526 0.961 . S
C511 H527 0.960 . S
H512 C496 0.931 . S
H513 C501 0.929 . S
H514 C502 0.960 . S
H515 C502 0.962 . S
H516 C502 0.960 . S
H517 C503 0.961 . S
H518 C503 0.961 . S
H519 C503 0.961 . S
H520 C504 0.931 . S
H521 C509 0.930 . S
H522 C510 0.956 . S
H523 C510 0.961 . S
H524 C510 0.961 . S
H525 C511 0.958 . S
H526 C511 0.961 . S
H527 C511 0.960 . S
C528 C529 1.391 . S
C528 C530 1.394 . S
C528 H544 0.931 . S
C529 C528 1.391 . S
C529 C533 1.376 . S
C530 C528 1.394 . S
C530 C531 1.369 . S
C530 C534 1.531 . S
C531 C530 1.369 . S
C531 C532 1.410 . S
C531 C539 1.503 . S
C532 C531 1.410 . S
C532 C533 1.392 . S
C532 C535 1.511 . S
C533 C529 1.376 . S
C533 C532 1.392 . S
C533 H545 0.929 . S
C534 C530 1.531 . S
C534 H546 0.960 . S
C534 H547 0.962 . S
C534 H548 0.960 . S
C535 C532 1.511 . S
C535 H549 0.961 . S
C535 H550 0.961 . S
C535 H551 0.961 . S
C536 C537 1.370 . S
C536 C538 1.363 . S
C536 H552 0.931 . S
C537 C536 1.370 . S
C537 C541 1.408 . S
C538 C536 1.363 . S
C538 C539 1.370 . S
C538 C542 1.524 . S
C539 C531 1.503 . S
C539 C538 1.370 . S
C539 C540 1.403 . S
C540 C539 1.403 . S
C540 C541 1.404 . S
C540 C543 1.539 . S
C541 C537 1.408 . S
C541 C540 1.404 . S
C541 H553 0.930 . S
C542 C538 1.524 . S
C542 H554 0.956 . S
C542 H555 0.961 . S
C542 H556 0.961 . S
C543 C540 1.539 . S
C543 H557 0.958 . S
C543 H558 0.961 . S
C543 H559 0.960 . S
H544 C528 0.931 . S
H545 C533 0.929 . S
H546 C534 0.960 . S
H547 C534 0.962 . S
H548 C534 0.960 . S
H549 C535 0.961 . S
H550 C535 0.961 . S
H551 C535 0.961 . S
H552 C536 0.931 . S
H553 C541 0.930 . S
H554 C542 0.956 . S
H555 C542 0.961 . S
H556 C542 0.961 . S
H557 C543 0.958 . S
H558 C543 0.961 . S
H559 C543 0.960 . S
C560 C561 1.391 . S
C560 C562 1.394 . S
C560 H576 0.931 . S
C561 C560 1.391 . S
C561 C565 1.376 . S
C562 C560 1.394 . S
C562 C563 1.369 . S
C562 C566 1.531 . S
C563 C562 1.369 . S
C563 C564 1.410 . S
C563 C571 1.503 1_455 S
C564 C563 1.410 . S
C564 C565 1.392 . S
C564 C567 1.511 . S
C565 C561 1.376 . S
C565 C564 1.392 . S
C565 H577 0.929 . S
C566 C562 1.531 . S
C566 H578 0.960 1_455 S
C566 H579 0.962 . S
C566 H580 0.960 . S
C567 C564 1.511 . S
C567 H581 0.961 . S
C567 H582 0.961 1_455 S
C567 H583 0.961 . S
C568 C569 1.370 . S
C568 C570 1.363 . S
C568 H584 0.931 . S
C569 C568 1.370 . S
C569 C573 1.408 . S
C570 C568 1.363 . S
C570 C571 1.370 . S
C570 C574 1.524 . S
C571 C563 1.503 1_655 S
C571 C570 1.370 . S
C571 C572 1.403 . S
C572 C571 1.403 . S
C572 C573 1.404 . S
C572 C575 1.539 . S
C573 C569 1.408 . S
C573 C572 1.404 . S
C573 H585 0.930 . S
C574 C570 1.524 . S
C574 H586 0.956 . S
C574 H587 0.961 1_655 S
C574 H588 0.961 . S
C575 C572 1.539 . S
C575 H589 0.958 . S
C575 H590 0.961 . S
C575 H591 0.980 . S
H576 C560 0.931 . S
H577 C565 0.929 . S
H578 C566 0.960 1_655 S
H579 C566 0.962 . S
H580 C566 0.960 . S
H581 C567 0.961 . S
H582 C567 0.961 1_655 S
H583 C567 0.961 . S
H584 C568 0.931 . S
H585 C573 0.930 . S
H586 C574 0.956 . S
H587 C574 0.961 1_455 S
H588 C574 0.961 . S
H589 C575 0.958 . S
H590 C575 0.961 . S
H591 C575 0.980 . S
C592 C593 1.391 . S
C592 C594 1.394 . S
C592 H608 0.931 . S
C593 C592 1.391 . S
C593 C597 1.376 . S
C594 C592 1.394 . S
C594 C595 1.369 . S
C594 C598 1.531 . S
C595 C594 1.369 . S
C595 C596 1.410 . S
C595 C603 1.503 1_455 S
C596 C595 1.410 . S
C596 C597 1.392 . S
C596 C599 1.511 . S
C597 C593 1.376 . S
C597 C596 1.392 . S
C597 H609 0.929 . S
C598 C594 1.531 . S
C598 H610 0.960 1_455 S
C598 H611 0.962 . S
C598 H612 0.960 . S
C599 C596 1.511 . S
C599 H613 0.961 . S
C599 H614 0.961 1_455 S
C599 H615 0.961 . S
C600 C601 1.370 . S
C600 C602 1.363 . S
C600 H616 0.931 . S
C601 C600 1.370 . S
C601 C605 1.408 . S
C602 C600 1.363 . S
C602 C603 1.370 . S
C602 C606 1.524 . S
C603 C595 1.503 1_655 S
C603 C602 1.370 . S
C603 C604 1.403 . S
C604 C603 1.403 . S
C604 C605 1.404 . S
C604 C607 1.539 . S
C605 C601 1.408 . S
C605 C604 1.404 . S
C605 H617 0.930 . S
C606 C602 1.524 . S
C606 H618 0.956 . S
C606 H619 0.961 1_655 S
C606 H620 0.961 . S
C607 C604 1.539 . S
C607 H621 0.958 . S
C607 H622 0.961 . S
C607 H623 0.970 . S
H608 C592 0.931 . S
H609 C597 0.929 . S
H610 C598 0.960 1_655 S
H611 C598 0.962 . S
H612 C598 0.960 . S
H613 C599 0.961 . S
H614 C599 0.961 1_655 S
H615 C599 0.961 . S
H616 C600 0.931 . S
H617 C605 0.930 . S
H618 C606 0.956 . S
H619 C606 0.961 1_455 S
H620 C606 0.961 . S
H621 C607 0.958 . S
H622 C607 0.961 . S
H623 C607 0.970 . S
C624 C625 1.391 . S
C624 C626 1.394 . S
C624 H640 0.931 . S
C625 C624 1.391 . S
C625 C629 1.376 . S
C626 C624 1.394 . S
C626 C627 1.369 . S
C626 C630 1.531 . S
C627 C626 1.369 . S
C627 C628 1.410 . S
C627 C635 1.503 . S
C628 C627 1.410 . S
C628 C629 1.392 . S
C628 C631 1.511 . S
C629 C625 1.376 . S
C629 C628 1.392 . S
C629 H641 0.929 . S
C630 C626 1.531 . S
C630 H642 0.960 . S
C630 H643 0.962 . S
C630 H644 0.960 . S
C631 C628 1.511 . S
C631 H645 0.961 . S
C631 H646 0.961 . S
C631 H647 0.961 . S
C632 C633 1.370 . S
C632 C634 1.363 . S
C632 H648 0.931 . S
C633 C632 1.370 . S
C633 C637 1.408 . S
C634 C632 1.363 . S
C634 C635 1.370 . S
C634 C638 1.524 . S
C635 C627 1.503 . S
C635 C634 1.370 . S
C635 C636 1.403 . S
C636 C635 1.403 . S
C636 C637 1.404 . S
C636 C639 1.539 . S
C637 C633 1.408 . S
C637 C636 1.404 . S
C637 H649 0.930 . S
C638 C634 1.524 . S
C638 H650 0.956 . S
C638 H651 0.961 . S
C638 H652 0.961 . S
C639 C636 1.539 . S
C639 H653 0.958 . S
C639 H654 0.961 . S
C639 H655 0.960 . S
H640 C624 0.931 . S
H641 C629 0.929 . S
H642 C630 0.960 . S
H643 C630 0.962 . S
H644 C630 0.960 . S
H645 C631 0.961 . S
H646 C631 0.961 . S
H647 C631 0.961 . S
H648 C632 0.931 . S
H649 C637 0.930 . S
H650 C638 0.956 . S
H651 C638 0.961 . S
H652 C638 0.961 . S
H653 C639 0.958 . S
H654 C639 0.961 . S
H655 C639 0.960 . S
C656 C657 1.391 . S
C656 C658 1.394 . S
C656 H672 0.931 . S
C657 C656 1.391 . S
C657 C661 1.376 . S
C658 C656 1.394 . S
C658 C659 1.369 . S
C658 C662 1.531 . S
C659 C658 1.369 . S
C659 C660 1.410 . S
C659 C667 1.503 . S
C660 C659 1.410 . S
C660 C661 1.392 . S
C660 C663 1.511 . S
C661 C657 1.376 . S
C661 C660 1.392 . S
C661 H673 0.929 . S
C662 C658 1.531 . S
C662 H674 0.960 . S
C662 H675 0.962 . S
C662 H676 0.960 . S
C663 C660 1.511 . S
C663 H677 0.961 . S
C663 H678 0.961 . S
C663 H679 0.961 . S
C664 C665 1.370 . S
C664 C666 1.363 . S
C664 H680 0.931 . S
C665 C664 1.370 . S
C665 C669 1.408 . S
C666 C664 1.363 . S
C666 C667 1.370 . S
C666 C670 1.524 . S
C667 C659 1.503 . S
C667 C666 1.370 . S
C667 C668 1.403 . S
C668 C667 1.403 . S
C668 C669 1.404 . S
C668 C671 1.539 . S
C669 C665 1.408 . S
C669 C668 1.404 . S
C669 H681 0.930 . S
C670 C666 1.524 . S
C670 H682 0.956 . S
C670 H683 0.961 . S
C670 H684 0.961 . S
C671 C668 1.539 . S
C671 H685 0.958 . S
C671 H686 0.961 . S
C671 H687 0.960 . S
H672 C656 0.931 . S
H673 C661 0.929 . S
H674 C662 0.960 . S
H675 C662 0.962 . S
H676 C662 0.960 . S
H677 C663 0.961 . S
H678 C663 0.961 . S
H679 C663 0.961 . S
H680 C664 0.931 . S
H681 C669 0.930 . S
H682 C670 0.956 . S
H683 C670 0.961 . S
H684 C670 0.961 . S
H685 C671 0.958 . S
H686 C671 0.961 . S
H687 C671 0.960 . S
C688 C689 1.391 . S
C688 C690 1.394 . S
C688 H704 0.931 . S
C689 C688 1.391 . S
C689 C693 1.376 . S
C690 C688 1.394 . S
C690 C691 1.369 1_556 S
C690 C694 1.531 . S
C691 C690 1.369 1_554 S
C691 C692 1.410 . S
C691 C699 1.503 . S
C692 C691 1.410 . S
C692 C693 1.392 1_554 S
C692 C695 1.511 . S
C693 C689 1.376 . S
C693 C692 1.392 1_556 S
C693 H705 0.929 . S
C694 C690 1.531 . S
C694 H706 0.968 . S
C694 H707 0.962 . S
C694 H708 0.960 . S
C695 C692 1.511 . S
C695 H709 0.961 . S
C695 H710 0.961 . S
C695 H711 0.961 . S
C696 C697 1.370 . S
C696 C698 1.363 . S
C696 H712 0.931 . S
C697 C696 1.370 . S
C697 C701 1.408 . S
C698 C696 1.363 . S
C698 C699 1.370 . S
C698 C702 1.524 . S
C699 C691 1.503 . S
C699 C698 1.370 . S
C699 C700 1.403 . S
C700 C699 1.403 . S
C700 C701 1.404 . S
C700 C703 1.539 . S
C701 C697 1.408 . S
C701 C700 1.404 . S
C701 H713 0.930 . S
C702 C698 1.524 . S
C702 H714 0.956 . S
C702 H715 0.961 . S
C702 H716 0.961 . S
C703 C700 1.539 . S
C703 H717 0.958 . S
C703 H718 0.961 . S
C703 H719 0.960 . S
H704 C688 0.931 . S
H705 C693 0.929 . S
H706 C694 0.968 . S
H707 C694 0.962 . S
H708 C694 0.960 . S
H709 C695 0.961 . S
H710 C695 0.961 . S
H711 C695 0.961 . S
H712 C696 0.931 . S
H713 C701 0.930 . S
H714 C702 0.956 . S
H715 C702 0.961 . S
H716 C702 0.961 . S
H717 C703 0.958 . S
H718 C703 0.961 . S
H719 C703 0.960 . S
C720 C721 1.391 . S
C720 C722 1.394 . S
C720 H736 0.931 . S
C721 C720 1.391 . S
C721 C725 1.376 . S
C722 C720 1.394 . S
C722 C723 1.369 . S
C722 C726 1.531 . S
C723 C722 1.369 . S
C723 C724 1.410 . S
C723 C731 1.503 . S
C724 C723 1.410 . S
C724 C725 1.392 . S
C724 C727 1.511 . S
C725 C721 1.376 . S
C725 C724 1.392 . S
C725 H737 0.929 . S
C726 C722 1.531 . S
C726 H738 0.960 . S
C726 H739 0.962 . S
C726 H740 0.960 . S
C727 C724 1.511 . S
C727 H741 0.961 . S
C727 H742 0.961 . S
C727 H743 0.961 . S
C728 C729 1.370 . S
C728 C730 1.363 . S
C728 H744 0.931 . S
C729 C728 1.370 . S
C729 C733 1.408 . S
C730 C728 1.363 . S
C730 C731 1.370 . S
C730 C734 1.524 . S
C731 C723 1.503 . S
C731 C730 1.370 . S
C731 C732 1.403 . S
C732 C731 1.403 . S
C732 C733 1.404 . S
C732 C735 1.539 . S
C733 C729 1.408 . S
C733 C732 1.404 . S
C733 H745 0.930 . S
C734 C730 1.524 . S
C734 H746 0.956 . S
C734 H747 0.961 . S
C734 H748 0.961 . S
C735 C732 1.539 . S
C735 H749 0.958 . S
C735 H750 0.961 . S
C735 H751 0.960 . S
H736 C720 0.931 . S
H737 C725 0.929 . S
H738 C726 0.960 . S
H739 C726 0.962 . S
H740 C726 0.960 . S
H741 C727 0.961 . S
H742 C727 0.961 . S
H743 C727 0.961 . S
H744 C728 0.931 . S
H745 C733 0.930 . S
H746 C734 0.956 . S
H747 C734 0.961 . S
H748 C734 0.961 . S
H749 C735 0.958 . S
H750 C735 0.961 . S
H751 C735 0.960 . S
C752 C753 1.391 . S
C752 C754 1.394 . S
C752 H768 0.931 . S
C753 C752 1.391 . S
C753 C757 1.376 . S
C754 C752 1.394 . S
C754 C755 1.369 . S
C754 C758 1.531 . S
C755 C754 1.369 . S
C755 C756 1.410 . S
C755 C763 1.503 . S
C756 C755 1.410 . S
C756 C757 1.392 . S
C756 C759 1.511 . S
C757 C753 1.376 . S
C757 C756 1.392 . S
C757 H769 0.929 . S
C758 C754 1.531 . S
C758 H770 0.960 . S
C758 H771 0.962 . S
C758 H772 0.960 . S
C759 C756 1.511 . S
C759 H773 0.961 . S
C759 H774 0.961 . S
C759 H775 0.961 . S
C760 C761 1.370 . S
C760 C762 1.363 1_554 S
C760 H776 0.931 . S
C761 C760 1.370 . S
C761 C765 1.408 . S
C762 C760 1.363 1_556 S
C762 C763 1.370 . S
C762 C766 1.524 . S
C763 C755 1.503 . S
C763 C762 1.370 . S
C763 C764 1.403 1_556 S
C764 C763 1.403 1_554 S
C764 C765 1.404 . S
C764 C767 1.539 . S
C765 C761 1.408 . S
C765 C764 1.404 . S
C765 H777 0.930 . S
C766 C762 1.524 . S
C766 H778 0.956 . S
C766 H779 0.961 . S
C766 H780 0.961 . S
C767 C764 1.539 . S
C767 H781 0.958 . S
C767 H782 0.961 . S
C767 H783 0.960 . S
H768 C752 0.931 . S
H769 C757 0.929 . S
H770 C758 0.960 . S
H771 C758 0.962 . S
H772 C758 0.960 . S
H773 C759 0.961 . S
H774 C759 0.961 . S
H775 C759 0.961 . S
H776 C760 0.931 . S
H777 C765 0.930 . S
H778 C766 0.956 . S
H779 C766 0.961 . S
H780 C766 0.961 . S
H781 C767 0.958 . S
H782 C767 0.961 . S
H783 C767 0.960 . S
C784 C785 1.391 . S
C784 C786 1.394 . S
C784 H800 0.931 . S
C785 C784 1.391 . S
C785 C789 1.376 . S
C786 C784 1.394 . S
C786 C787 1.369 . S
C786 C790 1.531 . S
C787 C786 1.369 . S
C787 C788 1.410 . S
C787 C795 1.503 . S
C788 C787 1.410 . S
C788 C789 1.392 . S
C788 C791 1.511 . S
C789 C785 1.376 . S
C789 C788 1.392 . S
C789 H801 0.929 . S
C790 C786 1.531 . S
C790 H802 0.960 . S
C790 H803 0.962 . S
C790 H804 0.960 . S
C791 C788 1.511 . S
C791 H805 0.961 . S
C791 H806 0.961 . S
C791 H807 0.961 . S
C792 C793 1.370 . S
C792 C794 1.363 . S
C792 H808 0.931 . S
C793 C792 1.370 . S
C793 C797 1.408 . S
C794 C792 1.363 . S
C794 C795 1.370 . S
C794 C798 1.524 . S
C795 C787 1.503 . S
C795 C794 1.370 . S
C795 C796 1.403 . S
C796 C795 1.403 . S
C796 C797 1.404 . S
C796 C799 1.539 . S
C797 C793 1.408 . S
C797 C796 1.404 . S
C797 H809 0.930 . S
C798 C794 1.524 . S
C798 H810 0.956 . S
C798 H811 0.961 . S
C798 H812 0.961 . S
C799 C796 1.539 . S
C799 H813 0.958 . S
C799 H814 0.961 . S
C799 H815 0.960 . S
H800 C784 0.931 . S
H801 C789 0.929 . S
H802 C790 0.960 . S
H803 C790 0.962 . S
H804 C790 0.960 . S
H805 C791 0.961 . S
H806 C791 0.961 . S
H807 C791 0.961 . S
H808 C792 0.931 . S
H809 C797 0.930 . S
H810 C798 0.956 . S
H811 C798 0.961 . S
H812 C798 0.961 . S
H813 C799 0.958 . S
H814 C799 0.961 . S
H815 C799 0.960 . S
C816 C817 1.391 . S
C816 C818 1.394 1_545 S
C816 H832 0.931 1_545 S
C817 C816 1.391 . S
C817 C821 1.376 . S
C818 C816 1.394 1_565 S
C818 C819 1.369 1_556 S
C818 C822 1.531 . S
C819 C818 1.369 1_554 S
C819 C820 1.410 1_565 S
C819 C827 1.503 . S
C820 C819 1.410 1_545 S
C820 C821 1.392 1_554 S
C820 C823 1.511 . S
C821 C817 1.376 . S
C821 C820 1.392 1_556 S
C821 H833 0.929 . S
C822 C818 1.531 . S
C822 H834 0.960 . S
C822 H835 0.962 . S
C822 H836 0.960 . S
C823 C820 1.511 . S
C823 H837 0.961 . S
C823 H838 0.961 . S
C823 H839 0.961 . S
C824 C825 1.370 . S
C824 C826 1.363 . S
C824 H840 0.931 . S
C825 C824 1.370 . S
C825 C829 1.408 . S
C826 C824 1.363 . S
C826 C827 1.370 . S
C826 C830 1.524 1_565 S
C827 C819 1.503 . S
C827 C826 1.370 . S
C827 C828 1.403 . S
C828 C827 1.403 . S
C828 C829 1.404 . S
C828 C831 1.539 . S
C829 C825 1.408 . S
C829 C828 1.404 . S
C829 H841 0.930 . S
C830 C826 1.524 1_545 S
C830 H842 0.956 . S
C830 H843 0.961 . S
C830 H844 0.961 . S
C831 C828 1.539 . S
C831 H845 0.958 . S
C831 H846 0.961 . S
C831 H847 0.960 . S
H832 C816 0.931 1_565 S
H833 C821 0.929 . S
H834 C822 0.960 . S
H835 C822 0.962 . S
H836 C822 0.960 . S
H837 C823 0.961 . S
H838 C823 0.961 . S
H839 C823 0.961 . S
H840 C824 0.931 . S
H841 C829 0.930 . S
H842 C830 0.956 . S
H843 C830 0.961 . S
H844 C830 0.961 . S
H845 C831 0.958 . S
H846 C831 0.961 . S
H847 C831 0.960 . S
C848 C849 1.391 . S
C848 C850 1.394 1_545 S
C848 H864 0.931 . S
C849 C848 1.391 . S
C849 C853 1.376 . S
C850 C848 1.394 1_565 S
C850 C851 1.369 . S
C850 C854 1.531 . S
C851 C850 1.369 . S
C851 C852 1.410 1_565 S
C851 C859 1.503 . S
C852 C851 1.410 1_545 S
C852 C853 1.392 . S
C852 C855 1.511 . S
C853 C849 1.376 . S
C853 C852 1.392 . S
C853 H865 0.929 . S
C854 C850 1.531 . S
C854 H866 0.960 . S
C854 H867 0.962 . S
C854 H868 0.960 . S
C855 C852 1.511 . S
C855 H869 0.961 . S
C855 H870 0.961 . S
C855 H871 0.961 1_545 S
C856 C857 1.370 . S
C856 C858 1.363 . S
C856 H872 0.931 . S
C857 C856 1.370 . S
C857 C861 1.408 . S
C858 C856 1.363 . S
C858 C859 1.370 . S
C858 C862 1.524 1_565 S
C859 C851 1.503 . S
C859 C858 1.370 . S
C859 C860 1.403 . S
C860 C859 1.403 . S
C860 C861 1.404 . S
C860 C863 1.539 . S
C861 C857 1.408 . S
C861 C860 1.404 . S
C861 H873 0.930 . S
C862 C858 1.524 1_545 S
C862 H874 0.956 . S
C862 H875 0.961 . S
C862 H876 0.961 . S
C863 C860 1.539 . S
C863 H877 0.958 . S
C863 H878 0.961 . S
C863 H879 0.960 . S
H864 C848 0.931 . S
H865 C853 0.929 . S
H866 C854 0.960 . S
H867 C854 0.962 . S
H868 C854 0.960 . S
H869 C855 0.961 . S
H870 C855 0.961 . S
H871 C855 0.961 1_565 S
H872 C856 0.931 . S
H873 C861 0.930 . S
H874 C862 0.956 . S
H875 C862 0.961 . S
H876 C862 0.961 . S
H877 C863 0.958 . S
H878 C863 0.961 . S
H879 C863 0.960 . S
C880 C881 1.391 . S
C880 C882 1.394 1_565 S
C880 H896 0.931 1_565 S
C881 C880 1.391 . S
C881 C885 1.376 . S
C882 C880 1.394 1_545 S
C882 C883 1.369 1_544 S
C882 C886 1.531 . S
C883 C882 1.369 1_566 S
C883 C884 1.410 . S
C883 C891 1.503 1_565 S
C884 C883 1.410 . S
C884 C885 1.392 1_556 S
C884 C887 1.511 . S
C885 C881 1.376 . S
C885 C884 1.392 1_554 S
C885 H897 0.929 . S
C886 C882 1.531 . S
C886 H898 0.960 . S
C886 H899 0.962 . S
C886 H900 0.960 . S
C887 C884 1.511 . S
C887 H901 0.961 . S
C887 H902 0.961 . S
C887 H903 0.961 . S
C888 C889 1.370 . S
C888 C890 1.363 . S
C888 H904 0.931 . S
C889 C888 1.370 . S
C889 C893 1.408 . S
C890 C888 1.363 . S
C890 C891 1.370 . S
C890 C894 1.524 . S
C891 C883 1.503 1_545 S
C891 C890 1.370 . S
C891 C892 1.403 . S
C892 C891 1.403 . S
C892 C893 1.404 . S
C892 C895 1.539 . S
C893 C889 1.408 . S
C893 C892 1.404 . S
C893 H905 0.930 . S
C894 C890 1.524 . S
C894 H906 0.956 . S
C894 H907 0.961 1_545 S
C894 H908 0.961 . S
C895 C892 1.539 . S
C895 H909 0.958 . S
C895 H910 0.961 . S
C895 H911 0.960 1_545 S
H896 C880 0.931 1_545 S
H897 C885 0.929 . S
H898 C886 0.960 . S
H899 C886 0.962 . S
H900 C886 0.960 . S
H901 C887 0.961 . S
H902 C887 0.961 . S
H903 C887 0.961 . S
H904 C888 0.931 . S
H905 C893 0.930 . S
H906 C894 0.956 . S
H907 C894 0.961 1_565 S
H908 C894 0.961 . S
H909 C895 0.958 . S
H910 C895 0.961 . S
H911 C895 0.960 1_565 S
C912 C913 1.391 . S
C912 C914 1.394 . S
C912 H928 0.931 . S
C913 C912 1.391 . S
C913 C917 1.376 . S
C914 C912 1.394 . S
C914 C915 1.369 . S
C914 C918 1.531 1_545 S
C915 C914 1.369 . S
C915 C916 1.410 . S
C915 C923 1.493 1_545 S
C916 C915 1.410 . S
C916 C917 1.392 . S
C916 C919 1.511 . S
C917 C913 1.376 . S
C917 C916 1.392 . S
C917 H929 0.929 . S
C918 C914 1.531 1_565 S
C918 H930 0.960 . S
C918 H931 0.962 . S
C918 H932 0.960 . S
C919 C916 1.511 . S
C919 H933 0.961 . S
C919 H934 0.961 . S
C919 H935 0.961 . S
C920 C921 1.370 . S
C920 C922 1.363 . S
C920 H936 0.931 . S
C921 C920 1.370 . S
C921 C925 1.408 . S
C922 C920 1.363 . S
C922 C923 1.382 . S
C922 C926 1.524 . S
C923 C915 1.493 1_565 S
C923 C922 1.382 . S
C923 C924 1.403 . S
C924 C923 1.403 . S
C924 C925 1.404 . S
C924 C927 1.539 1_565 S
C925 C921 1.408 . S
C925 C924 1.404 . S
C925 H937 0.930 . S
C926 C922 1.524 . S
C926 H938 0.956 . S
C926 H939 0.961 1_565 S
C926 H940 0.961 . S
C927 C924 1.539 1_545 S
C927 H941 0.958 . S
C927 H942 0.961 . S
C927 H943 0.960 . S
H928 C912 0.931 . S
H929 C917 0.929 . S
H930 C918 0.960 . S
H931 C918 0.962 . S
H932 C918 0.960 . S
H933 C919 0.961 . S
H934 C919 0.961 . S
H935 C919 0.961 . S
H936 C920 0.931 . S
H937 C925 0.930 . S
H938 C926 0.956 . S
H939 C926 0.961 1_545 S
H940 C926 0.961 . S
H941 C927 0.958 . S
H942 C927 0.961 . S
H943 C927 0.960 . S
C177 C139 1.062 . S
C185 C15 1.000 . S
C209 C175 1.044 . S
C217 C37 1.007 . S
C241 C103 1.022 . S
C249 C51 1.022 . S
C273 C125 0.964 . S
C281 C81 1.045 . S
C305 C131 1.616 1_545 S
C313 C10 1.552 . S
C337 C109 1.616 1_545 S
C345 C32 1.553 . S
C369 C62 1.590 . S
C377 C169 1.602 1_565 S
C401 C153 1.577 1_565 S
C409 C76 1.553 . S
C433 C43 1.572 . S
C441 C98 1.549 . S
C465 C120 1.515 . S
C473 C21 1.594 . S
C497 C150 1.590 . S
C505 C73 1.601 . S
C529 C65 1.612 . S
C537 C162 1.555 . S
C561 C18 1.416 . S
C569 C40 1.430 . S
C593 C74 1.443 . S
C601 C54 1.438 . S
C625 C128 1.416 . S
C633 C106 1.429 . S
C657 C172 1.438 . S
C665 C142 1.431 . S
C689 C87 1.400 . S
C697 C8 1.402 . S
C721 C30 1.381 . S
C729 C59 1.415 . S
C753 C52 1.424 . S
C761 C29 1.414 . S
C785 C7 1.413 . S
C793 C84 1.417 . S
C817 C161 1.402 . S
C825 C96 1.409 . S
C849 C147 1.411 . S
C857 C118 1.413 . S
C881 C117 1.427 . S
C889 C140 1.408 . S
C913 C164 1.414 . S
C921 C95 1.421 . S
