# Generated by pormake.
# Topology ukc, (4)-cn, num edge types: 1
# Building blocks:
#     Node 0, Type 0, BuildingBlock: GALJAG_clean_sbu_0, # of connection points: 4
#     Node 1, Type 0, BuildingBlock: GALJAG_clean_sbu_0, # of connection points: 4
#     Node 2, Type 0, BuildingBlock: GALJAG_clean_sbu_0, # of connection points: 4
#     Node 3, Type 0, BuildingBlock: GALJAG_clean_sbu_0, # of connection points: 4
#     Node 4, Type 0, BuildingBlock: GALJAG_clean_sbu_0, # of connection points: 4
#     Node 5, Type 0, BuildingBlock: GALJAG_clean_sbu_0, # of connection points: 4
#     Node 6, Type 0, BuildingBlock: GALJAG_clean_sbu_0, # of connection points: 4
#     Node 7, Type 0, BuildingBlock: GALJAG_clean_sbu_0, # of connection points: 4
#     Node 8, Type 0, BuildingBlock: GALJAG_clean_sbu_0, # of connection points: 4
#     Node 9, Type 0, BuildingBlock: GALJAG_clean_sbu_0, # of connection points: 4
#     Node 10, Type 0, BuildingBlock: GALJAG_clean_sbu_0, # of connection points: 4
#     Node 11, Type 0, BuildingBlock: GALJAG_clean_sbu_0, # of connection points: 4
#     Node 12, Type 0, BuildingBlock: GALJAG_clean_sbu_0, # of connection points: 4
#     Node 13, Type 0, BuildingBlock: GALJAG_clean_sbu_0, # of connection points: 4
#     Node 14, Type 0, BuildingBlock: GALJAG_clean_sbu_0, # of connection points: 4
#     Node 15, Type 0, BuildingBlock: GALJAG_clean_sbu_0, # of connection points: 4
#     Node 16, Type 0, BuildingBlock: GALJAG_clean_sbu_0, # of connection points: 4
#     Node 17, Type 0, BuildingBlock: GALJAG_clean_sbu_0, # of connection points: 4
#     Node 18, Type 0, BuildingBlock: GALJAG_clean_sbu_0, # of connection points: 4
#     Node 19, Type 0, BuildingBlock: GALJAG_clean_sbu_0, # of connection points: 4
#     Node 20, Type 0, BuildingBlock: GALJAG_clean_sbu_0, # of connection points: 4
#     Node 21, Type 0, BuildingBlock: GALJAG_clean_sbu_0, # of connection points: 4
#     Node 22, Type 0, BuildingBlock: GALJAG_clean_sbu_0, # of connection points: 4
#     Node 23, Type 0, BuildingBlock: GALJAG_clean_sbu_0, # of connection points: 4
#     Node 24, Type 0, BuildingBlock: GALJAG_clean_sbu_0, # of connection points: 4
#     Node 25, Type 0, BuildingBlock: GALJAG_clean_sbu_0, # of connection points: 4
#     Node 26, Type 0, BuildingBlock: GALJAG_clean_sbu_0, # of connection points: 4
#     Node 27, Type 0, BuildingBlock: GALJAG_clean_sbu_0, # of connection points: 4
#     Node 28, Type 0, BuildingBlock: GALJAG_clean_sbu_0, # of connection points: 4
#     Node 29, Type 0, BuildingBlock: GALJAG_clean_sbu_0, # of connection points: 4
#     Node 30, Type 0, BuildingBlock: GALJAG_clean_sbu_0, # of connection points: 4
#     Node 31, Type 0, BuildingBlock: GALJAG_clean_sbu_0, # of connection points: 4
#     Edge 32, Type (0, 0), BuildingBlock: OJICUG_clean_linker_0, # of connection points: 2
#     Edge 33, Type (0, 0), BuildingBlock: OJICUG_clean_linker_0, # of connection points: 2
#     Edge 34, Type (0, 0), BuildingBlock: OJICUG_clean_linker_0, # of connection points: 2
#     Edge 35, Type (0, 0), BuildingBlock: OJICUG_clean_linker_0, # of connection points: 2
#     Edge 36, Type (0, 0), BuildingBlock: OJICUG_clean_linker_0, # of connection points: 2
#     Edge 37, Type (0, 0), BuildingBlock: OJICUG_clean_linker_0, # of connection points: 2
#     Edge 38, Type (0, 0), BuildingBlock: OJICUG_clean_linker_0, # of connection points: 2
#     Edge 39, Type (0, 0), BuildingBlock: OJICUG_clean_linker_0, # of connection points: 2
#     Edge 40, Type (0, 0), BuildingBlock: OJICUG_clean_linker_0, # of connection points: 2
#     Edge 41, Type (0, 0), BuildingBlock: OJICUG_clean_linker_0, # of connection points: 2
#     Edge 42, Type (0, 0), BuildingBlock: OJICUG_clean_linker_0, # of connection points: 2
#     Edge 43, Type (0, 0), BuildingBlock: OJICUG_clean_linker_0, # of connection points: 2
#     Edge 44, Type (0, 0), BuildingBlock: OJICUG_clean_linker_0, # of connection points: 2
#     Edge 45, Type (0, 0), BuildingBlock: OJICUG_clean_linker_0, # of connection points: 2
#     Edge 46, Type (0, 0), BuildingBlock: OJICUG_clean_linker_0, # of connection points: 2
#     Edge 47, Type (0, 0), BuildingBlock: OJICUG_clean_linker_0, # of connection points: 2
#     Edge 48, Type (0, 0), BuildingBlock: OJICUG_clean_linker_0, # of connection points: 2
#     Edge 49, Type (0, 0), BuildingBlock: OJICUG_clean_linker_0, # of connection points: 2
#     Edge 50, Type (0, 0), BuildingBlock: OJICUG_clean_linker_0, # of connection points: 2
#     Edge 51, Type (0, 0), BuildingBlock: OJICUG_clean_linker_0, # of connection points: 2
#     Edge 52, Type (0, 0), BuildingBlock: OJICUG_clean_linker_0, # of connection points: 2
#     Edge 53, Type (0, 0), BuildingBlock: OJICUG_clean_linker_0, # of connection points: 2
#     Edge 54, Type (0, 0), BuildingBlock: OJICUG_clean_linker_0, # of connection points: 2
#     Edge 55, Type (0, 0), BuildingBlock: OJICUG_clean_linker_0, # of connection points: 2
#     Edge 56, Type (0, 0), BuildingBlock: OJICUG_clean_linker_0, # of connection points: 2
#     Edge 57, Type (0, 0), BuildingBlock: OJICUG_clean_linker_0, # of connection points: 2
#     Edge 58, Type (0, 0), BuildingBlock: OJICUG_clean_linker_0, # of connection points: 2
#     Edge 59, Type (0, 0), BuildingBlock: OJICUG_clean_linker_0, # of connection points: 2
#     Edge 60, Type (0, 0), BuildingBlock: OJICUG_clean_linker_0, # of connection points: 2
#     Edge 61, Type (0, 0), BuildingBlock: OJICUG_clean_linker_0, # of connection points: 2
#     Edge 62, Type (0, 0), BuildingBlock: OJICUG_clean_linker_0, # of connection points: 2
#     Edge 63, Type (0, 0), BuildingBlock: OJICUG_clean_linker_0, # of connection points: 2
#     Edge 64, Type (0, 0), BuildingBlock: OJICUG_clean_linker_0, # of connection points: 2
#     Edge 65, Type (0, 0), BuildingBlock: OJICUG_clean_linker_0, # of connection points: 2
#     Edge 66, Type (0, 0), BuildingBlock: OJICUG_clean_linker_0, # of connection points: 2
#     Edge 67, Type (0, 0), BuildingBlock: OJICUG_clean_linker_0, # of connection points: 2
#     Edge 68, Type (0, 0), BuildingBlock: OJICUG_clean_linker_0, # of connection points: 2
#     Edge 69, Type (0, 0), BuildingBlock: OJICUG_clean_linker_0, # of connection points: 2
#     Edge 70, Type (0, 0), BuildingBlock: OJICUG_clean_linker_0, # of connection points: 2
#     Edge 71, Type (0, 0), BuildingBlock: OJICUG_clean_linker_0, # of connection points: 2
#     Edge 72, Type (0, 0), BuildingBlock: OJICUG_clean_linker_0, # of connection points: 2
#     Edge 73, Type (0, 0), BuildingBlock: OJICUG_clean_linker_0, # of connection points: 2
#     Edge 74, Type (0, 0), BuildingBlock: OJICUG_clean_linker_0, # of connection points: 2
#     Edge 75, Type (0, 0), BuildingBlock: OJICUG_clean_linker_0, # of connection points: 2
#     Edge 76, Type (0, 0), BuildingBlock: OJICUG_clean_linker_0, # of connection points: 2
#     Edge 77, Type (0, 0), BuildingBlock: OJICUG_clean_linker_0, # of connection points: 2
#     Edge 78, Type (0, 0), BuildingBlock: OJICUG_clean_linker_0, # of connection points: 2
#     Edge 79, Type (0, 0), BuildingBlock: OJICUG_clean_linker_0, # of connection points: 2
#     Edge 80, Type (0, 0), BuildingBlock: OJICUG_clean_linker_0, # of connection points: 2
#     Edge 81, Type (0, 0), BuildingBlock: OJICUG_clean_linker_0, # of connection points: 2
#     Edge 82, Type (0, 0), BuildingBlock: OJICUG_clean_linker_0, # of connection points: 2
#     Edge 83, Type (0, 0), BuildingBlock: OJICUG_clean_linker_0, # of connection points: 2
#     Edge 84, Type (0, 0), BuildingBlock: OJICUG_clean_linker_0, # of connection points: 2
#     Edge 85, Type (0, 0), BuildingBlock: OJICUG_clean_linker_0, # of connection points: 2
#     Edge 86, Type (0, 0), BuildingBlock: OJICUG_clean_linker_0, # of connection points: 2
#     Edge 87, Type (0, 0), BuildingBlock: OJICUG_clean_linker_0, # of connection points: 2
#     Edge 88, Type (0, 0), BuildingBlock: OJICUG_clean_linker_0, # of connection points: 2
#     Edge 89, Type (0, 0), BuildingBlock: OJICUG_clean_linker_0, # of connection points: 2
#     Edge 90, Type (0, 0), BuildingBlock: OJICUG_clean_linker_0, # of connection points: 2
#     Edge 91, Type (0, 0), BuildingBlock: OJICUG_clean_linker_0, # of connection points: 2
#     Edge 92, Type (0, 0), BuildingBlock: OJICUG_clean_linker_0, # of connection points: 2
#     Edge 93, Type (0, 0), BuildingBlock: OJICUG_clean_linker_0, # of connection points: 2
#     Edge 94, Type (0, 0), BuildingBlock: OJICUG_clean_linker_0, # of connection points: 2
#     Edge 95, Type (0, 0), BuildingBlock: OJICUG_clean_linker_0, # of connection points: 2
# Relax obj value: 0.060
# Max RMSD: 0.082
# Mean RMSD: 0.082
data_MOF--net-ukc--node1-GALJAG_clean_sbu_0--edge1-OJICUG_clean_linker_0
_symmetry_space_group_name_H-M    P1
_symmetry_Int_Tables_number       1
_symmetry_cell_setting            triclinic
loop_
_symmetry_equiv_pos_as_xyz
'x, y, z'
_cell_length_a     31.944941
_cell_length_b     31.909436
_cell_length_c     67.024974
_cell_angle_alpha  89.996611
_cell_angle_beta   89.988867
_cell_angle_gamma 90.009215
loop_
_atom_site_label
_atom_site_type_symbol
_atom_site_fract_x
_atom_site_fract_y
_atom_site_fract_z
_atom_type_partial_charge
In0 In 0.0976 0.38658 0.05372 0.0
O1 O 0.0678 0.45134 0.04837 0.0
O2 O 0.05208 0.40161 0.02874 0.0
C3 C 0.12102 0.39273 0.09239 0.0
C4 C 0.1701 0.38823 0.03323 0.0
C5 C 0.04943 0.31755 0.05485 0.0
O6 O 0.09215 0.41506 0.08504 0.0
O7 O 0.1386 0.36849 0.0801 0.0
O8 O 0.07409 0.32529 0.04063 0.0
O9 O 0.04916 0.34446 0.06863 0.0
C10 C 0.04743 0.43962 0.03318 0.0
O11 O 0.15145 0.35468 0.03769 0.0
O12 O 0.15251 0.42118 0.0394 0.0
In13 In 0.85427 0.84747 0.30354 0.0
O14 O 0.78969 0.81721 0.29851 0.0
O15 O 0.83868 0.80285 0.27824 0.0
C16 C 0.84855 0.8713 0.34216 0.0
C17 C 0.85262 0.92014 0.28312 0.0
C18 C 0.92275 0.79858 0.30467 0.0
O19 O 0.82562 0.84286 0.33484 0.0
O20 O 0.87323 0.88823 0.32987 0.0
O21 O 0.9155 0.82366 0.29055 0.0
O22 O 0.89563 0.79824 0.31835 0.0
C23 C 0.80097 0.79756 0.28303 0.0
O24 O 0.88612 0.90132 0.28743 0.0
O25 O 0.81972 0.90263 0.28939 0.0
In26 In 0.39338 0.60541 0.55389 0.0
O27 O 0.33946 0.6372 0.53789 0.0
O28 O 0.33854 0.57069 0.53955 0.0
C29 C 0.44173 0.67433 0.55491 0.0
C30 C 0.44362 0.55214 0.53352 0.0
C31 C 0.36949 0.59954 0.5925 0.0
O32 O 0.41716 0.66648 0.54068 0.0
O33 O 0.44186 0.64758 0.56876 0.0
O34 O 0.39818 0.57687 0.58522 0.0
O35 O 0.35236 0.62401 0.58018 0.0
C36 C 0.32088 0.60363 0.53342 0.0
O37 O 0.42392 0.54085 0.54898 0.0
O38 O 0.43821 0.58985 0.52869 0.0
In39 In 0.63662 0.1434 0.80385 0.0
O40 O 0.60474 0.08937 0.78794 0.0
O41 O 0.67119 0.08853 0.78944 0.0
C42 C 0.56747 0.19139 0.80483 0.0
C43 C 0.68989 0.19365 0.78349 0.0
C44 C 0.64283 0.11995 0.84252 0.0
O45 O 0.57567 0.16708 0.79053 0.0
O46 O 0.59398 0.19141 0.81877 0.0
O47 O 0.66474 0.14921 0.83522 0.0
O48 O 0.61899 0.10199 0.83019 0.0
C49 C 0.63824 0.07083 0.78337 0.0
O50 O 0.70129 0.17351 0.7988 0.0
O51 O 0.65208 0.18871 0.77882 0.0
In52 In 0.09714 0.60471 0.46605 0.0
O53 O 0.15078 0.63674 0.48215 0.0
O54 O 0.15226 0.57027 0.48028 0.0
C55 C 0.04823 0.67322 0.46495 0.0
C56 C 0.04712 0.55121 0.4864 0.0
C57 C 0.12121 0.59921 0.42744 0.0
O58 O 0.07306 0.66577 0.47913 0.0
O59 O 0.04812 0.64625 0.4512 0.0
O60 O 0.09303 0.57593 0.43474 0.0
O61 O 0.13778 0.62412 0.43974 0.0
C62 C 0.16964 0.60328 0.48652 0.0
O63 O 0.06666 0.54009 0.47086 0.0
O64 O 0.05262 0.58884 0.49133 0.0
In65 In 0.63653 0.84729 0.71565 0.0
O66 O 0.70093 0.81638 0.72026 0.0
O67 O 0.65253 0.80289 0.74097 0.0
C68 C 0.64235 0.87128 0.67704 0.0
C69 C 0.63823 0.91986 0.73613 0.0
C70 C 0.56767 0.79885 0.7147 0.0
O71 O 0.66494 0.84251 0.6843 0.0
O72 O 0.61797 0.88847 0.68938 0.0
O73 O 0.57563 0.82339 0.72894 0.0
O74 O 0.5943 0.79878 0.70081 0.0
C75 C 0.68999 0.79707 0.73589 0.0
O76 O 0.60473 0.90121 0.73167 0.0
O77 O 0.67116 0.90226 0.72997 0.0
In78 In 0.39357 0.38712 0.9656 0.0
O79 O 0.4235 0.45194 0.97063 0.0
O80 O 0.4394 0.40254 0.99041 0.0
C81 C 0.37025 0.39347 0.92692 0.0
C82 C 0.32112 0.38861 0.98614 0.0
C83 C 0.44112 0.31764 0.96464 0.0
O84 O 0.39963 0.41519 0.93422 0.0
O85 O 0.35211 0.36977 0.93925 0.0
O86 O 0.41715 0.32618 0.97903 0.0
O87 O 0.44107 0.344 0.95063 0.0
C88 C 0.44405 0.44046 0.9858 0.0
O89 O 0.33964 0.35511 0.98151 0.0
O90 O 0.3388 0.42164 0.98012 0.0
In91 In 0.85333 0.1444 0.21588 0.0
O92 O 0.88546 0.09039 0.23172 0.0
O93 O 0.819 0.08948 0.23041 0.0
C94 C 0.92256 0.19228 0.21486 0.0
C95 C 0.80007 0.19471 0.23621 0.0
C96 C 0.84687 0.12107 0.1772 0.0
O97 O 0.91431 0.16805 0.22919 0.0
O98 O 0.89605 0.19229 0.20092 0.0
O99 O 0.82512 0.1504 0.18454 0.0
O100 O 0.87067 0.10299 0.1895 0.0
C101 C 0.85203 0.07178 0.23636 0.0
O102 O 0.78853 0.17408 0.22107 0.0
O103 O 0.83801 0.19021 0.24074 0.0
In104 In 0.89421 0.6029 0.96495 0.0
O105 O 0.84002 0.63509 0.98056 0.0
O106 O 0.8396 0.56851 0.97969 0.0
C107 C 0.94073 0.6731 0.96405 0.0
C108 C 0.94476 0.54988 0.98531 0.0
C109 C 0.87162 0.59568 0.9262 0.0
O110 O 0.91726 0.66389 0.97853 0.0
O111 O 0.94068 0.64705 0.94991 0.0
O112 O 0.902 0.57545 0.93353 0.0
O113 O 0.85212 0.61824 0.93854 0.0
C114 C 0.8217 0.60163 0.98544 0.0
O115 O 0.92347 0.53794 0.97046 0.0
O116 O 0.94087 0.5881 0.98949 0.0
In117 In 0.13756 0.1444 0.71502 0.0
O118 O 0.10547 0.09037 0.73084 0.0
O119 O 0.17194 0.08951 0.72954 0.0
C120 C 0.06805 0.19187 0.71409 0.0
C121 C 0.19075 0.19472 0.73541 0.0
C122 C 0.14413 0.12125 0.67632 0.0
O123 O 0.07661 0.16782 0.72844 0.0
O124 O 0.09441 0.19195 0.70009 0.0
O125 O 0.16547 0.15091 0.68364 0.0
O126 O 0.12072 0.10274 0.68866 0.0
C127 C 0.1389 0.07182 0.7355 0.0
O128 O 0.20231 0.17425 0.72022 0.0
O129 O 0.15281 0.19012 0.73992 0.0
In130 In 0.59662 0.38789 0.46567 0.0
O131 O 0.56638 0.45255 0.4707 0.0
O132 O 0.55206 0.40352 0.49097 0.0
C133 C 0.62046 0.39369 0.42704 0.0
C134 C 0.66917 0.38921 0.48612 0.0
C135 C 0.54786 0.31927 0.46453 0.0
O136 O 0.59203 0.41661 0.43437 0.0
O137 O 0.63739 0.36901 0.43933 0.0
O138 O 0.57276 0.32667 0.47869 0.0
O139 O 0.54759 0.34634 0.45082 0.0
C140 C 0.54676 0.44127 0.48618 0.0
O141 O 0.65028 0.35577 0.48173 0.0
O142 O 0.65181 0.42225 0.47991 0.0
In143 In 0.3531 0.8467 0.21514 0.0
O144 O 0.28802 0.81802 0.22085 0.0
O145 O 0.33832 0.79971 0.23958 0.0
C146 C 0.34589 0.86947 0.17641 0.0
C147 C 0.35215 0.91925 0.23567 0.0
C148 C 0.42279 0.79953 0.21407 0.0
O149 O 0.32519 0.83944 0.18379 0.0
O150 O 0.36897 0.88852 0.18869 0.0
O151 O 0.4141 0.82329 0.22852 0.0
O152 O 0.39649 0.79964 0.20004 0.0
C153 C 0.30001 0.79634 0.23557 0.0
O154 O 0.38551 0.90077 0.23083 0.0
O155 O 0.31902 0.90146 0.22989 0.0
In156 In 0.8929 0.38671 0.55351 0.0
O157 O 0.92342 0.45132 0.54871 0.0
O158 O 0.93799 0.40239 0.52842 0.0
C159 C 0.86937 0.39265 0.59217 0.0
C160 C 0.82036 0.38861 0.53307 0.0
C161 C 0.94091 0.31754 0.55442 0.0
O162 O 0.89834 0.41493 0.58487 0.0
O163 O 0.85173 0.36857 0.57984 0.0
O164 O 0.91667 0.3258 0.54011 0.0
O165 O 0.94086 0.344 0.56839 0.0
C166 C 0.94331 0.44009 0.53329 0.0
O167 O 0.83882 0.35501 0.53757 0.0
O168 O 0.83814 0.42153 0.53916 0.0
In169 In 0.35493 0.14334 0.30302 0.0
O170 O 0.38669 0.08964 0.28675 0.0
O171 O 0.32034 0.0881 0.28896 0.0
C172 C 0.42318 0.19258 0.30414 0.0
C173 C 0.30135 0.19336 0.28274 0.0
C174 C 0.34965 0.11929 0.34163 0.0
O175 O 0.41594 0.16761 0.28997 0.0
O176 O 0.39616 0.19264 0.31786 0.0
O177 O 0.32617 0.14729 0.33432 0.0
O178 O 0.37467 0.10288 0.32934 0.0
C179 C 0.35318 0.07072 0.28256 0.0
O180 O 0.29036 0.17382 0.2983 0.0
O181 O 0.33891 0.18786 0.27774 0.0
In182 In 0.5982 0.60473 0.05305 0.0
O183 O 0.56789 0.54006 0.04813 0.0
O184 O 0.5529 0.58919 0.02803 0.0
C185 C 0.62177 0.59903 0.09171 0.0
C186 C 0.67068 0.60272 0.03254 0.0
C187 C 0.55003 0.67376 0.05406 0.0
O188 O 0.59308 0.57641 0.08441 0.0
O189 O 0.63912 0.62336 0.07939 0.0
O190 O 0.57449 0.66581 0.03979 0.0
O191 O 0.54994 0.64707 0.06793 0.0
C192 C 0.5478 0.55141 0.0328 0.0
O193 O 0.65202 0.63633 0.03685 0.0
O194 O 0.65313 0.56988 0.03886 0.0
In195 In 0.13619 0.84882 0.80366 0.0
O196 O 0.10454 0.90277 0.78756 0.0
O197 O 0.17098 0.90338 0.78908 0.0
C198 C 0.06647 0.80168 0.80454 0.0
C199 C 0.18937 0.79793 0.78358 0.0
C200 C 0.14248 0.87199 0.84236 0.0
O201 O 0.07538 0.82536 0.79009 0.0
O202 O 0.09255 0.80186 0.81866 0.0
O203 O 0.16384 0.84231 0.83508 0.0
O204 O 0.1192 0.89053 0.82999 0.0
C205 C 0.13812 0.92113 0.78295 0.0
O206 O 0.20109 0.81931 0.79845 0.0
O207 O 0.15127 0.80189 0.77924 0.0
In208 In 0.59728 0.88782 0.55368 0.0
O209 O 0.65098 0.85578 0.53761 0.0
O210 O 0.65226 0.92228 0.53931 0.0
C211 C 0.54914 0.81876 0.5548 0.0
C212 C 0.54714 0.94102 0.53322 0.0
C213 C 0.62082 0.89386 0.59233 0.0
O214 O 0.57371 0.82659 0.54055 0.0
O215 O 0.54892 0.84562 0.56861 0.0
O216 O 0.59182 0.9161 0.58504 0.0
O217 O 0.63848 0.8698 0.58 0.0
C218 C 0.66972 0.88926 0.53313 0.0
O219 O 0.56752 0.95264 0.54842 0.0
O220 O 0.55178 0.90304 0.52871 0.0
In221 In 0.35458 0.34756 0.80355 0.0
O222 O 0.29005 0.31717 0.79849 0.0
O223 O 0.33911 0.30291 0.77825 0.0
C224 C 0.34882 0.37134 0.84218 0.0
C225 C 0.35284 0.42028 0.78319 0.0
C226 C 0.42324 0.29893 0.80465 0.0
O227 O 0.32598 0.34281 0.83487 0.0
O228 O 0.37341 0.38837 0.82988 0.0
O229 O 0.41579 0.32388 0.7905 0.0
O230 O 0.39621 0.29857 0.81837 0.0
C231 C 0.3014 0.29755 0.78301 0.0
O232 O 0.38636 0.40151 0.7875 0.0
O233 O 0.31995 0.40268 0.78941 0.0
In234 In 0.89246 0.10507 0.05383 0.0
O235 O 0.92305 0.04054 0.04898 0.0
O236 O 0.937 0.08938 0.02854 0.0
C237 C 0.8686 0.09939 0.09245 0.0
C238 C 0.81997 0.10323 0.03336 0.0
C239 C 0.94118 0.17374 0.05488 0.0
O240 O 0.89701 0.07643 0.08514 0.0
O241 O 0.85169 0.12406 0.08015 0.0
O242 O 0.91641 0.16617 0.04069 0.0
O243 O 0.94129 0.14686 0.06867 0.0
C244 C 0.94254 0.05174 0.03344 0.0
O245 O 0.83858 0.13681 0.03776 0.0
O246 O 0.83756 0.07032 0.03958 0.0
In247 In 0.13651 0.6436 0.30397 0.0
O248 O 0.10446 0.58959 0.28807 0.0
O249 O 0.17092 0.58889 0.28935 0.0
C250 C 0.06694 0.69095 0.30495 0.0
C251 C 0.1896 0.69412 0.28362 0.0
C252 C 0.14323 0.6206 0.34268 0.0
O253 O 0.07557 0.66705 0.29054 0.0
O254 O 0.09322 0.69085 0.31899 0.0
O255 O 0.16443 0.65033 0.33534 0.0
O256 O 0.11988 0.60196 0.33038 0.0
C257 C 0.13793 0.57113 0.28337 0.0
O258 O 0.20153 0.67257 0.2984 0.0
O259 O 0.15135 0.69053 0.27952 0.0
In260 In 0.59643 0.10395 0.96583 0.0
O261 O 0.56544 0.0395 0.97042 0.0
O262 O 0.55244 0.0878 0.99128 0.0
C263 C 0.62052 0.09826 0.92724 0.0
C264 C 0.66898 0.10254 0.98627 0.0
C265 C 0.54768 0.1726 0.9648 0.0
O266 O 0.59209 0.07526 0.93452 0.0
O267 O 0.63732 0.12298 0.93955 0.0
O268 O 0.57233 0.16491 0.97902 0.0
O269 O 0.54764 0.14579 0.95098 0.0
C270 C 0.5464 0.05037 0.98614 0.0
O271 O 0.6502 0.13599 0.98182 0.0
O272 O 0.65152 0.0695 0.98012 0.0
In273 In 0.1364 0.34733 0.2158 0.0
O274 O 0.10445 0.40122 0.23181 0.0
O275 O 0.17088 0.40234 0.23017 0.0
C276 C 0.06741 0.29908 0.21484 0.0
C277 C 0.18993 0.29705 0.23599 0.0
C278 C 0.14244 0.37094 0.17715 0.0
O279 O 0.07557 0.32337 0.22916 0.0
O280 O 0.09391 0.29918 0.20089 0.0
O281 O 0.16473 0.34199 0.18446 0.0
O282 O 0.11826 0.3885 0.18946 0.0
C283 C 0.13792 0.41992 0.2363 0.0
O284 O 0.2011 0.31717 0.22063 0.0
O285 O 0.15221 0.30206 0.24082 0.0
In286 In 0.89329 0.88714 0.46558 0.0
O287 O 0.83918 0.85536 0.48146 0.0
O288 O 0.83854 0.92189 0.48 0.0
C289 C 0.941 0.81775 0.46468 0.0
C290 C 0.94373 0.94046 0.48581 0.0
C291 C 0.86998 0.89337 0.4269 0.0
O292 O 0.9169 0.8262 0.47902 0.0
O293 O 0.94097 0.84414 0.45067 0.0
O294 O 0.8992 0.91528 0.43422 0.0
O295 O 0.85198 0.86952 0.43922 0.0
C296 C 0.82073 0.88894 0.48603 0.0
O297 O 0.92366 0.95178 0.47046 0.0
O298 O 0.93858 0.90269 0.4906 0.0
In299 In 0.35344 0.64444 0.7159 0.0
O300 O 0.3856 0.59064 0.73187 0.0
O301 O 0.31916 0.58951 0.73043 0.0
C302 C 0.42273 0.6922 0.71483 0.0
C303 C 0.30015 0.69478 0.73621 0.0
C304 C 0.34715 0.62104 0.67722 0.0
O305 O 0.41444 0.66805 0.72919 0.0
O306 O 0.3962 0.69222 0.7009 0.0
O307 O 0.3254 0.65042 0.68452 0.0
O308 O 0.37085 0.60295 0.68956 0.0
C309 C 0.3522 0.57195 0.73647 0.0
O310 O 0.28849 0.6737 0.72123 0.0
O311 O 0.33824 0.69077 0.74056 0.0
In312 In 0.39394 0.10457 0.46512 0.0
O313 O 0.33969 0.13657 0.48078 0.0
O314 O 0.33927 0.07001 0.4797 0.0
C315 C 0.44114 0.17431 0.46418 0.0
C316 C 0.44434 0.05151 0.48553 0.0
C317 C 0.37107 0.09764 0.4264 0.0
O318 O 0.41724 0.1656 0.47857 0.0
O319 O 0.44116 0.14801 0.45015 0.0
O320 O 0.4008 0.07652 0.43377 0.0
O321 O 0.35239 0.12103 0.43868 0.0
C322 C 0.32134 0.10305 0.48553 0.0
O323 O 0.42364 0.03977 0.47045 0.0
O324 O 0.43991 0.08957 0.48993 0.0
In325 In 0.63676 0.64473 0.21512 0.0
O326 O 0.70147 0.67465 0.22024 0.0
O327 O 0.6522 0.68998 0.24018 0.0
C328 C 0.64304 0.62117 0.17647 0.0
C329 C 0.63811 0.57219 0.23565 0.0
C330 C 0.56781 0.69301 0.21407 0.0
O331 O 0.66516 0.65023 0.18379 0.0
O332 O 0.61891 0.60348 0.18876 0.0
O333 O 0.57564 0.66835 0.22828 0.0
O334 O 0.59461 0.69325 0.20025 0.0
C335 C 0.69005 0.69482 0.23555 0.0
O336 O 0.60467 0.59086 0.23109 0.0
O337 O 0.67112 0.58976 0.22956 0.0
In338 In 0.09539 0.88727 0.96566 0.0
O339 O 0.06503 0.95189 0.9706 0.0
O340 O 0.05098 0.903 0.99099 0.0
C341 C 0.11957 0.89306 0.92708 0.0
C342 C 0.16789 0.88849 0.98613 0.0
C343 C 0.04655 0.81871 0.96449 0.0
O344 O 0.09118 0.9161 0.93435 0.0
O345 O 0.13625 0.86825 0.93938 0.0
O346 O 0.07149 0.82606 0.97864 0.0
O347 O 0.04626 0.84582 0.9508 0.0
C348 C 0.04555 0.94069 0.98613 0.0
O349 O 0.14903 0.85508 0.98167 0.0
O350 O 0.1505 0.92158 0.97999 0.0
In351 In 0.85403 0.34652 0.71551 0.0
O352 O 0.88612 0.40048 0.73138 0.0
O353 O 0.81967 0.40152 0.72992 0.0
C354 C 0.92287 0.29813 0.71439 0.0
C355 C 0.80077 0.29651 0.736 0.0
C356 C 0.8479 0.37032 0.67689 0.0
O357 O 0.91516 0.32281 0.72861 0.0
O358 O 0.89599 0.29789 0.70061 0.0
O359 O 0.8255 0.34143 0.68419 0.0
O360 O 0.87222 0.3877 0.6892 0.0
C361 C 0.85269 0.41916 0.73593 0.0
O362 O 0.78942 0.31636 0.72059 0.0
O363 O 0.83853 0.30163 0.74072 0.0
In364 In 0.39218 0.88555 0.05306 0.0
O365 O 0.33825 0.85394 0.03698 0.0
O366 O 0.33703 0.92039 0.03908 0.0
C367 C 0.44154 0.81736 0.05403 0.0
C368 C 0.44214 0.93911 0.03273 0.0
C369 C 0.36794 0.89063 0.09164 0.0
O370 O 0.41651 0.82462 0.03991 0.0
O371 O 0.44161 0.84431 0.06779 0.0
O372 O 0.39554 0.91457 0.08433 0.0
O373 O 0.35205 0.86521 0.07938 0.0
C374 C 0.31946 0.88754 0.03278 0.0
O375 O 0.4237 0.94978 0.04864 0.0
O376 O 0.43552 0.9019 0.02739 0.0
In377 In 0.85498 0.64354 0.80299 0.0
O378 O 0.88674 0.58998 0.78667 0.0
O379 O 0.82041 0.58813 0.78908 0.0
C380 C 0.92265 0.69355 0.80411 0.0
C381 C 0.80133 0.69324 0.78261 0.0
C382 C 0.85037 0.61873 0.84151 0.0
O383 O 0.91602 0.66802 0.79011 0.0
O384 O 0.8953 0.69381 0.81768 0.0
O385 O 0.82591 0.64598 0.83427 0.0
O386 O 0.87608 0.6035 0.8292 0.0
C387 C 0.85326 0.57089 0.7826 0.0
O388 O 0.79074 0.67486 0.79855 0.0
O389 O 0.83852 0.6867 0.77727 0.0
In390 In 0.09768 0.10496 0.55302 0.0
O391 O 0.06711 0.04038 0.54824 0.0
O392 O 0.05313 0.08911 0.52775 0.0
C393 C 0.12185 0.0996 0.5916 0.0
C394 C 0.17012 0.10332 0.53249 0.0
C395 C 0.04874 0.17344 0.55415 0.0
O396 O 0.09369 0.07626 0.58434 0.0
O397 O 0.13835 0.12451 0.57928 0.0
O398 O 0.07363 0.16608 0.53997 0.0
O399 O 0.04859 0.14642 0.56788 0.0
C400 C 0.04758 0.05149 0.5327 0.0
O401 O 0.15124 0.13683 0.53676 0.0
O402 O 0.15279 0.07039 0.53885 0.0
In403 In 0.63606 0.34887 0.30359 0.0
O404 O 0.70084 0.31903 0.2985 0.0
O405 O 0.6514 0.30286 0.27882 0.0
C406 C 0.64235 0.37218 0.34228 0.0
C407 C 0.63774 0.42135 0.28301 0.0
C408 C 0.56681 0.301 0.30451 0.0
O409 O 0.66415 0.34288 0.33495 0.0
O410 O 0.61856 0.39025 0.32997 0.0
O411 O 0.57522 0.32512 0.29016 0.0
O412 O 0.59313 0.30114 0.31853 0.0
C413 C 0.68932 0.29833 0.28338 0.0
O414 O 0.60422 0.4029 0.28763 0.0
O415 O 0.67067 0.4036 0.28906 0.0
C416 C 0.97436 0.47884 0.99275 0.0
C417 C 0.9713 0.5216 0.99737 0.0
H418 H 0.00075 0.4194 1.00053 0.0
C419 C 0.99332 0.53726 0.01397 0.0
H420 H 0.9577 0.46586 0.98011 0.0
C421 C 0.01788 0.51067 0.02572 0.0
C422 C 0.02095 0.46791 0.0211 0.0
H423 H 0.99152 0.57011 0.01793 0.0
H424 H 0.03453 0.52364 0.03837 0.0
C425 C -0.00104 0.45226 1.00449 0.0
C426 C 0.7034 0.74235 0.26454 0.0
C427 C 0.7185 0.72132 0.24754 0.0
H428 H 0.71761 0.78286 0.28915 0.0
C429 C 0.76087 0.72542 0.2424 0.0
H430 H 0.67086 0.73975 0.2689 0.0
C431 C 0.78761 0.75006 0.25402 0.0
C432 C 0.77252 0.77108 0.27103 0.0
H433 H 0.77341 0.70953 0.22942 0.0
H434 H 0.82016 0.75266 0.24966 0.0
C435 C 0.73015 0.76698 0.27617 0.0
C436 C 0.51565 0.512 0.49287 0.0
C437 C 0.52024 0.46972 0.49817 0.0
H438 H 0.48791 0.57119 0.49996 0.0
C439 C 0.49962 0.45472 0.5153 0.0
H440 H 0.5312 0.52446 0.47978 0.0
C441 C 0.47488 0.48145 0.52689 0.0
C442 C 0.47026 0.52372 0.52158 0.0
H443 H 0.50261 0.42225 0.5198 0.0
H444 H 0.45931 0.46898 0.53997 0.0
C445 C 0.4909 0.53873 0.50446 0.0
C446 C 0.78738 0.24914 0.76506 0.0
C447 C 0.77232 0.27001 0.74801 0.0
H448 H 0.77316 0.20871 0.78971 0.0
C449 C 0.73 0.26574 0.74283 0.0
H450 H 0.81989 0.25188 0.76946 0.0
C451 C 0.70326 0.24109 0.75446 0.0
C452 C 0.71833 0.2202 0.77151 0.0
H453 H 0.71749 0.2815 0.72981 0.0
H454 H 0.67076 0.23835 0.75005 0.0
C455 C 0.76065 0.22447 0.77669 0.0
C456 C 0.99076 0.45372 0.5043 0.0
C457 C 0.97009 0.46857 0.52145 0.0
H458 H 0.03123 0.46816 0.47972 0.0
C459 C 0.97487 0.51075 0.5269 0.0
H460 H 0.98764 0.42133 0.4997 0.0
C461 C -0.0002 0.53753 0.51543 0.0
C462 C 0.02044 0.52268 0.49827 0.0
H463 H 0.95929 0.5231 0.54 0.0
H464 H 0.00291 0.56992 0.52002 0.0
C465 C 0.01567 0.48051 0.49282 0.0
C466 C 0.76025 0.76441 0.7418 0.0
C467 C 0.71853 0.77032 0.7477 0.0
H468 H 0.81911 0.73543 0.74827 0.0
C469 C 0.70418 0.75076 0.76524 0.0
H470 H 0.7722 0.7791 0.72839 0.0
C471 C 0.73103 0.72582 0.77667 0.0
C472 C 0.77275 0.7199 0.77077 0.0
H473 H 0.67216 0.75477 0.77019 0.0
H474 H 0.71909 0.71114 0.79009 0.0
C475 C 0.78708 0.73943 0.75322 0.0
C476 C 0.4748 0.51135 0.99252 0.0
C477 C 0.47079 0.46892 0.99767 0.0
H478 H 0.50221 0.57068 0.99967 0.0
C479 C 0.49217 0.45378 0.01456 0.0
H480 H 0.45866 0.52392 0.97963 0.0
C481 C 0.51704 0.48053 0.02608 0.0
C482 C 0.52106 0.52295 0.02093 0.0
H483 H 0.48965 0.4212 0.01893 0.0
H484 H 0.53318 0.46796 0.03897 0.0
C485 C 0.49969 0.53809 1.00403 0.0
C486 C 0.72912 0.22486 0.24321 0.0
C487 C 0.77165 0.2214 0.24814 0.0
H488 H 0.66975 0.25181 0.25057 0.0
C489 C 0.78695 0.24325 0.26486 0.0
H490 H 0.71642 0.20834 0.23046 0.0
C491 C 0.76026 0.2681 0.27642 0.0
C492 C 0.71773 0.27158 0.27149 0.0
H493 H 0.81963 0.24116 0.26905 0.0
H494 H 0.77295 0.28464 0.28917 0.0
C495 C 0.70242 0.2497 0.25477 0.0
C496 C 0.23063 0.26692 0.77607 0.0
C497 C 0.27302 0.27105 0.77098 0.0
H498 H 0.17139 0.23966 0.76874 0.0
C499 C 0.2882 0.25006 0.75398 0.0
H500 H 0.21802 0.28277 0.78904 0.0
C501 C 0.26152 0.2254 0.74232 0.0
C502 C 0.21913 0.22127 0.74742 0.0
H503 H 0.32076 0.25269 0.74965 0.0
H504 H 0.27412 0.20953 0.72936 0.0
C505 C 0.20394 0.24229 0.76441 0.0
C506 C 0.26093 0.72229 0.27567 0.0
C507 C 0.21792 0.72059 0.27154 0.0
H508 H 0.3206 0.74743 0.26744 0.0
C509 C 0.20205 0.74383 0.25537 0.0
H510 H 0.27407 0.70464 0.28798 0.0
C511 C 0.22866 0.76826 0.24356 0.0
C512 C 0.27168 0.76994 0.24769 0.0
H513 H 0.169 0.7431 0.25178 0.0
H514 H 0.21552 0.78589 0.23125 0.0
C515 C 0.28755 0.74671 0.26386 0.0
C516 C 0.23058 0.22447 0.27633 0.0
C517 C 0.27277 0.22004 0.27091 0.0
H518 H 0.17132 0.2522 0.26946 0.0
C519 C 0.28755 0.24099 0.25382 0.0
H520 H 0.21828 0.20867 0.28938 0.0
C521 C 0.26069 0.26589 0.24239 0.0
C522 C 0.2185 0.27032 0.2478 0.0
H523 H 0.31995 0.23814 0.24925 0.0
H524 H 0.27299 0.28171 0.22934 0.0
C525 C 0.20371 0.24935 0.26488 0.0
C526 C 0.26054 0.76866 0.77625 0.0
C527 C 0.21777 0.77121 0.77167 0.0
H528 H 0.32011 0.7426 0.76854 0.0
C529 C 0.20223 0.74855 0.75524 0.0
H530 H 0.27342 0.78583 0.78876 0.0
C531 C 0.22894 0.72387 0.74361 0.0
C532 C 0.27172 0.72135 0.74818 0.0
H533 H 0.16937 0.74993 0.75131 0.0
H534 H 0.21607 0.70672 0.73108 0.0
C535 C 0.28725 0.74397 0.76462 0.0
C536 C 0.49899 0.95392 0.50443 0.0
C537 C 0.52064 0.96938 0.52118 0.0
H538 H 0.45799 0.96772 0.47997 0.0
C539 C 0.51717 0.01202 0.52599 0.0
H540 H 0.5011 0.92116 0.50031 0.0
C541 C 0.49255 0.03866 0.5143 0.0
C542 C 0.4709 0.02319 0.49755 0.0
H543 H 0.53355 0.02484 0.53876 0.0
H544 H 0.49044 0.07141 0.51841 0.0
C545 C 0.47437 0.98055 0.49274 0.0
C546 C 0.01426 0.01139 0.99271 0.0
C547 C 0.01904 0.96918 0.9981 0.0
H548 H 0.98641 0.07057 0.99972 0.0
C549 C -0.00138 0.95429 0.01531 0.0
H550 H 0.02966 0.02376 0.97956 0.0
C551 C 0.97391 0.98106 0.02689 0.0
C552 C 0.96912 0.02326 0.02149 0.0
H553 H 0.00175 0.92188 0.01988 0.0
H554 H 0.9585 0.96868 0.04004 0.0
C555 C 0.98955 0.03816 1.00429 0.0
C556 C 0.5003 0.03612 0.01555 0.0
C557 C 0.51962 0.02182 0.99794 0.0
H558 H 0.46075 0.0212 0.04041 0.0
C559 C 0.51335 0.98017 0.99194 0.0
H560 H 0.50459 0.06809 0.02057 0.0
C561 C 0.48826 0.95336 1.00332 0.0
C562 C 0.46895 0.96766 0.02094 0.0
H563 H 0.52784 0.96826 0.97847 0.0
H564 H 0.48397 0.92139 0.99829 0.0
C565 C 0.47523 0.0093 0.02694 0.0
C566 C 0.00015 0.03789 0.50372 0.0
C567 C 0.02087 0.02299 0.52084 0.0
H568 H 0.95957 0.02352 0.47917 0.0
C569 C 0.01617 0.98079 0.52625 0.0
H570 H 0.0032 0.07031 0.49915 0.0
C571 C 0.99125 0.95401 0.51477 0.0
C572 C 0.97051 0.96892 0.49765 0.0
H573 H 0.0318 0.9684 0.53933 0.0
H574 H 0.98819 0.9216 0.51934 0.0
C575 C 0.97521 0.01113 0.49224 0.0
C576 C 0.98194 0.22836 0.03692 0.0
C577 C 0.96875 0.21056 0.055 0.0
H578 H 0.01887 0.27585 0.02277 0.0
C579 C 0.98241 0.22797 0.0731 0.0
H580 H 0.97194 0.21527 0.02279 0.0
C581 C 0.00839 0.2632 0.07309 0.0
C582 C 0.02203 0.2806 0.05499 0.0
H583 H 0.97251 0.21472 0.08722 0.0
H584 H 0.01825 0.27648 0.08721 0.0
C585 C 0.00888 0.26276 0.03691 0.0
C586 C 0.0116 0.73084 0.32306 0.0
C587 C 0.02978 0.71803 0.305 0.0
H588 H 0.96247 0.76596 0.33708 0.0
C589 C 0.01259 0.73181 0.28689 0.0
H590 H 0.02436 0.72048 0.3372 0.0
C591 C 0.97809 0.7586 0.28683 0.0
C592 C 0.95956 0.77101 0.30487 0.0
H593 H 0.02628 0.72247 0.27279 0.0
H594 H 0.96555 0.76913 0.27268 0.0
C595 C 0.97628 0.75667 0.32299 0.0
C596 C 0.48219 0.72912 0.53693 0.0
C597 C 0.46907 0.71133 0.55502 0.0
H598 H 0.51886 0.77677 0.52275 0.0
C599 C 0.48254 0.72892 0.5731 0.0
H600 H 0.47233 0.7159 0.5228 0.0
C601 C 0.50829 0.76432 0.57308 0.0
C602 C 0.52188 0.78171 0.55496 0.0
H603 H 0.47268 0.71568 0.58723 0.0
H604 H 0.51803 0.77772 0.58718 0.0
C605 C 0.5089 0.7637 0.5369 0.0
C606 C 0.51291 0.23203 0.78681 0.0
C607 C 0.53042 0.21861 0.80491 0.0
H608 H 0.46556 0.26899 0.77262 0.0
C609 C 0.51257 0.23178 0.82299 0.0
H610 H 0.52634 0.2224 0.77269 0.0
C611 C 0.47722 0.25757 0.82294 0.0
C612 C 0.46014 0.2715 0.80483 0.0
H613 H 0.52558 0.2217 0.83712 0.0
H614 H 0.46364 0.26711 0.83704 0.0
C615 C 0.47838 0.25877 0.78677 0.0
C616 C 0.9814 0.76303 0.48274 0.0
C617 C 0.96806 0.78056 0.46462 0.0
H618 H 0.01824 0.7156 0.49696 0.0
C619 C 0.98118 0.76261 0.44656 0.0
H620 H 0.97181 0.77653 0.49685 0.0
C621 C 0.00688 0.72718 0.44663 0.0
C622 C 0.02077 0.71011 0.46476 0.0
H623 H 0.97115 0.77563 0.43242 0.0
H624 H 0.01642 0.71355 0.43254 0.0
C625 C 0.00806 0.72842 0.4828 0.0
C626 C 0.51258 0.75883 0.7327 0.0
C627 C 0.53062 0.77161 0.71461 0.0
H628 H 0.46459 0.72266 0.74688 0.0
C629 C 0.51314 0.75797 0.69652 0.0
H630 H 0.5257 0.76882 0.74683 0.0
C631 C 0.47761 0.73242 0.69655 0.0
C632 C 0.45995 0.71921 0.71467 0.0
H633 H 0.52655 0.76756 0.6824 0.0
H634 H 0.4643 0.72256 0.68245 0.0
C635 C 0.47785 0.73233 0.73273 0.0
C636 C 0.50658 0.22683 0.94652 0.0
C637 C 0.52037 0.20961 0.96463 0.0
H638 H 0.47111 0.27551 0.93235 0.0
C639 C 0.50773 0.22791 0.98269 0.0
H640 H 0.51606 0.21321 0.93242 0.0
C641 C 0.48127 0.26267 0.98266 0.0
C642 C 0.46803 0.28034 0.96456 0.0
H643 H 0.51785 0.21499 0.99684 0.0
H644 H 0.47174 0.27615 0.99678 0.0
C645 C 0.48106 0.26238 0.94648 0.0
C646 C 0.01241 0.25885 0.2328 0.0
C647 C 0.03033 0.27187 0.21472 0.0
H648 H 0.96456 0.22243 0.24695 0.0
C649 C 0.01275 0.25846 0.19663 0.0
H650 H 0.02561 0.26867 0.24694 0.0
C651 C 0.97726 0.23286 0.19663 0.0
C652 C 0.95973 0.21937 0.21473 0.0
H653 H 0.02607 0.26824 0.18251 0.0
H654 H 0.96389 0.22315 0.18251 0.0
C655 C 0.97772 0.2323 0.23281 0.0
C656 C 0.98079 0.72799 0.98216 0.0
C657 C 0.96727 0.71068 0.96404 0.0
H658 H 0.01747 0.77548 0.99643 0.0
C659 C 0.97977 0.72918 0.94599 0.0
H660 H 0.97167 0.71408 0.99626 0.0
C661 C 0.00512 0.76487 0.94611 0.0
C662 C 0.01925 0.78168 0.96425 0.0
H663 H 0.96959 0.71633 0.93184 0.0
H664 H 0.01423 0.77887 0.93204 0.0
C665 C 0.00708 0.76288 0.98226 0.0
C666 C 0.97835 0.25838 0.73222 0.0
C667 C 0.95996 0.27095 0.71418 0.0
H668 H 0.0267 0.22247 0.74626 0.0
C669 C 0.97712 0.2572 0.69605 0.0
H670 H 0.96548 0.26847 0.74638 0.0
C671 C 0.01271 0.23175 0.69597 0.0
C672 C 0.03075 0.21876 0.71404 0.0
H673 H 0.96343 0.26663 0.68196 0.0
H674 H 0.02579 0.22181 0.68183 0.0
C675 C 0.01314 0.23198 0.73215 0.0
C676 C 0.508 0.26378 0.48234 0.0
C677 C 0.52048 0.2823 0.46431 0.0
H678 H 0.47206 0.21539 0.49637 0.0
C679 C 0.50647 0.26536 0.44618 0.0
H680 H 0.51828 0.27649 0.49651 0.0
C681 C 0.48089 0.22983 0.44609 0.0
C682 C 0.46802 0.21165 0.46415 0.0
H683 H 0.51583 0.27915 0.4321 0.0
H684 H 0.47078 0.2169 0.43194 0.0
C685 C 0.48146 0.22906 0.48226 0.0
C686 C 0.47769 0.7592 0.23202 0.0
C687 C 0.4601 0.77265 0.21394 0.0
H688 H 0.52528 0.72244 0.24615 0.0
C689 C 0.4781 0.75979 0.19584 0.0
H690 H 0.46417 0.76858 0.24615 0.0
C691 C 0.51361 0.73424 0.19584 0.0
C692 C 0.53076 0.72025 0.21394 0.0
H693 H 0.46502 0.7699 0.18172 0.0
H694 H 0.52727 0.72492 0.18173 0.0
C695 C 0.51242 0.7327 0.23201 0.0
C696 C 0.98135 0.26258 0.57254 0.0
C697 C 0.96816 0.28048 0.55448 0.0
H698 H 0.01677 0.21367 0.58656 0.0
C699 C 0.98159 0.26302 0.53636 0.0
H700 H 0.97124 0.27556 0.58668 0.0
C701 C 0.00841 0.22853 0.5363 0.0
C702 C 0.02118 0.21026 0.55434 0.0
H703 H 0.97195 0.27648 0.52225 0.0
H704 H 0.01866 0.21576 0.52214 0.0
C705 C 0.0072 0.22727 0.57247 0.0
C706 C 0.47668 0.23445 0.32249 0.0
C707 C 0.45987 0.22031 0.30435 0.0
H708 H 0.52469 0.27068 0.33674 0.0
C709 C 0.47818 0.23311 0.28632 0.0
H710 H 0.46304 0.22487 0.33657 0.0
C711 C 0.51254 0.26009 0.28641 0.0
C712 C 0.52981 0.27368 0.30453 0.0
H713 H 0.46556 0.22274 0.27215 0.0
H714 H 0.52606 0.26973 0.27231 0.0
C715 C 0.51186 0.26047 0.32258 0.0
C716 C 0.48323 0.76352 0.07226 0.0
C717 C 0.46931 0.78069 0.05416 0.0
H718 H 0.51929 0.71521 0.08638 0.0
C719 C 0.48231 0.76273 0.03608 0.0
H720 H 0.47348 0.77688 0.08637 0.0
C721 C 0.50929 0.72837 0.03609 0.0
C722 C 0.52266 0.71073 0.05417 0.0
H723 H 0.4721 0.77564 0.02194 0.0
H724 H 0.51911 0.71514 0.02195 0.0
C725 C 0.50925 0.72833 0.07226 0.0
C726 C 0.97793 0.73373 0.78633 0.0
C727 C 0.95917 0.7215 0.80434 0.0
H728 H 0.02628 0.76975 0.77233 0.0
C729 C 0.97552 0.73621 0.82247 0.0
H730 H 0.96567 0.72291 0.77216 0.0
C731 C 0.01076 0.76214 0.82258 0.0
C732 C 0.02925 0.77468 0.80454 0.0
H733 H 0.96152 0.72706 0.83653 0.0
H734 H 0.02329 0.77273 0.83673 0.0
C735 C 0.01236 0.76062 0.78642 0.0
C736 C 0.26374 0.35088 1.00382 0.0
C737 C 0.28231 0.38887 0.99803 0.0
H738 H 0.21373 0.32097 0.01953 0.0
C739 C 0.26388 0.42682 1.00401 0.0
H740 H 0.27729 0.32114 0.99946 0.0
C741 C 0.22749 0.42671 0.0156 0.0
C742 C 0.20893 0.38867 0.02135 0.0
H743 H 0.27763 0.45656 0.99979 0.0
H744 H 0.21384 0.45639 0.01999 0.0
C745 C 0.22738 0.35078 0.01534 0.0
C746 C 0.88981 0.01411 0.25383 0.0
C747 C 0.85184 0.03282 0.24818 0.0
H748 H 0.91975 0.96382 0.26934 0.0
C749 C 0.81397 0.01436 0.2542 0.0
H750 H 0.9195 0.02767 0.24942 0.0
C751 C 0.81412 0.97782 0.26571 0.0
C752 C 0.85214 0.95911 0.27132 0.0
H753 H 0.78424 0.02821 0.25009 0.0
H754 H 0.78449 0.96416 0.27014 0.0
C755 C 0.88996 0.97758 0.26526 0.0
C756 C 0.22723 0.56505 0.50412 0.0
C757 C 0.20851 0.60301 0.49837 0.0
H758 H 0.27755 0.53546 0.51989 0.0
C759 C 0.22686 0.64099 0.50432 0.0
H760 H 0.21366 0.53531 0.49977 0.0
C761 C 0.26328 0.64107 0.51579 0.0
C762 C 0.28201 0.60318 0.52158 0.0
H763 H 0.21308 0.67073 0.50012 0.0
H764 H 0.27675 0.67088 0.5201 0.0
C765 C 0.26367 0.56514 0.51567 0.0
C766 C 0.60071 0.01343 0.76559 0.0
C767 C 0.63861 0.03201 0.77145 0.0
H768 H 0.57097 0.96345 0.74978 0.0
C769 C 0.67657 0.0136 0.76552 0.0
H770 H 0.57097 0.02697 0.76992 0.0
C771 C 0.67656 0.97723 0.75388 0.0
C772 C 0.63861 0.95868 0.74805 0.0
H773 H 0.70624 0.02735 0.76979 0.0
H774 H 0.70624 0.9636 0.74952 0.0
C775 C 0.60071 0.9771 0.75403 0.0
C776 C 0.72774 0.63988 0.01435 0.0
C777 C 0.70949 0.60209 0.02064 0.0
H778 H 0.77749 0.66927 0.99824 0.0
C779 C 0.72824 0.56396 0.01517 0.0
H780 H 0.71394 0.66975 0.01831 0.0
C781 C 0.76463 0.56368 1.00357 0.0
C782 C 0.78286 0.60153 0.99732 0.0
H783 H 0.71474 0.53436 0.01978 0.0
H784 H 0.77853 0.53388 0.99958 0.0
C785 C 0.76409 0.6396 1.00282 0.0
C786 C 0.10088 0.97834 0.7649 0.0
C787 C 0.13868 0.95983 0.77094 0.0
H788 H 0.0714 0.02822 0.74891 0.0
C789 C 0.17673 0.97821 0.76512 0.0
H790 H 0.07107 0.96483 0.76914 0.0
C791 C 0.17693 0.01451 0.75344 0.0
C792 C 0.13907 0.03302 0.74744 0.0
H793 H 0.20634 0.9645 0.76953 0.0
H794 H 0.20667 0.02814 0.74918 0.0
C795 C 0.10108 0.0146 0.75328 0.0
C796 C 0.76265 0.35127 0.51545 0.0
C797 C 0.78149 0.38913 0.52122 0.0
H798 H 0.7124 0.32169 0.49979 0.0
C799 C 0.76327 0.4272 0.51527 0.0
H800 H 0.77603 0.32144 0.5198 0.0
C801 C 0.72684 0.42734 0.50371 0.0
C802 C 0.70802 0.38942 0.49798 0.0
H803 H 0.77722 0.45685 0.51948 0.0
H804 H 0.71337 0.4571 0.49934 0.0
C805 C 0.72625 0.35141 0.50397 0.0
C806 C 0.31455 0.01294 0.26529 0.0
C807 C 0.35262 0.03178 0.27072 0.0
H808 H 0.28452 0.96249 0.24978 0.0
C809 C 0.39038 0.01349 0.26447 0.0
H810 H 0.28497 0.02646 0.26987 0.0
C811 C 0.39012 0.977 0.25301 0.0
C812 C 0.3521 0.95816 0.24753 0.0
H813 H 0.4202 0.02735 0.26842 0.0
H814 H 0.41976 0.96357 0.24844 0.0
C815 C 0.31429 0.97644 0.25375 0.0
C816 C 0.76361 0.92742 0.50386 0.0
C817 C 0.78189 0.88939 0.49791 0.0
H818 H 0.7137 0.95723 0.51984 0.0
C819 C 0.76316 0.85149 0.5037 0.0
H820 H 0.77749 0.9571 0.49964 0.0
C821 C 0.7268 0.85156 0.51523 0.0
C822 C 0.70852 0.88953 0.52123 0.0
H823 H 0.77658 0.82169 0.49935 0.0
H824 H 0.71303 0.82181 0.51943 0.0
C825 C 0.72723 0.92749 0.51546 0.0
C826 C 0.39 0.51444 0.75404 0.0
C827 C 0.35202 0.53303 0.74831 0.0
H828 H 0.41996 0.46423 0.76959 0.0
C829 C 0.31415 0.51445 0.75425 0.0
H830 H 0.41968 0.52811 0.74969 0.0
C831 C 0.31431 0.47789 0.76574 0.0
C832 C 0.35234 0.45929 0.77142 0.0
H833 H 0.28441 0.5282 0.75008 0.0
H834 H 0.28469 0.46413 0.77011 0.0
C835 C 0.39016 0.4779 0.76545 0.0
C836 C 0.76278 0.0646 0.01565 0.0
C837 C 0.78116 0.10269 0.02147 0.0
H838 H 0.7128 0.03466 0.99978 0.0
C839 C 0.76256 0.14054 0.01552 0.0
H840 H 0.77656 0.03496 0.01999 0.0
C841 C 0.72622 0.14037 1.00399 0.0
C842 C 0.70782 0.10234 0.99814 0.0
H843 H 0.77607 0.17038 0.01976 0.0
H844 H 0.71254 0.17008 0.99968 0.0
C845 C 0.72641 0.06443 1.00405 0.0
C846 C 0.1762 0.5139 0.26551 0.0
C847 C 0.13825 0.53228 0.27147 0.0
H848 H 0.20588 0.46385 0.24955 0.0
C849 C 0.10035 0.51362 0.26568 0.0
H850 H 0.20588 0.52772 0.26973 0.0
C851 C 0.10035 0.4772 0.25416 0.0
C852 C 0.13825 0.4588 0.24817 0.0
H853 H 0.07062 0.52713 0.27003 0.0
H854 H 0.07061 0.46347 0.24997 0.0
C855 C 0.1762 0.47746 0.25393 0.0
C856 C 0.22711 0.14079 0.51439 0.0
C857 C 0.20896 0.1029 0.52061 0.0
H858 H 0.27684 0.17046 0.49838 0.0
C859 C 0.22786 0.06488 0.5151 0.0
H860 H 0.21319 0.17059 0.51839 0.0
C861 C 0.2643 0.0648 0.50354 0.0
C862 C 0.28244 0.10275 0.49737 0.0
H863 H 0.21445 0.0352 0.51966 0.0
H864 H 0.27832 0.03507 0.49952 0.0
C865 C 0.26352 0.14072 0.50291 0.0
C866 C 0.67617 0.47847 0.26512 0.0
C867 C 0.63817 0.46013 0.27105 0.0
H868 H 0.70597 0.52837 0.2491 0.0
C869 C 0.60032 0.47875 0.26516 0.0
H870 H 0.70582 0.46468 0.26941 0.0
C871 C 0.60041 0.51505 0.25357 0.0
C872 C 0.63835 0.5334 0.2476 0.0
H873 H 0.57055 0.46527 0.26949 0.0
H874 H 0.5707 0.52874 0.2493 0.0
C875 C 0.67626 0.5148 0.25346 0.0
C876 C 0.22528 0.85056 1.00368 0.0
C877 C 0.2068 0.88862 0.99794 0.0
H878 H 0.27538 0.82046 0.01922 0.0
C879 C 0.22545 0.9265 1.00386 0.0
H880 H 0.21156 0.82087 0.99935 0.0
C881 C 0.26198 0.92626 0.01535 0.0
C882 C 0.28047 0.88814 0.02103 0.0
H883 H 0.21177 0.95629 0.99968 0.0
H884 H 0.2758 0.95588 0.0197 0.0
C885 C 0.26179 0.85033 0.01508 0.0
C886 C 0.81461 0.47647 0.75382 0.0
C887 C 0.85248 0.45815 0.74772 0.0
H888 H 0.78513 0.52659 0.76981 0.0
C889 C 0.89045 0.47701 0.75326 0.0
H890 H 0.78488 0.46249 0.7498 0.0
C891 C 0.89059 0.51357 0.76466 0.0
C892 C 0.85277 0.5319 0.77081 0.0
H893 H 0.92013 0.46355 0.74879 0.0
H894 H 0.92038 0.52745 0.76866 0.0
C895 C 0.81475 0.51304 0.76531 0.0
C896 C 0.16043 0.36306 0.12143 0.0
C897 C 0.13057 0.39146 0.114 0.0
H898 H 0.18783 0.33445 0.14724 0.0
C899 C 0.10758 0.41587 0.12756 0.0
H900 H 0.17873 0.34384 0.11135 0.0
C901 C 0.11288 0.41052 0.14812 0.0
C902 C 0.14122 0.3806 0.15555 0.0
H903 H 0.08441 0.43806 0.1223 0.0
H904 H 0.09363 0.42878 0.1582 0.0
C905 C 0.16568 0.35766 0.14199 0.0
C906 C 0.88403 0.91593 0.39171 0.0
C907 C 0.86048 0.8921 0.40529 0.0
H908 H 0.89842 0.92829 0.36107 0.0
C909 C 0.8301 0.86423 0.39788 0.0
H910 H 0.90761 0.9377 0.39695 0.0
C911 C 0.82485 0.85876 0.37732 0.0
C912 C 0.84985 0.88109 0.36375 0.0
H913 H 0.81136 0.84547 0.40797 0.0
H914 H 0.80226 0.83596 0.37208 0.0
C915 C 0.87875 0.9105 0.37115 0.0
C916 C 0.37644 0.58117 0.64823 0.0
C917 C 0.34848 0.6115 0.65561 0.0
H918 H 0.40487 0.55338 0.62245 0.0
C919 C 0.32463 0.63496 0.64202 0.0
H920 H 0.39522 0.5625 0.65833 0.0
C921 C 0.33013 0.62964 0.62146 0.0
C922 C 0.35964 0.60082 0.61408 0.0
H923 H 0.30279 0.65849 0.64724 0.0
H924 H 0.31231 0.64925 0.61136 0.0
C925 C 0.382 0.57591 0.62767 0.0
C926 C 0.66522 0.13399 0.87774 0.0
C927 C 0.64152 0.11038 0.86413 0.0
H928 H 0.67741 0.14835 0.9084 0.0
C929 C 0.61375 0.07987 0.87151 0.0
H930 H 0.68692 0.15766 0.87252 0.0
C931 C 0.60822 0.07455 0.89207 0.0
C932 C 0.6304 0.09961 0.90566 0.0
H933 H 0.5951 0.06108 0.8614 0.0
H934 H 0.58548 0.05187 0.89728 0.0
C935 C 0.65973 0.12863 0.89829 0.0
C936 C 0.11492 0.5802 0.37174 0.0
C937 C 0.14208 0.61121 0.36432 0.0
H938 H 0.08716 0.55187 0.39755 0.0
C939 C 0.16525 0.63542 0.37788 0.0
H940 H 0.09668 0.56094 0.36166 0.0
C941 C 0.15983 0.63014 0.39845 0.0
C942 C 0.13107 0.60059 0.40586 0.0
H943 H 0.18647 0.6595 0.37263 0.0
H944 H 0.17708 0.65031 0.40852 0.0
C945 C 0.10944 0.57496 0.39231 0.0
C946 C 0.66572 0.85857 0.64185 0.0
C947 C 0.64108 0.88117 0.65546 0.0
H948 H 0.67888 0.84519 0.61118 0.0
C949 C 0.61253 0.91098 0.64811 0.0
H950 H 0.68802 0.83546 0.64705 0.0
C951 C 0.60722 0.91654 0.62756 0.0
C952 C 0.63039 0.89244 0.61394 0.0
H953 H 0.59315 0.92899 0.65823 0.0
H954 H 0.5839 0.93862 0.62235 0.0
C955 C 0.66044 0.86417 0.6213 0.0
C956 C 0.32509 0.35885 0.87734 0.0
C957 C 0.35012 0.38114 0.86377 0.0
H958 H 0.31158 0.34563 0.908 0.0
C959 C 0.37905 0.41053 0.87116 0.0
H960 H 0.30248 0.33607 0.87211 0.0
C961 C 0.38434 0.41598 0.89172 0.0
C962 C 0.36076 0.39219 0.9053 0.0
H963 H 0.39874 0.42829 0.86107 0.0
H964 H 0.40795 0.43772 0.89695 0.0
C965 C 0.33034 0.36435 0.8979 0.0
C966 C 0.82425 0.13514 0.14202 0.0
C967 C 0.84802 0.11152 0.15559 0.0
H968 H 0.81186 0.14951 0.11138 0.0
C969 C 0.87573 0.081 0.14817 0.0
H970 H 0.80261 0.15882 0.14727 0.0
C971 C 0.88112 0.07568 0.12761 0.0
C972 C 0.85886 0.10074 0.11404 0.0
H973 H 0.89444 0.06221 0.15825 0.0
H974 H 0.9038 0.05299 0.12236 0.0
C975 C 0.82959 0.12978 0.12146 0.0
C976 C 0.8826 0.58084 0.87039 0.0
C977 C 0.85193 0.60845 0.86304 0.0
H978 H 0.91272 0.55486 0.89615 0.0
C979 C 0.82519 0.62859 0.87663 0.0
H980 H 0.90363 0.56474 0.86029 0.0
C981 C 0.83037 0.62282 0.89718 0.0
C982 C 0.86242 0.59686 0.90455 0.0
H983 H 0.80121 0.64995 0.87143 0.0
H984 H 0.8102 0.63995 0.9073 0.0
C985 C 0.88781 0.57511 0.89094 0.0
C986 C 0.16061 0.13056 0.62054 0.0
C987 C 0.13178 0.10104 0.61317 0.0
H988 H 0.18737 0.15995 0.64631 0.0
C989 C 0.11013 0.0755 0.62677 0.0
H990 H 0.17787 0.15066 0.61044 0.0
C991 C 0.11566 0.0808 0.64732 0.0
C992 C 0.14291 0.11178 0.6547 0.0
H993 H 0.08779 0.05243 0.62156 0.0
H994 H 0.09741 0.06161 0.65743 0.0
C995 C 0.1661 0.1359 0.6411 0.0
C996 C 0.60799 0.41748 0.39189 0.0
C997 C 0.63021 0.39237 0.40545 0.0
H998 H 0.59474 0.43103 0.36124 0.0
C999 C 0.65946 0.36333 0.39803 0.0
H1000 H 0.58531 0.44017 0.39713 0.0
C1001 C 0.66485 0.35802 0.37747 0.0
C1002 C 0.64112 0.38168 0.3639 0.0
H1003 H 0.67716 0.34357 0.40811 0.0
H1004 H 0.68649 0.33433 0.37222 0.0
C1005 C 0.61341 0.4122 0.37132 0.0
C1006 C 0.32982 0.85911 0.12065 0.0
C1007 C 0.35798 0.88921 0.11321 0.0
H1008 H 0.30365 0.82942 0.14649 0.0
C1009 C 0.37896 0.91543 0.12675 0.0
H1010 H 0.31308 0.83848 0.11059 0.0
C1011 C 0.37346 0.91026 0.14731 0.0
C1012 C 0.34693 0.87874 0.15476 0.0
H1013 H 0.40076 0.93896 0.12148 0.0
H1014 H 0.39121 0.93 0.15738 0.0
C1015 C 0.32437 0.8539 0.14121 0.0
C1016 C 0.87761 0.40996 0.64792 0.0
C1017 C 0.84911 0.38013 0.65531 0.0
H1018 H 0.90621 0.43756 0.62214 0.0
C1019 C 0.8245 0.35743 0.64172 0.0
H1020 H 0.89698 0.42805 0.65802 0.0
C1021 C 0.82977 0.36297 0.62116 0.0
C1022 C 0.85979 0.39127 0.61378 0.0
H1023 H 0.80223 0.33431 0.64695 0.0
H1024 H 0.81135 0.34393 0.61106 0.0
C1025 C 0.88292 0.41546 0.62737 0.0
C1026 C 0.38072 0.08087 0.37065 0.0
C1027 C 0.35108 0.10949 0.36322 0.0
H1028 H 0.41014 0.05443 0.39649 0.0
C1029 C 0.32538 0.13108 0.37675 0.0
H1030 H 0.40094 0.06366 0.36059 0.0
C1031 C 0.33063 0.1257 0.39732 0.0
C1032 C 0.36171 0.09868 0.40477 0.0
H1033 H 0.30221 0.15326 0.37149 0.0
H1034 H 0.31131 0.14391 0.40739 0.0
C1035 C 0.386 0.07554 0.39122 0.0
C1036 C 0.61389 0.58125 0.14745 0.0
C1037 C 0.64191 0.61149 0.15486 0.0
H1038 H 0.58571 0.55335 0.12165 0.0
C1039 C 0.6661 0.6347 0.14129 0.0
H1040 H 0.59486 0.56278 0.15754 0.0
C1041 C 0.66088 0.62922 0.12073 0.0
C1042 C 0.63133 0.60047 0.11332 0.0
H1043 H 0.68799 0.65816 0.14653 0.0
H1044 H 0.67895 0.64864 0.11064 0.0
C1045 C 0.60863 0.57581 0.12689 0.0
C1046 C 0.11355 0.91212 0.87137 0.0
C1047 C 0.14106 0.88138 0.86399 0.0
H1048 H 0.08531 0.94013 0.89714 0.0
C1049 C 0.16434 0.85736 0.87759 0.0
H1050 H 0.09522 0.93121 0.86126 0.0
C1051 C 0.15869 0.86256 0.89814 0.0
C1052 C 0.1296 0.89182 0.90551 0.0
H1053 H 0.18582 0.8335 0.87237 0.0
H1054 H 0.17604 0.84254 0.90824 0.0
C1055 C 0.10784 0.91726 0.89193 0.0
loop_
_geom_bond_atom_site_label_1
_geom_bond_atom_site_label_2
_geom_bond_distance
_geom_bond_site_symmetry_2
_ccdc_geom_bond_type
In0 O1 2.294 . S
In0 O2 2.326 . S
In0 O6 2.266 . S
In0 O7 2.326 . S
In0 O8 2.266 . S
In0 O9 2.326 . S
In0 O11 2.294 . S
In0 O12 2.326 . S
O1 In0 2.294 . S
O1 C10 1.240 . S
O2 In0 2.326 . S
O2 C10 1.252 . S
C3 O6 1.252 . S
C3 O7 1.260 . S
C4 O11 1.240 . S
C4 O12 1.252 . S
C5 O8 1.252 . S
C5 O9 1.260 . S
O6 In0 2.266 . S
O6 C3 1.252 . S
O7 In0 2.326 . S
O7 C3 1.260 . S
O8 In0 2.266 . S
O8 C5 1.252 . S
O9 In0 2.326 . S
O9 C5 1.260 . S
C10 O1 1.240 . S
C10 O2 1.252 . S
O11 In0 2.294 . S
O11 C4 1.240 . S
O12 In0 2.326 . S
O12 C4 1.252 . S
In13 O14 2.294 . S
In13 O15 2.326 . S
In13 O19 2.266 . S
In13 O20 2.326 . S
In13 O21 2.266 . S
In13 O22 2.326 . S
In13 O24 2.294 . S
In13 O25 2.326 . S
O14 In13 2.294 . S
O14 C23 1.240 . S
O15 In13 2.326 . S
O15 C23 1.252 . S
C16 O19 1.252 . S
C16 O20 1.260 . S
C17 O24 1.240 . S
C17 O25 1.252 . S
C18 O21 1.252 . S
C18 O22 1.260 . S
O19 In13 2.266 . S
O19 C16 1.252 . S
O20 In13 2.326 . S
O20 C16 1.260 . S
O21 In13 2.266 . S
O21 C18 1.252 . S
O22 In13 2.326 . S
O22 C18 1.260 . S
C23 O14 1.240 . S
C23 O15 1.252 . S
O24 In13 2.294 . S
O24 C17 1.240 . S
O25 In13 2.326 . S
O25 C17 1.252 . S
In26 O27 2.294 . S
In26 O28 2.326 . S
In26 O32 2.266 . S
In26 O33 2.326 . S
In26 O34 2.266 . S
In26 O35 2.326 . S
In26 O37 2.294 . S
In26 O38 2.326 . S
O27 In26 2.294 . S
O27 C36 1.240 . S
O28 In26 2.326 . S
O28 C36 1.252 . S
C29 O32 1.252 . S
C29 O33 1.260 . S
C30 O37 1.240 . S
C30 O38 1.252 . S
C31 O34 1.252 . S
C31 O35 1.260 . S
O32 In26 2.266 . S
O32 C29 1.252 . S
O33 In26 2.326 . S
O33 C29 1.260 . S
O34 In26 2.266 . S
O34 C31 1.252 . S
O35 In26 2.326 . S
O35 C31 1.260 . S
C36 O27 1.240 . S
C36 O28 1.252 . S
O37 In26 2.294 . S
O37 C30 1.240 . S
O38 In26 2.326 . S
O38 C30 1.252 . S
In39 O40 2.294 . S
In39 O41 2.326 . S
In39 O45 2.266 . S
In39 O46 2.326 . S
In39 O47 2.266 . S
In39 O48 2.326 . S
In39 O50 2.294 . S
In39 O51 2.326 . S
O40 In39 2.294 . S
O40 C49 1.240 . S
O41 In39 2.326 . S
O41 C49 1.252 . S
C42 O45 1.252 . S
C42 O46 1.260 . S
C43 O50 1.240 . S
C43 O51 1.252 . S
C44 O47 1.252 . S
C44 O48 1.260 . S
O45 In39 2.266 . S
O45 C42 1.252 . S
O46 In39 2.326 . S
O46 C42 1.260 . S
O47 In39 2.266 . S
O47 C44 1.252 . S
O48 In39 2.326 . S
O48 C44 1.260 . S
C49 O40 1.240 . S
C49 O41 1.252 . S
O50 In39 2.294 . S
O50 C43 1.240 . S
O51 In39 2.326 . S
O51 C43 1.252 . S
In52 O53 2.294 . S
In52 O54 2.326 . S
In52 O58 2.266 . S
In52 O59 2.326 . S
In52 O60 2.266 . S
In52 O61 2.326 . S
In52 O63 2.294 . S
In52 O64 2.326 . S
O53 In52 2.294 . S
O53 C62 1.240 . S
O54 In52 2.326 . S
O54 C62 1.252 . S
C55 O58 1.252 . S
C55 O59 1.260 . S
C56 O63 1.240 . S
C56 O64 1.252 . S
C57 O60 1.252 . S
C57 O61 1.260 . S
O58 In52 2.266 . S
O58 C55 1.252 . S
O59 In52 2.326 . S
O59 C55 1.260 . S
O60 In52 2.266 . S
O60 C57 1.252 . S
O61 In52 2.326 . S
O61 C57 1.260 . S
C62 O53 1.240 . S
C62 O54 1.252 . S
O63 In52 2.294 . S
O63 C56 1.240 . S
O64 In52 2.326 . S
O64 C56 1.252 . S
In65 O66 2.294 . S
In65 O67 2.326 . S
In65 O71 2.266 . S
In65 O72 2.326 . S
In65 O73 2.266 . S
In65 O74 2.326 . S
In65 O76 2.294 . S
In65 O77 2.326 . S
O66 In65 2.294 . S
O66 C75 1.240 . S
O67 In65 2.326 . S
O67 C75 1.252 . S
C68 O71 1.252 . S
C68 O72 1.260 . S
C69 O76 1.240 . S
C69 O77 1.252 . S
C70 O73 1.252 . S
C70 O74 1.260 . S
O71 In65 2.266 . S
O71 C68 1.252 . S
O72 In65 2.326 . S
O72 C68 1.260 . S
O73 In65 2.266 . S
O73 C70 1.252 . S
O74 In65 2.326 . S
O74 C70 1.260 . S
C75 O66 1.240 . S
C75 O67 1.252 . S
O76 In65 2.294 . S
O76 C69 1.240 . S
O77 In65 2.326 . S
O77 C69 1.252 . S
In78 O79 2.294 . S
In78 O80 2.326 . S
In78 O84 2.266 . S
In78 O85 2.326 . S
In78 O86 2.266 . S
In78 O87 2.326 . S
In78 O89 2.294 . S
In78 O90 2.326 . S
O79 In78 2.294 . S
O79 C88 1.240 . S
O80 In78 2.326 . S
O80 C88 1.252 . S
C81 O84 1.252 . S
C81 O85 1.260 . S
C82 O89 1.240 . S
C82 O90 1.252 . S
C83 O86 1.252 . S
C83 O87 1.260 . S
O84 In78 2.266 . S
O84 C81 1.252 . S
O85 In78 2.326 . S
O85 C81 1.260 . S
O86 In78 2.266 . S
O86 C83 1.252 . S
O87 In78 2.326 . S
O87 C83 1.260 . S
C88 O79 1.240 . S
C88 O80 1.252 . S
O89 In78 2.294 . S
O89 C82 1.240 . S
O90 In78 2.326 . S
O90 C82 1.252 . S
In91 O92 2.294 . S
In91 O93 2.326 . S
In91 O97 2.266 . S
In91 O98 2.326 . S
In91 O99 2.266 . S
In91 O100 2.326 . S
In91 O102 2.294 . S
In91 O103 2.326 . S
O92 In91 2.294 . S
O92 C101 1.240 . S
O93 In91 2.326 . S
O93 C101 1.252 . S
C94 O97 1.252 . S
C94 O98 1.260 . S
C95 O102 1.240 . S
C95 O103 1.252 . S
C96 O99 1.252 . S
C96 O100 1.260 . S
O97 In91 2.266 . S
O97 C94 1.252 . S
O98 In91 2.326 . S
O98 C94 1.260 . S
O99 In91 2.266 . S
O99 C96 1.252 . S
O100 In91 2.326 . S
O100 C96 1.260 . S
C101 O92 1.240 . S
C101 O93 1.252 . S
O102 In91 2.294 . S
O102 C95 1.240 . S
O103 In91 2.326 . S
O103 C95 1.252 . S
In104 O105 2.294 . S
In104 O106 2.326 . S
In104 O110 2.266 . S
In104 O111 2.326 . S
In104 O112 2.266 . S
In104 O113 2.326 . S
In104 O115 2.294 . S
In104 O116 2.326 . S
O105 In104 2.294 . S
O105 C114 1.240 . S
O106 In104 2.326 . S
O106 C114 1.252 . S
C107 O110 1.252 . S
C107 O111 1.260 . S
C108 O115 1.240 . S
C108 O116 1.252 . S
C109 O112 1.252 . S
C109 O113 1.260 . S
O110 In104 2.266 . S
O110 C107 1.252 . S
O111 In104 2.326 . S
O111 C107 1.260 . S
O112 In104 2.266 . S
O112 C109 1.252 . S
O113 In104 2.326 . S
O113 C109 1.260 . S
C114 O105 1.240 . S
C114 O106 1.252 . S
O115 In104 2.294 . S
O115 C108 1.240 . S
O116 In104 2.326 . S
O116 C108 1.252 . S
In117 O118 2.294 . S
In117 O119 2.326 . S
In117 O123 2.266 . S
In117 O124 2.326 . S
In117 O125 2.266 . S
In117 O126 2.326 . S
In117 O128 2.294 . S
In117 O129 2.326 . S
O118 In117 2.294 . S
O118 C127 1.240 . S
O119 In117 2.326 . S
O119 C127 1.252 . S
C120 O123 1.252 . S
C120 O124 1.260 . S
C121 O128 1.240 . S
C121 O129 1.252 . S
C122 O125 1.252 . S
C122 O126 1.260 . S
O123 In117 2.266 . S
O123 C120 1.252 . S
O124 In117 2.326 . S
O124 C120 1.260 . S
O125 In117 2.266 . S
O125 C122 1.252 . S
O126 In117 2.326 . S
O126 C122 1.260 . S
C127 O118 1.240 . S
C127 O119 1.252 . S
O128 In117 2.294 . S
O128 C121 1.240 . S
O129 In117 2.326 . S
O129 C121 1.252 . S
In130 O131 2.294 . S
In130 O132 2.326 . S
In130 O136 2.266 . S
In130 O137 2.326 . S
In130 O138 2.266 . S
In130 O139 2.326 . S
In130 O141 2.294 . S
In130 O142 2.326 . S
O131 In130 2.294 . S
O131 C140 1.240 . S
O132 In130 2.326 . S
O132 C140 1.252 . S
C133 O136 1.252 . S
C133 O137 1.260 . S
C134 O141 1.240 . S
C134 O142 1.252 . S
C135 O138 1.252 . S
C135 O139 1.260 . S
O136 In130 2.266 . S
O136 C133 1.252 . S
O137 In130 2.326 . S
O137 C133 1.260 . S
O138 In130 2.266 . S
O138 C135 1.252 . S
O139 In130 2.326 . S
O139 C135 1.260 . S
C140 O131 1.240 . S
C140 O132 1.252 . S
O141 In130 2.294 . S
O141 C134 1.240 . S
O142 In130 2.326 . S
O142 C134 1.252 . S
In143 O144 2.294 . S
In143 O145 2.326 . S
In143 O149 2.266 . S
In143 O150 2.326 . S
In143 O151 2.266 . S
In143 O152 2.326 . S
In143 O154 2.294 . S
In143 O155 2.326 . S
O144 In143 2.294 . S
O144 C153 1.240 . S
O145 In143 2.326 . S
O145 C153 1.252 . S
C146 O149 1.252 . S
C146 O150 1.260 . S
C147 O154 1.240 . S
C147 O155 1.252 . S
C148 O151 1.252 . S
C148 O152 1.260 . S
O149 In143 2.266 . S
O149 C146 1.252 . S
O150 In143 2.326 . S
O150 C146 1.260 . S
O151 In143 2.266 . S
O151 C148 1.252 . S
O152 In143 2.326 . S
O152 C148 1.260 . S
C153 O144 1.240 . S
C153 O145 1.252 . S
O154 In143 2.294 . S
O154 C147 1.240 . S
O155 In143 2.326 . S
O155 C147 1.252 . S
In156 O157 2.294 . S
In156 O158 2.326 . S
In156 O162 2.266 . S
In156 O163 2.326 . S
In156 O164 2.266 . S
In156 O165 2.326 . S
In156 O167 2.294 . S
In156 O168 2.326 . S
O157 In156 2.294 . S
O157 C166 1.240 . S
O158 In156 2.326 . S
O158 C166 1.252 . S
C159 O162 1.252 . S
C159 O163 1.260 . S
C160 O167 1.240 . S
C160 O168 1.252 . S
C161 O164 1.252 . S
C161 O165 1.260 . S
O162 In156 2.266 . S
O162 C159 1.252 . S
O163 In156 2.326 . S
O163 C159 1.260 . S
O164 In156 2.266 . S
O164 C161 1.252 . S
O165 In156 2.326 . S
O165 C161 1.260 . S
C166 O157 1.240 . S
C166 O158 1.252 . S
O167 In156 2.294 . S
O167 C160 1.240 . S
O168 In156 2.326 . S
O168 C160 1.252 . S
In169 O170 2.294 . S
In169 O171 2.326 . S
In169 O175 2.266 . S
In169 O176 2.326 . S
In169 O177 2.266 . S
In169 O178 2.326 . S
In169 O180 2.294 . S
In169 O181 2.326 . S
O170 In169 2.294 . S
O170 C179 1.240 . S
O171 In169 2.326 . S
O171 C179 1.252 . S
C172 O175 1.252 . S
C172 O176 1.260 . S
C173 O180 1.240 . S
C173 O181 1.252 . S
C174 O177 1.252 . S
C174 O178 1.260 . S
O175 In169 2.266 . S
O175 C172 1.252 . S
O176 In169 2.326 . S
O176 C172 1.260 . S
O177 In169 2.266 . S
O177 C174 1.252 . S
O178 In169 2.326 . S
O178 C174 1.260 . S
C179 O170 1.240 . S
C179 O171 1.252 . S
O180 In169 2.294 . S
O180 C173 1.240 . S
O181 In169 2.326 . S
O181 C173 1.252 . S
In182 O183 2.294 . S
In182 O184 2.326 . S
In182 O188 2.266 . S
In182 O189 2.326 . S
In182 O190 2.266 . S
In182 O191 2.326 . S
In182 O193 2.294 . S
In182 O194 2.326 . S
O183 In182 2.294 . S
O183 C192 1.240 . S
O184 In182 2.326 . S
O184 C192 1.252 . S
C185 O188 1.252 . S
C185 O189 1.260 . S
C186 O193 1.240 . S
C186 O194 1.252 . S
C187 O190 1.252 . S
C187 O191 1.260 . S
O188 In182 2.266 . S
O188 C185 1.252 . S
O189 In182 2.326 . S
O189 C185 1.260 . S
O190 In182 2.266 . S
O190 C187 1.252 . S
O191 In182 2.326 . S
O191 C187 1.260 . S
C192 O183 1.240 . S
C192 O184 1.252 . S
O193 In182 2.294 . S
O193 C186 1.240 . S
O194 In182 2.326 . S
O194 C186 1.252 . S
In195 O196 2.294 . S
In195 O197 2.326 . S
In195 O201 2.266 . S
In195 O202 2.326 . S
In195 O203 2.266 . S
In195 O204 2.326 . S
In195 O206 2.294 . S
In195 O207 2.326 . S
O196 In195 2.294 . S
O196 C205 1.240 . S
O197 In195 2.326 . S
O197 C205 1.252 . S
C198 O201 1.252 . S
C198 O202 1.260 . S
C199 O206 1.240 . S
C199 O207 1.252 . S
C200 O203 1.252 . S
C200 O204 1.260 . S
O201 In195 2.266 . S
O201 C198 1.252 . S
O202 In195 2.326 . S
O202 C198 1.260 . S
O203 In195 2.266 . S
O203 C200 1.252 . S
O204 In195 2.326 . S
O204 C200 1.260 . S
C205 O196 1.240 . S
C205 O197 1.252 . S
O206 In195 2.294 . S
O206 C199 1.240 . S
O207 In195 2.326 . S
O207 C199 1.252 . S
In208 O209 2.294 . S
In208 O210 2.326 . S
In208 O214 2.266 . S
In208 O215 2.326 . S
In208 O216 2.266 . S
In208 O217 2.326 . S
In208 O219 2.294 . S
In208 O220 2.326 . S
O209 In208 2.294 . S
O209 C218 1.240 . S
O210 In208 2.326 . S
O210 C218 1.252 . S
C211 O214 1.252 . S
C211 O215 1.260 . S
C212 O219 1.240 . S
C212 O220 1.252 . S
C213 O216 1.252 . S
C213 O217 1.260 . S
O214 In208 2.266 . S
O214 C211 1.252 . S
O215 In208 2.326 . S
O215 C211 1.260 . S
O216 In208 2.266 . S
O216 C213 1.252 . S
O217 In208 2.326 . S
O217 C213 1.260 . S
C218 O209 1.240 . S
C218 O210 1.252 . S
O219 In208 2.294 . S
O219 C212 1.240 . S
O220 In208 2.326 . S
O220 C212 1.252 . S
In221 O222 2.294 . S
In221 O223 2.326 . S
In221 O227 2.266 . S
In221 O228 2.326 . S
In221 O229 2.266 . S
In221 O230 2.326 . S
In221 O232 2.294 . S
In221 O233 2.326 . S
O222 In221 2.294 . S
O222 C231 1.240 . S
O223 In221 2.326 . S
O223 C231 1.252 . S
C224 O227 1.252 . S
C224 O228 1.260 . S
C225 O232 1.240 . S
C225 O233 1.252 . S
C226 O229 1.252 . S
C226 O230 1.260 . S
O227 In221 2.266 . S
O227 C224 1.252 . S
O228 In221 2.326 . S
O228 C224 1.260 . S
O229 In221 2.266 . S
O229 C226 1.252 . S
O230 In221 2.326 . S
O230 C226 1.260 . S
C231 O222 1.240 . S
C231 O223 1.252 . S
O232 In221 2.294 . S
O232 C225 1.240 . S
O233 In221 2.326 . S
O233 C225 1.252 . S
In234 O235 2.294 . S
In234 O236 2.326 . S
In234 O240 2.266 . S
In234 O241 2.326 . S
In234 O242 2.266 . S
In234 O243 2.326 . S
In234 O245 2.294 . S
In234 O246 2.326 . S
O235 In234 2.294 . S
O235 C244 1.240 . S
O236 In234 2.326 . S
O236 C244 1.252 . S
C237 O240 1.252 . S
C237 O241 1.260 . S
C238 O245 1.240 . S
C238 O246 1.252 . S
C239 O242 1.252 . S
C239 O243 1.260 . S
O240 In234 2.266 . S
O240 C237 1.252 . S
O241 In234 2.326 . S
O241 C237 1.260 . S
O242 In234 2.266 . S
O242 C239 1.252 . S
O243 In234 2.326 . S
O243 C239 1.260 . S
C244 O235 1.240 . S
C244 O236 1.252 . S
O245 In234 2.294 . S
O245 C238 1.240 . S
O246 In234 2.326 . S
O246 C238 1.252 . S
In247 O248 2.294 . S
In247 O249 2.326 . S
In247 O253 2.266 . S
In247 O254 2.326 . S
In247 O255 2.266 . S
In247 O256 2.326 . S
In247 O258 2.294 . S
In247 O259 2.326 . S
O248 In247 2.294 . S
O248 C257 1.240 . S
O249 In247 2.326 . S
O249 C257 1.252 . S
C250 O253 1.252 . S
C250 O254 1.260 . S
C251 O258 1.240 . S
C251 O259 1.252 . S
C252 O255 1.252 . S
C252 O256 1.260 . S
O253 In247 2.266 . S
O253 C250 1.252 . S
O254 In247 2.326 . S
O254 C250 1.260 . S
O255 In247 2.266 . S
O255 C252 1.252 . S
O256 In247 2.326 . S
O256 C252 1.260 . S
C257 O248 1.240 . S
C257 O249 1.252 . S
O258 In247 2.294 . S
O258 C251 1.240 . S
O259 In247 2.326 . S
O259 C251 1.252 . S
In260 O261 2.294 . S
In260 O262 2.326 . S
In260 O266 2.266 . S
In260 O267 2.326 . S
In260 O268 2.266 . S
In260 O269 2.326 . S
In260 O271 2.294 . S
In260 O272 2.326 . S
O261 In260 2.294 . S
O261 C270 1.240 . S
O262 In260 2.326 . S
O262 C270 1.252 . S
C263 O266 1.252 . S
C263 O267 1.260 . S
C264 O271 1.240 . S
C264 O272 1.252 . S
C265 O268 1.252 . S
C265 O269 1.260 . S
O266 In260 2.266 . S
O266 C263 1.252 . S
O267 In260 2.326 . S
O267 C263 1.260 . S
O268 In260 2.266 . S
O268 C265 1.252 . S
O269 In260 2.326 . S
O269 C265 1.260 . S
C270 O261 1.240 . S
C270 O262 1.252 . S
O271 In260 2.294 . S
O271 C264 1.240 . S
O272 In260 2.326 . S
O272 C264 1.252 . S
In273 O274 2.294 . S
In273 O275 2.326 . S
In273 O279 2.266 . S
In273 O280 2.326 . S
In273 O281 2.266 . S
In273 O282 2.326 . S
In273 O284 2.294 . S
In273 O285 2.326 . S
O274 In273 2.294 . S
O274 C283 1.240 . S
O275 In273 2.326 . S
O275 C283 1.252 . S
C276 O279 1.252 . S
C276 O280 1.260 . S
C277 O284 1.240 . S
C277 O285 1.252 . S
C278 O281 1.252 . S
C278 O282 1.260 . S
O279 In273 2.266 . S
O279 C276 1.252 . S
O280 In273 2.326 . S
O280 C276 1.260 . S
O281 In273 2.266 . S
O281 C278 1.252 . S
O282 In273 2.326 . S
O282 C278 1.260 . S
C283 O274 1.240 . S
C283 O275 1.252 . S
O284 In273 2.294 . S
O284 C277 1.240 . S
O285 In273 2.326 . S
O285 C277 1.252 . S
In286 O287 2.294 . S
In286 O288 2.326 . S
In286 O292 2.266 . S
In286 O293 2.326 . S
In286 O294 2.266 . S
In286 O295 2.326 . S
In286 O297 2.294 . S
In286 O298 2.326 . S
O287 In286 2.294 . S
O287 C296 1.240 . S
O288 In286 2.326 . S
O288 C296 1.252 . S
C289 O292 1.252 . S
C289 O293 1.260 . S
C290 O297 1.240 . S
C290 O298 1.252 . S
C291 O294 1.252 . S
C291 O295 1.260 . S
O292 In286 2.266 . S
O292 C289 1.252 . S
O293 In286 2.326 . S
O293 C289 1.260 . S
O294 In286 2.266 . S
O294 C291 1.252 . S
O295 In286 2.326 . S
O295 C291 1.260 . S
C296 O287 1.240 . S
C296 O288 1.252 . S
O297 In286 2.294 . S
O297 C290 1.240 . S
O298 In286 2.326 . S
O298 C290 1.252 . S
In299 O300 2.294 . S
In299 O301 2.326 . S
In299 O305 2.266 . S
In299 O306 2.326 . S
In299 O307 2.266 . S
In299 O308 2.326 . S
In299 O310 2.294 . S
In299 O311 2.326 . S
O300 In299 2.294 . S
O300 C309 1.240 . S
O301 In299 2.326 . S
O301 C309 1.252 . S
C302 O305 1.252 . S
C302 O306 1.260 . S
C303 O310 1.240 . S
C303 O311 1.252 . S
C304 O307 1.252 . S
C304 O308 1.260 . S
O305 In299 2.266 . S
O305 C302 1.252 . S
O306 In299 2.326 . S
O306 C302 1.260 . S
O307 In299 2.266 . S
O307 C304 1.252 . S
O308 In299 2.326 . S
O308 C304 1.260 . S
C309 O300 1.240 . S
C309 O301 1.252 . S
O310 In299 2.294 . S
O310 C303 1.240 . S
O311 In299 2.326 . S
O311 C303 1.252 . S
In312 O313 2.294 . S
In312 O314 2.326 . S
In312 O318 2.266 . S
In312 O319 2.326 . S
In312 O320 2.266 . S
In312 O321 2.326 . S
In312 O323 2.294 . S
In312 O324 2.326 . S
O313 In312 2.294 . S
O313 C322 1.240 . S
O314 In312 2.326 . S
O314 C322 1.252 . S
C315 O318 1.252 . S
C315 O319 1.260 . S
C316 O323 1.240 . S
C316 O324 1.252 . S
C317 O320 1.252 . S
C317 O321 1.260 . S
O318 In312 2.266 . S
O318 C315 1.252 . S
O319 In312 2.326 . S
O319 C315 1.260 . S
O320 In312 2.266 . S
O320 C317 1.252 . S
O321 In312 2.326 . S
O321 C317 1.260 . S
C322 O313 1.240 . S
C322 O314 1.252 . S
O323 In312 2.294 . S
O323 C316 1.240 . S
O324 In312 2.326 . S
O324 C316 1.252 . S
In325 O326 2.294 . S
In325 O327 2.326 . S
In325 O331 2.266 . S
In325 O332 2.326 . S
In325 O333 2.266 . S
In325 O334 2.326 . S
In325 O336 2.294 . S
In325 O337 2.326 . S
O326 In325 2.294 . S
O326 C335 1.240 . S
O327 In325 2.326 . S
O327 C335 1.252 . S
C328 O331 1.252 . S
C328 O332 1.260 . S
C329 O336 1.240 . S
C329 O337 1.252 . S
C330 O333 1.252 . S
C330 O334 1.260 . S
O331 In325 2.266 . S
O331 C328 1.252 . S
O332 In325 2.326 . S
O332 C328 1.260 . S
O333 In325 2.266 . S
O333 C330 1.252 . S
O334 In325 2.326 . S
O334 C330 1.260 . S
C335 O326 1.240 . S
C335 O327 1.252 . S
O336 In325 2.294 . S
O336 C329 1.240 . S
O337 In325 2.326 . S
O337 C329 1.252 . S
In338 O339 2.294 . S
In338 O340 2.326 . S
In338 O344 2.266 . S
In338 O345 2.326 . S
In338 O346 2.266 . S
In338 O347 2.326 . S
In338 O349 2.294 . S
In338 O350 2.326 . S
O339 In338 2.294 . S
O339 C348 1.240 . S
O340 In338 2.326 . S
O340 C348 1.252 . S
C341 O344 1.252 . S
C341 O345 1.260 . S
C342 O349 1.240 . S
C342 O350 1.252 . S
C343 O346 1.252 . S
C343 O347 1.260 . S
O344 In338 2.266 . S
O344 C341 1.252 . S
O345 In338 2.326 . S
O345 C341 1.260 . S
O346 In338 2.266 . S
O346 C343 1.252 . S
O347 In338 2.326 . S
O347 C343 1.260 . S
C348 O339 1.240 . S
C348 O340 1.252 . S
O349 In338 2.294 . S
O349 C342 1.240 . S
O350 In338 2.326 . S
O350 C342 1.252 . S
In351 O352 2.294 . S
In351 O353 2.326 . S
In351 O357 2.266 . S
In351 O358 2.326 . S
In351 O359 2.266 . S
In351 O360 2.326 . S
In351 O362 2.294 . S
In351 O363 2.326 . S
O352 In351 2.294 . S
O352 C361 1.240 . S
O353 In351 2.326 . S
O353 C361 1.252 . S
C354 O357 1.252 . S
C354 O358 1.260 . S
C355 O362 1.240 . S
C355 O363 1.252 . S
C356 O359 1.252 . S
C356 O360 1.260 . S
O357 In351 2.266 . S
O357 C354 1.252 . S
O358 In351 2.326 . S
O358 C354 1.260 . S
O359 In351 2.266 . S
O359 C356 1.252 . S
O360 In351 2.326 . S
O360 C356 1.260 . S
C361 O352 1.240 . S
C361 O353 1.252 . S
O362 In351 2.294 . S
O362 C355 1.240 . S
O363 In351 2.326 . S
O363 C355 1.252 . S
In364 O365 2.294 . S
In364 O366 2.326 . S
In364 O370 2.266 . S
In364 O371 2.326 . S
In364 O372 2.266 . S
In364 O373 2.326 . S
In364 O375 2.294 . S
In364 O376 2.326 . S
O365 In364 2.294 . S
O365 C374 1.240 . S
O366 In364 2.326 . S
O366 C374 1.252 . S
C367 O370 1.252 . S
C367 O371 1.260 . S
C368 O375 1.240 . S
C368 O376 1.252 . S
C369 O372 1.252 . S
C369 O373 1.260 . S
O370 In364 2.266 . S
O370 C367 1.252 . S
O371 In364 2.326 . S
O371 C367 1.260 . S
O372 In364 2.266 . S
O372 C369 1.252 . S
O373 In364 2.326 . S
O373 C369 1.260 . S
C374 O365 1.240 . S
C374 O366 1.252 . S
O375 In364 2.294 . S
O375 C368 1.240 . S
O376 In364 2.326 . S
O376 C368 1.252 . S
In377 O378 2.294 . S
In377 O379 2.326 . S
In377 O383 2.266 . S
In377 O384 2.326 . S
In377 O385 2.266 . S
In377 O386 2.326 . S
In377 O388 2.294 . S
In377 O389 2.326 . S
O378 In377 2.294 . S
O378 C387 1.240 . S
O379 In377 2.326 . S
O379 C387 1.252 . S
C380 O383 1.252 . S
C380 O384 1.260 . S
C381 O388 1.240 . S
C381 O389 1.252 . S
C382 O385 1.252 . S
C382 O386 1.260 . S
O383 In377 2.266 . S
O383 C380 1.252 . S
O384 In377 2.326 . S
O384 C380 1.260 . S
O385 In377 2.266 . S
O385 C382 1.252 . S
O386 In377 2.326 . S
O386 C382 1.260 . S
C387 O378 1.240 . S
C387 O379 1.252 . S
O388 In377 2.294 . S
O388 C381 1.240 . S
O389 In377 2.326 . S
O389 C381 1.252 . S
In390 O391 2.294 . S
In390 O392 2.326 . S
In390 O396 2.266 . S
In390 O397 2.326 . S
In390 O398 2.266 . S
In390 O399 2.326 . S
In390 O401 2.294 . S
In390 O402 2.326 . S
O391 In390 2.294 . S
O391 C400 1.240 . S
O392 In390 2.326 . S
O392 C400 1.252 . S
C393 O396 1.252 . S
C393 O397 1.260 . S
C394 O401 1.240 . S
C394 O402 1.252 . S
C395 O398 1.252 . S
C395 O399 1.260 . S
O396 In390 2.266 . S
O396 C393 1.252 . S
O397 In390 2.326 . S
O397 C393 1.260 . S
O398 In390 2.266 . S
O398 C395 1.252 . S
O399 In390 2.326 . S
O399 C395 1.260 . S
C400 O391 1.240 . S
C400 O392 1.252 . S
O401 In390 2.294 . S
O401 C394 1.240 . S
O402 In390 2.326 . S
O402 C394 1.252 . S
In403 O404 2.294 . S
In403 O405 2.326 . S
In403 O409 2.266 . S
In403 O410 2.326 . S
In403 O411 2.266 . S
In403 O412 2.326 . S
In403 O414 2.294 . S
In403 O415 2.326 . S
O404 In403 2.294 . S
O404 C413 1.240 . S
O405 In403 2.326 . S
O405 C413 1.252 . S
C406 O409 1.252 . S
C406 O410 1.260 . S
C407 O414 1.240 . S
C407 O415 1.252 . S
C408 O411 1.252 . S
C408 O412 1.260 . S
O409 In403 2.266 . S
O409 C406 1.252 . S
O410 In403 2.326 . S
O410 C406 1.260 . S
O411 In403 2.266 . S
O411 C408 1.252 . S
O412 In403 2.326 . S
O412 C408 1.260 . S
C413 O404 1.240 . S
C413 O405 1.252 . S
O414 In403 2.294 . S
O414 C407 1.240 . S
O415 In403 2.326 . S
O415 C407 1.252 . S
C416 C417 1.387 . S
C416 H420 0.950 . S
C416 C425 1.390 1_655 S
C417 C416 1.387 . S
C417 C419 1.387 1_556 S
H418 C425 0.950 . S
C419 C417 1.387 1_554 S
C419 C421 1.390 1_655 S
C419 H423 0.950 . S
H420 C416 0.950 . S
C421 C419 1.390 1_455 S
C421 C422 1.387 . S
C421 H424 0.950 . S
C422 C421 1.387 . S
C422 C425 1.387 1_554 S
H423 C419 0.950 . S
H424 C421 0.950 . S
C425 C416 1.390 1_455 S
C425 H418 0.950 . S
C425 C422 1.387 1_556 S
C426 C427 1.387 . S
C426 H430 0.950 . S
C426 C435 1.390 . S
C427 C426 1.387 . S
C427 C429 1.387 . S
H428 C435 0.950 . S
C429 C427 1.387 . S
C429 C431 1.390 . S
C429 H433 0.950 . S
H430 C426 0.950 . S
C431 C429 1.390 . S
C431 C432 1.387 . S
C431 H434 0.950 . S
C432 C431 1.387 . S
C432 C435 1.387 . S
H433 C429 0.950 . S
H434 C431 0.950 . S
C435 C426 1.390 . S
C435 H428 0.950 . S
C435 C432 1.387 . S
C436 C437 1.387 . S
C436 H440 0.950 . S
C436 C445 1.390 . S
C437 C436 1.387 . S
C437 C439 1.387 . S
H438 C445 0.950 . S
C439 C437 1.387 . S
C439 C441 1.390 . S
C439 H443 0.950 . S
H440 C436 0.950 . S
C441 C439 1.390 . S
C441 C442 1.387 . S
C441 H444 0.950 . S
C442 C441 1.387 . S
C442 C445 1.387 . S
H443 C439 0.950 . S
H444 C441 0.950 . S
C445 C436 1.390 . S
C445 H438 0.950 . S
C445 C442 1.387 . S
C446 C447 1.387 . S
C446 H450 0.950 . S
C446 C455 1.390 . S
C447 C446 1.387 . S
C447 C449 1.387 . S
H448 C455 0.950 . S
C449 C447 1.387 . S
C449 C451 1.390 . S
C449 H453 0.950 . S
H450 C446 0.950 . S
C451 C449 1.390 . S
C451 C452 1.387 . S
C451 H454 0.950 . S
C452 C451 1.387 . S
C452 C455 1.387 . S
H453 C449 0.950 . S
H454 C451 0.950 . S
C455 C446 1.390 . S
C455 H448 0.950 . S
C455 C452 1.387 . S
C456 C457 1.387 . S
C456 H460 0.950 . S
C456 C465 1.390 1_655 S
C457 C456 1.387 . S
C457 C459 1.387 . S
H458 C465 0.950 . S
C459 C457 1.387 . S
C459 C461 1.390 1_655 S
C459 H463 0.950 . S
H460 C456 0.950 . S
C461 C459 1.390 1_455 S
C461 C462 1.387 . S
C461 H464 0.950 . S
C462 C461 1.387 . S
C462 C465 1.387 . S
H463 C459 0.950 . S
H464 C461 0.950 . S
C465 C456 1.390 1_455 S
C465 H458 0.950 . S
C465 C462 1.387 . S
C466 C467 1.387 . S
C466 H470 0.950 . S
C466 C475 1.390 . S
C467 C466 1.387 . S
C467 C469 1.387 . S
H468 C475 0.950 . S
C469 C467 1.387 . S
C469 C471 1.390 . S
C469 H473 0.950 . S
H470 C466 0.950 . S
C471 C469 1.390 . S
C471 C472 1.387 . S
C471 H474 0.950 . S
C472 C471 1.387 . S
C472 C475 1.387 . S
H473 C469 0.950 . S
H474 C471 0.950 . S
C475 C466 1.390 . S
C475 H468 0.950 . S
C475 C472 1.387 . S
C476 C477 1.387 . S
C476 H480 0.950 . S
C476 C485 1.390 . S
C477 C476 1.387 . S
C477 C479 1.387 1_556 S
H478 C485 0.950 . S
C479 C477 1.387 1_554 S
C479 C481 1.390 . S
C479 H483 0.950 . S
H480 C476 0.950 . S
C481 C479 1.390 . S
C481 C482 1.387 . S
C481 H484 0.950 . S
C482 C481 1.387 . S
C482 C485 1.387 1_554 S
H483 C479 0.950 . S
H484 C481 0.950 . S
C485 C476 1.390 . S
C485 H478 0.950 . S
C485 C482 1.387 1_556 S
C486 C487 1.387 . S
C486 H490 0.950 . S
C486 C495 1.390 . S
C487 C486 1.387 . S
C487 C489 1.387 . S
H488 C495 0.950 . S
C489 C487 1.387 . S
C489 C491 1.390 . S
C489 H493 0.950 . S
H490 C486 0.950 . S
C491 C489 1.390 . S
C491 C492 1.387 . S
C491 H494 0.950 . S
C492 C491 1.387 . S
C492 C495 1.387 . S
H493 C489 0.950 . S
H494 C491 0.950 . S
C495 C486 1.390 . S
C495 H488 0.950 . S
C495 C492 1.387 . S
C496 C497 1.387 . S
C496 H500 0.950 . S
C496 C505 1.390 . S
C497 C496 1.387 . S
C497 C499 1.387 . S
H498 C505 0.950 . S
C499 C497 1.387 . S
C499 C501 1.390 . S
C499 H503 0.950 . S
H500 C496 0.950 . S
C501 C499 1.390 . S
C501 C502 1.387 . S
C501 H504 0.950 . S
C502 C501 1.387 . S
C502 C505 1.387 . S
H503 C499 0.950 . S
H504 C501 0.950 . S
C505 C496 1.390 . S
C505 H498 0.950 . S
C505 C502 1.387 . S
C506 C507 1.387 . S
C506 H510 0.950 . S
C506 C515 1.390 . S
C507 C506 1.387 . S
C507 C509 1.387 . S
H508 C515 0.950 . S
C509 C507 1.387 . S
C509 C511 1.390 . S
C509 H513 0.950 . S
H510 C506 0.950 . S
C511 C509 1.390 . S
C511 C512 1.387 . S
C511 H514 0.950 . S
C512 C511 1.387 . S
C512 C515 1.387 . S
H513 C509 0.950 . S
H514 C511 0.950 . S
C515 C506 1.390 . S
C515 H508 0.950 . S
C515 C512 1.387 . S
C516 C517 1.387 . S
C516 H520 0.950 . S
C516 C525 1.390 . S
C517 C516 1.387 . S
C517 C519 1.387 . S
H518 C525 0.950 . S
C519 C517 1.387 . S
C519 C521 1.390 . S
C519 H523 0.950 . S
H520 C516 0.950 . S
C521 C519 1.390 . S
C521 C522 1.387 . S
C521 H524 0.950 . S
C522 C521 1.387 . S
C522 C525 1.387 . S
H523 C519 0.950 . S
H524 C521 0.950 . S
C525 C516 1.390 . S
C525 H518 0.950 . S
C525 C522 1.387 . S
C526 C527 1.387 . S
C526 H530 0.950 . S
C526 C535 1.390 . S
C527 C526 1.387 . S
C527 C529 1.387 . S
H528 C535 0.950 . S
C529 C527 1.387 . S
C529 C531 1.390 . S
C529 H533 0.950 . S
H530 C526 0.950 . S
C531 C529 1.390 . S
C531 C532 1.387 . S
C531 H534 0.950 . S
C532 C531 1.387 . S
C532 C535 1.387 . S
H533 C529 0.950 . S
H534 C531 0.950 . S
C535 C526 1.390 . S
C535 H528 0.950 . S
C535 C532 1.387 . S
C536 C537 1.387 . S
C536 H540 0.950 . S
C536 C545 1.390 . S
C537 C536 1.387 . S
C537 C539 1.387 1_565 S
H538 C545 0.950 . S
C539 C537 1.387 1_545 S
C539 C541 1.390 . S
C539 H543 0.950 . S
H540 C536 0.950 . S
C541 C539 1.390 . S
C541 C542 1.387 . S
C541 H544 0.950 . S
C542 C541 1.387 . S
C542 C545 1.387 1_545 S
H543 C539 0.950 . S
H544 C541 0.950 . S
C545 C536 1.390 . S
C545 H538 0.950 . S
C545 C542 1.387 1_565 S
C546 C547 1.387 1_545 S
C546 H550 0.950 . S
C546 C555 1.390 1_455 S
C547 C546 1.387 1_565 S
C547 C549 1.387 1_556 S
H548 C555 0.950 . S
C549 C547 1.387 1_554 S
C549 C551 1.390 1_455 S
C549 H553 0.950 . S
H550 C546 0.950 . S
C551 C549 1.390 1_655 S
C551 C552 1.387 1_565 S
C551 H554 0.950 . S
C552 C551 1.387 1_545 S
C552 C555 1.387 1_554 S
H553 C549 0.950 . S
H554 C551 0.950 . S
C555 C546 1.390 1_655 S
C555 H548 0.950 . S
C555 C552 1.387 1_556 S
C556 C557 1.387 1_554 S
C556 H560 0.950 . S
C556 C565 1.390 . S
C557 C556 1.387 1_556 S
C557 C559 1.387 1_545 S
H558 C565 0.950 . S
C559 C557 1.387 1_565 S
C559 C561 1.390 . S
C559 H563 0.950 . S
H560 C556 0.950 . S
C561 C559 1.390 . S
C561 C562 1.387 1_556 S
C561 H564 0.950 . S
C562 C561 1.387 1_554 S
C562 C565 1.387 1_565 S
H563 C559 0.950 . S
H564 C561 0.950 . S
C565 C556 1.390 . S
C565 H558 0.950 . S
C565 C562 1.387 1_545 S
C566 C567 1.387 . S
C566 H570 0.950 . S
C566 C575 1.390 1_455 S
C567 C566 1.387 . S
C567 C569 1.387 1_545 S
H568 C575 0.950 . S
C569 C567 1.387 1_565 S
C569 C571 1.390 1_455 S
C569 H573 0.950 . S
H570 C566 0.950 . S
C571 C569 1.390 1_655 S
C571 C572 1.387 . S
C571 H574 0.950 . S
C572 C571 1.387 . S
C572 C575 1.387 1_565 S
H573 C569 0.950 . S
H574 C571 0.950 . S
C575 C566 1.390 1_655 S
C575 H568 0.950 . S
C575 C572 1.387 1_545 S
C576 C577 1.387 . S
C576 H580 0.950 . S
C576 C585 1.390 1_655 S
C577 C576 1.387 . S
C577 C579 1.387 . S
H578 C585 0.950 . S
C579 C577 1.387 . S
C579 C581 1.390 1_655 S
C579 H583 0.950 . S
H580 C576 0.950 . S
C581 C579 1.390 1_455 S
C581 C582 1.387 . S
C581 H584 0.950 . S
C582 C581 1.387 . S
C582 C585 1.387 . S
H583 C579 0.950 . S
H584 C581 0.950 . S
C585 C576 1.390 1_455 S
C585 H578 0.950 . S
C585 C582 1.387 . S
C586 C587 1.387 . S
C586 H590 0.950 . S
C586 C595 1.390 1_455 S
C587 C586 1.387 . S
C587 C589 1.387 . S
H588 C595 0.950 . S
C589 C587 1.387 . S
C589 C591 1.390 1_455 S
C589 H593 0.950 . S
H590 C586 0.950 . S
C591 C589 1.390 1_655 S
C591 C592 1.387 . S
C591 H594 0.950 . S
C592 C591 1.387 . S
C592 C595 1.387 . S
H593 C589 0.950 . S
H594 C591 0.950 . S
C595 C586 1.390 1_655 S
C595 H588 0.950 . S
C595 C592 1.387 . S
C596 C597 1.387 . S
C596 H600 0.950 . S
C596 C605 1.390 . S
C597 C596 1.387 . S
C597 C599 1.387 . S
H598 C605 0.950 . S
C599 C597 1.387 . S
C599 C601 1.390 . S
C599 H603 0.950 . S
H600 C596 0.950 . S
C601 C599 1.390 . S
C601 C602 1.387 . S
C601 H604 0.950 . S
C602 C601 1.387 . S
C602 C605 1.387 . S
H603 C599 0.950 . S
H604 C601 0.950 . S
C605 C596 1.390 . S
C605 H598 0.950 . S
C605 C602 1.387 . S
C606 C607 1.387 . S
C606 H610 0.950 . S
C606 C615 1.390 . S
C607 C606 1.387 . S
C607 C609 1.387 . S
H608 C615 0.950 . S
C609 C607 1.387 . S
C609 C611 1.390 . S
C609 H613 0.950 . S
H610 C606 0.950 . S
C611 C609 1.390 . S
C611 C612 1.387 . S
C611 H614 0.950 . S
C612 C611 1.387 . S
C612 C615 1.387 . S
H613 C609 0.950 . S
H614 C611 0.950 . S
C615 C606 1.390 . S
C615 H608 0.950 . S
C615 C612 1.387 . S
C616 C617 1.387 . S
C616 H620 0.950 . S
C616 C625 1.390 1_655 S
C617 C616 1.387 . S
C617 C619 1.387 . S
H618 C625 0.950 . S
C619 C617 1.387 . S
C619 C621 1.390 1_655 S
C619 H623 0.950 . S
H620 C616 0.950 . S
C621 C619 1.390 1_455 S
C621 C622 1.387 . S
C621 H624 0.950 . S
C622 C621 1.387 . S
C622 C625 1.387 . S
H623 C619 0.950 . S
H624 C621 0.950 . S
C625 C616 1.390 1_455 S
C625 H618 0.950 . S
C625 C622 1.387 . S
C626 C627 1.387 . S
C626 H630 0.950 . S
C626 C635 1.390 . S
C627 C626 1.387 . S
C627 C629 1.387 . S
H628 C635 0.950 . S
C629 C627 1.387 . S
C629 C631 1.390 . S
C629 H633 0.950 . S
H630 C626 0.950 . S
C631 C629 1.390 . S
C631 C632 1.387 . S
C631 H634 0.950 . S
C632 C631 1.387 . S
C632 C635 1.387 . S
H633 C629 0.950 . S
H634 C631 0.950 . S
C635 C626 1.390 . S
C635 H628 0.950 . S
C635 C632 1.387 . S
C636 C637 1.387 . S
C636 H640 0.950 . S
C636 C645 1.390 . S
C637 C636 1.387 . S
C637 C639 1.387 . S
H638 C645 0.950 . S
C639 C637 1.387 . S
C639 C641 1.390 . S
C639 H643 0.950 . S
H640 C636 0.950 . S
C641 C639 1.390 . S
C641 C642 1.387 . S
C641 H644 0.950 . S
C642 C641 1.387 . S
C642 C645 1.387 . S
H643 C639 0.950 . S
H644 C641 0.950 . S
C645 C636 1.390 . S
C645 H638 0.950 . S
C645 C642 1.387 . S
C646 C647 1.387 . S
C646 H650 0.950 . S
C646 C655 1.390 1_455 S
C647 C646 1.387 . S
C647 C649 1.387 . S
H648 C655 0.950 . S
C649 C647 1.387 . S
C649 C651 1.390 1_455 S
C649 H653 0.950 . S
H650 C646 0.950 . S
C651 C649 1.390 1_655 S
C651 C652 1.387 . S
C651 H654 0.950 . S
C652 C651 1.387 . S
C652 C655 1.387 . S
H653 C649 0.950 . S
H654 C651 0.950 . S
C655 C646 1.390 1_655 S
C655 H648 0.950 . S
C655 C652 1.387 . S
C656 C657 1.387 . S
C656 H660 0.950 . S
C656 C665 1.390 1_655 S
C657 C656 1.387 . S
C657 C659 1.387 . S
H658 C665 0.950 . S
C659 C657 1.387 . S
C659 C661 1.390 1_655 S
C659 H663 0.950 . S
H660 C656 0.950 . S
C661 C659 1.390 1_455 S
C661 C662 1.387 . S
C661 H664 0.950 . S
C662 C661 1.387 . S
C662 C665 1.387 . S
H663 C659 0.950 . S
H664 C661 0.950 . S
C665 C656 1.390 1_455 S
C665 H658 0.950 . S
C665 C662 1.387 . S
C666 C667 1.387 . S
C666 H670 0.950 . S
C666 C675 1.390 1_655 S
C667 C666 1.387 . S
C667 C669 1.387 . S
H668 C675 0.950 . S
C669 C667 1.387 . S
C669 C671 1.390 1_655 S
C669 H673 0.950 . S
H670 C666 0.950 . S
C671 C669 1.390 1_455 S
C671 C672 1.387 . S
C671 H674 0.950 . S
C672 C671 1.387 . S
C672 C675 1.387 . S
H673 C669 0.950 . S
H674 C671 0.950 . S
C675 C666 1.390 1_455 S
C675 H668 0.950 . S
C675 C672 1.387 . S
C676 C677 1.387 . S
C676 H680 0.950 . S
C676 C685 1.390 . S
C677 C676 1.387 . S
C677 C679 1.387 . S
H678 C685 0.950 . S
C679 C677 1.387 . S
C679 C681 1.390 . S
C679 H683 0.950 . S
H680 C676 0.950 . S
C681 C679 1.390 . S
C681 C682 1.387 . S
C681 H684 0.950 . S
C682 C681 1.387 . S
C682 C685 1.387 . S
H683 C679 0.950 . S
H684 C681 0.950 . S
C685 C676 1.390 . S
C685 H678 0.950 . S
C685 C682 1.387 . S
C686 C687 1.387 . S
C686 H690 0.950 . S
C686 C695 1.390 . S
C687 C686 1.387 . S
C687 C689 1.387 . S
H688 C695 0.950 . S
C689 C687 1.387 . S
C689 C691 1.390 . S
C689 H693 0.950 . S
H690 C686 0.950 . S
C691 C689 1.390 . S
C691 C692 1.387 . S
C691 H694 0.950 . S
C692 C691 1.387 . S
C692 C695 1.387 . S
H693 C689 0.950 . S
H694 C691 0.950 . S
C695 C686 1.390 . S
C695 H688 0.950 . S
C695 C692 1.387 . S
C696 C697 1.387 . S
C696 H700 0.950 . S
C696 C705 1.390 1_655 S
C697 C696 1.387 . S
C697 C699 1.387 . S
H698 C705 0.950 . S
C699 C697 1.387 . S
C699 C701 1.390 1_655 S
C699 H703 0.950 . S
H700 C696 0.950 . S
C701 C699 1.390 1_455 S
C701 C702 1.387 . S
C701 H704 0.950 . S
C702 C701 1.387 . S
C702 C705 1.387 . S
H703 C699 0.950 . S
H704 C701 0.950 . S
C705 C696 1.390 1_455 S
C705 H698 0.950 . S
C705 C702 1.387 . S
C706 C707 1.387 . S
C706 H710 0.950 . S
C706 C715 1.390 . S
C707 C706 1.387 . S
C707 C709 1.387 . S
H708 C715 0.950 . S
C709 C707 1.387 . S
C709 C711 1.390 . S
C709 H713 0.950 . S
H710 C706 0.950 . S
C711 C709 1.390 . S
C711 C712 1.387 . S
C711 H714 0.950 . S
C712 C711 1.387 . S
C712 C715 1.387 . S
H713 C709 0.950 . S
H714 C711 0.950 . S
C715 C706 1.390 . S
C715 H708 0.950 . S
C715 C712 1.387 . S
C716 C717 1.387 . S
C716 H720 0.950 . S
C716 C725 1.390 . S
C717 C716 1.387 . S
C717 C719 1.387 . S
H718 C725 0.950 . S
C719 C717 1.387 . S
C719 C721 1.390 . S
C719 H723 0.950 . S
H720 C716 0.950 . S
C721 C719 1.390 . S
C721 C722 1.387 . S
C721 H724 0.950 . S
C722 C721 1.387 . S
C722 C725 1.387 . S
H723 C719 0.950 . S
H724 C721 0.950 . S
C725 C716 1.390 . S
C725 H718 0.950 . S
C725 C722 1.387 . S
C726 C727 1.387 . S
C726 H730 0.950 . S
C726 C735 1.390 1_655 S
C727 C726 1.387 . S
C727 C729 1.387 . S
H728 C735 0.950 . S
C729 C727 1.387 . S
C729 C731 1.390 1_655 S
C729 H733 0.950 . S
H730 C726 0.950 . S
C731 C729 1.390 1_455 S
C731 C732 1.387 . S
C731 H734 0.950 . S
C732 C731 1.387 . S
C732 C735 1.387 . S
H733 C729 0.950 . S
H734 C731 0.950 . S
C735 C726 1.390 1_455 S
C735 H728 0.950 . S
C735 C732 1.387 . S
C736 C737 1.387 . S
C736 H740 0.950 . S
C736 C745 1.390 1_556 S
C737 C736 1.387 . S
C737 C739 1.387 . S
H738 C745 0.950 . S
C739 C737 1.387 . S
C739 C741 1.390 1_556 S
C739 H743 0.950 . S
H740 C736 0.950 . S
C741 C739 1.390 1_554 S
C741 C742 1.387 . S
C741 H744 0.950 . S
C742 C741 1.387 . S
C742 C745 1.387 . S
H743 C739 0.950 . S
H744 C741 0.950 . S
C745 C736 1.390 1_554 S
C745 H738 0.950 . S
C745 C742 1.387 . S
C746 C747 1.387 . S
C746 H750 0.950 . S
C746 C755 1.390 1_545 S
C747 C746 1.387 . S
C747 C749 1.387 . S
H748 C755 0.950 . S
C749 C747 1.387 . S
C749 C751 1.390 1_545 S
C749 H753 0.950 . S
H750 C746 0.950 . S
C751 C749 1.390 1_565 S
C751 C752 1.387 . S
C751 H754 0.950 . S
C752 C751 1.387 . S
C752 C755 1.387 . S
H753 C749 0.950 . S
H754 C751 0.950 . S
C755 C746 1.390 1_565 S
C755 H748 0.950 . S
C755 C752 1.387 . S
C756 C757 1.387 . S
C756 H760 0.950 . S
C756 C765 1.390 . S
C757 C756 1.387 . S
C757 C759 1.387 . S
H758 C765 0.950 . S
C759 C757 1.387 . S
C759 C761 1.390 . S
C759 H763 0.950 . S
H760 C756 0.950 . S
C761 C759 1.390 . S
C761 C762 1.387 . S
C761 H764 0.950 . S
C762 C761 1.387 . S
C762 C765 1.387 . S
H763 C759 0.950 . S
H764 C761 0.950 . S
C765 C756 1.390 . S
C765 H758 0.950 . S
C765 C762 1.387 . S
C766 C767 1.387 . S
C766 H770 0.950 . S
C766 C775 1.390 1_545 S
C767 C766 1.387 . S
C767 C769 1.387 . S
H768 C775 0.950 . S
C769 C767 1.387 . S
C769 C771 1.390 1_545 S
C769 H773 0.950 . S
H770 C766 0.950 . S
C771 C769 1.390 1_565 S
C771 C772 1.387 . S
C771 H774 0.950 . S
C772 C771 1.387 . S
C772 C775 1.387 . S
H773 C769 0.950 . S
H774 C771 0.950 . S
C775 C766 1.390 1_565 S
C775 H768 0.950 . S
C775 C772 1.387 . S
C776 C777 1.387 . S
C776 H780 0.950 . S
C776 C785 1.390 1_554 S
C777 C776 1.387 . S
C777 C779 1.387 . S
H778 C785 0.950 . S
C779 C777 1.387 . S
C779 C781 1.390 1_554 S
C779 H783 0.950 . S
H780 C776 0.950 . S
C781 C779 1.390 1_556 S
C781 C782 1.387 . S
C781 H784 0.950 . S
C782 C781 1.387 . S
C782 C785 1.387 . S
H783 C779 0.950 . S
H784 C781 0.950 . S
C785 C776 1.390 1_556 S
C785 H778 0.950 . S
C785 C782 1.387 . S
C786 C787 1.387 . S
C786 H790 0.950 . S
C786 C795 1.390 1_565 S
C787 C786 1.387 . S
C787 C789 1.387 . S
H788 C795 0.950 . S
C789 C787 1.387 . S
C789 C791 1.390 1_565 S
C789 H793 0.950 . S
H790 C786 0.950 . S
C791 C789 1.390 1_545 S
C791 C792 1.387 . S
C791 H794 0.950 . S
C792 C791 1.387 . S
C792 C795 1.387 . S
H793 C789 0.950 . S
H794 C791 0.950 . S
C795 C786 1.390 1_545 S
C795 H788 0.950 . S
C795 C792 1.387 . S
C796 C797 1.387 . S
C796 H800 0.950 . S
C796 C805 1.390 . S
C797 C796 1.387 . S
C797 C799 1.387 . S
H798 C805 0.950 . S
C799 C797 1.387 . S
C799 C801 1.390 . S
C799 H803 0.950 . S
H800 C796 0.950 . S
C801 C799 1.390 . S
C801 C802 1.387 . S
C801 H804 0.950 . S
C802 C801 1.387 . S
C802 C805 1.387 . S
H803 C799 0.950 . S
H804 C801 0.950 . S
C805 C796 1.390 . S
C805 H798 0.950 . S
C805 C802 1.387 . S
C806 C807 1.387 . S
C806 H810 0.950 . S
C806 C815 1.390 1_545 S
C807 C806 1.387 . S
C807 C809 1.387 . S
H808 C815 0.950 . S
C809 C807 1.387 . S
C809 C811 1.390 1_545 S
C809 H813 0.950 . S
H810 C806 0.950 . S
C811 C809 1.390 1_565 S
C811 C812 1.387 . S
C811 H814 0.950 . S
C812 C811 1.387 . S
C812 C815 1.387 . S
H813 C809 0.950 . S
H814 C811 0.950 . S
C815 C806 1.390 1_565 S
C815 H808 0.950 . S
C815 C812 1.387 . S
C816 C817 1.387 . S
C816 H820 0.950 . S
C816 C825 1.390 . S
C817 C816 1.387 . S
C817 C819 1.387 . S
H818 C825 0.950 . S
C819 C817 1.387 . S
C819 C821 1.390 . S
C819 H823 0.950 . S
H820 C816 0.950 . S
C821 C819 1.390 . S
C821 C822 1.387 . S
C821 H824 0.950 . S
C822 C821 1.387 . S
C822 C825 1.387 . S
H823 C819 0.950 . S
H824 C821 0.950 . S
C825 C816 1.390 . S
C825 H818 0.950 . S
C825 C822 1.387 . S
C826 C827 1.387 . S
C826 H830 0.950 . S
C826 C835 1.390 . S
C827 C826 1.387 . S
C827 C829 1.387 . S
H828 C835 0.950 . S
C829 C827 1.387 . S
C829 C831 1.390 . S
C829 H833 0.950 . S
H830 C826 0.950 . S
C831 C829 1.390 . S
C831 C832 1.387 . S
C831 H834 0.950 . S
C832 C831 1.387 . S
C832 C835 1.387 . S
H833 C829 0.950 . S
H834 C831 0.950 . S
C835 C826 1.390 . S
C835 H828 0.950 . S
C835 C832 1.387 . S
C836 C837 1.387 . S
C836 H840 0.950 . S
C836 C845 1.390 1_554 S
C837 C836 1.387 . S
C837 C839 1.387 . S
H838 C845 0.950 . S
C839 C837 1.387 . S
C839 C841 1.390 1_554 S
C839 H843 0.950 . S
H840 C836 0.950 . S
C841 C839 1.390 1_556 S
C841 C842 1.387 . S
C841 H844 0.950 . S
C842 C841 1.387 . S
C842 C845 1.387 . S
H843 C839 0.950 . S
H844 C841 0.950 . S
C845 C836 1.390 1_556 S
C845 H838 0.950 . S
C845 C842 1.387 . S
C846 C847 1.387 . S
C846 H850 0.950 . S
C846 C855 1.390 . S
C847 C846 1.387 . S
C847 C849 1.387 . S
H848 C855 0.950 . S
C849 C847 1.387 . S
C849 C851 1.390 . S
C849 H853 0.950 . S
H850 C846 0.950 . S
C851 C849 1.390 . S
C851 C852 1.387 . S
C851 H854 0.950 . S
C852 C851 1.387 . S
C852 C855 1.387 . S
H853 C849 0.950 . S
H854 C851 0.950 . S
C855 C846 1.390 . S
C855 H848 0.950 . S
C855 C852 1.387 . S
C856 C857 1.387 . S
C856 H860 0.950 . S
C856 C865 1.390 . S
C857 C856 1.387 . S
C857 C859 1.387 . S
H858 C865 0.950 . S
C859 C857 1.387 . S
C859 C861 1.390 . S
C859 H863 0.950 . S
H860 C856 0.950 . S
C861 C859 1.390 . S
C861 C862 1.387 . S
C861 H864 0.950 . S
C862 C861 1.387 . S
C862 C865 1.387 . S
H863 C859 0.950 . S
H864 C861 0.950 . S
C865 C856 1.390 . S
C865 H858 0.950 . S
C865 C862 1.387 . S
C866 C867 1.387 . S
C866 H870 0.950 . S
C866 C875 1.390 . S
C867 C866 1.387 . S
C867 C869 1.387 . S
H868 C875 0.950 . S
C869 C867 1.387 . S
C869 C871 1.390 . S
C869 H873 0.950 . S
H870 C866 0.950 . S
C871 C869 1.390 . S
C871 C872 1.387 . S
C871 H874 0.950 . S
C872 C871 1.387 . S
C872 C875 1.387 . S
H873 C869 0.950 . S
H874 C871 0.950 . S
C875 C866 1.390 . S
C875 H868 0.950 . S
C875 C872 1.387 . S
C876 C877 1.387 . S
C876 H880 0.950 . S
C876 C885 1.390 1_556 S
C877 C876 1.387 . S
C877 C879 1.387 . S
H878 C885 0.950 . S
C879 C877 1.387 . S
C879 C881 1.390 1_556 S
C879 H883 0.950 . S
H880 C876 0.950 . S
C881 C879 1.390 1_554 S
C881 C882 1.387 . S
C881 H884 0.950 . S
C882 C881 1.387 . S
C882 C885 1.387 . S
H883 C879 0.950 . S
H884 C881 0.950 . S
C885 C876 1.390 1_554 S
C885 H878 0.950 . S
C885 C882 1.387 . S
C886 C887 1.387 . S
C886 H890 0.950 . S
C886 C895 1.390 . S
C887 C886 1.387 . S
C887 C889 1.387 . S
H888 C895 0.950 . S
C889 C887 1.387 . S
C889 C891 1.390 . S
C889 H893 0.950 . S
H890 C886 0.950 . S
C891 C889 1.390 . S
C891 C892 1.387 . S
C891 H894 0.950 . S
C892 C891 1.387 . S
C892 C895 1.387 . S
H893 C889 0.950 . S
H894 C891 0.950 . S
C895 C886 1.390 . S
C895 H888 0.950 . S
C895 C892 1.387 . S
C896 C897 1.387 . S
C896 H900 0.950 . S
C896 C905 1.390 . S
C897 C896 1.387 . S
C897 C899 1.387 . S
H898 C905 0.950 . S
C899 C897 1.387 . S
C899 C901 1.390 . S
C899 H903 0.950 . S
H900 C896 0.950 . S
C901 C899 1.390 . S
C901 C902 1.387 . S
C901 H904 0.950 . S
C902 C901 1.387 . S
C902 C905 1.387 . S
H903 C899 0.950 . S
H904 C901 0.950 . S
C905 C896 1.390 . S
C905 H898 0.950 . S
C905 C902 1.387 . S
C906 C907 1.387 . S
C906 H910 0.950 . S
C906 C915 1.390 . S
C907 C906 1.387 . S
C907 C909 1.387 . S
H908 C915 0.950 . S
C909 C907 1.387 . S
C909 C911 1.390 . S
C909 H913 0.950 . S
H910 C906 0.950 . S
C911 C909 1.390 . S
C911 C912 1.387 . S
C911 H914 0.950 . S
C912 C911 1.387 . S
C912 C915 1.387 . S
H913 C909 0.950 . S
H914 C911 0.950 . S
C915 C906 1.390 . S
C915 H908 0.950 . S
C915 C912 1.387 . S
C916 C917 1.387 . S
C916 H920 0.950 . S
C916 C925 1.390 . S
C917 C916 1.387 . S
C917 C919 1.387 . S
H918 C925 0.950 . S
C919 C917 1.387 . S
C919 C921 1.390 . S
C919 H923 0.950 . S
H920 C916 0.950 . S
C921 C919 1.390 . S
C921 C922 1.387 . S
C921 H924 0.950 . S
C922 C921 1.387 . S
C922 C925 1.387 . S
H923 C919 0.950 . S
H924 C921 0.950 . S
C925 C916 1.390 . S
C925 H918 0.950 . S
C925 C922 1.387 . S
C926 C927 1.387 . S
C926 H930 0.950 . S
C926 C935 1.390 . S
C927 C926 1.387 . S
C927 C929 1.387 . S
H928 C935 0.950 . S
C929 C927 1.387 . S
C929 C931 1.390 . S
C929 H933 0.950 . S
H930 C926 0.950 . S
C931 C929 1.390 . S
C931 C932 1.387 . S
C931 H934 0.950 . S
C932 C931 1.387 . S
C932 C935 1.387 . S
H933 C929 0.950 . S
H934 C931 0.950 . S
C935 C926 1.390 . S
C935 H928 0.950 . S
C935 C932 1.387 . S
C936 C937 1.387 . S
C936 H940 0.950 . S
C936 C945 1.390 . S
C937 C936 1.387 . S
C937 C939 1.387 . S
H938 C945 0.950 . S
C939 C937 1.387 . S
C939 C941 1.390 . S
C939 H943 0.950 . S
H940 C936 0.950 . S
C941 C939 1.390 . S
C941 C942 1.387 . S
C941 H944 0.950 . S
C942 C941 1.387 . S
C942 C945 1.387 . S
H943 C939 0.950 . S
H944 C941 0.950 . S
C945 C936 1.390 . S
C945 H938 0.950 . S
C945 C942 1.387 . S
C946 C947 1.387 . S
C946 H950 0.950 . S
C946 C955 1.390 . S
C947 C946 1.387 . S
C947 C949 1.387 . S
H948 C955 0.950 . S
C949 C947 1.387 . S
C949 C951 1.390 . S
C949 H953 0.950 . S
H950 C946 0.950 . S
C951 C949 1.390 . S
C951 C952 1.387 . S
C951 H954 0.950 . S
C952 C951 1.387 . S
C952 C955 1.387 . S
H953 C949 0.950 . S
H954 C951 0.950 . S
C955 C946 1.390 . S
C955 H948 0.950 . S
C955 C952 1.387 . S
C956 C957 1.387 . S
C956 H960 0.950 . S
C956 C965 1.390 . S
C957 C956 1.387 . S
C957 C959 1.387 . S
H958 C965 0.950 . S
C959 C957 1.387 . S
C959 C961 1.390 . S
C959 H963 0.950 . S
H960 C956 0.950 . S
C961 C959 1.390 . S
C961 C962 1.387 . S
C961 H964 0.950 . S
C962 C961 1.387 . S
C962 C965 1.387 . S
H963 C959 0.950 . S
H964 C961 0.950 . S
C965 C956 1.390 . S
C965 H958 0.950 . S
C965 C962 1.387 . S
C966 C967 1.387 . S
C966 H970 0.950 . S
C966 C975 1.390 . S
C967 C966 1.387 . S
C967 C969 1.387 . S
H968 C975 0.950 . S
C969 C967 1.387 . S
C969 C971 1.390 . S
C969 H973 0.950 . S
H970 C966 0.950 . S
C971 C969 1.390 . S
C971 C972 1.387 . S
C971 H974 0.950 . S
C972 C971 1.387 . S
C972 C975 1.387 . S
H973 C969 0.950 . S
H974 C971 0.950 . S
C975 C966 1.390 . S
C975 H968 0.950 . S
C975 C972 1.387 . S
C976 C977 1.387 . S
C976 H980 0.950 . S
C976 C985 1.390 . S
C977 C976 1.387 . S
C977 C979 1.387 . S
H978 C985 0.950 . S
C979 C977 1.387 . S
C979 C981 1.390 . S
C979 H983 0.950 . S
H980 C976 0.950 . S
C981 C979 1.390 . S
C981 C982 1.387 . S
C981 H984 0.950 . S
C982 C981 1.387 . S
C982 C985 1.387 . S
H983 C979 0.950 . S
H984 C981 0.950 . S
C985 C976 1.390 . S
C985 H978 0.950 . S
C985 C982 1.387 . S
C986 C987 1.387 . S
C986 H990 0.950 . S
C986 C995 1.390 . S
C987 C986 1.387 . S
C987 C989 1.387 . S
H988 C995 0.950 . S
C989 C987 1.387 . S
C989 C991 1.390 . S
C989 H993 0.950 . S
H990 C986 0.950 . S
C991 C989 1.390 . S
C991 C992 1.387 . S
C991 H994 0.950 . S
C992 C991 1.387 . S
C992 C995 1.387 . S
H993 C989 0.950 . S
H994 C991 0.950 . S
C995 C986 1.390 . S
C995 H988 0.950 . S
C995 C992 1.387 . S
C996 C997 1.387 . S
C996 H1000 0.950 . S
C996 C1005 1.390 . S
C997 C996 1.387 . S
C997 C999 1.387 . S
H998 C1005 0.950 . S
C999 C997 1.387 . S
C999 C1001 1.390 . S
C999 H1003 0.950 . S
H1000 C996 0.950 . S
C1001 C999 1.390 . S
C1001 C1002 1.387 . S
C1001 H1004 0.950 . S
C1002 C1001 1.387 . S
C1002 C1005 1.387 . S
H1003 C999 0.950 . S
H1004 C1001 0.950 . S
C1005 C996 1.390 . S
C1005 H998 0.950 . S
C1005 C1002 1.387 . S
C1006 C1007 1.387 . S
C1006 H1010 0.950 . S
C1006 C1015 1.390 . S
C1007 C1006 1.387 . S
C1007 C1009 1.387 . S
H1008 C1015 0.950 . S
C1009 C1007 1.387 . S
C1009 C1011 1.390 . S
C1009 H1013 0.950 . S
H1010 C1006 0.950 . S
C1011 C1009 1.390 . S
C1011 C1012 1.387 . S
C1011 H1014 0.950 . S
C1012 C1011 1.387 . S
C1012 C1015 1.387 . S
H1013 C1009 0.950 . S
H1014 C1011 0.950 . S
C1015 C1006 1.390 . S
C1015 H1008 0.950 . S
C1015 C1012 1.387 . S
C1016 C1017 1.387 . S
C1016 H1020 0.950 . S
C1016 C1025 1.390 . S
C1017 C1016 1.387 . S
C1017 C1019 1.387 . S
H1018 C1025 0.950 . S
C1019 C1017 1.387 . S
C1019 C1021 1.390 . S
C1019 H1023 0.950 . S
H1020 C1016 0.950 . S
C1021 C1019 1.390 . S
C1021 C1022 1.387 . S
C1021 H1024 0.950 . S
C1022 C1021 1.387 . S
C1022 C1025 1.387 . S
H1023 C1019 0.950 . S
H1024 C1021 0.950 . S
C1025 C1016 1.390 . S
C1025 H1018 0.950 . S
C1025 C1022 1.387 . S
C1026 C1027 1.387 . S
C1026 H1030 0.950 . S
C1026 C1035 1.390 . S
C1027 C1026 1.387 . S
C1027 C1029 1.387 . S
H1028 C1035 0.950 . S
C1029 C1027 1.387 . S
C1029 C1031 1.390 . S
C1029 H1033 0.950 . S
H1030 C1026 0.950 . S
C1031 C1029 1.390 . S
C1031 C1032 1.387 . S
C1031 H1034 0.950 . S
C1032 C1031 1.387 . S
C1032 C1035 1.387 . S
H1033 C1029 0.950 . S
H1034 C1031 0.950 . S
C1035 C1026 1.390 . S
C1035 H1028 0.950 . S
C1035 C1032 1.387 . S
C1036 C1037 1.387 . S
C1036 H1040 0.950 . S
C1036 C1045 1.390 . S
C1037 C1036 1.387 . S
C1037 C1039 1.387 . S
H1038 C1045 0.950 . S
C1039 C1037 1.387 . S
C1039 C1041 1.390 . S
C1039 H1043 0.950 . S
H1040 C1036 0.950 . S
C1041 C1039 1.390 . S
C1041 C1042 1.387 . S
C1041 H1044 0.950 . S
C1042 C1041 1.387 . S
C1042 C1045 1.387 . S
H1043 C1039 0.950 . S
H1044 C1041 0.950 . S
C1045 C1036 1.390 . S
C1045 H1038 0.950 . S
C1045 C1042 1.387 . S
C1046 C1047 1.387 . S
C1046 H1050 0.950 . S
C1046 C1055 1.390 . S
C1047 C1046 1.387 . S
C1047 C1049 1.387 . S
H1048 C1055 0.950 . S
C1049 C1047 1.387 . S
C1049 C1051 1.390 . S
C1049 H1053 0.950 . S
H1050 C1046 0.950 . S
C1051 C1049 1.390 . S
C1051 C1052 1.387 . S
C1051 H1054 0.950 . S
C1052 C1051 1.387 . S
C1052 C1055 1.387 . S
H1053 C1049 0.950 . S
H1054 C1051 0.950 . S
C1055 C1046 1.390 . S
C1055 H1048 0.950 . S
C1055 C1052 1.387 . S
C417 C108 1.505 . S
C422 C10 1.505 . S
C427 C335 1.504 . S
C432 C23 1.504 . S
C437 C140 1.505 . S
C442 C30 1.505 . S
C447 C355 1.504 . S
C452 C43 1.504 . S
C457 C166 1.504 . S
C462 C56 1.504 . S
C467 C75 1.504 . S
C472 C381 1.504 . S
C477 C88 1.504 . S
C482 C192 1.504 . S
C487 C95 1.504 . S
C492 C413 1.504 . S
C497 C231 1.504 . S
C502 C121 1.504 . S
C507 C251 1.505 . S
C512 C153 1.505 . S
C517 C173 1.505 . S
C522 C277 1.505 . S
C527 C199 1.505 . S
C532 C303 1.505 . S
C537 C212 1.505 . S
C542 C316 1.505 . S
C547 C348 1.505 . S
C552 C244 1.505 . S
C557 C270 1.505 . S
C562 C368 1.505 . S
C567 C400 1.504 . S
C572 C290 1.504 . S
C577 C239 1.552 . S
C582 C5 1.552 . S
C587 C250 1.551 . S
C592 C18 1.551 . S
C597 C29 1.552 . S
C602 C211 1.552 . S
C607 C42 1.552 . S
C612 C226 1.552 . S
C617 C289 1.552 . S
C622 C55 1.552 . S
C627 C70 1.552 . S
C632 C302 1.552 . S
C637 C265 1.551 . S
C642 C83 1.551 . S
C647 C276 1.552 . S
C652 C94 1.552 . S
C657 C107 1.551 . S
C662 C343 1.551 . S
C667 C354 1.551 . S
C672 C120 1.551 . S
C677 C135 1.551 . S
C682 C315 1.551 . S
C687 C148 1.551 . S
C692 C330 1.551 . S
C697 C161 1.552 . S
C702 C395 1.552 . S
C707 C172 1.552 . S
C712 C408 1.552 . S
C717 C367 1.552 . S
C722 C187 1.552 . S
C727 C380 1.551 . S
C732 C198 1.551 . S
C737 C82 1.838 . S
C742 C4 1.838 . S
C747 C101 1.838 . S
C752 C17 1.838 . S
C757 C62 1.837 . S
C762 C36 1.837 . S
C767 C49 1.838 . S
C772 C69 1.838 . S
C777 C186 1.837 . S
C782 C114 1.837 . S
C787 C205 1.837 . S
C792 C127 1.837 . S
C797 C160 1.837 . S
C802 C134 1.837 . S
C807 C179 1.838 . S
C812 C147 1.838 . S
C817 C296 1.837 . S
C822 C218 1.837 . S
C827 C309 1.838 . S
C832 C225 1.838 . S
C837 C238 1.837 . S
C842 C264 1.837 . S
C847 C257 1.837 . S
C852 C283 1.837 . S
C857 C394 1.837 . S
C862 C322 1.837 . S
C867 C407 1.838 . S
C872 C329 1.838 . S
C877 C342 1.837 . S
C882 C374 1.837 . S
C887 C361 1.838 . S
C892 C387 1.838 . S
C897 C3 1.415 . S
C902 C278 1.415 . S
C907 C291 1.415 . S
C912 C16 1.415 . S
C917 C304 1.415 . S
C922 C31 1.415 . S
C927 C44 1.415 . S
C932 C263 1.415 . S
C937 C252 1.415 . S
C942 C57 1.415 . S
C947 C68 1.415 . S
C952 C213 1.415 . S
C957 C224 1.415 . S
C962 C81 1.415 . S
C967 C96 1.415 . S
C972 C237 1.415 . S
C977 C382 1.415 . S
C982 C109 1.415 . S
C987 C393 1.415 . S
C992 C122 1.415 . S
C997 C133 1.415 . S
C1002 C406 1.415 . S
C1007 C369 1.415 . S
C1012 C146 1.415 . S
C1017 C356 1.415 . S
C1022 C159 1.415 . S
C1027 C174 1.415 . S
C1032 C317 1.415 . S
C1037 C328 1.415 . S
C1042 C185 1.415 . S
C1047 C200 1.415 . S
C1052 C341 1.415 . S
