# Generated by pormake.
# Topology wji, (4)-cn, num edge types: 1
# Building blocks:
#     Node 0, Type 0, BuildingBlock: AZAVOO_clean_sbu_0, # of connection points: 4
#     Node 1, Type 0, BuildingBlock: AZAVOO_clean_sbu_0, # of connection points: 4
#     Node 2, Type 0, BuildingBlock: AZAVOO_clean_sbu_0, # of connection points: 4
#     Node 3, Type 0, BuildingBlock: AZAVOO_clean_sbu_0, # of connection points: 4
#     Node 4, Type 0, BuildingBlock: AZAVOO_clean_sbu_0, # of connection points: 4
#     Node 5, Type 0, BuildingBlock: AZAVOO_clean_sbu_0, # of connection points: 4
#     Node 6, Type 0, BuildingBlock: AZAVOO_clean_sbu_0, # of connection points: 4
#     Node 7, Type 0, BuildingBlock: AZAVOO_clean_sbu_0, # of connection points: 4
#     Node 8, Type 0, BuildingBlock: AZAVOO_clean_sbu_0, # of connection points: 4
#     Node 9, Type 0, BuildingBlock: AZAVOO_clean_sbu_0, # of connection points: 4
#     Node 10, Type 0, BuildingBlock: AZAVOO_clean_sbu_0, # of connection points: 4
#     Node 11, Type 0, BuildingBlock: AZAVOO_clean_sbu_0, # of connection points: 4
#     Edge 12, Type (0, 0), BuildingBlock: XUDNAN_clean_linker_2, # of connection points: 2
#     Edge 13, Type (0, 0), BuildingBlock: XUDNAN_clean_linker_2, # of connection points: 2
#     Edge 14, Type (0, 0), BuildingBlock: XUDNAN_clean_linker_2, # of connection points: 2
#     Edge 15, Type (0, 0), BuildingBlock: XUDNAN_clean_linker_2, # of connection points: 2
#     Edge 16, Type (0, 0), BuildingBlock: XUDNAN_clean_linker_2, # of connection points: 2
#     Edge 17, Type (0, 0), BuildingBlock: XUDNAN_clean_linker_2, # of connection points: 2
#     Edge 18, Type (0, 0), BuildingBlock: XUDNAN_clean_linker_2, # of connection points: 2
#     Edge 19, Type (0, 0), BuildingBlock: XUDNAN_clean_linker_2, # of connection points: 2
#     Edge 20, Type (0, 0), BuildingBlock: XUDNAN_clean_linker_2, # of connection points: 2
#     Edge 21, Type (0, 0), BuildingBlock: XUDNAN_clean_linker_2, # of connection points: 2
#     Edge 22, Type (0, 0), BuildingBlock: XUDNAN_clean_linker_2, # of connection points: 2
#     Edge 23, Type (0, 0), BuildingBlock: XUDNAN_clean_linker_2, # of connection points: 2
#     Edge 24, Type (0, 0), BuildingBlock: XUDNAN_clean_linker_2, # of connection points: 2
#     Edge 25, Type (0, 0), BuildingBlock: XUDNAN_clean_linker_2, # of connection points: 2
#     Edge 26, Type (0, 0), BuildingBlock: XUDNAN_clean_linker_2, # of connection points: 2
#     Edge 27, Type (0, 0), BuildingBlock: XUDNAN_clean_linker_2, # of connection points: 2
#     Edge 28, Type (0, 0), BuildingBlock: XUDNAN_clean_linker_2, # of connection points: 2
#     Edge 29, Type (0, 0), BuildingBlock: XUDNAN_clean_linker_2, # of connection points: 2
#     Edge 30, Type (0, 0), BuildingBlock: XUDNAN_clean_linker_2, # of connection points: 2
#     Edge 31, Type (0, 0), BuildingBlock: XUDNAN_clean_linker_2, # of connection points: 2
#     Edge 32, Type (0, 0), BuildingBlock: XUDNAN_clean_linker_2, # of connection points: 2
#     Edge 33, Type (0, 0), BuildingBlock: XUDNAN_clean_linker_2, # of connection points: 2
#     Edge 34, Type (0, 0), BuildingBlock: XUDNAN_clean_linker_2, # of connection points: 2
#     Edge 35, Type (0, 0), BuildingBlock: XUDNAN_clean_linker_2, # of connection points: 2
# Relax obj value: 0.176
# Max RMSD: 0.105
# Mean RMSD: 0.105
data_MOF--net-wji--node1-AZAVOO_clean_sbu_0--edge1-XUDNAN_clean_linker_2
_symmetry_space_group_name_H-M    P1
_symmetry_Int_Tables_number       1
_symmetry_cell_setting            triclinic
loop_
_symmetry_equiv_pos_as_xyz
'x, y, z'
_cell_length_a     58.25695
_cell_length_b     58.3088
_cell_length_c     21.789904
_cell_angle_alpha  90.037645
_cell_angle_beta   89.980388
_cell_angle_gamma 119.96739
loop_
_atom_site_label
_atom_site_type_symbol
_atom_site_fract_x
_atom_site_fract_y
_atom_site_fract_z
_atom_type_partial_charge
Mg0 Mg 0.41825 0.31491 0.35906 0.0
O1 O 0.39808 0.32753 0.43293 0.0
O2 O 0.3925 0.35946 0.39076 0.0
Mg3 Mg 0.41094 0.36892 0.29522 0.0
C4 C 0.38973 0.34406 0.43533 0.0
C5 C 0.44185 0.28284 0.41305 0.0
O6 O 0.45296 0.28915 0.35855 0.0
O7 O 0.45795 0.35179 0.37911 0.0
O8 O 0.45197 0.38366 0.33869 0.0
O9 O 0.37869 0.28595 0.31886 0.0
O10 O 0.40278 0.32795 0.2912 0.0
C11 C 0.46631 0.37608 0.36664 0.0
C12 C 0.38093 0.30573 0.28721 0.0
O13 O 0.42632 0.29116 0.42894 0.0
Mg14 Mg 0.0766 0.39588 0.5823 0.0
O15 O 0.05353 0.38322 0.67418 0.0
O16 O 0.01361 0.37866 0.65604 0.0
Mg17 Mg 0.01108 0.38856 0.55584 0.0
C18 C 0.03041 0.37778 0.69222 0.0
C19 C 0.12944 0.40005 0.59196 0.0
O20 O 0.12079 0.39223 0.53584 0.0
O21 O 0.08395 0.43811 0.59577 0.0
O22 O 0.04339 0.43115 0.57482 0.0
O23 O 0.05964 0.35349 0.55117 0.0
O24 O 0.04121 0.37802 0.53462 0.0
C25 C 0.06767 0.44659 0.5887 0.0
C26 C 0.04006 0.35551 0.52961 0.0
O27 O 0.11534 0.40502 0.62811 0.0
Mg28 Mg 0.6963 0.10122 0.68334 0.0
O29 O 0.68029 0.06587 0.74998 0.0
O30 O 0.65034 0.02988 0.69939 0.0
Mg31 Mg 0.64482 0.04296 0.60429 0.0
C32 C 0.66377 0.04103 0.74761 0.0
C33 C 0.72535 0.15405 0.74751 0.0
O34 O 0.71952 0.15958 0.69327 0.0
O35 O 0.65905 0.10385 0.69896 0.0
O36 O 0.62847 0.06734 0.65085 0.0
O37 O 0.7256 0.09049 0.64556 0.0
O38 O 0.68538 0.07654 0.60836 0.0
C39 C 0.63515 0.08824 0.68241 0.0
C40 C 0.70726 0.07623 0.60632 0.0
O41 O 0.71776 0.13007 0.76054 0.0
Mg42 Mg 0.58544 0.67357 0.90735 0.0
O43 O 0.59926 0.66298 0.99637 0.0
O44 O 0.60793 0.63047 0.97636 0.0
Mg45 Mg 0.59947 0.62019 0.8742 0.0
C46 C 0.60672 0.64677 0.01357 0.0
C47 C 0.58029 0.72115 0.95565 0.0
O48 O 0.59896 0.73352 0.91444 0.0
O49 O 0.54508 0.63598 0.9152 0.0
O50 O 0.55526 0.60496 0.89017 0.0
O51 O 0.6276 0.7028 0.87994 0.0
O52 O 0.60643 0.66027 0.85648 0.0
C53 C 0.53832 0.61187 0.90468 0.0
C54 C 0.62792 0.6828 0.85502 0.0
O55 O 0.57063 0.69643 0.96312 0.0
Mg56 Mg 0.90262 0.59529 0.05063 0.0
O57 O 0.93413 0.61413 0.12829 0.0
O58 O 0.97121 0.61675 0.09042 0.0
Mg59 Mg 0.9633 0.59757 0.99603 0.0
C60 C 0.95864 0.6209 0.13298 0.0
C61 C 0.8537 0.59642 0.08203 0.0
O62 O 0.85878 0.60262 0.0237 0.0
O63 O 0.89624 0.55436 0.07583 0.0
O64 O 0.93399 0.55798 0.0405 0.0
O65 O 0.91701 0.63514 0.0068 0.0
O66 O 0.93271 0.60844 0.98641 0.0
C67 C 0.91149 0.54479 0.06682 0.0
C68 C 0.9342 0.63102 0.97892 0.0
O69 O 0.86903 0.59089 0.11202 0.0
Mg70 Mg 0.32118 0.9107 0.20909 0.0
O71 O 0.33185 0.93792 0.29296 0.0
O72 O 0.36421 0.97846 0.26833 0.0
Mg73 Mg 0.37481 0.97676 0.16765 0.0
C74 C 0.34791 0.962 0.30719 0.0
C75 C 0.27169 0.86507 0.27111 0.0
O76 O 0.26094 0.87607 0.23808 0.0
O77 O 0.35858 0.90785 0.22376 0.0
O78 O 0.38981 0.94861 0.1958 0.0
O79 O 0.29306 0.92395 0.17512 0.0
O80 O 0.33542 0.94258 0.15009 0.0
C81 C 0.38284 0.92527 0.21473 0.0
C82 C 0.31324 0.94212 0.1457 0.0
O83 O 0.29667 0.87489 0.26981 0.0
Mg84 Mg 0.69103 0.58702 0.47654 0.0
O85 O 0.67063 0.60426 0.41736 0.0
O86 O 0.6404 0.60825 0.47203 0.0
Mg87 Mg 0.63842 0.58887 0.56485 0.0
C88 C 0.65313 0.61121 0.42221 0.0
C89 C 0.72119 0.60132 0.35043 0.0
O90 O 0.71623 0.62092 0.35366 0.0
O91 O 0.65514 0.54583 0.46014 0.0
O92 O 0.62431 0.5497 0.51332 0.0
O93 O 0.71846 0.62731 0.51639 0.0
O94 O 0.6797 0.59819 0.55582 0.0
C95 C 0.63129 0.53651 0.47877 0.0
C96 C 0.70048 0.62125 0.558 0.0
O97 O 0.71307 0.58407 0.39288 0.0
Mg98 Mg 0.10052 0.68347 0.62165 0.0
O99 O 0.07086 0.67419 0.54344 0.0
O100 O 0.03013 0.6442 0.57346 0.0
Mg101 Mg 0.03428 0.63364 0.67289 0.0
C102 C 0.04612 0.6597 0.53279 0.0
C103 C 0.13458 0.72376 0.52198 0.0
O104 O 0.11437 0.72783 0.52524 0.0
O105 O 0.09987 0.64439 0.6045 0.0
O106 O 0.05931 0.61579 0.63939 0.0
O107 O 0.09134 0.71401 0.65926 0.0
O108 O 0.07084 0.67174 0.68597 0.0
C109 C 0.08154 0.62078 0.61643 0.0
C110 C 0.07324 0.69476 0.6912 0.0
O111 O 0.13469 0.706 0.55551 0.0
Mg112 Mg 0.42483 0.10384 0.78379 0.0
O113 O 0.40449 0.06944 0.71411 0.0
O114 O 0.39762 0.03245 0.76143 0.0
Mg115 Mg 0.41487 0.04326 0.85808 0.0
C116 C 0.39567 0.04446 0.71448 0.0
C117 C 0.4282 0.15122 0.71175 0.0
O118 O 0.41518 0.15163 0.76061 0.0
O119 O 0.46384 0.10455 0.76945 0.0
O120 O 0.45654 0.06728 0.81581 0.0
O121 O 0.38521 0.09521 0.8206 0.0
O122 O 0.40848 0.0773 0.85497 0.0
C123 C 0.47148 0.08843 0.78585 0.0
C124 C 0.38695 0.07836 0.85612 0.0
O125 O 0.43485 0.13361 0.70733 0.0
Mg126 Mg 0.30648 0.4 0.9282 0.0
O127 O 0.32013 0.383 0.85095 0.0
O128 O 0.3524 0.37554 0.88053 0.0
Mg129 Mg 0.36089 0.39017 0.98043 0.0
C130 C 0.3365 0.37506 0.83963 0.0
C131 C 0.26772 0.38912 0.8211 0.0
O132 O 0.2686 0.36706 0.8226 0.0
O133 O 0.34338 0.4407 0.91144 0.0
O134 O 0.37451 0.43194 0.94533 0.0
O135 O 0.2793 0.35909 0.96648 0.0
O136 O 0.32118 0.38504 0.99307 0.0
C137 C 0.36761 0.44777 0.92243 0.0
C138 C 0.2995 0.363 0.99909 0.0
O139 O 0.28117 0.40732 0.85968 0.0
Mg140 Mg 0.88508 0.31366 0.15424 0.0
O141 O 0.92216 0.32961 0.09344 0.0
O142 O 0.95767 0.3575 0.14822 0.0
Mg143 Mg 0.94243 0.36157 0.24236 0.0
C144 C 0.94713 0.34511 0.09847 0.0
C145 C 0.84352 0.27063 0.0697 0.0
O146 O 0.84294 0.25646 0.11716 0.0
O147 O 0.88459 0.35226 0.14149 0.0
O148 O 0.92031 0.38039 0.19583 0.0
O149 O 0.89332 0.28247 0.19111 0.0
O150 O 0.9075 0.32189 0.233 0.0
C151 C 0.90041 0.37545 0.16203 0.0
C152 C 0.90686 0.29954 0.23336 0.0
O153 O 0.85926 0.29547 0.07036 0.0
Mg154 Mg 0.59671 0.90937 0.2579 0.0
O155 O 0.61292 0.9352 0.17168 0.0
O156 O 0.62164 0.97624 0.19331 0.0
Mg157 Mg 0.61081 0.97653 0.29435 0.0
C158 C 0.62102 0.95912 0.15572 0.0
C159 C 0.56509 0.85023 0.21307 0.0
O160 O 0.55092 0.84752 0.26229 0.0
O161 O 0.55676 0.90733 0.24409 0.0
O162 O 0.56719 0.94841 0.27093 0.0
O163 O 0.6379 0.92117 0.29002 0.0
O164 O 0.61667 0.94273 0.31192 0.0
C165 C 0.55031 0.925 0.25355 0.0
C166 C 0.63798 0.94133 0.31511 0.0
O167 O 0.58436 0.8729 0.19959 0.0
H168 H 0.31422 0.37387 0.11577 0.0
H169 H 0.28504 0.31064 0.98209 0.0
H170 H 0.29546 0.28387 0.05369 0.0
H171 H 0.36825 0.37264 0.15376 0.0
H172 H 0.36872 0.37991 0.23432 0.0
H173 H 0.35241 0.3905 0.18118 0.0
H174 H 0.30866 0.36546 0.2429 0.0
H175 H 0.32499 0.35505 0.29721 0.0
H176 H 0.29504 0.33078 0.25965 0.0
H177 H 0.31786 0.26867 0.13154 0.0
H178 H 0.3493 0.26686 0.20573 0.0
H179 H 0.36328 0.34059 0.28617 0.0
C180 C 0.30892 0.35386 0.1029 0.0
C181 C 0.29855 0.34397 0.04437 0.0
C182 C 0.29245 0.31814 0.02762 0.0
C183 C 0.29837 0.30293 0.06795 0.0
C184 C 0.30989 0.31384 0.12474 0.0
C185 C 0.3146 0.33863 0.14245 0.0
C186 C 0.33043 0.34783 0.20114 0.0
C187 C 0.35648 0.37425 0.19197 0.0
C188 C 0.31378 0.34988 0.25331 0.0
C189 C 0.33551 0.32523 0.21184 0.0
C190 C 0.32302 0.3054 0.16853 0.0
C191 C 0.32718 0.2838 0.16641 0.0
C192 C 0.34503 0.2829 0.20856 0.0
C193 C 0.35877 0.30377 0.25091 0.0
C194 C 0.35322 0.32458 0.25373 0.0
H195 H 0.98866 0.34278 0.53385 0.0
H196 H 0.04167 0.32027 0.44925 0.0
H197 H 0.00707 0.2935 0.37268 0.0
H198 H 0.92315 0.28079 0.49269 0.0
H199 H 0.90822 0.3009 0.47833 0.0
H200 H 0.93323 0.31045 0.53693 0.0
H201 H 0.96059 0.35637 0.48518 0.0
H202 H 0.93603 0.34695 0.42633 0.0
H203 H 0.96997 0.35809 0.4057 0.0
H204 H 0.97112 0.27851 0.29186 0.0
H205 H 0.93841 0.27733 0.21695 0.0
H206 H 0.91113 0.31264 0.35231 0.0
C207 C 0.99266 0.33156 0.50037 0.0
C208 C 0.01773 0.33367 0.4969 0.0
C209 C 0.02232 0.31854 0.453 0.0
C210 C 0.00279 0.30336 0.40929 0.0
C211 C 0.97879 0.30331 0.41105 0.0
C212 C 0.97357 0.31675 0.45637 0.0
C213 C 0.94863 0.3177 0.44305 0.0
C214 C 0.92702 0.30148 0.49057 0.0
C215 C 0.95417 0.34647 0.43982 0.0
C216 C 0.94162 0.30448 0.38096 0.0
C217 C 0.95857 0.29541 0.3639 0.0
C218 C 0.95733 0.2849 0.30548 0.0
C219 C 0.93876 0.28429 0.26322 0.0
C220 C 0.92238 0.29481 0.27948 0.0
C221 C 0.92337 0.30426 0.33937 0.0
H222 H 0.65709 0.99398 0.30852 0.0
H223 H 0.66988 0.93498 0.39721 0.0
H224 H 0.69955 0.96852 0.47278 0.0
H225 H 0.72382 0.05496 0.34831 0.0
H226 H 0.70754 0.07395 0.36085 0.0
H227 H 0.69516 0.04826 0.30334 0.0
H228 H 0.64885 0.02635 0.3546 0.0
H229 H 0.66101 0.05158 0.41235 0.0
H230 H 0.64572 0.01728 0.43455 0.0
H231 H 0.71836 0.00513 0.5521 0.0
H232 H 0.72365 0.04008 0.62549 0.0
H233 H 0.6957 0.07336 0.4869 0.0
C234 C 0.66682 0.98839 0.34271 0.0
C235 C 0.6612 0.96206 0.34765 0.0
C236 C 0.67435 0.95529 0.39241 0.0
C237 C 0.69117 0.97422 0.4355 0.0
C238 C 0.6948 -0.00023 0.43221 0.0
C239 C 0.68326 0.00691 0.38604 0.0
C240 C 0.68606 0.03372 0.39779 0.0
C241 C 0.70424 0.05392 0.34972 0.0
C242 C 0.6588 0.0321 0.40001 0.0
C243 C 0.69913 0.03973 0.46004 0.0
C244 C 0.70497 0.0205 0.47847 0.0
C245 C 0.71456 0.02065 0.5374 0.0
C246 C 0.71753 0.0405 0.57877 0.0
C247 C 0.71025 0.05929 0.56107 0.0
C248 C 0.70173 0.05931 0.50074 0.0
H249 H 0.68576 0.60976 0.6756 0.0
H250 H 0.71765 0.67437 0.54533 0.0
H251 H 0.71126 0.70252 0.62122 0.0
H252 H 0.6355 0.61588 0.72484 0.0
H253 H 0.63652 0.60784 0.8043 0.0
H254 H 0.64964 0.59572 0.74649 0.0
H255 H 0.69496 0.61754 0.80253 0.0
H256 H 0.68186 0.62972 0.86104 0.0
H257 H 0.71158 0.65239 0.82024 0.0
H258 H 0.6918 0.71927 0.70227 0.0
H259 H 0.66179 0.72249 0.77812 0.0
H260 H 0.64554 0.64784 0.85725 0.0
C261 C 0.69232 0.63019 0.66406 0.0
C262 C 0.70226 0.64009 0.60522 0.0
C263 C 0.71033 0.66668 0.59079 0.0
C264 C 0.70679 0.68274 0.63363 0.0
C265 C 0.69586 0.67199 0.69089 0.0
C266 C 0.6893 0.64641 0.70642 0.0
C267 C 0.67493 0.63808 0.76713 0.0
C268 C 0.64754 0.61293 0.7602 0.0
C269 C 0.69185 0.63422 0.8156 0.0
C270 C 0.67251 0.66213 0.78133 0.0
C271 C 0.68521 0.68183 0.73786 0.0
C272 C 0.6825 0.70433 0.7375 0.0
C273 C 0.66551 0.70609 0.78085 0.0
C274 C 0.65132 0.68528 0.82304 0.0
C275 C 0.65602 0.66387 0.82513 0.0
H276 H 0.0679 0.68189 0.80955 0.0
H277 H 0.03911 0.71353 0.66903 0.0
H278 H 0.00324 0.70862 0.73918 0.0
H279 H 0.01009 0.63272 0.85332 0.0
H280 H 0.01687 0.63375 0.9343 0.0
H281 H 0.04366 0.64625 0.88036 0.0
H282 H 0.0665 0.69174 0.93545 0.0
H283 H 0.03981 0.67926 0.99044 0.0
H284 H 0.04841 0.70898 0.94785 0.0
H285 H 0.96554 0.69104 0.81677 0.0
H286 H 0.93079 0.66327 0.8925 0.0
H287 H 0.98579 0.64462 0.98167 0.0
C288 C 0.05469 0.68887 0.79477 0.0
C289 C 0.0562 0.69838 0.73483 0.0
C290 C 0.0384 0.70673 0.7156 0.0
C291 C 0.01804 0.70396 0.75512 0.0
C292 C 0.01635 0.69336 0.81363 0.0
C293 C 0.03465 0.68646 0.83365 0.0
C294 C 0.02689 0.67228 0.89458 0.0
C295 C 0.0242 0.64463 0.8903 0.0
C296 C 0.04657 0.68908 0.94507 0.0
C297 C 0.0004 0.67048 0.90389 0.0
C298 C 0.99479 0.68327 0.85781 0.0
C299 C 0.97005 0.68158 0.85383 0.0
C300 C 0.95045 0.66581 0.89689 0.0
C301 C 0.95573 0.65169 0.94215 0.0
C302 C 0.98123 0.65496 0.94696 0.0
H303 H 0.36483 0.02553 0.8511 0.0
H304 H 0.36012 0.08818 0.94589 0.0
H305 H 0.33062 0.05589 0.02403 0.0
H306 H 0.29586 0.96901 0.89359 0.0
H307 H 0.30885 0.94685 0.90142 0.0
H308 H 0.32278 0.97307 0.84532 0.0
H309 H 0.36936 0.99001 0.89233 0.0
H310 H 0.35571 0.96422 0.94867 0.0
H311 H 0.37451 0.9983 0.97281 0.0
H312 H 0.31085 0.01907 0.10316 0.0
H313 H 0.30292 0.9821 0.17299 0.0
H314 H 0.32148 0.94451 0.02526 0.0
C315 C 0.35674 0.03218 0.88705 0.0
C316 C 0.36447 0.05906 0.89283 0.0
C317 C 0.3539 0.06741 0.94053 0.0
C318 C 0.33719 0.04921 0.98497 0.0
C319 C 0.331 0.02282 0.97989 0.0
C320 C 0.34015 0.01432 0.9312 0.0
C321 C 0.33437 0.98626 0.94008 0.0
C322 C 0.31426 0.9677 0.89226 0.0
C323 C 0.36 0.98464 0.93844 0.0
C324 C 0.32231 0.98085 0.00341 0.0
C325 C 0.31973 0.00175 0.02526 0.0
C326 C 0.31197 0.00227 0.08579 0.0
C327 C 0.30747 0.98127 0.12511 0.0
C328 C 0.31119 0.96052 0.10353 0.0
C329 C 0.31791 0.95999 0.04186 0.0
H330 H 0.57959 0.52064 0.45859 0.0
H331 H 0.63599 0.49272 0.45366 0.0
H332 H 0.59965 0.44774 0.42606 0.0
H333 H 0.52518 0.46319 0.52244 0.0
H334 H 0.50075 0.46539 0.47601 0.0
H335 H 0.53116 0.49495 0.49555 0.0
H336 H 0.54095 0.50671 0.38018 0.0
H337 H 0.51046 0.47728 0.36028 0.0
H338 H 0.54136 0.48287 0.32813 0.0
H339 H 0.5558 0.40504 0.40492 0.0
H340 H 0.50988 0.37003 0.38036 0.0
H341 H 0.48396 0.42785 0.39319 0.0
C342 C 0.58433 0.50506 0.45177 0.0
C343 C 0.61047 0.50997 0.45885 0.0
C344 C 0.61602 0.48926 0.44844 0.0
C345 C 0.59551 0.4637 0.43307 0.0
C346 C 0.5698 0.45947 0.42731 0.0
C347 C 0.56433 0.47977 0.43539 0.0
C348 C 0.53538 0.47058 0.42473 0.0
C349 C 0.52236 0.47371 0.48316 0.0
C350 C 0.53184 0.48522 0.37007 0.0
C351 C 0.5252 0.44178 0.40997 0.0
C352 C 0.54519 0.43556 0.41232 0.0
C353 C 0.54009 0.40979 0.40234 0.0
C354 C 0.51398 0.39004 0.38875 0.0
C355 C 0.49348 0.39633 0.38437 0.0
C356 C 0.49929 0.42253 0.39543 0.0
H357 H 0.0365 0.46847 0.60457 0.0
H358 H 0.11885 0.48925 0.58652 0.0
H359 H 0.13215 0.5369 0.5889 0.0
H360 H 0.03928 0.51874 0.50887 0.0
H361 H 0.01676 0.524 0.55549 0.0
H362 H 0.01429 0.49198 0.55395 0.0
H363 H 0.01912 0.49299 0.67243 0.0
H364 H 0.02129 0.52487 0.67442 0.0
H365 H 0.04716 0.52066 0.70832 0.0
H366 H 0.1355 0.58286 0.58963 0.0
H367 H 0.12889 0.62166 0.59687 0.0
H368 H 0.04413 0.56858 0.61428 0.0
C369 C 0.0574 0.48294 0.60127 0.0
C370 C 0.07664 0.47513 0.59504 0.0
C371 C 0.10377 0.4948 0.59152 0.0
C372 C 0.11146 0.52187 0.5925 0.0
C373 C 0.09177 0.52879 0.59741 0.0
C374 C 0.06533 0.50974 0.60236 0.0
C375 C 0.04778 0.52183 0.60761 0.0
C376 C 0.0284 0.51365 0.55323 0.0
C377 C 0.03298 0.51467 0.66937 0.0
C378 C 0.06839 0.55079 0.60466 0.0
C379 C 0.09368 0.55462 0.59848 0.0
C380 C 0.11576 0.58 0.59467 0.0
C381 C 0.11182 0.60191 0.59849 0.0
C382 C 0.08601 0.59818 0.60639 0.0
C383 C 0.06415 0.57222 0.60864 0.0
H384 H 0.4882 0.05292 0.7664 0.0
H385 H 0.51563 0.13711 0.76907 0.0
H386 H 0.56118 0.14662 0.74575 0.0
H387 H 0.54558 0.05556 0.8337 0.0
H388 H 0.54441 0.03001 0.78493 0.0
H389 H 0.51432 0.03005 0.80368 0.0
H390 H 0.50404 0.02999 0.68789 0.0
H391 H 0.53403 0.02984 0.66879 0.0
H392 H 0.52835 0.05537 0.63873 0.0
H393 H 0.6042 0.1466 0.72636 0.0
H394 H 0.64006 0.13701 0.70118 0.0
H395 H 0.58317 0.05286 0.7042 0.0
C396 C 0.50382 0.07337 0.76233 0.0
C397 C 0.49852 0.09431 0.77004 0.0
C398 C 0.51934 0.12079 0.76329 0.0
C399 C 0.54524 0.12637 0.75035 0.0
C400 C 0.54982 0.10521 0.7434 0.0
C401 C 0.52958 0.07924 0.74828 0.0
C402 C 0.53936 0.06003 0.73613 0.0
C403 C 0.5357 0.04291 0.79301 0.0
C404 C 0.52563 0.0428 0.67951 0.0
C405 C 0.56832 0.07923 0.72389 0.0
C406 C 0.57412 0.1052 0.72912 0.0
C407 C 0.59983 0.12634 0.72161 0.0
C408 C 0.62006 0.12073 0.70758 0.0
C409 C 0.61427 0.09424 0.7002 0.0
C410 C 0.58808 0.07332 0.70876 0.0
H411 H 0.51798 0.55852 0.89714 0.0
H412 H 0.4945 0.61806 0.91707 0.0
H413 H 0.44733 0.58268 0.91642 0.0
H414 H 0.46547 0.51512 0.79585 0.0
H415 H 0.4622 0.48559 0.83063 0.0
H416 H 0.49379 0.51572 0.83094 0.0
H417 H 0.49606 0.51336 0.94953 0.0
H418 H 0.46465 0.48311 0.9495 0.0
H419 H 0.46909 0.51077 0.99535 0.0
H420 H 0.40211 0.53957 0.91422 0.0
H421 H 0.36435 0.49345 0.91936 0.0
H422 H 0.41926 0.46404 0.90097 0.0
C423 C 0.50303 0.5643 0.90121 0.0
C424 C 0.50999 0.59111 0.90695 0.0
C425 C 0.48966 0.59762 0.91268 0.0
C426 C 0.46281 0.57768 0.91201 0.0
C427 C 0.45672 0.55142 0.90559 0.0
C428 C 0.47637 0.54481 0.90072 0.0
C429 C 0.46504 0.51527 0.89656 0.0
C430 C 0.47204 0.50748 0.83482 0.0
C431 C 0.47425 0.50504 0.95098 0.0
C432 C 0.43587 0.50611 0.90054 0.0
C433 C 0.43124 0.5271 0.90505 0.0
C434 C 0.40556 0.52303 0.91055 0.0
C435 C 0.38424 0.49682 0.91307 0.0
C436 C 0.38892 0.47522 0.9108 0.0
C437 C 0.41503 0.48012 0.90313 0.0
H438 H 0.93731 0.42784 0.15682 0.0
H439 H 0.85332 0.37298 0.13246 0.0
H440 H 0.84612 0.41068 0.1111 0.0
H441 H 0.93217 0.48041 0.22914 0.0
H442 H 0.96058 0.50615 0.18974 0.0
H443 H 0.9587 0.47493 0.2054 0.0
H444 H 0.96507 0.46919 0.08971 0.0
H445 H 0.9672 0.50047 0.07379 0.0
H446 H 0.94306 0.47104 0.03436 0.0
H447 H 0.84849 0.45535 0.09481 0.0
H448 H 0.86098 0.50195 0.07305 0.0
H449 H 0.94358 0.52603 0.10307 0.0
C450 C 0.91735 0.42372 0.14734 0.0
C451 C 0.89582 0.39754 0.14685 0.0
C452 C 0.87009 0.39293 0.13306 0.0
C453 C 0.8658 0.41421 0.12126 0.0
C454 C 0.88751 0.43986 0.1227 0.0
C455 C 0.91282 0.44457 0.13455 0.0
C456 C 0.93308 0.47368 0.13029 0.0
C457 C 0.94694 0.48441 0.19234 0.0
C458 C 0.95328 0.47889 0.07898 0.0
C459 C 0.91529 0.48473 0.11418 0.0
C460 C 0.88901 0.46508 0.11084 0.0
C461 C 0.86903 0.47085 0.09707 0.0
C462 C 0.87625 0.49734 0.08513 0.0
C463 C 0.90322 0.51747 0.08607 0.0
C464 C 0.92281 0.511 0.10156 0.0
H465 H 0.43515 0.95971 0.23403 0.0
H466 H 0.3783 0.87586 0.21742 0.0
H467 H 0.41493 0.86591 0.22555 0.0
H468 H 0.48596 0.9605 0.14525 0.0
H469 H 0.5124 0.98437 0.19299 0.0
H470 H 0.48159 0.98442 0.18844 0.0
H471 H 0.47654 0.97984 0.30677 0.0
H472 H 0.50749 0.98004 0.31177 0.0
H473 H 0.47789 0.95304 0.34451 0.0
H474 H 0.45914 0.86602 0.22973 0.0
H475 H 0.50568 0.87588 0.23744 0.0
H476 H 0.53181 0.95965 0.25261 0.0
C477 C 0.43029 0.93919 0.23239 0.0
C478 C 0.40391 0.91856 0.22475 0.0
C479 C 0.3984 0.89198 0.22347 0.0
C480 C 0.41908 0.88617 0.22778 0.0
C481 C 0.44499 0.90715 0.23404 0.0
C482 C 0.45049 0.93309 0.23713 0.0
C483 C 0.47979 0.95221 0.24398 0.0
C484 C 0.49055 0.9715 0.1894 0.0
C485 C 0.48577 0.96715 0.30541 0.0
C486 C 0.49012 0.93309 0.2433 0.0
C487 C 0.4699 0.90717 0.23748 0.0
C488 C 0.47507 0.88625 0.23474 0.0
C489 C 0.50156 0.89204 0.23886 0.0
C490 C 0.52243 0.91853 0.24588 0.0
C491 C 0.51641 0.93916 0.2477 0.0
H492 H 0.36935 0.35751 0.79357 0.0
H493 H 0.30762 0.37474 0.74046 0.0
H494 H 0.31242 0.36519 0.63305 0.0
H495 H 0.41064 0.38746 0.66662 0.0
H496 H 0.42094 0.36318 0.65783 0.0
H497 H 0.41114 0.36883 0.73209 0.0
H498 H 0.37604 0.31905 0.74053 0.0
H499 H 0.38582 0.31322 0.66629 0.0
H500 H 0.3517 0.30358 0.68063 0.0
H501 H 0.32687 0.35887 0.53081 0.0
H502 H 0.34872 0.35356 0.4393 0.0
H503 H 0.40003 0.33848 0.55616 0.0
C504 C 0.35651 0.35882 0.75954 0.0
C505 C 0.33801 0.36681 0.77592 0.0
C506 C 0.32181 0.36852 0.72961 0.0
C507 C 0.32439 0.36314 0.66821 0.0
C508 C 0.34308 0.35582 0.65354 0.0
C509 C 0.35871 0.35336 0.69774 0.0
C510 C 0.37809 0.34629 0.66877 0.0
C511 C 0.40691 0.36772 0.68212 0.0
C512 C 0.37257 0.3189 0.69034 0.0
C513 C 0.37134 0.34589 0.60137 0.0
C514 C 0.35103 0.35141 0.59385 0.0
C515 C 0.34247 0.35407 0.53603 0.0
C516 C 0.35508 0.35115 0.48438 0.0
C517 C 0.37585 0.34539 0.49077 0.0
C518 C 0.38383 0.34236 0.55007 0.0
H519 H 0.93218 0.33564 0.97767 0.0
H520 H 0.0009 0.36483 0.09661 0.0
H521 H 0.02953 0.37339 0.00577 0.0
H522 H 0.9532 0.30437 0.8628 0.0
H523 H 0.94009 0.31436 0.79987 0.0
H524 H 0.92486 0.30854 0.87451 0.0
H525 H 0.93102 0.35575 0.87408 0.0
H526 H 0.94622 0.36169 0.79952 0.0
H527 H 0.96361 0.38386 0.86213 0.0
H528 H 0.05086 0.37999 0.90081 0.0
H529 H 0.06331 0.38685 0.79098 0.0
H530 H 0.98062 0.35481 0.74189 0.0
C531 C 0.9532 0.34347 0.98478 0.0
C532 C 0.96426 0.34937 0.04436 0.0
C533 C 0.99196 0.36012 0.05144 0.0
C534 C 0.00837 0.36494 0.00013 0.0
C535 C 0.99682 0.35908 0.942 0.0
C536 C 0.96987 0.34871 0.93413 0.0
C537 C 0.96256 0.34575 0.86679 0.0
C538 C 0.94409 0.31651 0.85002 0.0
C539 C 0.95013 0.36278 0.84965 0.0
C540 C 0.98963 0.35634 0.83791 0.0
C541 C 0.00912 0.3636 0.88192 0.0
C542 C 0.03573 0.3743 0.86597 0.0
C543 C 0.04261 0.37805 0.80345 0.0
C544 C 0.02298 0.37145 0.75773 0.0
C545 C 0.99615 0.36015 0.77558 0.0
H546 H 0.64454 0.00917 0.10585 0.0
H547 H 0.61487 0.92669 0.05844 0.0
H548 H 0.62514 0.93914 0.94961 0.0
H549 H 0.61904 0.02547 0.97701 0.0
H550 H 0.64718 0.05822 0.96757 0.0
H551 H 0.63911 0.04313 0.04235 0.0
H552 H 0.68644 0.04993 0.05233 0.0
H553 H 0.69468 0.0651 0.97752 0.0
H554 H 0.69879 0.03704 0.99372 0.0
H555 H 0.63494 0.95988 0.84514 0.0
H556 H 0.64558 0.98787 0.75267 0.0
H557 H 0.6706 0.05709 0.86793 0.0
C558 C 0.64045 0.99373 0.07275 0.0
C559 C 0.62886 0.96692 0.09091 0.0
C560 C 0.62381 0.94737 0.04591 0.0
C561 C 0.62957 0.95424 0.98387 0.0
C562 C 0.64065 0.98077 0.96752 0.0
C563 C 0.64628 0.00026 0.01067 0.0
C564 C 0.65752 0.02721 0.9807 0.0
C565 C 0.63964 0.0392 0.99262 0.0
C566 C 0.68605 0.04592 0.00236 0.0
C567 C 0.65683 0.01975 0.91384 0.0
C568 C 0.64702 0.99285 0.90727 0.0
C569 C 0.643 0.98102 0.84973 0.0
C570 C 0.64902 0.99705 0.7975 0.0
C571 C 0.65915 0.02467 0.80312 0.0
C572 C 0.66336 0.03613 0.86219 0.0
H573 H 0.63335 0.62352 0.06411 0.0
H574 H 0.59537 0.66902 0.11145 0.0
H575 H 0.60482 0.66662 0.22097 0.0
H576 H 0.61007 0.57981 0.19093 0.0
H577 H 0.64033 0.57895 0.20114 0.0
H578 H 0.63153 0.58517 0.12632 0.0
H579 H 0.67655 0.62889 0.1192 0.0
H580 H 0.68544 0.62269 0.19401 0.0
H581 H 0.68591 0.65332 0.17907 0.0
H582 H 0.61554 0.65641 0.32617 0.0
H583 H 0.6288 0.64112 0.41835 0.0
H584 H 0.66156 0.60416 0.30171 0.0
C585 C 0.62713 0.63312 0.09741 0.0
C586 C 0.61353 0.6464 0.07906 0.0
C587 C 0.60588 0.6588 0.12423 0.0
C588 C 0.61113 0.65752 0.18662 0.0
C589 C 0.62436 0.64407 0.20312 0.0
C590 C 0.6325 0.63233 0.15976 0.0
C591 C 0.64612 0.61883 0.1896 0.0
C592 C 0.63111 0.58892 0.1762 0.0
C593 C 0.67524 0.63172 0.16925 0.0
C594 C 0.64395 0.62442 0.25659 0.0
C595 C 0.63129 0.63896 0.26349 0.0
C596 C 0.62578 0.64531 0.32129 0.0
C597 C 0.63332 0.63649 0.37337 0.0
C598 C 0.64643 0.62167 0.3673 0.0
C599 C 0.65198 0.61584 0.30797 0.0
H600 H 0.99529 0.62928 0.48742 0.0
H601 H 0.07424 0.69164 0.43674 0.0
H602 H 0.0587 0.69138 0.33172 0.0
H603 H 0.98174 0.59299 0.35086 0.0
H604 H 0.94722 0.58357 0.34705 0.0
H605 H 0.96367 0.59032 0.4202 0.0
H606 H 0.94994 0.62542 0.44314 0.0
H607 H 0.93346 0.6188 0.36987 0.0
H608 H 0.95857 0.65205 0.38954 0.0
H609 H 0.0365 0.68143 0.23041 0.0
H610 H 0.00847 0.6626 0.13854 0.0
H611 H 0.94312 0.60776 0.25317 0.0
C612 C 0.00922 0.64319 0.45455 0.0
C613 C 0.03603 0.66052 0.47069 0.0
C614 C 0.05362 0.67818 0.42587 0.0
C615 C 0.04497 0.67827 0.36597 0.0
C616 C 0.01859 0.66074 0.35144 0.0
C617 C 0.00088 0.64361 0.39436 0.0
C618 C 0.97397 0.62573 0.3655 0.0
C619 C 0.96621 0.59642 0.37124 0.0
C620 C 0.95273 0.63081 0.3937 0.0
C621 C 0.97959 0.63502 0.29933 0.0
C622 C 0.00544 0.65536 0.29253 0.0
C623 C 0.01609 0.66587 0.23526 0.0
C624 C 5e-05 0.65504 0.1834 0.0
C625 C 0.9736 0.63408 0.18908 0.0
C626 C 0.96307 0.62428 0.2479 0.0
H627 H 0.37774 0.01214 0.35586 0.0
H628 H 0.32025 0.93115 0.40525 0.0
H629 H 0.32424 0.94429 0.51387 0.0
H630 H 0.41992 0.02557 0.48227 0.0
H631 H 0.42749 0.05933 0.49235 0.0
H632 H 0.41868 0.04421 0.41762 0.0
H633 H 0.38073 0.05508 0.41049 0.0
H634 H 0.38951 0.07035 0.48521 0.0
H635 H 0.35617 0.0441 0.47046 0.0
H636 H 0.33755 0.96492 0.61762 0.0
H637 H 0.35758 0.99243 0.70971 0.0
H638 H 0.40515 0.06056 0.59394 0.0
C639 C 0.36569 0.99722 0.38933 0.0
C640 C 0.34867 0.97057 0.37173 0.0
C641 C 0.33337 0.95169 0.41727 0.0
C642 C 0.33549 0.95896 0.47922 0.0
C643 C 0.35277 0.98524 0.49504 0.0
C644 C 0.3674 0.00417 0.45145 0.0
C645 C 0.38519 0.03087 0.4811 0.0
C646 C 0.41455 0.04055 0.46753 0.0
C647 C 0.37743 0.0513 0.46059 0.0
C648 C 0.37872 0.0238 0.54826 0.0
C649 C 0.35995 0.99737 0.55517 0.0
C650 C 0.35197 0.98573 0.61281 0.0
C651 C 0.36355 0.00149 0.66481 0.0
C652 C 0.38277 0.02865 0.65893 0.0
C653 C 0.39017 0.03997 0.5998 0.0
H654 H 0.42094 0.26529 0.52753 0.0
H655 H 0.471 0.25884 0.38886 0.0
H656 H 0.47457 0.22578 0.45257 0.0
H657 H 0.45487 0.25769 0.66083 0.0
H658 H 0.42446 0.23867 0.70297 0.0
H659 H 0.42738 0.26315 0.64827 0.0
H660 H 0.38557 0.22748 0.59171 0.0
H661 H 0.38259 0.20287 0.64591 0.0
H662 H 0.38459 0.19773 0.56495 0.0
H663 H 0.4701 0.19125 0.52768 0.0
H664 H 0.45922 0.15873 0.61092 0.0
H665 H 0.41248 0.18818 0.70086 0.0
C666 C 0.43294 0.2572 0.51084 0.0
C667 C 0.44569 0.26464 0.4532 0.0
C668 C 0.46109 0.25347 0.43293 0.0
C669 C 0.46325 0.23469 0.46877 0.0
C670 C 0.45003 0.22745 0.52485 0.0
C671 C 0.43536 0.2385 0.54603 0.0
C672 C 0.42236 0.22666 0.60695 0.0
C673 C 0.43291 0.24781 0.65776 0.0
C674 C 0.39198 0.21286 0.60204 0.0
C675 C 0.43162 0.20685 0.61616 0.0
C676 C 0.44764 0.20769 0.56842 0.0
C677 C 0.45779 0.19058 0.56564 0.0
C678 C 0.45142 0.17213 0.61303 0.0
C679 C 0.43507 0.17097 0.66247 0.0
C680 C 0.42519 0.18869 0.66396 0.0
H681 H 0.23804 0.41329 0.83537 0.0
H682 H 0.25939 0.37124 0.70388 0.0
H683 H 0.22939 0.3737 0.62744 0.0
H684 H 0.17021 0.37922 0.79942 0.0
H685 H 0.16527 0.40713 0.80977 0.0
H686 H 0.19114 0.40556 0.85131 0.0
H687 H 0.22579 0.45119 0.80722 0.0
H688 H 0.19998 0.45293 0.76555 0.0
H689 H 0.22846 0.45612 0.72528 0.0
H690 H 0.19581 0.37848 0.56773 0.0
H691 H 0.15787 0.38196 0.53017 0.0
H692 H 0.15556 0.41834 0.70238 0.0
C693 C 0.23677 0.40518 0.78996 0.0
C694 C 0.25118 0.39238 0.77489 0.0
C695 C 0.24854 0.38121 0.7159 0.0
C696 C 0.23169 0.38264 0.67221 0.0
C697 C 0.2174 0.39501 0.68863 0.0
C698 C 0.21954 0.4059 0.74618 0.0
C699 C 0.19993 0.41562 0.75394 0.0
C700 C 0.18049 0.401 0.80672 0.0
C701 C 0.21441 0.44576 0.76355 0.0
C702 C 0.18614 0.40803 0.69218 0.0
C703 C 0.19694 0.39666 0.65491 0.0
C704 C 0.18725 0.38746 0.5963 0.0
C705 C 0.16566 0.38954 0.57542 0.0
C706 C 0.15369 0.40038 0.61337 0.0
C707 C 0.16432 0.41001 0.67228 0.0
H708 H 0.81093 0.21755 0.04976 0.0
H709 H 0.83678 0.29476 0.96903 0.0
H710 H 0.80774 0.27326 0.87979 0.0
H711 H 0.80897 0.18478 0.91036 0.0
H712 H 0.78004 0.154 0.93132 0.0
H713 H 0.80196 0.17553 0.99002 0.0
H714 H 0.76253 0.17645 0.04274 0.0
H715 H 0.74048 0.15495 0.98408 0.0
H716 H 0.74263 0.18636 0.99919 0.0
H717 H 0.77663 0.24343 0.79875 0.0
H718 H 0.74677 0.20727 0.72949 0.0
H719 H 0.7417 0.14954 0.86278 0.0
C720 C 0.81039 0.22997 0.01353 0.0
C721 C 0.82605 0.25784 0.01643 0.0
C722 C 0.82493 0.27336 0.9678 0.0
C723 C 0.80845 0.26135 0.91702 0.0
C724 C 0.79329 0.23383 0.91562 0.0
C725 C 0.79416 0.21833 0.96246 0.0
C726 C 0.77655 0.18915 0.94881 0.0
C727 C 0.79286 0.17504 0.94488 0.0
C728 C 0.75423 0.17596 0.99655 0.0
C729 C 0.76581 0.19067 0.88667 0.0
C730 C 0.77556 0.21662 0.86857 0.0
C731 C 0.7688 0.22302 0.81246 0.0
C732 C 0.75182 0.20233 0.77348 0.0
C733 C 0.74192 0.17558 0.7907 0.0
C734 C 0.74888 0.16978 0.84834 0.0
H735 H 0.59152 0.84979 0.10984 0.0
H736 H 0.52807 0.79806 0.23324 0.0
H737 H 0.52281 0.75914 0.17578 0.0
H738 H 0.56352 0.81027 0.96999 0.0
H739 H 0.59561 0.81757 0.9421 0.0
H740 H 0.59255 0.84125 0.98948 0.0
H741 H 0.62693 0.84159 0.06549 0.0
H742 H 0.63001 0.81786 0.01863 0.0
H743 H 0.62125 0.81084 0.09851 0.0
H744 H 0.52717 0.72591 0.11016 0.0
H745 H 0.54022 0.70096 0.04055 0.0
H746 H 0.6007 0.77481 0.96041 0.0
C747 C 0.57622 0.83032 0.12435 0.0
C748 C 0.56019 0.82696 0.17604 0.0
C749 C 0.54053 0.80112 0.19367 0.0
C750 C 0.53738 0.7789 0.16129 0.0
C751 C 0.5539 0.78294 0.11126 0.0
C752 C 0.57281 0.80803 0.09265 0.0
C753 C 0.58901 0.80705 0.03949 0.0
C754 C 0.58491 0.81979 0.98185 0.0
C755 C 0.61854 0.8201 0.05659 0.0
C756 C 0.5767 0.77744 0.03196 0.0
C757 C 0.55635 0.76386 0.07343 0.0
C758 C 0.54286 0.73633 0.07702 0.0
C759 C 0.55047 0.72235 0.0374 0.0
C760 C 0.57143 0.73594 0.9949 0.0
C761 C 0.58445 0.76383 0.99195 0.0
H762 H 0.75293 0.57905 0.35131 0.0
H763 H 0.72677 0.62229 0.23614 0.0
H764 H 0.75601 0.62324 0.15285 0.0
H765 H 0.82027 0.61564 0.30744 0.0
H766 H 0.82588 0.58792 0.30956 0.0
H767 H 0.80092 0.58812 0.35792 0.0
H768 H 0.76555 0.54324 0.31181 0.0
H769 H 0.79044 0.54284 0.26343 0.0
H770 H 0.76086 0.54 0.22982 0.0
H771 H 0.78882 0.62084 0.08395 0.0
H772 H 0.82499 0.61739 0.03467 0.0
H773 H 0.83204 0.57784 0.19642 0.0
C774 C 0.75303 0.58827 0.30812 0.0
C775 C 0.73742 0.60035 0.29969 0.0
C776 C 0.73852 0.61284 0.24325 0.0
C777 C 0.75499 0.61341 0.19571 0.0
C778 C 0.77041 0.60165 0.20573 0.0
C779 C 0.76973 0.58944 0.26057 0.0
C780 C 0.78973 0.58002 0.26092 0.0
C781 C 0.81042 0.59375 0.31198 0.0
C782 C 0.77581 0.54972 0.26684 0.0
C783 C 0.80193 0.58907 0.19791 0.0
C784 C 0.79021 0.60117 0.16665 0.0
C785 C 0.79813 0.61136 0.10786 0.0
C786 C 0.8187 0.60928 0.08028 0.0
C787 C 0.83138 0.59738 0.11174 0.0
C788 C 0.82277 0.58708 0.17131 0.0
H789 H 0.13875 0.76058 0.43836 0.0
H790 H 0.18282 0.72621 0.51912 0.0
H791 H 0.22252 0.75762 0.46052 0.0
H792 H 0.16968 0.77298 0.2866 0.0
H793 H 0.16946 0.80359 0.27716 0.0
H794 H 0.14421 0.77727 0.32263 0.0
H795 H 0.1563 0.80941 0.41484 0.0
H796 H 0.18168 0.83574 0.36986 0.0
H797 H 0.18999 0.82683 0.44231 0.0
H798 H 0.25824 0.79501 0.39888 0.0
H799 H 0.28665 0.83408 0.33485 0.0
H800 H 0.21866 0.84309 0.29357 0.0
C801 C 0.15665 0.75944 0.44328 0.0
C802 C 0.15772 0.741 0.48339 0.0
C803 C 0.18153 0.74015 0.48851 0.0
C804 C 0.20419 0.75792 0.45548 0.0
C805 C 0.20258 0.77619 0.41718 0.0
C806 C 0.17934 0.77688 0.41046 0.0
C807 C 0.18296 0.79882 0.36757 0.0
C808 C 0.16555 0.78748 0.31008 0.0
C809 C 0.17741 0.81888 0.40065 0.0
C810 C 0.21202 0.81075 0.35222 0.0
C811 C 0.223 0.7974 0.3811 0.0
C812 C 0.24981 0.80545 0.37551 0.0
C813 C 0.26579 0.82771 0.33925 0.0
C814 C 0.25485 0.84157 0.30906 0.0
C815 C 0.22759 0.83282 0.31565 0.0
loop_
_geom_bond_atom_site_label_1
_geom_bond_atom_site_label_2
_geom_bond_distance
_geom_bond_site_symmetry_2
_ccdc_geom_bond_type
Mg0 O1 2.028 . S
Mg0 O7 1.986 . S
Mg0 O9 2.114 . S
Mg0 O10 2.251 . S
Mg0 O13 2.010 . S
O1 Mg0 2.028 . S
O1 C4 1.250 . S
O2 Mg3 2.028 . S
O2 C4 1.248 . S
Mg3 O2 2.028 . S
Mg3 O8 2.032 . S
Mg3 O10 2.079 . S
C4 O1 1.250 . S
C4 O2 1.248 . S
C5 O6 1.264 . S
C5 O13 1.249 . S
O6 C5 1.264 . S
O7 Mg0 1.986 . S
O7 C11 1.246 . S
O8 Mg3 2.032 . S
O8 C11 1.259 . S
O9 Mg0 2.114 . S
O9 C12 1.252 . S
O10 Mg0 2.251 . S
O10 Mg3 2.079 . S
O10 C12 1.273 . S
C11 O7 1.246 . S
C11 O8 1.259 . S
C12 O9 1.252 . S
C12 O10 1.273 . S
O13 Mg0 2.010 . S
O13 C5 1.249 . S
Mg14 O15 2.028 . S
Mg14 O21 1.986 . S
Mg14 O23 2.114 . S
Mg14 O24 2.251 . S
Mg14 O27 2.010 . S
O15 Mg14 2.028 . S
O15 C18 1.250 . S
O16 Mg17 2.028 . S
O16 C18 1.248 . S
Mg17 O16 2.028 . S
Mg17 O22 2.032 . S
Mg17 O24 2.079 . S
C18 O15 1.250 . S
C18 O16 1.248 . S
C19 O20 1.264 . S
C19 O27 1.249 . S
O20 C19 1.264 . S
O21 Mg14 1.986 . S
O21 C25 1.246 . S
O22 Mg17 2.032 . S
O22 C25 1.259 . S
O23 Mg14 2.114 . S
O23 C26 1.252 . S
O24 Mg14 2.251 . S
O24 Mg17 2.079 . S
O24 C26 1.273 . S
C25 O21 1.246 . S
C25 O22 1.259 . S
C26 O23 1.252 . S
C26 O24 1.273 . S
O27 Mg14 2.010 . S
O27 C19 1.249 . S
Mg28 O29 2.028 . S
Mg28 O35 1.986 . S
Mg28 O37 2.114 . S
Mg28 O38 2.251 . S
Mg28 O41 2.010 . S
O29 Mg28 2.028 . S
O29 C32 1.250 . S
O30 Mg31 2.028 . S
O30 C32 1.248 . S
Mg31 O30 2.028 . S
Mg31 O36 2.032 . S
Mg31 O38 2.079 . S
C32 O29 1.250 . S
C32 O30 1.248 . S
C33 O34 1.264 . S
C33 O41 1.249 . S
O34 C33 1.264 . S
O35 Mg28 1.986 . S
O35 C39 1.246 . S
O36 Mg31 2.032 . S
O36 C39 1.259 . S
O37 Mg28 2.114 . S
O37 C40 1.252 . S
O38 Mg28 2.251 . S
O38 Mg31 2.079 . S
O38 C40 1.273 . S
C39 O35 1.246 . S
C39 O36 1.259 . S
C40 O37 1.252 . S
C40 O38 1.273 . S
O41 Mg28 2.010 . S
O41 C33 1.249 . S
Mg42 O43 2.028 . S
Mg42 O49 1.986 . S
Mg42 O51 2.114 . S
Mg42 O52 2.251 . S
Mg42 O55 2.010 . S
O43 Mg42 2.028 . S
O43 C46 1.250 1_556 S
O44 Mg45 2.028 . S
O44 C46 1.248 1_556 S
Mg45 O44 2.028 . S
Mg45 O50 2.032 . S
Mg45 O52 2.079 . S
C46 O43 1.250 1_554 S
C46 O44 1.248 1_554 S
C47 O48 1.264 . S
C47 O55 1.249 . S
O48 C47 1.264 . S
O49 Mg42 1.986 . S
O49 C53 1.246 . S
O50 Mg45 2.032 . S
O50 C53 1.259 . S
O51 Mg42 2.114 . S
O51 C54 1.252 . S
O52 Mg42 2.251 . S
O52 Mg45 2.079 . S
O52 C54 1.273 . S
C53 O49 1.246 . S
C53 O50 1.259 . S
C54 O51 1.252 . S
C54 O52 1.273 . S
O55 Mg42 2.010 . S
O55 C47 1.249 . S
Mg56 O57 2.028 . S
Mg56 O63 1.986 . S
Mg56 O65 2.114 . S
Mg56 O66 2.251 . S
Mg56 O69 2.010 . S
O57 Mg56 2.028 . S
O57 C60 1.250 . S
O58 Mg59 2.028 . S
O58 C60 1.248 . S
Mg59 O58 2.028 . S
Mg59 O64 2.032 . S
Mg59 O66 2.079 . S
C60 O57 1.250 . S
C60 O58 1.248 . S
C61 O62 1.264 . S
C61 O69 1.249 . S
O62 C61 1.264 . S
O63 Mg56 1.986 . S
O63 C67 1.246 . S
O64 Mg59 2.032 . S
O64 C67 1.259 . S
O65 Mg56 2.114 . S
O65 C68 1.252 1_554 S
O66 Mg56 2.251 . S
O66 Mg59 2.079 . S
O66 C68 1.273 1_554 S
C67 O63 1.246 . S
C67 O64 1.259 . S
C68 O65 1.252 1_556 S
C68 O66 1.273 1_556 S
O69 Mg56 2.010 . S
O69 C61 1.249 . S
Mg70 O71 2.028 . S
Mg70 O77 1.986 . S
Mg70 O79 2.114 . S
Mg70 O80 2.251 . S
Mg70 O83 2.010 . S
O71 Mg70 2.028 . S
O71 C74 1.250 . S
O72 Mg73 2.028 . S
O72 C74 1.248 . S
Mg73 O72 2.028 . S
Mg73 O78 2.032 . S
Mg73 O80 2.079 . S
C74 O71 1.250 . S
C74 O72 1.248 . S
C75 O76 1.264 . S
C75 O83 1.249 . S
O76 C75 1.264 . S
O77 Mg70 1.986 . S
O77 C81 1.246 . S
O78 Mg73 2.032 . S
O78 C81 1.259 . S
O79 Mg70 2.114 . S
O79 C82 1.252 . S
O80 Mg70 2.251 . S
O80 Mg73 2.079 . S
O80 C82 1.273 . S
C81 O77 1.246 . S
C81 O78 1.259 . S
C82 O79 1.252 . S
C82 O80 1.273 . S
O83 Mg70 2.010 . S
O83 C75 1.249 . S
Mg84 O85 2.028 . S
Mg84 O91 1.986 . S
Mg84 O93 2.114 . S
Mg84 O94 2.251 . S
Mg84 O97 2.010 . S
O85 Mg84 2.028 . S
O85 C88 1.250 . S
O86 Mg87 2.028 . S
O86 C88 1.248 . S
Mg87 O86 2.028 . S
Mg87 O92 2.032 . S
Mg87 O94 2.079 . S
C88 O85 1.250 . S
C88 O86 1.248 . S
C89 O90 1.264 . S
C89 O97 1.249 . S
O90 C89 1.264 . S
O91 Mg84 1.986 . S
O91 C95 1.246 . S
O92 Mg87 2.032 . S
O92 C95 1.259 . S
O93 Mg84 2.114 . S
O93 C96 1.252 . S
O94 Mg84 2.251 . S
O94 Mg87 2.079 . S
O94 C96 1.273 . S
C95 O91 1.246 . S
C95 O92 1.259 . S
C96 O93 1.252 . S
C96 O94 1.273 . S
O97 Mg84 2.010 . S
O97 C89 1.249 . S
Mg98 O99 2.028 . S
Mg98 O105 1.986 . S
Mg98 O107 2.114 . S
Mg98 O108 2.251 . S
Mg98 O111 2.010 . S
O99 Mg98 2.028 . S
O99 C102 1.250 . S
O100 Mg101 2.028 . S
O100 C102 1.248 . S
Mg101 O100 2.028 . S
Mg101 O106 2.032 . S
Mg101 O108 2.079 . S
C102 O99 1.250 . S
C102 O100 1.248 . S
C103 O104 1.264 . S
C103 O111 1.249 . S
O104 C103 1.264 . S
O105 Mg98 1.986 . S
O105 C109 1.246 . S
O106 Mg101 2.032 . S
O106 C109 1.259 . S
O107 Mg98 2.114 . S
O107 C110 1.252 . S
O108 Mg98 2.251 . S
O108 Mg101 2.079 . S
O108 C110 1.273 . S
C109 O105 1.246 . S
C109 O106 1.259 . S
C110 O107 1.252 . S
C110 O108 1.273 . S
O111 Mg98 2.010 . S
O111 C103 1.249 . S
Mg112 O113 2.028 . S
Mg112 O119 1.986 . S
Mg112 O121 2.114 . S
Mg112 O122 2.251 . S
Mg112 O125 2.010 . S
O113 Mg112 2.028 . S
O113 C116 1.250 . S
O114 Mg115 2.028 . S
O114 C116 1.248 . S
Mg115 O114 2.028 . S
Mg115 O120 2.032 . S
Mg115 O122 2.079 . S
C116 O113 1.250 . S
C116 O114 1.248 . S
C117 O118 1.264 . S
C117 O125 1.249 . S
O118 C117 1.264 . S
O119 Mg112 1.986 . S
O119 C123 1.246 . S
O120 Mg115 2.032 . S
O120 C123 1.259 . S
O121 Mg112 2.114 . S
O121 C124 1.252 . S
O122 Mg112 2.251 . S
O122 Mg115 2.079 . S
O122 C124 1.273 . S
C123 O119 1.246 . S
C123 O120 1.259 . S
C124 O121 1.252 . S
C124 O122 1.273 . S
O125 Mg112 2.010 . S
O125 C117 1.249 . S
Mg126 O127 2.028 . S
Mg126 O133 1.986 . S
Mg126 O135 2.114 . S
Mg126 O136 2.251 . S
Mg126 O139 2.010 . S
O127 Mg126 2.028 . S
O127 C130 1.250 . S
O128 Mg129 2.028 . S
O128 C130 1.248 . S
Mg129 O128 2.028 . S
Mg129 O134 2.032 . S
Mg129 O136 2.079 . S
C130 O127 1.250 . S
C130 O128 1.248 . S
C131 O132 1.264 . S
C131 O139 1.249 . S
O132 C131 1.264 . S
O133 Mg126 1.986 . S
O133 C137 1.246 . S
O134 Mg129 2.032 . S
O134 C137 1.259 . S
O135 Mg126 2.114 . S
O135 C138 1.252 1_556 S
O136 Mg126 2.251 . S
O136 Mg129 2.079 . S
O136 C138 1.273 1_556 S
C137 O133 1.246 . S
C137 O134 1.259 . S
C138 O135 1.252 1_554 S
C138 O136 1.273 1_554 S
O139 Mg126 2.010 . S
O139 C131 1.249 . S
Mg140 O141 2.028 . S
Mg140 O147 1.986 . S
Mg140 O149 2.114 . S
Mg140 O150 2.251 . S
Mg140 O153 2.010 . S
O141 Mg140 2.028 . S
O141 C144 1.250 1_554 S
O142 Mg143 2.028 . S
O142 C144 1.248 1_554 S
Mg143 O142 2.028 . S
Mg143 O148 2.032 . S
Mg143 O150 2.079 . S
C144 O141 1.250 1_556 S
C144 O142 1.248 1_556 S
C145 O146 1.264 . S
C145 O153 1.249 . S
O146 C145 1.264 . S
O147 Mg140 1.986 . S
O147 C151 1.246 . S
O148 Mg143 2.032 . S
O148 C151 1.259 . S
O149 Mg140 2.114 . S
O149 C152 1.252 . S
O150 Mg140 2.251 . S
O150 Mg143 2.079 . S
O150 C152 1.273 . S
C151 O147 1.246 . S
C151 O148 1.259 . S
C152 O149 1.252 . S
C152 O150 1.273 . S
O153 Mg140 2.010 . S
O153 C145 1.249 . S
Mg154 O155 2.028 . S
Mg154 O161 1.986 . S
Mg154 O163 2.114 . S
Mg154 O164 2.251 . S
Mg154 O167 2.010 . S
O155 Mg154 2.028 . S
O155 C158 1.250 . S
O156 Mg157 2.028 . S
O156 C158 1.248 . S
Mg157 O156 2.028 . S
Mg157 O162 2.032 . S
Mg157 O164 2.079 . S
C158 O155 1.250 . S
C158 O156 1.248 . S
C159 O160 1.264 . S
C159 O167 1.249 . S
O160 C159 1.264 . S
O161 Mg154 1.986 . S
O161 C165 1.246 . S
O162 Mg157 2.032 . S
O162 C165 1.259 . S
O163 Mg154 2.114 . S
O163 C166 1.252 . S
O164 Mg154 2.251 . S
O164 Mg157 2.079 . S
O164 C166 1.273 . S
C165 O161 1.246 . S
C165 O162 1.259 . S
C166 O163 1.252 . S
C166 O164 1.273 . S
O167 Mg154 2.010 . S
O167 C159 1.249 . S
H168 C180 0.930 . S
H169 C182 0.930 . S
H170 C183 0.930 . S
H171 C187 0.959 . S
H172 C187 0.959 . S
H173 C187 0.961 . S
H174 C188 0.960 . S
H175 C188 0.961 . S
H176 C188 0.959 . S
H177 C191 0.929 . S
H178 C192 0.931 . S
H179 C194 0.930 . S
C180 H168 0.930 . S
C180 C181 1.399 . S
C180 C185 1.399 . S
C181 C180 1.399 . S
C181 C182 1.376 . S
C182 H169 0.930 . S
C182 C181 1.376 . S
C182 C183 1.388 . S
C183 H170 0.930 . S
C183 C182 1.388 . S
C183 C184 1.390 . S
C184 C183 1.390 . S
C184 C185 1.394 . S
C184 C190 1.465 . S
C185 C180 1.399 . S
C185 C184 1.394 . S
C185 C186 1.516 . S
C186 C185 1.516 . S
C186 C187 1.502 . S
C186 C188 1.561 . S
C186 C189 1.526 . S
C187 H171 0.959 . S
C187 H172 0.959 . S
C187 H173 0.961 . S
C187 C186 1.502 . S
C188 H174 0.960 . S
C188 H175 0.961 . S
C188 H176 0.959 . S
C188 C186 1.561 . S
C189 C186 1.526 . S
C189 C190 1.396 . S
C189 C194 1.390 . S
C190 C184 1.465 . S
C190 C189 1.396 . S
C190 C191 1.399 . S
C191 H177 0.929 . S
C191 C190 1.399 . S
C191 C192 1.385 . S
C192 H178 0.931 . S
C192 C191 1.385 . S
C192 C193 1.389 . S
C193 C192 1.389 . S
C193 C194 1.387 . S
C194 H179 0.930 . S
C194 C189 1.390 . S
C194 C193 1.387 . S
H195 C207 0.930 . S
H196 C209 0.930 . S
H197 C210 0.930 . S
H198 C214 0.959 . S
H199 C214 0.959 . S
H200 C214 0.961 . S
H201 C215 0.960 . S
H202 C215 0.961 . S
H203 C215 0.959 . S
H204 C218 0.929 . S
H205 C219 0.931 . S
H206 C221 0.930 . S
C207 H195 0.930 . S
C207 C208 1.399 . S
C207 C212 1.399 . S
C208 C207 1.399 . S
C208 C209 1.376 . S
C209 H196 0.930 . S
C209 C208 1.376 . S
C209 C210 1.388 . S
C210 H197 0.930 . S
C210 C209 1.388 . S
C210 C211 1.390 . S
C211 C210 1.390 . S
C211 C212 1.394 . S
C211 C217 1.465 1_455 S
C212 C207 1.399 . S
C212 C211 1.394 . S
C212 C213 1.516 . S
C213 C212 1.516 . S
C213 C214 1.502 1_455 S
C213 C215 1.561 . S
C213 C216 1.526 1_455 S
C214 H198 0.959 . S
C214 H199 0.959 . S
C214 H200 0.961 . S
C214 C213 1.502 1_655 S
C215 H201 0.960 . S
C215 H202 0.961 . S
C215 H203 0.959 . S
C215 C213 1.561 . S
C216 C213 1.526 1_655 S
C216 C217 1.396 . S
C216 C221 1.390 . S
C217 C211 1.465 1_655 S
C217 C216 1.396 . S
C217 C218 1.399 . S
C218 H204 0.929 . S
C218 C217 1.399 . S
C218 C219 1.385 . S
C219 H205 0.931 . S
C219 C218 1.385 . S
C219 C220 1.389 . S
C220 C219 1.389 . S
C220 C221 1.387 . S
C221 H206 0.930 . S
C221 C216 1.390 . S
C221 C220 1.387 . S
H222 C234 0.930 . S
H223 C236 0.930 . S
H224 C237 0.930 . S
H225 C241 0.959 . S
H226 C241 0.959 . S
H227 C241 0.961 . S
H228 C242 0.960 . S
H229 C242 0.961 . S
H230 C242 0.959 . S
H231 C245 0.929 . S
H232 C246 0.931 . S
H233 C248 0.930 . S
C234 H222 0.930 . S
C234 C235 1.399 . S
C234 C239 1.399 . S
C235 C234 1.399 . S
C235 C236 1.376 . S
C236 H223 0.930 . S
C236 C235 1.376 . S
C236 C237 1.388 . S
C237 H224 0.930 . S
C237 C236 1.388 . S
C237 C238 1.390 . S
C238 C237 1.390 . S
C238 C239 1.394 . S
C238 C244 1.443 1_565 S
C239 C234 1.399 . S
C239 C238 1.394 . S
C239 C240 1.516 1_565 S
C240 C239 1.516 1_545 S
C240 C241 1.502 . S
C240 C242 1.561 . S
C240 C243 1.526 . S
C241 H225 0.959 . S
C241 H226 0.959 . S
C241 H227 0.961 . S
C241 C240 1.502 . S
C242 H228 0.960 . S
C242 H229 0.961 . S
C242 H230 0.959 . S
C242 C240 1.561 . S
C243 C240 1.526 . S
C243 C244 1.420 . S
C243 C248 1.390 . S
C244 C238 1.443 1_545 S
C244 C243 1.420 . S
C244 C245 1.401 1_545 S
C245 H231 0.929 . S
C245 C244 1.401 1_565 S
C245 C246 1.385 1_565 S
C246 H232 0.931 . S
C246 C245 1.385 1_545 S
C246 C247 1.389 . S
C247 C246 1.389 . S
C247 C248 1.387 . S
C248 H233 0.930 . S
C248 C243 1.390 . S
C248 C247 1.387 . S
H249 C261 0.930 . S
H250 C263 0.930 . S
H251 C264 0.930 . S
H252 C268 0.959 . S
H253 C268 0.959 . S
H254 C268 0.961 . S
H255 C269 0.960 . S
H256 C269 0.961 . S
H257 C269 0.959 . S
H258 C272 0.929 . S
H259 C273 0.931 . S
H260 C275 0.930 . S
C261 H249 0.930 . S
C261 C262 1.399 . S
C261 C266 1.399 . S
C262 C261 1.399 . S
C262 C263 1.376 . S
C263 H250 0.930 . S
C263 C262 1.376 . S
C263 C264 1.388 . S
C264 H251 0.930 . S
C264 C263 1.388 . S
C264 C265 1.390 . S
C265 C264 1.390 . S
C265 C266 1.394 . S
C265 C271 1.465 . S
C266 C261 1.399 . S
C266 C265 1.394 . S
C266 C267 1.516 . S
C267 C266 1.516 . S
C267 C268 1.502 . S
C267 C269 1.561 . S
C267 C270 1.526 . S
C268 H252 0.959 . S
C268 H253 0.959 . S
C268 H254 0.961 . S
C268 C267 1.502 . S
C269 H255 0.960 . S
C269 H256 0.961 . S
C269 H257 0.959 . S
C269 C267 1.561 . S
C270 C267 1.526 . S
C270 C271 1.396 . S
C270 C275 1.390 . S
C271 C265 1.465 . S
C271 C270 1.396 . S
C271 C272 1.399 . S
C272 H258 0.929 . S
C272 C271 1.399 . S
C272 C273 1.385 . S
C273 H259 0.931 . S
C273 C272 1.385 . S
C273 C274 1.389 . S
C274 C273 1.389 . S
C274 C275 1.387 . S
C275 H260 0.930 . S
C275 C270 1.390 . S
C275 C274 1.387 . S
H276 C288 0.930 . S
H277 C290 0.930 . S
H278 C291 0.930 . S
H279 C295 0.959 . S
H280 C295 0.959 . S
H281 C295 0.961 . S
H282 C296 0.960 . S
H283 C296 0.961 . S
H284 C296 0.959 . S
H285 C299 0.929 . S
H286 C300 0.931 . S
H287 C302 0.930 . S
C288 H276 0.930 . S
C288 C289 1.399 . S
C288 C293 1.399 . S
C289 C288 1.399 . S
C289 C290 1.376 . S
C290 H277 0.930 . S
C290 C289 1.376 . S
C290 C291 1.388 1_455 S
C291 H278 0.930 . S
C291 C290 1.388 1_655 S
C291 C292 1.389 . S
C292 C291 1.389 . S
C292 C293 1.382 1_655 S
C292 C298 1.476 . S
C293 C288 1.399 . S
C293 C292 1.382 1_455 S
C293 C294 1.516 . S
C294 C293 1.516 . S
C294 C295 1.502 . S
C294 C296 1.561 . S
C294 C297 1.526 1_455 S
C295 H279 0.959 . S
C295 H280 0.959 . S
C295 H281 0.961 . S
C295 C294 1.502 . S
C296 H282 0.960 . S
C296 H283 0.961 . S
C296 H284 0.959 . S
C296 C294 1.561 . S
C297 C294 1.526 1_655 S
C297 C298 1.396 . S
C297 C302 1.390 . S
C298 C292 1.476 . S
C298 C297 1.396 . S
C298 C299 1.399 . S
C299 H285 0.929 . S
C299 C298 1.399 . S
C299 C300 1.385 . S
C300 H286 0.931 . S
C300 C299 1.385 . S
C300 C301 1.389 . S
C301 C300 1.389 . S
C301 C302 1.387 . S
C302 H287 0.930 . S
C302 C297 1.390 . S
C302 C301 1.387 . S
H303 C315 0.930 . S
H304 C317 0.930 . S
H305 C318 0.930 1_554 S
H306 C322 0.959 . S
H307 C322 0.959 . S
H308 C322 0.961 . S
H309 C323 0.960 . S
H310 C323 0.961 . S
H311 C323 0.959 . S
H312 C326 0.955 . S
H313 C327 0.931 . S
H314 C329 0.930 . S
C315 H303 0.930 . S
C315 C316 1.399 . S
C315 C320 1.399 . S
C316 C315 1.399 . S
C316 C317 1.376 . S
C317 H304 0.930 . S
C317 C316 1.376 . S
C317 C318 1.388 . S
C318 H305 0.930 1_556 S
C318 C317 1.388 . S
C318 C319 1.390 . S
C319 C318 1.390 . S
C319 C320 1.394 . S
C319 C325 1.465 1_546 S
C320 C315 1.399 . S
C320 C319 1.394 . S
C320 C321 1.516 1_545 S
C321 C320 1.516 1_565 S
C321 C322 1.502 . S
C321 C323 1.561 . S
C321 C324 1.526 1_556 S
C322 H306 0.959 . S
C322 H307 0.959 . S
C322 H308 0.961 . S
C322 C321 1.502 . S
C323 H309 0.960 . S
C323 H310 0.961 . S
C323 H311 0.959 . S
C323 C321 1.561 . S
C324 C321 1.526 1_554 S
C324 C325 1.396 . S
C324 C329 1.390 . S
C325 C319 1.465 1_564 S
C325 C324 1.396 . S
C325 C326 1.404 1_565 S
C326 H312 0.955 . S
C326 C325 1.404 1_545 S
C326 C327 1.356 1_545 S
C327 H313 0.931 . S
C327 C326 1.356 1_565 S
C327 C328 1.389 . S
C328 C327 1.389 . S
C328 C329 1.387 . S
C329 H314 0.930 . S
C329 C324 1.390 . S
C329 C328 1.387 . S
H330 C342 0.930 . S
H331 C344 0.930 . S
H332 C345 0.930 . S
H333 C349 0.959 . S
H334 C349 0.959 . S
H335 C349 0.961 . S
H336 C350 0.960 . S
H337 C350 0.961 . S
H338 C350 0.959 . S
H339 C353 0.929 . S
H340 C354 0.931 . S
H341 C356 0.930 . S
C342 H330 0.930 . S
C342 C343 1.399 . S
C342 C347 1.399 . S
C343 C342 1.399 . S
C343 C344 1.376 . S
C344 H331 0.930 . S
C344 C343 1.376 . S
C344 C345 1.388 . S
C345 H332 0.930 . S
C345 C344 1.388 . S
C345 C346 1.390 . S
C346 C345 1.390 . S
C346 C347 1.394 . S
C346 C352 1.465 . S
C347 C342 1.399 . S
C347 C346 1.394 . S
C347 C348 1.516 . S
C348 C347 1.516 . S
C348 C349 1.502 . S
C348 C350 1.561 . S
C348 C351 1.526 . S
C349 H333 0.959 . S
C349 H334 0.959 . S
C349 H335 0.961 . S
C349 C348 1.502 . S
C350 H336 0.960 . S
C350 H337 0.961 . S
C350 H338 0.959 . S
C350 C348 1.561 . S
C351 C348 1.526 . S
C351 C352 1.396 . S
C351 C356 1.390 . S
C352 C346 1.465 . S
C352 C351 1.396 . S
C352 C353 1.399 . S
C353 H339 0.929 . S
C353 C352 1.399 . S
C353 C354 1.385 . S
C354 H340 0.931 . S
C354 C353 1.385 . S
C354 C355 1.389 . S
C355 C354 1.389 . S
C355 C356 1.387 . S
C356 H341 0.930 . S
C356 C351 1.390 . S
C356 C355 1.387 . S
H357 C369 0.930 . S
H358 C371 0.930 . S
H359 C372 0.930 . S
H360 C376 0.959 . S
H361 C376 0.959 . S
H362 C376 0.961 . S
H363 C377 0.960 . S
H364 C377 0.961 . S
H365 C377 0.959 . S
H366 C380 0.929 . S
H367 C381 0.931 . S
H368 C383 0.930 . S
C369 H357 0.930 . S
C369 C370 1.399 . S
C369 C374 1.399 . S
C370 C369 1.399 . S
C370 C371 1.376 . S
C371 H358 0.930 . S
C371 C370 1.376 . S
C371 C372 1.388 . S
C372 H359 0.930 . S
C372 C371 1.388 . S
C372 C373 1.390 . S
C373 C372 1.390 . S
C373 C374 1.394 . S
C373 C379 1.465 . S
C374 C369 1.399 . S
C374 C373 1.394 . S
C374 C375 1.516 . S
C375 C374 1.516 . S
C375 C376 1.502 . S
C375 C377 1.561 . S
C375 C378 1.526 . S
C376 H360 0.959 . S
C376 H361 0.959 . S
C376 H362 0.961 . S
C376 C375 1.502 . S
C377 H363 0.960 . S
C377 H364 0.961 . S
C377 H365 0.959 . S
C377 C375 1.561 . S
C378 C375 1.526 . S
C378 C379 1.396 . S
C378 C383 1.390 . S
C379 C373 1.465 . S
C379 C378 1.396 . S
C379 C380 1.399 . S
C380 H366 0.929 . S
C380 C379 1.399 . S
C380 C381 1.385 . S
C381 H367 0.931 . S
C381 C380 1.385 . S
C381 C382 1.389 . S
C382 C381 1.389 . S
C382 C383 1.387 . S
C383 H368 0.930 . S
C383 C378 1.390 . S
C383 C382 1.387 . S
H384 C396 0.930 . S
H385 C398 0.930 . S
H386 C399 0.930 . S
H387 C403 0.959 . S
H388 C403 0.959 . S
H389 C403 0.961 . S
H390 C404 0.960 . S
H391 C404 0.961 . S
H392 C404 0.959 . S
H393 C407 0.929 . S
H394 C408 0.931 . S
H395 C410 0.930 . S
C396 H384 0.930 . S
C396 C397 1.399 . S
C396 C401 1.399 . S
C397 C396 1.399 . S
C397 C398 1.376 . S
C398 H385 0.930 . S
C398 C397 1.376 . S
C398 C399 1.388 . S
C399 H386 0.930 . S
C399 C398 1.388 . S
C399 C400 1.390 . S
C400 C399 1.390 . S
C400 C401 1.394 . S
C400 C406 1.465 . S
C401 C396 1.399 . S
C401 C400 1.394 . S
C401 C402 1.516 . S
C402 C401 1.516 . S
C402 C403 1.502 . S
C402 C404 1.561 . S
C402 C405 1.526 . S
C403 H387 0.959 . S
C403 H388 0.959 . S
C403 H389 0.961 . S
C403 C402 1.502 . S
C404 H390 0.960 . S
C404 H391 0.961 . S
C404 H392 0.959 . S
C404 C402 1.561 . S
C405 C402 1.526 . S
C405 C406 1.396 . S
C405 C410 1.390 . S
C406 C400 1.465 . S
C406 C405 1.396 . S
C406 C407 1.399 . S
C407 H393 0.929 . S
C407 C406 1.399 . S
C407 C408 1.385 . S
C408 H394 0.931 . S
C408 C407 1.385 . S
C408 C409 1.389 . S
C409 C408 1.389 . S
C409 C410 1.387 . S
C410 H395 0.930 . S
C410 C405 1.390 . S
C410 C409 1.387 . S
H411 C423 0.930 . S
H412 C425 0.930 . S
H413 C426 0.930 . S
H414 C430 0.959 . S
H415 C430 0.959 . S
H416 C430 0.961 . S
H417 C431 0.960 . S
H418 C431 0.961 . S
H419 C431 0.959 . S
H420 C434 0.929 . S
H421 C435 0.931 . S
H422 C437 0.930 . S
C423 H411 0.930 . S
C423 C424 1.399 . S
C423 C428 1.399 . S
C424 C423 1.399 . S
C424 C425 1.376 . S
C425 H412 0.930 . S
C425 C424 1.376 . S
C425 C426 1.388 . S
C426 H413 0.930 . S
C426 C425 1.388 . S
C426 C427 1.390 . S
C427 C426 1.390 . S
C427 C428 1.394 . S
C427 C433 1.465 . S
C428 C423 1.399 . S
C428 C427 1.394 . S
C428 C429 1.516 . S
C429 C428 1.516 . S
C429 C430 1.502 . S
C429 C431 1.561 . S
C429 C432 1.526 . S
C430 H414 0.959 . S
C430 H415 0.959 . S
C430 H416 0.961 . S
C430 C429 1.502 . S
C431 H417 0.960 . S
C431 H418 0.961 . S
C431 H419 0.959 . S
C431 C429 1.561 . S
C432 C429 1.526 . S
C432 C433 1.396 . S
C432 C437 1.390 . S
C433 C427 1.465 . S
C433 C432 1.396 . S
C433 C434 1.399 . S
C434 H420 0.929 . S
C434 C433 1.399 . S
C434 C435 1.385 . S
C435 H421 0.931 . S
C435 C434 1.385 . S
C435 C436 1.389 . S
C436 C435 1.389 . S
C436 C437 1.387 . S
C437 H422 0.930 . S
C437 C432 1.390 . S
C437 C436 1.387 . S
H438 C450 0.930 . S
H439 C452 0.930 1_556 S
H440 C453 0.930 1_556 S
H441 C457 0.959 . S
H442 C457 0.959 . S
H443 C457 0.961 . S
H444 C458 0.960 . S
H445 C458 0.961 . S
H446 C458 0.959 . S
H447 C461 0.929 1_556 S
H448 C462 0.931 1_556 S
H449 C464 0.930 . S
C450 H438 0.930 . S
C450 C451 1.399 . S
C450 C455 1.399 . S
C451 C450 1.399 . S
C451 C452 1.376 . S
C452 H439 0.930 1_554 S
C452 C451 1.376 . S
C452 C453 1.388 . S
C453 H440 0.930 1_554 S
C453 C452 1.388 . S
C453 C454 1.390 . S
C454 C453 1.390 . S
C454 C455 1.394 . S
C454 C460 1.465 . S
C455 C450 1.399 . S
C455 C454 1.394 . S
C455 C456 1.516 . S
C456 C455 1.516 . S
C456 C457 1.502 . S
C456 C458 1.561 . S
C456 C459 1.526 . S
C457 H441 0.959 . S
C457 H442 0.959 . S
C457 H443 0.961 . S
C457 C456 1.502 . S
C458 H444 0.960 . S
C458 H445 0.961 . S
C458 H446 0.959 . S
C458 C456 1.561 . S
C459 C456 1.526 . S
C459 C460 1.396 . S
C459 C464 1.390 . S
C460 C454 1.465 . S
C460 C459 1.396 . S
C460 C461 1.399 . S
C461 H447 0.929 1_554 S
C461 C460 1.399 . S
C461 C462 1.385 . S
C462 H448 0.931 1_554 S
C462 C461 1.385 . S
C462 C463 1.389 . S
C463 C462 1.389 . S
C463 C464 1.387 . S
C464 H449 0.930 . S
C464 C459 1.390 . S
C464 C463 1.387 . S
H465 C477 0.930 . S
H466 C479 0.930 . S
H467 C480 0.930 . S
H468 C484 0.959 . S
H469 C484 0.959 . S
H470 C484 0.961 . S
H471 C485 0.960 . S
H472 C485 0.961 . S
H473 C485 0.959 . S
H474 C488 0.929 . S
H475 C489 0.931 . S
H476 C491 0.930 . S
C477 H465 0.930 . S
C477 C478 1.399 . S
C477 C482 1.399 . S
C478 C477 1.399 . S
C478 C479 1.376 . S
C479 H466 0.930 . S
C479 C478 1.376 . S
C479 C480 1.388 . S
C480 H467 0.930 . S
C480 C479 1.388 . S
C480 C481 1.390 . S
C481 C480 1.390 . S
C481 C482 1.394 . S
C481 C487 1.465 . S
C482 C477 1.399 . S
C482 C481 1.394 . S
C482 C483 1.516 . S
C483 C482 1.516 . S
C483 C484 1.502 . S
C483 C485 1.561 . S
C483 C486 1.526 . S
C484 H468 0.959 . S
C484 H469 0.959 . S
C484 H470 0.961 . S
C484 C483 1.502 . S
C485 H471 0.960 . S
C485 H472 0.961 . S
C485 H473 0.959 . S
C485 C483 1.561 . S
C486 C483 1.526 . S
C486 C487 1.396 . S
C486 C491 1.390 . S
C487 C481 1.465 . S
C487 C486 1.396 . S
C487 C488 1.399 . S
C488 H474 0.929 . S
C488 C487 1.399 . S
C488 C489 1.385 . S
C489 H475 0.931 . S
C489 C488 1.385 . S
C489 C490 1.389 . S
C490 C489 1.389 . S
C490 C491 1.387 . S
C491 H476 0.930 . S
C491 C486 1.390 . S
C491 C490 1.387 . S
H492 C504 0.930 . S
H493 C506 0.930 . S
H494 C507 0.930 . S
H495 C511 0.959 . S
H496 C511 0.959 . S
H497 C511 0.961 . S
H498 C512 0.960 . S
H499 C512 0.961 . S
H500 C512 0.959 . S
H501 C515 0.929 . S
H502 C516 0.931 . S
H503 C518 0.930 . S
C504 H492 0.930 . S
C504 C505 1.399 . S
C504 C509 1.399 . S
C505 C504 1.399 . S
C505 C506 1.376 . S
C506 H493 0.930 . S
C506 C505 1.376 . S
C506 C507 1.388 . S
C507 H494 0.930 . S
C507 C506 1.388 . S
C507 C508 1.390 . S
C508 C507 1.390 . S
C508 C509 1.394 . S
C508 C514 1.465 . S
C509 C504 1.399 . S
C509 C508 1.394 . S
C509 C510 1.516 . S
C510 C509 1.516 . S
C510 C511 1.502 . S
C510 C512 1.561 . S
C510 C513 1.526 . S
C511 H495 0.959 . S
C511 H496 0.959 . S
C511 H497 0.961 . S
C511 C510 1.502 . S
C512 H498 0.960 . S
C512 H499 0.961 . S
C512 H500 0.959 . S
C512 C510 1.561 . S
C513 C510 1.526 . S
C513 C514 1.396 . S
C513 C518 1.390 . S
C514 C508 1.465 . S
C514 C513 1.396 . S
C514 C515 1.399 . S
C515 H501 0.929 . S
C515 C514 1.399 . S
C515 C516 1.385 . S
C516 H502 0.931 . S
C516 C515 1.385 . S
C516 C517 1.389 . S
C517 C516 1.389 . S
C517 C518 1.387 . S
C518 H503 0.930 . S
C518 C513 1.390 . S
C518 C517 1.387 . S
H519 C531 0.930 . S
H520 C533 0.930 . S
H521 C534 0.930 . S
H522 C538 0.959 . S
H523 C538 0.959 . S
H524 C538 0.961 1_655 S
H525 C539 0.960 . S
H526 C539 0.961 . S
H527 C539 0.959 . S
H528 C542 0.929 . S
H529 C543 0.931 . S
H530 C545 0.930 . S
C531 H519 0.930 . S
C531 C532 1.399 . S
C531 C536 1.399 . S
C532 C531 1.399 . S
C532 C533 1.376 . S
C533 H520 0.930 . S
C533 C532 1.376 . S
C533 C534 1.388 . S
C534 H521 0.930 . S
C534 C533 1.388 . S
C534 C535 1.390 . S
C535 C534 1.390 . S
C535 C536 1.394 . S
C535 C541 1.465 1_655 S
C536 C531 1.399 . S
C536 C535 1.394 . S
C536 C537 1.516 . S
C537 C536 1.516 . S
C537 C538 1.502 1_655 S
C537 C539 1.561 . S
C537 C540 1.526 1_655 S
C538 H522 0.959 . S
C538 H523 0.959 . S
C538 H524 0.961 1_455 S
C538 C537 1.502 1_455 S
C539 H525 0.960 . S
C539 H526 0.961 . S
C539 H527 0.959 . S
C539 C537 1.561 . S
C540 C537 1.526 1_455 S
C540 C541 1.396 . S
C540 C545 1.390 . S
C541 C535 1.465 1_455 S
C541 C540 1.396 . S
C541 C542 1.399 . S
C542 H528 0.929 . S
C542 C541 1.399 . S
C542 C543 1.385 . S
C543 H529 0.931 . S
C543 C542 1.385 . S
C543 C544 1.389 . S
C544 C543 1.389 . S
C544 C545 1.387 . S
C545 H530 0.930 . S
C545 C540 1.390 . S
C545 C544 1.387 . S
H546 C558 0.930 . S
H547 C560 0.930 . S
H548 C561 0.930 1_556 S
H549 C565 0.959 . S
H550 C565 0.959 . S
H551 C565 0.961 . S
H552 C566 0.960 . S
H553 C566 0.961 . S
H554 C566 0.959 . S
H555 C569 0.929 . S
H556 C570 0.931 . S
H557 C572 0.930 . S
C558 H546 0.930 . S
C558 C559 1.399 . S
C558 C563 1.399 . S
C559 C558 1.399 . S
C559 C560 1.376 . S
C560 H547 0.930 . S
C560 C559 1.376 . S
C560 C561 1.388 . S
C561 H548 0.930 1_554 S
C561 C560 1.388 . S
C561 C562 1.390 . S
C562 C561 1.390 . S
C562 C563 1.394 . S
C562 C568 1.465 1_554 S
C563 C558 1.399 . S
C563 C562 1.394 . S
C563 C564 1.516 1_565 S
C564 C563 1.516 1_545 S
C564 C565 1.502 . S
C564 C566 1.561 . S
C564 C567 1.526 1_554 S
C565 H549 0.959 . S
C565 H550 0.959 . S
C565 H551 0.961 . S
C565 C564 1.502 . S
C566 H552 0.960 . S
C566 H553 0.961 . S
C566 H554 0.959 . S
C566 C564 1.561 . S
C567 C564 1.526 1_556 S
C567 C568 1.396 1_545 S
C567 C572 1.390 . S
C568 C562 1.465 1_556 S
C568 C567 1.396 1_565 S
C568 C569 1.399 . S
C569 H555 0.929 . S
C569 C568 1.399 . S
C569 C570 1.385 1_565 S
C570 H556 0.931 . S
C570 C569 1.385 1_545 S
C570 C571 1.389 . S
C571 C570 1.389 . S
C571 C572 1.387 . S
C572 H557 0.930 . S
C572 C567 1.390 . S
C572 C571 1.387 . S
H573 C585 0.930 . S
H574 C587 0.930 . S
H575 C588 0.930 . S
H576 C592 0.959 . S
H577 C592 0.959 . S
H578 C592 0.961 . S
H579 C593 0.960 . S
H580 C593 0.961 . S
H581 C593 0.959 . S
H582 C596 0.929 . S
H583 C597 0.931 . S
H584 C599 0.930 . S
C585 H573 0.930 . S
C585 C586 1.399 . S
C585 C590 1.399 . S
C586 C585 1.399 . S
C586 C587 1.376 . S
C587 H574 0.930 . S
C587 C586 1.376 . S
C587 C588 1.388 . S
C588 H575 0.930 . S
C588 C587 1.388 . S
C588 C589 1.390 . S
C589 C588 1.390 . S
C589 C590 1.394 . S
C589 C595 1.465 . S
C590 C585 1.399 . S
C590 C589 1.394 . S
C590 C591 1.516 . S
C591 C590 1.516 . S
C591 C592 1.502 . S
C591 C593 1.561 . S
C591 C594 1.526 . S
C592 H576 0.959 . S
C592 H577 0.959 . S
C592 H578 0.961 . S
C592 C591 1.502 . S
C593 H579 0.960 . S
C593 H580 0.961 . S
C593 H581 0.959 . S
C593 C591 1.561 . S
C594 C591 1.526 . S
C594 C595 1.396 . S
C594 C599 1.390 . S
C595 C589 1.465 . S
C595 C594 1.396 . S
C595 C596 1.399 . S
C596 H582 0.929 . S
C596 C595 1.399 . S
C596 C597 1.385 . S
C597 H583 0.931 . S
C597 C596 1.385 . S
C597 C598 1.389 . S
C598 C597 1.389 . S
C598 C599 1.387 . S
C599 H584 0.930 . S
C599 C594 1.390 . S
C599 C598 1.387 . S
H600 C612 0.930 . S
H601 C614 0.930 . S
H602 C615 0.930 . S
H603 C619 0.959 . S
H604 C619 0.959 1_655 S
H605 C619 0.961 . S
H606 C620 0.960 . S
H607 C620 0.961 . S
H608 C620 0.959 . S
H609 C623 0.929 . S
H610 C624 0.931 . S
H611 C626 0.930 . S
C612 H600 0.930 . S
C612 C613 1.399 . S
C612 C617 1.399 . S
C613 C612 1.399 . S
C613 C614 1.376 . S
C614 H601 0.930 . S
C614 C613 1.376 . S
C614 C615 1.388 . S
C615 H602 0.930 . S
C615 C614 1.388 . S
C615 C616 1.390 . S
C616 C615 1.390 . S
C616 C617 1.394 . S
C616 C622 1.465 1_455 S
C617 C612 1.399 . S
C617 C616 1.394 . S
C617 C618 1.516 1_455 S
C618 C617 1.516 1_655 S
C618 C619 1.502 1_655 S
C618 C620 1.561 . S
C618 C621 1.526 . S
C619 H603 0.959 . S
C619 H604 0.959 1_455 S
C619 H605 0.961 . S
C619 C618 1.502 1_455 S
C620 H606 0.960 . S
C620 H607 0.961 . S
C620 H608 0.959 . S
C620 C618 1.561 . S
C621 C618 1.526 . S
C621 C622 1.396 . S
C621 C626 1.390 . S
C622 C616 1.465 1_655 S
C622 C621 1.396 . S
C622 C623 1.399 . S
C623 H609 0.929 . S
C623 C622 1.399 . S
C623 C624 1.385 . S
C624 H610 0.931 . S
C624 C623 1.385 . S
C624 C625 1.389 . S
C625 C624 1.389 . S
C625 C626 1.387 . S
C626 H611 0.930 . S
C626 C621 1.390 . S
C626 C625 1.387 . S
H627 C639 0.930 . S
H628 C641 0.930 . S
H629 C642 0.930 . S
H630 C646 0.959 . S
H631 C646 0.959 . S
H632 C646 0.961 . S
H633 C647 0.960 . S
H634 C647 0.961 . S
H635 C647 0.959 . S
H636 C650 0.929 . S
H637 C651 0.931 . S
H638 C653 0.930 . S
C639 H627 0.930 . S
C639 C640 1.399 . S
C639 C644 1.399 . S
C640 C639 1.399 . S
C640 C641 1.376 . S
C641 H628 0.930 . S
C641 C640 1.376 . S
C641 C642 1.388 . S
C642 H629 0.930 . S
C642 C641 1.388 . S
C642 C643 1.390 . S
C643 C642 1.390 . S
C643 C644 1.394 . S
C643 C649 1.476 . S
C644 C639 1.399 . S
C644 C643 1.394 . S
C644 C645 1.516 1_565 S
C645 C644 1.516 1_545 S
C645 C646 1.502 . S
C645 C647 1.561 . S
C645 C648 1.526 . S
C646 H630 0.959 . S
C646 H631 0.959 . S
C646 H632 0.961 . S
C646 C645 1.502 . S
C647 H633 0.960 . S
C647 H634 0.961 . S
C647 H635 0.959 . S
C647 C645 1.561 . S
C648 C645 1.526 . S
C648 C649 1.383 1_545 S
C648 C653 1.390 . S
C649 C643 1.476 . S
C649 C648 1.383 1_565 S
C649 C650 1.399 . S
C650 H636 0.929 . S
C650 C649 1.399 . S
C650 C651 1.385 1_565 S
C651 H637 0.931 . S
C651 C650 1.385 1_545 S
C651 C652 1.389 . S
C652 C651 1.389 . S
C652 C653 1.387 . S
C653 H638 0.930 . S
C653 C648 1.390 . S
C653 C652 1.387 . S
H654 C666 0.930 . S
H655 C668 0.930 . S
H656 C669 0.930 . S
H657 C673 0.959 . S
H658 C673 0.959 . S
H659 C673 0.961 . S
H660 C674 0.960 . S
H661 C674 0.961 . S
H662 C674 0.959 . S
H663 C677 0.929 . S
H664 C678 0.931 . S
H665 C680 0.930 . S
C666 H654 0.930 . S
C666 C667 1.399 . S
C666 C671 1.399 . S
C667 C666 1.399 . S
C667 C668 1.376 . S
C668 H655 0.930 . S
C668 C667 1.376 . S
C668 C669 1.388 . S
C669 H656 0.930 . S
C669 C668 1.388 . S
C669 C670 1.390 . S
C670 C669 1.390 . S
C670 C671 1.394 . S
C670 C676 1.465 . S
C671 C666 1.399 . S
C671 C670 1.394 . S
C671 C672 1.516 . S
C672 C671 1.516 . S
C672 C673 1.502 . S
C672 C674 1.561 . S
C672 C675 1.526 . S
C673 H657 0.959 . S
C673 H658 0.959 . S
C673 H659 0.961 . S
C673 C672 1.502 . S
C674 H660 0.960 . S
C674 H661 0.961 . S
C674 H662 0.959 . S
C674 C672 1.561 . S
C675 C672 1.526 . S
C675 C676 1.396 . S
C675 C680 1.390 . S
C676 C670 1.465 . S
C676 C675 1.396 . S
C676 C677 1.399 . S
C677 H663 0.929 . S
C677 C676 1.399 . S
C677 C678 1.385 . S
C678 H664 0.931 . S
C678 C677 1.385 . S
C678 C679 1.389 . S
C679 C678 1.389 . S
C679 C680 1.387 . S
C680 H665 0.930 . S
C680 C675 1.390 . S
C680 C679 1.387 . S
H681 C693 0.930 . S
H682 C695 0.930 . S
H683 C696 0.930 . S
H684 C700 0.959 . S
H685 C700 0.959 . S
H686 C700 0.961 . S
H687 C701 0.960 . S
H688 C701 0.961 . S
H689 C701 0.959 . S
H690 C704 0.929 . S
H691 C705 0.931 . S
H692 C707 0.930 . S
C693 H681 0.930 . S
C693 C694 1.399 . S
C693 C698 1.399 . S
C694 C693 1.399 . S
C694 C695 1.376 . S
C695 H682 0.930 . S
C695 C694 1.376 . S
C695 C696 1.388 . S
C696 H683 0.930 . S
C696 C695 1.388 . S
C696 C697 1.390 . S
C697 C696 1.390 . S
C697 C698 1.394 . S
C697 C703 1.465 . S
C698 C693 1.399 . S
C698 C697 1.394 . S
C698 C699 1.516 . S
C699 C698 1.516 . S
C699 C700 1.502 . S
C699 C701 1.561 . S
C699 C702 1.526 . S
C700 H684 0.959 . S
C700 H685 0.959 . S
C700 H686 0.961 . S
C700 C699 1.502 . S
C701 H687 0.960 . S
C701 H688 0.961 . S
C701 H689 0.959 . S
C701 C699 1.561 . S
C702 C699 1.526 . S
C702 C703 1.396 . S
C702 C707 1.390 . S
C703 C697 1.465 . S
C703 C702 1.396 . S
C703 C704 1.399 . S
C704 H690 0.929 . S
C704 C703 1.399 . S
C704 C705 1.385 . S
C705 H691 0.931 . S
C705 C704 1.385 . S
C705 C706 1.389 . S
C706 C705 1.389 . S
C706 C707 1.387 . S
C707 H692 0.930 . S
C707 C702 1.390 . S
C707 C706 1.387 . S
H708 C720 0.930 . S
H709 C722 0.930 . S
H710 C723 0.930 . S
H711 C727 0.959 . S
H712 C727 0.959 . S
H713 C727 0.961 1_554 S
H714 C728 0.960 . S
H715 C728 0.961 . S
H716 C728 0.959 . S
H717 C731 0.929 . S
H718 C732 0.931 . S
H719 C734 0.930 . S
C720 H708 0.930 . S
C720 C721 1.399 . S
C720 C725 1.399 1_554 S
C721 C720 1.399 . S
C721 C722 1.376 1_554 S
C722 H709 0.930 . S
C722 C721 1.376 1_556 S
C722 C723 1.388 . S
C723 H710 0.930 . S
C723 C722 1.388 . S
C723 C724 1.390 . S
C724 C723 1.390 . S
C724 C725 1.394 . S
C724 C730 1.465 . S
C725 C720 1.399 1_556 S
C725 C724 1.394 . S
C725 C726 1.516 . S
C726 C725 1.516 . S
C726 C727 1.502 . S
C726 C728 1.561 1_556 S
C726 C729 1.526 . S
C727 H711 0.959 . S
C727 H712 0.959 . S
C727 H713 0.961 1_556 S
C727 C726 1.502 . S
C728 H714 0.960 . S
C728 H715 0.961 . S
C728 H716 0.959 . S
C728 C726 1.561 1_554 S
C729 C726 1.526 . S
C729 C730 1.396 . S
C729 C734 1.390 . S
C730 C724 1.465 . S
C730 C729 1.396 . S
C730 C731 1.399 . S
C731 H717 0.929 . S
C731 C730 1.399 . S
C731 C732 1.385 . S
C732 H718 0.931 . S
C732 C731 1.385 . S
C732 C733 1.389 . S
C733 C732 1.389 . S
C733 C734 1.387 . S
C734 H719 0.930 . S
C734 C729 1.390 . S
C734 C733 1.387 . S
H735 C747 0.930 . S
H736 C749 0.930 . S
H737 C750 0.930 . S
H738 C754 0.959 1_554 S
H739 C754 0.959 . S
H740 C754 0.961 . S
H741 C755 0.960 . S
H742 C755 0.961 . S
H743 C755 0.959 1_554 S
H744 C758 0.929 . S
H745 C759 0.931 . S
H746 C761 0.930 . S
C747 H735 0.930 . S
C747 C748 1.399 . S
C747 C752 1.399 . S
C748 C747 1.399 . S
C748 C749 1.376 . S
C749 H736 0.930 . S
C749 C748 1.376 . S
C749 C750 1.388 . S
C750 H737 0.930 . S
C750 C749 1.388 . S
C750 C751 1.390 . S
C751 C750 1.390 . S
C751 C752 1.394 . S
C751 C757 1.465 . S
C752 C747 1.399 . S
C752 C751 1.394 . S
C752 C753 1.516 . S
C753 C752 1.516 . S
C753 C754 1.502 1_554 S
C753 C755 1.561 1_554 S
C753 C756 1.526 . S
C754 H738 0.959 1_556 S
C754 H739 0.959 . S
C754 H740 0.961 . S
C754 C753 1.502 1_556 S
C755 H741 0.960 . S
C755 H742 0.961 . S
C755 H743 0.959 1_556 S
C755 C753 1.561 1_556 S
C756 C753 1.526 . S
C756 C757 1.396 . S
C756 C761 1.390 1_554 S
C757 C751 1.465 . S
C757 C756 1.396 . S
C757 C758 1.399 . S
C758 H744 0.929 . S
C758 C757 1.399 . S
C758 C759 1.385 . S
C759 H745 0.931 . S
C759 C758 1.385 . S
C759 C760 1.389 1_554 S
C760 C759 1.389 1_556 S
C760 C761 1.387 . S
C761 H746 0.930 . S
C761 C756 1.390 1_556 S
C761 C760 1.387 . S
H762 C774 0.930 . S
H763 C776 0.930 . S
H764 C777 0.930 . S
H765 C781 0.959 . S
H766 C781 0.959 . S
H767 C781 0.961 . S
H768 C782 0.960 . S
H769 C782 0.961 . S
H770 C782 0.959 . S
H771 C785 0.929 . S
H772 C786 0.931 . S
H773 C788 0.930 . S
C774 H762 0.930 . S
C774 C775 1.399 . S
C774 C779 1.399 . S
C775 C774 1.399 . S
C775 C776 1.376 . S
C776 H763 0.930 . S
C776 C775 1.376 . S
C776 C777 1.388 . S
C777 H764 0.930 . S
C777 C776 1.388 . S
C777 C778 1.390 . S
C778 C777 1.390 . S
C778 C779 1.394 . S
C778 C784 1.465 . S
C779 C774 1.399 . S
C779 C778 1.394 . S
C779 C780 1.516 . S
C780 C779 1.516 . S
C780 C781 1.502 . S
C780 C782 1.561 . S
C780 C783 1.526 . S
C781 H765 0.959 . S
C781 H766 0.959 . S
C781 H767 0.961 . S
C781 C780 1.502 . S
C782 H768 0.960 . S
C782 H769 0.961 . S
C782 H770 0.959 . S
C782 C780 1.561 . S
C783 C780 1.526 . S
C783 C784 1.396 . S
C783 C788 1.390 . S
C784 C778 1.465 . S
C784 C783 1.396 . S
C784 C785 1.399 . S
C785 H771 0.929 . S
C785 C784 1.399 . S
C785 C786 1.385 . S
C786 H772 0.931 . S
C786 C785 1.385 . S
C786 C787 1.389 . S
C787 C786 1.389 . S
C787 C788 1.387 . S
C788 H773 0.930 . S
C788 C783 1.390 . S
C788 C787 1.387 . S
H789 C801 0.930 . S
H790 C803 0.930 . S
H791 C804 0.930 . S
H792 C808 0.959 . S
H793 C808 0.959 . S
H794 C808 0.961 . S
H795 C809 0.960 . S
H796 C809 0.961 . S
H797 C809 0.959 . S
H798 C812 0.929 . S
H799 C813 0.931 . S
H800 C815 0.930 . S
C801 H789 0.930 . S
C801 C802 1.399 . S
C801 C806 1.399 . S
C802 C801 1.399 . S
C802 C803 1.376 . S
C803 H790 0.930 . S
C803 C802 1.376 . S
C803 C804 1.388 . S
C804 H791 0.930 . S
C804 C803 1.388 . S
C804 C805 1.390 . S
C805 C804 1.390 . S
C805 C806 1.394 . S
C805 C811 1.465 . S
C806 C801 1.399 . S
C806 C805 1.394 . S
C806 C807 1.516 . S
C807 C806 1.516 . S
C807 C808 1.502 . S
C807 C809 1.561 . S
C807 C810 1.526 . S
C808 H792 0.959 . S
C808 H793 0.959 . S
C808 H794 0.961 . S
C808 C807 1.502 . S
C809 H795 0.960 . S
C809 H796 0.961 . S
C809 H797 0.959 . S
C809 C807 1.561 . S
C810 C807 1.526 . S
C810 C811 1.396 . S
C810 C815 1.390 . S
C811 C805 1.465 . S
C811 C810 1.396 . S
C811 C812 1.399 . S
C812 H798 0.929 . S
C812 C811 1.399 . S
C812 C813 1.385 . S
C813 H799 0.931 . S
C813 C812 1.385 . S
C813 C814 1.389 . S
C814 C813 1.389 . S
C814 C815 1.387 . S
C815 H800 0.930 . S
C815 C810 1.390 . S
C815 C814 1.387 . S
C181 C138 1.305 . S
C193 C12 1.312 . S
C208 C26 1.313 . S
C220 C152 1.306 . S
C235 C166 1.279 . S
C247 C40 1.260 . S
C262 C96 1.309 . S
C274 C54 1.311 . S
C289 C110 1.271 . S
C301 C68 1.295 . S
C316 C124 1.276 . S
C328 C82 1.259 . S
C343 C95 1.466 . S
C355 C11 1.469 . S
C370 C25 1.484 . S
C382 C109 1.482 . S
C397 C123 1.420 . S
C409 C39 1.422 . S
C424 C53 1.422 . S
C436 C137 1.424 . S
C451 C151 1.438 . S
C463 C67 1.442 . S
C478 C81 1.427 . S
C490 C165 1.426 . S
C505 C130 1.061 . S
C517 C4 0.983 . S
C532 C144 1.001 . S
C544 C18 0.987 . S
C559 C158 1.070 . S
C571 C32 0.990 . S
C586 C46 1.085 . S
C598 C88 1.020 . S
C613 C102 1.066 . S
C625 C60 1.070 . S
C640 C74 1.084 . S
C652 C116 1.018 . S
C667 C5 1.216 . S
C679 C117 1.305 . S
C694 C131 1.315 . S
C706 C19 1.265 . S
C721 C145 1.249 . S
C733 C33 1.186 . S
C748 C159 1.226 . S
C760 C47 1.310 . S
C775 C89 1.313 . S
C787 C61 1.274 . S
C802 C103 1.187 . S
C814 C75 1.267 . S
