# Generated by pormake.
# Topology uoy, (4)-cn, num edge types: 1
# Building blocks:
#     Node 0, Type 0, BuildingBlock: UXUYUI_clean_sbu_0, # of connection points: 4
#     Node 1, Type 0, BuildingBlock: UXUYUI_clean_sbu_0, # of connection points: 4
#     Node 2, Type 0, BuildingBlock: UXUYUI_clean_sbu_0, # of connection points: 4
#     Node 3, Type 0, BuildingBlock: UXUYUI_clean_sbu_0, # of connection points: 4
#     Node 4, Type 0, BuildingBlock: UXUYUI_clean_sbu_0, # of connection points: 4
#     Node 5, Type 0, BuildingBlock: UXUYUI_clean_sbu_0, # of connection points: 4
#     Node 6, Type 0, BuildingBlock: UXUYUI_clean_sbu_0, # of connection points: 4
#     Node 7, Type 0, BuildingBlock: UXUYUI_clean_sbu_0, # of connection points: 4
#     Node 8, Type 0, BuildingBlock: UXUYUI_clean_sbu_0, # of connection points: 4
#     Node 9, Type 0, BuildingBlock: UXUYUI_clean_sbu_0, # of connection points: 4
#     Node 10, Type 0, BuildingBlock: UXUYUI_clean_sbu_0, # of connection points: 4
#     Node 11, Type 0, BuildingBlock: UXUYUI_clean_sbu_0, # of connection points: 4
#     Node 12, Type 0, BuildingBlock: UXUYUI_clean_sbu_0, # of connection points: 4
#     Node 13, Type 0, BuildingBlock: UXUYUI_clean_sbu_0, # of connection points: 4
#     Node 14, Type 0, BuildingBlock: UXUYUI_clean_sbu_0, # of connection points: 4
#     Node 15, Type 0, BuildingBlock: UXUYUI_clean_sbu_0, # of connection points: 4
#     Edge 16, Type (0, 0), BuildingBlock: MIFKUJ_clean_linker_0, # of connection points: 2
#     Edge 17, Type (0, 0), BuildingBlock: MIFKUJ_clean_linker_0, # of connection points: 2
#     Edge 18, Type (0, 0), BuildingBlock: MIFKUJ_clean_linker_0, # of connection points: 2
#     Edge 19, Type (0, 0), BuildingBlock: MIFKUJ_clean_linker_0, # of connection points: 2
#     Edge 20, Type (0, 0), BuildingBlock: MIFKUJ_clean_linker_0, # of connection points: 2
#     Edge 21, Type (0, 0), BuildingBlock: MIFKUJ_clean_linker_0, # of connection points: 2
#     Edge 22, Type (0, 0), BuildingBlock: MIFKUJ_clean_linker_0, # of connection points: 2
#     Edge 23, Type (0, 0), BuildingBlock: MIFKUJ_clean_linker_0, # of connection points: 2
#     Edge 24, Type (0, 0), BuildingBlock: MIFKUJ_clean_linker_0, # of connection points: 2
#     Edge 25, Type (0, 0), BuildingBlock: MIFKUJ_clean_linker_0, # of connection points: 2
#     Edge 26, Type (0, 0), BuildingBlock: MIFKUJ_clean_linker_0, # of connection points: 2
#     Edge 27, Type (0, 0), BuildingBlock: MIFKUJ_clean_linker_0, # of connection points: 2
#     Edge 28, Type (0, 0), BuildingBlock: MIFKUJ_clean_linker_0, # of connection points: 2
#     Edge 29, Type (0, 0), BuildingBlock: MIFKUJ_clean_linker_0, # of connection points: 2
#     Edge 30, Type (0, 0), BuildingBlock: MIFKUJ_clean_linker_0, # of connection points: 2
#     Edge 31, Type (0, 0), BuildingBlock: MIFKUJ_clean_linker_0, # of connection points: 2
#     Edge 32, Type (0, 0), BuildingBlock: MIFKUJ_clean_linker_0, # of connection points: 2
#     Edge 33, Type (0, 0), BuildingBlock: MIFKUJ_clean_linker_0, # of connection points: 2
#     Edge 34, Type (0, 0), BuildingBlock: MIFKUJ_clean_linker_0, # of connection points: 2
#     Edge 35, Type (0, 0), BuildingBlock: MIFKUJ_clean_linker_0, # of connection points: 2
#     Edge 36, Type (0, 0), BuildingBlock: MIFKUJ_clean_linker_0, # of connection points: 2
#     Edge 37, Type (0, 0), BuildingBlock: MIFKUJ_clean_linker_0, # of connection points: 2
#     Edge 38, Type (0, 0), BuildingBlock: MIFKUJ_clean_linker_0, # of connection points: 2
#     Edge 39, Type (0, 0), BuildingBlock: MIFKUJ_clean_linker_0, # of connection points: 2
#     Edge 40, Type (0, 0), BuildingBlock: MIFKUJ_clean_linker_0, # of connection points: 2
#     Edge 41, Type (0, 0), BuildingBlock: MIFKUJ_clean_linker_0, # of connection points: 2
#     Edge 42, Type (0, 0), BuildingBlock: MIFKUJ_clean_linker_0, # of connection points: 2
#     Edge 43, Type (0, 0), BuildingBlock: MIFKUJ_clean_linker_0, # of connection points: 2
#     Edge 44, Type (0, 0), BuildingBlock: MIFKUJ_clean_linker_0, # of connection points: 2
#     Edge 45, Type (0, 0), BuildingBlock: MIFKUJ_clean_linker_0, # of connection points: 2
#     Edge 46, Type (0, 0), BuildingBlock: MIFKUJ_clean_linker_0, # of connection points: 2
#     Edge 47, Type (0, 0), BuildingBlock: MIFKUJ_clean_linker_0, # of connection points: 2
# Relax obj value: 0.195
# Max RMSD: 0.201
# Mean RMSD: 0.200
data_MOF--net-uoy--node1-UXUYUI_clean_sbu_0--edge1-MIFKUJ_clean_linker_0
_symmetry_space_group_name_H-M    P1
_symmetry_Int_Tables_number       1
_symmetry_cell_setting            triclinic
loop_
_symmetry_equiv_pos_as_xyz
'x, y, z'
_cell_length_a     47.795489
_cell_length_b     47.78651
_cell_length_c     186.72478
_cell_angle_alpha  90.014577
_cell_angle_beta   90.008314
_cell_angle_gamma 89.997739
loop_
_atom_site_label
_atom_site_type_symbol
_atom_site_fract_x
_atom_site_fract_y
_atom_site_fract_z
_atom_type_partial_charge
Li0 Li 0.27226 0.09737 0.18472 0.0
Li1 Li 0.24608 0.13292 0.19108 0.0
Li2 Li 0.22126 0.09508 0.18471 0.0
Li3 Li 0.24461 0.1321 0.17815 0.0
C4 C 0.26142 0.08684 0.19932 0.0
N5 N 0.29029 0.07733 0.21191 0.0
C6 C 0.28788 0.09858 0.20035 0.0
C7 C 0.24964 0.07021 0.20468 0.0
C8 C 0.30214 0.09355 0.20675 0.0
C9 C 0.26457 0.06566 0.21101 0.0
C10 C 0.29224 0.16197 0.18593 0.0
C11 C 0.29447 0.21213 0.18729 0.0
N12 N 0.32151 0.20989 0.18949 0.0
C13 C 0.32012 0.16018 0.18816 0.0
C14 C 0.27936 0.18816 0.18546 0.0
C15 C 0.33453 0.18464 0.18995 0.0
C16 C 0.32683 0.08833 0.1803 0.0
N17 N 0.30618 0.07691 0.18435 0.0
C18 C 0.33621 0.03948 0.18793 0.0
C19 C 0.31015 0.05273 0.18805 0.0
C20 C 0.35824 0.05134 0.18397 0.0
C21 C 0.35319 0.0759 0.18006 0.0
H22 H 0.32289 0.10742 0.17736 0.0
H23 H 0.29328 0.04405 0.1912 0.0
C24 C 0.21835 0.16107 0.20216 0.0
N25 N 0.24418 0.15578 0.19942 0.0
C26 C 0.21545 0.17699 0.20839 0.0
C27 C 0.26578 0.18183 0.20882 0.0
C28 C 0.2677 0.16556 0.20265 0.0
C29 C 0.23941 0.18764 0.21177 0.0
H30 H 0.20001 0.15266 0.19953 0.0
H31 H 0.28805 0.16038 0.20055 0.0
C32 C 0.24859 0.0637 0.1743 0.0
N33 N 0.25271 0.00845 0.17007 0.0
C34 C 0.25252 0.05705 0.16709 0.0
C35 C 0.24672 0.04225 0.17937 0.0
C36 C 0.25455 0.02899 0.16505 0.0
C37 C 0.24887 0.01445 0.17713 0.0
C38 C 0.19411 0.15448 0.18239 0.0
C39 C 0.17212 0.14583 0.17799 0.0
C40 C 0.19632 0.18265 0.18433 0.0
C41 C 0.15313 0.16565 0.17542 0.0
C42 C 0.17689 0.20184 0.18166 0.0
N43 N 0.1559 0.19303 0.17728 0.0
C44 C 0.17676 0.06659 0.19122 0.0
C45 C 0.17648 0.06556 0.17851 0.0
C46 C 0.15081 0.05323 0.19145 0.0
N47 N 0.18875 0.07274 0.18482 0.0
C48 C 0.15045 0.05235 0.17849 0.0
C49 C 0.13708 0.0465 0.18502 0.0
H50 H 0.18689 0.073 0.19613 0.0
H51 H 0.18642 0.07107 0.17351 0.0
C52 C 0.26409 0.17069 0.16778 0.0
N53 N 0.24299 0.1529 0.16952 0.0
C54 C 0.26374 0.18484 0.16125 0.0
C55 C 0.22032 0.16151 0.15834 0.0
C56 C 0.22153 0.14782 0.16493 0.0
C57 C 0.24168 0.18025 0.15642 0.0
H58 H 0.28165 0.17335 0.17134 0.0
H59 H 0.20566 0.13266 0.16632 0.0
O60 O 0.24695 0.09155 0.19311 0.0
O61 O 0.27769 0.13818 0.18425 0.0
O62 O 0.24668 0.09112 0.17635 0.0
O63 O 0.21284 0.13533 0.18498 0.0
H64 H 0.29735 0.11141 0.19626 0.0
H65 H 0.22919 0.06091 0.20397 0.0
H66 H 0.32264 0.10255 0.20762 0.0
H67 H 0.2557 0.05284 0.21521 0.0
H68 H 0.28471 0.23251 0.18695 0.0
H69 H 0.33046 0.14011 0.18857 0.0
H70 H 0.258 0.18994 0.18364 0.0
H71 H 0.35606 0.18355 0.19172 0.0
H72 H 0.3393 0.02064 0.19105 0.0
H73 H 0.36947 0.08545 0.17685 0.0
H74 H 0.19478 0.18093 0.21054 0.0
H75 H 0.28478 0.1891 0.21138 0.0
H76 H 0.25399 0.07344 0.1631 0.0
H77 H 0.24364 0.04695 0.18498 0.0
H78 H 0.25761 0.02353 0.15949 0.0
H79 H 0.24749 0.99765 0.18099 0.0
H80 H 0.16986 0.12408 0.17651 0.0
H81 H 0.21265 0.18963 0.18791 0.0
H82 H 0.13616 0.15927 0.17195 0.0
H83 H 0.17842 0.22373 0.18309 0.0
H84 H 0.14104 0.04938 0.19659 0.0
H85 H 0.14063 0.04729 0.17343 0.0
H86 H 0.28103 0.1985 0.1599 0.0
H87 H 0.20297 0.15732 0.15476 0.0
Li88 Li 0.89752 0.773 0.43441 0.0
Li89 Li 0.86485 0.74561 0.44112 0.0
Li90 Li 0.90112 0.72041 0.43454 0.0
Li91 Li 0.8619 0.74305 0.42867 0.0
C92 C 0.90952 0.74791 0.44974 0.0
N93 N 0.91347 0.74814 0.46451 0.0
C94 C 0.91843 0.77198 0.45333 0.0
C95 C 0.90266 0.72394 0.45366 0.0
C96 C 0.92031 0.77166 0.4608 0.0
C97 C 0.90475 0.72449 0.46112 0.0
C98 C 0.83851 0.7933 0.43837 0.0
C99 C 0.7923 0.80305 0.44293 0.0
N100 N 0.80241 0.82616 0.44631 0.0
C101 C 0.84839 0.81724 0.44185 0.0
C102 C 0.81019 0.78624 0.43887 0.0
C103 C 0.82982 0.83355 0.44585 0.0
C104 C 0.90443 0.82723 0.42944 0.0
N105 N 0.91728 0.80707 0.43337 0.0
C106 C 0.95537 0.83774 0.436 0.0
C107 C 0.94252 0.81156 0.43653 0.0
C108 C 0.94198 0.85936 0.43222 0.0
C109 C 0.91638 0.85372 0.42882 0.0
H110 H 0.88449 0.82288 0.42694 0.0
H111 H 0.95241 0.79498 0.43955 0.0
C112 C 0.82811 0.72234 0.45151 0.0
N113 N 0.84403 0.74508 0.44989 0.0
C114 C 0.81529 0.72016 0.45821 0.0
C115 C 0.83518 0.76498 0.46139 0.0
C116 C 0.84733 0.76641 0.45463 0.0
C117 C 0.81934 0.74142 0.46328 0.0
H118 H 0.82617 0.70544 0.4477 0.0
H119 H 0.8604 0.78405 0.45329 0.0
C120 C 0.92811 0.7489 0.4233 0.0
N121 N 0.98085 0.7546 0.41743 0.0
C122 C 0.93124 0.75276 0.41593 0.0
C123 C 0.95178 0.74789 0.42769 0.0
C124 C 0.95809 0.7556 0.41306 0.0
C125 C 0.97826 0.75083 0.42462 0.0
C126 C 0.84196 0.69428 0.43216 0.0
C127 C 0.85066 0.6703 0.4285 0.0
C128 C 0.81355 0.70119 0.43233 0.0
C129 C 0.83083 0.65392 0.42494 0.0
C130 C 0.79437 0.6843 0.42869 0.0
N131 N 0.80334 0.66123 0.4251 0.0
C132 C 0.93692 0.67779 0.4399 0.0
C133 C 0.92887 0.677 0.42738 0.0
C134 C 0.95127 0.65242 0.43953 0.0
N135 N 0.92537 0.68906 0.43391 0.0
C136 C 0.94328 0.65172 0.42674 0.0
C137 C 0.95399 0.63877 0.4329 0.0
H138 H 0.93432 0.68801 0.44501 0.0
H139 H 0.91934 0.6864 0.4227 0.0
C140 C 0.81792 0.75803 0.41923 0.0
N141 N 0.83972 0.74032 0.42033 0.0
C142 C 0.80327 0.75733 0.41277 0.0
C143 C 0.83357 0.71988 0.40878 0.0
C144 C 0.84769 0.72141 0.4153 0.0
C145 C 0.81129 0.7383 0.4074 0.0
H146 H 0.81244 0.77324 0.42327 0.0
H147 H 0.8654 0.70788 0.41631 0.0
O148 O 0.9072 0.74795 0.44243 0.0
O149 O 0.85638 0.77704 0.43442 0.0
O150 O 0.90192 0.74615 0.42616 0.0
O151 O 0.86111 0.71089 0.43558 0.0
H152 H 0.92347 0.79083 0.4504 0.0
H153 H 0.89502 0.70536 0.45098 0.0
H154 H 0.92706 0.79018 0.46365 0.0
H155 H 0.89923 0.70619 0.46422 0.0
H156 H 0.77038 0.79774 0.4434 0.0
H157 H 0.87025 0.82293 0.4416 0.0
H158 H 0.8021 0.76794 0.43618 0.0
H159 H 0.83725 0.85201 0.44861 0.0
H160 H 0.9751 0.8413 0.4387 0.0
H161 H 0.90561 0.86969 0.42576 0.0
H162 H 0.80333 0.7016 0.45951 0.0
H163 H 0.83858 0.78189 0.46516 0.0
H164 H 0.9131 0.75355 0.41246 0.0
H165 H 0.94978 0.74486 0.4334 0.0
H166 H 0.96084 0.75862 0.40736 0.0
H167 H 0.99676 0.75012 0.42795 0.0
H168 H 0.87246 0.6644 0.42839 0.0
H169 H 0.80642 0.71947 0.4352 0.0
H170 H 0.83731 0.6354 0.42205 0.0
H171 H 0.77235 0.68954 0.42873 0.0
H172 H 0.95961 0.64324 0.44438 0.0
H173 H 0.94478 0.64174 0.42155 0.0
H174 H 0.78655 0.77223 0.41188 0.0
H175 H 0.84026 0.70468 0.40484 0.0
Li176 Li 0.22391 0.3932 0.68555 0.0
Li177 Li 0.25233 0.35638 0.69164 0.0
Li178 Li 0.27469 0.39569 0.68511 0.0
Li179 Li 0.24999 0.35976 0.67878 0.0
C180 C 0.25031 0.42445 0.69636 0.0
N181 N 0.24999 0.47862 0.70152 0.0
C182 C 0.2536 0.42947 0.70368 0.0
C183 C 0.2469 0.44696 0.69165 0.0
C184 C 0.25336 0.45702 0.70619 0.0
C185 C 0.24679 0.47419 0.69437 0.0
C186 C 0.20518 0.3316 0.68187 0.0
C187 C 0.20009 0.28316 0.67848 0.0
N188 N 0.17917 0.29039 0.67391 0.0
C189 C 0.1835 0.33853 0.67717 0.0
C190 C 0.21345 0.30369 0.68257 0.0
C191 C 0.17065 0.3174 0.67318 0.0
C192 C 0.17672 0.41963 0.67984 0.0
N193 N 0.19 0.41335 0.68606 0.0
C194 C 0.15248 0.43266 0.6929 0.0
C195 C 0.17861 0.41971 0.69252 0.0
C196 C 0.13774 0.43868 0.68656 0.0
C197 C 0.15039 0.43223 0.67996 0.0
H198 H 0.18625 0.41404 0.67478 0.0
H199 H 0.18963 0.41428 0.69739 0.0
C200 C 0.27991 0.33104 0.70326 0.0
N201 N 0.25514 0.33311 0.69973 0.0
C202 C 0.28203 0.31437 0.70937 0.0
C203 C 0.23311 0.3024 0.70805 0.0
C204 C 0.23198 0.31918 0.70195 0.0
C205 C 0.25835 0.29995 0.71187 0.0
H206 H 0.29795 0.34246 0.70133 0.0
H207 H 0.21253 0.3215 0.69905 0.0
C208 C 0.26098 0.40925 0.67104 0.0
N209 N 0.28815 0.42642 0.65874 0.0
C210 C 0.28527 0.3956 0.66878 0.0
C211 C 0.25045 0.4316 0.66703 0.0
C212 C 0.29872 0.40458 0.66255 0.0
C213 C 0.26451 0.43998 0.66084 0.0
C214 C 0.30314 0.33531 0.68388 0.0
C215 C 0.3285 0.34177 0.68053 0.0
C216 C 0.29852 0.30816 0.68641 0.0
C217 C 0.34862 0.32083 0.67967 0.0
C218 C 0.31917 0.28782 0.68545 0.0
N219 N 0.34357 0.29451 0.68212 0.0
C220 C 0.32829 0.40798 0.68943 0.0
C221 C 0.31027 0.4419 0.68139 0.0
C222 C 0.35437 0.42096 0.6894 0.0
N223 N 0.30717 0.41819 0.68533 0.0
C224 C 0.3361 0.45556 0.68118 0.0
C225 C 0.35873 0.4447 0.68511 0.0
H226 H 0.32503 0.38923 0.69256 0.0
H227 H 0.29299 0.44979 0.67825 0.0
C228 C 0.23282 0.34985 0.66469 0.0
N229 N 0.24879 0.33895 0.67003 0.0
C230 C 0.23176 0.33686 0.65802 0.0
C231 C 0.26296 0.30113 0.6625 0.0
C232 C 0.26335 0.3148 0.66909 0.0
C233 C 0.24727 0.31235 0.65683 0.0
H234 H 0.22101 0.36882 0.66562 0.0
H235 H 0.27544 0.30614 0.67341 0.0
O236 O 0.25062 0.39757 0.69383 0.0
O237 O 0.21857 0.35209 0.68566 0.0
O238 O 0.24738 0.40092 0.67712 0.0
O239 O 0.28342 0.35571 0.6849 0.0
H240 H 0.25632 0.41225 0.70738 0.0
H241 H 0.24434 0.44351 0.68597 0.0
H242 H 0.25587 0.46123 0.71184 0.0
H243 H 0.24416 0.49181 0.6908 0.0
H244 H 0.2064 0.26149 0.67894 0.0
H245 H 0.17688 0.36004 0.67655 0.0
H246 H 0.23015 0.29796 0.68619 0.0
H247 H 0.15397 0.32249 0.66948 0.0
H248 H 0.14384 0.43764 0.6981 0.0
H249 H 0.13972 0.43599 0.67493 0.0
H250 H 0.30191 0.31294 0.71213 0.0
H251 H 0.21418 0.29218 0.70987 0.0
H252 H 0.29355 0.37817 0.67178 0.0
H253 H 0.23163 0.44238 0.66871 0.0
H254 H 0.31754 0.39417 0.66074 0.0
H255 H 0.25662 0.45728 0.65769 0.0
H256 H 0.33271 0.36275 0.67864 0.0
H257 H 0.27912 0.30273 0.68903 0.0
H258 H 0.36829 0.32554 0.67707 0.0
H259 H 0.31578 0.2667 0.68734 0.0
H260 H 0.37106 0.41225 0.69263 0.0
H261 H 0.33858 0.47377 0.67779 0.0
H262 H 0.21894 0.34592 0.65383 0.0
H263 H 0.27537 0.28237 0.66181 0.0
Li264 Li 0.63935 0.75294 0.94233 0.0
Li265 Li 0.60346 0.72291 0.93682 0.0
Li266 Li 0.63859 0.74866 0.92925 0.0
Li267 Li 0.60021 0.77334 0.93501 0.0
C268 C 0.66643 0.70235 0.93879 0.0
N269 N 0.71008 0.66944 0.94363 0.0
C270 C 0.66096 0.67715 0.94232 0.0
C271 C 0.69412 0.7106 0.93763 0.0
C272 C 0.68331 0.66086 0.94475 0.0
C273 C 0.71589 0.69374 0.94014 0.0
C274 C 0.58069 0.74308 0.94943 0.0
C275 C 0.5341 0.73359 0.95376 0.0
N276 N 0.54507 0.72391 0.96001 0.0
C277 C 0.59149 0.73334 0.95593 0.0
C278 C 0.55175 0.7435 0.94837 0.0
C279 C 0.57315 0.72363 0.9612 0.0
C280 C 0.66619 0.78632 0.95254 0.0
N281 N 0.66191 0.75927 0.95056 0.0
C282 C 0.68675 0.74285 0.96082 0.0
C283 C 0.67184 0.73766 0.95455 0.0
C284 C 0.69111 0.77055 0.96306 0.0
C285 C 0.68082 0.79249 0.95882 0.0
H286 H 0.65767 0.80309 0.94932 0.0
H287 H 0.66726 0.71638 0.95304 0.0
C288 C 0.57365 0.67724 0.93138 0.0
N289 N 0.5836 0.6885 0.93756 0.0
C290 C 0.56086 0.65101 0.93141 0.0
C291 C 0.56865 0.6484 0.94418 0.0
C292 C 0.58134 0.67469 0.9439 0.0
C293 C 0.55848 0.63611 0.93786 0.0
H294 H 0.57621 0.68838 0.92639 0.0
H295 H 0.59032 0.68352 0.94869 0.0
C296 C 0.66242 0.79924 0.93274 0.0
N297 N 0.70675 0.83135 0.92797 0.0
C298 C 0.6576 0.82243 0.92835 0.0
C299 C 0.68974 0.79271 0.93482 0.0
C300 C 0.6803 0.8383 0.92596 0.0
C301 C 0.71189 0.80911 0.93232 0.0
C302 C 0.57462 0.74924 0.92366 0.0
C303 C 0.57733 0.76 0.91674 0.0
C304 C 0.54799 0.74431 0.92647 0.0
C305 C 0.55328 0.76619 0.91279 0.0
C306 C 0.52445 0.75075 0.92236 0.0
N307 N 0.52755 0.7615 0.91566 0.0
C308 C 0.67642 0.72431 0.91943 0.0
C309 C 0.65818 0.76849 0.91605 0.0
C310 C 0.69171 0.72264 0.91309 0.0
N311 N 0.66028 0.74709 0.9208 0.0
C312 C 0.67299 0.76767 0.90963 0.0
C313 C 0.69002 0.74448 0.90807 0.0
H314 H 0.67711 0.70722 0.92321 0.0
H315 H 0.64449 0.78594 0.91718 0.0
C316 C 0.5619 0.81427 0.9398 0.0
N317 N 0.57655 0.80486 0.93405 0.0
C318 C 0.54683 0.83924 0.93937 0.0
C319 C 0.56184 0.84401 0.92706 0.0
C320 C 0.57664 0.81901 0.92774 0.0
C321 C 0.54707 0.85469 0.93296 0.0
H322 H 0.56274 0.80292 0.9448 0.0
H323 H 0.58896 0.81135 0.9233 0.0
O324 O 0.64476 0.7186 0.9364 0.0
O325 O 0.59834 0.75279 0.94423 0.0
O326 O 0.64044 0.78336 0.9351 0.0
O327 O 0.59792 0.74331 0.92764 0.0
H328 H 0.63972 0.67028 0.94321 0.0
H329 H 0.69879 0.72965 0.93476 0.0
H330 H 0.67936 0.64139 0.94753 0.0
H331 H 0.73741 0.69993 0.93929 0.0
H332 H 0.51167 0.73369 0.95299 0.0
H333 H 0.61378 0.73308 0.95688 0.0
H334 H 0.54298 0.75158 0.94345 0.0
H335 H 0.58124 0.71587 0.96623 0.0
H336 H 0.69365 0.72533 0.96405 0.0
H337 H 0.68364 0.81411 0.96041 0.0
H338 H 0.55314 0.64238 0.92642 0.0
H339 H 0.56775 0.6374 0.94925 0.0
H340 H 0.63659 0.82801 0.92676 0.0
H341 H 0.69382 0.77534 0.93836 0.0
H342 H 0.67688 0.85616 0.92251 0.0
H343 H 0.73315 0.80421 0.93386 0.0
H344 H 0.59778 0.76368 0.91445 0.0
H345 H 0.54555 0.73545 0.93176 0.0
H346 H 0.55507 0.77471 0.90744 0.0
H347 H 0.5037 0.74713 0.92448 0.0
H348 H 0.70466 0.70444 0.91212 0.0
H349 H 0.67053 0.78467 0.90584 0.0
H350 H 0.53612 0.84693 0.94408 0.0
H351 H 0.56239 0.85511 0.92201 0.0
Li352 Li 0.25286 0.35952 0.06584 0.0
Li353 Li 0.22542 0.39645 0.06029 0.0
Li354 Li 0.24671 0.35961 0.05311 0.0
Li355 Li 0.27506 0.396 0.05872 0.0
C356 C 0.19906 0.33811 0.05743 0.0
N357 N 0.16251 0.30248 0.05047 0.0
C358 C 0.17446 0.34856 0.05438 0.0
C359 C 0.205 0.30952 0.05696 0.0
C360 C 0.15625 0.3302 0.05089 0.0
C361 C 0.18629 0.29186 0.0534 0.0
C362 C 0.24149 0.41777 0.07242 0.0
C363 C 0.22517 0.46388 0.0756 0.0
N364 N 0.21261 0.45304 0.08152 0.0
C365 C 0.22851 0.40708 0.07854 0.0
C366 C 0.23992 0.4464 0.07094 0.0
C367 C 0.21399 0.42526 0.08307 0.0
C368 C 0.27716 0.34328 0.07889 0.0
N369 N 0.25613 0.33761 0.07422 0.0
C370 C 0.23721 0.30318 0.0821 0.0
C371 C 0.23635 0.31802 0.07567 0.0
C372 C 0.25855 0.30871 0.08707 0.0
C373 C 0.27891 0.32885 0.08537 0.0
H374 H 0.29225 0.35941 0.07764 0.0
H375 H 0.21944 0.3145 0.07195 0.0
C376 C 0.18644 0.43915 0.0568 0.0
N377 N 0.19241 0.41781 0.06136 0.0
C378 C 0.16034 0.45223 0.05709 0.0
C379 C 0.14748 0.42149 0.06684 0.0
C380 C 0.1738 0.40908 0.06638 0.0
C381 C 0.14028 0.44297 0.06205 0.0
H382 H 0.20149 0.44528 0.05278 0.0
H383 H 0.17906 0.39174 0.06985 0.0
C384 C 0.3003 0.33757 0.06169 0.0
N385 N 0.33625 0.30233 0.06897 0.0
C386 C 0.32476 0.34815 0.06478 0.0
C387 C 0.29421 0.30905 0.06226 0.0
C388 C 0.34265 0.32999 0.06844 0.0
C389 C 0.31261 0.29159 0.06598 0.0
C390 C 0.25887 0.41761 0.04649 0.0
C391 C 0.27028 0.40672 0.04018 0.0
C392 C 0.26179 0.4461 0.04802 0.0
C393 C 0.28467 0.42453 0.03553 0.0
C394 C 0.27637 0.4632 0.04324 0.0
N395 N 0.28741 0.45216 0.03715 0.0
C396 C 0.22028 0.34347 0.04036 0.0
C397 C 0.26023 0.31646 0.04334 0.0
C398 C 0.21619 0.3279 0.03413 0.0
N399 N 0.24194 0.33742 0.04481 0.0
C400 C 0.25714 0.30056 0.03712 0.0
C401 C 0.23493 0.30628 0.0324 0.0
H402 H 0.20631 0.36056 0.04163 0.0
H403 H 0.27754 0.31246 0.04692 0.0
C404 C 0.31495 0.43682 0.06278 0.0
N405 N 0.30829 0.41737 0.05776 0.0
C406 C 0.34055 0.45084 0.06245 0.0
C407 C 0.35164 0.42484 0.05171 0.0
C408 C 0.32596 0.41118 0.05229 0.0
C409 C 0.35944 0.4447 0.05689 0.0
H410 H 0.30075 0.44086 0.06717 0.0
H411 H 0.32031 0.39519 0.04845 0.0
O412 O 0.2174 0.35581 0.06077 0.0
O413 O 0.25534 0.40025 0.06784 0.0
O414 O 0.28229 0.35507 0.05818 0.0
O415 O 0.24507 0.40045 0.05116 0.0
H416 H 0.16961 0.37063 0.05462 0.0
H417 H 0.22404 0.30111 0.05923 0.0
H418 H 0.13721 0.33801 0.04848 0.0
H419 H 0.19072 0.26973 0.05296 0.0
H420 H 0.22364 0.48605 0.0745 0.0
H421 H 0.22938 0.38497 0.07975 0.0
H422 H 0.24973 0.45497 0.0662 0.0
H423 H 0.20374 0.41727 0.08781 0.0
H424 H 0.22076 0.28826 0.08325 0.0
H425 H 0.29584 0.33362 0.08903 0.0
H426 H 0.15546 0.46849 0.05324 0.0
H427 H 0.1327 0.41392 0.07078 0.0
H428 H 0.32976 0.37017 0.06442 0.0
H429 H 0.27532 0.30054 0.05994 0.0
H430 H 0.36159 0.3379 0.07088 0.0
H431 H 0.30807 0.26951 0.06651 0.0
H432 H 0.2683 0.38471 0.03892 0.0
H433 H 0.25318 0.45482 0.05289 0.0
H434 H 0.29372 0.41638 0.03065 0.0
H435 H 0.27896 0.48525 0.04437 0.0
H436 H 0.19866 0.33293 0.03069 0.0
H437 H 0.2725 0.28458 0.03593 0.0
H438 H 0.34583 0.46559 0.06664 0.0
H439 H 0.36534 0.41966 0.04728 0.0
Li440 Li 0.63633 0.75411 0.31607 0.0
Li441 Li 0.5984 0.72955 0.31008 0.0
Li442 Li 0.63745 0.74893 0.30334 0.0
Li443 Li 0.60241 0.77926 0.3088 0.0
C444 C 0.65485 0.69963 0.30738 0.0
N445 N 0.68799 0.66162 0.30014 0.0
C446 C 0.64277 0.67632 0.30408 0.0
C447 C 0.6838 0.70355 0.30702 0.0
C448 C 0.65989 0.65734 0.30045 0.0
C449 C 0.70019 0.68414 0.30332 0.0
C450 C 0.57661 0.74616 0.32212 0.0
C451 C 0.52918 0.73246 0.32479 0.0
N452 N 0.53835 0.71906 0.33077 0.0
C453 C 0.58556 0.73231 0.3283 0.0
C454 C 0.54819 0.74633 0.32035 0.0
C455 C 0.56589 0.71873 0.3326 0.0
C456 C 0.6504 0.77567 0.32954 0.0
N457 N 0.65721 0.75568 0.32466 0.0
C458 C 0.69118 0.73622 0.33259 0.0
C459 C 0.67717 0.73617 0.32604 0.0
C460 C 0.68432 0.75638 0.33778 0.0
C461 C 0.66383 0.77647 0.33616 0.0
H462 H 0.63412 0.79065 0.32831 0.0
H463 H 0.68172 0.72017 0.32213 0.0
C464 C 0.55369 0.6937 0.30598 0.0
N465 N 0.57455 0.69806 0.31079 0.0
C466 C 0.53833 0.66885 0.30615 0.0
C467 C 0.56591 0.65387 0.31631 0.0
C468 C 0.58075 0.67892 0.31593 0.0
C469 C 0.54467 0.64838 0.3113 0.0
H470 H 0.54953 0.70912 0.30188 0.0
H471 H 0.59791 0.68275 0.31958 0.0
C472 C 0.66187 0.80005 0.31246 0.0
N473 N 0.6982 0.83228 0.32049 0.0
C474 C 0.65235 0.82442 0.31581 0.0
C475 C 0.68989 0.79214 0.31317 0.0
C476 C 0.67105 0.84043 0.31984 0.0
C477 C 0.70791 0.80868 0.31726 0.0
C478 C 0.58118 0.76571 0.29638 0.0
C479 C 0.5937 0.77777 0.29036 0.0
C480 C 0.55266 0.76983 0.29765 0.0
C481 C 0.57743 0.79392 0.28572 0.0
C482 C 0.53713 0.78617 0.29289 0.0
N483 N 0.54973 0.79778 0.28707 0.0
C484 C 0.65078 0.72356 0.29035 0.0
C485 C 0.68278 0.75901 0.2938 0.0
C486 C 0.66521 0.71927 0.28396 0.0
N487 N 0.65967 0.74323 0.29508 0.0
C488 C 0.69781 0.75551 0.28745 0.0
C489 C 0.68881 0.73567 0.28239 0.0
H490 H 0.63212 0.71156 0.29149 0.0
H491 H 0.6891 0.77478 0.29762 0.0
C492 C 0.56233 0.82071 0.31237 0.0
N493 N 0.58332 0.81386 0.30779 0.0
C494 C 0.54941 0.84684 0.3119 0.0
C495 C 0.57988 0.85824 0.30198 0.0
C496 C 0.59227 0.83195 0.30267 0.0
C497 C 0.55829 0.8661 0.30668 0.0
H498 H 0.55604 0.80615 0.31649 0.0
H499 H 0.60935 0.82606 0.29918 0.0
O500 O 0.63839 0.71875 0.31086 0.0
O501 O 0.5956 0.75913 0.31775 0.0
O502 O 0.64377 0.78378 0.30861 0.0
O503 O 0.59684 0.75025 0.30107 0.0
H504 H 0.6204 0.67304 0.30424 0.0
H505 H 0.69348 0.72164 0.30947 0.0
H506 H 0.65081 0.63927 0.29784 0.0
H507 H 0.72259 0.68702 0.30296 0.0
H508 H 0.50715 0.73228 0.32346 0.0
H509 H 0.60748 0.73174 0.32972 0.0
H510 H 0.54093 0.75675 0.31556 0.0
H511 H 0.57253 0.70782 0.33738 0.0
H512 H 0.70652 0.72009 0.33368 0.0
H513 H 0.65808 0.79249 0.33999 0.0
H514 H 0.52201 0.66548 0.30222 0.0
H515 H 0.57186 0.63847 0.32028 0.0
H516 H 0.6307 0.83077 0.31536 0.0
H517 H 0.69755 0.77322 0.31067 0.0
H518 H 0.66394 0.85928 0.32249 0.0
H519 H 0.72961 0.80271 0.3179 0.0
H520 H 0.61578 0.77497 0.28932 0.0
H521 H 0.54269 0.7608 0.30231 0.0
H522 H 0.58686 0.80349 0.28106 0.0
H523 H 0.51507 0.78969 0.29382 0.0
H524 H 0.65769 0.70359 0.28024 0.0
H525 H 0.7156 0.76893 0.2864 0.0
H526 H 0.53322 0.85218 0.31572 0.0
H527 H 0.58722 0.87229 0.29784 0.0
Li528 Li 0.25066 0.14082 0.56509 0.0
Li529 Li 0.27124 0.10182 0.55784 0.0
Li530 Li 0.24784 0.14388 0.55238 0.0
Li531 Li 0.22099 0.10968 0.55851 0.0
C532 C 0.30177 0.15662 0.56217 0.0
N533 N 0.33976 0.18524 0.5706 0.0
C534 C 0.32427 0.14246 0.56529 0.0
C535 C 0.29876 0.1854 0.56328 0.0
C536 C 0.34322 0.15729 0.56954 0.0
C537 C 0.31812 0.19947 0.56758 0.0
C538 C 0.23213 0.08186 0.57036 0.0
C539 C 0.21695 0.035 0.57313 0.0
N540 N 0.19898 0.04549 0.5781 0.0
C541 C 0.21367 0.0922 0.57553 0.0
C542 C 0.23393 0.05306 0.56916 0.0
C543 C 0.19702 0.07346 0.57937 0.0
C544 C 0.23824 0.18227 0.57538 0.0
N545 N 0.2546 0.15975 0.57391 0.0
C546 C 0.27531 0.16184 0.58553 0.0
C547 C 0.27285 0.14933 0.57881 0.0
C548 C 0.25866 0.18516 0.5872 0.0
C549 C 0.24007 0.19549 0.58202 0.0
H550 H 0.22332 0.18958 0.57146 0.0
H551 H 0.28524 0.13108 0.57751 0.0
C552 C 0.31604 0.07691 0.55077 0.0
N553 N 0.30185 0.07724 0.55707 0.0
C554 C 0.34118 0.06228 0.5502 0.0
C555 C 0.33624 0.04813 0.56257 0.0
C556 C 0.31107 0.0629 0.56289 0.0
C557 C 0.35196 0.04821 0.5562 0.0
H558 H 0.30821 0.08878 0.54626 0.0
H559 H 0.29955 0.06407 0.56787 0.0
C560 C 0.20409 0.17183 0.55588 0.0
N561 N 0.17805 0.21445 0.5484 0.0
C562 C 0.1806 0.16617 0.55166 0.0
C563 C 0.21429 0.19921 0.5563 0.0
C564 C 0.16771 0.188 0.54793 0.0
C565 C 0.20087 0.22044 0.55247 0.0
C566 C 0.23086 0.08267 0.5461 0.0
C567 C 0.20567 0.08806 0.54255 0.0
C568 C 0.24246 0.05583 0.54584 0.0
C569 C 0.19245 0.06645 0.53881 0.0
C570 C 0.22862 0.0348 0.54203 0.0
N571 N 0.20411 0.0405 0.53863 0.0
C572 C 0.27159 0.18698 0.54381 0.0
C573 C 0.23029 0.16633 0.53919 0.0
C574 C 0.27326 0.20493 0.53792 0.0
N575 N 0.25021 0.16831 0.54435 0.0
C576 C 0.23094 0.184 0.53327 0.0
C577 C 0.25261 0.20363 0.53259 0.0
H578 H 0.28743 0.18785 0.54793 0.0
H579 H 0.21379 0.15108 0.53968 0.0
C580 C 0.16448 0.10691 0.56219 0.0
N581 N 0.18544 0.09116 0.55937 0.0
C582 C 0.13764 0.09591 0.56291 0.0
C583 C 0.15464 0.05197 0.55822 0.0
C584 C 0.18123 0.06384 0.55761 0.0
C585 C 0.1323 0.06823 0.5608 0.0
H586 H 0.1686 0.12814 0.56387 0.0
H587 H 0.19843 0.05121 0.55573 0.0
O588 O 0.28265 0.14236 0.5581 0.0
O589 O 0.24802 0.09991 0.56641 0.0
O590 O 0.21731 0.15065 0.55949 0.0
O591 O 0.24435 0.1036 0.54973 0.0
H592 H 0.32703 0.12026 0.56448 0.0
H593 H 0.28149 0.19671 0.56092 0.0
H594 H 0.36066 0.14656 0.57201 0.0
H595 H 0.31591 0.22169 0.56852 0.0
H596 H 0.21796 0.01266 0.57223 0.0
H597 H 0.212 0.11448 0.57649 0.0
H598 H 0.248 0.04479 0.56514 0.0
H599 H 0.1825 0.08114 0.58335 0.0
H600 H 0.28999 0.15333 0.58937 0.0
H601 H 0.22646 0.21306 0.58315 0.0
H602 H 0.35237 0.06256 0.54516 0.0
H603 H 0.34394 0.03794 0.56736 0.0
H604 H 0.17266 0.14509 0.55113 0.0
H605 H 0.23261 0.204 0.55946 0.0
H606 H 0.14962 0.18386 0.54461 0.0
H607 H 0.20867 0.24167 0.55272 0.0
H608 H 0.19607 0.10849 0.5428 0.0
H609 H 0.26184 0.05119 0.54857 0.0
H610 H 0.17285 0.07028 0.53609 0.0
H611 H 0.23733 0.01393 0.5418 0.0
H612 H 0.29036 0.21974 0.53755 0.0
H613 H 0.21492 0.18194 0.5292 0.0
H614 H 0.12127 0.10894 0.56514 0.0
H615 H 0.15154 0.03048 0.55657 0.0
Li616 Li 0.89695 0.77505 0.81006 0.0
Li617 Li 0.86291 0.74705 0.81651 0.0
Li618 Li 0.89837 0.72516 0.80895 0.0
Li619 Li 0.85932 0.75105 0.80377 0.0
C620 C 0.92221 0.76145 0.82192 0.0
N621 N 0.95865 0.79294 0.83011 0.0
C622 C 0.91243 0.77589 0.82793 0.0
C623 C 0.95054 0.76285 0.8201 0.0
C624 C 0.93119 0.79173 0.832 0.0
C625 C 0.96861 0.77895 0.8243 0.0
C626 C 0.83722 0.79834 0.80776 0.0
C627 C 0.78978 0.80887 0.80427 0.0
N628 N 0.79908 0.83171 0.80063 0.0
C629 C 0.84631 0.82192 0.80399 0.0
C630 C 0.80872 0.79177 0.80791 0.0
C631 C 0.82669 0.83854 0.80043 0.0
C632 C 0.93936 0.81457 0.8063 0.0
N633 N 0.91733 0.8089 0.81066 0.0
C634 C 0.9205 0.85402 0.81607 0.0
C635 C 0.90788 0.82786 0.81551 0.0
C636 C 0.94303 0.86075 0.81156 0.0
C637 C 0.95271 0.84054 0.80669 0.0
H638 H 0.9462 0.79918 0.80244 0.0
H639 H 0.89018 0.82274 0.81888 0.0
C640 C 0.85152 0.72369 0.82997 0.0
N641 N 0.84361 0.744 0.82529 0.0
C642 C 0.83858 0.72157 0.83664 0.0
C643 C 0.81001 0.76164 0.83359 0.0
C644 C 0.82335 0.76284 0.82696 0.0
C645 C 0.8177 0.74086 0.83853 0.0
H646 H 0.86818 0.70943 0.82854 0.0
H647 H 0.8179 0.77908 0.82318 0.0
C648 C 0.91643 0.74082 0.79626 0.0
N649 N 0.95064 0.71331 0.78663 0.0
C650 C 0.90506 0.72877 0.79009 0.0
C651 C 0.94521 0.73904 0.79751 0.0
C652 C 0.92271 0.71493 0.78529 0.0
C653 C 0.96214 0.72497 0.79259 0.0
C654 C 0.84216 0.69803 0.81327 0.0
C655 C 0.8545 0.67411 0.8162 0.0
C656 C 0.81382 0.70342 0.81451 0.0
C657 C 0.83828 0.65604 0.82037 0.0
C658 C 0.79834 0.68488 0.81872 0.0
N659 N 0.81079 0.66178 0.82154 0.0
C660 C 0.93986 0.6859 0.81299 0.0
C661 C 0.91405 0.67445 0.80255 0.0
C662 C 0.95342 0.66002 0.8128 0.0
N663 N 0.92043 0.69242 0.80795 0.0
C664 C 0.92731 0.64853 0.8021 0.0
C665 C 0.94686 0.64071 0.80736 0.0
H666 H 0.94399 0.70031 0.81732 0.0
H667 H 0.89795 0.6799 0.79873 0.0
C668 C 0.83893 0.77245 0.79071 0.0
N669 N 0.83468 0.75274 0.79585 0.0
C670 C 0.82218 0.77291 0.78459 0.0
C671 C 0.79692 0.73293 0.78921 0.0
C672 C 0.81405 0.73334 0.79525 0.0
C673 C 0.80118 0.75264 0.78374 0.0
H674 H 0.85585 0.78731 0.79129 0.0
H675 H 0.81139 0.71771 0.79936 0.0
O676 O 0.90407 0.7464 0.81777 0.0
O677 O 0.85614 0.7815 0.81117 0.0
O678 O 0.89948 0.75421 0.80106 0.0
O679 O 0.85778 0.71623 0.80926 0.0
H680 H 0.89055 0.77517 0.8294 0.0
H681 H 0.95841 0.75185 0.81546 0.0
H682 H 0.9239 0.80314 0.83664 0.0
H683 H 0.99056 0.78037 0.82292 0.0
H684 H 0.76769 0.80394 0.80431 0.0
H685 H 0.86829 0.82718 0.80374 0.0
H686 H 0.80134 0.77345 0.81074 0.0
H687 H 0.83344 0.85678 0.79747 0.0
H688 H 0.91263 0.86889 0.81996 0.0
H689 H 0.96985 0.84504 0.80307 0.0
H690 H 0.84538 0.70553 0.84035 0.0
H691 H 0.79393 0.77683 0.83485 0.0
H692 H 0.88283 0.72984 0.78905 0.0
H693 H 0.95432 0.74812 0.80228 0.0
H694 H 0.91419 0.70539 0.78051 0.0
H695 H 0.98442 0.72328 0.79351 0.0
H696 H 0.8764 0.66961 0.81533 0.0
H697 H 0.80398 0.72195 0.81233 0.0
H698 H 0.84759 0.63752 0.82269 0.0
H699 H 0.77645 0.68891 0.81977 0.0
H700 H 0.96793 0.65477 0.81704 0.0
H701 H 0.92183 0.63455 0.79776 0.0
H702 H 0.82645 0.78814 0.78044 0.0
H703 H 0.78088 0.71701 0.78875 0.0
Li704 Li 0.74912 0.63297 0.69161 0.0
Li705 Li 0.77316 0.5952 0.6855 0.0
Li706 Li 0.75334 0.63397 0.67855 0.0
Li707 Li 0.72462 0.59896 0.68408 0.0
C708 C 0.80984 0.63987 0.68316 0.0
N709 N 0.86324 0.64699 0.67778 0.0
C710 C 0.81835 0.62523 0.67704 0.0
C711 C 0.82852 0.6581 0.68653 0.0
C712 C 0.84543 0.6291 0.67441 0.0
C713 C 0.8554 0.66146 0.68372 0.0
C714 C 0.75637 0.57382 0.6979 0.0
C715 C 0.77067 0.52702 0.7011 0.0
N716 N 0.7816 0.53697 0.70732 0.0
C717 C 0.76742 0.5835 0.70438 0.0
C718 C 0.75769 0.54528 0.69629 0.0
C719 C 0.78019 0.56458 0.70905 0.0
C720 C 0.72203 0.66338 0.70256 0.0
N721 N 0.74731 0.65528 0.69994 0.0
C722 C 0.77092 0.67599 0.70986 0.0
C723 C 0.77156 0.6617 0.70336 0.0
C724 C 0.7451 0.68408 0.71278 0.0
C725 C 0.72044 0.67819 0.70899 0.0
H726 H 0.70308 0.65774 0.69974 0.0
H727 H 0.79129 0.6547 0.70116 0.0
C728 C 0.81181 0.554 0.68081 0.0
N729 N 0.80516 0.57172 0.68624 0.0
C730 C 0.83721 0.53958 0.68089 0.0
C731 C 0.84799 0.56131 0.69226 0.0
C732 C 0.82261 0.57562 0.6919 0.0
C733 C 0.85572 0.5434 0.68665 0.0
H734 H 0.79795 0.55193 0.67627 0.0
H735 H 0.81724 0.59063 0.69601 0.0
C736 C 0.71259 0.66789 0.68437 0.0
N737 N 0.69859 0.72398 0.68433 0.0
C738 C 0.68469 0.67605 0.68359 0.0
C739 C 0.73341 0.68825 0.68511 0.0
C740 C 0.67803 0.70451 0.68359 0.0
C741 C 0.72589 0.7165 0.68508 0.0
C742 C 0.73859 0.57419 0.67226 0.0
C743 C 0.72518 0.58237 0.66594 0.0
C744 C 0.73717 0.54627 0.67445 0.0
C745 C 0.71 0.56262 0.66202 0.0
C746 C 0.72177 0.52714 0.67039 0.0
N747 N 0.70857 0.53565 0.66432 0.0
C748 C 0.77763 0.67347 0.6685 0.0
C749 C 0.73036 0.66012 0.66681 0.0
C750 C 0.77686 0.68982 0.66231 0.0
N751 N 0.75479 0.6584 0.6705 0.0
C752 C 0.72859 0.67627 0.66062 0.0
C753 C 0.75221 0.69096 0.65821 0.0
H754 H 0.79653 0.67283 0.67164 0.0
H755 H 0.71223 0.64866 0.66866 0.0
C756 C 0.68347 0.55782 0.68706 0.0
N757 N 0.68997 0.58049 0.683 0.0
C758 C 0.65705 0.54558 0.68652 0.0
C759 C 0.64477 0.58012 0.67758 0.0
C760 C 0.67142 0.59165 0.67829 0.0
C761 C 0.6372 0.55697 0.68179 0.0
H762 H 0.69857 0.54964 0.69082 0.0
H763 H 0.67726 0.60978 0.67516 0.0
O764 O 0.78379 0.63565 0.686 0.0
O765 O 0.74401 0.59212 0.69322 0.0
O766 O 0.71934 0.64006 0.68433 0.0
O767 O 0.75299 0.59337 0.67628 0.0
H768 H 0.80421 0.61109 0.67434 0.0
H769 H 0.82233 0.66954 0.69127 0.0
H770 H 0.85228 0.61789 0.6697 0.0
H771 H 0.87007 0.67551 0.68628 0.0
H772 H 0.77203 0.50493 0.69988 0.0
H773 H 0.76621 0.60535 0.7058 0.0
H774 H 0.74892 0.53726 0.69138 0.0
H775 H 0.78898 0.57185 0.71406 0.0
H776 H 0.79032 0.68023 0.71266 0.0
H777 H 0.70018 0.6839 0.71114 0.0
H778 H 0.84257 0.526 0.67645 0.0
H779 H 0.86198 0.56517 0.69672 0.0
H780 H 0.66836 0.66052 0.68299 0.0
H781 H 0.75513 0.68238 0.6857 0.0
H782 H 0.65651 0.71113 0.68299 0.0
H783 H 0.74177 0.73247 0.68565 0.0
H784 H 0.72647 0.60367 0.66407 0.0
H785 H 0.74774 0.53945 0.67924 0.0
H786 H 0.69938 0.56873 0.65715 0.0
H787 H 0.72032 0.50552 0.67207 0.0
H788 H 0.79555 0.70087 0.66066 0.0
H789 H 0.70893 0.67716 0.65774 0.0
H790 H 0.65193 0.52799 0.68993 0.0
H791 H 0.63021 0.58932 0.67381 0.0
Li792 Li 0.35756 0.24563 0.94219 0.0
Li793 Li 0.39677 0.27309 0.93662 0.0
Li794 Li 0.36167 0.25177 0.92954 0.0
Li795 Li 0.39468 0.22212 0.93514 0.0
C796 C 0.33563 0.2965 0.93375 0.0
N797 N 0.29371 0.32571 0.92684 0.0
C798 C 0.34236 0.31834 0.92909 0.0
C799 C 0.3076 0.28963 0.93495 0.0
C800 C 0.32086 0.33281 0.92563 0.0
C801 C 0.2867 0.30464 0.9314 0.0
C802 C 0.41194 0.24494 0.9505 0.0
C803 C 0.45008 0.23183 0.95827 0.0
N804 N 0.43893 0.24785 0.96357 0.0
C805 C 0.40082 0.2612 0.95603 0.0
C806 C 0.43673 0.23006 0.95163 0.0
C807 C 0.41479 0.26243 0.9626 0.0
C808 C 0.32728 0.21593 0.95258 0.0
N809 N 0.33397 0.24194 0.95019 0.0
C810 C 0.30844 0.26312 0.95973 0.0
C811 C 0.3246 0.26534 0.95354 0.0
C812 C 0.30153 0.23652 0.96243 0.0
C813 C 0.31086 0.21271 0.95871 0.0
H814 H 0.33503 0.19773 0.94976 0.0
H815 H 0.33037 0.28574 0.95151 0.0
C816 C 0.42452 0.31979 0.93132 0.0
N817 N 0.41965 0.30548 0.93748 0.0
C818 C 0.43884 0.34521 0.93147 0.0
C819 C 0.44343 0.34046 0.9443 0.0
C820 C 0.429 0.3151 0.9439 0.0
C821 C 0.44816 0.35607 0.93804 0.0
H822 H 0.41655 0.31179 0.92629 0.0
H823 H 0.42476 0.30354 0.94873 0.0
C824 C 0.34759 0.19491 0.9302 0.0
N825 N 0.33621 0.1506 0.92115 0.0
C826 C 0.36088 0.19304 0.92355 0.0
C827 C 0.3285 0.17427 0.93225 0.0
C828 C 0.35485 0.17048 0.91905 0.0
C829 C 0.32303 0.15202 0.92759 0.0
C830 C 0.43017 0.25059 0.92594 0.0
C831 C 0.43841 0.25081 0.91877 0.0
C832 C 0.45048 0.24984 0.93133 0.0
C833 C 0.46689 0.2502 0.91709 0.0
C834 C 0.47874 0.24926 0.92943 0.0
N835 N 0.4863 0.24944 0.92241 0.0
C836 C 0.35239 0.27021 0.91551 0.0
C837 C 0.31379 0.24656 0.92073 0.0
C838 C 0.33781 0.27345 0.9091 0.0
N839 N 0.34027 0.25678 0.92112 0.0
C840 C 0.29846 0.24927 0.91441 0.0
C841 C 0.31058 0.26264 0.90848 0.0
H842 H 0.3735 0.27812 0.91601 0.0
H843 H 0.3047 0.23612 0.92531 0.0
C844 C 0.41279 0.17149 0.9407 0.0
N845 N 0.41445 0.18786 0.93477 0.0
C846 C 0.42424 0.14466 0.94067 0.0
C847 C 0.43906 0.1521 0.92844 0.0
C848 C 0.42736 0.17884 0.92871 0.0
C849 C 0.43727 0.1345 0.93445 0.0
H850 H 0.402 0.17913 0.9454 0.0
H851 H 0.42774 0.19198 0.924 0.0
O852 O 0.35637 0.28159 0.93704 0.0
O853 O 0.39834 0.24303 0.94407 0.0
O854 O 0.3532 0.2167 0.93474 0.0
O855 O 0.40229 0.25106 0.92762 0.0
H856 H 0.36396 0.32384 0.92809 0.0
H857 H 0.30206 0.27264 0.93851 0.0
H858 H 0.32575 0.34965 0.92196 0.0
H859 H 0.26492 0.29945 0.93224 0.0
H860 H 0.4693 0.22045 0.95921 0.0
H861 H 0.38187 0.27311 0.95523 0.0
H862 H 0.4456 0.21726 0.94742 0.0
H863 H 0.40648 0.27505 0.96691 0.0
H864 H 0.30227 0.28209 0.96247 0.0
H865 H 0.30577 0.19182 0.96053 0.0
H866 H 0.44165 0.35671 0.92652 0.0
H867 H 0.45052 0.34792 0.94947 0.0
H868 H 0.3757 0.20879 0.92186 0.0
H869 H 0.31804 0.17542 0.93738 0.0
H870 H 0.365 0.16876 0.91389 0.0
H871 H 0.30831 0.13588 0.92911 0.0
H872 H 0.42293 0.25135 0.91453 0.0
H873 H 0.44458 0.24985 0.9369 0.0
H874 H 0.47356 0.25031 0.91155 0.0
H875 H 0.49467 0.2487 0.93355 0.0
H876 H 0.34802 0.2836 0.90463 0.0
H877 H 0.27741 0.24094 0.91417 0.0
H878 H 0.42267 0.13192 0.94545 0.0
H879 H 0.44851 0.14494 0.92349 0.0
Li880 Li 0.75361 0.85485 0.19147 0.0
Li881 Li 0.7228 0.8899 0.18567 0.0
Li882 Li 0.75233 0.86128 0.1784 0.0
Li883 Li 0.77208 0.89568 0.18578 0.0
C884 C 0.71395 0.82415 0.18157 0.0
N885 N 0.70019 0.77536 0.17444 0.0
C886 C 0.6876 0.8212 0.17841 0.0
C887 C 0.73319 0.80216 0.18116 0.0
C888 C 0.68107 0.79639 0.17481 0.0
C889 C 0.72587 0.7777 0.17751 0.0
C890 C 0.73218 0.89558 0.20042 0.0
C891 C 0.7236 0.91462 0.21218 0.0
N892 N 0.70135 0.89712 0.21293 0.0
C893 C 0.70922 0.87775 0.20131 0.0
C894 C 0.73946 0.91413 0.20589 0.0
C895 C 0.69391 0.87887 0.20768 0.0
C896 C 0.77457 0.83905 0.20479 0.0
N897 N 0.75737 0.83051 0.19942 0.0
C898 C 0.74333 0.79056 0.2062 0.0
C899 C 0.74187 0.80678 0.2 0.0
C900 C 0.76047 0.79915 0.21191 0.0
C901 C 0.77649 0.82361 0.21111 0.0
H902 H 0.78605 0.85844 0.20425 0.0
H903 H 0.72774 0.80083 0.19576 0.0
C904 C 0.66948 0.90056 0.18044 0.0
N905 N 0.68736 0.90796 0.18577 0.0
C906 C 0.64277 0.91224 0.1801 0.0
C907 C 0.65386 0.94007 0.19053 0.0
C908 C 0.68033 0.92771 0.19069 0.0
C909 C 0.6346 0.93211 0.18523 0.0
H910 H 0.6761 0.88568 0.17643 0.0
H911 H 0.69521 0.93396 0.19474 0.0
C912 C 0.81304 0.85964 0.18395 0.0
N913 N 0.86984 0.86918 0.18265 0.0
C914 C 0.82445 0.86696 0.17732 0.0
C915 C 0.83056 0.85688 0.1899 0.0
C916 C 0.85321 0.87173 0.17677 0.0
C917 C 0.8592 0.86189 0.18914 0.0
C918 C 0.74252 0.92979 0.17645 0.0
C919 C 0.73839 0.93974 0.16949 0.0
C920 C 0.74209 0.94853 0.1822 0.0
C921 C 0.73393 0.96832 0.1684 0.0
C922 C 0.73754 0.97694 0.18089 0.0
N923 N 0.73359 0.98617 0.17407 0.0
C924 C 0.73319 0.84927 0.16465 0.0
C925 C 0.77408 0.82419 0.16791 0.0
C926 C 0.73265 0.83616 0.15798 0.0
N927 N 0.75369 0.84308 0.16943 0.0
C928 C 0.77448 0.81072 0.16129 0.0
C929 C 0.75356 0.81665 0.15621 0.0
H930 H 0.71711 0.86422 0.16607 0.0
H931 H 0.78993 0.81948 0.17186 0.0
C932 C 0.81434 0.92464 0.19307 0.0
N933 N 0.80232 0.92117 0.18654 0.0
C934 C 0.83969 0.93888 0.1937 0.0
C935 C 0.83899 0.94688 0.18091 0.0
C936 C 0.81362 0.93254 0.18054 0.0
C937 C 0.85275 0.94952 0.18753 0.0
H938 H 0.80493 0.91508 0.19774 0.0
H939 H 0.80381 0.92899 0.1754 0.0
O940 O 0.72111 0.84856 0.18495 0.0
O941 O 0.74785 0.8948 0.19428 0.0
O942 O 0.78482 0.85563 0.18464 0.0
O943 O 0.74668 0.90178 0.17754 0.0
H944 H 0.67229 0.83777 0.17875 0.0
H945 H 0.75373 0.80413 0.18355 0.0
H946 H 0.66078 0.79386 0.17233 0.0
H947 H 0.74065 0.76063 0.17711 0.0
H948 H 0.72901 0.92889 0.21646 0.0
H949 H 0.7032 0.86322 0.19716 0.0
H950 H 0.75721 0.928 0.20529 0.0
H951 H 0.67611 0.86521 0.20844 0.0
H952 H 0.73073 0.77178 0.20656 0.0
H953 H 0.78948 0.83142 0.21542 0.0
H954 H 0.62879 0.90603 0.17582 0.0
H955 H 0.64839 0.95536 0.19458 0.0
H956 H 0.81115 0.86952 0.17267 0.0
H957 H 0.82211 0.85117 0.19507 0.0
H958 H 0.86228 0.87767 0.17169 0.0
H959 H 0.87297 0.86007 0.19372 0.0
H960 H 0.73861 0.92549 0.16498 0.0
H961 H 0.74521 0.94133 0.18762 0.0
H962 H 0.7307 0.9763 0.16304 0.0
H963 H 0.73714 0.99165 0.18529 0.0
H964 H 0.71585 0.84101 0.15429 0.0
H965 H 0.79116 0.79608 0.16013 0.0
H966 H 0.84939 0.94078 0.19892 0.0
H967 H 0.84845 0.95439 0.176 0.0
Li968 Li 0.10499 0.22229 0.43559 0.0
Li969 Li 0.1391 0.25252 0.44161 0.0
Li970 Li 0.10326 0.27307 0.43426 0.0
Li971 Li 0.14176 0.24572 0.42921 0.0
C972 C 0.091 0.23913 0.44953 0.0
N973 N 0.0779 0.21472 0.46252 0.0
C974 C 0.10752 0.2174 0.45225 0.0
C975 C 0.06786 0.24844 0.45344 0.0
C976 C 0.10054 0.20536 0.45882 0.0
C977 C 0.06156 0.23581 0.45999 0.0
C978 C 0.16713 0.20079 0.43388 0.0
C979 C 0.21545 0.1958 0.43035 0.0
N980 N 0.20986 0.16966 0.42785 0.0
C981 C 0.162 0.1737 0.43138 0.0
C982 C 0.19419 0.21175 0.43346 0.0
C983 C 0.18382 0.15836 0.42832 0.0
C984 C 0.08674 0.17364 0.42923 0.0
N985 N 0.08318 0.18881 0.43531 0.0
C986 C 0.05191 0.15426 0.43998 0.0
C987 C 0.06554 0.18004 0.44058 0.0
C988 C 0.05644 0.13752 0.4339 0.0
C989 C 0.07372 0.14774 0.42842 0.0
H990 H 0.1003 0.18147 0.42504 0.0
H991 H 0.06217 0.19272 0.44527 0.0
C992 C 0.14964 0.27913 0.45467 0.0
N993 N 0.15922 0.25876 0.45023 0.0
C994 C 0.16329 0.28458 0.46112 0.0
C995 C 0.19634 0.24786 0.4583 0.0
C996 C 0.18206 0.24316 0.4519 0.0
C997 C 0.18687 0.26871 0.46303 0.0
H998 H 0.13127 0.29104 0.45321 0.0
H999 H 0.18892 0.22678 0.44832 0.0
C1000 C 0.07475 0.2423 0.4241 0.0
N1001 N 0.02074 0.23863 0.41891 0.0
C1002 C 0.07002 0.23868 0.41678 0.0
C1003 C 0.05201 0.24403 0.42879 0.0
C1004 C 0.04256 0.23688 0.41426 0.0
C1005 C 0.02487 0.24214 0.42606 0.0
C1006 C 0.15887 0.30178 0.4378 0.0
C1007 C 0.14565 0.32567 0.44049 0.0
C1008 C 0.18759 0.29818 0.43892 0.0
C1009 C 0.16123 0.34527 0.44436 0.0
C1010 C 0.20243 0.31822 0.44282 0.0
N1011 N 0.18906 0.34114 0.44545 0.0
C1012 C 0.06741 0.31641 0.43867 0.0
C1013 C 0.07826 0.31603 0.42628 0.0
C1014 C 0.05346 0.3419 0.43795 0.0
N1015 N 0.07994 0.30447 0.4329 0.0
C1016 C 0.06426 0.34136 0.42529 0.0
C1017 C 0.05226 0.35504 0.43121 0.0
H1018 H 0.06952 0.30686 0.44389 0.0
H1019 H 0.08856 0.30599 0.4218 0.0
C1020 C 0.15627 0.22326 0.41599 0.0
N1021 N 0.16446 0.24211 0.42101 0.0
C1022 C 0.17111 0.22069 0.4096 0.0
C1023 C 0.20304 0.25642 0.41379 0.0
C1024 C 0.18737 0.2585 0.42007 0.0
C1025 C 0.19469 0.23763 0.4084 0.0
H1026 H 0.13782 0.21064 0.41691 0.0
H1027 H 0.19329 0.27338 0.42415 0.0
O1028 O 0.09755 0.25168 0.44316 0.0
O1029 O 0.1459 0.21634 0.43681 0.0
O1030 O 0.10158 0.24394 0.42662 0.0
O1031 O 0.14382 0.28208 0.4341 0.0
H1032 H 0.12547 0.2098 0.44932 0.0
H1033 H 0.05487 0.26523 0.45142 0.0
H1034 H 0.11313 0.18854 0.46098 0.0
H1035 H 0.04368 0.24279 0.46306 0.0
H1036 H 0.23639 0.20422 0.42992 0.0
H1037 H 0.14151 0.16442 0.43187 0.0
H1038 H 0.19866 0.23251 0.43542 0.0
H1039 H 0.18006 0.13742 0.42634 0.0
H1040 H 0.03865 0.14716 0.44432 0.0
H1041 H 0.07729 0.13574 0.42359 0.0
H1042 H 0.15539 0.30095 0.46459 0.0
H1043 H 0.21407 0.23475 0.45964 0.0
H1044 H 0.08742 0.23725 0.41308 0.0
H1045 H 0.05521 0.24676 0.43448 0.0
H1046 H 0.03859 0.23407 0.4086 0.0
H1047 H 0.00709 0.24343 0.42963 0.0
H1048 H 0.1236 0.32907 0.43965 0.0
H1049 H 0.19831 0.28 0.43687 0.0
H1050 H 0.15118 0.36375 0.4465 0.0
H1051 H 0.22459 0.31551 0.44378 0.0
H1052 H 0.04494 0.35181 0.44268 0.0
H1053 H 0.06344 0.35043 0.41998 0.0
H1054 H 0.1636 0.20626 0.40556 0.0
H1055 H 0.22129 0.26959 0.41314 0.0
Li1056 Li 0.72041 0.89946 0.55945 0.0
Li1057 Li 0.74656 0.86657 0.56696 0.0
Li1058 Li 0.77106 0.90181 0.55967 0.0
Li1059 Li 0.74873 0.86229 0.55395 0.0
C1060 C 0.74352 0.93586 0.56949 0.0
N1061 N 0.74129 0.99206 0.5729 0.0
C1062 C 0.74333 0.94431 0.57665 0.0
C1063 C 0.74258 0.95596 0.56406 0.0
C1064 C 0.74219 0.97284 0.57827 0.0
C1065 C 0.74146 0.98427 0.56589 0.0
C1066 C 0.70691 0.83093 0.56041 0.0
C1067 C 0.71732 0.78187 0.56182 0.0
N1068 N 0.68997 0.77567 0.56058 0.0
C1069 C 0.67892 0.82411 0.55914 0.0
C1070 C 0.72629 0.80968 0.56176 0.0
C1071 C 0.67076 0.79603 0.55925 0.0
C1072 C 0.67579 0.92752 0.55259 0.0
N1073 N 0.68624 0.91888 0.55898 0.0
C1074 C 0.64497 0.93378 0.56507 0.0
C1075 C 0.67163 0.92194 0.56517 0.0
C1076 C 0.63334 0.9425 0.55853 0.0
C1077 C 0.64924 0.93965 0.55224 0.0
H1078 H 0.68775 0.92428 0.54774 0.0
H1079 H 0.68049 0.91458 0.57016 0.0
C1080 C 0.77168 0.84624 0.57938 0.0
N1081 N 0.74693 0.84806 0.57583 0.0
C1082 C 0.77283 0.83388 0.58613 0.0
C1083 C 0.72296 0.8255 0.58543 0.0
C1084 C 0.72277 0.83816 0.5787 0.0
C1085 C 0.74822 0.8234 0.58925 0.0
H1086 H 0.79046 0.85467 0.57697 0.0
H1087 H 0.70331 0.84042 0.57581 0.0
C1088 C 0.7574 0.91345 0.54509 0.0
N1089 N 0.78059 0.93609 0.53283 0.0
C1090 C 0.77799 0.8988 0.54132 0.0
C1091 C 0.74834 0.93946 0.54256 0.0
C1092 C 0.78952 0.91064 0.53515 0.0
C1093 C 0.7604 0.9506 0.53637 0.0
C1094 C 0.8043 0.84842 0.55948 0.0
C1095 C 0.82322 0.85981 0.55457 0.0
C1096 C 0.81097 0.82349 0.563 0.0
C1097 C 0.84828 0.84579 0.55317 0.0
C1098 C 0.83623 0.81008 0.56145 0.0
N1099 N 0.8542 0.82141 0.55661 0.0
C1100 C 0.82084 0.91829 0.56561 0.0
C1101 C 0.81041 0.94459 0.55518 0.0
C1102 C 0.84663 0.9316 0.56629 0.0
N1103 N 0.80359 0.92458 0.56005 0.0
C1104 C 0.8361 0.95843 0.55565 0.0
C1105 C 0.85479 0.95164 0.56121 0.0
H1106 H 0.81471 0.9024 0.56943 0.0
H1107 H 0.79629 0.94953 0.55087 0.0
C1108 C 0.732 0.84259 0.54063 0.0
N1109 N 0.74938 0.83667 0.54619 0.0
C1110 C 0.7321 0.82585 0.53452 0.0
C1111 C 0.76733 0.79668 0.54005 0.0
C1112 C 0.76646 0.81393 0.54608 0.0
C1113 C 0.75028 0.80282 0.53413 0.0
H1114 H 0.71854 0.86076 0.54091 0.0
H1115 H 0.77961 0.80928 0.55062 0.0
O1116 O 0.74469 0.90799 0.56784 0.0
O1117 O 0.71521 0.85831 0.56025 0.0
O1118 O 0.74568 0.90228 0.55114 0.0
O1119 O 0.7797 0.86187 0.56099 0.0
H1120 H 0.74407 0.92897 0.58091 0.0
H1121 H 0.74273 0.9498 0.5585 0.0
H1122 H 0.74203 0.9797 0.58379 0.0
H1123 H 0.74074 6e-05 0.56174 0.0
H1124 H 0.7321 0.76521 0.56285 0.0
H1125 H 0.66369 0.84035 0.55807 0.0
H1126 H 0.74801 0.81459 0.56273 0.0
H1127 H 0.64916 0.79043 0.55828 0.0
H1128 H 0.63347 0.93586 0.57004 0.0
H1129 H 0.64086 0.9458 0.54709 0.0
H1130 H 0.79274 0.83246 0.58888 0.0
H1131 H 0.70348 0.81804 0.5877 0.0
H1132 H 0.78488 0.87844 0.54309 0.0
H1133 H 0.7323 0.95105 0.54538 0.0
H1134 H 0.80552 0.89954 0.5322 0.0
H1135 H 0.75371 0.97078 0.53439 0.0
H1136 H 0.81885 0.87941 0.55192 0.0
H1137 H 0.79675 0.81449 0.56688 0.0
H1138 H 0.86308 0.85437 0.54938 0.0
H1139 H 0.84157 0.79069 0.56411 0.0
H1140 H 0.86011 0.92609 0.57074 0.0
H1141 H 0.84159 0.97363 0.55159 0.0
H1142 H 0.71884 0.83149 0.53004 0.0
H1143 H 0.78138 0.77889 0.53999 0.0
Li1144 Li 0.13822 0.25374 0.81689 0.0
Li1145 Li 0.10299 0.22523 0.81116 0.0
Li1146 Li 0.13636 0.25007 0.80372 0.0
Li1147 Li 0.10127 0.27454 0.81029 0.0
C1148 C 0.17117 0.21169 0.81032 0.0
N1149 N 0.22635 0.19502 0.80922 0.0
C1150 C 0.17791 0.18325 0.81014 0.0
C1151 C 0.19249 0.23168 0.80992 0.0
C1152 C 0.20594 0.17524 0.80959 0.0
C1153 C 0.22026 0.22281 0.80937 0.0
C1154 C 0.09416 0.23824 0.82544 0.0
C1155 C 0.07299 0.23464 0.83713 0.0
N1156 N 0.0872 0.2104 0.83829 0.0
C1157 C 0.10856 0.21327 0.82675 0.0
C1158 C 0.07625 0.24903 0.83067 0.0
C1159 C 0.10475 0.19952 0.83328 0.0
C1160 C 0.15693 0.28057 0.82923 0.0
N1161 N 0.16031 0.25691 0.82529 0.0
C1162 C 0.18962 0.23701 0.8343 0.0
C1163 C 0.1762 0.23526 0.82769 0.0
C1164 C 0.18634 0.26112 0.83852 0.0
C1165 C 0.17 0.28324 0.83588 0.0
H1166 H 0.14319 0.29691 0.82733 0.0
H1167 H 0.17771 0.21618 0.82463 0.0
C1168 C 0.09466 0.17005 0.80753 0.0
N1169 N 0.08344 0.19087 0.81156 0.0
C1170 C 0.08296 0.14337 0.80764 0.0
C1171 C 0.04791 0.1602 0.81594 0.0
C1172 C 0.06029 0.18666 0.81565 0.0
C1173 C 0.05946 0.13806 0.81195 0.0
H1174 H 0.11289 0.1742 0.80427 0.0
H1175 H 0.0517 0.20368 0.81877 0.0
C1176 C 0.14088 0.31121 0.80767 0.0
N1177 N 0.13602 0.3668 0.80378 0.0
C1178 C 0.13156 0.31838 0.80082 0.0
C1179 C 0.14799 0.33232 0.81252 0.0
C1180 C 0.12921 0.34659 0.79895 0.0
C1181 C 0.1453 0.3603 0.81046 0.0
C1182 C 0.06761 0.2451 0.80069 0.0
C1183 C 0.05956 0.24 0.79362 0.0
C1184 C 0.04718 0.24751 0.80602 0.0
C1185 C 0.03115 0.23744 0.79198 0.0
C1186 C 0.019 0.24481 0.80417 0.0
N1187 N 0.01163 0.23988 0.79724 0.0
C1188 C 0.15526 0.22104 0.79185 0.0
C1189 C 0.1744 0.26666 0.79274 0.0
C1190 C 0.1696 0.21631 0.78547 0.0
N1191 N 0.15759 0.24601 0.79527 0.0
C1192 C 0.18871 0.26305 0.78629 0.0
C1193 C 0.18617 0.23769 0.7825 0.0
H1194 H 0.14206 0.20485 0.79409 0.0
H1195 H 0.1764 0.28608 0.79565 0.0
C1196 C 0.07866 0.32227 0.8165 0.0
N1197 N 0.07836 0.3071 0.81034 0.0
C1198 C 0.06608 0.34858 0.81673 0.0
C1199 C 0.05191 0.34255 0.80439 0.0
C1200 C 0.06501 0.31644 0.80437 0.0
C1201 C 0.05291 0.35919 0.81059 0.0
H1202 H 0.08974 0.31438 0.82113 0.0
H1203 H 0.06566 0.30426 0.7995 0.0
O1204 O 0.14376 0.21975 0.81076 0.0
O1205 O 0.09768 0.25244 0.81914 0.0
O1206 O 0.14248 0.28368 0.80966 0.0
O1207 O 0.09541 0.24746 0.80234 0.0
H1208 H 0.16165 0.16753 0.81042 0.0
H1209 H 0.18773 0.25378 0.81004 0.0
H1210 H 0.21147 0.15329 0.80945 0.0
H1211 H 0.23696 0.23804 0.80906 0.0
H1212 H 0.0592 0.24277 0.84123 0.0
H1213 H 0.12252 0.20453 0.82279 0.0
H1214 H 0.06502 0.26837 0.82975 0.0
H1215 H 0.11577 0.1802 0.83436 0.0
H1216 H 0.20209 0.2195 0.83614 0.0
H1217 H 0.16646 0.30194 0.83903 0.0
H1218 H 0.09219 0.12709 0.80437 0.0
H1219 H 0.0299 0.15698 0.81936 0.0
H1220 H 0.12562 0.3023 0.79702 0.0
H1221 H 0.15543 0.32721 0.81783 0.0
H1222 H 0.12176 0.35242 0.79369 0.0
H1223 H 0.15057 0.37686 0.81417 0.0
H1224 H 0.07513 0.23802 0.78944 0.0
H1225 H 0.05292 0.25149 0.81152 0.0
H1226 H 0.02462 0.2335 0.78653 0.0
H1227 H 0.00298 0.24665 0.80823 0.0
H1228 H 0.16748 0.19618 0.78286 0.0
H1229 H 0.20091 0.28031 0.78421 0.0
H1230 H 0.0671 0.36071 0.82163 0.0
H1231 H 0.04227 0.35018 0.79952 0.0
Li1232 Li 0.75506 0.63511 0.06537 0.0
Li1233 Li 0.77793 0.60111 0.058 0.0
Li1234 Li 0.75166 0.64099 0.05282 0.0
Li1235 Li 0.72539 0.60307 0.05852 0.0
C1236 C 0.80488 0.65812 0.06205 0.0
N1237 N 0.84261 0.6919 0.06919 0.0
C1238 C 0.82956 0.64676 0.06482 0.0
C1239 C 0.79955 0.68671 0.06284 0.0
C1240 C 0.84834 0.66418 0.06843 0.0
C1241 C 0.81882 0.70342 0.06649 0.0
C1242 C 0.75873 0.58881 0.07328 0.0
C1243 C 0.74335 0.58353 0.08552 0.0
N1244 N 0.77044 0.58122 0.08766 0.0
C1245 C 0.78643 0.58637 0.07561 0.0
C1246 C 0.737 0.58731 0.07828 0.0
C1247 C 0.79192 0.58251 0.08289 0.0
C1248 C 0.73311 0.66854 0.07638 0.0
N1249 N 0.75655 0.65459 0.07431 0.0
C1250 C 0.7798 0.66728 0.08517 0.0
C1251 C 0.77967 0.65378 0.07855 0.0
C1252 C 0.75592 0.68186 0.08743 0.0
C1253 C 0.73239 0.68255 0.08294 0.0
H1254 H 0.71481 0.66849 0.07299 0.0
H1255 H 0.79798 0.64239 0.07687 0.0
C1256 C 0.82977 0.58872 0.05218 0.0
N1257 N 0.80978 0.57834 0.05661 0.0
C1258 C 0.85562 0.57542 0.05163 0.0
C1259 C 0.8392 0.54009 0.05989 0.0
C1260 C 0.81355 0.554 0.06024 0.0
C1261 C 0.86093 0.55127 0.0557 0.0
H1262 H 0.82597 0.60801 0.04931 0.0
H1263 H 0.7971 0.5461 0.06367 0.0
C1264 C 0.70406 0.66417 0.05741 0.0
N1265 N 0.67017 0.70607 0.05205 0.0
C1266 C 0.67883 0.65745 0.05403 0.0
C1267 C 0.71187 0.69221 0.05814 0.0
C1268 C 0.66203 0.67894 0.05134 0.0
C1269 C 0.69452 0.71308 0.05537 0.0
C1270 C 0.75083 0.57551 0.04659 0.0
C1271 C 0.75296 0.57377 0.03914 0.0
C1272 C 0.74993 0.55101 0.05067 0.0
C1273 C 0.75395 0.54745 0.03588 0.0
C1274 C 0.75099 0.5251 0.04722 0.0
N1275 N 0.75295 0.52387 0.03996 0.0
C1276 C 0.77257 0.68378 0.04378 0.0
C1277 C 0.72789 0.6659 0.04067 0.0
C1278 C 0.77198 0.70207 0.03795 0.0
N1279 N 0.75064 0.66632 0.04503 0.0
C1280 C 0.72613 0.68424 0.03489 0.0
C1281 C 0.74842 0.7025 0.03348 0.0
H1282 H 0.79066 0.68325 0.04725 0.0
H1283 H 0.71121 0.65113 0.04166 0.0
C1284 C 0.6736 0.58752 0.06409 0.0
N1285 N 0.69048 0.58383 0.05831 0.0
C1286 C 0.6468 0.57597 0.06421 0.0
C1287 C 0.65499 0.55729 0.05236 0.0
C1288 C 0.68159 0.56935 0.05246 0.0
C1289 C 0.63717 0.56066 0.05828 0.0
H1290 H 0.68069 0.60016 0.06853 0.0
H1291 H 0.6947 0.56776 0.04778 0.0
O1292 O 0.78629 0.64143 0.05847 0.0
O1293 O 0.75296 0.59281 0.06617 0.0
O1294 O 0.72095 0.64343 0.06002 0.0
O1295 O 0.7503 0.60112 0.04985 0.0
H1296 H 0.83404 0.62468 0.06429 0.0
H1297 H 0.78071 0.69589 0.06066 0.0
H1298 H 0.86743 0.65563 0.07065 0.0
H1299 H 0.81489 0.72555 0.06717 0.0
H1300 H 0.72672 0.58244 0.08944 0.0
H1301 H 0.80359 0.58818 0.07188 0.0
H1302 H 0.71547 0.58915 0.0766 0.0
H1303 H 0.81328 0.58081 0.08477 0.0
H1304 H 0.79843 0.66642 0.08846 0.0
H1305 H 0.71344 0.69328 0.08454 0.0
H1306 H 0.87153 0.58441 0.0482 0.0
H1307 H 0.84237 0.5216 0.06314 0.0
H1308 H 0.67242 0.63588 0.05342 0.0
H1309 H 0.73116 0.69777 0.06081 0.0
H1310 H 0.64254 0.67404 0.04867 0.0
H1311 H 0.70039 0.73486 0.05587 0.0
H1312 H 0.75385 0.59257 0.03591 0.0
H1313 H 0.74832 0.55197 0.05645 0.0
H1314 H 0.75555 0.54577 0.03012 0.0
H1315 H 0.75026 0.50597 0.05031 0.0
H1316 H 0.78964 0.71573 0.03694 0.0
H1317 H 0.7079 0.68364 0.03145 0.0
H1318 H 0.63371 0.57911 0.06887 0.0
H1319 H 0.64813 0.54621 0.04762 0.0
Li1320 Li 0.3608 0.25597 0.31595 0.0
Li1321 Li 0.3946 0.28135 0.30952 0.0
Li1322 Li 0.3566 0.25767 0.30301 0.0
Li1323 Li 0.39487 0.2292 0.30947 0.0
C1324 C 0.33898 0.31142 0.31169 0.0
N1325 N 0.30749 0.35748 0.31562 0.0
C1326 C 0.35095 0.3328 0.31579 0.0
C1327 C 0.31104 0.31366 0.30953 0.0
C1328 C 0.33467 0.35586 0.31774 0.0
C1329 C 0.29546 0.33704 0.31159 0.0
C1330 C 0.40505 0.25677 0.3247 0.0
C1331 C 0.41633 0.2355 0.33605 0.0
N1332 N 0.40872 0.25949 0.33945 0.0
C1333 C 0.39777 0.28134 0.3283 0.0
C1334 C 0.41476 0.23376 0.32859 0.0
C1335 C 0.39959 0.28225 0.33576 0.0
C1336 C 0.34386 0.22944 0.3285 0.0
N1337 N 0.33984 0.25326 0.32466 0.0
C1338 C 0.30964 0.27146 0.33371 0.0
C1339 C 0.32283 0.27398 0.32709 0.0
C1340 C 0.31408 0.24745 0.33789 0.0
C1341 C 0.33121 0.22609 0.33517 0.0
H1342 H 0.35751 0.21327 0.32645 0.0
H1343 H 0.31966 0.29265 0.32398 0.0
C1344 C 0.40819 0.33423 0.30437 0.0
N1345 N 0.41629 0.31437 0.30914 0.0
C1346 C 0.42144 0.36018 0.30425 0.0
C1347 C 0.45137 0.34463 0.31391 0.0
C1348 C 0.43762 0.31884 0.31381 0.0
C1349 C 0.44305 0.36579 0.30914 0.0
H1350 H 0.39082 0.33014 0.30081 0.0
H1351 H 0.44346 0.30264 0.31757 0.0
C1352 C 0.32867 0.21277 0.31142 0.0
N1353 N 0.2784 0.19012 0.31586 0.0
C1354 C 0.32785 0.18587 0.31435 0.0
C1355 C 0.30392 0.22804 0.31069 0.0
C1356 C 0.30222 0.17481 0.31658 0.0
C1357 C 0.27871 0.21627 0.31298 0.0
C1358 C 0.41776 0.26858 0.29717 0.0
C1359 C 0.41048 0.28432 0.29114 0.0
C1360 C 0.44567 0.26739 0.29937 0.0
C1361 C 0.43133 0.29882 0.28744 0.0
C1362 C 0.4659 0.28221 0.29553 0.0
N1363 N 0.45836 0.2975 0.28969 0.0
C1364 C 0.32641 0.2844 0.2921 0.0
C1365 C 0.32457 0.2348 0.29191 0.0
C1366 C 0.31037 0.28586 0.28586 0.0
N1367 N 0.33325 0.25914 0.29493 0.0
C1368 C 0.30865 0.23526 0.28566 0.0
C1369 C 0.3016 0.26104 0.2825 0.0
H1370 H 0.33388 0.30338 0.29461 0.0
H1371 H 0.33061 0.21505 0.29428 0.0
C1372 C 0.40947 0.17619 0.31432 0.0
N1373 N 0.41509 0.19527 0.30913 0.0
C1374 C 0.42186 0.1498 0.31412 0.0
C1375 C 0.446 0.16332 0.30327 0.0
C1376 C 0.43302 0.18949 0.30367 0.0
C1377 C 0.44017 0.14297 0.3085 0.0
H1378 H 0.39497 0.18137 0.31856 0.0
H1379 H 0.43674 0.20494 0.29955 0.0
O1380 O 0.35457 0.28871 0.30968 0.0
O1381 O 0.40273 0.25523 0.3174 0.0
O1382 O 0.35358 0.22421 0.30931 0.0
O1383 O 0.39757 0.25485 0.30097 0.0
H1384 H 0.37257 0.33175 0.31744 0.0
H1385 H 0.30144 0.29753 0.3063 0.0
H1386 H 0.34368 0.3725 0.32092 0.0
H1387 H 0.27381 0.33897 0.30998 0.0
H1388 H 0.4236 0.21777 0.33914 0.0
H1389 H 0.39044 0.29938 0.32537 0.0
H1390 H 0.42094 0.21473 0.3259 0.0
H1391 H 0.3937 0.30105 0.33862 0.0
H1392 H 0.29619 0.28823 0.33555 0.0
H1393 H 0.33549 0.20735 0.33824 0.0
H1394 H 0.41409 0.37605 0.30056 0.0
H1395 H 0.46807 0.34811 0.31773 0.0
H1396 H 0.34676 0.17366 0.31491 0.0
H1397 H 0.30422 0.24882 0.30842 0.0
H1398 H 0.30128 0.15406 0.31888 0.0
H1399 H 0.25941 0.22793 0.31248 0.0
H1400 H 0.38894 0.28548 0.28938 0.0
H1401 H 0.45156 0.25544 0.30406 0.0
H1402 H 0.42601 0.31119 0.28278 0.0
H1403 H 0.48756 0.28164 0.2972 0.0
H1404 H 0.30524 0.30617 0.28366 0.0
H1405 H 0.30287 0.21559 0.28318 0.0
H1406 H 0.41706 0.13485 0.3183 0.0
H1407 H 0.45974 0.15878 0.29881 0.0
H1408 H 0.2701 0.33179 0.10014 0.0
H1409 H 0.26803 0.30914 0.11184 0.0
H1410 H 0.24427 0.23142 0.10178 0.0
H1411 H 0.24675 0.25381 0.09001 0.0
H1412 H 0.2105 0.24491 0.11315 0.0
H1413 H 0.30881 0.23867 0.10826 0.0
H1414 H 0.35543 0.25655 0.10494 0.0
H1415 H 0.35485 0.31122 0.12319 0.0
H1416 H 0.30802 0.29396 0.12657 0.0
H1417 H 0.22872 0.15695 0.14348 0.0
H1418 H 0.23108 0.17901 0.13169 0.0
H1419 H 0.25773 0.25636 0.14147 0.0
H1420 H 0.25526 0.23447 0.1533 0.0
H1421 H 0.29015 0.24276 0.13018 0.0
H1422 H 0.19201 0.24966 0.13506 0.0
H1423 H 0.14519 0.23241 0.13841 0.0
H1424 H 0.14512 0.17729 0.12024 0.0
H1425 H 0.19214 0.19392 0.11684 0.0
C1426 C 0.26495 0.30975 0.10039 0.0
C1427 C 0.25867 0.29457 0.09414 0.0
C1428 C 0.26366 0.29688 0.10709 0.0
C1429 C 0.25615 0.26859 0.10766 0.0
C1430 C 0.25003 0.25331 0.10144 0.0
C1431 C 0.25139 0.26614 0.09473 0.0
C1432 C 0.25391 0.25522 0.11477 0.0
C1433 C 0.22801 0.24403 0.11684 0.0
C1434 C 0.27659 0.25483 0.11963 0.0
C1435 C 0.30478 0.26521 0.11763 0.0
C1436 C 0.31852 0.25468 0.11153 0.0
C1437 C 0.345 0.26467 0.10965 0.0
C1438 C 0.35806 0.28506 0.11384 0.0
C1439 C 0.34469 0.29545 0.11994 0.0
C1440 C 0.31819 0.28555 0.12185 0.0
C1441 C 0.23464 0.17879 0.14313 0.0
C1442 C 0.24175 0.19401 0.14931 0.0
C1443 C 0.23606 0.19133 0.13639 0.0
C1444 C 0.2444 0.21936 0.13572 0.0
C1445 C 0.25132 0.23467 0.14188 0.0
C1446 C 0.24994 0.22214 0.14862 0.0
C1447 C 0.24671 0.23245 0.12857 0.0
C1448 C 0.27263 0.24359 0.12649 0.0
C1449 C 0.22402 0.23287 0.12371 0.0
C1450 C 0.19572 0.22284 0.12573 0.0
C1451 C 0.18212 0.23368 0.13181 0.0
C1452 C 0.15552 0.22405 0.13371 0.0
C1453 C 0.14222 0.20371 0.12955 0.0
C1454 C 0.15546 0.19301 0.12347 0.0
C1455 C 0.18208 0.20255 0.12155 0.0
H1456 H 0.12162 0.19629 0.13103 0.0
H1457 H 0.37857 0.29276 0.11237 0.0
H1458 H 0.83606 0.73305 0.39428 0.0
H1459 H 0.81389 0.73558 0.38254 0.0
H1460 H 0.73361 0.74843 0.39258 0.0
H1461 H 0.75551 0.74475 0.40439 0.0
H1462 H 0.72965 0.71262 0.38151 0.0
H1463 H 0.76977 0.80319 0.38557 0.0
H1464 H 0.80725 0.83664 0.38858 0.0
H1465 H 0.85514 0.80849 0.3705 0.0
H1466 H 0.8181 0.77457 0.36744 0.0
H1467 H 0.65901 0.76317 0.35077 0.0
H1468 H 0.68052 0.76031 0.36262 0.0
H1469 H 0.76076 0.7442 0.35288 0.0
H1470 H 0.7395 0.74774 0.34099 0.0
H1471 H 0.76427 0.78203 0.36384 0.0
H1472 H 0.72388 0.69125 0.35985 0.0
H1473 H 0.68608 0.65813 0.35686 0.0
H1474 H 0.63823 0.68727 0.37484 0.0
H1475 H 0.6756 0.72087 0.37788 0.0
C1476 C 0.81362 0.73594 0.39401 0.0
C1477 C 0.79755 0.73874 0.40028 0.0
C1478 C 0.80103 0.73772 0.38728 0.0
C1479 C 0.77219 0.74265 0.38669 0.0
C1480 C 0.75594 0.74478 0.39292 0.0
C1481 C 0.76851 0.7429 0.39966 0.0
C1482 C 0.75909 0.74588 0.37955 0.0
C1483 C 0.73695 0.72806 0.37768 0.0
C1484 C 0.76902 0.76566 0.37451 0.0
C1485 C 0.79127 0.78616 0.37632 0.0
C1486 C 0.78838 0.80399 0.38227 0.0
C1487 C 0.80954 0.82306 0.38398 0.0
C1488 C 0.83359 0.82464 0.37974 0.0
C1489 C 0.83651 0.80721 0.37378 0.0
C1490 C 0.81543 0.78808 0.37205 0.0
C1491 C 0.6813 0.75939 0.35115 0.0
C1492 C 0.69758 0.75565 0.34495 0.0
C1493 C 0.69349 0.75749 0.35792 0.0
C1494 C 0.72214 0.7517 0.35862 0.0
C1495 C 0.73858 0.74856 0.35245 0.0
C1496 C 0.72639 0.7504 0.34567 0.0
C1497 C 0.73491 0.74873 0.3658 0.0
C1498 C 0.75697 0.76662 0.36767 0.0
C1499 C 0.72485 0.72908 0.37084 0.0
C1500 C 0.70242 0.70877 0.36905 0.0
C1501 C 0.70521 0.69075 0.36314 0.0
C1502 C 0.68388 0.67187 0.36144 0.0
C1503 C 0.65974 0.67065 0.36565 0.0
C1504 C 0.65692 0.68827 0.37158 0.0
C1505 C 0.67818 0.70722 0.3733 0.0
H1506 H 0.64325 0.65601 0.36432 0.0
H1507 H 0.84995 0.83942 0.38108 0.0
H1508 H 0.25914 0.24081 0.59057 0.0
H1509 H 0.25823 0.26185 0.60251 0.0
H1510 H 0.25994 0.17963 0.61205 0.0
H1511 H 0.26021 0.15844 0.60012 0.0
H1512 H 0.21988 0.21302 0.61796 0.0
H1513 H 0.31758 0.21958 0.61227 0.0
H1514 H 0.35849 0.23223 0.60491 0.0
H1515 H 0.33559 0.31899 0.60613 0.0
H1516 H 0.2943 0.30681 0.61342 0.0
H1517 H 0.24605 0.25638 0.65368 0.0
H1518 H 0.24894 0.23451 0.64187 0.0
H1519 H 0.25163 0.31606 0.63198 0.0
H1520 H 0.24996 0.33807 0.64378 0.0
H1521 H 0.28997 0.28239 0.62628 0.0
H1522 H 0.19205 0.27631 0.6317 0.0
H1523 H 0.15066 0.26419 0.63895 0.0
H1524 H 0.17325 0.17728 0.63809 0.0
H1525 H 0.21501 0.18894 0.63092 0.0
C1526 C 0.25931 0.22724 0.59521 0.0
C1527 C 0.25977 0.19799 0.59442 0.0
C1528 C 0.259 0.23927 0.60202 0.0
C1529 C 0.25922 0.22227 0.60815 0.0
C1530 C 0.25984 0.19308 0.60737 0.0
C1531 C 0.26023 0.18103 0.60057 0.0
C1532 C 0.25793 0.23494 0.61537 0.0
C1533 C 0.23542 0.22787 0.61983 0.0
C1534 C 0.27782 0.25485 0.6177 0.0
C1535 C 0.30269 0.26224 0.61334 0.0
C1536 C 0.32114 0.24133 0.61092 0.0
C1537 C 0.34442 0.24842 0.60677 0.0
C1538 C 0.34959 0.27639 0.60504 0.0
C1539 C 0.33153 0.29733 0.60747 0.0
C1540 C 0.3082 0.29035 0.61162 0.0
C1541 C 0.24743 0.26966 0.64899 0.0
C1542 C 0.24773 0.29896 0.64966 0.0
C1543 C 0.24881 0.25714 0.64225 0.0
C1544 C 0.2502 0.27368 0.63605 0.0
C1545 C 0.25048 0.30292 0.6367 0.0
C1546 C 0.24923 0.31546 0.64344 0.0
C1547 C 0.25187 0.26052 0.62888 0.0
C1548 C 0.27444 0.2675 0.62442 0.0
C1549 C 0.23196 0.24061 0.62654 0.0
C1550 C 0.20681 0.23354 0.63083 0.0
C1551 C 0.18831 0.25464 0.6331 0.0
C1552 C 0.16477 0.24785 0.63719 0.0
C1553 C 0.15937 0.21999 0.63899 0.0
C1554 C 0.17747 0.19886 0.6367 0.0
C1555 C 0.20107 0.20554 0.63262 0.0
H1556 H 0.14112 0.21478 0.64215 0.0
H1557 H 0.36763 0.28184 0.60182 0.0
H1558 H 0.8081 0.78464 0.84755 0.0
H1559 H 0.78752 0.78314 0.85953 0.0
H1560 H 0.77796 0.69363 0.85777 0.0
H1561 H 0.79825 0.69503 0.84572 0.0
H1562 H 0.73054 0.7205 0.86308 0.0
H1563 H 0.82929 0.71808 0.86763 0.0
H1564 H 0.87811 0.73421 0.86655 0.0
H1565 H 0.8556 0.81332 0.87582 0.0
H1566 H 0.80653 0.79781 0.87685 0.0
H1567 H 0.69698 0.69848 0.89951 0.0
H1568 H 0.72043 0.69607 0.88792 0.0
H1569 H 0.73946 0.78419 0.88919 0.0
H1570 H 0.71717 0.78652 0.90095 0.0
H1571 H 0.78309 0.7558 0.88416 0.0
H1572 H 0.68461 0.76001 0.87912 0.0
H1573 H 0.63529 0.74528 0.88001 0.0
H1574 H 0.65655 0.66456 0.87149 0.0
H1575 H 0.7061 0.67869 0.87064 0.0
C1576 C 0.80138 0.76468 0.84969 0.0
C1577 C 0.80475 0.73994 0.84571 0.0
C1578 C 0.78987 0.76383 0.85655 0.0
C1579 C 0.78152 0.73824 0.85954 0.0
C1580 C 0.78441 0.71355 0.85555 0.0
C1581 C 0.79611 0.71436 0.8487 0.0
C1582 C 0.76963 0.73739 0.86684 0.0
C1583 C 0.74214 0.72778 0.86772 0.0
C1584 C 0.78464 0.74754 0.87283 0.0
C1585 C 0.81418 0.75686 0.87226 0.0
C1586 C 0.8347 0.739 0.86938 0.0
C1587 C 0.86243 0.74801 0.86879 0.0
C1588 C 0.86994 0.77479 0.8711 0.0
C1589 C 0.84975 0.79259 0.87402 0.0
C1590 C 0.82198 0.78369 0.87462 0.0
C1591 C 0.70655 0.71726 0.89738 0.0
C1592 C 0.7051 0.74274 0.90114 0.0
C1593 C 0.71967 0.7159 0.89072 0.0
C1594 C 0.73128 0.74005 0.88764 0.0
C1595 C 0.73049 0.76534 0.89145 0.0
C1596 C 0.71752 0.76669 0.89814 0.0
C1597 C 0.74386 0.73908 0.88041 0.0
C1598 C 0.7715 0.74836 0.87953 0.0
C1599 C 0.7289 0.72882 0.87441 0.0
C1600 C 0.69911 0.72031 0.87489 0.0
C1601 C 0.67881 0.73904 0.87749 0.0
C1602 C 0.65081 0.73082 0.87798 0.0
C1603 C 0.64281 0.70397 0.87583 0.0
C1604 C 0.66279 0.68533 0.87316 0.0
C1605 C 0.69083 0.69344 0.87267 0.0
H1606 H 0.62111 0.69764 0.87621 0.0
H1607 H 0.89142 0.78174 0.87064 0.0
H1608 H 0.77539 0.84287 0.6011 0.0
H1609 H 0.77606 0.82224 0.61308 0.0
H1610 H 0.72299 0.75507 0.60572 0.0
H1611 H 0.72211 0.77571 0.59374 0.0
H1612 H 0.70548 0.77467 0.61833 0.0
H1613 H 0.79325 0.74541 0.60824 0.0
H1614 H 0.83902 0.752 0.60239 0.0
H1615 H 0.86643 0.80325 0.61993 0.0
H1616 H 0.82066 0.79728 0.62585 0.0
H1617 H 0.72715 0.67508 0.64572 0.0
H1618 H 0.72599 0.70037 0.63439 0.0
H1619 H 0.77471 0.76705 0.64372 0.0
H1620 H 0.77558 0.74206 0.65516 0.0
H1621 H 0.79451 0.75039 0.63052 0.0
H1622 H 0.70688 0.77715 0.64088 0.0
H1623 H 0.66122 0.76937 0.64669 0.0
H1624 H 0.6336 0.72151 0.62855 0.0
H1625 H 0.67926 0.72866 0.62267 0.0
C1626 C 0.76408 0.82357 0.60203 0.0
C1627 C 0.7488 0.81081 0.59649 0.0
C1628 C 0.76445 0.81184 0.60887 0.0
C1629 C 0.74982 0.78697 0.61027 0.0
C1630 C 0.73438 0.7743 0.60476 0.0
C1631 C 0.73387 0.78611 0.59792 0.0
C1632 C 0.75043 0.7742 0.61749 0.0
C1633 C 0.72493 0.76907 0.62097 0.0
C1634 C 0.77586 0.7676 0.62099 0.0
C1635 C 0.80342 0.77115 0.61745 0.0
C1636 C 0.80896 0.75828 0.61082 0.0
C1637 C 0.83491 0.76186 0.6075 0.0
C1638 C 0.85559 0.7781 0.61077 0.0
C1639 C 0.85038 0.79072 0.61739 0.0
C1640 C 0.82444 0.78723 0.62074 0.0
C1641 C 0.73726 0.69533 0.64541 0.0
C1642 C 0.7513 0.70665 0.65136 0.0
C1643 C 0.73665 0.70969 0.63892 0.0
C1644 C 0.75002 0.73568 0.63825 0.0
C1645 C 0.76426 0.747 0.64414 0.0
C1646 C 0.76481 0.73266 0.65066 0.0
C1647 C 0.74956 0.75062 0.63132 0.0
C1648 C 0.77508 0.75617 0.6279 0.0
C1649 C 0.72415 0.75747 0.62786 0.0
C1650 C 0.69659 0.75325 0.63136 0.0
C1651 C 0.69115 0.76478 0.63815 0.0
C1652 C 0.66525 0.76052 0.64146 0.0
C1653 C 0.64454 0.7449 0.638 0.0
C1654 C 0.64967 0.73358 0.63123 0.0
C1655 C 0.67555 0.73776 0.6279 0.0
H1656 H 0.62451 0.74162 0.64057 0.0
H1657 H 0.87568 0.78085 0.60819 0.0
H1658 H 0.30728 0.30714 0.89929 0.0
H1659 H 0.28493 0.30839 0.8875 0.0
H1660 H 0.25723 0.22316 0.89032 0.0
H1661 H 0.28013 0.22152 0.90201 0.0
H1662 H 0.28183 0.23097 0.87746 0.0
H1663 H 0.2114 0.2767 0.89158 0.0
H1664 H 0.19295 0.31186 0.90001 0.0
H1665 H 0.21711 0.37778 0.88567 0.0
H1666 H 0.23608 0.34301 0.87719 0.0
H1667 H 0.18722 0.22015 0.84867 0.0
H1668 H 0.20783 0.22223 0.86062 0.0
H1669 H 0.23368 0.30744 0.8568 0.0
H1670 H 0.21307 0.30549 0.84479 0.0
H1671 H 0.21088 0.30102 0.87005 0.0
H1672 H 0.28087 0.2553 0.85588 0.0
H1673 H 0.29922 0.22015 0.84743 0.0
H1674 H 0.27611 0.15426 0.8619 0.0
H1675 H 0.25724 0.18901 0.8704 0.0
C1676 C 0.29641 0.28869 0.89739 0.0
C1677 C 0.29546 0.26422 0.90157 0.0
C1678 C 0.28346 0.28951 0.89069 0.0
C1679 C 0.26929 0.26592 0.88807 0.0
C1680 C 0.26802 0.2416 0.89226 0.0
C1681 C 0.28091 0.24078 0.89896 0.0
C1682 C 0.25682 0.2661 0.88082 0.0
C1683 C 0.26604 0.24604 0.87587 0.0
C1684 C 0.23684 0.28631 0.8787 0.0
C1685 C 0.22543 0.30726 0.88378 0.0
C1686 C 0.21301 0.29871 0.89025 0.0
C1687 C 0.20241 0.31856 0.89503 0.0
C1688 C 0.20393 0.34704 0.89338 0.0
C1689 C 0.21599 0.35572 0.88694 0.0
C1690 C 0.22664 0.33594 0.88214 0.0
C1691 C 0.19756 0.23924 0.85034 0.0
C1692 C 0.19881 0.26257 0.84577 0.0
C1693 C 0.20923 0.24042 0.85718 0.0
C1694 C 0.22259 0.26487 0.85955 0.0
C1695 C 0.22347 0.28838 0.85506 0.0
C1696 C 0.2117 0.28724 0.84821 0.0
C1697 C 0.23572 0.26571 0.86672 0.0
C1698 C 0.2267 0.28598 0.87164 0.0
C1699 C 0.25593 0.24571 0.86883 0.0
C1700 C 0.26742 0.22476 0.86375 0.0
C1701 C 0.27951 0.2333 0.85724 0.0
C1702 C 0.29004 0.21345 0.85244 0.0
C1703 C 0.28878 0.18499 0.85412 0.0
C1704 C 0.27705 0.17632 0.8606 0.0
C1705 C 0.26646 0.19608 0.86541 0.0
H1706 H 0.29694 0.16965 0.8504 0.0
H1707 H 0.1957 0.36238 0.89709 0.0
H1708 H 0.77376 0.66097 0.10022 0.0
H1709 H 0.77296 0.6842 0.1119 0.0
H1710 H 0.73602 0.75742 0.10225 0.0
H1711 H 0.73702 0.73439 0.09052 0.0
H1712 H 0.78048 0.76954 0.11149 0.0
H1713 H 0.69561 0.71536 0.11148 0.0
H1714 H 0.66759 0.67234 0.11016 0.0
H1715 H 0.71394 0.63364 0.12719 0.0
H1716 H 0.74253 0.67631 0.12854 0.0
H1717 H 0.74064 0.83956 0.14319 0.0
H1718 H 0.74043 0.81647 0.13154 0.0
H1719 H 0.76757 0.73951 0.14143 0.0
H1720 H 0.7664 0.76206 0.15317 0.0
H1721 H 0.72806 0.72921 0.13197 0.0
H1722 H 0.81327 0.78187 0.13206 0.0
H1723 H 0.84281 0.82384 0.1334 0.0
H1724 H 0.79813 0.86415 0.11632 0.0
H1725 H 0.76804 0.82254 0.11495 0.0
C1726 C 0.76564 0.68209 0.10059 0.0
C1727 C 0.75544 0.69591 0.09448 0.0
C1728 C 0.76502 0.69523 0.10726 0.0
C1729 C 0.75424 0.72241 0.10793 0.0
C1730 C 0.74434 0.7364 0.10183 0.0
C1731 C 0.74476 0.72318 0.09516 0.0
C1732 C 0.7534 0.73626 0.115 0.0
C1733 C 0.76872 0.76099 0.11595 0.0
C1734 C 0.73868 0.72456 0.12084 0.0
C1735 C 0.72139 0.69894 0.12006 0.0
C1736 C 0.69999 0.6976 0.11491 0.0
C1737 C 0.68397 0.67329 0.11416 0.0
C1738 C 0.68903 0.65025 0.11858 0.0
C1739 C 0.71007 0.65149 0.12377 0.0
C1740 C 0.72617 0.67574 0.12453 0.0
C1741 C 0.74623 0.81763 0.14291 0.0
C1742 C 0.75361 0.80268 0.14911 0.0
C1743 C 0.74643 0.80455 0.13623 0.0
C1744 C 0.75442 0.77639 0.1356 0.0
C1745 C 0.76149 0.76131 0.14179 0.0
C1746 C 0.76108 0.77431 0.14848 0.0
C1747 C 0.75517 0.7626 0.1285 0.0
C1748 C 0.73983 0.73784 0.12752 0.0
C1749 C 0.77011 0.77415 0.12266 0.0
C1750 C 0.78822 0.79918 0.12345 0.0
C1751 C 0.8096 0.79976 0.12863 0.0
C1752 C 0.82647 0.82348 0.12939 0.0
C1753 C 0.8223 0.84668 0.12496 0.0
C1754 C 0.8013 0.84618 0.11975 0.0
C1755 C 0.78435 0.82252 0.11898 0.0
H1756 H 0.83539 0.86502 0.12555 0.0
H1757 H 0.67661 0.63145 0.11799 0.0
H1758 H 0.21666 0.28171 0.40093 0.0
H1759 H 0.23812 0.28101 0.38912 0.0
H1760 H 0.22601 0.19167 0.38792 0.0
H1761 H 0.20594 0.1919 0.39996 0.0
H1762 H 0.27518 0.20554 0.38238 0.0
H1763 H 0.18089 0.23688 0.37954 0.0
H1764 H 0.13936 0.26594 0.382 0.0
H1765 H 0.18446 0.33952 0.37561 0.0
H1766 H 0.22641 0.31094 0.37321 0.0
H1767 H 0.2911 0.20106 0.34422 0.0
H1768 H 0.27159 0.19735 0.35631 0.0
H1769 H 0.2891 0.28473 0.35997 0.0
H1770 H 0.30916 0.28853 0.34799 0.0
H1771 H 0.2356 0.26937 0.36402 0.0
H1772 H 0.33048 0.2366 0.36713 0.0
H1773 H 0.37099 0.20635 0.36449 0.0
H1774 H 0.32288 0.13366 0.37006 0.0
H1775 H 0.28193 0.16347 0.37263 0.0
C1776 C 0.21908 0.26178 0.39825 0.0
C1777 C 0.2094 0.23686 0.40139 0.0
C1778 C 0.23103 0.26148 0.39144 0.0
C1779 C 0.23307 0.23638 0.38758 0.0
C1780 C 0.22439 0.21131 0.39079 0.0
C1781 C 0.21268 0.21153 0.39764 0.0
C1782 C 0.24362 0.23653 0.38012 0.0
C1783 C 0.26627 0.21919 0.37833 0.0
C1784 C 0.23214 0.25454 0.37487 0.0
C1785 C 0.20687 0.27179 0.37625 0.0
C1786 C 0.18202 0.25928 0.37871 0.0
C1787 C 0.15839 0.27567 0.38008 0.0
C1788 C 0.15929 0.30457 0.37898 0.0
C1789 C 0.1838 0.31714 0.37647 0.0
C1790 C 0.2075 0.30085 0.3751 0.0
C1791 C 0.29102 0.21942 0.34763 0.0
C1792 C 0.30164 0.24511 0.34514 0.0
C1793 C 0.27981 0.21727 0.35451 0.0
C1794 C 0.27908 0.24074 0.35902 0.0
C1795 C 0.28941 0.26643 0.35654 0.0
C1796 C 0.30071 0.26857 0.34968 0.0
C1797 C 0.26737 0.23873 0.36632 0.0
C1798 C 0.24441 0.25565 0.36806 0.0
C1799 C 0.27839 0.22014 0.3715 0.0
C1800 C 0.30305 0.20224 0.37 0.0
C1801 C 0.32846 0.21415 0.36773 0.0
C1802 C 0.35152 0.19709 0.36626 0.0
C1803 C 0.34949 0.1681 0.36709 0.0
C1804 C 0.32441 0.15612 0.36941 0.0
C1805 C 0.30128 0.17308 0.37088 0.0
H1806 H 0.36736 0.15492 0.36594 0.0
H1807 H 0.14097 0.31722 0.38004 0.0
H1808 H 0.20961 0.17368 0.22369 0.0
H1809 H 0.21258 0.19547 0.23551 0.0
H1810 H 0.26778 0.25873 0.22699 0.0
H1811 H 0.26528 0.23662 0.21519 0.0
H1812 H 0.29055 0.23433 0.238 0.0
H1813 H 0.20095 0.27456 0.23336 0.0
H1814 H 0.1513 0.27511 0.22978 0.0
H1815 H 0.13114 0.2195 0.24708 0.0
H1816 H 0.18074 0.21829 0.25071 0.0
H1817 H 0.31183 0.29627 0.27126 0.0
H1818 H 0.29309 0.2931 0.25915 0.0
H1819 H 0.24126 0.22353 0.2655 0.0
H1820 H 0.25893 0.22737 0.27775 0.0
H1821 H 0.21525 0.25663 0.25538 0.0
H1822 H 0.30464 0.21122 0.25881 0.0
H1823 H 0.35423 0.20919 0.26243 0.0
H1824 H 0.37429 0.2734 0.24719 0.0
H1825 H 0.32471 0.27608 0.24355 0.0
C1826 C 0.22177 0.19266 0.22431 0.0
C1827 C 0.23741 0.20338 0.21856 0.0
C1828 C 0.22338 0.20516 0.23106 0.0
C1829 C 0.24032 0.22882 0.23214 0.0
C1830 C 0.25464 0.24046 0.22629 0.0
C1831 C 0.25326 0.22781 0.21956 0.0
C1832 C 0.24606 0.23909 0.23948 0.0
C1833 C 0.27405 0.23988 0.24173 0.0
C1834 C 0.22452 0.24546 0.24443 0.0
C1835 C 0.19463 0.24618 0.24227 0.0
C1836 C 0.18597 0.26227 0.23637 0.0
C1837 C 0.15782 0.26274 0.23433 0.0
C1838 C 0.13809 0.24731 0.23819 0.0
C1839 C 0.14645 0.23143 0.2441 0.0
C1840 C 0.17458 0.23088 0.24615 0.0
C1841 C 0.29578 0.28087 0.27016 0.0
C1842 C 0.28718 0.26179 0.27546 0.0
C1843 C 0.28523 0.27898 0.26321 0.0
C1844 C 0.26621 0.25775 0.26141 0.0
C1845 C 0.25605 0.23997 0.26679 0.0
C1846 C 0.26644 0.24198 0.27376 0.0
C1847 C 0.25962 0.25191 0.25381 0.0
C1848 C 0.23162 0.25166 0.25156 0.0
C1849 C 0.28109 0.24586 0.24884 0.0
C1850 C 0.31094 0.24407 0.25097 0.0
C1851 C 0.3196 0.22504 0.25627 0.0
C1852 C 0.3477 0.22376 0.25832 0.0
C1853 C 0.36739 0.24121 0.25505 0.0
C1854 C 0.35902 0.25993 0.24972 0.0
C1855 C 0.33092 0.26134 0.24766 0.0
H1856 H 0.38914 0.24019 0.25665 0.0
H1857 H 0.1163 0.2477 0.23661 0.0
H1858 H 0.76619 0.72759 0.46746 0.0
H1859 H 0.74773 0.72671 0.47975 0.0
H1860 H 0.82949 0.7481 0.48788 0.0
H1861 H 0.84793 0.74891 0.47568 0.0
H1862 H 0.80203 0.70742 0.49614 0.0
H1863 H 0.78339 0.79835 0.48504 0.0
H1864 H 0.76258 0.82859 0.47575 0.0
H1865 H 0.68083 0.79718 0.48089 0.0
H1866 H 0.70126 0.76646 0.49015 0.0
H1867 H 0.79818 0.78603 0.52754 0.0
H1868 H 0.80296 0.76418 0.51583 0.0
H1869 H 0.71308 0.76139 0.51368 0.0
H1870 H 0.7082 0.78376 0.52543 0.0
H1871 H 0.73494 0.78299 0.50223 0.0
H1872 H 0.75258 0.70025 0.5153 0.0
H1873 H 0.77311 0.67016 0.52465 0.0
H1874 H 0.85514 0.68428 0.51601 0.0
H1875 H 0.83519 0.71481 0.50667 0.0
C1876 C 0.78021 0.73171 0.47189 0.0
C1877 C 0.80835 0.73869 0.47065 0.0
C1878 C 0.76968 0.73122 0.47888 0.0
C1879 C 0.78726 0.73747 0.4847 0.0
C1880 C 0.81563 0.74316 0.48346 0.0
C1881 C 0.82605 0.74391 0.4765 0.0
C1882 C 0.77605 0.7405 0.49203 0.0
C1883 C 0.7873 0.72385 0.49751 0.0
C1884 C 0.75611 0.7613 0.49374 0.0
C1885 C 0.74387 0.77988 0.48821 0.0
C1886 C 0.76101 0.79774 0.48415 0.0
C1887 C 0.74928 0.81499 0.4789 0.0
C1888 C 0.72041 0.81474 0.47772 0.0
C1889 C 0.7032 0.7973 0.4818 0.0
C1890 C 0.71483 0.77997 0.48705 0.0
C1891 C 0.77941 0.78015 0.52466 0.0
C1892 C 0.75282 0.78659 0.5274 0.0
C1893 C 0.78215 0.76756 0.51796 0.0
C1894 C 0.75836 0.76075 0.5139 0.0
C1895 C 0.73172 0.76638 0.51673 0.0
C1896 C 0.72896 0.77921 0.52342 0.0
C1897 C 0.76168 0.75055 0.50645 0.0
C1898 C 0.74899 0.76591 0.50092 0.0
C1899 C 0.78017 0.72841 0.5047 0.0
C1900 C 0.79235 0.70994 0.51029 0.0
C1901 C 0.77502 0.69709 0.51542 0.0
C1902 C 0.78656 0.67993 0.52071 0.0
C1903 C 0.81541 0.67533 0.52092 0.0
C1904 C 0.83279 0.68785 0.51583 0.0
C1905 C 0.82136 0.70505 0.51053 0.0
H1906 H 0.8243 0.66204 0.52503 0.0
H1907 H 0.71137 0.82811 0.47365 0.0
H1908 H 0.23336 0.24973 0.71489 0.0
H1909 H 0.22759 0.22833 0.72669 0.0
H1910 H 0.27949 0.29246 0.73604 0.0
H1911 H 0.28491 0.31437 0.72431 0.0
H1912 H 0.28589 0.23743 0.74245 0.0
H1913 H 0.214 0.30486 0.73562 0.0
H1914 H 0.17775 0.32308 0.72746 0.0
H1915 H 0.13245 0.24576 0.72915 0.0
H1916 H 0.16873 0.22693 0.73724 0.0
H1917 H 0.23642 0.25874 0.77773 0.0
H1918 H 0.25397 0.25895 0.76549 0.0
H1919 H 0.18437 0.20761 0.75883 0.0
H1920 H 0.16545 0.20922 0.7709 0.0
H1921 H 0.18764 0.24908 0.7505 0.0
H1922 H 0.25499 0.18384 0.75895 0.0
H1923 H 0.29128 0.16449 0.76691 0.0
H1924 H 0.34487 0.23423 0.76223 0.0
H1925 H 0.30875 0.25423 0.75431 0.0
C1926 C 0.24385 0.25908 0.71944 0.0
C1927 C 0.25916 0.28404 0.71869 0.0
C1928 C 0.24075 0.24667 0.72616 0.0
C1929 C 0.25291 0.25902 0.73222 0.0
C1930 C 0.27008 0.28258 0.73141 0.0
C1931 C 0.27311 0.29508 0.7247 0.0
C1932 C 0.24432 0.25016 0.73947 0.0
C1933 C 0.26447 0.23993 0.74426 0.0
C1934 C 0.21623 0.25289 0.74172 0.0
C1935 C 0.1942 0.26439 0.73696 0.0
C1936 C 0.19641 0.29168 0.73421 0.0
C1937 C 0.17586 0.30212 0.7296 0.0
C1938 C 0.15285 0.28556 0.72777 0.0
C1939 C 0.15031 0.25855 0.73056 0.0
C1940 C 0.17085 0.24798 0.73516 0.0
C1941 C 0.22478 0.2475 0.77367 0.0
C1942 C 0.19927 0.23429 0.77532 0.0
C1943 C 0.23517 0.24719 0.76668 0.0
C1944 C 0.22063 0.23309 0.76123 0.0
C1945 C 0.19599 0.21862 0.76294 0.0
C1946 C 0.18532 0.21934 0.76989 0.0
C1947 C 0.2292 0.23626 0.75363 0.0
C1948 C 0.20901 0.24578 0.74874 0.0
C1949 C 0.25721 0.23259 0.75131 0.0
C1950 C 0.27904 0.22064 0.75607 0.0
C1951 C 0.27442 0.19517 0.75965 0.0
C1952 C 0.29498 0.18406 0.76416 0.0
C1953 C 0.32034 0.19815 0.76509 0.0
C1954 C 0.32521 0.22335 0.76151 0.0
C1955 C 0.30471 0.23456 0.757 0.0
H1956 H 0.33623 0.18951 0.76858 0.0
H1957 H 0.13696 0.29367 0.7242 0.0
H1958 H 0.78591 0.70459 0.02257 0.0
H1959 H 0.78045 0.72878 0.01112 0.0
H1960 H 0.70344 0.76582 0.01866 0.0
H1961 H 0.7083 0.74042 0.02999 0.0
H1962 H 0.69424 0.74339 0.0067 0.0
H1963 H 0.76533 0.8053 0.01474 0.0
H1964 H 0.81054 0.81949 0.01996 0.0
H1965 H 0.85416 0.77863 0.00279 0.0
H1966 H 0.80923 0.76384 -0.00248 0.0
H1967 H 0.67226 0.80598 0.97343 0.0
H1968 H 0.68747 0.80766 0.98593 0.0
H1969 H 0.75322 0.74862 0.98126 0.0
H1970 H 0.73825 0.74698 0.96873 0.0
H1971 H 0.76716 0.79059 0.99214 0.0
H1972 H 0.69524 0.72229 0.98577 0.0
H1973 H 0.64982 0.70923 0.98046 0.0
H1974 H 0.60756 0.76483 0.99494 0.0
H1975 H 0.65285 0.7786 0.00024 0.0
C1976 C 0.76819 0.71842 0.02181 0.0
C1977 C 0.74745 0.72066 0.0271 0.0
C1978 C 0.76514 0.7324 0.0153 0.0
C1979 C 0.74164 0.7494 0.01403 0.0
C1980 C 0.72171 0.75281 0.0195 0.0
C1981 C 0.72447 0.73836 0.02595 0.0
C1982 C 0.73604 0.76055 0.00674 0.0
C1983 C 0.71002 0.75441 0.00362 0.0
C1984 C 0.75674 0.77441 0.00262 0.0
C1985 C 0.78386 0.78331 0.00576 0.0
C1986 C 0.78456 0.79917 0.0121 0.0
C1987 C 0.81015 0.80735 0.01507 0.0
C1988 C 0.8352 0.79993 0.01172 0.0
C1989 C 0.83473 0.78436 0.00538 0.0
C1990 C 0.8092 0.77611 0.0024 0.0
C1991 C 0.69057 0.79412 0.97501 0.0
C1992 C 0.70388 0.77606 0.97015 0.0
C1993 C 0.6992 0.79509 0.98215 0.0
C1994 C 0.72127 0.77807 0.9845 0.0
C1995 C 0.73617 0.76194 0.97953 0.0
C1996 C 0.72744 0.76081 0.9724 0.0
C1997 C 0.72564 0.77326 0.99223 0.0
C1998 C 0.75134 0.7803 0.99537 0.0
C1999 C 0.70465 0.76041 0.99643 0.0
C2000 C 0.67741 0.75171 0.99334 0.0
C2001 C 0.67627 0.73188 0.98778 0.0
C2002 C 0.65056 0.72434 0.98478 0.0
C2003 C 0.62582 0.73625 0.98735 0.0
C2004 C 0.62674 0.75567 0.99294 0.0
C2005 C 0.65242 0.76335 0.99595 0.0
H2006 H 0.60593 0.7304 0.98501 0.0
H2007 H 0.85499 0.80628 0.01402 0.0
H2008 H 0.24496 0.25063 0.02974 0.0
H2009 H 0.24762 0.22766 0.01804 0.0
H2010 H 0.22177 0.30421 0.00777 0.0
H2011 H 0.21991 0.32758 0.01935 0.0
H2012 H 0.19867 0.25451 0.00144 0.0
H2013 H 0.28813 0.2934 0.00947 0.0
H2014 H 0.32694 0.29766 0.01812 0.0
H2015 H 0.34285 0.20945 0.01644 0.0
H2016 H 0.30381 0.20464 0.00786 0.0
H2017 H 0.25907 0.26961 0.96753 0.0
H2018 H 0.2398 0.27007 0.97958 0.0
H2019 H 0.28855 0.19698 0.98494 0.0
H2020 H 0.30953 0.19764 0.97305 0.0
H2021 H 0.29665 0.23378 0.99446 0.0
H2022 H 0.21416 0.19654 0.98427 0.0
H2023 H 0.17527 0.1916 0.97569 0.0
H2024 H 0.14527 0.27338 0.98132 0.0
H2025 H 0.18421 0.27902 0.98986 0.0
C2026 C 0.23966 0.26254 0.02499 0.0
C2027 C 0.23259 0.29107 0.02548 0.0
C2028 C 0.24091 0.24929 0.01833 0.0
C2029 C 0.23501 0.26433 0.01206 0.0
C2030 C 0.22618 0.29222 0.01256 0.0
C2031 C 0.22513 0.30554 0.0192 0.0
C2032 C 0.24148 0.25247 0.00495 0.0
C2033 C 0.22002 0.24986 -0.00013 0.0
C2034 C 0.26924 0.24564 0.00302 0.0
C2035 C 0.29288 0.24861 0.00811 0.0
C2036 C 0.29978 0.27489 0.01099 0.0
C2037 C 0.32183 0.27741 0.01587 0.0
C2038 C 0.3373 0.25382 0.01784 0.0
C2039 C 0.33081 0.22769 0.01492 0.0
C2040 C 0.30873 0.22505 0.01005 0.0
C2041 C 0.26567 0.25356 0.97126 0.0
C2042 C 0.28622 0.23387 0.96933 0.0
C2043 C 0.25419 0.25352 0.97812 0.0
C2044 C 0.26249 0.23339 0.98318 0.0
C2045 C 0.28176 0.2127 0.98114 0.0
C2046 C 0.29359 0.21298 0.9743 0.0
C2047 C 0.25389 0.23629 0.99078 0.0
C2048 C 0.27506 0.23745 0.99599 0.0
C2049 C 0.2258 0.24151 0.99281 0.0
C2050 C 0.20224 0.23824 0.98769 0.0
C2051 C 0.19939 0.21356 0.98365 0.0
C2052 C 0.17731 0.21062 0.97879 0.0
C2053 C 0.15783 0.23217 0.97796 0.0
C2054 C 0.16036 0.2567 0.98198 0.0
C2055 C 0.18242 0.25975 0.98684 0.0
H2056 H 0.14075 0.22986 0.9742 0.0
H2057 H 0.35436 0.25581 0.02162 0.0
H2058 H 0.745 0.7372 0.27932 0.0
H2059 H 0.7668 0.73847 0.26743 0.0
H2060 H 0.68542 0.73118 0.25761 0.0
H2061 H 0.66361 0.73007 0.26938 0.0
H2062 H 0.724 0.70037 0.25047 0.0
H2063 H 0.71597 0.79477 0.26025 0.0
H2064 H 0.72536 0.83142 0.26924 0.0
H2065 H 0.81375 0.82164 0.26596 0.0
H2066 H 0.80485 0.78465 0.25701 0.0
H2067 H 0.7153 0.77588 0.2186 0.0
H2068 H 0.71335 0.755 0.23045 0.0
H2069 H 0.80203 0.76827 0.23307 0.0
H2070 H 0.80435 0.78877 0.22106 0.0
H2071 H 0.77205 0.78906 0.24418 0.0
H2072 H 0.77799 0.70232 0.23206 0.0
H2073 H 0.76722 0.66698 0.22285 0.0
H2074 H 0.68228 0.66268 0.23024 0.0
H2075 H 0.69239 0.69832 0.23944 0.0
C2076 C 0.73182 0.73569 0.27461 0.0
C2077 C 0.70257 0.73366 0.27529 0.0
C2078 C 0.7443 0.73629 0.26784 0.0
C2079 C 0.72769 0.73512 0.26164 0.0
C2080 C 0.69865 0.73191 0.26232 0.0
C2081 C 0.6862 0.73125 0.26906 0.0
C2082 C 0.73985 0.73959 0.25444 0.0
C2083 C 0.73459 0.7197 0.24908 0.0
C2084 C 0.75444 0.76443 0.25269 0.0
C2085 C 0.75976 0.78673 0.25804 0.0
C2086 C 0.7374 0.80031 0.26149 0.0
C2087 C 0.74263 0.82115 0.26657 0.0
C2088 C 0.77014 0.82879 0.26819 0.0
C2089 C 0.79247 0.81565 0.26471 0.0
C2090 C 0.78734 0.79475 0.25964 0.0
C2091 C 0.7346 0.77366 0.22158 0.0
C2092 C 0.76001 0.784 0.21886 0.0
C2093 C 0.73343 0.76172 0.22838 0.0
C2094 C 0.75761 0.75981 0.23261 0.0
C2095 C 0.78316 0.76947 0.22987 0.0
C2096 C 0.78439 0.78133 0.22303 0.0
C2097 C 0.75524 0.75031 0.24013 0.0
C2098 C 0.7623 0.76929 0.24557 0.0
C2099 C 0.74218 0.72469 0.24193 0.0
C2100 C 0.73595 0.70312 0.23643 0.0
C2101 C 0.75696 0.69399 0.2317 0.0
C2102 C 0.75098 0.67387 0.22648 0.0
C2103 C 0.72408 0.66261 0.22596 0.0
C2104 C 0.70311 0.67141 0.23066 0.0
C2105 C 0.70897 0.69154 0.23588 0.0
H2106 H 0.71949 0.64704 0.22191 0.0
H2107 H 0.77415 0.84494 0.27212 0.0
H2108 H 0.24295 0.2689 0.46615 0.0
H2109 H 0.26459 0.26973 0.47804 0.0
H2110 H 0.18305 0.27786 0.48772 0.0
H2111 H 0.16135 0.27692 0.47592 0.0
H2112 H 0.22224 0.30901 0.49483 0.0
H2113 H 0.21249 0.21415 0.48542 0.0
H2114 H 0.22113 0.17695 0.47652 0.0
H2115 H 0.30974 0.18568 0.47962 0.0
H2116 H 0.30159 0.22323 0.48846 0.0
H2117 H 0.21004 0.2331 0.52654 0.0
H2118 H 0.21002 0.25634 0.51492 0.0
H2119 H 0.29797 0.23826 0.51247 0.0
H2120 H 0.29793 0.21436 0.52409 0.0
H2121 H 0.26857 0.21968 0.50136 0.0
H2122 H 0.27584 0.30622 0.51342 0.0
H2123 H 0.26567 0.34208 0.52254 0.0
H2124 H 0.18127 0.3487 0.51486 0.0
H2125 H 0.19076 0.31258 0.50575 0.0
C2126 C 0.22969 0.2711 0.47081 0.0
C2127 C 0.20043 0.27257 0.4701 0.0
C2128 C 0.24209 0.27175 0.47759 0.0
C2129 C 0.22538 0.2736 0.48376 0.0
C2130 C 0.19633 0.27659 0.48303 0.0
C2131 C 0.18395 0.27603 0.47627 0.0
C2132 C 0.23743 0.26938 0.49098 0.0
C2133 C 0.23248 0.28957 0.49628 0.0
C2134 C 0.25158 0.24436 0.49279 0.0
C2135 C 0.25645 0.2217 0.48752 0.0
C2136 C 0.23381 0.20826 0.48416 0.0
C2137 C 0.23862 0.18711 0.47913 0.0
C2138 C 0.26597 0.17902 0.47749 0.0
C2139 C 0.28857 0.19202 0.48088 0.0
C2140 C 0.28387 0.21323 0.4859 0.0
C2141 C 0.22947 0.23448 0.52357 0.0
C2142 C 0.25391 0.22169 0.52617 0.0
C2143 C 0.22953 0.24806 0.51697 0.0
C2144 C 0.25406 0.24924 0.51285 0.0
C2145 C 0.27888 0.23773 0.51559 0.0
C2146 C 0.27884 0.22418 0.52223 0.0
C2147 C 0.25245 0.25889 0.50532 0.0
C2148 C 0.25927 0.23963 0.49992 0.0
C2149 C 0.23991 0.2847 0.50345 0.0
C2150 C 0.23403 0.30658 0.5089 0.0
C2151 C 0.25505 0.31518 0.5137 0.0
C2152 C 0.24941 0.33559 0.51886 0.0
C2153 C 0.22284 0.34765 0.51928 0.0
C2154 C 0.20185 0.33936 0.51452 0.0
C2155 C 0.20738 0.31895 0.50935 0.0
H2156 H 0.21851 0.36344 0.52329 0.0
H2157 H 0.26966 0.16264 0.4736 0.0
H2158 H 0.7676 0.66293 0.72489 0.0
H2159 H 0.76532 0.68247 0.73699 0.0
H2160 H 0.71777 0.75267 0.72907 0.0
H2161 H 0.71945 0.73272 0.7169 0.0
H2162 H 0.77048 0.76256 0.73859 0.0
H2163 H 0.68107 0.71794 0.73792 0.0
H2164 H 0.64819 0.67961 0.73522 0.0
H2165 H 0.69308 0.62518 0.74946 0.0
H2166 H 0.72652 0.66305 0.75215 0.0
H2167 H 0.77704 0.79472 0.77588 0.0
H2168 H 0.75577 0.79079 0.76396 0.0
H2169 H 0.77042 0.70165 0.76422 0.0
H2170 H 0.79104 0.7054 0.77609 0.0
H2171 H 0.72208 0.71178 0.75818 0.0
H2172 H 0.8166 0.7497 0.75629 0.0
H2173 H 0.85338 0.78476 0.75864 0.0
H2174 H 0.80258 0.84858 0.74899 0.0
H2175 H 0.76536 0.81391 0.74666 0.0
C2176 C 0.75672 0.68255 0.72573 0.0
C2177 C 0.74383 0.69647 0.72 0.0
C2178 C 0.7553 0.69358 0.73262 0.0
C2179 C 0.74127 0.71886 0.73388 0.0
C2180 C 0.72858 0.73306 0.72817 0.0
C2181 C 0.72953 0.7217 0.72126 0.0
C2182 C 0.74085 0.73028 0.74122 0.0
C2183 C 0.75926 0.75213 0.74288 0.0
C2184 C 0.72657 0.71616 0.74676 0.0
C2185 C 0.70639 0.69333 0.74521 0.0
C2186 C 0.68406 0.69774 0.74043 0.0
C2187 C 0.6653 0.67609 0.73891 0.0
C2188 C 0.66856 0.64996 0.74216 0.0
C2189 C 0.69057 0.64544 0.74695 0.0
C2190 C 0.70942 0.667 0.74848 0.0
C2191 C 0.77538 0.77429 0.7734 0.0
C2192 C 0.78573 0.75037 0.77689 0.0
C2193 C 0.76324 0.77207 0.76661 0.0
C2194 C 0.76178 0.74597 0.76316 0.0
C2195 C 0.77114 0.72199 0.76678 0.0
C2196 C 0.78294 0.72415 0.77357 0.0
C2197 C 0.75265 0.74337 0.7556 0.0
C2198 C 0.73251 0.72305 0.7539 0.0
C2199 C 0.76572 0.75858 0.75001 0.0
C2200 C 0.78809 0.77934 0.75139 0.0
C2201 C 0.81322 0.77126 0.75472 0.0
C2202 C 0.83414 0.79104 0.75604 0.0
C2203 C 0.83028 0.8189 0.75399 0.0
C2204 C 0.80551 0.82701 0.75059 0.0
C2205 C 0.7845 0.80732 0.74927 0.0
H2206 H 0.8465 0.83418 0.75502 0.0
H2207 H 0.65401 0.63323 0.74098 0.0
H2208 H 0.116 0.00497 0.19355 0.0
H2209 H 0.0675 0.98848 0.19414 0.0
H2210 H 0.04459 0.0463 0.1774 0.0
H2211 H 0.09287 0.06311 0.17685 0.0
H2212 H 0.00844 0.04797 0.1889 0.0
H2213 H 0.05044 0.97884 0.17357 0.0
H2214 H 0.08512 0.94297 0.17021 0.0
H2215 H 0.06144 0.89335 0.18839 0.0
H2216 H 0.02687 0.92913 0.19192 0.0
H2217 H 0.87387 0.99477 0.18029 0.0
H2218 H 0.92226 0.01127 0.18014 0.0
H2219 H 0.94485 0.94765 0.19548 0.0
H2220 H 0.89685 0.93025 0.19541 0.0
H2221 H 0.98148 0.94891 0.18495 0.0
H2222 H 0.93924 0.01714 0.20029 0.0
H2223 H 0.90476 0.0529 0.20385 0.0
H2224 H 0.92902 0.10414 0.18602 0.0
H2225 H 0.9634 0.06849 0.18229 0.0
C2226 C 0.1006 0.0141 0.18999 0.0
C2227 C 0.10821 0.03523 0.18513 0.0
C2228 C 0.07299 0.00459 0.19031 0.0
C2229 C 0.05254 0.0161 0.18579 0.0
C2230 C 0.0601 0.03713 0.18092 0.0
C2231 C 0.08771 0.04652 0.18057 0.0
C2232 C 0.02311 0.00666 0.18622 0.0
C2233 C 0.00244 0.02639 0.18795 0.0
C2234 C 0.01552 0.97836 0.18517 0.0
C2235 C 0.03628 0.95681 0.18305 0.0
C2236 C 0.0528 0.9604 0.17689 0.0
C2237 C 0.0724 0.94006 0.17495 0.0
C2238 C 0.07554 0.91593 0.17909 0.0
C2239 C 0.05902 0.91207 0.18519 0.0
C2240 C 0.0394 0.93236 0.18716 0.0
C2241 C 0.88914 0.98431 0.18363 0.0
C2242 C 0.88146 0.96127 0.18788 0.0
C2243 C 0.91674 0.99391 0.18359 0.0
C2244 C 0.93712 0.98086 0.18786 0.0
C2245 C 0.92944 0.95809 0.19217 0.0
C2246 C 0.90191 0.94838 0.19219 0.0
C2247 C 0.96667 0.99023 0.18762 0.0
C2248 C 0.98741 0.9705 0.18592 0.0
C2249 C 0.97434 0.01851 0.18873 0.0
C2250 C 0.95371 0.04001 0.19097 0.0
C2251 C 0.93707 0.03593 0.19709 0.0
C2252 C 0.91757 0.0562 0.19915 0.0
C2253 C 0.91465 0.08074 0.19515 0.0
C2254 C 0.93128 0.0851 0.1891 0.0
C2255 C 0.95079 0.06488 0.18702 0.0
H2256 H 0.89954 0.09641 0.19676 0.0
H2257 H 0.09072 0.9002 0.17758 0.0
H2258 H 0.07161 0.398 0.42286 0.0
H2259 H 0.05441 0.44593 0.42234 0.0
H2260 H 0.99026 0.42573 0.43774 0.0
H2261 H 0.00632 0.37721 0.43799 0.0
H2262 H 0.9698 0.45928 0.42788 0.0
H2263 H 0.05187 0.45856 0.44266 0.0
H2264 H 0.1012 0.44891 0.44563 0.0
H2265 H 0.12795 0.50185 0.42836 0.0
H2266 H 0.07873 0.5115 0.42522 0.0
H2267 H 0.94181 0.59455 0.44151 0.0
H2268 H 0.95894 0.54649 0.44048 0.0
H2269 H 0.0096 0.57019 0.42236 0.0
H2270 H 0.99244 0.61851 0.42335 0.0
H2271 H 0.0373 0.53573 0.43295 0.0
H2272 H 0.95328 0.53785 0.41879 0.0
H2273 H 0.90346 0.54792 0.41653 0.0
H2274 H 0.87998 0.49248 0.4336 0.0
H2275 H 0.92971 0.48241 0.43603 0.0
C2276 C 0.05343 0.40349 0.42602 0.0
C2277 C 0.04043 0.38369 0.4305 0.0
C2278 C 0.04386 0.43107 0.42578 0.0
C2279 C 0.02143 0.43957 0.43011 0.0
C2280 C 0.00775 0.41968 0.43439 0.0
C2281 C 0.01713 0.392 0.43458 0.0
C2282 C 0.0127 0.46934 0.43034 0.0
C2283 C 0.98453 0.47594 0.42906 0.0
C2284 C 0.03201 0.49117 0.43175 0.0
C2285 C 0.06162 0.48551 0.43365 0.0
C2286 C 0.06827 0.46798 0.43946 0.0
C2287 C 0.09621 0.46253 0.44118 0.0
C2288 C 0.11769 0.4747 0.43718 0.0
C2289 C 0.11128 0.4924 0.43145 0.0
C2290 C 0.08337 0.49788 0.4297 0.0
C2291 C 0.95688 0.58961 0.43736 0.0
C2292 C 0.96588 0.61022 0.43251 0.0
C2293 C 0.96646 0.56215 0.43675 0.0
C2294 C 0.98532 0.55485 0.43131 0.0
C2295 C 0.99497 0.57549 0.42658 0.0
C2296 C 0.98511 0.60296 0.42713 0.0
C2297 C 0.99449 0.52548 0.43053 0.0
C2298 C 0.0227 0.51901 0.43172 0.0
C2299 C 0.97518 0.50375 0.42913 0.0
C2300 C 0.94524 0.50957 0.42763 0.0
C2301 C 0.93751 0.52798 0.4221 0.0
C2302 C 0.90928 0.53366 0.42078 0.0
C2303 C 0.88857 0.5209 0.42493 0.0
C2304 C 0.89605 0.50237 0.43039 0.0
C2305 C 0.92425 0.49665 0.43174 0.0
H2306 H 0.86673 0.52532 0.4239 0.0
H2307 H 0.13931 0.47046 0.43852 0.0
H2308 H 0.40857 0.41724 0.68404 0.0
H2309 H 0.45533 0.43742 0.68325 0.0
H2310 H 0.41997 0.52044 0.68383 0.0
H2311 H 0.37291 0.50035 0.68472 0.0
H2312 H 0.46103 0.51474 0.67352 0.0
H2313 H 0.44968 0.49488 0.69852 0.0
H2314 H 0.43848 0.46566 0.70902 0.0
H2315 H 0.50451 0.40879 0.70342 0.0
H2316 H 0.51586 0.43747 0.69282 0.0
H2317 H 0.58815 0.5862 0.68125 0.0
H2318 H 0.54059 0.56755 0.68131 0.0
H2319 H 0.57339 0.48346 0.68185 0.0
H2320 H 0.62112 0.502 0.68178 0.0
H2321 H 0.53306 0.49062 0.69164 0.0
H2322 H 0.54441 0.51006 0.66663 0.0
H2323 H 0.55556 0.53888 0.65606 0.0
H2324 H 0.48976 0.59613 0.66158 0.0
H2325 H 0.47847 0.56785 0.67225 0.0
C2326 C 0.41071 0.4398 0.68409 0.0
C2327 C 0.38704 0.45721 0.68453 0.0
C2328 C 0.43744 0.45129 0.6836 0.0
C2329 C 0.44109 0.4804 0.68358 0.0
C2330 C 0.41754 0.4979 0.68386 0.0
C2331 C 0.39071 0.4864 0.68435 0.0
C2332 C 0.46959 0.49241 0.68329 0.0
C2333 C 0.47671 0.50984 0.67753 0.0
C2334 C 0.49012 0.48541 0.68845 0.0
C2335 C 0.48345 0.4682 0.69484 0.0
C2336 C 0.46168 0.47603 0.69949 0.0
C2337 C 0.45532 0.45958 0.70547 0.0
C2338 C 0.47073 0.43535 0.70687 0.0
C2339 C 0.49258 0.42755 0.70232 0.0
C2340 C 0.49899 0.44391 0.69633 0.0
C2341 C 0.58526 0.56373 0.68126 0.0
C2342 C 0.60838 0.54555 0.68149 0.0
C2343 C 0.55806 0.55311 0.68131 0.0
C2344 C 0.55347 0.52412 0.68152 0.0
C2345 C 0.5765 0.50591 0.6817 0.0
C2346 C 0.60372 0.51652 0.68167 0.0
C2347 C 0.52464 0.51284 0.68184 0.0
C2348 C 0.51743 0.49556 0.68762 0.0
C2349 C 0.50407 0.51996 0.6767 0.0
C2350 C 0.51078 0.53698 0.67028 0.0
C2351 C 0.53247 0.52892 0.66562 0.0
C2352 C 0.53879 0.54513 0.65961 0.0
C2353 C 0.52343 0.56936 0.65816 0.0
C2354 C 0.50167 0.57738 0.66271 0.0
C2355 C 0.49528 0.56125 0.66874 0.0
H2356 H 0.52835 0.58188 0.65349 0.0
H2357 H 0.46578 0.42264 0.7115 0.0
H2358 H 0.41258 0.08738 0.93981 0.0
H2359 H 0.42999 0.03938 0.93932 0.0
H2360 H 0.50301 0.06743 0.9278 0.0
H2361 H 0.48584 0.11565 0.92832 0.0
H2362 H 0.48027 0.02044 0.92187 0.0
H2363 H 0.50776 0.05173 0.94528 0.0
H2364 H 0.50048 0.07225 0.95726 0.0
H2365 H 0.44254 0.00664 0.96244 0.0
H2366 H 0.44918 0.98593 0.95045 0.0
H2367 H 0.56748 0.90207 0.92668 0.0
H2368 H 0.54649 0.94857 0.92652 0.0
H2369 H 0.47558 0.91746 0.93839 0.0
H2370 H 0.4964 0.87063 0.93852 0.0
H2371 H 0.49555 0.96539 0.94406 0.0
H2372 H 0.46932 0.93308 0.92076 0.0
H2373 H 0.47675 0.91257 0.90879 0.0
H2374 H 0.53231 0.9799 0.90336 0.0
H2375 H 0.52552 0.00063 0.91534 0.0
C2376 C 0.43251 0.08341 0.93725 0.0
C2377 C 0.44795 0.10537 0.93416 0.0
C2378 C 0.44237 0.05596 0.93695 0.0
C2379 C 0.46791 0.04992 0.93359 0.0
C2380 C 0.48322 0.07168 0.93041 0.0
C2381 C 0.47337 0.09919 0.93071 0.0
C2382 C 0.47864 0.02086 0.93339 0.0
C2383 C 0.48395 0.00849 0.92672 0.0
C2384 C 0.4827 0.00509 0.93972 0.0
C2385 C 0.47876 0.01745 0.94694 0.0
C2386 C 0.49329 0.0418 0.94895 0.0
C2387 C 0.48931 0.05345 0.95575 0.0
C2388 C 0.471 0.0408 0.9606 0.0
C2389 C 0.45669 0.01644 0.95867 0.0
C2390 C 0.46057 0.00472 0.95188 0.0
C2391 C 0.54717 0.90495 0.92914 0.0
C2392 C 0.53353 0.8826 0.93258 0.0
C2393 C 0.53524 0.93158 0.92906 0.0
C2394 C 0.50935 0.9364 0.93238 0.0
C2395 C 0.49558 0.91415 0.93579 0.0
C2396 C 0.50753 0.88746 0.93588 0.0
C2397 C 0.49729 0.96495 0.93253 0.0
C2398 C 0.49175 0.97726 0.9392 0.0
C2399 C 0.49303 0.98064 0.92619 0.0
C2400 C 0.4971 0.96827 0.91897 0.0
C2401 C 0.4833 0.9434 0.91704 0.0
C2402 C 0.48736 0.93175 0.91025 0.0
C2403 C 0.50504 0.94489 0.90533 0.0
C2404 C 0.51864 0.96974 0.90718 0.0
C2405 C 0.51467 0.98146 0.91397 0.0
H2406 H 0.50816 0.93584 0.90007 0.0
H2407 H 0.46795 0.04984 0.96586 0.0
H2408 H 0.09154 0.41353 0.06285 0.0
H2409 H 0.04383 0.43153 0.06199 0.0
H2410 H 0.07587 0.51548 0.05979 0.0
H2411 H 0.12381 0.49764 0.06079 0.0
H2412 H 0.03055 0.51187 0.0691 0.0
H2413 H 0.05504 0.48151 0.04531 0.0
H2414 H 0.072 0.44776 0.03632 0.0
H2415 H 0.00469 0.39189 0.04155 0.0
H2416 H 0.98755 0.42515 0.05066 0.0
H2417 H 0.91062 0.57942 0.05606 0.0
H2418 H 0.95752 0.56001 0.05713 0.0
H2419 H 0.92319 0.47653 0.05753 0.0
H2420 H 0.87602 0.49579 0.05613 0.0
H2421 H 0.96929 0.47869 0.04938 0.0
H2422 H 0.94393 0.50843 0.07294 0.0
H2423 H 0.92675 0.54121 0.08214 0.0
H2424 H 0.99512 0.59685 0.0777 0.0
H2425 H 0.0125 0.56458 0.06839 0.0
C2426 C 0.08844 0.43587 0.0623 0.0
C2427 C 0.1114 0.45421 0.06189 0.0
C2428 C 0.06119 0.44608 0.06174 0.0
C2429 C 0.0564 0.47476 0.06075 0.0
C2430 C 0.0792 0.49324 0.06053 0.0
C2431 C 0.10652 0.48303 0.06106 0.0
C2432 C 0.02757 0.48539 0.05981 0.0
C2433 C 0.01724 0.50492 0.06474 0.0
C2434 C 0.01005 0.47563 0.05423 0.0
C2435 C 0.02018 0.45571 0.04872 0.0
C2436 C 0.04398 0.46194 0.04459 0.0
C2437 C 0.05361 0.44291 0.03946 0.0
C2438 C 0.03947 0.41766 0.03838 0.0
C2439 C 0.01563 0.41143 0.0424 0.0
C2440 C 0.00594 0.43038 0.04754 0.0
C2441 C 0.91299 0.55689 0.05623 0.0
C2442 C 0.88952 0.53915 0.056 0.0
C2443 C 0.93983 0.54585 0.05695 0.0
C2444 C 0.9438 0.51687 0.05754 0.0
C2445 C 0.92055 0.499 0.05713 0.0
C2446 C 0.89362 0.51003 0.05638 0.0
C2447 C 0.97224 0.50537 0.05865 0.0
C2448 C 0.98253 0.48563 0.05375 0.0
C2449 C 0.98967 0.5148 0.06429 0.0
C2450 C 0.97937 0.5342 0.06992 0.0
C2451 C 0.95519 0.52775 0.07388 0.0
C2452 C 0.94543 0.54623 0.07912 0.0
C2453 C 0.9598 0.57112 0.08049 0.0
C2454 C 0.984 0.57757 0.07663 0.0
C2455 C 0.99383 0.55918 0.07138 0.0
H2456 H 0.95221 0.5854 0.08455 0.0
H2457 H 0.04696 0.40296 0.03441 0.0
H2458 H 0.526 0.61759 0.3227 0.0
H2459 H 0.50758 0.56982 0.32251 0.0
H2460 H 0.5138 0.56867 0.29947 0.0
H2461 H 0.53233 0.61631 0.29961 0.0
H2462 H 0.4656 0.54456 0.30407 0.0
H2463 H 0.56389 0.53864 0.30959 0.0
H2464 H 0.60663 0.54977 0.31642 0.0
H2465 H 0.56941 0.51615 0.3355 0.0
H2466 H 0.52627 0.50519 0.3288 0.0
H2467 H 0.45944 0.39901 0.29799 0.0
H2468 H 0.47612 0.44734 0.29857 0.0
H2469 H 0.47114 0.44503 0.32163 0.0
H2470 H 0.45457 0.39664 0.32109 0.0
H2471 H 0.51784 0.47118 0.3173 0.0
H2472 H 0.41996 0.47606 0.3118 0.0
H2473 H 0.37706 0.46501 0.30503 0.0
H2474 H 0.41304 0.50067 0.28604 0.0
H2475 H 0.45634 0.51157 0.29267 0.0
C2476 C 0.52335 0.60717 0.3176 0.0
C2477 C 0.53077 0.62065 0.31118 0.0
C2478 C 0.51282 0.57992 0.31749 0.0
C2479 C 0.50974 0.56559 0.31098 0.0
C2480 C 0.51604 0.57937 0.30455 0.0
C2481 C 0.52651 0.60664 0.30464 0.0
C2482 C 0.50094 0.53589 0.31087 0.0
C2483 C 0.47717 0.52845 0.3069 0.0
C2484 C 0.51574 0.51501 0.31469 0.0
C2485 C 0.54176 0.52135 0.31871 0.0
C2486 C 0.56475 0.5338 0.31525 0.0
C2487 C 0.58906 0.54006 0.3191 0.0
C2488 C 0.59071 0.53374 0.32639 0.0
C2489 C 0.56809 0.52107 0.32985 0.0
C2490 C 0.54371 0.51482 0.32603 0.0
C2491 C 0.46198 0.4088 0.30318 0.0
C2492 C 0.45556 0.39412 0.30949 0.0
C2493 C 0.47146 0.4364 0.3035 0.0
C2494 C 0.47439 0.44992 0.31014 0.0
C2495 C 0.46897 0.43499 0.31646 0.0
C2496 C 0.45961 0.40733 0.31614 0.0
C2497 C 0.48255 0.4798 0.31048 0.0
C2498 C 0.5062 0.48728 0.31449 0.0
C2499 C 0.4676 0.50072 0.30671 0.0
C2500 C 0.44149 0.4944 0.30272 0.0
C2501 C 0.4188 0.48137 0.30617 0.0
C2502 C 0.3944 0.47515 0.30235 0.0
C2503 C 0.39235 0.48208 0.2951 0.0
C2504 C 0.41467 0.4953 0.29165 0.0
C2505 C 0.43914 0.50152 0.29544 0.0
H2506 H 0.37344 0.47725 0.29216 0.0
H2507 H 0.60955 0.5386 0.32936 0.0
H2508 H 0.58723 0.92138 0.56521 0.0
H2509 H 0.53917 0.93877 0.56461 0.0
H2510 H 0.56571 0.00512 0.5505 0.0
H2511 H 0.61401 0.98802 0.55116 0.0
H2512 H 0.53065 0.02341 0.5614 0.0
H2513 H 0.53279 0.95054 0.54365 0.0
H2514 H 0.54161 0.90283 0.53915 0.0
H2515 H 0.48284 0.86961 0.55432 0.0
H2516 H 0.47397 0.91711 0.55898 0.0
H2517 H 0.39871 0.06903 0.54969 0.0
H2518 H 0.4459 0.04978 0.54984 0.0
H2519 H 0.41731 0.98041 0.56268 0.0
H2520 H 0.36957 0.99897 0.5623 0.0
H2521 H 0.45341 0.96322 0.55253 0.0
H2522 H 0.45109 0.03503 0.57037 0.0
H2523 H 0.44222 0.08227 0.57517 0.0
H2524 H 0.50132 0.11694 0.5603 0.0
H2525 H 0.51023 0.06992 0.55534 0.0
C2526 C 0.58287 0.93982 0.56203 0.0
C2527 C 0.60435 0.95339 0.55824 0.0
C2528 C 0.55539 0.94958 0.56165 0.0
C2529 C 0.54891 0.97305 0.55746 0.0
C2530 C 0.57034 0.9869 0.55374 0.0
C2531 C 0.59782 0.97704 0.55409 0.0
C2532 C 0.51973 0.98323 0.55699 0.0
C2533 C 0.5138 0.01042 0.55936 0.0
C2534 C 0.49772 0.96592 0.55453 0.0
C2535 C 0.50292 0.93735 0.55171 0.0
C2536 C 0.52192 0.93304 0.54607 0.0
C2537 C 0.5269 0.90604 0.54348 0.0
C2538 C 0.51285 0.8832 0.54646 0.0
C2539 C 0.49374 0.88732 0.55202 0.0
C2540 C 0.48871 0.91428 0.55464 0.0
C2541 C 0.40226 0.04939 0.55243 0.0
C2542 C 0.38032 0.03554 0.55599 0.0
C2543 C 0.42936 0.03859 0.55259 0.0
C2544 C 0.43519 0.01393 0.55638 0.0
C2545 C 0.41326 -0.00042 0.55976 0.0
C2546 C 0.38606 0.01032 0.55959 0.0
C2547 C 0.46431 0.00349 0.5569 0.0
C2548 C 0.47024 0.97624 0.55456 0.0
C2549 C 0.48632 0.02068 0.55944 0.0
C2550 C 0.48112 0.04898 0.56244 0.0
C2551 C 0.46203 0.05275 0.56809 0.0
C2552 C 0.45702 0.07949 0.57084 0.0
C2553 C 0.47114 0.1026 0.56803 0.0
C2554 C 0.49036 0.09902 0.56247 0.0
C2555 C 0.49542 0.07233 0.55968 0.0
H2556 H 0.46724 0.12329 0.57017 0.0
H2557 H 0.51673 0.86231 0.54445 0.0
H2558 H 0.08762 0.08837 0.81259 0.0
H2559 H 0.06798 0.04122 0.81273 0.0
H2560 H 0.98459 0.0757 0.81243 0.0
H2561 H 0.00409 0.12308 0.81219 0.0
H2562 H 0.99039 0.03261 0.82216 0.0
H2563 H 0.01161 0.05003 0.7974 0.0
H2564 H 0.04167 0.06355 0.78724 0.0
H2565 H 0.09772 0.99589 0.79205 0.0
H2566 H 0.06819 0.98221 0.80231 0.0
H2567 H 0.91583 0.9108 0.81234 0.0
H2568 H 0.93631 0.95755 0.81278 0.0
H2569 H 0.01905 0.92164 0.81171 0.0
H2570 H 0.9986 0.87465 0.81123 0.0
H2571 H 0.01431 0.96533 0.80285 0.0
H2572 H 0.9931 0.94717 0.82746 0.0
H2573 H 0.96351 0.93357 0.8377 0.0
H2574 H 0.90815 0.00227 0.83336 0.0
H2575 H 0.9372 0.01605 0.82302 0.0
C2576 C 0.0651 0.08596 0.81249 0.0
C2577 C 0.04741 0.10948 0.81231 0.0
C2578 C 0.05392 0.059 0.8126 0.0
C2579 C 0.02486 0.05502 0.8125 0.0
C2580 C 0.0071 0.07839 0.8125 0.0
C2581 C 0.01826 0.10542 0.81239 0.0
C2582 C 0.01307 0.0264 0.81233 0.0
C2583 C 0.9953 0.01798 0.8179 0.0
C2584 C 0.02013 0.00718 0.80685 0.0
C2585 C 0.03784 0.01527 0.80066 0.0
C2586 C 0.03047 0.03817 0.79632 0.0
C2587 C 0.04739 0.04584 0.79054 0.0
C2588 C 0.07163 0.03063 0.78901 0.0
C2589 C 0.07896 0.00767 0.79325 0.0
C2590 C 0.06213 -6e-05 0.79904 0.0
C2591 C 0.9384 0.91283 0.81228 0.0
C2592 C 0.95564 0.88906 0.81181 0.0
C2593 C 0.95007 0.93956 0.81252 0.0
C2594 C 0.97921 0.94305 0.81238 0.0
C2595 C 0.9965 0.91939 0.81183 0.0
C2596 C 0.98481 0.8926 0.81155 0.0
C2597 C 0.99155 0.97146 0.81269 0.0
C2598 C 0.00943 0.97989 0.80713 0.0
C2599 C 0.98465 0.99065 0.81819 0.0
C2600 C 0.9672 0.98249 0.82443 0.0
C2601 C 0.9745 0.95925 0.82865 0.0
C2602 C 0.95784 0.95153 0.83448 0.0
C2603 C 0.93393 0.967 0.83617 0.0
C2604 C 0.92666 0.99028 0.83204 0.0
C2605 C 0.94323 0.99807 0.8262 0.0
H2606 H 0.92106 0.96099 0.84068 0.0
H2607 H 0.0847 0.0366 0.78453 0.0
H2608 H 0.6197 0.98695 0.18697 0.0
H2609 H 0.57256 0.00686 0.18673 0.0
H2610 H 0.53805 0.92477 0.18289 0.0
H2611 H 0.58516 0.90481 0.18305 0.0
H2612 H 0.51376 0.96223 0.17446 0.0
H2613 H 0.53493 0.95571 0.19953 0.0
H2614 H 0.56281 0.96336 0.21047 0.0
H2615 H 0.55527 0.05229 0.2078 0.0
H2616 H 0.52765 0.04517 0.19679 0.0
H2617 H 0.37216 0.99592 0.18284 0.0
H2618 H 0.41914 0.97539 0.18303 0.0
H2619 H 0.45508 0.05765 0.18545 0.0
H2620 H 0.40825 0.07824 0.1854 0.0
H2621 H 0.47827 0.01973 0.19464 0.0
H2622 H 0.45712 0.0259 0.16953 0.0
H2623 H 0.42905 0.01797 0.15864 0.0
H2624 H 0.43619 0.92911 0.16152 0.0
H2625 H 0.46399 0.93652 0.17249 0.0
C2626 C 0.60204 0.97314 0.18612 0.0
C2627 C 0.60609 0.94431 0.18505 0.0
C2628 C 0.57512 0.98453 0.18599 0.0
C2629 C 0.55174 0.96724 0.18489 0.0
C2630 C 0.55578 0.9385 0.18374 0.0
C2631 C 0.58269 0.92714 0.18382 0.0
C2632 C 0.52307 0.97911 0.1849 0.0
C2633 C 0.50586 0.97447 0.17892 0.0
C2634 C 0.51296 0.99556 0.19065 0.0
C2635 C 0.52944 -0.0001 0.1973 0.0
C2636 C 0.53939 0.9769 0.20125 0.0
C2637 C 0.55512 0.98114 0.20746 0.0
C2638 C 0.56087 0.00829 0.20982 0.0
C2639 C 0.55083 0.03127 0.20597 0.0
C2640 C 0.53512 0.02714 0.19974 0.0
C2641 C 0.39009 0.00958 0.18345 0.0
C2642 C 0.38656 0.03869 0.18407 0.0
C2643 C 0.41688 0.99787 0.18351 0.0
C2644 C 0.44056 0.01505 0.18419 0.0
C2645 C 0.43707 0.04405 0.1849 0.0
C2646 C 0.41033 0.05578 0.18481 0.0
C2647 C 0.46904 0.00284 0.18421 0.0
C2648 C 0.48618 0.00743 0.1902 0.0
C2649 C 0.47904 0.98627 0.17848 0.0
C2650 C 0.46239 0.98177 0.17187 0.0
C2651 C 0.4525 0.00467 0.16787 0.0
C2652 C 0.43668 0.00026 0.16168 0.0
C2653 C 0.43078 0.97305 0.1594 0.0
C2654 C 0.44075 0.95018 0.1633 0.0
C2655 C 0.45655 0.95446 0.1695 0.0
H2656 H 0.41853 0.96968 0.1546 0.0
H2657 H 0.57305 0.01153 0.21463 0.0
H2658 H 0.91471 0.90874 0.43431 0.0
H2659 H 0.93434 0.9559 0.43416 0.0
H2660 H 0.01597 0.92182 0.42952 0.0
H2661 H 0.99643 0.87442 0.42978 0.0
H2662 H 0.01991 0.96052 0.43946 0.0
H2663 H 0.9761 0.95491 0.41651 0.0
H2664 H 0.93789 0.94612 0.40792 0.0
H2665 H 0.88852 0.01047 0.41782 0.0
H2666 H 0.92629 0.01939 0.42653 0.0
H2667 H 0.08236 0.08957 0.42962 0.0
H2668 H 0.06262 0.04244 0.42898 0.0
H2669 H 0.98326 0.07394 0.43646 0.0
H2670 H 0.00283 0.12136 0.43704 0.0
H2671 H 0.97873 0.03676 0.42481 0.0
H2672 H 0.0236 0.04126 0.44788 0.0
H2673 H 0.06292 0.05002 0.45613 0.0
H2674 H 0.11178 0.98727 0.44542 0.0
H2675 H 0.07286 0.97842 0.43704 0.0
C2676 C 0.93679 0.91132 0.43318 0.0
C2677 C 0.95402 0.88793 0.43201 0.0
C2678 C 0.94798 0.93828 0.43309 0.0
C2679 C 0.97655 0.94245 0.43171 0.0
C2680 C 0.99386 0.9191 0.43058 0.0
C2681 C 0.9827 0.89206 0.43074 0.0
C2682 C 0.98844 0.97114 0.43165 0.0
C2683 C 0.01116 0.97705 0.43616 0.0
C2684 C 0.97668 0.99289 0.42746 0.0
C2685 C 0.95393 0.98763 0.42222 0.0
C2686 C 0.95701 0.96704 0.41689 0.0
C2687 C 0.93545 0.96206 0.412 0.0
C2688 C 0.91077 0.97768 0.41234 0.0
C2689 C 0.90763 0.99836 0.41757 0.0
C2690 C 0.92912 0.00341 0.42248 0.0
C2691 C 0.06062 0.08652 0.43106 0.0
C2692 C 0.04412 0.10913 0.43338 0.0
C2693 C 0.04945 0.05957 0.43074 0.0
C2694 C 0.02157 0.05473 0.43273 0.0
C2695 C 0.00485 0.0773 0.43492 0.0
C2696 C 0.01608 0.10428 0.43529 0.0
C2697 C 0.01006 0.02599 0.43261 0.0
C2698 C 0.98744 0.02012 0.42807 0.0
C2699 C 0.02205 0.00421 0.43672 0.0
C2700 C 0.04541 0.00938 0.44179 0.0
C2701 C 0.04281 0.02949 0.44725 0.0
C2702 C 0.06501 0.03444 0.45196 0.0
C2703 C 0.08986 0.01926 0.45129 0.0
C2704 C 0.09253 0.99904 0.44593 0.0
C2705 C 0.0704 0.99403 0.4412 0.0
H2706 H 0.10702 0.02312 0.45494 0.0
H2707 H 0.8941 0.97379 0.40854 0.0
H2708 H 0.09631 0.42727 0.6963 0.0
H2709 H 0.04868 0.4453 0.6965 0.0
H2710 H 0.06527 0.49315 0.67738 0.0
H2711 H 0.11361 0.4767 0.67741 0.0
H2712 H 0.0354 0.52312 0.68605 0.0
H2713 H 0.02872 0.42965 0.67709 0.0
H2714 H 0.03596 0.37856 0.67703 0.0
H2715 H 0.98938 0.37114 0.6966 0.0
H2716 H 0.98218 0.42226 0.69683 0.0
H2717 H 0.89354 0.54376 0.67576 0.0
H2718 H 0.94137 0.52529 0.67591 0.0
H2719 H 0.92914 0.49566 0.6975 0.0
H2720 H 0.88126 0.51434 0.69741 0.0
H2721 H 0.95604 0.4564 0.68761 0.0
H2722 H 0.96292 0.55172 0.69606 0.0
H2723 H 0.95473 0.60257 0.69528 0.0
H2724 H 0.00038 0.60577 0.67549 0.0
H2725 H 0.00846 0.55481 0.67609 0.0
C2726 C 0.09009 0.44206 0.69221 0.0
C2727 C 0.1089 0.45042 0.68682 0.0
C2728 C 0.06264 0.45203 0.69227 0.0
C2729 C 0.05317 0.47011 0.68687 0.0
C2730 C 0.07202 0.47903 0.68158 0.0
C2731 C 0.09961 0.46936 0.68156 0.0
C2732 C 0.02361 0.47964 0.68672 0.0
C2733 C 0.0181 0.50846 0.6863 0.0
C2734 C 0.00093 0.46058 0.68714 0.0
C2735 C 0.00515 0.42982 0.68701 0.0
C2736 C 0.0202 0.41715 0.68141 0.0
C2737 C 0.02427 0.38818 0.68134 0.0
C2738 C 0.0132 0.37162 0.68681 0.0
C2739 C 0.99797 0.384 0.69236 0.0
C2740 C 0.99387 0.41296 0.69246 0.0
C2741 C 0.90096 0.53298 0.6805 0.0
C2742 C 0.88379 0.53041 0.68657 0.0
C2743 C 0.92825 0.52261 0.68059 0.0
C2744 C 0.93871 0.50929 0.68672 0.0
C2745 C 0.92136 0.50591 0.69272 0.0
C2746 C 0.89416 0.51664 0.69267 0.0
C2747 C 0.96808 0.49969 0.68695 0.0
C2748 C 0.97347 0.47093 0.68737 0.0
C2749 C 0.99062 0.51872 0.68641 0.0
C2750 C 0.98605 0.54941 0.68608 0.0
C2751 C 0.97101 0.56322 0.69151 0.0
C2752 C 0.96642 0.59207 0.69111 0.0
C2753 C 0.97697 0.60738 0.68533 0.0
C2754 C 0.99219 0.59388 0.67996 0.0
C2755 C 0.9968 0.56502 0.68033 0.0
H2756 H 0.97339 0.62971 0.68503 0.0
H2757 H 0.01637 0.3492 0.68675 0.0
H2758 H 0.43919 0.39716 0.94797 0.0
H2759 H 0.45887 0.4443 0.94817 0.0
H2760 H 0.50566 0.42624 0.92897 0.0
H2761 H 0.48674 0.37866 0.92885 0.0
H2762 H 0.53695 0.45486 0.93854 0.0
H2763 H 0.44572 0.46343 0.92809 0.0
H2764 H 0.39454 0.45744 0.92744 0.0
H2765 H 0.38468 0.50587 0.94665 0.0
H2766 H 0.43586 0.51181 0.94747 0.0
H2767 H 0.5679 0.594 0.92826 0.0
H2768 H 0.54937 0.54638 0.92852 0.0
H2769 H 0.50462 0.56523 0.948 0.0
H2770 H 0.52254 0.61325 0.94767 0.0
H2771 H 0.47243 0.53625 0.93844 0.0
H2772 H 0.56423 0.5282 0.94868 0.0
H2773 H 0.61541 0.53438 0.9491 0.0
H2774 H 0.62419 0.48516 0.92999 0.0
H2775 H 0.57298 0.47901 0.9294 0.0
C2776 C 0.45403 0.40303 0.94385 0.0
C2777 C 0.46135 0.38417 0.93838 0.0
C2778 C 0.46502 0.43009 0.94394 0.0
C2779 C 0.48339 0.43889 0.93852 0.0
C2780 C 0.49139 0.4199 0.93317 0.0
C2781 C 0.48041 0.3928 0.93309 0.0
C2782 C 0.49387 0.46808 0.93838 0.0
C2783 C 0.52286 0.47266 0.93843 0.0
C2784 C 0.47544 0.49128 0.93838 0.0
C2785 C 0.44465 0.48782 0.93789 0.0
C2786 C 0.43266 0.47261 0.93221 0.0
C2787 C 0.40364 0.46926 0.9318 0.0
C2788 C 0.38638 0.4812 0.93701 0.0
C2789 C 0.39809 0.49659 0.94263 0.0
C2790 C 0.42709 0.49997 0.94306 0.0
C2791 C 0.55384 0.58814 0.93255 0.0
C2792 C 0.54667 0.60739 0.93795 0.0
C2793 C 0.5435 0.56084 0.93274 0.0
C2794 C 0.52591 0.5522 0.93833 0.0
C2795 C 0.51829 0.57147 0.94365 0.0
C2796 C 0.52868 0.5988 0.94349 0.0
C2797 C 0.51549 0.52303 0.93861 0.0
C2798 C 0.48651 0.51845 0.93857 0.0
C2799 C 0.53393 0.49984 0.9386 0.0
C2800 C 0.56474 0.50337 0.93896 0.0
C2801 C 0.57705 0.51887 0.94454 0.0
C2802 C 0.60607 0.52234 0.94481 0.0
C2803 C 0.62304 0.51023 0.93956 0.0
C2804 C 0.61102 0.49456 0.93404 0.0
C2805 C 0.582 0.49105 0.93374 0.0
H2806 H 0.6455 0.51294 0.93978 0.0
H2807 H 0.36392 0.47859 0.93669 0.0
H2808 H 0.5889 0.58615 0.06263 0.0
H2809 H 0.54141 0.56726 0.06231 0.0
H2810 H 0.5728 0.49024 0.05331 0.0
H2811 H 0.62039 0.5091 0.05359 0.0
H2812 H 0.5271 0.50689 0.04639 0.0
H2813 H 0.55344 0.4947 0.07096 0.0
H2814 H 0.57098 0.50924 0.08281 0.0
H2815 H 0.50308 0.56754 0.08485 0.0
H2816 H 0.48534 0.55362 0.07296 0.0
H2817 H 0.4093 0.42038 0.05324 0.0
H2818 H 0.45565 0.44173 0.05316 0.0
H2819 H 0.4202 0.51989 0.06029 0.0
H2820 H 0.37348 0.49892 0.0602 0.0
H2821 H 0.46716 0.50385 0.06808 0.0
H2822 H 0.44031 0.51433 0.04347 0.0
H2823 H 0.42295 0.49849 0.03172 0.0
H2824 H 0.49222 0.44173 0.02988 0.0
H2825 H 0.50979 0.45694 0.04168 0.0
C2826 C 0.58572 0.56508 0.06066 0.0
C2827 C 0.6084 0.54904 0.05817 0.0
C2828 C 0.55857 0.55433 0.06046 0.0
C2829 C 0.55359 0.52721 0.05786 0.0
C2830 C 0.57617 0.51122 0.05533 0.0
C2831 C 0.60332 0.52202 0.05549 0.0
C2832 C 0.52481 0.51564 0.0577 0.0
C2833 C 0.51413 0.5059 0.05115 0.0
C2834 C 0.50765 0.51495 0.06388 0.0
C2835 C 0.51823 0.52332 0.07104 0.0
C2836 C 0.54238 0.51079 0.07391 0.0
C2837 C 0.55233 0.51889 0.08064 0.0
C2838 C 0.5382 0.53936 0.08457 0.0
C2839 C 0.51403 0.55172 0.08179 0.0
C2840 C 0.504 0.54372 0.07506 0.0
C2841 C 0.4112 0.44226 0.05467 0.0
C2842 C 0.38757 0.45797 0.05669 0.0
C2843 C 0.43776 0.45438 0.05465 0.0
C2844 C 0.44129 0.48242 0.05667 0.0
C2845 C 0.41787 0.49818 0.05873 0.0
C2846 C 0.39122 0.48613 0.0587 0.0
C2847 C 0.46958 0.49503 0.05678 0.0
C2848 C 0.48014 0.50495 0.06332 0.0
C2849 C 0.48669 0.49571 0.05061 0.0
C2850 C 0.47622 0.48659 0.0435 0.0
C2851 C 0.45172 0.4983 0.04059 0.0
C2852 C 0.44186 0.48947 0.03392 0.0
C2853 C 0.45643 0.46907 0.03006 0.0
C2854 C 0.48094 0.45751 0.03288 0.0
C2855 C 0.49087 0.46624 0.03956 0.0
H2856 H 0.44877 0.46226 0.0249 0.0
H2857 H 0.54593 0.54559 0.08978 0.0
H2858 H 0.49407 0.12855 0.30514 0.0
H2859 H 0.51402 0.08145 0.30444 0.0
H2860 H 0.43384 0.0461 0.31 0.0
H2861 H 0.41384 0.09305 0.31074 0.0
H2862 H 0.47433 0.02188 0.31748 0.0
H2863 H 0.45858 0.04418 0.29277 0.0
H2864 H 0.46215 0.07251 0.28177 0.0
H2865 H 0.55164 0.06474 0.28222 0.0
H2866 H 0.54862 0.03666 0.29328 0.0
H2867 H 0.50323 0.88083 0.30831 0.0
H2868 H 0.48328 0.92795 0.30831 0.0
H2869 H 0.56492 0.96278 0.30417 0.0
H2870 H 0.58515 0.91583 0.30427 0.0
H2871 H 0.52395 0.98714 0.29589 0.0
H2872 H 0.53922 0.96483 0.3207 0.0
H2873 H 0.53516 0.93614 0.33162 0.0
H2874 H 0.44569 0.94367 0.33088 0.0
H2875 H 0.44919 0.97209 0.31988 0.0
C2876 C 0.48066 0.11071 0.30616 0.0
C2877 C 0.45241 0.1145 0.30801 0.0
C2878 C 0.49207 0.08382 0.30575 0.0
C2879 C 0.47534 0.06024 0.3071 0.0
C2880 C 0.44715 0.06399 0.30896 0.0
C2881 C 0.43578 0.09084 0.3094 0.0
C2882 C 0.48727 0.03162 0.30671 0.0
C2883 C 0.48484 0.01416 0.31272 0.0
C2884 C 0.50151 0.02176 0.30056 0.0
C2885 C 0.50338 0.03856 0.29389 0.0
C2886 C 0.47903 0.0487 0.29055 0.0
C2887 C 0.48096 0.06468 0.2843 0.0
C2888 C 0.50711 0.07049 0.28131 0.0
C2889 C 0.5314 0.06026 0.28455 0.0
C2890 C 0.52959 0.04429 0.29081 0.0
C2891 C 0.51698 0.89851 0.30744 0.0
C2892 C 0.54581 0.89455 0.30632 0.0
C2893 C 0.50553 0.9254 0.30742 0.0
C2894 C 0.52269 0.94884 0.30631 0.0
C2895 C 0.55132 0.94495 0.30502 0.0
C2896 C 0.56281 0.91808 0.30505 0.0
C2897 C 0.51088 0.97746 0.30665 0.0
C2898 C 0.51339 0.9949 0.30064 0.0
C2899 C 0.49661 0.98729 0.31279 0.0
C2900 C 0.49446 0.97035 0.31943 0.0
C2901 C 0.51867 0.96018 0.32283 0.0
C2902 C 0.51647 0.944 0.32904 0.0
C2903 C 0.49018 0.93803 0.33193 0.0
C2904 C 0.46603 0.94829 0.32863 0.0
C2905 C 0.46811 0.96444 0.32241 0.0
H2906 H 0.48852 0.9255 0.33674 0.0
H2907 H 0.50856 0.08286 0.27647 0.0
H2908 H 0.86919 0.00629 0.55862 0.0
H2909 H 0.91606 0.0269 0.55886 0.0
H2910 H 0.95091 0.94704 0.56488 0.0
H2911 H 0.9043 0.9262 0.56456 0.0
H2912 H 0.97291 0.98994 0.57277 0.0
H2913 H 0.95579 0.96901 0.54793 0.0
H2914 H 0.92936 0.97065 0.5366 0.0
H2915 H 0.93669 0.0602 0.53619 0.0
H2916 H 0.96284 0.05911 0.54759 0.0
H2917 H 0.11601 0.01562 0.56496 0.0
H2918 H 0.0685 0.9967 0.56531 0.0
H2919 H 0.03593 0.07597 0.55804 0.0
H2920 H 0.08338 0.09466 0.5574 0.0
H2921 H 0.01223 0.03426 0.55096 0.0
H2922 H 0.03019 0.05557 0.57561 0.0
H2923 H 0.05631 0.05436 0.58699 0.0
H2924 H 0.04715 0.96504 0.58788 0.0
H2925 H 0.0213 0.96567 0.57644 0.0
C2926 C 0.88685 0.99308 0.55996 0.0
C2927 C 0.883 0.96459 0.56156 0.0
C2928 C 0.91358 0.00491 0.56011 0.0
C2929 C 0.93695 0.98842 0.56184 0.0
C2930 C 0.93313 0.96013 0.56356 0.0
C2931 C 0.90645 0.94829 0.5634 0.0
C2932 C 0.96549 0.00048 0.56172 0.0
C2933 C 0.98167 -0.00063 0.56799 0.0
C2934 C 0.97659 0.01331 0.55552 0.0
C2935 C 0.96102 0.01399 0.54865 0.0
C2936 C 0.95157 0.98906 0.54545 0.0
C2937 C 0.93668 0.98989 0.53901 0.0
C2938 C 0.93128 0.01552 0.53569 0.0
C2939 C 0.94085 0.04037 0.53878 0.0
C2940 C 0.95572 0.03965 0.54523 0.0
C2941 C 0.09876 0.02896 0.56338 0.0
C2942 C 0.10349 0.05669 0.56117 0.0
C2943 C 0.07159 0.01821 0.56366 0.0
C2944 C 0.04864 0.03505 0.56179 0.0
C2945 C 0.05332 0.06265 0.55954 0.0
C2946 C 0.08045 0.07338 0.55924 0.0
C2947 C 0.01976 0.02374 0.56201 0.0
C2948 C 0.0035 0.02495 0.55576 0.0
C2949 C 0.00857 0.01108 0.56824 0.0
C2950 C 0.02404 0.01064 0.57513 0.0
C2951 C 0.03394 0.03564 0.5782 0.0
C2952 C 0.04866 0.03506 0.58467 0.0
C2953 C 0.05345 0.00963 0.58815 0.0
C2954 C 0.04346 0.98472 0.58517 0.0
C2955 C 0.02875 0.98518 0.5787 0.0
H2956 H 0.06485 0.00923 0.59315 0.0
H2957 H 0.91975 0.01612 0.5307 0.0
H2958 H 0.92072 0.59156 0.80388 0.0
H2959 H 0.93972 0.54437 0.80437 0.0
H2960 H 0.01852 0.57695 0.81195 0.0
H2961 H 0.00016 0.6246 0.81108 0.0
H2962 H 0.02747 0.53682 0.80257 0.0
H2963 H 0.97063 0.54651 0.82345 0.0
H2964 H 0.92805 0.55761 0.83034 0.0
H2965 H 0.88288 0.49373 0.81903 0.0
H2966 H 0.92511 0.4825 0.81199 0.0
H2967 H 0.07806 0.40641 0.81565 0.0
H2968 H 0.06036 0.45443 0.81519 0.0
H2969 H 0.98517 0.42538 0.8048 0.0
H2970 H 0.00267 0.37716 0.8053 0.0
H2971 H 0.9753 0.46374 0.81592 0.0
H2972 H 0.03388 0.45494 0.79501 0.0
H2973 H 0.07768 0.44385 0.78864 0.0
H2974 H 0.12111 0.50652 0.80081 0.0
H2975 H 0.07763 0.51769 0.80733 0.0
C2976 C 0.94228 0.58886 0.80552 0.0
C2977 C 0.9589 0.61199 0.80744 0.0
C2978 C 0.95299 0.56174 0.8059 0.0
C2979 C 0.98036 0.55705 0.80833 0.0
C2980 C 0.99725 0.58006 0.8101 0.0
C2981 C 0.98664 0.60728 0.80966 0.0
C2982 C 0.99121 0.52808 0.80906 0.0
C2983 C 0.01625 0.52097 0.80558 0.0
C2984 C 0.97639 0.50725 0.8129 0.0
C2985 C 0.95097 0.51384 0.81715 0.0
C2986 C 0.95156 0.53496 0.82239 0.0
C2987 C 0.9275 0.54126 0.82633 0.0
C2988 C 0.90276 0.52643 0.82511 0.0
C2989 C 0.90205 0.50522 0.81996 0.0
C2990 C 0.92605 0.49887 0.816 0.0
C2991 C 0.05761 0.41023 0.81334 0.0
C2992 C 0.04168 0.38808 0.81052 0.0
C2993 C 0.04765 0.43766 0.81304 0.0
C2994 C 0.02158 0.44341 0.80991 0.0
C2995 C 0.00538 0.42131 0.80721 0.0
C2996 C 0.01543 0.39387 0.80747 0.0
C2997 C 0.01135 0.47257 0.8094 0.0
C2998 C 0.98646 0.47968 0.81293 0.0
C2999 C 0.02648 0.49345 0.80568 0.0
C3000 C 0.05256 0.48696 0.80171 0.0
C3001 C 0.05282 0.4662 0.79637 0.0
C3002 C 0.07758 0.45993 0.79272 0.0
C3003 C 0.10218 0.47442 0.79433 0.0
C3004 C 0.10205 0.49528 0.79957 0.0
C3005 C 0.07735 0.50161 0.80324 0.0
H3006 H 0.12133 0.46952 0.7915 0.0
H3007 H 0.88415 0.53134 0.82817 0.0
loop_
_geom_bond_atom_site_label_1
_geom_bond_atom_site_label_2
_geom_bond_distance
_geom_bond_site_symmetry_2
_ccdc_geom_bond_type
Li0 N17 1.990 . S
Li0 O60 1.956 . S
Li0 O61 1.970 . S
Li0 O62 1.961 . S
Li1 N25 1.990 . S
Li1 O60 1.970 . S
Li1 O61 1.956 . S
Li1 O63 1.961 . S
Li2 N47 1.990 . S
Li2 O60 1.961 . S
Li2 O62 1.956 . S
Li2 O63 1.970 . S
Li3 N53 1.990 . S
Li3 O61 1.961 . S
Li3 O62 1.970 . S
Li3 O63 1.956 . S
C4 C6 1.348 . S
C4 C7 1.356 . S
C4 O60 1.325 . S
N5 C8 1.314 . S
N5 C9 1.279 . S
C6 C4 1.348 . S
C6 C8 1.353 . S
C6 H64 0.929 . S
C7 C4 1.356 . S
C7 C9 1.358 . S
C7 H65 0.930 . S
C8 N5 1.314 . S
C8 C6 1.353 . S
C8 H66 0.930 . S
C9 N5 1.279 . S
C9 C7 1.358 . S
C9 H67 0.930 . S
C10 C13 1.348 . S
C10 C14 1.356 . S
C10 O61 1.325 . S
C11 N12 1.279 . S
C11 C14 1.358 . S
C11 H68 0.930 . S
N12 C11 1.279 . S
N12 C15 1.314 . S
C13 C10 1.348 . S
C13 C15 1.353 . S
C13 H69 0.929 . S
C14 C10 1.356 . S
C14 C11 1.358 . S
C14 H70 0.930 . S
C15 N12 1.314 . S
C15 C13 1.353 . S
C15 H71 0.930 . S
C16 N17 1.314 . S
C16 C21 1.353 . S
C16 H22 0.930 . S
N17 Li0 1.990 . S
N17 C16 1.314 . S
N17 C19 1.279 . S
C18 C19 1.358 . S
C18 C20 1.356 . S
C18 H72 0.930 . S
C19 N17 1.279 . S
C19 C18 1.358 . S
C19 H23 0.930 . S
C20 C18 1.356 . S
C20 C21 1.348 . S
C21 C16 1.353 . S
C21 C20 1.348 . S
C21 H73 0.929 . S
H22 C16 0.930 . S
H23 C19 0.930 . S
C24 N25 1.314 . S
C24 C26 1.353 . S
C24 H30 0.930 . S
N25 Li1 1.990 . S
N25 C24 1.314 . S
N25 C28 1.279 . S
C26 C24 1.353 . S
C26 C29 1.348 . S
C26 H74 0.929 . S
C27 C28 1.358 . S
C27 C29 1.356 . S
C27 H75 0.930 . S
C28 N25 1.279 . S
C28 C27 1.358 . S
C28 H31 0.930 . S
C29 C26 1.348 . S
C29 C27 1.356 . S
H30 C24 0.930 . S
H31 C28 0.930 . S
C32 C34 1.348 . S
C32 C35 1.356 . S
C32 O62 1.325 . S
N33 C36 1.314 . S
N33 C37 1.279 . S
C34 C32 1.348 . S
C34 C36 1.353 . S
C34 H76 0.929 . S
C35 C32 1.356 . S
C35 C37 1.358 . S
C35 H77 0.930 . S
C36 N33 1.314 . S
C36 C34 1.353 . S
C36 H78 0.930 . S
C37 N33 1.279 . S
C37 C35 1.358 . S
C37 H79 0.930 . S
C38 C39 1.348 . S
C38 C40 1.356 . S
C38 O63 1.325 . S
C39 C38 1.348 . S
C39 C41 1.353 . S
C39 H80 0.929 . S
C40 C38 1.356 . S
C40 C42 1.358 . S
C40 H81 0.930 . S
C41 C39 1.353 . S
C41 N43 1.314 . S
C41 H82 0.930 . S
C42 C40 1.358 . S
C42 N43 1.279 . S
C42 H83 0.930 . S
N43 C41 1.314 . S
N43 C42 1.279 . S
C44 C46 1.353 . S
C44 N47 1.314 . S
C44 H50 0.930 . S
C45 N47 1.279 . S
C45 C48 1.358 . S
C45 H51 0.930 . S
C46 C44 1.353 . S
C46 C49 1.348 . S
C46 H84 0.929 . S
N47 Li2 1.990 . S
N47 C44 1.314 . S
N47 C45 1.279 . S
C48 C45 1.358 . S
C48 C49 1.356 . S
C48 H85 0.930 . S
C49 C46 1.348 . S
C49 C48 1.356 . S
H50 C44 0.930 . S
H51 C45 0.930 . S
C52 N53 1.314 . S
C52 C54 1.353 . S
C52 H58 0.930 . S
N53 Li3 1.990 . S
N53 C52 1.314 . S
N53 C56 1.279 . S
C54 C52 1.353 . S
C54 C57 1.348 . S
C54 H86 0.929 . S
C55 C56 1.358 . S
C55 C57 1.356 . S
C55 H87 0.930 . S
C56 N53 1.279 . S
C56 C55 1.358 . S
C56 H59 0.930 . S
C57 C54 1.348 . S
C57 C55 1.356 . S
H58 C52 0.930 . S
H59 C56 0.930 . S
O60 Li0 1.956 . S
O60 Li1 1.970 . S
O60 Li2 1.961 . S
O60 C4 1.325 . S
O61 Li0 1.970 . S
O61 Li1 1.956 . S
O61 Li3 1.961 . S
O61 C10 1.325 . S
O62 Li0 1.961 . S
O62 Li2 1.956 . S
O62 Li3 1.970 . S
O62 C32 1.325 . S
O63 Li1 1.961 . S
O63 Li2 1.970 . S
O63 Li3 1.956 . S
O63 C38 1.325 . S
H64 C6 0.929 . S
H65 C7 0.930 . S
H66 C8 0.930 . S
H67 C9 0.930 . S
H68 C11 0.930 . S
H69 C13 0.929 . S
H70 C14 0.930 . S
H71 C15 0.930 . S
H72 C18 0.930 . S
H73 C21 0.929 . S
H74 C26 0.929 . S
H75 C27 0.930 . S
H76 C34 0.929 . S
H77 C35 0.930 . S
H78 C36 0.930 . S
H79 C37 0.930 . S
H80 C39 0.929 . S
H81 C40 0.930 . S
H82 C41 0.930 . S
H83 C42 0.930 . S
H84 C46 0.929 . S
H85 C48 0.930 . S
H86 C54 0.929 . S
H87 C55 0.930 . S
Li88 N105 1.990 . S
Li88 O148 1.956 . S
Li88 O149 1.970 . S
Li88 O150 1.961 . S
Li89 N113 1.990 . S
Li89 O148 1.970 . S
Li89 O149 1.956 . S
Li89 O151 1.961 . S
Li90 N135 1.990 . S
Li90 O148 1.961 . S
Li90 O150 1.956 . S
Li90 O151 1.970 . S
Li91 N141 1.990 . S
Li91 O149 1.961 . S
Li91 O150 1.970 . S
Li91 O151 1.956 . S
C92 C94 1.348 . S
C92 C95 1.356 . S
C92 O148 1.325 . S
N93 C96 1.314 . S
N93 C97 1.279 . S
C94 C92 1.348 . S
C94 C96 1.353 . S
C94 H152 0.929 . S
C95 C92 1.356 . S
C95 C97 1.358 . S
C95 H153 0.930 . S
C96 N93 1.314 . S
C96 C94 1.353 . S
C96 H154 0.930 . S
C97 N93 1.279 . S
C97 C95 1.358 . S
C97 H155 0.930 . S
C98 C101 1.348 . S
C98 C102 1.356 . S
C98 O149 1.325 . S
C99 N100 1.279 . S
C99 C102 1.358 . S
C99 H156 0.930 . S
N100 C99 1.279 . S
N100 C103 1.314 . S
C101 C98 1.348 . S
C101 C103 1.353 . S
C101 H157 0.929 . S
C102 C98 1.356 . S
C102 C99 1.358 . S
C102 H158 0.930 . S
C103 N100 1.314 . S
C103 C101 1.353 . S
C103 H159 0.930 . S
C104 N105 1.314 . S
C104 C109 1.353 . S
C104 H110 0.930 . S
N105 Li88 1.990 . S
N105 C104 1.314 . S
N105 C107 1.279 . S
C106 C107 1.358 . S
C106 C108 1.356 . S
C106 H160 0.930 . S
C107 N105 1.279 . S
C107 C106 1.358 . S
C107 H111 0.930 . S
C108 C106 1.356 . S
C108 C109 1.348 . S
C109 C104 1.353 . S
C109 C108 1.348 . S
C109 H161 0.929 . S
H110 C104 0.930 . S
H111 C107 0.930 . S
C112 N113 1.314 . S
C112 C114 1.353 . S
C112 H118 0.930 . S
N113 Li89 1.990 . S
N113 C112 1.314 . S
N113 C116 1.279 . S
C114 C112 1.353 . S
C114 C117 1.348 . S
C114 H162 0.929 . S
C115 C116 1.358 . S
C115 C117 1.356 . S
C115 H163 0.930 . S
C116 N113 1.279 . S
C116 C115 1.358 . S
C116 H119 0.930 . S
C117 C114 1.348 . S
C117 C115 1.356 . S
H118 C112 0.930 . S
H119 C116 0.930 . S
C120 C122 1.348 . S
C120 C123 1.356 . S
C120 O150 1.325 . S
N121 C124 1.314 . S
N121 C125 1.279 . S
C122 C120 1.348 . S
C122 C124 1.353 . S
C122 H164 0.929 . S
C123 C120 1.356 . S
C123 C125 1.358 . S
C123 H165 0.930 . S
C124 N121 1.314 . S
C124 C122 1.353 . S
C124 H166 0.930 . S
C125 N121 1.279 . S
C125 C123 1.358 . S
C125 H167 0.930 . S
C126 C127 1.348 . S
C126 C128 1.356 . S
C126 O151 1.325 . S
C127 C126 1.348 . S
C127 C129 1.353 . S
C127 H168 0.929 . S
C128 C126 1.356 . S
C128 C130 1.358 . S
C128 H169 0.930 . S
C129 C127 1.353 . S
C129 N131 1.314 . S
C129 H170 0.930 . S
C130 C128 1.358 . S
C130 N131 1.279 . S
C130 H171 0.930 . S
N131 C129 1.314 . S
N131 C130 1.279 . S
C132 C134 1.353 . S
C132 N135 1.314 . S
C132 H138 0.930 . S
C133 N135 1.279 . S
C133 C136 1.358 . S
C133 H139 0.930 . S
C134 C132 1.353 . S
C134 C137 1.348 . S
C134 H172 0.929 . S
N135 Li90 1.990 . S
N135 C132 1.314 . S
N135 C133 1.279 . S
C136 C133 1.358 . S
C136 C137 1.356 . S
C136 H173 0.930 . S
C137 C134 1.348 . S
C137 C136 1.356 . S
H138 C132 0.930 . S
H139 C133 0.930 . S
C140 N141 1.314 . S
C140 C142 1.353 . S
C140 H146 0.930 . S
N141 Li91 1.990 . S
N141 C140 1.314 . S
N141 C144 1.279 . S
C142 C140 1.353 . S
C142 C145 1.348 . S
C142 H174 0.929 . S
C143 C144 1.358 . S
C143 C145 1.356 . S
C143 H175 0.930 . S
C144 N141 1.279 . S
C144 C143 1.358 . S
C144 H147 0.930 . S
C145 C142 1.348 . S
C145 C143 1.356 . S
H146 C140 0.930 . S
H147 C144 0.930 . S
O148 Li88 1.956 . S
O148 Li89 1.970 . S
O148 Li90 1.961 . S
O148 C92 1.325 . S
O149 Li88 1.970 . S
O149 Li89 1.956 . S
O149 Li91 1.961 . S
O149 C98 1.325 . S
O150 Li88 1.961 . S
O150 Li90 1.956 . S
O150 Li91 1.970 . S
O150 C120 1.325 . S
O151 Li89 1.961 . S
O151 Li90 1.970 . S
O151 Li91 1.956 . S
O151 C126 1.325 . S
H152 C94 0.929 . S
H153 C95 0.930 . S
H154 C96 0.930 . S
H155 C97 0.930 . S
H156 C99 0.930 . S
H157 C101 0.929 . S
H158 C102 0.930 . S
H159 C103 0.930 . S
H160 C106 0.930 . S
H161 C109 0.929 . S
H162 C114 0.929 . S
H163 C115 0.930 . S
H164 C122 0.929 . S
H165 C123 0.930 . S
H166 C124 0.930 . S
H167 C125 0.930 . S
H168 C127 0.929 . S
H169 C128 0.930 . S
H170 C129 0.930 . S
H171 C130 0.930 . S
H172 C134 0.929 . S
H173 C136 0.930 . S
H174 C142 0.929 . S
H175 C143 0.930 . S
Li176 N193 1.990 . S
Li176 O236 1.956 . S
Li176 O237 1.970 . S
Li176 O238 1.961 . S
Li177 N201 1.990 . S
Li177 O236 1.970 . S
Li177 O237 1.956 . S
Li177 O239 1.961 . S
Li178 N223 1.990 . S
Li178 O236 1.961 . S
Li178 O238 1.956 . S
Li178 O239 1.970 . S
Li179 N229 1.990 . S
Li179 O237 1.961 . S
Li179 O238 1.970 . S
Li179 O239 1.956 . S
C180 C182 1.348 . S
C180 C183 1.356 . S
C180 O236 1.325 . S
N181 C184 1.314 . S
N181 C185 1.279 . S
C182 C180 1.348 . S
C182 C184 1.353 . S
C182 H240 0.929 . S
C183 C180 1.356 . S
C183 C185 1.358 . S
C183 H241 0.930 . S
C184 N181 1.314 . S
C184 C182 1.353 . S
C184 H242 0.930 . S
C185 N181 1.279 . S
C185 C183 1.358 . S
C185 H243 0.930 . S
C186 C189 1.348 . S
C186 C190 1.356 . S
C186 O237 1.325 . S
C187 N188 1.279 . S
C187 C190 1.358 . S
C187 H244 0.930 . S
N188 C187 1.279 . S
N188 C191 1.314 . S
C189 C186 1.348 . S
C189 C191 1.353 . S
C189 H245 0.929 . S
C190 C186 1.356 . S
C190 C187 1.358 . S
C190 H246 0.930 . S
C191 N188 1.314 . S
C191 C189 1.353 . S
C191 H247 0.930 . S
C192 N193 1.314 . S
C192 C197 1.353 . S
C192 H198 0.930 . S
N193 Li176 1.990 . S
N193 C192 1.314 . S
N193 C195 1.279 . S
C194 C195 1.358 . S
C194 C196 1.356 . S
C194 H248 0.930 . S
C195 N193 1.279 . S
C195 C194 1.358 . S
C195 H199 0.930 . S
C196 C194 1.356 . S
C196 C197 1.348 . S
C197 C192 1.353 . S
C197 C196 1.348 . S
C197 H249 0.929 . S
H198 C192 0.930 . S
H199 C195 0.930 . S
C200 N201 1.314 . S
C200 C202 1.353 . S
C200 H206 0.930 . S
N201 Li177 1.990 . S
N201 C200 1.314 . S
N201 C204 1.279 . S
C202 C200 1.353 . S
C202 C205 1.348 . S
C202 H250 0.929 . S
C203 C204 1.358 . S
C203 C205 1.356 . S
C203 H251 0.930 . S
C204 N201 1.279 . S
C204 C203 1.358 . S
C204 H207 0.930 . S
C205 C202 1.348 . S
C205 C203 1.356 . S
H206 C200 0.930 . S
H207 C204 0.930 . S
C208 C210 1.348 . S
C208 C211 1.356 . S
C208 O238 1.325 . S
N209 C212 1.314 . S
N209 C213 1.279 . S
C210 C208 1.348 . S
C210 C212 1.353 . S
C210 H252 0.929 . S
C211 C208 1.356 . S
C211 C213 1.358 . S
C211 H253 0.930 . S
C212 N209 1.314 . S
C212 C210 1.353 . S
C212 H254 0.930 . S
C213 N209 1.279 . S
C213 C211 1.358 . S
C213 H255 0.930 . S
C214 C215 1.348 . S
C214 C216 1.356 . S
C214 O239 1.325 . S
C215 C214 1.348 . S
C215 C217 1.353 . S
C215 H256 0.929 . S
C216 C214 1.356 . S
C216 C218 1.358 . S
C216 H257 0.930 . S
C217 C215 1.353 . S
C217 N219 1.314 . S
C217 H258 0.930 . S
C218 C216 1.358 . S
C218 N219 1.279 . S
C218 H259 0.930 . S
N219 C217 1.314 . S
N219 C218 1.279 . S
C220 C222 1.353 . S
C220 N223 1.314 . S
C220 H226 0.930 . S
C221 N223 1.279 . S
C221 C224 1.358 . S
C221 H227 0.930 . S
C222 C220 1.353 . S
C222 C225 1.348 . S
C222 H260 0.929 . S
N223 Li178 1.990 . S
N223 C220 1.314 . S
N223 C221 1.279 . S
C224 C221 1.358 . S
C224 C225 1.356 . S
C224 H261 0.930 . S
C225 C222 1.348 . S
C225 C224 1.356 . S
H226 C220 0.930 . S
H227 C221 0.930 . S
C228 N229 1.314 . S
C228 C230 1.353 . S
C228 H234 0.930 . S
N229 Li179 1.990 . S
N229 C228 1.314 . S
N229 C232 1.279 . S
C230 C228 1.353 . S
C230 C233 1.348 . S
C230 H262 0.929 . S
C231 C232 1.358 . S
C231 C233 1.356 . S
C231 H263 0.930 . S
C232 N229 1.279 . S
C232 C231 1.358 . S
C232 H235 0.930 . S
C233 C230 1.348 . S
C233 C231 1.356 . S
H234 C228 0.930 . S
H235 C232 0.930 . S
O236 Li176 1.956 . S
O236 Li177 1.970 . S
O236 Li178 1.961 . S
O236 C180 1.325 . S
O237 Li176 1.970 . S
O237 Li177 1.956 . S
O237 Li179 1.961 . S
O237 C186 1.325 . S
O238 Li176 1.961 . S
O238 Li178 1.956 . S
O238 Li179 1.970 . S
O238 C208 1.325 . S
O239 Li177 1.961 . S
O239 Li178 1.970 . S
O239 Li179 1.956 . S
O239 C214 1.325 . S
H240 C182 0.929 . S
H241 C183 0.930 . S
H242 C184 0.930 . S
H243 C185 0.930 . S
H244 C187 0.930 . S
H245 C189 0.929 . S
H246 C190 0.930 . S
H247 C191 0.930 . S
H248 C194 0.930 . S
H249 C197 0.929 . S
H250 C202 0.929 . S
H251 C203 0.930 . S
H252 C210 0.929 . S
H253 C211 0.930 . S
H254 C212 0.930 . S
H255 C213 0.930 . S
H256 C215 0.929 . S
H257 C216 0.930 . S
H258 C217 0.930 . S
H259 C218 0.930 . S
H260 C222 0.929 . S
H261 C224 0.930 . S
H262 C230 0.929 . S
H263 C231 0.930 . S
Li264 N281 1.990 . S
Li264 O324 1.956 . S
Li264 O325 1.970 . S
Li264 O326 1.961 . S
Li265 N289 1.990 . S
Li265 O324 1.970 . S
Li265 O325 1.956 . S
Li265 O327 1.961 . S
Li266 N311 1.990 . S
Li266 O324 1.961 . S
Li266 O326 1.956 . S
Li266 O327 1.970 . S
Li267 N317 1.990 . S
Li267 O325 1.961 . S
Li267 O326 1.970 . S
Li267 O327 1.956 . S
C268 C270 1.348 . S
C268 C271 1.356 . S
C268 O324 1.325 . S
N269 C272 1.314 . S
N269 C273 1.279 . S
C270 C268 1.348 . S
C270 C272 1.353 . S
C270 H328 0.929 . S
C271 C268 1.356 . S
C271 C273 1.358 . S
C271 H329 0.930 . S
C272 N269 1.314 . S
C272 C270 1.353 . S
C272 H330 0.930 . S
C273 N269 1.279 . S
C273 C271 1.358 . S
C273 H331 0.930 . S
C274 C277 1.348 . S
C274 C278 1.356 . S
C274 O325 1.325 . S
C275 N276 1.279 . S
C275 C278 1.358 . S
C275 H332 0.930 . S
N276 C275 1.279 . S
N276 C279 1.314 . S
C277 C274 1.348 . S
C277 C279 1.353 . S
C277 H333 0.929 . S
C278 C274 1.356 . S
C278 C275 1.358 . S
C278 H334 0.930 . S
C279 N276 1.314 . S
C279 C277 1.353 . S
C279 H335 0.930 . S
C280 N281 1.314 . S
C280 C285 1.353 . S
C280 H286 0.930 . S
N281 Li264 1.990 . S
N281 C280 1.314 . S
N281 C283 1.279 . S
C282 C283 1.358 . S
C282 C284 1.356 . S
C282 H336 0.930 . S
C283 N281 1.279 . S
C283 C282 1.358 . S
C283 H287 0.930 . S
C284 C282 1.356 . S
C284 C285 1.348 . S
C285 C280 1.353 . S
C285 C284 1.348 . S
C285 H337 0.929 . S
H286 C280 0.930 . S
H287 C283 0.930 . S
C288 N289 1.314 . S
C288 C290 1.353 . S
C288 H294 0.930 . S
N289 Li265 1.990 . S
N289 C288 1.314 . S
N289 C292 1.279 . S
C290 C288 1.353 . S
C290 C293 1.348 . S
C290 H338 0.929 . S
C291 C292 1.358 . S
C291 C293 1.356 . S
C291 H339 0.930 . S
C292 N289 1.279 . S
C292 C291 1.358 . S
C292 H295 0.930 . S
C293 C290 1.348 . S
C293 C291 1.356 . S
H294 C288 0.930 . S
H295 C292 0.930 . S
C296 C298 1.348 . S
C296 C299 1.356 . S
C296 O326 1.325 . S
N297 C300 1.314 . S
N297 C301 1.279 . S
C298 C296 1.348 . S
C298 C300 1.353 . S
C298 H340 0.929 . S
C299 C296 1.356 . S
C299 C301 1.358 . S
C299 H341 0.930 . S
C300 N297 1.314 . S
C300 C298 1.353 . S
C300 H342 0.930 . S
C301 N297 1.279 . S
C301 C299 1.358 . S
C301 H343 0.930 . S
C302 C303 1.348 . S
C302 C304 1.356 . S
C302 O327 1.325 . S
C303 C302 1.348 . S
C303 C305 1.353 . S
C303 H344 0.929 . S
C304 C302 1.356 . S
C304 C306 1.358 . S
C304 H345 0.930 . S
C305 C303 1.353 . S
C305 N307 1.314 . S
C305 H346 0.930 . S
C306 C304 1.358 . S
C306 N307 1.279 . S
C306 H347 0.930 . S
N307 C305 1.314 . S
N307 C306 1.279 . S
C308 C310 1.353 . S
C308 N311 1.314 . S
C308 H314 0.930 . S
C309 N311 1.279 . S
C309 C312 1.358 . S
C309 H315 0.930 . S
C310 C308 1.353 . S
C310 C313 1.348 . S
C310 H348 0.929 . S
N311 Li266 1.990 . S
N311 C308 1.314 . S
N311 C309 1.279 . S
C312 C309 1.358 . S
C312 C313 1.356 . S
C312 H349 0.930 . S
C313 C310 1.348 . S
C313 C312 1.356 . S
H314 C308 0.930 . S
H315 C309 0.930 . S
C316 N317 1.314 . S
C316 C318 1.353 . S
C316 H322 0.930 . S
N317 Li267 1.990 . S
N317 C316 1.314 . S
N317 C320 1.279 . S
C318 C316 1.353 . S
C318 C321 1.348 . S
C318 H350 0.929 . S
C319 C320 1.358 . S
C319 C321 1.356 . S
C319 H351 0.930 . S
C320 N317 1.279 . S
C320 C319 1.358 . S
C320 H323 0.930 . S
C321 C318 1.348 . S
C321 C319 1.356 . S
H322 C316 0.930 . S
H323 C320 0.930 . S
O324 Li264 1.956 . S
O324 Li265 1.970 . S
O324 Li266 1.961 . S
O324 C268 1.325 . S
O325 Li264 1.970 . S
O325 Li265 1.956 . S
O325 Li267 1.961 . S
O325 C274 1.325 . S
O326 Li264 1.961 . S
O326 Li266 1.956 . S
O326 Li267 1.970 . S
O326 C296 1.325 . S
O327 Li265 1.961 . S
O327 Li266 1.970 . S
O327 Li267 1.956 . S
O327 C302 1.325 . S
H328 C270 0.929 . S
H329 C271 0.930 . S
H330 C272 0.930 . S
H331 C273 0.930 . S
H332 C275 0.930 . S
H333 C277 0.929 . S
H334 C278 0.930 . S
H335 C279 0.930 . S
H336 C282 0.930 . S
H337 C285 0.929 . S
H338 C290 0.929 . S
H339 C291 0.930 . S
H340 C298 0.929 . S
H341 C299 0.930 . S
H342 C300 0.930 . S
H343 C301 0.930 . S
H344 C303 0.929 . S
H345 C304 0.930 . S
H346 C305 0.930 . S
H347 C306 0.930 . S
H348 C310 0.929 . S
H349 C312 0.930 . S
H350 C318 0.929 . S
H351 C319 0.930 . S
Li352 N369 1.990 . S
Li352 O412 1.956 . S
Li352 O413 1.970 . S
Li352 O414 1.961 . S
Li353 N377 1.990 . S
Li353 O412 1.970 . S
Li353 O413 1.956 . S
Li353 O415 1.961 . S
Li354 N399 1.990 . S
Li354 O412 1.961 . S
Li354 O414 1.956 . S
Li354 O415 1.970 . S
Li355 N405 1.990 . S
Li355 O413 1.961 . S
Li355 O414 1.970 . S
Li355 O415 1.956 . S
C356 C358 1.348 . S
C356 C359 1.356 . S
C356 O412 1.325 . S
N357 C360 1.314 . S
N357 C361 1.279 . S
C358 C356 1.348 . S
C358 C360 1.353 . S
C358 H416 0.929 . S
C359 C356 1.356 . S
C359 C361 1.358 . S
C359 H417 0.930 . S
C360 N357 1.314 . S
C360 C358 1.353 . S
C360 H418 0.930 . S
C361 N357 1.279 . S
C361 C359 1.358 . S
C361 H419 0.930 . S
C362 C365 1.348 . S
C362 C366 1.356 . S
C362 O413 1.325 . S
C363 N364 1.279 . S
C363 C366 1.358 . S
C363 H420 0.930 . S
N364 C363 1.279 . S
N364 C367 1.314 . S
C365 C362 1.348 . S
C365 C367 1.353 . S
C365 H421 0.929 . S
C366 C362 1.356 . S
C366 C363 1.358 . S
C366 H422 0.930 . S
C367 N364 1.314 . S
C367 C365 1.353 . S
C367 H423 0.930 . S
C368 N369 1.314 . S
C368 C373 1.353 . S
C368 H374 0.930 . S
N369 Li352 1.990 . S
N369 C368 1.314 . S
N369 C371 1.279 . S
C370 C371 1.358 . S
C370 C372 1.356 . S
C370 H424 0.930 . S
C371 N369 1.279 . S
C371 C370 1.358 . S
C371 H375 0.930 . S
C372 C370 1.356 . S
C372 C373 1.348 . S
C373 C368 1.353 . S
C373 C372 1.348 . S
C373 H425 0.929 . S
H374 C368 0.930 . S
H375 C371 0.930 . S
C376 N377 1.314 . S
C376 C378 1.353 . S
C376 H382 0.930 . S
N377 Li353 1.990 . S
N377 C376 1.314 . S
N377 C380 1.279 . S
C378 C376 1.353 . S
C378 C381 1.348 . S
C378 H426 0.929 . S
C379 C380 1.358 . S
C379 C381 1.356 . S
C379 H427 0.930 . S
C380 N377 1.279 . S
C380 C379 1.358 . S
C380 H383 0.930 . S
C381 C378 1.348 . S
C381 C379 1.356 . S
H382 C376 0.930 . S
H383 C380 0.930 . S
C384 C386 1.348 . S
C384 C387 1.356 . S
C384 O414 1.325 . S
N385 C388 1.314 . S
N385 C389 1.279 . S
C386 C384 1.348 . S
C386 C388 1.353 . S
C386 H428 0.929 . S
C387 C384 1.356 . S
C387 C389 1.358 . S
C387 H429 0.930 . S
C388 N385 1.314 . S
C388 C386 1.353 . S
C388 H430 0.930 . S
C389 N385 1.279 . S
C389 C387 1.358 . S
C389 H431 0.930 . S
C390 C391 1.348 . S
C390 C392 1.356 . S
C390 O415 1.325 . S
C391 C390 1.348 . S
C391 C393 1.353 . S
C391 H432 0.929 . S
C392 C390 1.356 . S
C392 C394 1.358 . S
C392 H433 0.930 . S
C393 C391 1.353 . S
C393 N395 1.314 . S
C393 H434 0.930 . S
C394 C392 1.358 . S
C394 N395 1.279 . S
C394 H435 0.930 . S
N395 C393 1.314 . S
N395 C394 1.279 . S
C396 C398 1.353 . S
C396 N399 1.314 . S
C396 H402 0.930 . S
C397 N399 1.279 . S
C397 C400 1.358 . S
C397 H403 0.930 . S
C398 C396 1.353 . S
C398 C401 1.348 . S
C398 H436 0.929 . S
N399 Li354 1.990 . S
N399 C396 1.314 . S
N399 C397 1.279 . S
C400 C397 1.358 . S
C400 C401 1.356 . S
C400 H437 0.930 . S
C401 C398 1.348 . S
C401 C400 1.356 . S
H402 C396 0.930 . S
H403 C397 0.930 . S
C404 N405 1.314 . S
C404 C406 1.353 . S
C404 H410 0.930 . S
N405 Li355 1.990 . S
N405 C404 1.314 . S
N405 C408 1.279 . S
C406 C404 1.353 . S
C406 C409 1.348 . S
C406 H438 0.929 . S
C407 C408 1.358 . S
C407 C409 1.356 . S
C407 H439 0.930 . S
C408 N405 1.279 . S
C408 C407 1.358 . S
C408 H411 0.930 . S
C409 C406 1.348 . S
C409 C407 1.356 . S
H410 C404 0.930 . S
H411 C408 0.930 . S
O412 Li352 1.956 . S
O412 Li353 1.970 . S
O412 Li354 1.961 . S
O412 C356 1.325 . S
O413 Li352 1.970 . S
O413 Li353 1.956 . S
O413 Li355 1.961 . S
O413 C362 1.325 . S
O414 Li352 1.961 . S
O414 Li354 1.956 . S
O414 Li355 1.970 . S
O414 C384 1.325 . S
O415 Li353 1.961 . S
O415 Li354 1.970 . S
O415 Li355 1.956 . S
O415 C390 1.325 . S
H416 C358 0.929 . S
H417 C359 0.930 . S
H418 C360 0.930 . S
H419 C361 0.930 . S
H420 C363 0.930 . S
H421 C365 0.929 . S
H422 C366 0.930 . S
H423 C367 0.930 . S
H424 C370 0.930 . S
H425 C373 0.929 . S
H426 C378 0.929 . S
H427 C379 0.930 . S
H428 C386 0.929 . S
H429 C387 0.930 . S
H430 C388 0.930 . S
H431 C389 0.930 . S
H432 C391 0.929 . S
H433 C392 0.930 . S
H434 C393 0.930 . S
H435 C394 0.930 . S
H436 C398 0.929 . S
H437 C400 0.930 . S
H438 C406 0.929 . S
H439 C407 0.930 . S
Li440 N457 1.990 . S
Li440 O500 1.956 . S
Li440 O501 1.970 . S
Li440 O502 1.961 . S
Li441 N465 1.990 . S
Li441 O500 1.970 . S
Li441 O501 1.956 . S
Li441 O503 1.961 . S
Li442 N487 1.990 . S
Li442 O500 1.961 . S
Li442 O502 1.956 . S
Li442 O503 1.970 . S
Li443 N493 1.990 . S
Li443 O501 1.961 . S
Li443 O502 1.970 . S
Li443 O503 1.956 . S
C444 C446 1.348 . S
C444 C447 1.356 . S
C444 O500 1.325 . S
N445 C448 1.314 . S
N445 C449 1.279 . S
C446 C444 1.348 . S
C446 C448 1.353 . S
C446 H504 0.929 . S
C447 C444 1.356 . S
C447 C449 1.358 . S
C447 H505 0.930 . S
C448 N445 1.314 . S
C448 C446 1.353 . S
C448 H506 0.930 . S
C449 N445 1.279 . S
C449 C447 1.358 . S
C449 H507 0.930 . S
C450 C453 1.348 . S
C450 C454 1.356 . S
C450 O501 1.325 . S
C451 N452 1.279 . S
C451 C454 1.358 . S
C451 H508 0.930 . S
N452 C451 1.279 . S
N452 C455 1.314 . S
C453 C450 1.348 . S
C453 C455 1.353 . S
C453 H509 0.929 . S
C454 C450 1.356 . S
C454 C451 1.358 . S
C454 H510 0.930 . S
C455 N452 1.314 . S
C455 C453 1.353 . S
C455 H511 0.930 . S
C456 N457 1.314 . S
C456 C461 1.353 . S
C456 H462 0.930 . S
N457 Li440 1.990 . S
N457 C456 1.314 . S
N457 C459 1.279 . S
C458 C459 1.358 . S
C458 C460 1.356 . S
C458 H512 0.930 . S
C459 N457 1.279 . S
C459 C458 1.358 . S
C459 H463 0.930 . S
C460 C458 1.356 . S
C460 C461 1.348 . S
C461 C456 1.353 . S
C461 C460 1.348 . S
C461 H513 0.929 . S
H462 C456 0.930 . S
H463 C459 0.930 . S
C464 N465 1.314 . S
C464 C466 1.353 . S
C464 H470 0.930 . S
N465 Li441 1.990 . S
N465 C464 1.314 . S
N465 C468 1.279 . S
C466 C464 1.353 . S
C466 C469 1.348 . S
C466 H514 0.929 . S
C467 C468 1.358 . S
C467 C469 1.356 . S
C467 H515 0.930 . S
C468 N465 1.279 . S
C468 C467 1.358 . S
C468 H471 0.930 . S
C469 C466 1.348 . S
C469 C467 1.356 . S
H470 C464 0.930 . S
H471 C468 0.930 . S
C472 C474 1.348 . S
C472 C475 1.356 . S
C472 O502 1.325 . S
N473 C476 1.314 . S
N473 C477 1.279 . S
C474 C472 1.348 . S
C474 C476 1.353 . S
C474 H516 0.929 . S
C475 C472 1.356 . S
C475 C477 1.358 . S
C475 H517 0.930 . S
C476 N473 1.314 . S
C476 C474 1.353 . S
C476 H518 0.930 . S
C477 N473 1.279 . S
C477 C475 1.358 . S
C477 H519 0.930 . S
C478 C479 1.348 . S
C478 C480 1.356 . S
C478 O503 1.325 . S
C479 C478 1.348 . S
C479 C481 1.353 . S
C479 H520 0.929 . S
C480 C478 1.356 . S
C480 C482 1.358 . S
C480 H521 0.930 . S
C481 C479 1.353 . S
C481 N483 1.314 . S
C481 H522 0.930 . S
C482 C480 1.358 . S
C482 N483 1.279 . S
C482 H523 0.930 . S
N483 C481 1.314 . S
N483 C482 1.279 . S
C484 C486 1.353 . S
C484 N487 1.314 . S
C484 H490 0.930 . S
C485 N487 1.279 . S
C485 C488 1.358 . S
C485 H491 0.930 . S
C486 C484 1.353 . S
C486 C489 1.348 . S
C486 H524 0.929 . S
N487 Li442 1.990 . S
N487 C484 1.314 . S
N487 C485 1.279 . S
C488 C485 1.358 . S
C488 C489 1.356 . S
C488 H525 0.930 . S
C489 C486 1.348 . S
C489 C488 1.356 . S
H490 C484 0.930 . S
H491 C485 0.930 . S
C492 N493 1.314 . S
C492 C494 1.353 . S
C492 H498 0.930 . S
N493 Li443 1.990 . S
N493 C492 1.314 . S
N493 C496 1.279 . S
C494 C492 1.353 . S
C494 C497 1.348 . S
C494 H526 0.929 . S
C495 C496 1.358 . S
C495 C497 1.356 . S
C495 H527 0.930 . S
C496 N493 1.279 . S
C496 C495 1.358 . S
C496 H499 0.930 . S
C497 C494 1.348 . S
C497 C495 1.356 . S
H498 C492 0.930 . S
H499 C496 0.930 . S
O500 Li440 1.956 . S
O500 Li441 1.970 . S
O500 Li442 1.961 . S
O500 C444 1.325 . S
O501 Li440 1.970 . S
O501 Li441 1.956 . S
O501 Li443 1.961 . S
O501 C450 1.325 . S
O502 Li440 1.961 . S
O502 Li442 1.956 . S
O502 Li443 1.970 . S
O502 C472 1.325 . S
O503 Li441 1.961 . S
O503 Li442 1.970 . S
O503 Li443 1.956 . S
O503 C478 1.325 . S
H504 C446 0.929 . S
H505 C447 0.930 . S
H506 C448 0.930 . S
H507 C449 0.930 . S
H508 C451 0.930 . S
H509 C453 0.929 . S
H510 C454 0.930 . S
H511 C455 0.930 . S
H512 C458 0.930 . S
H513 C461 0.929 . S
H514 C466 0.929 . S
H515 C467 0.930 . S
H516 C474 0.929 . S
H517 C475 0.930 . S
H518 C476 0.930 . S
H519 C477 0.930 . S
H520 C479 0.929 . S
H521 C480 0.930 . S
H522 C481 0.930 . S
H523 C482 0.930 . S
H524 C486 0.929 . S
H525 C488 0.930 . S
H526 C494 0.929 . S
H527 C495 0.930 . S
Li528 N545 1.990 . S
Li528 O588 1.956 . S
Li528 O589 1.970 . S
Li528 O590 1.961 . S
Li529 N553 1.990 . S
Li529 O588 1.970 . S
Li529 O589 1.956 . S
Li529 O591 1.961 . S
Li530 N575 1.990 . S
Li530 O588 1.961 . S
Li530 O590 1.956 . S
Li530 O591 1.970 . S
Li531 N581 1.990 . S
Li531 O589 1.961 . S
Li531 O590 1.970 . S
Li531 O591 1.956 . S
C532 C534 1.348 . S
C532 C535 1.356 . S
C532 O588 1.325 . S
N533 C536 1.314 . S
N533 C537 1.279 . S
C534 C532 1.348 . S
C534 C536 1.353 . S
C534 H592 0.929 . S
C535 C532 1.356 . S
C535 C537 1.358 . S
C535 H593 0.930 . S
C536 N533 1.314 . S
C536 C534 1.353 . S
C536 H594 0.930 . S
C537 N533 1.279 . S
C537 C535 1.358 . S
C537 H595 0.930 . S
C538 C541 1.348 . S
C538 C542 1.356 . S
C538 O589 1.325 . S
C539 N540 1.279 . S
C539 C542 1.358 . S
C539 H596 0.930 . S
N540 C539 1.279 . S
N540 C543 1.314 . S
C541 C538 1.348 . S
C541 C543 1.353 . S
C541 H597 0.929 . S
C542 C538 1.356 . S
C542 C539 1.358 . S
C542 H598 0.930 . S
C543 N540 1.314 . S
C543 C541 1.353 . S
C543 H599 0.930 . S
C544 N545 1.314 . S
C544 C549 1.353 . S
C544 H550 0.930 . S
N545 Li528 1.990 . S
N545 C544 1.314 . S
N545 C547 1.279 . S
C546 C547 1.358 . S
C546 C548 1.356 . S
C546 H600 0.930 . S
C547 N545 1.279 . S
C547 C546 1.358 . S
C547 H551 0.930 . S
C548 C546 1.356 . S
C548 C549 1.348 . S
C549 C544 1.353 . S
C549 C548 1.348 . S
C549 H601 0.929 . S
H550 C544 0.930 . S
H551 C547 0.930 . S
C552 N553 1.314 . S
C552 C554 1.353 . S
C552 H558 0.930 . S
N553 Li529 1.990 . S
N553 C552 1.314 . S
N553 C556 1.279 . S
C554 C552 1.353 . S
C554 C557 1.348 . S
C554 H602 0.929 . S
C555 C556 1.358 . S
C555 C557 1.356 . S
C555 H603 0.930 . S
C556 N553 1.279 . S
C556 C555 1.358 . S
C556 H559 0.930 . S
C557 C554 1.348 . S
C557 C555 1.356 . S
H558 C552 0.930 . S
H559 C556 0.930 . S
C560 C562 1.348 . S
C560 C563 1.356 . S
C560 O590 1.325 . S
N561 C564 1.314 . S
N561 C565 1.279 . S
C562 C560 1.348 . S
C562 C564 1.353 . S
C562 H604 0.929 . S
C563 C560 1.356 . S
C563 C565 1.358 . S
C563 H605 0.930 . S
C564 N561 1.314 . S
C564 C562 1.353 . S
C564 H606 0.930 . S
C565 N561 1.279 . S
C565 C563 1.358 . S
C565 H607 0.930 . S
C566 C567 1.348 . S
C566 C568 1.356 . S
C566 O591 1.325 . S
C567 C566 1.348 . S
C567 C569 1.353 . S
C567 H608 0.929 . S
C568 C566 1.356 . S
C568 C570 1.358 . S
C568 H609 0.930 . S
C569 C567 1.353 . S
C569 N571 1.314 . S
C569 H610 0.930 . S
C570 C568 1.358 . S
C570 N571 1.279 . S
C570 H611 0.930 . S
N571 C569 1.314 . S
N571 C570 1.279 . S
C572 C574 1.353 . S
C572 N575 1.314 . S
C572 H578 0.930 . S
C573 N575 1.279 . S
C573 C576 1.358 . S
C573 H579 0.930 . S
C574 C572 1.353 . S
C574 C577 1.348 . S
C574 H612 0.929 . S
N575 Li530 1.990 . S
N575 C572 1.314 . S
N575 C573 1.279 . S
C576 C573 1.358 . S
C576 C577 1.356 . S
C576 H613 0.930 . S
C577 C574 1.348 . S
C577 C576 1.356 . S
H578 C572 0.930 . S
H579 C573 0.930 . S
C580 N581 1.314 . S
C580 C582 1.353 . S
C580 H586 0.930 . S
N581 Li531 1.990 . S
N581 C580 1.314 . S
N581 C584 1.279 . S
C582 C580 1.353 . S
C582 C585 1.348 . S
C582 H614 0.929 . S
C583 C584 1.358 . S
C583 C585 1.356 . S
C583 H615 0.930 . S
C584 N581 1.279 . S
C584 C583 1.358 . S
C584 H587 0.930 . S
C585 C582 1.348 . S
C585 C583 1.356 . S
H586 C580 0.930 . S
H587 C584 0.930 . S
O588 Li528 1.956 . S
O588 Li529 1.970 . S
O588 Li530 1.961 . S
O588 C532 1.325 . S
O589 Li528 1.970 . S
O589 Li529 1.956 . S
O589 Li531 1.961 . S
O589 C538 1.325 . S
O590 Li528 1.961 . S
O590 Li530 1.956 . S
O590 Li531 1.970 . S
O590 C560 1.325 . S
O591 Li529 1.961 . S
O591 Li530 1.970 . S
O591 Li531 1.956 . S
O591 C566 1.325 . S
H592 C534 0.929 . S
H593 C535 0.930 . S
H594 C536 0.930 . S
H595 C537 0.930 . S
H596 C539 0.930 . S
H597 C541 0.929 . S
H598 C542 0.930 . S
H599 C543 0.930 . S
H600 C546 0.930 . S
H601 C549 0.929 . S
H602 C554 0.929 . S
H603 C555 0.930 . S
H604 C562 0.929 . S
H605 C563 0.930 . S
H606 C564 0.930 . S
H607 C565 0.930 . S
H608 C567 0.929 . S
H609 C568 0.930 . S
H610 C569 0.930 . S
H611 C570 0.930 . S
H612 C574 0.929 . S
H613 C576 0.930 . S
H614 C582 0.929 . S
H615 C583 0.930 . S
Li616 N633 1.990 . S
Li616 O676 1.956 . S
Li616 O677 1.970 . S
Li616 O678 1.961 . S
Li617 N641 1.990 . S
Li617 O676 1.970 . S
Li617 O677 1.956 . S
Li617 O679 1.961 . S
Li618 N663 1.990 . S
Li618 O676 1.961 . S
Li618 O678 1.956 . S
Li618 O679 1.970 . S
Li619 N669 1.990 . S
Li619 O677 1.961 . S
Li619 O678 1.970 . S
Li619 O679 1.956 . S
C620 C622 1.348 . S
C620 C623 1.356 . S
C620 O676 1.325 . S
N621 C624 1.314 . S
N621 C625 1.279 . S
C622 C620 1.348 . S
C622 C624 1.353 . S
C622 H680 0.929 . S
C623 C620 1.356 . S
C623 C625 1.358 . S
C623 H681 0.930 . S
C624 N621 1.314 . S
C624 C622 1.353 . S
C624 H682 0.930 . S
C625 N621 1.279 . S
C625 C623 1.358 . S
C625 H683 0.930 . S
C626 C629 1.348 . S
C626 C630 1.356 . S
C626 O677 1.325 . S
C627 N628 1.279 . S
C627 C630 1.358 . S
C627 H684 0.930 . S
N628 C627 1.279 . S
N628 C631 1.314 . S
C629 C626 1.348 . S
C629 C631 1.353 . S
C629 H685 0.929 . S
C630 C626 1.356 . S
C630 C627 1.358 . S
C630 H686 0.930 . S
C631 N628 1.314 . S
C631 C629 1.353 . S
C631 H687 0.930 . S
C632 N633 1.314 . S
C632 C637 1.353 . S
C632 H638 0.930 . S
N633 Li616 1.990 . S
N633 C632 1.314 . S
N633 C635 1.279 . S
C634 C635 1.358 . S
C634 C636 1.356 . S
C634 H688 0.930 . S
C635 N633 1.279 . S
C635 C634 1.358 . S
C635 H639 0.930 . S
C636 C634 1.356 . S
C636 C637 1.348 . S
C637 C632 1.353 . S
C637 C636 1.348 . S
C637 H689 0.929 . S
H638 C632 0.930 . S
H639 C635 0.930 . S
C640 N641 1.314 . S
C640 C642 1.353 . S
C640 H646 0.930 . S
N641 Li617 1.990 . S
N641 C640 1.314 . S
N641 C644 1.279 . S
C642 C640 1.353 . S
C642 C645 1.348 . S
C642 H690 0.929 . S
C643 C644 1.358 . S
C643 C645 1.356 . S
C643 H691 0.930 . S
C644 N641 1.279 . S
C644 C643 1.358 . S
C644 H647 0.930 . S
C645 C642 1.348 . S
C645 C643 1.356 . S
H646 C640 0.930 . S
H647 C644 0.930 . S
C648 C650 1.348 . S
C648 C651 1.356 . S
C648 O678 1.325 . S
N649 C652 1.314 . S
N649 C653 1.279 . S
C650 C648 1.348 . S
C650 C652 1.353 . S
C650 H692 0.929 . S
C651 C648 1.356 . S
C651 C653 1.358 . S
C651 H693 0.930 . S
C652 N649 1.314 . S
C652 C650 1.353 . S
C652 H694 0.930 . S
C653 N649 1.279 . S
C653 C651 1.358 . S
C653 H695 0.930 . S
C654 C655 1.348 . S
C654 C656 1.356 . S
C654 O679 1.325 . S
C655 C654 1.348 . S
C655 C657 1.353 . S
C655 H696 0.929 . S
C656 C654 1.356 . S
C656 C658 1.358 . S
C656 H697 0.930 . S
C657 C655 1.353 . S
C657 N659 1.314 . S
C657 H698 0.930 . S
C658 C656 1.358 . S
C658 N659 1.279 . S
C658 H699 0.930 . S
N659 C657 1.314 . S
N659 C658 1.279 . S
C660 C662 1.353 . S
C660 N663 1.314 . S
C660 H666 0.930 . S
C661 N663 1.279 . S
C661 C664 1.358 . S
C661 H667 0.930 . S
C662 C660 1.353 . S
C662 C665 1.348 . S
C662 H700 0.929 . S
N663 Li618 1.990 . S
N663 C660 1.314 . S
N663 C661 1.279 . S
C664 C661 1.358 . S
C664 C665 1.356 . S
C664 H701 0.930 . S
C665 C662 1.348 . S
C665 C664 1.356 . S
H666 C660 0.930 . S
H667 C661 0.930 . S
C668 N669 1.314 . S
C668 C670 1.353 . S
C668 H674 0.930 . S
N669 Li619 1.990 . S
N669 C668 1.314 . S
N669 C672 1.279 . S
C670 C668 1.353 . S
C670 C673 1.348 . S
C670 H702 0.929 . S
C671 C672 1.358 . S
C671 C673 1.356 . S
C671 H703 0.930 . S
C672 N669 1.279 . S
C672 C671 1.358 . S
C672 H675 0.930 . S
C673 C670 1.348 . S
C673 C671 1.356 . S
H674 C668 0.930 . S
H675 C672 0.930 . S
O676 Li616 1.956 . S
O676 Li617 1.970 . S
O676 Li618 1.961 . S
O676 C620 1.325 . S
O677 Li616 1.970 . S
O677 Li617 1.956 . S
O677 Li619 1.961 . S
O677 C626 1.325 . S
O678 Li616 1.961 . S
O678 Li618 1.956 . S
O678 Li619 1.970 . S
O678 C648 1.325 . S
O679 Li617 1.961 . S
O679 Li618 1.970 . S
O679 Li619 1.956 . S
O679 C654 1.325 . S
H680 C622 0.929 . S
H681 C623 0.930 . S
H682 C624 0.930 . S
H683 C625 0.930 . S
H684 C627 0.930 . S
H685 C629 0.929 . S
H686 C630 0.930 . S
H687 C631 0.930 . S
H688 C634 0.930 . S
H689 C637 0.929 . S
H690 C642 0.929 . S
H691 C643 0.930 . S
H692 C650 0.929 . S
H693 C651 0.930 . S
H694 C652 0.930 . S
H695 C653 0.930 . S
H696 C655 0.929 . S
H697 C656 0.930 . S
H698 C657 0.930 . S
H699 C658 0.930 . S
H700 C662 0.929 . S
H701 C664 0.930 . S
H702 C670 0.929 . S
H703 C671 0.930 . S
Li704 N721 1.990 . S
Li704 O764 1.956 . S
Li704 O765 1.970 . S
Li704 O766 1.961 . S
Li705 N729 1.990 . S
Li705 O764 1.970 . S
Li705 O765 1.956 . S
Li705 O767 1.961 . S
Li706 N751 1.990 . S
Li706 O764 1.961 . S
Li706 O766 1.956 . S
Li706 O767 1.970 . S
Li707 N757 1.990 . S
Li707 O765 1.961 . S
Li707 O766 1.970 . S
Li707 O767 1.956 . S
C708 C710 1.348 . S
C708 C711 1.356 . S
C708 O764 1.325 . S
N709 C712 1.314 . S
N709 C713 1.279 . S
C710 C708 1.348 . S
C710 C712 1.353 . S
C710 H768 0.929 . S
C711 C708 1.356 . S
C711 C713 1.358 . S
C711 H769 0.930 . S
C712 N709 1.314 . S
C712 C710 1.353 . S
C712 H770 0.930 . S
C713 N709 1.279 . S
C713 C711 1.358 . S
C713 H771 0.930 . S
C714 C717 1.348 . S
C714 C718 1.356 . S
C714 O765 1.325 . S
C715 N716 1.279 . S
C715 C718 1.358 . S
C715 H772 0.930 . S
N716 C715 1.279 . S
N716 C719 1.314 . S
C717 C714 1.348 . S
C717 C719 1.353 . S
C717 H773 0.929 . S
C718 C714 1.356 . S
C718 C715 1.358 . S
C718 H774 0.930 . S
C719 N716 1.314 . S
C719 C717 1.353 . S
C719 H775 0.930 . S
C720 N721 1.314 . S
C720 C725 1.353 . S
C720 H726 0.930 . S
N721 Li704 1.990 . S
N721 C720 1.314 . S
N721 C723 1.279 . S
C722 C723 1.358 . S
C722 C724 1.356 . S
C722 H776 0.930 . S
C723 N721 1.279 . S
C723 C722 1.358 . S
C723 H727 0.930 . S
C724 C722 1.356 . S
C724 C725 1.348 . S
C725 C720 1.353 . S
C725 C724 1.348 . S
C725 H777 0.929 . S
H726 C720 0.930 . S
H727 C723 0.930 . S
C728 N729 1.314 . S
C728 C730 1.353 . S
C728 H734 0.930 . S
N729 Li705 1.990 . S
N729 C728 1.314 . S
N729 C732 1.279 . S
C730 C728 1.353 . S
C730 C733 1.348 . S
C730 H778 0.929 . S
C731 C732 1.358 . S
C731 C733 1.356 . S
C731 H779 0.930 . S
C732 N729 1.279 . S
C732 C731 1.358 . S
C732 H735 0.930 . S
C733 C730 1.348 . S
C733 C731 1.356 . S
H734 C728 0.930 . S
H735 C732 0.930 . S
C736 C738 1.348 . S
C736 C739 1.356 . S
C736 O766 1.325 . S
N737 C740 1.314 . S
N737 C741 1.279 . S
C738 C736 1.348 . S
C738 C740 1.353 . S
C738 H780 0.929 . S
C739 C736 1.356 . S
C739 C741 1.358 . S
C739 H781 0.930 . S
C740 N737 1.314 . S
C740 C738 1.353 . S
C740 H782 0.930 . S
C741 N737 1.279 . S
C741 C739 1.358 . S
C741 H783 0.930 . S
C742 C743 1.348 . S
C742 C744 1.356 . S
C742 O767 1.325 . S
C743 C742 1.348 . S
C743 C745 1.353 . S
C743 H784 0.929 . S
C744 C742 1.356 . S
C744 C746 1.358 . S
C744 H785 0.930 . S
C745 C743 1.353 . S
C745 N747 1.314 . S
C745 H786 0.930 . S
C746 C744 1.358 . S
C746 N747 1.279 . S
C746 H787 0.930 . S
N747 C745 1.314 . S
N747 C746 1.279 . S
C748 C750 1.353 . S
C748 N751 1.314 . S
C748 H754 0.930 . S
C749 N751 1.279 . S
C749 C752 1.358 . S
C749 H755 0.930 . S
C750 C748 1.353 . S
C750 C753 1.348 . S
C750 H788 0.929 . S
N751 Li706 1.990 . S
N751 C748 1.314 . S
N751 C749 1.279 . S
C752 C749 1.358 . S
C752 C753 1.356 . S
C752 H789 0.930 . S
C753 C750 1.348 . S
C753 C752 1.356 . S
H754 C748 0.930 . S
H755 C749 0.930 . S
C756 N757 1.314 . S
C756 C758 1.353 . S
C756 H762 0.930 . S
N757 Li707 1.990 . S
N757 C756 1.314 . S
N757 C760 1.279 . S
C758 C756 1.353 . S
C758 C761 1.348 . S
C758 H790 0.929 . S
C759 C760 1.358 . S
C759 C761 1.356 . S
C759 H791 0.930 . S
C760 N757 1.279 . S
C760 C759 1.358 . S
C760 H763 0.930 . S
C761 C758 1.348 . S
C761 C759 1.356 . S
H762 C756 0.930 . S
H763 C760 0.930 . S
O764 Li704 1.956 . S
O764 Li705 1.970 . S
O764 Li706 1.961 . S
O764 C708 1.325 . S
O765 Li704 1.970 . S
O765 Li705 1.956 . S
O765 Li707 1.961 . S
O765 C714 1.325 . S
O766 Li704 1.961 . S
O766 Li706 1.956 . S
O766 Li707 1.970 . S
O766 C736 1.325 . S
O767 Li705 1.961 . S
O767 Li706 1.970 . S
O767 Li707 1.956 . S
O767 C742 1.325 . S
H768 C710 0.929 . S
H769 C711 0.930 . S
H770 C712 0.930 . S
H771 C713 0.930 . S
H772 C715 0.930 . S
H773 C717 0.929 . S
H774 C718 0.930 . S
H775 C719 0.930 . S
H776 C722 0.930 . S
H777 C725 0.929 . S
H778 C730 0.929 . S
H779 C731 0.930 . S
H780 C738 0.929 . S
H781 C739 0.930 . S
H782 C740 0.930 . S
H783 C741 0.930 . S
H784 C743 0.929 . S
H785 C744 0.930 . S
H786 C745 0.930 . S
H787 C746 0.930 . S
H788 C750 0.929 . S
H789 C752 0.930 . S
H790 C758 0.929 . S
H791 C759 0.930 . S
Li792 N809 1.990 . S
Li792 O852 1.956 . S
Li792 O853 1.970 . S
Li792 O854 1.961 . S
Li793 N817 1.990 . S
Li793 O852 1.970 . S
Li793 O853 1.956 . S
Li793 O855 1.961 . S
Li794 N839 1.990 . S
Li794 O852 1.961 . S
Li794 O854 1.956 . S
Li794 O855 1.970 . S
Li795 N845 1.990 . S
Li795 O853 1.961 . S
Li795 O854 1.970 . S
Li795 O855 1.956 . S
C796 C798 1.348 . S
C796 C799 1.356 . S
C796 O852 1.325 . S
N797 C800 1.314 . S
N797 C801 1.279 . S
C798 C796 1.348 . S
C798 C800 1.353 . S
C798 H856 0.929 . S
C799 C796 1.356 . S
C799 C801 1.358 . S
C799 H857 0.930 . S
C800 N797 1.314 . S
C800 C798 1.353 . S
C800 H858 0.930 . S
C801 N797 1.279 . S
C801 C799 1.358 . S
C801 H859 0.930 . S
C802 C805 1.348 . S
C802 C806 1.356 . S
C802 O853 1.325 . S
C803 N804 1.279 . S
C803 C806 1.358 . S
C803 H860 0.930 . S
N804 C803 1.279 . S
N804 C807 1.314 . S
C805 C802 1.348 . S
C805 C807 1.353 . S
C805 H861 0.929 . S
C806 C802 1.356 . S
C806 C803 1.358 . S
C806 H862 0.930 . S
C807 N804 1.314 . S
C807 C805 1.353 . S
C807 H863 0.930 . S
C808 N809 1.314 . S
C808 C813 1.353 . S
C808 H814 0.930 . S
N809 Li792 1.990 . S
N809 C808 1.314 . S
N809 C811 1.279 . S
C810 C811 1.358 . S
C810 C812 1.356 . S
C810 H864 0.930 . S
C811 N809 1.279 . S
C811 C810 1.358 . S
C811 H815 0.930 . S
C812 C810 1.356 . S
C812 C813 1.348 . S
C813 C808 1.353 . S
C813 C812 1.348 . S
C813 H865 0.929 . S
H814 C808 0.930 . S
H815 C811 0.930 . S
C816 N817 1.314 . S
C816 C818 1.353 . S
C816 H822 0.930 . S
N817 Li793 1.990 . S
N817 C816 1.314 . S
N817 C820 1.279 . S
C818 C816 1.353 . S
C818 C821 1.348 . S
C818 H866 0.929 . S
C819 C820 1.358 . S
C819 C821 1.356 . S
C819 H867 0.930 . S
C820 N817 1.279 . S
C820 C819 1.358 . S
C820 H823 0.930 . S
C821 C818 1.348 . S
C821 C819 1.356 . S
H822 C816 0.930 . S
H823 C820 0.930 . S
C824 C826 1.348 . S
C824 C827 1.356 . S
C824 O854 1.325 . S
N825 C828 1.314 . S
N825 C829 1.279 . S
C826 C824 1.348 . S
C826 C828 1.353 . S
C826 H868 0.929 . S
C827 C824 1.356 . S
C827 C829 1.358 . S
C827 H869 0.930 . S
C828 N825 1.314 . S
C828 C826 1.353 . S
C828 H870 0.930 . S
C829 N825 1.279 . S
C829 C827 1.358 . S
C829 H871 0.930 . S
C830 C831 1.348 . S
C830 C832 1.356 . S
C830 O855 1.325 . S
C831 C830 1.348 . S
C831 C833 1.353 . S
C831 H872 0.929 . S
C832 C830 1.356 . S
C832 C834 1.358 . S
C832 H873 0.930 . S
C833 C831 1.353 . S
C833 N835 1.314 . S
C833 H874 0.930 . S
C834 C832 1.358 . S
C834 N835 1.279 . S
C834 H875 0.930 . S
N835 C833 1.314 . S
N835 C834 1.279 . S
C836 C838 1.353 . S
C836 N839 1.314 . S
C836 H842 0.930 . S
C837 N839 1.279 . S
C837 C840 1.358 . S
C837 H843 0.930 . S
C838 C836 1.353 . S
C838 C841 1.348 . S
C838 H876 0.929 . S
N839 Li794 1.990 . S
N839 C836 1.314 . S
N839 C837 1.279 . S
C840 C837 1.358 . S
C840 C841 1.356 . S
C840 H877 0.930 . S
C841 C838 1.348 . S
C841 C840 1.356 . S
H842 C836 0.930 . S
H843 C837 0.930 . S
C844 N845 1.314 . S
C844 C846 1.353 . S
C844 H850 0.930 . S
N845 Li795 1.990 . S
N845 C844 1.314 . S
N845 C848 1.279 . S
C846 C844 1.353 . S
C846 C849 1.348 . S
C846 H878 0.929 . S
C847 C848 1.358 . S
C847 C849 1.356 . S
C847 H879 0.930 . S
C848 N845 1.279 . S
C848 C847 1.358 . S
C848 H851 0.930 . S
C849 C846 1.348 . S
C849 C847 1.356 . S
H850 C844 0.930 . S
H851 C848 0.930 . S
O852 Li792 1.956 . S
O852 Li793 1.970 . S
O852 Li794 1.961 . S
O852 C796 1.325 . S
O853 Li792 1.970 . S
O853 Li793 1.956 . S
O853 Li795 1.961 . S
O853 C802 1.325 . S
O854 Li792 1.961 . S
O854 Li794 1.956 . S
O854 Li795 1.970 . S
O854 C824 1.325 . S
O855 Li793 1.961 . S
O855 Li794 1.970 . S
O855 Li795 1.956 . S
O855 C830 1.325 . S
H856 C798 0.929 . S
H857 C799 0.930 . S
H858 C800 0.930 . S
H859 C801 0.930 . S
H860 C803 0.930 . S
H861 C805 0.929 . S
H862 C806 0.930 . S
H863 C807 0.930 . S
H864 C810 0.930 . S
H865 C813 0.929 . S
H866 C818 0.929 . S
H867 C819 0.930 . S
H868 C826 0.929 . S
H869 C827 0.930 . S
H870 C828 0.930 . S
H871 C829 0.930 . S
H872 C831 0.929 . S
H873 C832 0.930 . S
H874 C833 0.930 . S
H875 C834 0.930 . S
H876 C838 0.929 . S
H877 C840 0.930 . S
H878 C846 0.929 . S
H879 C847 0.930 . S
Li880 N897 1.990 . S
Li880 O940 1.956 . S
Li880 O941 1.970 . S
Li880 O942 1.961 . S
Li881 N905 1.990 . S
Li881 O940 1.970 . S
Li881 O941 1.956 . S
Li881 O943 1.961 . S
Li882 N927 1.990 . S
Li882 O940 1.961 . S
Li882 O942 1.956 . S
Li882 O943 1.970 . S
Li883 N933 1.990 . S
Li883 O941 1.961 . S
Li883 O942 1.970 . S
Li883 O943 1.956 . S
C884 C886 1.348 . S
C884 C887 1.356 . S
C884 O940 1.325 . S
N885 C888 1.314 . S
N885 C889 1.279 . S
C886 C884 1.348 . S
C886 C888 1.353 . S
C886 H944 0.929 . S
C887 C884 1.356 . S
C887 C889 1.358 . S
C887 H945 0.930 . S
C888 N885 1.314 . S
C888 C886 1.353 . S
C888 H946 0.930 . S
C889 N885 1.279 . S
C889 C887 1.358 . S
C889 H947 0.930 . S
C890 C893 1.348 . S
C890 C894 1.356 . S
C890 O941 1.325 . S
C891 N892 1.279 . S
C891 C894 1.358 . S
C891 H948 0.930 . S
N892 C891 1.279 . S
N892 C895 1.314 . S
C893 C890 1.348 . S
C893 C895 1.353 . S
C893 H949 0.929 . S
C894 C890 1.356 . S
C894 C891 1.358 . S
C894 H950 0.930 . S
C895 N892 1.314 . S
C895 C893 1.353 . S
C895 H951 0.930 . S
C896 N897 1.314 . S
C896 C901 1.353 . S
C896 H902 0.930 . S
N897 Li880 1.990 . S
N897 C896 1.314 . S
N897 C899 1.279 . S
C898 C899 1.358 . S
C898 C900 1.356 . S
C898 H952 0.930 . S
C899 N897 1.279 . S
C899 C898 1.358 . S
C899 H903 0.930 . S
C900 C898 1.356 . S
C900 C901 1.348 . S
C901 C896 1.353 . S
C901 C900 1.348 . S
C901 H953 0.929 . S
H902 C896 0.930 . S
H903 C899 0.930 . S
C904 N905 1.314 . S
C904 C906 1.353 . S
C904 H910 0.930 . S
N905 Li881 1.990 . S
N905 C904 1.314 . S
N905 C908 1.279 . S
C906 C904 1.353 . S
C906 C909 1.348 . S
C906 H954 0.929 . S
C907 C908 1.358 . S
C907 C909 1.356 . S
C907 H955 0.930 . S
C908 N905 1.279 . S
C908 C907 1.358 . S
C908 H911 0.930 . S
C909 C906 1.348 . S
C909 C907 1.356 . S
H910 C904 0.930 . S
H911 C908 0.930 . S
C912 C914 1.348 . S
C912 C915 1.356 . S
C912 O942 1.325 . S
N913 C916 1.314 . S
N913 C917 1.279 . S
C914 C912 1.348 . S
C914 C916 1.353 . S
C914 H956 0.929 . S
C915 C912 1.356 . S
C915 C917 1.358 . S
C915 H957 0.930 . S
C916 N913 1.314 . S
C916 C914 1.353 . S
C916 H958 0.930 . S
C917 N913 1.279 . S
C917 C915 1.358 . S
C917 H959 0.930 . S
C918 C919 1.348 . S
C918 C920 1.356 . S
C918 O943 1.325 . S
C919 C918 1.348 . S
C919 C921 1.353 . S
C919 H960 0.929 . S
C920 C918 1.356 . S
C920 C922 1.358 . S
C920 H961 0.930 . S
C921 C919 1.353 . S
C921 N923 1.314 . S
C921 H962 0.930 . S
C922 C920 1.358 . S
C922 N923 1.279 . S
C922 H963 0.930 . S
N923 C921 1.314 . S
N923 C922 1.279 . S
C924 C926 1.353 . S
C924 N927 1.314 . S
C924 H930 0.930 . S
C925 N927 1.279 . S
C925 C928 1.358 . S
C925 H931 0.930 . S
C926 C924 1.353 . S
C926 C929 1.348 . S
C926 H964 0.929 . S
N927 Li882 1.990 . S
N927 C924 1.314 . S
N927 C925 1.279 . S
C928 C925 1.358 . S
C928 C929 1.356 . S
C928 H965 0.930 . S
C929 C926 1.348 . S
C929 C928 1.356 . S
H930 C924 0.930 . S
H931 C925 0.930 . S
C932 N933 1.314 . S
C932 C934 1.353 . S
C932 H938 0.930 . S
N933 Li883 1.990 . S
N933 C932 1.314 . S
N933 C936 1.279 . S
C934 C932 1.353 . S
C934 C937 1.348 . S
C934 H966 0.929 . S
C935 C936 1.358 . S
C935 C937 1.356 . S
C935 H967 0.930 . S
C936 N933 1.279 . S
C936 C935 1.358 . S
C936 H939 0.930 . S
C937 C934 1.348 . S
C937 C935 1.356 . S
H938 C932 0.930 . S
H939 C936 0.930 . S
O940 Li880 1.956 . S
O940 Li881 1.970 . S
O940 Li882 1.961 . S
O940 C884 1.325 . S
O941 Li880 1.970 . S
O941 Li881 1.956 . S
O941 Li883 1.961 . S
O941 C890 1.325 . S
O942 Li880 1.961 . S
O942 Li882 1.956 . S
O942 Li883 1.970 . S
O942 C912 1.325 . S
O943 Li881 1.961 . S
O943 Li882 1.970 . S
O943 Li883 1.956 . S
O943 C918 1.325 . S
H944 C886 0.929 . S
H945 C887 0.930 . S
H946 C888 0.930 . S
H947 C889 0.930 . S
H948 C891 0.930 . S
H949 C893 0.929 . S
H950 C894 0.930 . S
H951 C895 0.930 . S
H952 C898 0.930 . S
H953 C901 0.929 . S
H954 C906 0.929 . S
H955 C907 0.930 . S
H956 C914 0.929 . S
H957 C915 0.930 . S
H958 C916 0.930 . S
H959 C917 0.930 . S
H960 C919 0.929 . S
H961 C920 0.930 . S
H962 C921 0.930 . S
H963 C922 0.930 . S
H964 C926 0.929 . S
H965 C928 0.930 . S
H966 C934 0.929 . S
H967 C935 0.930 . S
Li968 N985 1.990 . S
Li968 O1028 1.956 . S
Li968 O1029 1.970 . S
Li968 O1030 1.961 . S
Li969 N993 1.990 . S
Li969 O1028 1.970 . S
Li969 O1029 1.956 . S
Li969 O1031 1.961 . S
Li970 N1015 1.990 . S
Li970 O1028 1.961 . S
Li970 O1030 1.956 . S
Li970 O1031 1.970 . S
Li971 N1021 1.990 . S
Li971 O1029 1.961 . S
Li971 O1030 1.970 . S
Li971 O1031 1.956 . S
C972 C974 1.348 . S
C972 C975 1.356 . S
C972 O1028 1.325 . S
N973 C976 1.314 . S
N973 C977 1.279 . S
C974 C972 1.348 . S
C974 C976 1.353 . S
C974 H1032 0.929 . S
C975 C972 1.356 . S
C975 C977 1.358 . S
C975 H1033 0.930 . S
C976 N973 1.314 . S
C976 C974 1.353 . S
C976 H1034 0.930 . S
C977 N973 1.279 . S
C977 C975 1.358 . S
C977 H1035 0.930 . S
C978 C981 1.348 . S
C978 C982 1.356 . S
C978 O1029 1.325 . S
C979 N980 1.279 . S
C979 C982 1.358 . S
C979 H1036 0.930 . S
N980 C979 1.279 . S
N980 C983 1.314 . S
C981 C978 1.348 . S
C981 C983 1.353 . S
C981 H1037 0.929 . S
C982 C978 1.356 . S
C982 C979 1.358 . S
C982 H1038 0.930 . S
C983 N980 1.314 . S
C983 C981 1.353 . S
C983 H1039 0.930 . S
C984 N985 1.314 . S
C984 C989 1.353 . S
C984 H990 0.930 . S
N985 Li968 1.990 . S
N985 C984 1.314 . S
N985 C987 1.279 . S
C986 C987 1.358 . S
C986 C988 1.356 . S
C986 H1040 0.930 . S
C987 N985 1.279 . S
C987 C986 1.358 . S
C987 H991 0.930 . S
C988 C986 1.356 . S
C988 C989 1.348 . S
C989 C984 1.353 . S
C989 C988 1.348 . S
C989 H1041 0.929 . S
H990 C984 0.930 . S
H991 C987 0.930 . S
C992 N993 1.314 . S
C992 C994 1.353 . S
C992 H998 0.930 . S
N993 Li969 1.990 . S
N993 C992 1.314 . S
N993 C996 1.279 . S
C994 C992 1.353 . S
C994 C997 1.348 . S
C994 H1042 0.929 . S
C995 C996 1.358 . S
C995 C997 1.356 . S
C995 H1043 0.930 . S
C996 N993 1.279 . S
C996 C995 1.358 . S
C996 H999 0.930 . S
C997 C994 1.348 . S
C997 C995 1.356 . S
H998 C992 0.930 . S
H999 C996 0.930 . S
C1000 C1002 1.348 . S
C1000 C1003 1.356 . S
C1000 O1030 1.325 . S
N1001 C1004 1.314 . S
N1001 C1005 1.279 . S
C1002 C1000 1.348 . S
C1002 C1004 1.353 . S
C1002 H1044 0.929 . S
C1003 C1000 1.356 . S
C1003 C1005 1.358 . S
C1003 H1045 0.930 . S
C1004 N1001 1.314 . S
C1004 C1002 1.353 . S
C1004 H1046 0.930 . S
C1005 N1001 1.279 . S
C1005 C1003 1.358 . S
C1005 H1047 0.930 . S
C1006 C1007 1.348 . S
C1006 C1008 1.356 . S
C1006 O1031 1.325 . S
C1007 C1006 1.348 . S
C1007 C1009 1.353 . S
C1007 H1048 0.929 . S
C1008 C1006 1.356 . S
C1008 C1010 1.358 . S
C1008 H1049 0.930 . S
C1009 C1007 1.353 . S
C1009 N1011 1.314 . S
C1009 H1050 0.930 . S
C1010 C1008 1.358 . S
C1010 N1011 1.279 . S
C1010 H1051 0.930 . S
N1011 C1009 1.314 . S
N1011 C1010 1.279 . S
C1012 C1014 1.353 . S
C1012 N1015 1.314 . S
C1012 H1018 0.930 . S
C1013 N1015 1.279 . S
C1013 C1016 1.358 . S
C1013 H1019 0.930 . S
C1014 C1012 1.353 . S
C1014 C1017 1.348 . S
C1014 H1052 0.929 . S
N1015 Li970 1.990 . S
N1015 C1012 1.314 . S
N1015 C1013 1.279 . S
C1016 C1013 1.358 . S
C1016 C1017 1.356 . S
C1016 H1053 0.930 . S
C1017 C1014 1.348 . S
C1017 C1016 1.356 . S
H1018 C1012 0.930 . S
H1019 C1013 0.930 . S
C1020 N1021 1.314 . S
C1020 C1022 1.353 . S
C1020 H1026 0.930 . S
N1021 Li971 1.990 . S
N1021 C1020 1.314 . S
N1021 C1024 1.279 . S
C1022 C1020 1.353 . S
C1022 C1025 1.348 . S
C1022 H1054 0.929 . S
C1023 C1024 1.358 . S
C1023 C1025 1.356 . S
C1023 H1055 0.930 . S
C1024 N1021 1.279 . S
C1024 C1023 1.358 . S
C1024 H1027 0.930 . S
C1025 C1022 1.348 . S
C1025 C1023 1.356 . S
H1026 C1020 0.930 . S
H1027 C1024 0.930 . S
O1028 Li968 1.956 . S
O1028 Li969 1.970 . S
O1028 Li970 1.961 . S
O1028 C972 1.325 . S
O1029 Li968 1.970 . S
O1029 Li969 1.956 . S
O1029 Li971 1.961 . S
O1029 C978 1.325 . S
O1030 Li968 1.961 . S
O1030 Li970 1.956 . S
O1030 Li971 1.970 . S
O1030 C1000 1.325 . S
O1031 Li969 1.961 . S
O1031 Li970 1.970 . S
O1031 Li971 1.956 . S
O1031 C1006 1.325 . S
H1032 C974 0.929 . S
H1033 C975 0.930 . S
H1034 C976 0.930 . S
H1035 C977 0.930 . S
H1036 C979 0.930 . S
H1037 C981 0.929 . S
H1038 C982 0.930 . S
H1039 C983 0.930 . S
H1040 C986 0.930 . S
H1041 C989 0.929 . S
H1042 C994 0.929 . S
H1043 C995 0.930 . S
H1044 C1002 0.929 . S
H1045 C1003 0.930 . S
H1046 C1004 0.930 . S
H1047 C1005 0.930 . S
H1048 C1007 0.929 . S
H1049 C1008 0.930 . S
H1050 C1009 0.930 . S
H1051 C1010 0.930 . S
H1052 C1014 0.929 . S
H1053 C1016 0.930 . S
H1054 C1022 0.929 . S
H1055 C1023 0.930 . S
Li1056 N1073 1.990 . S
Li1056 O1116 1.956 . S
Li1056 O1117 1.970 . S
Li1056 O1118 1.961 . S
Li1057 N1081 1.990 . S
Li1057 O1116 1.970 . S
Li1057 O1117 1.956 . S
Li1057 O1119 1.961 . S
Li1058 N1103 1.990 . S
Li1058 O1116 1.961 . S
Li1058 O1118 1.956 . S
Li1058 O1119 1.970 . S
Li1059 N1109 1.990 . S
Li1059 O1117 1.961 . S
Li1059 O1118 1.970 . S
Li1059 O1119 1.956 . S
C1060 C1062 1.348 . S
C1060 C1063 1.356 . S
C1060 O1116 1.325 . S
N1061 C1064 1.314 . S
N1061 C1065 1.279 . S
C1062 C1060 1.348 . S
C1062 C1064 1.353 . S
C1062 H1120 0.929 . S
C1063 C1060 1.356 . S
C1063 C1065 1.358 . S
C1063 H1121 0.930 . S
C1064 N1061 1.314 . S
C1064 C1062 1.353 . S
C1064 H1122 0.930 . S
C1065 N1061 1.279 . S
C1065 C1063 1.358 . S
C1065 H1123 0.930 . S
C1066 C1069 1.348 . S
C1066 C1070 1.356 . S
C1066 O1117 1.325 . S
C1067 N1068 1.279 . S
C1067 C1070 1.358 . S
C1067 H1124 0.930 . S
N1068 C1067 1.279 . S
N1068 C1071 1.314 . S
C1069 C1066 1.348 . S
C1069 C1071 1.353 . S
C1069 H1125 0.929 . S
C1070 C1066 1.356 . S
C1070 C1067 1.358 . S
C1070 H1126 0.930 . S
C1071 N1068 1.314 . S
C1071 C1069 1.353 . S
C1071 H1127 0.930 . S
C1072 N1073 1.314 . S
C1072 C1077 1.353 . S
C1072 H1078 0.930 . S
N1073 Li1056 1.990 . S
N1073 C1072 1.314 . S
N1073 C1075 1.279 . S
C1074 C1075 1.358 . S
C1074 C1076 1.356 . S
C1074 H1128 0.930 . S
C1075 N1073 1.279 . S
C1075 C1074 1.358 . S
C1075 H1079 0.930 . S
C1076 C1074 1.356 . S
C1076 C1077 1.348 . S
C1077 C1072 1.353 . S
C1077 C1076 1.348 . S
C1077 H1129 0.929 . S
H1078 C1072 0.930 . S
H1079 C1075 0.930 . S
C1080 N1081 1.314 . S
C1080 C1082 1.353 . S
C1080 H1086 0.930 . S
N1081 Li1057 1.990 . S
N1081 C1080 1.314 . S
N1081 C1084 1.279 . S
C1082 C1080 1.353 . S
C1082 C1085 1.348 . S
C1082 H1130 0.929 . S
C1083 C1084 1.358 . S
C1083 C1085 1.356 . S
C1083 H1131 0.930 . S
C1084 N1081 1.279 . S
C1084 C1083 1.358 . S
C1084 H1087 0.930 . S
C1085 C1082 1.348 . S
C1085 C1083 1.356 . S
H1086 C1080 0.930 . S
H1087 C1084 0.930 . S
C1088 C1090 1.348 . S
C1088 C1091 1.356 . S
C1088 O1118 1.325 . S
N1089 C1092 1.314 . S
N1089 C1093 1.279 . S
C1090 C1088 1.348 . S
C1090 C1092 1.353 . S
C1090 H1132 0.929 . S
C1091 C1088 1.356 . S
C1091 C1093 1.358 . S
C1091 H1133 0.930 . S
C1092 N1089 1.314 . S
C1092 C1090 1.353 . S
C1092 H1134 0.930 . S
C1093 N1089 1.279 . S
C1093 C1091 1.358 . S
C1093 H1135 0.930 . S
C1094 C1095 1.348 . S
C1094 C1096 1.356 . S
C1094 O1119 1.325 . S
C1095 C1094 1.348 . S
C1095 C1097 1.353 . S
C1095 H1136 0.929 . S
C1096 C1094 1.356 . S
C1096 C1098 1.358 . S
C1096 H1137 0.930 . S
C1097 C1095 1.353 . S
C1097 N1099 1.314 . S
C1097 H1138 0.930 . S
C1098 C1096 1.358 . S
C1098 N1099 1.279 . S
C1098 H1139 0.930 . S
N1099 C1097 1.314 . S
N1099 C1098 1.279 . S
C1100 C1102 1.353 . S
C1100 N1103 1.314 . S
C1100 H1106 0.930 . S
C1101 N1103 1.279 . S
C1101 C1104 1.358 . S
C1101 H1107 0.930 . S
C1102 C1100 1.353 . S
C1102 C1105 1.348 . S
C1102 H1140 0.929 . S
N1103 Li1058 1.990 . S
N1103 C1100 1.314 . S
N1103 C1101 1.279 . S
C1104 C1101 1.358 . S
C1104 C1105 1.356 . S
C1104 H1141 0.930 . S
C1105 C1102 1.348 . S
C1105 C1104 1.356 . S
H1106 C1100 0.930 . S
H1107 C1101 0.930 . S
C1108 N1109 1.314 . S
C1108 C1110 1.353 . S
C1108 H1114 0.930 . S
N1109 Li1059 1.990 . S
N1109 C1108 1.314 . S
N1109 C1112 1.279 . S
C1110 C1108 1.353 . S
C1110 C1113 1.348 . S
C1110 H1142 0.929 . S
C1111 C1112 1.358 . S
C1111 C1113 1.356 . S
C1111 H1143 0.930 . S
C1112 N1109 1.279 . S
C1112 C1111 1.358 . S
C1112 H1115 0.930 . S
C1113 C1110 1.348 . S
C1113 C1111 1.356 . S
H1114 C1108 0.930 . S
H1115 C1112 0.930 . S
O1116 Li1056 1.956 . S
O1116 Li1057 1.970 . S
O1116 Li1058 1.961 . S
O1116 C1060 1.325 . S
O1117 Li1056 1.970 . S
O1117 Li1057 1.956 . S
O1117 Li1059 1.961 . S
O1117 C1066 1.325 . S
O1118 Li1056 1.961 . S
O1118 Li1058 1.956 . S
O1118 Li1059 1.970 . S
O1118 C1088 1.325 . S
O1119 Li1057 1.961 . S
O1119 Li1058 1.970 . S
O1119 Li1059 1.956 . S
O1119 C1094 1.325 . S
H1120 C1062 0.929 . S
H1121 C1063 0.930 . S
H1122 C1064 0.930 . S
H1123 C1065 0.930 . S
H1124 C1067 0.930 . S
H1125 C1069 0.929 . S
H1126 C1070 0.930 . S
H1127 C1071 0.930 . S
H1128 C1074 0.930 . S
H1129 C1077 0.929 . S
H1130 C1082 0.929 . S
H1131 C1083 0.930 . S
H1132 C1090 0.929 . S
H1133 C1091 0.930 . S
H1134 C1092 0.930 . S
H1135 C1093 0.930 . S
H1136 C1095 0.929 . S
H1137 C1096 0.930 . S
H1138 C1097 0.930 . S
H1139 C1098 0.930 . S
H1140 C1102 0.929 . S
H1141 C1104 0.930 . S
H1142 C1110 0.929 . S
H1143 C1111 0.930 . S
Li1144 N1161 1.990 . S
Li1144 O1204 1.956 . S
Li1144 O1205 1.970 . S
Li1144 O1206 1.961 . S
Li1145 N1169 1.990 . S
Li1145 O1204 1.970 . S
Li1145 O1205 1.956 . S
Li1145 O1207 1.961 . S
Li1146 N1191 1.990 . S
Li1146 O1204 1.961 . S
Li1146 O1206 1.956 . S
Li1146 O1207 1.970 . S
Li1147 N1197 1.990 . S
Li1147 O1205 1.961 . S
Li1147 O1206 1.970 . S
Li1147 O1207 1.956 . S
C1148 C1150 1.348 . S
C1148 C1151 1.356 . S
C1148 O1204 1.325 . S
N1149 C1152 1.314 . S
N1149 C1153 1.279 . S
C1150 C1148 1.348 . S
C1150 C1152 1.353 . S
C1150 H1208 0.929 . S
C1151 C1148 1.356 . S
C1151 C1153 1.358 . S
C1151 H1209 0.930 . S
C1152 N1149 1.314 . S
C1152 C1150 1.353 . S
C1152 H1210 0.930 . S
C1153 N1149 1.279 . S
C1153 C1151 1.358 . S
C1153 H1211 0.930 . S
C1154 C1157 1.348 . S
C1154 C1158 1.356 . S
C1154 O1205 1.325 . S
C1155 N1156 1.279 . S
C1155 C1158 1.358 . S
C1155 H1212 0.930 . S
N1156 C1155 1.279 . S
N1156 C1159 1.314 . S
C1157 C1154 1.348 . S
C1157 C1159 1.353 . S
C1157 H1213 0.929 . S
C1158 C1154 1.356 . S
C1158 C1155 1.358 . S
C1158 H1214 0.930 . S
C1159 N1156 1.314 . S
C1159 C1157 1.353 . S
C1159 H1215 0.930 . S
C1160 N1161 1.314 . S
C1160 C1165 1.353 . S
C1160 H1166 0.930 . S
N1161 Li1144 1.990 . S
N1161 C1160 1.314 . S
N1161 C1163 1.279 . S
C1162 C1163 1.358 . S
C1162 C1164 1.356 . S
C1162 H1216 0.930 . S
C1163 N1161 1.279 . S
C1163 C1162 1.358 . S
C1163 H1167 0.930 . S
C1164 C1162 1.356 . S
C1164 C1165 1.348 . S
C1165 C1160 1.353 . S
C1165 C1164 1.348 . S
C1165 H1217 0.929 . S
H1166 C1160 0.930 . S
H1167 C1163 0.930 . S
C1168 N1169 1.314 . S
C1168 C1170 1.353 . S
C1168 H1174 0.930 . S
N1169 Li1145 1.990 . S
N1169 C1168 1.314 . S
N1169 C1172 1.279 . S
C1170 C1168 1.353 . S
C1170 C1173 1.348 . S
C1170 H1218 0.929 . S
C1171 C1172 1.358 . S
C1171 C1173 1.356 . S
C1171 H1219 0.930 . S
C1172 N1169 1.279 . S
C1172 C1171 1.358 . S
C1172 H1175 0.930 . S
C1173 C1170 1.348 . S
C1173 C1171 1.356 . S
H1174 C1168 0.930 . S
H1175 C1172 0.930 . S
C1176 C1178 1.348 . S
C1176 C1179 1.356 . S
C1176 O1206 1.325 . S
N1177 C1180 1.314 . S
N1177 C1181 1.279 . S
C1178 C1176 1.348 . S
C1178 C1180 1.353 . S
C1178 H1220 0.929 . S
C1179 C1176 1.356 . S
C1179 C1181 1.358 . S
C1179 H1221 0.930 . S
C1180 N1177 1.314 . S
C1180 C1178 1.353 . S
C1180 H1222 0.930 . S
C1181 N1177 1.279 . S
C1181 C1179 1.358 . S
C1181 H1223 0.930 . S
C1182 C1183 1.348 . S
C1182 C1184 1.356 . S
C1182 O1207 1.325 . S
C1183 C1182 1.348 . S
C1183 C1185 1.353 . S
C1183 H1224 0.929 . S
C1184 C1182 1.356 . S
C1184 C1186 1.358 . S
C1184 H1225 0.930 . S
C1185 C1183 1.353 . S
C1185 N1187 1.314 . S
C1185 H1226 0.930 . S
C1186 C1184 1.358 . S
C1186 N1187 1.279 . S
C1186 H1227 0.930 . S
N1187 C1185 1.314 . S
N1187 C1186 1.279 . S
C1188 C1190 1.353 . S
C1188 N1191 1.314 . S
C1188 H1194 0.930 . S
C1189 N1191 1.279 . S
C1189 C1192 1.358 . S
C1189 H1195 0.930 . S
C1190 C1188 1.353 . S
C1190 C1193 1.348 . S
C1190 H1228 0.929 . S
N1191 Li1146 1.990 . S
N1191 C1188 1.314 . S
N1191 C1189 1.279 . S
C1192 C1189 1.358 . S
C1192 C1193 1.356 . S
C1192 H1229 0.930 . S
C1193 C1190 1.348 . S
C1193 C1192 1.356 . S
H1194 C1188 0.930 . S
H1195 C1189 0.930 . S
C1196 N1197 1.314 . S
C1196 C1198 1.353 . S
C1196 H1202 0.930 . S
N1197 Li1147 1.990 . S
N1197 C1196 1.314 . S
N1197 C1200 1.279 . S
C1198 C1196 1.353 . S
C1198 C1201 1.348 . S
C1198 H1230 0.929 . S
C1199 C1200 1.358 . S
C1199 C1201 1.356 . S
C1199 H1231 0.930 . S
C1200 N1197 1.279 . S
C1200 C1199 1.358 . S
C1200 H1203 0.930 . S
C1201 C1198 1.348 . S
C1201 C1199 1.356 . S
H1202 C1196 0.930 . S
H1203 C1200 0.930 . S
O1204 Li1144 1.956 . S
O1204 Li1145 1.970 . S
O1204 Li1146 1.961 . S
O1204 C1148 1.325 . S
O1205 Li1144 1.970 . S
O1205 Li1145 1.956 . S
O1205 Li1147 1.961 . S
O1205 C1154 1.325 . S
O1206 Li1144 1.961 . S
O1206 Li1146 1.956 . S
O1206 Li1147 1.970 . S
O1206 C1176 1.325 . S
O1207 Li1145 1.961 . S
O1207 Li1146 1.970 . S
O1207 Li1147 1.956 . S
O1207 C1182 1.325 . S
H1208 C1150 0.929 . S
H1209 C1151 0.930 . S
H1210 C1152 0.930 . S
H1211 C1153 0.930 . S
H1212 C1155 0.930 . S
H1213 C1157 0.929 . S
H1214 C1158 0.930 . S
H1215 C1159 0.930 . S
H1216 C1162 0.930 . S
H1217 C1165 0.929 . S
H1218 C1170 0.929 . S
H1219 C1171 0.930 . S
H1220 C1178 0.929 . S
H1221 C1179 0.930 . S
H1222 C1180 0.930 . S
H1223 C1181 0.930 . S
H1224 C1183 0.929 . S
H1225 C1184 0.930 . S
H1226 C1185 0.930 . S
H1227 C1186 0.930 . S
H1228 C1190 0.929 . S
H1229 C1192 0.930 . S
H1230 C1198 0.929 . S
H1231 C1199 0.930 . S
Li1232 N1249 1.990 . S
Li1232 O1292 1.956 . S
Li1232 O1293 1.970 . S
Li1232 O1294 1.961 . S
Li1233 N1257 1.990 . S
Li1233 O1292 1.970 . S
Li1233 O1293 1.956 . S
Li1233 O1295 1.961 . S
Li1234 N1279 1.990 . S
Li1234 O1292 1.961 . S
Li1234 O1294 1.956 . S
Li1234 O1295 1.970 . S
Li1235 N1285 1.990 . S
Li1235 O1293 1.961 . S
Li1235 O1294 1.970 . S
Li1235 O1295 1.956 . S
C1236 C1238 1.348 . S
C1236 C1239 1.356 . S
C1236 O1292 1.325 . S
N1237 C1240 1.314 . S
N1237 C1241 1.279 . S
C1238 C1236 1.348 . S
C1238 C1240 1.353 . S
C1238 H1296 0.929 . S
C1239 C1236 1.356 . S
C1239 C1241 1.358 . S
C1239 H1297 0.930 . S
C1240 N1237 1.314 . S
C1240 C1238 1.353 . S
C1240 H1298 0.930 . S
C1241 N1237 1.279 . S
C1241 C1239 1.358 . S
C1241 H1299 0.930 . S
C1242 C1245 1.348 . S
C1242 C1246 1.356 . S
C1242 O1293 1.325 . S
C1243 N1244 1.279 . S
C1243 C1246 1.358 . S
C1243 H1300 0.930 . S
N1244 C1243 1.279 . S
N1244 C1247 1.314 . S
C1245 C1242 1.348 . S
C1245 C1247 1.353 . S
C1245 H1301 0.929 . S
C1246 C1242 1.356 . S
C1246 C1243 1.358 . S
C1246 H1302 0.930 . S
C1247 N1244 1.314 . S
C1247 C1245 1.353 . S
C1247 H1303 0.930 . S
C1248 N1249 1.314 . S
C1248 C1253 1.353 . S
C1248 H1254 0.930 . S
N1249 Li1232 1.990 . S
N1249 C1248 1.314 . S
N1249 C1251 1.279 . S
C1250 C1251 1.358 . S
C1250 C1252 1.356 . S
C1250 H1304 0.930 . S
C1251 N1249 1.279 . S
C1251 C1250 1.358 . S
C1251 H1255 0.930 . S
C1252 C1250 1.356 . S
C1252 C1253 1.348 . S
C1253 C1248 1.353 . S
C1253 C1252 1.348 . S
C1253 H1305 0.929 . S
H1254 C1248 0.930 . S
H1255 C1251 0.930 . S
C1256 N1257 1.314 . S
C1256 C1258 1.353 . S
C1256 H1262 0.930 . S
N1257 Li1233 1.990 . S
N1257 C1256 1.314 . S
N1257 C1260 1.279 . S
C1258 C1256 1.353 . S
C1258 C1261 1.348 . S
C1258 H1306 0.929 . S
C1259 C1260 1.358 . S
C1259 C1261 1.356 . S
C1259 H1307 0.930 . S
C1260 N1257 1.279 . S
C1260 C1259 1.358 . S
C1260 H1263 0.930 . S
C1261 C1258 1.348 . S
C1261 C1259 1.356 . S
H1262 C1256 0.930 . S
H1263 C1260 0.930 . S
C1264 C1266 1.348 . S
C1264 C1267 1.356 . S
C1264 O1294 1.325 . S
N1265 C1268 1.314 . S
N1265 C1269 1.279 . S
C1266 C1264 1.348 . S
C1266 C1268 1.353 . S
C1266 H1308 0.929 . S
C1267 C1264 1.356 . S
C1267 C1269 1.358 . S
C1267 H1309 0.930 . S
C1268 N1265 1.314 . S
C1268 C1266 1.353 . S
C1268 H1310 0.930 . S
C1269 N1265 1.279 . S
C1269 C1267 1.358 . S
C1269 H1311 0.930 . S
C1270 C1271 1.348 . S
C1270 C1272 1.356 . S
C1270 O1295 1.325 . S
C1271 C1270 1.348 . S
C1271 C1273 1.353 . S
C1271 H1312 0.929 . S
C1272 C1270 1.356 . S
C1272 C1274 1.358 . S
C1272 H1313 0.930 . S
C1273 C1271 1.353 . S
C1273 N1275 1.314 . S
C1273 H1314 0.930 . S
C1274 C1272 1.358 . S
C1274 N1275 1.279 . S
C1274 H1315 0.930 . S
N1275 C1273 1.314 . S
N1275 C1274 1.279 . S
C1276 C1278 1.353 . S
C1276 N1279 1.314 . S
C1276 H1282 0.930 . S
C1277 N1279 1.279 . S
C1277 C1280 1.358 . S
C1277 H1283 0.930 . S
C1278 C1276 1.353 . S
C1278 C1281 1.348 . S
C1278 H1316 0.929 . S
N1279 Li1234 1.990 . S
N1279 C1276 1.314 . S
N1279 C1277 1.279 . S
C1280 C1277 1.358 . S
C1280 C1281 1.356 . S
C1280 H1317 0.930 . S
C1281 C1278 1.348 . S
C1281 C1280 1.356 . S
H1282 C1276 0.930 . S
H1283 C1277 0.930 . S
C1284 N1285 1.314 . S
C1284 C1286 1.353 . S
C1284 H1290 0.930 . S
N1285 Li1235 1.990 . S
N1285 C1284 1.314 . S
N1285 C1288 1.279 . S
C1286 C1284 1.353 . S
C1286 C1289 1.348 . S
C1286 H1318 0.929 . S
C1287 C1288 1.358 . S
C1287 C1289 1.356 . S
C1287 H1319 0.930 . S
C1288 N1285 1.279 . S
C1288 C1287 1.358 . S
C1288 H1291 0.930 . S
C1289 C1286 1.348 . S
C1289 C1287 1.356 . S
H1290 C1284 0.930 . S
H1291 C1288 0.930 . S
O1292 Li1232 1.956 . S
O1292 Li1233 1.970 . S
O1292 Li1234 1.961 . S
O1292 C1236 1.325 . S
O1293 Li1232 1.970 . S
O1293 Li1233 1.956 . S
O1293 Li1235 1.961 . S
O1293 C1242 1.325 . S
O1294 Li1232 1.961 . S
O1294 Li1234 1.956 . S
O1294 Li1235 1.970 . S
O1294 C1264 1.325 . S
O1295 Li1233 1.961 . S
O1295 Li1234 1.970 . S
O1295 Li1235 1.956 . S
O1295 C1270 1.325 . S
H1296 C1238 0.929 . S
H1297 C1239 0.930 . S
H1298 C1240 0.930 . S
H1299 C1241 0.930 . S
H1300 C1243 0.930 . S
H1301 C1245 0.929 . S
H1302 C1246 0.930 . S
H1303 C1247 0.930 . S
H1304 C1250 0.930 . S
H1305 C1253 0.929 . S
H1306 C1258 0.929 . S
H1307 C1259 0.930 . S
H1308 C1266 0.929 . S
H1309 C1267 0.930 . S
H1310 C1268 0.930 . S
H1311 C1269 0.930 . S
H1312 C1271 0.929 . S
H1313 C1272 0.930 . S
H1314 C1273 0.930 . S
H1315 C1274 0.930 . S
H1316 C1278 0.929 . S
H1317 C1280 0.930 . S
H1318 C1286 0.929 . S
H1319 C1287 0.930 . S
Li1320 N1337 1.990 . S
Li1320 O1380 1.956 . S
Li1320 O1381 1.970 . S
Li1320 O1382 1.961 . S
Li1321 N1345 1.990 . S
Li1321 O1380 1.970 . S
Li1321 O1381 1.956 . S
Li1321 O1383 1.961 . S
Li1322 N1367 1.990 . S
Li1322 O1380 1.961 . S
Li1322 O1382 1.956 . S
Li1322 O1383 1.970 . S
Li1323 N1373 1.990 . S
Li1323 O1381 1.961 . S
Li1323 O1382 1.970 . S
Li1323 O1383 1.956 . S
C1324 C1326 1.348 . S
C1324 C1327 1.356 . S
C1324 O1380 1.325 . S
N1325 C1328 1.314 . S
N1325 C1329 1.279 . S
C1326 C1324 1.348 . S
C1326 C1328 1.353 . S
C1326 H1384 0.929 . S
C1327 C1324 1.356 . S
C1327 C1329 1.358 . S
C1327 H1385 0.930 . S
C1328 N1325 1.314 . S
C1328 C1326 1.353 . S
C1328 H1386 0.930 . S
C1329 N1325 1.279 . S
C1329 C1327 1.358 . S
C1329 H1387 0.930 . S
C1330 C1333 1.348 . S
C1330 C1334 1.356 . S
C1330 O1381 1.325 . S
C1331 N1332 1.279 . S
C1331 C1334 1.358 . S
C1331 H1388 0.930 . S
N1332 C1331 1.279 . S
N1332 C1335 1.314 . S
C1333 C1330 1.348 . S
C1333 C1335 1.353 . S
C1333 H1389 0.929 . S
C1334 C1330 1.356 . S
C1334 C1331 1.358 . S
C1334 H1390 0.930 . S
C1335 N1332 1.314 . S
C1335 C1333 1.353 . S
C1335 H1391 0.930 . S
C1336 N1337 1.314 . S
C1336 C1341 1.353 . S
C1336 H1342 0.930 . S
N1337 Li1320 1.990 . S
N1337 C1336 1.314 . S
N1337 C1339 1.279 . S
C1338 C1339 1.358 . S
C1338 C1340 1.356 . S
C1338 H1392 0.930 . S
C1339 N1337 1.279 . S
C1339 C1338 1.358 . S
C1339 H1343 0.930 . S
C1340 C1338 1.356 . S
C1340 C1341 1.348 . S
C1341 C1336 1.353 . S
C1341 C1340 1.348 . S
C1341 H1393 0.929 . S
H1342 C1336 0.930 . S
H1343 C1339 0.930 . S
C1344 N1345 1.314 . S
C1344 C1346 1.353 . S
C1344 H1350 0.930 . S
N1345 Li1321 1.990 . S
N1345 C1344 1.314 . S
N1345 C1348 1.279 . S
C1346 C1344 1.353 . S
C1346 C1349 1.348 . S
C1346 H1394 0.929 . S
C1347 C1348 1.358 . S
C1347 C1349 1.356 . S
C1347 H1395 0.930 . S
C1348 N1345 1.279 . S
C1348 C1347 1.358 . S
C1348 H1351 0.930 . S
C1349 C1346 1.348 . S
C1349 C1347 1.356 . S
H1350 C1344 0.930 . S
H1351 C1348 0.930 . S
C1352 C1354 1.348 . S
C1352 C1355 1.356 . S
C1352 O1382 1.325 . S
N1353 C1356 1.314 . S
N1353 C1357 1.279 . S
C1354 C1352 1.348 . S
C1354 C1356 1.353 . S
C1354 H1396 0.929 . S
C1355 C1352 1.356 . S
C1355 C1357 1.358 . S
C1355 H1397 0.930 . S
C1356 N1353 1.314 . S
C1356 C1354 1.353 . S
C1356 H1398 0.930 . S
C1357 N1353 1.279 . S
C1357 C1355 1.358 . S
C1357 H1399 0.930 . S
C1358 C1359 1.348 . S
C1358 C1360 1.356 . S
C1358 O1383 1.325 . S
C1359 C1358 1.348 . S
C1359 C1361 1.353 . S
C1359 H1400 0.929 . S
C1360 C1358 1.356 . S
C1360 C1362 1.358 . S
C1360 H1401 0.930 . S
C1361 C1359 1.353 . S
C1361 N1363 1.314 . S
C1361 H1402 0.930 . S
C1362 C1360 1.358 . S
C1362 N1363 1.279 . S
C1362 H1403 0.930 . S
N1363 C1361 1.314 . S
N1363 C1362 1.279 . S
C1364 C1366 1.353 . S
C1364 N1367 1.314 . S
C1364 H1370 0.930 . S
C1365 N1367 1.279 . S
C1365 C1368 1.358 . S
C1365 H1371 0.930 . S
C1366 C1364 1.353 . S
C1366 C1369 1.348 . S
C1366 H1404 0.929 . S
N1367 Li1322 1.990 . S
N1367 C1364 1.314 . S
N1367 C1365 1.279 . S
C1368 C1365 1.358 . S
C1368 C1369 1.356 . S
C1368 H1405 0.930 . S
C1369 C1366 1.348 . S
C1369 C1368 1.356 . S
H1370 C1364 0.930 . S
H1371 C1365 0.930 . S
C1372 N1373 1.314 . S
C1372 C1374 1.353 . S
C1372 H1378 0.930 . S
N1373 Li1323 1.990 . S
N1373 C1372 1.314 . S
N1373 C1376 1.279 . S
C1374 C1372 1.353 . S
C1374 C1377 1.348 . S
C1374 H1406 0.929 . S
C1375 C1376 1.358 . S
C1375 C1377 1.356 . S
C1375 H1407 0.930 . S
C1376 N1373 1.279 . S
C1376 C1375 1.358 . S
C1376 H1379 0.930 . S
C1377 C1374 1.348 . S
C1377 C1375 1.356 . S
H1378 C1372 0.930 . S
H1379 C1376 0.930 . S
O1380 Li1320 1.956 . S
O1380 Li1321 1.970 . S
O1380 Li1322 1.961 . S
O1380 C1324 1.325 . S
O1381 Li1320 1.970 . S
O1381 Li1321 1.956 . S
O1381 Li1323 1.961 . S
O1381 C1330 1.325 . S
O1382 Li1320 1.961 . S
O1382 Li1322 1.956 . S
O1382 Li1323 1.970 . S
O1382 C1352 1.325 . S
O1383 Li1321 1.961 . S
O1383 Li1322 1.970 . S
O1383 Li1323 1.956 . S
O1383 C1358 1.325 . S
H1384 C1326 0.929 . S
H1385 C1327 0.930 . S
H1386 C1328 0.930 . S
H1387 C1329 0.930 . S
H1388 C1331 0.930 . S
H1389 C1333 0.929 . S
H1390 C1334 0.930 . S
H1391 C1335 0.930 . S
H1392 C1338 0.930 . S
H1393 C1341 0.929 . S
H1394 C1346 0.929 . S
H1395 C1347 0.930 . S
H1396 C1354 0.929 . S
H1397 C1355 0.930 . S
H1398 C1356 0.930 . S
H1399 C1357 0.930 . S
H1400 C1359 0.929 . S
H1401 C1360 0.930 . S
H1402 C1361 0.930 . S
H1403 C1362 0.930 . S
H1404 C1366 0.929 . S
H1405 C1368 0.930 . S
H1406 C1374 0.929 . S
H1407 C1375 0.930 . S
H1408 C1426 0.951 . S
H1409 C1428 0.951 . S
H1410 C1430 0.950 . S
H1411 C1431 0.950 . S
H1412 C1433 0.950 . S
H1413 C1436 0.950 . S
H1414 C1437 0.950 . S
H1415 C1439 0.950 . S
H1416 C1440 0.950 . S
H1417 C1441 0.951 . S
H1418 C1443 0.951 . S
H1419 C1445 0.950 . S
H1420 C1446 0.950 . S
H1421 C1448 0.950 . S
H1422 C1451 0.950 . S
H1423 C1452 0.950 . S
H1424 C1454 0.950 . S
H1425 C1455 0.950 . S
C1426 H1408 0.951 . S
C1426 C1427 1.366 . S
C1426 C1428 1.388 . S
C1427 C1426 1.366 . S
C1427 C1431 1.385 . S
C1428 H1409 0.951 . S
C1428 C1426 1.388 . S
C1428 C1429 1.366 . S
C1429 C1428 1.366 . S
C1429 C1430 1.414 . S
C1429 C1432 1.499 . S
C1430 H1410 0.950 . S
C1430 C1429 1.414 . S
C1430 C1431 1.374 . S
C1431 H1411 0.950 . S
C1431 C1427 1.385 . S
C1431 C1430 1.374 . S
C1432 C1429 1.499 . S
C1432 C1433 1.373 . S
C1432 C1434 1.389 . S
C1433 H1412 0.950 . S
C1433 C1432 1.373 . S
C1433 C1449 1.377 . S
C1434 C1432 1.389 . S
C1434 C1435 1.524 . S
C1434 C1448 1.377 . S
C1435 C1434 1.524 . S
C1435 C1436 1.397 . S
C1435 C1440 1.363 . S
C1436 H1413 0.950 . S
C1436 C1435 1.397 . S
C1436 C1437 1.334 . S
C1437 H1414 0.950 . S
C1437 C1436 1.334 . S
C1437 C1438 1.287 . S
C1438 C1437 1.287 . S
C1438 C1439 1.524 . S
C1438 H1457 0.913 . S
C1439 H1415 0.950 . S
C1439 C1438 1.524 . S
C1439 C1440 1.415 . S
C1440 H1416 0.950 . S
C1440 C1435 1.363 . S
C1440 C1439 1.415 . S
C1441 H1417 0.951 . S
C1441 C1442 1.366 . S
C1441 C1443 1.388 . S
C1442 C1441 1.366 . S
C1442 C1446 1.385 . S
C1443 H1418 0.951 . S
C1443 C1441 1.388 . S
C1443 C1444 1.366 . S
C1444 C1443 1.366 . S
C1444 C1445 1.414 . S
C1444 C1447 1.499 . S
C1445 H1419 0.950 . S
C1445 C1444 1.414 . S
C1445 C1446 1.374 . S
C1446 H1420 0.950 . S
C1446 C1442 1.385 . S
C1446 C1445 1.374 . S
C1447 C1444 1.499 . S
C1447 C1448 1.373 . S
C1447 C1449 1.389 . S
C1448 H1421 0.950 . S
C1448 C1434 1.377 . S
C1448 C1447 1.373 . S
C1449 C1433 1.377 . S
C1449 C1447 1.389 . S
C1449 C1450 1.524 . S
C1450 C1449 1.524 . S
C1450 C1451 1.397 . S
C1450 C1455 1.363 . S
C1451 H1422 0.950 . S
C1451 C1450 1.397 . S
C1451 C1452 1.334 . S
C1452 H1423 0.950 . S
C1452 C1451 1.334 . S
C1452 C1453 1.287 . S
C1453 C1452 1.287 . S
C1453 C1454 1.524 . S
C1453 H1456 0.999 . S
C1454 H1424 0.950 . S
C1454 C1453 1.524 . S
C1454 C1455 1.415 . S
C1455 H1425 0.950 . S
C1455 C1450 1.363 . S
C1455 C1454 1.415 . S
H1456 C1453 0.999 . S
H1457 C1438 0.913 . S
H1458 C1476 0.951 . S
H1459 C1478 0.951 . S
H1460 C1480 0.950 . S
H1461 C1481 0.950 . S
H1462 C1483 0.950 . S
H1463 C1486 0.950 . S
H1464 C1487 0.950 . S
H1465 C1489 0.950 . S
H1466 C1490 0.950 . S
H1467 C1491 0.951 . S
H1468 C1493 0.951 . S
H1469 C1495 0.950 . S
H1470 C1496 0.950 . S
H1471 C1498 0.950 . S
H1472 C1501 0.950 . S
H1473 C1502 0.950 . S
H1474 C1504 0.950 . S
H1475 C1505 0.950 . S
C1476 H1458 0.951 . S
C1476 C1477 1.366 . S
C1476 C1478 1.388 . S
C1477 C1476 1.366 . S
C1477 C1481 1.385 . S
C1478 H1459 0.951 . S
C1478 C1476 1.388 . S
C1478 C1479 1.366 . S
C1479 C1478 1.366 . S
C1479 C1480 1.414 . S
C1479 C1482 1.499 . S
C1480 H1460 0.950 . S
C1480 C1479 1.414 . S
C1480 C1481 1.374 . S
C1481 H1461 0.950 . S
C1481 C1477 1.385 . S
C1481 C1480 1.374 . S
C1482 C1479 1.499 . S
C1482 C1483 1.373 . S
C1482 C1484 1.389 . S
C1483 H1462 0.950 . S
C1483 C1482 1.373 . S
C1483 C1499 1.377 . S
C1484 C1482 1.389 . S
C1484 C1485 1.524 . S
C1484 C1498 1.377 . S
C1485 C1484 1.524 . S
C1485 C1486 1.397 . S
C1485 C1490 1.363 . S
C1486 H1463 0.950 . S
C1486 C1485 1.397 . S
C1486 C1487 1.334 . S
C1487 H1464 0.950 . S
C1487 C1486 1.334 . S
C1487 C1488 1.287 . S
C1488 C1487 1.287 . S
C1488 C1489 1.524 . S
C1488 H1507 0.913 . S
C1489 H1465 0.950 . S
C1489 C1488 1.524 . S
C1489 C1490 1.415 . S
C1490 H1466 0.950 . S
C1490 C1485 1.363 . S
C1490 C1489 1.415 . S
C1491 H1467 0.951 . S
C1491 C1492 1.366 . S
C1491 C1493 1.388 . S
C1492 C1491 1.366 . S
C1492 C1496 1.385 . S
C1493 H1468 0.951 . S
C1493 C1491 1.388 . S
C1493 C1494 1.366 . S
C1494 C1493 1.366 . S
C1494 C1495 1.414 . S
C1494 C1497 1.499 . S
C1495 H1469 0.950 . S
C1495 C1494 1.414 . S
C1495 C1496 1.374 . S
C1496 H1470 0.950 . S
C1496 C1492 1.385 . S
C1496 C1495 1.374 . S
C1497 C1494 1.499 . S
C1497 C1498 1.373 . S
C1497 C1499 1.389 . S
C1498 H1471 0.950 . S
C1498 C1484 1.377 . S
C1498 C1497 1.373 . S
C1499 C1483 1.377 . S
C1499 C1497 1.389 . S
C1499 C1500 1.524 . S
C1500 C1499 1.524 . S
C1500 C1501 1.397 . S
C1500 C1505 1.363 . S
C1501 H1472 0.950 . S
C1501 C1500 1.397 . S
C1501 C1502 1.334 . S
C1502 H1473 0.950 . S
C1502 C1501 1.334 . S
C1502 C1503 1.287 . S
C1503 C1502 1.287 . S
C1503 C1504 1.524 . S
C1503 H1506 0.999 . S
C1504 H1474 0.950 . S
C1504 C1503 1.524 . S
C1504 C1505 1.415 . S
C1505 H1475 0.950 . S
C1505 C1500 1.363 . S
C1505 C1504 1.415 . S
H1506 C1503 0.999 . S
H1507 C1488 0.913 . S
H1508 C1526 0.951 . S
H1509 C1528 0.951 . S
H1510 C1530 0.950 . S
H1511 C1531 0.950 . S
H1512 C1533 0.950 . S
H1513 C1536 0.950 . S
H1514 C1537 0.950 . S
H1515 C1539 0.950 . S
H1516 C1540 0.950 . S
H1517 C1541 0.951 . S
H1518 C1543 0.951 . S
H1519 C1545 0.950 . S
H1520 C1546 0.950 . S
H1521 C1548 0.950 . S
H1522 C1551 0.950 . S
H1523 C1552 0.950 . S
H1524 C1554 0.950 . S
H1525 C1555 0.950 . S
C1526 H1508 0.951 . S
C1526 C1527 1.366 . S
C1526 C1528 1.388 . S
C1527 C1526 1.366 . S
C1527 C1531 1.385 . S
C1528 H1509 0.951 . S
C1528 C1526 1.388 . S
C1528 C1529 1.366 . S
C1529 C1528 1.366 . S
C1529 C1530 1.414 . S
C1529 C1532 1.499 . S
C1530 H1510 0.950 . S
C1530 C1529 1.414 . S
C1530 C1531 1.374 . S
C1531 H1511 0.950 . S
C1531 C1527 1.385 . S
C1531 C1530 1.374 . S
C1532 C1529 1.499 . S
C1532 C1533 1.373 . S
C1532 C1534 1.389 . S
C1533 H1512 0.950 . S
C1533 C1532 1.373 . S
C1533 C1549 1.377 . S
C1534 C1532 1.389 . S
C1534 C1535 1.524 . S
C1534 C1548 1.377 . S
C1535 C1534 1.524 . S
C1535 C1536 1.397 . S
C1535 C1540 1.363 . S
C1536 H1513 0.950 . S
C1536 C1535 1.397 . S
C1536 C1537 1.334 . S
C1537 H1514 0.950 . S
C1537 C1536 1.334 . S
C1537 C1538 1.287 . S
C1538 C1537 1.287 . S
C1538 C1539 1.524 . S
C1538 H1557 0.913 . S
C1539 H1515 0.950 . S
C1539 C1538 1.524 . S
C1539 C1540 1.415 . S
C1540 H1516 0.950 . S
C1540 C1535 1.363 . S
C1540 C1539 1.415 . S
C1541 H1517 0.951 . S
C1541 C1542 1.366 . S
C1541 C1543 1.388 . S
C1542 C1541 1.366 . S
C1542 C1546 1.385 . S
C1543 H1518 0.951 . S
C1543 C1541 1.388 . S
C1543 C1544 1.366 . S
C1544 C1543 1.366 . S
C1544 C1545 1.414 . S
C1544 C1547 1.499 . S
C1545 H1519 0.950 . S
C1545 C1544 1.414 . S
C1545 C1546 1.374 . S
C1546 H1520 0.950 . S
C1546 C1542 1.385 . S
C1546 C1545 1.374 . S
C1547 C1544 1.499 . S
C1547 C1548 1.373 . S
C1547 C1549 1.389 . S
C1548 H1521 0.950 . S
C1548 C1534 1.377 . S
C1548 C1547 1.373 . S
C1549 C1533 1.377 . S
C1549 C1547 1.389 . S
C1549 C1550 1.524 . S
C1550 C1549 1.524 . S
C1550 C1551 1.397 . S
C1550 C1555 1.363 . S
C1551 H1522 0.950 . S
C1551 C1550 1.397 . S
C1551 C1552 1.334 . S
C1552 H1523 0.950 . S
C1552 C1551 1.334 . S
C1552 C1553 1.287 . S
C1553 C1552 1.287 . S
C1553 C1554 1.524 . S
C1553 H1556 0.999 . S
C1554 H1524 0.950 . S
C1554 C1553 1.524 . S
C1554 C1555 1.415 . S
C1555 H1525 0.950 . S
C1555 C1550 1.363 . S
C1555 C1554 1.415 . S
H1556 C1553 0.999 . S
H1557 C1538 0.913 . S
H1558 C1576 0.951 . S
H1559 C1578 0.951 . S
H1560 C1580 0.950 . S
H1561 C1581 0.950 . S
H1562 C1583 0.950 . S
H1563 C1586 0.950 . S
H1564 C1587 0.950 . S
H1565 C1589 0.950 . S
H1566 C1590 0.950 . S
H1567 C1591 0.951 . S
H1568 C1593 0.951 . S
H1569 C1595 0.950 . S
H1570 C1596 0.950 . S
H1571 C1598 0.950 . S
H1572 C1601 0.950 . S
H1573 C1602 0.950 . S
H1574 C1604 0.950 . S
H1575 C1605 0.950 . S
C1576 H1558 0.951 . S
C1576 C1577 1.366 . S
C1576 C1578 1.388 . S
C1577 C1576 1.366 . S
C1577 C1581 1.385 . S
C1578 H1559 0.951 . S
C1578 C1576 1.388 . S
C1578 C1579 1.366 . S
C1579 C1578 1.366 . S
C1579 C1580 1.414 . S
C1579 C1582 1.499 . S
C1580 H1560 0.950 . S
C1580 C1579 1.414 . S
C1580 C1581 1.374 . S
C1581 H1561 0.950 . S
C1581 C1577 1.385 . S
C1581 C1580 1.374 . S
C1582 C1579 1.499 . S
C1582 C1583 1.373 . S
C1582 C1584 1.389 . S
C1583 H1562 0.950 . S
C1583 C1582 1.373 . S
C1583 C1599 1.377 . S
C1584 C1582 1.389 . S
C1584 C1585 1.524 . S
C1584 C1598 1.377 . S
C1585 C1584 1.524 . S
C1585 C1586 1.397 . S
C1585 C1590 1.363 . S
C1586 H1563 0.950 . S
C1586 C1585 1.397 . S
C1586 C1587 1.334 . S
C1587 H1564 0.950 . S
C1587 C1586 1.334 . S
C1587 C1588 1.287 . S
C1588 C1587 1.287 . S
C1588 C1589 1.524 . S
C1588 H1607 0.913 . S
C1589 H1565 0.950 . S
C1589 C1588 1.524 . S
C1589 C1590 1.415 . S
C1590 H1566 0.950 . S
C1590 C1585 1.363 . S
C1590 C1589 1.415 . S
C1591 H1567 0.951 . S
C1591 C1592 1.366 . S
C1591 C1593 1.388 . S
C1592 C1591 1.366 . S
C1592 C1596 1.385 . S
C1593 H1568 0.951 . S
C1593 C1591 1.388 . S
C1593 C1594 1.366 . S
C1594 C1593 1.366 . S
C1594 C1595 1.414 . S
C1594 C1597 1.499 . S
C1595 H1569 0.950 . S
C1595 C1594 1.414 . S
C1595 C1596 1.374 . S
C1596 H1570 0.950 . S
C1596 C1592 1.385 . S
C1596 C1595 1.374 . S
C1597 C1594 1.499 . S
C1597 C1598 1.373 . S
C1597 C1599 1.389 . S
C1598 H1571 0.950 . S
C1598 C1584 1.377 . S
C1598 C1597 1.373 . S
C1599 C1583 1.377 . S
C1599 C1597 1.389 . S
C1599 C1600 1.524 . S
C1600 C1599 1.524 . S
C1600 C1601 1.397 . S
C1600 C1605 1.363 . S
C1601 H1572 0.950 . S
C1601 C1600 1.397 . S
C1601 C1602 1.334 . S
C1602 H1573 0.950 . S
C1602 C1601 1.334 . S
C1602 C1603 1.287 . S
C1603 C1602 1.287 . S
C1603 C1604 1.524 . S
C1603 H1606 0.999 . S
C1604 H1574 0.950 . S
C1604 C1603 1.524 . S
C1604 C1605 1.415 . S
C1605 H1575 0.950 . S
C1605 C1600 1.363 . S
C1605 C1604 1.415 . S
H1606 C1603 0.999 . S
H1607 C1588 0.913 . S
H1608 C1626 0.951 . S
H1609 C1628 0.951 . S
H1610 C1630 0.950 . S
H1611 C1631 0.950 . S
H1612 C1633 0.950 . S
H1613 C1636 0.950 . S
H1614 C1637 0.950 . S
H1615 C1639 0.950 . S
H1616 C1640 0.950 . S
H1617 C1641 0.951 . S
H1618 C1643 0.951 . S
H1619 C1645 0.950 . S
H1620 C1646 0.950 . S
H1621 C1648 0.950 . S
H1622 C1651 0.950 . S
H1623 C1652 0.950 . S
H1624 C1654 0.950 . S
H1625 C1655 0.950 . S
C1626 H1608 0.951 . S
C1626 C1627 1.366 . S
C1626 C1628 1.388 . S
C1627 C1626 1.366 . S
C1627 C1631 1.385 . S
C1628 H1609 0.951 . S
C1628 C1626 1.388 . S
C1628 C1629 1.366 . S
C1629 C1628 1.366 . S
C1629 C1630 1.414 . S
C1629 C1632 1.499 . S
C1630 H1610 0.950 . S
C1630 C1629 1.414 . S
C1630 C1631 1.374 . S
C1631 H1611 0.950 . S
C1631 C1627 1.385 . S
C1631 C1630 1.374 . S
C1632 C1629 1.499 . S
C1632 C1633 1.373 . S
C1632 C1634 1.389 . S
C1633 H1612 0.950 . S
C1633 C1632 1.373 . S
C1633 C1649 1.377 . S
C1634 C1632 1.389 . S
C1634 C1635 1.524 . S
C1634 C1648 1.377 . S
C1635 C1634 1.524 . S
C1635 C1636 1.397 . S
C1635 C1640 1.363 . S
C1636 H1613 0.950 . S
C1636 C1635 1.397 . S
C1636 C1637 1.334 . S
C1637 H1614 0.950 . S
C1637 C1636 1.334 . S
C1637 C1638 1.287 . S
C1638 C1637 1.287 . S
C1638 C1639 1.524 . S
C1638 H1657 0.913 . S
C1639 H1615 0.950 . S
C1639 C1638 1.524 . S
C1639 C1640 1.415 . S
C1640 H1616 0.950 . S
C1640 C1635 1.363 . S
C1640 C1639 1.415 . S
C1641 H1617 0.951 . S
C1641 C1642 1.366 . S
C1641 C1643 1.388 . S
C1642 C1641 1.366 . S
C1642 C1646 1.385 . S
C1643 H1618 0.951 . S
C1643 C1641 1.388 . S
C1643 C1644 1.366 . S
C1644 C1643 1.366 . S
C1644 C1645 1.414 . S
C1644 C1647 1.499 . S
C1645 H1619 0.950 . S
C1645 C1644 1.414 . S
C1645 C1646 1.374 . S
C1646 H1620 0.950 . S
C1646 C1642 1.385 . S
C1646 C1645 1.374 . S
C1647 C1644 1.499 . S
C1647 C1648 1.373 . S
C1647 C1649 1.389 . S
C1648 H1621 0.950 . S
C1648 C1634 1.377 . S
C1648 C1647 1.373 . S
C1649 C1633 1.377 . S
C1649 C1647 1.389 . S
C1649 C1650 1.524 . S
C1650 C1649 1.524 . S
C1650 C1651 1.397 . S
C1650 C1655 1.363 . S
C1651 H1622 0.950 . S
C1651 C1650 1.397 . S
C1651 C1652 1.334 . S
C1652 H1623 0.950 . S
C1652 C1651 1.334 . S
C1652 C1653 1.287 . S
C1653 C1652 1.287 . S
C1653 C1654 1.524 . S
C1653 H1656 0.999 . S
C1654 H1624 0.950 . S
C1654 C1653 1.524 . S
C1654 C1655 1.415 . S
C1655 H1625 0.950 . S
C1655 C1650 1.363 . S
C1655 C1654 1.415 . S
H1656 C1653 0.999 . S
H1657 C1638 0.913 . S
H1658 C1676 0.951 . S
H1659 C1678 0.951 . S
H1660 C1680 0.950 . S
H1661 C1681 0.950 . S
H1662 C1683 0.950 . S
H1663 C1686 0.950 . S
H1664 C1687 0.950 . S
H1665 C1689 0.950 . S
H1666 C1690 0.950 . S
H1667 C1691 0.951 . S
H1668 C1693 0.951 . S
H1669 C1695 0.950 . S
H1670 C1696 0.950 . S
H1671 C1698 0.950 . S
H1672 C1701 0.950 . S
H1673 C1702 0.950 . S
H1674 C1704 0.950 . S
H1675 C1705 0.950 . S
C1676 H1658 0.951 . S
C1676 C1677 1.366 . S
C1676 C1678 1.388 . S
C1677 C1676 1.366 . S
C1677 C1681 1.385 . S
C1678 H1659 0.951 . S
C1678 C1676 1.388 . S
C1678 C1679 1.366 . S
C1679 C1678 1.366 . S
C1679 C1680 1.414 . S
C1679 C1682 1.499 . S
C1680 H1660 0.950 . S
C1680 C1679 1.414 . S
C1680 C1681 1.374 . S
C1681 H1661 0.950 . S
C1681 C1677 1.385 . S
C1681 C1680 1.374 . S
C1682 C1679 1.499 . S
C1682 C1683 1.373 . S
C1682 C1684 1.389 . S
C1683 H1662 0.950 . S
C1683 C1682 1.373 . S
C1683 C1699 1.377 . S
C1684 C1682 1.389 . S
C1684 C1685 1.524 . S
C1684 C1698 1.377 . S
C1685 C1684 1.524 . S
C1685 C1686 1.397 . S
C1685 C1690 1.363 . S
C1686 H1663 0.950 . S
C1686 C1685 1.397 . S
C1686 C1687 1.334 . S
C1687 H1664 0.950 . S
C1687 C1686 1.334 . S
C1687 C1688 1.287 . S
C1688 C1687 1.287 . S
C1688 C1689 1.524 . S
C1688 H1707 0.913 . S
C1689 H1665 0.950 . S
C1689 C1688 1.524 . S
C1689 C1690 1.415 . S
C1690 H1666 0.950 . S
C1690 C1685 1.363 . S
C1690 C1689 1.415 . S
C1691 H1667 0.951 . S
C1691 C1692 1.366 . S
C1691 C1693 1.388 . S
C1692 C1691 1.366 . S
C1692 C1696 1.385 . S
C1693 H1668 0.951 . S
C1693 C1691 1.388 . S
C1693 C1694 1.366 . S
C1694 C1693 1.366 . S
C1694 C1695 1.414 . S
C1694 C1697 1.499 . S
C1695 H1669 0.950 . S
C1695 C1694 1.414 . S
C1695 C1696 1.374 . S
C1696 H1670 0.950 . S
C1696 C1692 1.385 . S
C1696 C1695 1.374 . S
C1697 C1694 1.499 . S
C1697 C1698 1.373 . S
C1697 C1699 1.389 . S
C1698 H1671 0.950 . S
C1698 C1684 1.377 . S
C1698 C1697 1.373 . S
C1699 C1683 1.377 . S
C1699 C1697 1.389 . S
C1699 C1700 1.524 . S
C1700 C1699 1.524 . S
C1700 C1701 1.397 . S
C1700 C1705 1.363 . S
C1701 H1672 0.950 . S
C1701 C1700 1.397 . S
C1701 C1702 1.334 . S
C1702 H1673 0.950 . S
C1702 C1701 1.334 . S
C1702 C1703 1.287 . S
C1703 C1702 1.287 . S
C1703 C1704 1.524 . S
C1703 H1706 0.999 . S
C1704 H1674 0.950 . S
C1704 C1703 1.524 . S
C1704 C1705 1.415 . S
C1705 H1675 0.950 . S
C1705 C1700 1.363 . S
C1705 C1704 1.415 . S
H1706 C1703 0.999 . S
H1707 C1688 0.913 . S
H1708 C1726 0.951 . S
H1709 C1728 0.951 . S
H1710 C1730 0.950 . S
H1711 C1731 0.950 . S
H1712 C1733 0.950 . S
H1713 C1736 0.950 . S
H1714 C1737 0.950 . S
H1715 C1739 0.950 . S
H1716 C1740 0.950 . S
H1717 C1741 0.951 . S
H1718 C1743 0.951 . S
H1719 C1745 0.950 . S
H1720 C1746 0.950 . S
H1721 C1748 0.950 . S
H1722 C1751 0.950 . S
H1723 C1752 0.950 . S
H1724 C1754 0.950 . S
H1725 C1755 0.950 . S
C1726 H1708 0.951 . S
C1726 C1727 1.366 . S
C1726 C1728 1.388 . S
C1727 C1726 1.366 . S
C1727 C1731 1.385 . S
C1728 H1709 0.951 . S
C1728 C1726 1.388 . S
C1728 C1729 1.366 . S
C1729 C1728 1.366 . S
C1729 C1730 1.414 . S
C1729 C1732 1.499 . S
C1730 H1710 0.950 . S
C1730 C1729 1.414 . S
C1730 C1731 1.374 . S
C1731 H1711 0.950 . S
C1731 C1727 1.385 . S
C1731 C1730 1.374 . S
C1732 C1729 1.499 . S
C1732 C1733 1.373 . S
C1732 C1734 1.389 . S
C1733 H1712 0.950 . S
C1733 C1732 1.373 . S
C1733 C1749 1.377 . S
C1734 C1732 1.389 . S
C1734 C1735 1.524 . S
C1734 C1748 1.377 . S
C1735 C1734 1.524 . S
C1735 C1736 1.397 . S
C1735 C1740 1.363 . S
C1736 H1713 0.950 . S
C1736 C1735 1.397 . S
C1736 C1737 1.334 . S
C1737 H1714 0.950 . S
C1737 C1736 1.334 . S
C1737 C1738 1.287 . S
C1738 C1737 1.287 . S
C1738 C1739 1.524 . S
C1738 H1757 0.913 . S
C1739 H1715 0.950 . S
C1739 C1738 1.524 . S
C1739 C1740 1.415 . S
C1740 H1716 0.950 . S
C1740 C1735 1.363 . S
C1740 C1739 1.415 . S
C1741 H1717 0.951 . S
C1741 C1742 1.366 . S
C1741 C1743 1.388 . S
C1742 C1741 1.366 . S
C1742 C1746 1.385 . S
C1743 H1718 0.951 . S
C1743 C1741 1.388 . S
C1743 C1744 1.366 . S
C1744 C1743 1.366 . S
C1744 C1745 1.414 . S
C1744 C1747 1.499 . S
C1745 H1719 0.950 . S
C1745 C1744 1.414 . S
C1745 C1746 1.374 . S
C1746 H1720 0.950 . S
C1746 C1742 1.385 . S
C1746 C1745 1.374 . S
C1747 C1744 1.499 . S
C1747 C1748 1.373 . S
C1747 C1749 1.389 . S
C1748 H1721 0.950 . S
C1748 C1734 1.377 . S
C1748 C1747 1.373 . S
C1749 C1733 1.377 . S
C1749 C1747 1.389 . S
C1749 C1750 1.524 . S
C1750 C1749 1.524 . S
C1750 C1751 1.397 . S
C1750 C1755 1.363 . S
C1751 H1722 0.950 . S
C1751 C1750 1.397 . S
C1751 C1752 1.334 . S
C1752 H1723 0.950 . S
C1752 C1751 1.334 . S
C1752 C1753 1.287 . S
C1753 C1752 1.287 . S
C1753 C1754 1.524 . S
C1753 H1756 0.999 . S
C1754 H1724 0.950 . S
C1754 C1753 1.524 . S
C1754 C1755 1.415 . S
C1755 H1725 0.950 . S
C1755 C1750 1.363 . S
C1755 C1754 1.415 . S
H1756 C1753 0.999 . S
H1757 C1738 0.913 . S
H1758 C1776 0.951 . S
H1759 C1778 0.951 . S
H1760 C1780 0.950 . S
H1761 C1781 0.950 . S
H1762 C1783 0.950 . S
H1763 C1786 0.950 . S
H1764 C1787 0.950 . S
H1765 C1789 0.950 . S
H1766 C1790 0.950 . S
H1767 C1791 0.951 . S
H1768 C1793 0.951 . S
H1769 C1795 0.950 . S
H1770 C1796 0.950 . S
H1771 C1798 0.950 . S
H1772 C1801 0.950 . S
H1773 C1802 0.950 . S
H1774 C1804 0.950 . S
H1775 C1805 0.950 . S
C1776 H1758 0.951 . S
C1776 C1777 1.366 . S
C1776 C1778 1.388 . S
C1777 C1776 1.366 . S
C1777 C1781 1.385 . S
C1778 H1759 0.951 . S
C1778 C1776 1.388 . S
C1778 C1779 1.366 . S
C1779 C1778 1.366 . S
C1779 C1780 1.414 . S
C1779 C1782 1.499 . S
C1780 H1760 0.950 . S
C1780 C1779 1.414 . S
C1780 C1781 1.374 . S
C1781 H1761 0.950 . S
C1781 C1777 1.385 . S
C1781 C1780 1.374 . S
C1782 C1779 1.499 . S
C1782 C1783 1.373 . S
C1782 C1784 1.389 . S
C1783 H1762 0.950 . S
C1783 C1782 1.373 . S
C1783 C1799 1.377 . S
C1784 C1782 1.389 . S
C1784 C1785 1.524 . S
C1784 C1798 1.377 . S
C1785 C1784 1.524 . S
C1785 C1786 1.397 . S
C1785 C1790 1.363 . S
C1786 H1763 0.950 . S
C1786 C1785 1.397 . S
C1786 C1787 1.334 . S
C1787 H1764 0.950 . S
C1787 C1786 1.334 . S
C1787 C1788 1.287 . S
C1788 C1787 1.287 . S
C1788 C1789 1.524 . S
C1788 H1807 0.913 . S
C1789 H1765 0.950 . S
C1789 C1788 1.524 . S
C1789 C1790 1.415 . S
C1790 H1766 0.950 . S
C1790 C1785 1.363 . S
C1790 C1789 1.415 . S
C1791 H1767 0.951 . S
C1791 C1792 1.366 . S
C1791 C1793 1.388 . S
C1792 C1791 1.366 . S
C1792 C1796 1.385 . S
C1793 H1768 0.951 . S
C1793 C1791 1.388 . S
C1793 C1794 1.366 . S
C1794 C1793 1.366 . S
C1794 C1795 1.414 . S
C1794 C1797 1.499 . S
C1795 H1769 0.950 . S
C1795 C1794 1.414 . S
C1795 C1796 1.374 . S
C1796 H1770 0.950 . S
C1796 C1792 1.385 . S
C1796 C1795 1.374 . S
C1797 C1794 1.499 . S
C1797 C1798 1.373 . S
C1797 C1799 1.389 . S
C1798 H1771 0.950 . S
C1798 C1784 1.377 . S
C1798 C1797 1.373 . S
C1799 C1783 1.377 . S
C1799 C1797 1.389 . S
C1799 C1800 1.524 . S
C1800 C1799 1.524 . S
C1800 C1801 1.397 . S
C1800 C1805 1.363 . S
C1801 H1772 0.950 . S
C1801 C1800 1.397 . S
C1801 C1802 1.334 . S
C1802 H1773 0.950 . S
C1802 C1801 1.334 . S
C1802 C1803 1.287 . S
C1803 C1802 1.287 . S
C1803 C1804 1.524 . S
C1803 H1806 0.999 . S
C1804 H1774 0.950 . S
C1804 C1803 1.524 . S
C1804 C1805 1.415 . S
C1805 H1775 0.950 . S
C1805 C1800 1.363 . S
C1805 C1804 1.415 . S
H1806 C1803 0.999 . S
H1807 C1788 0.913 . S
H1808 C1826 0.951 . S
H1809 C1828 0.951 . S
H1810 C1830 0.950 . S
H1811 C1831 0.950 . S
H1812 C1833 0.950 . S
H1813 C1836 0.950 . S
H1814 C1837 0.950 . S
H1815 C1839 0.950 . S
H1816 C1840 0.950 . S
H1817 C1841 0.951 . S
H1818 C1843 0.951 . S
H1819 C1845 0.950 . S
H1820 C1846 0.950 . S
H1821 C1848 0.950 . S
H1822 C1851 0.950 . S
H1823 C1852 0.950 . S
H1824 C1854 0.950 . S
H1825 C1855 0.950 . S
C1826 H1808 0.951 . S
C1826 C1827 1.366 . S
C1826 C1828 1.388 . S
C1827 C1826 1.366 . S
C1827 C1831 1.385 . S
C1828 H1809 0.951 . S
C1828 C1826 1.388 . S
C1828 C1829 1.366 . S
C1829 C1828 1.366 . S
C1829 C1830 1.414 . S
C1829 C1832 1.499 . S
C1830 H1810 0.950 . S
C1830 C1829 1.414 . S
C1830 C1831 1.374 . S
C1831 H1811 0.950 . S
C1831 C1827 1.385 . S
C1831 C1830 1.374 . S
C1832 C1829 1.499 . S
C1832 C1833 1.373 . S
C1832 C1834 1.389 . S
C1833 H1812 0.950 . S
C1833 C1832 1.373 . S
C1833 C1849 1.377 . S
C1834 C1832 1.389 . S
C1834 C1835 1.524 . S
C1834 C1848 1.377 . S
C1835 C1834 1.524 . S
C1835 C1836 1.397 . S
C1835 C1840 1.363 . S
C1836 H1813 0.950 . S
C1836 C1835 1.397 . S
C1836 C1837 1.334 . S
C1837 H1814 0.950 . S
C1837 C1836 1.334 . S
C1837 C1838 1.287 . S
C1838 C1837 1.287 . S
C1838 C1839 1.524 . S
C1838 H1857 0.913 . S
C1839 H1815 0.950 . S
C1839 C1838 1.524 . S
C1839 C1840 1.415 . S
C1840 H1816 0.950 . S
C1840 C1835 1.363 . S
C1840 C1839 1.415 . S
C1841 H1817 0.951 . S
C1841 C1842 1.366 . S
C1841 C1843 1.388 . S
C1842 C1841 1.366 . S
C1842 C1846 1.385 . S
C1843 H1818 0.951 . S
C1843 C1841 1.388 . S
C1843 C1844 1.366 . S
C1844 C1843 1.366 . S
C1844 C1845 1.414 . S
C1844 C1847 1.499 . S
C1845 H1819 0.950 . S
C1845 C1844 1.414 . S
C1845 C1846 1.374 . S
C1846 H1820 0.950 . S
C1846 C1842 1.385 . S
C1846 C1845 1.374 . S
C1847 C1844 1.499 . S
C1847 C1848 1.373 . S
C1847 C1849 1.389 . S
C1848 H1821 0.950 . S
C1848 C1834 1.377 . S
C1848 C1847 1.373 . S
C1849 C1833 1.377 . S
C1849 C1847 1.389 . S
C1849 C1850 1.524 . S
C1850 C1849 1.524 . S
C1850 C1851 1.397 . S
C1850 C1855 1.363 . S
C1851 H1822 0.950 . S
C1851 C1850 1.397 . S
C1851 C1852 1.334 . S
C1852 H1823 0.950 . S
C1852 C1851 1.334 . S
C1852 C1853 1.287 . S
C1853 C1852 1.287 . S
C1853 C1854 1.524 . S
C1853 H1856 0.999 . S
C1854 H1824 0.950 . S
C1854 C1853 1.524 . S
C1854 C1855 1.415 . S
C1855 H1825 0.950 . S
C1855 C1850 1.363 . S
C1855 C1854 1.415 . S
H1856 C1853 0.999 . S
H1857 C1838 0.913 . S
H1858 C1876 0.951 . S
H1859 C1878 0.951 . S
H1860 C1880 0.950 . S
H1861 C1881 0.950 . S
H1862 C1883 0.950 . S
H1863 C1886 0.950 . S
H1864 C1887 0.950 . S
H1865 C1889 0.950 . S
H1866 C1890 0.950 . S
H1867 C1891 0.951 . S
H1868 C1893 0.951 . S
H1869 C1895 0.950 . S
H1870 C1896 0.950 . S
H1871 C1898 0.950 . S
H1872 C1901 0.950 . S
H1873 C1902 0.950 . S
H1874 C1904 0.950 . S
H1875 C1905 0.950 . S
C1876 H1858 0.951 . S
C1876 C1877 1.366 . S
C1876 C1878 1.388 . S
C1877 C1876 1.366 . S
C1877 C1881 1.385 . S
C1878 H1859 0.951 . S
C1878 C1876 1.388 . S
C1878 C1879 1.366 . S
C1879 C1878 1.366 . S
C1879 C1880 1.414 . S
C1879 C1882 1.499 . S
C1880 H1860 0.950 . S
C1880 C1879 1.414 . S
C1880 C1881 1.374 . S
C1881 H1861 0.950 . S
C1881 C1877 1.385 . S
C1881 C1880 1.374 . S
C1882 C1879 1.499 . S
C1882 C1883 1.373 . S
C1882 C1884 1.389 . S
C1883 H1862 0.950 . S
C1883 C1882 1.373 . S
C1883 C1899 1.377 . S
C1884 C1882 1.389 . S
C1884 C1885 1.524 . S
C1884 C1898 1.377 . S
C1885 C1884 1.524 . S
C1885 C1886 1.397 . S
C1885 C1890 1.363 . S
C1886 H1863 0.950 . S
C1886 C1885 1.397 . S
C1886 C1887 1.334 . S
C1887 H1864 0.950 . S
C1887 C1886 1.334 . S
C1887 C1888 1.287 . S
C1888 C1887 1.287 . S
C1888 C1889 1.524 . S
C1888 H1907 0.913 . S
C1889 H1865 0.950 . S
C1889 C1888 1.524 . S
C1889 C1890 1.415 . S
C1890 H1866 0.950 . S
C1890 C1885 1.363 . S
C1890 C1889 1.415 . S
C1891 H1867 0.951 . S
C1891 C1892 1.366 . S
C1891 C1893 1.388 . S
C1892 C1891 1.366 . S
C1892 C1896 1.385 . S
C1893 H1868 0.951 . S
C1893 C1891 1.388 . S
C1893 C1894 1.366 . S
C1894 C1893 1.366 . S
C1894 C1895 1.414 . S
C1894 C1897 1.499 . S
C1895 H1869 0.950 . S
C1895 C1894 1.414 . S
C1895 C1896 1.374 . S
C1896 H1870 0.950 . S
C1896 C1892 1.385 . S
C1896 C1895 1.374 . S
C1897 C1894 1.499 . S
C1897 C1898 1.373 . S
C1897 C1899 1.389 . S
C1898 H1871 0.950 . S
C1898 C1884 1.377 . S
C1898 C1897 1.373 . S
C1899 C1883 1.377 . S
C1899 C1897 1.389 . S
C1899 C1900 1.524 . S
C1900 C1899 1.524 . S
C1900 C1901 1.397 . S
C1900 C1905 1.363 . S
C1901 H1872 0.950 . S
C1901 C1900 1.397 . S
C1901 C1902 1.334 . S
C1902 H1873 0.950 . S
C1902 C1901 1.334 . S
C1902 C1903 1.287 . S
C1903 C1902 1.287 . S
C1903 C1904 1.524 . S
C1903 H1906 0.999 . S
C1904 H1874 0.950 . S
C1904 C1903 1.524 . S
C1904 C1905 1.415 . S
C1905 H1875 0.950 . S
C1905 C1900 1.363 . S
C1905 C1904 1.415 . S
H1906 C1903 0.999 . S
H1907 C1888 0.913 . S
H1908 C1926 0.951 . S
H1909 C1928 0.951 . S
H1910 C1930 0.950 . S
H1911 C1931 0.950 . S
H1912 C1933 0.950 . S
H1913 C1936 0.950 . S
H1914 C1937 0.950 . S
H1915 C1939 0.950 . S
H1916 C1940 0.950 . S
H1917 C1941 0.951 . S
H1918 C1943 0.951 . S
H1919 C1945 0.950 . S
H1920 C1946 0.950 . S
H1921 C1948 0.950 . S
H1922 C1951 0.950 . S
H1923 C1952 0.950 . S
H1924 C1954 0.950 . S
H1925 C1955 0.950 . S
C1926 H1908 0.951 . S
C1926 C1927 1.366 . S
C1926 C1928 1.388 . S
C1927 C1926 1.366 . S
C1927 C1931 1.385 . S
C1928 H1909 0.951 . S
C1928 C1926 1.388 . S
C1928 C1929 1.366 . S
C1929 C1928 1.366 . S
C1929 C1930 1.414 . S
C1929 C1932 1.499 . S
C1930 H1910 0.950 . S
C1930 C1929 1.414 . S
C1930 C1931 1.374 . S
C1931 H1911 0.950 . S
C1931 C1927 1.385 . S
C1931 C1930 1.374 . S
C1932 C1929 1.499 . S
C1932 C1933 1.373 . S
C1932 C1934 1.389 . S
C1933 H1912 0.950 . S
C1933 C1932 1.373 . S
C1933 C1949 1.377 . S
C1934 C1932 1.389 . S
C1934 C1935 1.524 . S
C1934 C1948 1.377 . S
C1935 C1934 1.524 . S
C1935 C1936 1.397 . S
C1935 C1940 1.363 . S
C1936 H1913 0.950 . S
C1936 C1935 1.397 . S
C1936 C1937 1.334 . S
C1937 H1914 0.950 . S
C1937 C1936 1.334 . S
C1937 C1938 1.287 . S
C1938 C1937 1.287 . S
C1938 C1939 1.524 . S
C1938 H1957 0.913 . S
C1939 H1915 0.950 . S
C1939 C1938 1.524 . S
C1939 C1940 1.415 . S
C1940 H1916 0.950 . S
C1940 C1935 1.363 . S
C1940 C1939 1.415 . S
C1941 H1917 0.951 . S
C1941 C1942 1.366 . S
C1941 C1943 1.388 . S
C1942 C1941 1.366 . S
C1942 C1946 1.385 . S
C1943 H1918 0.951 . S
C1943 C1941 1.388 . S
C1943 C1944 1.366 . S
C1944 C1943 1.366 . S
C1944 C1945 1.414 . S
C1944 C1947 1.499 . S
C1945 H1919 0.950 . S
C1945 C1944 1.414 . S
C1945 C1946 1.374 . S
C1946 H1920 0.950 . S
C1946 C1942 1.385 . S
C1946 C1945 1.374 . S
C1947 C1944 1.499 . S
C1947 C1948 1.373 . S
C1947 C1949 1.389 . S
C1948 H1921 0.950 . S
C1948 C1934 1.377 . S
C1948 C1947 1.373 . S
C1949 C1933 1.377 . S
C1949 C1947 1.389 . S
C1949 C1950 1.524 . S
C1950 C1949 1.524 . S
C1950 C1951 1.397 . S
C1950 C1955 1.363 . S
C1951 H1922 0.950 . S
C1951 C1950 1.397 . S
C1951 C1952 1.334 . S
C1952 H1923 0.950 . S
C1952 C1951 1.334 . S
C1952 C1953 1.287 . S
C1953 C1952 1.287 . S
C1953 C1954 1.524 . S
C1953 H1956 0.999 . S
C1954 H1924 0.950 . S
C1954 C1953 1.524 . S
C1954 C1955 1.415 . S
C1955 H1925 0.950 . S
C1955 C1950 1.363 . S
C1955 C1954 1.415 . S
H1956 C1953 0.999 . S
H1957 C1938 0.913 . S
H1958 C1976 0.951 . S
H1959 C1978 0.951 . S
H1960 C1980 0.950 . S
H1961 C1981 0.950 . S
H1962 C1983 0.950 . S
H1963 C1986 0.950 . S
H1964 C1987 0.950 . S
H1965 C1989 0.950 . S
H1966 C1990 0.870 1_556 S
H1967 C1991 0.951 . S
H1968 C1993 0.951 . S
H1969 C1995 0.950 . S
H1970 C1996 0.950 . S
H1971 C1998 0.950 . S
H1972 C2001 0.950 . S
H1973 C2002 0.950 . S
H1974 C2004 0.950 . S
H1975 C2005 0.870 1_554 S
C1976 H1958 0.951 . S
C1976 C1977 1.366 . S
C1976 C1978 1.388 . S
C1977 C1976 1.366 . S
C1977 C1981 1.385 . S
C1978 H1959 0.951 . S
C1978 C1976 1.388 . S
C1978 C1979 1.366 . S
C1979 C1978 1.366 . S
C1979 C1980 1.414 . S
C1979 C1982 1.499 . S
C1980 H1960 0.950 . S
C1980 C1979 1.414 . S
C1980 C1981 1.374 . S
C1981 H1961 0.950 . S
C1981 C1977 1.385 . S
C1981 C1980 1.374 . S
C1982 C1979 1.499 . S
C1982 C1983 1.373 . S
C1982 C1984 1.389 . S
C1983 H1962 0.950 . S
C1983 C1982 1.373 . S
C1983 C1999 1.377 1_554 S
C1984 C1982 1.389 . S
C1984 C1985 1.524 . S
C1984 C1998 1.377 1_554 S
C1985 C1984 1.524 . S
C1985 C1986 1.397 . S
C1985 C1990 1.363 . S
C1986 H1963 0.950 . S
C1986 C1985 1.397 . S
C1986 C1987 1.334 . S
C1987 H1964 0.950 . S
C1987 C1986 1.334 . S
C1987 C1988 1.287 . S
C1988 C1987 1.287 . S
C1988 C1989 1.524 . S
C1988 H2007 0.913 . S
C1989 H1965 0.950 . S
C1989 C1988 1.524 . S
C1989 C1990 1.415 . S
C1990 H1966 0.870 1_554 S
C1990 C1985 1.363 . S
C1990 C1989 1.415 . S
C1991 H1967 0.951 . S
C1991 C1992 1.366 . S
C1991 C1993 1.388 . S
C1992 C1991 1.366 . S
C1992 C1996 1.385 . S
C1993 H1968 0.951 . S
C1993 C1991 1.388 . S
C1993 C1994 1.366 . S
C1994 C1993 1.366 . S
C1994 C1995 1.414 . S
C1994 C1997 1.499 . S
C1995 H1969 0.950 . S
C1995 C1994 1.414 . S
C1995 C1996 1.374 . S
C1996 H1970 0.950 . S
C1996 C1992 1.385 . S
C1996 C1995 1.374 . S
C1997 C1994 1.499 . S
C1997 C1998 1.373 . S
C1997 C1999 1.389 . S
C1998 H1971 0.950 . S
C1998 C1984 1.377 1_556 S
C1998 C1997 1.373 . S
C1999 C1983 1.377 1_556 S
C1999 C1997 1.389 . S
C1999 C2000 1.524 . S
C2000 C1999 1.524 . S
C2000 C2001 1.397 . S
C2000 C2005 1.363 . S
C2001 H1972 0.950 . S
C2001 C2000 1.397 . S
C2001 C2002 1.334 . S
C2002 H1973 0.950 . S
C2002 C2001 1.334 . S
C2002 C2003 1.287 . S
C2003 C2002 1.287 . S
C2003 C2004 1.524 . S
C2003 H2006 0.999 . S
C2004 H1974 0.950 . S
C2004 C2003 1.524 . S
C2004 C2005 1.415 . S
C2005 H1975 0.870 1_556 S
C2005 C2000 1.363 . S
C2005 C2004 1.415 . S
H2006 C2003 0.999 . S
H2007 C1988 0.913 . S
H2008 C2026 0.951 . S
H2009 C2028 0.951 . S
H2010 C2030 0.950 . S
H2011 C2031 0.950 . S
H2012 C2033 0.950 . S
H2013 C2036 0.950 . S
H2014 C2037 0.950 . S
H2015 C2039 0.950 . S
H2016 C2040 0.950 . S
H2017 C2041 0.951 . S
H2018 C2043 0.951 . S
H2019 C2045 0.950 . S
H2020 C2046 0.950 . S
H2021 C2048 0.950 . S
H2022 C2051 0.950 . S
H2023 C2052 0.950 . S
H2024 C2054 0.950 . S
H2025 C2055 0.950 . S
C2026 H2008 0.951 . S
C2026 C2027 1.366 . S
C2026 C2028 1.388 . S
C2027 C2026 1.366 . S
C2027 C2031 1.385 . S
C2028 H2009 0.951 . S
C2028 C2026 1.388 . S
C2028 C2029 1.366 . S
C2029 C2028 1.366 . S
C2029 C2030 1.414 . S
C2029 C2032 1.499 . S
C2030 H2010 0.950 . S
C2030 C2029 1.414 . S
C2030 C2031 1.374 . S
C2031 H2011 0.950 . S
C2031 C2027 1.385 . S
C2031 C2030 1.374 . S
C2032 C2029 1.499 . S
C2032 C2033 1.373 . S
C2032 C2034 1.389 . S
C2033 H2012 0.950 . S
C2033 C2032 1.373 . S
C2033 C2049 1.377 1_554 S
C2034 C2032 1.389 . S
C2034 C2035 1.524 . S
C2034 C2048 1.377 1_554 S
C2035 C2034 1.524 . S
C2035 C2036 1.397 . S
C2035 C2040 1.363 . S
C2036 H2013 0.950 . S
C2036 C2035 1.397 . S
C2036 C2037 1.334 . S
C2037 H2014 0.950 . S
C2037 C2036 1.334 . S
C2037 C2038 1.287 . S
C2038 C2037 1.287 . S
C2038 C2039 1.524 . S
C2038 H2057 0.913 . S
C2039 H2015 0.950 . S
C2039 C2038 1.524 . S
C2039 C2040 1.415 . S
C2040 H2016 0.950 . S
C2040 C2035 1.363 . S
C2040 C2039 1.415 . S
C2041 H2017 0.951 . S
C2041 C2042 1.366 . S
C2041 C2043 1.388 . S
C2042 C2041 1.366 . S
C2042 C2046 1.385 . S
C2043 H2018 0.951 . S
C2043 C2041 1.388 . S
C2043 C2044 1.366 . S
C2044 C2043 1.366 . S
C2044 C2045 1.414 . S
C2044 C2047 1.499 . S
C2045 H2019 0.950 . S
C2045 C2044 1.414 . S
C2045 C2046 1.374 . S
C2046 H2020 0.950 . S
C2046 C2042 1.385 . S
C2046 C2045 1.374 . S
C2047 C2044 1.499 . S
C2047 C2048 1.373 . S
C2047 C2049 1.389 . S
C2048 H2021 0.950 . S
C2048 C2034 1.377 1_556 S
C2048 C2047 1.373 . S
C2049 C2033 1.377 1_556 S
C2049 C2047 1.389 . S
C2049 C2050 1.524 . S
C2050 C2049 1.524 . S
C2050 C2051 1.397 . S
C2050 C2055 1.363 . S
C2051 H2022 0.950 . S
C2051 C2050 1.397 . S
C2051 C2052 1.334 . S
C2052 H2023 0.950 . S
C2052 C2051 1.334 . S
C2052 C2053 1.287 . S
C2053 C2052 1.287 . S
C2053 C2054 1.524 . S
C2053 H2056 0.999 . S
C2054 H2024 0.950 . S
C2054 C2053 1.524 . S
C2054 C2055 1.415 . S
C2055 H2025 0.950 . S
C2055 C2050 1.363 . S
C2055 C2054 1.415 . S
H2056 C2053 0.999 . S
H2057 C2038 0.913 . S
H2058 C2076 0.951 . S
H2059 C2078 0.951 . S
H2060 C2080 0.950 . S
H2061 C2081 0.950 . S
H2062 C2083 0.950 . S
H2063 C2086 0.950 . S
H2064 C2087 0.950 . S
H2065 C2089 0.950 . S
H2066 C2090 0.950 . S
H2067 C2091 0.951 . S
H2068 C2093 0.951 . S
H2069 C2095 0.950 . S
H2070 C2096 0.950 . S
H2071 C2098 0.950 . S
H2072 C2101 0.950 . S
H2073 C2102 0.950 . S
H2074 C2104 0.950 . S
H2075 C2105 0.950 . S
C2076 H2058 0.951 . S
C2076 C2077 1.366 . S
C2076 C2078 1.388 . S
C2077 C2076 1.366 . S
C2077 C2081 1.385 . S
C2078 H2059 0.951 . S
C2078 C2076 1.388 . S
C2078 C2079 1.366 . S
C2079 C2078 1.366 . S
C2079 C2080 1.414 . S
C2079 C2082 1.499 . S
C2080 H2060 0.950 . S
C2080 C2079 1.414 . S
C2080 C2081 1.374 . S
C2081 H2061 0.950 . S
C2081 C2077 1.385 . S
C2081 C2080 1.374 . S
C2082 C2079 1.499 . S
C2082 C2083 1.373 . S
C2082 C2084 1.389 . S
C2083 H2062 0.950 . S
C2083 C2082 1.373 . S
C2083 C2099 1.377 . S
C2084 C2082 1.389 . S
C2084 C2085 1.524 . S
C2084 C2098 1.377 . S
C2085 C2084 1.524 . S
C2085 C2086 1.397 . S
C2085 C2090 1.363 . S
C2086 H2063 0.950 . S
C2086 C2085 1.397 . S
C2086 C2087 1.334 . S
C2087 H2064 0.950 . S
C2087 C2086 1.334 . S
C2087 C2088 1.287 . S
C2088 C2087 1.287 . S
C2088 C2089 1.524 . S
C2088 H2107 0.913 . S
C2089 H2065 0.950 . S
C2089 C2088 1.524 . S
C2089 C2090 1.415 . S
C2090 H2066 0.950 . S
C2090 C2085 1.363 . S
C2090 C2089 1.415 . S
C2091 H2067 0.951 . S
C2091 C2092 1.366 . S
C2091 C2093 1.388 . S
C2092 C2091 1.366 . S
C2092 C2096 1.385 . S
C2093 H2068 0.951 . S
C2093 C2091 1.388 . S
C2093 C2094 1.366 . S
C2094 C2093 1.366 . S
C2094 C2095 1.414 . S
C2094 C2097 1.499 . S
C2095 H2069 0.950 . S
C2095 C2094 1.414 . S
C2095 C2096 1.374 . S
C2096 H2070 0.950 . S
C2096 C2092 1.385 . S
C2096 C2095 1.374 . S
C2097 C2094 1.499 . S
C2097 C2098 1.373 . S
C2097 C2099 1.389 . S
C2098 H2071 0.950 . S
C2098 C2084 1.377 . S
C2098 C2097 1.373 . S
C2099 C2083 1.377 . S
C2099 C2097 1.389 . S
C2099 C2100 1.524 . S
C2100 C2099 1.524 . S
C2100 C2101 1.397 . S
C2100 C2105 1.363 . S
C2101 H2072 0.950 . S
C2101 C2100 1.397 . S
C2101 C2102 1.334 . S
C2102 H2073 0.950 . S
C2102 C2101 1.334 . S
C2102 C2103 1.287 . S
C2103 C2102 1.287 . S
C2103 C2104 1.524 . S
C2103 H2106 0.999 . S
C2104 H2074 0.950 . S
C2104 C2103 1.524 . S
C2104 C2105 1.415 . S
C2105 H2075 0.950 . S
C2105 C2100 1.363 . S
C2105 C2104 1.415 . S
H2106 C2103 0.999 . S
H2107 C2088 0.913 . S
H2108 C2126 0.951 . S
H2109 C2128 0.951 . S
H2110 C2130 0.950 . S
H2111 C2131 0.950 . S
H2112 C2133 0.950 . S
H2113 C2136 0.950 . S
H2114 C2137 0.950 . S
H2115 C2139 0.950 . S
H2116 C2140 0.950 . S
H2117 C2141 0.951 . S
H2118 C2143 0.951 . S
H2119 C2145 0.950 . S
H2120 C2146 0.950 . S
H2121 C2148 0.950 . S
H2122 C2151 0.950 . S
H2123 C2152 0.950 . S
H2124 C2154 0.950 . S
H2125 C2155 0.950 . S
C2126 H2108 0.951 . S
C2126 C2127 1.366 . S
C2126 C2128 1.388 . S
C2127 C2126 1.366 . S
C2127 C2131 1.385 . S
C2128 H2109 0.951 . S
C2128 C2126 1.388 . S
C2128 C2129 1.366 . S
C2129 C2128 1.366 . S
C2129 C2130 1.414 . S
C2129 C2132 1.499 . S
C2130 H2110 0.950 . S
C2130 C2129 1.414 . S
C2130 C2131 1.374 . S
C2131 H2111 0.950 . S
C2131 C2127 1.385 . S
C2131 C2130 1.374 . S
C2132 C2129 1.499 . S
C2132 C2133 1.373 . S
C2132 C2134 1.389 . S
C2133 H2112 0.950 . S
C2133 C2132 1.373 . S
C2133 C2149 1.377 . S
C2134 C2132 1.389 . S
C2134 C2135 1.524 . S
C2134 C2148 1.377 . S
C2135 C2134 1.524 . S
C2135 C2136 1.397 . S
C2135 C2140 1.363 . S
C2136 H2113 0.950 . S
C2136 C2135 1.397 . S
C2136 C2137 1.334 . S
C2137 H2114 0.950 . S
C2137 C2136 1.334 . S
C2137 C2138 1.287 . S
C2138 C2137 1.287 . S
C2138 C2139 1.524 . S
C2138 H2157 0.913 . S
C2139 H2115 0.950 . S
C2139 C2138 1.524 . S
C2139 C2140 1.415 . S
C2140 H2116 0.950 . S
C2140 C2135 1.363 . S
C2140 C2139 1.415 . S
C2141 H2117 0.951 . S
C2141 C2142 1.366 . S
C2141 C2143 1.388 . S
C2142 C2141 1.366 . S
C2142 C2146 1.385 . S
C2143 H2118 0.951 . S
C2143 C2141 1.388 . S
C2143 C2144 1.366 . S
C2144 C2143 1.366 . S
C2144 C2145 1.414 . S
C2144 C2147 1.499 . S
C2145 H2119 0.950 . S
C2145 C2144 1.414 . S
C2145 C2146 1.374 . S
C2146 H2120 0.950 . S
C2146 C2142 1.385 . S
C2146 C2145 1.374 . S
C2147 C2144 1.499 . S
C2147 C2148 1.373 . S
C2147 C2149 1.389 . S
C2148 H2121 0.950 . S
C2148 C2134 1.377 . S
C2148 C2147 1.373 . S
C2149 C2133 1.377 . S
C2149 C2147 1.389 . S
C2149 C2150 1.524 . S
C2150 C2149 1.524 . S
C2150 C2151 1.397 . S
C2150 C2155 1.363 . S
C2151 H2122 0.950 . S
C2151 C2150 1.397 . S
C2151 C2152 1.334 . S
C2152 H2123 0.950 . S
C2152 C2151 1.334 . S
C2152 C2153 1.287 . S
C2153 C2152 1.287 . S
C2153 C2154 1.524 . S
C2153 H2156 0.999 . S
C2154 H2124 0.950 . S
C2154 C2153 1.524 . S
C2154 C2155 1.415 . S
C2155 H2125 0.950 . S
C2155 C2150 1.363 . S
C2155 C2154 1.415 . S
H2156 C2153 0.999 . S
H2157 C2138 0.913 . S
H2158 C2176 0.951 . S
H2159 C2178 0.951 . S
H2160 C2180 0.950 . S
H2161 C2181 0.950 . S
H2162 C2183 0.950 . S
H2163 C2186 0.950 . S
H2164 C2187 0.950 . S
H2165 C2189 0.950 . S
H2166 C2190 0.950 . S
H2167 C2191 0.951 . S
H2168 C2193 0.951 . S
H2169 C2195 0.950 . S
H2170 C2196 0.950 . S
H2171 C2198 0.950 . S
H2172 C2201 0.950 . S
H2173 C2202 0.950 . S
H2174 C2204 0.950 . S
H2175 C2205 0.950 . S
C2176 H2158 0.951 . S
C2176 C2177 1.366 . S
C2176 C2178 1.388 . S
C2177 C2176 1.366 . S
C2177 C2181 1.385 . S
C2178 H2159 0.951 . S
C2178 C2176 1.388 . S
C2178 C2179 1.366 . S
C2179 C2178 1.366 . S
C2179 C2180 1.414 . S
C2179 C2182 1.499 . S
C2180 H2160 0.950 . S
C2180 C2179 1.414 . S
C2180 C2181 1.374 . S
C2181 H2161 0.950 . S
C2181 C2177 1.385 . S
C2181 C2180 1.374 . S
C2182 C2179 1.499 . S
C2182 C2183 1.373 . S
C2182 C2184 1.389 . S
C2183 H2162 0.950 . S
C2183 C2182 1.373 . S
C2183 C2199 1.377 . S
C2184 C2182 1.389 . S
C2184 C2185 1.524 . S
C2184 C2198 1.377 . S
C2185 C2184 1.524 . S
C2185 C2186 1.397 . S
C2185 C2190 1.363 . S
C2186 H2163 0.950 . S
C2186 C2185 1.397 . S
C2186 C2187 1.334 . S
C2187 H2164 0.950 . S
C2187 C2186 1.334 . S
C2187 C2188 1.287 . S
C2188 C2187 1.287 . S
C2188 C2189 1.524 . S
C2188 H2207 0.913 . S
C2189 H2165 0.950 . S
C2189 C2188 1.524 . S
C2189 C2190 1.415 . S
C2190 H2166 0.950 . S
C2190 C2185 1.363 . S
C2190 C2189 1.415 . S
C2191 H2167 0.951 . S
C2191 C2192 1.366 . S
C2191 C2193 1.388 . S
C2192 C2191 1.366 . S
C2192 C2196 1.385 . S
C2193 H2168 0.951 . S
C2193 C2191 1.388 . S
C2193 C2194 1.366 . S
C2194 C2193 1.366 . S
C2194 C2195 1.414 . S
C2194 C2197 1.499 . S
C2195 H2169 0.950 . S
C2195 C2194 1.414 . S
C2195 C2196 1.374 . S
C2196 H2170 0.950 . S
C2196 C2192 1.385 . S
C2196 C2195 1.374 . S
C2197 C2194 1.499 . S
C2197 C2198 1.373 . S
C2197 C2199 1.389 . S
C2198 H2171 0.950 . S
C2198 C2184 1.377 . S
C2198 C2197 1.373 . S
C2199 C2183 1.377 . S
C2199 C2197 1.389 . S
C2199 C2200 1.524 . S
C2200 C2199 1.524 . S
C2200 C2201 1.397 . S
C2200 C2205 1.363 . S
C2201 H2172 0.950 . S
C2201 C2200 1.397 . S
C2201 C2202 1.334 . S
C2202 H2173 0.950 . S
C2202 C2201 1.334 . S
C2202 C2203 1.287 . S
C2203 C2202 1.287 . S
C2203 C2204 1.524 . S
C2203 H2206 0.999 . S
C2204 H2174 0.950 . S
C2204 C2203 1.524 . S
C2204 C2205 1.415 . S
C2205 H2175 0.950 . S
C2205 C2200 1.363 . S
C2205 C2204 1.415 . S
H2206 C2203 0.999 . S
H2207 C2188 0.913 . S
H2208 C2226 0.951 . S
H2209 C2228 0.951 1_565 S
H2210 C2230 0.950 . S
H2211 C2231 0.950 . S
H2212 C2233 0.950 . S
H2213 C2236 0.950 . S
H2214 C2237 0.950 . S
H2215 C2239 0.950 . S
H2216 C2240 0.950 . S
H2217 C2241 0.951 . S
H2218 C2243 0.951 1_545 S
H2219 C2245 0.950 . S
H2220 C2246 0.950 . S
H2221 C2248 0.950 . S
H2222 C2251 0.950 . S
H2223 C2252 0.950 . S
H2224 C2254 0.950 . S
H2225 C2255 0.950 . S
C2226 H2208 0.951 . S
C2226 C2227 1.366 . S
C2226 C2228 1.388 . S
C2227 C2226 1.366 . S
C2227 C2231 1.385 . S
C2228 H2209 0.951 1_545 S
C2228 C2226 1.388 . S
C2228 C2229 1.366 . S
C2229 C2228 1.366 . S
C2229 C2230 1.414 . S
C2229 C2232 1.499 . S
C2230 H2210 0.950 . S
C2230 C2229 1.414 . S
C2230 C2231 1.374 . S
C2231 H2211 0.950 . S
C2231 C2227 1.385 . S
C2231 C2230 1.374 . S
C2232 C2229 1.499 . S
C2232 C2233 1.373 . S
C2232 C2234 1.389 1_545 S
C2233 H2212 0.950 . S
C2233 C2232 1.373 . S
C2233 C2249 1.377 1_455 S
C2234 C2232 1.389 1_565 S
C2234 C2235 1.524 . S
C2234 C2248 1.377 1_455 S
C2235 C2234 1.524 . S
C2235 C2236 1.397 . S
C2235 C2240 1.363 . S
C2236 H2213 0.950 . S
C2236 C2235 1.397 . S
C2236 C2237 1.334 . S
C2237 H2214 0.950 . S
C2237 C2236 1.334 . S
C2237 C2238 1.287 . S
C2238 C2237 1.287 . S
C2238 C2239 1.524 . S
C2238 H2257 0.913 . S
C2239 H2215 0.950 . S
C2239 C2238 1.524 . S
C2239 C2240 1.415 . S
C2240 H2216 0.950 . S
C2240 C2235 1.363 . S
C2240 C2239 1.415 . S
C2241 H2217 0.951 . S
C2241 C2242 1.366 . S
C2241 C2243 1.388 . S
C2242 C2241 1.366 . S
C2242 C2246 1.385 . S
C2243 H2218 0.951 1_565 S
C2243 C2241 1.388 . S
C2243 C2244 1.366 . S
C2244 C2243 1.366 . S
C2244 C2245 1.414 . S
C2244 C2247 1.499 . S
C2245 H2219 0.950 . S
C2245 C2244 1.414 . S
C2245 C2246 1.374 . S
C2246 H2220 0.950 . S
C2246 C2242 1.385 . S
C2246 C2245 1.374 . S
C2247 C2244 1.499 . S
C2247 C2248 1.373 . S
C2247 C2249 1.389 1_565 S
C2248 H2221 0.950 . S
C2248 C2234 1.377 1_655 S
C2248 C2247 1.373 . S
C2249 C2233 1.377 1_655 S
C2249 C2247 1.389 1_545 S
C2249 C2250 1.524 . S
C2250 C2249 1.524 . S
C2250 C2251 1.397 . S
C2250 C2255 1.363 . S
C2251 H2222 0.950 . S
C2251 C2250 1.397 . S
C2251 C2252 1.334 . S
C2252 H2223 0.950 . S
C2252 C2251 1.334 . S
C2252 C2253 1.287 . S
C2253 C2252 1.287 . S
C2253 C2254 1.524 . S
C2253 H2256 0.999 . S
C2254 H2224 0.950 . S
C2254 C2253 1.524 . S
C2254 C2255 1.415 . S
C2255 H2225 0.950 . S
C2255 C2250 1.363 . S
C2255 C2254 1.415 . S
H2256 C2253 0.999 . S
H2257 C2238 0.913 . S
H2258 C2276 0.951 . S
H2259 C2278 0.951 . S
H2260 C2280 0.950 . S
H2261 C2281 0.950 . S
H2262 C2283 0.950 . S
H2263 C2286 0.950 . S
H2264 C2287 0.950 . S
H2265 C2289 0.950 . S
H2266 C2290 0.950 . S
H2267 C2291 0.951 . S
H2268 C2293 0.951 . S
H2269 C2295 0.950 . S
H2270 C2296 0.950 . S
H2271 C2298 0.950 . S
H2272 C2301 0.950 . S
H2273 C2302 0.950 . S
H2274 C2304 0.950 . S
H2275 C2305 0.950 . S
C2276 H2258 0.951 . S
C2276 C2277 1.366 . S
C2276 C2278 1.388 . S
C2277 C2276 1.366 . S
C2277 C2281 1.385 . S
C2278 H2259 0.951 . S
C2278 C2276 1.388 . S
C2278 C2279 1.366 . S
C2279 C2278 1.366 . S
C2279 C2280 1.414 . S
C2279 C2282 1.499 . S
C2280 H2260 0.950 . S
C2280 C2279 1.414 . S
C2280 C2281 1.374 . S
C2281 H2261 0.950 . S
C2281 C2277 1.385 . S
C2281 C2280 1.374 . S
C2282 C2279 1.499 . S
C2282 C2283 1.373 1_455 S
C2282 C2284 1.389 . S
C2283 H2262 0.950 . S
C2283 C2282 1.373 1_655 S
C2283 C2299 1.377 . S
C2284 C2282 1.389 . S
C2284 C2285 1.524 . S
C2284 C2298 1.377 . S
C2285 C2284 1.524 . S
C2285 C2286 1.397 . S
C2285 C2290 1.363 . S
C2286 H2263 0.950 . S
C2286 C2285 1.397 . S
C2286 C2287 1.334 . S
C2287 H2264 0.950 . S
C2287 C2286 1.334 . S
C2287 C2288 1.287 . S
C2288 C2287 1.287 . S
C2288 C2289 1.524 . S
C2288 H2307 0.913 . S
C2289 H2265 0.950 . S
C2289 C2288 1.524 . S
C2289 C2290 1.415 . S
C2290 H2266 0.950 . S
C2290 C2285 1.363 . S
C2290 C2289 1.415 . S
C2291 H2267 0.951 . S
C2291 C2292 1.366 . S
C2291 C2293 1.388 . S
C2292 C2291 1.366 . S
C2292 C2296 1.385 . S
C2293 H2268 0.951 . S
C2293 C2291 1.388 . S
C2293 C2294 1.366 . S
C2294 C2293 1.366 . S
C2294 C2295 1.414 . S
C2294 C2297 1.499 . S
C2295 H2269 0.950 . S
C2295 C2294 1.414 . S
C2295 C2296 1.374 . S
C2296 H2270 0.950 . S
C2296 C2292 1.385 . S
C2296 C2295 1.374 . S
C2297 C2294 1.499 . S
C2297 C2298 1.373 1_655 S
C2297 C2299 1.389 . S
C2298 H2271 0.950 . S
C2298 C2284 1.377 . S
C2298 C2297 1.373 1_455 S
C2299 C2283 1.377 . S
C2299 C2297 1.389 . S
C2299 C2300 1.524 . S
C2300 C2299 1.524 . S
C2300 C2301 1.397 . S
C2300 C2305 1.363 . S
C2301 H2272 0.950 . S
C2301 C2300 1.397 . S
C2301 C2302 1.334 . S
C2302 H2273 0.950 . S
C2302 C2301 1.334 . S
C2302 C2303 1.287 . S
C2303 C2302 1.287 . S
C2303 C2304 1.524 . S
C2303 H2306 0.999 . S
C2304 H2274 0.950 . S
C2304 C2303 1.524 . S
C2304 C2305 1.415 . S
C2305 H2275 0.950 . S
C2305 C2300 1.363 . S
C2305 C2304 1.415 . S
H2306 C2303 0.999 . S
H2307 C2288 0.913 . S
H2308 C2326 0.951 . S
H2309 C2328 0.951 . S
H2310 C2330 0.950 . S
H2311 C2331 0.950 . S
H2312 C2333 0.950 . S
H2313 C2336 0.950 . S
H2314 C2337 0.950 . S
H2315 C2339 0.950 . S
H2316 C2340 0.950 . S
H2317 C2341 0.951 . S
H2318 C2343 0.951 . S
H2319 C2345 0.950 . S
H2320 C2346 0.950 . S
H2321 C2348 0.950 . S
H2322 C2351 0.950 . S
H2323 C2352 0.950 . S
H2324 C2354 0.950 . S
H2325 C2355 0.950 . S
C2326 H2308 0.951 . S
C2326 C2327 1.366 . S
C2326 C2328 1.388 . S
C2327 C2326 1.366 . S
C2327 C2331 1.385 . S
C2328 H2309 0.951 . S
C2328 C2326 1.388 . S
C2328 C2329 1.366 . S
C2329 C2328 1.366 . S
C2329 C2330 1.414 . S
C2329 C2332 1.499 . S
C2330 H2310 0.950 . S
C2330 C2329 1.414 . S
C2330 C2331 1.374 . S
C2331 H2311 0.950 . S
C2331 C2327 1.385 . S
C2331 C2330 1.374 . S
C2332 C2329 1.499 . S
C2332 C2333 1.373 . S
C2332 C2334 1.389 . S
C2333 H2312 0.950 . S
C2333 C2332 1.373 . S
C2333 C2349 1.377 . S
C2334 C2332 1.389 . S
C2334 C2335 1.524 . S
C2334 C2348 1.377 . S
C2335 C2334 1.524 . S
C2335 C2336 1.397 . S
C2335 C2340 1.363 . S
C2336 H2313 0.950 . S
C2336 C2335 1.397 . S
C2336 C2337 1.334 . S
C2337 H2314 0.950 . S
C2337 C2336 1.334 . S
C2337 C2338 1.287 . S
C2338 C2337 1.287 . S
C2338 C2339 1.524 . S
C2338 H2357 0.913 . S
C2339 H2315 0.950 . S
C2339 C2338 1.524 . S
C2339 C2340 1.415 . S
C2340 H2316 0.950 . S
C2340 C2335 1.363 . S
C2340 C2339 1.415 . S
C2341 H2317 0.951 . S
C2341 C2342 1.366 . S
C2341 C2343 1.388 . S
C2342 C2341 1.366 . S
C2342 C2346 1.385 . S
C2343 H2318 0.951 . S
C2343 C2341 1.388 . S
C2343 C2344 1.366 . S
C2344 C2343 1.366 . S
C2344 C2345 1.414 . S
C2344 C2347 1.499 . S
C2345 H2319 0.950 . S
C2345 C2344 1.414 . S
C2345 C2346 1.374 . S
C2346 H2320 0.950 . S
C2346 C2342 1.385 . S
C2346 C2345 1.374 . S
C2347 C2344 1.499 . S
C2347 C2348 1.373 . S
C2347 C2349 1.389 . S
C2348 H2321 0.950 . S
C2348 C2334 1.377 . S
C2348 C2347 1.373 . S
C2349 C2333 1.377 . S
C2349 C2347 1.389 . S
C2349 C2350 1.524 . S
C2350 C2349 1.524 . S
C2350 C2351 1.397 . S
C2350 C2355 1.363 . S
C2351 H2322 0.950 . S
C2351 C2350 1.397 . S
C2351 C2352 1.334 . S
C2352 H2323 0.950 . S
C2352 C2351 1.334 . S
C2352 C2353 1.287 . S
C2353 C2352 1.287 . S
C2353 C2354 1.524 . S
C2353 H2356 0.999 . S
C2354 H2324 0.950 . S
C2354 C2353 1.524 . S
C2354 C2355 1.415 . S
C2355 H2325 0.950 . S
C2355 C2350 1.363 . S
C2355 C2354 1.415 . S
H2356 C2353 0.999 . S
H2357 C2338 0.913 . S
H2358 C2376 0.951 . S
H2359 C2378 0.951 . S
H2360 C2380 0.950 . S
H2361 C2381 0.950 . S
H2362 C2383 0.950 . S
H2363 C2386 0.950 . S
H2364 C2387 0.950 . S
H2365 C2389 0.950 . S
H2366 C2390 0.950 1_565 S
H2367 C2391 0.951 . S
H2368 C2393 0.951 . S
H2369 C2395 0.950 . S
H2370 C2396 0.950 . S
H2371 C2398 0.950 . S
H2372 C2401 0.950 . S
H2373 C2402 0.950 . S
H2374 C2404 0.950 . S
H2375 C2405 0.950 1_545 S
C2376 H2358 0.951 . S
C2376 C2377 1.366 . S
C2376 C2378 1.388 . S
C2377 C2376 1.366 . S
C2377 C2381 1.385 . S
C2378 H2359 0.951 . S
C2378 C2376 1.388 . S
C2378 C2379 1.366 . S
C2379 C2378 1.366 . S
C2379 C2380 1.414 . S
C2379 C2382 1.499 . S
C2380 H2360 0.950 . S
C2380 C2379 1.414 . S
C2380 C2381 1.374 . S
C2381 H2361 0.950 . S
C2381 C2377 1.385 . S
C2381 C2380 1.374 . S
C2382 C2379 1.499 . S
C2382 C2383 1.373 . S
C2382 C2384 1.389 . S
C2383 H2362 0.950 . S
C2383 C2382 1.373 . S
C2383 C2399 1.377 1_545 S
C2384 C2382 1.389 . S
C2384 C2385 1.524 . S
C2384 C2398 1.377 1_545 S
C2385 C2384 1.524 . S
C2385 C2386 1.397 . S
C2385 C2390 1.363 . S
C2386 H2363 0.950 . S
C2386 C2385 1.397 . S
C2386 C2387 1.334 . S
C2387 H2364 0.950 . S
C2387 C2386 1.334 . S
C2387 C2388 1.287 . S
C2388 C2387 1.287 . S
C2388 C2389 1.524 . S
C2388 H2407 0.913 . S
C2389 H2365 0.950 . S
C2389 C2388 1.524 . S
C2389 C2390 1.415 . S
C2390 H2366 0.950 1_545 S
C2390 C2385 1.363 . S
C2390 C2389 1.415 . S
C2391 H2367 0.951 . S
C2391 C2392 1.366 . S
C2391 C2393 1.388 . S
C2392 C2391 1.366 . S
C2392 C2396 1.385 . S
C2393 H2368 0.951 . S
C2393 C2391 1.388 . S
C2393 C2394 1.366 . S
C2394 C2393 1.366 . S
C2394 C2395 1.414 . S
C2394 C2397 1.499 . S
C2395 H2369 0.950 . S
C2395 C2394 1.414 . S
C2395 C2396 1.374 . S
C2396 H2370 0.950 . S
C2396 C2392 1.385 . S
C2396 C2395 1.374 . S
C2397 C2394 1.499 . S
C2397 C2398 1.373 . S
C2397 C2399 1.389 . S
C2398 H2371 0.950 . S
C2398 C2384 1.377 1_565 S
C2398 C2397 1.373 . S
C2399 C2383 1.377 1_565 S
C2399 C2397 1.389 . S
C2399 C2400 1.524 . S
C2400 C2399 1.524 . S
C2400 C2401 1.397 . S
C2400 C2405 1.363 . S
C2401 H2372 0.950 . S
C2401 C2400 1.397 . S
C2401 C2402 1.334 . S
C2402 H2373 0.950 . S
C2402 C2401 1.334 . S
C2402 C2403 1.287 . S
C2403 C2402 1.287 . S
C2403 C2404 1.524 . S
C2403 H2406 0.999 . S
C2404 H2374 0.950 . S
C2404 C2403 1.524 . S
C2404 C2405 1.415 . S
C2405 H2375 0.950 1_565 S
C2405 C2400 1.363 . S
C2405 C2404 1.415 . S
H2406 C2403 0.999 . S
H2407 C2388 0.913 . S
H2408 C2426 0.951 . S
H2409 C2428 0.951 . S
H2410 C2430 0.950 . S
H2411 C2431 0.950 . S
H2412 C2433 0.950 . S
H2413 C2436 0.950 . S
H2414 C2437 0.950 . S
H2415 C2439 0.950 . S
H2416 C2440 0.950 . S
H2417 C2441 0.951 . S
H2418 C2443 0.951 . S
H2419 C2445 0.950 . S
H2420 C2446 0.950 . S
H2421 C2448 0.950 . S
H2422 C2451 0.950 . S
H2423 C2452 0.950 . S
H2424 C2454 0.950 . S
H2425 C2455 0.950 . S
C2426 H2408 0.951 . S
C2426 C2427 1.366 . S
C2426 C2428 1.388 . S
C2427 C2426 1.366 . S
C2427 C2431 1.385 . S
C2428 H2409 0.951 . S
C2428 C2426 1.388 . S
C2428 C2429 1.366 . S
C2429 C2428 1.366 . S
C2429 C2430 1.414 . S
C2429 C2432 1.499 . S
C2430 H2410 0.950 . S
C2430 C2429 1.414 . S
C2430 C2431 1.374 . S
C2431 H2411 0.950 . S
C2431 C2427 1.385 . S
C2431 C2430 1.374 . S
C2432 C2429 1.499 . S
C2432 C2433 1.373 . S
C2432 C2434 1.389 . S
C2433 H2412 0.950 . S
C2433 C2432 1.373 . S
C2433 C2449 1.377 1_455 S
C2434 C2432 1.389 . S
C2434 C2435 1.524 . S
C2434 C2448 1.377 1_455 S
C2435 C2434 1.524 . S
C2435 C2436 1.397 . S
C2435 C2440 1.363 1_455 S
C2436 H2413 0.950 . S
C2436 C2435 1.397 . S
C2436 C2437 1.334 . S
C2437 H2414 0.950 . S
C2437 C2436 1.334 . S
C2437 C2438 1.287 . S
C2438 C2437 1.287 . S
C2438 C2439 1.524 1_455 S
C2438 H2457 0.913 . S
C2439 H2415 0.950 . S
C2439 C2438 1.524 1_655 S
C2439 C2440 1.415 . S
C2440 H2416 0.950 . S
C2440 C2435 1.363 1_655 S
C2440 C2439 1.415 . S
C2441 H2417 0.951 . S
C2441 C2442 1.366 . S
C2441 C2443 1.388 . S
C2442 C2441 1.366 . S
C2442 C2446 1.385 . S
C2443 H2418 0.951 . S
C2443 C2441 1.388 . S
C2443 C2444 1.366 . S
C2444 C2443 1.366 . S
C2444 C2445 1.414 . S
C2444 C2447 1.499 . S
C2445 H2419 0.950 . S
C2445 C2444 1.414 . S
C2445 C2446 1.374 . S
C2446 H2420 0.950 . S
C2446 C2442 1.385 . S
C2446 C2445 1.374 . S
C2447 C2444 1.499 . S
C2447 C2448 1.373 . S
C2447 C2449 1.389 . S
C2448 H2421 0.950 . S
C2448 C2434 1.377 1_655 S
C2448 C2447 1.373 . S
C2449 C2433 1.377 1_655 S
C2449 C2447 1.389 . S
C2449 C2450 1.524 . S
C2450 C2449 1.524 . S
C2450 C2451 1.397 . S
C2450 C2455 1.363 1_655 S
C2451 H2422 0.950 . S
C2451 C2450 1.397 . S
C2451 C2452 1.334 . S
C2452 H2423 0.950 . S
C2452 C2451 1.334 . S
C2452 C2453 1.287 . S
C2453 C2452 1.287 . S
C2453 C2454 1.524 1_655 S
C2453 H2456 0.999 . S
C2454 H2424 0.950 . S
C2454 C2453 1.524 1_455 S
C2454 C2455 1.415 . S
C2455 H2425 0.950 . S
C2455 C2450 1.363 1_455 S
C2455 C2454 1.415 . S
H2456 C2453 0.999 . S
H2457 C2438 0.913 . S
H2458 C2476 0.951 . S
H2459 C2478 0.951 . S
H2460 C2480 0.950 . S
H2461 C2481 0.950 . S
H2462 C2483 0.950 . S
H2463 C2486 0.950 . S
H2464 C2487 0.950 . S
H2465 C2489 0.950 . S
H2466 C2490 0.950 . S
H2467 C2491 0.951 . S
H2468 C2493 0.951 . S
H2469 C2495 0.950 . S
H2470 C2496 0.950 . S
H2471 C2498 0.950 . S
H2472 C2501 0.950 . S
H2473 C2502 0.950 . S
H2474 C2504 0.950 . S
H2475 C2505 0.950 . S
C2476 H2458 0.951 . S
C2476 C2477 1.366 . S
C2476 C2478 1.388 . S
C2477 C2476 1.366 . S
C2477 C2481 1.385 . S
C2478 H2459 0.951 . S
C2478 C2476 1.388 . S
C2478 C2479 1.366 . S
C2479 C2478 1.366 . S
C2479 C2480 1.414 . S
C2479 C2482 1.499 . S
C2480 H2460 0.950 . S
C2480 C2479 1.414 . S
C2480 C2481 1.374 . S
C2481 H2461 0.950 . S
C2481 C2477 1.385 . S
C2481 C2480 1.374 . S
C2482 C2479 1.499 . S
C2482 C2483 1.373 . S
C2482 C2484 1.389 . S
C2483 H2462 0.950 . S
C2483 C2482 1.373 . S
C2483 C2499 1.377 . S
C2484 C2482 1.389 . S
C2484 C2485 1.524 . S
C2484 C2498 1.377 . S
C2485 C2484 1.524 . S
C2485 C2486 1.397 . S
C2485 C2490 1.363 . S
C2486 H2463 0.950 . S
C2486 C2485 1.397 . S
C2486 C2487 1.334 . S
C2487 H2464 0.950 . S
C2487 C2486 1.334 . S
C2487 C2488 1.287 . S
C2488 C2487 1.287 . S
C2488 C2489 1.524 . S
C2488 H2507 0.913 . S
C2489 H2465 0.950 . S
C2489 C2488 1.524 . S
C2489 C2490 1.415 . S
C2490 H2466 0.950 . S
C2490 C2485 1.363 . S
C2490 C2489 1.415 . S
C2491 H2467 0.951 . S
C2491 C2492 1.366 . S
C2491 C2493 1.388 . S
C2492 C2491 1.366 . S
C2492 C2496 1.385 . S
C2493 H2468 0.951 . S
C2493 C2491 1.388 . S
C2493 C2494 1.366 . S
C2494 C2493 1.366 . S
C2494 C2495 1.414 . S
C2494 C2497 1.499 . S
C2495 H2469 0.950 . S
C2495 C2494 1.414 . S
C2495 C2496 1.374 . S
C2496 H2470 0.950 . S
C2496 C2492 1.385 . S
C2496 C2495 1.374 . S
C2497 C2494 1.499 . S
C2497 C2498 1.373 . S
C2497 C2499 1.389 . S
C2498 H2471 0.950 . S
C2498 C2484 1.377 . S
C2498 C2497 1.373 . S
C2499 C2483 1.377 . S
C2499 C2497 1.389 . S
C2499 C2500 1.524 . S
C2500 C2499 1.524 . S
C2500 C2501 1.397 . S
C2500 C2505 1.363 . S
C2501 H2472 0.950 . S
C2501 C2500 1.397 . S
C2501 C2502 1.334 . S
C2502 H2473 0.950 . S
C2502 C2501 1.334 . S
C2502 C2503 1.287 . S
C2503 C2502 1.287 . S
C2503 C2504 1.524 . S
C2503 H2506 0.999 . S
C2504 H2474 0.950 . S
C2504 C2503 1.524 . S
C2504 C2505 1.415 . S
C2505 H2475 0.950 . S
C2505 C2500 1.363 . S
C2505 C2504 1.415 . S
H2506 C2503 0.999 . S
H2507 C2488 0.913 . S
H2508 C2526 0.951 . S
H2509 C2528 0.951 . S
H2510 C2530 0.950 1_545 S
H2511 C2531 0.950 . S
H2512 C2533 0.950 . S
H2513 C2536 0.950 . S
H2514 C2537 0.950 . S
H2515 C2539 0.950 . S
H2516 C2540 0.950 . S
H2517 C2541 0.951 . S
H2518 C2543 0.951 . S
H2519 C2545 0.950 1_565 S
H2520 C2546 0.950 . S
H2521 C2548 0.950 . S
H2522 C2551 0.950 . S
H2523 C2552 0.950 . S
H2524 C2554 0.950 . S
H2525 C2555 0.950 . S
C2526 H2508 0.951 . S
C2526 C2527 1.366 . S
C2526 C2528 1.388 . S
C2527 C2526 1.366 . S
C2527 C2531 1.385 . S
C2528 H2509 0.951 . S
C2528 C2526 1.388 . S
C2528 C2529 1.366 . S
C2529 C2528 1.366 . S
C2529 C2530 1.414 . S
C2529 C2532 1.499 . S
C2530 H2510 0.950 1_565 S
C2530 C2529 1.414 . S
C2530 C2531 1.374 . S
C2531 H2511 0.950 . S
C2531 C2527 1.385 . S
C2531 C2530 1.374 . S
C2532 C2529 1.499 . S
C2532 C2533 1.373 1_565 S
C2532 C2534 1.389 . S
C2533 H2512 0.950 . S
C2533 C2532 1.373 1_545 S
C2533 C2549 1.377 . S
C2534 C2532 1.389 . S
C2534 C2535 1.524 . S
C2534 C2548 1.377 . S
C2535 C2534 1.524 . S
C2535 C2536 1.397 . S
C2535 C2540 1.363 . S
C2536 H2513 0.950 . S
C2536 C2535 1.397 . S
C2536 C2537 1.334 . S
C2537 H2514 0.950 . S
C2537 C2536 1.334 . S
C2537 C2538 1.287 . S
C2538 C2537 1.287 . S
C2538 C2539 1.524 . S
C2538 H2557 0.913 . S
C2539 H2515 0.950 . S
C2539 C2538 1.524 . S
C2539 C2540 1.415 . S
C2540 H2516 0.950 . S
C2540 C2535 1.363 . S
C2540 C2539 1.415 . S
C2541 H2517 0.951 . S
C2541 C2542 1.366 . S
C2541 C2543 1.388 . S
C2542 C2541 1.366 . S
C2542 C2546 1.385 . S
C2543 H2518 0.951 . S
C2543 C2541 1.388 . S
C2543 C2544 1.366 . S
C2544 C2543 1.366 . S
C2544 C2545 1.414 . S
C2544 C2547 1.499 . S
C2545 H2519 0.950 1_545 S
C2545 C2544 1.414 . S
C2545 C2546 1.374 . S
C2546 H2520 0.950 . S
C2546 C2542 1.385 . S
C2546 C2545 1.374 . S
C2547 C2544 1.499 . S
C2547 C2548 1.373 1_545 S
C2547 C2549 1.389 . S
C2548 H2521 0.950 . S
C2548 C2534 1.377 . S
C2548 C2547 1.373 1_565 S
C2549 C2533 1.377 . S
C2549 C2547 1.389 . S
C2549 C2550 1.524 . S
C2550 C2549 1.524 . S
C2550 C2551 1.397 . S
C2550 C2555 1.363 . S
C2551 H2522 0.950 . S
C2551 C2550 1.397 . S
C2551 C2552 1.334 . S
C2552 H2523 0.950 . S
C2552 C2551 1.334 . S
C2552 C2553 1.287 . S
C2553 C2552 1.287 . S
C2553 C2554 1.524 . S
C2553 H2556 0.999 . S
C2554 H2524 0.950 . S
C2554 C2553 1.524 . S
C2554 C2555 1.415 . S
C2555 H2525 0.950 . S
C2555 C2550 1.363 . S
C2555 C2554 1.415 . S
H2556 C2553 0.999 . S
H2557 C2538 0.913 . S
H2558 C2576 0.951 . S
H2559 C2578 0.951 . S
H2560 C2580 0.950 1_655 S
H2561 C2581 0.950 . S
H2562 C2583 0.950 . S
H2563 C2586 0.950 . S
H2564 C2587 0.950 . S
H2565 C2589 0.950 1_565 S
H2566 C2590 0.950 . S
H2567 C2591 0.951 . S
H2568 C2593 0.951 . S
H2569 C2595 0.950 1_455 S
H2570 C2596 0.950 . S
H2571 C2598 0.950 . S
H2572 C2601 0.950 . S
H2573 C2602 0.950 . S
H2574 C2604 0.950 1_545 S
H2575 C2605 0.950 . S
C2576 H2558 0.951 . S
C2576 C2577 1.366 . S
C2576 C2578 1.388 . S
C2577 C2576 1.366 . S
C2577 C2581 1.385 . S
C2578 H2559 0.951 . S
C2578 C2576 1.388 . S
C2578 C2579 1.366 . S
C2579 C2578 1.366 . S
C2579 C2580 1.414 . S
C2579 C2582 1.499 . S
C2580 H2560 0.950 1_455 S
C2580 C2579 1.414 . S
C2580 C2581 1.374 . S
C2581 H2561 0.950 . S
C2581 C2577 1.385 . S
C2581 C2580 1.374 . S
C2582 C2579 1.499 . S
C2582 C2583 1.373 1_455 S
C2582 C2584 1.389 . S
C2583 H2562 0.950 . S
C2583 C2582 1.373 1_655 S
C2583 C2599 1.377 1_545 S
C2584 C2582 1.389 . S
C2584 C2585 1.524 . S
C2584 C2598 1.377 1_545 S
C2585 C2584 1.524 . S
C2585 C2586 1.397 . S
C2585 C2590 1.363 1_545 S
C2586 H2563 0.950 . S
C2586 C2585 1.397 . S
C2586 C2587 1.334 . S
C2587 H2564 0.950 . S
C2587 C2586 1.334 . S
C2587 C2588 1.287 . S
C2588 C2587 1.287 . S
C2588 C2589 1.524 . S
C2588 H2607 0.913 . S
C2589 H2565 0.950 1_545 S
C2589 C2588 1.524 . S
C2589 C2590 1.415 1_545 S
C2590 H2566 0.950 . S
C2590 C2585 1.363 1_565 S
C2590 C2589 1.415 1_565 S
C2591 H2567 0.951 . S
C2591 C2592 1.366 . S
C2591 C2593 1.388 . S
C2592 C2591 1.366 . S
C2592 C2596 1.385 . S
C2593 H2568 0.951 . S
C2593 C2591 1.388 . S
C2593 C2594 1.366 . S
C2594 C2593 1.366 . S
C2594 C2595 1.414 . S
C2594 C2597 1.499 . S
C2595 H2569 0.950 1_655 S
C2595 C2594 1.414 . S
C2595 C2596 1.374 . S
C2596 H2570 0.950 . S
C2596 C2592 1.385 . S
C2596 C2595 1.374 . S
C2597 C2594 1.499 . S
C2597 C2598 1.373 1_655 S
C2597 C2599 1.389 . S
C2598 H2571 0.950 . S
C2598 C2584 1.377 1_565 S
C2598 C2597 1.373 1_455 S
C2599 C2583 1.377 1_565 S
C2599 C2597 1.389 . S
C2599 C2600 1.524 . S
C2600 C2599 1.524 . S
C2600 C2601 1.397 . S
C2600 C2605 1.363 1_565 S
C2601 H2572 0.950 . S
C2601 C2600 1.397 . S
C2601 C2602 1.334 . S
C2602 H2573 0.950 . S
C2602 C2601 1.334 . S
C2602 C2603 1.287 . S
C2603 C2602 1.287 . S
C2603 C2604 1.524 . S
C2603 H2606 0.999 . S
C2604 H2574 0.950 1_565 S
C2604 C2603 1.524 . S
C2604 C2605 1.415 1_565 S
C2605 H2575 0.950 . S
C2605 C2600 1.363 1_545 S
C2605 C2604 1.415 1_545 S
H2606 C2603 0.999 . S
H2607 C2588 0.913 . S
H2608 C2626 0.951 1_545 S
H2609 C2628 0.951 1_545 S
H2610 C2630 0.950 . S
H2611 C2631 0.950 . S
H2612 C2633 0.950 . S
H2613 C2636 0.950 1_565 S
H2614 C2637 0.950 . S
H2615 C2639 0.950 . S
H2616 C2640 0.950 . S
H2617 C2641 0.951 1_565 S
H2618 C2643 0.951 1_565 S
H2619 C2645 0.950 . S
H2620 C2646 0.950 . S
H2621 C2648 0.950 . S
H2622 C2651 0.950 1_545 S
H2623 C2652 0.950 . S
H2624 C2654 0.950 . S
H2625 C2655 0.950 . S
C2626 H2608 0.951 1_565 S
C2626 C2627 1.366 . S
C2626 C2628 1.388 . S
C2627 C2626 1.366 . S
C2627 C2631 1.385 . S
C2628 H2609 0.951 1_565 S
C2628 C2626 1.388 . S
C2628 C2629 1.366 . S
C2629 C2628 1.366 . S
C2629 C2630 1.414 . S
C2629 C2632 1.499 . S
C2630 H2610 0.950 . S
C2630 C2629 1.414 . S
C2630 C2631 1.374 . S
C2631 H2611 0.950 . S
C2631 C2627 1.385 . S
C2631 C2630 1.374 . S
C2632 C2629 1.499 . S
C2632 C2633 1.373 . S
C2632 C2634 1.389 1_565 S
C2633 H2612 0.950 . S
C2633 C2632 1.373 . S
C2633 C2649 1.377 . S
C2634 C2632 1.389 1_545 S
C2634 C2635 1.524 . S
C2634 C2648 1.377 . S
C2635 C2634 1.524 . S
C2635 C2636 1.397 . S
C2635 C2640 1.363 . S
C2636 H2613 0.950 1_545 S
C2636 C2635 1.397 . S
C2636 C2637 1.334 . S
C2637 H2614 0.950 . S
C2637 C2636 1.334 . S
C2637 C2638 1.287 . S
C2638 C2637 1.287 . S
C2638 C2639 1.524 . S
C2638 H2657 0.913 . S
C2639 H2615 0.950 . S
C2639 C2638 1.524 . S
C2639 C2640 1.415 . S
C2640 H2616 0.950 . S
C2640 C2635 1.363 . S
C2640 C2639 1.415 . S
C2641 H2617 0.951 1_545 S
C2641 C2642 1.366 . S
C2641 C2643 1.388 . S
C2642 C2641 1.366 . S
C2642 C2646 1.385 . S
C2643 H2618 0.951 1_545 S
C2643 C2641 1.388 . S
C2643 C2644 1.366 . S
C2644 C2643 1.366 . S
C2644 C2645 1.414 . S
C2644 C2647 1.499 . S
C2645 H2619 0.950 . S
C2645 C2644 1.414 . S
C2645 C2646 1.374 . S
C2646 H2620 0.950 . S
C2646 C2642 1.385 . S
C2646 C2645 1.374 . S
C2647 C2644 1.499 . S
C2647 C2648 1.373 . S
C2647 C2649 1.389 1_545 S
C2648 H2621 0.950 . S
C2648 C2634 1.377 . S
C2648 C2647 1.373 . S
C2649 C2633 1.377 . S
C2649 C2647 1.389 1_565 S
C2649 C2650 1.524 . S
C2650 C2649 1.524 . S
C2650 C2651 1.397 . S
C2650 C2655 1.363 . S
C2651 H2622 0.950 1_565 S
C2651 C2650 1.397 . S
C2651 C2652 1.334 . S
C2652 H2623 0.950 . S
C2652 C2651 1.334 . S
C2652 C2653 1.287 . S
C2653 C2652 1.287 . S
C2653 C2654 1.524 . S
C2653 H2656 0.999 . S
C2654 H2624 0.950 . S
C2654 C2653 1.524 . S
C2654 C2655 1.415 . S
C2655 H2625 0.950 . S
C2655 C2650 1.363 . S
C2655 C2654 1.415 . S
H2656 C2653 0.999 . S
H2657 C2638 0.913 . S
H2658 C2676 0.951 . S
H2659 C2678 0.951 . S
H2660 C2680 0.950 1_455 S
H2661 C2681 0.950 1_455 S
H2662 C2683 0.950 . S
H2663 C2686 0.950 . S
H2664 C2687 0.950 . S
H2665 C2689 0.950 1_545 S
H2666 C2690 0.950 . S
H2667 C2691 0.951 . S
H2668 C2693 0.951 . S
H2669 C2695 0.950 1_655 S
H2670 C2696 0.950 1_655 S
H2671 C2698 0.950 . S
H2672 C2701 0.950 . S
H2673 C2702 0.950 . S
H2674 C2704 0.950 1_565 S
H2675 C2705 0.950 . S
C2676 H2658 0.951 . S
C2676 C2677 1.366 . S
C2676 C2678 1.388 . S
C2677 C2676 1.366 . S
C2677 C2681 1.385 . S
C2678 H2659 0.951 . S
C2678 C2676 1.388 . S
C2678 C2679 1.366 . S
C2679 C2678 1.366 . S
C2679 C2680 1.414 . S
C2679 C2682 1.499 . S
C2680 H2660 0.950 1_655 S
C2680 C2679 1.414 . S
C2680 C2681 1.374 . S
C2681 H2661 0.950 1_655 S
C2681 C2677 1.385 . S
C2681 C2680 1.374 . S
C2682 C2679 1.499 . S
C2682 C2683 1.373 1_655 S
C2682 C2684 1.389 . S
C2683 H2662 0.950 . S
C2683 C2682 1.373 1_455 S
C2683 C2699 1.377 1_565 S
C2684 C2682 1.389 . S
C2684 C2685 1.524 . S
C2684 C2698 1.377 1_565 S
C2685 C2684 1.524 . S
C2685 C2686 1.397 . S
C2685 C2690 1.363 1_565 S
C2686 H2663 0.950 . S
C2686 C2685 1.397 . S
C2686 C2687 1.334 . S
C2687 H2664 0.950 . S
C2687 C2686 1.334 . S
C2687 C2688 1.287 . S
C2688 C2687 1.287 . S
C2688 C2689 1.524 . S
C2688 H2707 0.913 . S
C2689 H2665 0.950 1_565 S
C2689 C2688 1.524 . S
C2689 C2690 1.415 1_565 S
C2690 H2666 0.950 . S
C2690 C2685 1.363 1_545 S
C2690 C2689 1.415 1_545 S
C2691 H2667 0.951 . S
C2691 C2692 1.366 . S
C2691 C2693 1.388 . S
C2692 C2691 1.366 . S
C2692 C2696 1.385 . S
C2693 H2668 0.951 . S
C2693 C2691 1.388 . S
C2693 C2694 1.366 . S
C2694 C2693 1.366 . S
C2694 C2695 1.414 . S
C2694 C2697 1.499 . S
C2695 H2669 0.950 1_455 S
C2695 C2694 1.414 . S
C2695 C2696 1.374 . S
C2696 H2670 0.950 1_455 S
C2696 C2692 1.385 . S
C2696 C2695 1.374 . S
C2697 C2694 1.499 . S
C2697 C2698 1.373 1_455 S
C2697 C2699 1.389 . S
C2698 H2671 0.950 . S
C2698 C2684 1.377 1_545 S
C2698 C2697 1.373 1_655 S
C2699 C2683 1.377 1_545 S
C2699 C2697 1.389 . S
C2699 C2700 1.524 . S
C2700 C2699 1.524 . S
C2700 C2701 1.397 . S
C2700 C2705 1.363 1_545 S
C2701 H2672 0.950 . S
C2701 C2700 1.397 . S
C2701 C2702 1.334 . S
C2702 H2673 0.950 . S
C2702 C2701 1.334 . S
C2702 C2703 1.287 . S
C2703 C2702 1.287 . S
C2703 C2704 1.524 . S
C2703 H2706 0.999 . S
C2704 H2674 0.950 1_545 S
C2704 C2703 1.524 . S
C2704 C2705 1.415 1_545 S
C2705 H2675 0.950 . S
C2705 C2700 1.363 1_565 S
C2705 C2704 1.415 1_565 S
H2706 C2703 0.999 . S
H2707 C2688 0.913 . S
H2708 C2726 0.951 . S
H2709 C2728 0.951 . S
H2710 C2730 0.950 . S
H2711 C2731 0.950 . S
H2712 C2733 0.950 . S
H2713 C2736 0.950 . S
H2714 C2737 0.950 . S
H2715 C2739 0.950 . S
H2716 C2740 0.950 . S
H2717 C2741 0.951 . S
H2718 C2743 0.951 . S
H2719 C2745 0.950 . S
H2720 C2746 0.950 . S
H2721 C2748 0.950 . S
H2722 C2751 0.950 . S
H2723 C2752 0.950 . S
H2724 C2754 0.950 . S
H2725 C2755 0.950 . S
C2726 H2708 0.951 . S
C2726 C2727 1.366 . S
C2726 C2728 1.388 . S
C2727 C2726 1.366 . S
C2727 C2731 1.385 . S
C2728 H2709 0.951 . S
C2728 C2726 1.388 . S
C2728 C2729 1.366 . S
C2729 C2728 1.366 . S
C2729 C2730 1.414 . S
C2729 C2732 1.499 . S
C2730 H2710 0.950 . S
C2730 C2729 1.414 . S
C2730 C2731 1.374 . S
C2731 H2711 0.950 . S
C2731 C2727 1.385 . S
C2731 C2730 1.374 . S
C2732 C2729 1.499 . S
C2732 C2733 1.373 . S
C2732 C2734 1.389 . S
C2733 H2712 0.950 . S
C2733 C2732 1.373 . S
C2733 C2749 1.377 1_455 S
C2734 C2732 1.389 . S
C2734 C2735 1.524 . S
C2734 C2748 1.377 1_455 S
C2735 C2734 1.524 . S
C2735 C2736 1.397 . S
C2735 C2740 1.363 1_455 S
C2736 H2713 0.950 . S
C2736 C2735 1.397 . S
C2736 C2737 1.334 . S
C2737 H2714 0.950 . S
C2737 C2736 1.334 . S
C2737 C2738 1.287 . S
C2738 C2737 1.287 . S
C2738 C2739 1.524 1_455 S
C2738 H2757 0.913 . S
C2739 H2715 0.950 . S
C2739 C2738 1.524 1_655 S
C2739 C2740 1.415 . S
C2740 H2716 0.950 . S
C2740 C2735 1.363 1_655 S
C2740 C2739 1.415 . S
C2741 H2717 0.951 . S
C2741 C2742 1.366 . S
C2741 C2743 1.388 . S
C2742 C2741 1.366 . S
C2742 C2746 1.385 . S
C2743 H2718 0.951 . S
C2743 C2741 1.388 . S
C2743 C2744 1.366 . S
C2744 C2743 1.366 . S
C2744 C2745 1.414 . S
C2744 C2747 1.499 . S
C2745 H2719 0.950 . S
C2745 C2744 1.414 . S
C2745 C2746 1.374 . S
C2746 H2720 0.950 . S
C2746 C2742 1.385 . S
C2746 C2745 1.374 . S
C2747 C2744 1.499 . S
C2747 C2748 1.373 . S
C2747 C2749 1.389 . S
C2748 H2721 0.950 . S
C2748 C2734 1.377 1_655 S
C2748 C2747 1.373 . S
C2749 C2733 1.377 1_655 S
C2749 C2747 1.389 . S
C2749 C2750 1.524 . S
C2750 C2749 1.524 . S
C2750 C2751 1.397 . S
C2750 C2755 1.363 1_655 S
C2751 H2722 0.950 . S
C2751 C2750 1.397 . S
C2751 C2752 1.334 . S
C2752 H2723 0.950 . S
C2752 C2751 1.334 . S
C2752 C2753 1.287 . S
C2753 C2752 1.287 . S
C2753 C2754 1.524 1_655 S
C2753 H2756 0.999 . S
C2754 H2724 0.950 . S
C2754 C2753 1.524 1_455 S
C2754 C2755 1.415 . S
C2755 H2725 0.950 . S
C2755 C2750 1.363 1_455 S
C2755 C2754 1.415 . S
H2756 C2753 0.999 . S
H2757 C2738 0.913 . S
H2758 C2776 0.951 . S
H2759 C2778 0.951 . S
H2760 C2780 0.950 . S
H2761 C2781 0.950 . S
H2762 C2783 0.950 . S
H2763 C2786 0.950 . S
H2764 C2787 0.950 . S
H2765 C2789 0.950 . S
H2766 C2790 0.950 . S
H2767 C2791 0.951 . S
H2768 C2793 0.951 . S
H2769 C2795 0.950 . S
H2770 C2796 0.950 . S
H2771 C2798 0.950 . S
H2772 C2801 0.950 . S
H2773 C2802 0.950 . S
H2774 C2804 0.950 . S
H2775 C2805 0.950 . S
C2776 H2758 0.951 . S
C2776 C2777 1.366 . S
C2776 C2778 1.388 . S
C2777 C2776 1.366 . S
C2777 C2781 1.385 . S
C2778 H2759 0.951 . S
C2778 C2776 1.388 . S
C2778 C2779 1.366 . S
C2779 C2778 1.366 . S
C2779 C2780 1.414 . S
C2779 C2782 1.499 . S
C2780 H2760 0.950 . S
C2780 C2779 1.414 . S
C2780 C2781 1.374 . S
C2781 H2761 0.950 . S
C2781 C2777 1.385 . S
C2781 C2780 1.374 . S
C2782 C2779 1.499 . S
C2782 C2783 1.373 . S
C2782 C2784 1.389 . S
C2783 H2762 0.950 . S
C2783 C2782 1.373 . S
C2783 C2799 1.377 . S
C2784 C2782 1.389 . S
C2784 C2785 1.524 . S
C2784 C2798 1.377 . S
C2785 C2784 1.524 . S
C2785 C2786 1.397 . S
C2785 C2790 1.363 . S
C2786 H2763 0.950 . S
C2786 C2785 1.397 . S
C2786 C2787 1.334 . S
C2787 H2764 0.950 . S
C2787 C2786 1.334 . S
C2787 C2788 1.287 . S
C2788 C2787 1.287 . S
C2788 C2789 1.524 . S
C2788 H2807 0.913 . S
C2789 H2765 0.950 . S
C2789 C2788 1.524 . S
C2789 C2790 1.415 . S
C2790 H2766 0.950 . S
C2790 C2785 1.363 . S
C2790 C2789 1.415 . S
C2791 H2767 0.951 . S
C2791 C2792 1.366 . S
C2791 C2793 1.388 . S
C2792 C2791 1.366 . S
C2792 C2796 1.385 . S
C2793 H2768 0.951 . S
C2793 C2791 1.388 . S
C2793 C2794 1.366 . S
C2794 C2793 1.366 . S
C2794 C2795 1.414 . S
C2794 C2797 1.499 . S
C2795 H2769 0.950 . S
C2795 C2794 1.414 . S
C2795 C2796 1.374 . S
C2796 H2770 0.950 . S
C2796 C2792 1.385 . S
C2796 C2795 1.374 . S
C2797 C2794 1.499 . S
C2797 C2798 1.373 . S
C2797 C2799 1.389 . S
C2798 H2771 0.950 . S
C2798 C2784 1.377 . S
C2798 C2797 1.373 . S
C2799 C2783 1.377 . S
C2799 C2797 1.389 . S
C2799 C2800 1.524 . S
C2800 C2799 1.524 . S
C2800 C2801 1.397 . S
C2800 C2805 1.363 . S
C2801 H2772 0.950 . S
C2801 C2800 1.397 . S
C2801 C2802 1.334 . S
C2802 H2773 0.950 . S
C2802 C2801 1.334 . S
C2802 C2803 1.287 . S
C2803 C2802 1.287 . S
C2803 C2804 1.524 . S
C2803 H2806 0.999 . S
C2804 H2774 0.950 . S
C2804 C2803 1.524 . S
C2804 C2805 1.415 . S
C2805 H2775 0.950 . S
C2805 C2800 1.363 . S
C2805 C2804 1.415 . S
H2806 C2803 0.999 . S
H2807 C2788 0.913 . S
H2808 C2826 0.951 . S
H2809 C2828 0.951 . S
H2810 C2830 0.950 . S
H2811 C2831 0.950 . S
H2812 C2833 0.950 . S
H2813 C2836 0.950 . S
H2814 C2837 0.950 . S
H2815 C2839 0.950 . S
H2816 C2840 0.950 . S
H2817 C2841 0.951 . S
H2818 C2843 0.951 . S
H2819 C2845 0.950 . S
H2820 C2846 0.950 . S
H2821 C2848 0.950 . S
H2822 C2851 0.950 . S
H2823 C2852 0.950 . S
H2824 C2854 0.950 . S
H2825 C2855 0.950 . S
C2826 H2808 0.951 . S
C2826 C2827 1.366 . S
C2826 C2828 1.388 . S
C2827 C2826 1.366 . S
C2827 C2831 1.385 . S
C2828 H2809 0.951 . S
C2828 C2826 1.388 . S
C2828 C2829 1.366 . S
C2829 C2828 1.366 . S
C2829 C2830 1.414 . S
C2829 C2832 1.499 . S
C2830 H2810 0.950 . S
C2830 C2829 1.414 . S
C2830 C2831 1.374 . S
C2831 H2811 0.950 . S
C2831 C2827 1.385 . S
C2831 C2830 1.374 . S
C2832 C2829 1.499 . S
C2832 C2833 1.373 . S
C2832 C2834 1.389 . S
C2833 H2812 0.950 . S
C2833 C2832 1.373 . S
C2833 C2849 1.377 . S
C2834 C2832 1.389 . S
C2834 C2835 1.524 . S
C2834 C2848 1.377 . S
C2835 C2834 1.524 . S
C2835 C2836 1.397 . S
C2835 C2840 1.363 . S
C2836 H2813 0.950 . S
C2836 C2835 1.397 . S
C2836 C2837 1.334 . S
C2837 H2814 0.950 . S
C2837 C2836 1.334 . S
C2837 C2838 1.287 . S
C2838 C2837 1.287 . S
C2838 C2839 1.524 . S
C2838 H2857 0.913 . S
C2839 H2815 0.950 . S
C2839 C2838 1.524 . S
C2839 C2840 1.415 . S
C2840 H2816 0.950 . S
C2840 C2835 1.363 . S
C2840 C2839 1.415 . S
C2841 H2817 0.951 . S
C2841 C2842 1.366 . S
C2841 C2843 1.388 . S
C2842 C2841 1.366 . S
C2842 C2846 1.385 . S
C2843 H2818 0.951 . S
C2843 C2841 1.388 . S
C2843 C2844 1.366 . S
C2844 C2843 1.366 . S
C2844 C2845 1.414 . S
C2844 C2847 1.499 . S
C2845 H2819 0.950 . S
C2845 C2844 1.414 . S
C2845 C2846 1.374 . S
C2846 H2820 0.950 . S
C2846 C2842 1.385 . S
C2846 C2845 1.374 . S
C2847 C2844 1.499 . S
C2847 C2848 1.373 . S
C2847 C2849 1.389 . S
C2848 H2821 0.950 . S
C2848 C2834 1.377 . S
C2848 C2847 1.373 . S
C2849 C2833 1.377 . S
C2849 C2847 1.389 . S
C2849 C2850 1.524 . S
C2850 C2849 1.524 . S
C2850 C2851 1.397 . S
C2850 C2855 1.363 . S
C2851 H2822 0.950 . S
C2851 C2850 1.397 . S
C2851 C2852 1.334 . S
C2852 H2823 0.950 . S
C2852 C2851 1.334 . S
C2852 C2853 1.287 . S
C2853 C2852 1.287 . S
C2853 C2854 1.524 . S
C2853 H2856 0.999 . S
C2854 H2824 0.950 . S
C2854 C2853 1.524 . S
C2854 C2855 1.415 . S
C2855 H2825 0.950 . S
C2855 C2850 1.363 . S
C2855 C2854 1.415 . S
H2856 C2853 0.999 . S
H2857 C2838 0.913 . S
H2858 C2876 0.951 . S
H2859 C2878 0.951 . S
H2860 C2880 0.950 . S
H2861 C2881 0.950 . S
H2862 C2883 0.950 . S
H2863 C2886 0.950 . S
H2864 C2887 0.950 . S
H2865 C2889 0.950 . S
H2866 C2890 0.950 . S
H2867 C2891 0.951 . S
H2868 C2893 0.951 . S
H2869 C2895 0.950 . S
H2870 C2896 0.950 . S
H2871 C2898 0.950 . S
H2872 C2901 0.950 . S
H2873 C2902 0.950 . S
H2874 C2904 0.950 . S
H2875 C2905 0.950 . S
C2876 H2858 0.951 . S
C2876 C2877 1.366 . S
C2876 C2878 1.388 . S
C2877 C2876 1.366 . S
C2877 C2881 1.385 . S
C2878 H2859 0.951 . S
C2878 C2876 1.388 . S
C2878 C2879 1.366 . S
C2879 C2878 1.366 . S
C2879 C2880 1.414 . S
C2879 C2882 1.499 . S
C2880 H2860 0.950 . S
C2880 C2879 1.414 . S
C2880 C2881 1.374 . S
C2881 H2861 0.950 . S
C2881 C2877 1.385 . S
C2881 C2880 1.374 . S
C2882 C2879 1.499 . S
C2882 C2883 1.373 . S
C2882 C2884 1.389 . S
C2883 H2862 0.950 . S
C2883 C2882 1.373 . S
C2883 C2899 1.377 1_545 S
C2884 C2882 1.389 . S
C2884 C2885 1.524 . S
C2884 C2898 1.377 1_545 S
C2885 C2884 1.524 . S
C2885 C2886 1.397 . S
C2885 C2890 1.363 . S
C2886 H2863 0.950 . S
C2886 C2885 1.397 . S
C2886 C2887 1.334 . S
C2887 H2864 0.950 . S
C2887 C2886 1.334 . S
C2887 C2888 1.287 . S
C2888 C2887 1.287 . S
C2888 C2889 1.524 . S
C2888 H2907 0.913 . S
C2889 H2865 0.950 . S
C2889 C2888 1.524 . S
C2889 C2890 1.415 . S
C2890 H2866 0.950 . S
C2890 C2885 1.363 . S
C2890 C2889 1.415 . S
C2891 H2867 0.951 . S
C2891 C2892 1.366 . S
C2891 C2893 1.388 . S
C2892 C2891 1.366 . S
C2892 C2896 1.385 . S
C2893 H2868 0.951 . S
C2893 C2891 1.388 . S
C2893 C2894 1.366 . S
C2894 C2893 1.366 . S
C2894 C2895 1.414 . S
C2894 C2897 1.499 . S
C2895 H2869 0.950 . S
C2895 C2894 1.414 . S
C2895 C2896 1.374 . S
C2896 H2870 0.950 . S
C2896 C2892 1.385 . S
C2896 C2895 1.374 . S
C2897 C2894 1.499 . S
C2897 C2898 1.373 . S
C2897 C2899 1.389 . S
C2898 H2871 0.950 . S
C2898 C2884 1.377 1_565 S
C2898 C2897 1.373 . S
C2899 C2883 1.377 1_565 S
C2899 C2897 1.389 . S
C2899 C2900 1.524 . S
C2900 C2899 1.524 . S
C2900 C2901 1.397 . S
C2900 C2905 1.363 . S
C2901 H2872 0.950 . S
C2901 C2900 1.397 . S
C2901 C2902 1.334 . S
C2902 H2873 0.950 . S
C2902 C2901 1.334 . S
C2902 C2903 1.287 . S
C2903 C2902 1.287 . S
C2903 C2904 1.524 . S
C2903 H2906 0.999 . S
C2904 H2874 0.950 . S
C2904 C2903 1.524 . S
C2904 C2905 1.415 . S
C2905 H2875 0.950 . S
C2905 C2900 1.363 . S
C2905 C2904 1.415 . S
H2906 C2903 0.999 . S
H2907 C2888 0.913 . S
H2908 C2926 0.926 1_545 S
H2909 C2928 0.951 1_545 S
H2910 C2930 0.950 . S
H2911 C2931 0.950 . S
H2912 C2933 0.950 . S
H2913 C2936 0.950 . S
H2914 C2937 0.950 . S
H2915 C2939 0.950 . S
H2916 C2940 0.950 . S
H2917 C2941 0.925 1_565 S
H2918 C2943 0.951 1_565 S
H2919 C2945 0.950 . S
H2920 C2946 0.950 . S
H2921 C2948 0.950 . S
H2922 C2951 0.950 . S
H2923 C2952 0.950 . S
H2924 C2954 0.950 . S
H2925 C2955 0.950 . S
C2926 H2908 0.926 1_565 S
C2926 C2927 1.366 . S
C2926 C2928 1.388 . S
C2927 C2926 1.366 . S
C2927 C2931 1.385 . S
C2928 H2909 0.951 1_565 S
C2928 C2926 1.388 . S
C2928 C2929 1.366 . S
C2929 C2928 1.366 . S
C2929 C2930 1.414 . S
C2929 C2932 1.499 . S
C2930 H2910 0.950 . S
C2930 C2929 1.414 . S
C2930 C2931 1.374 . S
C2931 H2911 0.950 . S
C2931 C2927 1.385 . S
C2931 C2930 1.374 . S
C2932 C2929 1.499 . S
C2932 C2933 1.373 . S
C2932 C2934 1.389 1_565 S
C2933 H2912 0.950 . S
C2933 C2932 1.373 . S
C2933 C2949 1.377 1_655 S
C2934 C2932 1.389 1_545 S
C2934 C2935 1.524 . S
C2934 C2948 1.377 1_655 S
C2935 C2934 1.524 . S
C2935 C2936 1.397 1_545 S
C2935 C2940 1.363 . S
C2936 H2913 0.950 . S
C2936 C2935 1.397 1_565 S
C2936 C2937 1.334 . S
C2937 H2914 0.950 . S
C2937 C2936 1.334 . S
C2937 C2938 1.287 1_565 S
C2938 C2937 1.287 1_545 S
C2938 C2939 1.524 . S
C2938 H2957 0.913 . S
C2939 H2915 0.950 . S
C2939 C2938 1.524 . S
C2939 C2940 1.415 . S
C2940 H2916 0.950 . S
C2940 C2935 1.363 . S
C2940 C2939 1.415 . S
C2941 H2917 0.925 1_545 S
C2941 C2942 1.366 . S
C2941 C2943 1.388 . S
C2942 C2941 1.366 . S
C2942 C2946 1.385 . S
C2943 H2918 0.951 1_545 S
C2943 C2941 1.388 . S
C2943 C2944 1.366 . S
C2944 C2943 1.366 . S
C2944 C2945 1.414 . S
C2944 C2947 1.499 . S
C2945 H2919 0.950 . S
C2945 C2944 1.414 . S
C2945 C2946 1.374 . S
C2946 H2920 0.950 . S
C2946 C2942 1.385 . S
C2946 C2945 1.374 . S
C2947 C2944 1.499 . S
C2947 C2948 1.373 . S
C2947 C2949 1.389 1_545 S
C2948 H2921 0.950 . S
C2948 C2934 1.377 1_455 S
C2948 C2947 1.373 . S
C2949 C2933 1.377 1_455 S
C2949 C2947 1.389 1_565 S
C2949 C2950 1.524 . S
C2950 C2949 1.524 . S
C2950 C2951 1.397 1_565 S
C2950 C2955 1.363 . S
C2951 H2922 0.950 . S
C2951 C2950 1.397 1_545 S
C2951 C2952 1.334 . S
C2952 H2923 0.950 . S
C2952 C2951 1.334 . S
C2952 C2953 1.287 1_545 S
C2953 C2952 1.287 1_565 S
C2953 C2954 1.524 . S
C2953 H2956 0.999 . S
C2954 H2924 0.950 . S
C2954 C2953 1.524 . S
C2954 C2955 1.415 . S
C2955 H2925 0.950 . S
C2955 C2950 1.363 . S
C2955 C2954 1.415 . S
H2956 C2953 0.999 . S
H2957 C2938 0.913 . S
H2958 C2976 0.951 . S
H2959 C2978 0.951 . S
H2960 C2980 0.950 1_455 S
H2961 C2981 0.950 . S
H2962 C2983 0.950 . S
H2963 C2986 0.950 . S
H2964 C2987 0.950 . S
H2965 C2989 0.950 . S
H2966 C2990 0.950 . S
H2967 C2991 0.951 . S
H2968 C2993 0.951 . S
H2969 C2995 0.950 1_655 S
H2970 C2996 0.950 . S
H2971 C2998 0.950 . S
H2972 C3001 0.950 . S
H2973 C3002 0.950 . S
H2974 C3004 0.950 . S
H2975 C3005 0.950 . S
C2976 H2958 0.951 . S
C2976 C2977 1.366 . S
C2976 C2978 1.388 . S
C2977 C2976 1.366 . S
C2977 C2981 1.385 . S
C2978 H2959 0.951 . S
C2978 C2976 1.388 . S
C2978 C2979 1.366 . S
C2979 C2978 1.366 . S
C2979 C2980 1.414 . S
C2979 C2982 1.499 . S
C2980 H2960 0.950 1_655 S
C2980 C2979 1.414 . S
C2980 C2981 1.374 . S
C2981 H2961 0.950 . S
C2981 C2977 1.385 . S
C2981 C2980 1.374 . S
C2982 C2979 1.499 . S
C2982 C2983 1.373 1_655 S
C2982 C2984 1.389 . S
C2983 H2962 0.950 . S
C2983 C2982 1.373 1_455 S
C2983 C2999 1.377 . S
C2984 C2982 1.389 . S
C2984 C2985 1.524 . S
C2984 C2998 1.377 . S
C2985 C2984 1.524 . S
C2985 C2986 1.397 . S
C2985 C2990 1.363 . S
C2986 H2963 0.950 . S
C2986 C2985 1.397 . S
C2986 C2987 1.334 . S
C2987 H2964 0.950 . S
C2987 C2986 1.334 . S
C2987 C2988 1.287 . S
C2988 C2987 1.287 . S
C2988 C2989 1.524 . S
C2988 H3007 0.913 . S
C2989 H2965 0.950 . S
C2989 C2988 1.524 . S
C2989 C2990 1.415 . S
C2990 H2966 0.950 . S
C2990 C2985 1.363 . S
C2990 C2989 1.415 . S
C2991 H2967 0.951 . S
C2991 C2992 1.366 . S
C2991 C2993 1.388 . S
C2992 C2991 1.366 . S
C2992 C2996 1.385 . S
C2993 H2968 0.951 . S
C2993 C2991 1.388 . S
C2993 C2994 1.366 . S
C2994 C2993 1.366 . S
C2994 C2995 1.414 . S
C2994 C2997 1.499 . S
C2995 H2969 0.950 1_455 S
C2995 C2994 1.414 . S
C2995 C2996 1.374 . S
C2996 H2970 0.950 . S
C2996 C2992 1.385 . S
C2996 C2995 1.374 . S
C2997 C2994 1.499 . S
C2997 C2998 1.373 1_455 S
C2997 C2999 1.389 . S
C2998 H2971 0.950 . S
C2998 C2984 1.377 . S
C2998 C2997 1.373 1_655 S
C2999 C2983 1.377 . S
C2999 C2997 1.389 . S
C2999 C3000 1.524 . S
C3000 C2999 1.524 . S
C3000 C3001 1.397 . S
C3000 C3005 1.363 . S
C3001 H2972 0.950 . S
C3001 C3000 1.397 . S
C3001 C3002 1.334 . S
C3002 H2973 0.950 . S
C3002 C3001 1.334 . S
C3002 C3003 1.287 . S
C3003 C3002 1.287 . S
C3003 C3004 1.524 . S
C3003 H3006 0.999 . S
C3004 H2974 0.950 . S
C3004 C3003 1.524 . S
C3004 C3005 1.415 . S
C3005 H2975 0.950 . S
C3005 C3000 1.363 . S
C3005 C3004 1.415 . S
H3006 C3003 0.999 . S
H3007 C2988 0.913 . S
C1427 C372 0.828 . S
C1442 C57 0.828 . S
C1477 C145 0.829 . S
C1492 C460 0.829 . S
C1527 C548 0.828 . S
C1542 C233 0.828 . S
C1577 C645 0.829 . S
C1592 C313 0.829 . S
C1627 C1085 0.828 . S
C1642 C753 0.828 . S
C1677 C841 0.827 . S
C1692 C1164 0.827 . S
C1727 C1252 0.829 . S
C1742 C929 0.829 . S
C1777 C1025 0.829 . S
C1792 C1340 0.829 . S
C1827 C29 0.936 . S
C1842 C1369 0.937 . S
C1877 C117 0.936 . S
C1892 C1113 0.936 . S
C1927 C205 0.937 . S
C1942 C1193 0.935 . S
C1977 C1281 0.936 . S
C1992 C284 0.937 . S
C2027 C401 0.936 . S
C2042 C812 0.936 . S
C2077 C489 0.936 . S
C2092 C900 0.935 . S
C2127 C997 0.936 . S
C2142 C577 0.936 . S
C2177 C724 0.937 . S
C2192 C673 0.937 . S
C2227 C49 1.540 . S
C2242 C937 1.540 . S
C2277 C1017 1.540 . S
C2292 C137 1.540 . S
C2327 C225 1.540 . S
C2342 C761 1.540 . S
C2377 C849 1.540 . S
C2392 C321 1.540 . S
C2427 C381 1.540 . S
C2442 C1261 1.540 . S
C2477 C469 1.540 . S
C2492 C1349 1.540 . S
C2527 C1076 1.540 . S
C2542 C557 1.540 . S
C2577 C1173 1.540 . S
C2592 C636 1.540 . S
C2627 C909 1.624 . S
C2642 C20 1.624 . S
C2677 C108 1.624 . S
C2692 C988 1.625 . S
C2727 C196 1.625 . S
C2742 C733 1.625 . S
C2777 C821 1.625 . S
C2792 C293 1.625 . S
C2827 C1289 1.624 . S
C2842 C409 1.625 . S
C2877 C1377 1.625 . S
C2892 C497 1.624 . S
C2927 C1105 1.625 . S
C2942 C585 1.624 . S
C2977 C665 1.625 . S
C2992 C1201 1.625 . S
