# Generated by pormake.
# Topology sow, (4)-cn, num edge types: 1
# Building blocks:
#     Node 0, Type 0, BuildingBlock: ESEHIV_clean_sbu_0, # of connection points: 4
#     Node 1, Type 0, BuildingBlock: ESEHIV_clean_sbu_0, # of connection points: 4
#     Node 2, Type 0, BuildingBlock: ESEHIV_clean_sbu_0, # of connection points: 4
#     Node 3, Type 0, BuildingBlock: ESEHIV_clean_sbu_0, # of connection points: 4
#     Node 4, Type 0, BuildingBlock: ESEHIV_clean_sbu_0, # of connection points: 4
#     Node 5, Type 0, BuildingBlock: ESEHIV_clean_sbu_0, # of connection points: 4
#     Node 6, Type 0, BuildingBlock: ESEHIV_clean_sbu_0, # of connection points: 4
#     Node 7, Type 0, BuildingBlock: ESEHIV_clean_sbu_0, # of connection points: 4
#     Edge 8, Type (0, 0), BuildingBlock: CIFDUS_clean_linker_0, # of connection points: 2
#     Edge 9, Type (0, 0), BuildingBlock: CIFDUS_clean_linker_0, # of connection points: 2
#     Edge 10, Type (0, 0), BuildingBlock: CIFDUS_clean_linker_0, # of connection points: 2
#     Edge 11, Type (0, 0), BuildingBlock: CIFDUS_clean_linker_0, # of connection points: 2
#     Edge 12, Type (0, 0), BuildingBlock: CIFDUS_clean_linker_0, # of connection points: 2
#     Edge 13, Type (0, 0), BuildingBlock: CIFDUS_clean_linker_0, # of connection points: 2
#     Edge 14, Type (0, 0), BuildingBlock: CIFDUS_clean_linker_0, # of connection points: 2
#     Edge 15, Type (0, 0), BuildingBlock: CIFDUS_clean_linker_0, # of connection points: 2
#     Edge 16, Type (0, 0), BuildingBlock: CIFDUS_clean_linker_0, # of connection points: 2
#     Edge 17, Type (0, 0), BuildingBlock: CIFDUS_clean_linker_0, # of connection points: 2
#     Edge 18, Type (0, 0), BuildingBlock: CIFDUS_clean_linker_0, # of connection points: 2
#     Edge 19, Type (0, 0), BuildingBlock: CIFDUS_clean_linker_0, # of connection points: 2
#     Edge 20, Type (0, 0), BuildingBlock: CIFDUS_clean_linker_0, # of connection points: 2
#     Edge 21, Type (0, 0), BuildingBlock: CIFDUS_clean_linker_0, # of connection points: 2
#     Edge 22, Type (0, 0), BuildingBlock: CIFDUS_clean_linker_0, # of connection points: 2
#     Edge 23, Type (0, 0), BuildingBlock: CIFDUS_clean_linker_0, # of connection points: 2
# Relax obj value: 0.067
# Max RMSD: 0.219
# Mean RMSD: 0.188
data_MOF--net-sow--node1-ESEHIV_clean_sbu_0--edge1-CIFDUS_clean_linker_0
_symmetry_space_group_name_H-M    P1
_symmetry_Int_Tables_number       1
_symmetry_cell_setting            triclinic
loop_
_symmetry_equiv_pos_as_xyz
'x, y, z'
_cell_length_a     42.695363
_cell_length_b     16.844114
_cell_length_c     20.084465
_cell_angle_alpha  89.931334
_cell_angle_beta   89.751179
_cell_angle_gamma 89.850058
loop_
_atom_site_label
_atom_site_type_symbol
_atom_site_fract_x
_atom_site_fract_y
_atom_site_fract_z
_atom_type_partial_charge
Cu0 Cu 0.16369 0.2287 0.16571 0.0
N1 N 0.18649 0.29186 0.22477 0.0
N2 N 0.22501 0.32739 0.29367 0.0
C3 C 0.20883 0.26642 0.26727 0.0
C4 C 0.21261 0.3933 0.26611 0.0
C5 C 0.18877 0.37143 0.2242 0.0
O6 O 0.19391 0.19755 0.09652 0.0
C7 C 0.13193 0.15672 0.27418 0.0
O8 O 0.14739 0.20777 0.31061 0.0
H9 H 0.21409 0.20439 0.27611 0.0
H10 H 0.17525 0.41054 0.19262 0.0
N11 N 0.13152 0.2835 0.12319 0.0
N12 N 0.08677 0.28219 0.06566 0.0
C13 C 0.11546 0.24981 0.07324 0.0
C14 C 0.11255 0.34019 0.14796 0.0
C15 C 0.08492 0.33973 0.11234 0.0
C16 C 0.20444 0.25786 0.065 0.0
O17 O 0.19268 0.32807 0.07872 0.0
H18 H 0.12296 0.19531 0.0494 0.0
H19 H 0.11687 0.37283 0.19332 0.0
O20 O 0.13961 0.14736 0.21313 0.0
H21 H 0.22075 0.45286 0.27425 0.0
H22 H 0.06411 0.37391 0.124 0.0
Cu23 Cu 0.39369 0.38346 0.65852 0.0
N24 N 0.37165 0.40438 0.73762 0.0
N25 N 0.34305 0.39503 0.8314 0.0
C26 C 0.35315 0.35725 0.7757 0.0
C27 C 0.35586 0.46818 0.82767 0.0
C28 C 0.37327 0.4737 0.77032 0.0
O29 O 0.36604 0.34508 0.58857 0.0
C30 C 0.45287 0.31322 0.63748 0.0
O31 O 0.44853 0.33591 0.57557 0.0
H32 H 0.3479 0.29615 0.76391 0.0
H33 H 0.38661 0.52463 0.75386 0.0
N34 N 0.41014 0.4788 0.62558 0.0
N35 N 0.44672 0.55907 0.58249 0.0
C36 C 0.44037 0.50168 0.62752 0.0
C37 C 0.39654 0.52576 0.57983 0.0
C38 C 0.41899 0.57534 0.55324 0.0
C39 C 0.34678 0.28761 0.59079 0.0
O40 O 0.34587 0.24176 0.64366 0.0
H41 H 0.45802 0.47161 0.65665 0.0
H42 H 0.37265 0.51962 0.56292 0.0
O43 O 0.42999 0.3175 0.67832 0.0
H44 H 0.35297 0.5149 0.86379 0.0
H45 H 0.41548 0.61649 0.51251 0.0
Cu46 Cu 0.65481 0.23574 0.84105 0.0
N47 N 0.6715 0.17711 0.76963 0.0
N48 N 0.70673 0.13853 0.69294 0.0
C49 C 0.70211 0.17312 0.75293 0.0
C50 C 0.67774 0.12057 0.67097 0.0
C51 C 0.65612 0.14392 0.71844 0.0
O52 O 0.6872 0.24958 0.90836 0.0
C53 C 0.63255 0.34504 0.74454 0.0
O54 O 0.65502 0.32346 0.70352 0.0
H55 H 0.72046 0.19933 0.78261 0.0
H56 H 0.63091 0.14085 0.71431 0.0
N57 N 0.62039 0.18885 0.88285 0.0
N58 N 0.57437 0.20007 0.93638 0.0
C59 C 0.60325 0.23066 0.92697 0.0
C60 C 0.60198 0.12832 0.86392 0.0
C61 C 0.57356 0.135 0.89703 0.0
C62 C 0.70031 0.1855 0.92754 0.0
O63 O 0.6913 0.1179 0.90138 0.0
H64 H 0.61056 0.28811 0.94523 0.0
H65 H 0.60758 0.08696 0.82447 0.0
O66 O 0.63585 0.33254 0.8067 0.0
H67 H 0.67238 0.09326 0.62365 0.0
H68 H 0.55322 0.09814 0.88889 0.0
Cu69 Cu 0.89028 0.06336 0.32981 0.0
N70 N 0.87625 0.06315 0.24195 0.0
N71 N 0.84941 0.0839 0.14778 0.0
C72 C 0.8485 0.08537 0.21528 0.0
C73 C 0.87882 0.06053 0.13244 0.0
C74 C 0.89516 0.04777 0.19006 0.0
O75 O 0.85553 0.09567 0.38747 0.0
C76 C 0.95041 0.12396 0.36805 0.0
O77 O 0.94631 0.08648 0.42482 0.0
H78 H 0.82827 0.10241 0.24464 0.0
H79 H 0.91951 0.03054 0.19408 0.0
N80 N 0.90429 0.96137 0.35219 0.0
N81 N 0.93795 0.86464 0.37906 0.0
C82 C 0.93427 0.93611 0.34986 0.0
C83 C 0.8882 0.90253 0.38193 0.0
C84 C 0.90892 0.84263 0.3985 0.0
C85 C 0.85413 0.08511 0.45027 0.0
O86 O 0.87869 0.05695 0.48168 0.0
H87 H 0.95328 0.97039 0.32889 0.0
H88 H 0.86346 0.90479 0.39368 0.0
O89 O 0.92733 0.1311 0.32838 0.0
H90 H 0.88813 0.05475 0.08281 0.0
H91 H 0.90334 0.7892 0.42604 0.0
Cu92 Cu 0.89678 0.89039 0.99694 0.0
N93 N 0.91833 0.8025 0.9636 0.0
N94 N 0.95599 0.7282 0.91668 0.0
C95 C 0.94911 0.79601 0.94998 0.0
C96 C 0.92823 0.69039 0.91056 0.0
C97 C 0.90519 0.73622 0.93952 0.0
O98 O 0.92492 0.9803 1.00927 0.0
C99 C 0.86607 0.91314 0.87327 0.0
O100 O 0.89388 0.89801 0.84803 0.0
H101 H 0.96576 0.84171 0.96243 0.0
H102 H 0.88031 0.72415 0.93995 0.0
N103 N 0.87991 0.86475 0.08028 0.0
N104 N 0.84667 0.85546 0.16643 0.0
C105 C 0.85015 0.87459 0.10136 0.0
C106 C 0.89579 0.83827 0.1336 0.0
C107 C 0.87537 0.83234 0.18677 0.0
C108 C 0.94411 0.00933 0.9671 0.0
O109 O 0.94613 0.97845 0.90724 0.0
H110 H 0.83154 0.89629 0.06976 0.0
H111 H 0.9207 0.82633 0.13416 0.0
O112 O 0.86267 0.91513 0.93628 0.0
H113 H 0.92426 0.63561 0.88395 0.0
H114 H 0.88147 0.81536 0.23708 0.0
Cu115 Cu 0.65899 0.8334 0.52168 0.0
N116 N 0.63087 0.89607 0.47317 0.0
N117 N 0.59265 0.92142 0.4003 0.0
C118 C 0.61615 0.87205 0.4177 0.0
C119 C 0.59321 0.98055 0.44558 0.0
C120 C 0.6168 0.96462 0.49064 0.0
O121 O 0.63475 0.74268 0.5526 0.0
C122 C 0.70631 0.86167 0.42889 0.0
O123 O 0.69326 0.93238 0.42996 0.0
H124 H 0.62179 0.81773 0.39182 0.0
H125 H 0.62203 -0.00182 0.53506 0.0
N126 N 0.67248 0.88617 0.59779 0.0
N127 N 0.7027 0.92048 0.6838 0.0
C128 C 0.70189 0.88984 0.62156 0.0
C129 C 0.65401 0.91521 0.64636 0.0
C130 C 0.6725 0.9363 0.69939 0.0
C131 C 0.62207 0.69264 0.51384 0.0
O132 O 0.63027 0.6913 0.45079 0.0
H133 H 0.72193 0.86573 0.59529 0.0
H134 H 0.62871 0.91737 0.64449 0.0
O135 O 0.695 0.80709 0.46581 0.0
H136 H 0.57644 0.02872 0.44867 0.0
H137 H 0.66413 0.96029 0.74614 0.0
Cu138 Cu 0.40174 0.61093 0.06523 0.0
N139 N 0.42367 0.69489 0.1032 0.0
N140 N 0.45902 0.76178 0.16288 0.0
C141 C 0.45088 0.6908 0.13659 0.0
C142 C 0.43592 0.81223 0.14457 0.0
C143 C 0.41421 0.77081 0.10788 0.0
O144 O 0.43028 0.52153 0.05096 0.0
C145 C 0.36661 0.59066 0.18614 0.0
O146 O 0.3924 0.61156 0.21688 0.0
H147 H 0.464 0.63624 0.14224 0.0
H148 H 0.39254 0.79374 0.08772 0.0
N149 N 0.38394 0.64483 0.98526 0.0
N150 N 0.34724 0.66836 0.90838 0.0
C151 C 0.35346 0.63838 0.96939 0.0
C152 C 0.39762 0.68054 0.9328 0.0
C153 C 0.37504 0.69504 0.88518 0.0
C154 C 0.42483 0.46694 1.00878 0.0
O155 O 0.39886 0.46993 0.97419 0.0
H156 H 0.33625 0.61174 1.00212 0.0
H157 H 0.42231 0.69421 0.9292 0.0
O158 O 0.36685 0.58314 0.12309 0.0
H159 H 0.43404 0.87402 0.15864 0.0
H160 H 0.37901 0.72074 0.83647 0.0
Cu161 Cu 0.1579 0.66831 0.56543 0.0
N162 N 0.13314 0.60217 0.61836 0.0
N163 N 0.0959 0.57277 0.69281 0.0
C164 C 0.11204 0.63089 0.66184 0.0
C165 C 0.10736 0.50429 0.66738 0.0
C166 C 0.13045 0.52267 0.62137 0.0
O167 O 0.12809 0.74126 0.52325 0.0
C168 C 0.20377 0.66451 0.65906 0.0
O169 O 0.19678 0.58909 0.65211 0.0
H170 H 0.10794 0.6938 0.66853 0.0
H171 H 0.14399 0.48125 0.59181 0.0
N172 N 0.18043 0.61301 0.50039 0.0
N173 N 0.21959 0.58367 0.43059 0.0
C174 C 0.21003 0.62973 0.48161 0.0
C175 C 0.17111 0.55361 0.46037 0.0
C176 C 0.19521 0.53573 0.41691 0.0
C177 C 0.10519 0.70699 0.49444 0.0
O178 O 0.10518 0.62912 0.49166 0.0
H179 H 0.22396 0.67641 0.50359 0.0
H180 H 0.14835 0.52573 0.46207 0.0
O181 O 0.18898 0.71561 0.62423 0.0
H182 H 0.0996 0.44526 0.6807 0.0
H183 H 0.19485 0.49096 0.37844 0.0
H184 H 0.30011 0.27506 0.82582 0.0
H185 H 0.34017 0.4491 0.95803 0.0
H186 H 0.30307 0.41383 0.04406 0.0
H187 H 0.256 0.344 0.07907 0.0
H188 H 0.2142 0.1695 0.95113 0.0
H189 H 0.25547 0.19254 0.86714 0.0
C190 C 0.30109 0.30419 0.8738 0.0
C191 C 0.3229 0.36594 0.88438 0.0
C192 C 0.27928 0.28335 0.92413 0.0
C193 C 0.32359 0.4027 0.94727 0.0
C194 C 0.30232 0.38232 0.99704 0.0
C195 C 0.25638 0.30961 0.03337 0.0
C196 C 0.23231 0.25502 0.02118 0.0
C197 C 0.27964 0.32428 0.98551 0.0
C198 C 0.23282 0.21103 0.96187 0.0
C199 C 0.25621 0.22501 0.91364 0.0
H200 H 0.23219 0.22745 0.39763 0.0
H201 H 0.27675 0.41794 0.2906 0.0
H202 H 0.31928 0.4205 0.37176 0.0
H203 H 0.34231 0.3733 0.47606 0.0
H204 H 0.2983 0.1814 0.58375 0.0
H205 H 0.25731 0.17403 0.49936 0.0
C206 C 0.2514 0.2689 0.39198 0.0
C207 C 0.25107 0.32373 0.33904 0.0
C208 C 0.27578 0.26996 0.4391 0.0
C209 C 0.27606 0.37716 0.33215 0.0
C210 C 0.30044 0.37818 0.37826 0.0
C211 C 0.32393 0.32932 0.48098 0.0
C212 C 0.32343 0.27819 0.53656 0.0
C213 C 0.30029 0.32577 0.43255 0.0
C214 C 0.29936 0.22158 0.54167 0.0
C215 C 0.27581 0.21745 0.49345 0.0
H216 H 0.79714 0.17586 0.16545 0.0
H217 H 0.84609 0.03102 0.02107 0.0
H218 H 0.80577 0.0565 0.93996 0.0
H219 H 0.75454 0.10878 0.9111 0.0
H220 H 0.70508 0.25954 0.04905 0.0
H221 H 0.74699 0.2411 0.13162 0.0
C222 C 0.79882 0.14928 0.11649 0.0
C223 C 0.82483 0.10086 0.10026 0.0
C224 C 0.77511 0.16381 0.06897 0.0
C225 C 0.82673 0.06853 0.03572 0.0
C226 C 0.80339 0.08219 0.98904 0.0
C227 C 0.75314 0.13835 0.95905 0.0
C228 C 0.72687 0.18502 0.97435 0.0
C229 C 0.77729 0.12835 1.00534 0.0
C230 C 0.7253 0.22365 0.03623 0.0
C231 C 0.74913 0.21256 0.08349 0.0
H232 H 0.7159 0.12818 0.5597 0.0
H233 H 0.76454 0.12548 0.74753 0.0
H234 H 0.81449 0.11004 0.68935 0.0
H235 H 0.84455 0.09547 0.5848 0.0
H236 H 0.79572 0.10158 0.39711 0.0
H237 H 0.74582 0.11612 0.45556 0.0
C238 C 0.73733 0.12351 0.5881 0.0
C239 C 0.73624 0.12814 0.65814 0.0
C240 C 0.76609 0.11498 0.55423 0.0
C241 C 0.76454 0.12346 0.69368 0.0
C242 C 0.79318 0.11408 0.66038 0.0
C243 C 0.82302 0.10035 0.55665 0.0
C244 C 0.82403 0.09775 0.48652 0.0
C245 C 0.79427 0.10972 0.59063 0.0
C246 C 0.7958 0.10416 0.451 0.0
C247 C 0.76716 0.11216 0.48443 0.0
H248 H 0.83096 0.7694 0.27525 0.0
H249 H 0.79925 0.96015 0.14887 0.0
H250 H 0.75355 0.9799 0.21985 0.0
H251 H 0.72259 0.94383 0.31833 0.0
H252 H 0.75175 0.74738 0.44143 0.0
H253 H 0.79833 0.72864 0.37131 0.0
C254 C 0.81409 0.81539 0.26342 0.0
C255 C 0.81887 0.86401 0.20711 0.0
C256 C 0.78731 0.82514 0.30382 0.0
C257 C 0.79636 0.9222 0.19179 0.0
C258 C 0.77016 0.93356 0.23251 0.0
C259 C 0.73912 0.89681 0.32984 0.0
C260 C 0.73381 0.8473 0.38521 0.0
C261 C 0.76543 0.88554 0.2887 0.0
C262 C 0.75525 0.7861 0.39896 0.0
C263 C 0.78193 0.77556 0.35901 0.0
H264 H 0.76375 0.92714 0.64726 0.0
H265 H 0.70259 0.92825 0.81912 0.0
H266 H 0.74768 0.92992 0.89244 0.0
H267 H 0.80446 0.92033 0.90849 0.0
H268 H 0.86594 0.92288 0.73738 0.0
H269 H 0.82074 0.9277 0.6634 0.0
C270 C 0.76019 0.92693 0.70069 0.0
C271 C 0.72957 0.92635 0.72712 0.0
C272 C 0.78635 0.92741 0.74299 0.0
C273 C 0.72566 0.92892 0.79677 0.0
C274 C 0.75153 0.9293 0.83905 0.0
C275 C 0.80805 0.92355 0.85508 0.0
C276 C 0.83862 0.92157 0.82873 0.0
C277 C 0.78197 0.92726 0.81276 0.0
C278 C 0.84271 0.92411 0.75921 0.0
C279 C 0.81685 0.92681 0.71677 0.0
H280 H 0.32713 0.76545 0.80922 0.0
H281 H 0.30057 0.56237 0.92784 0.0
H282 H 0.25306 0.54736 0.86348 0.0
H283 H 0.22042 0.586 0.7696 0.0
H284 H 0.24476 0.79011 0.65078 0.0
H285 H 0.2915 0.81143 0.71951 0.0
C286 C 0.31091 0.71807 0.821 0.0
C287 C 0.31785 0.66448 0.873 0.0
C288 C 0.28315 0.71011 0.78384 0.0
C289 C 0.29609 0.60454 0.88843 0.0
C290 C 0.26883 0.59564 0.85137 0.0
C291 C 0.23579 0.6357 0.75906 0.0
C292 C 0.22935 0.68608 0.70498 0.0
C293 C 0.26236 0.64731 0.79851 0.0
C294 C 0.2492 0.75077 0.6924 0.0
C295 C 0.27601 0.76251 0.73138 0.0
H296 H 0.35747 0.59531 0.32089 0.0
H297 H 0.30797 0.57352 0.13469 0.0
H298 H 0.25808 0.5736 0.1941 0.0
H299 H 0.22819 0.58351 0.29882 0.0
H300 H 0.27698 0.5959 0.48527 0.0
H301 H 0.32744 0.59895 0.4262 0.0
C302 C 0.33579 0.59026 0.2933 0.0
C303 C 0.33658 0.58468 0.22332 0.0
C304 C 0.30703 0.59001 0.32784 0.0
C305 C 0.30818 0.57783 0.1885 0.0
C306 C 0.27956 0.57839 0.22238 0.0
C307 C 0.24998 0.58489 0.32621 0.0
C308 C 0.2491 0.58744 0.39597 0.0
C309 C 0.2787 0.58481 0.29193 0.0
C310 C 0.27726 0.59352 0.43139 0.0
C311 C 0.30602 0.59495 0.39765 0.0
H312 H 0.07719 0.16349 0.20666 0.0
H313 H 0.11625 0.10312 0.39763 0.0
H314 H 0.06349 0.08955 0.44471 0.0
H315 H 1.00613 0.1012 0.43267 0.0
H316 H 0.96765 0.17027 0.24263 0.0
H317 H 1.02012 0.17421 0.19478 0.0
C318 C 0.0741 0.14513 0.25809 0.0
C319 C 0.10056 0.13236 0.29827 0.0
C320 C 0.04373 0.14098 0.28554 0.0
C321 C 0.09621 0.11169 0.36547 0.0
C322 C 0.06606 0.10482 0.39254 0.0
C323 C 1.00919 0.11824 0.38098 0.0
C324 C 0.98276 0.13628 0.34179 0.0
C325 C 0.03961 0.12091 0.35339 0.0
C326 C 0.98738 0.15723 0.27458 0.0
C327 C 1.01744 0.15901 0.24679 0.0
H328 H 0.50683 0.36781 0.58028 0.0
H329 H 0.47137 0.25082 0.75647 0.0
H330 H 0.52336 0.25691 0.80639 0.0
H331 H 0.57825 0.29607 0.8018 0.0
H332 H 0.61479 0.40936 0.62531 0.0
H333 H 0.56255 0.40673 0.575 0.0
C334 C 0.51052 0.34242 0.62928 0.0
C335 C 0.4852 0.30782 0.66416 0.0
C336 C 0.54037 0.34741 0.65857 0.0
C337 C 0.49039 0.27703 0.72821 0.0
C338 C 0.52002 0.28115 0.75718 0.0
C339 C 0.57479 0.32123 0.75269 0.0
C340 C 0.60038 0.35366 0.71764 0.0
C341 C 0.54506 0.31683 0.72326 0.0
C342 C 0.59545 0.38458 0.65349 0.0
C343 C 0.56565 0.38243 0.62453 0.0
H344 H 0.08605 0.69901 0.77247 0.0
H345 H 0.04794 0.47109 0.71857 0.0
H346 H 1.00216 0.4963 0.78892 0.0
H347 H 0.97138 0.58722 0.85864 0.0
H348 H 1.00855 0.81953 0.90445 0.0
H349 H 0.05615 0.78782 0.84449 0.0
C350 C 0.0677 0.65487 0.77559 0.0
C351 C 0.07033 0.58376 0.73922 0.0
C352 C 0.04111 0.67061 0.81462 0.0
C353 C 0.04668 0.52629 0.74594 0.0
C354 C 1.02035 0.54095 0.78586 0.0
C355 C 0.98965 0.63143 0.85558 0.0
C356 C 0.98557 0.70642 0.8859 0.0
C357 C 1.01701 0.61369 0.81929 0.0
C358 C 1.01037 0.76138 0.8822 0.0
C359 C 0.03783 0.74349 0.84738 0.0
H360 H 0.48312 0.90646 0.19298 0.0
H361 H 0.49494 0.65543 0.2307 0.0
H362 H 0.53841 0.68336 0.30428 0.0
H363 H 0.57156 0.77827 0.36229 0.0
H364 H 0.55903 0.02934 0.33017 0.0
H365 H 0.51673 0.00209 0.25128 0.0
C366 C 0.49493 0.85766 0.21751 0.0
C367 C 0.48542 0.77874 0.2056 0.0
C368 C 0.51968 0.87415 0.26135 0.0
C369 C 0.50166 0.71667 0.23753 0.0
C370 C 0.52651 0.73256 0.28034 0.0
C371 C 0.55995 0.82711 0.33739 0.0
C372 C 0.56863 0.90578 0.35177 0.0
C373 C 0.53557 0.81097 0.29292 0.0
C374 C 0.55272 0.96834 0.32012 0.0
C375 C 0.52861 0.9527 0.27497 0.0
H376 H 1.02685 0.26954 0.10702 0.0
H377 H 0.08966 0.20843 0.94663 0.0
H378 H 0.04956 0.12309 0.89763 0.0
H379 H 0.99874 0.05481 0.90739 0.0
H380 H 0.93809 0.10886 0.07366 0.0
H381 H 0.97494 0.20783 0.11309 0.0
C382 C 0.03155 0.23876 0.06072 0.0
C383 C 0.06129 0.24477 0.0308 0.0
C384 C 1.00884 0.18746 0.03441 0.0
C385 C 0.06701 0.20417 0.97082 0.0
C386 C 0.04415 0.15515 0.94302 0.0
C387 C 0.99342 0.08889 0.95183 0.0
C388 C 0.96562 0.07391 0.98759 0.0
C389 C 1.01531 0.1444 0.9755 0.0
C390 C 0.95927 0.11844 0.04529 0.0
C391 C 0.98042 0.17527 0.06799 0.0
H392 H 0.57087 0.66432 0.43934 0.0
H393 H 0.60721 0.63652 0.63789 0.0
H394 H 0.55594 0.58969 0.67678 0.0
H395 H 0.49973 0.56636 0.65552 0.0
H396 H 0.46345 0.60355 0.45763 0.0
H397 H 0.5154 0.63946 0.4179 0.0
C398 C 0.56771 0.64686 0.4909 0.0
C399 C 0.59282 0.65322 0.53559 0.0
C400 C 0.53791 0.62379 0.51341 0.0
C401 C 0.58823 0.6317 0.60253 0.0
C402 C 0.55888 0.60555 0.62482 0.0
C403 C 0.50323 0.58209 0.6037 0.0
C404 C 0.47748 0.5831 0.56 0.0
C405 C 0.53335 0.60307 0.58099 0.0
C406 C 0.4825 0.60397 0.49293 0.0
C407 C 0.51237 0.62368 0.46985 0.0
H408 H 0.48296 0.44919 0.06342 0.0
H409 H 0.41934 0.34078 0.92418 0.0
H410 H 0.45879 0.24105 0.89616 0.0
H411 H 0.51261 0.19018 0.90519 0.0
H412 H 0.5772 0.30376 0.039 0.0
H413 H 0.53587 0.39348 0.07686 0.0
C414 C 0.47759 0.40336 0.02738 0.0
C415 C 0.44822 0.4031 0.99573 0.0
C416 C 0.50058 0.34661 1.01066 0.0
C417 C 0.44175 0.34294 0.94921 0.0
C418 C 0.46432 0.28563 0.93314 0.0
C419 C 0.51769 0.23414 0.94285 0.0
C420 C 0.5484 0.24162 0.96746 0.0
C421 C 0.49402 0.28765 0.9627 0.0
C422 C 0.55408 0.29791 0.01772 0.0
C423 C 0.53043 0.34942 0.0394 0.0
H424 H 0.05067 0.64351 0.45275 0.0
H425 H 0.09645 0.86895 0.48157 0.0
H426 H 0.04881 0.93803 0.44485 0.0
H427 H 0.9934 0.93362 0.40859 0.0
H428 H 0.94805 0.70697 0.38497 0.0
H429 H 0.99646 0.63886 0.41597 0.0
C430 C 0.05049 0.70785 0.45072 0.0
C431 C 0.07726 0.75091 0.46984 0.0
C432 C 1.02302 0.74683 0.43074 0.0
C433 C 0.07626 0.83427 0.46717 0.0
C434 C 0.04901 0.87374 0.4462 0.0
C435 C 0.99427 0.86932 0.40939 0.0
C436 C 0.96713 0.82522 0.39423 0.0
C437 C 1.02216 0.83057 0.42833 0.0
C438 C 0.96849 0.74203 0.39678 0.0
C439 C 0.99618 0.70318 0.41435 0.0
loop_
_geom_bond_atom_site_label_1
_geom_bond_atom_site_label_2
_geom_bond_distance
_geom_bond_site_symmetry_2
_ccdc_geom_bond_type
Cu0 N1 1.999 . S
Cu0 O6 1.974 . S
Cu0 N11 1.985 . S
Cu0 O20 1.959 . S
N1 Cu0 1.999 . S
N1 C3 1.263 . S
N1 C5 1.389 . S
N2 C3 1.358 . S
N2 C4 1.400 . S
C3 N1 1.263 . S
C3 N2 1.358 . S
C3 H9 0.930 . S
C4 N2 1.400 . S
C4 C5 1.351 . S
C4 H21 0.930 . S
C5 N1 1.389 . S
C5 C4 1.351 . S
C5 H10 0.930 . S
O6 Cu0 1.974 . S
O6 C16 1.282 . S
C7 O8 1.261 . S
C7 O20 1.251 . S
O8 C7 1.261 . S
H9 C3 0.930 . S
H10 C5 0.930 . S
N11 Cu0 1.985 . S
N11 C13 1.335 . S
N11 C14 1.390 . S
N12 C13 1.345 . S
N12 C15 1.336 1_554 S
C13 N11 1.335 . S
C13 N12 1.345 . S
C13 H18 0.930 . S
C14 N11 1.390 . S
C14 C15 1.346 1_554 S
C14 H19 0.930 . S
C15 N12 1.336 1_556 S
C15 C14 1.346 1_556 S
C15 H22 0.929 . S
C16 O6 1.282 . S
C16 O17 1.216 . S
O17 C16 1.216 . S
H18 C13 0.930 . S
H19 C14 0.930 . S
O20 Cu0 1.959 . S
O20 C7 1.251 . S
H21 C4 0.930 . S
H22 C15 0.929 . S
Cu23 N24 1.999 . S
Cu23 O29 1.974 . S
Cu23 N34 1.985 . S
Cu23 O43 1.959 . S
N24 Cu23 1.999 . S
N24 C26 1.263 . S
N24 C28 1.389 . S
N25 C26 1.358 . S
N25 C27 1.400 . S
C26 N24 1.263 . S
C26 N25 1.358 . S
C26 H32 0.930 . S
C27 N25 1.400 . S
C27 C28 1.351 . S
C27 H44 0.930 . S
C28 N24 1.389 . S
C28 C27 1.351 . S
C28 H33 0.930 . S
O29 Cu23 1.974 . S
O29 C39 1.282 . S
C30 O31 1.261 . S
C30 O43 1.251 . S
O31 C30 1.261 . S
H32 C26 0.930 . S
H33 C28 0.930 . S
N34 Cu23 1.985 . S
N34 C36 1.335 . S
N34 C37 1.390 . S
N35 C36 1.345 . S
N35 C38 1.336 . S
C36 N34 1.335 . S
C36 N35 1.345 . S
C36 H41 0.930 . S
C37 N34 1.390 . S
C37 C38 1.346 . S
C37 H42 0.930 . S
C38 N35 1.336 . S
C38 C37 1.346 . S
C38 H45 0.929 . S
C39 O29 1.282 . S
C39 O40 1.216 . S
O40 C39 1.216 . S
H41 C36 0.930 . S
H42 C37 0.930 . S
O43 Cu23 1.959 . S
O43 C30 1.251 . S
H44 C27 0.930 . S
H45 C38 0.929 . S
Cu46 N47 1.999 . S
Cu46 O52 1.974 . S
Cu46 N57 1.985 . S
Cu46 O66 1.959 . S
N47 Cu46 1.999 . S
N47 C49 1.263 . S
N47 C51 1.389 . S
N48 C49 1.358 . S
N48 C50 1.400 . S
C49 N47 1.263 . S
C49 N48 1.358 . S
C49 H55 0.930 . S
C50 N48 1.400 . S
C50 C51 1.351 . S
C50 H67 0.930 . S
C51 N47 1.389 . S
C51 C50 1.351 . S
C51 H56 0.930 . S
O52 Cu46 1.974 . S
O52 C62 1.282 . S
C53 O54 1.261 . S
C53 O66 1.251 . S
O54 C53 1.261 . S
H55 C49 0.930 . S
H56 C51 0.930 . S
N57 Cu46 1.985 . S
N57 C59 1.335 . S
N57 C60 1.390 . S
N58 C59 1.345 . S
N58 C61 1.336 1_556 S
C59 N57 1.335 . S
C59 N58 1.345 . S
C59 H64 0.930 . S
C60 N57 1.390 . S
C60 C61 1.346 1_556 S
C60 H65 0.930 . S
C61 N58 1.336 1_554 S
C61 C60 1.346 1_554 S
C61 H68 0.929 . S
C62 O52 1.282 . S
C62 O63 1.216 . S
O63 C62 1.216 . S
H64 C59 0.930 . S
H65 C60 0.930 . S
O66 Cu46 1.959 . S
O66 C53 1.251 . S
H67 C50 0.930 . S
H68 C61 0.929 . S
Cu69 N70 1.999 . S
Cu69 O75 1.974 . S
Cu69 N80 1.985 . S
Cu69 O89 1.959 . S
N70 Cu69 1.999 . S
N70 C72 1.263 . S
N70 C74 1.389 . S
N71 C72 1.358 . S
N71 C73 1.400 . S
C72 N70 1.263 . S
C72 N71 1.358 . S
C72 H78 0.930 . S
C73 N71 1.400 . S
C73 C74 1.351 . S
C73 H90 0.930 . S
C74 N70 1.389 . S
C74 C73 1.351 . S
C74 H79 0.930 . S
O75 Cu69 1.974 . S
O75 C85 1.282 . S
C76 O77 1.261 . S
C76 O89 1.251 . S
O77 C76 1.261 . S
H78 C72 0.930 . S
H79 C74 0.930 . S
N80 Cu69 1.985 . S
N80 C82 1.335 . S
N80 C83 1.390 . S
N81 C82 1.345 1_565 S
N81 C84 1.336 1_565 S
C82 N80 1.335 . S
C82 N81 1.345 1_545 S
C82 H87 0.930 1_545 S
C83 N80 1.390 . S
C83 C84 1.346 . S
C83 H88 0.930 . S
C84 N81 1.336 1_545 S
C84 C83 1.346 . S
C84 H91 0.929 1_545 S
C85 O75 1.282 . S
C85 O86 1.216 . S
O86 C85 1.216 . S
H87 C82 0.930 1_565 S
H88 C83 0.930 . S
O89 Cu69 1.959 . S
O89 C76 1.251 . S
H90 C73 0.930 . S
H91 C84 0.929 1_565 S
Cu92 N93 1.999 . S
Cu92 O98 1.974 . S
Cu92 N103 1.985 1_565 S
Cu92 O112 1.959 . S
N93 Cu92 1.999 . S
N93 C95 1.263 . S
N93 C97 1.389 . S
N94 C95 1.358 . S
N94 C96 1.400 . S
C95 N93 1.263 . S
C95 N94 1.358 . S
C95 H101 0.930 . S
C96 N94 1.400 . S
C96 C97 1.351 . S
C96 H113 0.930 . S
C97 N93 1.389 . S
C97 C96 1.351 . S
C97 H102 0.930 . S
O98 Cu92 1.974 . S
O98 C108 1.282 1_565 S
C99 O100 1.261 1_565 S
C99 O112 1.251 . S
O100 C99 1.261 1_545 S
H101 C95 0.930 . S
H102 C97 0.930 . S
N103 Cu92 1.985 1_545 S
N103 C105 1.335 1_546 S
N103 C106 1.390 1_556 S
N104 C105 1.345 1_545 S
N104 C107 1.336 . S
C105 N103 1.335 1_564 S
C105 N104 1.345 1_565 S
C105 H110 0.930 1_554 S
C106 N103 1.390 1_554 S
C106 C107 1.346 . S
C106 H111 0.930 . S
C107 N104 1.336 . S
C107 C106 1.346 . S
C107 H114 0.929 . S
C108 O98 1.282 1_545 S
C108 O109 1.216 . S
O109 C108 1.216 . S
H110 C105 0.930 1_556 S
H111 C106 0.930 . S
O112 Cu92 1.959 . S
O112 C99 1.251 . S
H113 C96 0.930 . S
H114 C107 0.929 . S
Cu115 N116 1.999 . S
Cu115 O121 1.974 . S
Cu115 N126 1.985 . S
Cu115 O135 1.959 1_565 S
N116 Cu115 1.999 . S
N116 C118 1.263 . S
N116 C120 1.389 1_565 S
N117 C118 1.358 . S
N117 C119 1.400 . S
C118 N116 1.263 . S
C118 N117 1.358 . S
C118 H124 0.930 . S
C119 N117 1.400 . S
C119 C120 1.351 1_565 S
C119 H136 0.930 1_565 S
C120 N116 1.389 1_545 S
C120 C119 1.351 1_545 S
C120 H125 0.930 . S
O121 Cu115 1.974 . S
O121 C131 1.282 . S
C122 O123 1.261 . S
C122 O135 1.251 1_565 S
O123 C122 1.261 . S
H124 C118 0.930 . S
H125 C120 0.930 . S
N126 Cu115 1.985 . S
N126 C128 1.335 1_565 S
N126 C129 1.390 . S
N127 C128 1.345 1_565 S
N127 C130 1.336 . S
C128 N126 1.335 1_545 S
C128 N127 1.345 1_545 S
C128 H133 0.930 . S
C129 N126 1.390 . S
C129 C130 1.346 . S
C129 H134 0.930 . S
C130 N127 1.336 . S
C130 C129 1.346 . S
C130 H137 0.929 . S
C131 O121 1.282 . S
C131 O132 1.216 . S
O132 C131 1.216 . S
H133 C128 0.930 . S
H134 C129 0.930 . S
O135 Cu115 1.959 1_545 S
O135 C122 1.251 1_545 S
H136 C119 0.930 1_545 S
H137 C130 0.929 . S
Cu138 N139 1.999 . S
Cu138 O144 1.974 . S
Cu138 N149 1.985 . S
Cu138 O158 1.959 . S
N139 Cu138 1.999 . S
N139 C141 1.263 . S
N139 C143 1.389 . S
N140 C141 1.358 . S
N140 C142 1.400 . S
C141 N139 1.263 . S
C141 N140 1.358 . S
C141 H147 0.930 . S
C142 N140 1.400 . S
C142 C143 1.351 . S
C142 H159 0.930 . S
C143 N139 1.389 . S
C143 C142 1.351 . S
C143 H148 0.930 . S
O144 Cu138 1.974 . S
O144 C154 1.282 . S
C145 O146 1.261 . S
C145 O158 1.251 . S
O146 C145 1.261 . S
H147 C141 0.930 . S
H148 C143 0.930 . S
N149 Cu138 1.985 . S
N149 C151 1.335 1_554 S
N149 C152 1.390 1_554 S
N150 C151 1.345 . S
N150 C153 1.336 . S
C151 N149 1.335 1_556 S
C151 N150 1.345 . S
C151 H156 0.930 1_556 S
C152 N149 1.390 1_556 S
C152 C153 1.346 . S
C152 H157 0.930 . S
C153 N150 1.336 . S
C153 C152 1.346 . S
C153 H160 0.929 . S
C154 O144 1.282 . S
C154 O155 1.216 . S
O155 C154 1.216 . S
H156 C151 0.930 1_554 S
H157 C152 0.930 . S
O158 Cu138 1.959 . S
O158 C145 1.251 . S
H159 C142 0.930 . S
H160 C153 0.929 . S
Cu161 N162 1.999 . S
Cu161 O167 1.974 . S
Cu161 N172 1.985 . S
Cu161 O181 1.959 . S
N162 Cu161 1.999 . S
N162 C164 1.263 . S
N162 C166 1.389 . S
N163 C164 1.358 . S
N163 C165 1.400 . S
C164 N162 1.263 . S
C164 N163 1.358 . S
C164 H170 0.930 . S
C165 N163 1.400 . S
C165 C166 1.351 . S
C165 H182 0.930 . S
C166 N162 1.389 . S
C166 C165 1.351 . S
C166 H171 0.930 . S
O167 Cu161 1.974 . S
O167 C177 1.282 . S
C168 O169 1.261 . S
C168 O181 1.251 . S
O169 C168 1.261 . S
H170 C164 0.930 . S
H171 C166 0.930 . S
N172 Cu161 1.985 . S
N172 C174 1.335 . S
N172 C175 1.390 . S
N173 C174 1.345 . S
N173 C176 1.336 . S
C174 N172 1.335 . S
C174 N173 1.345 . S
C174 H179 0.930 . S
C175 N172 1.390 . S
C175 C176 1.346 . S
C175 H180 0.930 . S
C176 N173 1.336 . S
C176 C175 1.346 . S
C176 H183 0.929 . S
C177 O167 1.282 . S
C177 O178 1.216 . S
O178 C177 1.216 . S
H179 C174 0.930 . S
H180 C175 0.930 . S
O181 Cu161 1.959 . S
O181 C168 1.251 . S
H182 C165 0.930 . S
H183 C176 0.929 . S
H184 C190 0.930 . S
H185 C193 0.930 . S
H186 C194 0.930 . S
H187 C195 0.930 1_554 S
H188 C198 0.930 . S
H189 C199 0.930 . S
C190 H184 0.930 . S
C190 C191 1.355 . S
C190 C192 1.415 . S
C191 C190 1.355 . S
C191 C193 1.419 . S
C192 C190 1.415 . S
C192 C197 1.425 . S
C192 C199 1.409 . S
C193 H185 0.930 . S
C193 C191 1.419 . S
C193 C194 1.362 . S
C194 H186 0.930 . S
C194 C193 1.362 . S
C194 C197 1.409 . S
C195 H187 0.930 1_556 S
C195 C196 1.355 1_556 S
C195 C197 1.415 . S
C196 C195 1.355 1_554 S
C196 C198 1.419 1_554 S
C197 C192 1.425 . S
C197 C194 1.409 . S
C197 C195 1.415 . S
C198 H188 0.930 . S
C198 C196 1.419 1_556 S
C198 C199 1.362 . S
C199 H189 0.930 . S
C199 C192 1.409 . S
C199 C198 1.362 . S
H200 C206 0.930 . S
H201 C209 0.930 . S
H202 C210 0.930 . S
H203 C211 0.930 . S
H204 C214 0.930 . S
H205 C215 0.930 . S
C206 H200 0.930 . S
C206 C207 1.355 . S
C206 C208 1.415 . S
C207 C206 1.355 . S
C207 C209 1.419 . S
C208 C206 1.415 . S
C208 C213 1.425 . S
C208 C215 1.409 . S
C209 H201 0.930 . S
C209 C207 1.419 . S
C209 C210 1.362 . S
C210 H202 0.930 . S
C210 C209 1.362 . S
C210 C213 1.409 . S
C211 H203 0.930 . S
C211 C212 1.355 . S
C211 C213 1.415 . S
C212 C211 1.355 . S
C212 C214 1.419 . S
C213 C208 1.425 . S
C213 C210 1.409 . S
C213 C211 1.415 . S
C214 H204 0.930 . S
C214 C212 1.419 . S
C214 C215 1.362 . S
C215 H205 0.930 . S
C215 C208 1.409 . S
C215 C214 1.362 . S
H216 C222 0.930 . S
H217 C225 0.930 . S
H218 C226 0.930 . S
H219 C227 0.930 1_556 S
H220 C230 0.930 . S
H221 C231 0.930 . S
C222 H216 0.930 . S
C222 C223 1.355 . S
C222 C224 1.415 . S
C223 C222 1.355 . S
C223 C225 1.419 . S
C224 C222 1.415 . S
C224 C229 1.425 . S
C224 C231 1.409 . S
C225 H217 0.930 . S
C225 C223 1.419 . S
C225 C226 1.362 . S
C226 H218 0.930 . S
C226 C225 1.362 . S
C226 C229 1.409 . S
C227 H219 0.930 1_554 S
C227 C228 1.355 1_554 S
C227 C229 1.415 . S
C228 C227 1.355 1_556 S
C228 C230 1.419 1_556 S
C229 C224 1.425 . S
C229 C226 1.409 . S
C229 C227 1.415 . S
C230 H220 0.930 . S
C230 C228 1.419 1_554 S
C230 C231 1.362 . S
C231 H221 0.930 . S
C231 C224 1.409 . S
C231 C230 1.362 . S
H232 C238 0.930 1_565 S
H233 C241 0.930 . S
H234 C242 0.930 . S
H235 C243 0.930 . S
H236 C246 0.930 1_565 S
H237 C247 0.930 . S
C238 H232 0.930 1_545 S
C238 C239 1.355 . S
C238 C240 1.415 . S
C239 C238 1.355 . S
C239 C241 1.419 . S
C240 C238 1.415 . S
C240 C245 1.425 . S
C240 C247 1.409 1_545 S
C241 H233 0.930 . S
C241 C239 1.419 . S
C241 C242 1.362 . S
C242 H234 0.930 . S
C242 C241 1.362 . S
C242 C245 1.409 . S
C243 H235 0.930 . S
C243 C244 1.355 . S
C243 C245 1.415 . S
C244 C243 1.355 . S
C244 C246 1.419 . S
C245 C240 1.425 . S
C245 C242 1.409 . S
C245 C243 1.415 . S
C246 H236 0.930 1_545 S
C246 C244 1.419 . S
C246 C247 1.362 1_545 S
C247 H237 0.930 . S
C247 C240 1.409 1_565 S
C247 C246 1.362 1_565 S
H248 C254 0.930 . S
H249 C257 0.930 . S
H250 C258 0.930 . S
H251 C259 0.930 . S
H252 C262 0.930 . S
H253 C263 0.930 . S
C254 H248 0.930 . S
C254 C255 1.355 1_565 S
C254 C256 1.415 . S
C255 C254 1.355 1_545 S
C255 C257 1.419 . S
C256 C254 1.415 . S
C256 C261 1.425 1_565 S
C256 C263 1.409 . S
C257 H249 0.930 . S
C257 C255 1.419 . S
C257 C258 1.362 . S
C258 H250 0.930 . S
C258 C257 1.362 . S
C258 C261 1.409 . S
C259 H251 0.930 . S
C259 C260 1.355 1_545 S
C259 C261 1.415 . S
C260 C259 1.355 1_565 S
C260 C262 1.419 . S
C261 C256 1.425 1_545 S
C261 C258 1.409 . S
C261 C259 1.415 . S
C262 H252 0.930 . S
C262 C260 1.419 . S
C262 C263 1.362 . S
C263 H253 0.930 . S
C263 C256 1.409 . S
C263 C262 1.362 . S
H264 C270 0.930 . S
H265 C273 0.930 . S
H266 C274 0.930 . S
H267 C275 0.930 . S
H268 C278 0.930 . S
H269 C279 0.930 . S
C270 H264 0.930 . S
C270 C271 1.355 1_565 S
C270 C272 1.415 . S
C271 C270 1.355 1_545 S
C271 C273 1.419 . S
C272 C270 1.415 . S
C272 C277 1.425 1_565 S
C272 C279 1.409 . S
C273 H265 0.930 . S
C273 C271 1.419 . S
C273 C274 1.362 . S
C274 H266 0.930 . S
C274 C273 1.362 . S
C274 C277 1.409 . S
C275 H267 0.930 . S
C275 C276 1.355 1_545 S
C275 C277 1.415 . S
C276 C275 1.355 1_565 S
C276 C278 1.419 . S
C277 C272 1.425 1_545 S
C277 C274 1.409 . S
C277 C275 1.415 . S
C278 H268 0.930 . S
C278 C276 1.419 . S
C278 C279 1.362 . S
C279 H269 0.930 . S
C279 C272 1.409 . S
C279 C278 1.362 . S
H280 C286 0.930 . S
H281 C289 0.930 . S
H282 C290 0.930 . S
H283 C291 0.930 . S
H284 C294 0.930 . S
H285 C295 0.930 . S
C286 H280 0.930 . S
C286 C287 1.355 . S
C286 C288 1.415 . S
C287 C286 1.355 . S
C287 C289 1.419 . S
C288 C286 1.415 . S
C288 C293 1.425 . S
C288 C295 1.409 . S
C289 H281 0.930 . S
C289 C287 1.419 . S
C289 C290 1.362 . S
C290 H282 0.930 . S
C290 C289 1.362 . S
C290 C293 1.409 . S
C291 H283 0.930 . S
C291 C292 1.355 . S
C291 C293 1.415 . S
C292 C291 1.355 . S
C292 C294 1.419 . S
C293 C288 1.425 . S
C293 C290 1.409 . S
C293 C291 1.415 . S
C294 H284 0.930 . S
C294 C292 1.419 . S
C294 C295 1.362 . S
C295 H285 0.930 . S
C295 C288 1.409 . S
C295 C294 1.362 . S
H296 C302 0.930 . S
H297 C305 0.930 . S
H298 C306 0.930 . S
H299 C307 0.930 . S
H300 C310 0.930 . S
H301 C311 0.930 . S
C302 H296 0.930 . S
C302 C303 1.355 . S
C302 C304 1.415 . S
C303 C302 1.355 . S
C303 C305 1.419 . S
C304 C302 1.415 . S
C304 C309 1.425 . S
C304 C311 1.409 . S
C305 H297 0.930 . S
C305 C303 1.419 . S
C305 C306 1.362 . S
C306 H298 0.930 . S
C306 C305 1.362 . S
C306 C309 1.409 . S
C307 H299 0.930 . S
C307 C308 1.355 . S
C307 C309 1.415 . S
C308 C307 1.355 . S
C308 C310 1.419 . S
C309 C304 1.425 . S
C309 C306 1.409 . S
C309 C307 1.415 . S
C310 H300 0.930 . S
C310 C308 1.419 . S
C310 C311 1.362 . S
C311 H301 0.930 . S
C311 C304 1.409 . S
C311 C310 1.362 . S
H312 C318 0.930 . S
H313 C321 0.930 . S
H314 C322 0.930 . S
H315 C323 0.930 . S
H316 C326 0.930 . S
H317 C327 0.930 . S
C318 H312 0.930 . S
C318 C319 1.355 . S
C318 C320 1.415 . S
C319 C318 1.355 . S
C319 C321 1.419 . S
C320 C318 1.415 . S
C320 C325 1.425 . S
C320 C327 1.409 . S
C321 H313 0.930 . S
C321 C319 1.419 . S
C321 C322 1.362 . S
C322 H314 0.930 . S
C322 C321 1.362 . S
C322 C325 1.409 . S
C323 H315 0.930 . S
C323 C324 1.355 . S
C323 C325 1.415 1_655 S
C324 C323 1.355 . S
C324 C326 1.419 . S
C325 C320 1.425 . S
C325 C322 1.409 . S
C325 C323 1.415 1_455 S
C326 H316 0.930 . S
C326 C324 1.419 . S
C326 C327 1.362 1_655 S
C327 H317 0.930 . S
C327 C320 1.409 . S
C327 C326 1.362 1_455 S
H328 C334 0.930 . S
H329 C337 0.930 . S
H330 C338 0.930 . S
H331 C339 0.930 . S
H332 C342 0.930 . S
H333 C343 0.930 . S
C334 H328 0.930 . S
C334 C335 1.355 . S
C334 C336 1.415 . S
C335 C334 1.355 . S
C335 C337 1.419 . S
C336 C334 1.415 . S
C336 C341 1.425 . S
C336 C343 1.409 . S
C337 H329 0.930 . S
C337 C335 1.419 . S
C337 C338 1.362 . S
C338 H330 0.930 . S
C338 C337 1.362 . S
C338 C341 1.409 . S
C339 H331 0.930 . S
C339 C340 1.355 . S
C339 C341 1.415 . S
C340 C339 1.355 . S
C340 C342 1.419 . S
C341 C336 1.425 . S
C341 C338 1.409 . S
C341 C339 1.415 . S
C342 H332 0.930 . S
C342 C340 1.419 . S
C342 C343 1.362 . S
C343 H333 0.930 . S
C343 C336 1.409 . S
C343 C342 1.362 . S
H344 C350 0.930 . S
H345 C353 0.930 . S
H346 C354 0.930 . S
H347 C355 0.930 . S
H348 C358 0.930 . S
H349 C359 0.930 . S
C350 H344 0.930 . S
C350 C351 1.355 . S
C350 C352 1.415 . S
C351 C350 1.355 . S
C351 C353 1.419 1_455 S
C352 C350 1.415 . S
C352 C357 1.425 1_455 S
C352 C359 1.409 . S
C353 H345 0.930 . S
C353 C351 1.419 1_655 S
C353 C354 1.362 . S
C354 H346 0.930 . S
C354 C353 1.362 . S
C354 C357 1.409 . S
C355 H347 0.930 . S
C355 C356 1.355 . S
C355 C357 1.415 . S
C356 C355 1.355 . S
C356 C358 1.419 . S
C357 C352 1.425 1_655 S
C357 C354 1.409 . S
C357 C355 1.415 . S
C358 H348 0.930 . S
C358 C356 1.419 . S
C358 C359 1.362 1_655 S
C359 H349 0.930 . S
C359 C352 1.409 . S
C359 C358 1.362 1_455 S
H360 C366 0.930 . S
H361 C369 0.930 . S
H362 C370 0.930 . S
H363 C371 0.930 . S
H364 C374 0.930 . S
H365 C375 0.930 . S
C366 H360 0.930 . S
C366 C367 1.355 . S
C366 C368 1.415 . S
C367 C366 1.355 . S
C367 C369 1.419 . S
C368 C366 1.415 . S
C368 C373 1.425 . S
C368 C375 1.409 . S
C369 H361 0.930 . S
C369 C367 1.419 . S
C369 C370 1.362 . S
C370 H362 0.930 . S
C370 C369 1.362 . S
C370 C373 1.409 . S
C371 H363 0.930 . S
C371 C372 1.355 . S
C371 C373 1.415 . S
C372 C371 1.355 . S
C372 C374 1.419 . S
C373 C368 1.425 . S
C373 C370 1.409 . S
C373 C371 1.415 . S
C374 H364 0.930 . S
C374 C372 1.419 . S
C374 C375 1.362 . S
C375 H365 0.930 . S
C375 C368 1.409 . S
C375 C374 1.362 . S
H376 C382 0.930 . S
H377 C385 0.930 . S
H378 C386 0.930 . S
H379 C387 0.930 . S
H380 C390 0.930 . S
H381 C391 0.930 . S
C382 H376 0.930 . S
C382 C383 1.355 . S
C382 C384 1.415 1_455 S
C383 C382 1.355 . S
C383 C385 1.419 1_554 S
C384 C382 1.415 1_655 S
C384 C389 1.425 1_554 S
C384 C391 1.409 . S
C385 H377 0.930 . S
C385 C383 1.419 1_556 S
C385 C386 1.362 . S
C386 H378 0.930 . S
C386 C385 1.362 . S
C386 C389 1.409 1_455 S
C387 H379 0.930 . S
C387 C388 1.355 1_556 S
C387 C389 1.415 . S
C388 C387 1.355 1_554 S
C388 C390 1.419 . S
C389 C384 1.425 1_556 S
C389 C386 1.409 1_655 S
C389 C387 1.415 . S
C390 H380 0.930 . S
C390 C388 1.419 . S
C390 C391 1.362 . S
C391 H381 0.930 . S
C391 C384 1.409 . S
C391 C390 1.362 . S
H392 C398 0.930 . S
H393 C401 0.930 . S
H394 C402 0.930 . S
H395 C403 0.930 . S
H396 C406 0.930 . S
H397 C407 0.930 . S
C398 H392 0.930 . S
C398 C399 1.355 . S
C398 C400 1.415 . S
C399 C398 1.355 . S
C399 C401 1.419 . S
C400 C398 1.415 . S
C400 C405 1.425 . S
C400 C407 1.409 . S
C401 H393 0.930 . S
C401 C399 1.419 . S
C401 C402 1.362 . S
C402 H394 0.930 . S
C402 C401 1.362 . S
C402 C405 1.409 . S
C403 H395 0.930 . S
C403 C404 1.355 . S
C403 C405 1.415 . S
C404 C403 1.355 . S
C404 C406 1.419 . S
C405 C400 1.425 . S
C405 C402 1.409 . S
C405 C403 1.415 . S
C406 H396 0.930 . S
C406 C404 1.419 . S
C406 C407 1.362 . S
C407 H397 0.930 . S
C407 C400 1.409 . S
C407 C406 1.362 . S
H408 C414 0.930 . S
H409 C417 0.930 . S
H410 C418 0.930 . S
H411 C419 0.930 . S
H412 C422 0.930 . S
H413 C423 0.930 . S
C414 H408 0.930 . S
C414 C415 1.355 1_554 S
C414 C416 1.415 . S
C415 C414 1.355 1_556 S
C415 C417 1.419 . S
C416 C414 1.415 . S
C416 C421 1.423 1_554 S
C416 C423 1.411 . S
C417 H409 0.930 . S
C417 C415 1.419 . S
C417 C418 1.362 . S
C418 H410 0.930 . S
C418 C417 1.362 . S
C418 C421 1.409 . S
C419 H411 0.930 . S
C419 C420 1.355 . S
C419 C421 1.415 . S
C420 C419 1.355 . S
C420 C422 1.419 1_556 S
C421 C416 1.423 1_556 S
C421 C418 1.409 . S
C421 C419 1.415 . S
C422 H412 0.930 . S
C422 C420 1.419 1_554 S
C422 C423 1.362 . S
C423 H413 0.930 . S
C423 C416 1.411 . S
C423 C422 1.362 . S
H424 C430 0.930 . S
H425 C433 0.930 . S
H426 C434 0.930 . S
H427 C435 0.930 . S
H428 C438 0.930 . S
H429 C439 0.930 . S
C430 H424 0.930 . S
C430 C431 1.355 . S
C430 C432 1.415 . S
C431 C430 1.355 . S
C431 C433 1.419 . S
C432 C430 1.415 . S
C432 C437 1.425 . S
C432 C439 1.409 1_455 S
C433 H425 0.930 . S
C433 C431 1.419 . S
C433 C434 1.362 . S
C434 H426 0.930 . S
C434 C433 1.362 . S
C434 C437 1.409 . S
C435 H427 0.930 . S
C435 C436 1.355 1_455 S
C435 C437 1.415 . S
C436 C435 1.355 1_655 S
C436 C438 1.419 . S
C437 C432 1.425 . S
C437 C434 1.409 . S
C437 C435 1.415 . S
C438 H428 0.930 . S
C438 C436 1.419 . S
C438 C439 1.362 . S
C439 H429 0.930 . S
C439 C432 1.409 1_655 S
C439 C438 1.362 . S
C191 N25 1.892 . S
C196 C16 2.068 . S
C207 N2 1.816 . S
C212 C39 1.830 . S
C223 N71 1.845 . S
C228 C62 2.060 . S
C239 N48 1.781 . S
C244 C85 1.876 . S
C255 N104 1.891 . S
C260 C122 1.907 . S
C271 N127 1.781 1_545 S
C276 C99 1.854 . S
C287 N150 1.904 . S
C292 C168 1.928 . S
C303 C145 1.826 . S
C308 N173 1.732 . S
C319 C7 1.446 . S
C324 C76 1.453 . S
C335 C30 1.442 . S
C340 C53 1.438 . S
C351 N163 1.424 . S
C356 N94 1.305 . S
C367 N140 1.242 . S
C372 N117 1.415 . S
C383 N12 1.432 . S
C388 C108 1.376 1_554 S
C399 C131 1.546 . S
C404 N35 1.598 . S
C415 C154 1.352 1_556 S
C420 N58 1.424 . S
C431 C177 1.490 . S
C436 N81 1.545 . S
