# Generated by pormake.
# Topology pem, (4)-cn, num edge types: 1
# Building blocks:
#     Node 0, Type 0, BuildingBlock: UXUYUI_clean_sbu_0, # of connection points: 4
#     Node 1, Type 0, BuildingBlock: UXUYUI_clean_sbu_0, # of connection points: 4
#     Node 2, Type 0, BuildingBlock: UXUYUI_clean_sbu_0, # of connection points: 4
#     Node 3, Type 0, BuildingBlock: UXUYUI_clean_sbu_0, # of connection points: 4
#     Node 4, Type 0, BuildingBlock: UXUYUI_clean_sbu_0, # of connection points: 4
#     Node 5, Type 0, BuildingBlock: UXUYUI_clean_sbu_0, # of connection points: 4
#     Node 6, Type 0, BuildingBlock: UXUYUI_clean_sbu_0, # of connection points: 4
#     Node 7, Type 0, BuildingBlock: UXUYUI_clean_sbu_0, # of connection points: 4
#     Node 8, Type 0, BuildingBlock: UXUYUI_clean_sbu_0, # of connection points: 4
#     Node 9, Type 0, BuildingBlock: UXUYUI_clean_sbu_0, # of connection points: 4
#     Node 10, Type 0, BuildingBlock: UXUYUI_clean_sbu_0, # of connection points: 4
#     Node 11, Type 0, BuildingBlock: UXUYUI_clean_sbu_0, # of connection points: 4
#     Node 12, Type 0, BuildingBlock: UXUYUI_clean_sbu_0, # of connection points: 4
#     Node 13, Type 0, BuildingBlock: UXUYUI_clean_sbu_0, # of connection points: 4
#     Node 14, Type 0, BuildingBlock: UXUYUI_clean_sbu_0, # of connection points: 4
#     Node 15, Type 0, BuildingBlock: UXUYUI_clean_sbu_0, # of connection points: 4
#     Node 16, Type 0, BuildingBlock: UXUYUI_clean_sbu_0, # of connection points: 4
#     Node 17, Type 0, BuildingBlock: UXUYUI_clean_sbu_0, # of connection points: 4
#     Node 18, Type 0, BuildingBlock: UXUYUI_clean_sbu_0, # of connection points: 4
#     Node 19, Type 0, BuildingBlock: UXUYUI_clean_sbu_0, # of connection points: 4
#     Node 20, Type 0, BuildingBlock: UXUYUI_clean_sbu_0, # of connection points: 4
#     Node 21, Type 0, BuildingBlock: UXUYUI_clean_sbu_0, # of connection points: 4
#     Node 22, Type 0, BuildingBlock: UXUYUI_clean_sbu_0, # of connection points: 4
#     Node 23, Type 0, BuildingBlock: UXUYUI_clean_sbu_0, # of connection points: 4
#     Node 24, Type 0, BuildingBlock: UXUYUI_clean_sbu_0, # of connection points: 4
#     Node 25, Type 0, BuildingBlock: UXUYUI_clean_sbu_0, # of connection points: 4
#     Node 26, Type 0, BuildingBlock: UXUYUI_clean_sbu_0, # of connection points: 4
#     Node 27, Type 0, BuildingBlock: UXUYUI_clean_sbu_0, # of connection points: 4
#     Node 28, Type 0, BuildingBlock: UXUYUI_clean_sbu_0, # of connection points: 4
#     Node 29, Type 0, BuildingBlock: UXUYUI_clean_sbu_0, # of connection points: 4
#     Node 30, Type 0, BuildingBlock: UXUYUI_clean_sbu_0, # of connection points: 4
#     Node 31, Type 0, BuildingBlock: UXUYUI_clean_sbu_0, # of connection points: 4
#     Edge 32, Type (0, 0), None
#     Edge 33, Type (0, 0), None
#     Edge 34, Type (0, 0), None
#     Edge 35, Type (0, 0), None
#     Edge 36, Type (0, 0), None
#     Edge 37, Type (0, 0), None
#     Edge 38, Type (0, 0), None
#     Edge 39, Type (0, 0), None
#     Edge 40, Type (0, 0), None
#     Edge 41, Type (0, 0), None
#     Edge 42, Type (0, 0), None
#     Edge 43, Type (0, 0), None
#     Edge 44, Type (0, 0), None
#     Edge 45, Type (0, 0), None
#     Edge 46, Type (0, 0), None
#     Edge 47, Type (0, 0), None
#     Edge 48, Type (0, 0), None
#     Edge 49, Type (0, 0), None
#     Edge 50, Type (0, 0), None
#     Edge 51, Type (0, 0), None
#     Edge 52, Type (0, 0), None
#     Edge 53, Type (0, 0), None
#     Edge 54, Type (0, 0), None
#     Edge 55, Type (0, 0), None
#     Edge 56, Type (0, 0), None
#     Edge 57, Type (0, 0), None
#     Edge 58, Type (0, 0), None
#     Edge 59, Type (0, 0), None
#     Edge 60, Type (0, 0), None
#     Edge 61, Type (0, 0), None
#     Edge 62, Type (0, 0), None
#     Edge 63, Type (0, 0), None
#     Edge 64, Type (0, 0), None
#     Edge 65, Type (0, 0), None
#     Edge 66, Type (0, 0), None
#     Edge 67, Type (0, 0), None
#     Edge 68, Type (0, 0), None
#     Edge 69, Type (0, 0), None
#     Edge 70, Type (0, 0), None
#     Edge 71, Type (0, 0), None
#     Edge 72, Type (0, 0), None
#     Edge 73, Type (0, 0), None
#     Edge 74, Type (0, 0), None
#     Edge 75, Type (0, 0), None
#     Edge 76, Type (0, 0), None
#     Edge 77, Type (0, 0), None
#     Edge 78, Type (0, 0), None
#     Edge 79, Type (0, 0), None
#     Edge 80, Type (0, 0), None
#     Edge 81, Type (0, 0), None
#     Edge 82, Type (0, 0), None
#     Edge 83, Type (0, 0), None
#     Edge 84, Type (0, 0), None
#     Edge 85, Type (0, 0), None
#     Edge 86, Type (0, 0), None
#     Edge 87, Type (0, 0), None
#     Edge 88, Type (0, 0), None
#     Edge 89, Type (0, 0), None
#     Edge 90, Type (0, 0), None
#     Edge 91, Type (0, 0), None
#     Edge 92, Type (0, 0), None
#     Edge 93, Type (0, 0), None
#     Edge 94, Type (0, 0), None
#     Edge 95, Type (0, 0), None
# Relax obj value: 0.135
# Max RMSD: 0.073
# Mean RMSD: 0.073
data_MOF--net-pem--node1-UXUYUI_clean_sbu_0--edge1-none
_symmetry_space_group_name_H-M    P1
_symmetry_Int_Tables_number       1
_symmetry_cell_setting            triclinic
loop_
_symmetry_equiv_pos_as_xyz
'x, y, z'
_cell_length_a     40.018607
_cell_length_b     39.337581
_cell_length_c     39.358249
_cell_angle_alpha  89.999566
_cell_angle_beta   89.8392
_cell_angle_gamma 90.047352
loop_
_atom_site_label
_atom_site_type_symbol
_atom_site_fract_x
_atom_site_fract_y
_atom_site_fract_z
_atom_type_partial_charge
Li0 Li 0.07794 0.14041 0.13809 0.0
Li1 Li 0.13732 0.08242 0.16049 0.0
Li2 Li 0.1535 0.13956 0.0984 0.0
Li3 Li 0.09203 0.08023 0.10693 0.0
C4 C 0.13432 0.19241 0.16823 0.0
N5 N 0.13324 0.26219 0.19092 0.0
C6 C 0.13282 0.20289 0.20302 0.0
C7 C 0.13456 0.22138 0.14624 0.0
C8 C 0.13106 0.23674 0.21375 0.0
C9 C 0.13561 0.25513 0.1575 0.0
C10 C 0.04775 0.06539 0.14681 0.0
C11 C 0.0197 0.01019 0.14716 0.0
N12 N 0.98986 0.02564 0.14208 0.0
C13 C 0.01622 0.08005 0.14161 0.0
C14 C 0.04889 0.02953 0.14954 0.0
C15 C 0.98758 0.0599 0.13931 0.0
C16 C 0.01351 0.16247 0.10285 0.0
N17 N 0.02675 0.16513 0.13485 0.0
C18 C 0.98161 0.20525 0.14622 0.0
C19 C 0.00639 0.182 0.15757 0.0
C20 C 0.97548 0.20998 0.11127 0.0
C21 C 0.99016 0.18608 0.08968 0.0
H22 H 0.02049 0.14137 0.08752 0.0
H23 H 0.01157 0.18166 0.18439 0.0
C24 C 0.1847 0.01849 0.21479 0.0
N25 N 0.16535 0.02713 0.18148 0.0
C26 C 0.17315 0.02687 0.25566 0.0
C27 C 0.10798 0.05022 0.19939 0.0
C28 C 0.13206 0.03831 0.17178 0.0
C29 C 0.13332 0.04132 0.26348 0.0
H30 H 0.20973 0.00861 0.21154 0.0
H31 H 0.12373 0.03541 0.1459 0.0
C32 C 0.07322 0.16097 0.06083 0.0
N33 N 0.05667 0.19853 1.00319 0.0
C34 C 0.0539 0.14668 0.03455 0.0
C35 C 0.08687 0.19289 0.05496 0.0
C36 C 0.04474 0.16639 0.00655 0.0
C37 C 0.07782 0.21193 0.02651 0.0
C38 C 0.18652 0.05168 0.11963 0.0
C39 C 0.18458 0.01985 0.10311 0.0
C40 C 0.21469 0.05819 0.13932 0.0
C41 C 0.21062 0.99644 0.10644 0.0
C42 C 0.24015 0.03416 0.14226 0.0
N43 N 0.23764 1.00397 0.1258 0.0
C44 C 0.19674 0.10244 0.04823 0.0
C45 C 0.18899 0.1554 0.02278 0.0
C46 C 0.21178 0.08934 0.01905 0.0
N47 N 0.18785 0.1359 0.052 0.0
C48 C 0.20098 0.14223 0.99178 0.0
C49 C 0.21528 0.10966 0.9905 0.0
H50 H 0.19256 0.0852 0.06821 0.0
H51 H 0.17691 0.17961 0.02084 0.0
C52 C 0.07012 0.01389 0.07671 0.0
N53 N 0.06331 0.04766 0.08065 0.0
C54 C 0.05183 0.99468 0.05391 0.0
C55 C 0.01647 0.04349 0.04372 0.0
C56 C 0.03575 0.06178 0.06648 0.0
C57 C 0.02566 0.01011 0.03631 0.0
H58 H 0.09064 1.00214 0.0901 0.0
H59 H 0.02877 0.08722 0.07309 0.0
O60 O 0.13842 0.15364 0.15643 0.0
O61 O 0.077 0.08551 0.14873 0.0
O62 O 0.08581 0.14134 0.08776 0.0
O63 O 0.16087 0.07581 0.11841 0.0
H64 H 0.13478 0.18419 0.22241 0.0
H65 H 0.1321 0.21793 0.11936 0.0
H66 H 0.12937 0.24267 0.24053 0.0
H67 H 0.13651 0.2757 0.13928 0.0
H68 H 0.0209 0.98278 0.14895 0.0
H69 H 0.01331 0.10665 0.13878 0.0
H70 H 0.07201 0.01596 0.15236 0.0
H71 H 0.96349 0.0716 0.13506 0.0
H72 H 0.96843 0.22051 0.16464 0.0
H73 H 0.98412 0.18576 0.06288 0.0
H74 H 0.19531 0.03284 0.27179 0.0
H75 H 0.08375 0.05718 0.1931 0.0
H76 H 0.04658 0.12053 0.03488 0.0
H77 H 0.10645 0.2015 0.07129 0.0
H78 H 0.02895 0.15575 0.98697 0.0
H79 H 0.08838 0.23694 0.02251 0.0
H80 H 0.16372 0.01209 0.08788 0.0
H81 H 0.21681 0.08173 0.15212 0.0
H82 H 0.20919 0.97211 0.09372 0.0
H83 H 0.26191 0.03958 0.15757 0.0
H84 H 0.22082 0.06338 0.01911 0.0
H85 H 0.20169 0.15871 0.96973 0.0
H86 H 0.05874 0.96849 0.04913 0.0
H87 H 0.99571 0.05568 0.03098 0.0
Li88 Li 0.18125 0.88626 0.38463 0.0
Li89 Li 0.11549 0.9112 0.33384 0.0
Li90 Li 0.10981 0.84733 0.38895 0.0
Li91 Li 0.16422 0.85216 0.32091 0.0
C92 C 0.12449 0.91149 0.43992 0.0
N93 N 0.124 0.92621 0.51109 0.0
C94 C 0.12834 0.94488 0.45361 0.0
C95 C 0.11939 0.88623 0.46573 0.0
C96 C 0.1297 0.95146 0.48852 0.0
C97 C 0.11815 0.8941 0.50041 0.0
C98 C 0.20898 0.89211 0.30989 0.0
C99 C 0.24319 0.88616 0.25865 0.0
N100 N 0.27051 0.87971 0.27785 0.0
C101 C 0.23786 0.88498 0.32819 0.0
C102 C 0.21219 0.89197 0.2741 0.0
C103 C 0.26841 0.87892 0.31218 0.0
C104 C 0.2479 0.85385 0.40998 0.0
N105 N 0.23243 0.88474 0.4136 0.0
C106 C 0.27483 0.89525 0.45736 0.0
C107 C 0.25049 0.90697 0.43374 0.0
C108 C 0.28214 0.86039 0.46061 0.0
C109 C 0.27006 0.83996 0.4344 0.0
H110 H 0.24505 0.84087 0.38668 0.0
H111 H 0.24368 0.93325 0.43603 0.0
C112 C 0.07625 0.99383 0.29969 0.0
N113 N 0.07763 0.95423 0.30042 0.0
C114 C 0.10835 0.02199 0.29686 0.0
C115 C 0.13811 0.93724 0.28943 0.0
C116 C 0.10189 0.92816 0.29276 0.0
C117 C 0.14758 0.00702 0.28828 0.0
H118 H 0.05193 0.00506 0.30389 0.0
H119 H 0.0958 0.9107 0.27278 0.0
C120 C 0.1915 0.80791 0.39768 0.0
N121 N 0.21873 0.75155 0.43033 0.0
C122 C 0.21654 0.78818 0.38207 0.0
C123 C 0.18048 0.79795 0.42964 0.0
C124 C 0.23006 0.76017 0.39895 0.0
C125 C 0.1943 0.76975 0.4459 0.0
C126 C 0.06957 0.86225 0.29615 0.0
C127 C 0.06997 0.84022 0.26757 0.0
C128 C 0.04233 0.88429 0.29843 0.0
C129 C 0.04306 0.83956 0.24495 0.0
C130 C 0.01591 0.88315 0.27548 0.0
N131 N 0.0167 0.86075 0.24937 0.0
C132 C 0.04519 0.80184 0.41736 0.0
C133 C 0.0941 0.77381 0.42938 0.0
C134 C 0.02787 0.77064 0.4183 0.0
N135 N 0.07936 0.80353 0.41733 0.0
C136 C 0.07833 0.74149 0.42596 0.0
C137 C 0.04469 0.73975 0.41671 0.0
H138 H 0.03028 0.824 0.41472 0.0
H139 H 0.11988 0.7732 0.43655 0.0
C140 C 0.19227 0.82271 0.25146 0.0
N141 N 0.19001 0.8188 0.28592 0.0
C142 C 0.21021 0.79935 0.2313 0.0
C143 C 0.21809 0.76448 0.28054 0.0
C144 C 0.19996 0.7885 0.29939 0.0
C145 C 0.22467 0.77012 0.24601 0.0
H146 H 0.1797 0.84356 0.23912 0.0
H147 H 0.19112 0.78141 0.32404 0.0
O148 O 0.1217 0.90407 0.40113 0.0
O149 O 0.17869 0.89785 0.32735 0.0
O150 O 0.17558 0.83516 0.38147 0.0
O151 O 0.0954 0.86488 0.32088 0.0
H152 H 0.12772 0.96667 0.43706 0.0
H153 H 0.11798 0.85957 0.45891 0.0
H154 H 0.13312 0.97721 0.49751 0.0
H155 H 0.11404 0.87416 0.51888 0.0
H156 H 0.24533 0.88622 0.23124 0.0
H157 H 0.23688 0.88511 0.35475 0.0
H158 H 0.19172 0.89544 0.25701 0.0
H159 H 0.29048 0.87379 0.32713 0.0
H160 H 0.28701 0.91334 0.47371 0.0
H161 H 0.27798 0.81374 0.43231 0.0
H162 H 0.10296 0.04558 0.31169 0.0
H163 H 0.15185 0.91619 0.27963 0.0
H164 H 0.22805 0.79615 0.35863 0.0
H165 H 0.15949 0.81106 0.4404 0.0
H166 H 0.24997 0.74565 0.38729 0.0
H167 H 0.18518 0.76203 0.47062 0.0
H168 H 0.09003 0.82367 0.26091 0.0
H169 H 0.04262 0.90248 0.31807 0.0
H170 H 0.04338 0.82233 0.22352 0.0
H171 H 0.99497 0.9003 0.27828 0.0
H172 H 0.00151 0.77075 0.41935 0.0
H173 H 0.0927 0.71843 0.42931 0.0
H174 H 0.21219 0.80402 0.20427 0.0
H175 H 0.22663 0.74168 0.29317 0.0
Li176 Li 0.36354 0.92834 0.66191 0.0
Li177 Li 0.42444 0.87575 0.64782 0.0
Li178 Li 0.4152 0.93505 0.60604 0.0
Li179 Li 0.3595 0.86852 0.60176 0.0
C180 C 0.45431 0.95221 0.65269 0.0
N181 N 0.50862 0.99711 0.64985 0.0
C182 C 0.48549 0.9438 0.66691 0.0
C183 C 0.45174 0.98427 0.63759 0.0
C184 C 0.51243 0.96633 0.6648 0.0
C185 C 0.47888 0.00658 0.63654 0.0
C186 C 0.36905 0.82021 0.66661 0.0
C187 C 0.36499 0.76006 0.6484 0.0
N188 N 0.36785 0.7487 0.68057 0.0
C189 C 0.36934 0.80588 0.69985 0.0
C190 C 0.36689 0.795 0.64133 0.0
C191 C 0.37065 0.77098 0.70638 0.0
C192 C 0.31612 0.97397 0.73285 0.0
N193 N 0.32616 0.97105 0.69462 0.0
C194 C 0.39058 0.97027 0.69247 0.0
C195 C 0.35695 0.97272 0.67473 0.0
C196 C 0.38342 0.97039 0.76215 0.0
C197 C 0.34084 0.97111 0.76751 0.0
H198 H 0.28967 0.97601 0.73812 0.0
H199 H 0.35766 0.98851 0.65244 0.0
C200 C 0.49845 0.85695 0.65284 0.0
N201 N 0.46682 0.84619 0.6613 0.0
C202 C 0.52538 0.83417 0.65011 0.0
C203 C 0.49103 0.7922 0.6767 0.0
C204 C 0.46352 0.81396 0.67409 0.0
C205 C 0.52132 0.80052 0.66049 0.0
H206 H 0.50307 0.88234 0.64502 0.0
H207 H 0.43914 0.80372 0.67986 0.0
C208 C 0.32326 0.96476 0.6084 0.0
N209 N 0.27438 0.01549 0.60294 0.0
C210 C 0.32569 0.99093 0.58366 0.0
C211 C 0.29568 0.96603 0.62986 0.0
C212 C 0.30088 0.01587 0.58139 0.0
C213 C 0.27133 0.99115 0.62708 0.0
C214 C 0.4563 0.8715 0.57781 0.0
C215 C 0.48388 0.89188 0.58534 0.0
C216 C 0.45814 0.84995 0.54931 0.0
C217 C 0.51322 0.889 0.56625 0.0
C218 C 0.48783 0.84786 0.53071 0.0
N219 N 0.5146 0.86715 0.53957 0.0
C220 C 0.44421 0.99925 0.564 0.0
C221 C 0.45795 0.94621 0.54157 0.0
C222 C 0.46388 0.01543 0.53909 0.0
N223 N 0.44407 0.96453 0.56761 0.0
C224 C 0.4785 0.96096 0.51676 0.0
C225 C 0.48286 0.99625 0.51567 0.0
H226 H 0.42842 0.01509 0.5796 0.0
H227 H 0.45143 0.92015 0.53804 0.0
C228 C 0.29714 0.84352 0.55427 0.0
N229 N 0.33115 0.84158 0.55697 0.0
C230 C 0.28089 0.84467 0.52263 0.0
C231 C 0.33176 0.8342 0.49492 0.0
C232 C 0.34609 0.82861 0.52777 0.0
C233 C 0.29884 0.8462 0.49245 0.0
H234 H 0.2817 0.84642 0.57599 0.0
H235 H 0.37127 0.81871 0.52846 0.0
O236 O 0.4258 0.93133 0.65496 0.0
O237 O 0.36671 0.85936 0.65931 0.0
O238 O 0.34666 0.93805 0.61297 0.0
O239 O 0.42752 0.87359 0.59741 0.0
H240 H 0.49021 0.92089 0.68007 0.0
H241 H 0.42778 0.99244 0.62826 0.0
H242 H 0.53633 0.95945 0.67558 0.0
H243 H 0.4762 0.0315 0.62526 0.0
H244 H 0.36059 0.74197 0.62825 0.0
H245 H 0.36659 0.82245 0.72136 0.0
H246 H 0.36311 0.8032 0.61577 0.0
H247 H 0.37142 0.76173 0.73225 0.0
H248 H 0.40752 0.98373 0.67687 0.0
H249 H 0.32739 0.96365 0.79098 0.0
H250 H 0.5487 0.84261 0.63891 0.0
H251 H 0.48713 0.76749 0.68754 0.0
H252 H 0.3455 0.99353 0.56561 0.0
H253 H 0.29405 0.94708 0.64867 0.0
H254 H 0.30278 0.03564 0.56237 0.0
H255 H 0.25012 0.99129 0.64418 0.0
H256 H 0.48193 0.91135 0.60443 0.0
H257 H 0.43738 0.83402 0.54201 0.0
H258 H 0.53457 0.90478 0.57214 0.0
H259 H 0.48959 0.83079 0.50923 0.0
H260 H 0.4633 0.04289 0.5379 0.0
H261 H 0.49031 0.94438 0.49843 0.0
H262 H 0.25449 0.84583 0.52179 0.0
H263 H 0.34659 0.83017 0.47224 0.0
Li264 Li 0.39281 0.10148 0.83074 0.0
Li265 Li 0.332 0.11577 0.88331 0.0
Li266 Li 0.34148 0.15696 0.82342 0.0
Li267 Li 0.39629 0.16198 0.89062 0.0
C268 C 0.30211 0.10993 0.80665 0.0
N269 N 0.24738 0.11176 0.76235 0.0
C270 C 0.27086 0.09615 0.81579 0.0
C271 C 0.30445 0.12417 0.77415 0.0
C272 C 0.24376 0.09762 0.79354 0.0
C273 C 0.2771 0.12481 0.75221 0.0
C274 C 0.3868 0.09728 0.93847 0.0
C275 C 0.39068 0.11562 0.99861 0.0
N276 N 0.3884 0.08338 0.00999 0.0
C277 C 0.38638 0.06418 0.9528 0.0
C278 C 0.38861 0.12262 0.96366 0.0
C279 C 0.38568 0.05755 0.98772 0.0
C280 C 0.43955 0.02892 0.78745 0.0
N281 N 0.43002 0.06734 0.78884 0.0
C282 C 0.36566 0.07032 0.78825 0.0
C283 C 0.39963 0.08761 0.786 0.0
C284 C 0.37182 1.00034 0.79074 0.0
C285 C 0.41436 0.99465 0.79114 0.0
H286 H 0.46596 0.0233 0.78593 0.0
H287 H 0.39992 0.11043 0.77099 0.0
C288 C 0.25896 0.10776 0.90522 0.0
N289 N 0.29135 0.10186 0.91492 0.0
C290 C 0.23267 0.10827 0.92883 0.0
C291 C 0.27063 0.08741 0.97081 0.0
C292 C 0.29681 0.09078 0.94747 0.0
C293 C 0.23876 0.09969 0.96266 0.0
H294 H 0.25303 0.1152 0.88001 0.0
H295 H 0.32181 0.08699 0.95663 0.0
C296 C 0.43369 0.15597 0.79504 0.0
N297 N 0.48388 0.16293 0.74572 0.0
C298 C 0.43296 0.18266 0.77082 0.0
C299 C 0.46031 0.13361 0.79277 0.0
C300 C 0.45836 0.18559 0.74647 0.0
C301 C 0.48532 0.13703 0.76834 0.0
C302 C 0.29922 0.18501 0.88652 0.0
C303 C 0.2714 0.17556 0.86741 0.0
C304 C 0.29702 0.21426 0.90698 0.0
C305 C 0.24164 0.19386 0.8702 0.0
C306 C 0.26688 0.23201 0.90903 0.0
N307 N 0.23998 0.22146 0.89086 0.0
C308 C 0.31517 0.19694 0.75716 0.0
C309 C 0.29526 0.21834 0.8086 0.0
C310 C 0.29504 0.22002 0.73898 0.0
N311 N 0.31271 0.1936 0.79184 0.0
C312 C 0.27418 0.24127 0.79176 0.0
C313 C 0.27275 0.24199 0.75609 0.0
H314 H 0.33318 0.18222 0.74297 0.0
H315 H 0.29928 0.22251 0.83505 0.0
C316 C 0.45808 0.20907 0.91688 0.0
N317 N 0.42407 0.20636 0.91852 0.0
C318 C 0.4746 0.24062 0.91735 0.0
C319 C 0.42359 0.26813 0.92816 0.0
C320 C 0.40889 0.23517 0.93202 0.0
C321 C 0.45686 0.27091 0.91722 0.0
H322 H 0.47334 0.18741 0.91348 0.0
H323 H 0.38342 0.23425 0.94117 0.0
O324 O 0.33071 0.10812 0.82742 0.0
O325 O 0.38903 0.1048 0.89943 0.0
O326 O 0.40995 0.15083 0.82126 0.0
O327 O 0.3283 0.166 0.88485 0.0
H328 H 0.26623 0.08393 0.83916 0.0
H329 H 0.32827 0.13332 0.76535 0.0
H330 H 0.21986 0.08709 0.80101 0.0
H331 H 0.27963 0.13553 0.72702 0.0
H332 H 0.39482 0.13584 0.01669 0.0
H333 H 0.38818 0.04285 0.93615 0.0
H334 H 0.3922 0.14819 0.95527 0.0
H335 H 0.38513 0.03165 0.99694 0.0
H336 H 0.34908 0.0857 0.77424 0.0
H337 H 0.42735 0.97125 0.79939 0.0
H338 H 0.20821 0.11698 0.92098 0.0
H339 H 0.27653 0.07951 0.99629 0.0
H340 H 0.41423 0.20189 0.76957 0.0
H341 H 0.46051 0.11357 0.81025 0.0
H342 H 0.45776 0.20609 0.72816 0.0
H343 H 0.50575 0.11907 0.76736 0.0
H344 H 0.2734 0.15549 0.84905 0.0
H345 H 0.31779 0.22264 0.92232 0.0
H346 H 0.2201 0.18653 0.85535 0.0
H347 H 0.26484 0.25409 0.92527 0.0
H348 H 0.29783 0.22093 0.71167 0.0
H349 H 0.2597 0.25852 0.80723 0.0
H350 H 0.50108 0.24149 0.916 0.0
H351 H 0.40874 0.29071 0.93244 0.0
Li352 Li 0.09434 0.9401 0.41083 0.0
Li353 Li 0.14877 0.87261 0.41469 0.0
Li354 Li 0.14525 0.92873 0.35177 0.0
Li355 Li 0.08022 0.88081 0.37026 0.0
C356 C 0.19042 0.95933 0.40342 0.0
N357 N 0.24572 1.00271 0.40495 0.0
C358 C 0.19196 0.98688 0.42641 0.0
C359 C 0.21759 0.95487 0.38141 0.0
C360 C 0.22006 0.00802 0.42693 0.0
C361 C 0.24496 0.97684 0.3822 0.0
C362 C 0.05034 0.87817 0.44049 0.0
C363 C 0.01854 0.85783 0.48894 0.0
N364 N 0.99274 0.87838 0.48002 0.0
C365 C 0.02369 0.89956 0.43265 0.0
C366 C 0.04784 0.85754 0.4696 0.0
C367 C 0.99472 0.89912 0.4525 0.0
C368 C 0.06954 0.00778 0.45385 0.0
N369 N 0.06827 0.97295 0.45 0.0
C370 C 0.03769 0.97093 0.50367 0.0
C371 C 0.05417 0.95519 0.47631 0.0
C372 C 0.03528 0.00653 0.50601 0.0
C373 C 0.05238 0.02486 0.48049 0.0
H374 H 0.08465 0.02318 0.43718 0.0
H375 H 0.05829 0.9285 0.47844 0.0
C376 C 0.191 0.90143 0.46848 0.0
N377 N 0.18024 0.869 0.46308 0.0
C378 C 0.20529 0.91306 0.49846 0.0
C379 C 0.19427 0.8588 0.52272 0.0
C380 C 0.18048 0.84798 0.49125 0.0
C381 C 0.20871 0.89147 0.52593 0.0
H382 H 0.18842 0.91923 0.44909 0.0
H383 H 0.16736 0.82409 0.49148 0.0
C384 C 0.05659 0.96132 0.36743 0.0
N385 N 0.00628 0.01073 0.37076 0.0
C386 C 0.0233 0.95393 0.35852 0.0
C387 C 0.063 0.9943 0.3792 0.0
C388 C 0.99855 0.97887 0.36031 0.0
C389 C 0.03783 0.01889 0.38012 0.0
C390 C 0.12979 0.82407 0.34463 0.0
C391 C 0.12839 0.8133 0.30987 0.0
C392 C 0.12682 0.79664 0.3668 0.0
C393 C 0.12286 0.77962 0.29979 0.0
C394 C 0.12352 0.76266 0.35658 0.0
N395 N 0.12096 0.75485 0.32334 0.0
C396 C 0.18857 0.96281 0.27119 0.0
C397 C 0.16137 0.96992 0.33628 0.0
C398 C 0.15728 0.96531 0.24253 0.0
N399 N 0.18615 0.96148 0.31079 0.0
C400 C 0.12538 0.97479 0.32615 0.0
C401 C 0.11829 0.97555 0.25618 0.0
H402 H 0.21337 0.9607 0.26042 0.0
H403 H 0.16837 0.98834 0.35512 0.0
C404 C 0.005 0.85938 0.36665 0.0
N405 N 0.03711 0.84987 0.35846 0.0
C406 C 0.97856 0.83566 0.3678 0.0
C407 C 0.01511 0.79446 0.34309 0.0
C408 C 0.04151 0.81777 0.34554 0.0
C409 C 0.98383 0.80202 0.3574 0.0
H410 H -0.00048 0.88447 0.37514 0.0
H411 H 0.06588 0.80895 0.33871 0.0
O412 O 0.16197 0.93862 0.3998 0.0
O413 O 0.07896 0.8784 0.42053 0.0
O414 O 0.08285 0.93787 0.36325 0.0
O415 O 0.136 0.86197 0.35596 0.0
H416 H 0.17237 0.99302 0.44399 0.0
H417 H 0.21685 0.93525 0.36303 0.0
H418 H 0.22126 0.02898 0.44469 0.0
H419 H 0.2656 0.97322 0.36477 0.0
H420 H 0.01627 0.84158 0.51099 0.0
H421 H 0.026 0.91745 0.41232 0.0
H422 H 0.06772 0.84044 0.47677 0.0
H423 H 0.97409 0.91575 0.44636 0.0
H424 H 0.02816 0.95463 0.52356 0.0
H425 H 0.05299 0.05234 0.48098 0.0
H426 H 0.2143 0.93902 0.49955 0.0
H427 H 0.19505 0.8411 0.54376 0.0
H428 H 0.01534 0.92943 0.35101 0.0
H429 H 0.0875 1.00116 0.38801 0.0
H430 H 0.97309 0.97281 0.35338 0.0
H431 H 0.04338 0.04438 0.38873 0.0
H432 H 0.13245 0.83173 0.28996 0.0
H433 H 0.13066 0.80218 0.39215 0.0
H434 H 0.12181 0.77312 0.27311 0.0
H435 H 0.12392 0.74235 0.37499 0.0
H436 H 0.16289 0.95826 0.21625 0.0
H437 H 0.11357 0.98876 0.34588 0.0
H438 H 0.95458 0.84334 0.37802 0.0
H439 H 0.02052 0.76941 0.33349 0.0
Li440 Li 0.33703 0.84987 0.69342 0.0
Li441 Li 0.39246 0.84447 0.62653 0.0
Li442 Li 0.38861 0.90552 0.6848 0.0
Li443 Li 0.32747 0.89008 0.63241 0.0
C444 C 0.4282 0.85219 0.72336 0.0
N445 N 0.47604 0.847 0.77519 0.0
C446 C 0.42532 0.82758 0.74966 0.0
C447 C 0.45588 0.87354 0.72506 0.0
C448 C 0.44955 0.8255 0.77515 0.0
C449 C 0.47965 0.87091 0.75072 0.0
C450 C 0.29612 0.81938 0.63073 0.0
C451 C 0.26538 0.77131 0.60812 0.0
N452 N 0.23838 0.7803 0.62708 0.0
C453 C 0.26824 0.82721 0.65062 0.0
C454 C 0.29477 0.7904 0.6098 0.0
C455 C 0.23923 0.80762 0.64817 0.0
C456 C 0.31086 0.81117 0.76078 0.0
N457 N 0.30868 0.81325 0.726 0.0
C458 C 0.27351 0.76286 0.72749 0.0
C459 C 0.29297 0.78688 0.70997 0.0
C460 C 0.27197 0.76277 0.76323 0.0
C461 C 0.29235 0.78708 0.77963 0.0
H462 H 0.32778 0.82742 0.7746 0.0
H463 H 0.29743 0.78225 0.68359 0.0
C464 C 0.45445 0.79659 0.60371 0.0
N465 N 0.42075 0.80003 0.59967 0.0
C466 C 0.46988 0.76467 0.60565 0.0
C467 C 0.41936 0.73825 0.59063 0.0
C468 C 0.40577 0.77151 0.58542 0.0
C469 C 0.45137 0.73492 0.60474 0.0
H470 H 0.47013 0.81796 0.6075 0.0
H471 H 0.38083 0.773 0.57502 0.0
C472 C 0.29721 0.89681 0.70854 0.0
N473 N 0.24198 0.8944 0.75244 0.0
C474 C 0.26564 0.90908 0.69866 0.0
C475 C 0.29961 0.88382 0.74159 0.0
C476 C 0.2383 0.90729 0.72075 0.0
C477 C 0.27199 0.88291 0.7633 0.0
C478 C 0.38311 0.90832 0.57694 0.0
C479 C 0.38243 0.94154 0.56233 0.0
C480 C 0.3858 0.88285 0.55202 0.0
C481 C 0.38083 0.94772 0.5274 0.0
C482 C 0.38791 0.88975 0.51704 0.0
N483 N 0.38429 0.92176 0.50538 0.0
C484 C 0.43628 0.97784 0.72948 0.0
C485 C 0.39576 0.91977 0.7276 0.0
C486 C 0.41154 0.01278 0.72693 0.0
N487 N 0.4264 0.93959 0.72624 0.0
C488 C 0.36236 0.9374 0.72472 0.0
C489 C 0.36864 0.00716 0.72558 0.0
H490 H 0.46279 0.98308 0.73044 0.0
H491 H 0.39467 0.89807 0.74413 0.0
C492 C 0.25355 0.89359 0.61131 0.0
N493 N 0.28544 0.90236 0.60153 0.0
C494 C 0.22724 0.89088 0.5878 0.0
C495 C 0.26284 0.91703 0.54661 0.0
C496 C 0.28966 0.91474 0.56927 0.0
C497 C 0.23216 0.90121 0.55424 0.0
H498 H 0.24824 0.88544 0.63645 0.0
H499 H 0.31428 0.9206 0.55976 0.0
O500 O 0.40535 0.85657 0.69601 0.0
O501 O 0.32446 0.83968 0.63208 0.0
O502 O 0.326 0.89866 0.68786 0.0
O503 O 0.3853 0.90146 0.61613 0.0
H504 H 0.40567 0.80936 0.75202 0.0
H505 H 0.45835 0.89193 0.70581 0.0
H506 H 0.44722 0.8066 0.795 0.0
H507 H 0.50093 0.88788 0.75111 0.0
H508 H 0.26399 0.74942 0.59155 0.0
H509 H 0.26964 0.84713 0.66925 0.0
H510 H 0.31556 0.7832 0.5938 0.0
H511 H 0.21765 0.81372 0.66361 0.0
H512 H 0.26054 0.74421 0.71236 0.0
H513 H 0.29511 0.78741 0.80689 0.0
H514 H 0.49601 0.76301 0.60968 0.0
H515 H 0.40439 0.71595 0.58536 0.0
H516 H 0.26079 0.92017 0.67473 0.0
H517 H 0.32352 0.87558 0.75089 0.0
H518 H 0.21413 0.91653 0.7127 0.0
H519 H 0.2745 0.87312 0.78885 0.0
H520 H 0.38541 0.96333 0.57861 0.0
H521 H 0.38945 0.8573 0.56043 0.0
H522 H 0.37964 0.9735 0.51792 0.0
H523 H 0.39281 0.86955 0.4991 0.0
H524 H 0.42546 0.03258 0.7116 0.0
H525 H 0.3449 0.92174 0.73703 0.0
H526 H 0.20367 0.87982 0.59565 0.0
H527 H 0.26758 0.92751 0.52192 0.0
Li528 Li 0.36326 0.13733 0.91468 0.0
Li529 Li 0.41797 0.07039 0.90698 0.0
Li530 Li 0.42943 0.131 0.86879 0.0
Li531 Li 0.36732 0.07887 0.85325 0.0
C532 C 0.45932 0.13269 0.94063 0.0
N533 N 0.51554 0.13566 0.98206 0.0
C534 C 0.48739 0.11272 0.93387 0.0
C535 C 0.45989 0.15361 0.96971 0.0
C536 C 0.51557 0.11473 0.95464 0.0
C537 C 0.48845 0.15489 0.98999 0.0
C538 C 0.32749 0.04029 0.90747 0.0
C539 C 0.27615 0.01197 0.88961 0.0
N540 N 0.28012 0.98777 0.9137 0.0
C541 C 0.33061 0.01425 0.93242 0.0
C542 C 0.29961 0.03797 0.88652 0.0
C543 C 0.30668 0.98844 0.93497 0.0
C544 C 0.30076 0.16188 0.96239 0.0
N545 N 0.33473 0.16444 0.95939 0.0
C546 C 0.33514 0.17458 0.02116 0.0
C547 C 0.34976 0.17826 0.98809 0.0
C548 C 0.30211 0.16292 0.02432 0.0
C549 C 0.28447 0.16206 0.99406 0.0
H550 H 0.28533 0.15727 0.94098 0.0
H551 H 0.37511 0.18772 0.98699 0.0
C552 C 0.44164 1.00284 0.93755 0.0
N553 N 0.44495 0.03744 0.93814 0.0
C554 C 0.46217 0.98259 0.95749 0.0
C555 C 0.48178 0.03319 0.98558 0.0
C556 C 0.46078 0.05191 0.96512 0.0
C557 C 0.48363 0.99837 0.98043 0.0
H558 H 0.42274 0.99078 0.92216 0.0
H559 H 0.45477 0.0772 0.97302 0.0
C560 C 0.373 0.18664 0.85065 0.0
N561 N 0.3703 0.2582 0.83767 0.0
C562 C 0.37335 0.20134 0.81753 0.0
C563 C 0.37031 0.21139 0.8763 0.0
C564 C 0.37363 0.23637 0.81153 0.0
C565 C 0.36777 0.24637 0.86971 0.0
C566 C 0.46067 0.05596 0.85967 0.0
C567 C 0.49177 0.0694 0.84956 0.0
C568 C 0.46113 0.02108 0.86833 0.0
C569 C 0.52107 0.05013 0.85074 0.0
C570 C 0.49073 1.00235 0.86913 0.0
N571 N 0.52004 0.0172 0.86059 0.0
C572 C 0.50423 0.15154 0.8692 0.0
C573 C 0.47004 0.19361 0.84563 0.0
C574 C 0.53043 0.17475 0.87404 0.0
N575 N 0.47301 0.16124 0.85803 0.0
C576 C 0.49726 0.21615 0.8456 0.0
C577 C 0.52667 0.20824 0.86363 0.0
H578 H 0.50931 0.12669 0.87785 0.0
H579 H 0.4459 0.20347 0.8385 0.0
C580 C 0.31964 0.03348 0.78112 0.0
N581 N 0.32873 0.03784 0.81937 0.0
C582 C 0.34516 0.03454 0.74665 0.0
C583 C 0.39253 0.03883 0.82273 0.0
C584 C 0.35882 0.03674 0.83973 0.0
C585 C 0.38784 0.03554 0.75309 0.0
H586 H 0.29323 0.03273 0.77541 0.0
H587 H 0.35949 0.01957 0.86094 0.0
O588 O 0.43164 0.13149 0.91923 0.0
O589 O 0.35027 0.06783 0.90213 0.0
O590 O 0.37097 0.14747 0.85747 0.0
O591 O 0.43057 0.07542 0.85944 0.0
H592 H 0.4865 0.09391 0.91402 0.0
H593 H 0.43912 0.16988 0.97619 0.0
H594 H 0.53714 0.09901 0.94939 0.0
H595 H 0.48913 0.17137 0.01198 0.0
H596 H 0.25482 0.01108 0.87282 0.0
H597 H 0.35014 0.0121 0.95066 0.0
H598 H 0.29681 0.05687 0.8679 0.0
H599 H 0.30928 0.96883 0.95407 0.0
H600 H 0.34984 0.17982 0.0436 0.0
H601 H 0.25822 0.16017 0.99499 0.0
H602 H 0.46038 0.95514 0.95604 0.0
H603 H 0.49478 0.04538 0.00643 0.0
H604 H 0.37156 0.18512 0.79554 0.0
H605 H 0.36652 0.20271 0.90174 0.0
H606 H 0.37429 0.24601 0.7858 0.0
H607 H 0.36313 0.26412 0.89012 0.0
H608 H 0.49478 0.09419 0.84017 0.0
H609 H 0.43886 0.00736 0.87427 0.0
H610 H 0.54468 0.0614 0.84338 0.0
H611 H 0.49027 0.97583 0.87642 0.0
H612 H 0.55306 0.16663 0.8867 0.0
H613 H 0.4937 0.24086 0.83469 0.0
H614 H 0.33199 0.04953 0.72615 0.0
H615 H 0.40923 0.02737 0.83935 0.0
Li616 Li 0.10852 0.17023 0.12894 0.0
Li617 Li 0.16812 0.16286 0.19042 0.0
Li618 Li 0.18309 0.12972 0.12996 0.0
Li619 Li 0.12299 0.1084 0.18737 0.0
C620 C 0.19105 0.20677 0.11023 0.0
N621 N 0.21276 0.26253 0.07274 0.0
C622 C 0.21019 0.23259 0.12538 0.0
C623 C 0.18019 0.212 0.07726 0.0
C624 C 0.22189 0.25974 0.10582 0.0
C625 C 0.19189 0.23953 0.05826 0.0
C626 C 0.07431 0.14882 0.21693 0.0
C627 C 0.01928 0.12782 0.23189 0.0
N628 N 0.02254 0.1408 0.26365 0.0
C629 C 0.07709 0.16174 0.25024 0.0
C630 C 0.04509 0.13177 0.20835 0.0
C631 C 0.05067 0.15757 0.27317 0.0
C632 C 0.06368 0.21991 0.16446 0.0
N633 N 0.07379 0.21613 0.13135 0.0
C634 C 0.05892 0.27578 0.12377 0.0
C635 C 0.07249 0.24511 0.11152 0.0
C636 C 0.04355 0.27703 0.15586 0.0
C637 C 0.0474 0.24883 0.17671 0.0
H638 H 0.06734 0.1999 0.18189 0.0
H639 H 0.08546 0.2473 0.08783 0.0
C640 C 0.18599 0.20066 0.25654 0.0
N641 N 0.19583 0.19246 0.22425 0.0
C642 C 0.19976 0.22881 0.27314 0.0
C643 C 0.23927 0.23433 0.22731 0.0
C644 C 0.22407 0.20666 0.21128 0.0
C645 C 0.22578 0.24739 0.2577 0.0
H646 H 0.16536 0.1874 0.26843 0.0
H647 H 0.23436 0.19701 0.18786 0.0
C648 C 0.1266 0.09988 0.07689 0.0
N649 N 0.12509 0.07467 0.00794 0.0
C650 C 0.1265 0.06469 0.06758 0.0
C651 C 0.127 0.12076 0.04717 0.0
C652 C 0.12653 0.05266 0.03413 0.0
C653 C 0.12489 0.10841 0.01386 0.0
C654 C 0.21177 0.12378 0.20549 0.0
C655 C 0.24325 0.12747 0.19021 0.0
C656 C 0.21059 0.12407 0.2414 0.0
C657 C 0.272 0.13089 0.20992 0.0
C658 C 0.23988 0.12755 0.26028 0.0
N659 N 0.26977 0.13086 0.2443 0.0
C660 C 0.24876 0.16222 0.10587 0.0
C661 C 0.25309 0.10687 0.08728 0.0
C662 C 0.2719 0.17395 0.08107 0.0
N663 N 0.2341 0.13069 0.10431 0.0
C664 C 0.27751 0.11675 0.06281 0.0
C665 C 0.28493 0.15132 0.05703 0.0
H666 H 0.24317 0.17831 0.12701 0.0
H667 H 0.2468 0.08031 0.08815 0.0
C668 C 0.07415 0.05335 0.24881 0.0
N669 N 0.09457 0.08683 0.24271 0.0
C670 C 0.08472 0.01311 0.23722 0.0
C671 C 0.15327 0.06877 0.22084 0.0
C672 C 0.12882 0.09641 0.23348 0.0
C673 C 0.12472 0.00489 0.22448 0.0
H674 H 0.04947 0.05629 0.25967 0.0
H675 H 0.1368 0.1224 0.23649 0.0
O676 O 0.17692 0.18029 0.12918 0.0
O677 O 0.1002 0.15068 0.19323 0.0
O678 O 0.1229 0.11277 0.11544 0.0
O679 O 0.18277 0.11963 0.18575 0.0
H680 H 0.21538 0.23251 0.15193 0.0
H681 H 0.1606 0.19606 0.06796 0.0
H682 H 0.23751 0.27906 0.11722 0.0
H683 H 0.18356 0.24316 0.03239 0.0
H684 H 0.99662 0.11463 0.22481 0.0
H685 H 0.0992 0.17418 0.25949 0.0
H686 H 0.0423 0.12233 0.18337 0.0
H687 H 0.05271 0.1674 0.29875 0.0
H688 H 0.0581 0.29757 0.10697 0.0
H689 H 0.03748 0.24874 0.20235 0.0
H690 H 0.1888 0.23655 0.29704 0.0
H691 H 0.26113 0.24555 0.21556 0.0
H692 H 0.12419 0.04609 0.08711 0.0
H693 H 0.1307 0.14758 0.04963 0.0
H694 H 0.12636 0.02561 0.02918 0.0
H695 H 0.12458 0.12594 0.99268 0.0
H696 H 0.24602 0.12766 0.16339 0.0
H697 H 0.18748 0.1222 0.25521 0.0
H698 H 0.29614 0.13365 0.19778 0.0
H699 H 0.23876 0.12784 0.28775 0.0
H700 H 0.27917 0.20047 0.08068 0.0
H701 H 0.28932 0.09743 0.0475 0.0
H702 H 0.06473 0.99416 0.23615 0.0
H703 H 0.17888 0.07531 0.21881 0.0
Li704 Li 0.64533 0.3734 0.91846 0.0
Li705 Li 0.58767 0.43845 0.9114 0.0
Li706 Li 0.57526 0.3753 0.8784 0.0
Li707 Li 0.63754 0.42952 0.85515 0.0
C708 C 0.56182 0.37104 0.96019 0.0
N709 N 0.53006 0.35745 0.02189 0.0
C710 C 0.5555 0.39695 0.98384 0.0
C711 C 0.55232 0.33805 0.96912 0.0
C712 C 0.53936 0.38979 0.0145 0.0
C713 C 0.53624 0.3316 0.99995 0.0
C714 C 0.68035 0.46887 0.90507 0.0
C715 C 0.73203 0.49399 0.88419 0.0
N716 N 0.72997 0.51909 0.90766 0.0
C717 C 0.67849 0.49618 0.92851 0.0
C718 C 0.70712 0.46929 0.88268 0.0
C719 C 0.70382 0.5207 0.9296 0.0
C720 C 0.70865 0.34822 0.96556 0.0
N721 N 0.67496 0.34442 0.96162 0.0
C722 C 0.67296 0.33187 0.02291 0.0
C723 C 0.65932 0.32913 0.98936 0.0
C724 C 0.70535 0.34498 0.02726 0.0
C725 C 0.72394 0.3474 0.99762 0.0
H726 H 0.72439 0.35355 0.9445 0.0
H727 H 0.63378 0.32032 0.98719 0.0
C728 C 0.56743 0.50699 0.94608 0.0
N729 N 0.5574 0.4743 0.93919 0.0
C730 C 0.54942 0.52785 0.96851 0.0
C731 C 0.50824 0.4837 0.97372 0.0
C732 C 0.52685 0.4638 0.95079 0.0
C733 C 0.51997 0.51589 0.98381 0.0
H734 H 0.59009 0.51707 0.93494 0.0
H735 H 0.51747 0.43909 0.94348 0.0
C736 C 0.63614 0.32188 0.85627 0.0
N737 N 0.64145 0.25018 0.84542 0.0
C738 C 0.63502 0.30634 0.82365 0.0
C739 C 0.64083 0.29762 0.88315 0.0
C740 C 0.63641 0.27115 0.81876 0.0
C741 C 0.64425 0.26271 0.87724 0.0
C742 C 0.54355 0.44791 0.86751 0.0
C743 C 0.51332 0.42984 0.86591 0.0
C744 C 0.54064 0.48356 0.87227 0.0
C745 C 0.48252 0.44643 0.86676 0.0
C746 C 0.50942 0.49939 0.8729 0.0
N747 N 0.48116 0.48067 0.87004 0.0
C748 C 0.50813 0.35359 0.91001 0.0
C749 C 0.50872 0.3266 0.85793 0.0
C750 C 0.48451 0.32999 0.92334 0.0
N751 N 0.52524 0.34785 0.88017 0.0
C752 C 0.48326 0.30418 0.86903 0.0
C753 C 0.4737 0.30275 0.9033 0.0
H754 H 0.51295 0.37637 0.92417 0.0
H755 H 0.51727 0.32274 0.83243 0.0
C756 C 0.67991 0.47059 0.7785 0.0
N757 N 0.67288 0.4698 0.81752 0.0
C758 C 0.65247 0.46645 0.74616 0.0
C759 C 0.60883 0.47 0.82499 0.0
C760 C 0.64379 0.47284 0.83974 0.0
C761 C 0.61057 0.46714 0.75486 0.0
H762 H 0.70588 0.47218 0.771 0.0
H763 H 0.64486 0.4901 0.86085 0.0
O764 O 0.57906 0.37764 0.92967 0.0
O765 O 0.65648 0.44244 0.90177 0.0
O766 O 0.63637 0.36122 0.86211 0.0
O767 O 0.5747 0.43092 0.86545 0.0
H768 H 0.56454 0.42218 0.97972 0.0
H769 H 0.55564 0.31777 0.9519 0.0
H770 H 0.53474 0.40992 0.03264 0.0
H771 H 0.52842 0.30603 0.00627 0.0
H772 H 0.75281 0.4933 0.86656 0.0
H773 H 0.65847 0.5003 0.94592 0.0
H774 H 0.7075 0.45007 0.86421 0.0
H775 H 0.70246 0.54127 0.9478 0.0
H776 H 0.65756 0.32598 0.04478 0.0
H777 H 0.7501 0.35039 0.99964 0.0
H778 H 0.55924 0.55274 0.97464 0.0
H779 H 0.48491 0.47379 0.98364 0.0
H780 H 0.63537 0.32189 0.80123 0.0
H781 H 0.64081 0.30592 0.90944 0.0
H782 H 0.63525 0.26076 0.79335 0.0
H783 H 0.64796 0.2455 0.89832 0.0
H784 H 0.51267 0.40313 0.86387 0.0
H785 H 0.56172 0.49964 0.87791 0.0
H786 H 0.4596 0.43193 0.86498 0.0
H787 H 0.50771 0.52658 0.87657 0.0
H788 H 0.47544 0.3328 0.94913 0.0
H789 H 0.47203 0.287 0.8511 0.0
H790 H 0.66359 0.45897 0.7216 0.0
H791 H 0.59247 0.48228 0.84185 0.0
Li792 Li 0.83548 0.34949 0.1924 0.0
Li793 Li 0.8935 0.34681 0.12759 0.0
Li794 Li 0.88657 0.40824 0.18399 0.0
Li795 Li 0.82166 0.38458 0.13202 0.0
C796 C 0.92809 0.35651 0.22432 0.0
N797 N 0.97607 0.35082 0.27615 0.0
C798 C 0.92304 0.33516 0.25301 0.0
C799 C 0.9572 0.37639 0.225 0.0
C800 C 0.94763 0.33219 0.27805 0.0
C801 C 0.98119 0.37295 0.25033 0.0
C802 C 0.81147 0.30271 0.12351 0.0
C803 C 0.78592 0.26446 0.08264 0.0
N804 N 0.78092 0.24096 0.10735 0.0
C805 C 0.8064 0.2774 0.14818 0.0
C806 C 0.80136 0.29532 0.09036 0.0
C807 C 0.79084 0.24679 0.13976 0.0
C808 C 0.81283 0.30401 0.25428 0.0
N809 N 0.80388 0.31795 0.22373 0.0
C810 C 0.75324 0.28431 0.22525 0.0
C811 C 0.77325 0.30989 0.21074 0.0
C812 C 0.76415 0.26622 0.25412 0.0
C813 C 0.79415 0.27763 0.26909 0.0
H814 H 0.83549 0.31192 0.26688 0.0
H815 H 0.765 0.32191 0.18767 0.0
C816 C 0.95906 0.30381 0.10121 0.0
N817 N 0.92516 0.30597 0.09773 0.0
C818 C 0.97585 0.27262 0.10085 0.0
C819 C 0.92633 0.24485 0.08487 0.0
C820 C 0.91104 0.27763 0.08218 0.0
C821 C 0.95869 0.24217 0.09837 0.0
H822 H 0.97394 0.32553 0.10623 0.0
H823 H 0.8855 0.27857 0.07322 0.0
C824 C 0.79381 0.39146 0.20719 0.0
N825 N 0.73485 0.38505 0.24514 0.0
C826 C 0.76221 0.39253 0.19176 0.0
C827 C 0.79442 0.38467 0.24252 0.0
C828 C 0.73305 0.38993 0.21111 0.0
C829 C 0.76471 0.3822 0.26105 0.0
C830 C 0.87934 0.41068 0.07781 0.0
C831 C 0.87543 0.44384 0.06399 0.0
C832 C 0.88511 0.38538 0.05214 0.0
C833 C 0.87506 0.45043 0.02904 0.0
C834 C 0.88729 0.39322 0.0175 0.0
N835 N 0.88156 0.42526 0.00663 0.0
C836 C 0.92748 0.48911 0.22138 0.0
C837 C 0.90012 0.42394 0.22492 0.0
C838 C 0.89606 0.51797 0.22536 0.0
N839 N 0.92511 0.44963 0.21892 0.0
C840 C 0.86416 0.43378 0.22797 0.0
C841 C 0.85629 0.50333 0.23249 0.0
H842 H 0.95205 0.49992 0.21743 0.0
H843 H 0.90488 0.40692 0.24559 0.0
C844 C 0.75505 0.35156 0.11077 0.0
N845 N 0.77064 0.38244 0.1065 0.0
C846 C 0.73201 0.3382 0.08666 0.0
C847 C 0.72867 0.39338 0.06285 0.0
C848 C 0.75296 0.40484 0.08642 0.0
C849 C 0.72052 0.35872 0.06009 0.0
H850 H 0.76114 0.33627 0.13233 0.0
H851 H 0.76023 0.43095 0.08396 0.0
O852 O 0.90467 0.36123 0.19734 0.0
O853 O 0.82792 0.33341 0.13135 0.0
O854 O 0.8232 0.39574 0.1879 0.0
O855 O 0.8814 0.40318 0.11664 0.0
H856 H 0.90083 0.32107 0.25824 0.0
H857 H 0.96049 0.39502 0.20597 0.0
H858 H 0.94373 0.31537 0.29945 0.0
H859 H 0.00366 0.38825 0.24966 0.0
H860 H 0.77761 0.25938 0.057 0.0
H861 H 0.81581 0.28022 0.17342 0.0
H862 H 0.80361 0.31369 0.07099 0.0
H863 H 0.78713 0.22746 0.15896 0.0
H864 H 0.72961 0.27874 0.21327 0.0
H865 H 0.80423 0.266 0.29167 0.0
H866 H 0.00201 0.27213 0.1041 0.0
H867 H 0.91221 0.22222 0.07865 0.0
H868 H 0.75943 0.39494 0.16499 0.0
H869 H 0.81709 0.37882 0.25603 0.0
H870 H 0.70891 0.39139 0.1989 0.0
H871 H 0.76545 0.37713 0.28805 0.0
H872 H 0.8757 0.46551 0.08057 0.0
H873 H 0.88651 0.35873 0.05904 0.0
H874 H 0.87178 0.47616 0.01995 0.0
H875 H 0.89202 0.37329 0.99917 0.0
H876 H 0.90203 0.54041 0.20857 0.0
H877 H 0.84959 0.41292 0.23636 0.0
H878 H 0.72432 0.31186 0.08829 0.0
H879 H 0.71772 0.41139 0.04552 0.0
Li880 Li 0.8523 0.6322 0.42237 0.0
Li881 Li 0.91333 0.57162 0.41688 0.0
Li882 Li 0.92738 0.63271 0.38301 0.0
Li883 Li 0.86815 0.57522 0.36111 0.0
C884 C 0.93457 0.65178 0.46048 0.0
N885 N 0.95583 0.68755 0.5174 0.0
C886 C 0.95445 0.63613 0.4853 0.0
C887 C 0.92285 0.68432 0.46717 0.0
C888 C 0.96589 0.65486 0.51309 0.0
C889 C 0.93433 0.70244 0.49532 0.0
C890 C 0.82013 0.54344 0.40176 0.0
C891 C 0.76677 0.52593 0.37847 0.0
N892 N 0.76915 0.49568 0.39482 0.0
C893 C 0.82201 0.51159 0.4181 0.0
C894 C 0.79215 0.55002 0.38186 0.0
C895 C 0.79601 0.48813 0.41442 0.0
C896 C 0.80742 0.59549 0.47056 0.0
N897 N 0.8165 0.62893 0.46756 0.0
C898 C 0.80054 0.63439 0.52712 0.0
C899 C 0.81411 0.64804 0.49691 0.0
C900 C 0.78553 0.602 0.52696 0.0
C901 C 0.7906 0.58206 0.49851 0.0
H902 H 0.81223 0.57868 0.45064 0.0
H903 H 0.82619 0.67219 0.49962 0.0
C904 C 0.93077 0.50376 0.4538 0.0
N905 N 0.9412 0.53624 0.44675 0.0
C906 C 0.94539 0.48471 0.48008 0.0
C907 C 0.98614 0.52895 0.48673 0.0
C908 C 0.97014 0.54747 0.46097 0.0
C909 C 0.97279 0.49776 0.49831 0.0
H910 H 0.90959 0.49303 0.44059 0.0
H911 H 0.98104 0.571 0.45232 0.0
C912 C 0.87076 0.68534 0.35368 0.0
N913 N 0.86907 0.7552 0.33135 0.0
C914 C 0.87137 0.69597 0.31896 0.0
C915 C 0.87052 0.71416 0.37583 0.0
C916 C 0.87138 0.72993 0.30833 0.0
C917 C 0.86817 0.74793 0.36481 0.0
C918 C 0.95702 0.55752 0.37777 0.0
C919 C 0.98842 0.57278 0.38158 0.0
C920 C 0.95572 0.52167 0.37743 0.0
C921 C 0.01715 0.55293 0.38466 0.0
C922 C 0.98498 0.50264 0.38061 0.0
N923 N 0.01488 0.51853 0.38413 0.0
C924 C 0.99201 0.65778 0.41533 0.0
C925 C 0.99646 0.67669 0.3601 0.0
C926 C 0.01427 0.68314 0.42734 0.0
N927 N 0.97769 0.6591 0.38373 0.0
C928 C 0.02011 0.70174 0.37025 0.0
C929 C 0.02679 0.70765 0.4049 0.0
H930 H 0.98694 0.6363 0.43114 0.0
H931 H 0.99038 0.67592 0.33353 0.0
C932 C 0.82057 0.51379 0.30438 0.0
N933 N 0.83941 0.52097 0.33834 0.0
C934 C 0.83335 0.52269 0.26392 0.0
C935 C 0.89819 0.54233 0.32257 0.0
C936 C 0.87293 0.53051 0.34916 0.0
C937 C 0.87401 0.53603 0.25742 0.0
H938 H 0.79494 0.50535 0.30684 0.0
H939 H 0.88056 0.52653 0.37512 0.0
O940 O 0.92077 0.63338 0.4335 0.0
O941 O 0.84563 0.56772 0.40357 0.0
O942 O 0.86731 0.64642 0.3653 0.0
O943 O 0.92804 0.57722 0.37387 0.0
H944 H 0.96068 0.6098 0.48364 0.0
H945 H 0.90276 0.69393 0.45199 0.0
H946 H 0.98212 0.64315 0.53163 0.0
H947 H 0.92534 0.72791 0.50015 0.0
H948 H 0.74519 0.53137 0.36291 0.0
H949 H 0.84288 0.50392 0.43337 0.0
H950 H 0.79035 0.57354 0.36907 0.0
H951 H 0.79735 0.46374 0.42702 0.0
H952 H 0.7989 0.65051 0.54938 0.0
H953 H 0.78135 0.55619 0.49749 0.0
H954 H 0.9343 0.46049 0.48646 0.0
H955 H 0.00886 0.53932 0.49734 0.0
H956 H 0.86994 0.67711 0.29964 0.0
H957 H 0.87377 0.71049 0.40264 0.0
H958 H 0.87196 0.73601 0.28153 0.0
H959 H 0.86724 0.76839 0.38316 0.0
H960 H 0.99111 0.59966 0.3819 0.0
H961 H 0.93244 0.50814 0.37535 0.0
H962 H 0.0413 0.56496 0.3875 0.0
H963 H 0.98384 0.47517 0.38049 0.0
H964 H 0.0215 0.68343 0.45382 0.0
H965 H 0.03183 0.71736 0.3511 0.0
H966 H 0.81135 0.53257 0.24915 0.0
H967 H 0.92292 0.54678 0.32997 0.0
Li968 Li 0.82296 0.62181 0.39092 0.0
Li969 Li 0.88368 0.60139 0.33468 0.0
Li970 Li 0.89743 0.66356 0.39251 0.0
Li971 Li 0.83731 0.65531 0.33176 0.0
C972 C 0.87864 0.59399 0.44518 0.0
N973 N 0.8779 0.57262 0.51532 0.0
C974 C 0.87815 0.55937 0.45628 0.0
C975 C 0.87763 0.61654 0.47369 0.0
C976 C 0.87675 0.54923 0.49033 0.0
C977 C 0.87891 0.60599 0.50763 0.0
C978 C 0.79432 0.61538 0.31525 0.0
C979 C 0.76741 0.61959 0.25968 0.0
N980 N 0.73704 0.62152 0.27489 0.0
C981 C 0.76221 0.61719 0.32962 0.0
C982 C 0.79626 0.61651 0.27931 0.0
C983 C 0.73392 0.62035 0.30917 0.0
C984 C 0.75746 0.6541 0.41117 0.0
N985 N 0.77161 0.62254 0.41415 0.0
C986 C 0.72615 0.60965 0.45331 0.0
C987 C 0.75158 0.59912 0.43047 0.0
C988 C 0.71945 0.64439 0.45838 0.0
C989 C 0.73365 0.66659 0.43471 0.0
H990 H 0.76435 0.66959 0.39006 0.0
H991 H 0.7576 0.57251 0.43049 0.0
C992 C 0.93309 0.54557 0.27397 0.0
N993 N 0.91368 0.57957 0.28044 0.0
C994 C 0.92085 0.50546 0.28423 0.0
C995 C 0.85413 0.56289 0.30039 0.0
C996 C 0.8796 0.59001 0.28911 0.0
C997 C 0.88034 0.49842 0.29571 0.0
H998 H 0.95798 0.5479 0.26346 0.0
H999 H 0.87179 0.61587 0.28472 0.0
C1000 C 0.81456 0.69931 0.41192 0.0
N1001 N 0.79315 0.75624 0.44796 0.0
C1002 C 0.79489 0.7245 0.39636 0.0
C1003 C 0.82619 0.70597 0.44449 0.0
C1004 C 0.78332 0.75217 0.41522 0.0
C1005 C 0.81458 0.73402 0.46275 0.0
C1006 C 0.93191 0.64377 0.30508 0.0
C1007 C 0.93053 0.66077 0.27353 0.0
C1008 C 0.95993 0.62388 0.31181 0.0
C1009 C 0.95699 0.65774 0.25051 0.0
C1010 C 0.9858 0.62122 0.28812 0.0
N1011 N 0.98386 0.63817 0.25817 0.0
C1012 C 0.94047 0.71628 0.35636 0.0
C1013 C 0.93265 0.73942 0.41031 0.0
C1014 C 0.95611 0.74593 0.34469 0.0
N1015 N 0.93145 0.711 0.38967 0.0
C1016 C 0.94519 0.77092 0.39859 0.0
C1017 C 0.96006 0.77359 0.36629 0.0
H1018 H 0.93625 0.69698 0.33815 0.0
H1019 H 0.92048 0.74035 0.43453 0.0
C1020 C 0.81807 0.68967 0.26528 0.0
N1021 N 0.80895 0.68326 0.29822 0.0
C1022 C 0.80038 0.713 0.24593 0.0
C1023 C 0.76062 0.71843 0.29186 0.0
C1024 C 0.77948 0.69538 0.31055 0.0
C1025 C 0.77204 0.7283 0.25983 0.0
H1026 H 0.83983 0.67771 0.2542 0.0
H1027 H 0.77051 0.68696 0.33489 0.0
O1028 O 0.88322 0.60529 0.40625 0.0
O1029 O 0.82328 0.61197 0.33556 0.0
O1030 O 0.8289 0.6726 0.39326 0.0
O1031 O 0.90572 0.64457 0.32856 0.0
H1032 H 0.88064 0.53977 0.43782 0.0
H1033 H 0.8744 0.64328 0.46954 0.0
H1034 H 0.87604 0.52251 0.49677 0.0
H1035 H 0.87902 0.62463 0.52784 0.0
H1036 H 0.76926 0.62081 0.23228 0.0
H1037 H 0.75836 0.61609 0.35623 0.0
H1038 H 0.81987 0.61591 0.26617 0.0
H1039 H 0.70938 0.62188 0.32068 0.0
H1040 H 0.71305 0.59079 0.46809 0.0
H1041 H 0.72685 0.69322 0.43451 0.0
H1042 H 0.93967 0.48538 0.28433 0.0
H1043 H 0.82898 0.57003 0.3004 0.0
H1044 H 0.78919 0.72351 0.36988 0.0
H1045 H 0.84633 0.69091 0.45416 0.0
H1046 H 0.76728 0.77092 0.40352 0.0
H1047 H 0.82346 0.73869 0.48825 0.0
H1048 H 0.90975 0.67616 0.26576 0.0
H1049 H 0.96158 0.61059 0.33516 0.0
H1050 H 0.95602 0.67083 0.22636 0.0
H1051 H 0.00744 0.60573 0.29362 0.0
H1052 H 0.96524 0.74691 0.31877 0.0
H1053 H 0.9457 0.79227 0.41597 0.0
H1054 H 0.80908 0.71955 0.22067 0.0
H1055 H 0.73803 0.72916 0.30266 0.0
Li1056 Li 0.61176 0.40689 0.83494 0.0
Li1057 Li 0.67588 0.39455 0.88578 0.0
Li1058 Li 0.66542 0.3527 0.82717 0.0
Li1059 Li 0.60908 0.3465 0.89284 0.0
C1060 C 0.70319 0.3999 0.80741 0.0
N1061 N 0.7569 0.39871 0.7612 0.0
C1062 C 0.73517 0.41229 0.81606 0.0
C1063 C 0.69996 0.38679 0.77437 0.0
C1064 C 0.76161 0.41132 0.79283 0.0
C1065 C 0.72672 0.38662 0.75155 0.0
C1066 C 0.62272 0.41598 0.94115 0.0
C1067 C 0.63198 0.40372 1.00217 0.0
N1068 N 0.63036 0.43689 0.01054 0.0
C1069 C 0.62057 0.45028 0.95252 0.0
C1070 C 0.62821 0.39354 0.96819 0.0
C1071 C 0.62463 0.46036 0.98635 0.0
C1072 C 0.56054 0.477 0.79134 0.0
N1073 N 0.57003 0.43881 0.79533 0.0
C1074 C 0.63383 0.43534 0.79201 0.0
C1075 C 0.60003 0.41842 0.792 0.0
C1076 C 0.62864 0.50509 0.78858 0.0
C1077 C 0.58594 0.51143 0.79065 0.0
H1078 H 0.53412 0.48267 0.79243 0.0
H1079 H 0.59956 0.39742 0.77448 0.0
C1080 C 0.7508 0.40029 0.90615 0.0
N1081 N 0.71869 0.40829 0.91599 0.0
C1082 C 0.77693 0.39647 0.92978 0.0
C1083 C 0.74097 0.42069 0.97174 0.0
C1084 C 0.71447 0.42031 0.94837 0.0
C1085 C 0.7717 0.4049 0.9638 0.0
H1086 H 0.75663 0.39359 0.88073 0.0
H1087 H 0.68998 0.42708 0.95747 0.0
C1088 C 0.57179 0.35154 0.80245 0.0
N1089 N 0.51978 0.34369 0.75575 0.0
C1090 C 0.57316 0.32643 0.77673 0.0
C1091 C 0.54339 0.37202 0.80342 0.0
C1092 C 0.54671 0.32284 0.75384 0.0
C1093 C 0.51769 0.36821 0.77985 0.0
C1094 C 0.70937 0.32594 0.88945 0.0
C1095 C 0.73611 0.33526 0.86864 0.0
C1096 C 0.71301 0.29694 0.91012 0.0
C1097 C 0.76629 0.31749 0.87012 0.0
C1098 C 0.74349 0.27967 0.91086 0.0
N1099 N 0.76936 0.2903 0.89111 0.0
C1100 C 0.6916 0.31326 0.76081 0.0
C1101 C 0.71173 0.29256 0.8123 0.0
C1102 C 0.71234 0.29066 0.74279 0.0
N1103 N 0.69417 0.31701 0.79538 0.0
C1104 C 0.73347 0.27023 0.79574 0.0
C1105 C 0.73514 0.26959 0.76016 0.0
H1106 H 0.67298 0.32709 0.74666 0.0
H1107 H 0.70717 0.28804 0.83863 0.0
C1108 C 0.5693 0.29276 0.86464 0.0
N1109 N 0.57905 0.29834 0.89715 0.0
C1110 C 0.55554 0.26281 0.8527 0.0
C1111 C 0.56355 0.23931 0.90789 0.0
C1112 C 0.57828 0.27061 0.9185 0.0
C1113 C 0.55036 0.23594 0.87455 0.0
H1114 H 0.57207 0.31211 0.84733 0.0
H1115 H 0.59005 0.27207 0.94318 0.0
O1116 O 0.67519 0.40143 0.82951 0.0
O1117 O 0.61801 0.4049 0.90296 0.0
O1118 O 0.5981 0.35804 0.82551 0.0
O1119 O 0.6798 0.34449 0.88876 0.0
H1120 H 0.74119 0.42257 0.84 0.0
H1121 H 0.67637 0.37703 0.76583 0.0
H1122 H 0.78597 0.42081 0.80003 0.0
H1123 H 0.72344 0.37667 0.72615 0.0
H1124 H 0.63355 0.38522 0.02227 0.0
H1125 H 0.61699 0.46967 0.9339 0.0
H1126 H 0.62322 0.36785 0.96306 0.0
H1127 H 0.62308 0.48692 0.99328 0.0
H1128 H 0.65052 0.41864 0.78035 0.0
H1129 H 0.57376 0.53182 0.80668 0.0
H1130 H 0.80061 0.38596 0.92156 0.0
H1131 H 0.73582 0.42975 0.99699 0.0
H1132 H 0.59361 0.30923 0.77325 0.0
H1133 H 0.54185 0.39111 0.82221 0.0
H1134 H 0.54776 0.3035 0.73432 0.0
H1135 H 0.49601 0.38458 0.78094 0.0
H1136 H 0.73289 0.35489 0.85004 0.0
H1137 H 0.69311 0.28832 0.92658 0.0
H1138 H 0.78697 0.32487 0.85396 0.0
H1139 H 0.74661 0.25786 0.92728 0.0
H1140 H 0.70968 0.28933 0.71549 0.0
H1141 H 0.74817 0.25337 0.81132 0.0
H1142 H 0.54772 0.26155 0.82638 0.0
H1143 H 0.56127 0.21867 0.92594 0.0
Li1144 Li 0.90226 0.92386 0.90529 0.0
Li1145 Li 0.95912 0.89574 0.87167 0.0
Li1146 Li 0.96312 0.93873 0.91716 0.0
Li1147 Li 0.94527 0.95414 0.86244 0.0
C1148 C 0.95933 0.874 0.94606 0.0
N1149 N 0.99099 0.84263 1.00026 0.0
C1150 C 0.99181 0.88311 0.955 0.0
C1151 C 0.94516 0.84559 0.96195 0.0
C1152 C 0.00684 0.8681 0.98331 0.0
C1153 C 0.96089 0.83073 0.98978 0.0
C1154 C 0.9117 0.90416 0.81798 0.0
C1155 C 0.91702 0.91442 0.75733 0.0
N1156 N 0.90906 0.88155 0.75095 0.0
C1157 C 0.90076 0.8714 0.81029 0.0
C1158 C 0.91908 0.92599 0.7908 0.0
C1159 C 0.90146 0.85986 0.77659 0.0
C1160 C 0.86801 0.94545 0.97215 0.0
N1161 N 0.8593 0.93498 0.93866 0.0
C1162 C 0.80189 0.92708 0.95956 0.0
C1163 C 0.82461 0.93115 0.93209 0.0
C1164 C 0.81332 0.92441 0.99341 0.0
C1165 C 0.84609 0.9358 1.00053 0.0
H1166 H 0.87612 0.93653 0.94673 0.0
H1167 H 0.81582 0.92832 0.90631 0.0
C1168 C 0.01073 0.8427 0.86389 0.0
N1169 N 0.98317 0.85611 0.84877 0.0
C1170 C 0.02411 0.81171 0.85226 0.0
C1171 C 0.98247 0.80959 0.8089 0.0
C1172 C 0.97308 0.84246 0.81861 0.0
C1173 C 0.00698 0.79283 0.82748 0.0
H1174 H 0.02131 0.85505 0.88594 0.0
H1175 H 0.95899 0.85717 0.80136 0.0
C1176 C 0.9191 1.00008 0.91197 0.0
N1177 N 0.90579 0.06877 0.91781 0.0
C1178 C 0.88607 0.01163 0.9143 0.0
C1179 C 0.94531 0.02355 0.91257 0.0
C1180 C 0.87988 0.04642 0.9172 0.0
C1181 C 0.93807 0.05815 0.91564 0.0
C1182 C 0.01392 0.93503 0.85078 0.0
C1183 C 0.00774 0.92109 0.81875 0.0
C1184 C 0.04576 0.94777 0.85801 0.0
C1185 C 0.03368 0.9188 0.79507 0.0
C1186 C 0.07097 0.94544 0.83353 0.0
N1187 N 0.06454 0.93092 0.8029 0.0
C1188 C 0.01645 0.96424 0.95444 0.0
C1189 C 0.96255 0.97003 0.9793 0.0
C1190 C 0.03091 0.98085 0.98159 0.0
N1191 N 0.98304 0.95869 0.9542 0.0
C1192 C 0.97584 0.9876 0.00667 0.0
C1193 C 0.01041 0.99245 0.00797 0.0
H1194 H 0.03182 0.95509 0.93395 0.0
H1195 H 0.93593 0.9658 0.97767 0.0
C1196 C 0.91752 0.00968 0.83433 0.0
N1197 N 0.94665 0.99218 0.83421 0.0
C1198 C 0.91319 0.03701 0.81296 0.0
C1199 C 0.96858 0.02696 0.79006 0.0
C1200 C 0.97255 1.00092 0.81348 0.0
C1201 C 0.93838 0.04475 0.78972 0.0
H1202 H 0.89667 1.00075 0.84913 0.0
H1203 H 0.9955 0.98685 0.81354 0.0
O1204 O 0.9421 0.89188 0.92148 0.0
O1205 O 0.91455 0.91493 0.85145 0.0
O1206 O 0.92553 0.96638 0.90612 0.0
O1207 O 0.98938 0.93544 0.87519 0.0
H1208 H 0.00557 0.90097 0.93978 0.0
H1209 H 0.92288 0.83394 0.95228 0.0
H1210 H 0.03137 0.87627 0.9914 0.0
H1211 H 0.94935 0.80944 1.0027 0.0
H1212 H 0.92256 0.93143 0.73646 0.0
H1213 H 0.89454 0.85402 0.83007 0.0
H1214 H 0.92603 0.95179 0.79483 0.0
H1215 H 0.89737 0.83333 0.77099 0.0
H1216 H 0.77569 0.92406 0.95437 0.0
H1217 H 0.86307 0.95456 0.99087 0.0
H1218 H 0.04552 0.80128 0.86491 0.0
H1219 H 0.97107 0.7977 0.78698 0.0
H1220 H 0.86532 0.99423 0.91215 0.0
H1221 H 0.97094 0.01517 0.9099 0.0
H1222 H 0.85445 0.05567 0.91848 0.0
H1223 H 0.95811 0.07661 0.91594 0.0
H1224 H 0.98311 0.91239 0.81213 0.0
H1225 H 0.05114 0.95958 0.88208 0.0
H1226 H 0.02923 0.90758 0.7704 0.0
H1227 H 0.0957 0.95515 0.83893 0.0
H1228 H 0.0577 0.98493 0.98187 0.0
H1229 H 0.95957 0.99689 0.02666 0.0
H1230 H 0.88905 0.04946 0.81204 0.0
H1231 H 0.98795 0.03202 0.77142 0.0
Li1232 Li 0.83049 0.1709 0.67049 0.0
Li1233 Li 0.87756 0.12401 0.66713 0.0
Li1234 Li 0.89488 0.16191 0.60721 0.0
Li1235 Li 0.8243 0.12978 0.60519 0.0
C1236 C 0.90468 0.18122 0.70507 0.0
N1237 N 0.93632 0.20176 0.76454 0.0
C1238 C 0.93728 0.17172 0.71204 0.0
C1239 C 0.88774 0.20094 0.72943 0.0
C1240 C 0.95313 0.18228 0.74175 0.0
C1241 C 0.90412 0.21112 0.75905 0.0
C1242 C 0.79254 0.11053 0.67937 0.0
C1243 C 0.73991 0.08014 0.68303 0.0
N1244 N 0.73462 0.09324 0.71453 0.0
C1245 C 0.78625 0.12316 0.7115 0.0
C1246 C 0.76902 0.08835 0.6651 0.0
C1247 C 0.75722 0.1144 0.72913 0.0
C1248 C 0.79038 0.23164 0.69059 0.0
N1249 N 0.80226 0.20225 0.70448 0.0
C1250 C 0.77465 0.21829 0.75704 0.0
C1251 C 0.79713 0.1978 0.7387 0.0
C1252 C 0.75907 0.2464 0.74146 0.0
C1253 C 0.76866 0.25343 0.70794 0.0
H1254 H 0.7993 0.24003 0.66664 0.0
H1255 H 0.81105 0.1792 0.75293 0.0
C1256 C 0.90788 0.0642 0.70411 0.0
N1257 N 0.89742 0.09713 0.70732 0.0
C1258 C 0.92445 0.0478 0.73001 0.0
C1259 C 0.91602 0.09727 0.76507 0.0
C1260 C 0.89945 0.11256 0.73828 0.0
C1261 C 0.92908 0.0648 0.76057 0.0
H1262 H 0.90285 0.05039 0.68099 0.0
H1263 H 0.88563 0.13533 0.74344 0.0
C1264 C 0.77948 0.18772 0.62133 0.0
N1265 N 0.71475 0.21418 0.62513 0.0
C1266 C 0.75218 0.16719 0.62977 0.0
C1267 C 0.77288 0.22235 0.61464 0.0
C1268 C 0.71997 0.18075 0.63167 0.0
C1269 C 0.74041 0.2351 0.6167 0.0
C1270 C 0.89042 0.08983 0.56942 0.0
C1271 C 0.87974 0.10554 0.53848 0.0
C1272 C 0.90315 0.05667 0.56393 0.0
C1273 C 0.88292 0.0901 0.50657 0.0
C1274 C 0.90446 0.04102 0.53207 0.0
N1275 N 0.89476 0.05809 0.50404 0.0
C1276 C 0.97742 0.15377 0.64038 0.0
C1277 C 0.98553 0.18069 0.58692 0.0
C1278 C 0.99891 0.17787 0.65738 0.0
N1279 N 0.96213 0.16348 0.60929 0.0
C1280 C 0.01272 0.19821 0.60144 0.0
C1281 C 0.01455 0.20221 0.63724 0.0
H1282 H 0.95653 0.15602 0.62404 0.0
H1283 H 0.97997 0.18623 0.56078 0.0
C1284 C 0.8104 0.13786 0.52017 0.0
N1285 N 0.81029 0.15268 0.55205 0.0
C1286 C 0.78895 0.14831 0.49458 0.0
C1287 C 0.77389 0.19573 0.52824 0.0
C1288 C 0.79795 0.18525 0.55117 0.0
C1289 C 0.76703 0.17494 0.50103 0.0
H1290 H 0.82387 0.11571 0.51377 0.0
H1291 H 0.80671 0.20454 0.567 0.0
O1292 O 0.88968 0.1712 0.67495 0.0
O1293 O 0.82132 0.12011 0.66233 0.0
O1294 O 0.81195 0.17447 0.61767 0.0
O1295 O 0.88865 0.10914 0.60504 0.0
H1296 H 0.94901 0.15488 0.69518 0.0
H1297 H 0.86216 0.20815 0.72642 0.0
H1298 H 0.97855 0.17454 0.7469 0.0
H1299 H 0.8911 0.22632 0.77778 0.0
H1300 H 0.72135 0.0637 0.6717 0.0
H1301 H 0.80558 0.13719 0.72324 0.0
H1302 H 0.77162 0.07943 0.63969 0.0
H1303 H 0.75298 0.12396 0.75454 0.0
H1304 H 0.77018 0.21185 0.78331 0.0
H1305 H 0.76054 0.2763 0.69515 0.0
H1306 H 0.93188 0.02149 0.72674 0.0
H1307 H 0.91657 0.1096 0.78968 0.0
H1308 H 0.75511 0.14097 0.63461 0.0
H1309 H 0.79286 0.23968 0.60815 0.0
H1310 H 0.69906 0.16455 0.63821 0.0
H1311 H 0.73567 0.26169 0.61167 0.0
H1312 H 0.87085 0.13135 0.53914 0.0
H1313 H 0.9116 0.04246 0.58485 0.0
H1314 H 0.8757 0.1037 0.48386 0.0
H1315 H 0.91372 0.01531 0.52965 0.0
H1316 H 0.99576 0.15106 0.65322 0.0
H1317 H 0.02924 0.21223 0.58494 0.0
H1318 H 0.78802 0.13394 0.47126 0.0
H1319 H 0.76145 0.21999 0.53148 0.0
Li1320 Li 0.57249 0.13763 0.36379 0.0
Li1321 Li 0.63771 0.14285 0.41286 0.0
Li1322 Li 0.62871 0.0864 0.36212 0.0
Li1323 Li 0.57999 0.07764 0.4106 0.0
C1324 C 0.62538 0.18952 0.34395 0.0
N1325 N 0.61852 0.2582 0.32128 0.0
C1326 C 0.61192 0.21598 0.36417 0.0
C1327 C 0.63485 0.20088 0.31085 0.0
C1328 C 0.60852 0.24952 0.35294 0.0
C1329 C 0.63166 0.23462 0.30013 0.0
C1330 C 0.54368 0.13992 0.44731 0.0
C1331 C 0.52176 0.16712 0.49835 0.0
N1332 N 0.49312 0.14889 0.4956 0.0
C1333 C 0.5132 0.12232 0.445 0.0
C1334 C 0.54708 0.16341 0.4742 0.0
C1335 C 0.48833 0.12684 0.46956 0.0
C1336 C 0.50175 0.17032 0.32907 0.0
N1337 N 0.53626 0.17169 0.33183 0.0
C1338 C 0.53298 0.22955 0.30983 0.0
C1339 C 0.55043 0.20009 0.31778 0.0
C1340 C 0.49864 0.23059 0.31337 0.0
C1341 C 0.48258 0.19948 0.32031 0.0
H1342 H 0.48788 0.14822 0.33648 0.0
H1343 H 0.57534 0.20081 0.31137 0.0
C1344 C 0.70961 0.16636 0.4282 0.0
N1345 N 0.67868 0.16382 0.446 0.0
C1346 C 0.7398 0.17127 0.44628 0.0
C1347 C 0.70634 0.18695 0.49581 0.0
C1348 C 0.67697 0.17869 0.47906 0.0
C1349 C 0.73719 0.17975 0.48037 0.0
H1350 H 0.68469 0.15473 0.43129 0.0
H1351 H 0.65358 0.18379 0.49143 0.0
C1352 C 0.53889 0.07 0.36123 0.0
N1353 N 0.47194 0.05054 0.36318 0.0
C1354 C 0.52968 0.03547 0.36094 0.0
C1355 C 0.51363 0.09386 0.36405 0.0
C1356 C 0.49594 0.02626 0.36139 0.0
C1357 C 0.48006 0.08398 0.3647 0.0
C1358 C 0.66743 0.04453 0.40502 0.0
C1359 C 0.69709 0.04466 0.38582 0.0
C1360 C 0.65947 0.01436 0.4228 0.0
C1361 C 0.71789 0.01624 0.38501 0.0
C1362 C 0.68078 0.98629 0.42103 0.0
N1363 N 0.70932 0.98779 0.40242 0.0
C1364 C 0.6649 0.06131 0.29997 0.0
C1365 C 0.64952 0.01858 0.33859 0.0
C1366 C 0.68104 0.03812 0.27938 0.0
N1367 N 0.65084 0.0522 0.33006 0.0
C1368 C 0.6664 0.99439 0.31953 0.0
C1369 C 0.6819 1.00403 0.28898 0.0
H1370 H 0.65942 0.08596 0.28988 0.0
H1371 H 0.6348 0.01032 0.36007 0.0
C1372 C 0.54051 0.061 0.4738 0.0
N1373 N 0.54875 0.04684 0.44308 0.0
C1374 C 0.51952 0.04503 0.49716 0.0
C1375 C 0.51651 0.99731 0.45963 0.0
C1376 C 0.53856 0.01421 0.43712 0.0
C1377 C 0.50602 0.01301 0.49019 0.0
H1378 H 0.55074 0.08502 0.48138 0.0
H1379 H 0.54787 1.00054 0.41541 0.0
O1380 O 0.63063 0.15224 0.35676 0.0
O1381 O 0.56746 0.13836 0.4207 0.0
O1382 O 0.5718 0.08123 0.36105 0.0
O1383 O 0.6469 0.07339 0.40597 0.0
H1384 H 0.60967 0.2119 0.39051 0.0
H1385 H 0.64263 0.18269 0.2926 0.0
H1386 H 0.59925 0.26887 0.37006 0.0
H1387 H 0.63891 0.24178 0.27462 0.0
H1388 H 0.52465 0.18507 0.51895 0.0
H1389 H 0.50911 0.10384 0.42566 0.0
H1390 H 0.56841 0.18001 0.47621 0.0
H1391 H 0.4653 0.11252 0.46804 0.0
H1392 H 0.54667 0.25172 0.30119 0.0
H1393 H 0.45557 0.19818 0.32142 0.0
H1394 H 0.72737 0.17715 0.42285 0.0
H1395 H 0.7049 0.19524 0.52201 0.0
H1396 H 0.54762 0.01521 0.36186 0.0
H1397 H 0.52059 0.11971 0.36843 0.0
H1398 H 0.4889 0.99971 0.36108 0.0
H1399 H 0.46055 0.10281 0.36743 0.0
H1400 H 0.70383 0.06644 0.37097 0.0
H1401 H 0.63712 0.01103 0.43749 0.0
H1402 H 0.74063 0.01669 0.37009 0.0
H1403 H 0.67445 0.96314 0.43442 0.0
H1404 H 0.68973 0.04656 0.25472 0.0
H1405 H 0.66559 0.96816 0.32781 0.0
H1406 H 0.5147 0.05788 0.52097 0.0
H1407 H 0.50806 0.97213 0.45282 0.0
Li1408 Li 0.69183 0.90054 0.17376 0.0
Li1409 Li 0.7087 0.84031 0.17568 0.0
Li1410 Li 0.71225 0.87322 0.11963 0.0
Li1411 Li 0.64532 0.85001 0.15667 0.0
C1412 C 0.76737 0.89292 0.1579 0.0
N1413 N 0.83097 0.91884 0.14742 0.0
C1414 C 0.77212 0.92721 0.15033 0.0
C1415 C 0.79526 0.87157 0.15935 0.0
C1416 C 0.80425 0.93995 0.14528 0.0
C1417 C 0.82715 0.88518 0.15424 0.0
C1418 C 0.66307 0.85277 0.23117 0.0
C1419 C 0.62413 0.84804 0.2782 0.0
N1420 N 0.65011 0.84322 0.2998 0.0
C1421 C 0.68927 0.85021 0.25441 0.0
C1422 C 0.63023 0.85372 0.24377 0.0
C1423 C 0.68229 0.84439 0.28872 0.0
C1424 C 0.67239 0.93035 0.23173 0.0
N1425 N 0.69373 0.93755 0.20602 0.0
C1426 C 0.71404 0.98538 0.23728 0.0
C1427 C 0.71503 0.96445 0.20861 0.0
C1428 C 0.69092 0.97842 0.26337 0.0
C1429 C 0.6709 0.94962 0.26073 0.0
H1430 H 0.65307 0.91251 0.22823 0.0
H1431 H 0.7323 0.97061 0.18872 0.0
C1432 C 0.71075 0.77707 0.20732 0.0
N1433 N 0.72783 0.80667 0.20329 0.0
C1434 C 0.72442 0.75092 0.22661 0.0
C1435 C 0.77233 0.78691 0.23789 0.0
C1436 C 0.75763 0.81237 0.2187 0.0
C1437 C 0.75574 0.7558 0.24147 0.0
H1438 H 0.68681 0.77373 0.19515 0.0
H1439 H 0.76962 0.83686 0.21653 0.0
C1440 C 0.67121 0.92383 0.10242 0.0
N1441 N 0.68242 0.97529 0.05418 0.0
C1442 C 0.65699 0.92289 0.06946 0.0
C1443 C 0.69025 0.95268 0.11021 0.0
C1444 C 0.66378 0.94798 0.04548 0.0
C1445 C 0.69498 0.97855 0.08601 0.0
C1446 C 0.70735 0.79625 0.12033 0.0
C1447 C 0.7401 0.79023 0.13075 0.0
C1448 C 0.69303 0.77374 0.09688 0.0
C1449 C 0.75585 0.75979 0.12191 0.0
C1450 C 0.70938 0.74364 0.08845 0.0
N1451 N 0.74012 0.7371 0.10139 0.0
C1452 C 0.76696 0.86558 0.05869 0.0
C1453 C 0.75409 0.92177 0.07142 0.0
C1454 C 0.78725 0.87647 0.0306 0.0
N1455 N 0.74794 0.88792 0.07756 0.0
C1456 C 0.77424 0.9338 0.04421 0.0
C1457 C 0.79077 0.91128 0.02231 0.0
H1458 H 0.76619 0.83876 0.06472 0.0
H1459 H 0.74573 0.94037 0.08885 0.0
C1460 C 0.59697 0.79393 0.20205 0.0
N1461 N 0.59402 0.82395 0.18162 0.0
C1462 C 0.57133 0.76688 0.19905 0.0
C1463 C 0.53314 0.80949 0.17917 0.0
C1464 C 0.55994 0.83312 0.175 0.0
C1465 C 0.53912 0.77478 0.18617 0.0
H1466 H 0.60834 0.8154 0.18807 0.0
H1467 H 0.55478 0.85714 0.16402 0.0
O1468 O 0.73574 0.88046 0.16349 0.0
O1469 O 0.66944 0.86065 0.19757 0.0
O1470 O 0.66485 0.89927 0.12772 0.0
O1471 O 0.69033 0.82483 0.13141 0.0
H1472 H 0.75122 0.94366 0.14686 0.0
H1473 H 0.7927 0.84476 0.16421 0.0
H1474 H 0.80787 0.96654 0.13924 0.0
H1475 H 0.84888 0.86892 0.15556 0.0
H1476 H 0.59881 0.8485 0.28791 0.0
H1477 H 0.7147 0.85435 0.24645 0.0
H1478 H 0.60979 0.86151 0.22782 0.0
H1479 H 0.7025 0.8417 0.30669 0.0
H1480 H 0.73028 0.00738 0.23842 0.0
H1481 H 0.65111 0.94395 0.27867 0.0
H1482 H 0.71118 0.72703 0.22925 0.0
H1483 H 0.79633 0.79135 0.24978 0.0
H1484 H 0.63827 0.90546 0.06191 0.0
H1485 H 0.69949 0.95617 0.1356 0.0
H1486 H 0.65285 0.94645 0.02036 0.0
H1487 H 0.70932 1.00091 0.09243 0.0
H1488 H 0.75324 0.80874 0.14568 0.0
H1489 H 0.66973 0.77948 0.08463 0.0
H1490 H 0.78069 0.75436 0.13116 0.0
H1491 H 0.69777 0.72569 0.07131 0.0
H1492 H 0.80042 0.85762 0.01574 0.0
H1493 H 0.7775 0.96095 0.04095 0.0
H1494 H 0.58905 0.77909 0.21531 0.0
H1495 H 0.50834 0.81709 0.17148 0.0
Li1496 Li 0.8715 0.08944 0.65513 0.0
Li1497 Li 0.92873 0.08501 0.60488 0.0
Li1498 Li 0.9158 0.15362 0.63471 0.0
Li1499 Li 0.85238 0.11776 0.5846 0.0
C1500 C 0.95898 0.08234 0.66198 0.0
N1501 N 0.01002 0.0381 0.68166 0.0
C1502 C 0.95969 0.04846 0.65118 0.0
C1503 C 0.98361 0.09237 0.68557 0.0
C1504 C 0.98567 0.0268 0.66061 0.0
C1505 C 0.00941 0.07015 0.69434 0.0
C1506 C 0.85368 0.02885 0.61453 0.0
C1507 C 0.85806 0.96736 0.61243 0.0
N1508 N 0.82424 0.96493 0.61072 0.0
C1509 C 0.81904 0.02518 0.61366 0.0
C1510 C 0.87335 0.9992 0.61477 0.0
C1511 C 0.80457 0.99302 0.6114 0.0
C1512 C 0.83539 0.07084 0.73118 0.0
N1513 N 0.84367 0.05867 0.69927 0.0
C1514 C 0.83287 1.00158 0.72303 0.0
C1515 C 0.84203 0.02377 0.69611 0.0
C1516 C 0.82492 0.014 0.75541 0.0
C1517 C 0.826 0.04951 0.75891 0.0
H1518 H 0.83862 0.09715 0.73695 0.0
H1519 H 0.85144 0.0116 0.67414 0.0
C1520 C 0.99844 0.07299 0.56941 0.0
N1521 N 0.97112 0.05607 0.58204 0.0
C1522 C 0.02012 0.05766 0.54511 0.0
C1523 C 0.99022 0.00553 0.5522 0.0
C1524 C 0.96958 0.02163 0.57616 0.0
C1525 C 0.01532 0.02354 0.53469 0.0
H1526 H 0.00167 0.09965 0.57537 0.0
H1527 H 0.95063 0.00614 0.58804 0.0
C1528 C 0.8632 0.19356 0.62481 0.0
N1529 N 0.85955 0.26247 0.60373 0.0
C1530 C 0.86259 0.20348 0.59008 0.0
C1531 C 0.85855 0.22094 0.64796 0.0
C1532 C 0.86101 0.23761 0.58003 0.0
C1533 C 0.85851 0.25484 0.63723 0.0
C1534 C 0.9332 0.14832 0.54164 0.0
C1535 C 0.95365 0.12548 0.52411 0.0
C1536 C 0.92264 0.17762 0.524 0.0
C1537 C 0.96659 0.13375 0.49222 0.0
C1538 C 0.93612 0.18524 0.49214 0.0
N1539 N 0.95788 0.16345 0.47711 0.0
C1540 C 0.93987 0.236 0.6572 0.0
C1541 C 0.92927 0.22006 0.60145 0.0
C1542 C 0.95349 0.26707 0.64495 0.0
N1543 N 0.93041 0.21084 0.63497 0.0
C1544 C 0.94357 0.24913 0.58831 0.0
C1545 C 0.95978 0.27101 0.60992 0.0
H1546 H 0.93931 0.2322 0.6842 0.0
H1547 H 0.92223 0.20172 0.58349 0.0
C1548 C 0.81728 0.05906 0.54399 0.0
N1549 N 0.81118 0.0871 0.56586 0.0
C1550 C 0.79408 0.05353 0.51649 0.0
C1551 C 0.75312 0.08598 0.54911 0.0
C1552 C 0.77735 0.09507 0.57269 0.0
C1553 C 0.76273 0.06982 0.51847 0.0
H1554 H 0.82697 0.08078 0.55835 0.0
H1555 H 0.77138 0.11359 0.59149 0.0
O1556 O 0.93105 0.10236 0.65375 0.0
O1557 O 0.86799 0.06092 0.61672 0.0
O1558 O 0.85925 0.15448 0.63266 0.0
O1559 O 0.9203 0.1395 0.57376 0.0
H1560 H 0.93922 0.03858 0.63657 0.0
H1561 H 0.98331 0.11632 0.69838 0.0
H1562 H 0.98609 1.00081 0.65166 0.0
H1563 H 0.02857 0.0782 0.71193 0.0
H1564 H 0.87309 0.94453 0.61251 0.0
H1565 H 0.80344 0.04693 0.61451 0.0
H1566 H 0.90002 1.00022 0.61813 0.0
H1567 H 0.77768 0.99042 0.61029 0.0
H1568 H 0.83382 0.97438 0.71882 0.0
H1569 H 0.8214 0.06087 0.78354 0.0
H1570 H 0.0399 0.07289 0.53415 0.0
H1571 H 0.9849 0.97919 0.54661 0.0
H1572 H 0.86353 0.18401 0.57087 0.0
H1573 H 0.8544 0.2171 0.67419 0.0
H1574 H 0.86125 0.24415 0.55334 0.0
H1575 H 0.85623 0.27507 0.65571 0.0
H1576 H 0.95709 0.10042 0.53365 0.0
H1577 H 0.90381 0.19443 0.53376 0.0
H1578 H 0.98272 0.11605 0.47903 0.0
H1579 H 0.92873 0.20822 0.47908 0.0
H1580 H 0.96215 0.28601 0.66278 0.0
H1581 H 0.94541 0.25196 0.56097 0.0
H1582 H 0.81014 0.0405 0.53417 0.0
H1583 H 0.72885 0.0976 0.55225 0.0
Li1584 Li 0.59849 0.16466 0.38351 0.0
Li1585 Li 0.66778 0.12465 0.39229 0.0
Li1586 Li 0.66547 0.16012 0.32829 0.0
Li1587 Li 0.61756 0.10521 0.33217 0.0
C1588 C 0.67145 0.21659 0.39755 0.0
N1589 N 0.68586 0.28342 0.4162 0.0
C1590 C 0.68795 0.23869 0.37535 0.0
C1591 C 0.65843 0.23085 0.42762 0.0
C1592 C 0.69613 0.27167 0.38548 0.0
C1593 C 0.66694 0.26389 0.43718 0.0
C1594 C 0.61222 0.10688 0.44027 0.0
C1595 C 0.61396 0.07136 0.49248 0.0
N1596 N 0.61496 0.09927 0.51239 0.0
C1597 C 0.61487 0.13499 0.46309 0.0
C1598 C 0.61089 0.07481 0.45729 0.0
C1599 C 0.61466 0.13071 0.49858 0.0
C1600 C 0.52601 0.18187 0.39635 0.0
N1601 N 0.55713 0.19729 0.40288 0.0
C1602 C 0.52948 0.24016 0.43771 0.0
C1603 C 0.55895 0.22516 0.42617 0.0
C1604 C 0.49867 0.22612 0.42826 0.0
C1605 C 0.49654 0.19578 0.41054 0.0
H1606 H 0.55287 0.18571 0.38985 0.0
H1607 H 0.58272 0.23555 0.43393 0.0
C1608 C 0.7375 0.09001 0.42666 0.0
N1609 N 0.70436 0.09928 0.4303 0.0
C1610 C 0.75653 0.0776 0.45425 0.0
C1611 C 0.70824 0.0817 0.48943 0.0
C1612 C 0.69079 0.09434 0.46178 0.0
C1613 C 0.74223 0.07498 0.48687 0.0
H1614 H 0.75012 0.09156 0.40264 0.0
H1615 H 0.66701 0.10304 0.4671 0.0
C1616 C 0.58297 0.13968 0.28366 0.0
N1617 N 0.54674 0.12926 0.22427 0.0
C1618 C 0.5529 0.12137 0.28396 0.0
C1619 C 0.59438 0.15262 0.25234 0.0
C1620 C 0.535 0.11645 0.25401 0.0
C1621 C 0.57581 0.14703 0.22286 0.0
C1622 C 0.70882 0.11727 0.32706 0.0
C1623 C 0.71792 0.1154 0.2924 0.0
C1624 C 0.7336 0.12588 0.35016 0.0
C1625 C 0.75148 0.11822 0.28289 0.0
C1626 C 0.76698 0.1283 0.33995 0.0
N1627 N 0.77522 0.12426 0.30672 0.0
C1628 C 0.72903 0.19909 0.31582 0.0
C1629 C 0.69883 0.19477 0.26495 0.0
C1630 C 0.74956 0.22449 0.30195 0.0
N1631 N 0.70203 0.18675 0.29863 0.0
C1632 C 0.71936 0.21958 0.24968 0.0
C1633 C 0.74425 0.23654 0.26866 0.0
H1634 H 0.73254 0.19239 0.34217 0.0
H1635 H 0.67918 0.18334 0.25 0.0
C1636 C 0.58554 0.03385 0.30491 0.0
N1637 N 0.5983 0.06441 0.29447 0.0
C1638 C 0.57689 0.00721 0.28229 0.0
C1639 C 0.5966 0.04118 0.23636 0.0
C1640 C 0.60369 0.06767 0.25989 0.0
C1641 C 0.58268 0.01017 0.24726 0.0
H1642 H 0.58641 0.02812 0.3312 0.0
H1643 H 0.61635 0.08983 0.2502 0.0
O1644 O 0.66325 0.18283 0.38785 0.0
O1645 O 0.60976 0.11144 0.40082 0.0
O1646 O 0.59973 0.14622 0.31392 0.0
O1647 O 0.67603 0.11409 0.3386 0.0
H1648 H 0.69127 0.23207 0.34947 0.0
H1649 H 0.64047 0.2171 0.44277 0.0
H1650 H 0.70945 0.28838 0.36831 0.0
H1651 H 0.65768 0.2743 0.46083 0.0
H1652 H 0.61364 0.04638 0.50397 0.0
H1653 H 0.61503 0.16064 0.45321 0.0
H1654 H 0.60706 0.05211 0.44321 0.0
H1655 H 0.61421 0.15251 0.51527 0.0
H1656 H 0.53069 0.26386 0.45165 0.0
H1657 H 0.50746 0.17359 0.3998 0.0
H1658 H 0.78277 0.07213 0.45029 0.0
H1659 H 0.69491 0.079 0.51322 0.0
H1660 H 0.5435 0.11075 0.30712 0.0
H1661 H 0.61744 0.16633 0.24971 0.0
H1662 H 0.51183 0.10227 0.25442 0.0
H1663 H 0.58464 0.15677 0.19875 0.0
H1664 H 0.69982 0.11385 0.27226 0.0
H1665 H 0.72656 0.13241 0.37549 0.0
H1666 H 0.75852 0.11645 0.25639 0.0
H1667 H 0.78614 0.13445 0.35828 0.0
H1668 H 0.76818 0.23548 0.31841 0.0
H1669 H 0.71504 0.22556 0.22326 0.0
H1670 H 0.56805 0.98332 0.29265 0.0
H1671 H 0.60295 0.04472 0.20983 0.0
Li1672 Li 0.55603 0.90658 0.07736 0.0
Li1673 Li 0.57438 0.89012 0.1349 0.0
Li1674 Li 0.60742 0.8696 0.08143 0.0
Li1675 Li 0.5543 0.84606 0.08679 0.0
C1676 C 0.59149 0.95284 0.11469 0.0
N1677 N 0.58059 0.02094 0.13094 0.0
C1678 C 0.61689 0.9733 0.12827 0.0
C1679 C 0.55941 0.96648 0.11477 0.0
C1680 C 0.61149 0.00758 0.13511 0.0
C1681 C 0.55447 1.00106 0.12144 0.0
C1682 C 0.4958 0.88278 0.12381 0.0
C1683 C 0.45575 0.88442 0.17024 0.0
N1684 N 0.43037 0.88743 0.14768 0.0
C1685 C 0.46881 0.88511 0.10121 0.0
C1686 C 0.48864 0.88179 0.15872 0.0
C1687 C 0.43619 0.88769 0.1137 0.0
C1688 C 0.55193 0.9496 0.02171 0.0
N1689 N 0.53551 0.93928 0.05018 0.0
C1690 C 0.48665 0.96932 0.0347 0.0
C1691 C 0.5039 0.94948 0.05744 0.0
C1692 C 0.50219 0.97825 1.00432 0.0
C1693 C 0.53527 0.96905 0.99772 0.0
H1694 H 0.57735 0.94142 0.01711 0.0
H1695 H 0.49211 0.94257 0.08099 0.0
C1696 C 0.60316 0.93295 0.19016 0.0
N1697 N 0.5728 0.92141 0.17956 0.0
C1698 C 0.60639 0.96316 0.2098 0.0
C1699 C 0.54725 0.96664 0.21386 0.0
C1700 C 0.54503 0.93891 0.19069 0.0
C1701 C 0.57852 0.9797 0.22353 0.0
H1702 H 0.6252 0.92133 0.1794 0.0
H1703 H 0.52102 0.93399 0.1797 0.0
C1704 C 0.55513 0.87154 0.01871 0.0
N1705 N 0.52063 0.86718 0.95815 0.0
C1706 C 0.52045 0.86824 0.01864 0.0
C1707 C 0.57232 0.87348 0.98778 0.0
C1708 C 0.50338 0.86612 0.98792 0.0
C1709 C 0.55444 0.87078 0.95746 0.0
C1710 C 0.61021 0.80565 0.11312 0.0
C1711 C 0.60149 0.78591 0.08521 0.0
C1712 C 0.63034 0.78835 0.13716 0.0
C1713 C 0.60475 0.75035 0.08552 0.0
C1714 C 0.63199 0.75288 0.13818 0.0
N1715 N 0.61888 0.7345 0.11247 0.0
C1716 C 0.67762 0.84829 0.06831 0.0
C1717 C 0.63587 0.82884 0.0265 0.0
C1718 C 0.70314 0.83598 0.04582 0.0
N1719 N 0.64434 0.84711 0.05644 0.0
C1720 C 0.66069 0.81478 0.00683 0.0
C1721 C 0.69368 0.82083 0.01559 0.0
H1722 H 0.65098 0.85474 0.07124 0.0
H1723 H 0.61034 0.82636 0.01852 0.0
C1724 C 0.5257 0.78478 0.09346 0.0
N1725 N 0.53455 0.80606 0.06836 0.0
C1726 C 0.51984 0.75118 0.08642 0.0
C1727 C 0.5308 0.76137 0.02713 0.0
C1728 C 0.53832 0.79461 0.03556 0.0
C1729 C 0.51997 0.73983 0.05277 0.0
H1730 H 0.52388 0.79402 0.11875 0.0
H1731 H 0.54987 0.80948 0.01608 0.0
O1732 O 0.59768 0.92042 0.10173 0.0
O1733 O 0.52866 0.88317 0.11239 0.0
O1734 O 0.57212 0.87023 0.04886 0.0
O1735 O 0.59576 0.83849 0.11836 0.0
H1736 H 0.63868 0.96245 0.13877 0.0
H1737 H 0.53834 0.95006 0.11181 0.0
H1738 H 0.63145 0.02306 0.14534 0.0
H1739 H 0.52969 0.01183 0.12002 0.0
H1740 H 0.45046 0.88427 0.19722 0.0
H1741 H 0.47238 0.88673 0.07428 0.0
H1742 H 0.50797 0.87971 0.17746 0.0
H1743 H 0.41549 0.89032 0.09629 0.0
H1744 H 0.46135 0.97729 0.0405 0.0
H1745 H 0.5477 0.97646 0.97438 0.0
H1746 H 0.63052 0.97481 0.21307 0.0
H1747 H 0.52463 0.97929 0.22214 0.0
H1748 H 0.50745 0.86456 0.04213 0.0
H1749 H 0.59919 0.87643 0.98714 0.0
H1750 H 0.47655 0.86275 0.98777 0.0
H1751 H 0.56747 0.87143 0.93336 0.0
H1752 H 0.59263 0.79804 0.06319 0.0
H1753 H 0.64477 0.80084 0.15616 0.0
H1754 H 0.59612 0.73542 0.06424 0.0
H1755 H 0.64502 0.7402 0.15867 0.0
H1756 H 0.6971 0.84374 0.07088 0.0
H1757 H 0.65438 0.80306 0.98277 0.0
H1758 H 0.50919 0.73596 0.10596 0.0
H1759 H 0.53092 0.75338 1.00077 0.0
Li1760 Li 0.8451 0.82969 0.87194 0.0
Li1761 Li 0.79273 0.84059 0.90183 0.0
Li1762 Li 0.7904 0.83146 0.84318 0.0
Li1763 Li 0.81361 0.888 0.85954 0.0
C1764 C 0.78601 0.77195 0.88098 0.0
N1765 N 0.74502 0.71619 0.89085 0.0
C1766 C 0.75164 0.77631 0.88582 0.0
C1767 C 0.79916 0.73903 0.87953 0.0
C1768 C 0.73144 0.74786 0.89125 0.0
C1769 C 0.77813 0.71124 0.88495 0.0
C1770 C 0.84875 0.85062 0.93671 0.0
C1771 C 0.87482 0.85607 0.99231 0.0
N1772 N 0.86233 0.82558 1.00199 0.0
C1773 C 0.83856 0.81814 0.94692 0.0
C1774 C 0.87042 0.86719 0.95884 0.0
C1775 C 0.84525 0.80602 0.97965 0.0
C1776 C 0.91979 0.82487 0.88231 0.0
N1777 N 0.88866 0.8074 0.88274 0.0
C1778 C 0.91419 0.75897 0.91039 0.0
C1779 C 0.88612 0.77497 0.89789 0.0
C1780 C 0.94611 0.77388 0.90757 0.0
C1781 C 0.94958 0.80663 0.89393 0.0
H1782 H 0.89253 0.82404 0.87622 0.0
H1783 H 0.86212 0.76331 0.90125 0.0
C1784 C 0.74757 0.85712 0.94879 0.0
N1785 N 0.76727 0.83043 0.9412 0.0
C1786 C 0.72255 0.85384 0.97267 0.0
C1787 C 0.74008 0.79574 0.98268 0.0
C1788 C 0.76444 0.80005 0.95788 0.0
C1789 C 0.71851 0.8227 0.98922 0.0
H1790 H 0.7507 0.88038 0.93501 0.0
H1791 H 0.77995 0.7786 0.9513 0.0
C1792 C 0.82747 0.85165 0.79221 0.0
N1793 N 0.81687 0.84772 0.7227 0.0
C1794 C 0.81766 0.88032 0.77372 0.0
C1795 C 0.83399 0.82155 0.77456 0.0
C1796 C 0.81201 0.87781 0.73888 0.0
C1797 C 0.82777 0.81978 0.73969 0.0
C1798 C 0.74 0.88266 0.85321 0.0
C1799 C 0.73943 0.88895 0.81828 0.0
C1800 C 0.71171 0.89074 0.87267 0.0
C1801 C 0.71144 0.90413 0.80363 0.0
C1802 C 0.68426 0.9061 0.85717 0.0
N1803 N 0.6847 0.9125 0.82326 0.0
C1804 C 0.78052 0.77571 0.80438 0.0
C1805 C 0.73048 0.80736 0.81055 0.0
C1806 C 0.76373 0.74987 0.78801 0.0
N1807 N 0.76421 0.80446 0.81404 0.0
C1808 C 0.7125 0.78188 0.79442 0.0
C1809 C 0.72952 0.75315 0.78294 0.0
H1810 H 0.80609 0.77162 0.81174 0.0
H1811 H 0.71693 0.82794 0.82199 0.0
C1812 C 0.84438 0.95103 0.82792 0.0
N1813 N 0.81406 0.93839 0.83729 0.0
C1814 C 0.84817 0.97508 0.80132 0.0
C1815 C 0.78895 0.98036 0.799 0.0
C1816 C 0.7864 0.95489 0.8248 0.0
C1817 C 0.82036 0.9899 0.78565 0.0
H1818 H 0.86569 0.94173 0.84059 0.0
H1819 H 0.76194 0.94795 0.8338 0.0
O1820 O 0.80656 0.79967 0.87709 0.0
O1821 O 0.83653 0.8665 0.90719 0.0
O1822 O 0.83302 0.85364 0.82671 0.0
O1823 O 0.76785 0.86859 0.86798 0.0
H1824 H 0.74073 0.80146 0.88591 0.0
H1825 H 0.8251 0.73465 0.87345 0.0
H1826 H 0.70496 0.75098 0.89577 0.0
H1827 H 0.78812 0.68571 0.8842 0.0
H1828 H 0.89065 0.87022 0.00951 0.0
H1829 H 0.82573 0.80171 0.93026 0.0
H1830 H 0.88765 0.88521 0.94916 0.0
H1831 H 0.8365 0.78115 0.98733 0.0
H1832 H 0.91008 0.73429 0.92144 0.0
H1833 H 0.93836 0.8296 0.88615 0.0
H1834 H 0.70651 0.87532 0.97829 0.0
H1835 H 0.73776 0.77177 0.99606 0.0
H1836 H 0.81398 0.90432 0.78581 0.0
H1837 H 0.84531 0.80022 0.78738 0.0
H1838 H 0.80383 0.89984 0.72471 0.0
H1839 H 0.83227 0.79639 0.72601 0.0
H1840 H 0.76017 0.88176 0.80256 0.0
H1841 H 0.71032 0.88537 0.89938 0.0
H1842 H 0.71098 0.90924 0.77663 0.0
H1843 H 0.66251 0.91278 0.87213 0.0
H1844 H 0.7771 0.72727 0.78001 0.0
H1845 H 0.68575 0.78441 0.79111 0.0
H1846 H 0.87283 0.98167 0.79239 0.0
H1847 H 0.76641 0.99154 0.78878 0.0
Li1848 Li 0.39416 0.6028 0.14708 0.0
Li1849 Li 0.4264 0.59973 0.08708 0.0
Li1850 Li 0.42399 0.66008 0.12633 0.0
Li1851 Li 0.34371 0.62376 0.0973 0.0
C1852 C 0.47197 0.60998 0.14625 0.0
N1853 N 0.53456 0.60484 0.17575 0.0
C1854 C 0.47563 0.61227 0.18147 0.0
C1855 C 0.50046 0.60529 0.12607 0.0
C1856 C 0.50732 0.60949 0.19593 0.0
C1857 C 0.53179 0.60269 0.14141 0.0
C1858 C 0.36968 0.53522 0.1074 0.0
C1859 C 0.33765 0.48404 0.09617 0.0
N1860 N 0.3657 0.46495 0.09952 0.0
C1861 C 0.39782 0.51445 0.11177 0.0
C1862 C 0.33908 0.51925 0.10046 0.0
C1863 C 0.39553 0.47936 0.10733 0.0
C1864 C 0.36848 0.53867 0.17691 0.0
N1865 N 0.39722 0.55754 0.17393 0.0
C1866 C 0.42682 0.51234 0.20184 0.0
C1867 C 0.42655 0.54332 0.18444 0.0
C1868 C 0.39659 0.49528 0.20837 0.0
C1869 C 0.36739 0.50846 0.19443 0.0
H1870 H 0.34534 0.54773 0.16641 0.0
H1871 H 0.44999 0.5548 0.17851 0.0
C1872 C 0.48015 0.59016 0.03225 0.0
N1873 N 0.46414 0.57396 0.05833 0.0
C1874 C 0.49868 0.57201 0.00779 0.0
C1875 C 0.4884 0.52089 0.03932 0.0
C1876 C 0.47051 0.54013 0.06326 0.0
C1877 C 0.50189 0.5365 0.01032 0.0
H1878 H 0.47875 0.61727 0.03008 0.0
H1879 H 0.46079 0.52725 0.08506 0.0
C1880 C 0.37289 0.70085 0.15015 0.0
N1881 N 0.38127 0.77083 0.16949 0.0
C1882 C 0.38763 0.72631 0.12892 0.0
C1883 C 0.36168 0.71485 0.18149 0.0
C1884 C 0.39155 0.76036 0.13852 0.0
C1885 C 0.36681 0.74866 0.19121 0.0
C1886 C 0.40558 0.67234 0.03296 0.0
C1887 C 0.42224 0.65841 0.00497 0.0
C1888 C 0.38476 0.70045 0.02774 0.0
C1889 C 0.4199 0.67406 0.97325 0.0
C1890 C 0.3831 0.71558 0.99572 0.0
N1891 N 0.40068 0.70223 0.96933 0.0
C1892 C 0.49657 0.6914 0.15129 0.0
C1893 C 0.45412 0.72597 0.17131 0.0
C1894 C 0.52134 0.71444 0.16434 0.0
N1895 N 0.46259 0.69752 0.15283 0.0
C1896 C 0.47779 0.75117 0.18197 0.0
C1897 C 0.51264 0.74661 0.17778 0.0
H1898 H 0.50561 0.66949 0.13806 0.0
H1899 H 0.42913 0.72881 0.17996 0.0
C1900 C 0.30313 0.57504 0.05528 0.0
N1901 N 0.2984 0.60661 0.07228 0.0
C1902 C 0.28091 0.56597 0.02762 0.0
C1903 C 0.24168 0.60822 0.04922 0.0
C1904 C 0.26545 0.62049 0.07218 0.0
C1905 C 0.25091 0.58415 0.0245 0.0
H1906 H 0.31346 0.59723 0.06877 0.0
H1907 H 0.25948 0.64281 0.08646 0.0
O1908 O 0.44097 0.61324 0.13167 0.0
O1909 O 0.37227 0.5706 0.1121 0.0
O1910 O 0.36457 0.66373 0.1382 0.0
O1911 O 0.40632 0.65631 0.06468 0.0
H1912 H 0.45395 0.61444 0.19757 0.0
H1913 H 0.49893 0.60542 0.09884 0.0
H1914 H 0.51022 0.61079 0.22321 0.0
H1915 H 0.55396 0.59952 0.12595 0.0
H1916 H 0.31404 0.47181 0.0907 0.0
H1917 H 0.42104 0.52559 0.11958 0.0
H1918 H 0.3161 0.53295 0.09984 0.0
H1919 H 0.4174 0.46355 0.11054 0.0
H1920 H 0.45051 0.50218 0.21023 0.0
H1921 H 0.34311 0.49702 0.19833 0.0
H1922 H 0.50967 0.5857 0.98667 0.0
H1923 H 0.49162 0.49389 0.04359 0.0
H1924 H 0.38986 0.72169 0.10269 0.0
H1925 H 0.3476 0.70024 0.19871 0.0
H1926 H 0.40178 0.77863 0.12077 0.0
H1927 H 0.35795 0.75748 0.21567 0.0
H1928 H 0.43488 0.63457 0.00697 0.0
H1929 H 0.37065 0.71096 0.04855 0.0
H1930 H 0.43277 0.66332 0.95156 0.0
H1931 H 0.3677 0.73782 0.99183 0.0
H1932 H 0.54746 0.7082 0.16081 0.0
H1933 H 0.46858 0.77374 0.19463 0.0
H1934 H 0.29617 0.55619 0.04765 0.0
H1935 H 0.21809 0.62157 0.04715 0.0
Li1936 Li 0.15865 0.62981 0.89929 0.0
Li1937 Li 0.08105 0.66226 0.86161 0.0
Li1938 Li 0.1324 0.60843 0.84163 0.0
Li1939 Li 0.16484 0.66794 0.84206 0.0
C1940 C 0.10619 0.60535 0.93935 0.0
N1941 N 0.11155 0.58438 0.00944 0.0
C1942 C 0.1183 0.6267 0.96652 0.0
C1943 C 0.09592 0.57303 0.95211 0.0
C1944 C 0.12032 0.61628 1.0005 0.0
C1945 C 0.09991 0.56246 0.9859 0.0
C1946 C 0.14441 0.72166 0.91552 0.0
C1947 C 0.12327 0.75879 0.95954 0.0
N1948 N 0.14295 0.78434 0.94762 0.0
C1949 C 0.16337 0.74885 0.9031 0.0
C1950 C 0.12324 0.7272 0.94338 0.0
C1951 C 0.16272 0.78007 0.91984 0.0
C1952 C 0.22614 0.60372 0.93426 0.0
N1953 N 0.19187 0.60239 0.93612 0.0
C1954 C 0.19769 0.57683 0.9919 0.0
C1955 C 0.17933 0.58394 0.96259 0.0
C1956 C 0.23182 0.58291 0.992 0.0
C1957 C 0.2465 0.59162 0.96089 0.0
H1958 H 0.23838 0.61597 0.91344 0.0
H1959 H 0.15588 0.57279 0.96072 0.0
C1960 C 0.05256 0.71084 0.80965 0.0
N1961 N 0.04111 0.69346 0.839 0.0
C1962 C 0.04209 0.74547 0.80493 0.0
C1963 C 0.99316 0.73153 0.83867 0.0
C1964 C 0.00724 0.7002 0.84799 0.0
C1965 C 0.01347 0.7559 0.82249 0.0
H1966 H 0.05749 0.69368 0.83105 0.0
H1967 H 0.99365 0.68325 0.86457 0.0
C1968 C 0.2094 0.60829 0.85294 0.0
N1969 N 0.27165 0.57734 0.84985 0.0
C1970 C 0.21234 0.57291 0.85423 0.0
C1971 C 0.23856 0.62785 0.85032 0.0
C1972 C 0.24381 0.55773 0.85257 0.0
C1973 C 0.26968 0.6118 0.84869 0.0
C1974 C 0.10141 0.64997 0.778 0.0
C1975 C 0.06742 0.64932 0.76967 0.0
C1976 C 0.12491 0.65143 0.75148 0.0
C1977 C 0.05753 0.65243 0.73584 0.0
C1978 C 0.1141 0.65438 0.71792 0.0
N1979 N 0.0809 0.65497 0.71085 0.0
C1980 C 0.11332 0.57971 0.77379 0.0
C1981 C 0.17063 0.57331 0.78304 0.0
C1982 C 0.11461 0.56015 0.74477 0.0
N1983 N 0.1401 0.58325 0.79513 0.0
C1984 C 0.17334 0.55299 0.7539 0.0
C1985 C 0.14448 0.54456 0.73552 0.0
H1986 H 0.08916 0.58901 0.78094 0.0
H1987 H 0.19316 0.58086 0.79525 0.0
C1988 C 0.22149 0.71902 0.8348 0.0
N1989 N 0.20426 0.69442 0.81783 0.0
C1990 C 0.24359 0.74115 0.81787 0.0
C1991 C 0.23498 0.70908 0.76687 0.0
C1992 C 0.21247 0.68806 0.78475 0.0
C1993 C 0.25016 0.73742 0.78279 0.0
H1994 H 0.21875 0.72133 0.8618 0.0
H1995 H 0.20112 0.66692 0.77175 0.0
O1996 O 0.09987 0.61769 0.90147 0.0
O1997 O 0.14364 0.69063 0.89819 0.0
O1998 O 0.17837 0.62343 0.85438 0.0
O1999 O 0.11132 0.64465 0.81149 0.0
H2000 H 0.12116 0.65326 0.96266 0.0
H2001 H 0.0841 0.55538 0.93624 0.0
H2002 H 0.1284 0.63391 0.01989 0.0
H2003 H 0.09235 0.53715 0.99348 0.0
H2004 H 0.1073 0.76313 0.98132 0.0
H2005 H 0.17651 0.74681 0.87951 0.0
H2006 H 0.10656 0.70751 0.95222 0.0
H2007 H 0.17733 0.80115 0.91024 0.0
H2008 H 0.18538 0.56601 0.01394 0.0
H2009 H 0.27342 0.59258 0.95841 0.0
H2010 H 0.04871 0.72268 0.7912 0.0
H2011 H 0.9688 0.73844 0.84836 0.0
H2012 H 0.19033 0.55728 0.85442 0.0
H2013 H 0.23772 0.65505 0.85164 0.0
H2014 H 0.24606 0.53033 0.85306 0.0
H2015 H 0.29229 0.62681 0.8471 0.0
H2016 H 0.0489 0.6451 0.78912 0.0
H2017 H 0.15119 0.64878 0.75656 0.0
H2018 H 0.03128 0.65219 0.7294 0.0
H2019 H 0.13215 0.65557 0.69744 0.0
H2020 H 0.0913 0.55512 0.73187 0.0
H2021 H 0.19764 0.54351 0.74635 0.0
H2022 H 0.25481 0.76121 0.83266 0.0
H2023 H 0.23991 0.7027 0.74068 0.0
Li2024 Li 0.11675 0.4157 0.64483 0.0
Li2025 Li 0.06822 0.41615 0.59757 0.0
Li2026 Li 0.08151 0.35061 0.63042 0.0
Li2027 Li 0.14707 0.38851 0.58164 0.0
C2028 C 0.03003 0.40967 0.65046 0.0
N2029 N 0.96493 0.43146 0.66284 0.0
C2030 C 0.02157 0.44421 0.64875 0.0
C2031 C 0.00492 0.38659 0.65969 0.0
C2032 C 0.98876 0.45469 0.65475 0.0
C2033 C 0.97233 0.39789 0.66548 0.0
C2034 C 0.14626 0.47321 0.60634 0.0
C2035 C 0.15494 0.53265 0.59296 0.0
N2036 N 0.18665 0.53054 0.60505 0.0
C2037 C 0.1787 0.47217 0.61903 0.0
C2038 C 0.13408 0.50417 0.59357 0.0
C2039 C 0.19885 0.50109 0.61804 0.0
C2040 C 0.15765 0.45854 0.69664 0.0
N2041 N 0.13151 0.45629 0.6747 0.0
C2042 C 0.11866 0.51494 0.68564 0.0
C2043 C 0.11235 0.48446 0.66902 0.0
C2044 C 0.14374 0.51648 0.71043 0.0
C2045 C 0.16396 0.48794 0.71511 0.0
H2046 H 0.17098 0.43671 0.70333 0.0
H2047 H 0.09212 0.48331 0.65102 0.0
C2048 C 0.00277 0.42688 0.55874 0.0
N2049 N 0.02662 0.44376 0.5768 0.0
C2050 C 0.98428 0.4437 0.53332 0.0
C2051 C 0.00733 0.49658 0.55247 0.0
C2052 C 0.02606 0.47864 0.57653 0.0
C2053 C 0.98804 0.47908 0.52826 0.0
H2054 H 0.00065 0.39959 0.56115 0.0
H2055 H 0.04276 0.49294 0.59271 0.0
C2056 C 0.13827 0.31239 0.63002 0.0
N2057 N 0.14891 0.24169 0.61807 0.0
C2058 C 0.13783 0.2972 0.59661 0.0
C2059 C 0.14557 0.28878 0.65653 0.0
C2060 C 0.14343 0.26246 0.59126 0.0
C2061 C 0.14968 0.25396 0.65022 0.0
C2062 C 0.07084 0.35051 0.53564 0.0
C2063 C 0.05009 0.37135 0.51621 0.0
C2064 C 0.08435 0.3215 0.51993 0.0
C2065 C 0.04036 0.36147 0.48366 0.0
C2066 C 0.07408 0.31224 0.48735 0.0
N2067 N 0.05228 0.33217 0.47006 0.0
C2068 C 0.0343 0.29028 0.67438 0.0
C2069 C 0.07577 0.27145 0.63828 0.0
C2070 C 0.02106 0.25631 0.67505 0.0
N2071 N 0.06089 0.29865 0.65361 0.0
C2072 C 0.06427 0.23843 0.63838 0.0
C2073 C 0.0339 0.23133 0.65262 0.0
H2074 H 0.02098 0.30968 0.68814 0.0
H2075 H 0.08982 0.27534 0.61727 0.0
C2076 C 0.18161 0.44942 0.544 0.0
N2077 N 0.18765 0.42064 0.56492 0.0
C2078 C 0.20535 0.45646 0.51721 0.0
C2079 C 0.24593 0.42322 0.54923 0.0
C2080 C 0.22129 0.41292 0.57201 0.0
C2081 C 0.23673 0.44024 0.51894 0.0
H2082 H 0.17161 0.42687 0.55694 0.0
H2083 H 0.22699 0.39363 0.58999 0.0
O2084 O 0.06297 0.39934 0.64525 0.0
O2085 O 0.12623 0.44441 0.60841 0.0
O2086 O 0.14077 0.35258 0.63223 0.0
O2087 O 0.08182 0.36097 0.56802 0.0
H2088 H 0.04042 0.46294 0.6432 0.0
H2089 H 0.0102 0.3601 0.66287 0.0
H2090 H 0.98232 0.48134 0.65313 0.0
H2091 H 0.95296 0.37994 0.67233 0.0
H2092 H 0.14576 0.55657 0.58317 0.0
H2093 H 0.18773 0.44895 0.62964 0.0
H2094 H 0.10869 0.50703 0.58497 0.0
H2095 H 0.22409 0.50013 0.62774 0.0
H2096 H 0.10295 0.53657 0.67997 0.0
H2097 H 0.18287 0.48712 0.73471 0.0
H2098 H 0.96879 0.42847 0.5168 0.0
H2099 H 0.0093 0.524 0.5522 0.0
H2100 H 0.13465 0.31339 0.57484 0.0
H2101 H 0.14828 0.29618 0.68226 0.0
H2102 H 0.14322 0.25217 0.56578 0.0
H2103 H 0.15449 0.23678 0.67111 0.0
H2104 H 0.04412 0.39629 0.52476 0.0
H2105 H 0.10226 0.30567 0.53261 0.0
H2106 H 0.02417 0.37767 0.4688 0.0
H2107 H 0.08373 0.28935 0.47569 0.0
H2108 H -0.0005 0.25069 0.69062 0.0
H2109 H 0.07625 0.22014 0.62166 0.0
H2110 H 0.1889 0.46858 0.53526 0.0
H2111 H 0.27021 0.41172 0.55242 0.0
Li2112 Li 0.17252 0.33906 0.66717 0.0
Li2113 Li 0.1257 0.38657 0.66651 0.0
Li2114 Li 0.10779 0.34062 0.60555 0.0
Li2115 Li 0.17499 0.37507 0.60064 0.0
C2116 C 0.09916 0.33908 0.70862 0.0
N2117 N 0.07601 0.33653 0.7752 0.0
C2118 C 0.06703 0.34992 0.71686 0.0
C2119 C 0.1198 0.32758 0.73492 0.0
C2120 C 0.05561 0.34838 0.75036 0.0
C2121 C 0.10766 0.32621 0.76819 0.0
C2122 C 0.2092 0.39758 0.67636 0.0
C2123 C 0.26201 0.4268 0.68467 0.0
N2124 N 0.26187 0.41736 0.71786 0.0
C2125 C 0.20965 0.38916 0.71055 0.0
C2126 C 0.23553 0.41759 0.6635 0.0
C2127 C 0.23626 0.399 0.73121 0.0
C2128 C 0.21848 0.28159 0.68603 0.0
N2129 N 0.20482 0.30987 0.70067 0.0
C2130 C 0.23405 0.29421 0.75263 0.0
C2131 C 0.21141 0.31488 0.73458 0.0
C2132 C 0.2494 0.2659 0.73709 0.0
C2133 C 0.24045 0.25975 0.70319 0.0
H2134 H 0.2109 0.2741 0.66139 0.0
H2135 H 0.19864 0.33403 0.7491 0.0
C2136 C 0.07938 0.43321 0.71242 0.0
N2137 N 0.10656 0.41218 0.71311 0.0
C2138 C 0.07178 0.45624 0.73843 0.0
C2139 C 0.11639 0.43259 0.77067 0.0
C2140 C 0.12311 0.4099 0.74353 0.0
C2141 C 0.09151 0.45792 0.7676 0.0
H2142 H 0.06763 0.43803 0.68941 0.0
H2143 H 0.14332 0.39226 0.74641 0.0
C2144 C 0.22012 0.3188 0.61264 0.0
N2145 N 0.28583 0.29462 0.61426 0.0
C2146 C 0.24649 0.33915 0.62375 0.0
C2147 C 0.22802 0.28508 0.60308 0.0
C2148 C 0.27922 0.32691 0.62426 0.0
C2149 C 0.26103 0.2736 0.60381 0.0
C2150 C 0.1078 0.41216 0.56324 0.0
C2151 C 0.1216 0.39666 0.53352 0.0
C2152 C 0.09265 0.44408 0.55574 0.0
C2153 C 0.11854 0.41046 0.50086 0.0
C2154 C 0.09096 0.45799 0.52314 0.0
N2155 N 0.10358 0.44084 0.49635 0.0
C2156 C 0.02613 0.33864 0.6018 0.0
C2157 C 0.04424 0.28741 0.57314 0.0
C2158 C 0.99416 0.32395 0.60901 0.0
N2159 N 0.05307 0.3167 0.59262 0.0
C2160 C 0.01089 0.27681 0.57305 0.0
C2161 C 0.98793 0.29166 0.59608 0.0
H2162 H 0.05146 0.33054 0.6047 0.0
H2163 H 0.06316 0.27176 0.5613 0.0
C2164 C 0.19138 0.37205 0.51675 0.0
N2165 N 0.18908 0.35502 0.54735 0.0
C2166 C 0.21008 0.36018 0.48992 0.0
C2167 C 0.21803 0.30851 0.51968 0.0
C2168 C 0.19611 0.32096 0.544 0.0
C2169 C 0.22733 0.32994 0.49369 0.0
H2170 H 0.18017 0.39563 0.51149 0.0
H2171 H 0.18619 0.30239 0.56003 0.0
O2172 O 0.11048 0.34028 0.67539 0.0
O2173 O 0.1816 0.38866 0.65706 0.0
O2174 O 0.1871 0.33111 0.61149 0.0
O2175 O 0.10919 0.39403 0.60015 0.0
H2176 H 0.0515 0.36043 0.69768 0.0
H2177 H 0.14516 0.32037 0.73029 0.0
H2178 H 0.03066 0.35691 0.75662 0.0
H2179 H 0.12357 0.31728 0.78848 0.0
H2180 H 0.28261 0.4416 0.67469 0.0
H2181 H 0.188 0.3771 0.72092 0.0
H2182 H 0.23643 0.42543 0.63737 0.0
H2183 H 0.23626 0.39252 0.75792 0.0
H2184 H 0.23883 0.30068 0.77883 0.0
H2185 H 0.24923 0.23746 0.68982 0.0
H2186 H 0.05258 0.4749 0.73349 0.0
H2187 H 0.13168 0.43092 0.79321 0.0
H2188 H 0.24219 0.36416 0.6321 0.0
H2189 H 0.20897 0.26717 0.59592 0.0
H2190 H 0.29938 0.34315 0.63275 0.0
H2191 H 0.26685 0.24779 0.5964 0.0
H2192 H 0.1318 0.37154 0.53554 0.0
H2193 H 0.08364 0.45945 0.5758 0.0
H2194 H 0.12794 0.39665 0.47907 0.0
H2195 H 0.07949 0.48257 0.51927 0.0
H2196 H 0.00545 0.34636 0.59802 0.0
H2197 H 0.00448 0.25421 0.55895 0.0
H2198 H 0.21272 0.37593 0.46764 0.0
H2199 H 0.22741 0.28272 0.52124 0.0
Li2200 Li 0.32697 0.67638 0.16025 0.0
Li2201 Li 0.35639 0.61744 0.15503 0.0
Li2202 Li 0.39492 0.67503 0.10904 0.0
Li2203 Li 0.3306 0.65734 0.08711 0.0
C2204 C 0.39603 0.66266 0.21515 0.0
N2205 N 0.40791 0.67666 0.28344 0.0
C2206 C 0.42816 0.67063 0.2266 0.0
C2207 C 0.36992 0.66177 0.23942 0.0
C2208 C 0.43367 0.67762 0.26092 0.0
C2209 C 0.37638 0.66899 0.27343 0.0
C2210 C 0.28088 0.61932 0.14605 0.0
C2211 C 0.25265 0.56509 0.14979 0.0
N2212 N 0.22408 0.58112 0.1594 0.0
C2213 C 0.25101 0.63526 0.15569 0.0
C2214 C 0.2814 0.58403 0.14296 0.0
C2215 C 0.2227 0.61552 0.16248 0.0
C2216 C 0.28884 0.73824 0.182 0.0
N2217 N 0.29141 0.70425 0.18876 0.0
C2218 C 0.24986 0.71126 0.23301 0.0
C2219 C 0.27253 0.69078 0.21443 0.0
C2220 C 0.24671 0.74635 0.22572 0.0
C2221 C 0.26682 0.75936 0.19964 0.0
H2222 H 0.30498 0.74997 0.1637 0.0
H2223 H 0.27496 0.6641 0.22061 0.0
C2224 C 0.37521 0.59199 0.22543 0.0
N2225 N 0.34749 0.59497 0.20504 0.0
C2226 C 0.37572 0.57227 0.25468 0.0
C2227 C 0.31723 0.56247 0.24781 0.0
C2228 C 0.31792 0.58296 0.21816 0.0
C2229 C 0.34699 0.55536 0.26577 0.0
H2230 H 0.39918 0.60078 0.21676 0.0
H2231 H 0.29475 0.58773 0.20551 0.0
C2232 C 0.31179 0.72429 0.10427 0.0
N2233 N 0.26054 0.77156 0.10001 0.0
C2234 C 0.27846 0.71433 0.10798 0.0
C2235 C 0.3189 0.75875 0.09817 0.0
C2236 C 0.25295 0.73839 0.10576 0.0
C2237 C 0.29269 0.78213 0.09622 0.0
C2238 C 0.3795 0.60226 0.06022 0.0
C2239 C 0.36212 0.61806 0.0342 0.0
C2240 C 0.3949 0.57142 0.04974 0.0
C2241 C 0.36159 0.60592 1.00057 0.0
C2242 C 0.39221 0.55818 0.01697 0.0
N2243 N 0.37606 0.57594 0.99278 0.0
C2244 C 0.46719 0.67386 0.08055 0.0
C2245 C 0.44017 0.72814 0.0662 0.0
C2246 C 0.49628 0.68488 0.0632 0.0
N2247 N 0.44187 0.69851 0.08723 0.0
C2248 C 0.46371 0.73226 0.041 0.0
C2249 C 0.4942 0.71549 0.04526 0.0
H2250 H 0.44804 0.68435 0.09646 0.0
H2251 H 0.4195 0.74571 0.06683 0.0
C2252 C 0.29738 0.65203 0.01317 0.0
N2253 N 0.30547 0.67321 0.03953 0.0
C2254 C 0.28047 0.66334 0.98488 0.0
C2255 C 0.27696 0.71822 0.00931 0.0
C2256 C 0.30042 0.7072 0.03311 0.0
C2257 C 0.26542 0.6948 0.98579 0.0
H2258 H 0.30326 0.62593 0.01314 0.0
H2259 H 0.31548 0.72636 0.04413 0.0
O2260 O 0.39073 0.65352 0.18107 0.0
O2261 O 0.30893 0.63768 0.13723 0.0
O2262 O 0.33672 0.7 0.10398 0.0
O2263 O 0.38517 0.61962 0.09425 0.0
H2264 H 0.44913 0.67056 0.20956 0.0
H2265 H 0.34466 0.65525 0.23209 0.0
H2266 H 0.45859 0.68351 0.2697 0.0
H2267 H 0.35633 0.66823 0.29191 0.0
H2268 H 0.25312 0.53768 0.1476 0.0
H2269 H 0.24911 0.66251 0.1572 0.0
H2270 H 0.30425 0.57174 0.13595 0.0
H2271 H 0.19953 0.62761 0.1699 0.0
H2272 H 0.23503 0.69957 0.25285 0.0
H2273 H 0.26674 0.78619 0.19353 0.0
H2274 H 0.39981 0.56828 0.26627 0.0
H2275 H 0.29358 0.55186 0.25591 0.0
H2276 H 0.2725 0.68829 0.11251 0.0
H2277 H 0.344 0.76716 0.09278 0.0
H2278 H 0.22714 0.73067 0.10862 0.0
H2279 H 0.2979 0.80862 0.09109 0.0
H2280 H 0.35225 0.64187 0.04025 0.0
H2281 H 0.40955 0.55705 0.06657 0.0
H2282 H 0.35013 0.62063 0.98055 0.0
H2283 H 0.40413 0.53433 0.01057 0.0
H2284 H 0.48045 0.66272 0.06485 0.0
H2285 H 0.462 0.755 0.02549 0.0
H2286 H 0.27653 0.64685 0.96374 0.0
H2287 H 0.26901 0.74451 0.00854 0.0
Li2288 Li 0.56624 0.63025 0.63988 0.0
Li2289 Li 0.62618 0.57332 0.6582 0.0
Li2290 Li 0.63519 0.6305 0.59714 0.0
Li2291 Li 0.5746 0.56855 0.60304 0.0
C2292 C 0.62792 0.68091 0.6607 0.0
N2293 N 0.63605 0.75219 0.6729 0.0
C2294 C 0.6262 0.69598 0.6933 0.0
C2295 C 0.63341 0.70556 0.63427 0.0
C2296 C 0.62933 0.73096 0.699 0.0
C2297 C 0.63863 0.74014 0.64087 0.0
C2298 C 0.53244 0.55802 0.64761 0.0
C2299 C 0.49953 0.50649 0.63878 0.0
N2300 N 0.47088 0.52428 0.6432 0.0
C2301 C 0.50197 0.57532 0.65166 0.0
C2302 C 0.53039 0.52298 0.64055 0.0
C2303 C 0.47151 0.55814 0.64947 0.0
C2304 C 0.4997 0.65129 0.61449 0.0
N2305 N 0.51759 0.65812 0.6432 0.0
C2306 C 0.47672 0.70262 0.65407 0.0
C2307 C 0.50172 0.67989 0.66543 0.0
C2308 C 0.46665 0.70296 0.61989 0.0
C2309 C 0.4761 0.67456 0.60083 0.0
H2310 H 0.50433 0.62752 0.60221 0.0
H2311 H 0.51058 0.68374 0.69085 0.0
C2312 C 0.67306 0.52706 0.72832 0.0
N2313 N 0.66101 0.52976 0.69081 0.0
C2314 C 0.6504 0.53042 0.76469 0.0
C2315 C 0.59699 0.53409 0.69232 0.0
C2316 C 0.62924 0.52993 0.67271 0.0
C2317 C 0.60741 0.53292 0.76173 0.0
H2318 H 0.6998 0.52556 0.73189 0.0
H2319 H 0.62626 0.51553 0.64975 0.0
C2320 C 0.55369 0.65171 0.56326 0.0
N2321 N 0.53038 0.69274 0.51019 0.0
C2322 C 0.52509 0.64276 0.54412 0.0
C2323 C 0.5699 0.68163 0.55402 0.0
C2324 C 0.51373 0.66376 0.51797 0.0
C2325 C 0.55816 0.70196 0.52751 0.0
C2326 C 0.66559 0.53294 0.60686 0.0
C2327 C 0.66128 0.5055 0.58384 0.0
C2328 C 0.69316 0.53112 0.62787 0.0
C2329 C 0.68496 0.47937 0.58216 0.0
C2330 C 0.71641 0.50487 0.62584 0.0
N2331 N 0.71192 0.47959 0.60297 0.0
C2332 C 0.70093 0.654 0.55198 0.0
C2333 C 0.65322 0.67135 0.52447 0.0
C2334 C 0.71836 0.65511 0.52105 0.0
N2335 N 0.66697 0.65716 0.55373 0.0
C2336 C 0.6689 0.66807 0.49211 0.0
C2337 C 0.70179 0.65647 0.49026 0.0
H2338 H 0.71547 0.6486 0.57376 0.0
H2339 H 0.62803 0.68049 0.52401 0.0
C2340 C 0.54284 0.50351 0.56801 0.0
N2341 N 0.54435 0.53819 0.56982 0.0
C2342 C 0.52501 0.48717 0.54202 0.0
C2343 C 0.5136 0.54155 0.51721 0.0
C2344 C 0.53241 0.5564 0.54321 0.0
C2345 C 0.50885 0.50615 0.51631 0.0
H2346 H 0.55703 0.48801 0.58537 0.0
H2347 H 0.54165 0.58147 0.53981 0.0
O2348 O 0.62708 0.64173 0.65384 0.0
O2349 O 0.56356 0.57464 0.65031 0.0
O2350 O 0.56848 0.63059 0.58807 0.0
O2351 O 0.64358 0.56101 0.61097 0.0
H2352 H 0.6246 0.68014 0.71512 0.0
H2353 H 0.63313 0.69778 0.60787 0.0
H2354 H 0.62797 0.7409 0.7246 0.0
H2355 H 0.64342 0.75755 0.62015 0.0
H2356 H 0.49843 0.47952 0.63352 0.0
H2357 H 0.50074 0.60163 0.65721 0.0
H2358 H 0.55257 0.50811 0.63612 0.0
H2359 H 0.44831 0.57183 0.65295 0.0
H2360 H 0.4663 0.72078 0.67155 0.0
H2361 H 0.46606 0.67071 0.57563 0.0
H2362 H 0.6657 0.54654 0.78281 0.0
H2363 H 0.5762 0.52656 0.67834 0.0
H2364 H 0.50988 0.62097 0.54975 0.0
H2365 H 0.59293 0.68803 0.56647 0.0
H2366 H 0.49146 0.65701 0.50398 0.0
H2367 H 0.57145 0.72485 0.52043 0.0
H2368 H 0.64063 0.50242 0.56707 0.0
H2369 H 0.69541 0.55085 0.6456 0.0
H2370 H 0.68169 0.45869 0.56434 0.0
H2371 H 0.73784 0.50458 0.64253 0.0
H2372 H 0.74456 0.65354 0.52097 0.0
H2373 H 0.65502 0.67337 0.46915 0.0
H2374 H 0.52545 0.45973 0.54177 0.0
H2375 H 0.50431 0.55807 0.49751 0.0
Li2376 Li 0.8575 0.42734 0.16606 0.0
Li2377 Li 0.92184 0.37992 0.14821 0.0
Li2378 Li 0.90866 0.43932 0.10834 0.0
Li2379 Li 0.85451 0.37217 0.10205 0.0
C2380 C 0.94634 0.45931 0.153 0.0
N2381 N 0.99826 0.50698 0.15001 0.0
C2382 C 0.97865 0.45158 0.16456 0.0
C2383 C 0.94121 0.49227 0.14072 0.0
C2384 C 0.0044 0.47548 0.16245 0.0
C2385 C 0.9673 0.51585 0.13936 0.0
C2386 C 0.8718 0.32199 0.16958 0.0
C2387 C 0.88339 0.26175 0.15563 0.0
N2388 N 0.88301 0.25262 0.18864 0.0
C2389 C 0.86987 0.30963 0.2035 0.0
C2390 C 0.8781 0.2958 0.14632 0.0
C2391 C 0.87647 0.27596 0.21277 0.0
C2392 C 0.81398 0.45935 0.24694 0.0
N2393 N 0.81694 0.45989 0.2073 0.0
C2394 C 0.8784 0.47273 0.1933 0.0
C2395 C 0.84233 0.46898 0.18247 0.0
C2396 C 0.88441 0.46975 0.26348 0.0
C2397 C 0.84497 0.45971 0.2761 0.0
H2398 H 0.789 0.45705 0.25724 0.0
H2399 H 0.83588 0.48771 0.16373 0.0
C2400 C 0.99664 0.36088 0.15535 0.0
N2401 N 0.96449 0.35007 0.16149 0.0
C2402 C 0.02378 0.33822 0.15534 0.0
C2403 C 0.98727 0.29527 0.17712 0.0
C2404 C 0.96033 0.31754 0.17337 0.0
C2405 C 0.0189 0.3043 0.16472 0.0
H2406 H 0.00184 0.38622 0.14755 0.0
H2407 H 0.93591 0.30773 0.17856 0.0
C2408 C 0.8141 0.46044 0.1137 0.0
N2409 N 0.75934 0.50444 0.10977 0.0
C2410 C 0.81298 0.48697 0.0894 0.0
C2411 C 0.78674 0.4574 0.13556 0.0
C2412 C 0.7852 0.50844 0.08776 0.0
C2413 C 0.75965 0.47961 0.13364 0.0
C2414 C 0.95423 0.37853 0.07903 0.0
C2415 C 0.98073 0.39951 0.08849 0.0
C2416 C 0.95776 0.35876 0.04938 0.0
C2417 C 0.01054 0.39925 0.06997 0.0
C2418 C 0.98791 0.35918 0.03143 0.0
N2419 N 0.01353 0.37916 0.04207 0.0
C2420 C 0.93065 0.50622 0.06732 0.0
C2421 C 0.95049 0.45476 0.04537 0.0
C2422 C 0.94779 0.5243 0.04191 0.0
N2423 N 0.93457 0.47172 0.0711 0.0
C2424 C 0.96779 0.4715 0.01948 0.0
C2425 C 0.96746 0.50689 0.01798 0.0
H2426 H 0.91335 0.52023 0.083 0.0
H2427 H 0.94719 0.42815 0.04229 0.0
C2428 C 0.81214 0.40193 0.04987 0.0
N2429 N 0.82383 0.36978 0.05384 0.0
C2430 C 0.79798 0.41453 0.02028 0.0
C2431 C 0.81064 0.3616 0.99375 0.0
C2432 C 0.82462 0.34988 0.02499 0.0
C2433 C 0.79536 0.39416 0.99178 0.0
H2434 H 0.81416 0.41864 0.07012 0.0
H2435 H 0.83763 0.32578 0.02539 0.0
O2436 O 0.91948 0.4364 0.156 0.0
O2437 O 0.86593 0.3603 0.15988 0.0
O2438 O 0.84161 0.43839 0.11788 0.0
O2439 O 0.92487 0.37833 0.09791 0.0
H2440 H 0.98462 0.4279 0.17553 0.0
H2441 H 0.91692 0.49986 0.13217 0.0
H2442 H 0.02922 0.46905 0.17116 0.0
H2443 H 0.96288 0.54118 0.1297 0.0
H2444 H 0.88544 0.24212 0.13668 0.0
H2445 H 0.8641 0.32757 0.22306 0.0
H2446 H 0.87299 0.30144 0.12077 0.0
H2447 H 0.87572 0.26833 0.23916 0.0
H2448 H 0.89048 0.48794 0.17454 0.0
H2449 H 0.83894 0.4527 0.30221 0.0
H2450 H 0.04801 0.34688 0.14657 0.0
H2451 H 0.98229 0.26989 0.18609 0.0
H2452 H 0.8324 0.49216 0.07136 0.0
H2453 H 0.78735 0.43863 0.1547 0.0
H2454 H 0.78435 0.52854 0.06902 0.0
H2455 H 0.73888 0.47699 0.15109 0.0
H2456 H 0.9776 0.41723 0.10885 0.0
H2457 H 0.93801 0.3422 0.04071 0.0
H2458 H 0.03104 0.41555 0.07741 0.0
H2459 H 0.99095 0.3435 0.00907 0.0
H2460 H 0.94496 0.55164 0.04053 0.0
H2461 H 0.98097 0.45657 1.00062 0.0
H2462 H 0.78842 0.44029 0.0203 0.0
H2463 H 0.81015 0.34466 0.97208 0.0
Li2464 Li 0.65553 0.64728 0.6893 0.0
Li2465 Li 0.5994 0.65886 0.62479 0.0
Li2466 Li 0.603 0.59542 0.68254 0.0
Li2467 Li 0.66485 0.60783 0.62938 0.0
C2468 C 0.5633 0.64971 0.71505 0.0
N2469 N 0.51189 0.65625 0.76292 0.0
C2470 C 0.56435 0.67507 0.74067 0.0
C2471 C 0.53544 0.62856 0.71471 0.0
C2472 C 0.53827 0.67788 0.7642 0.0
C2473 C 0.51003 0.6317 0.73883 0.0
C2474 C 0.70096 0.67609 0.62786 0.0
C2475 C 0.73598 0.72211 0.60703 0.0
N2476 N 0.76161 0.71077 0.62652 0.0
C2477 C 0.72768 0.66578 0.64815 0.0
C2478 C 0.70525 0.70525 0.60752 0.0
C2479 C 0.75809 0.6832 0.64696 0.0
C2480 C 0.67335 0.68209 0.75711 0.0
N2481 N 0.6817 0.6791 0.72336 0.0
C2482 C 0.71818 0.72698 0.72837 0.0
C2483 C 0.70126 0.70352 0.70892 0.0
C2484 C 0.71246 0.72769 0.7631 0.0
C2485 C 0.68921 0.70578 0.77777 0.0
H2486 H 0.65328 0.66713 0.76792 0.0
H2487 H 0.70004 0.70856 0.68244 0.0
C2488 C 0.56168 0.71449 0.65729 0.0
N2489 N 0.57099 0.70981 0.62439 0.0
C2490 C 0.54874 0.74455 0.67046 0.0
C2491 C 0.55795 0.77013 0.6165 0.0
C2492 C 0.57113 0.73883 0.60451 0.0
C2493 C 0.54481 0.77265 0.64973 0.0
H2494 H 0.56433 0.6944 0.6741 0.0
H2495 H 0.58411 0.7398 0.58057 0.0
C2496 C 0.69598 0.59912 0.70578 0.0
N2497 N 0.75336 0.60016 0.74754 0.0
C2498 C 0.72686 0.58485 0.69546 0.0
C2499 C 0.69558 0.6117 0.73932 0.0
C2500 C 0.75518 0.58628 0.71615 0.0
C2501 C 0.72415 0.61258 0.75955 0.0
C2502 C 0.60967 0.58989 0.57387 0.0
C2503 C 0.60706 0.55574 0.5615 0.0
C2504 C 0.61396 0.61275 0.54716 0.0
C2505 C 0.60943 0.54669 0.52716 0.0
C2506 C 0.61444 0.6039 0.51265 0.0
N2507 N 0.61269 0.57101 0.50331 0.0
C2508 C 0.55291 0.52789 0.73222 0.0
C2509 C 0.59545 0.58426 0.72802 0.0
C2510 C 0.57606 0.49234 0.72742 0.0
N2511 N 0.56409 0.56568 0.72799 0.0
C2512 C 0.62802 0.56524 0.72333 0.0
C2513 C 0.61866 0.4959 0.72407 0.0
H2514 H 0.52655 0.52369 0.73661 0.0
H2515 H 0.59738 0.60697 0.74326 0.0
C2516 C 0.73773 0.59882 0.60956 0.0
N2517 N 0.70574 0.59295 0.59849 0.0
C2518 C 0.765 0.59968 0.58732 0.0
C2519 C 0.72901 0.57887 0.54358 0.0
C2520 C 0.70169 0.58151 0.56587 0.0
C2521 C 0.76047 0.59159 0.55325 0.0
H2522 H 0.74269 0.6063 0.63478 0.0
H2523 H 0.67704 0.57685 0.55595 0.0
O2524 O 0.58903 0.64406 0.69108 0.0
O2525 O 0.67107 0.65789 0.62789 0.0
O2526 O 0.66643 0.59911 0.68536 0.0
O2527 O 0.60654 0.60004 0.61282 0.0
H2528 H 0.58396 0.69339 0.74347 0.0
H2529 H 0.53443 0.60899 0.69636 0.0
H2530 H 0.53909 0.69735 0.7836 0.0
H2531 H 0.48884 0.61462 0.73832 0.0
H2532 H 0.7395 0.7441 0.59092 0.0
H2533 H 0.72415 0.64607 0.6666 0.0
H2534 H 0.68568 0.71417 0.59093 0.0
H2535 H 0.77861 0.67523 0.66291 0.0
H2536 H 0.73384 0.74591 0.71612 0.0
H2537 H 0.68297 0.70745 0.80452 0.0
H2538 H 0.5407 0.74508 0.69677 0.0
H2539 H 0.55678 0.79162 0.59936 0.0
H2540 H 0.73086 0.57183 0.67247 0.0
H2541 H 0.67289 0.62007 0.75077 0.0
H2542 H 0.77862 0.57578 0.70731 0.0
H2543 H 0.72291 0.62288 0.78501 0.0
H2544 H 0.60218 0.53554 0.57935 0.0
H2545 H 0.61341 0.63803 0.55386 0.0
H2546 H 0.60721 0.52037 0.51954 0.0
H2547 H 0.61535 0.62324 0.49322 0.0
H2548 H 0.56178 0.46881 0.72308 0.0
H2549 H 0.6453 0.58047 0.736 0.0
H2550 H 0.78904 0.60845 0.59644 0.0
H2551 H 0.72448 0.57062 0.51795 0.0
Li2552 Li 0.35624 0.36283 0.40847 0.0
Li2553 Li 0.42006 0.35368 0.37986 0.0
Li2554 Li 0.41896 0.42323 0.40694 0.0
Li2555 Li 0.37767 0.42171 0.35681 0.0
C2556 C 0.46027 0.36527 0.43647 0.0
N2557 N 0.52453 0.36348 0.46371 0.0
C2558 C 0.48819 0.37316 0.41675 0.0
C2559 C 0.46571 0.35653 0.47086 0.0
C2560 C 0.52024 0.37212 0.43063 0.0
C2561 C 0.4981 0.35574 0.48395 0.0
C2562 C 0.35744 0.31906 0.3336 0.0
C2563 C 0.34147 0.27897 0.28715 0.0
N2564 N 0.35403 0.25226 0.30436 0.0
C2565 C 0.37144 0.2899 0.34838 0.0
C2566 C 0.34275 0.31153 0.30125 0.0
C2567 C 0.36865 0.25705 0.33481 0.0
C2568 C 0.28427 0.34288 0.42249 0.0
N2569 N 0.31473 0.34369 0.44105 0.0
C2570 C 0.2868 0.3154 0.48794 0.0
C2571 C 0.31623 0.32582 0.47263 0.0
C2572 C 0.2563 0.32343 0.47254 0.0
C2573 C 0.2541 0.33499 0.43934 0.0
H2574 H 0.30922 0.35347 0.42698 0.0
H2575 H 0.33949 0.32012 0.48495 0.0
C2576 C 0.43619 0.27228 0.38115 0.0
N2577 N 0.43321 0.30209 0.39896 0.0
C2578 C 0.45158 0.24439 0.39384 0.0
C2579 C 0.45908 0.2731 0.44623 0.0
C2580 C 0.43696 0.29757 0.43344 0.0
C2581 C 0.46881 0.24725 0.42432 0.0
H2582 H 0.42791 0.26832 0.35626 0.0
H2583 H 0.4239 0.31304 0.45133 0.0
C2584 C 0.33931 0.46525 0.39859 0.0
N2585 N 0.30947 0.52926 0.39824 0.0
C2586 C 0.30622 0.46962 0.38806 0.0
C2587 C 0.35776 0.49472 0.40665 0.0
C2588 C 0.29139 0.5017 0.3887 0.0
C2589 C 0.34215 0.52645 0.40691 0.0
C2590 C 0.46209 0.42453 0.35223 0.0
C2591 C 0.46524 0.45876 0.35971 0.0
C2592 C 0.48776 0.40874 0.33367 0.0
C2593 C 0.49376 0.47677 0.35005 0.0
C2594 C 0.51612 0.42732 0.32438 0.0
N2595 N 0.51856 0.46075 0.33272 0.0
C2596 C 0.45917 0.43953 0.46714 0.0
C2597 C 0.45809 0.48907 0.43439 0.0
C2598 C 0.47792 0.45536 0.49234 0.0
N2599 N 0.45008 0.45533 0.43778 0.0
C2600 C 0.47814 0.50589 0.45862 0.0
C2601 C 0.48871 0.48902 0.48849 0.0
H2602 H 0.44856 0.41569 0.47338 0.0
H2603 H 0.4483 0.50405 0.41377 0.0
C2604 C 0.33344 0.47387 0.31704 0.0
N2605 N 0.36337 0.47005 0.33326 0.0
C2606 C 0.32659 0.50184 0.29603 0.0
C2607 C 0.3777 0.5269 0.31497 0.0
C2608 C 0.38407 0.49767 0.33429 0.0
C2609 C 0.34977 0.52846 0.29319 0.0
H2610 H 0.31556 0.45427 0.31868 0.0
H2611 H 0.40621 0.49714 0.3493 0.0
O2612 O 0.42798 0.36595 0.42273 0.0
O2613 O 0.35762 0.35543 0.35289 0.0
O2614 O 0.3538 0.43297 0.39871 0.0
O2615 O 0.43279 0.40779 0.36072 0.0
H2616 H 0.48542 0.37984 0.39094 0.0
H2617 H 0.4451 0.35098 0.48771 0.0
H2618 H 0.54172 0.37819 0.41501 0.0
H2619 H 0.50217 0.34914 0.51029 0.0
H2620 H 0.33022 0.27505 0.26249 0.0
H2621 H 0.38108 0.29308 0.37307 0.0
H2622 H 0.33326 0.33142 0.28583 0.0
H2623 H 0.37804 0.2354 0.34878 0.0
H2624 H 0.28775 0.3052 0.51349 0.0
H2625 H 0.26679 0.33182 0.41546 0.0
H2626 H 0.45342 0.22275 0.37711 0.0
H2627 H 0.46763 0.27401 0.47229 0.0
H2628 H 0.29256 0.44881 0.37731 0.0
H2629 H 0.38435 0.49417 0.41084 0.0
H2630 H 0.26571 0.50477 0.38078 0.0
H2631 H 0.3563 0.54899 0.4133 0.0
H2632 H 0.44497 0.47095 0.37216 0.0
H2633 H 0.48628 0.38249 0.32648 0.0
H2634 H 0.49602 0.50351 0.35605 0.0
H2635 H 0.5361 0.41518 0.31036 0.0
H2636 H 0.48215 0.44117 0.51541 0.0
H2637 H 0.48442 0.53212 0.45375 0.0
H2638 H 0.30396 0.50141 0.28111 0.0
H2639 H 0.39544 0.54753 0.31669 0.0
Li2640 Li 0.12996 0.64581 0.91656 0.0
Li2641 Li 0.06454 0.66639 0.89497 0.0
Li2642 Li 0.06261 0.59342 0.91307 0.0
Li2643 Li 0.09499 0.59993 0.85504 0.0
C2644 C 0.04424 0.64847 0.95992 0.0
N2645 N 0.99104 0.64626 0.00498 0.0
C2646 C 0.01323 0.6349 0.94975 0.0
C2647 C 0.04812 0.66032 0.99318 0.0
C2648 C 0.9865 0.63471 0.97276 0.0
C2649 C 0.02101 0.65866 0.01562 0.0
C2650 C 0.11904 0.69543 0.84459 0.0
C2651 C 0.13578 0.73918 0.80263 0.0
N2652 N 0.12106 0.76376 0.82131 0.0
C2653 C 0.10201 0.72201 0.86105 0.0
C2654 C 0.13547 0.70567 0.81406 0.0
C2655 C 0.10461 0.75594 0.85032 0.0
C2656 C 0.20275 0.67497 0.92038 0.0
N2657 N 0.17619 0.66692 0.94338 0.0
C2658 C 0.20482 0.69893 0.98753 0.0
C2659 C 0.1764 0.68227 0.97637 0.0
C2660 C 0.23386 0.69831 0.96765 0.0
C2661 C 0.23346 0.68761 0.93376 0.0
H2662 H 0.18119 0.65981 0.92765 0.0
H2663 H 0.155 0.68154 0.99305 0.0
C2664 C 0.03773 0.74536 0.90957 0.0
N2665 N 0.03323 0.71068 0.91005 0.0
C2666 C 0.00993 0.76756 0.91337 0.0
C2667 C 0.97544 0.71974 0.92407 0.0
C2668 C 0.00455 0.70117 0.9263 0.0
C2669 C 0.97728 0.75392 0.91537 0.0
H2670 H 0.06207 0.75646 0.9068 0.0
H2671 H 0.00651 0.69582 0.9528 0.0
C2672 C 0.13247 0.53966 0.90019 0.0
N2673 N 0.14374 0.47086 0.913 0.0
C2674 C 0.16434 0.52768 0.90885 0.0
C2675 C 0.10652 0.51543 0.8974 0.0
C2676 C 0.16948 0.49321 0.91537 0.0
C2677 C 0.11262 0.4812 0.90418 0.0
C2678 C 0.01796 0.60247 0.85765 0.0
C2679 C 0.01173 0.56881 0.86525 0.0
C2680 C 0.99692 0.61881 0.83445 0.0
C2681 C 0.983 0.55268 0.85314 0.0
C2682 C 0.96827 0.60229 0.82268 0.0
N2683 N 0.96175 0.56982 0.83244 0.0
C2684 C 0.02634 0.57058 0.97848 0.0
C2685 C 0.01323 0.53118 0.93603 0.0
C2686 C 0.00564 0.5542 1.00176 0.0
N2687 N 0.02846 0.56128 0.94489 0.0
C2688 C 0.99228 0.51354 0.95879 0.0
C2689 C 0.98777 0.5255 0.99211 0.0
H2690 H 0.04135 0.5908 0.9884 0.0
H2691 H 0.01798 0.51888 0.91213 0.0
C2692 C 0.11607 0.52967 0.82796 0.0
N2693 N 0.08884 0.55106 0.8287 0.0
C2694 C 0.11661 0.49891 0.8101 0.0
C2695 C 0.06014 0.50916 0.79363 0.0
C2696 C 0.06083 0.54032 0.81169 0.0
C2697 C 0.08873 0.48804 0.79175 0.0
H2698 H 0.13946 0.53784 0.83837 0.0
H2699 H 0.03998 0.55727 0.80868 0.0
O2700 O 0.06983 0.65086 0.93681 0.0
O2701 O 0.12288 0.66049 0.86152 0.0
O2702 O 0.12694 0.57437 0.89338 0.0
O2703 O 0.04576 0.6176 0.87165 0.0
H2704 H 0.00938 0.62609 0.92411 0.0
H2705 H 0.07154 0.67124 1.00144 0.0
H2706 H 0.96233 0.62515 0.96503 0.0
H2707 H 0.02368 0.66769 0.04141 0.0
H2708 H 0.14882 0.74574 0.77941 0.0
H2709 H 0.08879 0.71556 0.88363 0.0
H2710 H 0.14895 0.68808 0.79888 0.0
H2711 H 0.09428 0.77618 0.86532 0.0
H2712 H 0.20559 0.7077 0.01362 0.0
H2713 H 0.21716 0.68936 0.9122 0.0
H2714 H 0.01379 0.79466 0.91445 0.0
H2715 H 0.95334 0.70864 0.93518 0.0
H2716 H 0.18548 0.54438 0.9101 0.0
H2717 H 0.08162 0.52305 0.89002 0.0
H2718 H 0.19411 0.48419 0.92213 0.0
H2719 H 0.09259 0.46284 0.90223 0.0
H2720 H 0.03138 0.55507 0.87739 0.0
H2721 H 0.00304 0.64288 0.82374 0.0
H2722 H 0.97825 0.5263 0.85918 0.0
H2723 H 0.95167 0.61501 0.80515 0.0
H2724 H 0.00487 0.56334 0.02772 0.0
H2725 H 0.98024 0.49036 0.95041 0.0
H2726 H 0.14 0.48522 0.80899 0.0
H2727 H 0.03753 0.50268 0.78012 0.0
Li2728 Li 0.32656 0.38245 0.39081 0.0
Li2729 Li 0.39708 0.34046 0.35489 0.0
Li2730 Li 0.3635 0.40023 0.32989 0.0
Li2731 Li 0.31771 0.35183 0.32896 0.0
C2732 C 0.38202 0.3965 0.43459 0.0
N2733 N 0.3839 0.40327 0.5075 0.0
C2734 C 0.37882 0.36839 0.45806 0.0
C2735 C 0.38641 0.42813 0.45233 0.0
C2736 C 0.38115 0.3721 0.49344 0.0
C2737 C 0.38569 0.43124 0.48774 0.0
C2738 C 0.32412 0.28944 0.39746 0.0
C2739 C 0.33833 0.24359 0.43617 0.0
N2740 N 0.31507 0.22341 0.42128 0.0
C2741 C 0.302 0.26708 0.38143 0.0
C2742 C 0.34378 0.27642 0.42399 0.0
C2743 C 0.29712 0.23434 0.39419 0.0
C2744 C 0.26186 0.42083 0.42682 0.0
N2745 N 0.29444 0.41 0.43039 0.0
C2746 C 0.29097 0.4273 0.48959 0.0
C2747 C 0.30788 0.4138 0.46192 0.0
C2748 C 0.25729 0.43539 0.48718 0.0
C2749 C 0.24311 0.43372 0.45452 0.0
H2750 H 0.24945 0.4197 0.40285 0.0
H2751 H 0.33036 0.40278 0.46777 0.0
C2752 C 0.43193 0.29876 0.29992 0.0
N2753 N 0.4395 0.31855 0.32918 0.0
C2754 C 0.45093 0.26797 0.29411 0.0
C2755 C 0.49423 0.29205 0.33049 0.0
C2756 C 0.47327 0.31892 0.33991 0.0
C2757 C 0.48122 0.26435 0.31181 0.0
H2758 H 0.42308 0.31385 0.32168 0.0
H2759 H 0.481 0.33516 0.36017 0.0
C2760 C 0.27837 0.40021 0.32966 0.0
N2761 N 0.21265 0.40164 0.30659 0.0
C2762 C 0.2705 0.41375 0.29759 0.0
C2763 C 0.25242 0.38625 0.34888 0.0
C2764 C 0.23731 0.41458 0.28666 0.0
C2765 C 0.21951 0.38754 0.33726 0.0
C2766 C 0.39492 0.36224 0.2725 0.0
C2767 C 0.42868 0.37095 0.27342 0.0
C2768 C 0.3807 0.35322 0.24116 0.0
C2769 C 0.44795 0.36967 0.24388 0.0
C2770 C 0.40073 0.35223 0.21208 0.0
N2771 N 0.43368 0.36034 0.21402 0.0
C2772 C 0.40899 0.44471 0.28774 0.0
C2773 C 0.35894 0.4266 0.26228 0.0
C2774 C 0.41658 0.46515 0.26015 0.0
N2775 N 0.37918 0.42824 0.28997 0.0
C2776 C 0.36632 0.44516 0.23321 0.0
C2777 C 0.39416 0.467 0.23304 0.0
H2778 H 0.42512 0.44529 0.30878 0.0
H2779 H 0.33765 0.40989 0.2625 0.0
C2780 C 0.25613 0.31175 0.32296 0.0
N2781 N 0.27702 0.33092 0.30355 0.0
C2782 C 0.23805 0.28496 0.30862 0.0
C2783 C 0.25569 0.30414 0.25336 0.0
C2784 C 0.27398 0.33014 0.269 0.0
C2785 C 0.23961 0.27925 0.27337 0.0
H2786 H 0.25604 0.31498 0.35021 0.0
H2787 H 0.28874 0.34718 0.25343 0.0
O2788 O 0.38668 0.39089 0.39419 0.0
O2789 O 0.33041 0.32239 0.38441 0.0
O2790 O 0.31101 0.39811 0.34135 0.0
O2791 O 0.37583 0.36453 0.30195 0.0
H2792 H 0.37791 0.34298 0.4483 0.0
H2793 H 0.39134 0.45097 0.43933 0.0
H2794 H 0.38097 0.35002 0.50979 0.0
H2795 H 0.38852 0.45597 0.49943 0.0
H2796 H 0.35301 0.23398 0.4571 0.0
H2797 H 0.2906 0.27351 0.35796 0.0
H2798 H 0.36368 0.29127 0.43477 0.0
H2799 H 0.27976 0.21727 0.38187 0.0
H2800 H 0.30428 0.42901 0.5134 0.0
H2801 H 0.21708 0.4401 0.45062 0.0
H2802 H 0.43812 0.28853 0.28167 0.0
H2803 H 0.5183 0.29008 0.34287 0.0
H2804 H 0.28927 0.42379 0.28089 0.0
H2805 H 0.25773 0.37343 0.37221 0.0
H2806 H 0.2312 0.42536 0.26217 0.0
H2807 H 0.19953 0.37677 0.35239 0.0
H2808 H 0.43956 0.37886 0.29698 0.0
H2809 H 0.35434 0.3481 0.23854 0.0
H2810 H 0.47417 0.37627 0.24468 0.0
H2811 H 0.38995 0.34536 0.18786 0.0
H2812 H 0.4385 0.48117 0.26171 0.0
H2813 H 0.34952 0.4433 0.2118 0.0
H2814 H 0.22513 0.26778 0.32559 0.0
H2815 H 0.25572 0.30268 0.2259 0.0
loop_
_geom_bond_atom_site_label_1
_geom_bond_atom_site_label_2
_geom_bond_distance
_geom_bond_site_symmetry_2
_ccdc_geom_bond_type
Li0 N17 1.990 . S
Li0 O60 1.956 . S
Li0 O61 1.970 . S
Li0 O62 1.961 . S
Li1 N25 1.990 . S
Li1 O60 1.970 . S
Li1 O61 1.956 . S
Li1 O63 1.961 . S
Li2 N47 1.990 . S
Li2 O60 1.961 . S
Li2 O62 1.956 . S
Li2 O63 1.970 . S
Li3 N53 1.990 . S
Li3 O61 1.961 . S
Li3 O62 1.970 . S
Li3 O63 1.956 . S
C4 C6 1.348 . S
C4 C7 1.356 . S
C4 O60 1.325 . S
N5 C8 1.314 . S
N5 C9 1.279 . S
C6 C4 1.348 . S
C6 C8 1.353 . S
C6 H64 0.929 . S
C7 C4 1.356 . S
C7 C9 1.358 . S
C7 H65 0.930 . S
C8 N5 1.314 . S
C8 C6 1.353 . S
C8 H66 0.930 . S
C9 N5 1.279 . S
C9 C7 1.358 . S
C9 H67 0.930 . S
C10 C13 1.348 . S
C10 C14 1.356 . S
C10 O61 1.325 . S
C11 N12 1.299 . S
C11 C14 1.331 1_655 S
C11 H68 0.940 . S
N12 C11 1.299 . S
N12 C15 1.314 . S
C13 C10 1.348 . S
C13 C15 1.353 1_455 S
C13 H69 0.929 . S
C14 C10 1.356 . S
C14 C11 1.331 1_455 S
C14 H70 0.930 . S
C15 N12 1.314 . S
C15 C13 1.353 1_655 S
C15 H71 0.930 . S
C16 N17 1.314 . S
C16 C21 1.353 . S
C16 H22 0.930 . S
N17 Li0 1.990 . S
N17 C16 1.314 . S
N17 C19 1.279 . S
C18 C19 1.358 . S
C18 C20 1.356 . S
C18 H72 0.930 . S
C19 N17 1.279 . S
C19 C18 1.358 . S
C19 H23 0.930 . S
C20 C18 1.356 . S
C20 C21 1.348 . S
C21 C16 1.353 . S
C21 C20 1.348 . S
C21 H73 0.929 1_455 S
H22 C16 0.930 . S
H23 C19 0.930 . S
C24 N25 1.314 . S
C24 C26 1.353 . S
C24 H30 0.930 . S
N25 Li1 1.990 . S
N25 C24 1.314 . S
N25 C28 1.279 . S
C26 C24 1.353 . S
C26 C29 1.348 . S
C26 H74 0.929 . S
C27 C28 1.358 . S
C27 C29 1.356 . S
C27 H75 0.930 . S
C28 N25 1.279 . S
C28 C27 1.358 . S
C28 H31 0.930 . S
C29 C26 1.348 . S
C29 C27 1.356 . S
H30 C24 0.930 . S
H31 C28 0.930 . S
C32 C34 1.348 . S
C32 C35 1.356 . S
C32 O62 1.325 . S
N33 C36 1.314 . S
N33 C37 1.279 1_556 S
C34 C32 1.348 . S
C34 C36 1.353 1_554 S
C34 H76 0.929 . S
C35 C32 1.356 . S
C35 C37 1.358 . S
C35 H77 0.930 . S
C36 N33 1.314 . S
C36 C34 1.353 1_556 S
C36 H78 0.930 . S
C37 N33 1.279 1_554 S
C37 C35 1.358 . S
C37 H79 0.930 . S
C38 C39 1.348 . S
C38 C40 1.356 . S
C38 O63 1.325 . S
C39 C38 1.348 . S
C39 C41 1.353 . S
C39 H80 0.929 . S
C40 C38 1.356 . S
C40 C42 1.358 1_545 S
C40 H81 0.930 . S
C41 C39 1.353 . S
C41 N43 1.314 1_545 S
C41 H82 0.930 . S
C42 C40 1.358 1_565 S
C42 N43 1.279 . S
C42 H83 0.930 . S
N43 C41 1.314 1_565 S
N43 C42 1.279 . S
C44 C46 1.353 . S
C44 N47 1.314 . S
C44 H50 0.930 . S
C45 N47 1.279 . S
C45 C48 1.358 . S
C45 H51 0.930 . S
C46 C44 1.353 . S
C46 C49 1.348 . S
C46 H84 0.929 . S
N47 Li2 1.990 . S
N47 C44 1.314 . S
N47 C45 1.279 . S
C48 C45 1.358 . S
C48 C49 1.356 . S
C48 H85 0.930 1_554 S
C49 C46 1.348 . S
C49 C48 1.356 . S
H50 C44 0.930 . S
H51 C45 0.930 . S
C52 N53 1.314 . S
C52 C54 1.353 1_455 S
C52 H58 0.930 . S
N53 Li3 1.990 . S
N53 C52 1.314 . S
N53 C56 1.279 . S
C54 C52 1.353 1_655 S
C54 C57 1.348 1_655 S
C54 H86 0.929 . S
C55 C56 1.363 . S
C55 C57 1.357 . S
C55 H87 0.924 1_544 S
C56 N53 1.279 . S
C56 C55 1.363 . S
C56 H59 0.930 . S
C57 C54 1.348 1_455 S
C57 C55 1.357 . S
H58 C52 0.930 . S
H59 C56 0.930 . S
O60 Li0 1.956 . S
O60 Li1 1.970 . S
O60 Li2 1.961 . S
O60 C4 1.325 . S
O61 Li0 1.970 . S
O61 Li1 1.956 . S
O61 Li3 1.961 . S
O61 C10 1.325 . S
O62 Li0 1.961 . S
O62 Li2 1.956 . S
O62 Li3 1.970 . S
O62 C32 1.325 . S
O63 Li1 1.961 . S
O63 Li2 1.970 . S
O63 Li3 1.956 . S
O63 C38 1.325 . S
H64 C6 0.929 . S
H65 C7 0.930 . S
H66 C8 0.930 . S
H67 C9 0.930 . S
H68 C11 0.940 . S
H69 C13 0.929 . S
H70 C14 0.930 . S
H71 C15 0.930 . S
H72 C18 0.930 . S
H73 C21 0.929 1_655 S
H74 C26 0.929 . S
H75 C27 0.930 . S
H76 C34 0.929 . S
H77 C35 0.930 . S
H78 C36 0.930 . S
H79 C37 0.930 . S
H80 C39 0.929 . S
H81 C40 0.930 . S
H82 C41 0.930 . S
H83 C42 0.930 . S
H84 C46 0.929 . S
H85 C48 0.930 1_556 S
H86 C54 0.929 . S
H87 C55 0.924 1_566 S
Li88 N105 1.990 . S
Li88 O148 1.956 . S
Li88 O149 1.970 . S
Li88 O150 1.961 . S
Li89 N113 1.990 . S
Li89 O148 1.970 . S
Li89 O149 1.956 . S
Li89 O151 1.961 . S
Li90 N135 1.990 . S
Li90 O148 1.961 . S
Li90 O150 1.956 . S
Li90 O151 1.970 . S
Li91 N141 1.990 . S
Li91 O149 1.961 . S
Li91 O150 1.970 . S
Li91 O151 1.956 . S
C92 C94 1.348 . S
C92 C95 1.356 . S
C92 O148 1.325 . S
N93 C96 1.314 . S
N93 C97 1.279 . S
C94 C92 1.348 . S
C94 C96 1.353 . S
C94 H152 0.929 . S
C95 C92 1.356 . S
C95 C97 1.358 . S
C95 H153 0.930 . S
C96 N93 1.314 . S
C96 C94 1.353 . S
C96 H154 0.930 . S
C97 N93 1.279 . S
C97 C95 1.358 . S
C97 H155 0.930 . S
C98 C101 1.348 . S
C98 C102 1.356 . S
C98 O149 1.325 . S
C99 N100 1.279 . S
C99 C102 1.358 . S
C99 H156 0.930 . S
N100 C99 1.279 . S
N100 C103 1.314 . S
C101 C98 1.348 . S
C101 C103 1.353 . S
C101 H157 0.929 . S
C102 C98 1.356 . S
C102 C99 1.358 . S
C102 H158 0.930 . S
C103 N100 1.314 . S
C103 C101 1.353 . S
C103 H159 0.930 . S
C104 N105 1.314 . S
C104 C109 1.353 . S
C104 H110 0.930 . S
N105 Li88 1.990 . S
N105 C104 1.314 . S
N105 C107 1.279 . S
C106 C107 1.358 . S
C106 C108 1.356 . S
C106 H160 0.930 . S
C107 N105 1.279 . S
C107 C106 1.358 . S
C107 H111 0.930 . S
C108 C106 1.356 . S
C108 C109 1.348 . S
C109 C104 1.353 . S
C109 C108 1.348 . S
C109 H161 0.929 . S
H110 C104 0.930 . S
H111 C107 0.930 . S
C112 N113 1.314 . S
C112 C114 1.353 . S
C112 H118 0.930 . S
N113 Li89 1.990 . S
N113 C112 1.314 . S
N113 C116 1.279 . S
C114 C112 1.353 . S
C114 C117 1.348 . S
C114 H162 0.929 . S
C115 C116 1.358 . S
C115 C117 1.356 . S
C115 H163 0.930 . S
C116 N113 1.279 . S
C116 C115 1.358 . S
C116 H119 0.930 . S
C117 C114 1.348 . S
C117 C115 1.356 . S
H118 C112 0.930 . S
H119 C116 0.930 . S
C120 C122 1.348 . S
C120 C123 1.356 . S
C120 O150 1.325 . S
N121 C124 1.314 . S
N121 C125 1.279 . S
C122 C120 1.348 . S
C122 C124 1.353 . S
C122 H164 0.929 . S
C123 C120 1.356 . S
C123 C125 1.358 . S
C123 H165 0.930 . S
C124 N121 1.314 . S
C124 C122 1.353 . S
C124 H166 0.930 . S
C125 N121 1.279 . S
C125 C123 1.358 . S
C125 H167 0.930 . S
C126 C127 1.348 . S
C126 C128 1.356 . S
C126 O151 1.325 . S
C127 C126 1.348 . S
C127 C129 1.353 . S
C127 H168 0.929 . S
C128 C126 1.356 . S
C128 C130 1.358 . S
C128 H169 0.930 . S
C129 C127 1.353 . S
C129 N131 1.314 . S
C129 H170 0.930 . S
C130 C128 1.358 . S
C130 N131 1.279 . S
C130 H171 0.930 . S
N131 C129 1.314 . S
N131 C130 1.279 . S
C132 C134 1.353 . S
C132 N135 1.314 . S
C132 H138 0.930 . S
C133 N135 1.279 . S
C133 C136 1.358 . S
C133 H139 0.930 . S
C134 C132 1.353 . S
C134 C137 1.348 . S
C134 H172 0.946 . S
N135 Li90 1.990 . S
N135 C132 1.314 . S
N135 C133 1.279 . S
C136 C133 1.358 . S
C136 C137 1.356 . S
C136 H173 0.930 . S
C137 C134 1.348 . S
C137 C136 1.356 . S
H138 C132 0.930 . S
H139 C133 0.930 . S
C140 N141 1.314 . S
C140 C142 1.353 . S
C140 H146 0.930 . S
N141 Li91 1.990 . S
N141 C140 1.314 . S
N141 C144 1.279 . S
C142 C140 1.353 . S
C142 C145 1.348 . S
C142 H174 0.929 . S
C143 C144 1.358 . S
C143 C145 1.356 . S
C143 H175 0.930 . S
C144 N141 1.279 . S
C144 C143 1.358 . S
C144 H147 0.930 . S
C145 C142 1.348 . S
C145 C143 1.356 . S
H146 C140 0.930 . S
H147 C144 0.930 . S
O148 Li88 1.956 . S
O148 Li89 1.970 . S
O148 Li90 1.961 . S
O148 C92 1.325 . S
O149 Li88 1.970 . S
O149 Li89 1.956 . S
O149 Li91 1.961 . S
O149 C98 1.325 . S
O150 Li88 1.961 . S
O150 Li90 1.956 . S
O150 Li91 1.970 . S
O150 C120 1.325 . S
O151 Li89 1.961 . S
O151 Li90 1.970 . S
O151 Li91 1.956 . S
O151 C126 1.325 . S
H152 C94 0.929 . S
H153 C95 0.930 . S
H154 C96 0.930 . S
H155 C97 0.930 . S
H156 C99 0.930 . S
H157 C101 0.929 . S
H158 C102 0.930 . S
H159 C103 0.930 . S
H160 C106 0.930 . S
H161 C109 0.929 . S
H162 C114 0.929 . S
H163 C115 0.930 . S
H164 C122 0.929 . S
H165 C123 0.930 . S
H166 C124 0.930 . S
H167 C125 0.930 . S
H168 C127 0.929 . S
H169 C128 0.930 . S
H170 C129 0.930 . S
H171 C130 0.930 . S
H172 C134 0.946 . S
H173 C136 0.930 . S
H174 C142 0.929 . S
H175 C143 0.930 . S
Li176 N193 1.990 . S
Li176 O236 1.956 . S
Li176 O237 1.970 . S
Li176 O238 1.961 . S
Li177 N201 1.990 . S
Li177 O236 1.970 . S
Li177 O237 1.956 . S
Li177 O239 1.961 . S
Li178 N223 1.990 . S
Li178 O236 1.961 . S
Li178 O238 1.956 . S
Li178 O239 1.970 . S
Li179 N229 1.990 . S
Li179 O237 1.961 . S
Li179 O238 1.970 . S
Li179 O239 1.956 . S
C180 C182 1.348 . S
C180 C183 1.356 . S
C180 O236 1.325 . S
N181 C184 1.314 . S
N181 C185 1.279 . S
C182 C180 1.348 . S
C182 C184 1.353 . S
C182 H240 0.929 . S
C183 C180 1.356 . S
C183 C185 1.358 . S
C183 H241 0.930 . S
C184 N181 1.314 . S
C184 C182 1.353 . S
C184 H242 0.930 . S
C185 N181 1.279 . S
C185 C183 1.358 . S
C185 H243 0.930 . S
C186 C189 1.348 . S
C186 C190 1.356 . S
C186 O237 1.325 . S
C187 N188 1.279 . S
C187 C190 1.358 . S
C187 H244 0.930 . S
N188 C187 1.279 . S
N188 C191 1.314 . S
C189 C186 1.348 . S
C189 C191 1.353 . S
C189 H245 0.929 . S
C190 C186 1.356 . S
C190 C187 1.358 . S
C190 H246 0.930 . S
C191 N188 1.314 . S
C191 C189 1.353 . S
C191 H247 0.930 . S
C192 N193 1.314 . S
C192 C197 1.353 . S
C192 H198 0.930 . S
N193 Li176 1.990 . S
N193 C192 1.314 . S
N193 C195 1.279 . S
C194 C195 1.358 . S
C194 C196 1.356 . S
C194 H248 0.930 . S
C195 N193 1.279 . S
C195 C194 1.358 . S
C195 H199 0.930 . S
C196 C194 1.356 . S
C196 C197 1.348 . S
C197 C192 1.353 . S
C197 C196 1.348 . S
C197 H249 0.929 . S
H198 C192 0.930 . S
H199 C195 0.930 . S
C200 N201 1.314 . S
C200 C202 1.353 . S
C200 H206 0.930 . S
N201 Li177 1.990 . S
N201 C200 1.314 . S
N201 C204 1.279 . S
C202 C200 1.353 . S
C202 C205 1.348 . S
C202 H250 0.929 . S
C203 C204 1.358 . S
C203 C205 1.356 . S
C203 H251 0.930 . S
C204 N201 1.279 . S
C204 C203 1.358 . S
C204 H207 0.930 . S
C205 C202 1.348 . S
C205 C203 1.356 . S
H206 C200 0.930 . S
H207 C204 0.930 . S
C208 C210 1.348 . S
C208 C211 1.356 . S
C208 O238 1.325 . S
N209 C212 1.314 1_545 S
N209 C213 1.279 . S
C210 C208 1.348 . S
C210 C212 1.353 . S
C210 H252 0.929 . S
C211 C208 1.356 . S
C211 C213 1.358 1_565 S
C211 H253 0.930 . S
C212 N209 1.314 1_565 S
C212 C210 1.353 . S
C212 H254 0.930 . S
C213 N209 1.279 . S
C213 C211 1.358 1_545 S
C213 H255 0.930 . S
C214 C215 1.348 . S
C214 C216 1.356 . S
C214 O239 1.325 . S
C215 C214 1.348 . S
C215 C217 1.353 . S
C215 H256 0.929 . S
C216 C214 1.356 . S
C216 C218 1.358 . S
C216 H257 0.930 . S
C217 C215 1.353 . S
C217 N219 1.314 . S
C217 H258 0.930 . S
C218 C216 1.358 . S
C218 N219 1.279 . S
C218 H259 0.930 . S
N219 C217 1.314 . S
N219 C218 1.279 . S
C220 C222 1.353 . S
C220 N223 1.314 . S
C220 H226 0.930 . S
C221 N223 1.279 . S
C221 C224 1.363 . S
C221 H227 0.930 . S
C222 C220 1.353 . S
C222 C225 1.348 . S
C222 H260 0.929 . S
N223 Li178 1.990 . S
N223 C220 1.314 . S
N223 C221 1.279 . S
C224 C221 1.363 . S
C224 C225 1.357 . S
C224 H261 0.924 1_565 S
C225 C222 1.348 . S
C225 C224 1.357 . S
H226 C220 0.930 . S
H227 C221 0.930 . S
C228 N229 1.314 . S
C228 C230 1.353 . S
C228 H234 0.930 . S
N229 Li179 1.990 . S
N229 C228 1.314 . S
N229 C232 1.279 . S
C230 C228 1.353 . S
C230 C233 1.348 . S
C230 H262 0.929 . S
C231 C232 1.358 . S
C231 C233 1.356 . S
C231 H263 0.930 . S
C232 N229 1.279 . S
C232 C231 1.358 . S
C232 H235 0.930 . S
C233 C230 1.348 . S
C233 C231 1.356 . S
H234 C228 0.930 . S
H235 C232 0.930 . S
O236 Li176 1.956 . S
O236 Li177 1.970 . S
O236 Li178 1.961 . S
O236 C180 1.325 . S
O237 Li176 1.970 . S
O237 Li177 1.956 . S
O237 Li179 1.961 . S
O237 C186 1.325 . S
O238 Li176 1.961 . S
O238 Li178 1.956 . S
O238 Li179 1.970 . S
O238 C208 1.325 . S
O239 Li177 1.961 . S
O239 Li178 1.970 . S
O239 Li179 1.956 . S
O239 C214 1.325 . S
H240 C182 0.929 . S
H241 C183 0.930 . S
H242 C184 0.930 . S
H243 C185 0.930 . S
H244 C187 0.930 . S
H245 C189 0.929 . S
H246 C190 0.930 . S
H247 C191 0.930 . S
H248 C194 0.930 . S
H249 C197 0.929 . S
H250 C202 0.929 . S
H251 C203 0.930 . S
H252 C210 0.929 . S
H253 C211 0.930 . S
H254 C212 0.930 . S
H255 C213 0.930 . S
H256 C215 0.929 . S
H257 C216 0.930 . S
H258 C217 0.930 . S
H259 C218 0.930 . S
H260 C222 0.929 . S
H261 C224 0.924 1_545 S
H262 C230 0.929 . S
H263 C231 0.930 . S
Li264 N281 1.990 . S
Li264 O324 1.956 . S
Li264 O325 1.970 . S
Li264 O326 1.961 . S
Li265 N289 1.990 . S
Li265 O324 1.970 . S
Li265 O325 1.956 . S
Li265 O327 1.961 . S
Li266 N311 1.990 . S
Li266 O324 1.961 . S
Li266 O326 1.956 . S
Li266 O327 1.970 . S
Li267 N317 1.990 . S
Li267 O325 1.961 . S
Li267 O326 1.970 . S
Li267 O327 1.956 . S
C268 C270 1.348 . S
C268 C271 1.356 . S
C268 O324 1.325 . S
N269 C272 1.314 . S
N269 C273 1.279 . S
C270 C268 1.348 . S
C270 C272 1.353 . S
C270 H328 0.929 . S
C271 C268 1.356 . S
C271 C273 1.358 . S
C271 H329 0.930 . S
C272 N269 1.314 . S
C272 C270 1.353 . S
C272 H330 0.930 . S
C273 N269 1.279 . S
C273 C271 1.358 . S
C273 H331 0.930 . S
C274 C277 1.348 . S
C274 C278 1.356 . S
C274 O325 1.325 . S
C275 N276 1.279 . S
C275 C278 1.358 . S
C275 H332 0.930 . S
N276 C275 1.279 . S
N276 C279 1.314 . S
C277 C274 1.348 . S
C277 C279 1.353 . S
C277 H333 0.929 . S
C278 C274 1.356 . S
C278 C275 1.358 . S
C278 H334 0.930 . S
C279 N276 1.314 . S
C279 C277 1.353 . S
C279 H335 0.930 . S
C280 N281 1.314 . S
C280 C285 1.353 . S
C280 H286 0.930 . S
N281 Li264 1.990 . S
N281 C280 1.314 . S
N281 C283 1.279 . S
C282 C283 1.358 . S
C282 C284 1.356 . S
C282 H336 0.930 . S
C283 N281 1.279 . S
C283 C282 1.358 . S
C283 H287 0.930 . S
C284 C282 1.356 . S
C284 C285 1.348 . S
C285 C280 1.353 . S
C285 C284 1.348 . S
C285 H337 0.929 . S
H286 C280 0.930 . S
H287 C283 0.930 . S
C288 N289 1.314 . S
C288 C290 1.353 . S
C288 H294 0.930 . S
N289 Li265 1.990 . S
N289 C288 1.314 . S
N289 C292 1.279 . S
C290 C288 1.353 . S
C290 C293 1.348 . S
C290 H338 0.929 . S
C291 C292 1.358 . S
C291 C293 1.356 . S
C291 H339 0.930 . S
C292 N289 1.279 . S
C292 C291 1.358 . S
C292 H295 0.930 . S
C293 C290 1.348 . S
C293 C291 1.356 . S
H294 C288 0.930 . S
H295 C292 0.930 . S
C296 C298 1.348 . S
C296 C299 1.356 . S
C296 O326 1.325 . S
N297 C300 1.314 . S
N297 C301 1.279 . S
C298 C296 1.348 . S
C298 C300 1.353 . S
C298 H340 0.929 . S
C299 C296 1.356 . S
C299 C301 1.358 . S
C299 H341 0.930 . S
C300 N297 1.314 . S
C300 C298 1.353 . S
C300 H342 0.930 . S
C301 N297 1.279 . S
C301 C299 1.358 . S
C301 H343 0.930 . S
C302 C303 1.348 . S
C302 C304 1.356 . S
C302 O327 1.325 . S
C303 C302 1.348 . S
C303 C305 1.353 . S
C303 H344 0.929 . S
C304 C302 1.356 . S
C304 C306 1.358 . S
C304 H345 0.930 . S
C305 C303 1.353 . S
C305 N307 1.314 . S
C305 H346 0.930 . S
C306 C304 1.358 . S
C306 N307 1.279 . S
C306 H347 0.930 . S
N307 C305 1.314 . S
N307 C306 1.279 . S
C308 C310 1.353 . S
C308 N311 1.314 . S
C308 H314 0.930 . S
C309 N311 1.279 . S
C309 C312 1.358 . S
C309 H315 0.930 . S
C310 C308 1.353 . S
C310 C313 1.348 . S
C310 H348 0.929 . S
N311 Li266 1.990 . S
N311 C308 1.314 . S
N311 C309 1.279 . S
C312 C309 1.358 . S
C312 C313 1.356 . S
C312 H349 0.930 . S
C313 C310 1.348 . S
C313 C312 1.356 . S
H314 C308 0.930 . S
H315 C309 0.930 . S
C316 N317 1.314 . S
C316 C318 1.353 . S
C316 H322 0.930 . S
N317 Li267 1.990 . S
N317 C316 1.314 . S
N317 C320 1.279 . S
C318 C316 1.353 . S
C318 C321 1.348 . S
C318 H350 0.929 . S
C319 C320 1.358 . S
C319 C321 1.356 . S
C319 H351 0.930 . S
C320 N317 1.279 . S
C320 C319 1.358 . S
C320 H323 0.930 . S
C321 C318 1.348 . S
C321 C319 1.356 . S
H322 C316 0.930 . S
H323 C320 0.930 . S
O324 Li264 1.956 . S
O324 Li265 1.970 . S
O324 Li266 1.961 . S
O324 C268 1.325 . S
O325 Li264 1.970 . S
O325 Li265 1.956 . S
O325 Li267 1.961 . S
O325 C274 1.325 . S
O326 Li264 1.961 . S
O326 Li266 1.956 . S
O326 Li267 1.970 . S
O326 C296 1.325 . S
O327 Li265 1.961 . S
O327 Li266 1.970 . S
O327 Li267 1.956 . S
O327 C302 1.325 . S
H328 C270 0.929 . S
H329 C271 0.930 . S
H330 C272 0.930 . S
H331 C273 0.930 . S
H332 C275 0.930 . S
H333 C277 0.929 . S
H334 C278 0.930 . S
H335 C279 0.930 . S
H336 C282 0.930 . S
H337 C285 0.929 . S
H338 C290 0.929 . S
H339 C291 0.930 . S
H340 C298 0.929 . S
H341 C299 0.930 . S
H342 C300 0.930 . S
H343 C301 0.930 . S
H344 C303 0.929 . S
H345 C304 0.930 . S
H346 C305 0.930 . S
H347 C306 0.930 . S
H348 C310 0.929 . S
H349 C312 0.930 . S
H350 C318 0.929 . S
H351 C319 0.930 . S
Li352 N369 1.990 . S
Li352 O412 1.956 . S
Li352 O413 1.970 . S
Li352 O414 1.961 . S
Li353 N377 1.990 . S
Li353 O412 1.970 . S
Li353 O413 1.956 . S
Li353 O415 1.961 . S
Li354 N399 1.990 . S
Li354 O412 1.961 . S
Li354 O414 1.956 . S
Li354 O415 1.970 . S
Li355 N405 1.990 . S
Li355 O413 1.961 . S
Li355 O414 1.970 . S
Li355 O415 1.956 . S
C356 C358 1.348 . S
C356 C359 1.356 . S
C356 O412 1.325 . S
N357 C360 1.314 1_545 S
N357 C361 1.279 . S
C358 C356 1.348 . S
C358 C360 1.353 . S
C358 H416 0.929 . S
C359 C356 1.356 . S
C359 C361 1.358 1_565 S
C359 H417 0.930 . S
C360 N357 1.314 1_565 S
C360 C358 1.353 . S
C360 H418 0.930 . S
C361 N357 1.279 . S
C361 C359 1.358 1_545 S
C361 H419 0.930 . S
C362 C365 1.348 . S
C362 C366 1.356 . S
C362 O413 1.325 . S
C363 N364 1.279 . S
C363 C366 1.358 . S
C363 H420 0.930 . S
N364 C363 1.279 . S
N364 C367 1.314 . S
C365 C362 1.348 . S
C365 C367 1.353 . S
C365 H421 0.929 . S
C366 C362 1.356 . S
C366 C363 1.358 . S
C366 H422 0.930 . S
C367 N364 1.314 . S
C367 C365 1.353 . S
C367 H423 0.930 . S
C368 N369 1.314 . S
C368 C373 1.353 1_455 S
C368 H374 0.930 . S
N369 Li352 1.990 . S
N369 C368 1.314 . S
N369 C371 1.279 . S
C370 C371 1.363 . S
C370 C372 1.357 . S
C370 H424 0.924 1_565 S
C371 N369 1.279 . S
C371 C370 1.363 . S
C371 H375 0.930 . S
C372 C370 1.357 . S
C372 C373 1.348 1_455 S
C373 C368 1.353 1_655 S
C373 C372 1.348 1_655 S
C373 H425 0.929 . S
H374 C368 0.930 . S
H375 C371 0.930 . S
C376 N377 1.314 . S
C376 C378 1.353 . S
C376 H382 0.930 . S
N377 Li353 1.990 . S
N377 C376 1.314 . S
N377 C380 1.279 . S
C378 C376 1.353 . S
C378 C381 1.348 . S
C378 H426 0.929 . S
C379 C380 1.358 . S
C379 C381 1.356 . S
C379 H427 0.930 . S
C380 N377 1.279 . S
C380 C379 1.358 . S
C380 H383 0.930 . S
C381 C378 1.348 . S
C381 C379 1.356 . S
H382 C376 0.930 . S
H383 C380 0.930 . S
C384 C386 1.348 . S
C384 C387 1.356 . S
C384 O414 1.325 . S
N385 C388 1.314 . S
N385 C389 1.299 . S
C386 C384 1.348 . S
C386 C388 1.353 1_455 S
C386 H428 0.929 . S
C387 C384 1.356 . S
C387 C389 1.331 1_455 S
C387 H429 0.930 . S
C388 N385 1.314 . S
C388 C386 1.353 1_655 S
C388 H430 0.930 . S
C389 N385 1.299 . S
C389 C387 1.331 1_655 S
C389 H431 0.940 . S
C390 C391 1.348 . S
C390 C392 1.356 . S
C390 O415 1.325 . S
C391 C390 1.348 . S
C391 C393 1.353 . S
C391 H432 0.929 . S
C392 C390 1.356 . S
C392 C394 1.358 . S
C392 H433 0.930 . S
C393 C391 1.353 . S
C393 N395 1.314 . S
C393 H434 0.930 . S
C394 C392 1.358 . S
C394 N395 1.279 . S
C394 H435 0.930 . S
N395 C393 1.314 . S
N395 C394 1.279 . S
C396 C398 1.353 . S
C396 N399 1.314 . S
C396 H402 0.930 . S
C397 N399 1.279 . S
C397 C400 1.358 . S
C397 H403 0.930 . S
C398 C396 1.353 . S
C398 C401 1.348 . S
C398 H436 0.929 . S
N399 Li354 1.990 . S
N399 C396 1.314 . S
N399 C397 1.279 . S
C400 C397 1.358 . S
C400 C401 1.356 . S
C400 H437 0.930 . S
C401 C398 1.348 . S
C401 C400 1.356 . S
H402 C396 0.930 . S
H403 C397 0.930 . S
C404 N405 1.314 . S
C404 C406 1.353 . S
C404 H410 0.930 . S
N405 Li355 1.990 . S
N405 C404 1.314 . S
N405 C408 1.279 . S
C406 C404 1.353 . S
C406 C409 1.348 . S
C406 H438 0.929 1_455 S
C407 C408 1.358 . S
C407 C409 1.356 . S
C407 H439 0.930 . S
C408 N405 1.279 . S
C408 C407 1.358 . S
C408 H411 0.930 . S
C409 C406 1.348 . S
C409 C407 1.356 . S
H410 C404 0.930 . S
H411 C408 0.930 . S
O412 Li352 1.956 . S
O412 Li353 1.970 . S
O412 Li354 1.961 . S
O412 C356 1.325 . S
O413 Li352 1.970 . S
O413 Li353 1.956 . S
O413 Li355 1.961 . S
O413 C362 1.325 . S
O414 Li352 1.961 . S
O414 Li354 1.956 . S
O414 Li355 1.970 . S
O414 C384 1.325 . S
O415 Li353 1.961 . S
O415 Li354 1.970 . S
O415 Li355 1.956 . S
O415 C390 1.325 . S
H416 C358 0.929 . S
H417 C359 0.930 . S
H418 C360 0.930 . S
H419 C361 0.930 . S
H420 C363 0.930 . S
H421 C365 0.929 . S
H422 C366 0.930 . S
H423 C367 0.930 . S
H424 C370 0.924 1_545 S
H425 C373 0.929 . S
H426 C378 0.929 . S
H427 C379 0.930 . S
H428 C386 0.929 . S
H429 C387 0.930 . S
H430 C388 0.930 . S
H431 C389 0.940 . S
H432 C391 0.929 . S
H433 C392 0.930 . S
H434 C393 0.930 . S
H435 C394 0.930 . S
H436 C398 0.929 . S
H437 C400 0.930 . S
H438 C406 0.929 1_655 S
H439 C407 0.930 . S
Li440 N457 1.990 . S
Li440 O500 1.956 . S
Li440 O501 1.970 . S
Li440 O502 1.961 . S
Li441 N465 1.990 . S
Li441 O500 1.970 . S
Li441 O501 1.956 . S
Li441 O503 1.961 . S
Li442 N487 1.990 . S
Li442 O500 1.961 . S
Li442 O502 1.956 . S
Li442 O503 1.970 . S
Li443 N493 1.990 . S
Li443 O501 1.961 . S
Li443 O502 1.970 . S
Li443 O503 1.956 . S
C444 C446 1.348 . S
C444 C447 1.356 . S
C444 O500 1.325 . S
N445 C448 1.314 . S
N445 C449 1.279 . S
C446 C444 1.348 . S
C446 C448 1.353 . S
C446 H504 0.929 . S
C447 C444 1.356 . S
C447 C449 1.358 . S
C447 H505 0.930 . S
C448 N445 1.314 . S
C448 C446 1.353 . S
C448 H506 0.930 . S
C449 N445 1.279 . S
C449 C447 1.358 . S
C449 H507 0.930 . S
C450 C453 1.348 . S
C450 C454 1.356 . S
C450 O501 1.325 . S
C451 N452 1.279 . S
C451 C454 1.358 . S
C451 H508 0.930 . S
N452 C451 1.279 . S
N452 C455 1.314 . S
C453 C450 1.348 . S
C453 C455 1.353 . S
C453 H509 0.929 . S
C454 C450 1.356 . S
C454 C451 1.358 . S
C454 H510 0.930 . S
C455 N452 1.314 . S
C455 C453 1.353 . S
C455 H511 0.930 . S
C456 N457 1.314 . S
C456 C461 1.353 . S
C456 H462 0.930 . S
N457 Li440 1.990 . S
N457 C456 1.314 . S
N457 C459 1.279 . S
C458 C459 1.358 . S
C458 C460 1.356 . S
C458 H512 0.930 . S
C459 N457 1.279 . S
C459 C458 1.358 . S
C459 H463 0.930 . S
C460 C458 1.356 . S
C460 C461 1.348 . S
C461 C456 1.353 . S
C461 C460 1.348 . S
C461 H513 0.929 . S
H462 C456 0.930 . S
H463 C459 0.930 . S
C464 N465 1.314 . S
C464 C466 1.353 . S
C464 H470 0.930 . S
N465 Li441 1.990 . S
N465 C464 1.314 . S
N465 C468 1.279 . S
C466 C464 1.353 . S
C466 C469 1.348 . S
C466 H514 0.929 . S
C467 C468 1.358 . S
C467 C469 1.356 . S
C467 H515 0.930 . S
C468 N465 1.279 . S
C468 C467 1.358 . S
C468 H471 0.930 . S
C469 C466 1.348 . S
C469 C467 1.356 . S
H470 C464 0.930 . S
H471 C468 0.930 . S
C472 C474 1.348 . S
C472 C475 1.356 . S
C472 O502 1.325 . S
N473 C476 1.314 . S
N473 C477 1.279 . S
C474 C472 1.348 . S
C474 C476 1.353 . S
C474 H516 0.929 . S
C475 C472 1.356 . S
C475 C477 1.358 . S
C475 H517 0.930 . S
C476 N473 1.314 . S
C476 C474 1.353 . S
C476 H518 0.930 . S
C477 N473 1.279 . S
C477 C475 1.358 . S
C477 H519 0.930 . S
C478 C479 1.348 . S
C478 C480 1.356 . S
C478 O503 1.325 . S
C479 C478 1.348 . S
C479 C481 1.353 . S
C479 H520 0.929 . S
C480 C478 1.356 . S
C480 C482 1.358 . S
C480 H521 0.930 . S
C481 C479 1.353 . S
C481 N483 1.314 . S
C481 H522 0.930 . S
C482 C480 1.358 . S
C482 N483 1.279 . S
C482 H523 0.930 . S
N483 C481 1.314 . S
N483 C482 1.279 . S
C484 C486 1.353 . S
C484 N487 1.314 . S
C484 H490 0.930 . S
C485 N487 1.279 . S
C485 C488 1.358 . S
C485 H491 0.930 . S
C486 C484 1.353 . S
C486 C489 1.348 . S
C486 H524 0.929 . S
N487 Li442 1.990 . S
N487 C484 1.314 . S
N487 C485 1.279 . S
C488 C485 1.358 . S
C488 C489 1.356 . S
C488 H525 0.930 . S
C489 C486 1.348 . S
C489 C488 1.356 . S
H490 C484 0.930 . S
H491 C485 0.930 . S
C492 N493 1.314 . S
C492 C494 1.353 . S
C492 H498 0.930 . S
N493 Li443 1.990 . S
N493 C492 1.314 . S
N493 C496 1.279 . S
C494 C492 1.353 . S
C494 C497 1.348 . S
C494 H526 0.929 . S
C495 C496 1.358 . S
C495 C497 1.356 . S
C495 H527 0.930 . S
C496 N493 1.279 . S
C496 C495 1.358 . S
C496 H499 0.930 . S
C497 C494 1.348 . S
C497 C495 1.356 . S
H498 C492 0.930 . S
H499 C496 0.930 . S
O500 Li440 1.956 . S
O500 Li441 1.970 . S
O500 Li442 1.961 . S
O500 C444 1.325 . S
O501 Li440 1.970 . S
O501 Li441 1.956 . S
O501 Li443 1.961 . S
O501 C450 1.325 . S
O502 Li440 1.961 . S
O502 Li442 1.956 . S
O502 Li443 1.970 . S
O502 C472 1.325 . S
O503 Li441 1.961 . S
O503 Li442 1.970 . S
O503 Li443 1.956 . S
O503 C478 1.325 . S
H504 C446 0.929 . S
H505 C447 0.930 . S
H506 C448 0.930 . S
H507 C449 0.930 . S
H508 C451 0.930 . S
H509 C453 0.929 . S
H510 C454 0.930 . S
H511 C455 0.930 . S
H512 C458 0.930 . S
H513 C461 0.929 . S
H514 C466 0.929 . S
H515 C467 0.930 . S
H516 C474 0.929 . S
H517 C475 0.930 . S
H518 C476 0.930 . S
H519 C477 0.930 . S
H520 C479 0.929 . S
H521 C480 0.930 . S
H522 C481 0.930 . S
H523 C482 0.930 . S
H524 C486 0.929 . S
H525 C488 0.930 . S
H526 C494 0.929 . S
H527 C495 0.930 . S
Li528 N545 1.990 . S
Li528 O588 1.956 . S
Li528 O589 1.970 . S
Li528 O590 1.961 . S
Li529 N553 1.990 . S
Li529 O588 1.970 . S
Li529 O589 1.956 . S
Li529 O591 1.961 . S
Li530 N575 1.990 . S
Li530 O588 1.961 . S
Li530 O590 1.956 . S
Li530 O591 1.970 . S
Li531 N581 1.990 . S
Li531 O589 1.961 . S
Li531 O590 1.970 . S
Li531 O591 1.956 . S
C532 C534 1.348 . S
C532 C535 1.356 . S
C532 O588 1.325 . S
N533 C536 1.314 . S
N533 C537 1.279 1_554 S
C534 C532 1.348 . S
C534 C536 1.353 1_556 S
C534 H592 0.929 . S
C535 C532 1.356 . S
C535 C537 1.358 . S
C535 H593 0.930 . S
C536 N533 1.314 . S
C536 C534 1.353 1_554 S
C536 H594 0.930 . S
C537 N533 1.279 1_556 S
C537 C535 1.358 . S
C537 H595 0.930 . S
C538 C541 1.348 . S
C538 C542 1.356 . S
C538 O589 1.325 . S
C539 N540 1.279 . S
C539 C542 1.358 1_565 S
C539 H596 0.930 . S
N540 C539 1.279 . S
N540 C543 1.314 1_565 S
C541 C538 1.348 . S
C541 C543 1.353 . S
C541 H597 0.929 . S
C542 C538 1.356 . S
C542 C539 1.358 1_545 S
C542 H598 0.930 . S
C543 N540 1.314 1_545 S
C543 C541 1.353 . S
C543 H599 0.930 . S
C544 N545 1.314 . S
C544 C549 1.353 . S
C544 H550 0.930 . S
N545 Li528 1.990 . S
N545 C544 1.314 . S
N545 C547 1.279 . S
C546 C547 1.358 . S
C546 C548 1.356 . S
C546 H600 0.930 1_556 S
C547 N545 1.279 . S
C547 C546 1.358 . S
C547 H551 0.930 . S
C548 C546 1.356 . S
C548 C549 1.348 . S
C549 C544 1.353 . S
C549 C548 1.348 . S
C549 H601 0.929 . S
H550 C544 0.930 . S
H551 C547 0.930 . S
C552 N553 1.314 . S
C552 C554 1.353 . S
C552 H558 0.930 . S
N553 Li529 1.990 . S
N553 C552 1.314 . S
N553 C556 1.279 . S
C554 C552 1.353 . S
C554 C557 1.348 . S
C554 H602 0.929 . S
C555 C556 1.363 . S
C555 C557 1.357 . S
C555 H603 0.923 1_546 S
C556 N553 1.279 . S
C556 C555 1.363 . S
C556 H559 0.930 . S
C557 C554 1.348 . S
C557 C555 1.357 . S
H558 C552 0.930 . S
H559 C556 0.930 . S
C560 C562 1.348 . S
C560 C563 1.356 . S
C560 O590 1.325 . S
N561 C564 1.314 . S
N561 C565 1.279 . S
C562 C560 1.348 . S
C562 C564 1.353 . S
C562 H604 0.929 . S
C563 C560 1.356 . S
C563 C565 1.358 . S
C563 H605 0.930 . S
C564 N561 1.314 . S
C564 C562 1.353 . S
C564 H606 0.930 . S
C565 N561 1.279 . S
C565 C563 1.358 . S
C565 H607 0.930 . S
C566 C567 1.348 . S
C566 C568 1.356 . S
C566 O591 1.325 . S
C567 C566 1.348 . S
C567 C569 1.353 . S
C567 H608 0.929 . S
C568 C566 1.356 . S
C568 C570 1.358 . S
C568 H609 0.930 . S
C569 C567 1.353 . S
C569 N571 1.314 . S
C569 H610 0.930 . S
C570 C568 1.358 . S
C570 N571 1.279 . S
C570 H611 0.930 . S
N571 C569 1.314 . S
N571 C570 1.279 . S
C572 C574 1.353 . S
C572 N575 1.314 . S
C572 H578 0.930 . S
C573 N575 1.279 . S
C573 C576 1.358 . S
C573 H579 0.930 . S
C574 C572 1.353 . S
C574 C577 1.348 . S
C574 H612 0.929 . S
N575 Li530 1.990 . S
N575 C572 1.314 . S
N575 C573 1.279 . S
C576 C573 1.358 . S
C576 C577 1.356 . S
C576 H613 0.930 . S
C577 C574 1.348 . S
C577 C576 1.356 . S
H578 C572 0.930 . S
H579 C573 0.930 . S
C580 N581 1.314 . S
C580 C582 1.353 . S
C580 H586 0.930 . S
N581 Li531 1.990 . S
N581 C580 1.314 . S
N581 C584 1.279 . S
C582 C580 1.353 . S
C582 C585 1.348 . S
C582 H614 0.929 . S
C583 C584 1.358 . S
C583 C585 1.356 . S
C583 H615 0.930 . S
C584 N581 1.279 . S
C584 C583 1.358 . S
C584 H587 0.930 . S
C585 C582 1.348 . S
C585 C583 1.356 . S
H586 C580 0.930 . S
H587 C584 0.930 . S
O588 Li528 1.956 . S
O588 Li529 1.970 . S
O588 Li530 1.961 . S
O588 C532 1.325 . S
O589 Li528 1.970 . S
O589 Li529 1.956 . S
O589 Li531 1.961 . S
O589 C538 1.325 . S
O590 Li528 1.961 . S
O590 Li530 1.956 . S
O590 Li531 1.970 . S
O590 C560 1.325 . S
O591 Li529 1.961 . S
O591 Li530 1.970 . S
O591 Li531 1.956 . S
O591 C566 1.325 . S
H592 C534 0.929 . S
H593 C535 0.930 . S
H594 C536 0.930 . S
H595 C537 0.930 . S
H596 C539 0.930 . S
H597 C541 0.929 . S
H598 C542 0.930 . S
H599 C543 0.930 . S
H600 C546 0.930 1_554 S
H601 C549 0.929 . S
H602 C554 0.929 . S
H603 C555 0.923 1_564 S
H604 C562 0.929 . S
H605 C563 0.930 . S
H606 C564 0.930 . S
H607 C565 0.930 . S
H608 C567 0.929 . S
H609 C568 0.930 . S
H610 C569 0.930 . S
H611 C570 0.930 . S
H612 C574 0.929 . S
H613 C576 0.930 . S
H614 C582 0.929 . S
H615 C583 0.930 . S
Li616 N633 1.990 . S
Li616 O676 1.956 . S
Li616 O677 1.970 . S
Li616 O678 1.961 . S
Li617 N641 1.990 . S
Li617 O676 1.970 . S
Li617 O677 1.956 . S
Li617 O679 1.961 . S
Li618 N663 1.990 . S
Li618 O676 1.961 . S
Li618 O678 1.956 . S
Li618 O679 1.970 . S
Li619 N669 1.990 . S
Li619 O677 1.961 . S
Li619 O678 1.970 . S
Li619 O679 1.956 . S
C620 C622 1.348 . S
C620 C623 1.356 . S
C620 O676 1.325 . S
N621 C624 1.314 . S
N621 C625 1.279 . S
C622 C620 1.348 . S
C622 C624 1.353 . S
C622 H680 0.929 . S
C623 C620 1.356 . S
C623 C625 1.358 . S
C623 H681 0.930 . S
C624 N621 1.314 . S
C624 C622 1.353 . S
C624 H682 0.930 . S
C625 N621 1.279 . S
C625 C623 1.358 . S
C625 H683 0.930 . S
C626 C629 1.348 . S
C626 C630 1.356 . S
C626 O677 1.325 . S
C627 N628 1.279 . S
C627 C630 1.358 . S
C627 H684 0.930 . S
N628 C627 1.279 . S
N628 C631 1.314 . S
C629 C626 1.348 . S
C629 C631 1.353 . S
C629 H685 0.929 . S
C630 C626 1.356 . S
C630 C627 1.358 . S
C630 H686 0.930 . S
C631 N628 1.314 . S
C631 C629 1.353 . S
C631 H687 0.930 . S
C632 N633 1.314 . S
C632 C637 1.353 . S
C632 H638 0.930 . S
N633 Li616 1.990 . S
N633 C632 1.314 . S
N633 C635 1.279 . S
C634 C635 1.358 . S
C634 C636 1.356 . S
C634 H688 0.930 . S
C635 N633 1.279 . S
C635 C634 1.358 . S
C635 H639 0.930 . S
C636 C634 1.356 . S
C636 C637 1.348 . S
C637 C632 1.353 . S
C637 C636 1.348 . S
C637 H689 0.946 . S
H638 C632 0.930 . S
H639 C635 0.930 . S
C640 N641 1.314 . S
C640 C642 1.353 . S
C640 H646 0.930 . S
N641 Li617 1.990 . S
N641 C640 1.314 . S
N641 C644 1.279 . S
C642 C640 1.353 . S
C642 C645 1.348 . S
C642 H690 0.929 . S
C643 C644 1.358 . S
C643 C645 1.356 . S
C643 H691 0.930 . S
C644 N641 1.279 . S
C644 C643 1.358 . S
C644 H647 0.930 . S
C645 C642 1.348 . S
C645 C643 1.356 . S
H646 C640 0.930 . S
H647 C644 0.930 . S
C648 C650 1.348 . S
C648 C651 1.356 . S
C648 O678 1.325 . S
N649 C652 1.314 . S
N649 C653 1.279 . S
C650 C648 1.348 . S
C650 C652 1.353 . S
C650 H692 0.929 . S
C651 C648 1.356 . S
C651 C653 1.358 . S
C651 H693 0.930 . S
C652 N649 1.314 . S
C652 C650 1.353 . S
C652 H694 0.930 . S
C653 N649 1.279 . S
C653 C651 1.358 . S
C653 H695 0.930 . S
C654 C655 1.348 . S
C654 C656 1.356 . S
C654 O679 1.325 . S
C655 C654 1.348 . S
C655 C657 1.353 . S
C655 H696 0.929 . S
C656 C654 1.356 . S
C656 C658 1.358 . S
C656 H697 0.930 . S
C657 C655 1.353 . S
C657 N659 1.314 . S
C657 H698 0.930 . S
C658 C656 1.358 . S
C658 N659 1.279 . S
C658 H699 0.930 . S
N659 C657 1.314 . S
N659 C658 1.279 . S
C660 C662 1.353 . S
C660 N663 1.314 . S
C660 H666 0.930 . S
C661 N663 1.279 . S
C661 C664 1.358 . S
C661 H667 0.930 . S
C662 C660 1.353 . S
C662 C665 1.348 . S
C662 H700 0.929 . S
N663 Li618 1.990 . S
N663 C660 1.314 . S
N663 C661 1.279 . S
C664 C661 1.358 . S
C664 C665 1.356 . S
C664 H701 0.930 . S
C665 C662 1.348 . S
C665 C664 1.356 . S
H666 C660 0.930 . S
H667 C661 0.930 . S
C668 N669 1.314 . S
C668 C670 1.353 . S
C668 H674 0.930 . S
N669 Li619 1.990 . S
N669 C668 1.314 . S
N669 C672 1.279 . S
C670 C668 1.353 . S
C670 C673 1.348 . S
C670 H702 0.929 . S
C671 C672 1.358 . S
C671 C673 1.356 . S
C671 H703 0.930 . S
C672 N669 1.279 . S
C672 C671 1.358 . S
C672 H675 0.930 . S
C673 C670 1.348 . S
C673 C671 1.356 . S
H674 C668 0.930 . S
H675 C672 0.930 . S
O676 Li616 1.956 . S
O676 Li617 1.970 . S
O676 Li618 1.961 . S
O676 C620 1.325 . S
O677 Li616 1.970 . S
O677 Li617 1.956 . S
O677 Li619 1.961 . S
O677 C626 1.325 . S
O678 Li616 1.961 . S
O678 Li618 1.956 . S
O678 Li619 1.970 . S
O678 C648 1.325 . S
O679 Li617 1.961 . S
O679 Li618 1.970 . S
O679 Li619 1.956 . S
O679 C654 1.325 . S
H680 C622 0.929 . S
H681 C623 0.930 . S
H682 C624 0.930 . S
H683 C625 0.930 . S
H684 C627 0.930 . S
H685 C629 0.929 . S
H686 C630 0.930 . S
H687 C631 0.930 . S
H688 C634 0.930 . S
H689 C637 0.946 . S
H690 C642 0.929 . S
H691 C643 0.930 . S
H692 C650 0.929 . S
H693 C651 0.930 . S
H694 C652 0.930 . S
H695 C653 0.930 . S
H696 C655 0.929 . S
H697 C656 0.930 . S
H698 C657 0.930 . S
H699 C658 0.930 . S
H700 C662 0.929 . S
H701 C664 0.930 . S
H702 C670 0.929 . S
H703 C671 0.930 . S
Li704 N721 1.990 . S
Li704 O764 1.956 . S
Li704 O765 1.970 . S
Li704 O766 1.961 . S
Li705 N729 1.990 . S
Li705 O764 1.970 . S
Li705 O765 1.956 . S
Li705 O767 1.961 . S
Li706 N751 1.990 . S
Li706 O764 1.961 . S
Li706 O766 1.956 . S
Li706 O767 1.970 . S
Li707 N757 1.990 . S
Li707 O765 1.961 . S
Li707 O766 1.970 . S
Li707 O767 1.956 . S
C708 C710 1.348 . S
C708 C711 1.356 . S
C708 O764 1.325 . S
N709 C712 1.314 . S
N709 C713 1.279 1_554 S
C710 C708 1.348 . S
C710 C712 1.353 1_556 S
C710 H768 0.929 . S
C711 C708 1.356 . S
C711 C713 1.358 . S
C711 H769 0.930 . S
C712 N709 1.314 . S
C712 C710 1.353 1_554 S
C712 H770 0.930 . S
C713 N709 1.279 1_556 S
C713 C711 1.358 . S
C713 H771 0.930 . S
C714 C717 1.348 . S
C714 C718 1.356 . S
C714 O765 1.325 . S
C715 N716 1.279 . S
C715 C718 1.358 . S
C715 H772 0.930 . S
N716 C715 1.279 . S
N716 C719 1.314 . S
C717 C714 1.348 . S
C717 C719 1.353 . S
C717 H773 0.929 . S
C718 C714 1.356 . S
C718 C715 1.358 . S
C718 H774 0.930 . S
C719 N716 1.314 . S
C719 C717 1.353 . S
C719 H775 0.930 . S
C720 N721 1.314 . S
C720 C725 1.353 . S
C720 H726 0.930 . S
N721 Li704 1.990 . S
N721 C720 1.314 . S
N721 C723 1.279 . S
C722 C723 1.358 . S
C722 C724 1.356 . S
C722 H776 0.930 1_556 S
C723 N721 1.279 . S
C723 C722 1.358 . S
C723 H727 0.930 . S
C724 C722 1.356 . S
C724 C725 1.348 . S
C725 C720 1.353 . S
C725 C724 1.348 . S
C725 H777 0.929 . S
H726 C720 0.930 . S
H727 C723 0.930 . S
C728 N729 1.314 . S
C728 C730 1.353 . S
C728 H734 0.930 . S
N729 Li705 1.990 . S
N729 C728 1.314 . S
N729 C732 1.279 . S
C730 C728 1.353 . S
C730 C733 1.348 . S
C730 H778 0.929 . S
C731 C732 1.358 . S
C731 C733 1.356 . S
C731 H779 0.930 1_556 S
C732 N729 1.279 . S
C732 C731 1.358 . S
C732 H735 0.930 . S
C733 C730 1.348 . S
C733 C731 1.356 . S
H734 C728 0.930 . S
H735 C732 0.930 . S
C736 C738 1.348 . S
C736 C739 1.356 . S
C736 O766 1.325 . S
N737 C740 1.314 . S
N737 C741 1.279 . S
C738 C736 1.348 . S
C738 C740 1.353 . S
C738 H780 0.929 . S
C739 C736 1.356 . S
C739 C741 1.358 . S
C739 H781 0.930 . S
C740 N737 1.314 . S
C740 C738 1.353 . S
C740 H782 0.930 . S
C741 N737 1.279 . S
C741 C739 1.358 . S
C741 H783 0.930 . S
C742 C743 1.348 . S
C742 C744 1.356 . S
C742 O767 1.325 . S
C743 C742 1.348 . S
C743 C745 1.353 . S
C743 H784 0.929 . S
C744 C742 1.356 . S
C744 C746 1.358 . S
C744 H785 0.930 . S
C745 C743 1.353 . S
C745 N747 1.314 . S
C745 H786 0.930 . S
C746 C744 1.358 . S
C746 N747 1.279 . S
C746 H787 0.930 . S
N747 C745 1.314 . S
N747 C746 1.279 . S
C748 C750 1.353 . S
C748 N751 1.314 . S
C748 H754 0.930 . S
C749 N751 1.279 . S
C749 C752 1.358 . S
C749 H755 0.930 . S
C750 C748 1.353 . S
C750 C753 1.348 . S
C750 H788 0.929 . S
N751 Li706 1.990 . S
N751 C748 1.314 . S
N751 C749 1.279 . S
C752 C749 1.358 . S
C752 C753 1.356 . S
C752 H789 0.930 . S
C753 C750 1.348 . S
C753 C752 1.356 . S
H754 C748 0.930 . S
H755 C749 0.930 . S
C756 N757 1.314 . S
C756 C758 1.353 . S
C756 H762 0.930 . S
N757 Li707 1.990 . S
N757 C756 1.314 . S
N757 C760 1.279 . S
C758 C756 1.353 . S
C758 C761 1.348 . S
C758 H790 0.929 . S
C759 C760 1.358 . S
C759 C761 1.356 . S
C759 H791 0.930 . S
C760 N757 1.279 . S
C760 C759 1.358 . S
C760 H763 0.930 . S
C761 C758 1.348 . S
C761 C759 1.356 . S
H762 C756 0.930 . S
H763 C760 0.930 . S
O764 Li704 1.956 . S
O764 Li705 1.970 . S
O764 Li706 1.961 . S
O764 C708 1.325 . S
O765 Li704 1.970 . S
O765 Li705 1.956 . S
O765 Li707 1.961 . S
O765 C714 1.325 . S
O766 Li704 1.961 . S
O766 Li706 1.956 . S
O766 Li707 1.970 . S
O766 C736 1.325 . S
O767 Li705 1.961 . S
O767 Li706 1.970 . S
O767 Li707 1.956 . S
O767 C742 1.325 . S
H768 C710 0.929 . S
H769 C711 0.930 . S
H770 C712 0.930 . S
H771 C713 0.930 . S
H772 C715 0.930 . S
H773 C717 0.929 . S
H774 C718 0.930 . S
H775 C719 0.930 . S
H776 C722 0.930 1_554 S
H777 C725 0.929 . S
H778 C730 0.929 . S
H779 C731 0.930 1_554 S
H780 C738 0.929 . S
H781 C739 0.930 . S
H782 C740 0.930 . S
H783 C741 0.930 . S
H784 C743 0.929 . S
H785 C744 0.930 . S
H786 C745 0.930 . S
H787 C746 0.930 . S
H788 C750 0.929 . S
H789 C752 0.930 . S
H790 C758 0.929 . S
H791 C759 0.930 . S
Li792 N809 1.990 . S
Li792 O852 1.956 . S
Li792 O853 1.970 . S
Li792 O854 1.961 . S
Li793 N817 1.990 . S
Li793 O852 1.970 . S
Li793 O853 1.956 . S
Li793 O855 1.961 . S
Li794 N839 1.990 . S
Li794 O852 1.961 . S
Li794 O854 1.956 . S
Li794 O855 1.970 . S
Li795 N845 1.990 . S
Li795 O853 1.961 . S
Li795 O854 1.970 . S
Li795 O855 1.956 . S
C796 C798 1.348 . S
C796 C799 1.356 . S
C796 O852 1.325 . S
N797 C800 1.314 . S
N797 C801 1.279 . S
C798 C796 1.348 . S
C798 C800 1.353 . S
C798 H856 0.929 . S
C799 C796 1.356 . S
C799 C801 1.358 . S
C799 H857 0.930 . S
C800 N797 1.314 . S
C800 C798 1.353 . S
C800 H858 0.930 . S
C801 N797 1.279 . S
C801 C799 1.358 . S
C801 H859 0.930 . S
C802 C805 1.348 . S
C802 C806 1.356 . S
C802 O853 1.325 . S
C803 N804 1.279 . S
C803 C806 1.358 . S
C803 H860 0.930 . S
N804 C803 1.279 . S
N804 C807 1.314 . S
C805 C802 1.348 . S
C805 C807 1.353 . S
C805 H861 0.929 . S
C806 C802 1.356 . S
C806 C803 1.358 . S
C806 H862 0.930 . S
C807 N804 1.314 . S
C807 C805 1.353 . S
C807 H863 0.930 . S
C808 N809 1.314 . S
C808 C813 1.353 . S
C808 H814 0.930 . S
N809 Li792 1.990 . S
N809 C808 1.314 . S
N809 C811 1.279 . S
C810 C811 1.358 . S
C810 C812 1.356 . S
C810 H864 0.930 . S
C811 N809 1.279 . S
C811 C810 1.358 . S
C811 H815 0.930 . S
C812 C810 1.356 . S
C812 C813 1.348 . S
C813 C808 1.353 . S
C813 C812 1.348 . S
C813 H865 0.929 . S
H814 C808 0.930 . S
H815 C811 0.930 . S
C816 N817 1.314 . S
C816 C818 1.353 . S
C816 H822 0.930 . S
N817 Li793 1.990 . S
N817 C816 1.314 . S
N817 C820 1.279 . S
C818 C816 1.353 . S
C818 C821 1.348 . S
C818 H866 0.946 . S
C819 C820 1.358 . S
C819 C821 1.356 . S
C819 H867 0.930 . S
C820 N817 1.279 . S
C820 C819 1.358 . S
C820 H823 0.930 . S
C821 C818 1.348 . S
C821 C819 1.356 . S
H822 C816 0.930 . S
H823 C820 0.930 . S
C824 C826 1.348 . S
C824 C827 1.356 . S
C824 O854 1.325 . S
N825 C828 1.314 . S
N825 C829 1.279 . S
C826 C824 1.348 . S
C826 C828 1.353 . S
C826 H868 0.929 . S
C827 C824 1.356 . S
C827 C829 1.358 . S
C827 H869 0.930 . S
C828 N825 1.314 . S
C828 C826 1.353 . S
C828 H870 0.930 . S
C829 N825 1.279 . S
C829 C827 1.358 . S
C829 H871 0.930 . S
C830 C831 1.348 . S
C830 C832 1.356 . S
C830 O855 1.325 . S
C831 C830 1.348 . S
C831 C833 1.353 . S
C831 H872 0.929 . S
C832 C830 1.356 . S
C832 C834 1.358 . S
C832 H873 0.930 . S
C833 C831 1.353 . S
C833 N835 1.314 . S
C833 H874 0.930 . S
C834 C832 1.358 . S
C834 N835 1.279 . S
C834 H875 0.930 . S
N835 C833 1.314 . S
N835 C834 1.279 . S
C836 C838 1.353 . S
C836 N839 1.314 . S
C836 H842 0.930 . S
C837 N839 1.279 . S
C837 C840 1.358 . S
C837 H843 0.930 . S
C838 C836 1.353 . S
C838 C841 1.348 . S
C838 H876 0.929 . S
N839 Li794 1.990 . S
N839 C836 1.314 . S
N839 C837 1.279 . S
C840 C837 1.358 . S
C840 C841 1.356 . S
C840 H877 0.930 . S
C841 C838 1.348 . S
C841 C840 1.356 . S
H842 C836 0.930 . S
H843 C837 0.930 . S
C844 N845 1.314 . S
C844 C846 1.353 . S
C844 H850 0.930 . S
N845 Li795 1.990 . S
N845 C844 1.314 . S
N845 C848 1.279 . S
C846 C844 1.353 . S
C846 C849 1.348 . S
C846 H878 0.929 . S
C847 C848 1.358 . S
C847 C849 1.356 . S
C847 H879 0.930 . S
C848 N845 1.279 . S
C848 C847 1.358 . S
C848 H851 0.930 . S
C849 C846 1.348 . S
C849 C847 1.356 . S
H850 C844 0.930 . S
H851 C848 0.930 . S
O852 Li792 1.956 . S
O852 Li793 1.970 . S
O852 Li794 1.961 . S
O852 C796 1.325 . S
O853 Li792 1.970 . S
O853 Li793 1.956 . S
O853 Li795 1.961 . S
O853 C802 1.325 . S
O854 Li792 1.961 . S
O854 Li794 1.956 . S
O854 Li795 1.970 . S
O854 C824 1.325 . S
O855 Li793 1.961 . S
O855 Li794 1.970 . S
O855 Li795 1.956 . S
O855 C830 1.325 . S
H856 C798 0.929 . S
H857 C799 0.930 . S
H858 C800 0.930 . S
H859 C801 0.930 . S
H860 C803 0.930 . S
H861 C805 0.929 . S
H862 C806 0.930 . S
H863 C807 0.930 . S
H864 C810 0.930 . S
H865 C813 0.929 . S
H866 C818 0.946 . S
H867 C819 0.930 . S
H868 C826 0.929 . S
H869 C827 0.930 . S
H870 C828 0.930 . S
H871 C829 0.930 . S
H872 C831 0.929 . S
H873 C832 0.930 . S
H874 C833 0.930 . S
H875 C834 0.930 . S
H876 C838 0.929 . S
H877 C840 0.930 . S
H878 C846 0.929 . S
H879 C847 0.930 . S
Li880 N897 1.990 . S
Li880 O940 1.956 . S
Li880 O941 1.970 . S
Li880 O942 1.961 . S
Li881 N905 1.990 . S
Li881 O940 1.970 . S
Li881 O941 1.956 . S
Li881 O943 1.961 . S
Li882 N927 1.990 . S
Li882 O940 1.961 . S
Li882 O942 1.956 . S
Li882 O943 1.970 . S
Li883 N933 1.990 . S
Li883 O941 1.961 . S
Li883 O942 1.970 . S
Li883 O943 1.956 . S
C884 C886 1.348 . S
C884 C887 1.356 . S
C884 O940 1.325 . S
N885 C888 1.314 . S
N885 C889 1.279 . S
C886 C884 1.348 . S
C886 C888 1.353 . S
C886 H944 0.929 . S
C887 C884 1.356 . S
C887 C889 1.358 . S
C887 H945 0.930 . S
C888 N885 1.314 . S
C888 C886 1.353 . S
C888 H946 0.930 . S
C889 N885 1.279 . S
C889 C887 1.358 . S
C889 H947 0.930 . S
C890 C893 1.348 . S
C890 C894 1.356 . S
C890 O941 1.325 . S
C891 N892 1.279 . S
C891 C894 1.358 . S
C891 H948 0.930 . S
N892 C891 1.279 . S
N892 C895 1.314 . S
C893 C890 1.348 . S
C893 C895 1.353 . S
C893 H949 0.929 . S
C894 C890 1.356 . S
C894 C891 1.358 . S
C894 H950 0.930 . S
C895 N892 1.314 . S
C895 C893 1.353 . S
C895 H951 0.930 . S
C896 N897 1.314 . S
C896 C901 1.353 . S
C896 H902 0.930 . S
N897 Li880 1.990 . S
N897 C896 1.314 . S
N897 C899 1.279 . S
C898 C899 1.358 . S
C898 C900 1.356 . S
C898 H952 0.930 . S
C899 N897 1.279 . S
C899 C898 1.358 . S
C899 H903 0.930 . S
C900 C898 1.356 . S
C900 C901 1.348 . S
C901 C896 1.353 . S
C901 C900 1.348 . S
C901 H953 0.929 . S
H902 C896 0.930 . S
H903 C899 0.930 . S
C904 N905 1.314 . S
C904 C906 1.353 1_655 S
C904 H910 0.930 . S
N905 Li881 1.990 . S
N905 C904 1.314 . S
N905 C908 1.279 . S
C906 C904 1.353 1_455 S
C906 C909 1.348 1_455 S
C906 H954 0.929 . S
C907 C908 1.358 . S
C907 C909 1.356 . S
C907 H955 0.930 . S
C908 N905 1.279 . S
C908 C907 1.358 . S
C908 H911 0.930 . S
C909 C906 1.348 1_655 S
C909 C907 1.356 . S
H910 C904 0.930 . S
H911 C908 0.930 . S
C912 C914 1.348 . S
C912 C915 1.356 . S
C912 O942 1.325 . S
N913 C916 1.314 . S
N913 C917 1.279 . S
C914 C912 1.348 . S
C914 C916 1.353 . S
C914 H956 0.929 . S
C915 C912 1.356 . S
C915 C917 1.358 . S
C915 H957 0.930 . S
C916 N913 1.314 . S
C916 C914 1.353 . S
C916 H958 0.930 . S
C917 N913 1.279 . S
C917 C915 1.358 . S
C917 H959 0.930 . S
C918 C919 1.348 . S
C918 C920 1.356 . S
C918 O943 1.325 . S
C919 C918 1.348 . S
C919 C921 1.353 1_655 S
C919 H960 0.929 . S
C920 C918 1.356 . S
C920 C922 1.331 1_655 S
C920 H961 0.930 . S
C921 C919 1.353 1_455 S
C921 N923 1.314 . S
C921 H962 0.930 . S
C922 C920 1.331 1_455 S
C922 N923 1.299 . S
C922 H963 0.940 . S
N923 C921 1.314 . S
N923 C922 1.299 . S
C924 C926 1.353 . S
C924 N927 1.314 . S
C924 H930 0.930 . S
C925 N927 1.279 . S
C925 C928 1.358 . S
C925 H931 0.930 . S
C926 C924 1.353 . S
C926 C929 1.348 . S
C926 H964 0.929 1_655 S
N927 Li882 1.990 . S
N927 C924 1.314 . S
N927 C925 1.279 . S
C928 C925 1.358 . S
C928 C929 1.356 . S
C928 H965 0.930 . S
C929 C926 1.348 . S
C929 C928 1.356 . S
H930 C924 0.930 . S
H931 C925 0.930 . S
C932 N933 1.314 . S
C932 C934 1.353 . S
C932 H938 0.930 . S
N933 Li883 1.990 . S
N933 C932 1.314 . S
N933 C936 1.279 . S
C934 C932 1.353 . S
C934 C937 1.348 . S
C934 H966 0.929 . S
C935 C936 1.358 . S
C935 C937 1.356 . S
C935 H967 0.930 . S
C936 N933 1.279 . S
C936 C935 1.358 . S
C936 H939 0.930 . S
C937 C934 1.348 . S
C937 C935 1.356 . S
H938 C932 0.930 . S
H939 C936 0.930 . S
O940 Li880 1.956 . S
O940 Li881 1.970 . S
O940 Li882 1.961 . S
O940 C884 1.325 . S
O941 Li880 1.970 . S
O941 Li881 1.956 . S
O941 Li883 1.961 . S
O941 C890 1.325 . S
O942 Li880 1.961 . S
O942 Li882 1.956 . S
O942 Li883 1.970 . S
O942 C912 1.325 . S
O943 Li881 1.961 . S
O943 Li882 1.970 . S
O943 Li883 1.956 . S
O943 C918 1.325 . S
H944 C886 0.929 . S
H945 C887 0.930 . S
H946 C888 0.930 . S
H947 C889 0.930 . S
H948 C891 0.930 . S
H949 C893 0.929 . S
H950 C894 0.930 . S
H951 C895 0.930 . S
H952 C898 0.930 . S
H953 C901 0.929 . S
H954 C906 0.929 . S
H955 C907 0.930 . S
H956 C914 0.929 . S
H957 C915 0.930 . S
H958 C916 0.930 . S
H959 C917 0.930 . S
H960 C919 0.929 . S
H961 C920 0.930 . S
H962 C921 0.930 . S
H963 C922 0.940 . S
H964 C926 0.929 1_455 S
H965 C928 0.930 . S
H966 C934 0.929 . S
H967 C935 0.930 . S
Li968 N985 1.990 . S
Li968 O1028 1.956 . S
Li968 O1029 1.970 . S
Li968 O1030 1.961 . S
Li969 N993 1.990 . S
Li969 O1028 1.970 . S
Li969 O1029 1.956 . S
Li969 O1031 1.961 . S
Li970 N1015 1.990 . S
Li970 O1028 1.961 . S
Li970 O1030 1.956 . S
Li970 O1031 1.970 . S
Li971 N1021 1.990 . S
Li971 O1029 1.961 . S
Li971 O1030 1.970 . S
Li971 O1031 1.956 . S
C972 C974 1.348 . S
C972 C975 1.356 . S
C972 O1028 1.325 . S
N973 C976 1.314 . S
N973 C977 1.279 . S
C974 C972 1.348 . S
C974 C976 1.353 . S
C974 H1032 0.929 . S
C975 C972 1.356 . S
C975 C977 1.358 . S
C975 H1033 0.930 . S
C976 N973 1.314 . S
C976 C974 1.353 . S
C976 H1034 0.930 . S
C977 N973 1.279 . S
C977 C975 1.358 . S
C977 H1035 0.930 . S
C978 C981 1.348 . S
C978 C982 1.356 . S
C978 O1029 1.325 . S
C979 N980 1.279 . S
C979 C982 1.358 . S
C979 H1036 0.930 . S
N980 C979 1.279 . S
N980 C983 1.314 . S
C981 C978 1.348 . S
C981 C983 1.353 . S
C981 H1037 0.929 . S
C982 C978 1.356 . S
C982 C979 1.358 . S
C982 H1038 0.930 . S
C983 N980 1.314 . S
C983 C981 1.353 . S
C983 H1039 0.930 . S
C984 N985 1.314 . S
C984 C989 1.353 . S
C984 H990 0.930 . S
N985 Li968 1.990 . S
N985 C984 1.314 . S
N985 C987 1.279 . S
C986 C987 1.358 . S
C986 C988 1.356 . S
C986 H1040 0.930 . S
C987 N985 1.279 . S
C987 C986 1.358 . S
C987 H991 0.930 . S
C988 C986 1.356 . S
C988 C989 1.348 . S
C989 C984 1.353 . S
C989 C988 1.348 . S
C989 H1041 0.929 . S
H990 C984 0.930 . S
H991 C987 0.930 . S
C992 N993 1.314 . S
C992 C994 1.353 . S
C992 H998 0.930 . S
N993 Li969 1.990 . S
N993 C992 1.314 . S
N993 C996 1.279 . S
C994 C992 1.353 . S
C994 C997 1.348 . S
C994 H1042 0.929 . S
C995 C996 1.358 . S
C995 C997 1.356 . S
C995 H1043 0.930 . S
C996 N993 1.279 . S
C996 C995 1.358 . S
C996 H999 0.930 . S
C997 C994 1.348 . S
C997 C995 1.356 . S
H998 C992 0.930 . S
H999 C996 0.930 . S
C1000 C1002 1.348 . S
C1000 C1003 1.356 . S
C1000 O1030 1.325 . S
N1001 C1004 1.314 . S
N1001 C1005 1.279 . S
C1002 C1000 1.348 . S
C1002 C1004 1.353 . S
C1002 H1044 0.929 . S
C1003 C1000 1.356 . S
C1003 C1005 1.358 . S
C1003 H1045 0.930 . S
C1004 N1001 1.314 . S
C1004 C1002 1.353 . S
C1004 H1046 0.930 . S
C1005 N1001 1.279 . S
C1005 C1003 1.358 . S
C1005 H1047 0.930 . S
C1006 C1007 1.348 . S
C1006 C1008 1.356 . S
C1006 O1031 1.325 . S
C1007 C1006 1.348 . S
C1007 C1009 1.353 . S
C1007 H1048 0.929 . S
C1008 C1006 1.356 . S
C1008 C1010 1.358 . S
C1008 H1049 0.930 . S
C1009 C1007 1.353 . S
C1009 N1011 1.314 . S
C1009 H1050 0.930 . S
C1010 C1008 1.358 . S
C1010 N1011 1.279 . S
C1010 H1051 0.930 . S
N1011 C1009 1.314 . S
N1011 C1010 1.279 . S
C1012 C1014 1.353 . S
C1012 N1015 1.314 . S
C1012 H1018 0.930 . S
C1013 N1015 1.279 . S
C1013 C1016 1.358 . S
C1013 H1019 0.930 . S
C1014 C1012 1.353 . S
C1014 C1017 1.348 . S
C1014 H1052 0.946 . S
N1015 Li970 1.990 . S
N1015 C1012 1.314 . S
N1015 C1013 1.279 . S
C1016 C1013 1.358 . S
C1016 C1017 1.356 . S
C1016 H1053 0.930 . S
C1017 C1014 1.348 . S
C1017 C1016 1.356 . S
H1018 C1012 0.930 . S
H1019 C1013 0.930 . S
C1020 N1021 1.314 . S
C1020 C1022 1.353 . S
C1020 H1026 0.930 . S
N1021 Li971 1.990 . S
N1021 C1020 1.314 . S
N1021 C1024 1.279 . S
C1022 C1020 1.353 . S
C1022 C1025 1.348 . S
C1022 H1054 0.929 . S
C1023 C1024 1.358 . S
C1023 C1025 1.356 . S
C1023 H1055 0.930 . S
C1024 N1021 1.279 . S
C1024 C1023 1.358 . S
C1024 H1027 0.930 . S
C1025 C1022 1.348 . S
C1025 C1023 1.356 . S
H1026 C1020 0.930 . S
H1027 C1024 0.930 . S
O1028 Li968 1.956 . S
O1028 Li969 1.970 . S
O1028 Li970 1.961 . S
O1028 C972 1.325 . S
O1029 Li968 1.970 . S
O1029 Li969 1.956 . S
O1029 Li971 1.961 . S
O1029 C978 1.325 . S
O1030 Li968 1.961 . S
O1030 Li970 1.956 . S
O1030 Li971 1.970 . S
O1030 C1000 1.325 . S
O1031 Li969 1.961 . S
O1031 Li970 1.970 . S
O1031 Li971 1.956 . S
O1031 C1006 1.325 . S
H1032 C974 0.929 . S
H1033 C975 0.930 . S
H1034 C976 0.930 . S
H1035 C977 0.930 . S
H1036 C979 0.930 . S
H1037 C981 0.929 . S
H1038 C982 0.930 . S
H1039 C983 0.930 . S
H1040 C986 0.930 . S
H1041 C989 0.929 . S
H1042 C994 0.929 . S
H1043 C995 0.930 . S
H1044 C1002 0.929 . S
H1045 C1003 0.930 . S
H1046 C1004 0.930 . S
H1047 C1005 0.930 . S
H1048 C1007 0.929 . S
H1049 C1008 0.930 . S
H1050 C1009 0.930 . S
H1051 C1010 0.930 . S
H1052 C1014 0.946 . S
H1053 C1016 0.930 . S
H1054 C1022 0.929 . S
H1055 C1023 0.930 . S
Li1056 N1073 1.990 . S
Li1056 O1116 1.956 . S
Li1056 O1117 1.970 . S
Li1056 O1118 1.961 . S
Li1057 N1081 1.990 . S
Li1057 O1116 1.970 . S
Li1057 O1117 1.956 . S
Li1057 O1119 1.961 . S
Li1058 N1103 1.990 . S
Li1058 O1116 1.961 . S
Li1058 O1118 1.956 . S
Li1058 O1119 1.970 . S
Li1059 N1109 1.990 . S
Li1059 O1117 1.961 . S
Li1059 O1118 1.970 . S
Li1059 O1119 1.956 . S
C1060 C1062 1.348 . S
C1060 C1063 1.356 . S
C1060 O1116 1.325 . S
N1061 C1064 1.314 . S
N1061 C1065 1.279 . S
C1062 C1060 1.348 . S
C1062 C1064 1.353 . S
C1062 H1120 0.929 . S
C1063 C1060 1.356 . S
C1063 C1065 1.358 . S
C1063 H1121 0.930 . S
C1064 N1061 1.314 . S
C1064 C1062 1.353 . S
C1064 H1122 0.930 . S
C1065 N1061 1.279 . S
C1065 C1063 1.358 . S
C1065 H1123 0.930 . S
C1066 C1069 1.348 . S
C1066 C1070 1.356 . S
C1066 O1117 1.325 . S
C1067 N1068 1.279 . S
C1067 C1070 1.358 . S
C1067 H1124 0.930 . S
N1068 C1067 1.279 . S
N1068 C1071 1.314 . S
C1069 C1066 1.348 . S
C1069 C1071 1.353 . S
C1069 H1125 0.929 . S
C1070 C1066 1.356 . S
C1070 C1067 1.358 . S
C1070 H1126 0.930 . S
C1071 N1068 1.314 . S
C1071 C1069 1.353 . S
C1071 H1127 0.930 . S
C1072 N1073 1.314 . S
C1072 C1077 1.353 . S
C1072 H1078 0.930 . S
N1073 Li1056 1.990 . S
N1073 C1072 1.314 . S
N1073 C1075 1.279 . S
C1074 C1075 1.358 . S
C1074 C1076 1.356 . S
C1074 H1128 0.930 . S
C1075 N1073 1.279 . S
C1075 C1074 1.358 . S
C1075 H1079 0.930 . S
C1076 C1074 1.356 . S
C1076 C1077 1.348 . S
C1077 C1072 1.353 . S
C1077 C1076 1.348 . S
C1077 H1129 0.929 . S
H1078 C1072 0.930 . S
H1079 C1075 0.930 . S
C1080 N1081 1.314 . S
C1080 C1082 1.353 . S
C1080 H1086 0.930 . S
N1081 Li1057 1.990 . S
N1081 C1080 1.314 . S
N1081 C1084 1.279 . S
C1082 C1080 1.353 . S
C1082 C1085 1.348 . S
C1082 H1130 0.929 . S
C1083 C1084 1.358 . S
C1083 C1085 1.356 . S
C1083 H1131 0.930 . S
C1084 N1081 1.279 . S
C1084 C1083 1.358 . S
C1084 H1087 0.930 . S
C1085 C1082 1.348 . S
C1085 C1083 1.356 . S
H1086 C1080 0.930 . S
H1087 C1084 0.930 . S
C1088 C1090 1.348 . S
C1088 C1091 1.356 . S
C1088 O1118 1.325 . S
N1089 C1092 1.314 . S
N1089 C1093 1.279 . S
C1090 C1088 1.348 . S
C1090 C1092 1.353 . S
C1090 H1132 0.929 . S
C1091 C1088 1.356 . S
C1091 C1093 1.358 . S
C1091 H1133 0.930 . S
C1092 N1089 1.314 . S
C1092 C1090 1.353 . S
C1092 H1134 0.930 . S
C1093 N1089 1.279 . S
C1093 C1091 1.358 . S
C1093 H1135 0.930 . S
C1094 C1095 1.348 . S
C1094 C1096 1.356 . S
C1094 O1119 1.325 . S
C1095 C1094 1.348 . S
C1095 C1097 1.353 . S
C1095 H1136 0.929 . S
C1096 C1094 1.356 . S
C1096 C1098 1.358 . S
C1096 H1137 0.930 . S
C1097 C1095 1.353 . S
C1097 N1099 1.314 . S
C1097 H1138 0.930 . S
C1098 C1096 1.358 . S
C1098 N1099 1.279 . S
C1098 H1139 0.930 . S
N1099 C1097 1.314 . S
N1099 C1098 1.279 . S
C1100 C1102 1.353 . S
C1100 N1103 1.314 . S
C1100 H1106 0.930 . S
C1101 N1103 1.279 . S
C1101 C1104 1.358 . S
C1101 H1107 0.930 . S
C1102 C1100 1.353 . S
C1102 C1105 1.348 . S
C1102 H1140 0.929 . S
N1103 Li1058 1.990 . S
N1103 C1100 1.314 . S
N1103 C1101 1.279 . S
C1104 C1101 1.358 . S
C1104 C1105 1.356 . S
C1104 H1141 0.930 . S
C1105 C1102 1.348 . S
C1105 C1104 1.356 . S
H1106 C1100 0.930 . S
H1107 C1101 0.930 . S
C1108 N1109 1.314 . S
C1108 C1110 1.353 . S
C1108 H1114 0.930 . S
N1109 Li1059 1.990 . S
N1109 C1108 1.314 . S
N1109 C1112 1.279 . S
C1110 C1108 1.353 . S
C1110 C1113 1.348 . S
C1110 H1142 0.929 . S
C1111 C1112 1.358 . S
C1111 C1113 1.356 . S
C1111 H1143 0.930 . S
C1112 N1109 1.279 . S
C1112 C1111 1.358 . S
C1112 H1115 0.930 . S
C1113 C1110 1.348 . S
C1113 C1111 1.356 . S
H1114 C1108 0.930 . S
H1115 C1112 0.930 . S
O1116 Li1056 1.956 . S
O1116 Li1057 1.970 . S
O1116 Li1058 1.961 . S
O1116 C1060 1.325 . S
O1117 Li1056 1.970 . S
O1117 Li1057 1.956 . S
O1117 Li1059 1.961 . S
O1117 C1066 1.325 . S
O1118 Li1056 1.961 . S
O1118 Li1058 1.956 . S
O1118 Li1059 1.970 . S
O1118 C1088 1.325 . S
O1119 Li1057 1.961 . S
O1119 Li1058 1.970 . S
O1119 Li1059 1.956 . S
O1119 C1094 1.325 . S
H1120 C1062 0.929 . S
H1121 C1063 0.930 . S
H1122 C1064 0.930 . S
H1123 C1065 0.930 . S
H1124 C1067 0.930 . S
H1125 C1069 0.929 . S
H1126 C1070 0.930 . S
H1127 C1071 0.930 . S
H1128 C1074 0.930 . S
H1129 C1077 0.929 . S
H1130 C1082 0.929 . S
H1131 C1083 0.930 . S
H1132 C1090 0.929 . S
H1133 C1091 0.930 . S
H1134 C1092 0.930 . S
H1135 C1093 0.930 . S
H1136 C1095 0.929 . S
H1137 C1096 0.930 . S
H1138 C1097 0.930 . S
H1139 C1098 0.930 . S
H1140 C1102 0.929 . S
H1141 C1104 0.930 . S
H1142 C1110 0.929 . S
H1143 C1111 0.930 . S
Li1144 N1161 1.990 . S
Li1144 O1204 1.956 . S
Li1144 O1205 1.970 . S
Li1144 O1206 1.961 . S
Li1145 N1169 1.990 . S
Li1145 O1204 1.970 . S
Li1145 O1205 1.956 . S
Li1145 O1207 1.961 . S
Li1146 N1191 1.990 . S
Li1146 O1204 1.961 . S
Li1146 O1206 1.956 . S
Li1146 O1207 1.970 . S
Li1147 N1197 1.990 . S
Li1147 O1205 1.961 . S
Li1147 O1206 1.970 . S
Li1147 O1207 1.956 . S
C1148 C1150 1.348 . S
C1148 C1151 1.356 . S
C1148 O1204 1.325 . S
N1149 C1152 1.314 1_554 S
N1149 C1153 1.279 . S
C1150 C1148 1.348 . S
C1150 C1152 1.353 . S
C1150 H1208 0.929 . S
C1151 C1148 1.356 . S
C1151 C1153 1.358 1_556 S
C1151 H1209 0.930 . S
C1152 N1149 1.314 1_556 S
C1152 C1150 1.353 . S
C1152 H1210 0.930 . S
C1153 N1149 1.279 . S
C1153 C1151 1.358 1_554 S
C1153 H1211 0.930 . S
C1154 C1157 1.348 . S
C1154 C1158 1.356 . S
C1154 O1205 1.325 . S
C1155 N1156 1.279 . S
C1155 C1158 1.358 . S
C1155 H1212 0.930 . S
N1156 C1155 1.279 . S
N1156 C1159 1.314 . S
C1157 C1154 1.348 . S
C1157 C1159 1.353 . S
C1157 H1213 0.929 . S
C1158 C1154 1.356 . S
C1158 C1155 1.358 . S
C1158 H1214 0.930 . S
C1159 N1156 1.314 . S
C1159 C1157 1.353 . S
C1159 H1215 0.930 . S
C1160 N1161 1.314 . S
C1160 C1165 1.353 . S
C1160 H1166 0.930 . S
N1161 Li1144 1.990 . S
N1161 C1160 1.314 . S
N1161 C1163 1.279 . S
C1162 C1163 1.358 . S
C1162 C1164 1.356 . S
C1162 H1216 0.930 1_556 S
C1163 N1161 1.279 . S
C1163 C1162 1.358 . S
C1163 H1167 0.930 . S
C1164 C1162 1.356 . S
C1164 C1165 1.348 . S
C1165 C1160 1.353 . S
C1165 C1164 1.348 . S
C1165 H1217 0.929 . S
H1166 C1160 0.930 . S
H1167 C1163 0.930 . S
C1168 N1169 1.314 . S
C1168 C1170 1.353 . S
C1168 H1174 0.930 . S
N1169 Li1145 1.990 . S
N1169 C1168 1.314 . S
N1169 C1172 1.279 . S
C1170 C1168 1.353 . S
C1170 C1173 1.348 . S
C1170 H1218 0.929 1_655 S
C1171 C1172 1.358 . S
C1171 C1173 1.356 . S
C1171 H1219 0.930 . S
C1172 N1169 1.279 . S
C1172 C1171 1.358 . S
C1172 H1175 0.930 . S
C1173 C1170 1.348 . S
C1173 C1171 1.356 . S
H1174 C1168 0.930 . S
H1175 C1172 0.930 . S
C1176 C1178 1.348 . S
C1176 C1179 1.356 . S
C1176 O1206 1.325 . S
N1177 C1180 1.314 . S
N1177 C1181 1.279 1_545 S
C1178 C1176 1.348 . S
C1178 C1180 1.353 1_565 S
C1178 H1220 0.929 . S
C1179 C1176 1.356 . S
C1179 C1181 1.358 . S
C1179 H1221 0.930 . S
C1180 N1177 1.314 . S
C1180 C1178 1.353 1_545 S
C1180 H1222 0.930 . S
C1181 N1177 1.279 1_565 S
C1181 C1179 1.358 . S
C1181 H1223 0.930 . S
C1182 C1183 1.348 . S
C1182 C1184 1.356 . S
C1182 O1207 1.325 . S
C1183 C1182 1.348 . S
C1183 C1185 1.353 1_655 S
C1183 H1224 0.929 . S
C1184 C1182 1.356 . S
C1184 C1186 1.383 . S
C1184 H1225 0.930 . S
C1185 C1183 1.353 1_455 S
C1185 N1187 1.314 . S
C1185 H1226 0.930 . S
C1186 C1184 1.383 . S
C1186 N1187 1.261 1_655 S
C1186 H1227 0.924 1_655 S
N1187 C1185 1.314 . S
N1187 C1186 1.261 1_455 S
C1188 C1190 1.351 1_655 S
C1188 N1191 1.314 . S
C1188 H1194 0.930 . S
C1189 N1191 1.279 . S
C1189 C1192 1.358 1_565 S
C1189 H1195 0.930 . S
C1190 C1188 1.351 1_455 S
C1190 C1193 1.347 1_455 S
C1190 H1228 0.931 . S
N1191 Li1146 1.990 . S
N1191 C1188 1.314 . S
N1191 C1189 1.279 . S
C1192 C1189 1.358 1_545 S
C1192 C1193 1.356 1_545 S
C1192 H1229 0.930 . S
C1193 C1190 1.347 1_655 S
C1193 C1192 1.356 1_565 S
H1194 C1188 0.930 . S
H1195 C1189 0.930 . S
C1196 N1197 1.314 . S
C1196 C1198 1.353 . S
C1196 H1202 0.930 . S
N1197 Li1147 1.990 . S
N1197 C1196 1.314 . S
N1197 C1200 1.279 . S
C1198 C1196 1.353 . S
C1198 C1201 1.348 . S
C1198 H1230 0.929 . S
C1199 C1200 1.358 . S
C1199 C1201 1.356 . S
C1199 H1231 0.930 . S
C1200 N1197 1.279 . S
C1200 C1199 1.358 . S
C1200 H1203 0.930 . S
C1201 C1198 1.348 . S
C1201 C1199 1.356 . S
H1202 C1196 0.930 . S
H1203 C1200 0.930 . S
O1204 Li1144 1.956 . S
O1204 Li1145 1.970 . S
O1204 Li1146 1.961 . S
O1204 C1148 1.325 . S
O1205 Li1144 1.970 . S
O1205 Li1145 1.956 . S
O1205 Li1147 1.961 . S
O1205 C1154 1.325 . S
O1206 Li1144 1.961 . S
O1206 Li1146 1.956 . S
O1206 Li1147 1.970 . S
O1206 C1176 1.325 . S
O1207 Li1145 1.961 . S
O1207 Li1146 1.970 . S
O1207 Li1147 1.956 . S
O1207 C1182 1.325 . S
H1208 C1150 0.929 . S
H1209 C1151 0.930 . S
H1210 C1152 0.930 . S
H1211 C1153 0.930 . S
H1212 C1155 0.930 . S
H1213 C1157 0.929 . S
H1214 C1158 0.930 . S
H1215 C1159 0.930 . S
H1216 C1162 0.930 1_554 S
H1217 C1165 0.929 . S
H1218 C1170 0.929 1_455 S
H1219 C1171 0.930 . S
H1220 C1178 0.929 . S
H1221 C1179 0.930 . S
H1222 C1180 0.930 . S
H1223 C1181 0.930 . S
H1224 C1183 0.929 . S
H1225 C1184 0.930 . S
H1226 C1185 0.930 . S
H1227 C1186 0.924 1_455 S
H1228 C1190 0.931 . S
H1229 C1192 0.930 . S
H1230 C1198 0.929 . S
H1231 C1199 0.930 . S
Li1232 N1249 1.990 . S
Li1232 O1292 1.956 . S
Li1232 O1293 1.970 . S
Li1232 O1294 1.961 . S
Li1233 N1257 1.990 . S
Li1233 O1292 1.970 . S
Li1233 O1293 1.956 . S
Li1233 O1295 1.961 . S
Li1234 N1279 1.990 . S
Li1234 O1292 1.961 . S
Li1234 O1294 1.956 . S
Li1234 O1295 1.970 . S
Li1235 N1285 1.990 . S
Li1235 O1293 1.961 . S
Li1235 O1294 1.970 . S
Li1235 O1295 1.956 . S
C1236 C1238 1.348 . S
C1236 C1239 1.356 . S
C1236 O1292 1.325 . S
N1237 C1240 1.314 . S
N1237 C1241 1.279 . S
C1238 C1236 1.348 . S
C1238 C1240 1.353 . S
C1238 H1296 0.929 . S
C1239 C1236 1.356 . S
C1239 C1241 1.358 . S
C1239 H1297 0.930 . S
C1240 N1237 1.314 . S
C1240 C1238 1.353 . S
C1240 H1298 0.930 . S
C1241 N1237 1.279 . S
C1241 C1239 1.358 . S
C1241 H1299 0.930 . S
C1242 C1245 1.348 . S
C1242 C1246 1.356 . S
C1242 O1293 1.325 . S
C1243 N1244 1.279 . S
C1243 C1246 1.358 . S
C1243 H1300 0.930 . S
N1244 C1243 1.279 . S
N1244 C1247 1.314 . S
C1245 C1242 1.348 . S
C1245 C1247 1.353 . S
C1245 H1301 0.929 . S
C1246 C1242 1.356 . S
C1246 C1243 1.358 . S
C1246 H1302 0.930 . S
C1247 N1244 1.314 . S
C1247 C1245 1.353 . S
C1247 H1303 0.930 . S
C1248 N1249 1.314 . S
C1248 C1253 1.353 . S
C1248 H1254 0.930 . S
N1249 Li1232 1.990 . S
N1249 C1248 1.314 . S
N1249 C1251 1.279 . S
C1250 C1251 1.358 . S
C1250 C1252 1.356 . S
C1250 H1304 0.930 . S
C1251 N1249 1.279 . S
C1251 C1250 1.358 . S
C1251 H1255 0.930 . S
C1252 C1250 1.356 . S
C1252 C1253 1.348 . S
C1253 C1248 1.353 . S
C1253 C1252 1.348 . S
C1253 H1305 0.929 . S
H1254 C1248 0.930 . S
H1255 C1251 0.930 . S
C1256 N1257 1.314 . S
C1256 C1258 1.353 . S
C1256 H1262 0.930 . S
N1257 Li1233 1.990 . S
N1257 C1256 1.314 . S
N1257 C1260 1.279 . S
C1258 C1256 1.353 . S
C1258 C1261 1.348 . S
C1258 H1306 0.929 . S
C1259 C1260 1.358 . S
C1259 C1261 1.356 . S
C1259 H1307 0.930 . S
C1260 N1257 1.279 . S
C1260 C1259 1.358 . S
C1260 H1263 0.930 . S
C1261 C1258 1.348 . S
C1261 C1259 1.356 . S
H1262 C1256 0.930 . S
H1263 C1260 0.930 . S
C1264 C1266 1.348 . S
C1264 C1267 1.356 . S
C1264 O1294 1.325 . S
N1265 C1268 1.314 . S
N1265 C1269 1.279 . S
C1266 C1264 1.348 . S
C1266 C1268 1.353 . S
C1266 H1308 0.929 . S
C1267 C1264 1.356 . S
C1267 C1269 1.358 . S
C1267 H1309 0.930 . S
C1268 N1265 1.314 . S
C1268 C1266 1.353 . S
C1268 H1310 0.930 . S
C1269 N1265 1.279 . S
C1269 C1267 1.358 . S
C1269 H1311 0.930 . S
C1270 C1271 1.348 . S
C1270 C1272 1.356 . S
C1270 O1295 1.325 . S
C1271 C1270 1.348 . S
C1271 C1273 1.353 . S
C1271 H1312 0.929 . S
C1272 C1270 1.356 . S
C1272 C1274 1.358 . S
C1272 H1313 0.930 . S
C1273 C1271 1.353 . S
C1273 N1275 1.314 . S
C1273 H1314 0.930 . S
C1274 C1272 1.358 . S
C1274 N1275 1.279 . S
C1274 H1315 0.930 . S
N1275 C1273 1.314 . S
N1275 C1274 1.279 . S
C1276 C1278 1.353 . S
C1276 N1279 1.314 . S
C1276 H1282 0.930 . S
C1277 N1279 1.279 . S
C1277 C1280 1.358 . S
C1277 H1283 0.930 . S
C1278 C1276 1.353 . S
C1278 C1281 1.348 . S
C1278 H1316 0.929 . S
N1279 Li1234 1.990 . S
N1279 C1276 1.314 . S
N1279 C1277 1.279 . S
C1280 C1277 1.358 . S
C1280 C1281 1.356 . S
C1280 H1317 0.930 . S
C1281 C1278 1.348 . S
C1281 C1280 1.356 . S
H1282 C1276 0.930 . S
H1283 C1277 0.930 . S
C1284 N1285 1.314 . S
C1284 C1286 1.353 . S
C1284 H1290 0.930 . S
N1285 Li1235 1.990 . S
N1285 C1284 1.314 . S
N1285 C1288 1.279 . S
C1286 C1284 1.353 . S
C1286 C1289 1.348 . S
C1286 H1318 0.929 . S
C1287 C1288 1.358 . S
C1287 C1289 1.356 . S
C1287 H1319 0.930 . S
C1288 N1285 1.279 . S
C1288 C1287 1.358 . S
C1288 H1291 0.930 . S
C1289 C1286 1.348 . S
C1289 C1287 1.356 . S
H1290 C1284 0.930 . S
H1291 C1288 0.930 . S
O1292 Li1232 1.956 . S
O1292 Li1233 1.970 . S
O1292 Li1234 1.961 . S
O1292 C1236 1.325 . S
O1293 Li1232 1.970 . S
O1293 Li1233 1.956 . S
O1293 Li1235 1.961 . S
O1293 C1242 1.325 . S
O1294 Li1232 1.961 . S
O1294 Li1234 1.956 . S
O1294 Li1235 1.970 . S
O1294 C1264 1.325 . S
O1295 Li1233 1.961 . S
O1295 Li1234 1.970 . S
O1295 Li1235 1.956 . S
O1295 C1270 1.325 . S
H1296 C1238 0.929 . S
H1297 C1239 0.930 . S
H1298 C1240 0.930 . S
H1299 C1241 0.930 . S
H1300 C1243 0.930 . S
H1301 C1245 0.929 . S
H1302 C1246 0.930 . S
H1303 C1247 0.930 . S
H1304 C1250 0.930 . S
H1305 C1253 0.929 . S
H1306 C1258 0.929 . S
H1307 C1259 0.930 . S
H1308 C1266 0.929 . S
H1309 C1267 0.930 . S
H1310 C1268 0.930 . S
H1311 C1269 0.930 . S
H1312 C1271 0.929 . S
H1313 C1272 0.930 . S
H1314 C1273 0.930 . S
H1315 C1274 0.930 . S
H1316 C1278 0.929 . S
H1317 C1280 0.930 . S
H1318 C1286 0.929 . S
H1319 C1287 0.930 . S
Li1320 N1337 1.990 . S
Li1320 O1380 1.956 . S
Li1320 O1381 1.970 . S
Li1320 O1382 1.961 . S
Li1321 N1345 1.990 . S
Li1321 O1380 1.970 . S
Li1321 O1381 1.956 . S
Li1321 O1383 1.961 . S
Li1322 N1367 1.990 . S
Li1322 O1380 1.961 . S
Li1322 O1382 1.956 . S
Li1322 O1383 1.970 . S
Li1323 N1373 1.990 . S
Li1323 O1381 1.961 . S
Li1323 O1382 1.970 . S
Li1323 O1383 1.956 . S
C1324 C1326 1.348 . S
C1324 C1327 1.356 . S
C1324 O1380 1.325 . S
N1325 C1328 1.314 . S
N1325 C1329 1.279 . S
C1326 C1324 1.348 . S
C1326 C1328 1.353 . S
C1326 H1384 0.929 . S
C1327 C1324 1.356 . S
C1327 C1329 1.358 . S
C1327 H1385 0.930 . S
C1328 N1325 1.314 . S
C1328 C1326 1.353 . S
C1328 H1386 0.930 . S
C1329 N1325 1.279 . S
C1329 C1327 1.358 . S
C1329 H1387 0.930 . S
C1330 C1333 1.348 . S
C1330 C1334 1.356 . S
C1330 O1381 1.325 . S
C1331 N1332 1.279 . S
C1331 C1334 1.358 . S
C1331 H1388 0.930 . S
N1332 C1331 1.279 . S
N1332 C1335 1.314 . S
C1333 C1330 1.348 . S
C1333 C1335 1.353 . S
C1333 H1389 0.929 . S
C1334 C1330 1.356 . S
C1334 C1331 1.358 . S
C1334 H1390 0.930 . S
C1335 N1332 1.314 . S
C1335 C1333 1.353 . S
C1335 H1391 0.930 . S
C1336 N1337 1.314 . S
C1336 C1341 1.353 . S
C1336 H1342 0.930 . S
N1337 Li1320 1.990 . S
N1337 C1336 1.314 . S
N1337 C1339 1.279 . S
C1338 C1339 1.358 . S
C1338 C1340 1.356 . S
C1338 H1392 0.930 . S
C1339 N1337 1.279 . S
C1339 C1338 1.358 . S
C1339 H1343 0.930 . S
C1340 C1338 1.356 . S
C1340 C1341 1.348 . S
C1341 C1336 1.353 . S
C1341 C1340 1.348 . S
C1341 H1393 0.929 . S
H1342 C1336 0.930 . S
H1343 C1339 0.930 . S
C1344 N1345 1.314 . S
C1344 C1346 1.353 . S
C1344 H1350 0.930 . S
N1345 Li1321 1.990 . S
N1345 C1344 1.314 . S
N1345 C1348 1.279 . S
C1346 C1344 1.353 . S
C1346 C1349 1.348 . S
C1346 H1394 0.929 . S
C1347 C1348 1.358 . S
C1347 C1349 1.356 . S
C1347 H1395 0.930 . S
C1348 N1345 1.279 . S
C1348 C1347 1.358 . S
C1348 H1351 0.930 . S
C1349 C1346 1.348 . S
C1349 C1347 1.356 . S
H1350 C1344 0.930 . S
H1351 C1348 0.930 . S
C1352 C1354 1.348 . S
C1352 C1355 1.356 . S
C1352 O1382 1.325 . S
N1353 C1356 1.314 . S
N1353 C1357 1.279 . S
C1354 C1352 1.348 . S
C1354 C1356 1.353 . S
C1354 H1396 0.929 . S
C1355 C1352 1.356 . S
C1355 C1357 1.358 . S
C1355 H1397 0.930 . S
C1356 N1353 1.314 . S
C1356 C1354 1.353 . S
C1356 H1398 0.930 . S
C1357 N1353 1.279 . S
C1357 C1355 1.358 . S
C1357 H1399 0.930 . S
C1358 C1359 1.348 . S
C1358 C1360 1.356 . S
C1358 O1383 1.325 . S
C1359 C1358 1.348 . S
C1359 C1361 1.353 1_545 S
C1359 H1400 0.929 . S
C1360 C1358 1.356 . S
C1360 C1362 1.358 . S
C1360 H1401 0.930 . S
C1361 C1359 1.353 1_565 S
C1361 N1363 1.314 . S
C1361 H1402 0.930 . S
C1362 C1360 1.358 . S
C1362 N1363 1.279 1_545 S
C1362 H1403 0.930 . S
N1363 C1361 1.314 . S
N1363 C1362 1.279 1_565 S
C1364 C1366 1.353 . S
C1364 N1367 1.314 . S
C1364 H1370 0.930 . S
C1365 N1367 1.279 . S
C1365 C1368 1.358 . S
C1365 H1371 0.930 . S
C1366 C1364 1.353 . S
C1366 C1369 1.348 . S
C1366 H1404 0.929 . S
N1367 Li1322 1.990 . S
N1367 C1364 1.314 . S
N1367 C1365 1.279 . S
C1368 C1365 1.358 . S
C1368 C1369 1.356 . S
C1368 H1405 0.930 . S
C1369 C1366 1.348 . S
C1369 C1368 1.356 . S
H1370 C1364 0.930 . S
H1371 C1365 0.930 . S
C1372 N1373 1.314 . S
C1372 C1374 1.353 . S
C1372 H1378 0.930 . S
N1373 Li1323 1.990 . S
N1373 C1372 1.314 . S
N1373 C1376 1.279 . S
C1374 C1372 1.353 . S
C1374 C1377 1.348 . S
C1374 H1406 0.929 . S
C1375 C1376 1.358 1_565 S
C1375 C1377 1.356 1_565 S
C1375 H1407 0.930 . S
C1376 N1373 1.279 . S
C1376 C1375 1.358 1_545 S
C1376 H1379 0.930 . S
C1377 C1374 1.348 . S
C1377 C1375 1.356 1_545 S
H1378 C1372 0.930 . S
H1379 C1376 0.930 . S
O1380 Li1320 1.956 . S
O1380 Li1321 1.970 . S
O1380 Li1322 1.961 . S
O1380 C1324 1.325 . S
O1381 Li1320 1.970 . S
O1381 Li1321 1.956 . S
O1381 Li1323 1.961 . S
O1381 C1330 1.325 . S
O1382 Li1320 1.961 . S
O1382 Li1322 1.956 . S
O1382 Li1323 1.970 . S
O1382 C1352 1.325 . S
O1383 Li1321 1.961 . S
O1383 Li1322 1.970 . S
O1383 Li1323 1.956 . S
O1383 C1358 1.325 . S
H1384 C1326 0.929 . S
H1385 C1327 0.930 . S
H1386 C1328 0.930 . S
H1387 C1329 0.930 . S
H1388 C1331 0.930 . S
H1389 C1333 0.929 . S
H1390 C1334 0.930 . S
H1391 C1335 0.930 . S
H1392 C1338 0.930 . S
H1393 C1341 0.929 . S
H1394 C1346 0.929 . S
H1395 C1347 0.930 . S
H1396 C1354 0.929 . S
H1397 C1355 0.930 . S
H1398 C1356 0.930 . S
H1399 C1357 0.930 . S
H1400 C1359 0.929 . S
H1401 C1360 0.930 . S
H1402 C1361 0.930 . S
H1403 C1362 0.930 . S
H1404 C1366 0.929 . S
H1405 C1368 0.930 . S
H1406 C1374 0.929 . S
H1407 C1375 0.930 . S
Li1408 N1425 1.990 . S
Li1408 O1468 1.956 . S
Li1408 O1469 1.970 . S
Li1408 O1470 1.961 . S
Li1409 N1433 1.990 . S
Li1409 O1468 1.970 . S
Li1409 O1469 1.956 . S
Li1409 O1471 1.961 . S
Li1410 N1455 1.990 . S
Li1410 O1468 1.961 . S
Li1410 O1470 1.956 . S
Li1410 O1471 1.970 . S
Li1411 N1461 1.990 . S
Li1411 O1469 1.961 . S
Li1411 O1470 1.970 . S
Li1411 O1471 1.956 . S
C1412 C1414 1.348 . S
C1412 C1415 1.356 . S
C1412 O1468 1.325 . S
N1413 C1416 1.314 . S
N1413 C1417 1.279 . S
C1414 C1412 1.348 . S
C1414 C1416 1.353 . S
C1414 H1472 0.929 . S
C1415 C1412 1.356 . S
C1415 C1417 1.358 . S
C1415 H1473 0.930 . S
C1416 N1413 1.314 . S
C1416 C1414 1.353 . S
C1416 H1474 0.930 . S
C1417 N1413 1.279 . S
C1417 C1415 1.358 . S
C1417 H1475 0.930 . S
C1418 C1421 1.348 . S
C1418 C1422 1.356 . S
C1418 O1469 1.325 . S
C1419 N1420 1.279 . S
C1419 C1422 1.358 . S
C1419 H1476 0.930 . S
N1420 C1419 1.279 . S
N1420 C1423 1.314 . S
C1421 C1418 1.348 . S
C1421 C1423 1.353 . S
C1421 H1477 0.929 . S
C1422 C1418 1.356 . S
C1422 C1419 1.358 . S
C1422 H1478 0.930 . S
C1423 N1420 1.314 . S
C1423 C1421 1.353 . S
C1423 H1479 0.930 . S
C1424 N1425 1.314 . S
C1424 C1429 1.353 . S
C1424 H1430 0.930 . S
N1425 Li1408 1.990 . S
N1425 C1424 1.314 . S
N1425 C1427 1.279 . S
C1426 C1427 1.358 . S
C1426 C1428 1.356 . S
C1426 H1480 0.930 . S
C1427 N1425 1.279 . S
C1427 C1426 1.358 . S
C1427 H1431 0.930 . S
C1428 C1426 1.356 . S
C1428 C1429 1.348 . S
C1429 C1424 1.353 . S
C1429 C1428 1.348 . S
C1429 H1481 0.929 . S
H1430 C1424 0.930 . S
H1431 C1427 0.930 . S
C1432 N1433 1.314 . S
C1432 C1434 1.353 . S
C1432 H1438 0.930 . S
N1433 Li1409 1.990 . S
N1433 C1432 1.314 . S
N1433 C1436 1.279 . S
C1434 C1432 1.353 . S
C1434 C1437 1.348 . S
C1434 H1482 0.929 . S
C1435 C1436 1.358 . S
C1435 C1437 1.356 . S
C1435 H1483 0.930 . S
C1436 N1433 1.279 . S
C1436 C1435 1.358 . S
C1436 H1439 0.930 . S
C1437 C1434 1.348 . S
C1437 C1435 1.356 . S
H1438 C1432 0.930 . S
H1439 C1436 0.930 . S
C1440 C1442 1.348 . S
C1440 C1443 1.356 . S
C1440 O1470 1.325 . S
N1441 C1444 1.314 . S
N1441 C1445 1.279 . S
C1442 C1440 1.348 . S
C1442 C1444 1.353 . S
C1442 H1484 0.929 . S
C1443 C1440 1.356 . S
C1443 C1445 1.358 . S
C1443 H1485 0.930 . S
C1444 N1441 1.314 . S
C1444 C1442 1.353 . S
C1444 H1486 0.930 . S
C1445 N1441 1.279 . S
C1445 C1443 1.358 . S
C1445 H1487 0.930 . S
C1446 C1447 1.348 . S
C1446 C1448 1.356 . S
C1446 O1471 1.325 . S
C1447 C1446 1.348 . S
C1447 C1449 1.353 . S
C1447 H1488 0.929 . S
C1448 C1446 1.356 . S
C1448 C1450 1.358 . S
C1448 H1489 0.930 . S
C1449 C1447 1.353 . S
C1449 N1451 1.314 . S
C1449 H1490 0.930 . S
C1450 C1448 1.358 . S
C1450 N1451 1.279 . S
C1450 H1491 0.930 . S
N1451 C1449 1.314 . S
N1451 C1450 1.279 . S
C1452 C1454 1.353 . S
C1452 N1455 1.314 . S
C1452 H1458 0.930 . S
C1453 N1455 1.279 . S
C1453 C1456 1.358 . S
C1453 H1459 0.930 . S
C1454 C1452 1.353 . S
C1454 C1457 1.348 . S
C1454 H1492 0.929 . S
N1455 Li1410 1.990 . S
N1455 C1452 1.314 . S
N1455 C1453 1.279 . S
C1456 C1453 1.358 . S
C1456 C1457 1.356 . S
C1456 H1493 0.930 . S
C1457 C1454 1.348 . S
C1457 C1456 1.356 . S
H1458 C1452 0.930 . S
H1459 C1453 0.930 . S
C1460 N1461 1.314 . S
C1460 C1462 1.353 . S
C1460 H1466 0.930 . S
N1461 Li1411 1.990 . S
N1461 C1460 1.314 . S
N1461 C1464 1.279 . S
C1462 C1460 1.353 . S
C1462 C1465 1.348 . S
C1462 H1494 0.929 . S
C1463 C1464 1.358 . S
C1463 C1465 1.356 . S
C1463 H1495 0.930 . S
C1464 N1461 1.279 . S
C1464 C1463 1.358 . S
C1464 H1467 0.930 . S
C1465 C1462 1.348 . S
C1465 C1463 1.356 . S
H1466 C1460 0.930 . S
H1467 C1464 0.930 . S
O1468 Li1408 1.956 . S
O1468 Li1409 1.970 . S
O1468 Li1410 1.961 . S
O1468 C1412 1.325 . S
O1469 Li1408 1.970 . S
O1469 Li1409 1.956 . S
O1469 Li1411 1.961 . S
O1469 C1418 1.325 . S
O1470 Li1408 1.961 . S
O1470 Li1410 1.956 . S
O1470 Li1411 1.970 . S
O1470 C1440 1.325 . S
O1471 Li1409 1.961 . S
O1471 Li1410 1.970 . S
O1471 Li1411 1.956 . S
O1471 C1446 1.325 . S
H1472 C1414 0.929 . S
H1473 C1415 0.930 . S
H1474 C1416 0.930 . S
H1475 C1417 0.930 . S
H1476 C1419 0.930 . S
H1477 C1421 0.929 . S
H1478 C1422 0.930 . S
H1479 C1423 0.930 . S
H1480 C1426 0.930 . S
H1481 C1429 0.929 . S
H1482 C1434 0.929 . S
H1483 C1435 0.930 . S
H1484 C1442 0.929 . S
H1485 C1443 0.930 . S
H1486 C1444 0.930 . S
H1487 C1445 0.930 . S
H1488 C1447 0.929 . S
H1489 C1448 0.930 . S
H1490 C1449 0.930 . S
H1491 C1450 0.930 . S
H1492 C1454 0.929 . S
H1493 C1456 0.930 . S
H1494 C1462 0.929 . S
H1495 C1463 0.930 . S
Li1496 N1513 1.990 . S
Li1496 O1556 1.956 . S
Li1496 O1557 1.970 . S
Li1496 O1558 1.961 . S
Li1497 N1521 1.990 . S
Li1497 O1556 1.970 . S
Li1497 O1557 1.956 . S
Li1497 O1559 1.961 . S
Li1498 N1543 1.990 . S
Li1498 O1556 1.961 . S
Li1498 O1558 1.956 . S
Li1498 O1559 1.970 . S
Li1499 N1549 1.990 . S
Li1499 O1557 1.961 . S
Li1499 O1558 1.970 . S
Li1499 O1559 1.956 . S
C1500 C1502 1.348 . S
C1500 C1503 1.356 . S
C1500 O1556 1.325 . S
N1501 C1504 1.314 . S
N1501 C1505 1.261 1_455 S
C1502 C1500 1.348 . S
C1502 C1504 1.353 1_655 S
C1502 H1560 0.929 . S
C1503 C1500 1.356 . S
C1503 C1505 1.383 . S
C1503 H1561 0.930 . S
C1504 N1501 1.314 . S
C1504 C1502 1.353 1_455 S
C1504 H1562 0.930 . S
C1505 N1501 1.261 1_655 S
C1505 C1503 1.383 . S
C1505 H1563 0.924 1_655 S
C1506 C1509 1.348 . S
C1506 C1510 1.356 . S
C1506 O1557 1.325 . S
C1507 N1508 1.279 1_545 S
C1507 C1510 1.358 . S
C1507 H1564 0.930 . S
N1508 C1507 1.279 1_565 S
N1508 C1511 1.314 . S
C1509 C1506 1.348 . S
C1509 C1511 1.353 1_545 S
C1509 H1565 0.929 . S
C1510 C1506 1.356 . S
C1510 C1507 1.358 . S
C1510 H1566 0.930 . S
C1511 N1508 1.314 . S
C1511 C1509 1.353 1_565 S
C1511 H1567 0.930 . S
C1512 N1513 1.314 . S
C1512 C1517 1.353 . S
C1512 H1518 0.930 . S
N1513 Li1496 1.990 . S
N1513 C1512 1.314 . S
N1513 C1515 1.279 . S
C1514 C1515 1.358 . S
C1514 C1516 1.356 . S
C1514 H1568 0.930 . S
C1515 N1513 1.279 . S
C1515 C1514 1.358 . S
C1515 H1519 0.930 . S
C1516 C1514 1.356 . S
C1516 C1517 1.348 . S
C1517 C1512 1.353 . S
C1517 C1516 1.348 . S
C1517 H1569 0.929 . S
H1518 C1512 0.930 . S
H1519 C1515 0.930 . S
C1520 N1521 1.314 . S
C1520 C1522 1.351 1_655 S
C1520 H1526 0.930 . S
N1521 Li1497 1.990 . S
N1521 C1520 1.314 . S
N1521 C1524 1.279 . S
C1522 C1520 1.351 1_455 S
C1522 C1525 1.347 1_455 S
C1522 H1570 0.931 . S
C1523 C1524 1.358 1_565 S
C1523 C1525 1.356 1_565 S
C1523 H1571 0.930 . S
C1524 N1521 1.279 . S
C1524 C1523 1.358 1_545 S
C1524 H1527 0.930 . S
C1525 C1522 1.347 1_655 S
C1525 C1523 1.356 1_545 S
H1526 C1520 0.930 . S
H1527 C1524 0.930 . S
C1528 C1530 1.348 . S
C1528 C1531 1.356 . S
C1528 O1558 1.325 . S
N1529 C1532 1.314 . S
N1529 C1533 1.279 . S
C1530 C1528 1.348 . S
C1530 C1532 1.353 . S
C1530 H1572 0.929 . S
C1531 C1528 1.356 . S
C1531 C1533 1.358 . S
C1531 H1573 0.930 . S
C1532 N1529 1.314 . S
C1532 C1530 1.353 . S
C1532 H1574 0.930 . S
C1533 N1529 1.279 . S
C1533 C1531 1.358 . S
C1533 H1575 0.930 . S
C1534 C1535 1.348 . S
C1534 C1536 1.356 . S
C1534 O1559 1.325 . S
C1535 C1534 1.348 . S
C1535 C1537 1.353 . S
C1535 H1576 0.929 . S
C1536 C1534 1.356 . S
C1536 C1538 1.358 . S
C1536 H1577 0.930 . S
C1537 C1535 1.353 . S
C1537 N1539 1.314 . S
C1537 H1578 0.930 . S
C1538 C1536 1.358 . S
C1538 N1539 1.279 . S
C1538 H1579 0.930 . S
N1539 C1537 1.314 . S
N1539 C1538 1.279 . S
C1540 C1542 1.353 . S
C1540 N1543 1.314 . S
C1540 H1546 0.930 . S
C1541 N1543 1.279 . S
C1541 C1544 1.358 . S
C1541 H1547 0.930 . S
C1542 C1540 1.353 . S
C1542 C1545 1.348 . S
C1542 H1580 0.929 1_655 S
N1543 Li1498 1.990 . S
N1543 C1540 1.314 . S
N1543 C1541 1.279 . S
C1544 C1541 1.358 . S
C1544 C1545 1.356 . S
C1544 H1581 0.930 . S
C1545 C1542 1.348 . S
C1545 C1544 1.356 . S
H1546 C1540 0.930 . S
H1547 C1541 0.930 . S
C1548 N1549 1.314 . S
C1548 C1550 1.353 . S
C1548 H1554 0.930 . S
N1549 Li1499 1.990 . S
N1549 C1548 1.314 . S
N1549 C1552 1.279 . S
C1550 C1548 1.353 . S
C1550 C1553 1.348 . S
C1550 H1582 0.929 . S
C1551 C1552 1.358 . S
C1551 C1553 1.356 . S
C1551 H1583 0.930 . S
C1552 N1549 1.279 . S
C1552 C1551 1.358 . S
C1552 H1555 0.930 . S
C1553 C1550 1.348 . S
C1553 C1551 1.356 . S
H1554 C1548 0.930 . S
H1555 C1552 0.930 . S
O1556 Li1496 1.956 . S
O1556 Li1497 1.970 . S
O1556 Li1498 1.961 . S
O1556 C1500 1.325 . S
O1557 Li1496 1.970 . S
O1557 Li1497 1.956 . S
O1557 Li1499 1.961 . S
O1557 C1506 1.325 . S
O1558 Li1496 1.961 . S
O1558 Li1498 1.956 . S
O1558 Li1499 1.970 . S
O1558 C1528 1.325 . S
O1559 Li1497 1.961 . S
O1559 Li1498 1.970 . S
O1559 Li1499 1.956 . S
O1559 C1534 1.325 . S
H1560 C1502 0.929 . S
H1561 C1503 0.930 . S
H1562 C1504 0.930 . S
H1563 C1505 0.924 1_455 S
H1564 C1507 0.930 . S
H1565 C1509 0.929 . S
H1566 C1510 0.930 . S
H1567 C1511 0.930 . S
H1568 C1514 0.930 . S
H1569 C1517 0.929 . S
H1570 C1522 0.931 . S
H1571 C1523 0.930 . S
H1572 C1530 0.929 . S
H1573 C1531 0.930 . S
H1574 C1532 0.930 . S
H1575 C1533 0.930 . S
H1576 C1535 0.929 . S
H1577 C1536 0.930 . S
H1578 C1537 0.930 . S
H1579 C1538 0.930 . S
H1580 C1542 0.929 1_455 S
H1581 C1544 0.930 . S
H1582 C1550 0.929 . S
H1583 C1551 0.930 . S
Li1584 N1601 1.990 . S
Li1584 O1644 1.956 . S
Li1584 O1645 1.970 . S
Li1584 O1646 1.961 . S
Li1585 N1609 1.990 . S
Li1585 O1644 1.970 . S
Li1585 O1645 1.956 . S
Li1585 O1647 1.961 . S
Li1586 N1631 1.990 . S
Li1586 O1644 1.961 . S
Li1586 O1646 1.956 . S
Li1586 O1647 1.970 . S
Li1587 N1637 1.990 . S
Li1587 O1645 1.961 . S
Li1587 O1646 1.970 . S
Li1587 O1647 1.956 . S
C1588 C1590 1.348 . S
C1588 C1591 1.356 . S
C1588 O1644 1.325 . S
N1589 C1592 1.314 . S
N1589 C1593 1.279 . S
C1590 C1588 1.348 . S
C1590 C1592 1.353 . S
C1590 H1648 0.929 . S
C1591 C1588 1.356 . S
C1591 C1593 1.358 . S
C1591 H1649 0.930 . S
C1592 N1589 1.314 . S
C1592 C1590 1.353 . S
C1592 H1650 0.930 . S
C1593 N1589 1.279 . S
C1593 C1591 1.358 . S
C1593 H1651 0.930 . S
C1594 C1597 1.348 . S
C1594 C1598 1.356 . S
C1594 O1645 1.325 . S
C1595 N1596 1.279 . S
C1595 C1598 1.358 . S
C1595 H1652 0.930 . S
N1596 C1595 1.279 . S
N1596 C1599 1.314 . S
C1597 C1594 1.348 . S
C1597 C1599 1.353 . S
C1597 H1653 0.929 . S
C1598 C1594 1.356 . S
C1598 C1595 1.358 . S
C1598 H1654 0.930 . S
C1599 N1596 1.314 . S
C1599 C1597 1.353 . S
C1599 H1655 0.930 . S
C1600 N1601 1.314 . S
C1600 C1605 1.353 . S
C1600 H1606 0.930 . S
N1601 Li1584 1.990 . S
N1601 C1600 1.314 . S
N1601 C1603 1.279 . S
C1602 C1603 1.358 . S
C1602 C1604 1.356 . S
C1602 H1656 0.930 . S
C1603 N1601 1.279 . S
C1603 C1602 1.358 . S
C1603 H1607 0.930 . S
C1604 C1602 1.356 . S
C1604 C1605 1.348 . S
C1605 C1600 1.353 . S
C1605 C1604 1.348 . S
C1605 H1657 0.929 . S
H1606 C1600 0.930 . S
H1607 C1603 0.930 . S
C1608 N1609 1.314 . S
C1608 C1610 1.353 . S
C1608 H1614 0.930 . S
N1609 Li1585 1.990 . S
N1609 C1608 1.314 . S
N1609 C1612 1.279 . S
C1610 C1608 1.353 . S
C1610 C1613 1.348 . S
C1610 H1658 0.929 . S
C1611 C1612 1.358 . S
C1611 C1613 1.356 . S
C1611 H1659 0.930 . S
C1612 N1609 1.279 . S
C1612 C1611 1.358 . S
C1612 H1615 0.930 . S
C1613 C1610 1.348 . S
C1613 C1611 1.356 . S
H1614 C1608 0.930 . S
H1615 C1612 0.930 . S
C1616 C1618 1.348 . S
C1616 C1619 1.356 . S
C1616 O1646 1.325 . S
N1617 C1620 1.314 . S
N1617 C1621 1.279 . S
C1618 C1616 1.348 . S
C1618 C1620 1.353 . S
C1618 H1660 0.929 . S
C1619 C1616 1.356 . S
C1619 C1621 1.358 . S
C1619 H1661 0.930 . S
C1620 N1617 1.314 . S
C1620 C1618 1.353 . S
C1620 H1662 0.930 . S
C1621 N1617 1.279 . S
C1621 C1619 1.358 . S
C1621 H1663 0.930 . S
C1622 C1623 1.348 . S
C1622 C1624 1.356 . S
C1622 O1647 1.325 . S
C1623 C1622 1.348 . S
C1623 C1625 1.353 . S
C1623 H1664 0.929 . S
C1624 C1622 1.356 . S
C1624 C1626 1.358 . S
C1624 H1665 0.930 . S
C1625 C1623 1.353 . S
C1625 N1627 1.314 . S
C1625 H1666 0.930 . S
C1626 C1624 1.358 . S
C1626 N1627 1.279 . S
C1626 H1667 0.930 . S
N1627 C1625 1.314 . S
N1627 C1626 1.279 . S
C1628 C1630 1.353 . S
C1628 N1631 1.314 . S
C1628 H1634 0.930 . S
C1629 N1631 1.279 . S
C1629 C1632 1.358 . S
C1629 H1635 0.930 . S
C1630 C1628 1.353 . S
C1630 C1633 1.348 . S
C1630 H1668 0.929 . S
N1631 Li1586 1.990 . S
N1631 C1628 1.314 . S
N1631 C1629 1.279 . S
C1632 C1629 1.358 . S
C1632 C1633 1.356 . S
C1632 H1669 0.930 . S
C1633 C1630 1.348 . S
C1633 C1632 1.356 . S
H1634 C1628 0.930 . S
H1635 C1629 0.930 . S
C1636 N1637 1.314 . S
C1636 C1638 1.353 . S
C1636 H1642 0.930 . S
N1637 Li1587 1.990 . S
N1637 C1636 1.314 . S
N1637 C1640 1.279 . S
C1638 C1636 1.353 . S
C1638 C1641 1.348 . S
C1638 H1670 0.929 . S
C1639 C1640 1.358 . S
C1639 C1641 1.356 . S
C1639 H1671 0.930 . S
C1640 N1637 1.279 . S
C1640 C1639 1.358 . S
C1640 H1643 0.930 . S
C1641 C1638 1.348 . S
C1641 C1639 1.356 . S
H1642 C1636 0.930 . S
H1643 C1640 0.930 . S
O1644 Li1584 1.956 . S
O1644 Li1585 1.970 . S
O1644 Li1586 1.961 . S
O1644 C1588 1.325 . S
O1645 Li1584 1.970 . S
O1645 Li1585 1.956 . S
O1645 Li1587 1.961 . S
O1645 C1594 1.325 . S
O1646 Li1584 1.961 . S
O1646 Li1586 1.956 . S
O1646 Li1587 1.970 . S
O1646 C1616 1.325 . S
O1647 Li1585 1.961 . S
O1647 Li1586 1.970 . S
O1647 Li1587 1.956 . S
O1647 C1622 1.325 . S
H1648 C1590 0.929 . S
H1649 C1591 0.930 . S
H1650 C1592 0.930 . S
H1651 C1593 0.930 . S
H1652 C1595 0.930 . S
H1653 C1597 0.929 . S
H1654 C1598 0.930 . S
H1655 C1599 0.930 . S
H1656 C1602 0.930 . S
H1657 C1605 0.929 . S
H1658 C1610 0.929 . S
H1659 C1611 0.930 . S
H1660 C1618 0.929 . S
H1661 C1619 0.930 . S
H1662 C1620 0.930 . S
H1663 C1621 0.930 . S
H1664 C1623 0.929 . S
H1665 C1624 0.930 . S
H1666 C1625 0.930 . S
H1667 C1626 0.930 . S
H1668 C1630 0.929 . S
H1669 C1632 0.930 . S
H1670 C1638 0.929 . S
H1671 C1639 0.930 . S
Li1672 N1689 1.990 . S
Li1672 O1732 1.956 . S
Li1672 O1733 1.970 . S
Li1672 O1734 1.961 . S
Li1673 N1697 1.990 . S
Li1673 O1732 1.970 . S
Li1673 O1733 1.956 . S
Li1673 O1735 1.961 . S
Li1674 N1719 1.990 . S
Li1674 O1732 1.961 . S
Li1674 O1734 1.956 . S
Li1674 O1735 1.970 . S
Li1675 N1725 1.990 . S
Li1675 O1733 1.961 . S
Li1675 O1734 1.970 . S
Li1675 O1735 1.956 . S
C1676 C1678 1.348 . S
C1676 C1679 1.356 . S
C1676 O1732 1.325 . S
N1677 C1680 1.314 . S
N1677 C1681 1.279 1_545 S
C1678 C1676 1.348 . S
C1678 C1680 1.353 1_565 S
C1678 H1736 0.929 . S
C1679 C1676 1.356 . S
C1679 C1681 1.358 . S
C1679 H1737 0.930 . S
C1680 N1677 1.314 . S
C1680 C1678 1.353 1_545 S
C1680 H1738 0.930 . S
C1681 N1677 1.279 1_565 S
C1681 C1679 1.358 . S
C1681 H1739 0.930 . S
C1682 C1685 1.348 . S
C1682 C1686 1.356 . S
C1682 O1733 1.325 . S
C1683 N1684 1.279 . S
C1683 C1686 1.358 . S
C1683 H1740 0.930 . S
N1684 C1683 1.279 . S
N1684 C1687 1.314 . S
C1685 C1682 1.348 . S
C1685 C1687 1.353 . S
C1685 H1741 0.929 . S
C1686 C1682 1.356 . S
C1686 C1683 1.358 . S
C1686 H1742 0.930 . S
C1687 N1684 1.314 . S
C1687 C1685 1.353 . S
C1687 H1743 0.930 . S
C1688 N1689 1.314 . S
C1688 C1693 1.353 . S
C1688 H1694 0.930 . S
N1689 Li1672 1.990 . S
N1689 C1688 1.314 . S
N1689 C1691 1.279 . S
C1690 C1691 1.358 1_545 S
C1690 C1692 1.356 1_545 S
C1690 H1744 0.930 . S
C1691 N1689 1.279 . S
C1691 C1690 1.358 1_565 S
C1691 H1695 0.930 . S
C1692 C1690 1.356 1_565 S
C1692 C1693 1.348 . S
C1693 C1688 1.353 . S
C1693 C1692 1.348 . S
C1693 H1745 0.929 . S
H1694 C1688 0.930 . S
H1695 C1691 0.930 . S
C1696 N1697 1.314 . S
C1696 C1698 1.353 . S
C1696 H1702 0.930 . S
N1697 Li1673 1.990 . S
N1697 C1696 1.314 . S
N1697 C1700 1.279 . S
C1698 C1696 1.353 . S
C1698 C1701 1.348 . S
C1698 H1746 0.929 . S
C1699 C1700 1.358 . S
C1699 C1701 1.356 . S
C1699 H1747 0.930 . S
C1700 N1697 1.279 . S
C1700 C1699 1.358 . S
C1700 H1703 0.930 . S
C1701 C1698 1.348 . S
C1701 C1699 1.356 . S
H1702 C1696 0.930 . S
H1703 C1700 0.930 . S
C1704 C1706 1.348 . S
C1704 C1707 1.356 . S
C1704 O1734 1.325 . S
N1705 C1708 1.314 1_556 S
N1705 C1709 1.279 . S
C1706 C1704 1.348 . S
C1706 C1708 1.353 . S
C1706 H1748 0.929 . S
C1707 C1704 1.356 . S
C1707 C1709 1.358 1_554 S
C1707 H1749 0.930 . S
C1708 N1705 1.314 1_554 S
C1708 C1706 1.353 . S
C1708 H1750 0.930 . S
C1709 N1705 1.279 . S
C1709 C1707 1.358 1_556 S
C1709 H1751 0.930 . S
C1710 C1711 1.348 . S
C1710 C1712 1.356 . S
C1710 O1735 1.325 . S
C1711 C1710 1.348 . S
C1711 C1713 1.353 . S
C1711 H1752 0.929 . S
C1712 C1710 1.356 . S
C1712 C1714 1.358 . S
C1712 H1753 0.930 . S
C1713 C1711 1.353 . S
C1713 N1715 1.314 . S
C1713 H1754 0.930 . S
C1714 C1712 1.358 . S
C1714 N1715 1.279 . S
C1714 H1755 0.930 . S
N1715 C1713 1.314 . S
N1715 C1714 1.279 . S
C1716 C1718 1.353 . S
C1716 N1719 1.314 . S
C1716 H1722 0.930 . S
C1717 N1719 1.279 . S
C1717 C1720 1.358 . S
C1717 H1723 0.930 . S
C1718 C1716 1.353 . S
C1718 C1721 1.348 . S
C1718 H1756 0.929 . S
N1719 Li1674 1.990 . S
N1719 C1716 1.314 . S
N1719 C1717 1.279 . S
C1720 C1717 1.358 . S
C1720 C1721 1.356 . S
C1720 H1757 0.930 1_554 S
C1721 C1718 1.348 . S
C1721 C1720 1.356 . S
H1722 C1716 0.930 . S
H1723 C1717 0.930 . S
C1724 N1725 1.314 . S
C1724 C1726 1.353 . S
C1724 H1730 0.930 . S
N1725 Li1675 1.990 . S
N1725 C1724 1.314 . S
N1725 C1728 1.279 . S
C1726 C1724 1.353 . S
C1726 C1729 1.348 . S
C1726 H1758 0.929 . S
C1727 C1728 1.358 . S
C1727 C1729 1.356 . S
C1727 H1759 0.930 . S
C1728 N1725 1.279 . S
C1728 C1727 1.358 . S
C1728 H1731 0.930 . S
C1729 C1726 1.348 . S
C1729 C1727 1.356 . S
H1730 C1724 0.930 . S
H1731 C1728 0.930 . S
O1732 Li1672 1.956 . S
O1732 Li1673 1.970 . S
O1732 Li1674 1.961 . S
O1732 C1676 1.325 . S
O1733 Li1672 1.970 . S
O1733 Li1673 1.956 . S
O1733 Li1675 1.961 . S
O1733 C1682 1.325 . S
O1734 Li1672 1.961 . S
O1734 Li1674 1.956 . S
O1734 Li1675 1.970 . S
O1734 C1704 1.325 . S
O1735 Li1673 1.961 . S
O1735 Li1674 1.970 . S
O1735 Li1675 1.956 . S
O1735 C1710 1.325 . S
H1736 C1678 0.929 . S
H1737 C1679 0.930 . S
H1738 C1680 0.930 . S
H1739 C1681 0.930 . S
H1740 C1683 0.930 . S
H1741 C1685 0.929 . S
H1742 C1686 0.930 . S
H1743 C1687 0.930 . S
H1744 C1690 0.930 . S
H1745 C1693 0.929 . S
H1746 C1698 0.929 . S
H1747 C1699 0.930 . S
H1748 C1706 0.929 . S
H1749 C1707 0.930 . S
H1750 C1708 0.930 . S
H1751 C1709 0.930 . S
H1752 C1711 0.929 . S
H1753 C1712 0.930 . S
H1754 C1713 0.930 . S
H1755 C1714 0.930 . S
H1756 C1718 0.929 . S
H1757 C1720 0.930 1_556 S
H1758 C1726 0.929 . S
H1759 C1727 0.930 . S
Li1760 N1777 1.990 . S
Li1760 O1820 1.956 . S
Li1760 O1821 1.970 . S
Li1760 O1822 1.961 . S
Li1761 N1785 1.990 . S
Li1761 O1820 1.970 . S
Li1761 O1821 1.956 . S
Li1761 O1823 1.961 . S
Li1762 N1807 1.990 . S
Li1762 O1820 1.961 . S
Li1762 O1822 1.956 . S
Li1762 O1823 1.970 . S
Li1763 N1813 1.990 . S
Li1763 O1821 1.961 . S
Li1763 O1822 1.970 . S
Li1763 O1823 1.956 . S
C1764 C1766 1.348 . S
C1764 C1767 1.356 . S
C1764 O1820 1.325 . S
N1765 C1768 1.314 . S
N1765 C1769 1.279 . S
C1766 C1764 1.348 . S
C1766 C1768 1.353 . S
C1766 H1824 0.929 . S
C1767 C1764 1.356 . S
C1767 C1769 1.358 . S
C1767 H1825 0.930 . S
C1768 N1765 1.314 . S
C1768 C1766 1.353 . S
C1768 H1826 0.930 . S
C1769 N1765 1.279 . S
C1769 C1767 1.358 . S
C1769 H1827 0.930 . S
C1770 C1773 1.348 . S
C1770 C1774 1.356 . S
C1770 O1821 1.325 . S
C1771 N1772 1.279 . S
C1771 C1774 1.358 . S
C1771 H1828 0.930 . S
N1772 C1771 1.279 . S
N1772 C1775 1.314 . S
C1773 C1770 1.348 . S
C1773 C1775 1.353 . S
C1773 H1829 0.929 . S
C1774 C1770 1.356 . S
C1774 C1771 1.358 . S
C1774 H1830 0.930 . S
C1775 N1772 1.314 . S
C1775 C1773 1.353 . S
C1775 H1831 0.930 . S
C1776 N1777 1.314 . S
C1776 C1781 1.353 . S
C1776 H1782 0.930 . S
N1777 Li1760 1.990 . S
N1777 C1776 1.314 . S
N1777 C1779 1.279 . S
C1778 C1779 1.358 . S
C1778 C1780 1.356 . S
C1778 H1832 0.930 . S
C1779 N1777 1.279 . S
C1779 C1778 1.358 . S
C1779 H1783 0.930 . S
C1780 C1778 1.356 . S
C1780 C1781 1.348 . S
C1781 C1776 1.353 . S
C1781 C1780 1.348 . S
C1781 H1833 0.929 . S
H1782 C1776 0.930 . S
H1783 C1779 0.930 . S
C1784 N1785 1.314 . S
C1784 C1786 1.353 . S
C1784 H1790 0.930 . S
N1785 Li1761 1.990 . S
N1785 C1784 1.314 . S
N1785 C1788 1.279 . S
C1786 C1784 1.353 . S
C1786 C1789 1.348 . S
C1786 H1834 0.929 . S
C1787 C1788 1.358 . S
C1787 C1789 1.356 . S
C1787 H1835 0.930 . S
C1788 N1785 1.279 . S
C1788 C1787 1.358 . S
C1788 H1791 0.930 . S
C1789 C1786 1.348 . S
C1789 C1787 1.356 . S
H1790 C1784 0.930 . S
H1791 C1788 0.930 . S
C1792 C1794 1.348 . S
C1792 C1795 1.356 . S
C1792 O1822 1.325 . S
N1793 C1796 1.314 . S
N1793 C1797 1.279 . S
C1794 C1792 1.348 . S
C1794 C1796 1.353 . S
C1794 H1836 0.929 . S
C1795 C1792 1.356 . S
C1795 C1797 1.358 . S
C1795 H1837 0.930 . S
C1796 N1793 1.314 . S
C1796 C1794 1.353 . S
C1796 H1838 0.930 . S
C1797 N1793 1.279 . S
C1797 C1795 1.358 . S
C1797 H1839 0.930 . S
C1798 C1799 1.348 . S
C1798 C1800 1.356 . S
C1798 O1823 1.325 . S
C1799 C1798 1.348 . S
C1799 C1801 1.353 . S
C1799 H1840 0.929 . S
C1800 C1798 1.356 . S
C1800 C1802 1.358 . S
C1800 H1841 0.930 . S
C1801 C1799 1.353 . S
C1801 N1803 1.314 . S
C1801 H1842 0.930 . S
C1802 C1800 1.358 . S
C1802 N1803 1.279 . S
C1802 H1843 0.930 . S
N1803 C1801 1.314 . S
N1803 C1802 1.279 . S
C1804 C1806 1.353 . S
C1804 N1807 1.314 . S
C1804 H1810 0.930 . S
C1805 N1807 1.279 . S
C1805 C1808 1.358 . S
C1805 H1811 0.930 . S
C1806 C1804 1.353 . S
C1806 C1809 1.348 . S
C1806 H1844 0.929 . S
N1807 Li1762 1.990 . S
N1807 C1804 1.314 . S
N1807 C1805 1.279 . S
C1808 C1805 1.358 . S
C1808 C1809 1.356 . S
C1808 H1845 0.930 . S
C1809 C1806 1.348 . S
C1809 C1808 1.356 . S
H1810 C1804 0.930 . S
H1811 C1805 0.930 . S
C1812 N1813 1.314 . S
C1812 C1814 1.353 . S
C1812 H1818 0.930 . S
N1813 Li1763 1.990 . S
N1813 C1812 1.314 . S
N1813 C1816 1.279 . S
C1814 C1812 1.353 . S
C1814 C1817 1.348 . S
C1814 H1846 0.929 . S
C1815 C1816 1.358 . S
C1815 C1817 1.356 . S
C1815 H1847 0.930 . S
C1816 N1813 1.279 . S
C1816 C1815 1.358 . S
C1816 H1819 0.930 . S
C1817 C1814 1.348 . S
C1817 C1815 1.356 . S
H1818 C1812 0.930 . S
H1819 C1816 0.930 . S
O1820 Li1760 1.956 . S
O1820 Li1761 1.970 . S
O1820 Li1762 1.961 . S
O1820 C1764 1.325 . S
O1821 Li1760 1.970 . S
O1821 Li1761 1.956 . S
O1821 Li1763 1.961 . S
O1821 C1770 1.325 . S
O1822 Li1760 1.961 . S
O1822 Li1762 1.956 . S
O1822 Li1763 1.970 . S
O1822 C1792 1.325 . S
O1823 Li1761 1.961 . S
O1823 Li1762 1.970 . S
O1823 Li1763 1.956 . S
O1823 C1798 1.325 . S
H1824 C1766 0.929 . S
H1825 C1767 0.930 . S
H1826 C1768 0.930 . S
H1827 C1769 0.930 . S
H1828 C1771 0.930 . S
H1829 C1773 0.929 . S
H1830 C1774 0.930 . S
H1831 C1775 0.930 . S
H1832 C1778 0.930 . S
H1833 C1781 0.929 . S
H1834 C1786 0.929 . S
H1835 C1787 0.930 . S
H1836 C1794 0.929 . S
H1837 C1795 0.930 . S
H1838 C1796 0.930 . S
H1839 C1797 0.930 . S
H1840 C1799 0.929 . S
H1841 C1800 0.930 . S
H1842 C1801 0.930 . S
H1843 C1802 0.930 . S
H1844 C1806 0.929 . S
H1845 C1808 0.930 . S
H1846 C1814 0.929 . S
H1847 C1815 0.930 . S
Li1848 N1865 1.990 . S
Li1848 O1908 1.956 . S
Li1848 O1909 1.970 . S
Li1848 O1910 1.961 . S
Li1849 N1873 1.990 . S
Li1849 O1908 1.970 . S
Li1849 O1909 1.956 . S
Li1849 O1911 1.961 . S
Li1850 N1895 1.990 . S
Li1850 O1908 1.961 . S
Li1850 O1910 1.956 . S
Li1850 O1911 1.970 . S
Li1851 N1901 1.990 . S
Li1851 O1909 1.961 . S
Li1851 O1910 1.970 . S
Li1851 O1911 1.956 . S
C1852 C1854 1.348 . S
C1852 C1855 1.356 . S
C1852 O1908 1.325 . S
N1853 C1856 1.314 . S
N1853 C1857 1.279 . S
C1854 C1852 1.348 . S
C1854 C1856 1.353 . S
C1854 H1912 0.929 . S
C1855 C1852 1.356 . S
C1855 C1857 1.358 . S
C1855 H1913 0.930 . S
C1856 N1853 1.314 . S
C1856 C1854 1.353 . S
C1856 H1914 0.930 . S
C1857 N1853 1.279 . S
C1857 C1855 1.358 . S
C1857 H1915 0.930 . S
C1858 C1861 1.348 . S
C1858 C1862 1.356 . S
C1858 O1909 1.325 . S
C1859 N1860 1.279 . S
C1859 C1862 1.358 . S
C1859 H1916 0.930 . S
N1860 C1859 1.279 . S
N1860 C1863 1.314 . S
C1861 C1858 1.348 . S
C1861 C1863 1.353 . S
C1861 H1917 0.929 . S
C1862 C1858 1.356 . S
C1862 C1859 1.358 . S
C1862 H1918 0.930 . S
C1863 N1860 1.314 . S
C1863 C1861 1.353 . S
C1863 H1919 0.930 . S
C1864 N1865 1.314 . S
C1864 C1869 1.353 . S
C1864 H1870 0.930 . S
N1865 Li1848 1.990 . S
N1865 C1864 1.314 . S
N1865 C1867 1.279 . S
C1866 C1867 1.358 . S
C1866 C1868 1.356 . S
C1866 H1920 0.930 . S
C1867 N1865 1.279 . S
C1867 C1866 1.358 . S
C1867 H1871 0.930 . S
C1868 C1866 1.356 . S
C1868 C1869 1.348 . S
C1869 C1864 1.353 . S
C1869 C1868 1.348 . S
C1869 H1921 0.929 . S
H1870 C1864 0.930 . S
H1871 C1867 0.930 . S
C1872 N1873 1.314 . S
C1872 C1874 1.353 . S
C1872 H1878 0.930 . S
N1873 Li1849 1.990 . S
N1873 C1872 1.314 . S
N1873 C1876 1.279 . S
C1874 C1872 1.353 . S
C1874 C1877 1.348 . S
C1874 H1922 0.929 . S
C1875 C1876 1.358 . S
C1875 C1877 1.356 . S
C1875 H1923 0.930 . S
C1876 N1873 1.279 . S
C1876 C1875 1.358 . S
C1876 H1879 0.930 . S
C1877 C1874 1.348 . S
C1877 C1875 1.356 . S
H1878 C1872 0.930 . S
H1879 C1876 0.930 . S
C1880 C1882 1.348 . S
C1880 C1883 1.356 . S
C1880 O1910 1.325 . S
N1881 C1884 1.314 . S
N1881 C1885 1.279 . S
C1882 C1880 1.348 . S
C1882 C1884 1.353 . S
C1882 H1924 0.929 . S
C1883 C1880 1.356 . S
C1883 C1885 1.358 . S
C1883 H1925 0.930 . S
C1884 N1881 1.314 . S
C1884 C1882 1.353 . S
C1884 H1926 0.930 . S
C1885 N1881 1.279 . S
C1885 C1883 1.358 . S
C1885 H1927 0.930 . S
C1886 C1887 1.348 . S
C1886 C1888 1.356 . S
C1886 O1911 1.325 . S
C1887 C1886 1.348 . S
C1887 C1889 1.353 . S
C1887 H1928 0.929 . S
C1888 C1886 1.356 . S
C1888 C1890 1.358 1_554 S
C1888 H1929 0.930 . S
C1889 C1887 1.353 . S
C1889 N1891 1.314 1_554 S
C1889 H1930 0.930 . S
C1890 C1888 1.358 1_556 S
C1890 N1891 1.279 . S
C1890 H1931 0.930 . S
N1891 C1889 1.314 1_556 S
N1891 C1890 1.279 . S
C1892 C1894 1.353 . S
C1892 N1895 1.314 . S
C1892 H1898 0.930 . S
C1893 N1895 1.279 . S
C1893 C1896 1.358 . S
C1893 H1899 0.930 . S
C1894 C1892 1.353 . S
C1894 C1897 1.348 . S
C1894 H1932 0.929 . S
N1895 Li1850 1.990 . S
N1895 C1892 1.314 . S
N1895 C1893 1.279 . S
C1896 C1893 1.358 . S
C1896 C1897 1.356 . S
C1896 H1933 0.930 . S
C1897 C1894 1.348 . S
C1897 C1896 1.356 . S
H1898 C1892 0.930 . S
H1899 C1893 0.930 . S
C1900 N1901 1.314 . S
C1900 C1902 1.353 . S
C1900 H1906 0.930 . S
N1901 Li1851 1.990 . S
N1901 C1900 1.314 . S
N1901 C1904 1.279 . S
C1902 C1900 1.353 . S
C1902 C1905 1.348 . S
C1902 H1934 0.929 . S
C1903 C1904 1.358 . S
C1903 C1905 1.356 . S
C1903 H1935 0.930 1_554 S
C1904 N1901 1.279 . S
C1904 C1903 1.358 . S
C1904 H1907 0.930 . S
C1905 C1902 1.348 . S
C1905 C1903 1.356 . S
H1906 C1900 0.930 . S
H1907 C1904 0.930 . S
O1908 Li1848 1.956 . S
O1908 Li1849 1.970 . S
O1908 Li1850 1.961 . S
O1908 C1852 1.325 . S
O1909 Li1848 1.970 . S
O1909 Li1849 1.956 . S
O1909 Li1851 1.961 . S
O1909 C1858 1.325 . S
O1910 Li1848 1.961 . S
O1910 Li1850 1.956 . S
O1910 Li1851 1.970 . S
O1910 C1880 1.325 . S
O1911 Li1849 1.961 . S
O1911 Li1850 1.970 . S
O1911 Li1851 1.956 . S
O1911 C1886 1.325 . S
H1912 C1854 0.929 . S
H1913 C1855 0.930 . S
H1914 C1856 0.930 . S
H1915 C1857 0.930 . S
H1916 C1859 0.930 . S
H1917 C1861 0.929 . S
H1918 C1862 0.930 . S
H1919 C1863 0.930 . S
H1920 C1866 0.930 . S
H1921 C1869 0.929 . S
H1922 C1874 0.929 . S
H1923 C1875 0.930 . S
H1924 C1882 0.929 . S
H1925 C1883 0.930 . S
H1926 C1884 0.930 . S
H1927 C1885 0.930 . S
H1928 C1887 0.929 . S
H1929 C1888 0.930 . S
H1930 C1889 0.930 . S
H1931 C1890 0.930 . S
H1932 C1894 0.929 . S
H1933 C1896 0.930 . S
H1934 C1902 0.929 . S
H1935 C1903 0.930 1_556 S
Li1936 N1953 1.990 . S
Li1936 O1996 1.956 . S
Li1936 O1997 1.970 . S
Li1936 O1998 1.961 . S
Li1937 N1961 1.990 . S
Li1937 O1996 1.970 . S
Li1937 O1997 1.956 . S
Li1937 O1999 1.961 . S
Li1938 N1983 1.990 . S
Li1938 O1996 1.961 . S
Li1938 O1998 1.956 . S
Li1938 O1999 1.970 . S
Li1939 N1989 1.990 . S
Li1939 O1997 1.961 . S
Li1939 O1998 1.970 . S
Li1939 O1999 1.956 . S
C1940 C1942 1.348 . S
C1940 C1943 1.356 . S
C1940 O1996 1.325 . S
N1941 C1944 1.314 . S
N1941 C1945 1.279 . S
C1942 C1940 1.348 . S
C1942 C1944 1.353 . S
C1942 H2000 0.929 . S
C1943 C1940 1.356 . S
C1943 C1945 1.358 . S
C1943 H2001 0.930 . S
C1944 N1941 1.314 . S
C1944 C1942 1.353 . S
C1944 H2002 0.930 . S
C1945 N1941 1.279 . S
C1945 C1943 1.358 . S
C1945 H2003 0.930 . S
C1946 C1949 1.348 . S
C1946 C1950 1.356 . S
C1946 O1997 1.325 . S
C1947 N1948 1.279 . S
C1947 C1950 1.358 . S
C1947 H2004 0.930 . S
N1948 C1947 1.279 . S
N1948 C1951 1.314 . S
C1949 C1946 1.348 . S
C1949 C1951 1.353 . S
C1949 H2005 0.929 . S
C1950 C1946 1.356 . S
C1950 C1947 1.358 . S
C1950 H2006 0.930 . S
C1951 N1948 1.314 . S
C1951 C1949 1.353 . S
C1951 H2007 0.930 . S
C1952 N1953 1.314 . S
C1952 C1957 1.353 . S
C1952 H1958 0.930 . S
N1953 Li1936 1.990 . S
N1953 C1952 1.314 . S
N1953 C1955 1.279 . S
C1954 C1955 1.358 . S
C1954 C1956 1.356 . S
C1954 H2008 0.930 . S
C1955 N1953 1.279 . S
C1955 C1954 1.358 . S
C1955 H1959 0.930 . S
C1956 C1954 1.356 . S
C1956 C1957 1.348 . S
C1957 C1952 1.353 . S
C1957 C1956 1.348 . S
C1957 H2009 0.929 . S
H1958 C1952 0.930 . S
H1959 C1955 0.930 . S
C1960 N1961 1.314 . S
C1960 C1962 1.353 . S
C1960 H1966 0.930 . S
N1961 Li1937 1.990 . S
N1961 C1960 1.314 . S
N1961 C1964 1.279 . S
C1962 C1960 1.353 . S
C1962 C1965 1.348 . S
C1962 H2010 0.929 . S
C1963 C1964 1.358 . S
C1963 C1965 1.356 . S
C1963 H2011 0.930 . S
C1964 N1961 1.279 . S
C1964 C1963 1.358 . S
C1964 H1967 0.930 . S
C1965 C1962 1.348 . S
C1965 C1963 1.356 . S
H1966 C1960 0.930 . S
H1967 C1964 0.930 . S
C1968 C1970 1.348 . S
C1968 C1971 1.356 . S
C1968 O1998 1.325 . S
N1969 C1972 1.314 . S
N1969 C1973 1.279 . S
C1970 C1968 1.348 . S
C1970 C1972 1.353 . S
C1970 H2012 0.929 . S
C1971 C1968 1.356 . S
C1971 C1973 1.358 . S
C1971 H2013 0.930 . S
C1972 N1969 1.314 . S
C1972 C1970 1.353 . S
C1972 H2014 0.930 . S
C1973 N1969 1.279 . S
C1973 C1971 1.358 . S
C1973 H2015 0.930 . S
C1974 C1975 1.348 . S
C1974 C1976 1.356 . S
C1974 O1999 1.325 . S
C1975 C1974 1.348 . S
C1975 C1977 1.353 . S
C1975 H2016 0.929 . S
C1976 C1974 1.356 . S
C1976 C1978 1.358 . S
C1976 H2017 0.930 . S
C1977 C1975 1.353 . S
C1977 N1979 1.314 . S
C1977 H2018 0.930 . S
C1978 C1976 1.358 . S
C1978 N1979 1.279 . S
C1978 H2019 0.930 . S
N1979 C1977 1.314 . S
N1979 C1978 1.279 . S
C1980 C1982 1.353 . S
C1980 N1983 1.314 . S
C1980 H1986 0.930 . S
C1981 N1983 1.279 . S
C1981 C1984 1.358 . S
C1981 H1987 0.930 . S
C1982 C1980 1.353 . S
C1982 C1985 1.348 . S
C1982 H2020 0.929 . S
N1983 Li1938 1.990 . S
N1983 C1980 1.314 . S
N1983 C1981 1.279 . S
C1984 C1981 1.358 . S
C1984 C1985 1.356 . S
C1984 H2021 0.930 . S
C1985 C1982 1.348 . S
C1985 C1984 1.356 . S
H1986 C1980 0.930 . S
H1987 C1981 0.930 . S
C1988 N1989 1.314 . S
C1988 C1990 1.353 . S
C1988 H1994 0.930 . S
N1989 Li1939 1.990 . S
N1989 C1988 1.314 . S
N1989 C1992 1.279 . S
C1990 C1988 1.353 . S
C1990 C1993 1.348 . S
C1990 H2022 0.929 . S
C1991 C1992 1.358 . S
C1991 C1993 1.356 . S
C1991 H2023 0.930 . S
C1992 N1989 1.279 . S
C1992 C1991 1.358 . S
C1992 H1995 0.930 . S
C1993 C1990 1.348 . S
C1993 C1991 1.356 . S
H1994 C1988 0.930 . S
H1995 C1992 0.930 . S
O1996 Li1936 1.956 . S
O1996 Li1937 1.970 . S
O1996 Li1938 1.961 . S
O1996 C1940 1.325 . S
O1997 Li1936 1.970 . S
O1997 Li1937 1.956 . S
O1997 Li1939 1.961 . S
O1997 C1946 1.325 . S
O1998 Li1936 1.961 . S
O1998 Li1938 1.956 . S
O1998 Li1939 1.970 . S
O1998 C1968 1.325 . S
O1999 Li1937 1.961 . S
O1999 Li1938 1.970 . S
O1999 Li1939 1.956 . S
O1999 C1974 1.325 . S
H2000 C1942 0.929 . S
H2001 C1943 0.930 . S
H2002 C1944 0.930 . S
H2003 C1945 0.930 . S
H2004 C1947 0.930 . S
H2005 C1949 0.929 . S
H2006 C1950 0.930 . S
H2007 C1951 0.930 . S
H2008 C1954 0.930 . S
H2009 C1957 0.929 . S
H2010 C1962 0.929 . S
H2011 C1963 0.930 . S
H2012 C1970 0.929 . S
H2013 C1971 0.930 . S
H2014 C1972 0.930 . S
H2015 C1973 0.930 . S
H2016 C1975 0.929 . S
H2017 C1976 0.930 . S
H2018 C1977 0.930 . S
H2019 C1978 0.930 . S
H2020 C1982 0.929 . S
H2021 C1984 0.930 . S
H2022 C1990 0.929 . S
H2023 C1991 0.930 . S
Li2024 N2041 1.990 . S
Li2024 O2084 1.956 . S
Li2024 O2085 1.970 . S
Li2024 O2086 1.961 . S
Li2025 N2049 1.990 . S
Li2025 O2084 1.970 . S
Li2025 O2085 1.956 . S
Li2025 O2087 1.961 . S
Li2026 N2071 1.990 . S
Li2026 O2084 1.961 . S
Li2026 O2086 1.956 . S
Li2026 O2087 1.970 . S
Li2027 N2077 1.990 . S
Li2027 O2085 1.961 . S
Li2027 O2086 1.970 . S
Li2027 O2087 1.956 . S
C2028 C2030 1.348 . S
C2028 C2031 1.356 . S
C2028 O2084 1.325 . S
N2029 C2032 1.314 . S
N2029 C2033 1.261 1_655 S
C2030 C2028 1.348 . S
C2030 C2032 1.353 1_455 S
C2030 H2088 0.929 . S
C2031 C2028 1.356 . S
C2031 C2033 1.383 . S
C2031 H2089 0.930 . S
C2032 N2029 1.314 . S
C2032 C2030 1.353 1_655 S
C2032 H2090 0.930 . S
C2033 N2029 1.261 1_455 S
C2033 C2031 1.383 . S
C2033 H2091 0.924 1_455 S
C2034 C2037 1.348 . S
C2034 C2038 1.356 . S
C2034 O2085 1.325 . S
C2035 N2036 1.279 . S
C2035 C2038 1.358 . S
C2035 H2092 0.930 . S
N2036 C2035 1.279 . S
N2036 C2039 1.314 . S
C2037 C2034 1.348 . S
C2037 C2039 1.353 . S
C2037 H2093 0.929 . S
C2038 C2034 1.356 . S
C2038 C2035 1.358 . S
C2038 H2094 0.930 . S
C2039 N2036 1.314 . S
C2039 C2037 1.353 . S
C2039 H2095 0.930 . S
C2040 N2041 1.314 . S
C2040 C2045 1.353 . S
C2040 H2046 0.930 . S
N2041 Li2024 1.990 . S
N2041 C2040 1.314 . S
N2041 C2043 1.279 . S
C2042 C2043 1.358 . S
C2042 C2044 1.356 . S
C2042 H2096 0.930 . S
C2043 N2041 1.279 . S
C2043 C2042 1.358 . S
C2043 H2047 0.930 . S
C2044 C2042 1.356 . S
C2044 C2045 1.348 . S
C2045 C2040 1.353 . S
C2045 C2044 1.348 . S
C2045 H2097 0.929 . S
H2046 C2040 0.930 . S
H2047 C2043 0.930 . S
C2048 N2049 1.314 . S
C2048 C2050 1.351 1_455 S
C2048 H2054 0.930 . S
N2049 Li2025 1.990 . S
N2049 C2048 1.314 . S
N2049 C2052 1.279 . S
C2050 C2048 1.351 1_655 S
C2050 C2053 1.347 1_655 S
C2050 H2098 0.931 . S
C2051 C2052 1.358 . S
C2051 C2053 1.356 . S
C2051 H2099 0.930 . S
C2052 N2049 1.279 . S
C2052 C2051 1.358 . S
C2052 H2055 0.930 . S
C2053 C2050 1.347 1_455 S
C2053 C2051 1.356 . S
H2054 C2048 0.930 . S
H2055 C2052 0.930 . S
C2056 C2058 1.348 . S
C2056 C2059 1.356 . S
C2056 O2086 1.325 . S
N2057 C2060 1.314 . S
N2057 C2061 1.279 . S
C2058 C2056 1.348 . S
C2058 C2060 1.353 . S
C2058 H2100 0.929 . S
C2059 C2056 1.356 . S
C2059 C2061 1.358 . S
C2059 H2101 0.930 . S
C2060 N2057 1.314 . S
C2060 C2058 1.353 . S
C2060 H2102 0.930 . S
C2061 N2057 1.279 . S
C2061 C2059 1.358 . S
C2061 H2103 0.930 . S
C2062 C2063 1.348 . S
C2062 C2064 1.356 . S
C2062 O2087 1.325 . S
C2063 C2062 1.348 . S
C2063 C2065 1.353 . S
C2063 H2104 0.929 . S
C2064 C2062 1.356 . S
C2064 C2066 1.358 . S
C2064 H2105 0.930 . S
C2065 C2063 1.353 . S
C2065 N2067 1.314 . S
C2065 H2106 0.930 . S
C2066 C2064 1.358 . S
C2066 N2067 1.279 . S
C2066 H2107 0.930 . S
N2067 C2065 1.314 . S
N2067 C2066 1.279 . S
C2068 C2070 1.353 . S
C2068 N2071 1.314 . S
C2068 H2074 0.930 . S
C2069 N2071 1.279 . S
C2069 C2072 1.358 . S
C2069 H2075 0.930 . S
C2070 C2068 1.353 . S
C2070 C2073 1.348 . S
C2070 H2108 0.929 1_455 S
N2071 Li2026 1.990 . S
N2071 C2068 1.314 . S
N2071 C2069 1.279 . S
C2072 C2069 1.358 . S
C2072 C2073 1.356 . S
C2072 H2109 0.930 . S
C2073 C2070 1.348 . S
C2073 C2072 1.356 . S
H2074 C2068 0.930 . S
H2075 C2069 0.930 . S
C2076 N2077 1.314 . S
C2076 C2078 1.353 . S
C2076 H2082 0.930 . S
N2077 Li2027 1.990 . S
N2077 C2076 1.314 . S
N2077 C2080 1.279 . S
C2078 C2076 1.353 . S
C2078 C2081 1.348 . S
C2078 H2110 0.929 . S
C2079 C2080 1.358 . S
C2079 C2081 1.356 . S
C2079 H2111 0.930 . S
C2080 N2077 1.279 . S
C2080 C2079 1.358 . S
C2080 H2083 0.930 . S
C2081 C2078 1.348 . S
C2081 C2079 1.356 . S
H2082 C2076 0.930 . S
H2083 C2080 0.930 . S
O2084 Li2024 1.956 . S
O2084 Li2025 1.970 . S
O2084 Li2026 1.961 . S
O2084 C2028 1.325 . S
O2085 Li2024 1.970 . S
O2085 Li2025 1.956 . S
O2085 Li2027 1.961 . S
O2085 C2034 1.325 . S
O2086 Li2024 1.961 . S
O2086 Li2026 1.956 . S
O2086 Li2027 1.970 . S
O2086 C2056 1.325 . S
O2087 Li2025 1.961 . S
O2087 Li2026 1.970 . S
O2087 Li2027 1.956 . S
O2087 C2062 1.325 . S
H2088 C2030 0.929 . S
H2089 C2031 0.930 . S
H2090 C2032 0.930 . S
H2091 C2033 0.924 1_655 S
H2092 C2035 0.930 . S
H2093 C2037 0.929 . S
H2094 C2038 0.930 . S
H2095 C2039 0.930 . S
H2096 C2042 0.930 . S
H2097 C2045 0.929 . S
H2098 C2050 0.931 . S
H2099 C2051 0.930 . S
H2100 C2058 0.929 . S
H2101 C2059 0.930 . S
H2102 C2060 0.930 . S
H2103 C2061 0.930 . S
H2104 C2063 0.929 . S
H2105 C2064 0.930 . S
H2106 C2065 0.930 . S
H2107 C2066 0.930 . S
H2108 C2070 0.929 1_655 S
H2109 C2072 0.930 . S
H2110 C2078 0.929 . S
H2111 C2079 0.930 . S
Li2112 N2129 1.990 . S
Li2112 O2172 1.956 . S
Li2112 O2173 1.970 . S
Li2112 O2174 1.961 . S
Li2113 N2137 1.990 . S
Li2113 O2172 1.970 . S
Li2113 O2173 1.956 . S
Li2113 O2175 1.961 . S
Li2114 N2159 1.990 . S
Li2114 O2172 1.961 . S
Li2114 O2174 1.956 . S
Li2114 O2175 1.970 . S
Li2115 N2165 1.990 . S
Li2115 O2173 1.961 . S
Li2115 O2174 1.970 . S
Li2115 O2175 1.956 . S
C2116 C2118 1.348 . S
C2116 C2119 1.356 . S
C2116 O2172 1.325 . S
N2117 C2120 1.314 . S
N2117 C2121 1.279 . S
C2118 C2116 1.348 . S
C2118 C2120 1.353 . S
C2118 H2176 0.929 . S
C2119 C2116 1.356 . S
C2119 C2121 1.358 . S
C2119 H2177 0.930 . S
C2120 N2117 1.314 . S
C2120 C2118 1.353 . S
C2120 H2178 0.930 . S
C2121 N2117 1.279 . S
C2121 C2119 1.358 . S
C2121 H2179 0.930 . S
C2122 C2125 1.348 . S
C2122 C2126 1.356 . S
C2122 O2173 1.325 . S
C2123 N2124 1.279 . S
C2123 C2126 1.358 . S
C2123 H2180 0.930 . S
N2124 C2123 1.279 . S
N2124 C2127 1.314 . S
C2125 C2122 1.348 . S
C2125 C2127 1.353 . S
C2125 H2181 0.929 . S
C2126 C2122 1.356 . S
C2126 C2123 1.358 . S
C2126 H2182 0.930 . S
C2127 N2124 1.314 . S
C2127 C2125 1.353 . S
C2127 H2183 0.930 . S
C2128 N2129 1.314 . S
C2128 C2133 1.353 . S
C2128 H2134 0.930 . S
N2129 Li2112 1.990 . S
N2129 C2128 1.314 . S
N2129 C2131 1.279 . S
C2130 C2131 1.358 . S
C2130 C2132 1.356 . S
C2130 H2184 0.930 . S
C2131 N2129 1.279 . S
C2131 C2130 1.358 . S
C2131 H2135 0.930 . S
C2132 C2130 1.356 . S
C2132 C2133 1.348 . S
C2133 C2128 1.353 . S
C2133 C2132 1.348 . S
C2133 H2185 0.929 . S
H2134 C2128 0.930 . S
H2135 C2131 0.930 . S
C2136 N2137 1.314 . S
C2136 C2138 1.353 . S
C2136 H2142 0.930 . S
N2137 Li2113 1.990 . S
N2137 C2136 1.314 . S
N2137 C2140 1.279 . S
C2138 C2136 1.353 . S
C2138 C2141 1.348 . S
C2138 H2186 0.929 . S
C2139 C2140 1.358 . S
C2139 C2141 1.356 . S
C2139 H2187 0.930 . S
C2140 N2137 1.279 . S
C2140 C2139 1.358 . S
C2140 H2143 0.930 . S
C2141 C2138 1.348 . S
C2141 C2139 1.356 . S
H2142 C2136 0.930 . S
H2143 C2140 0.930 . S
C2144 C2146 1.348 . S
C2144 C2147 1.356 . S
C2144 O2174 1.325 . S
N2145 C2148 1.314 . S
N2145 C2149 1.279 . S
C2146 C2144 1.348 . S
C2146 C2148 1.353 . S
C2146 H2188 0.929 . S
C2147 C2144 1.356 . S
C2147 C2149 1.358 . S
C2147 H2189 0.930 . S
C2148 N2145 1.314 . S
C2148 C2146 1.353 . S
C2148 H2190 0.930 . S
C2149 N2145 1.279 . S
C2149 C2147 1.358 . S
C2149 H2191 0.930 . S
C2150 C2151 1.348 . S
C2150 C2152 1.356 . S
C2150 O2175 1.325 . S
C2151 C2150 1.348 . S
C2151 C2153 1.353 . S
C2151 H2192 0.929 . S
C2152 C2150 1.356 . S
C2152 C2154 1.358 . S
C2152 H2193 0.930 . S
C2153 C2151 1.353 . S
C2153 N2155 1.314 . S
C2153 H2194 0.930 . S
C2154 C2152 1.358 . S
C2154 N2155 1.279 . S
C2154 H2195 0.930 . S
N2155 C2153 1.314 . S
N2155 C2154 1.279 . S
C2156 C2158 1.353 . S
C2156 N2159 1.314 . S
C2156 H2162 0.930 . S
C2157 N2159 1.279 . S
C2157 C2160 1.358 . S
C2157 H2163 0.930 . S
C2158 C2156 1.353 . S
C2158 C2161 1.348 . S
C2158 H2196 0.929 . S
N2159 Li2114 1.990 . S
N2159 C2156 1.314 . S
N2159 C2157 1.279 . S
C2160 C2157 1.358 . S
C2160 C2161 1.356 . S
C2160 H2197 0.930 . S
C2161 C2158 1.348 . S
C2161 C2160 1.356 . S
H2162 C2156 0.930 . S
H2163 C2157 0.930 . S
C2164 N2165 1.314 . S
C2164 C2166 1.353 . S
C2164 H2170 0.930 . S
N2165 Li2115 1.990 . S
N2165 C2164 1.314 . S
N2165 C2168 1.279 . S
C2166 C2164 1.353 . S
C2166 C2169 1.348 . S
C2166 H2198 0.929 . S
C2167 C2168 1.358 . S
C2167 C2169 1.356 . S
C2167 H2199 0.930 . S
C2168 N2165 1.279 . S
C2168 C2167 1.358 . S
C2168 H2171 0.930 . S
C2169 C2166 1.348 . S
C2169 C2167 1.356 . S
H2170 C2164 0.930 . S
H2171 C2168 0.930 . S
O2172 Li2112 1.956 . S
O2172 Li2113 1.970 . S
O2172 Li2114 1.961 . S
O2172 C2116 1.325 . S
O2173 Li2112 1.970 . S
O2173 Li2113 1.956 . S
O2173 Li2115 1.961 . S
O2173 C2122 1.325 . S
O2174 Li2112 1.961 . S
O2174 Li2114 1.956 . S
O2174 Li2115 1.970 . S
O2174 C2144 1.325 . S
O2175 Li2113 1.961 . S
O2175 Li2114 1.970 . S
O2175 Li2115 1.956 . S
O2175 C2150 1.325 . S
H2176 C2118 0.929 . S
H2177 C2119 0.930 . S
H2178 C2120 0.930 . S
H2179 C2121 0.930 . S
H2180 C2123 0.930 . S
H2181 C2125 0.929 . S
H2182 C2126 0.930 . S
H2183 C2127 0.930 . S
H2184 C2130 0.930 . S
H2185 C2133 0.929 . S
H2186 C2138 0.929 . S
H2187 C2139 0.930 . S
H2188 C2146 0.929 . S
H2189 C2147 0.930 . S
H2190 C2148 0.930 . S
H2191 C2149 0.930 . S
H2192 C2151 0.929 . S
H2193 C2152 0.930 . S
H2194 C2153 0.930 . S
H2195 C2154 0.930 . S
H2196 C2158 0.929 . S
H2197 C2160 0.930 . S
H2198 C2166 0.929 . S
H2199 C2167 0.930 . S
Li2200 N2217 1.990 . S
Li2200 O2260 1.956 . S
Li2200 O2261 1.970 . S
Li2200 O2262 1.961 . S
Li2201 N2225 1.990 . S
Li2201 O2260 1.970 . S
Li2201 O2261 1.956 . S
Li2201 O2263 1.961 . S
Li2202 N2247 1.990 . S
Li2202 O2260 1.961 . S
Li2202 O2262 1.956 . S
Li2202 O2263 1.970 . S
Li2203 N2253 1.990 . S
Li2203 O2261 1.961 . S
Li2203 O2262 1.970 . S
Li2203 O2263 1.956 . S
C2204 C2206 1.348 . S
C2204 C2207 1.356 . S
C2204 O2260 1.325 . S
N2205 C2208 1.314 . S
N2205 C2209 1.279 . S
C2206 C2204 1.348 . S
C2206 C2208 1.353 . S
C2206 H2264 0.929 . S
C2207 C2204 1.356 . S
C2207 C2209 1.358 . S
C2207 H2265 0.930 . S
C2208 N2205 1.314 . S
C2208 C2206 1.353 . S
C2208 H2266 0.930 . S
C2209 N2205 1.279 . S
C2209 C2207 1.358 . S
C2209 H2267 0.930 . S
C2210 C2213 1.348 . S
C2210 C2214 1.356 . S
C2210 O2261 1.325 . S
C2211 N2212 1.279 . S
C2211 C2214 1.358 . S
C2211 H2268 0.930 . S
N2212 C2211 1.279 . S
N2212 C2215 1.314 . S
C2213 C2210 1.348 . S
C2213 C2215 1.353 . S
C2213 H2269 0.929 . S
C2214 C2210 1.356 . S
C2214 C2211 1.358 . S
C2214 H2270 0.930 . S
C2215 N2212 1.314 . S
C2215 C2213 1.353 . S
C2215 H2271 0.930 . S
C2216 N2217 1.314 . S
C2216 C2221 1.353 . S
C2216 H2222 0.930 . S
N2217 Li2200 1.990 . S
N2217 C2216 1.314 . S
N2217 C2219 1.279 . S
C2218 C2219 1.358 . S
C2218 C2220 1.356 . S
C2218 H2272 0.930 . S
C2219 N2217 1.279 . S
C2219 C2218 1.358 . S
C2219 H2223 0.930 . S
C2220 C2218 1.356 . S
C2220 C2221 1.348 . S
C2221 C2216 1.353 . S
C2221 C2220 1.348 . S
C2221 H2273 0.929 . S
H2222 C2216 0.930 . S
H2223 C2219 0.930 . S
C2224 N2225 1.314 . S
C2224 C2226 1.353 . S
C2224 H2230 0.930 . S
N2225 Li2201 1.990 . S
N2225 C2224 1.314 . S
N2225 C2228 1.279 . S
C2226 C2224 1.353 . S
C2226 C2229 1.348 . S
C2226 H2274 0.929 . S
C2227 C2228 1.358 . S
C2227 C2229 1.356 . S
C2227 H2275 0.930 . S
C2228 N2225 1.279 . S
C2228 C2227 1.358 . S
C2228 H2231 0.930 . S
C2229 C2226 1.348 . S
C2229 C2227 1.356 . S
H2230 C2224 0.930 . S
H2231 C2228 0.930 . S
C2232 C2234 1.348 . S
C2232 C2235 1.356 . S
C2232 O2262 1.325 . S
N2233 C2236 1.314 . S
N2233 C2237 1.279 . S
C2234 C2232 1.348 . S
C2234 C2236 1.353 . S
C2234 H2276 0.929 . S
C2235 C2232 1.356 . S
C2235 C2237 1.358 . S
C2235 H2277 0.930 . S
C2236 N2233 1.314 . S
C2236 C2234 1.353 . S
C2236 H2278 0.930 . S
C2237 N2233 1.279 . S
C2237 C2235 1.358 . S
C2237 H2279 0.930 . S
C2238 C2239 1.348 . S
C2238 C2240 1.356 . S
C2238 O2263 1.325 . S
C2239 C2238 1.348 . S
C2239 C2241 1.353 . S
C2239 H2280 0.929 . S
C2240 C2238 1.356 . S
C2240 C2242 1.358 . S
C2240 H2281 0.930 . S
C2241 C2239 1.353 . S
C2241 N2243 1.314 . S
C2241 H2282 0.930 . S
C2242 C2240 1.358 . S
C2242 N2243 1.279 . S
C2242 H2283 0.930 . S
N2243 C2241 1.314 . S
N2243 C2242 1.279 . S
C2244 C2246 1.353 . S
C2244 N2247 1.314 . S
C2244 H2250 0.930 . S
C2245 N2247 1.279 . S
C2245 C2248 1.358 . S
C2245 H2251 0.930 . S
C2246 C2244 1.353 . S
C2246 C2249 1.348 . S
C2246 H2284 0.929 . S
N2247 Li2202 1.990 . S
N2247 C2244 1.314 . S
N2247 C2245 1.279 . S
C2248 C2245 1.358 . S
C2248 C2249 1.356 . S
C2248 H2285 0.930 . S
C2249 C2246 1.348 . S
C2249 C2248 1.356 . S
H2250 C2244 0.930 . S
H2251 C2245 0.930 . S
C2252 N2253 1.314 . S
C2252 C2254 1.353 . S
C2252 H2258 0.930 . S
N2253 Li2203 1.990 . S
N2253 C2252 1.314 . S
N2253 C2256 1.279 . S
C2254 C2252 1.353 . S
C2254 C2257 1.348 . S
C2254 H2286 0.929 . S
C2255 C2256 1.358 . S
C2255 C2257 1.356 . S
C2255 H2287 0.930 . S
C2256 N2253 1.279 . S
C2256 C2255 1.358 . S
C2256 H2259 0.930 . S
C2257 C2254 1.348 . S
C2257 C2255 1.356 . S
H2258 C2252 0.930 . S
H2259 C2256 0.930 . S
O2260 Li2200 1.956 . S
O2260 Li2201 1.970 . S
O2260 Li2202 1.961 . S
O2260 C2204 1.325 . S
O2261 Li2200 1.970 . S
O2261 Li2201 1.956 . S
O2261 Li2203 1.961 . S
O2261 C2210 1.325 . S
O2262 Li2200 1.961 . S
O2262 Li2202 1.956 . S
O2262 Li2203 1.970 . S
O2262 C2232 1.325 . S
O2263 Li2201 1.961 . S
O2263 Li2202 1.970 . S
O2263 Li2203 1.956 . S
O2263 C2238 1.325 . S
H2264 C2206 0.929 . S
H2265 C2207 0.930 . S
H2266 C2208 0.930 . S
H2267 C2209 0.930 . S
H2268 C2211 0.930 . S
H2269 C2213 0.929 . S
H2270 C2214 0.930 . S
H2271 C2215 0.930 . S
H2272 C2218 0.930 . S
H2273 C2221 0.929 . S
H2274 C2226 0.929 . S
H2275 C2227 0.930 . S
H2276 C2234 0.929 . S
H2277 C2235 0.930 . S
H2278 C2236 0.930 . S
H2279 C2237 0.930 . S
H2280 C2239 0.929 . S
H2281 C2240 0.930 . S
H2282 C2241 0.930 . S
H2283 C2242 0.930 . S
H2284 C2246 0.929 . S
H2285 C2248 0.930 . S
H2286 C2254 0.929 . S
H2287 C2255 0.930 . S
Li2288 N2305 1.990 . S
Li2288 O2348 1.956 . S
Li2288 O2349 1.970 . S
Li2288 O2350 1.961 . S
Li2289 N2313 1.990 . S
Li2289 O2348 1.970 . S
Li2289 O2349 1.956 . S
Li2289 O2351 1.961 . S
Li2290 N2335 1.990 . S
Li2290 O2348 1.961 . S
Li2290 O2350 1.956 . S
Li2290 O2351 1.970 . S
Li2291 N2341 1.990 . S
Li2291 O2349 1.961 . S
Li2291 O2350 1.970 . S
Li2291 O2351 1.956 . S
C2292 C2294 1.348 . S
C2292 C2295 1.356 . S
C2292 O2348 1.325 . S
N2293 C2296 1.314 . S
N2293 C2297 1.279 . S
C2294 C2292 1.348 . S
C2294 C2296 1.353 . S
C2294 H2352 0.929 . S
C2295 C2292 1.356 . S
C2295 C2297 1.358 . S
C2295 H2353 0.930 . S
C2296 N2293 1.314 . S
C2296 C2294 1.353 . S
C2296 H2354 0.930 . S
C2297 N2293 1.279 . S
C2297 C2295 1.358 . S
C2297 H2355 0.930 . S
C2298 C2301 1.348 . S
C2298 C2302 1.356 . S
C2298 O2349 1.325 . S
C2299 N2300 1.279 . S
C2299 C2302 1.358 . S
C2299 H2356 0.930 . S
N2300 C2299 1.279 . S
N2300 C2303 1.314 . S
C2301 C2298 1.348 . S
C2301 C2303 1.353 . S
C2301 H2357 0.929 . S
C2302 C2298 1.356 . S
C2302 C2299 1.358 . S
C2302 H2358 0.930 . S
C2303 N2300 1.314 . S
C2303 C2301 1.353 . S
C2303 H2359 0.930 . S
C2304 N2305 1.314 . S
C2304 C2309 1.353 . S
C2304 H2310 0.930 . S
N2305 Li2288 1.990 . S
N2305 C2304 1.314 . S
N2305 C2307 1.279 . S
C2306 C2307 1.358 . S
C2306 C2308 1.356 . S
C2306 H2360 0.930 . S
C2307 N2305 1.279 . S
C2307 C2306 1.358 . S
C2307 H2311 0.930 . S
C2308 C2306 1.356 . S
C2308 C2309 1.348 . S
C2309 C2304 1.353 . S
C2309 C2308 1.348 . S
C2309 H2361 0.929 . S
H2310 C2304 0.930 . S
H2311 C2307 0.930 . S
C2312 N2313 1.314 . S
C2312 C2314 1.353 . S
C2312 H2318 0.930 . S
N2313 Li2289 1.990 . S
N2313 C2312 1.314 . S
N2313 C2316 1.279 . S
C2314 C2312 1.353 . S
C2314 C2317 1.348 . S
C2314 H2362 0.929 . S
C2315 C2316 1.358 . S
C2315 C2317 1.356 . S
C2315 H2363 0.930 . S
C2316 N2313 1.279 . S
C2316 C2315 1.358 . S
C2316 H2319 0.930 . S
C2317 C2314 1.348 . S
C2317 C2315 1.356 . S
H2318 C2312 0.930 . S
H2319 C2316 0.930 . S
C2320 C2322 1.348 . S
C2320 C2323 1.356 . S
C2320 O2350 1.325 . S
N2321 C2324 1.314 . S
N2321 C2325 1.279 . S
C2322 C2320 1.348 . S
C2322 C2324 1.353 . S
C2322 H2364 0.929 . S
C2323 C2320 1.356 . S
C2323 C2325 1.358 . S
C2323 H2365 0.930 . S
C2324 N2321 1.314 . S
C2324 C2322 1.353 . S
C2324 H2366 0.930 . S
C2325 N2321 1.279 . S
C2325 C2323 1.358 . S
C2325 H2367 0.930 . S
C2326 C2327 1.348 . S
C2326 C2328 1.356 . S
C2326 O2351 1.325 . S
C2327 C2326 1.348 . S
C2327 C2329 1.353 . S
C2327 H2368 0.929 . S
C2328 C2326 1.356 . S
C2328 C2330 1.358 . S
C2328 H2369 0.930 . S
C2329 C2327 1.353 . S
C2329 N2331 1.314 . S
C2329 H2370 0.930 . S
C2330 C2328 1.358 . S
C2330 N2331 1.279 . S
C2330 H2371 0.930 . S
N2331 C2329 1.314 . S
N2331 C2330 1.279 . S
C2332 C2334 1.353 . S
C2332 N2335 1.314 . S
C2332 H2338 0.930 . S
C2333 N2335 1.279 . S
C2333 C2336 1.358 . S
C2333 H2339 0.930 . S
C2334 C2332 1.353 . S
C2334 C2337 1.348 . S
C2334 H2372 0.929 . S
N2335 Li2290 1.990 . S
N2335 C2332 1.314 . S
N2335 C2333 1.279 . S
C2336 C2333 1.358 . S
C2336 C2337 1.356 . S
C2336 H2373 0.930 . S
C2337 C2334 1.348 . S
C2337 C2336 1.356 . S
H2338 C2332 0.930 . S
H2339 C2333 0.930 . S
C2340 N2341 1.314 . S
C2340 C2342 1.353 . S
C2340 H2346 0.930 . S
N2341 Li2291 1.990 . S
N2341 C2340 1.314 . S
N2341 C2344 1.279 . S
C2342 C2340 1.353 . S
C2342 C2345 1.348 . S
C2342 H2374 0.929 . S
C2343 C2344 1.358 . S
C2343 C2345 1.356 . S
C2343 H2375 0.930 . S
C2344 N2341 1.279 . S
C2344 C2343 1.358 . S
C2344 H2347 0.930 . S
C2345 C2342 1.348 . S
C2345 C2343 1.356 . S
H2346 C2340 0.930 . S
H2347 C2344 0.930 . S
O2348 Li2288 1.956 . S
O2348 Li2289 1.970 . S
O2348 Li2290 1.961 . S
O2348 C2292 1.325 . S
O2349 Li2288 1.970 . S
O2349 Li2289 1.956 . S
O2349 Li2291 1.961 . S
O2349 C2298 1.325 . S
O2350 Li2288 1.961 . S
O2350 Li2290 1.956 . S
O2350 Li2291 1.970 . S
O2350 C2320 1.325 . S
O2351 Li2289 1.961 . S
O2351 Li2290 1.970 . S
O2351 Li2291 1.956 . S
O2351 C2326 1.325 . S
H2352 C2294 0.929 . S
H2353 C2295 0.930 . S
H2354 C2296 0.930 . S
H2355 C2297 0.930 . S
H2356 C2299 0.930 . S
H2357 C2301 0.929 . S
H2358 C2302 0.930 . S
H2359 C2303 0.930 . S
H2360 C2306 0.930 . S
H2361 C2309 0.929 . S
H2362 C2314 0.929 . S
H2363 C2315 0.930 . S
H2364 C2322 0.929 . S
H2365 C2323 0.930 . S
H2366 C2324 0.930 . S
H2367 C2325 0.930 . S
H2368 C2327 0.929 . S
H2369 C2328 0.930 . S
H2370 C2329 0.930 . S
H2371 C2330 0.930 . S
H2372 C2334 0.929 . S
H2373 C2336 0.930 . S
H2374 C2342 0.929 . S
H2375 C2343 0.930 . S
Li2376 N2393 1.990 . S
Li2376 O2436 1.956 . S
Li2376 O2437 1.970 . S
Li2376 O2438 1.961 . S
Li2377 N2401 1.990 . S
Li2377 O2436 1.970 . S
Li2377 O2437 1.956 . S
Li2377 O2439 1.961 . S
Li2378 N2423 1.990 . S
Li2378 O2436 1.961 . S
Li2378 O2438 1.956 . S
Li2378 O2439 1.970 . S
Li2379 N2429 1.990 . S
Li2379 O2437 1.961 . S
Li2379 O2438 1.970 . S
Li2379 O2439 1.956 . S
C2380 C2382 1.348 . S
C2380 C2383 1.356 . S
C2380 O2436 1.325 . S
N2381 C2384 1.314 . S
N2381 C2385 1.299 . S
C2382 C2380 1.348 . S
C2382 C2384 1.353 1_655 S
C2382 H2440 0.929 . S
C2383 C2380 1.356 . S
C2383 C2385 1.331 1_655 S
C2383 H2441 0.930 . S
C2384 N2381 1.314 . S
C2384 C2382 1.353 1_455 S
C2384 H2442 0.930 . S
C2385 N2381 1.299 . S
C2385 C2383 1.331 1_455 S
C2385 H2443 0.940 . S
C2386 C2389 1.348 . S
C2386 C2390 1.356 . S
C2386 O2437 1.325 . S
C2387 N2388 1.279 . S
C2387 C2390 1.358 . S
C2387 H2444 0.930 . S
N2388 C2387 1.279 . S
N2388 C2391 1.314 . S
C2389 C2386 1.348 . S
C2389 C2391 1.353 . S
C2389 H2445 0.929 . S
C2390 C2386 1.356 . S
C2390 C2387 1.358 . S
C2390 H2446 0.930 . S
C2391 N2388 1.314 . S
C2391 C2389 1.353 . S
C2391 H2447 0.930 . S
C2392 N2393 1.314 . S
C2392 C2397 1.353 . S
C2392 H2398 0.930 . S
N2393 Li2376 1.990 . S
N2393 C2392 1.314 . S
N2393 C2395 1.279 . S
C2394 C2395 1.358 . S
C2394 C2396 1.356 . S
C2394 H2448 0.930 . S
C2395 N2393 1.279 . S
C2395 C2394 1.358 . S
C2395 H2399 0.930 . S
C2396 C2394 1.356 . S
C2396 C2397 1.348 . S
C2397 C2392 1.353 . S
C2397 C2396 1.348 . S
C2397 H2449 0.929 . S
H2398 C2392 0.930 . S
H2399 C2395 0.930 . S
C2400 N2401 1.314 . S
C2400 C2402 1.353 . S
C2400 H2406 0.930 . S
N2401 Li2377 1.990 . S
N2401 C2400 1.314 . S
N2401 C2404 1.279 . S
C2402 C2400 1.353 . S
C2402 C2405 1.348 . S
C2402 H2450 0.929 1_655 S
C2403 C2404 1.358 . S
C2403 C2405 1.356 . S
C2403 H2451 0.930 . S
C2404 N2401 1.279 . S
C2404 C2403 1.358 . S
C2404 H2407 0.930 . S
C2405 C2402 1.348 . S
C2405 C2403 1.356 . S
H2406 C2400 0.930 . S
H2407 C2404 0.930 . S
C2408 C2410 1.348 . S
C2408 C2411 1.356 . S
C2408 O2438 1.325 . S
N2409 C2412 1.314 . S
N2409 C2413 1.279 . S
C2410 C2408 1.348 . S
C2410 C2412 1.353 . S
C2410 H2452 0.929 . S
C2411 C2408 1.356 . S
C2411 C2413 1.358 . S
C2411 H2453 0.930 . S
C2412 N2409 1.314 . S
C2412 C2410 1.353 . S
C2412 H2454 0.930 . S
C2413 N2409 1.279 . S
C2413 C2411 1.358 . S
C2413 H2455 0.930 . S
C2414 C2415 1.348 . S
C2414 C2416 1.356 . S
C2414 O2439 1.325 . S
C2415 C2414 1.348 . S
C2415 C2417 1.353 1_554 S
C2415 H2456 0.929 . S
C2416 C2414 1.356 . S
C2416 C2418 1.358 . S
C2416 H2457 0.930 . S
C2417 C2415 1.353 1_556 S
C2417 N2419 1.314 . S
C2417 H2458 0.930 . S
C2418 C2416 1.358 . S
C2418 N2419 1.279 1_554 S
C2418 H2459 0.930 . S
N2419 C2417 1.314 . S
N2419 C2418 1.279 1_556 S
C2420 C2422 1.353 1_655 S
C2420 N2423 1.314 . S
C2420 H2426 0.930 . S
C2421 N2423 1.279 . S
C2421 C2424 1.358 . S
C2421 H2427 0.930 . S
C2422 C2420 1.353 1_455 S
C2422 C2425 1.348 1_455 S
C2422 H2460 0.929 . S
N2423 Li2378 1.990 . S
N2423 C2420 1.314 . S
N2423 C2421 1.279 . S
C2424 C2421 1.358 . S
C2424 C2425 1.356 . S
C2424 H2461 0.930 1_554 S
C2425 C2422 1.348 1_655 S
C2425 C2424 1.356 . S
H2426 C2420 0.930 . S
H2427 C2421 0.930 . S
C2428 N2429 1.314 . S
C2428 C2430 1.353 . S
C2428 H2434 0.930 . S
N2429 Li2379 1.990 . S
N2429 C2428 1.314 . S
N2429 C2432 1.279 . S
C2430 C2428 1.353 . S
C2430 C2433 1.348 . S
C2430 H2462 0.929 . S
C2431 C2432 1.358 . S
C2431 C2433 1.356 . S
C2431 H2463 0.930 1_554 S
C2432 N2429 1.279 . S
C2432 C2431 1.358 . S
C2432 H2435 0.930 . S
C2433 C2430 1.348 . S
C2433 C2431 1.356 . S
H2434 C2428 0.930 . S
H2435 C2432 0.930 . S
O2436 Li2376 1.956 . S
O2436 Li2377 1.970 . S
O2436 Li2378 1.961 . S
O2436 C2380 1.325 . S
O2437 Li2376 1.970 . S
O2437 Li2377 1.956 . S
O2437 Li2379 1.961 . S
O2437 C2386 1.325 . S
O2438 Li2376 1.961 . S
O2438 Li2378 1.956 . S
O2438 Li2379 1.970 . S
O2438 C2408 1.325 . S
O2439 Li2377 1.961 . S
O2439 Li2378 1.970 . S
O2439 Li2379 1.956 . S
O2439 C2414 1.325 . S
H2440 C2382 0.929 . S
H2441 C2383 0.930 . S
H2442 C2384 0.930 . S
H2443 C2385 0.940 . S
H2444 C2387 0.930 . S
H2445 C2389 0.929 . S
H2446 C2390 0.930 . S
H2447 C2391 0.930 . S
H2448 C2394 0.930 . S
H2449 C2397 0.929 . S
H2450 C2402 0.929 1_455 S
H2451 C2403 0.930 . S
H2452 C2410 0.929 . S
H2453 C2411 0.930 . S
H2454 C2412 0.930 . S
H2455 C2413 0.930 . S
H2456 C2415 0.929 . S
H2457 C2416 0.930 . S
H2458 C2417 0.930 . S
H2459 C2418 0.930 . S
H2460 C2422 0.929 . S
H2461 C2424 0.930 1_556 S
H2462 C2430 0.929 . S
H2463 C2431 0.930 1_556 S
Li2464 N2481 1.990 . S
Li2464 O2524 1.956 . S
Li2464 O2525 1.970 . S
Li2464 O2526 1.961 . S
Li2465 N2489 1.990 . S
Li2465 O2524 1.970 . S
Li2465 O2525 1.956 . S
Li2465 O2527 1.961 . S
Li2466 N2511 1.990 . S
Li2466 O2524 1.961 . S
Li2466 O2526 1.956 . S
Li2466 O2527 1.970 . S
Li2467 N2517 1.990 . S
Li2467 O2525 1.961 . S
Li2467 O2526 1.970 . S
Li2467 O2527 1.956 . S
C2468 C2470 1.348 . S
C2468 C2471 1.356 . S
C2468 O2524 1.325 . S
N2469 C2472 1.314 . S
N2469 C2473 1.279 . S
C2470 C2468 1.348 . S
C2470 C2472 1.353 . S
C2470 H2528 0.929 . S
C2471 C2468 1.356 . S
C2471 C2473 1.358 . S
C2471 H2529 0.930 . S
C2472 N2469 1.314 . S
C2472 C2470 1.353 . S
C2472 H2530 0.930 . S
C2473 N2469 1.279 . S
C2473 C2471 1.358 . S
C2473 H2531 0.930 . S
C2474 C2477 1.348 . S
C2474 C2478 1.356 . S
C2474 O2525 1.325 . S
C2475 N2476 1.279 . S
C2475 C2478 1.358 . S
C2475 H2532 0.930 . S
N2476 C2475 1.279 . S
N2476 C2479 1.314 . S
C2477 C2474 1.348 . S
C2477 C2479 1.353 . S
C2477 H2533 0.929 . S
C2478 C2474 1.356 . S
C2478 C2475 1.358 . S
C2478 H2534 0.930 . S
C2479 N2476 1.314 . S
C2479 C2477 1.353 . S
C2479 H2535 0.930 . S
C2480 N2481 1.314 . S
C2480 C2485 1.353 . S
C2480 H2486 0.930 . S
N2481 Li2464 1.990 . S
N2481 C2480 1.314 . S
N2481 C2483 1.279 . S
C2482 C2483 1.358 . S
C2482 C2484 1.356 . S
C2482 H2536 0.930 . S
C2483 N2481 1.279 . S
C2483 C2482 1.358 . S
C2483 H2487 0.930 . S
C2484 C2482 1.356 . S
C2484 C2485 1.348 . S
C2485 C2480 1.353 . S
C2485 C2484 1.348 . S
C2485 H2537 0.929 . S
H2486 C2480 0.930 . S
H2487 C2483 0.930 . S
C2488 N2489 1.314 . S
C2488 C2490 1.353 . S
C2488 H2494 0.930 . S
N2489 Li2465 1.990 . S
N2489 C2488 1.314 . S
N2489 C2492 1.279 . S
C2490 C2488 1.353 . S
C2490 C2493 1.348 . S
C2490 H2538 0.929 . S
C2491 C2492 1.358 . S
C2491 C2493 1.356 . S
C2491 H2539 0.930 . S
C2492 N2489 1.279 . S
C2492 C2491 1.358 . S
C2492 H2495 0.930 . S
C2493 C2490 1.348 . S
C2493 C2491 1.356 . S
H2494 C2488 0.930 . S
H2495 C2492 0.930 . S
C2496 C2498 1.348 . S
C2496 C2499 1.356 . S
C2496 O2526 1.325 . S
N2497 C2500 1.314 . S
N2497 C2501 1.279 . S
C2498 C2496 1.348 . S
C2498 C2500 1.353 . S
C2498 H2540 0.929 . S
C2499 C2496 1.356 . S
C2499 C2501 1.358 . S
C2499 H2541 0.930 . S
C2500 N2497 1.314 . S
C2500 C2498 1.353 . S
C2500 H2542 0.930 . S
C2501 N2497 1.279 . S
C2501 C2499 1.358 . S
C2501 H2543 0.930 . S
C2502 C2503 1.348 . S
C2502 C2504 1.356 . S
C2502 O2527 1.325 . S
C2503 C2502 1.348 . S
C2503 C2505 1.353 . S
C2503 H2544 0.929 . S
C2504 C2502 1.356 . S
C2504 C2506 1.358 . S
C2504 H2545 0.930 . S
C2505 C2503 1.353 . S
C2505 N2507 1.314 . S
C2505 H2546 0.930 . S
C2506 C2504 1.358 . S
C2506 N2507 1.279 . S
C2506 H2547 0.930 . S
N2507 C2505 1.314 . S
N2507 C2506 1.279 . S
C2508 C2510 1.353 . S
C2508 N2511 1.314 . S
C2508 H2514 0.930 . S
C2509 N2511 1.279 . S
C2509 C2512 1.358 . S
C2509 H2515 0.930 . S
C2510 C2508 1.353 . S
C2510 C2513 1.348 . S
C2510 H2548 0.929 . S
N2511 Li2466 1.990 . S
N2511 C2508 1.314 . S
N2511 C2509 1.279 . S
C2512 C2509 1.358 . S
C2512 C2513 1.356 . S
C2512 H2549 0.930 . S
C2513 C2510 1.348 . S
C2513 C2512 1.356 . S
H2514 C2508 0.930 . S
H2515 C2509 0.930 . S
C2516 N2517 1.314 . S
C2516 C2518 1.353 . S
C2516 H2522 0.930 . S
N2517 Li2467 1.990 . S
N2517 C2516 1.314 . S
N2517 C2520 1.279 . S
C2518 C2516 1.353 . S
C2518 C2521 1.348 . S
C2518 H2550 0.929 . S
C2519 C2520 1.358 . S
C2519 C2521 1.356 . S
C2519 H2551 0.930 . S
C2520 N2517 1.279 . S
C2520 C2519 1.358 . S
C2520 H2523 0.930 . S
C2521 C2518 1.348 . S
C2521 C2519 1.356 . S
H2522 C2516 0.930 . S
H2523 C2520 0.930 . S
O2524 Li2464 1.956 . S
O2524 Li2465 1.970 . S
O2524 Li2466 1.961 . S
O2524 C2468 1.325 . S
O2525 Li2464 1.970 . S
O2525 Li2465 1.956 . S
O2525 Li2467 1.961 . S
O2525 C2474 1.325 . S
O2526 Li2464 1.961 . S
O2526 Li2466 1.956 . S
O2526 Li2467 1.970 . S
O2526 C2496 1.325 . S
O2527 Li2465 1.961 . S
O2527 Li2466 1.970 . S
O2527 Li2467 1.956 . S
O2527 C2502 1.325 . S
H2528 C2470 0.929 . S
H2529 C2471 0.930 . S
H2530 C2472 0.930 . S
H2531 C2473 0.930 . S
H2532 C2475 0.930 . S
H2533 C2477 0.929 . S
H2534 C2478 0.930 . S
H2535 C2479 0.930 . S
H2536 C2482 0.930 . S
H2537 C2485 0.929 . S
H2538 C2490 0.929 . S
H2539 C2491 0.930 . S
H2540 C2498 0.929 . S
H2541 C2499 0.930 . S
H2542 C2500 0.930 . S
H2543 C2501 0.930 . S
H2544 C2503 0.929 . S
H2545 C2504 0.930 . S
H2546 C2505 0.930 . S
H2547 C2506 0.930 . S
H2548 C2510 0.929 . S
H2549 C2512 0.930 . S
H2550 C2518 0.929 . S
H2551 C2519 0.930 . S
Li2552 N2569 1.990 . S
Li2552 O2612 1.956 . S
Li2552 O2613 1.970 . S
Li2552 O2614 1.961 . S
Li2553 N2577 1.990 . S
Li2553 O2612 1.970 . S
Li2553 O2613 1.956 . S
Li2553 O2615 1.961 . S
Li2554 N2599 1.990 . S
Li2554 O2612 1.961 . S
Li2554 O2614 1.956 . S
Li2554 O2615 1.970 . S
Li2555 N2605 1.990 . S
Li2555 O2613 1.961 . S
Li2555 O2614 1.970 . S
Li2555 O2615 1.956 . S
C2556 C2558 1.348 . S
C2556 C2559 1.356 . S
C2556 O2612 1.325 . S
N2557 C2560 1.314 . S
N2557 C2561 1.279 . S
C2558 C2556 1.348 . S
C2558 C2560 1.353 . S
C2558 H2616 0.929 . S
C2559 C2556 1.356 . S
C2559 C2561 1.358 . S
C2559 H2617 0.930 . S
C2560 N2557 1.314 . S
C2560 C2558 1.353 . S
C2560 H2618 0.930 . S
C2561 N2557 1.279 . S
C2561 C2559 1.358 . S
C2561 H2619 0.930 . S
C2562 C2565 1.348 . S
C2562 C2566 1.356 . S
C2562 O2613 1.325 . S
C2563 N2564 1.279 . S
C2563 C2566 1.358 . S
C2563 H2620 0.930 . S
N2564 C2563 1.279 . S
N2564 C2567 1.314 . S
C2565 C2562 1.348 . S
C2565 C2567 1.353 . S
C2565 H2621 0.929 . S
C2566 C2562 1.356 . S
C2566 C2563 1.358 . S
C2566 H2622 0.930 . S
C2567 N2564 1.314 . S
C2567 C2565 1.353 . S
C2567 H2623 0.930 . S
C2568 N2569 1.314 . S
C2568 C2573 1.353 . S
C2568 H2574 0.930 . S
N2569 Li2552 1.990 . S
N2569 C2568 1.314 . S
N2569 C2571 1.279 . S
C2570 C2571 1.358 . S
C2570 C2572 1.356 . S
C2570 H2624 0.930 . S
C2571 N2569 1.279 . S
C2571 C2570 1.358 . S
C2571 H2575 0.930 . S
C2572 C2570 1.356 . S
C2572 C2573 1.348 . S
C2573 C2568 1.353 . S
C2573 C2572 1.348 . S
C2573 H2625 0.929 . S
H2574 C2568 0.930 . S
H2575 C2571 0.930 . S
C2576 N2577 1.314 . S
C2576 C2578 1.353 . S
C2576 H2582 0.930 . S
N2577 Li2553 1.990 . S
N2577 C2576 1.314 . S
N2577 C2580 1.279 . S
C2578 C2576 1.353 . S
C2578 C2581 1.348 . S
C2578 H2626 0.929 . S
C2579 C2580 1.358 . S
C2579 C2581 1.356 . S
C2579 H2627 0.930 . S
C2580 N2577 1.279 . S
C2580 C2579 1.358 . S
C2580 H2583 0.930 . S
C2581 C2578 1.348 . S
C2581 C2579 1.356 . S
H2582 C2576 0.930 . S
H2583 C2580 0.930 . S
C2584 C2586 1.348 . S
C2584 C2587 1.356 . S
C2584 O2614 1.325 . S
N2585 C2588 1.314 . S
N2585 C2589 1.279 . S
C2586 C2584 1.348 . S
C2586 C2588 1.353 . S
C2586 H2628 0.929 . S
C2587 C2584 1.356 . S
C2587 C2589 1.358 . S
C2587 H2629 0.930 . S
C2588 N2585 1.314 . S
C2588 C2586 1.353 . S
C2588 H2630 0.930 . S
C2589 N2585 1.279 . S
C2589 C2587 1.358 . S
C2589 H2631 0.930 . S
C2590 C2591 1.348 . S
C2590 C2592 1.356 . S
C2590 O2615 1.325 . S
C2591 C2590 1.348 . S
C2591 C2593 1.353 . S
C2591 H2632 0.929 . S
C2592 C2590 1.356 . S
C2592 C2594 1.358 . S
C2592 H2633 0.930 . S
C2593 C2591 1.353 . S
C2593 N2595 1.314 . S
C2593 H2634 0.930 . S
C2594 C2592 1.358 . S
C2594 N2595 1.279 . S
C2594 H2635 0.930 . S
N2595 C2593 1.314 . S
N2595 C2594 1.279 . S
C2596 C2598 1.353 . S
C2596 N2599 1.314 . S
C2596 H2602 0.930 . S
C2597 N2599 1.279 . S
C2597 C2600 1.358 . S
C2597 H2603 0.930 . S
C2598 C2596 1.353 . S
C2598 C2601 1.348 . S
C2598 H2636 0.929 . S
N2599 Li2554 1.990 . S
N2599 C2596 1.314 . S
N2599 C2597 1.279 . S
C2600 C2597 1.358 . S
C2600 C2601 1.356 . S
C2600 H2637 0.930 . S
C2601 C2598 1.348 . S
C2601 C2600 1.356 . S
H2602 C2596 0.930 . S
H2603 C2597 0.930 . S
C2604 N2605 1.314 . S
C2604 C2606 1.353 . S
C2604 H2610 0.930 . S
N2605 Li2555 1.990 . S
N2605 C2604 1.314 . S
N2605 C2608 1.279 . S
C2606 C2604 1.353 . S
C2606 C2609 1.348 . S
C2606 H2638 0.929 . S
C2607 C2608 1.358 . S
C2607 C2609 1.356 . S
C2607 H2639 0.930 . S
C2608 N2605 1.279 . S
C2608 C2607 1.358 . S
C2608 H2611 0.930 . S
C2609 C2606 1.348 . S
C2609 C2607 1.356 . S
H2610 C2604 0.930 . S
H2611 C2608 0.930 . S
O2612 Li2552 1.956 . S
O2612 Li2553 1.970 . S
O2612 Li2554 1.961 . S
O2612 C2556 1.325 . S
O2613 Li2552 1.970 . S
O2613 Li2553 1.956 . S
O2613 Li2555 1.961 . S
O2613 C2562 1.325 . S
O2614 Li2552 1.961 . S
O2614 Li2554 1.956 . S
O2614 Li2555 1.970 . S
O2614 C2584 1.325 . S
O2615 Li2553 1.961 . S
O2615 Li2554 1.970 . S
O2615 Li2555 1.956 . S
O2615 C2590 1.325 . S
H2616 C2558 0.929 . S
H2617 C2559 0.930 . S
H2618 C2560 0.930 . S
H2619 C2561 0.930 . S
H2620 C2563 0.930 . S
H2621 C2565 0.929 . S
H2622 C2566 0.930 . S
H2623 C2567 0.930 . S
H2624 C2570 0.930 . S
H2625 C2573 0.929 . S
H2626 C2578 0.929 . S
H2627 C2579 0.930 . S
H2628 C2586 0.929 . S
H2629 C2587 0.930 . S
H2630 C2588 0.930 . S
H2631 C2589 0.930 . S
H2632 C2591 0.929 . S
H2633 C2592 0.930 . S
H2634 C2593 0.930 . S
H2635 C2594 0.930 . S
H2636 C2598 0.929 . S
H2637 C2600 0.930 . S
H2638 C2606 0.929 . S
H2639 C2607 0.930 . S
Li2640 N2657 1.990 . S
Li2640 O2700 1.956 . S
Li2640 O2701 1.970 . S
Li2640 O2702 1.961 . S
Li2641 N2665 1.990 . S
Li2641 O2700 1.970 . S
Li2641 O2701 1.956 . S
Li2641 O2703 1.961 . S
Li2642 N2687 1.990 . S
Li2642 O2700 1.961 . S
Li2642 O2702 1.956 . S
Li2642 O2703 1.970 . S
Li2643 N2693 1.990 . S
Li2643 O2701 1.961 . S
Li2643 O2702 1.970 . S
Li2643 O2703 1.956 . S
C2644 C2646 1.348 . S
C2644 C2647 1.356 . S
C2644 O2700 1.325 . S
N2645 C2648 1.314 1_554 S
N2645 C2649 1.279 . S
C2646 C2644 1.348 . S
C2646 C2648 1.353 . S
C2646 H2704 0.929 . S
C2647 C2644 1.356 . S
C2647 C2649 1.358 1_556 S
C2647 H2705 0.930 . S
C2648 N2645 1.314 1_556 S
C2648 C2646 1.353 . S
C2648 H2706 0.930 . S
C2649 N2645 1.279 . S
C2649 C2647 1.358 1_554 S
C2649 H2707 0.930 . S
C2650 C2653 1.348 . S
C2650 C2654 1.356 . S
C2650 O2701 1.325 . S
C2651 N2652 1.279 . S
C2651 C2654 1.358 . S
C2651 H2708 0.930 . S
N2652 C2651 1.279 . S
N2652 C2655 1.314 . S
C2653 C2650 1.348 . S
C2653 C2655 1.353 . S
C2653 H2709 0.929 . S
C2654 C2650 1.356 . S
C2654 C2651 1.358 . S
C2654 H2710 0.930 . S
C2655 N2652 1.314 . S
C2655 C2653 1.353 . S
C2655 H2711 0.930 . S
C2656 N2657 1.314 . S
C2656 C2661 1.353 . S
C2656 H2662 0.930 . S
N2657 Li2640 1.990 . S
N2657 C2656 1.314 . S
N2657 C2659 1.279 . S
C2658 C2659 1.358 . S
C2658 C2660 1.356 . S
C2658 H2712 0.930 1_556 S
C2659 N2657 1.279 . S
C2659 C2658 1.358 . S
C2659 H2663 0.930 . S
C2660 C2658 1.356 . S
C2660 C2661 1.348 . S
C2661 C2656 1.353 . S
C2661 C2660 1.348 . S
C2661 H2713 0.929 . S
H2662 C2656 0.930 . S
H2663 C2659 0.930 . S
C2664 N2665 1.314 . S
C2664 C2666 1.353 . S
C2664 H2670 0.930 . S
N2665 Li2641 1.990 . S
N2665 C2664 1.314 . S
N2665 C2668 1.279 . S
C2666 C2664 1.353 . S
C2666 C2669 1.348 . S
C2666 H2714 0.929 1_455 S
C2667 C2668 1.358 . S
C2667 C2669 1.356 . S
C2667 H2715 0.930 . S
C2668 N2665 1.279 . S
C2668 C2667 1.358 . S
C2668 H2671 0.930 . S
C2669 C2666 1.348 . S
C2669 C2667 1.356 . S
H2670 C2664 0.930 . S
H2671 C2668 0.930 . S
C2672 C2674 1.348 . S
C2672 C2675 1.356 . S
C2672 O2702 1.325 . S
N2673 C2676 1.314 . S
N2673 C2677 1.279 . S
C2674 C2672 1.348 . S
C2674 C2676 1.353 . S
C2674 H2716 0.929 . S
C2675 C2672 1.356 . S
C2675 C2677 1.358 . S
C2675 H2717 0.930 . S
C2676 N2673 1.314 . S
C2676 C2674 1.353 . S
C2676 H2718 0.930 . S
C2677 N2673 1.279 . S
C2677 C2675 1.358 . S
C2677 H2719 0.930 . S
C2678 C2679 1.348 . S
C2678 C2680 1.356 . S
C2678 O2703 1.325 . S
C2679 C2678 1.348 . S
C2679 C2681 1.353 1_455 S
C2679 H2720 0.929 . S
C2680 C2678 1.356 . S
C2680 C2682 1.383 . S
C2680 H2721 0.930 . S
C2681 C2679 1.353 1_655 S
C2681 N2683 1.314 . S
C2681 H2722 0.930 . S
C2682 C2680 1.383 . S
C2682 N2683 1.261 1_455 S
C2682 H2723 0.924 1_455 S
N2683 C2681 1.314 . S
N2683 C2682 1.261 1_655 S
C2684 C2686 1.351 1_455 S
C2684 N2687 1.314 . S
C2684 H2690 0.930 . S
C2685 N2687 1.279 . S
C2685 C2688 1.358 . S
C2685 H2691 0.930 . S
C2686 C2684 1.351 1_655 S
C2686 C2689 1.347 1_655 S
C2686 H2724 0.932 . S
N2687 Li2642 1.990 . S
N2687 C2684 1.314 . S
N2687 C2685 1.279 . S
C2688 C2685 1.358 . S
C2688 C2689 1.356 . S
C2688 H2725 0.930 . S
C2689 C2686 1.347 1_455 S
C2689 C2688 1.356 . S
H2690 C2684 0.930 . S
H2691 C2685 0.930 . S
C2692 N2693 1.314 . S
C2692 C2694 1.353 . S
C2692 H2698 0.930 . S
N2693 Li2643 1.990 . S
N2693 C2692 1.314 . S
N2693 C2696 1.279 . S
C2694 C2692 1.353 . S
C2694 C2697 1.348 . S
C2694 H2726 0.929 . S
C2695 C2696 1.358 . S
C2695 C2697 1.356 . S
C2695 H2727 0.930 . S
C2696 N2693 1.279 . S
C2696 C2695 1.358 . S
C2696 H2699 0.930 . S
C2697 C2694 1.348 . S
C2697 C2695 1.356 . S
H2698 C2692 0.930 . S
H2699 C2696 0.930 . S
O2700 Li2640 1.956 . S
O2700 Li2641 1.970 . S
O2700 Li2642 1.961 . S
O2700 C2644 1.325 . S
O2701 Li2640 1.970 . S
O2701 Li2641 1.956 . S
O2701 Li2643 1.961 . S
O2701 C2650 1.325 . S
O2702 Li2640 1.961 . S
O2702 Li2642 1.956 . S
O2702 Li2643 1.970 . S
O2702 C2672 1.325 . S
O2703 Li2641 1.961 . S
O2703 Li2642 1.970 . S
O2703 Li2643 1.956 . S
O2703 C2678 1.325 . S
H2704 C2646 0.929 . S
H2705 C2647 0.930 . S
H2706 C2648 0.930 . S
H2707 C2649 0.930 . S
H2708 C2651 0.930 . S
H2709 C2653 0.929 . S
H2710 C2654 0.930 . S
H2711 C2655 0.930 . S
H2712 C2658 0.930 1_554 S
H2713 C2661 0.929 . S
H2714 C2666 0.929 1_655 S
H2715 C2667 0.930 . S
H2716 C2674 0.929 . S
H2717 C2675 0.930 . S
H2718 C2676 0.930 . S
H2719 C2677 0.930 . S
H2720 C2679 0.929 . S
H2721 C2680 0.930 . S
H2722 C2681 0.930 . S
H2723 C2682 0.924 1_655 S
H2724 C2686 0.932 . S
H2725 C2688 0.930 . S
H2726 C2694 0.929 . S
H2727 C2695 0.930 . S
Li2728 N2745 1.990 . S
Li2728 O2788 1.956 . S
Li2728 O2789 1.970 . S
Li2728 O2790 1.961 . S
Li2729 N2753 1.990 . S
Li2729 O2788 1.970 . S
Li2729 O2789 1.956 . S
Li2729 O2791 1.961 . S
Li2730 N2775 1.990 . S
Li2730 O2788 1.961 . S
Li2730 O2790 1.956 . S
Li2730 O2791 1.970 . S
Li2731 N2781 1.990 . S
Li2731 O2789 1.961 . S
Li2731 O2790 1.970 . S
Li2731 O2791 1.956 . S
C2732 C2734 1.348 . S
C2732 C2735 1.356 . S
C2732 O2788 1.325 . S
N2733 C2736 1.314 . S
N2733 C2737 1.279 . S
C2734 C2732 1.348 . S
C2734 C2736 1.353 . S
C2734 H2792 0.929 . S
C2735 C2732 1.356 . S
C2735 C2737 1.358 . S
C2735 H2793 0.930 . S
C2736 N2733 1.314 . S
C2736 C2734 1.353 . S
C2736 H2794 0.930 . S
C2737 N2733 1.279 . S
C2737 C2735 1.358 . S
C2737 H2795 0.930 . S
C2738 C2741 1.348 . S
C2738 C2742 1.356 . S
C2738 O2789 1.325 . S
C2739 N2740 1.279 . S
C2739 C2742 1.358 . S
C2739 H2796 0.930 . S
N2740 C2739 1.279 . S
N2740 C2743 1.314 . S
C2741 C2738 1.348 . S
C2741 C2743 1.353 . S
C2741 H2797 0.929 . S
C2742 C2738 1.356 . S
C2742 C2739 1.358 . S
C2742 H2798 0.930 . S
C2743 N2740 1.314 . S
C2743 C2741 1.353 . S
C2743 H2799 0.930 . S
C2744 N2745 1.314 . S
C2744 C2749 1.353 . S
C2744 H2750 0.930 . S
N2745 Li2728 1.990 . S
N2745 C2744 1.314 . S
N2745 C2747 1.279 . S
C2746 C2747 1.358 . S
C2746 C2748 1.356 . S
C2746 H2800 0.930 . S
C2747 N2745 1.279 . S
C2747 C2746 1.358 . S
C2747 H2751 0.930 . S
C2748 C2746 1.356 . S
C2748 C2749 1.348 . S
C2749 C2744 1.353 . S
C2749 C2748 1.348 . S
C2749 H2801 0.929 . S
H2750 C2744 0.930 . S
H2751 C2747 0.930 . S
C2752 N2753 1.314 . S
C2752 C2754 1.353 . S
C2752 H2758 0.930 . S
N2753 Li2729 1.990 . S
N2753 C2752 1.314 . S
N2753 C2756 1.279 . S
C2754 C2752 1.353 . S
C2754 C2757 1.348 . S
C2754 H2802 0.929 . S
C2755 C2756 1.358 . S
C2755 C2757 1.356 . S
C2755 H2803 0.930 . S
C2756 N2753 1.279 . S
C2756 C2755 1.358 . S
C2756 H2759 0.930 . S
C2757 C2754 1.348 . S
C2757 C2755 1.356 . S
H2758 C2752 0.930 . S
H2759 C2756 0.930 . S
C2760 C2762 1.348 . S
C2760 C2763 1.356 . S
C2760 O2790 1.325 . S
N2761 C2764 1.314 . S
N2761 C2765 1.279 . S
C2762 C2760 1.348 . S
C2762 C2764 1.353 . S
C2762 H2804 0.929 . S
C2763 C2760 1.356 . S
C2763 C2765 1.358 . S
C2763 H2805 0.930 . S
C2764 N2761 1.314 . S
C2764 C2762 1.353 . S
C2764 H2806 0.930 . S
C2765 N2761 1.279 . S
C2765 C2763 1.358 . S
C2765 H2807 0.930 . S
C2766 C2767 1.348 . S
C2766 C2768 1.356 . S
C2766 O2791 1.325 . S
C2767 C2766 1.348 . S
C2767 C2769 1.353 . S
C2767 H2808 0.929 . S
C2768 C2766 1.356 . S
C2768 C2770 1.358 . S
C2768 H2809 0.930 . S
C2769 C2767 1.353 . S
C2769 N2771 1.314 . S
C2769 H2810 0.930 . S
C2770 C2768 1.358 . S
C2770 N2771 1.279 . S
C2770 H2811 0.930 . S
N2771 C2769 1.314 . S
N2771 C2770 1.279 . S
C2772 C2774 1.353 . S
C2772 N2775 1.314 . S
C2772 H2778 0.930 . S
C2773 N2775 1.279 . S
C2773 C2776 1.358 . S
C2773 H2779 0.930 . S
C2774 C2772 1.353 . S
C2774 C2777 1.348 . S
C2774 H2812 0.929 . S
N2775 Li2730 1.990 . S
N2775 C2772 1.314 . S
N2775 C2773 1.279 . S
C2776 C2773 1.358 . S
C2776 C2777 1.356 . S
C2776 H2813 0.930 . S
C2777 C2774 1.348 . S
C2777 C2776 1.356 . S
H2778 C2772 0.930 . S
H2779 C2773 0.930 . S
C2780 N2781 1.314 . S
C2780 C2782 1.353 . S
C2780 H2786 0.930 . S
N2781 Li2731 1.990 . S
N2781 C2780 1.314 . S
N2781 C2784 1.279 . S
C2782 C2780 1.353 . S
C2782 C2785 1.348 . S
C2782 H2814 0.929 . S
C2783 C2784 1.358 . S
C2783 C2785 1.356 . S
C2783 H2815 0.930 . S
C2784 N2781 1.279 . S
C2784 C2783 1.358 . S
C2784 H2787 0.930 . S
C2785 C2782 1.348 . S
C2785 C2783 1.356 . S
H2786 C2780 0.930 . S
H2787 C2784 0.930 . S
O2788 Li2728 1.956 . S
O2788 Li2729 1.970 . S
O2788 Li2730 1.961 . S
O2788 C2732 1.325 . S
O2789 Li2728 1.970 . S
O2789 Li2729 1.956 . S
O2789 Li2731 1.961 . S
O2789 C2738 1.325 . S
O2790 Li2728 1.961 . S
O2790 Li2730 1.956 . S
O2790 Li2731 1.970 . S
O2790 C2760 1.325 . S
O2791 Li2729 1.961 . S
O2791 Li2730 1.970 . S
O2791 Li2731 1.956 . S
O2791 C2766 1.325 . S
H2792 C2734 0.929 . S
H2793 C2735 0.930 . S
H2794 C2736 0.930 . S
H2795 C2737 0.930 . S
H2796 C2739 0.930 . S
H2797 C2741 0.929 . S
H2798 C2742 0.930 . S
H2799 C2743 0.930 . S
H2800 C2746 0.930 . S
H2801 C2749 0.929 . S
H2802 C2754 0.929 . S
H2803 C2755 0.930 . S
H2804 C2762 0.929 . S
H2805 C2763 0.930 . S
H2806 C2764 0.930 . S
H2807 C2765 0.930 . S
H2808 C2767 0.929 . S
H2809 C2768 0.930 . S
H2810 C2769 0.930 . S
H2811 C2770 0.930 . S
H2812 C2774 0.929 . S
H2813 C2776 0.930 . S
H2814 C2782 0.929 . S
H2815 C2783 0.930 . S
C57 C1193 0.769 1_444 S
C2220 C145 0.769 . S
C225 C1377 0.769 1_565 S
C313 C2132 0.769 . S
C372 C1525 0.769 1_465 S
C460 C1993 0.769 . S
C557 C1692 0.769 1_546 S
C2785 C645 0.769 . S
C1877 C733 0.769 1_554 S
C812 C1633 0.769 . S
C2053 C909 0.769 1_455 S
C1025 C1437 0.769 . S
C1252 C1105 0.769 . S
C1809 C2484 0.769 . S
C2601 C2345 0.769 . S
C2689 C2425 0.769 1_456 S
C29 C117 2.535 1_545 S
C233 C108 2.589 . S
C284 C196 2.535 1_545 S
C293 C49 2.589 1_556 S
C673 C401 2.535 1_545 S
C497 C381 2.588 . S
C585 C489 2.535 1_545 S
C548 C665 2.589 1_556 S
C821 C20 2.589 1_655 S
C753 C321 2.589 . S
C929 C137 2.588 1_655 S
C2405 C636 2.589 1_655 S
C2493 C205 2.589 . S
C1017 C409 2.589 1_655 S
C577 C1113 2.588 . S
C1261 C1201 2.533 1_545 S
C1349 C1289 2.590 . S
C1428 C1369 2.533 1_565 S
C1164 C1457 2.589 1_556 S
C1516 C1817 2.533 1_545 S
C1553 C1613 2.589 . S
C1701 C1641 2.533 1_565 S
C1721 C1789 2.589 1_554 S
C1173 C1965 2.590 1_655 S
C1897 C1465 2.590 . S
C2073 C1281 2.589 1_455 S
C2669 C1780 2.589 1_455 S
C2757 C1340 2.589 . S
C1545 C2161 2.590 1_655 S
C2249 C1729 2.589 . S
C1076 C2317 2.535 . S
C2433 C1085 2.589 1_554 S
C997 C2396 2.535 . S
C988 C2337 2.589 . S
C761 C2513 2.535 . S
C849 C724 2.588 1_554 S
C937 C841 2.535 . S
C900 C2521 2.589 . S
C2308 C469 2.589 . S
C2229 C2609 2.533 . S
C2257 C2660 2.590 1_554 S
C2697 C2141 2.533 . S
C2169 C2572 2.589 . S
C2777 C1868 2.533 . S
C1905 C1956 2.589 1_554 S
C2044 C1985 2.533 . S
C2081 C2748 2.589 . S
C2581 C1604 2.590 . S
