# Generated by pormake.
# Topology umq, (4)-cn, num edge types: 1
# Building blocks:
#     Node 0, Type 0, BuildingBlock: CEKHIL_clean_sbu_0, # of connection points: 4
#     Node 1, Type 0, BuildingBlock: CEKHIL_clean_sbu_0, # of connection points: 4
#     Node 2, Type 0, BuildingBlock: CEKHIL_clean_sbu_0, # of connection points: 4
#     Node 3, Type 0, BuildingBlock: CEKHIL_clean_sbu_0, # of connection points: 4
#     Node 4, Type 0, BuildingBlock: CEKHIL_clean_sbu_0, # of connection points: 4
#     Node 5, Type 0, BuildingBlock: CEKHIL_clean_sbu_0, # of connection points: 4
#     Node 6, Type 0, BuildingBlock: CEKHIL_clean_sbu_0, # of connection points: 4
#     Node 7, Type 0, BuildingBlock: CEKHIL_clean_sbu_0, # of connection points: 4
#     Node 8, Type 0, BuildingBlock: CEKHIL_clean_sbu_0, # of connection points: 4
#     Node 9, Type 0, BuildingBlock: CEKHIL_clean_sbu_0, # of connection points: 4
#     Node 10, Type 0, BuildingBlock: CEKHIL_clean_sbu_0, # of connection points: 4
#     Node 11, Type 0, BuildingBlock: CEKHIL_clean_sbu_0, # of connection points: 4
#     Node 12, Type 0, BuildingBlock: CEKHIL_clean_sbu_0, # of connection points: 4
#     Node 13, Type 0, BuildingBlock: CEKHIL_clean_sbu_0, # of connection points: 4
#     Node 14, Type 0, BuildingBlock: CEKHIL_clean_sbu_0, # of connection points: 4
#     Node 15, Type 0, BuildingBlock: CEKHIL_clean_sbu_0, # of connection points: 4
#     Node 16, Type 0, BuildingBlock: CEKHIL_clean_sbu_0, # of connection points: 4
#     Node 17, Type 0, BuildingBlock: CEKHIL_clean_sbu_0, # of connection points: 4
#     Node 18, Type 0, BuildingBlock: CEKHIL_clean_sbu_0, # of connection points: 4
#     Node 19, Type 0, BuildingBlock: CEKHIL_clean_sbu_0, # of connection points: 4
#     Node 20, Type 0, BuildingBlock: CEKHIL_clean_sbu_0, # of connection points: 4
#     Node 21, Type 0, BuildingBlock: CEKHIL_clean_sbu_0, # of connection points: 4
#     Node 22, Type 0, BuildingBlock: CEKHIL_clean_sbu_0, # of connection points: 4
#     Node 23, Type 0, BuildingBlock: CEKHIL_clean_sbu_0, # of connection points: 4
#     Node 24, Type 0, BuildingBlock: CEKHIL_clean_sbu_0, # of connection points: 4
#     Node 25, Type 0, BuildingBlock: CEKHIL_clean_sbu_0, # of connection points: 4
#     Node 26, Type 0, BuildingBlock: CEKHIL_clean_sbu_0, # of connection points: 4
#     Node 27, Type 0, BuildingBlock: CEKHIL_clean_sbu_0, # of connection points: 4
#     Node 28, Type 0, BuildingBlock: CEKHIL_clean_sbu_0, # of connection points: 4
#     Node 29, Type 0, BuildingBlock: CEKHIL_clean_sbu_0, # of connection points: 4
#     Node 30, Type 0, BuildingBlock: CEKHIL_clean_sbu_0, # of connection points: 4
#     Node 31, Type 0, BuildingBlock: CEKHIL_clean_sbu_0, # of connection points: 4
#     Edge 32, Type (0, 0), BuildingBlock: ZUJKAS_clean_linker_0, # of connection points: 2
#     Edge 33, Type (0, 0), BuildingBlock: ZUJKAS_clean_linker_0, # of connection points: 2
#     Edge 34, Type (0, 0), BuildingBlock: ZUJKAS_clean_linker_0, # of connection points: 2
#     Edge 35, Type (0, 0), BuildingBlock: ZUJKAS_clean_linker_0, # of connection points: 2
#     Edge 36, Type (0, 0), BuildingBlock: ZUJKAS_clean_linker_0, # of connection points: 2
#     Edge 37, Type (0, 0), BuildingBlock: ZUJKAS_clean_linker_0, # of connection points: 2
#     Edge 38, Type (0, 0), BuildingBlock: ZUJKAS_clean_linker_0, # of connection points: 2
#     Edge 39, Type (0, 0), BuildingBlock: ZUJKAS_clean_linker_0, # of connection points: 2
#     Edge 40, Type (0, 0), BuildingBlock: ZUJKAS_clean_linker_0, # of connection points: 2
#     Edge 41, Type (0, 0), BuildingBlock: ZUJKAS_clean_linker_0, # of connection points: 2
#     Edge 42, Type (0, 0), BuildingBlock: ZUJKAS_clean_linker_0, # of connection points: 2
#     Edge 43, Type (0, 0), BuildingBlock: ZUJKAS_clean_linker_0, # of connection points: 2
#     Edge 44, Type (0, 0), BuildingBlock: ZUJKAS_clean_linker_0, # of connection points: 2
#     Edge 45, Type (0, 0), BuildingBlock: ZUJKAS_clean_linker_0, # of connection points: 2
#     Edge 46, Type (0, 0), BuildingBlock: ZUJKAS_clean_linker_0, # of connection points: 2
#     Edge 47, Type (0, 0), BuildingBlock: ZUJKAS_clean_linker_0, # of connection points: 2
#     Edge 48, Type (0, 0), BuildingBlock: ZUJKAS_clean_linker_0, # of connection points: 2
#     Edge 49, Type (0, 0), BuildingBlock: ZUJKAS_clean_linker_0, # of connection points: 2
#     Edge 50, Type (0, 0), BuildingBlock: ZUJKAS_clean_linker_0, # of connection points: 2
#     Edge 51, Type (0, 0), BuildingBlock: ZUJKAS_clean_linker_0, # of connection points: 2
#     Edge 52, Type (0, 0), BuildingBlock: ZUJKAS_clean_linker_0, # of connection points: 2
#     Edge 53, Type (0, 0), BuildingBlock: ZUJKAS_clean_linker_0, # of connection points: 2
#     Edge 54, Type (0, 0), BuildingBlock: ZUJKAS_clean_linker_0, # of connection points: 2
#     Edge 55, Type (0, 0), BuildingBlock: ZUJKAS_clean_linker_0, # of connection points: 2
#     Edge 56, Type (0, 0), BuildingBlock: ZUJKAS_clean_linker_0, # of connection points: 2
#     Edge 57, Type (0, 0), BuildingBlock: ZUJKAS_clean_linker_0, # of connection points: 2
#     Edge 58, Type (0, 0), BuildingBlock: ZUJKAS_clean_linker_0, # of connection points: 2
#     Edge 59, Type (0, 0), BuildingBlock: ZUJKAS_clean_linker_0, # of connection points: 2
#     Edge 60, Type (0, 0), BuildingBlock: ZUJKAS_clean_linker_0, # of connection points: 2
#     Edge 61, Type (0, 0), BuildingBlock: ZUJKAS_clean_linker_0, # of connection points: 2
#     Edge 62, Type (0, 0), BuildingBlock: ZUJKAS_clean_linker_0, # of connection points: 2
#     Edge 63, Type (0, 0), BuildingBlock: ZUJKAS_clean_linker_0, # of connection points: 2
#     Edge 64, Type (0, 0), BuildingBlock: ZUJKAS_clean_linker_0, # of connection points: 2
#     Edge 65, Type (0, 0), BuildingBlock: ZUJKAS_clean_linker_0, # of connection points: 2
#     Edge 66, Type (0, 0), BuildingBlock: ZUJKAS_clean_linker_0, # of connection points: 2
#     Edge 67, Type (0, 0), BuildingBlock: ZUJKAS_clean_linker_0, # of connection points: 2
#     Edge 68, Type (0, 0), BuildingBlock: ZUJKAS_clean_linker_0, # of connection points: 2
#     Edge 69, Type (0, 0), BuildingBlock: ZUJKAS_clean_linker_0, # of connection points: 2
#     Edge 70, Type (0, 0), BuildingBlock: ZUJKAS_clean_linker_0, # of connection points: 2
#     Edge 71, Type (0, 0), BuildingBlock: ZUJKAS_clean_linker_0, # of connection points: 2
#     Edge 72, Type (0, 0), BuildingBlock: ZUJKAS_clean_linker_0, # of connection points: 2
#     Edge 73, Type (0, 0), BuildingBlock: ZUJKAS_clean_linker_0, # of connection points: 2
#     Edge 74, Type (0, 0), BuildingBlock: ZUJKAS_clean_linker_0, # of connection points: 2
#     Edge 75, Type (0, 0), BuildingBlock: ZUJKAS_clean_linker_0, # of connection points: 2
#     Edge 76, Type (0, 0), BuildingBlock: ZUJKAS_clean_linker_0, # of connection points: 2
#     Edge 77, Type (0, 0), BuildingBlock: ZUJKAS_clean_linker_0, # of connection points: 2
#     Edge 78, Type (0, 0), BuildingBlock: ZUJKAS_clean_linker_0, # of connection points: 2
#     Edge 79, Type (0, 0), BuildingBlock: ZUJKAS_clean_linker_0, # of connection points: 2
#     Edge 80, Type (0, 0), BuildingBlock: ZUJKAS_clean_linker_0, # of connection points: 2
#     Edge 81, Type (0, 0), BuildingBlock: ZUJKAS_clean_linker_0, # of connection points: 2
#     Edge 82, Type (0, 0), BuildingBlock: ZUJKAS_clean_linker_0, # of connection points: 2
#     Edge 83, Type (0, 0), BuildingBlock: ZUJKAS_clean_linker_0, # of connection points: 2
#     Edge 84, Type (0, 0), BuildingBlock: ZUJKAS_clean_linker_0, # of connection points: 2
#     Edge 85, Type (0, 0), BuildingBlock: ZUJKAS_clean_linker_0, # of connection points: 2
#     Edge 86, Type (0, 0), BuildingBlock: ZUJKAS_clean_linker_0, # of connection points: 2
#     Edge 87, Type (0, 0), BuildingBlock: ZUJKAS_clean_linker_0, # of connection points: 2
#     Edge 88, Type (0, 0), BuildingBlock: ZUJKAS_clean_linker_0, # of connection points: 2
#     Edge 89, Type (0, 0), BuildingBlock: ZUJKAS_clean_linker_0, # of connection points: 2
#     Edge 90, Type (0, 0), BuildingBlock: ZUJKAS_clean_linker_0, # of connection points: 2
#     Edge 91, Type (0, 0), BuildingBlock: ZUJKAS_clean_linker_0, # of connection points: 2
#     Edge 92, Type (0, 0), BuildingBlock: ZUJKAS_clean_linker_0, # of connection points: 2
#     Edge 93, Type (0, 0), BuildingBlock: ZUJKAS_clean_linker_0, # of connection points: 2
#     Edge 94, Type (0, 0), BuildingBlock: ZUJKAS_clean_linker_0, # of connection points: 2
#     Edge 95, Type (0, 0), BuildingBlock: ZUJKAS_clean_linker_0, # of connection points: 2
# Relax obj value: 0.079
# Max RMSD: 0.062
# Mean RMSD: 0.062
data_MOF--net-umq--node1-CEKHIL_clean_sbu_0--edge1-ZUJKAS_clean_linker_0
_symmetry_space_group_name_H-M    P1
_symmetry_Int_Tables_number       1
_symmetry_cell_setting            triclinic
loop_
_symmetry_equiv_pos_as_xyz
'x, y, z'
_cell_length_a     85.110778
_cell_length_b     85.115023
_cell_length_c     57.296834
_cell_angle_alpha  89.995702
_cell_angle_beta   89.993822
_cell_angle_gamma 89.99929
loop_
_atom_site_label
_atom_site_type_symbol
_atom_site_fract_x
_atom_site_fract_y
_atom_site_fract_z
_atom_type_partial_charge
Co0 Co 0.24215 0.09824 0.16585 0.0
O1 O 0.23088 0.07895 0.17183 0.0
O2 O 0.24962 0.08841 0.19445 0.0
C3 C 0.24668 0.09332 0.12752 0.0
O4 O 0.25709 0.11718 0.16468 0.0
Co5 Co 0.22978 0.12271 0.12981 0.0
O6 O 0.25111 0.13176 0.13316 0.0
C7 C 0.21474 0.12034 0.17627 0.0
C8 C 0.23969 0.07716 0.19011 0.0
C9 C 0.26007 0.1285 0.15032 0.0
O10 O 0.22563 0.1109 0.18347 0.0
O11 O 0.21376 0.12508 0.15511 0.0
O12 O 0.25573 0.0872 0.14338 0.0
O13 O 0.23474 0.10096 0.13537 0.0
Co14 Co 0.90863 0.24204 0.16528 0.0
O15 O 0.9278 0.23069 0.17185 0.0
O16 O 0.91849 0.25003 0.19348 0.0
C17 C 0.91352 0.24589 0.12678 0.0
O18 O 0.88982 0.25709 0.16354 0.0
Co19 Co 0.88401 0.22915 0.12992 0.0
O20 O 0.87482 0.25047 0.13276 0.0
C21 C 0.88667 0.2148 0.17675 0.0
C22 C 0.92961 0.23985 0.18975 0.0
C23 C 0.87831 0.25978 0.14941 0.0
O24 O 0.89585 0.22599 0.18358 0.0
O25 O 0.88202 0.21332 0.1556 0.0
O26 O 0.91976 0.25511 0.14229 0.0
O27 O 0.90582 0.23412 0.13509 0.0
Co28 Co 0.76551 0.9093 0.1647 0.0
O29 O 0.77688 0.9285 0.17092 0.0
O30 O 0.75788 0.91914 0.19317 0.0
C31 C 0.76131 0.91426 0.12631 0.0
O32 O 0.75036 0.89053 0.16327 0.0
Co33 Co 0.77777 0.88464 0.12891 0.0
O34 O 0.75622 0.87604 0.13164 0.0
C35 C 0.79256 0.88686 0.17558 0.0
C36 C 0.76793 0.93033 0.18906 0.0
C37 C 0.74721 0.87939 0.14871 0.0
O38 O 0.78179 0.89649 0.18259 0.0
O39 O 0.79356 0.88203 0.15446 0.0
O40 O 0.75221 0.92046 0.14202 0.0
O41 O 0.77311 0.90649 0.13434 0.0
Co42 Co 0.09851 0.76486 0.16529 0.0
O43 O 0.07953 0.77664 0.1713 0.0
O44 O 0.08854 0.75768 0.19392 0.0
C45 C 0.09341 0.7604 0.12699 0.0
O46 O 0.11701 0.74936 0.16417 0.0
Co47 Co 0.12337 0.77624 0.12915 0.0
O48 O 0.13151 0.75453 0.13228 0.0
C49 C 0.12149 0.79156 0.17551 0.0
C50 C 0.07752 0.76788 0.18959 0.0
C51 C 0.12804 0.74581 0.14962 0.0
O52 O 0.11165 0.78106 0.1828 0.0
O53 O 0.12631 0.79222 0.15436 0.0
O54 O 0.08707 0.75157 0.14291 0.0
O55 O 0.10144 0.77212 0.13476 0.0
Co56 Co 0.24173 0.90877 0.34109 0.0
O57 O 0.23037 0.92797 0.33486 0.0
O58 O 0.24941 0.91865 0.31266 0.0
C59 C 0.24581 0.91375 0.37952 0.0
O60 O 0.25681 0.88996 0.34252 0.0
Co61 Co 0.22926 0.88416 0.37681 0.0
O62 O 0.25055 0.875 0.37351 0.0
C63 C 0.21465 0.88641 0.33004 0.0
C64 C 0.23933 0.92982 0.31676 0.0
C65 C 0.25966 0.87846 0.3566 0.0
O66 O 0.2255 0.89597 0.3231 0.0
O67 O 0.2135 0.88166 0.35118 0.0
O68 O 0.25499 0.91991 0.36386 0.0
O69 O 0.23403 0.90598 0.37141 0.0
Co70 Co 0.09808 0.24189 0.33965 0.0
O71 O 0.07902 0.23036 0.33296 0.0
O72 O 0.08838 0.24961 0.31119 0.0
C73 C 0.09276 0.24588 0.37801 0.0
O74 O 0.11673 0.25713 0.34131 0.0
Co75 Co 0.1226 0.22989 0.37583 0.0
O76 O 0.13163 0.25123 0.37249 0.0
C77 C 0.12061 0.21494 0.32921 0.0
C78 C 0.07726 0.23943 0.31493 0.0
C79 C 0.12814 0.2602 0.35543 0.0
O80 O 0.11113 0.22575 0.3219 0.0
O81 O 0.12519 0.21395 0.35045 0.0
O82 O 0.08666 0.25503 0.36228 0.0
O83 O 0.10073 0.23419 0.37001 0.0
Co84 Co 0.76425 0.09893 0.33956 0.0
O85 O 0.77541 0.07959 0.33359 0.0
O86 O 0.75641 0.08891 0.31131 0.0
C87 C 0.76021 0.09427 0.37808 0.0
O88 O 0.74942 0.11793 0.34087 0.0
Co89 Co 0.77739 0.12357 0.3747 0.0
O90 O 0.75621 0.13303 0.37146 0.0
C91 C 0.79189 0.12039 0.3281 0.0
C92 C 0.76642 0.07769 0.31554 0.0
C93 C 0.74688 0.12957 0.35482 0.0
O94 O 0.78054 0.11141 0.32127 0.0
O95 O 0.79343 0.12506 0.34922 0.0
O96 O 0.75093 0.0881 0.36258 0.0
O97 O 0.77208 0.10182 0.36977 0.0
Co98 Co 0.90902 0.76626 0.34024 0.0
O99 O 0.92835 0.77748 0.3343 0.0
O100 O 0.9188 0.75885 0.31157 0.0
C101 C 0.9139 0.76158 0.37854 0.0
O102 O 0.89002 0.75139 0.34131 0.0
Co103 Co 0.88459 0.77865 0.37635 0.0
O104 O 0.87534 0.75742 0.3727 0.0
C105 C 0.88709 0.79383 0.33003 0.0
C106 C 0.93008 0.76874 0.31593 0.0
C107 C 0.87861 0.74847 0.35554 0.0
O108 O 0.8964 0.78287 0.32272 0.0
O109 O 0.88241 0.79482 0.35122 0.0
O110 O 0.92001 0.75258 0.36263 0.0
O111 O 0.90632 0.77357 0.37076 0.0
Co112 Co 0.76507 0.90868 0.83934 0.0
O113 O 0.77632 0.92801 0.83352 0.0
O114 O 0.75741 0.91874 0.81103 0.0
C115 C 0.76078 0.91328 0.87782 0.0
O116 O 0.75008 0.88978 0.84044 0.0
Co117 Co 0.77771 0.88387 0.87464 0.0
O118 O 0.75634 0.87488 0.87151 0.0
C119 C 0.79253 0.88685 0.82816 0.0
C120 C 0.76739 0.92995 0.8154 0.0
C121 C 0.7472 0.87834 0.85464 0.0
O122 O 0.78145 0.89616 0.82124 0.0
O123 O 0.79372 0.88199 0.84923 0.0
O124 O 0.75166 0.91956 0.86219 0.0
O125 O 0.77267 0.90569 0.86966 0.0
Co126 Co 0.09804 0.76467 0.84063 0.0
O127 O 0.0792 0.77659 0.83413 0.0
O128 O 0.08825 0.75743 0.8119 0.0
C129 C 0.09256 0.76046 0.87889 0.0
O130 O 0.11636 0.74899 0.84222 0.0
Co131 Co 0.12271 0.77583 0.8772 0.0
O132 O 0.13056 0.754 0.87446 0.0
C133 C 0.12172 0.7908 0.83048 0.0
C134 C 0.07729 0.76774 0.81591 0.0
C135 C 0.12719 0.74532 0.85705 0.0
O136 O 0.11149 0.78067 0.8232 0.0
O137 O 0.12649 0.79137 0.85165 0.0
O138 O 0.08628 0.75159 0.86295 0.0
O139 O 0.10077 0.77205 0.87114 0.0
Co140 Co 0.24205 0.09933 0.8411 0.0
O141 O 0.23061 0.08015 0.83505 0.0
O142 O 0.24943 0.08948 0.81246 0.0
C143 C 0.24656 0.09432 0.8794 0.0
O144 O 0.25716 0.11813 0.84231 0.0
Co145 Co 0.22994 0.12388 0.8772 0.0
O146 O 0.25142 0.1326 0.87401 0.0
C147 C 0.2149 0.12176 0.83071 0.0
C148 C 0.23939 0.07831 0.81675 0.0
C149 C 0.26032 0.12932 0.85679 0.0
O150 O 0.22565 0.11217 0.82352 0.0
O151 O 0.21398 0.12652 0.85187 0.0
O152 O 0.25553 0.08813 0.86352 0.0
O153 O 0.23468 0.10208 0.87159 0.0
Co154 Co 0.90893 0.24275 0.83942 0.0
O155 O 0.92815 0.23148 0.8328 0.0
O156 O 0.91875 0.25078 0.81119 0.0
C157 C 0.91389 0.24657 0.87792 0.0
O158 O 0.89006 0.25773 0.8412 0.0
Co159 Co 0.88441 0.22985 0.87498 0.0
O160 O 0.8751 0.25111 0.87204 0.0
C161 C 0.887 0.21544 0.82814 0.0
C162 C 0.92993 0.24066 0.81492 0.0
C163 C 0.87853 0.26039 0.85532 0.0
O164 O 0.89617 0.22662 0.82119 0.0
O165 O 0.88241 0.21402 0.84933 0.0
O166 O 0.92005 0.25585 0.8624 0.0
O167 O 0.9062 0.2348 0.86961 0.0
Co168 Co 0.76509 0.09882 0.66556 0.0
O169 O 0.77637 0.07956 0.67172 0.0
O170 O 0.75736 0.08891 0.69396 0.0
C171 C 0.76102 0.0939 0.62711 0.0
O172 O 0.75009 0.1177 0.66416 0.0
Co173 Co 0.7777 0.12341 0.62992 0.0
O174 O 0.75638 0.13252 0.63304 0.0
C175 C 0.79243 0.1208 0.67654 0.0
C176 C 0.7674 0.07771 0.68982 0.0
C177 C 0.74725 0.12913 0.64995 0.0
O178 O 0.78138 0.1115 0.68357 0.0
O179 O 0.79366 0.1255 0.65539 0.0
O180 O 0.75179 0.08777 0.64272 0.0
O181 O 0.77282 0.10161 0.63528 0.0
Co182 Co 0.90885 0.76537 0.66501 0.0
O183 O 0.92821 0.77653 0.67085 0.0
O184 O 0.9187 0.75788 0.69359 0.0
C185 C 0.91365 0.76075 0.62666 0.0
O186 O 0.8898 0.75056 0.66398 0.0
Co187 Co 0.8844 0.77794 0.62908 0.0
O188 O 0.87502 0.75677 0.63276 0.0
C189 C 0.88705 0.79299 0.67545 0.0
C190 C 0.92999 0.76775 0.68917 0.0
C191 C 0.87831 0.74775 0.64985 0.0
O192 O 0.89631 0.78196 0.68266 0.0
O193 O 0.88235 0.79407 0.65428 0.0
O194 O 0.91975 0.75169 0.64252 0.0
O195 O 0.90611 0.77275 0.63452 0.0
Co196 Co 0.24146 0.90948 0.66692 0.0
O197 O 0.23 0.92864 0.67306 0.0
O198 O 0.24911 0.91948 0.69528 0.0
C199 C 0.24547 0.9144 0.62847 0.0
O200 O 0.25667 0.89078 0.66556 0.0
Co201 Co 0.2292 0.88468 0.63133 0.0
O202 O 0.25072 0.87599 0.63425 0.0
C203 C 0.21426 0.88735 0.6778 0.0
C204 C 0.239 0.9306 0.6911 0.0
C205 C 0.25977 0.87949 0.65121 0.0
O206 O 0.22529 0.89663 0.68495 0.0
O207 O 0.21312 0.88265 0.65664 0.0
O208 O 0.25463 0.92065 0.64406 0.0
O209 O 0.23376 0.90656 0.63665 0.0
Co210 Co 0.09866 0.24278 0.66533 0.0
O211 O 0.0796 0.23139 0.67248 0.0
O212 O 0.08905 0.25085 0.69372 0.0
C213 C 0.09314 0.24636 0.62694 0.0
O214 O 0.11741 0.2579 0.66298 0.0
Co215 Co 0.12284 0.23007 0.62916 0.0
O216 O 0.1319 0.25145 0.63159 0.0
C217 C 0.12109 0.21581 0.67627 0.0
C218 C 0.0779 0.24064 0.6903 0.0
C219 C 0.12867 0.26069 0.64844 0.0
O220 O 0.11172 0.22678 0.68336 0.0
O221 O 0.12554 0.2145 0.65501 0.0
O222 O 0.08718 0.25571 0.64252 0.0
O223 O 0.10107 0.23471 0.63514 0.0
Co224 Co 0.74227 0.59872 0.6651 0.0
O225 O 0.73117 0.57932 0.67096 0.0
O226 O 0.75005 0.58872 0.69338 0.0
C227 C 0.74651 0.59421 0.62658 0.0
O228 O 0.75705 0.61776 0.66402 0.0
Co229 Co 0.72924 0.62343 0.62996 0.0
O230 O 0.75037 0.63296 0.63347 0.0
C231 C 0.71456 0.62013 0.67643 0.0
C232 C 0.74011 0.57747 0.6891 0.0
C233 C 0.75963 0.62946 0.65018 0.0
O234 O 0.72588 0.61112 0.68332 0.0
O235 O 0.71312 0.62486 0.65533 0.0
O236 O 0.75571 0.58798 0.64214 0.0
O237 O 0.73457 0.60168 0.63484 0.0
Co238 Co 0.40781 0.74286 0.66563 0.0
O239 O 0.42679 0.73114 0.67198 0.0
O240 O 0.4177 0.75028 0.6942 0.0
C241 C 0.41314 0.74695 0.6273 0.0
O242 O 0.38932 0.75833 0.66412 0.0
Co243 Co 0.38312 0.73127 0.62941 0.0
O244 O 0.37491 0.75297 0.63221 0.0
C245 C 0.38483 0.71622 0.676 0.0
C246 C 0.42875 0.74007 0.6901 0.0
C247 C 0.37831 0.76178 0.64947 0.0
O248 O 0.39462 0.72677 0.68329 0.0
O249 O 0.38011 0.71543 0.65481 0.0
O250 O 0.41933 0.75598 0.6431 0.0
O251 O 0.40504 0.73532 0.63521 0.0
Co252 Co 0.26537 0.40922 0.66574 0.0
O253 O 0.27653 0.42831 0.67319 0.0
O254 O 0.25753 0.41823 0.69473 0.0
C255 C 0.26122 0.41548 0.62788 0.0
O256 O 0.25056 0.39026 0.66315 0.0
Co257 Co 0.27791 0.38597 0.62843 0.0
O258 O 0.25672 0.37646 0.631 0.0
C259 C 0.29274 0.38695 0.67517 0.0
C260 C 0.26754 0.42958 0.69136 0.0
C261 C 0.24769 0.37924 0.64826 0.0
O262 O 0.28181 0.39616 0.68282 0.0
O263 O 0.29382 0.38281 0.65374 0.0
O264 O 0.25181 0.42073 0.64391 0.0
O265 O 0.27319 0.40765 0.6352 0.0
Co266 Co 0.5986 0.26563 0.66547 0.0
O267 O 0.57958 0.2772 0.67227 0.0
O268 O 0.58889 0.2579 0.69397 0.0
C269 C 0.59325 0.26165 0.62712 0.0
O270 O 0.61726 0.25037 0.6636 0.0
Co271 Co 0.62302 0.27782 0.62924 0.0
O272 O 0.63182 0.25636 0.63208 0.0
C273 C 0.62148 0.29233 0.67621 0.0
C274 C 0.57781 0.26814 0.6903 0.0
C275 C 0.6285 0.24733 0.64914 0.0
O276 O 0.61172 0.28169 0.68328 0.0
O277 O 0.62613 0.29337 0.65501 0.0
O278 O 0.58712 0.25254 0.64287 0.0
O279 O 0.60119 0.27336 0.63512 0.0
Co280 Co 0.74227 0.4093 0.84059 0.0
O281 O 0.73102 0.42859 0.83454 0.0
O282 O 0.74976 0.41907 0.81196 0.0
C283 C 0.7468 0.41428 0.87891 0.0
O284 O 0.75721 0.39036 0.84179 0.0
Co285 Co 0.72993 0.38487 0.87671 0.0
O286 O 0.75117 0.37564 0.87312 0.0
C287 C 0.71482 0.38726 0.83031 0.0
C288 C 0.73983 0.43034 0.81625 0.0
C289 C 0.76014 0.37894 0.85599 0.0
O290 O 0.72575 0.39661 0.82302 0.0
O291 O 0.71383 0.38259 0.85151 0.0
O292 O 0.75585 0.42037 0.86303 0.0
O293 O 0.73487 0.40662 0.87108 0.0
Co294 Co 0.59815 0.74251 0.83877 0.0
O295 O 0.57881 0.73131 0.8329 0.0
O296 O 0.58791 0.7505 0.81079 0.0
C297 C 0.59378 0.74627 0.87743 0.0
O298 O 0.61706 0.75747 0.83998 0.0
Co299 Co 0.62318 0.72935 0.87327 0.0
O300 O 0.63242 0.75065 0.87029 0.0
C301 C 0.61962 0.71503 0.82661 0.0
C302 C 0.57677 0.74041 0.81501 0.0
C303 C 0.62875 0.76005 0.85384 0.0
O304 O 0.61057 0.7264 0.82004 0.0
O305 O 0.62448 0.71342 0.84762 0.0
O306 O 0.58743 0.75561 0.86216 0.0
O307 O 0.60133 0.73451 0.86882 0.0
Co308 Co 0.26439 0.59818 0.84053 0.0
O309 O 0.27628 0.57941 0.8335 0.0
O310 O 0.25664 0.58838 0.81215 0.0
C311 C 0.26082 0.59266 0.87889 0.0
O312 O 0.24871 0.61645 0.84263 0.0
Co313 Co 0.27604 0.62291 0.8766 0.0
O314 O 0.25423 0.63093 0.87439 0.0
C315 C 0.29061 0.62151 0.82965 0.0
C316 C 0.26708 0.57747 0.81567 0.0
C317 C 0.24528 0.62741 0.85734 0.0
O318 O 0.28007 0.61165 0.82256 0.0
O319 O 0.29159 0.62617 0.85085 0.0
O320 O 0.2517 0.5864 0.86326 0.0
O321 O 0.27226 0.60092 0.87078 0.0
Co322 Co 0.40924 0.26553 0.84003 0.0
O323 O 0.4282 0.27717 0.83314 0.0
O324 O 0.41894 0.2578 0.81153 0.0
C325 C 0.41465 0.26162 0.87838 0.0
O326 O 0.39065 0.25019 0.842 0.0
Co327 Co 0.3848 0.27763 0.87629 0.0
O328 O 0.3762 0.25607 0.87367 0.0
C329 C 0.38624 0.29212 0.8293 0.0
C330 C 0.42998 0.26809 0.81514 0.0
C331 C 0.37951 0.24706 0.85659 0.0
O332 O 0.39604 0.28153 0.82222 0.0
O333 O 0.38159 0.29314 0.8505 0.0
O334 O 0.42081 0.25252 0.86263 0.0
O335 O 0.40665 0.27328 0.87038 0.0
Co336 Co 0.26463 0.40861 0.33971 0.0
O337 O 0.27644 0.42766 0.33416 0.0
O338 O 0.25755 0.41887 0.31124 0.0
C339 C 0.26001 0.41323 0.37806 0.0
O340 O 0.24913 0.39008 0.34033 0.0
Co341 Co 0.27635 0.3834 0.37524 0.0
O342 O 0.25507 0.3745 0.3708 0.0
C343 C 0.29175 0.38622 0.3292 0.0
C344 C 0.26774 0.42983 0.31585 0.0
C345 C 0.24607 0.37839 0.35399 0.0
O346 O 0.28087 0.39565 0.32197 0.0
O347 O 0.29267 0.38142 0.35033 0.0
O348 O 0.25133 0.41994 0.3623 0.0
O349 O 0.27175 0.40529 0.37021 0.0
Co350 Co 0.59801 0.26591 0.34019 0.0
O351 O 0.57881 0.27721 0.33361 0.0
O352 O 0.58831 0.2581 0.31173 0.0
C353 C 0.59293 0.26177 0.37858 0.0
O354 O 0.6169 0.25093 0.34184 0.0
Co355 Co 0.6224 0.27851 0.37619 0.0
O356 O 0.63171 0.25728 0.37295 0.0
C357 C 0.62001 0.2933 0.32957 0.0
C358 C 0.57711 0.26819 0.31554 0.0
C359 C 0.62836 0.24815 0.35602 0.0
O360 O 0.61082 0.28221 0.32235 0.0
O361 O 0.62454 0.2945 0.35081 0.0
O362 O 0.58683 0.25261 0.36287 0.0
O363 O 0.60064 0.27361 0.37052 0.0
Co364 Co 0.74304 0.59902 0.33906 0.0
O365 O 0.73178 0.57977 0.33263 0.0
O366 O 0.75112 0.58905 0.31098 0.0
C367 C 0.74681 0.59431 0.37763 0.0
O368 O 0.75798 0.61792 0.3407 0.0
Co369 Co 0.72989 0.62369 0.3742 0.0
O370 O 0.75112 0.63309 0.37119 0.0
C371 C 0.71561 0.62066 0.3274 0.0
C372 C 0.74098 0.5779 0.31478 0.0
C373 C 0.76051 0.62956 0.35466 0.0
O374 O 0.72696 0.61166 0.32059 0.0
O375 O 0.714 0.62526 0.34854 0.0
O376 O 0.75611 0.58804 0.36224 0.0
O377 O 0.73503 0.60191 0.36918 0.0
Co378 Co 0.40909 0.74305 0.34008 0.0
O379 O 0.42823 0.73176 0.33308 0.0
O380 O 0.4187 0.75112 0.3117 0.0
C381 C 0.41444 0.74675 0.37848 0.0
O382 O 0.39025 0.75806 0.3422 0.0
Co383 Co 0.38485 0.73026 0.37612 0.0
O384 O 0.37545 0.75146 0.3732 0.0
C385 C 0.3868 0.71596 0.32907 0.0
C386 C 0.4299 0.74098 0.31521 0.0
C387 C 0.37878 0.76071 0.35641 0.0
O388 O 0.39616 0.72696 0.32203 0.0
O389 O 0.38231 0.71462 0.35031 0.0
O390 O 0.42042 0.7561 0.3629 0.0
O391 O 0.40662 0.73504 0.37028 0.0
Co392 Co 0.2653 0.59852 0.16594 0.0
O393 O 0.27726 0.57972 0.17254 0.0
O394 O 0.25799 0.58869 0.19462 0.0
C395 C 0.26134 0.59296 0.12765 0.0
O396 O 0.24957 0.6168 0.16424 0.0
Co397 Co 0.27648 0.62321 0.12943 0.0
O398 O 0.25465 0.63108 0.1321 0.0
C399 C 0.29158 0.62194 0.17605 0.0
C400 C 0.26836 0.57776 0.19069 0.0
C401 C 0.24592 0.62766 0.14945 0.0
O402 O 0.28121 0.61201 0.18345 0.0
O403 O 0.29225 0.6266 0.15481 0.0
O404 O 0.25236 0.58671 0.14348 0.0
O405 O 0.27282 0.60126 0.13552 0.0
Co406 Co 0.40868 0.26503 0.16533 0.0
O407 O 0.42768 0.27665 0.1721 0.0
O408 O 0.41842 0.25733 0.19382 0.0
C409 C 0.41399 0.26107 0.12696 0.0
O410 O 0.39008 0.2497 0.16354 0.0
Co411 Co 0.38415 0.27705 0.12914 0.0
O412 O 0.37539 0.25558 0.13212 0.0
C413 C 0.38587 0.29178 0.17594 0.0
C414 C 0.42947 0.2676 0.19014 0.0
C415 C 0.3788 0.24659 0.14918 0.0
O416 O 0.39554 0.28109 0.18312 0.0
O417 O 0.38124 0.29276 0.15472 0.0
O418 O 0.42019 0.25198 0.14268 0.0
O419 O 0.40601 0.27273 0.13499 0.0
Co420 Co 0.74259 0.40912 0.16555 0.0
O421 O 0.73109 0.42815 0.1725 0.0
O422 O 0.75041 0.41872 0.19406 0.0
C423 C 0.74655 0.41455 0.12722 0.0
O424 O 0.75783 0.39045 0.16351 0.0
Co425 Co 0.7304 0.38481 0.12913 0.0
O426 O 0.75187 0.37603 0.13185 0.0
C427 C 0.71598 0.38611 0.17621 0.0
C428 C 0.74022 0.42985 0.19047 0.0
C429 C 0.76088 0.37927 0.14895 0.0
O430 O 0.72652 0.39596 0.18331 0.0
O431 O 0.71498 0.38149 0.15499 0.0
O432 O 0.75568 0.42064 0.14298 0.0
O433 O 0.73484 0.40662 0.13519 0.0
Co434 Co 0.59873 0.74321 0.16572 0.0
O435 O 0.57959 0.73185 0.1725 0.0
O436 O 0.58873 0.75153 0.19361 0.0
C437 C 0.59389 0.74644 0.12708 0.0
O438 O 0.61743 0.75837 0.16372 0.0
Co439 Co 0.62361 0.73018 0.13089 0.0
O440 O 0.63262 0.75162 0.13321 0.0
C441 C 0.62062 0.71613 0.17787 0.0
C442 C 0.57765 0.74125 0.1901 0.0
C443 C 0.62895 0.76105 0.14962 0.0
O444 O 0.61153 0.72745 0.18453 0.0
O445 O 0.62528 0.71446 0.15677 0.0
O446 O 0.5876 0.75589 0.14225 0.0
O447 O 0.6017 0.73488 0.1358 0.0
H448 H 0.37949 0.22511 0.18544 0.0
H449 H 0.36139 0.20301 0.19198 0.0
H450 H 0.33725 0.21417 0.12798 0.0
H451 H 0.35504 0.23605 0.12129 0.0
H452 H 0.31765 0.21116 0.16956 0.0
H453 H 0.35746 0.16002 0.15542 0.0
H454 H 0.3638 0.17564 0.17445 0.0
H455 H 0.36189 0.17925 0.14377 0.0
C456 C 0.37043 0.22275 0.17265 0.0
C457 C 0.36873 0.23247 0.15288 0.0
C458 C 0.36012 0.21009 0.17639 0.0
C459 C 0.348 0.20692 0.16041 0.0
C460 C 0.3465 0.2164 0.14054 0.0
H461 H 0.27028 0.15238 0.12238 0.0
H462 H 0.29206 0.1703 0.12879 0.0
C463 C 0.35674 0.22895 0.13677 0.0
C464 C 0.33622 0.19433 0.16454 0.0
H465 H 0.33054 0.15463 0.16066 0.0
C466 C 0.32052 0.19878 0.168 0.0
C467 C 0.33998 0.17819 0.16265 0.0
C468 C 0.35667 0.17285 0.15878 0.0
C469 C 0.3084 0.18761 0.16862 0.0
C470 C 0.31202 0.17154 0.1653 0.0
C471 C 0.32781 0.16696 0.16314 0.0
C472 C 0.29938 0.15978 0.16136 0.0
C473 C 0.29172 0.19314 0.17212 0.0
C474 C 0.2965 0.14754 0.17725 0.0
C475 C 0.2839 0.13713 0.17365 0.0
C476 C 0.27406 0.13876 0.15401 0.0
C477 C 0.27742 0.15077 0.13784 0.0
C478 C 0.2899 0.1611 0.14147 0.0
H479 H 0.29132 0.20478 0.18088 0.0
H480 H 0.28592 0.19432 0.15487 0.0
H481 H 0.28491 0.18458 0.18268 0.0
H482 H 0.30376 0.14627 0.19266 0.0
H483 H 0.28173 0.128 0.18641 0.0
H484 H 0.87953 0.28216 0.18441 0.0
H485 H 0.8614 0.30431 0.19047 0.0
H486 H 0.8361 0.29136 0.12825 0.0
H487 H 0.85389 0.26942 0.12203 0.0
H488 H 0.85259 0.33042 0.15831 0.0
H489 H 0.80253 0.29179 0.18132 0.0
H490 H 0.8227 0.28523 0.18241 0.0
H491 H 0.81243 0.28603 0.155 0.0
C492 C 0.87015 0.28407 0.17197 0.0
C493 C 0.86813 0.27384 0.15285 0.0
C494 C 0.85982 0.29674 0.17546 0.0
C495 C 0.84726 0.29931 0.16001 0.0
C496 C 0.84554 0.28944 0.14061 0.0
H497 H 0.77105 0.35539 0.12096 0.0
H498 H 0.79287 0.33749 0.12732 0.0
C499 C 0.8558 0.27687 0.13708 0.0
C500 C 0.83562 0.31206 0.16393 0.0
H501 H 0.79612 0.31803 0.16951 0.0
C502 C 0.84028 0.32779 0.16127 0.0
C503 C 0.81959 0.3086 0.16791 0.0
C504 C 0.814 0.292 0.17206 0.0
C505 C 0.82913 0.34004 0.16095 0.0
C506 C 0.813 0.33642 0.1635 0.0
C507 C 0.80849 0.32078 0.16743 0.0
C508 C 0.80044 0.34825 0.15957 0.0
C509 C 0.83451 0.35666 0.15656 0.0
C510 C 0.79747 0.36041 0.17558 0.0
C511 C 0.78484 0.37078 0.17204 0.0
C512 C 0.77496 0.36912 0.15245 0.0
C513 C 0.77828 0.35708 0.13631 0.0
C514 C 0.7908 0.34678 0.13989 0.0
H515 H 0.84731 0.35735 0.15295 0.0
H516 H 0.82802 0.36173 0.14152 0.0
H517 H 0.83186 0.36399 0.17208 0.0
H518 H 0.8047 0.36166 0.19102 0.0
H519 H 0.78264 0.37987 0.18484 0.0
H520 H 0.6518 0.77202 0.12037 0.0
H521 H 0.66862 0.79488 0.12533 0.0
H522 H 0.64548 0.80587 0.19022 0.0
H523 H 0.62846 0.78275 0.18551 0.0
H524 H 0.6595 0.82712 0.13044 0.0
H525 H 0.69314 0.80487 0.20706 0.0
H526 H 0.68168 0.79198 0.1887 0.0
H527 H 0.67202 0.80486 0.20889 0.0
C528 C 0.65021 0.77922 0.13577 0.0
C529 C 0.63876 0.77542 0.15261 0.0
C530 C 0.65986 0.79235 0.13853 0.0
C531 C 0.65844 0.802 0.15824 0.0
C532 C 0.64692 0.79845 0.17502 0.0
H533 H 0.72627 0.87907 0.18564 0.0
H534 H 0.70299 0.8622 0.19026 0.0
C535 C 0.63715 0.78528 0.17222 0.0
C536 C 0.66913 0.81572 0.16076 0.0
H537 H 0.70161 0.82858 0.19026 0.0
C538 C 0.66856 0.82756 0.14374 0.0
C539 C 0.68088 0.81636 0.17822 0.0
C540 C 0.68213 0.80384 0.19675 0.0
C541 C 0.67978 0.83966 0.14312 0.0
C542 C 0.69211 0.83977 0.15969 0.0
C543 C 0.69218 0.82845 0.17753 0.0
C544 C 0.70589 0.85038 0.15711 0.0
C545 C 0.67853 0.85203 0.12435 0.0
C546 C 0.71533 0.84921 0.13713 0.0
C547 C 0.72856 0.85872 0.13447 0.0
C548 C 0.7328 0.86967 0.1518 0.0
C549 C 0.72333 0.87084 0.1719 0.0
C550 C 0.71005 0.8612 0.17459 0.0
H551 H 0.66622 0.85336 0.1182 0.0
H552 H 0.68282 0.86359 0.13066 0.0
H553 H 0.6858 0.84846 0.10917 0.0
H554 H 0.71256 0.84074 0.12363 0.0
H555 H 0.7355 0.85739 0.11876 0.0
H556 H 0.22667 0.62944 0.18822 0.0
H557 H 0.20337 0.64621 0.19339 0.0
H558 H 0.20915 0.664 0.12348 0.0
H559 H 0.23214 0.64744 0.11811 0.0
H560 H 0.20192 0.67979 0.18943 0.0
H561 H 0.16265 0.65116 0.12539 0.0
H562 H 0.1799 0.64159 0.13704 0.0
H563 H 0.18166 0.65545 0.11345 0.0
C564 C 0.22286 0.6368 0.17387 0.0
C565 C 0.23132 0.63704 0.15274 0.0
C566 C 0.20958 0.6464 0.17689 0.0
C567 C 0.20438 0.6562 0.1587 0.0
C568 C 0.21273 0.65634 0.13761 0.0
H569 H 0.14873 0.73255 0.11906 0.0
H570 H 0.16541 0.70968 0.12479 0.0
C571 C 0.22599 0.64689 0.13464 0.0
C572 C 0.19073 0.66694 0.1617 0.0
H573 H 0.15653 0.67801 0.1352 0.0
C574 C 0.19179 0.67923 0.17798 0.0
C575 C 0.1775 0.66615 0.1468 0.0
C576 C 0.17525 0.65278 0.12984 0.0
C577 C 0.18054 0.69136 0.17857 0.0
C578 C 0.16782 0.69106 0.16266 0.0
C579 C 0.16631 0.67828 0.14732 0.0
C580 C 0.15707 0.7047 0.15966 0.0
C581 C 0.18285 0.70491 0.19518 0.0
C582 C 0.14661 0.70944 0.17729 0.0
C583 C 0.13691 0.72263 0.17405 0.0
C584 C 0.13758 0.73133 0.15315 0.0
C585 C 0.14792 0.72629 0.13546 0.0
C586 C 0.15747 0.71314 0.13867 0.0
H587 H 0.19439 0.7044 0.2042 0.0
H588 H 0.18197 0.71626 0.1857 0.0
H589 H 0.17345 0.7047 0.20861 0.0
H590 H 0.14595 0.70296 0.19353 0.0
H591 H 0.12908 0.72614 0.18801 0.0
H592 H 0.26851 0.85287 0.38216 0.0
H593 H 0.29063 0.83536 0.37573 0.0
H594 H 0.30499 0.86286 0.3163 0.0
H595 H 0.28266 0.88072 0.32259 0.0
H596 H 0.29627 0.81798 0.33261 0.0
H597 H 0.34577 0.85741 0.35769 0.0
H598 H 0.32587 0.86106 0.36725 0.0
H599 H 0.33123 0.86458 0.33746 0.0
C600 C 0.27634 0.85537 0.36774 0.0
C601 C 0.27369 0.86828 0.35286 0.0
C602 C 0.28903 0.84527 0.3641 0.0
C603 C 0.2995 0.84782 0.34563 0.0
C604 C 0.29712 0.86077 0.33082 0.0
H605 H 0.3806 0.7838 0.32248 0.0
H606 H 0.36226 0.80576 0.3162 0.0
C607 C 0.28432 0.87093 0.3344 0.0
C608 C 0.31245 0.8364 0.34178 0.0
H609 H 0.35187 0.83091 0.35017 0.0
C610 C 0.30846 0.82087 0.33606 0.0
C611 C 0.32837 0.8402 0.34617 0.0
C612 C 0.33319 0.85668 0.35259 0.0
C613 C 0.31982 0.80892 0.33559 0.0
C614 C 0.33558 0.81252 0.34135 0.0
C615 C 0.33977 0.82819 0.34581 0.0
C616 C 0.34728 0.79985 0.34539 0.0
C617 C 0.3148 0.79241 0.32961 0.0
C618 C 0.34512 0.78951 0.36414 0.0
C619 C 0.35551 0.77708 0.36783 0.0
C620 C 0.3684 0.77462 0.35283 0.0
C621 C 0.37079 0.78527 0.33433 0.0
C622 C 0.36034 0.79783 0.3307 0.0
H623 H 0.30364 0.7923 0.31954 0.0
H624 H 0.324 0.78627 0.31933 0.0
H625 H 0.31287 0.78571 0.34599 0.0
H626 H 0.33524 0.79098 0.37588 0.0
H627 H 0.35325 0.76926 0.38236 0.0
H628 H 0.22459 0.37959 0.31765 0.0
H629 H 0.20226 0.36176 0.3109 0.0
H630 H 0.21327 0.33704 0.37447 0.0
H631 H 0.23531 0.35452 0.38138 0.0
H632 H 0.21004 0.31796 0.33145 0.0
H633 H 0.15936 0.35774 0.34919 0.0
H634 H 0.17511 0.36435 0.33056 0.0
H635 H 0.17861 0.36165 0.36113 0.0
C636 C 0.22216 0.37045 0.33028 0.0
C637 C 0.23187 0.36849 0.34999 0.0
C638 C 0.20937 0.3603 0.32642 0.0
C639 C 0.20611 0.3481 0.34223 0.0
C640 C 0.21558 0.34636 0.36204 0.0
H641 H 0.15279 0.27025 0.38204 0.0
H642 H 0.1705 0.29212 0.37473 0.0
C643 C 0.22824 0.35641 0.36592 0.0
C644 C 0.1934 0.33647 0.33809 0.0
H645 H 0.15387 0.33078 0.34468 0.0
C646 C 0.19772 0.32082 0.33388 0.0
C647 C 0.17734 0.34023 0.34117 0.0
C648 C 0.17218 0.35687 0.34583 0.0
C649 C 0.18653 0.30872 0.3338 0.0
C650 C 0.1706 0.3123 0.33842 0.0
C651 C 0.1661 0.32806 0.34123 0.0
C652 C 0.159 0.29963 0.34301 0.0
C653 C 0.19192 0.29207 0.32955 0.0
C654 C 0.1463 0.29683 0.32791 0.0
C655 C 0.13603 0.2842 0.33202 0.0
C656 C 0.13825 0.27424 0.3514 0.0
C657 C 0.15072 0.27751 0.36682 0.0
C658 C 0.16093 0.29002 0.36266 0.0
H659 H 0.20327 0.29175 0.31999 0.0
H660 H 0.19362 0.2861 0.34658 0.0
H661 H 0.18302 0.28537 0.31946 0.0
H662 H 0.14456 0.30419 0.3127 0.0
H663 H 0.12654 0.2821 0.31983 0.0
H664 H 0.73784 0.15457 0.3815 0.0
H665 H 0.71591 0.17237 0.3754 0.0
H666 H 0.70211 0.14636 0.31421 0.0
H667 H 0.72423 0.12821 0.3202 0.0
H668 H 0.71106 0.19091 0.33395 0.0
H669 H 0.66072 0.15113 0.35345 0.0
H670 H 0.68043 0.14682 0.36321 0.0
H671 H 0.6754 0.14455 0.33302 0.0
C672 C 0.73016 0.15247 0.36675 0.0
C673 C 0.73291 0.13989 0.3513 0.0
C674 C 0.71758 0.16272 0.36331 0.0
C675 C 0.70732 0.16068 0.34444 0.0
C676 C 0.70979 0.14805 0.32906 0.0
H677 H 0.62721 0.22587 0.32084 0.0
H678 H 0.64555 0.20393 0.31441 0.0
C679 C 0.72248 0.13772 0.33247 0.0
C680 C 0.69453 0.17233 0.34076 0.0
H681 H 0.65493 0.17784 0.34701 0.0
C682 C 0.69876 0.188 0.33644 0.0
C683 C 0.67848 0.16851 0.34387 0.0
C684 C 0.67336 0.15187 0.34876 0.0
C685 C 0.68749 0.20003 0.33613 0.0
C686 C 0.67156 0.19638 0.34061 0.0
C687 C 0.66716 0.18061 0.34365 0.0
C688 C 0.65981 0.20899 0.34472 0.0
C689 C 0.69279 0.21668 0.33166 0.0
C690 C 0.66154 0.21884 0.36415 0.0
C691 C 0.65116 0.23127 0.3679 0.0
C692 C 0.63869 0.23421 0.35232 0.0
C693 C 0.63669 0.22402 0.33315 0.0
C694 C 0.64714 0.21147 0.32944 0.0
H695 H 0.70419 0.21702 0.32223 0.0
H696 H 0.6839 0.22324 0.32134 0.0
H697 H 0.69435 0.2228 0.3486 0.0
H698 H 0.67109 0.217 0.37636 0.0
H699 H 0.65308 0.2387 0.38297 0.0
H700 H 0.78295 0.6284 0.31973 0.0
H701 H 0.80499 0.64662 0.31362 0.0
H702 H 0.79167 0.67217 0.37547 0.0
H703 H 0.76981 0.65428 0.3817 0.0
H704 H 0.796 0.69099 0.33414 0.0
H705 H 0.84675 0.65138 0.35198 0.0
H706 H 0.8319 0.64484 0.3318 0.0
H707 H 0.82716 0.6469 0.36213 0.0
C708 C 0.7848 0.63781 0.33214 0.0
C709 C 0.7745 0.63984 0.35117 0.0
C710 C 0.79744 0.64819 0.32865 0.0
C711 C 0.80001 0.66072 0.34416 0.0
C712 C 0.78991 0.6626 0.36327 0.0
H713 H 0.85412 0.73873 0.38267 0.0
H714 H 0.83617 0.71699 0.37599 0.0
C715 C 0.77737 0.6523 0.36679 0.0
C716 C 0.8127 0.67246 0.34035 0.0
H717 H 0.85232 0.67815 0.34575 0.0
C718 C 0.80834 0.68813 0.33632 0.0
C719 C 0.8288 0.66871 0.34303 0.0
C720 C 0.83406 0.65208 0.34758 0.0
C721 C 0.81953 0.70023 0.33588 0.0
C722 C 0.83553 0.69663 0.33994 0.0
C723 C 0.84005 0.68087 0.34269 0.0
C724 C 0.84724 0.70929 0.34403 0.0
C725 C 0.8141 0.71687 0.33174 0.0
C726 C 0.85977 0.71196 0.32856 0.0
C727 C 0.87019 0.72453 0.3323 0.0
C728 C 0.86829 0.73455 0.35168 0.0
C729 C 0.85595 0.73143 0.36743 0.0
C730 C 0.84561 0.71898 0.36364 0.0
H731 H 0.80261 0.71719 0.32254 0.0
H732 H 0.81264 0.72287 0.3488 0.0
H733 H 0.82285 0.72355 0.32134 0.0
H734 H 0.86128 0.70454 0.31337 0.0
H735 H 0.87957 0.72652 0.31987 0.0
H736 H 0.72521 0.87921 0.81905 0.0
H737 H 0.70194 0.86232 0.81448 0.0
H738 H 0.71383 0.83813 0.87816 0.0
H739 H 0.73676 0.85478 0.883 0.0
H740 H 0.70048 0.82857 0.81167 0.0
H741 H 0.66777 0.85071 0.88831 0.0
H742 H 0.68392 0.86139 0.87537 0.0
H743 H 0.68764 0.84548 0.89532 0.0
C744 C 0.72281 0.87035 0.83214 0.0
C745 C 0.73289 0.86846 0.85145 0.0
C746 C 0.70952 0.8607 0.82948 0.0
C747 C 0.706 0.84913 0.84619 0.0
C748 C 0.7161 0.84718 0.86529 0.0
H749 H 0.65281 0.77004 0.88164 0.0
H750 H 0.66963 0.79286 0.87664 0.0
C751 C 0.72932 0.85671 0.86793 0.0
C752 C 0.6921 0.83864 0.84378 0.0
H753 H 0.6605 0.82501 0.87446 0.0
C754 C 0.69151 0.82799 0.82508 0.0
C755 C 0.68036 0.83795 0.86124 0.0
C756 C 0.67984 0.8496 0.88107 0.0
C757 C 0.68015 0.81595 0.82431 0.0
C758 C 0.66902 0.81469 0.84258 0.0
C759 C 0.66909 0.82592 0.86052 0.0
C760 C 0.65842 0.80088 0.84495 0.0
C761 C 0.6807 0.80411 0.80474 0.0
C762 C 0.64634 0.7978 0.82884 0.0
C763 C 0.63656 0.78462 0.83165 0.0
C764 C 0.63871 0.7743 0.85062 0.0
C765 C 0.65076 0.77761 0.86675 0.0
C766 C 0.66043 0.79072 0.86396 0.0
H767 H 0.69135 0.80549 0.7937 0.0
H768 H 0.68047 0.79198 0.81186 0.0
H769 H 0.6702 0.8056 0.79349 0.0
H770 H 0.64443 0.80561 0.8142 0.0
H771 H 0.6274 0.78249 0.81893 0.0
H772 H 0.14777 0.7321 0.88779 0.0
H773 H 0.16443 0.7092 0.88226 0.0
H774 H 0.14498 0.70224 0.81357 0.0
H775 H 0.12817 0.72547 0.81886 0.0
H776 H 0.15589 0.67765 0.87246 0.0
H777 H 0.19316 0.70362 0.8024 0.0
H778 H 0.1806 0.71554 0.82061 0.0
H779 H 0.17223 0.7036 0.79801 0.0
C780 C 0.14695 0.72577 0.87144 0.0
C781 C 0.13666 0.73077 0.85369 0.0
C782 C 0.1565 0.71261 0.86835 0.0
C783 C 0.15611 0.7041 0.84742 0.0
C784 C 0.14565 0.70878 0.82975 0.0
H785 H 0.22555 0.62874 0.81912 0.0
H786 H 0.20219 0.64542 0.81416 0.0
C787 C 0.13598 0.722 0.83286 0.0
C788 C 0.1669 0.69048 0.84451 0.0
H789 H 0.20083 0.67911 0.81737 0.0
C790 C 0.16557 0.67785 0.86015 0.0
C791 C 0.17949 0.69069 0.82837 0.0
C792 C 0.18162 0.70409 0.81142 0.0
C793 C 0.17683 0.6658 0.86077 0.0
C794 C 0.18993 0.6665 0.8456 0.0
C795 C 0.1908 0.67862 0.82902 0.0
C796 C 0.20364 0.65583 0.84853 0.0
C797 C 0.17481 0.65259 0.87807 0.0
C798 C 0.21225 0.65625 0.86937 0.0
C799 C 0.22556 0.64686 0.87222 0.0
C800 C 0.23066 0.63679 0.85425 0.0
C801 C 0.22193 0.63628 0.83337 0.0
C802 C 0.2086 0.64582 0.83047 0.0
H803 H 0.16227 0.651 0.88293 0.0
H804 H 0.17938 0.64134 0.87098 0.0
H805 H 0.18144 0.65542 0.89421 0.0
H806 H 0.20883 0.66408 0.88338 0.0
H807 H 0.23193 0.6476 0.88855 0.0
H808 H 0.35677 0.2359 0.88578 0.0
H809 H 0.33883 0.21409 0.8795 0.0
H810 H 0.36095 0.20412 0.81348 0.0
H811 H 0.37921 0.22614 0.81961 0.0
H812 H 0.31795 0.21197 0.83966 0.0
H813 H 0.35797 0.16042 0.8478 0.0
H814 H 0.36296 0.17939 0.85986 0.0
H815 H 0.36367 0.17636 0.82892 0.0
C816 C 0.358 0.22907 0.86994 0.0
C817 C 0.36946 0.23291 0.85314 0.0
C818 C 0.34768 0.21656 0.86641 0.0
C819 C 0.34856 0.20744 0.84608 0.0
C820 C 0.36017 0.21091 0.82943 0.0
H821 H 0.28114 0.12962 0.81964 0.0
H822 H 0.30319 0.14787 0.81341 0.0
C823 C 0.37057 0.22352 0.83294 0.0
C824 C 0.3366 0.19498 0.84221 0.0
H825 H 0.3309 0.15521 0.84399 0.0
C826 C 0.32081 0.19955 0.84025 0.0
C827 C 0.34035 0.17879 0.84281 0.0
C828 C 0.35713 0.17331 0.84505 0.0
C829 C 0.30865 0.18843 0.83985 0.0
C830 C 0.31231 0.17227 0.84186 0.0
C831 C 0.32813 0.1676 0.84253 0.0
C832 C 0.29976 0.16042 0.84583 0.0
C833 C 0.2919 0.1941 0.83795 0.0
C834 C 0.29083 0.16118 0.86634 0.0
C835 C 0.27833 0.15086 0.86996 0.0
C836 C 0.27442 0.13943 0.85315 0.0
C837 C 0.28375 0.1383 0.8329 0.0
C838 C 0.29636 0.14871 0.82931 0.0
H839 H 0.29125 0.20598 0.82999 0.0
H840 H 0.2847 0.18587 0.82737 0.0
H841 H 0.28668 0.19478 0.85567 0.0
H842 H 0.2934 0.16995 0.8795 0.0
H843 H 0.2716 0.15204 0.8859 0.0
H844 H 0.85381 0.26972 0.88235 0.0
H845 H 0.83584 0.29149 0.87596 0.0
H846 H 0.86148 0.30488 0.81424 0.0
H847 H 0.87978 0.28288 0.82045 0.0
H848 H 0.85207 0.3308 0.84703 0.0
H849 H 0.8028 0.29177 0.8218 0.0
H850 H 0.8126 0.28585 0.84813 0.0
H851 H 0.82308 0.28553 0.82089 0.0
C852 C 0.85576 0.27724 0.86738 0.0
C853 C 0.86824 0.27437 0.85179 0.0
C854 C 0.8454 0.2897 0.86375 0.0
C855 C 0.84717 0.29966 0.84445 0.0
C856 C 0.85986 0.29725 0.82918 0.0
H857 H 0.78238 0.38031 0.82076 0.0
H858 H 0.80452 0.36223 0.81434 0.0
C859 C 0.87029 0.28467 0.83276 0.0
C860 C 0.83543 0.3123 0.84044 0.0
H861 H 0.79593 0.31782 0.83386 0.0
C862 C 0.83984 0.32806 0.84363 0.0
C863 C 0.8195 0.30867 0.83591 0.0
C864 C 0.81419 0.29205 0.83126 0.0
C865 C 0.82852 0.34015 0.84397 0.0
C866 C 0.81248 0.33635 0.84084 0.0
C867 C 0.80823 0.32071 0.83636 0.0
C868 C 0.7997 0.34797 0.84477 0.0
C869 C 0.83364 0.35677 0.849 0.0
C870 C 0.78967 0.34595 0.86392 0.0
C871 C 0.77709 0.35616 0.86763 0.0
C872 C 0.7741 0.36868 0.85216 0.0
C873 C 0.78431 0.37083 0.83304 0.0
C874 C 0.797 0.36055 0.82938 0.0
H875 H 0.84634 0.35753 0.85334 0.0
H876 H 0.83134 0.36422 0.83348 0.0
H877 H 0.82673 0.36165 0.86376 0.0
H878 H 0.79152 0.33633 0.87602 0.0
H879 H 0.7696 0.35407 0.88258 0.0
H880 H 0.62814 0.22586 0.68545 0.0
H881 H 0.64649 0.20392 0.69183 0.0
H882 H 0.67009 0.21513 0.62742 0.0
H883 H 0.65206 0.23682 0.62084 0.0
H884 H 0.655 0.17684 0.65978 0.0
H885 H 0.70465 0.21679 0.67983 0.0
H886 H 0.68436 0.22291 0.68172 0.0
H887 H 0.69401 0.22193 0.65385 0.0
C888 C 0.63717 0.22358 0.67257 0.0
C889 C 0.63866 0.23327 0.65274 0.0
C890 C 0.64764 0.21104 0.67625 0.0
C891 C 0.65979 0.20806 0.66026 0.0
C892 C 0.66095 0.21736 0.64016 0.0
H893 H 0.7373 0.1533 0.62235 0.0
H894 H 0.71532 0.17102 0.62857 0.0
C895 C 0.65056 0.22979 0.63644 0.0
C896 C 0.67168 0.19558 0.6644 0.0
H897 H 0.71133 0.19044 0.66928 0.0
C898 C 0.66729 0.17973 0.66237 0.0
C899 C 0.68768 0.19941 0.66786 0.0
C900 C 0.69299 0.21618 0.67117 0.0
C901 C 0.67866 0.16769 0.66218 0.0
C902 C 0.69475 0.17164 0.66426 0.0
C903 C 0.699 0.18742 0.66757 0.0
C904 C 0.70752 0.15998 0.66051 0.0
C905 C 0.67353 0.15093 0.6584 0.0
C906 C 0.71044 0.14774 0.67639 0.0
C907 C 0.72317 0.13746 0.6729 0.0
C908 C 0.73319 0.13931 0.65352 0.0
C909 C 0.72996 0.15147 0.63755 0.0
C910 C 0.71735 0.16167 0.64105 0.0
H911 H 0.66078 0.15003 0.65441 0.0
H912 H 0.68028 0.14558 0.64384 0.0
H913 H 0.67597 0.14398 0.67437 0.0
H914 H 0.7031 0.14633 0.69168 0.0
H915 H 0.72529 0.12826 0.68558 0.0
H916 H 0.76867 0.65468 0.62396 0.0
H917 H 0.79058 0.67245 0.63041 0.0
H918 H 0.80431 0.646 0.69122 0.0
H919 H 0.78221 0.62788 0.68488 0.0
H920 H 0.79545 0.69072 0.67205 0.0
H921 H 0.84573 0.65094 0.65221 0.0
H922 H 0.82601 0.6467 0.64241 0.0
H923 H 0.83105 0.64429 0.67257 0.0
C924 C 0.77632 0.65248 0.6387 0.0
C925 C 0.77356 0.63978 0.65393 0.0
C926 C 0.78889 0.66271 0.64234 0.0
C927 C 0.79914 0.66053 0.66121 0.0
C928 C 0.79665 0.6478 0.67638 0.0
H929 H 0.8794 0.72556 0.68519 0.0
H930 H 0.861 0.70367 0.69173 0.0
C931 C 0.78397 0.63749 0.67276 0.0
C932 C 0.81195 0.67213 0.66508 0.0
H933 H 0.85156 0.6776 0.65897 0.0
C934 C 0.80774 0.68779 0.66956 0.0
C935 C 0.82799 0.6683 0.66198 0.0
C936 C 0.83309 0.65168 0.65691 0.0
C937 C 0.81903 0.6998 0.67002 0.0
C938 C 0.83496 0.69614 0.66554 0.0
C939 C 0.83934 0.68037 0.66235 0.0
C940 C 0.84672 0.70875 0.66144 0.0
C941 C 0.81376 0.71644 0.67462 0.0
C942 C 0.84498 0.71859 0.64201 0.0
C943 C 0.8554 0.73098 0.6382 0.0
C944 C 0.8679 0.73389 0.65373 0.0
C945 C 0.86989 0.72373 0.67292 0.0
C946 C 0.85941 0.71121 0.67669 0.0
H947 H 0.80236 0.71676 0.68405 0.0
H948 H 0.82266 0.72295 0.68499 0.0
H949 H 0.8122 0.72262 0.65772 0.0
H950 H 0.83542 0.71676 0.62982 0.0
H951 H 0.85347 0.73839 0.6231 0.0
H952 H 0.27186 0.85772 0.62121 0.0
H953 H 0.29477 0.84102 0.62646 0.0
H954 H 0.30363 0.86225 0.69346 0.0
H955 H 0.28044 0.87915 0.68845 0.0
H956 H 0.32682 0.85037 0.63435 0.0
H957 H 0.30255 0.81398 0.70676 0.0
H958 H 0.2901 0.82584 0.6883 0.0
H959 H 0.30219 0.83501 0.71 0.0
C960 C 0.2786 0.85892 0.63714 0.0
C961 C 0.27417 0.86978 0.65448 0.0
C962 C 0.29177 0.84934 0.64006 0.0
C963 C 0.30084 0.85026 0.66042 0.0
C964 C 0.29667 0.86121 0.67772 0.0
H965 H 0.37716 0.78161 0.68766 0.0
H966 H 0.3603 0.80483 0.69285 0.0
C967 C 0.28346 0.87091 0.67476 0.0
C968 C 0.31458 0.83961 0.66308 0.0
H969 H 0.32671 0.80614 0.69075 0.0
C970 C 0.32692 0.84084 0.64693 0.0
C971 C 0.31477 0.82724 0.6796 0.0
C972 C 0.3017 0.82528 0.69714 0.0
C973 C 0.33908 0.8297 0.64621 0.0
C974 C 0.33876 0.81678 0.66176 0.0
C975 C 0.32692 0.81602 0.6788 0.0
C976 C 0.34949 0.80313 0.65876 0.0
C977 C 0.35199 0.83166 0.6284 0.0
C978 C 0.34891 0.7944 0.63803 0.0
C979 C 0.35842 0.78119 0.63505 0.0
C980 C 0.36876 0.77628 0.65279 0.0
C981 C 0.36941 0.78508 0.67359 0.0
C982 C 0.35976 0.79833 0.67661 0.0
H983 H 0.35345 0.84418 0.62334 0.0
H984 H 0.36338 0.82717 0.63512 0.0
H985 H 0.34891 0.82495 0.61244 0.0
H986 H 0.34087 0.79767 0.6242 0.0
H987 H 0.35754 0.77477 0.61879 0.0
H988 H 0.12853 0.28255 0.68421 0.0
H989 H 0.14689 0.30454 0.68986 0.0
H990 H 0.17035 0.29247 0.62566 0.0
H991 H 0.15232 0.27068 0.61987 0.0
H992 H 0.19051 0.29588 0.66566 0.0
H993 H 0.15057 0.3471 0.65329 0.0
H994 H 0.14461 0.33186 0.67323 0.0
H995 H 0.14568 0.32774 0.64259 0.0
C996 C 0.1375 0.28468 0.67118 0.0
C997 C 0.13892 0.27474 0.65163 0.0
C998 C 0.14795 0.29729 0.67441 0.0
C999 C 0.15996 0.30018 0.65812 0.0
C1000 C 0.16119 0.29046 0.63846 0.0
H1001 H 0.23789 0.35548 0.6197 0.0
H1002 H 0.21624 0.33727 0.62556 0.0
C1003 C 0.15082 0.27796 0.63521 0.0
C1004 C 0.17186 0.31276 0.66167 0.0
H1005 H 0.1775 0.35249 0.65839 0.0
C1006 C 0.18762 0.30827 0.66438 0.0
C1007 C 0.16809 0.32892 0.66018 0.0
C1008 C 0.15135 0.33432 0.65705 0.0
C1009 C 0.19976 0.31944 0.66475 0.0
C1010 C 0.1961 0.33554 0.66194 0.0
C1011 C 0.18028 0.34014 0.66044 0.0
C1012 C 0.20868 0.34742 0.65827 0.0
C1013 C 0.21648 0.31386 0.66763 0.0
C1014 C 0.21137 0.35955 0.6744 0.0
C1015 C 0.22387 0.37012 0.67112 0.0
C1016 C 0.23381 0.36878 0.65154 0.0
C1017 C 0.23066 0.35687 0.63511 0.0
C1018 C 0.21826 0.34637 0.63844 0.0
H1019 H 0.21699 0.30214 0.67614 0.0
H1020 H 0.22204 0.31283 0.65018 0.0
H1021 H 0.22345 0.32231 0.67815 0.0
H1022 H 0.20403 0.36063 0.68977 0.0
H1023 H 0.22588 0.37917 0.68407 0.0
H1024 H 0.23005 0.10694 0.09252 0.0
H1025 H 0.23502 0.10573 0.05069 0.0
H1026 H 0.2758 0.07682 0.06288 0.0
H1027 H 0.27085 0.07794 0.10517 0.0
H1028 H 0.26286 0.11542 0.02639 0.0
H1029 H 0.2493 0.0519 0.01404 0.0
H1030 H 0.24314 0.06256 0.0397 0.0
H1031 H 0.26335 0.0571 0.03621 0.0
C1032 C 0.2401 0.10031 0.0864 0.0
C1033 C 0.25005 0.09251 0.10219 0.0
C1034 C 0.24292 0.09965 0.06245 0.0
C1035 C 0.25569 0.09109 0.05366 0.0
C1036 C 0.26576 0.08333 0.06931 0.0
H1037 H 0.27033 0.07833 0.90171 0.0
H1038 H 0.27538 0.07722 0.94399 0.0
C1039 C 0.26296 0.08404 0.09343 0.0
C1040 C 0.25825 0.09057 0.02805 0.0
H1041 H 0.25423 0.06683 0.98032 0.0
C1042 C 0.26121 0.10475 0.01633 0.0
C1043 C 0.25618 0.07663 0.01497 0.0
C1044 C 0.25273 0.06115 0.02673 0.0
C1045 C 0.26154 0.10547 0.99187 0.0
C1046 C 0.25858 0.09171 0.97876 0.0
C1047 C 0.25647 0.07736 0.99044 0.0
C1048 C 0.25592 0.09236 0.95318 0.0
C1049 C 0.26468 0.12107 0.98025 0.0
C1050 C 0.24321 0.10103 0.94444 0.0
C1051 C 0.24029 0.10162 0.92051 0.0
C1052 C 0.24999 0.09353 0.90472 0.0
C1053 C 0.2627 0.08474 0.91345 0.0
C1054 C 0.26558 0.08409 0.93755 0.0
H1055 H 0.27137 0.12908 0.9919 0.0
H1056 H 0.27134 0.11952 0.96375 0.0
H1057 H 0.25331 0.12681 0.97608 0.0
H1058 H 0.23541 0.10724 0.95621 0.0
H1059 H 0.23034 0.10842 0.91443 0.0
H1060 H 0.9292 0.27042 0.90106 0.0
H1061 H 0.9303 0.27475 0.94348 0.0
H1062 H 0.90155 0.23369 0.95438 0.0
H1063 H 0.90034 0.22934 0.91239 0.0
H1064 H 0.8917 0.26086 0.9796 0.0
H1065 H 0.95539 0.24803 0.99152 0.0
H1066 H 0.95013 0.26244 0.9699 0.0
H1067 H 0.94482 0.24226 0.96557 0.0
C1068 C 0.92314 0.26233 0.91255 0.0
C1069 C 0.91471 0.24953 0.90337 0.0
C1070 C 0.92383 0.26478 0.93675 0.0
C1071 C 0.91611 0.25445 0.95208 0.0
C1072 C 0.9076 0.24179 0.94288 0.0
H1073 H 0.89947 0.22907 0.09229 0.0
H1074 H 0.90043 0.2337 0.05035 0.0
C1075 C 0.90695 0.23932 0.91883 0.0
C1076 C 0.91661 0.25669 0.97777 0.0
H1077 H 0.94055 0.25293 0.02535 0.0
C1078 C 0.90241 0.25933 0.98959 0.0
C1079 C 0.93062 0.25477 0.99077 0.0
C1080 C 0.94614 0.25162 0.97893 0.0
C1081 C 0.90174 0.25958 0.01406 0.0
C1082 C 0.9156 0.25685 0.02709 0.0
C1083 C 0.92994 0.25498 0.01531 0.0
C1084 C 0.9151 0.25439 0.05273 0.0
C1085 C 0.88613 0.26247 0.02579 0.0
C1086 C 0.92335 0.2643 0.06805 0.0
C1087 C 0.92283 0.26166 0.09222 0.0
C1088 C 0.9142 0.24898 0.10136 0.0
C1089 C 0.90615 0.23901 0.08588 0.0
C1090 C 0.90662 0.24168 0.06186 0.0
H1091 H 0.87796 0.26898 0.01415 0.0
H1092 H 0.88062 0.25102 0.03011 0.0
H1093 H 0.88762 0.26922 0.04222 0.0
H1094 H 0.93008 0.2741 0.06132 0.0
H1095 H 0.92921 0.2695 0.1037 0.0
H1096 H 0.77735 0.89908 0.91241 0.0
H1097 H 0.77265 0.90011 0.95431 0.0
H1098 H 0.73243 0.92996 0.94308 0.0
H1099 H 0.73711 0.92901 0.9007 0.0
H1100 H 0.75365 0.94045 0.97889 0.0
H1101 H 0.73734 0.878 0.99082 0.0
H1102 H 0.75529 0.88046 0.97478 0.0
H1103 H 0.73711 0.88752 0.96264 0.0
C1104 C 0.76743 0.9058 0.91874 0.0
C1105 C 0.75755 0.9139 0.9032 0.0
C1106 C 0.76471 0.90631 0.94274 0.0
C1107 C 0.75204 0.91489 0.95179 0.0
C1108 C 0.7422 0.92316 0.9364 0.0
H1109 H 0.73721 0.92954 0.10367 0.0
H1110 H 0.7324 0.93052 0.06135 0.0
C1111 C 0.74488 0.92259 0.91225 0.0
C1112 C 0.74961 0.91551 0.97743 0.0
H1113 H 0.74579 0.89181 0.02517 0.0
C1114 C 0.7516 0.9299 0.98905 0.0
C1115 C 0.74689 0.90172 0.99061 0.0
C1116 C 0.74388 0.88608 0.97907 0.0
C1117 C 0.75197 0.93067 0.01358 0.0
C1118 C 0.75009 0.91672 0.02672 0.0
C1119 C 0.74729 0.90249 0.01507 0.0
C1120 C 0.75259 0.91629 0.05235 0.0
C1121 C 0.75526 0.94621 0.02524 0.0
C1122 C 0.76536 0.9078 0.06129 0.0
C1123 C 0.7681 0.90721 0.08527 0.0
C1124 C 0.75807 0.91503 0.10093 0.0
C1125 C 0.74517 0.92345 0.09202 0.0
C1126 C 0.74245 0.92407 0.06788 0.0
H1127 H 0.75871 0.95543 0.01251 0.0
H1128 H 0.74455 0.95024 0.03453 0.0
H1129 H 0.76478 0.94492 0.03836 0.0
H1130 H 0.77332 0.90171 0.04963 0.0
H1131 H 0.77814 0.90062 0.09151 0.0
H1132 H 0.0763 0.73679 0.90109 0.0
H1133 H 0.0749 0.73184 0.94337 0.0
H1134 H 0.10499 0.77172 0.95584 0.0
H1135 H 0.10648 0.77668 0.91404 0.0
H1136 H 0.11382 0.74346 0.97995 0.0
H1137 H 0.05077 0.75905 0.99241 0.0
H1138 H 0.05555 0.74494 0.9701 0.0
H1139 H 0.06163 0.76499 0.96681 0.0
C1140 C 0.08258 0.74449 0.9129 0.0
C1141 C 0.09148 0.75714 0.90422 0.0
C1142 C 0.08172 0.74169 0.93701 0.0
C1143 C 0.08975 0.7515 0.95273 0.0
C1144 C 0.0987 0.76402 0.94403 0.0
H1145 H 0.10792 0.77621 0.09191 0.0
H1146 H 0.10652 0.77118 0.05013 0.0
C1147 C 0.09952 0.76684 0.92008 0.0
C1148 C 0.08914 0.74889 0.97833 0.0
H1149 H 0.06556 0.75366 0.0261 0.0
C1150 C 0.10322 0.74545 0.99002 0.0
C1151 C 0.07528 0.75142 0.99143 0.0
C1152 C 0.05992 0.75539 0.97969 0.0
C1153 C 0.10394 0.74508 0.01448 0.0
C1154 C 0.09029 0.74849 0.02762 0.0
C1155 C 0.07601 0.75108 0.01596 0.0
C1156 C 0.09106 0.75112 0.0532 0.0
C1157 C 0.11943 0.74143 0.02608 0.0
C1158 C 0.08254 0.74169 0.06886 0.0
C1159 C 0.08333 0.74454 0.09297 0.0
C1160 C 0.09249 0.75699 0.10167 0.0
C1161 C 0.10083 0.76647 0.08585 0.0
C1162 C 0.1001 0.76357 0.06192 0.0
H1163 H 0.12722 0.7345 0.0144 0.0
H1164 H 0.12553 0.75259 0.03031 0.0
H1165 H 0.11767 0.73479 0.04256 0.0
H1166 H 0.07538 0.7321 0.06244 0.0
H1167 H 0.07672 0.73709 0.10473 0.0
H1168 H 0.26982 0.92905 0.40236 0.0
H1169 H 0.27334 0.9317 0.44481 0.0
H1170 H 0.23159 0.90407 0.45626 0.0
H1171 H 0.22795 0.90146 0.41426 0.0
H1172 H 0.23276 0.9333 0.48112 0.0
H1173 H 0.28692 0.89739 0.49306 0.0
H1174 H 0.28719 0.91246 0.47099 0.0
H1175 H 0.2747 0.89566 0.46741 0.0
C1176 C 0.26147 0.92347 0.41398 0.0
C1177 C 0.2486 0.91506 0.40496 0.0
C1178 C 0.26353 0.92494 0.43819 0.0
C1179 C 0.25278 0.91799 0.45367 0.0
C1180 C 0.24003 0.90951 0.44463 0.0
H1181 H 0.22758 0.90196 0.5939 0.0
H1182 H 0.23104 0.90455 0.55188 0.0
C1183 C 0.23799 0.90802 0.42059 0.0
C1184 C 0.25419 0.91991 0.47933 0.0
H1185 H 0.27499 0.90754 0.52694 0.0
C1186 C 0.24211 0.92783 0.49112 0.0
C1187 C 0.26644 0.91286 0.49232 0.0
C1188 C 0.27955 0.90402 0.48044 0.0
C1189 C 0.24164 0.92844 0.51557 0.0
C1190 C 0.25343 0.9207 0.52861 0.0
C1191 C 0.26595 0.91342 0.51687 0.0
C1192 C 0.25202 0.9188 0.55427 0.0
C1193 C 0.22831 0.93708 0.52727 0.0
C1194 C 0.26295 0.92559 0.56962 0.0
C1195 C 0.26101 0.92411 0.59386 0.0
C1196 C 0.24818 0.9157 0.603 0.0
C1197 C 0.23754 0.9086 0.58748 0.0
C1198 C 0.23946 0.91011 0.56342 0.0
H1199 H 0.22302 0.94599 0.51547 0.0
H1200 H 0.21899 0.92855 0.53207 0.0
H1201 H 0.23235 0.94302 0.54345 0.0
H1202 H 0.2728 0.93226 0.56286 0.0
H1203 H 0.26943 0.92964 0.60539 0.0
H1204 H 0.07811 0.27045 0.60387 0.0
H1205 H 0.07513 0.27362 0.56137 0.0
H1206 H 0.10171 0.23115 0.55032 0.0
H1207 H 0.10467 0.22788 0.59233 0.0
H1208 H 0.0995 0.27518 0.52517 0.0
H1209 H 0.06001 0.22394 0.51442 0.0
H1210 H 0.06337 0.23322 0.54233 0.0
H1211 H 0.07748 0.21956 0.53074 0.0
C1212 C 0.08331 0.26182 0.59233 0.0
C1213 C 0.09153 0.24886 0.60146 0.0
C1214 C 0.08162 0.26365 0.56811 0.0
C1215 C 0.08799 0.25248 0.55274 0.0
C1216 C 0.09646 0.23975 0.56187 0.0
H1217 H 0.10468 0.22789 0.41289 0.0
H1218 H 0.10204 0.23163 0.45486 0.0
C1219 C 0.09819 0.23794 0.58592 0.0
C1220 C 0.08597 0.25386 0.5271 0.0
H1221 H 0.07277 0.23332 0.47985 0.0
C1222 C 0.0934 0.26623 0.51521 0.0
C1223 C 0.07794 0.24219 0.5142 0.0
C1224 C 0.06911 0.22905 0.52607 0.0
C1225 C 0.09385 0.26665 0.49065 0.0
C1226 C 0.08652 0.25449 0.47779 0.0
C1227 C 0.07844 0.24259 0.48974 0.0
C1228 C 0.08836 0.25296 0.45214 0.0
C1229 C 0.10286 0.27957 0.4786 0.0
C1230 C 0.08154 0.26376 0.43659 0.0
C1231 C 0.08302 0.26163 0.41239 0.0
C1232 C 0.09133 0.24868 0.40345 0.0
C1233 C 0.09821 0.238 0.41914 0.0
C1234 C 0.0967 0.24011 0.44318 0.0
H1235 H 0.1096 0.28692 0.49112 0.0
H1236 H 0.11113 0.27453 0.46562 0.0
H1237 H 0.09452 0.28728 0.46908 0.0
H1238 H 0.07488 0.27366 0.44316 0.0
H1239 H 0.07756 0.27003 0.40072 0.0
H1240 H 0.73678 0.07908 0.60409 0.0
H1241 H 0.73335 0.07648 0.56157 0.0
H1242 H 0.77566 0.10331 0.55048 0.0
H1243 H 0.77918 0.1059 0.59249 0.0
H1244 H 0.73162 0.10123 0.5257 0.0
H1245 H 0.78278 0.06174 0.514 0.0
H1246 H 0.77355 0.06488 0.54201 0.0
H1247 H 0.78719 0.07908 0.53061 0.0
C1248 C 0.74531 0.08443 0.59253 0.0
C1249 C 0.7583 0.0926 0.60165 0.0
C1250 C 0.74333 0.08295 0.5683 0.0
C1251 C 0.75439 0.0895 0.55292 0.0
C1252 C 0.76714 0.09794 0.56204 0.0
H1253 H 0.7784 0.10638 0.41262 0.0
H1254 H 0.77488 0.1039 0.45467 0.0
C1255 C 0.76909 0.09945 0.5861 0.0
C1256 C 0.75291 0.08764 0.52727 0.0
H1257 H 0.77325 0.07465 0.47968 0.0
C1258 C 0.74052 0.09517 0.51558 0.0
C1259 C 0.76453 0.07967 0.51418 0.0
C1260 C 0.77769 0.07075 0.52582 0.0
C1261 C 0.74 0.09575 0.49103 0.0
C1262 C 0.75209 0.08847 0.47799 0.0
C1263 C 0.76403 0.0803 0.48973 0.0
C1264 C 0.75346 0.09032 0.45231 0.0
C1265 C 0.72704 0.10484 0.47921 0.0
C1266 C 0.74253 0.08352 0.43696 0.0
C1267 C 0.74453 0.08491 0.41273 0.0
C1268 C 0.7575 0.0931 0.40356 0.0
C1269 C 0.76828 0.09999 0.41906 0.0
C1270 C 0.7663 0.09858 0.44314 0.0
H1271 H 0.71983 0.11161 0.49186 0.0
H1272 H 0.73203 0.1131 0.46616 0.0
H1273 H 0.71922 0.09656 0.46981 0.0
H1274 H 0.73264 0.07692 0.44369 0.0
H1275 H 0.73605 0.07943 0.40121 0.0
H1276 H 0.92896 0.73654 0.60433 0.0
H1277 H 0.9302 0.73166 0.56203 0.0
H1278 H 0.90147 0.77256 0.54979 0.0
H1279 H 0.90012 0.77744 0.59164 0.0
H1280 H 0.8918 0.745 0.52514 0.0
H1281 H 0.95551 0.75804 0.51368 0.0
H1282 H 0.95011 0.74387 0.53559 0.0
H1283 H 0.94477 0.7641 0.53933 0.0
C1284 C 0.92292 0.74446 0.59258 0.0
C1285 C 0.91447 0.75739 0.60132 0.0
C1286 C 0.9237 0.7417 0.56845 0.0
C1287 C 0.91603 0.75183 0.55278 0.0
C1288 C 0.90748 0.76461 0.56156 0.0
H1289 H 0.89986 0.77786 0.41355 0.0
H1290 H 0.90076 0.77261 0.4553 0.0
C1291 C 0.90674 0.76739 0.58552 0.0
C1292 C 0.91668 0.74935 0.52715 0.0
H1293 H 0.94076 0.75325 0.47975 0.0
C1294 C 0.90255 0.74657 0.51523 0.0
C1295 C 0.93073 0.75132 0.51427 0.0
C1296 C 0.94617 0.75459 0.52623 0.0
C1297 C 0.90197 0.74632 0.49076 0.0
C1298 C 0.91584 0.74917 0.47784 0.0
C1299 C 0.93014 0.7511 0.48972 0.0
C1300 C 0.91537 0.75192 0.45227 0.0
C1301 C 0.88642 0.74338 0.47891 0.0
C1302 C 0.9236 0.74221 0.43666 0.0
C1303 C 0.9231 0.74519 0.41257 0.0
C1304 C 0.91453 0.75804 0.40384 0.0
C1305 C 0.90649 0.7678 0.41963 0.0
C1306 C 0.90693 0.76478 0.44354 0.0
H1307 H 0.87826 0.73675 0.49042 0.0
H1308 H 0.88083 0.75481 0.4747 0.0
H1309 H 0.888 0.73673 0.46239 0.0
H1310 H 0.9303 0.73229 0.4431 0.0
H1311 H 0.92947 0.73751 0.40083 0.0
H1312 H 0.72943 0.6079 0.59207 0.0
H1313 H 0.73391 0.60679 0.55009 0.0
H1314 H 0.77501 0.57812 0.56115 0.0
H1315 H 0.77053 0.57911 0.60354 0.0
H1316 H 0.76094 0.61669 0.52488 0.0
H1317 H 0.74857 0.55291 0.51312 0.0
H1318 H 0.74278 0.56346 0.53907 0.0
H1319 H 0.76298 0.55822 0.53468 0.0
C1320 C 0.73944 0.60134 0.58566 0.0
C1321 C 0.74961 0.59355 0.60116 0.0
C1322 C 0.74199 0.60074 0.56162 0.0
C1323 C 0.7547 0.59226 0.55247 0.0
C1324 C 0.765 0.58455 0.56784 0.0
H1325 H 0.77044 0.57887 0.40107 0.0
H1326 H 0.77485 0.57819 0.44351 0.0
C1327 C 0.76247 0.58518 0.59203 0.0
C1328 C 0.75698 0.59174 0.52678 0.0
H1329 H 0.75361 0.56769 0.47927 0.0
C1330 C 0.75953 0.60594 0.51492 0.0
C1331 C 0.75522 0.5777 0.51382 0.0
C1332 C 0.75214 0.56218 0.52569 0.0
C1333 C 0.75988 0.60657 0.49045 0.0
C1334 C 0.75733 0.59267 0.47746 0.0
C1335 C 0.75553 0.57833 0.48928 0.0
C1336 C 0.75501 0.59307 0.45178 0.0
C1337 C 0.76268 0.62218 0.47869 0.0
C1338 C 0.74229 0.60145 0.44245 0.0
C1339 C 0.73973 0.60181 0.41841 0.0
C1340 C 0.74981 0.59376 0.40309 0.0
C1341 C 0.76251 0.58525 0.41242 0.0
C1342 C 0.76504 0.58484 0.43662 0.0
H1343 H 0.76907 0.63043 0.49034 0.0
H1344 H 0.76951 0.62072 0.46231 0.0
H1345 H 0.7512 0.62759 0.47425 0.0
H1346 H 0.73421 0.60762 0.45384 0.0
H1347 H 0.72977 0.60839 0.41185 0.0
H1348 H 0.42925 0.77098 0.40154 0.0
H1349 H 0.43195 0.77432 0.44405 0.0
H1350 H 0.40546 0.7318 0.4551 0.0
H1351 H 0.40278 0.72835 0.41309 0.0
H1352 H 0.40741 0.77597 0.47989 0.0
H1353 H 0.44689 0.72483 0.49166 0.0
H1354 H 0.44368 0.73397 0.46361 0.0
H1355 H 0.42953 0.72033 0.47515 0.0
C1356 C 0.42401 0.76237 0.41308 0.0
C1357 C 0.4159 0.74935 0.40396 0.0
C1358 C 0.42555 0.7643 0.43731 0.0
C1359 C 0.41912 0.75317 0.45268 0.0
C1360 C 0.41075 0.74038 0.44355 0.0
H1361 H 0.40115 0.72912 0.5923 0.0
H1362 H 0.40409 0.73281 0.55036 0.0
C1363 C 0.40918 0.73847 0.41949 0.0
C1364 C 0.42097 0.75465 0.47834 0.0
H1365 H 0.43383 0.73427 0.52596 0.0
C1366 C 0.41345 0.76706 0.49002 0.0
C1367 C 0.42891 0.74303 0.49146 0.0
C1368 C 0.43785 0.72986 0.47984 0.0
C1369 C 0.41282 0.76756 0.51457 0.0
C1370 C 0.42005 0.75545 0.52762 0.0
C1371 C 0.42823 0.74351 0.5159 0.0
C1372 C 0.41799 0.75398 0.55324 0.0
C1373 C 0.40373 0.78052 0.52638 0.0
C1374 C 0.42483 0.76472 0.56886 0.0
C1375 C 0.42319 0.76262 0.59304 0.0
C1376 C 0.41469 0.74976 0.60189 0.0
C1377 C 0.40777 0.73916 0.58611 0.0
C1378 C 0.40944 0.74123 0.5621 0.0
H1379 H 0.39719 0.78792 0.51369 0.0
H1380 H 0.39527 0.7755 0.53911 0.0
H1381 H 0.41198 0.78817 0.53617 0.0
H1382 H 0.43164 0.77454 0.56236 0.0
H1383 H 0.42868 0.77095 0.60477 0.0
H1384 H 0.24979 0.4386 0.40315 0.0
H1385 H 0.24819 0.44074 0.44589 0.0
H1386 H 0.26007 0.39163 0.45212 0.0
H1387 H 0.26291 0.38985 0.40991 0.0
H1388 H 0.23234 0.4289 0.48024 0.0
H1389 H 0.29364 0.40916 0.49135 0.0
H1390 H 0.28544 0.41318 0.46302 0.0
H1391 H 0.28241 0.39434 0.47678 0.0
C1392 C 0.25198 0.42829 0.41375 0.0
C1393 C 0.25671 0.41413 0.40331 0.0
C1394 C 0.25107 0.4295 0.43814 0.0
C1395 C 0.25456 0.41647 0.45237 0.0
C1396 C 0.25802 0.40203 0.44169 0.0
H1397 H 0.23507 0.4088 0.60212 0.0
H1398 H 0.23262 0.41003 0.55946 0.0
C1399 C 0.25947 0.40097 0.41749 0.0
C1400 C 0.25514 0.41799 0.47829 0.0
H1401 H 0.27773 0.40893 0.52559 0.0
C1402 C 0.24233 0.4247 0.49017 0.0
C1403 C 0.26833 0.41288 0.49134 0.0
C1404 C 0.28328 0.40717 0.47992 0.0
C1405 C 0.24223 0.4261 0.51467 0.0
C1406 C 0.25498 0.42 0.52777 0.0
C1407 C 0.26784 0.4135 0.51577 0.0
C1408 C 0.25562 0.42036 0.55382 0.0
C1409 C 0.22863 0.4345 0.52605 0.0
C1410 C 0.26944 0.42537 0.56506 0.0
C1411 C 0.27104 0.42402 0.58921 0.0
C1412 C 0.25869 0.41812 0.6028 0.0
C1413 C 0.24462 0.41366 0.59192 0.0
C1414 C 0.2432 0.41449 0.56756 0.0
H1415 H 0.22309 0.44301 0.51386 0.0
H1416 H 0.21953 0.42578 0.531 0.0
H1417 H 0.23238 0.44092 0.54196 0.0
H1418 H 0.2792 0.42998 0.55504 0.0
H1419 H 0.28202 0.42748 0.5973 0.0
H1420 H 0.60663 0.27858 0.59219 0.0
H1421 H 0.60518 0.2739 0.55029 0.0
H1422 H 0.57636 0.23302 0.56224 0.0
H1423 H 0.57769 0.2377 0.60458 0.0
H1424 H 0.61486 0.2465 0.52552 0.0
H1425 H 0.55114 0.25938 0.51391 0.0
H1426 H 0.56182 0.26536 0.53965 0.0
H1427 H 0.55648 0.24514 0.53574 0.0
C1428 C 0.59995 0.26858 0.586 0.0
C1429 C 0.59224 0.25852 0.60173 0.0
C1430 C 0.59916 0.26592 0.562 0.0
C1431 C 0.59057 0.2532 0.55312 0.0
C1432 C 0.58289 0.24303 0.56872 0.0
H1433 H 0.57733 0.23793 0.40139 0.0
H1434 H 0.57644 0.23316 0.44376 0.0
C1435 C 0.58371 0.24568 0.59288 0.0
C1436 C 0.58996 0.25076 0.52748 0.0
H1437 H 0.56589 0.25438 0.48002 0.0
C1438 C 0.60411 0.24801 0.51559 0.0
C1439 C 0.57591 0.25264 0.51456 0.0
C1440 C 0.56045 0.25588 0.52648 0.0
C1441 C 0.60471 0.24766 0.49112 0.0
C1442 C 0.59083 0.25039 0.47816 0.0
C1443 C 0.57652 0.25232 0.49002 0.0
C1444 C 0.59129 0.25293 0.45254 0.0
C1445 C 0.62028 0.24473 0.47932 0.0
C1446 C 0.5997 0.26573 0.44354 0.0
C1447 C 0.60018 0.2685 0.41956 0.0
C1448 C 0.59221 0.25854 0.40397 0.0
C1449 C 0.58365 0.24576 0.41296 0.0
C1450 C 0.58312 0.24303 0.43712 0.0
H1451 H 0.62848 0.23823 0.49092 0.0
H1452 H 0.61874 0.23796 0.4629 0.0
H1453 H 0.6258 0.25617 0.47493 0.0
H1454 H 0.60583 0.2737 0.45514 0.0
H1455 H 0.60679 0.27851 0.41328 0.0
H1456 H 0.73009 0.40082 0.91398 0.0
H1457 H 0.73491 0.4023 0.95582 0.0
H1458 H 0.77572 0.43116 0.94352 0.0
H1459 H 0.77091 0.42979 0.90122 0.0
H1460 H 0.7625 0.39277 0.98052 0.0
H1461 H 0.7492 0.45644 0.99179 0.0
H1462 H 0.74318 0.44564 0.96618 0.0
H1463 H 0.76339 0.45107 0.9699 0.0
C1464 C 0.74012 0.4075 0.92007 0.0
C1465 C 0.75011 0.41522 0.90425 0.0
C1466 C 0.74285 0.40832 0.94404 0.0
C1467 C 0.75558 0.41694 0.95281 0.0
C1468 C 0.7657 0.42461 0.93712 0.0
H1469 H 0.77035 0.43035 0.10464 0.0
H1470 H 0.77527 0.43132 0.06231 0.0
C1471 C 0.76298 0.42375 0.91299 0.0
C1472 C 0.75805 0.41763 0.97843 0.0
H1473 H 0.75408 0.44175 0.02577 0.0
C1474 C 0.76089 0.40352 0.99039 0.0
C1475 C 0.75603 0.43169 0.99128 0.0
C1476 C 0.75269 0.4471 0.97927 0.0
C1477 C 0.76115 0.40297 0.01487 0.0
C1478 C 0.75826 0.41685 0.02774 0.0
C1479 C 0.75626 0.43113 0.01583 0.0
C1480 C 0.7556 0.4164 0.05333 0.0
C1481 C 0.76416 0.38745 0.02676 0.0
C1482 C 0.74279 0.40794 0.0622 0.0
C1483 C 0.73993 0.40743 0.08615 0.0
C1484 C 0.74981 0.4154 0.10185 0.0
C1485 C 0.76258 0.42404 0.09298 0.0
C1486 C 0.7654 0.4246 0.06885 0.0
H1487 H 0.77075 0.37927 0.01523 0.0
H1488 H 0.77086 0.38907 0.04321 0.0
H1489 H 0.75274 0.38186 0.0311 0.0
H1490 H 0.73489 0.40179 0.05052 0.0
H1491 H 0.72993 0.40076 0.09234 0.0
H1492 H 0.5789 0.77012 0.10309 0.0
H1493 H 0.57658 0.77295 0.06047 0.0
H1494 H 0.6041 0.73091 0.05102 0.0
H1495 H 0.6064 0.72796 0.09319 0.0
H1496 H 0.60119 0.77486 0.02509 0.0
H1497 H 0.56327 0.72248 0.01387 0.0
H1498 H 0.5661 0.73192 0.04179 0.0
H1499 H 0.58071 0.71867 0.03055 0.0
C1500 C 0.58445 0.76151 0.09188 0.0
C1501 C 0.59273 0.74876 0.10151 0.0
C1502 C 0.58313 0.76315 0.06758 0.0
C1503 C 0.58996 0.752 0.05262 0.0
C1504 C 0.5985 0.73949 0.06224 0.0
H1505 H 0.60644 0.72805 0.9115 0.0
H1506 H 0.60439 0.73136 0.95365 0.0
C1507 C 0.59985 0.73787 0.08639 0.0
C1508 C 0.58825 0.75318 0.02689 0.0
H1509 H 0.57579 0.73232 0.97949 0.0
C1510 C 0.59541 0.76573 0.01507 0.0
C1511 C 0.58065 0.74126 0.0139 0.0
C1512 C 0.57211 0.72789 0.02566 0.0
C1513 C 0.59594 0.76619 0.99051 0.0
C1514 C 0.58895 0.75388 0.97757 0.0
C1515 C 0.58121 0.74171 0.98944 0.0
C1516 C 0.59055 0.75264 0.95183 0.0
C1517 C 0.60462 0.77939 0.97859 0.0
C1518 C 0.58346 0.76355 0.93674 0.0
C1519 C 0.58461 0.76167 0.91246 0.0
C1520 C 0.59284 0.74884 0.90296 0.0
C1521 C 0.60002 0.73807 0.9182 0.0
C1522 C 0.59885 0.73992 0.94233 0.0
H1523 H 0.61147 0.78662 0.99113 0.0
H1524 H 0.61274 0.77467 0.96514 0.0
H1525 H 0.59604 0.78716 0.96967 0.0
H1526 H 0.57682 0.77333 0.94372 0.0
H1527 H 0.57892 0.77014 0.90116 0.0
H1528 H 0.23752 0.57714 0.10505 0.0
H1529 H 0.23412 0.57403 0.06259 0.0
H1530 H 0.2756 0.60199 0.05078 0.0
H1531 H 0.2791 0.60509 0.0927 0.0
H1532 H 0.23173 0.59859 0.02618 0.0
H1533 H 0.28378 0.5602 0.01512 0.0
H1534 H 0.27443 0.56328 0.04306 0.0
H1535 H 0.28776 0.57773 0.03153 0.0
C1536 C 0.24588 0.58262 0.09335 0.0
C1537 C 0.25863 0.59127 0.10224 0.0
C1538 C 0.24392 0.58085 0.06915 0.0
C1539 C 0.25476 0.58758 0.0536 0.0
C1540 C 0.26726 0.59647 0.06248 0.0
H1541 H 0.27872 0.60484 0.91369 0.0
H1542 H 0.27514 0.60206 0.95568 0.0
C1543 C 0.26919 0.59828 0.0865 0.0
C1544 C 0.2533 0.58547 0.02799 0.0
H1545 H 0.27404 0.57275 0.98062 0.0
C1546 C 0.24078 0.59267 0.01617 0.0
C1547 C 0.26512 0.5777 0.01502 0.0
C1548 C 0.27846 0.56915 0.02682 0.0
C1549 C 0.24031 0.59316 0.99161 0.0
C1550 C 0.2526 0.5861 0.97869 0.0
C1551 C 0.26467 0.57822 0.99057 0.0
C1552 C 0.25405 0.588 0.95304 0.0
C1553 C 0.2272 0.60194 0.97965 0.0
C1554 C 0.24335 0.581 0.93754 0.0
C1555 C 0.24538 0.58255 0.91333 0.0
C1556 C 0.25816 0.59112 0.90434 0.0
C1557 C 0.26875 0.59817 0.91999 0.0
C1558 C 0.26674 0.59658 0.94404 0.0
H1559 H 0.21976 0.60854 0.99221 0.0
H1560 H 0.23206 0.61032 0.96665 0.0
H1561 H 0.21963 0.59347 0.97014 0.0
H1562 H 0.23358 0.57415 0.94414 0.0
H1563 H 0.23705 0.57697 0.9017 0.0
H1564 H 0.40112 0.27842 0.91332 0.0
H1565 H 0.40254 0.2737 0.95521 0.0
H1566 H 0.43174 0.23309 0.94326 0.0
H1567 H 0.43042 0.2378 0.90093 0.0
H1568 H 0.39304 0.24596 0.97971 0.0
H1569 H 0.45652 0.25974 0.99197 0.0
H1570 H 0.44583 0.26575 0.96625 0.0
H1571 H 0.45142 0.24558 0.9699 0.0
C1572 C 0.40788 0.26847 0.91951 0.0
C1573 C 0.41569 0.25849 0.90377 0.0
C1574 C 0.40865 0.26579 0.9435 0.0
C1575 C 0.41733 0.25313 0.95238 0.0
C1576 C 0.42513 0.24305 0.93678 0.0
H1577 H 0.43013 0.23759 0.10416 0.0
H1578 H 0.43133 0.23298 0.06176 0.0
C1579 C 0.42432 0.24572 0.91263 0.0
C1580 C 0.41788 0.25062 0.97801 0.0
H1581 H 0.44169 0.25449 0.02571 0.0
C1582 C 0.40372 0.24761 0.98975 0.0
C1583 C 0.43184 0.25269 0.99106 0.0
C1584 C 0.4473 0.25621 0.97929 0.0
C1585 C 0.40304 0.24718 0.01421 0.0
C1586 C 0.41682 0.25008 0.02731 0.0
C1587 C 0.43114 0.25229 0.0156 0.0
C1588 C 0.4162 0.25253 0.05295 0.0
C1589 C 0.38746 0.24395 0.02585 0.0
C1590 C 0.40753 0.26516 0.06194 0.0
C1591 C 0.40688 0.26783 0.08594 0.0
C1592 C 0.41492 0.25795 0.10156 0.0
C1593 C 0.42375 0.24535 0.09256 0.0
C1594 C 0.42446 0.24272 0.06839 0.0
H1595 H 0.37943 0.23735 0.01413 0.0
H1596 H 0.38905 0.23715 0.04223 0.0
H1597 H 0.38173 0.25528 0.03026 0.0
H1598 H 0.40133 0.27307 0.05033 0.0
H1599 H 0.40006 0.2777 0.09222 0.0
H1600 H 0.25414 0.07067 0.23203 0.0
H1601 H 0.25386 0.0458 0.25367 0.0
H1602 H 0.22425 0.02526 0.20073 0.0
H1603 H 0.22398 0.05015 0.17966 0.0
H1604 H 0.21418 0.01663 0.24147 0.0
H1605 H 0.27851 0.00703 0.24001 0.0
H1606 H 0.27321 0.02513 0.25395 0.0
H1607 H 0.26919 0.0224 0.22336 0.0
C1608 C 0.24752 0.06087 0.22509 0.0
C1609 C 0.23911 0.06242 0.20408 0.0
C1610 C 0.2475 0.04657 0.23735 0.0
C1611 C 0.23933 0.03343 0.22863 0.0
C1612 C 0.23071 0.03512 0.20786 0.0
H1613 H 0.25425 0.93636 0.27525 0.0
H1614 H 0.25378 0.96111 0.25324 0.0
C1615 C 0.23056 0.04942 0.1958 0.0
C1616 C 0.23945 0.01798 0.24112 0.0
H1617 H 0.26358 0.9897 0.26389 0.0
C1618 C 0.22501 0.01074 0.24628 0.0
C1619 C 0.25354 0.01004 0.24707 0.0
C1620 C 0.26948 0.01646 0.2406 0.0
C1621 C 0.22425 0.996 0.25735 0.0
C1622 C 0.23832 0.9884 0.26428 0.0
C1623 C 0.25277 0.99552 0.25885 0.0
C1624 C 0.2383 0.97317 0.27731 0.0
C1625 C 0.20832 0.98858 0.26091 0.0
C1626 C 0.22987 0.97162 0.29827 0.0
C1627 C 0.22993 0.95744 0.31064 0.0
C1628 C 0.2387 0.94449 0.30265 0.0
C1629 C 0.24731 0.94606 0.28182 0.0
C1630 C 0.24708 0.96024 0.26927 0.0
H1631 H 0.19962 0.99307 0.24809 0.0
H1632 H 0.20889 0.97559 0.25931 0.0
H1633 H 0.20394 0.99157 0.27861 0.0
H1634 H 0.2234 0.98149 0.30533 0.0
H1635 H 0.22335 0.95675 0.32678 0.0
H1636 H 0.93916 0.2604 0.22391 0.0
H1637 H 0.96433 0.26059 0.24476 0.0
H1638 H 0.9781 0.21817 0.20905 0.0
H1639 H 0.95321 0.21813 0.1878 0.0
H1640 H 0.97831 0.24025 0.27429 0.0
H1641 H 0.0151 0.24616 0.1951 0.0
H1642 H 0.99405 0.24863 0.19452 0.0
H1643 H 1.00254 0.22926 0.19406 0.0
C1644 C 0.94752 0.25108 0.22057 0.0
C1645 C 0.9442 0.23932 0.20404 0.0
C1646 C 0.96194 0.25121 0.23248 0.0
C1647 C 0.97333 0.23961 0.22811 0.0
C1648 C 0.96975 0.22753 0.21226 0.0
H1649 H 0.05352 0.21785 0.31704 0.0
H1650 H 0.02861 0.21802 0.29581 0.0
C1651 C 0.95542 0.22744 0.20026 0.0
C1652 C 0.98889 0.24005 0.24017 0.0
H1653 H 0.02856 0.23996 0.23041 0.0
C1654 C 0.98929 0.24026 0.26467 0.0
C1655 C 1.00328 0.24036 0.2277 0.0
C1656 C 0.00377 0.24126 0.2014 0.0
C1657 C 1.0036 0.24038 0.277 0.0
C1658 C 0.01799 0.23991 0.26453 0.0
C1659 C 0.01758 0.24009 0.24002 0.0
C1660 C 0.03355 0.23935 0.27658 0.0
C1661 C 1.00312 0.24131 0.30329 0.0
C1662 C 0.04504 0.25084 0.2721 0.0
C1663 C 0.05945 0.25062 0.28398 0.0
C1664 C 0.06269 0.2389 0.30061 0.0
C1665 C 0.05138 0.22713 0.3045 0.0
C1666 C 0.03704 0.22729 0.29251 0.0
H1667 H 0.99184 0.24633 0.30959 0.0
H1668 H 0.00425 0.22931 0.31066 0.0
H1669 H 0.01291 0.24861 0.31015 0.0
H1670 H 0.04272 0.2602 0.25976 0.0
H1671 H 0.06789 0.25987 0.28057 0.0
H1672 H 0.75183 0.07107 0.27376 0.0
H1673 H 0.75229 0.04619 0.25211 0.0
H1674 H 0.78214 0.02589 0.30496 0.0
H1675 H 0.78224 0.05077 0.32602 0.0
H1676 H 0.7923 0.01743 0.26423 0.0
H1677 H 0.72807 0.00714 0.26563 0.0
H1678 H 0.73318 0.02531 0.25172 0.0
H1679 H 0.73722 0.02259 0.28232 0.0
C1680 C 0.75853 0.0613 0.28069 0.0
C1681 C 0.76697 0.06293 0.30165 0.0
C1682 C 0.75866 0.04701 0.26842 0.0
C1683 C 0.76696 0.03394 0.2771 0.0
C1684 C 0.77557 0.03569 0.29786 0.0
H1685 H 0.75301 0.93677 0.23057 0.0
H1686 H 0.75328 0.96153 0.25253 0.0
C1687 C 0.77562 0.04998 0.30992 0.0
C1688 C 0.76701 0.01851 0.26457 0.0
H1689 H 0.7432 0.98997 0.24178 0.0
C1690 C 0.78153 0.01143 0.25942 0.0
C1691 C 0.75301 0.01042 0.2586 0.0
C1692 C 0.737 0.01666 0.26506 0.0
C1693 C 0.78246 0.9967 0.24836 0.0
C1694 C 0.76848 0.98895 0.24142 0.0
C1695 C 0.75395 0.99591 0.24682 0.0
C1696 C 0.76867 0.97369 0.22844 0.0
C1697 C 0.79847 0.98945 0.24482 0.0
C1698 C 0.77713 0.9722 0.2075 0.0
C1699 C 0.77719 0.958 0.19516 0.0
C1700 C 0.76852 0.94499 0.20317 0.0
C1701 C 0.75989 0.94651 0.22399 0.0
C1702 C 0.75999 0.9607 0.23651 0.0
H1703 H 0.80712 0.99404 0.25765 0.0
H1704 H 0.79804 0.97646 0.24645 0.0
H1705 H 0.80282 0.99247 0.22712 0.0
H1706 H 0.78352 0.98211 0.20042 0.0
H1707 H 0.78377 0.95735 0.17902 0.0
H1708 H 0.0707 0.75336 0.23131 0.0
H1709 H 0.04575 0.75386 0.25273 0.0
H1710 H 0.02585 0.78415 0.20011 0.0
H1711 H 0.05084 0.7842 0.17923 0.0
H1712 H 0.01708 0.79394 0.24102 0.0
H1713 H 0.00681 0.72975 0.23803 0.0
H1714 H 0.02492 0.73468 0.25225 0.0
H1715 H 0.02235 0.73908 0.22174 0.0
C1716 C 0.06102 0.76019 0.22439 0.0
C1717 C 0.06278 0.76871 0.20352 0.0
C1718 C 0.04668 0.76033 0.23653 0.0
C1719 C 0.03369 0.76873 0.22782 0.0
C1720 C 0.03559 0.7775 0.20722 0.0
H1721 H 0.93642 0.75424 0.27403 0.0
H1722 H 0.96113 0.75477 0.25192 0.0
C1723 C 0.04994 0.77752 0.19527 0.0
C1724 C 0.01818 0.76867 0.24014 0.0
H1725 H 0.98962 0.7446 0.26227 0.0
C1726 C 0.01107 0.78312 0.24557 0.0
C1727 C 0.01008 0.7546 0.24573 0.0
C1728 C 0.01634 0.73866 0.23892 0.0
C1729 C 0.99632 0.78392 0.25662 0.0
C1730 C 0.98858 0.76986 0.26323 0.0
C1731 C 0.99556 0.7554 0.25749 0.0
C1732 C 0.97335 0.7699 0.27629 0.0
C1733 C 0.98906 0.79989 0.26052 0.0
C1734 C 0.97191 0.77811 0.29745 0.0
C1735 C 0.95775 0.77802 0.30988 0.0
C1736 C 0.94472 0.76943 0.30176 0.0
C1737 C 0.94619 0.76104 0.28072 0.0
C1738 C 0.96034 0.7613 0.26811 0.0
H1739 H 0.99363 0.80866 0.24787 0.0
H1740 H 0.97607 0.79946 0.25892 0.0
H1741 H 0.9921 0.80406 0.2783 0.0
H1742 H 0.98184 0.78444 0.30462 0.0
H1743 H 0.95715 0.78443 0.32619 0.0
H1744 H 0.78305 0.95693 0.82618 0.0
H1745 H 0.78267 0.98196 0.80546 0.0
H1746 H 0.75298 0.96169 0.75239 0.0
H1747 H 0.7528 0.93668 0.77369 0.0
H1748 H 0.79265 0.99086 0.76486 0.0
H1749 H 0.72832 1.00034 0.76652 0.0
H1750 H 0.73767 0.98489 0.78295 0.0
H1751 H 0.7336 0.98232 0.75234 0.0
C1752 C 0.77642 0.95776 0.81009 0.0
C1753 C 0.76788 0.94479 0.80166 0.0
C1754 C 0.77621 0.97213 0.79823 0.0
C1755 C 0.76754 0.97394 0.77753 0.0
C1756 C 0.75938 0.96084 0.76867 0.0
H1757 H 0.78339 0.0508 0.67978 0.0
H1758 H 0.78336 0.02606 0.70121 0.0
C1759 C 0.75941 0.94646 0.78074 0.0
C1760 C 0.76738 0.98945 0.76521 0.0
H1761 H 0.74319 0.01776 0.74264 0.0
C1762 C 0.7818 0.99674 0.7601 0.0
C1763 C 0.75327 0.99739 0.75933 0.0
C1764 C 0.73735 0.99092 0.76578 0.0
C1765 C 0.78254 0.01152 0.74913 0.0
C1766 C 0.76845 0.0191 0.74224 0.0
C1767 C 0.75402 0.01194 0.74764 0.0
C1768 C 0.76844 0.03434 0.72923 0.0
C1769 C 0.79845 0.01898 0.74562 0.0
C1770 C 0.75964 0.04726 0.73727 0.0
C1771 C 0.7594 0.06144 0.72473 0.0
C1772 C 0.76802 0.06303 0.70391 0.0
C1773 C 0.7768 0.0501 0.69592 0.0
C1774 C 0.77687 0.03591 0.70827 0.0
H1775 H 0.80715 0.01449 0.75845 0.0
H1776 H 0.80285 0.01602 0.72792 0.0
H1777 H 0.79785 0.03196 0.74725 0.0
H1778 H 0.75294 0.04637 0.75329 0.0
H1779 H 0.75244 0.07113 0.7313 0.0
H1780 H 0.95708 0.78323 0.67846 0.0
H1781 H 0.98198 0.78299 0.69952 0.0
H1782 H 0.96131 0.75383 0.7529 0.0
H1783 H 0.93643 0.75351 0.73127 0.0
H1784 H 0.99067 0.7933 0.74007 0.0
H1785 H 0.99996 0.72893 0.73967 0.0
H1786 H 0.98463 0.73819 0.72288 0.0
H1787 H 0.98189 0.7344 0.75354 0.0
C1788 C 0.95779 0.77675 0.69469 0.0
C1789 C 0.94475 0.76832 0.7031 0.0
C1790 C 0.97209 0.77662 0.70675 0.0
C1791 C 0.97374 0.76814 0.72765 0.0
C1792 C 0.96057 0.76008 0.73649 0.0
H1793 H 0.05061 0.7843 0.82553 0.0
H1794 H 0.02589 0.78443 0.80402 0.0
C1795 C 0.94627 0.76004 0.72422 0.0
C1796 C 0.98919 0.76804 0.74014 0.0
H1797 H 0.01736 0.74395 0.7633 0.0
C1798 C 0.99651 0.78248 0.74505 0.0
C1799 C 0.99707 0.75396 0.74633 0.0
C1800 C 0.99057 0.738 0.74012 0.0
C1801 C 0.01126 0.78326 0.7561 0.0
C1802 C 0.01879 0.7692 0.76325 0.0
C1803 C 0.01159 0.75475 0.75808 0.0
C1804 C 0.03405 0.76923 0.77624 0.0
C1805 C 0.01876 0.79917 0.75938 0.0
C1806 C 0.04689 0.76027 0.76833 0.0
C1807 C 0.06105 0.75996 0.7809 0.0
C1808 C 0.0627 0.76865 0.80163 0.0
C1809 C 0.04986 0.77764 0.80946 0.0
C1810 C 0.03569 0.7778 0.79706 0.0
H1811 H 0.0143 0.8078 0.74642 0.0
H1812 H 0.01581 0.80369 0.77701 0.0
H1813 H 0.03174 0.79852 0.75776 0.0
H1814 H 0.04595 0.75347 0.7524 0.0
H1815 H 0.07066 0.75283 0.77446 0.0
H1816 H 0.22303 0.95747 0.68068 0.0
H1817 H 0.22341 0.98249 0.70143 0.0
H1818 H 0.25362 0.96236 0.75397 0.0
H1819 H 0.2538 0.93737 0.73264 0.0
H1820 H 0.21372 0.99136 0.7422 0.0
H1821 H 0.278 1.00111 0.73938 0.0
H1822 H 0.26858 0.98561 0.72313 0.0
H1823 H 0.27291 0.98307 0.75367 0.0
C1824 C 0.22977 0.95833 0.69666 0.0
C1825 C 0.23845 0.9454 0.70492 0.0
C1826 C 0.22998 0.97269 0.70854 0.0
C1827 C 0.2388 0.97453 0.72909 0.0
C1828 C 0.2471 0.96147 0.7378 0.0
H1829 H 0.22347 0.05139 0.82705 0.0
H1830 H 0.22336 0.02665 0.80562 0.0
C1831 C 0.24706 0.94711 0.72572 0.0
C1832 C 0.23899 0.99005 0.7414 0.0
H1833 H 0.26325 0.01846 0.76351 0.0
C1834 C 0.22458 0.99729 0.74675 0.0
C1835 C 0.25311 0.99805 0.74702 0.0
C1836 C 0.26902 0.99165 0.74029 0.0
C1837 C 0.22388 0.01206 0.75772 0.0
C1838 C 0.23799 0.01971 0.76436 0.0
C1839 C 0.25241 0.0126 0.75871 0.0
C1840 C 0.23804 0.03496 0.77734 0.0
C1841 C 0.20796 0.01947 0.76151 0.0
C1842 C 0.24676 0.04789 0.76914 0.0
C1843 C 0.24707 0.06207 0.78167 0.0
C1844 C 0.23863 0.06365 0.80264 0.0
C1845 C 0.22993 0.0507 0.81079 0.0
C1846 C 0.22977 0.03651 0.79844 0.0
H1847 H 0.19918 0.01494 0.74884 0.0
H1848 H 0.20372 0.0165 0.77928 0.0
H1849 H 0.2085 0.03245 0.75986 0.0
H1850 H 0.25333 0.04702 0.753 0.0
H1851 H 0.25397 0.07177 0.77497 0.0
H1852 H 0.95382 0.21926 0.81719 0.0
H1853 H 0.97879 0.21958 0.79615 0.0
H1854 H 0.96459 0.26168 0.76001 0.0
H1855 H 0.93934 0.26123 0.78067 0.0
H1856 H 0.97893 0.24141 0.73072 0.0
H1857 H 0.01543 0.24808 0.81005 0.0
H1858 H 1.00306 0.23103 0.81119 0.0
H1859 H 0.99435 0.25031 0.81049 0.0
C1860 C 0.95595 0.22857 0.80468 0.0
C1861 C 0.94458 0.24027 0.80072 0.0
C1862 C 0.97033 0.22881 0.7928 0.0
C1863 C 0.97381 0.24088 0.77689 0.0
C1864 C 0.96228 0.25232 0.77234 0.0
H1865 H 0.06847 0.26144 0.72425 0.0
H1866 H 0.04328 0.2619 0.74507 0.0
C1867 C 0.94782 0.25203 0.78414 0.0
C1868 C 0.98941 0.24148 0.76491 0.0
H1869 H 0.02906 0.2418 0.77488 0.0
C1870 C 0.98988 0.24157 0.7404 0.0
C1871 C 0.00377 0.24199 0.77745 0.0
C1872 C 0.00417 0.24301 0.80374 0.0
C1873 C 0.00423 0.24175 0.72815 0.0
C1874 C 0.01859 0.24147 0.7407 0.0
C1875 C 0.01811 0.24179 0.7652 0.0
C1876 C 0.03418 0.24085 0.72872 0.0
C1877 C 0.00381 0.24253 0.70185 0.0
C1878 C 0.03772 0.22864 0.71308 0.0
C1879 C 0.05207 0.22839 0.70111 0.0
C1880 C 0.06335 0.24024 0.70471 0.0
C1881 C 0.06007 0.25213 0.72106 0.0
C1882 C 0.04564 0.25242 0.73294 0.0
H1883 H 0.99252 0.24745 0.69543 0.0
H1884 H 0.01358 0.24982 0.69494 0.0
H1885 H 0.005 0.23048 0.69465 0.0
H1886 H 0.02933 0.21931 0.70999 0.0
H1887 H 0.05423 0.21899 0.68879 0.0
H1888 H 0.7243 0.55047 0.67888 0.0
H1889 H 0.72425 0.52577 0.70043 0.0
H1890 H 0.75431 0.54626 0.75281 0.0
H1891 H 0.75488 0.57097 0.73073 0.0
H1892 H 0.76416 0.51761 0.74239 0.0
H1893 H 0.70011 0.5144 0.7575 0.0
H1894 H 0.70461 0.51584 0.72702 0.0
H1895 H 0.70948 0.53183 0.74631 0.0
C1896 C 0.7308 0.54981 0.6951 0.0
C1897 C 0.7395 0.56278 0.70317 0.0
C1898 C 0.73068 0.53564 0.70752 0.0
C1899 C 0.73898 0.53415 0.7286 0.0
C1900 C 0.74772 0.54709 0.73669 0.0
H1901 H 0.72411 0.45738 0.8265 0.0
H1902 H 0.72449 0.48224 0.80535 0.0
C1903 C 0.748 0.56125 0.72409 0.0
C1904 C 0.7389 0.51895 0.74172 0.0
H1905 H 0.7146 0.49084 0.76443 0.0
C1906 C 0.75331 0.51182 0.74735 0.0
C1907 C 0.72478 0.5114 0.74854 0.0
C1908 C 0.70889 0.51885 0.74476 0.0
C1909 C 0.754 0.49733 0.75921 0.0
C1910 C 0.73986 0.48943 0.76505 0.0
C1911 C 0.72546 0.49669 0.75971 0.0
C1912 C 0.73965 0.474 0.77759 0.0
C1913 C 0.76989 0.49089 0.76589 0.0
C1914 C 0.74782 0.46084 0.76896 0.0
C1915 C 0.74777 0.44656 0.78127 0.0
C1916 C 0.73929 0.44505 0.80222 0.0
C1917 C 0.73074 0.45808 0.81041 0.0
C1918 C 0.73096 0.47236 0.7983 0.0
H1919 H 0.77893 0.5003 0.76654 0.0
H1920 H 0.7695 0.48499 0.78316 0.0
H1921 H 0.77367 0.48218 0.75262 0.0
H1922 H 0.75424 0.46158 0.75269 0.0
H1923 H 0.7544 0.43673 0.7744 0.0
H1924 H 0.54986 0.72458 0.82559 0.0
H1925 H 0.52501 0.72451 0.80443 0.0
H1926 H 0.5451 0.75467 0.75181 0.0
H1927 H 0.56996 0.75528 0.77354 0.0
H1928 H 0.51654 0.76442 0.76241 0.0
H1929 H 0.51326 0.70035 0.74769 0.0
H1930 H 0.51485 0.70487 0.77814 0.0
H1931 H 0.53075 0.70974 0.75865 0.0
C1932 C 0.54908 0.7311 0.8094 0.0
C1933 C 0.56198 0.73983 0.80116 0.0
C1934 C 0.53483 0.73097 0.7972 0.0
C1935 C 0.53318 0.73928 0.77615 0.0
C1936 C 0.54605 0.74806 0.7679 0.0
H1937 H 0.45558 0.72401 0.67977 0.0
H1938 H 0.48059 0.7244 0.70051 0.0
C1939 C 0.56029 0.74836 0.78029 0.0
C1940 C 0.51789 0.73917 0.76325 0.0
H1941 H 0.4896 0.71479 0.7412 0.0
C1942 C 0.51071 0.75356 0.75763 0.0
C1943 C 0.51029 0.72503 0.75664 0.0
C1944 C 0.51777 0.70914 0.76036 0.0
C1945 C 0.49614 0.7542 0.746 0.0
C1946 C 0.48818 0.74005 0.74042 0.0
C1947 C 0.49549 0.72567 0.74574 0.0
C1948 C 0.47264 0.7398 0.72816 0.0
C1949 C 0.48967 0.77008 0.73927 0.0
C1950 C 0.45958 0.74808 0.73688 0.0
C1951 C 0.44521 0.74804 0.7248 0.0
C1952 C 0.44351 0.73943 0.704 0.0
C1953 C 0.45643 0.73074 0.69576 0.0
C1954 C 0.4708 0.73096 0.70763 0.0
H1955 H 0.4991 0.77909 0.73832 0.0
H1956 H 0.4836 0.76961 0.72214 0.0
H1957 H 0.48111 0.77395 0.75269 0.0
H1958 H 0.46046 0.75461 0.75304 0.0
H1959 H 0.43548 0.75478 0.73171 0.0
H1960 H 0.2892 0.45317 0.69014 0.0
H1961 H 0.2891 0.47782 0.7119 0.0
H1962 H 0.24659 0.46368 0.74708 0.0
H1963 H 0.24683 0.43872 0.72566 0.0
H1964 H 0.26776 0.50094 0.71102 0.0
H1965 H 0.27287 0.47838 0.80147 0.0
H1966 H 0.27623 0.46613 0.77627 0.0
H1967 H 0.25652 0.47034 0.78571 0.0
C1968 C 0.27993 0.45517 0.70274 0.0
C1969 C 0.26806 0.4439 0.70622 0.0
C1970 C 0.27986 0.46934 0.71514 0.0
C1971 C 0.26793 0.47264 0.73135 0.0
C1972 C 0.25613 0.46133 0.73507 0.0
H1973 H 0.24662 0.56781 0.78151 0.0
H1974 H 0.24655 0.54267 0.76068 0.0
C1975 C 0.25624 0.44706 0.72274 0.0
C1976 C 0.26761 0.48818 0.74348 0.0
H1977 H 0.26751 0.50561 0.79726 0.0
C1978 C 0.26772 0.50194 0.72989 0.0
C1979 C 0.26775 0.48956 0.76811 0.0
C1980 C 0.26849 0.47533 0.78378 0.0
C1981 C 0.26792 0.51696 0.74017 0.0
C1982 C 0.26764 0.51835 0.76479 0.0
C1983 C 0.26759 0.50459 0.77839 0.0
C1984 C 0.26781 0.53392 0.77686 0.0
C1985 C 0.26885 0.53118 0.72449 0.0
C1986 C 0.27962 0.53738 0.7932 0.0
C1987 C 0.2796 0.55168 0.80528 0.0
C1988 C 0.26775 0.5629 0.80134 0.0
C1989 C 0.25602 0.55952 0.78478 0.0
C1990 C 0.256 0.54515 0.77278 0.0
H1991 H 0.27343 0.5281 0.70691 0.0
H1992 H 0.25691 0.53618 0.72224 0.0
H1993 H 0.27653 0.54038 0.73215 0.0
H1994 H 0.28886 0.52894 0.79672 0.0
H1995 H 0.28878 0.55385 0.81796 0.0
H1996 H 0.45355 0.28984 0.81719 0.0
H1997 H 0.47831 0.29007 0.79558 0.0
H1998 H 0.46454 0.24775 0.7596 0.0
H1999 H 0.43953 0.24768 0.78079 0.0
H2000 H 0.50171 0.26905 0.79583 0.0
H2001 H 0.47885 0.27447 0.70564 0.0
H2002 H 0.46661 0.2775 0.73096 0.0
H2003 H 0.47096 0.25791 0.72107 0.0
C2004 C 0.45567 0.28068 0.80445 0.0
C2005 C 0.44448 0.26879 0.80064 0.0
C2006 C 0.4699 0.2808 0.79215 0.0
C2007 C 0.47331 0.26904 0.77571 0.0
C2008 C 0.4621 0.25718 0.77176 0.0
H2009 H 0.56834 0.24782 0.72481 0.0
H2010 H 0.54331 0.24787 0.74599 0.0
C2011 C 0.4478 0.25711 0.78397 0.0
C2012 C 0.48883 0.26893 0.76348 0.0
H2013 H 0.50607 0.26884 0.70955 0.0
C2014 C 0.50264 0.26905 0.77695 0.0
C2015 C 0.49014 0.26911 0.73883 0.0
C2016 C 0.47586 0.2699 0.72326 0.0
C2017 C 0.51763 0.26923 0.76655 0.0
C2018 C 0.51894 0.26893 0.7419 0.0
C2019 C 0.50513 0.26893 0.72843 0.0
C2020 C 0.53446 0.26905 0.72967 0.0
C2021 C 0.53191 0.27016 0.78211 0.0
C2022 C 0.53783 0.28076 0.71313 0.0
C2023 C 0.55206 0.28065 0.70084 0.0
C2024 C 0.5633 0.26883 0.70477 0.0
C2025 C 0.56003 0.2572 0.72154 0.0
C2026 C 0.54572 0.25725 0.73374 0.0
H2027 H 0.5289 0.2748 0.79968 0.0
H2028 H 0.53686 0.2582 0.78442 0.0
H2029 H 0.54112 0.27777 0.77432 0.0
H2030 H 0.52938 0.28998 0.70961 0.0
H2031 H 0.55415 0.28977 0.68802 0.0
H2032 H 0.25346 0.57108 0.23215 0.0
H2033 H 0.25416 0.54637 0.25419 0.0
H2034 H 0.28513 0.52639 0.20253 0.0
H2035 H 0.28496 0.55113 0.18105 0.0
H2036 H 0.24464 0.51787 0.24337 0.0
H2037 H 0.3085 0.51456 0.25994 0.0
H2038 H 0.29927 0.53205 0.24865 0.0
H2039 H 0.30438 0.51612 0.22936 0.0
C2040 C 0.2606 0.56149 0.2257 0.0
C2041 C 0.26929 0.56317 0.20496 0.0
C2042 C 0.26095 0.54732 0.23827 0.0
C2043 C 0.26994 0.5345 0.23034 0.0
C2044 C 0.2785 0.53617 0.20951 0.0
H2045 H 0.2537 0.43681 0.27385 0.0
H2046 H 0.25429 0.46187 0.25274 0.0
C2047 C 0.27831 0.55035 0.19713 0.0
C2048 C 0.2699 0.51921 0.24327 0.0
H2049 H 0.29396 0.49089 0.26603 0.0
C2050 C 0.25544 0.51204 0.24847 0.0
C2051 C 0.28395 0.5116 0.25029 0.0
C2052 C 0.29988 0.51906 0.247 0.0
C2053 C 0.25462 0.49747 0.26008 0.0
C2054 C 0.26869 0.48949 0.26607 0.0
C2055 C 0.28315 0.49679 0.26118 0.0
C2056 C 0.26875 0.47391 0.27821 0.0
C2057 C 0.23865 0.49102 0.26632 0.0
C2058 C 0.27727 0.47195 0.29902 0.0
C2059 C 0.27725 0.45753 0.3108 0.0
C2060 C 0.26864 0.44468 0.30216 0.0
C2061 C 0.26036 0.4465 0.28108 0.0
C2062 C 0.26056 0.4609 0.26911 0.0
H2063 H 0.22965 0.50046 0.26709 0.0
H2064 H 0.23493 0.4825 0.25275 0.0
H2065 H 0.23889 0.48489 0.28343 0.0
H2066 H 0.28376 0.4817 0.30643 0.0
H2067 H 0.28373 0.45659 0.327 0.0
H2068 H 0.56781 0.24788 0.2809 0.0
H2069 H 0.54282 0.24781 0.25965 0.0
H2070 H 0.5285 0.28968 0.29632 0.0
H2071 H 0.55323 0.28958 0.31798 0.0
H2072 H 0.50532 0.26845 0.29605 0.0
H2073 H 0.52837 0.27481 0.2061 0.0
H2074 H 0.53637 0.25819 0.22127 0.0
H2075 H 0.54051 0.27774 0.23154 0.0
C2076 C 0.55942 0.25718 0.28423 0.0
C2077 C 0.56258 0.26877 0.30109 0.0
C2078 C 0.54513 0.25717 0.27198 0.0
C2079 C 0.53378 0.26886 0.27609 0.0
C2080 C 0.53702 0.28053 0.29275 0.0
H2081 H 0.45299 0.28941 0.18813 0.0
H2082 H 0.47771 0.28972 0.20984 0.0
C2083 C 0.55123 0.28049 0.30509 0.0
C2084 C 0.51829 0.2687 0.26377 0.0
H2085 H 0.5012 0.26889 0.20974 0.0
C2086 C 0.50444 0.26859 0.27716 0.0
C2087 C 0.51705 0.26907 0.23912 0.0
C2088 C 0.53135 0.27012 0.22364 0.0
C2089 C 0.48947 0.26872 0.26667 0.0
C2090 C 0.48823 0.26861 0.24202 0.0
C2091 C 0.50208 0.26883 0.22863 0.0
C2092 C 0.47274 0.26866 0.22969 0.0
C2093 C 0.47516 0.26941 0.28217 0.0
C2094 C 0.46157 0.25676 0.23358 0.0
C2095 C 0.44729 0.25666 0.22131 0.0
C2096 C 0.44396 0.26833 0.20465 0.0
C2097 C 0.45513 0.28026 0.20087 0.0
C2098 C 0.46932 0.28041 0.21324 0.0
H2099 H 0.47807 0.27399 0.29981 0.0
H2100 H 0.46588 0.27696 0.27444 0.0
H2101 H 0.47033 0.25739 0.28433 0.0
H2102 H 0.46401 0.24734 0.24574 0.0
H2103 H 0.43904 0.2472 0.22446 0.0
H2104 H 0.7194 0.55419 0.31705 0.0
H2105 H 0.71952 0.52921 0.29605 0.0
H2106 H 0.76182 0.54301 0.26005 0.0
H2107 H 0.76155 0.56827 0.28067 0.0
H2108 H 0.74147 0.52885 0.2307 0.0
H2109 H 0.74764 0.49232 0.31009 0.0
H2110 H 0.73071 0.50484 0.31116 0.0
H2111 H 0.75006 0.51337 0.31052 0.0
C2112 C 0.72871 0.55197 0.30459 0.0
C2113 C 0.74052 0.56323 0.30065 0.0
C2114 C 0.72884 0.53758 0.29272 0.0
C2115 C 0.7409 0.53399 0.27686 0.0
C2116 C 0.75245 0.54541 0.27235 0.0
H2117 H 0.76083 0.43919 0.22466 0.0
H2118 H 0.76133 0.46439 0.24541 0.0
C2119 C 0.75228 0.55988 0.28412 0.0
C2120 C 0.74137 0.51838 0.2649 0.0
H2121 H 0.74127 0.47874 0.27492 0.0
C2122 C 0.7415 0.5179 0.24039 0.0
C2123 C 0.7417 0.50403 0.27746 0.0
C2124 C 0.74269 0.50362 0.30375 0.0
C2125 C 0.74156 0.50355 0.22816 0.0
C2126 C 0.74111 0.4892 0.24072 0.0
C2127 C 0.74139 0.48968 0.26523 0.0
C2128 C 0.74044 0.47361 0.22877 0.0
C2129 C 0.74241 0.50395 0.20186 0.0
C2130 C 0.72829 0.47013 0.21299 0.0
C2131 C 0.72802 0.45577 0.20105 0.0
C2132 C 0.73978 0.44442 0.20483 0.0
C2133 C 0.75159 0.44765 0.22133 0.0
C2134 C 0.75191 0.46208 0.23317 0.0
H2135 H 0.74744 0.5152 0.19545 0.0
H2136 H 0.74965 0.49412 0.195 0.0
H2137 H 0.73038 0.50285 0.19459 0.0
H2138 H 0.71903 0.47858 0.20976 0.0
H2139 H 0.71868 0.45364 0.18861 0.0
H2140 H 0.45375 0.71953 0.31698 0.0
H2141 H 0.47861 0.7199 0.29567 0.0
H2142 H 0.46427 0.76216 0.26004 0.0
H2143 H 0.43913 0.76165 0.28098 0.0
H2144 H 0.47854 0.74194 0.23045 0.0
H2145 H 0.51525 0.74844 0.30959 0.0
H2146 H 0.50288 0.7314 0.31072 0.0
H2147 H 0.49417 0.75067 0.31016 0.0
C2148 C 0.45582 0.72887 0.30452 0.0
C2149 C 0.44445 0.74061 0.3008 0.0
C2150 C 0.47014 0.72915 0.29248 0.0
C2151 C 0.47356 0.74128 0.27665 0.0
C2152 C 0.46201 0.75274 0.27232 0.0
H2153 H 0.56808 0.76204 0.22391 0.0
H2154 H 0.54285 0.76247 0.24462 0.0
C2155 C 0.44761 0.75242 0.28427 0.0
C2156 C 0.48911 0.74193 0.26457 0.0
H2157 H 0.52878 0.74227 0.27431 0.0
C2158 C 0.48951 0.74209 0.24006 0.0
C2159 C 0.5035 0.74243 0.27703 0.0
C2160 C 0.50397 0.74339 0.30332 0.0
C2161 C 0.50382 0.74231 0.22773 0.0
C2162 C 0.51822 0.74201 0.24019 0.0
C2163 C 0.51781 0.74227 0.2647 0.0
C2164 C 0.53378 0.74146 0.22814 0.0
C2165 C 0.50334 0.74314 0.20143 0.0
C2166 C 0.53734 0.72929 0.21243 0.0
C2167 C 0.55171 0.72906 0.20052 0.0
C2168 C 0.56299 0.74089 0.20425 0.0
C2169 C 0.55967 0.75276 0.22062 0.0
C2170 C 0.54522 0.75302 0.23244 0.0
H2171 H 0.49202 0.74805 0.1951 0.0
H2172 H 0.51308 0.75047 0.19451 0.0
H2173 H 0.50454 0.73111 0.19417 0.0
H2174 H 0.52895 0.71997 0.20927 0.0
H2175 H 0.5539 0.71968 0.18818 0.0
H2176 H 0.21497 0.11941 0.22454 0.0
H2177 H 0.19692 0.1331 0.25117 0.0
H2178 H 0.17069 0.15056 0.19225 0.0
H2179 H 0.18818 0.1368 0.16583 0.0
H2180 H 0.19206 0.16478 0.25344 0.0
H2181 H 0.13554 0.13563 0.23355 0.0
H2182 H 0.1542 0.12751 0.22467 0.0
H2183 H 0.14505 0.14281 0.20774 0.0
C2184 C 0.20516 0.1259 0.21731 0.0
C2185 C 0.2031 0.12698 0.19299 0.0
C2186 C 0.19489 0.13377 0.23253 0.0
C2187 C 0.18228 0.1427 0.22374 0.0
C2188 C 0.18005 0.14346 0.19955 0.0
H2189 H 0.12034 0.21529 0.28088 0.0
H2190 H 0.13465 0.1974 0.2546 0.0
C2191 C 0.19023 0.13565 0.1844 0.0
C2192 C 0.17218 0.15228 0.23947 0.0
H2193 H 0.13391 0.16046 0.25327 0.0
C2194 C 0.17937 0.1637 0.25357 0.0
C2195 C 0.15557 0.15098 0.23954 0.0
C2196 C 0.14715 0.13846 0.22573 0.0
C2197 C 0.17041 0.17404 0.2673 0.0
C2198 C 0.15384 0.17289 0.26707 0.0
C2199 C 0.14661 0.16143 0.25315 0.0
C2200 C 0.14399 0.18292 0.28237 0.0
C2201 C 0.17871 0.18628 0.28182 0.0
C2202 C 0.14415 0.18039 0.30649 0.0
C2203 C 0.13601 0.19045 0.32141 0.0
C2204 C 0.12749 0.20337 0.31261 0.0
C2205 C 0.12677 0.2055 0.28826 0.0
C2206 C 0.13496 0.19532 0.27324 0.0
H2207 H 0.19125 0.18759 0.27679 0.0
H2208 H 0.1728 0.19785 0.28008 0.0
H2209 H 0.17821 0.18281 0.30048 0.0
H2210 H 0.15088 0.17078 0.31384 0.0
H2211 H 0.13674 0.18825 0.34 0.0
H2212 H 0.88353 0.21801 0.22443 0.0
H2213 H 0.86955 0.20018 0.25111 0.0
H2214 H 0.86083 0.16828 0.19413 0.0
H2215 H 0.87471 0.18579 0.16761 0.0
H2216 H 0.83736 0.19093 0.24535 0.0
H2217 H 0.87701 0.1392 0.24628 0.0
H2218 H 0.88343 0.15846 0.23706 0.0
H2219 H 0.87228 0.14623 0.21757 0.0
C2220 C 0.87891 0.20704 0.21773 0.0
C2221 C 0.88022 0.20337 0.19387 0.0
C2222 C 0.87086 0.19691 0.23294 0.0
C2223 C 0.86425 0.18283 0.22463 0.0
C2224 C 0.86602 0.17893 0.20102 0.0
H2225 H 0.78764 0.126 0.2812 0.0
H2226 H 0.80548 0.1405 0.25512 0.0
C2227 C 0.87391 0.18905 0.18585 0.0
C2228 C 0.8545 0.17269 0.24 0.0
H2229 H 0.85118 0.13532 0.2614 0.0
C2230 C 0.84043 0.17881 0.24898 0.0
C2231 C 0.8585 0.15685 0.24467 0.0
C2232 C 0.87369 0.1498 0.23608 0.0
C2233 C 0.83012 0.16943 0.26216 0.0
C2234 C 0.83395 0.15352 0.26637 0.0
C2235 C 0.84816 0.14746 0.25779 0.0
C2236 C 0.82378 0.14335 0.28099 0.0
C2237 C 0.81525 0.1766 0.27174 0.0
C2238 C 0.82839 0.13977 0.30383 0.0
C2239 C 0.81826 0.13163 0.3187 0.0
C2240 C 0.80334 0.12671 0.31096 0.0
C2241 C 0.79907 0.12955 0.28763 0.0
C2242 C 0.80919 0.13791 0.27279 0.0
H2243 H 0.8149 0.18955 0.26932 0.0
H2244 H 0.80495 0.17139 0.26272 0.0
H2245 H 0.81411 0.17393 0.29064 0.0
H2246 H 0.83961 0.14381 0.31045 0.0
H2247 H 0.82196 0.12955 0.33653 0.0
H2248 H 0.87207 0.82118 0.3407 0.0
H2249 H 0.85786 0.83866 0.31459 0.0
H2250 H 0.87229 0.81084 0.25554 0.0
H2251 H 0.88667 0.79298 0.28175 0.0
H2252 H 0.87368 0.84699 0.25176 0.0
H2253 H 0.81629 0.82278 0.28123 0.0
H2254 H 0.82997 0.8282 0.30376 0.0
H2255 H 0.83453 0.81216 0.28459 0.0
C2256 C 0.8724 0.81874 0.32215 0.0
C2257 C 0.8804 0.80549 0.31339 0.0
C2258 C 0.86422 0.8288 0.30726 0.0
C2259 C 0.86381 0.82591 0.28323 0.0
C2260 C 0.87241 0.8132 0.27412 0.0
H2261 H 0.81807 0.86867 0.1656 0.0
H2262 H 0.83563 0.85543 0.19244 0.0
C2263 C 0.88065 0.80304 0.2891 0.0
C2264 C 0.85381 0.83585 0.268 0.0
H2265 H 0.81548 0.84473 0.25615 0.0
C2266 C 0.86096 0.84647 0.25261 0.0
C2267 C 0.83723 0.83532 0.26945 0.0
C2268 C 0.82897 0.82395 0.28551 0.0
C2269 C 0.85194 0.85665 0.23866 0.0
C2270 C 0.8353 0.85592 0.23975 0.0
C2271 C 0.8282 0.84538 0.25538 0.0
C2272 C 0.82506 0.86506 0.22364 0.0
C2273 C 0.86033 0.86828 0.22319 0.0
C2274 C 0.81295 0.87476 0.23215 0.0
C2275 C 0.80261 0.88234 0.21669 0.0
C2276 C 0.80412 0.88021 0.19244 0.0
C2277 C 0.81646 0.87068 0.18411 0.0
C2278 C 0.82669 0.86315 0.19948 0.0
H2279 H 0.8722 0.87112 0.23008 0.0
H2280 H 0.86187 0.86308 0.20558 0.0
H2281 H 0.85356 0.87937 0.22141 0.0
H2282 H 0.81138 0.87631 0.25077 0.0
H2283 H 0.79323 0.88951 0.22374 0.0
H2284 H 0.18839 0.86926 0.33977 0.0
H2285 H 0.17151 0.85516 0.31281 0.0
H2286 H 0.19763 0.8739 0.25466 0.0
H2287 H 0.21507 0.88789 0.28179 0.0
H2288 H 0.15208 0.86375 0.27785 0.0
H2289 H 0.2007 0.82699 0.2432 0.0
H2290 H 0.20301 0.83939 0.26849 0.0
H2291 H 0.20363 0.84774 0.23967 0.0
C2292 C 0.19061 0.8705 0.32126 0.0
C2293 C 0.20331 0.87958 0.31303 0.0
C2294 C 0.18084 0.86242 0.30582 0.0
C2295 C 0.18346 0.86317 0.28171 0.0
C2296 C 0.19561 0.87284 0.27325 0.0
H2297 H 0.13992 0.81675 0.16477 0.0
H2298 H 0.15373 0.83428 0.19116 0.0
C2299 C 0.20549 0.88095 0.28877 0.0
C2300 C 0.1737 0.85334 0.26582 0.0
H2301 H 0.17569 0.82344 0.22612 0.0
C2302 C 0.15725 0.85494 0.26653 0.0
C2303 C 0.18041 0.84169 0.25126 0.0
C2304 C 0.19789 0.83869 0.2507 0.0
C2305 C 0.14739 0.84538 0.25284 0.0
C2306 C 0.15414 0.83387 0.23818 0.0
C2307 C 0.17055 0.83228 0.23743 0.0
C2308 C 0.14451 0.82377 0.22261 0.0
C2309 C 0.12985 0.84781 0.25381 0.0
C2310 C 0.1345 0.81207 0.23155 0.0
C2311 C 0.12651 0.80183 0.21639 0.0
C2312 C 0.12845 0.80313 0.19206 0.0
C2313 C 0.13815 0.81523 0.18335 0.0
C2314 C 0.1461 0.82533 0.19842 0.0
H2315 H 0.12666 0.85885 0.26301 0.0
H2316 H 0.12485 0.84813 0.23592 0.0
H2317 H 0.12436 0.83782 0.26321 0.0
H2318 H 0.13323 0.81056 0.25022 0.0
H2319 H 0.1192 0.79265 0.22372 0.0
H2320 H 0.88598 0.79158 0.72364 0.0
H2321 H 0.8717 0.80948 0.74992 0.0
H2322 H 0.85869 0.83833 0.69126 0.0
H2323 H 0.87284 0.82081 0.66506 0.0
H2324 H 0.87345 0.84966 0.74815 0.0
H2325 H 0.81723 0.81826 0.73041 0.0
H2326 H 0.83588 0.80811 0.73032 0.0
H2327 H 0.83105 0.82122 0.70695 0.0
C2328 C 0.88033 0.80188 0.71641 0.0
C2329 C 0.88047 0.80464 0.69219 0.0
C2330 C 0.87214 0.81206 0.73143 0.0
C2331 C 0.86407 0.82512 0.72242 0.0
C2332 C 0.86479 0.82827 0.69849 0.0
H2333 H 0.79096 0.88624 0.77998 0.0
H2334 H 0.80907 0.87273 0.75321 0.0
C2335 C 0.87289 0.81818 0.68355 0.0
C2336 C 0.85408 0.83511 0.73755 0.0
H2337 H 0.81591 0.84095 0.75376 0.0
C2338 C 0.86089 0.84774 0.74954 0.0
C2339 C 0.83768 0.83273 0.73886 0.0
C2340 C 0.8299 0.81934 0.72605 0.0
C2341 C 0.85166 0.85807 0.76295 0.0
C2342 C 0.83524 0.85552 0.76467 0.0
C2343 C 0.82846 0.84296 0.75238 0.0
C2344 C 0.82504 0.86505 0.78031 0.0
C2345 C 0.85956 0.87178 0.77482 0.0
C2346 C 0.82804 0.86531 0.80435 0.0
C2347 C 0.8178 0.87299 0.81957 0.0
C2348 C 0.80417 0.88052 0.81121 0.0
C2349 C 0.80137 0.88065 0.78701 0.0
C2350 C 0.81167 0.87288 0.77171 0.0
H2351 H 0.87072 0.875 0.76596 0.0
H2352 H 0.85177 0.88225 0.7752 0.0
H2353 H 0.86242 0.8685 0.79307 0.0
H2354 H 0.83805 0.85911 0.8115 0.0
H2355 H 0.82041 0.87264 0.83806 0.0
H2356 H 0.21681 0.88411 0.72562 0.0
H2357 H 0.19904 0.86929 0.75141 0.0
H2358 H 0.16791 0.86075 0.69345 0.0
H2359 H 0.18544 0.87531 0.66774 0.0
H2360 H 0.16538 0.87228 0.76138 0.0
H2361 H 0.18002 0.81628 0.7165 0.0
H2362 H 0.19178 0.8338 0.71331 0.0
H2363 H 0.17358 0.83188 0.69768 0.0
C2364 C 0.20605 0.87929 0.71849 0.0
C2365 C 0.20268 0.88072 0.69455 0.0
C2366 C 0.19594 0.87078 0.7332 0.0
C2367 C 0.18235 0.86361 0.72418 0.0
C2368 C 0.17852 0.86586 0.70065 0.0
H2369 H 0.11548 0.79547 0.78346 0.0
H2370 H 0.12872 0.81397 0.75693 0.0
C2371 C 0.18857 0.87426 0.68601 0.0
C2372 C 0.17239 0.85327 0.73896 0.0
H2373 H 0.15992 0.81529 0.74489 0.0
C2374 C 0.1642 0.85982 0.75783 0.0
C2375 C 0.17073 0.83703 0.73412 0.0
C2376 C 0.17958 0.82925 0.71443 0.0
C2377 C 0.15433 0.85058 0.77195 0.0
C2378 C 0.1529 0.83427 0.7674 0.0
C2379 C 0.16093 0.82778 0.74831 0.0
C2380 C 0.14421 0.82352 0.78335 0.0
C2381 C 0.14538 0.85846 0.79144 0.0
C2382 C 0.14863 0.82258 0.80684 0.0
C2383 C 0.14111 0.81217 0.82193 0.0
C2384 C 0.12903 0.80217 0.81393 0.0
C2385 C 0.12465 0.80302 0.79027 0.0
C2386 C 0.13221 0.81358 0.7751 0.0
H2387 H 0.14345 0.87113 0.78772 0.0
H2388 H 0.13381 0.85278 0.79436 0.0
H2389 H 0.15231 0.85763 0.80779 0.0
H2390 H 0.15816 0.82972 0.81351 0.0
H2391 H 0.14502 0.81184 0.8399 0.0
H2392 H 0.12091 0.21672 0.72461 0.0
H2393 H 0.13521 0.1991 0.75129 0.0
H2394 H 0.15133 0.17179 0.69269 0.0
H2395 H 0.1372 0.189 0.66613 0.0
H2396 H 0.1343 0.16229 0.75367 0.0
H2397 H 0.1918 0.18868 0.72916 0.0
H2398 H 0.17341 0.19901 0.72557 0.0
H2399 H 0.17874 0.18367 0.70561 0.0
C2400 C 0.12732 0.20684 0.71745 0.0
C2401 C 0.12801 0.20444 0.69316 0.0
C2402 C 0.1355 0.19681 0.7327 0.0
C2403 C 0.1445 0.1843 0.72387 0.0
C2404 C 0.14463 0.1815 0.69982 0.0
H2405 H 0.21492 0.12053 0.78245 0.0
H2406 H 0.19697 0.13429 0.75577 0.0
C2407 C 0.1365 0.19141 0.68466 0.0
C2408 C 0.1543 0.17438 0.7394 0.0
H2409 H 0.1925 0.16606 0.75294 0.0
C2410 C 0.14702 0.16316 0.75367 0.0
C2411 C 0.17089 0.17538 0.73903 0.0
C2412 C 0.17925 0.18739 0.72416 0.0
C2413 C 0.15593 0.15277 0.76747 0.0
C2414 C 0.17255 0.1539 0.76736 0.0
C2415 C 0.17979 0.16511 0.75294 0.0
C2416 C 0.18262 0.14435 0.78318 0.0
C2417 C 0.14744 0.14049 0.78166 0.0
C2418 C 0.18052 0.14536 0.80738 0.0
C2419 C 0.19065 0.13751 0.82255 0.0
C2420 C 0.20333 0.12854 0.81399 0.0
C2421 C 0.20526 0.12724 0.78967 0.0
C2422 C 0.19504 0.13515 0.77441 0.0
H2423 H 0.13575 0.13772 0.77407 0.0
H2424 H 0.15436 0.12946 0.78285 0.0
H2425 H 0.14551 0.14503 0.79958 0.0
H2426 H 0.17131 0.15265 0.81464 0.0
H2427 H 0.18871 0.13884 0.84113 0.0
H2428 H 0.88391 0.21837 0.78035 0.0
H2429 H 0.86949 0.2006 0.75403 0.0
H2430 H 0.8606 0.16911 0.8114 0.0
H2431 H 0.87481 0.18659 0.83766 0.0
H2432 H 0.87294 0.15799 0.75738 0.0
H2433 H 0.81728 0.19121 0.77164 0.0
H2434 H 0.83581 0.20143 0.76926 0.0
H2435 H 0.83181 0.18968 0.79449 0.0
C2436 C 0.87914 0.20752 0.78724 0.0
C2437 C 0.88044 0.20398 0.81116 0.0
C2438 C 0.87086 0.19743 0.77222 0.0
C2439 C 0.86393 0.18362 0.78089 0.0
C2440 C 0.86583 0.17973 0.80443 0.0
H2441 H 0.79035 0.12259 0.72459 0.0
H2442 H 0.80835 0.13652 0.75106 0.0
C2443 C 0.87396 0.18979 0.8194 0.0
C2444 C 0.85391 0.17358 0.76592 0.0
H2445 H 0.81591 0.16854 0.74827 0.0
C2446 C 0.86049 0.16031 0.75522 0.0
C2447 C 0.83764 0.17648 0.76365 0.0
C2448 C 0.83007 0.19045 0.77532 0.0
C2449 C 0.8512 0.14992 0.74203 0.0
C2450 C 0.83493 0.15298 0.73933 0.0
C2451 C 0.82835 0.16616 0.75037 0.0
C2452 C 0.82474 0.14327 0.72395 0.0
C2453 C 0.85884 0.13562 0.73137 0.0
C2454 C 0.82802 0.14233 0.70004 0.0
C2455 C 0.81784 0.13443 0.685 0.0
C2456 C 0.80401 0.12731 0.69342 0.0
C2457 C 0.80093 0.12784 0.71754 0.0
C2458 C 0.81116 0.13586 0.73265 0.0
H2459 H 0.86984 0.13242 0.74068 0.0
H2460 H 0.85077 0.12537 0.73162 0.0
H2461 H 0.86192 0.1382 0.71294 0.0
H2462 H 0.83823 0.14818 0.69282 0.0
H2463 H 0.82066 0.13426 0.66656 0.0
H2464 H 0.68473 0.62988 0.66759 0.0
H2465 H 0.6671 0.64421 0.69353 0.0
H2466 H 0.7005 0.63955 0.74966 0.0
H2467 H 0.71837 0.62508 0.72362 0.0
H2468 H 0.65358 0.6365 0.73852 0.0
H2469 H 0.69375 0.68807 0.74065 0.0
H2470 H 0.69555 0.67264 0.71918 0.0
H2471 H 0.70221 0.66943 0.74851 0.0
C2472 C 0.68829 0.6317 0.68555 0.0
C2473 C 0.70304 0.62644 0.69349 0.0
C2474 C 0.67816 0.63989 0.70035 0.0
C2475 C 0.68258 0.64317 0.72339 0.0
C2476 C 0.69695 0.6373 0.73181 0.0
H2477 H 0.62894 0.68499 0.83479 0.0
H2478 H 0.64283 0.66734 0.80837 0.0
C2479 C 0.70709 0.62893 0.717 0.0
C2480 C 0.6724 0.65339 0.73798 0.0
H2481 H 0.67047 0.68983 0.76289 0.0
C2482 C 0.65728 0.64813 0.74393 0.0
C2483 C 0.67713 0.66869 0.74458 0.0
C2484 C 0.69299 0.67517 0.73781 0.0
C2485 C 0.64688 0.65768 0.75671 0.0
C2486 C 0.65175 0.67285 0.76373 0.0
C2487 C 0.66676 0.6782 0.75745 0.0
C2488 C 0.6418 0.68303 0.77874 0.0
C2489 C 0.63072 0.65153 0.76245 0.0
C2490 C 0.63643 0.69772 0.7708 0.0
C2491 C 0.62832 0.70787 0.78589 0.0
C2492 C 0.62575 0.7036 0.80929 0.0
C2493 C 0.63075 0.68867 0.81688 0.0
C2494 C 0.63865 0.67851 0.80178 0.0
H2495 H 0.62742 0.64145 0.75116 0.0
H2496 H 0.63052 0.64749 0.78086 0.0
H2497 H 0.62175 0.66092 0.76049 0.0
H2498 H 0.63883 0.70145 0.75307 0.0
H2499 H 0.62475 0.71933 0.77958 0.0
H2500 H 0.31614 0.63964 0.83977 0.0
H2501 H 0.33312 0.65381 0.81304 0.0
H2502 H 0.30832 0.63388 0.75449 0.0
H2503 H 0.29078 0.61978 0.78138 0.0
H2504 H 0.35328 0.64491 0.77912 0.0
H2505 H 0.30489 0.68063 0.74147 0.0
H2506 H 0.30228 0.66856 0.76706 0.0
H2507 H 0.30227 0.65979 0.73851 0.0
C2508 C 0.31421 0.63816 0.82122 0.0
C2509 C 0.30186 0.62867 0.81279 0.0
C2510 C 0.32403 0.64628 0.80592 0.0
C2511 C 0.32185 0.64519 0.78176 0.0
C2512 C 0.31001 0.6352 0.77312 0.0
H2513 H 0.36692 0.69067 0.66526 0.0
H2514 H 0.35285 0.6733 0.69157 0.0
C2515 C 0.30007 0.62703 0.7885 0.0
C2516 C 0.33178 0.65492 0.76596 0.0
H2517 H 0.33018 0.68428 0.72534 0.0
C2518 C 0.34822 0.65352 0.76735 0.0
C2519 C 0.3252 0.6663 0.75081 0.0
C2520 C 0.30771 0.66907 0.74946 0.0
C2521 C 0.35822 0.663 0.75379 0.0
C2522 C 0.35162 0.67426 0.73855 0.0
C2523 C 0.33521 0.67565 0.7371 0.0
C2524 C 0.36142 0.68427 0.72308 0.0
C2525 C 0.37576 0.66077 0.75551 0.0
C2526 C 0.37117 0.69617 0.73208 0.0
C2527 C 0.37932 0.70631 0.71695 0.0
C2528 C 0.37778 0.70472 0.6926 0.0
C2529 C 0.36836 0.69242 0.68386 0.0
C2530 C 0.36026 0.6824 0.69889 0.0
H2531 H 0.3789 0.64987 0.76511 0.0
H2532 H 0.38109 0.66031 0.73783 0.0
H2533 H 0.38097 0.67092 0.76488 0.0
H2534 H 0.37211 0.6979 0.75075 0.0
H2535 H 0.3864 0.71565 0.72431 0.0
H2536 H 0.38983 0.29366 0.78128 0.0
H2537 H 0.3764 0.31164 0.75423 0.0
H2538 H 0.35282 0.33365 0.81224 0.0
H2539 H 0.36624 0.31628 0.83912 0.0
H2540 H 0.34478 0.31463 0.747 0.0
H2541 H 0.36812 0.37168 0.7775 0.0
H2542 H 0.37688 0.35318 0.78574 0.0
H2543 H 0.35985 0.36045 0.80095 0.0
C2544 C 0.38197 0.3025 0.78827 0.0
C2545 C 0.37921 0.30347 0.81245 0.0
C2546 C 0.37428 0.31275 0.77279 0.0
C2547 C 0.3638 0.32422 0.78122 0.0
C2548 C 0.36115 0.32524 0.8053 0.0
H2549 H 0.29185 0.3859 0.7234 0.0
H2550 H 0.30964 0.3712 0.74928 0.0
C2551 C 0.3688 0.31512 0.82069 0.0
C2552 C 0.35471 0.33447 0.76504 0.0
H2553 H 0.34455 0.37273 0.75447 0.0
C2554 C 0.3449 0.32734 0.74844 0.0
C2555 C 0.35475 0.35108 0.76701 0.0
C2556 C 0.36559 0.35955 0.78361 0.0
C2557 C 0.33484 0.33629 0.73425 0.0
C2558 C 0.33467 0.35285 0.73654 0.0
C2559 C 0.34458 0.36003 0.75293 0.0
C2560 C 0.32463 0.36286 0.72142 0.0
C2561 C 0.32418 0.32794 0.71725 0.0
C2562 C 0.3275 0.36346 0.69738 0.0
C2563 C 0.31746 0.37181 0.68266 0.0
C2564 C 0.30428 0.37984 0.69161 0.0
C2565 C 0.30184 0.37985 0.71591 0.0
C2566 C 0.31197 0.37143 0.7307 0.0
H2567 H 0.32312 0.31522 0.72128 0.0
H2568 H 0.31226 0.33325 0.71733 0.0
H2569 H 0.32905 0.32912 0.69937 0.0
H2570 H 0.33737 0.35718 0.68991 0.0
H2571 H 0.31989 0.37167 0.66411 0.0
H2572 H 0.64158 0.31643 0.66649 0.0
H2573 H 0.65519 0.33361 0.69348 0.0
H2574 H 0.63111 0.31187 0.75129 0.0
H2575 H 0.61758 0.29406 0.72417 0.0
H2576 H 0.64558 0.35534 0.72416 0.0
H2577 H 0.67654 0.3072 0.77076 0.0
H2578 H 0.66577 0.30394 0.74409 0.0
H2579 H 0.65551 0.30573 0.77141 0.0
C2580 C 0.63906 0.3152 0.68492 0.0
C2581 C 0.62854 0.30363 0.69309 0.0
C2582 C 0.64688 0.32514 0.70037 0.0
C2583 C 0.64443 0.32389 0.72447 0.0
C2584 C 0.63349 0.31282 0.73278 0.0
H2585 H 0.68778 0.37168 0.84099 0.0
H2586 H 0.67029 0.35758 0.81481 0.0
C2587 C 0.62566 0.30272 0.71724 0.0
C2588 C 0.65371 0.33405 0.74055 0.0
H2589 H 0.68076 0.33298 0.78459 0.0
C2590 C 0.65325 0.35044 0.7374 0.0
C2591 C 0.66387 0.32768 0.75768 0.0
C2592 C 0.66562 0.31018 0.76111 0.0
C2593 C 0.66255 0.36059 0.751 0.0
C2594 C 0.67264 0.35419 0.76811 0.0
C2595 C 0.67302 0.33785 0.77142 0.0
C2596 C 0.68262 0.36419 0.78335 0.0
C2597 C 0.66139 0.37808 0.7472 0.0
C2598 C 0.6953 0.37288 0.77432 0.0
C2599 C 0.70548 0.38104 0.78936 0.0
C2600 C 0.70317 0.38054 0.81367 0.0
C2601 C 0.69008 0.37227 0.82241 0.0
C2602 C 0.68001 0.36416 0.80747 0.0
H2603 H 0.65096 0.38129 0.73656 0.0
H2604 H 0.66075 0.38436 0.76417 0.0
H2605 H 0.67206 0.38223 0.73793 0.0
H2606 H 0.69764 0.37292 0.75574 0.0
H2607 H 0.71546 0.38721 0.78202 0.0
H2608 H 0.36713 0.31681 0.16562 0.0
H2609 H 0.35358 0.3343 0.19218 0.0
H2610 H 0.37491 0.31087 0.25088 0.0
H2611 H 0.38844 0.29276 0.22412 0.0
H2612 H 0.34327 0.31459 0.2563 0.0
H2613 H 0.36884 0.37142 0.229 0.0
H2614 H 0.36091 0.36076 0.20473 0.0
H2615 H 0.37734 0.35282 0.22067 0.0
C2616 C 0.36917 0.31536 0.18415 0.0
C2617 C 0.37895 0.30327 0.19266 0.0
C2618 C 0.36146 0.32556 0.19936 0.0
C2619 C 0.36342 0.32415 0.22354 0.0
C2620 C 0.37333 0.31227 0.23224 0.0
H2621 H 0.31922 0.37149 0.33992 0.0
H2622 H 0.33676 0.35725 0.31393 0.0
C2623 C 0.38109 0.30195 0.21693 0.0
C2624 C 0.35416 0.33441 0.23947 0.0
H2625 H 0.34474 0.37277 0.25074 0.0
C2626 C 0.34374 0.32731 0.25527 0.0
C2627 C 0.35467 0.35104 0.23804 0.0
C2628 C 0.36616 0.35945 0.22235 0.0
C2629 C 0.33358 0.33633 0.26919 0.0
C2630 C 0.3339 0.35291 0.26742 0.0
C2631 C 0.34439 0.36006 0.25184 0.0
C2632 C 0.32389 0.36291 0.28255 0.0
C2633 C 0.32234 0.32806 0.28546 0.0
C2634 C 0.31111 0.37138 0.27338 0.0
C2635 C 0.30093 0.37964 0.28829 0.0
C2636 C 0.30342 0.37954 0.31258 0.0
C2637 C 0.31675 0.37168 0.32138 0.0
C2638 C 0.32683 0.36349 0.30656 0.0
H2639 H 0.32127 0.31535 0.28134 0.0
H2640 H 0.32667 0.3292 0.30365 0.0
H2641 H 0.3105 0.33351 0.28459 0.0
H2642 H 0.30872 0.37115 0.25482 0.0
H2643 H 0.29081 0.38555 0.28093 0.0
H2644 H 0.63402 0.32119 0.33999 0.0
H2645 H 0.64829 0.33868 0.31398 0.0
H2646 H 0.63602 0.30946 0.2553 0.0
H2647 H 0.62154 0.29168 0.28142 0.0
H2648 H 0.6742 0.32891 0.28672 0.0
H2649 H 0.62674 0.35488 0.23243 0.0
H2650 H 0.62293 0.34545 0.26011 0.0
H2651 H 0.62674 0.3338 0.23461 0.0
C2652 C 0.63414 0.31849 0.32151 0.0
C2653 C 0.62669 0.30489 0.31285 0.0
C2654 C 0.64234 0.32856 0.30666 0.0
C2655 C 0.64323 0.32542 0.28272 0.0
C2656 C 0.63532 0.31222 0.27372 0.0
H2657 H 0.69347 0.3642 0.1668 0.0
H2658 H 0.6761 0.35082 0.19372 0.0
C2659 C 0.62706 0.30206 0.28866 0.0
C2660 C 0.65339 0.33541 0.26771 0.0
H2661 H 0.65293 0.36075 0.22152 0.0
C2662 C 0.66956 0.33594 0.27251 0.0
C2663 C 0.64729 0.34458 0.24926 0.0
C2664 C 0.62996 0.34481 0.24381 0.0
C2665 C 0.67989 0.34504 0.25896 0.0
C2666 C 0.67383 0.35421 0.24042 0.0
C2667 C 0.65759 0.35382 0.23582 0.0
C2668 C 0.68423 0.36323 0.22434 0.0
C2669 C 0.69727 0.34425 0.26409 0.0
C2670 C 0.69453 0.37497 0.23245 0.0
C2671 C 0.70476 0.38269 0.21695 0.0
C2672 C 0.70472 0.37891 0.19304 0.0
C2673 C 0.69398 0.36749 0.18504 0.0
C2674 C 0.68393 0.35978 0.20046 0.0
H2675 H 0.7003 0.33389 0.27501 0.0
H2676 H 0.70421 0.34369 0.24771 0.0
H2677 H 0.70084 0.35496 0.27378 0.0
H2678 H 0.69474 0.37811 0.25075 0.0
H2679 H 0.71276 0.39147 0.22372 0.0
H2680 H 0.71982 0.62621 0.28042 0.0
H2681 H 0.70207 0.64087 0.25443 0.0
H2682 H 0.66815 0.6446 0.31003 0.0
H2683 H 0.68565 0.63006 0.3359 0.0
H2684 H 0.65499 0.63739 0.265 0.0
H2685 H 0.69492 0.68915 0.26413 0.0
H2686 H 0.70351 0.67067 0.25586 0.0
H2687 H 0.69677 0.67351 0.28524 0.0
C2688 C 0.70845 0.62989 0.28692 0.0
C2689 C 0.70421 0.62708 0.31027 0.0
C2690 C 0.69839 0.63838 0.27214 0.0
C2691 C 0.6839 0.64405 0.28045 0.0
C2692 C 0.6793 0.64044 0.3033 0.0
H2693 H 0.62598 0.72043 0.22487 0.0
H2694 H 0.64019 0.70254 0.25124 0.0
C2695 C 0.68935 0.63214 0.31807 0.0
C2696 C 0.67374 0.65435 0.26594 0.0
H2697 H 0.67174 0.69098 0.24167 0.0
C2698 C 0.65866 0.64909 0.25981 0.0
C2699 C 0.67843 0.66973 0.25965 0.0
C2700 C 0.69423 0.67623 0.26666 0.0
C2701 C 0.64826 0.65869 0.24716 0.0
C2702 C 0.65308 0.67394 0.24043 0.0
C2703 C 0.66806 0.6793 0.24689 0.0
C2704 C 0.64314 0.68418 0.22549 0.0
C2705 C 0.63212 0.65253 0.24127 0.0
C2706 C 0.63995 0.6797 0.20245 0.0
C2707 C 0.63197 0.68985 0.18744 0.0
C2708 C 0.62693 0.70474 0.19512 0.0
C2709 C 0.62958 0.709 0.2185 0.0
C2710 C 0.63777 0.69884 0.23352 0.0
H2711 H 0.6288 0.64244 0.25255 0.0
H2712 H 0.62313 0.66189 0.24314 0.0
H2713 H 0.63202 0.64847 0.22287 0.0
H2714 H 0.64414 0.66855 0.19579 0.0
H2715 H 0.6301 0.68617 0.16955 0.0
H2716 H 0.31613 0.64117 0.16514 0.0
H2717 H 0.33355 0.65522 0.19135 0.0
H2718 H 0.31089 0.6338 0.2506 0.0
H2719 H 0.29306 0.6195 0.22426 0.0
H2720 H 0.32247 0.67666 0.22734 0.0
H2721 H 0.3597 0.62807 0.2615 0.0
H2722 H 0.34875 0.62639 0.23459 0.0
H2723 H 0.33873 0.62526 0.26207 0.0
C2724 C 0.3148 0.63925 0.18372 0.0
C2725 C 0.30303 0.6292 0.19252 0.0
C2726 C 0.32485 0.64735 0.19869 0.0
C2727 C 0.32356 0.64555 0.22288 0.0
C2728 C 0.31217 0.63523 0.23191 0.0
H2729 H 0.37053 0.68919 0.33897 0.0
H2730 H 0.35622 0.67228 0.31231 0.0
C2731 C 0.30198 0.62709 0.21685 0.0
C2732 C 0.33366 0.65524 0.23835 0.0
H2733 H 0.36445 0.65346 0.27647 0.0
C2734 C 0.33166 0.67161 0.2381 0.0
C2735 C 0.34564 0.64861 0.25227 0.0
C2736 C 0.3485 0.63113 0.25265 0.0
C2737 C 0.34114 0.68154 0.25173 0.0
C2738 C 0.35328 0.67495 0.26551 0.0
C2739 C 0.35527 0.65854 0.26573 0.0
C2740 C 0.36324 0.68476 0.28114 0.0
C2741 C 0.33773 0.69894 0.25176 0.0
C2742 C 0.37243 0.69723 0.2725 0.0
C2743 C 0.38066 0.70712 0.28786 0.0
C2744 C 0.37989 0.70465 0.31211 0.0
C2745 C 0.3713 0.69164 0.32046 0.0
C2746 C 0.36311 0.68186 0.3052 0.0
H2747 H 0.32579 0.70156 0.24493 0.0
H2748 H 0.33871 0.70388 0.26964 0.0
H2749 H 0.34638 0.70502 0.24043 0.0
H2750 H 0.37302 0.69947 0.25392 0.0
H2751 H 0.38721 0.71694 0.28079 0.0
loop_
_geom_bond_atom_site_label_1
_geom_bond_atom_site_label_2
_geom_bond_distance
_geom_bond_site_symmetry_2
_ccdc_geom_bond_type
Co0 O1 2.216 . S
Co0 O2 2.091 . S
Co0 O4 2.004 . S
Co0 O10 2.021 . S
Co0 O12 2.137 . S
Co0 O13 2.244 . S
O1 Co0 2.216 . S
O1 C8 1.247 . S
O2 Co0 2.091 . S
O2 C8 1.261 . S
C3 O12 1.247 . S
C3 O13 1.272 . S
O4 Co0 2.004 . S
O4 C9 1.259 . S
Co5 O6 2.061 . S
Co5 O11 2.052 . S
Co5 O13 2.135 . S
O6 Co5 2.061 . S
O6 C9 1.235 . S
C7 O10 1.238 . S
C7 O11 1.241 . S
C8 O1 1.247 . S
C8 O2 1.261 . S
C9 O4 1.259 . S
C9 O6 1.235 . S
O10 Co0 2.021 . S
O10 C7 1.238 . S
O11 Co5 2.052 . S
O11 C7 1.241 . S
O12 Co0 2.137 . S
O12 C3 1.247 . S
O13 Co0 2.244 . S
O13 C3 1.272 . S
O13 Co5 2.135 . S
Co14 O15 2.216 . S
Co14 O16 2.091 . S
Co14 O18 2.004 . S
Co14 O24 2.021 . S
Co14 O26 2.137 . S
Co14 O27 2.244 . S
O15 Co14 2.216 . S
O15 C22 1.247 . S
O16 Co14 2.091 . S
O16 C22 1.261 . S
C17 O26 1.247 . S
C17 O27 1.272 . S
O18 Co14 2.004 . S
O18 C23 1.259 . S
Co19 O20 2.061 . S
Co19 O25 2.052 . S
Co19 O27 2.135 . S
O20 Co19 2.061 . S
O20 C23 1.235 . S
C21 O24 1.238 . S
C21 O25 1.241 . S
C22 O15 1.247 . S
C22 O16 1.261 . S
C23 O18 1.259 . S
C23 O20 1.235 . S
O24 Co14 2.021 . S
O24 C21 1.238 . S
O25 Co19 2.052 . S
O25 C21 1.241 . S
O26 Co14 2.137 . S
O26 C17 1.247 . S
O27 Co14 2.244 . S
O27 C17 1.272 . S
O27 Co19 2.135 . S
Co28 O29 2.216 . S
Co28 O30 2.091 . S
Co28 O32 2.004 . S
Co28 O38 2.021 . S
Co28 O40 2.137 . S
Co28 O41 2.244 . S
O29 Co28 2.216 . S
O29 C36 1.247 . S
O30 Co28 2.091 . S
O30 C36 1.261 . S
C31 O40 1.247 . S
C31 O41 1.272 . S
O32 Co28 2.004 . S
O32 C37 1.259 . S
Co33 O34 2.061 . S
Co33 O39 2.052 . S
Co33 O41 2.135 . S
O34 Co33 2.061 . S
O34 C37 1.235 . S
C35 O38 1.238 . S
C35 O39 1.241 . S
C36 O29 1.247 . S
C36 O30 1.261 . S
C37 O32 1.259 . S
C37 O34 1.235 . S
O38 Co28 2.021 . S
O38 C35 1.238 . S
O39 Co33 2.052 . S
O39 C35 1.241 . S
O40 Co28 2.137 . S
O40 C31 1.247 . S
O41 Co28 2.244 . S
O41 C31 1.272 . S
O41 Co33 2.135 . S
Co42 O43 2.216 . S
Co42 O44 2.091 . S
Co42 O46 2.004 . S
Co42 O52 2.021 . S
Co42 O54 2.137 . S
Co42 O55 2.244 . S
O43 Co42 2.216 . S
O43 C50 1.247 . S
O44 Co42 2.091 . S
O44 C50 1.261 . S
C45 O54 1.247 . S
C45 O55 1.272 . S
O46 Co42 2.004 . S
O46 C51 1.259 . S
Co47 O48 2.061 . S
Co47 O53 2.052 . S
Co47 O55 2.135 . S
O48 Co47 2.061 . S
O48 C51 1.235 . S
C49 O52 1.238 . S
C49 O53 1.241 . S
C50 O43 1.247 . S
C50 O44 1.261 . S
C51 O46 1.259 . S
C51 O48 1.235 . S
O52 Co42 2.021 . S
O52 C49 1.238 . S
O53 Co47 2.052 . S
O53 C49 1.241 . S
O54 Co42 2.137 . S
O54 C45 1.247 . S
O55 Co42 2.244 . S
O55 C45 1.272 . S
O55 Co47 2.135 . S
Co56 O57 2.216 . S
Co56 O58 2.091 . S
Co56 O60 2.004 . S
Co56 O66 2.021 . S
Co56 O68 2.137 . S
Co56 O69 2.244 . S
O57 Co56 2.216 . S
O57 C64 1.247 . S
O58 Co56 2.091 . S
O58 C64 1.261 . S
C59 O68 1.247 . S
C59 O69 1.272 . S
O60 Co56 2.004 . S
O60 C65 1.259 . S
Co61 O62 2.061 . S
Co61 O67 2.052 . S
Co61 O69 2.135 . S
O62 Co61 2.061 . S
O62 C65 1.235 . S
C63 O66 1.238 . S
C63 O67 1.241 . S
C64 O57 1.247 . S
C64 O58 1.261 . S
C65 O60 1.259 . S
C65 O62 1.235 . S
O66 Co56 2.021 . S
O66 C63 1.238 . S
O67 Co61 2.052 . S
O67 C63 1.241 . S
O68 Co56 2.137 . S
O68 C59 1.247 . S
O69 Co56 2.244 . S
O69 C59 1.272 . S
O69 Co61 2.135 . S
Co70 O71 2.216 . S
Co70 O72 2.091 . S
Co70 O74 2.004 . S
Co70 O80 2.021 . S
Co70 O82 2.137 . S
Co70 O83 2.244 . S
O71 Co70 2.216 . S
O71 C78 1.247 . S
O72 Co70 2.091 . S
O72 C78 1.261 . S
C73 O82 1.247 . S
C73 O83 1.272 . S
O74 Co70 2.004 . S
O74 C79 1.259 . S
Co75 O76 2.061 . S
Co75 O81 2.052 . S
Co75 O83 2.135 . S
O76 Co75 2.061 . S
O76 C79 1.235 . S
C77 O80 1.238 . S
C77 O81 1.241 . S
C78 O71 1.247 . S
C78 O72 1.261 . S
C79 O74 1.259 . S
C79 O76 1.235 . S
O80 Co70 2.021 . S
O80 C77 1.238 . S
O81 Co75 2.052 . S
O81 C77 1.241 . S
O82 Co70 2.137 . S
O82 C73 1.247 . S
O83 Co70 2.244 . S
O83 C73 1.272 . S
O83 Co75 2.135 . S
Co84 O85 2.216 . S
Co84 O86 2.091 . S
Co84 O88 2.004 . S
Co84 O94 2.021 . S
Co84 O96 2.137 . S
Co84 O97 2.244 . S
O85 Co84 2.216 . S
O85 C92 1.247 . S
O86 Co84 2.091 . S
O86 C92 1.261 . S
C87 O96 1.247 . S
C87 O97 1.272 . S
O88 Co84 2.004 . S
O88 C93 1.259 . S
Co89 O90 2.061 . S
Co89 O95 2.052 . S
Co89 O97 2.135 . S
O90 Co89 2.061 . S
O90 C93 1.235 . S
C91 O94 1.238 . S
C91 O95 1.241 . S
C92 O85 1.247 . S
C92 O86 1.261 . S
C93 O88 1.259 . S
C93 O90 1.235 . S
O94 Co84 2.021 . S
O94 C91 1.238 . S
O95 Co89 2.052 . S
O95 C91 1.241 . S
O96 Co84 2.137 . S
O96 C87 1.247 . S
O97 Co84 2.244 . S
O97 C87 1.272 . S
O97 Co89 2.135 . S
Co98 O99 2.216 . S
Co98 O100 2.091 . S
Co98 O102 2.004 . S
Co98 O108 2.021 . S
Co98 O110 2.137 . S
Co98 O111 2.244 . S
O99 Co98 2.216 . S
O99 C106 1.247 . S
O100 Co98 2.091 . S
O100 C106 1.261 . S
C101 O110 1.247 . S
C101 O111 1.272 . S
O102 Co98 2.004 . S
O102 C107 1.259 . S
Co103 O104 2.061 . S
Co103 O109 2.052 . S
Co103 O111 2.135 . S
O104 Co103 2.061 . S
O104 C107 1.235 . S
C105 O108 1.238 . S
C105 O109 1.241 . S
C106 O99 1.247 . S
C106 O100 1.261 . S
C107 O102 1.259 . S
C107 O104 1.235 . S
O108 Co98 2.021 . S
O108 C105 1.238 . S
O109 Co103 2.052 . S
O109 C105 1.241 . S
O110 Co98 2.137 . S
O110 C101 1.247 . S
O111 Co98 2.244 . S
O111 C101 1.272 . S
O111 Co103 2.135 . S
Co112 O113 2.216 . S
Co112 O114 2.091 . S
Co112 O116 2.004 . S
Co112 O122 2.021 . S
Co112 O124 2.137 . S
Co112 O125 2.244 . S
O113 Co112 2.216 . S
O113 C120 1.247 . S
O114 Co112 2.091 . S
O114 C120 1.261 . S
C115 O124 1.247 . S
C115 O125 1.272 . S
O116 Co112 2.004 . S
O116 C121 1.259 . S
Co117 O118 2.061 . S
Co117 O123 2.052 . S
Co117 O125 2.135 . S
O118 Co117 2.061 . S
O118 C121 1.235 . S
C119 O122 1.238 . S
C119 O123 1.241 . S
C120 O113 1.247 . S
C120 O114 1.261 . S
C121 O116 1.259 . S
C121 O118 1.235 . S
O122 Co112 2.021 . S
O122 C119 1.238 . S
O123 Co117 2.052 . S
O123 C119 1.241 . S
O124 Co112 2.137 . S
O124 C115 1.247 . S
O125 Co112 2.244 . S
O125 C115 1.272 . S
O125 Co117 2.135 . S
Co126 O127 2.216 . S
Co126 O128 2.091 . S
Co126 O130 2.004 . S
Co126 O136 2.021 . S
Co126 O138 2.137 . S
Co126 O139 2.244 . S
O127 Co126 2.216 . S
O127 C134 1.247 . S
O128 Co126 2.091 . S
O128 C134 1.261 . S
C129 O138 1.247 . S
C129 O139 1.272 . S
O130 Co126 2.004 . S
O130 C135 1.259 . S
Co131 O132 2.061 . S
Co131 O137 2.052 . S
Co131 O139 2.135 . S
O132 Co131 2.061 . S
O132 C135 1.235 . S
C133 O136 1.238 . S
C133 O137 1.241 . S
C134 O127 1.247 . S
C134 O128 1.261 . S
C135 O130 1.259 . S
C135 O132 1.235 . S
O136 Co126 2.021 . S
O136 C133 1.238 . S
O137 Co131 2.052 . S
O137 C133 1.241 . S
O138 Co126 2.137 . S
O138 C129 1.247 . S
O139 Co126 2.244 . S
O139 C129 1.272 . S
O139 Co131 2.135 . S
Co140 O141 2.216 . S
Co140 O142 2.091 . S
Co140 O144 2.004 . S
Co140 O150 2.021 . S
Co140 O152 2.137 . S
Co140 O153 2.244 . S
O141 Co140 2.216 . S
O141 C148 1.247 . S
O142 Co140 2.091 . S
O142 C148 1.261 . S
C143 O152 1.247 . S
C143 O153 1.272 . S
O144 Co140 2.004 . S
O144 C149 1.259 . S
Co145 O146 2.061 . S
Co145 O151 2.052 . S
Co145 O153 2.135 . S
O146 Co145 2.061 . S
O146 C149 1.235 . S
C147 O150 1.238 . S
C147 O151 1.241 . S
C148 O141 1.247 . S
C148 O142 1.261 . S
C149 O144 1.259 . S
C149 O146 1.235 . S
O150 Co140 2.021 . S
O150 C147 1.238 . S
O151 Co145 2.052 . S
O151 C147 1.241 . S
O152 Co140 2.137 . S
O152 C143 1.247 . S
O153 Co140 2.244 . S
O153 C143 1.272 . S
O153 Co145 2.135 . S
Co154 O155 2.216 . S
Co154 O156 2.091 . S
Co154 O158 2.004 . S
Co154 O164 2.021 . S
Co154 O166 2.137 . S
Co154 O167 2.244 . S
O155 Co154 2.216 . S
O155 C162 1.247 . S
O156 Co154 2.091 . S
O156 C162 1.261 . S
C157 O166 1.247 . S
C157 O167 1.272 . S
O158 Co154 2.004 . S
O158 C163 1.259 . S
Co159 O160 2.061 . S
Co159 O165 2.052 . S
Co159 O167 2.135 . S
O160 Co159 2.061 . S
O160 C163 1.235 . S
C161 O164 1.238 . S
C161 O165 1.241 . S
C162 O155 1.247 . S
C162 O156 1.261 . S
C163 O158 1.259 . S
C163 O160 1.235 . S
O164 Co154 2.021 . S
O164 C161 1.238 . S
O165 Co159 2.052 . S
O165 C161 1.241 . S
O166 Co154 2.137 . S
O166 C157 1.247 . S
O167 Co154 2.244 . S
O167 C157 1.272 . S
O167 Co159 2.135 . S
Co168 O169 2.216 . S
Co168 O170 2.091 . S
Co168 O172 2.004 . S
Co168 O178 2.021 . S
Co168 O180 2.137 . S
Co168 O181 2.244 . S
O169 Co168 2.216 . S
O169 C176 1.247 . S
O170 Co168 2.091 . S
O170 C176 1.261 . S
C171 O180 1.247 . S
C171 O181 1.272 . S
O172 Co168 2.004 . S
O172 C177 1.259 . S
Co173 O174 2.061 . S
Co173 O179 2.052 . S
Co173 O181 2.135 . S
O174 Co173 2.061 . S
O174 C177 1.235 . S
C175 O178 1.238 . S
C175 O179 1.241 . S
C176 O169 1.247 . S
C176 O170 1.261 . S
C177 O172 1.259 . S
C177 O174 1.235 . S
O178 Co168 2.021 . S
O178 C175 1.238 . S
O179 Co173 2.052 . S
O179 C175 1.241 . S
O180 Co168 2.137 . S
O180 C171 1.247 . S
O181 Co168 2.244 . S
O181 C171 1.272 . S
O181 Co173 2.135 . S
Co182 O183 2.216 . S
Co182 O184 2.091 . S
Co182 O186 2.004 . S
Co182 O192 2.021 . S
Co182 O194 2.137 . S
Co182 O195 2.244 . S
O183 Co182 2.216 . S
O183 C190 1.247 . S
O184 Co182 2.091 . S
O184 C190 1.261 . S
C185 O194 1.247 . S
C185 O195 1.272 . S
O186 Co182 2.004 . S
O186 C191 1.259 . S
Co187 O188 2.061 . S
Co187 O193 2.052 . S
Co187 O195 2.135 . S
O188 Co187 2.061 . S
O188 C191 1.235 . S
C189 O192 1.238 . S
C189 O193 1.241 . S
C190 O183 1.247 . S
C190 O184 1.261 . S
C191 O186 1.259 . S
C191 O188 1.235 . S
O192 Co182 2.021 . S
O192 C189 1.238 . S
O193 Co187 2.052 . S
O193 C189 1.241 . S
O194 Co182 2.137 . S
O194 C185 1.247 . S
O195 Co182 2.244 . S
O195 C185 1.272 . S
O195 Co187 2.135 . S
Co196 O197 2.216 . S
Co196 O198 2.091 . S
Co196 O200 2.004 . S
Co196 O206 2.021 . S
Co196 O208 2.137 . S
Co196 O209 2.244 . S
O197 Co196 2.216 . S
O197 C204 1.247 . S
O198 Co196 2.091 . S
O198 C204 1.261 . S
C199 O208 1.247 . S
C199 O209 1.272 . S
O200 Co196 2.004 . S
O200 C205 1.259 . S
Co201 O202 2.061 . S
Co201 O207 2.052 . S
Co201 O209 2.135 . S
O202 Co201 2.061 . S
O202 C205 1.235 . S
C203 O206 1.238 . S
C203 O207 1.241 . S
C204 O197 1.247 . S
C204 O198 1.261 . S
C205 O200 1.259 . S
C205 O202 1.235 . S
O206 Co196 2.021 . S
O206 C203 1.238 . S
O207 Co201 2.052 . S
O207 C203 1.241 . S
O208 Co196 2.137 . S
O208 C199 1.247 . S
O209 Co196 2.244 . S
O209 C199 1.272 . S
O209 Co201 2.135 . S
Co210 O211 2.216 . S
Co210 O212 2.091 . S
Co210 O214 2.004 . S
Co210 O220 2.021 . S
Co210 O222 2.137 . S
Co210 O223 2.244 . S
O211 Co210 2.216 . S
O211 C218 1.247 . S
O212 Co210 2.091 . S
O212 C218 1.261 . S
C213 O222 1.247 . S
C213 O223 1.272 . S
O214 Co210 2.004 . S
O214 C219 1.259 . S
Co215 O216 2.061 . S
Co215 O221 2.052 . S
Co215 O223 2.135 . S
O216 Co215 2.061 . S
O216 C219 1.235 . S
C217 O220 1.238 . S
C217 O221 1.241 . S
C218 O211 1.247 . S
C218 O212 1.261 . S
C219 O214 1.259 . S
C219 O216 1.235 . S
O220 Co210 2.021 . S
O220 C217 1.238 . S
O221 Co215 2.052 . S
O221 C217 1.241 . S
O222 Co210 2.137 . S
O222 C213 1.247 . S
O223 Co210 2.244 . S
O223 C213 1.272 . S
O223 Co215 2.135 . S
Co224 O225 2.216 . S
Co224 O226 2.091 . S
Co224 O228 2.004 . S
Co224 O234 2.021 . S
Co224 O236 2.137 . S
Co224 O237 2.244 . S
O225 Co224 2.216 . S
O225 C232 1.247 . S
O226 Co224 2.091 . S
O226 C232 1.261 . S
C227 O236 1.247 . S
C227 O237 1.272 . S
O228 Co224 2.004 . S
O228 C233 1.259 . S
Co229 O230 2.061 . S
Co229 O235 2.052 . S
Co229 O237 2.135 . S
O230 Co229 2.061 . S
O230 C233 1.235 . S
C231 O234 1.238 . S
C231 O235 1.241 . S
C232 O225 1.247 . S
C232 O226 1.261 . S
C233 O228 1.259 . S
C233 O230 1.235 . S
O234 Co224 2.021 . S
O234 C231 1.238 . S
O235 Co229 2.052 . S
O235 C231 1.241 . S
O236 Co224 2.137 . S
O236 C227 1.247 . S
O237 Co224 2.244 . S
O237 C227 1.272 . S
O237 Co229 2.135 . S
Co238 O239 2.216 . S
Co238 O240 2.091 . S
Co238 O242 2.004 . S
Co238 O248 2.021 . S
Co238 O250 2.137 . S
Co238 O251 2.244 . S
O239 Co238 2.216 . S
O239 C246 1.247 . S
O240 Co238 2.091 . S
O240 C246 1.261 . S
C241 O250 1.247 . S
C241 O251 1.272 . S
O242 Co238 2.004 . S
O242 C247 1.259 . S
Co243 O244 2.061 . S
Co243 O249 2.052 . S
Co243 O251 2.135 . S
O244 Co243 2.061 . S
O244 C247 1.235 . S
C245 O248 1.238 . S
C245 O249 1.241 . S
C246 O239 1.247 . S
C246 O240 1.261 . S
C247 O242 1.259 . S
C247 O244 1.235 . S
O248 Co238 2.021 . S
O248 C245 1.238 . S
O249 Co243 2.052 . S
O249 C245 1.241 . S
O250 Co238 2.137 . S
O250 C241 1.247 . S
O251 Co238 2.244 . S
O251 C241 1.272 . S
O251 Co243 2.135 . S
Co252 O253 2.216 . S
Co252 O254 2.091 . S
Co252 O256 2.004 . S
Co252 O262 2.021 . S
Co252 O264 2.137 . S
Co252 O265 2.244 . S
O253 Co252 2.216 . S
O253 C260 1.247 . S
O254 Co252 2.091 . S
O254 C260 1.261 . S
C255 O264 1.247 . S
C255 O265 1.272 . S
O256 Co252 2.004 . S
O256 C261 1.259 . S
Co257 O258 2.061 . S
Co257 O263 2.052 . S
Co257 O265 2.135 . S
O258 Co257 2.061 . S
O258 C261 1.235 . S
C259 O262 1.238 . S
C259 O263 1.241 . S
C260 O253 1.247 . S
C260 O254 1.261 . S
C261 O256 1.259 . S
C261 O258 1.235 . S
O262 Co252 2.021 . S
O262 C259 1.238 . S
O263 Co257 2.052 . S
O263 C259 1.241 . S
O264 Co252 2.137 . S
O264 C255 1.247 . S
O265 Co252 2.244 . S
O265 C255 1.272 . S
O265 Co257 2.135 . S
Co266 O267 2.216 . S
Co266 O268 2.091 . S
Co266 O270 2.004 . S
Co266 O276 2.021 . S
Co266 O278 2.137 . S
Co266 O279 2.244 . S
O267 Co266 2.216 . S
O267 C274 1.247 . S
O268 Co266 2.091 . S
O268 C274 1.261 . S
C269 O278 1.247 . S
C269 O279 1.272 . S
O270 Co266 2.004 . S
O270 C275 1.259 . S
Co271 O272 2.061 . S
Co271 O277 2.052 . S
Co271 O279 2.135 . S
O272 Co271 2.061 . S
O272 C275 1.235 . S
C273 O276 1.238 . S
C273 O277 1.241 . S
C274 O267 1.247 . S
C274 O268 1.261 . S
C275 O270 1.259 . S
C275 O272 1.235 . S
O276 Co266 2.021 . S
O276 C273 1.238 . S
O277 Co271 2.052 . S
O277 C273 1.241 . S
O278 Co266 2.137 . S
O278 C269 1.247 . S
O279 Co266 2.244 . S
O279 C269 1.272 . S
O279 Co271 2.135 . S
Co280 O281 2.216 . S
Co280 O282 2.091 . S
Co280 O284 2.004 . S
Co280 O290 2.021 . S
Co280 O292 2.137 . S
Co280 O293 2.244 . S
O281 Co280 2.216 . S
O281 C288 1.247 . S
O282 Co280 2.091 . S
O282 C288 1.261 . S
C283 O292 1.247 . S
C283 O293 1.272 . S
O284 Co280 2.004 . S
O284 C289 1.259 . S
Co285 O286 2.061 . S
Co285 O291 2.052 . S
Co285 O293 2.135 . S
O286 Co285 2.061 . S
O286 C289 1.235 . S
C287 O290 1.238 . S
C287 O291 1.241 . S
C288 O281 1.247 . S
C288 O282 1.261 . S
C289 O284 1.259 . S
C289 O286 1.235 . S
O290 Co280 2.021 . S
O290 C287 1.238 . S
O291 Co285 2.052 . S
O291 C287 1.241 . S
O292 Co280 2.137 . S
O292 C283 1.247 . S
O293 Co280 2.244 . S
O293 C283 1.272 . S
O293 Co285 2.135 . S
Co294 O295 2.216 . S
Co294 O296 2.091 . S
Co294 O298 2.004 . S
Co294 O304 2.021 . S
Co294 O306 2.137 . S
Co294 O307 2.244 . S
O295 Co294 2.216 . S
O295 C302 1.247 . S
O296 Co294 2.091 . S
O296 C302 1.261 . S
C297 O306 1.247 . S
C297 O307 1.272 . S
O298 Co294 2.004 . S
O298 C303 1.259 . S
Co299 O300 2.061 . S
Co299 O305 2.052 . S
Co299 O307 2.135 . S
O300 Co299 2.061 . S
O300 C303 1.235 . S
C301 O304 1.238 . S
C301 O305 1.241 . S
C302 O295 1.247 . S
C302 O296 1.261 . S
C303 O298 1.259 . S
C303 O300 1.235 . S
O304 Co294 2.021 . S
O304 C301 1.238 . S
O305 Co299 2.052 . S
O305 C301 1.241 . S
O306 Co294 2.137 . S
O306 C297 1.247 . S
O307 Co294 2.244 . S
O307 C297 1.272 . S
O307 Co299 2.135 . S
Co308 O309 2.216 . S
Co308 O310 2.091 . S
Co308 O312 2.004 . S
Co308 O318 2.021 . S
Co308 O320 2.137 . S
Co308 O321 2.244 . S
O309 Co308 2.216 . S
O309 C316 1.247 . S
O310 Co308 2.091 . S
O310 C316 1.261 . S
C311 O320 1.247 . S
C311 O321 1.272 . S
O312 Co308 2.004 . S
O312 C317 1.259 . S
Co313 O314 2.061 . S
Co313 O319 2.052 . S
Co313 O321 2.135 . S
O314 Co313 2.061 . S
O314 C317 1.235 . S
C315 O318 1.238 . S
C315 O319 1.241 . S
C316 O309 1.247 . S
C316 O310 1.261 . S
C317 O312 1.259 . S
C317 O314 1.235 . S
O318 Co308 2.021 . S
O318 C315 1.238 . S
O319 Co313 2.052 . S
O319 C315 1.241 . S
O320 Co308 2.137 . S
O320 C311 1.247 . S
O321 Co308 2.244 . S
O321 C311 1.272 . S
O321 Co313 2.135 . S
Co322 O323 2.216 . S
Co322 O324 2.091 . S
Co322 O326 2.004 . S
Co322 O332 2.021 . S
Co322 O334 2.137 . S
Co322 O335 2.244 . S
O323 Co322 2.216 . S
O323 C330 1.247 . S
O324 Co322 2.091 . S
O324 C330 1.261 . S
C325 O334 1.247 . S
C325 O335 1.272 . S
O326 Co322 2.004 . S
O326 C331 1.259 . S
Co327 O328 2.061 . S
Co327 O333 2.052 . S
Co327 O335 2.135 . S
O328 Co327 2.061 . S
O328 C331 1.235 . S
C329 O332 1.238 . S
C329 O333 1.241 . S
C330 O323 1.247 . S
C330 O324 1.261 . S
C331 O326 1.259 . S
C331 O328 1.235 . S
O332 Co322 2.021 . S
O332 C329 1.238 . S
O333 Co327 2.052 . S
O333 C329 1.241 . S
O334 Co322 2.137 . S
O334 C325 1.247 . S
O335 Co322 2.244 . S
O335 C325 1.272 . S
O335 Co327 2.135 . S
Co336 O337 2.216 . S
Co336 O338 2.091 . S
Co336 O340 2.004 . S
Co336 O346 2.021 . S
Co336 O348 2.137 . S
Co336 O349 2.244 . S
O337 Co336 2.216 . S
O337 C344 1.247 . S
O338 Co336 2.091 . S
O338 C344 1.261 . S
C339 O348 1.247 . S
C339 O349 1.272 . S
O340 Co336 2.004 . S
O340 C345 1.259 . S
Co341 O342 2.061 . S
Co341 O347 2.052 . S
Co341 O349 2.135 . S
O342 Co341 2.061 . S
O342 C345 1.235 . S
C343 O346 1.238 . S
C343 O347 1.241 . S
C344 O337 1.247 . S
C344 O338 1.261 . S
C345 O340 1.259 . S
C345 O342 1.235 . S
O346 Co336 2.021 . S
O346 C343 1.238 . S
O347 Co341 2.052 . S
O347 C343 1.241 . S
O348 Co336 2.137 . S
O348 C339 1.247 . S
O349 Co336 2.244 . S
O349 C339 1.272 . S
O349 Co341 2.135 . S
Co350 O351 2.216 . S
Co350 O352 2.091 . S
Co350 O354 2.004 . S
Co350 O360 2.021 . S
Co350 O362 2.137 . S
Co350 O363 2.244 . S
O351 Co350 2.216 . S
O351 C358 1.247 . S
O352 Co350 2.091 . S
O352 C358 1.261 . S
C353 O362 1.247 . S
C353 O363 1.272 . S
O354 Co350 2.004 . S
O354 C359 1.259 . S
Co355 O356 2.061 . S
Co355 O361 2.052 . S
Co355 O363 2.135 . S
O356 Co355 2.061 . S
O356 C359 1.235 . S
C357 O360 1.238 . S
C357 O361 1.241 . S
C358 O351 1.247 . S
C358 O352 1.261 . S
C359 O354 1.259 . S
C359 O356 1.235 . S
O360 Co350 2.021 . S
O360 C357 1.238 . S
O361 Co355 2.052 . S
O361 C357 1.241 . S
O362 Co350 2.137 . S
O362 C353 1.247 . S
O363 Co350 2.244 . S
O363 C353 1.272 . S
O363 Co355 2.135 . S
Co364 O365 2.216 . S
Co364 O366 2.091 . S
Co364 O368 2.004 . S
Co364 O374 2.021 . S
Co364 O376 2.137 . S
Co364 O377 2.244 . S
O365 Co364 2.216 . S
O365 C372 1.247 . S
O366 Co364 2.091 . S
O366 C372 1.261 . S
C367 O376 1.247 . S
C367 O377 1.272 . S
O368 Co364 2.004 . S
O368 C373 1.259 . S
Co369 O370 2.061 . S
Co369 O375 2.052 . S
Co369 O377 2.135 . S
O370 Co369 2.061 . S
O370 C373 1.235 . S
C371 O374 1.238 . S
C371 O375 1.241 . S
C372 O365 1.247 . S
C372 O366 1.261 . S
C373 O368 1.259 . S
C373 O370 1.235 . S
O374 Co364 2.021 . S
O374 C371 1.238 . S
O375 Co369 2.052 . S
O375 C371 1.241 . S
O376 Co364 2.137 . S
O376 C367 1.247 . S
O377 Co364 2.244 . S
O377 C367 1.272 . S
O377 Co369 2.135 . S
Co378 O379 2.216 . S
Co378 O380 2.091 . S
Co378 O382 2.004 . S
Co378 O388 2.021 . S
Co378 O390 2.137 . S
Co378 O391 2.244 . S
O379 Co378 2.216 . S
O379 C386 1.247 . S
O380 Co378 2.091 . S
O380 C386 1.261 . S
C381 O390 1.247 . S
C381 O391 1.272 . S
O382 Co378 2.004 . S
O382 C387 1.259 . S
Co383 O384 2.061 . S
Co383 O389 2.052 . S
Co383 O391 2.135 . S
O384 Co383 2.061 . S
O384 C387 1.235 . S
C385 O388 1.238 . S
C385 O389 1.241 . S
C386 O379 1.247 . S
C386 O380 1.261 . S
C387 O382 1.259 . S
C387 O384 1.235 . S
O388 Co378 2.021 . S
O388 C385 1.238 . S
O389 Co383 2.052 . S
O389 C385 1.241 . S
O390 Co378 2.137 . S
O390 C381 1.247 . S
O391 Co378 2.244 . S
O391 C381 1.272 . S
O391 Co383 2.135 . S
Co392 O393 2.216 . S
Co392 O394 2.091 . S
Co392 O396 2.004 . S
Co392 O402 2.021 . S
Co392 O404 2.137 . S
Co392 O405 2.244 . S
O393 Co392 2.216 . S
O393 C400 1.247 . S
O394 Co392 2.091 . S
O394 C400 1.261 . S
C395 O404 1.247 . S
C395 O405 1.272 . S
O396 Co392 2.004 . S
O396 C401 1.259 . S
Co397 O398 2.061 . S
Co397 O403 2.052 . S
Co397 O405 2.135 . S
O398 Co397 2.061 . S
O398 C401 1.235 . S
C399 O402 1.238 . S
C399 O403 1.241 . S
C400 O393 1.247 . S
C400 O394 1.261 . S
C401 O396 1.259 . S
C401 O398 1.235 . S
O402 Co392 2.021 . S
O402 C399 1.238 . S
O403 Co397 2.052 . S
O403 C399 1.241 . S
O404 Co392 2.137 . S
O404 C395 1.247 . S
O405 Co392 2.244 . S
O405 C395 1.272 . S
O405 Co397 2.135 . S
Co406 O407 2.216 . S
Co406 O408 2.091 . S
Co406 O410 2.004 . S
Co406 O416 2.021 . S
Co406 O418 2.137 . S
Co406 O419 2.244 . S
O407 Co406 2.216 . S
O407 C414 1.247 . S
O408 Co406 2.091 . S
O408 C414 1.261 . S
C409 O418 1.247 . S
C409 O419 1.272 . S
O410 Co406 2.004 . S
O410 C415 1.259 . S
Co411 O412 2.061 . S
Co411 O417 2.052 . S
Co411 O419 2.135 . S
O412 Co411 2.061 . S
O412 C415 1.235 . S
C413 O416 1.238 . S
C413 O417 1.241 . S
C414 O407 1.247 . S
C414 O408 1.261 . S
C415 O410 1.259 . S
C415 O412 1.235 . S
O416 Co406 2.021 . S
O416 C413 1.238 . S
O417 Co411 2.052 . S
O417 C413 1.241 . S
O418 Co406 2.137 . S
O418 C409 1.247 . S
O419 Co406 2.244 . S
O419 C409 1.272 . S
O419 Co411 2.135 . S
Co420 O421 2.216 . S
Co420 O422 2.091 . S
Co420 O424 2.004 . S
Co420 O430 2.021 . S
Co420 O432 2.137 . S
Co420 O433 2.244 . S
O421 Co420 2.216 . S
O421 C428 1.247 . S
O422 Co420 2.091 . S
O422 C428 1.261 . S
C423 O432 1.247 . S
C423 O433 1.272 . S
O424 Co420 2.004 . S
O424 C429 1.259 . S
Co425 O426 2.061 . S
Co425 O431 2.052 . S
Co425 O433 2.135 . S
O426 Co425 2.061 . S
O426 C429 1.235 . S
C427 O430 1.238 . S
C427 O431 1.241 . S
C428 O421 1.247 . S
C428 O422 1.261 . S
C429 O424 1.259 . S
C429 O426 1.235 . S
O430 Co420 2.021 . S
O430 C427 1.238 . S
O431 Co425 2.052 . S
O431 C427 1.241 . S
O432 Co420 2.137 . S
O432 C423 1.247 . S
O433 Co420 2.244 . S
O433 C423 1.272 . S
O433 Co425 2.135 . S
Co434 O435 2.216 . S
Co434 O436 2.091 . S
Co434 O438 2.004 . S
Co434 O444 2.021 . S
Co434 O446 2.137 . S
Co434 O447 2.244 . S
O435 Co434 2.216 . S
O435 C442 1.247 . S
O436 Co434 2.091 . S
O436 C442 1.261 . S
C437 O446 1.247 . S
C437 O447 1.272 . S
O438 Co434 2.004 . S
O438 C443 1.259 . S
Co439 O440 2.061 . S
Co439 O445 2.052 . S
Co439 O447 2.135 . S
O440 Co439 2.061 . S
O440 C443 1.235 . S
C441 O444 1.238 . S
C441 O445 1.241 . S
C442 O435 1.247 . S
C442 O436 1.261 . S
C443 O438 1.259 . S
C443 O440 1.235 . S
O444 Co434 2.021 . S
O444 C441 1.238 . S
O445 Co439 2.052 . S
O445 C441 1.241 . S
O446 Co434 2.137 . S
O446 C437 1.247 . S
O447 Co434 2.244 . S
O447 C437 1.272 . S
O447 Co439 2.135 . S
H448 C456 0.929 . S
H449 C458 0.930 . S
H450 C460 0.930 . S
H451 C463 0.929 . S
H452 C466 0.930 . S
H453 C468 0.960 . S
H454 C468 0.960 . S
H455 C468 0.960 . S
C456 H448 0.929 . S
C456 C457 1.377 . S
C456 C458 1.384 . S
C457 C456 1.377 . S
C457 C463 1.390 . S
C458 H449 0.930 . S
C458 C456 1.384 . S
C458 C459 1.372 . S
C459 C458 1.372 . S
C459 C460 1.400 . S
C459 C464 1.490 . S
C460 H450 0.930 . S
C460 C459 1.400 . S
C460 C463 1.386 . S
H461 C477 0.930 . S
H462 C478 0.931 . S
C463 H451 0.929 . S
C463 C457 1.390 . S
C463 C460 1.386 . S
C464 C459 1.490 . S
C464 C466 1.395 . S
C464 C467 1.403 . S
H465 C471 0.930 . S
C466 H452 0.930 . S
C466 C464 1.395 . S
C466 C469 1.403 . S
C467 C464 1.403 . S
C467 C468 1.524 . S
C467 C471 1.400 . S
C468 H453 0.960 . S
C468 H454 0.960 . S
C468 H455 0.960 . S
C468 C467 1.524 . S
C469 C466 1.403 . S
C469 C470 1.392 . S
C469 C473 1.495 . S
C470 C469 1.392 . S
C470 C471 1.385 . S
C470 C472 1.478 . S
C471 H465 0.930 . S
C471 C467 1.400 . S
C471 C470 1.385 . S
C472 C470 1.478 . S
C472 C474 1.381 . S
C472 C478 1.383 . S
C473 C469 1.495 . S
C473 H479 0.959 . S
C473 H480 0.961 . S
C473 H481 0.960 . S
C474 C472 1.381 . S
C474 C475 1.394 . S
C474 H482 0.930 . S
C475 C474 1.394 . S
C475 C476 1.383 . S
C475 H483 0.929 . S
C476 C475 1.383 . S
C476 C477 1.377 . S
C477 H461 0.930 . S
C477 C476 1.377 . S
C477 C478 1.379 . S
C478 H462 0.931 . S
C478 C472 1.383 . S
C478 C477 1.379 . S
H479 C473 0.959 . S
H480 C473 0.961 . S
H481 C473 0.960 . S
H482 C474 0.930 . S
H483 C475 0.929 . S
H484 C492 0.929 . S
H485 C494 0.930 . S
H486 C496 0.930 . S
H487 C499 0.929 . S
H488 C502 0.930 . S
H489 C504 0.960 . S
H490 C504 0.960 . S
H491 C504 0.960 . S
C492 H484 0.929 . S
C492 C493 1.377 . S
C492 C494 1.384 . S
C493 C492 1.377 . S
C493 C499 1.390 . S
C494 H485 0.930 . S
C494 C492 1.384 . S
C494 C495 1.372 . S
C495 C494 1.372 . S
C495 C496 1.400 . S
C495 C500 1.490 . S
C496 H486 0.930 . S
C496 C495 1.400 . S
C496 C499 1.386 . S
H497 C513 0.930 . S
H498 C514 0.931 . S
C499 H487 0.929 . S
C499 C493 1.390 . S
C499 C496 1.386 . S
C500 C495 1.490 . S
C500 C502 1.395 . S
C500 C503 1.403 . S
H501 C507 0.930 . S
C502 H488 0.930 . S
C502 C500 1.395 . S
C502 C505 1.403 . S
C503 C500 1.403 . S
C503 C504 1.524 . S
C503 C507 1.400 . S
C504 H489 0.960 . S
C504 H490 0.960 . S
C504 H491 0.960 . S
C504 C503 1.524 . S
C505 C502 1.403 . S
C505 C506 1.392 . S
C505 C509 1.495 . S
C506 C505 1.392 . S
C506 C507 1.385 . S
C506 C508 1.478 . S
C507 H501 0.930 . S
C507 C503 1.400 . S
C507 C506 1.385 . S
C508 C506 1.478 . S
C508 C510 1.381 . S
C508 C514 1.383 . S
C509 C505 1.495 . S
C509 H515 0.959 . S
C509 H516 0.961 . S
C509 H517 0.960 . S
C510 C508 1.381 . S
C510 C511 1.394 . S
C510 H518 0.930 . S
C511 C510 1.394 . S
C511 C512 1.383 . S
C511 H519 0.929 . S
C512 C511 1.383 . S
C512 C513 1.377 . S
C513 H497 0.930 . S
C513 C512 1.377 . S
C513 C514 1.379 . S
C514 H498 0.931 . S
C514 C508 1.383 . S
C514 C513 1.379 . S
H515 C509 0.959 . S
H516 C509 0.961 . S
H517 C509 0.960 . S
H518 C510 0.930 . S
H519 C511 0.929 . S
H520 C528 0.929 . S
H521 C530 0.930 . S
H522 C532 0.930 . S
H523 C535 0.929 . S
H524 C538 0.930 . S
H525 C540 0.960 . S
H526 C540 0.960 . S
H527 C540 0.960 . S
C528 H520 0.929 . S
C528 C529 1.377 . S
C528 C530 1.384 . S
C529 C528 1.377 . S
C529 C535 1.390 . S
C530 H521 0.930 . S
C530 C528 1.384 . S
C530 C531 1.372 . S
C531 C530 1.372 . S
C531 C532 1.400 . S
C531 C536 1.490 . S
C532 H522 0.930 . S
C532 C531 1.400 . S
C532 C535 1.386 . S
H533 C549 0.930 . S
H534 C550 0.931 . S
C535 H523 0.929 . S
C535 C529 1.390 . S
C535 C532 1.386 . S
C536 C531 1.490 . S
C536 C538 1.395 . S
C536 C539 1.403 . S
H537 C543 0.930 . S
C538 H524 0.930 . S
C538 C536 1.395 . S
C538 C541 1.403 . S
C539 C536 1.403 . S
C539 C540 1.524 . S
C539 C543 1.400 . S
C540 H525 0.960 . S
C540 H526 0.960 . S
C540 H527 0.960 . S
C540 C539 1.524 . S
C541 C538 1.403 . S
C541 C542 1.392 . S
C541 C545 1.495 . S
C542 C541 1.392 . S
C542 C543 1.385 . S
C542 C544 1.478 . S
C543 H537 0.930 . S
C543 C539 1.400 . S
C543 C542 1.385 . S
C544 C542 1.478 . S
C544 C546 1.381 . S
C544 C550 1.383 . S
C545 C541 1.495 . S
C545 H551 0.959 . S
C545 H552 0.961 . S
C545 H553 0.960 . S
C546 C544 1.381 . S
C546 C547 1.394 . S
C546 H554 0.930 . S
C547 C546 1.394 . S
C547 C548 1.383 . S
C547 H555 0.929 . S
C548 C547 1.383 . S
C548 C549 1.377 . S
C549 H533 0.930 . S
C549 C548 1.377 . S
C549 C550 1.379 . S
C550 H534 0.931 . S
C550 C544 1.383 . S
C550 C549 1.379 . S
H551 C545 0.959 . S
H552 C545 0.961 . S
H553 C545 0.960 . S
H554 C546 0.930 . S
H555 C547 0.929 . S
H556 C564 0.929 . S
H557 C566 0.930 . S
H558 C568 0.930 . S
H559 C571 0.929 . S
H560 C574 0.930 . S
H561 C576 0.960 . S
H562 C576 0.960 . S
H563 C576 0.960 . S
C564 H556 0.929 . S
C564 C565 1.377 . S
C564 C566 1.384 . S
C565 C564 1.377 . S
C565 C571 1.390 . S
C566 H557 0.930 . S
C566 C564 1.384 . S
C566 C567 1.372 . S
C567 C566 1.372 . S
C567 C568 1.400 . S
C567 C572 1.490 . S
C568 H558 0.930 . S
C568 C567 1.400 . S
C568 C571 1.386 . S
H569 C585 0.930 . S
H570 C586 0.931 . S
C571 H559 0.929 . S
C571 C565 1.390 . S
C571 C568 1.386 . S
C572 C567 1.490 . S
C572 C574 1.395 . S
C572 C575 1.403 . S
H573 C579 0.930 . S
C574 H560 0.930 . S
C574 C572 1.395 . S
C574 C577 1.403 . S
C575 C572 1.403 . S
C575 C576 1.524 . S
C575 C579 1.400 . S
C576 H561 0.960 . S
C576 H562 0.960 . S
C576 H563 0.960 . S
C576 C575 1.524 . S
C577 C574 1.403 . S
C577 C578 1.392 . S
C577 C581 1.495 . S
C578 C577 1.392 . S
C578 C579 1.385 . S
C578 C580 1.478 . S
C579 H573 0.930 . S
C579 C575 1.400 . S
C579 C578 1.385 . S
C580 C578 1.478 . S
C580 C582 1.381 . S
C580 C586 1.383 . S
C581 C577 1.495 . S
C581 H587 0.959 . S
C581 H588 0.961 . S
C581 H589 0.960 . S
C582 C580 1.381 . S
C582 C583 1.394 . S
C582 H590 0.930 . S
C583 C582 1.394 . S
C583 C584 1.383 . S
C583 H591 0.929 . S
C584 C583 1.383 . S
C584 C585 1.377 . S
C585 H569 0.930 . S
C585 C584 1.377 . S
C585 C586 1.379 . S
C586 H570 0.931 . S
C586 C580 1.383 . S
C586 C585 1.379 . S
H587 C581 0.959 . S
H588 C581 0.961 . S
H589 C581 0.960 . S
H590 C582 0.930 . S
H591 C583 0.929 . S
H592 C600 0.929 . S
H593 C602 0.930 . S
H594 C604 0.930 . S
H595 C607 0.929 . S
H596 C610 0.930 . S
H597 C612 0.960 . S
H598 C612 0.960 . S
H599 C612 0.960 . S
C600 H592 0.929 . S
C600 C601 1.377 . S
C600 C602 1.384 . S
C601 C600 1.377 . S
C601 C607 1.390 . S
C602 H593 0.930 . S
C602 C600 1.384 . S
C602 C603 1.372 . S
C603 C602 1.372 . S
C603 C604 1.400 . S
C603 C608 1.490 . S
C604 H594 0.930 . S
C604 C603 1.400 . S
C604 C607 1.386 . S
H605 C621 0.930 . S
H606 C622 0.931 . S
C607 H595 0.929 . S
C607 C601 1.390 . S
C607 C604 1.386 . S
C608 C603 1.490 . S
C608 C610 1.395 . S
C608 C611 1.403 . S
H609 C615 0.930 . S
C610 H596 0.930 . S
C610 C608 1.395 . S
C610 C613 1.403 . S
C611 C608 1.403 . S
C611 C612 1.524 . S
C611 C615 1.400 . S
C612 H597 0.960 . S
C612 H598 0.960 . S
C612 H599 0.960 . S
C612 C611 1.524 . S
C613 C610 1.403 . S
C613 C614 1.392 . S
C613 C617 1.495 . S
C614 C613 1.392 . S
C614 C615 1.385 . S
C614 C616 1.478 . S
C615 H609 0.930 . S
C615 C611 1.400 . S
C615 C614 1.385 . S
C616 C614 1.478 . S
C616 C618 1.381 . S
C616 C622 1.383 . S
C617 C613 1.495 . S
C617 H623 0.959 . S
C617 H624 0.961 . S
C617 H625 0.960 . S
C618 C616 1.381 . S
C618 C619 1.394 . S
C618 H626 0.930 . S
C619 C618 1.394 . S
C619 C620 1.383 . S
C619 H627 0.929 . S
C620 C619 1.383 . S
C620 C621 1.377 . S
C621 H605 0.930 . S
C621 C620 1.377 . S
C621 C622 1.379 . S
C622 H606 0.931 . S
C622 C616 1.383 . S
C622 C621 1.379 . S
H623 C617 0.959 . S
H624 C617 0.961 . S
H625 C617 0.960 . S
H626 C618 0.930 . S
H627 C619 0.929 . S
H628 C636 0.929 . S
H629 C638 0.930 . S
H630 C640 0.930 . S
H631 C643 0.929 . S
H632 C646 0.930 . S
H633 C648 0.960 . S
H634 C648 0.960 . S
H635 C648 0.960 . S
C636 H628 0.929 . S
C636 C637 1.377 . S
C636 C638 1.384 . S
C637 C636 1.377 . S
C637 C643 1.390 . S
C638 H629 0.930 . S
C638 C636 1.384 . S
C638 C639 1.372 . S
C639 C638 1.372 . S
C639 C640 1.400 . S
C639 C644 1.490 . S
C640 H630 0.930 . S
C640 C639 1.400 . S
C640 C643 1.386 . S
H641 C657 0.930 . S
H642 C658 0.931 . S
C643 H631 0.929 . S
C643 C637 1.390 . S
C643 C640 1.386 . S
C644 C639 1.490 . S
C644 C646 1.395 . S
C644 C647 1.403 . S
H645 C651 0.930 . S
C646 H632 0.930 . S
C646 C644 1.395 . S
C646 C649 1.403 . S
C647 C644 1.403 . S
C647 C648 1.524 . S
C647 C651 1.400 . S
C648 H633 0.960 . S
C648 H634 0.960 . S
C648 H635 0.960 . S
C648 C647 1.524 . S
C649 C646 1.403 . S
C649 C650 1.392 . S
C649 C653 1.495 . S
C650 C649 1.392 . S
C650 C651 1.385 . S
C650 C652 1.478 . S
C651 H645 0.930 . S
C651 C647 1.400 . S
C651 C650 1.385 . S
C652 C650 1.478 . S
C652 C654 1.381 . S
C652 C658 1.383 . S
C653 C649 1.495 . S
C653 H659 0.959 . S
C653 H660 0.961 . S
C653 H661 0.960 . S
C654 C652 1.381 . S
C654 C655 1.394 . S
C654 H662 0.930 . S
C655 C654 1.394 . S
C655 C656 1.383 . S
C655 H663 0.929 . S
C656 C655 1.383 . S
C656 C657 1.377 . S
C657 H641 0.930 . S
C657 C656 1.377 . S
C657 C658 1.379 . S
C658 H642 0.931 . S
C658 C652 1.383 . S
C658 C657 1.379 . S
H659 C653 0.959 . S
H660 C653 0.961 . S
H661 C653 0.960 . S
H662 C654 0.930 . S
H663 C655 0.929 . S
H664 C672 0.929 . S
H665 C674 0.930 . S
H666 C676 0.930 . S
H667 C679 0.929 . S
H668 C682 0.930 . S
H669 C684 0.960 . S
H670 C684 0.960 . S
H671 C684 0.960 . S
C672 H664 0.929 . S
C672 C673 1.377 . S
C672 C674 1.384 . S
C673 C672 1.377 . S
C673 C679 1.390 . S
C674 H665 0.930 . S
C674 C672 1.384 . S
C674 C675 1.372 . S
C675 C674 1.372 . S
C675 C676 1.400 . S
C675 C680 1.490 . S
C676 H666 0.930 . S
C676 C675 1.400 . S
C676 C679 1.386 . S
H677 C693 0.930 . S
H678 C694 0.931 . S
C679 H667 0.929 . S
C679 C673 1.390 . S
C679 C676 1.386 . S
C680 C675 1.490 . S
C680 C682 1.395 . S
C680 C683 1.403 . S
H681 C687 0.930 . S
C682 H668 0.930 . S
C682 C680 1.395 . S
C682 C685 1.403 . S
C683 C680 1.403 . S
C683 C684 1.524 . S
C683 C687 1.400 . S
C684 H669 0.960 . S
C684 H670 0.960 . S
C684 H671 0.960 . S
C684 C683 1.524 . S
C685 C682 1.403 . S
C685 C686 1.392 . S
C685 C689 1.495 . S
C686 C685 1.392 . S
C686 C687 1.385 . S
C686 C688 1.478 . S
C687 H681 0.930 . S
C687 C683 1.400 . S
C687 C686 1.385 . S
C688 C686 1.478 . S
C688 C690 1.381 . S
C688 C694 1.383 . S
C689 C685 1.495 . S
C689 H695 0.959 . S
C689 H696 0.961 . S
C689 H697 0.960 . S
C690 C688 1.381 . S
C690 C691 1.394 . S
C690 H698 0.930 . S
C691 C690 1.394 . S
C691 C692 1.383 . S
C691 H699 0.929 . S
C692 C691 1.383 . S
C692 C693 1.377 . S
C693 H677 0.930 . S
C693 C692 1.377 . S
C693 C694 1.379 . S
C694 H678 0.931 . S
C694 C688 1.383 . S
C694 C693 1.379 . S
H695 C689 0.959 . S
H696 C689 0.961 . S
H697 C689 0.960 . S
H698 C690 0.930 . S
H699 C691 0.929 . S
H700 C708 0.929 . S
H701 C710 0.930 . S
H702 C712 0.930 . S
H703 C715 0.929 . S
H704 C718 0.930 . S
H705 C720 0.960 . S
H706 C720 0.960 . S
H707 C720 0.960 . S
C708 H700 0.929 . S
C708 C709 1.377 . S
C708 C710 1.384 . S
C709 C708 1.377 . S
C709 C715 1.390 . S
C710 H701 0.930 . S
C710 C708 1.384 . S
C710 C711 1.372 . S
C711 C710 1.372 . S
C711 C712 1.400 . S
C711 C716 1.490 . S
C712 H702 0.930 . S
C712 C711 1.400 . S
C712 C715 1.386 . S
H713 C729 0.930 . S
H714 C730 0.931 . S
C715 H703 0.929 . S
C715 C709 1.390 . S
C715 C712 1.386 . S
C716 C711 1.490 . S
C716 C718 1.395 . S
C716 C719 1.403 . S
H717 C723 0.930 . S
C718 H704 0.930 . S
C718 C716 1.395 . S
C718 C721 1.403 . S
C719 C716 1.403 . S
C719 C720 1.524 . S
C719 C723 1.400 . S
C720 H705 0.960 . S
C720 H706 0.960 . S
C720 H707 0.960 . S
C720 C719 1.524 . S
C721 C718 1.403 . S
C721 C722 1.392 . S
C721 C725 1.495 . S
C722 C721 1.392 . S
C722 C723 1.385 . S
C722 C724 1.478 . S
C723 H717 0.930 . S
C723 C719 1.400 . S
C723 C722 1.385 . S
C724 C722 1.478 . S
C724 C726 1.381 . S
C724 C730 1.383 . S
C725 C721 1.495 . S
C725 H731 0.959 . S
C725 H732 0.961 . S
C725 H733 0.960 . S
C726 C724 1.381 . S
C726 C727 1.394 . S
C726 H734 0.930 . S
C727 C726 1.394 . S
C727 C728 1.383 . S
C727 H735 0.929 . S
C728 C727 1.383 . S
C728 C729 1.377 . S
C729 H713 0.930 . S
C729 C728 1.377 . S
C729 C730 1.379 . S
C730 H714 0.931 . S
C730 C724 1.383 . S
C730 C729 1.379 . S
H731 C725 0.959 . S
H732 C725 0.961 . S
H733 C725 0.960 . S
H734 C726 0.930 . S
H735 C727 0.929 . S
H736 C744 0.929 . S
H737 C746 0.930 . S
H738 C748 0.930 . S
H739 C751 0.929 . S
H740 C754 0.930 . S
H741 C756 0.960 . S
H742 C756 0.960 . S
H743 C756 0.960 . S
C744 H736 0.929 . S
C744 C745 1.377 . S
C744 C746 1.384 . S
C745 C744 1.377 . S
C745 C751 1.390 . S
C746 H737 0.930 . S
C746 C744 1.384 . S
C746 C747 1.372 . S
C747 C746 1.372 . S
C747 C748 1.400 . S
C747 C752 1.490 . S
C748 H738 0.930 . S
C748 C747 1.400 . S
C748 C751 1.386 . S
H749 C765 0.930 . S
H750 C766 0.931 . S
C751 H739 0.929 . S
C751 C745 1.390 . S
C751 C748 1.386 . S
C752 C747 1.490 . S
C752 C754 1.395 . S
C752 C755 1.403 . S
H753 C759 0.930 . S
C754 H740 0.930 . S
C754 C752 1.395 . S
C754 C757 1.403 . S
C755 C752 1.403 . S
C755 C756 1.524 . S
C755 C759 1.400 . S
C756 H741 0.960 . S
C756 H742 0.960 . S
C756 H743 0.960 . S
C756 C755 1.524 . S
C757 C754 1.403 . S
C757 C758 1.392 . S
C757 C761 1.495 . S
C758 C757 1.392 . S
C758 C759 1.385 . S
C758 C760 1.478 . S
C759 H753 0.930 . S
C759 C755 1.400 . S
C759 C758 1.385 . S
C760 C758 1.478 . S
C760 C762 1.381 . S
C760 C766 1.383 . S
C761 C757 1.495 . S
C761 H767 0.959 . S
C761 H768 0.961 . S
C761 H769 0.960 . S
C762 C760 1.381 . S
C762 C763 1.394 . S
C762 H770 0.930 . S
C763 C762 1.394 . S
C763 C764 1.383 . S
C763 H771 0.929 . S
C764 C763 1.383 . S
C764 C765 1.377 . S
C765 H749 0.930 . S
C765 C764 1.377 . S
C765 C766 1.379 . S
C766 H750 0.931 . S
C766 C760 1.383 . S
C766 C765 1.379 . S
H767 C761 0.959 . S
H768 C761 0.961 . S
H769 C761 0.960 . S
H770 C762 0.930 . S
H771 C763 0.929 . S
H772 C780 0.929 . S
H773 C782 0.930 . S
H774 C784 0.930 . S
H775 C787 0.929 . S
H776 C790 0.930 . S
H777 C792 0.960 . S
H778 C792 0.960 . S
H779 C792 0.960 . S
C780 H772 0.929 . S
C780 C781 1.377 . S
C780 C782 1.384 . S
C781 C780 1.377 . S
C781 C787 1.390 . S
C782 H773 0.930 . S
C782 C780 1.384 . S
C782 C783 1.372 . S
C783 C782 1.372 . S
C783 C784 1.400 . S
C783 C788 1.490 . S
C784 H774 0.930 . S
C784 C783 1.400 . S
C784 C787 1.386 . S
H785 C801 0.930 . S
H786 C802 0.931 . S
C787 H775 0.929 . S
C787 C781 1.390 . S
C787 C784 1.386 . S
C788 C783 1.490 . S
C788 C790 1.395 . S
C788 C791 1.403 . S
H789 C795 0.930 . S
C790 H776 0.930 . S
C790 C788 1.395 . S
C790 C793 1.403 . S
C791 C788 1.403 . S
C791 C792 1.524 . S
C791 C795 1.400 . S
C792 H777 0.960 . S
C792 H778 0.960 . S
C792 H779 0.960 . S
C792 C791 1.524 . S
C793 C790 1.403 . S
C793 C794 1.392 . S
C793 C797 1.495 . S
C794 C793 1.392 . S
C794 C795 1.385 . S
C794 C796 1.478 . S
C795 H789 0.930 . S
C795 C791 1.400 . S
C795 C794 1.385 . S
C796 C794 1.478 . S
C796 C798 1.381 . S
C796 C802 1.383 . S
C797 C793 1.495 . S
C797 H803 0.959 . S
C797 H804 0.961 . S
C797 H805 0.960 . S
C798 C796 1.381 . S
C798 C799 1.394 . S
C798 H806 0.930 . S
C799 C798 1.394 . S
C799 C800 1.383 . S
C799 H807 0.929 . S
C800 C799 1.383 . S
C800 C801 1.377 . S
C801 H785 0.930 . S
C801 C800 1.377 . S
C801 C802 1.379 . S
C802 H786 0.931 . S
C802 C796 1.383 . S
C802 C801 1.379 . S
H803 C797 0.959 . S
H804 C797 0.961 . S
H805 C797 0.960 . S
H806 C798 0.930 . S
H807 C799 0.929 . S
H808 C816 0.929 . S
H809 C818 0.930 . S
H810 C820 0.930 . S
H811 C823 0.929 . S
H812 C826 0.930 . S
H813 C828 0.960 . S
H814 C828 0.960 . S
H815 C828 0.960 . S
C816 H808 0.929 . S
C816 C817 1.377 . S
C816 C818 1.384 . S
C817 C816 1.377 . S
C817 C823 1.390 . S
C818 H809 0.930 . S
C818 C816 1.384 . S
C818 C819 1.372 . S
C819 C818 1.372 . S
C819 C820 1.400 . S
C819 C824 1.490 . S
C820 H810 0.930 . S
C820 C819 1.400 . S
C820 C823 1.386 . S
H821 C837 0.930 . S
H822 C838 0.931 . S
C823 H811 0.929 . S
C823 C817 1.390 . S
C823 C820 1.386 . S
C824 C819 1.490 . S
C824 C826 1.395 . S
C824 C827 1.403 . S
H825 C831 0.930 . S
C826 H812 0.930 . S
C826 C824 1.395 . S
C826 C829 1.403 . S
C827 C824 1.403 . S
C827 C828 1.524 . S
C827 C831 1.400 . S
C828 H813 0.960 . S
C828 H814 0.960 . S
C828 H815 0.960 . S
C828 C827 1.524 . S
C829 C826 1.403 . S
C829 C830 1.392 . S
C829 C833 1.495 . S
C830 C829 1.392 . S
C830 C831 1.385 . S
C830 C832 1.478 . S
C831 H825 0.930 . S
C831 C827 1.400 . S
C831 C830 1.385 . S
C832 C830 1.478 . S
C832 C834 1.381 . S
C832 C838 1.383 . S
C833 C829 1.495 . S
C833 H839 0.959 . S
C833 H840 0.961 . S
C833 H841 0.960 . S
C834 C832 1.381 . S
C834 C835 1.394 . S
C834 H842 0.930 . S
C835 C834 1.394 . S
C835 C836 1.383 . S
C835 H843 0.929 . S
C836 C835 1.383 . S
C836 C837 1.377 . S
C837 H821 0.930 . S
C837 C836 1.377 . S
C837 C838 1.379 . S
C838 H822 0.931 . S
C838 C832 1.383 . S
C838 C837 1.379 . S
H839 C833 0.959 . S
H840 C833 0.961 . S
H841 C833 0.960 . S
H842 C834 0.930 . S
H843 C835 0.929 . S
H844 C852 0.929 . S
H845 C854 0.930 . S
H846 C856 0.930 . S
H847 C859 0.929 . S
H848 C862 0.930 . S
H849 C864 0.960 . S
H850 C864 0.960 . S
H851 C864 0.960 . S
C852 H844 0.929 . S
C852 C853 1.377 . S
C852 C854 1.384 . S
C853 C852 1.377 . S
C853 C859 1.390 . S
C854 H845 0.930 . S
C854 C852 1.384 . S
C854 C855 1.372 . S
C855 C854 1.372 . S
C855 C856 1.400 . S
C855 C860 1.490 . S
C856 H846 0.930 . S
C856 C855 1.400 . S
C856 C859 1.386 . S
H857 C873 0.930 . S
H858 C874 0.931 . S
C859 H847 0.929 . S
C859 C853 1.390 . S
C859 C856 1.386 . S
C860 C855 1.490 . S
C860 C862 1.395 . S
C860 C863 1.403 . S
H861 C867 0.930 . S
C862 H848 0.930 . S
C862 C860 1.395 . S
C862 C865 1.403 . S
C863 C860 1.403 . S
C863 C864 1.524 . S
C863 C867 1.400 . S
C864 H849 0.960 . S
C864 H850 0.960 . S
C864 H851 0.960 . S
C864 C863 1.524 . S
C865 C862 1.403 . S
C865 C866 1.392 . S
C865 C869 1.495 . S
C866 C865 1.392 . S
C866 C867 1.385 . S
C866 C868 1.478 . S
C867 H861 0.930 . S
C867 C863 1.400 . S
C867 C866 1.385 . S
C868 C866 1.478 . S
C868 C870 1.381 . S
C868 C874 1.383 . S
C869 C865 1.495 . S
C869 H875 0.959 . S
C869 H876 0.961 . S
C869 H877 0.960 . S
C870 C868 1.381 . S
C870 C871 1.394 . S
C870 H878 0.930 . S
C871 C870 1.394 . S
C871 C872 1.383 . S
C871 H879 0.929 . S
C872 C871 1.383 . S
C872 C873 1.377 . S
C873 H857 0.930 . S
C873 C872 1.377 . S
C873 C874 1.379 . S
C874 H858 0.931 . S
C874 C868 1.383 . S
C874 C873 1.379 . S
H875 C869 0.959 . S
H876 C869 0.961 . S
H877 C869 0.960 . S
H878 C870 0.930 . S
H879 C871 0.929 . S
H880 C888 0.929 . S
H881 C890 0.930 . S
H882 C892 0.930 . S
H883 C895 0.929 . S
H884 C898 0.930 . S
H885 C900 0.960 . S
H886 C900 0.960 . S
H887 C900 0.960 . S
C888 H880 0.929 . S
C888 C889 1.377 . S
C888 C890 1.384 . S
C889 C888 1.377 . S
C889 C895 1.390 . S
C890 H881 0.930 . S
C890 C888 1.384 . S
C890 C891 1.372 . S
C891 C890 1.372 . S
C891 C892 1.400 . S
C891 C896 1.490 . S
C892 H882 0.930 . S
C892 C891 1.400 . S
C892 C895 1.386 . S
H893 C909 0.930 . S
H894 C910 0.931 . S
C895 H883 0.929 . S
C895 C889 1.390 . S
C895 C892 1.386 . S
C896 C891 1.490 . S
C896 C898 1.395 . S
C896 C899 1.403 . S
H897 C903 0.930 . S
C898 H884 0.930 . S
C898 C896 1.395 . S
C898 C901 1.403 . S
C899 C896 1.403 . S
C899 C900 1.524 . S
C899 C903 1.400 . S
C900 H885 0.960 . S
C900 H886 0.960 . S
C900 H887 0.960 . S
C900 C899 1.524 . S
C901 C898 1.403 . S
C901 C902 1.392 . S
C901 C905 1.495 . S
C902 C901 1.392 . S
C902 C903 1.385 . S
C902 C904 1.478 . S
C903 H897 0.930 . S
C903 C899 1.400 . S
C903 C902 1.385 . S
C904 C902 1.478 . S
C904 C906 1.381 . S
C904 C910 1.383 . S
C905 C901 1.495 . S
C905 H911 0.959 . S
C905 H912 0.961 . S
C905 H913 0.960 . S
C906 C904 1.381 . S
C906 C907 1.394 . S
C906 H914 0.930 . S
C907 C906 1.394 . S
C907 C908 1.383 . S
C907 H915 0.929 . S
C908 C907 1.383 . S
C908 C909 1.377 . S
C909 H893 0.930 . S
C909 C908 1.377 . S
C909 C910 1.379 . S
C910 H894 0.931 . S
C910 C904 1.383 . S
C910 C909 1.379 . S
H911 C905 0.959 . S
H912 C905 0.961 . S
H913 C905 0.960 . S
H914 C906 0.930 . S
H915 C907 0.929 . S
H916 C924 0.929 . S
H917 C926 0.930 . S
H918 C928 0.930 . S
H919 C931 0.929 . S
H920 C934 0.930 . S
H921 C936 0.960 . S
H922 C936 0.960 . S
H923 C936 0.960 . S
C924 H916 0.929 . S
C924 C925 1.377 . S
C924 C926 1.384 . S
C925 C924 1.377 . S
C925 C931 1.390 . S
C926 H917 0.930 . S
C926 C924 1.384 . S
C926 C927 1.372 . S
C927 C926 1.372 . S
C927 C928 1.400 . S
C927 C932 1.490 . S
C928 H918 0.930 . S
C928 C927 1.400 . S
C928 C931 1.386 . S
H929 C945 0.930 . S
H930 C946 0.931 . S
C931 H919 0.929 . S
C931 C925 1.390 . S
C931 C928 1.386 . S
C932 C927 1.490 . S
C932 C934 1.395 . S
C932 C935 1.403 . S
H933 C939 0.930 . S
C934 H920 0.930 . S
C934 C932 1.395 . S
C934 C937 1.403 . S
C935 C932 1.403 . S
C935 C936 1.524 . S
C935 C939 1.400 . S
C936 H921 0.960 . S
C936 H922 0.960 . S
C936 H923 0.960 . S
C936 C935 1.524 . S
C937 C934 1.403 . S
C937 C938 1.392 . S
C937 C941 1.495 . S
C938 C937 1.392 . S
C938 C939 1.385 . S
C938 C940 1.478 . S
C939 H933 0.930 . S
C939 C935 1.400 . S
C939 C938 1.385 . S
C940 C938 1.478 . S
C940 C942 1.381 . S
C940 C946 1.383 . S
C941 C937 1.495 . S
C941 H947 0.959 . S
C941 H948 0.961 . S
C941 H949 0.960 . S
C942 C940 1.381 . S
C942 C943 1.394 . S
C942 H950 0.930 . S
C943 C942 1.394 . S
C943 C944 1.383 . S
C943 H951 0.929 . S
C944 C943 1.383 . S
C944 C945 1.377 . S
C945 H929 0.930 . S
C945 C944 1.377 . S
C945 C946 1.379 . S
C946 H930 0.931 . S
C946 C940 1.383 . S
C946 C945 1.379 . S
H947 C941 0.959 . S
H948 C941 0.961 . S
H949 C941 0.960 . S
H950 C942 0.930 . S
H951 C943 0.929 . S
H952 C960 0.929 . S
H953 C962 0.930 . S
H954 C964 0.930 . S
H955 C967 0.929 . S
H956 C970 0.930 . S
H957 C972 0.960 . S
H958 C972 0.960 . S
H959 C972 0.960 . S
C960 H952 0.929 . S
C960 C961 1.377 . S
C960 C962 1.384 . S
C961 C960 1.377 . S
C961 C967 1.390 . S
C962 H953 0.930 . S
C962 C960 1.384 . S
C962 C963 1.372 . S
C963 C962 1.372 . S
C963 C964 1.400 . S
C963 C968 1.490 . S
C964 H954 0.930 . S
C964 C963 1.400 . S
C964 C967 1.386 . S
H965 C981 0.930 . S
H966 C982 0.931 . S
C967 H955 0.929 . S
C967 C961 1.390 . S
C967 C964 1.386 . S
C968 C963 1.490 . S
C968 C970 1.395 . S
C968 C971 1.403 . S
H969 C975 0.930 . S
C970 H956 0.930 . S
C970 C968 1.395 . S
C970 C973 1.403 . S
C971 C968 1.403 . S
C971 C972 1.524 . S
C971 C975 1.400 . S
C972 H957 0.960 . S
C972 H958 0.960 . S
C972 H959 0.960 . S
C972 C971 1.524 . S
C973 C970 1.403 . S
C973 C974 1.392 . S
C973 C977 1.495 . S
C974 C973 1.392 . S
C974 C975 1.385 . S
C974 C976 1.478 . S
C975 H969 0.930 . S
C975 C971 1.400 . S
C975 C974 1.385 . S
C976 C974 1.478 . S
C976 C978 1.381 . S
C976 C982 1.383 . S
C977 C973 1.495 . S
C977 H983 0.959 . S
C977 H984 0.961 . S
C977 H985 0.960 . S
C978 C976 1.381 . S
C978 C979 1.394 . S
C978 H986 0.930 . S
C979 C978 1.394 . S
C979 C980 1.383 . S
C979 H987 0.929 . S
C980 C979 1.383 . S
C980 C981 1.377 . S
C981 H965 0.930 . S
C981 C980 1.377 . S
C981 C982 1.379 . S
C982 H966 0.931 . S
C982 C976 1.383 . S
C982 C981 1.379 . S
H983 C977 0.959 . S
H984 C977 0.961 . S
H985 C977 0.960 . S
H986 C978 0.930 . S
H987 C979 0.929 . S
H988 C996 0.929 . S
H989 C998 0.930 . S
H990 C1000 0.930 . S
H991 C1003 0.929 . S
H992 C1006 0.930 . S
H993 C1008 0.960 . S
H994 C1008 0.960 . S
H995 C1008 0.960 . S
C996 H988 0.929 . S
C996 C997 1.377 . S
C996 C998 1.384 . S
C997 C996 1.377 . S
C997 C1003 1.390 . S
C998 H989 0.930 . S
C998 C996 1.384 . S
C998 C999 1.372 . S
C999 C998 1.372 . S
C999 C1000 1.400 . S
C999 C1004 1.490 . S
C1000 H990 0.930 . S
C1000 C999 1.400 . S
C1000 C1003 1.386 . S
H1001 C1017 0.930 . S
H1002 C1018 0.931 . S
C1003 H991 0.929 . S
C1003 C997 1.390 . S
C1003 C1000 1.386 . S
C1004 C999 1.490 . S
C1004 C1006 1.395 . S
C1004 C1007 1.403 . S
H1005 C1011 0.930 . S
C1006 H992 0.930 . S
C1006 C1004 1.395 . S
C1006 C1009 1.403 . S
C1007 C1004 1.403 . S
C1007 C1008 1.524 . S
C1007 C1011 1.400 . S
C1008 H993 0.960 . S
C1008 H994 0.960 . S
C1008 H995 0.960 . S
C1008 C1007 1.524 . S
C1009 C1006 1.403 . S
C1009 C1010 1.392 . S
C1009 C1013 1.495 . S
C1010 C1009 1.392 . S
C1010 C1011 1.385 . S
C1010 C1012 1.478 . S
C1011 H1005 0.930 . S
C1011 C1007 1.400 . S
C1011 C1010 1.385 . S
C1012 C1010 1.478 . S
C1012 C1014 1.381 . S
C1012 C1018 1.383 . S
C1013 C1009 1.495 . S
C1013 H1019 0.959 . S
C1013 H1020 0.961 . S
C1013 H1021 0.960 . S
C1014 C1012 1.381 . S
C1014 C1015 1.394 . S
C1014 H1022 0.930 . S
C1015 C1014 1.394 . S
C1015 C1016 1.383 . S
C1015 H1023 0.929 . S
C1016 C1015 1.383 . S
C1016 C1017 1.377 . S
C1017 H1001 0.930 . S
C1017 C1016 1.377 . S
C1017 C1018 1.379 . S
C1018 H1002 0.931 . S
C1018 C1012 1.383 . S
C1018 C1017 1.379 . S
H1019 C1013 0.959 . S
H1020 C1013 0.961 . S
H1021 C1013 0.960 . S
H1022 C1014 0.930 . S
H1023 C1015 0.929 . S
H1024 C1032 0.929 . S
H1025 C1034 0.930 . S
H1026 C1036 0.930 . S
H1027 C1039 0.929 . S
H1028 C1042 0.930 . S
H1029 C1044 0.960 . S
H1030 C1044 0.960 . S
H1031 C1044 0.960 . S
C1032 H1024 0.929 . S
C1032 C1033 1.377 . S
C1032 C1034 1.384 . S
C1033 C1032 1.377 . S
C1033 C1039 1.390 . S
C1034 H1025 0.930 . S
C1034 C1032 1.384 . S
C1034 C1035 1.372 . S
C1035 C1034 1.372 . S
C1035 C1036 1.400 . S
C1035 C1040 1.490 . S
C1036 H1026 0.930 . S
C1036 C1035 1.400 . S
C1036 C1039 1.386 . S
H1037 C1053 0.930 . S
H1038 C1054 0.931 . S
C1039 H1027 0.929 . S
C1039 C1033 1.390 . S
C1039 C1036 1.386 . S
C1040 C1035 1.490 . S
C1040 C1042 1.395 . S
C1040 C1043 1.403 . S
H1041 C1047 0.930 . S
C1042 H1028 0.930 . S
C1042 C1040 1.395 . S
C1042 C1045 1.403 1_554 S
C1043 C1040 1.403 . S
C1043 C1044 1.524 . S
C1043 C1047 1.400 1_554 S
C1044 H1029 0.960 . S
C1044 H1030 0.960 . S
C1044 H1031 0.960 . S
C1044 C1043 1.524 . S
C1045 C1042 1.403 1_556 S
C1045 C1046 1.392 . S
C1045 C1049 1.495 . S
C1046 C1045 1.392 . S
C1046 C1047 1.385 . S
C1046 C1048 1.478 . S
C1047 H1041 0.930 . S
C1047 C1043 1.400 1_556 S
C1047 C1046 1.385 . S
C1048 C1046 1.478 . S
C1048 C1050 1.381 . S
C1048 C1054 1.383 . S
C1049 C1045 1.495 . S
C1049 H1055 0.959 . S
C1049 H1056 0.961 . S
C1049 H1057 0.960 . S
C1050 C1048 1.381 . S
C1050 C1051 1.394 . S
C1050 H1058 0.930 . S
C1051 C1050 1.394 . S
C1051 C1052 1.383 . S
C1051 H1059 0.929 . S
C1052 C1051 1.383 . S
C1052 C1053 1.377 . S
C1053 H1037 0.930 . S
C1053 C1052 1.377 . S
C1053 C1054 1.379 . S
C1054 H1038 0.931 . S
C1054 C1048 1.383 . S
C1054 C1053 1.379 . S
H1055 C1049 0.959 . S
H1056 C1049 0.961 . S
H1057 C1049 0.960 . S
H1058 C1050 0.930 . S
H1059 C1051 0.929 . S
H1060 C1068 0.929 . S
H1061 C1070 0.930 . S
H1062 C1072 0.930 . S
H1063 C1075 0.929 . S
H1064 C1078 0.930 . S
H1065 C1080 0.960 . S
H1066 C1080 0.960 . S
H1067 C1080 0.960 . S
C1068 H1060 0.929 . S
C1068 C1069 1.377 . S
C1068 C1070 1.384 . S
C1069 C1068 1.377 . S
C1069 C1075 1.390 . S
C1070 H1061 0.930 . S
C1070 C1068 1.384 . S
C1070 C1071 1.372 . S
C1071 C1070 1.372 . S
C1071 C1072 1.400 . S
C1071 C1076 1.490 . S
C1072 H1062 0.930 . S
C1072 C1071 1.400 . S
C1072 C1075 1.386 . S
H1073 C1089 0.930 . S
H1074 C1090 0.931 . S
C1075 H1063 0.929 . S
C1075 C1069 1.390 . S
C1075 C1072 1.386 . S
C1076 C1071 1.490 . S
C1076 C1078 1.395 . S
C1076 C1079 1.403 . S
H1077 C1083 0.930 . S
C1078 H1064 0.930 . S
C1078 C1076 1.395 . S
C1078 C1081 1.403 1_556 S
C1079 C1076 1.403 . S
C1079 C1080 1.524 . S
C1079 C1083 1.400 1_556 S
C1080 H1065 0.960 . S
C1080 H1066 0.960 . S
C1080 H1067 0.960 . S
C1080 C1079 1.524 . S
C1081 C1078 1.403 1_554 S
C1081 C1082 1.392 . S
C1081 C1085 1.495 . S
C1082 C1081 1.392 . S
C1082 C1083 1.385 . S
C1082 C1084 1.478 . S
C1083 H1077 0.930 . S
C1083 C1079 1.400 1_554 S
C1083 C1082 1.385 . S
C1084 C1082 1.478 . S
C1084 C1086 1.381 . S
C1084 C1090 1.383 . S
C1085 C1081 1.495 . S
C1085 H1091 0.959 . S
C1085 H1092 0.961 . S
C1085 H1093 0.960 . S
C1086 C1084 1.381 . S
C1086 C1087 1.394 . S
C1086 H1094 0.930 . S
C1087 C1086 1.394 . S
C1087 C1088 1.383 . S
C1087 H1095 0.929 . S
C1088 C1087 1.383 . S
C1088 C1089 1.377 . S
C1089 H1073 0.930 . S
C1089 C1088 1.377 . S
C1089 C1090 1.379 . S
C1090 H1074 0.931 . S
C1090 C1084 1.383 . S
C1090 C1089 1.379 . S
H1091 C1085 0.959 . S
H1092 C1085 0.961 . S
H1093 C1085 0.960 . S
H1094 C1086 0.930 . S
H1095 C1087 0.929 . S
H1096 C1104 0.929 . S
H1097 C1106 0.930 . S
H1098 C1108 0.930 . S
H1099 C1111 0.929 . S
H1100 C1114 0.930 . S
H1101 C1116 0.960 . S
H1102 C1116 0.960 . S
H1103 C1116 0.960 . S
C1104 H1096 0.929 . S
C1104 C1105 1.377 . S
C1104 C1106 1.384 . S
C1105 C1104 1.377 . S
C1105 C1111 1.390 . S
C1106 H1097 0.930 . S
C1106 C1104 1.384 . S
C1106 C1107 1.372 . S
C1107 C1106 1.372 . S
C1107 C1108 1.400 . S
C1107 C1112 1.490 . S
C1108 H1098 0.930 . S
C1108 C1107 1.400 . S
C1108 C1111 1.386 . S
H1109 C1125 0.930 . S
H1110 C1126 0.931 . S
C1111 H1099 0.929 . S
C1111 C1105 1.390 . S
C1111 C1108 1.386 . S
C1112 C1107 1.490 . S
C1112 C1114 1.395 . S
C1112 C1115 1.403 . S
H1113 C1119 0.930 . S
C1114 H1100 0.930 . S
C1114 C1112 1.395 . S
C1114 C1117 1.403 1_556 S
C1115 C1112 1.403 . S
C1115 C1116 1.524 . S
C1115 C1119 1.400 1_556 S
C1116 H1101 0.960 . S
C1116 H1102 0.960 . S
C1116 H1103 0.960 . S
C1116 C1115 1.524 . S
C1117 C1114 1.403 1_554 S
C1117 C1118 1.392 . S
C1117 C1121 1.495 . S
C1118 C1117 1.392 . S
C1118 C1119 1.385 . S
C1118 C1120 1.478 . S
C1119 H1113 0.930 . S
C1119 C1115 1.400 1_554 S
C1119 C1118 1.385 . S
C1120 C1118 1.478 . S
C1120 C1122 1.381 . S
C1120 C1126 1.383 . S
C1121 C1117 1.495 . S
C1121 H1127 0.959 . S
C1121 H1128 0.961 . S
C1121 H1129 0.960 . S
C1122 C1120 1.381 . S
C1122 C1123 1.394 . S
C1122 H1130 0.930 . S
C1123 C1122 1.394 . S
C1123 C1124 1.383 . S
C1123 H1131 0.929 . S
C1124 C1123 1.383 . S
C1124 C1125 1.377 . S
C1125 H1109 0.930 . S
C1125 C1124 1.377 . S
C1125 C1126 1.379 . S
C1126 H1110 0.931 . S
C1126 C1120 1.383 . S
C1126 C1125 1.379 . S
H1127 C1121 0.959 . S
H1128 C1121 0.961 . S
H1129 C1121 0.960 . S
H1130 C1122 0.930 . S
H1131 C1123 0.929 . S
H1132 C1140 0.929 . S
H1133 C1142 0.930 . S
H1134 C1144 0.930 . S
H1135 C1147 0.929 . S
H1136 C1150 0.930 . S
H1137 C1152 0.960 . S
H1138 C1152 0.960 . S
H1139 C1152 0.960 . S
C1140 H1132 0.929 . S
C1140 C1141 1.377 . S
C1140 C1142 1.384 . S
C1141 C1140 1.377 . S
C1141 C1147 1.390 . S
C1142 H1133 0.930 . S
C1142 C1140 1.384 . S
C1142 C1143 1.372 . S
C1143 C1142 1.372 . S
C1143 C1144 1.400 . S
C1143 C1148 1.490 . S
C1144 H1134 0.930 . S
C1144 C1143 1.400 . S
C1144 C1147 1.386 . S
H1145 C1161 0.930 . S
H1146 C1162 0.931 . S
C1147 H1135 0.929 . S
C1147 C1141 1.390 . S
C1147 C1144 1.386 . S
C1148 C1143 1.490 . S
C1148 C1150 1.395 . S
C1148 C1151 1.403 . S
H1149 C1155 0.930 . S
C1150 H1136 0.930 . S
C1150 C1148 1.395 . S
C1150 C1153 1.403 1_556 S
C1151 C1148 1.403 . S
C1151 C1152 1.524 . S
C1151 C1155 1.400 1_556 S
C1152 H1137 0.960 . S
C1152 H1138 0.960 . S
C1152 H1139 0.960 . S
C1152 C1151 1.524 . S
C1153 C1150 1.403 1_554 S
C1153 C1154 1.392 . S
C1153 C1157 1.495 . S
C1154 C1153 1.392 . S
C1154 C1155 1.385 . S
C1154 C1156 1.478 . S
C1155 H1149 0.930 . S
C1155 C1151 1.400 1_554 S
C1155 C1154 1.385 . S
C1156 C1154 1.478 . S
C1156 C1158 1.381 . S
C1156 C1162 1.383 . S
C1157 C1153 1.495 . S
C1157 H1163 0.959 . S
C1157 H1164 0.961 . S
C1157 H1165 0.960 . S
C1158 C1156 1.381 . S
C1158 C1159 1.394 . S
C1158 H1166 0.930 . S
C1159 C1158 1.394 . S
C1159 C1160 1.383 . S
C1159 H1167 0.929 . S
C1160 C1159 1.383 . S
C1160 C1161 1.377 . S
C1161 H1145 0.930 . S
C1161 C1160 1.377 . S
C1161 C1162 1.379 . S
C1162 H1146 0.931 . S
C1162 C1156 1.383 . S
C1162 C1161 1.379 . S
H1163 C1157 0.959 . S
H1164 C1157 0.961 . S
H1165 C1157 0.960 . S
H1166 C1158 0.930 . S
H1167 C1159 0.929 . S
H1168 C1176 0.929 . S
H1169 C1178 0.930 . S
H1170 C1180 0.930 . S
H1171 C1183 0.929 . S
H1172 C1186 0.930 . S
H1173 C1188 0.960 . S
H1174 C1188 0.960 . S
H1175 C1188 0.960 . S
C1176 H1168 0.929 . S
C1176 C1177 1.377 . S
C1176 C1178 1.384 . S
C1177 C1176 1.377 . S
C1177 C1183 1.390 . S
C1178 H1169 0.930 . S
C1178 C1176 1.384 . S
C1178 C1179 1.372 . S
C1179 C1178 1.372 . S
C1179 C1180 1.400 . S
C1179 C1184 1.490 . S
C1180 H1170 0.930 . S
C1180 C1179 1.400 . S
C1180 C1183 1.386 . S
H1181 C1197 0.930 . S
H1182 C1198 0.931 . S
C1183 H1171 0.929 . S
C1183 C1177 1.390 . S
C1183 C1180 1.386 . S
C1184 C1179 1.490 . S
C1184 C1186 1.395 . S
C1184 C1187 1.403 . S
H1185 C1191 0.930 . S
C1186 H1172 0.930 . S
C1186 C1184 1.395 . S
C1186 C1189 1.403 . S
C1187 C1184 1.403 . S
C1187 C1188 1.524 . S
C1187 C1191 1.400 . S
C1188 H1173 0.960 . S
C1188 H1174 0.960 . S
C1188 H1175 0.960 . S
C1188 C1187 1.524 . S
C1189 C1186 1.403 . S
C1189 C1190 1.392 . S
C1189 C1193 1.495 . S
C1190 C1189 1.392 . S
C1190 C1191 1.385 . S
C1190 C1192 1.478 . S
C1191 H1185 0.930 . S
C1191 C1187 1.400 . S
C1191 C1190 1.385 . S
C1192 C1190 1.478 . S
C1192 C1194 1.381 . S
C1192 C1198 1.383 . S
C1193 C1189 1.495 . S
C1193 H1199 0.959 . S
C1193 H1200 0.961 . S
C1193 H1201 0.960 . S
C1194 C1192 1.381 . S
C1194 C1195 1.394 . S
C1194 H1202 0.930 . S
C1195 C1194 1.394 . S
C1195 C1196 1.383 . S
C1195 H1203 0.929 . S
C1196 C1195 1.383 . S
C1196 C1197 1.377 . S
C1197 H1181 0.930 . S
C1197 C1196 1.377 . S
C1197 C1198 1.379 . S
C1198 H1182 0.931 . S
C1198 C1192 1.383 . S
C1198 C1197 1.379 . S
H1199 C1193 0.959 . S
H1200 C1193 0.961 . S
H1201 C1193 0.960 . S
H1202 C1194 0.930 . S
H1203 C1195 0.929 . S
H1204 C1212 0.929 . S
H1205 C1214 0.930 . S
H1206 C1216 0.930 . S
H1207 C1219 0.929 . S
H1208 C1222 0.930 . S
H1209 C1224 0.960 . S
H1210 C1224 0.960 . S
H1211 C1224 0.960 . S
C1212 H1204 0.929 . S
C1212 C1213 1.377 . S
C1212 C1214 1.384 . S
C1213 C1212 1.377 . S
C1213 C1219 1.390 . S
C1214 H1205 0.930 . S
C1214 C1212 1.384 . S
C1214 C1215 1.372 . S
C1215 C1214 1.372 . S
C1215 C1216 1.400 . S
C1215 C1220 1.490 . S
C1216 H1206 0.930 . S
C1216 C1215 1.400 . S
C1216 C1219 1.386 . S
H1217 C1233 0.930 . S
H1218 C1234 0.931 . S
C1219 H1207 0.929 . S
C1219 C1213 1.390 . S
C1219 C1216 1.386 . S
C1220 C1215 1.490 . S
C1220 C1222 1.395 . S
C1220 C1223 1.403 . S
H1221 C1227 0.930 . S
C1222 H1208 0.930 . S
C1222 C1220 1.395 . S
C1222 C1225 1.403 . S
C1223 C1220 1.403 . S
C1223 C1224 1.524 . S
C1223 C1227 1.400 . S
C1224 H1209 0.960 . S
C1224 H1210 0.960 . S
C1224 H1211 0.960 . S
C1224 C1223 1.524 . S
C1225 C1222 1.403 . S
C1225 C1226 1.392 . S
C1225 C1229 1.495 . S
C1226 C1225 1.392 . S
C1226 C1227 1.385 . S
C1226 C1228 1.478 . S
C1227 H1221 0.930 . S
C1227 C1223 1.400 . S
C1227 C1226 1.385 . S
C1228 C1226 1.478 . S
C1228 C1230 1.381 . S
C1228 C1234 1.383 . S
C1229 C1225 1.495 . S
C1229 H1235 0.959 . S
C1229 H1236 0.961 . S
C1229 H1237 0.960 . S
C1230 C1228 1.381 . S
C1230 C1231 1.394 . S
C1230 H1238 0.930 . S
C1231 C1230 1.394 . S
C1231 C1232 1.383 . S
C1231 H1239 0.929 . S
C1232 C1231 1.383 . S
C1232 C1233 1.377 . S
C1233 H1217 0.930 . S
C1233 C1232 1.377 . S
C1233 C1234 1.379 . S
C1234 H1218 0.931 . S
C1234 C1228 1.383 . S
C1234 C1233 1.379 . S
H1235 C1229 0.959 . S
H1236 C1229 0.961 . S
H1237 C1229 0.960 . S
H1238 C1230 0.930 . S
H1239 C1231 0.929 . S
H1240 C1248 0.929 . S
H1241 C1250 0.930 . S
H1242 C1252 0.930 . S
H1243 C1255 0.929 . S
H1244 C1258 0.930 . S
H1245 C1260 0.960 . S
H1246 C1260 0.960 . S
H1247 C1260 0.960 . S
C1248 H1240 0.929 . S
C1248 C1249 1.377 . S
C1248 C1250 1.384 . S
C1249 C1248 1.377 . S
C1249 C1255 1.390 . S
C1250 H1241 0.930 . S
C1250 C1248 1.384 . S
C1250 C1251 1.372 . S
C1251 C1250 1.372 . S
C1251 C1252 1.400 . S
C1251 C1256 1.490 . S
C1252 H1242 0.930 . S
C1252 C1251 1.400 . S
C1252 C1255 1.386 . S
H1253 C1269 0.930 . S
H1254 C1270 0.931 . S
C1255 H1243 0.929 . S
C1255 C1249 1.390 . S
C1255 C1252 1.386 . S
C1256 C1251 1.490 . S
C1256 C1258 1.395 . S
C1256 C1259 1.403 . S
H1257 C1263 0.930 . S
C1258 H1244 0.930 . S
C1258 C1256 1.395 . S
C1258 C1261 1.403 . S
C1259 C1256 1.403 . S
C1259 C1260 1.524 . S
C1259 C1263 1.400 . S
C1260 H1245 0.960 . S
C1260 H1246 0.960 . S
C1260 H1247 0.960 . S
C1260 C1259 1.524 . S
C1261 C1258 1.403 . S
C1261 C1262 1.392 . S
C1261 C1265 1.495 . S
C1262 C1261 1.392 . S
C1262 C1263 1.385 . S
C1262 C1264 1.478 . S
C1263 H1257 0.930 . S
C1263 C1259 1.400 . S
C1263 C1262 1.385 . S
C1264 C1262 1.478 . S
C1264 C1266 1.381 . S
C1264 C1270 1.383 . S
C1265 C1261 1.495 . S
C1265 H1271 0.959 . S
C1265 H1272 0.961 . S
C1265 H1273 0.960 . S
C1266 C1264 1.381 . S
C1266 C1267 1.394 . S
C1266 H1274 0.930 . S
C1267 C1266 1.394 . S
C1267 C1268 1.383 . S
C1267 H1275 0.929 . S
C1268 C1267 1.383 . S
C1268 C1269 1.377 . S
C1269 H1253 0.930 . S
C1269 C1268 1.377 . S
C1269 C1270 1.379 . S
C1270 H1254 0.931 . S
C1270 C1264 1.383 . S
C1270 C1269 1.379 . S
H1271 C1265 0.959 . S
H1272 C1265 0.961 . S
H1273 C1265 0.960 . S
H1274 C1266 0.930 . S
H1275 C1267 0.929 . S
H1276 C1284 0.929 . S
H1277 C1286 0.930 . S
H1278 C1288 0.930 . S
H1279 C1291 0.929 . S
H1280 C1294 0.930 . S
H1281 C1296 0.960 . S
H1282 C1296 0.960 . S
H1283 C1296 0.960 . S
C1284 H1276 0.929 . S
C1284 C1285 1.377 . S
C1284 C1286 1.384 . S
C1285 C1284 1.377 . S
C1285 C1291 1.390 . S
C1286 H1277 0.930 . S
C1286 C1284 1.384 . S
C1286 C1287 1.372 . S
C1287 C1286 1.372 . S
C1287 C1288 1.400 . S
C1287 C1292 1.490 . S
C1288 H1278 0.930 . S
C1288 C1287 1.400 . S
C1288 C1291 1.386 . S
H1289 C1305 0.930 . S
H1290 C1306 0.931 . S
C1291 H1279 0.929 . S
C1291 C1285 1.390 . S
C1291 C1288 1.386 . S
C1292 C1287 1.490 . S
C1292 C1294 1.395 . S
C1292 C1295 1.403 . S
H1293 C1299 0.930 . S
C1294 H1280 0.930 . S
C1294 C1292 1.395 . S
C1294 C1297 1.403 . S
C1295 C1292 1.403 . S
C1295 C1296 1.524 . S
C1295 C1299 1.400 . S
C1296 H1281 0.960 . S
C1296 H1282 0.960 . S
C1296 H1283 0.960 . S
C1296 C1295 1.524 . S
C1297 C1294 1.403 . S
C1297 C1298 1.392 . S
C1297 C1301 1.495 . S
C1298 C1297 1.392 . S
C1298 C1299 1.385 . S
C1298 C1300 1.478 . S
C1299 H1293 0.930 . S
C1299 C1295 1.400 . S
C1299 C1298 1.385 . S
C1300 C1298 1.478 . S
C1300 C1302 1.381 . S
C1300 C1306 1.383 . S
C1301 C1297 1.495 . S
C1301 H1307 0.959 . S
C1301 H1308 0.961 . S
C1301 H1309 0.960 . S
C1302 C1300 1.381 . S
C1302 C1303 1.394 . S
C1302 H1310 0.930 . S
C1303 C1302 1.394 . S
C1303 C1304 1.383 . S
C1303 H1311 0.929 . S
C1304 C1303 1.383 . S
C1304 C1305 1.377 . S
C1305 H1289 0.930 . S
C1305 C1304 1.377 . S
C1305 C1306 1.379 . S
C1306 H1290 0.931 . S
C1306 C1300 1.383 . S
C1306 C1305 1.379 . S
H1307 C1301 0.959 . S
H1308 C1301 0.961 . S
H1309 C1301 0.960 . S
H1310 C1302 0.930 . S
H1311 C1303 0.929 . S
H1312 C1320 0.929 . S
H1313 C1322 0.930 . S
H1314 C1324 0.930 . S
H1315 C1327 0.929 . S
H1316 C1330 0.930 . S
H1317 C1332 0.960 . S
H1318 C1332 0.960 . S
H1319 C1332 0.960 . S
C1320 H1312 0.929 . S
C1320 C1321 1.377 . S
C1320 C1322 1.384 . S
C1321 C1320 1.377 . S
C1321 C1327 1.390 . S
C1322 H1313 0.930 . S
C1322 C1320 1.384 . S
C1322 C1323 1.372 . S
C1323 C1322 1.372 . S
C1323 C1324 1.400 . S
C1323 C1328 1.490 . S
C1324 H1314 0.930 . S
C1324 C1323 1.400 . S
C1324 C1327 1.386 . S
H1325 C1341 0.930 . S
H1326 C1342 0.931 . S
C1327 H1315 0.929 . S
C1327 C1321 1.390 . S
C1327 C1324 1.386 . S
C1328 C1323 1.490 . S
C1328 C1330 1.395 . S
C1328 C1331 1.403 . S
H1329 C1335 0.930 . S
C1330 H1316 0.930 . S
C1330 C1328 1.395 . S
C1330 C1333 1.403 . S
C1331 C1328 1.403 . S
C1331 C1332 1.524 . S
C1331 C1335 1.400 . S
C1332 H1317 0.960 . S
C1332 H1318 0.960 . S
C1332 H1319 0.960 . S
C1332 C1331 1.524 . S
C1333 C1330 1.403 . S
C1333 C1334 1.392 . S
C1333 C1337 1.495 . S
C1334 C1333 1.392 . S
C1334 C1335 1.385 . S
C1334 C1336 1.478 . S
C1335 H1329 0.930 . S
C1335 C1331 1.400 . S
C1335 C1334 1.385 . S
C1336 C1334 1.478 . S
C1336 C1338 1.381 . S
C1336 C1342 1.383 . S
C1337 C1333 1.495 . S
C1337 H1343 0.959 . S
C1337 H1344 0.961 . S
C1337 H1345 0.960 . S
C1338 C1336 1.381 . S
C1338 C1339 1.394 . S
C1338 H1346 0.930 . S
C1339 C1338 1.394 . S
C1339 C1340 1.383 . S
C1339 H1347 0.929 . S
C1340 C1339 1.383 . S
C1340 C1341 1.377 . S
C1341 H1325 0.930 . S
C1341 C1340 1.377 . S
C1341 C1342 1.379 . S
C1342 H1326 0.931 . S
C1342 C1336 1.383 . S
C1342 C1341 1.379 . S
H1343 C1337 0.959 . S
H1344 C1337 0.961 . S
H1345 C1337 0.960 . S
H1346 C1338 0.930 . S
H1347 C1339 0.929 . S
H1348 C1356 0.929 . S
H1349 C1358 0.930 . S
H1350 C1360 0.930 . S
H1351 C1363 0.929 . S
H1352 C1366 0.930 . S
H1353 C1368 0.960 . S
H1354 C1368 0.960 . S
H1355 C1368 0.960 . S
C1356 H1348 0.929 . S
C1356 C1357 1.377 . S
C1356 C1358 1.384 . S
C1357 C1356 1.377 . S
C1357 C1363 1.390 . S
C1358 H1349 0.930 . S
C1358 C1356 1.384 . S
C1358 C1359 1.372 . S
C1359 C1358 1.372 . S
C1359 C1360 1.400 . S
C1359 C1364 1.490 . S
C1360 H1350 0.930 . S
C1360 C1359 1.400 . S
C1360 C1363 1.386 . S
H1361 C1377 0.930 . S
H1362 C1378 0.931 . S
C1363 H1351 0.929 . S
C1363 C1357 1.390 . S
C1363 C1360 1.386 . S
C1364 C1359 1.490 . S
C1364 C1366 1.395 . S
C1364 C1367 1.403 . S
H1365 C1371 0.930 . S
C1366 H1352 0.930 . S
C1366 C1364 1.395 . S
C1366 C1369 1.403 . S
C1367 C1364 1.403 . S
C1367 C1368 1.524 . S
C1367 C1371 1.400 . S
C1368 H1353 0.960 . S
C1368 H1354 0.960 . S
C1368 H1355 0.960 . S
C1368 C1367 1.524 . S
C1369 C1366 1.403 . S
C1369 C1370 1.392 . S
C1369 C1373 1.495 . S
C1370 C1369 1.392 . S
C1370 C1371 1.385 . S
C1370 C1372 1.478 . S
C1371 H1365 0.930 . S
C1371 C1367 1.400 . S
C1371 C1370 1.385 . S
C1372 C1370 1.478 . S
C1372 C1374 1.381 . S
C1372 C1378 1.383 . S
C1373 C1369 1.495 . S
C1373 H1379 0.959 . S
C1373 H1380 0.961 . S
C1373 H1381 0.960 . S
C1374 C1372 1.381 . S
C1374 C1375 1.394 . S
C1374 H1382 0.930 . S
C1375 C1374 1.394 . S
C1375 C1376 1.383 . S
C1375 H1383 0.929 . S
C1376 C1375 1.383 . S
C1376 C1377 1.377 . S
C1377 H1361 0.930 . S
C1377 C1376 1.377 . S
C1377 C1378 1.379 . S
C1378 H1362 0.931 . S
C1378 C1372 1.383 . S
C1378 C1377 1.379 . S
H1379 C1373 0.959 . S
H1380 C1373 0.961 . S
H1381 C1373 0.960 . S
H1382 C1374 0.930 . S
H1383 C1375 0.929 . S
H1384 C1392 0.929 . S
H1385 C1394 0.930 . S
H1386 C1396 0.930 . S
H1387 C1399 0.929 . S
H1388 C1402 0.930 . S
H1389 C1404 0.960 . S
H1390 C1404 0.960 . S
H1391 C1404 0.960 . S
C1392 H1384 0.929 . S
C1392 C1393 1.377 . S
C1392 C1394 1.384 . S
C1393 C1392 1.377 . S
C1393 C1399 1.390 . S
C1394 H1385 0.930 . S
C1394 C1392 1.384 . S
C1394 C1395 1.372 . S
C1395 C1394 1.372 . S
C1395 C1396 1.400 . S
C1395 C1400 1.490 . S
C1396 H1386 0.930 . S
C1396 C1395 1.400 . S
C1396 C1399 1.386 . S
H1397 C1413 0.930 . S
H1398 C1414 0.931 . S
C1399 H1387 0.929 . S
C1399 C1393 1.390 . S
C1399 C1396 1.386 . S
C1400 C1395 1.490 . S
C1400 C1402 1.395 . S
C1400 C1403 1.403 . S
H1401 C1407 0.930 . S
C1402 H1388 0.930 . S
C1402 C1400 1.395 . S
C1402 C1405 1.403 . S
C1403 C1400 1.403 . S
C1403 C1404 1.524 . S
C1403 C1407 1.400 . S
C1404 H1389 0.960 . S
C1404 H1390 0.960 . S
C1404 H1391 0.960 . S
C1404 C1403 1.524 . S
C1405 C1402 1.403 . S
C1405 C1406 1.392 . S
C1405 C1409 1.495 . S
C1406 C1405 1.392 . S
C1406 C1407 1.385 . S
C1406 C1408 1.478 . S
C1407 H1401 0.930 . S
C1407 C1403 1.400 . S
C1407 C1406 1.385 . S
C1408 C1406 1.478 . S
C1408 C1410 1.381 . S
C1408 C1414 1.383 . S
C1409 C1405 1.495 . S
C1409 H1415 0.959 . S
C1409 H1416 0.961 . S
C1409 H1417 0.960 . S
C1410 C1408 1.381 . S
C1410 C1411 1.394 . S
C1410 H1418 0.930 . S
C1411 C1410 1.394 . S
C1411 C1412 1.383 . S
C1411 H1419 0.929 . S
C1412 C1411 1.383 . S
C1412 C1413 1.377 . S
C1413 H1397 0.930 . S
C1413 C1412 1.377 . S
C1413 C1414 1.379 . S
C1414 H1398 0.931 . S
C1414 C1408 1.383 . S
C1414 C1413 1.379 . S
H1415 C1409 0.959 . S
H1416 C1409 0.961 . S
H1417 C1409 0.960 . S
H1418 C1410 0.930 . S
H1419 C1411 0.929 . S
H1420 C1428 0.929 . S
H1421 C1430 0.930 . S
H1422 C1432 0.930 . S
H1423 C1435 0.929 . S
H1424 C1438 0.930 . S
H1425 C1440 0.960 . S
H1426 C1440 0.960 . S
H1427 C1440 0.960 . S
C1428 H1420 0.929 . S
C1428 C1429 1.377 . S
C1428 C1430 1.384 . S
C1429 C1428 1.377 . S
C1429 C1435 1.390 . S
C1430 H1421 0.930 . S
C1430 C1428 1.384 . S
C1430 C1431 1.372 . S
C1431 C1430 1.372 . S
C1431 C1432 1.400 . S
C1431 C1436 1.490 . S
C1432 H1422 0.930 . S
C1432 C1431 1.400 . S
C1432 C1435 1.386 . S
H1433 C1449 0.930 . S
H1434 C1450 0.931 . S
C1435 H1423 0.929 . S
C1435 C1429 1.390 . S
C1435 C1432 1.386 . S
C1436 C1431 1.490 . S
C1436 C1438 1.395 . S
C1436 C1439 1.403 . S
H1437 C1443 0.930 . S
C1438 H1424 0.930 . S
C1438 C1436 1.395 . S
C1438 C1441 1.403 . S
C1439 C1436 1.403 . S
C1439 C1440 1.524 . S
C1439 C1443 1.400 . S
C1440 H1425 0.960 . S
C1440 H1426 0.960 . S
C1440 H1427 0.960 . S
C1440 C1439 1.524 . S
C1441 C1438 1.403 . S
C1441 C1442 1.392 . S
C1441 C1445 1.495 . S
C1442 C1441 1.392 . S
C1442 C1443 1.385 . S
C1442 C1444 1.478 . S
C1443 H1437 0.930 . S
C1443 C1439 1.400 . S
C1443 C1442 1.385 . S
C1444 C1442 1.478 . S
C1444 C1446 1.381 . S
C1444 C1450 1.383 . S
C1445 C1441 1.495 . S
C1445 H1451 0.959 . S
C1445 H1452 0.961 . S
C1445 H1453 0.960 . S
C1446 C1444 1.381 . S
C1446 C1447 1.394 . S
C1446 H1454 0.930 . S
C1447 C1446 1.394 . S
C1447 C1448 1.383 . S
C1447 H1455 0.929 . S
C1448 C1447 1.383 . S
C1448 C1449 1.377 . S
C1449 H1433 0.930 . S
C1449 C1448 1.377 . S
C1449 C1450 1.379 . S
C1450 H1434 0.931 . S
C1450 C1444 1.383 . S
C1450 C1449 1.379 . S
H1451 C1445 0.959 . S
H1452 C1445 0.961 . S
H1453 C1445 0.960 . S
H1454 C1446 0.930 . S
H1455 C1447 0.929 . S
H1456 C1464 0.929 . S
H1457 C1466 0.930 . S
H1458 C1468 0.930 . S
H1459 C1471 0.929 . S
H1460 C1474 0.930 . S
H1461 C1476 0.960 . S
H1462 C1476 0.960 . S
H1463 C1476 0.960 . S
C1464 H1456 0.929 . S
C1464 C1465 1.377 . S
C1464 C1466 1.384 . S
C1465 C1464 1.377 . S
C1465 C1471 1.390 . S
C1466 H1457 0.930 . S
C1466 C1464 1.384 . S
C1466 C1467 1.372 . S
C1467 C1466 1.372 . S
C1467 C1468 1.400 . S
C1467 C1472 1.490 . S
C1468 H1458 0.930 . S
C1468 C1467 1.400 . S
C1468 C1471 1.386 . S
H1469 C1485 0.930 . S
H1470 C1486 0.931 . S
C1471 H1459 0.929 . S
C1471 C1465 1.390 . S
C1471 C1468 1.386 . S
C1472 C1467 1.490 . S
C1472 C1474 1.395 . S
C1472 C1475 1.403 . S
H1473 C1479 0.930 . S
C1474 H1460 0.930 . S
C1474 C1472 1.395 . S
C1474 C1477 1.403 1_556 S
C1475 C1472 1.403 . S
C1475 C1476 1.524 . S
C1475 C1479 1.400 1_556 S
C1476 H1461 0.960 . S
C1476 H1462 0.960 . S
C1476 H1463 0.960 . S
C1476 C1475 1.524 . S
C1477 C1474 1.403 1_554 S
C1477 C1478 1.392 . S
C1477 C1481 1.495 . S
C1478 C1477 1.392 . S
C1478 C1479 1.385 . S
C1478 C1480 1.478 . S
C1479 H1473 0.930 . S
C1479 C1475 1.400 1_554 S
C1479 C1478 1.385 . S
C1480 C1478 1.478 . S
C1480 C1482 1.381 . S
C1480 C1486 1.383 . S
C1481 C1477 1.495 . S
C1481 H1487 0.959 . S
C1481 H1488 0.961 . S
C1481 H1489 0.960 . S
C1482 C1480 1.381 . S
C1482 C1483 1.394 . S
C1482 H1490 0.930 . S
C1483 C1482 1.394 . S
C1483 C1484 1.383 . S
C1483 H1491 0.929 . S
C1484 C1483 1.383 . S
C1484 C1485 1.377 . S
C1485 H1469 0.930 . S
C1485 C1484 1.377 . S
C1485 C1486 1.379 . S
C1486 H1470 0.931 . S
C1486 C1480 1.383 . S
C1486 C1485 1.379 . S
H1487 C1481 0.959 . S
H1488 C1481 0.961 . S
H1489 C1481 0.960 . S
H1490 C1482 0.930 . S
H1491 C1483 0.929 . S
H1492 C1500 0.929 . S
H1493 C1502 0.930 . S
H1494 C1504 0.930 . S
H1495 C1507 0.929 . S
H1496 C1510 0.930 . S
H1497 C1512 0.960 . S
H1498 C1512 0.960 . S
H1499 C1512 0.960 . S
C1500 H1492 0.929 . S
C1500 C1501 1.377 . S
C1500 C1502 1.384 . S
C1501 C1500 1.377 . S
C1501 C1507 1.390 . S
C1502 H1493 0.930 . S
C1502 C1500 1.384 . S
C1502 C1503 1.372 . S
C1503 C1502 1.372 . S
C1503 C1504 1.400 . S
C1503 C1508 1.490 . S
C1504 H1494 0.930 . S
C1504 C1503 1.400 . S
C1504 C1507 1.386 . S
H1505 C1521 0.930 . S
H1506 C1522 0.931 . S
C1507 H1495 0.929 . S
C1507 C1501 1.390 . S
C1507 C1504 1.386 . S
C1508 C1503 1.490 . S
C1508 C1510 1.395 . S
C1508 C1511 1.403 . S
H1509 C1515 0.930 . S
C1510 H1496 0.930 . S
C1510 C1508 1.395 . S
C1510 C1513 1.403 1_554 S
C1511 C1508 1.403 . S
C1511 C1512 1.524 . S
C1511 C1515 1.400 1_554 S
C1512 H1497 0.960 . S
C1512 H1498 0.960 . S
C1512 H1499 0.960 . S
C1512 C1511 1.524 . S
C1513 C1510 1.403 1_556 S
C1513 C1514 1.392 . S
C1513 C1517 1.495 . S
C1514 C1513 1.392 . S
C1514 C1515 1.385 . S
C1514 C1516 1.478 . S
C1515 H1509 0.930 . S
C1515 C1511 1.400 1_556 S
C1515 C1514 1.385 . S
C1516 C1514 1.478 . S
C1516 C1518 1.381 . S
C1516 C1522 1.383 . S
C1517 C1513 1.495 . S
C1517 H1523 0.959 . S
C1517 H1524 0.961 . S
C1517 H1525 0.960 . S
C1518 C1516 1.381 . S
C1518 C1519 1.394 . S
C1518 H1526 0.930 . S
C1519 C1518 1.394 . S
C1519 C1520 1.383 . S
C1519 H1527 0.929 . S
C1520 C1519 1.383 . S
C1520 C1521 1.377 . S
C1521 H1505 0.930 . S
C1521 C1520 1.377 . S
C1521 C1522 1.379 . S
C1522 H1506 0.931 . S
C1522 C1516 1.383 . S
C1522 C1521 1.379 . S
H1523 C1517 0.959 . S
H1524 C1517 0.961 . S
H1525 C1517 0.960 . S
H1526 C1518 0.930 . S
H1527 C1519 0.929 . S
H1528 C1536 0.929 . S
H1529 C1538 0.930 . S
H1530 C1540 0.930 . S
H1531 C1543 0.929 . S
H1532 C1546 0.930 . S
H1533 C1548 0.960 . S
H1534 C1548 0.960 . S
H1535 C1548 0.960 . S
C1536 H1528 0.929 . S
C1536 C1537 1.377 . S
C1536 C1538 1.384 . S
C1537 C1536 1.377 . S
C1537 C1543 1.390 . S
C1538 H1529 0.930 . S
C1538 C1536 1.384 . S
C1538 C1539 1.372 . S
C1539 C1538 1.372 . S
C1539 C1540 1.400 . S
C1539 C1544 1.490 . S
C1540 H1530 0.930 . S
C1540 C1539 1.400 . S
C1540 C1543 1.386 . S
H1541 C1557 0.930 . S
H1542 C1558 0.931 . S
C1543 H1531 0.929 . S
C1543 C1537 1.390 . S
C1543 C1540 1.386 . S
C1544 C1539 1.490 . S
C1544 C1546 1.395 . S
C1544 C1547 1.403 . S
H1545 C1551 0.930 . S
C1546 H1532 0.930 . S
C1546 C1544 1.395 . S
C1546 C1549 1.403 1_554 S
C1547 C1544 1.403 . S
C1547 C1548 1.524 . S
C1547 C1551 1.400 1_554 S
C1548 H1533 0.960 . S
C1548 H1534 0.960 . S
C1548 H1535 0.960 . S
C1548 C1547 1.524 . S
C1549 C1546 1.403 1_556 S
C1549 C1550 1.392 . S
C1549 C1553 1.495 . S
C1550 C1549 1.392 . S
C1550 C1551 1.385 . S
C1550 C1552 1.478 . S
C1551 H1545 0.930 . S
C1551 C1547 1.400 1_556 S
C1551 C1550 1.385 . S
C1552 C1550 1.478 . S
C1552 C1554 1.381 . S
C1552 C1558 1.383 . S
C1553 C1549 1.495 . S
C1553 H1559 0.959 . S
C1553 H1560 0.961 . S
C1553 H1561 0.960 . S
C1554 C1552 1.381 . S
C1554 C1555 1.394 . S
C1554 H1562 0.930 . S
C1555 C1554 1.394 . S
C1555 C1556 1.383 . S
C1555 H1563 0.929 . S
C1556 C1555 1.383 . S
C1556 C1557 1.377 . S
C1557 H1541 0.930 . S
C1557 C1556 1.377 . S
C1557 C1558 1.379 . S
C1558 H1542 0.931 . S
C1558 C1552 1.383 . S
C1558 C1557 1.379 . S
H1559 C1553 0.959 . S
H1560 C1553 0.961 . S
H1561 C1553 0.960 . S
H1562 C1554 0.930 . S
H1563 C1555 0.929 . S
H1564 C1572 0.929 . S
H1565 C1574 0.930 . S
H1566 C1576 0.930 . S
H1567 C1579 0.929 . S
H1568 C1582 0.930 . S
H1569 C1584 0.960 . S
H1570 C1584 0.960 . S
H1571 C1584 0.960 . S
C1572 H1564 0.929 . S
C1572 C1573 1.377 . S
C1572 C1574 1.384 . S
C1573 C1572 1.377 . S
C1573 C1579 1.390 . S
C1574 H1565 0.930 . S
C1574 C1572 1.384 . S
C1574 C1575 1.372 . S
C1575 C1574 1.372 . S
C1575 C1576 1.400 . S
C1575 C1580 1.490 . S
C1576 H1566 0.930 . S
C1576 C1575 1.400 . S
C1576 C1579 1.386 . S
H1577 C1593 0.930 . S
H1578 C1594 0.931 . S
C1579 H1567 0.929 . S
C1579 C1573 1.390 . S
C1579 C1576 1.386 . S
C1580 C1575 1.490 . S
C1580 C1582 1.395 . S
C1580 C1583 1.403 . S
H1581 C1587 0.930 . S
C1582 H1568 0.930 . S
C1582 C1580 1.395 . S
C1582 C1585 1.403 1_556 S
C1583 C1580 1.403 . S
C1583 C1584 1.524 . S
C1583 C1587 1.400 1_556 S
C1584 H1569 0.960 . S
C1584 H1570 0.960 . S
C1584 H1571 0.960 . S
C1584 C1583 1.524 . S
C1585 C1582 1.403 1_554 S
C1585 C1586 1.392 . S
C1585 C1589 1.495 . S
C1586 C1585 1.392 . S
C1586 C1587 1.385 . S
C1586 C1588 1.478 . S
C1587 H1581 0.930 . S
C1587 C1583 1.400 1_554 S
C1587 C1586 1.385 . S
C1588 C1586 1.478 . S
C1588 C1590 1.381 . S
C1588 C1594 1.383 . S
C1589 C1585 1.495 . S
C1589 H1595 0.959 . S
C1589 H1596 0.961 . S
C1589 H1597 0.960 . S
C1590 C1588 1.381 . S
C1590 C1591 1.394 . S
C1590 H1598 0.930 . S
C1591 C1590 1.394 . S
C1591 C1592 1.383 . S
C1591 H1599 0.929 . S
C1592 C1591 1.383 . S
C1592 C1593 1.377 . S
C1593 H1577 0.930 . S
C1593 C1592 1.377 . S
C1593 C1594 1.379 . S
C1594 H1578 0.931 . S
C1594 C1588 1.383 . S
C1594 C1593 1.379 . S
H1595 C1589 0.959 . S
H1596 C1589 0.961 . S
H1597 C1589 0.960 . S
H1598 C1590 0.930 . S
H1599 C1591 0.929 . S
H1600 C1608 0.929 . S
H1601 C1610 0.930 . S
H1602 C1612 0.930 . S
H1603 C1615 0.929 . S
H1604 C1618 0.930 . S
H1605 C1620 0.960 . S
H1606 C1620 0.960 . S
H1607 C1620 0.960 . S
C1608 H1600 0.929 . S
C1608 C1609 1.377 . S
C1608 C1610 1.384 . S
C1609 C1608 1.377 . S
C1609 C1615 1.390 . S
C1610 H1601 0.930 . S
C1610 C1608 1.384 . S
C1610 C1611 1.372 . S
C1611 C1610 1.372 . S
C1611 C1612 1.400 . S
C1611 C1616 1.490 . S
C1612 H1602 0.930 . S
C1612 C1611 1.400 . S
C1612 C1615 1.386 . S
H1613 C1629 0.930 . S
H1614 C1630 0.931 . S
C1615 H1603 0.929 . S
C1615 C1609 1.390 . S
C1615 C1612 1.386 . S
C1616 C1611 1.490 . S
C1616 C1618 1.395 . S
C1616 C1619 1.403 . S
H1617 C1623 0.930 . S
C1618 H1604 0.930 . S
C1618 C1616 1.395 . S
C1618 C1621 1.403 1_545 S
C1619 C1616 1.403 . S
C1619 C1620 1.524 . S
C1619 C1623 1.400 1_545 S
C1620 H1605 0.960 . S
C1620 H1606 0.960 . S
C1620 H1607 0.960 . S
C1620 C1619 1.524 . S
C1621 C1618 1.403 1_565 S
C1621 C1622 1.392 . S
C1621 C1625 1.495 . S
C1622 C1621 1.392 . S
C1622 C1623 1.385 . S
C1622 C1624 1.478 . S
C1623 H1617 0.930 . S
C1623 C1619 1.400 1_565 S
C1623 C1622 1.385 . S
C1624 C1622 1.478 . S
C1624 C1626 1.381 . S
C1624 C1630 1.383 . S
C1625 C1621 1.495 . S
C1625 H1631 0.959 . S
C1625 H1632 0.961 . S
C1625 H1633 0.960 . S
C1626 C1624 1.381 . S
C1626 C1627 1.394 . S
C1626 H1634 0.930 . S
C1627 C1626 1.394 . S
C1627 C1628 1.383 . S
C1627 H1635 0.929 . S
C1628 C1627 1.383 . S
C1628 C1629 1.377 . S
C1629 H1613 0.930 . S
C1629 C1628 1.377 . S
C1629 C1630 1.379 . S
C1630 H1614 0.931 . S
C1630 C1624 1.383 . S
C1630 C1629 1.379 . S
H1631 C1625 0.959 . S
H1632 C1625 0.961 . S
H1633 C1625 0.960 . S
H1634 C1626 0.930 . S
H1635 C1627 0.929 . S
H1636 C1644 0.929 . S
H1637 C1646 0.930 . S
H1638 C1648 0.930 . S
H1639 C1651 0.929 . S
H1640 C1654 0.930 . S
H1641 C1656 0.960 . S
H1642 C1656 0.960 1_655 S
H1643 C1656 0.945 1_655 S
C1644 H1636 0.929 . S
C1644 C1645 1.377 . S
C1644 C1646 1.384 . S
C1645 C1644 1.377 . S
C1645 C1651 1.390 . S
C1646 H1637 0.930 . S
C1646 C1644 1.384 . S
C1646 C1647 1.372 . S
C1647 C1646 1.372 . S
C1647 C1648 1.400 . S
C1647 C1652 1.490 . S
C1648 H1638 0.930 . S
C1648 C1647 1.400 . S
C1648 C1651 1.386 . S
H1649 C1665 0.930 . S
H1650 C1666 0.931 . S
C1651 H1639 0.929 . S
C1651 C1645 1.390 . S
C1651 C1648 1.386 . S
C1652 C1647 1.490 . S
C1652 C1654 1.395 . S
C1652 C1655 1.341 1_655 S
H1653 C1659 0.930 . S
C1654 H1640 0.930 . S
C1654 C1652 1.395 . S
C1654 C1657 1.403 . S
C1655 C1652 1.341 1_455 S
C1655 C1656 1.536 . S
C1655 C1659 1.453 . S
C1656 H1641 0.960 . S
C1656 H1642 0.960 1_455 S
C1656 H1643 0.945 1_455 S
C1656 C1655 1.536 . S
C1657 C1654 1.403 . S
C1657 C1658 1.392 1_655 S
C1657 C1661 1.495 . S
C1658 C1657 1.392 1_455 S
C1658 C1659 1.385 . S
C1658 C1660 1.478 . S
C1659 H1653 0.930 . S
C1659 C1655 1.453 . S
C1659 C1658 1.385 . S
C1660 C1658 1.478 . S
C1660 C1662 1.381 . S
C1660 C1666 1.383 . S
C1661 C1657 1.495 . S
C1661 H1667 0.959 . S
C1661 H1668 0.962 . S
C1661 H1669 0.990 . S
C1662 C1660 1.381 . S
C1662 C1663 1.394 . S
C1662 H1670 0.930 . S
C1663 C1662 1.394 . S
C1663 C1664 1.383 . S
C1663 H1671 0.929 . S
C1664 C1663 1.383 . S
C1664 C1665 1.377 . S
C1665 H1649 0.930 . S
C1665 C1664 1.377 . S
C1665 C1666 1.379 . S
C1666 H1650 0.931 . S
C1666 C1660 1.383 . S
C1666 C1665 1.379 . S
H1667 C1661 0.959 . S
H1668 C1661 0.962 . S
H1669 C1661 0.990 . S
H1670 C1662 0.930 . S
H1671 C1663 0.929 . S
H1672 C1680 0.929 . S
H1673 C1682 0.930 . S
H1674 C1684 0.930 . S
H1675 C1687 0.929 . S
H1676 C1690 0.930 . S
H1677 C1692 0.960 1_565 S
H1678 C1692 0.960 . S
H1679 C1692 0.960 . S
C1680 H1672 0.929 . S
C1680 C1681 1.377 . S
C1680 C1682 1.384 . S
C1681 C1680 1.377 . S
C1681 C1687 1.390 . S
C1682 H1673 0.930 . S
C1682 C1680 1.384 . S
C1682 C1683 1.372 . S
C1683 C1682 1.372 . S
C1683 C1684 1.400 . S
C1683 C1688 1.490 . S
C1684 H1674 0.930 . S
C1684 C1683 1.400 . S
C1684 C1687 1.386 . S
H1685 C1701 0.930 . S
H1686 C1702 0.931 . S
C1687 H1675 0.929 . S
C1687 C1681 1.390 . S
C1687 C1684 1.386 . S
C1688 C1683 1.490 . S
C1688 C1690 1.395 . S
C1688 C1691 1.403 . S
H1689 C1695 0.930 . S
C1690 H1676 0.930 . S
C1690 C1688 1.395 . S
C1690 C1693 1.392 1_545 S
C1691 C1688 1.403 . S
C1691 C1692 1.524 . S
C1691 C1695 1.400 1_545 S
C1692 H1677 0.960 1_545 S
C1692 H1678 0.960 . S
C1692 H1679 0.960 . S
C1692 C1691 1.524 . S
C1693 C1690 1.392 1_565 S
C1693 C1694 1.403 . S
C1693 C1697 1.494 . S
C1694 C1693 1.403 . S
C1694 C1695 1.385 . S
C1694 C1696 1.478 . S
C1695 H1689 0.930 . S
C1695 C1691 1.400 1_565 S
C1695 C1694 1.385 . S
C1696 C1694 1.478 . S
C1696 C1698 1.381 . S
C1696 C1702 1.383 . S
C1697 C1693 1.494 . S
C1697 H1703 0.900 1_565 S
C1697 H1704 1.016 . S
C1697 H1705 0.970 . S
C1698 C1696 1.381 . S
C1698 C1699 1.394 . S
C1698 H1706 0.930 . S
C1699 C1698 1.394 . S
C1699 C1700 1.383 . S
C1699 H1707 0.929 . S
C1700 C1699 1.383 . S
C1700 C1701 1.377 . S
C1701 H1685 0.930 . S
C1701 C1700 1.377 . S
C1701 C1702 1.379 . S
C1702 H1686 0.931 . S
C1702 C1696 1.383 . S
C1702 C1701 1.379 . S
H1703 C1697 0.900 1_545 S
H1704 C1697 1.016 . S
H1705 C1697 0.970 . S
H1706 C1698 0.930 . S
H1707 C1699 0.929 . S
H1708 C1716 0.929 . S
H1709 C1718 0.930 . S
H1710 C1720 0.930 . S
H1711 C1723 0.929 . S
H1712 C1726 0.930 . S
H1713 C1728 0.960 1_655 S
H1714 C1728 0.960 . S
H1715 C1728 0.960 . S
C1716 H1708 0.929 . S
C1716 C1717 1.377 . S
C1716 C1718 1.384 . S
C1717 C1716 1.377 . S
C1717 C1723 1.390 . S
C1718 H1709 0.930 . S
C1718 C1716 1.384 . S
C1718 C1719 1.372 . S
C1719 C1718 1.372 . S
C1719 C1720 1.400 . S
C1719 C1724 1.490 . S
C1720 H1710 0.930 . S
C1720 C1719 1.400 . S
C1720 C1723 1.386 . S
H1721 C1737 0.930 . S
H1722 C1738 0.931 . S
C1723 H1711 0.929 . S
C1723 C1717 1.390 . S
C1723 C1720 1.386 . S
C1724 C1719 1.490 . S
C1724 C1726 1.395 . S
C1724 C1727 1.403 . S
H1725 C1731 0.930 . S
C1726 H1712 0.930 . S
C1726 C1724 1.395 . S
C1726 C1729 1.403 1_455 S
C1727 C1724 1.403 . S
C1727 C1728 1.524 . S
C1727 C1731 1.400 1_455 S
C1728 H1713 0.960 1_455 S
C1728 H1714 0.960 . S
C1728 H1715 0.960 . S
C1728 C1727 1.524 . S
C1729 C1726 1.403 1_655 S
C1729 C1730 1.392 . S
C1729 C1733 1.495 . S
C1730 C1729 1.392 . S
C1730 C1731 1.385 . S
C1730 C1732 1.478 . S
C1731 H1725 0.930 . S
C1731 C1727 1.400 1_655 S
C1731 C1730 1.385 . S
C1732 C1730 1.478 . S
C1732 C1734 1.381 . S
C1732 C1738 1.383 . S
C1733 C1729 1.495 . S
C1733 H1739 0.959 1_655 S
C1733 H1740 0.961 . S
C1733 H1741 0.960 . S
C1734 C1732 1.381 . S
C1734 C1735 1.394 . S
C1734 H1742 0.930 . S
C1735 C1734 1.394 . S
C1735 C1736 1.383 . S
C1735 H1743 0.929 . S
C1736 C1735 1.383 . S
C1736 C1737 1.377 . S
C1737 H1721 0.930 . S
C1737 C1736 1.377 . S
C1737 C1738 1.379 . S
C1738 H1722 0.931 . S
C1738 C1732 1.383 . S
C1738 C1737 1.379 . S
H1739 C1733 0.959 1_455 S
H1740 C1733 0.961 . S
H1741 C1733 0.960 . S
H1742 C1734 0.930 . S
H1743 C1735 0.929 . S
H1744 C1752 0.929 . S
H1745 C1754 0.930 . S
H1746 C1756 0.930 . S
H1747 C1759 0.929 . S
H1748 C1762 0.930 . S
H1749 C1764 0.960 . S
H1750 C1764 0.960 . S
H1751 C1764 0.960 . S
C1752 H1744 0.929 . S
C1752 C1753 1.377 . S
C1752 C1754 1.384 . S
C1753 C1752 1.377 . S
C1753 C1759 1.390 . S
C1754 H1745 0.930 . S
C1754 C1752 1.384 . S
C1754 C1755 1.372 . S
C1755 C1754 1.372 . S
C1755 C1756 1.400 . S
C1755 C1760 1.490 . S
C1756 H1746 0.930 . S
C1756 C1755 1.400 . S
C1756 C1759 1.386 . S
H1757 C1773 0.930 . S
H1758 C1774 0.931 . S
C1759 H1747 0.929 . S
C1759 C1753 1.390 . S
C1759 C1756 1.386 . S
C1760 C1755 1.490 . S
C1760 C1762 1.395 . S
C1760 C1763 1.403 . S
H1761 C1767 0.930 . S
C1762 H1748 0.930 . S
C1762 C1760 1.395 . S
C1762 C1765 1.403 1_565 S
C1763 C1760 1.403 . S
C1763 C1764 1.524 . S
C1763 C1767 1.400 1_565 S
C1764 H1749 0.960 . S
C1764 H1750 0.960 . S
C1764 H1751 0.960 . S
C1764 C1763 1.524 . S
C1765 C1762 1.403 1_545 S
C1765 C1766 1.392 . S
C1765 C1769 1.495 . S
C1766 C1765 1.392 . S
C1766 C1767 1.385 . S
C1766 C1768 1.478 . S
C1767 H1761 0.930 . S
C1767 C1763 1.400 1_545 S
C1767 C1766 1.385 . S
C1768 C1766 1.478 . S
C1768 C1770 1.381 . S
C1768 C1774 1.383 . S
C1769 C1765 1.495 . S
C1769 H1775 0.959 . S
C1769 H1776 0.961 . S
C1769 H1777 0.960 . S
C1770 C1768 1.381 . S
C1770 C1771 1.394 . S
C1770 H1778 0.930 . S
C1771 C1770 1.394 . S
C1771 C1772 1.383 . S
C1771 H1779 0.929 . S
C1772 C1771 1.383 . S
C1772 C1773 1.377 . S
C1773 H1757 0.930 . S
C1773 C1772 1.377 . S
C1773 C1774 1.379 . S
C1774 H1758 0.931 . S
C1774 C1768 1.383 . S
C1774 C1773 1.379 . S
H1775 C1769 0.959 . S
H1776 C1769 0.961 . S
H1777 C1769 0.960 . S
H1778 C1770 0.930 . S
H1779 C1771 0.929 . S
H1780 C1788 0.929 . S
H1781 C1790 0.930 . S
H1782 C1792 0.930 . S
H1783 C1795 0.929 . S
H1784 C1798 0.930 . S
H1785 C1800 0.960 . S
H1786 C1800 0.960 . S
H1787 C1800 0.960 . S
C1788 H1780 0.929 . S
C1788 C1789 1.377 . S
C1788 C1790 1.384 . S
C1789 C1788 1.377 . S
C1789 C1795 1.390 . S
C1790 H1781 0.930 . S
C1790 C1788 1.384 . S
C1790 C1791 1.372 . S
C1791 C1790 1.372 . S
C1791 C1792 1.400 . S
C1791 C1796 1.490 . S
C1792 H1782 0.930 . S
C1792 C1791 1.400 . S
C1792 C1795 1.386 . S
H1793 C1809 0.930 . S
H1794 C1810 0.931 . S
C1795 H1783 0.929 . S
C1795 C1789 1.390 . S
C1795 C1792 1.386 . S
C1796 C1791 1.490 . S
C1796 C1798 1.395 . S
C1796 C1799 1.403 . S
H1797 C1803 0.930 . S
C1798 H1784 0.930 . S
C1798 C1796 1.395 . S
C1798 C1801 1.403 1_655 S
C1799 C1796 1.403 . S
C1799 C1800 1.524 . S
C1799 C1803 1.400 1_655 S
C1800 H1785 0.960 . S
C1800 H1786 0.960 . S
C1800 H1787 0.960 . S
C1800 C1799 1.524 . S
C1801 C1798 1.403 1_455 S
C1801 C1802 1.392 . S
C1801 C1805 1.495 . S
C1802 C1801 1.392 . S
C1802 C1803 1.385 . S
C1802 C1804 1.478 . S
C1803 H1797 0.930 . S
C1803 C1799 1.400 1_455 S
C1803 C1802 1.385 . S
C1804 C1802 1.478 . S
C1804 C1806 1.381 . S
C1804 C1810 1.383 . S
C1805 C1801 1.495 . S
C1805 H1811 0.959 . S
C1805 H1812 0.961 . S
C1805 H1813 0.960 . S
C1806 C1804 1.381 . S
C1806 C1807 1.394 . S
C1806 H1814 0.930 . S
C1807 C1806 1.394 . S
C1807 C1808 1.383 . S
C1807 H1815 0.929 . S
C1808 C1807 1.383 . S
C1808 C1809 1.377 . S
C1809 H1793 0.930 . S
C1809 C1808 1.377 . S
C1809 C1810 1.379 . S
C1810 H1794 0.931 . S
C1810 C1804 1.383 . S
C1810 C1809 1.379 . S
H1811 C1805 0.959 . S
H1812 C1805 0.961 . S
H1813 C1805 0.960 . S
H1814 C1806 0.930 . S
H1815 C1807 0.929 . S
H1816 C1824 0.929 . S
H1817 C1826 0.930 . S
H1818 C1828 0.930 . S
H1819 C1831 0.929 . S
H1820 C1834 0.930 . S
H1821 C1836 0.960 . S
H1822 C1836 0.960 . S
H1823 C1836 0.960 . S
C1824 H1816 0.929 . S
C1824 C1825 1.377 . S
C1824 C1826 1.384 . S
C1825 C1824 1.377 . S
C1825 C1831 1.390 . S
C1826 H1817 0.930 . S
C1826 C1824 1.384 . S
C1826 C1827 1.372 . S
C1827 C1826 1.372 . S
C1827 C1828 1.400 . S
C1827 C1832 1.490 . S
C1828 H1818 0.930 . S
C1828 C1827 1.400 . S
C1828 C1831 1.386 . S
H1829 C1845 0.930 . S
H1830 C1846 0.931 . S
C1831 H1819 0.929 . S
C1831 C1825 1.390 . S
C1831 C1828 1.386 . S
C1832 C1827 1.490 . S
C1832 C1834 1.395 . S
C1832 C1835 1.403 . S
H1833 C1839 0.930 . S
C1834 H1820 0.930 . S
C1834 C1832 1.395 . S
C1834 C1837 1.403 1_565 S
C1835 C1832 1.403 . S
C1835 C1836 1.524 . S
C1835 C1839 1.400 1_565 S
C1836 H1821 0.960 . S
C1836 H1822 0.960 . S
C1836 H1823 0.960 . S
C1836 C1835 1.524 . S
C1837 C1834 1.403 1_545 S
C1837 C1838 1.392 . S
C1837 C1841 1.495 . S
C1838 C1837 1.392 . S
C1838 C1839 1.385 . S
C1838 C1840 1.478 . S
C1839 H1833 0.930 . S
C1839 C1835 1.400 1_545 S
C1839 C1838 1.385 . S
C1840 C1838 1.478 . S
C1840 C1842 1.381 . S
C1840 C1846 1.383 . S
C1841 C1837 1.495 . S
C1841 H1847 0.959 . S
C1841 H1848 0.961 . S
C1841 H1849 0.960 . S
C1842 C1840 1.381 . S
C1842 C1843 1.394 . S
C1842 H1850 0.930 . S
C1843 C1842 1.394 . S
C1843 C1844 1.383 . S
C1843 H1851 0.929 . S
C1844 C1843 1.383 . S
C1844 C1845 1.377 . S
C1845 H1829 0.930 . S
C1845 C1844 1.377 . S
C1845 C1846 1.379 . S
C1846 H1830 0.931 . S
C1846 C1840 1.383 . S
C1846 C1845 1.379 . S
H1847 C1841 0.959 . S
H1848 C1841 0.961 . S
H1849 C1841 0.960 . S
H1850 C1842 0.930 . S
H1851 C1843 0.929 . S
H1852 C1860 0.929 . S
H1853 C1862 0.930 . S
H1854 C1864 0.930 . S
H1855 C1867 0.929 . S
H1856 C1870 0.930 . S
H1857 C1872 0.960 . S
H1858 C1872 0.970 . S
H1859 C1872 0.960 1_655 S
C1860 H1852 0.929 . S
C1860 C1861 1.377 . S
C1860 C1862 1.384 . S
C1861 C1860 1.377 . S
C1861 C1867 1.390 . S
C1862 H1853 0.930 . S
C1862 C1860 1.384 . S
C1862 C1863 1.372 . S
C1863 C1862 1.372 . S
C1863 C1864 1.400 . S
C1863 C1868 1.490 . S
C1864 H1854 0.930 . S
C1864 C1863 1.400 . S
C1864 C1867 1.386 . S
H1865 C1881 0.930 . S
H1866 C1882 0.931 . S
C1867 H1855 0.929 . S
C1867 C1861 1.390 . S
C1867 C1864 1.386 . S
C1868 C1863 1.490 . S
C1868 C1870 1.395 . S
C1868 C1871 1.368 1_655 S
H1869 C1875 0.930 . S
C1870 H1856 0.930 . S
C1870 C1868 1.395 . S
C1870 C1873 1.403 . S
C1871 C1868 1.368 1_455 S
C1871 C1872 1.529 . S
C1871 C1875 1.431 . S
C1872 H1857 0.960 . S
C1872 H1858 0.970 . S
C1872 H1859 0.960 1_455 S
C1872 C1871 1.529 . S
C1873 C1870 1.403 . S
C1873 C1874 1.392 1_655 S
C1873 C1877 1.495 . S
C1874 C1873 1.392 1_455 S
C1874 C1875 1.385 . S
C1874 C1876 1.478 . S
C1875 H1869 0.930 . S
C1875 C1871 1.431 . S
C1875 C1874 1.385 . S
C1876 C1874 1.478 . S
C1876 C1878 1.381 . S
C1876 C1882 1.383 . S
C1877 C1873 1.495 . S
C1877 H1883 0.959 . S
C1877 H1884 0.961 . S
C1877 H1885 0.960 1_655 S
C1878 C1876 1.381 . S
C1878 C1879 1.394 . S
C1878 H1886 0.930 . S
C1879 C1878 1.394 . S
C1879 C1880 1.383 . S
C1879 H1887 0.929 . S
C1880 C1879 1.383 . S
C1880 C1881 1.377 . S
C1881 H1865 0.930 . S
C1881 C1880 1.377 . S
C1881 C1882 1.379 . S
C1882 H1866 0.931 . S
C1882 C1876 1.383 . S
C1882 C1881 1.379 . S
H1883 C1877 0.959 . S
H1884 C1877 0.961 . S
H1885 C1877 0.960 1_455 S
H1886 C1878 0.930 . S
H1887 C1879 0.929 . S
H1888 C1896 0.929 . S
H1889 C1898 0.930 . S
H1890 C1900 0.930 . S
H1891 C1903 0.929 . S
H1892 C1906 0.930 . S
H1893 C1908 0.960 . S
H1894 C1908 0.960 . S
H1895 C1908 0.960 . S
C1896 H1888 0.929 . S
C1896 C1897 1.377 . S
C1896 C1898 1.384 . S
C1897 C1896 1.377 . S
C1897 C1903 1.390 . S
C1898 H1889 0.930 . S
C1898 C1896 1.384 . S
C1898 C1899 1.372 . S
C1899 C1898 1.372 . S
C1899 C1900 1.400 . S
C1899 C1904 1.490 . S
C1900 H1890 0.930 . S
C1900 C1899 1.400 . S
C1900 C1903 1.386 . S
H1901 C1917 0.930 . S
H1902 C1918 0.931 . S
C1903 H1891 0.929 . S
C1903 C1897 1.390 . S
C1903 C1900 1.386 . S
C1904 C1899 1.490 . S
C1904 C1906 1.395 . S
C1904 C1907 1.403 . S
H1905 C1911 0.930 . S
C1906 H1892 0.930 . S
C1906 C1904 1.395 . S
C1906 C1909 1.403 . S
C1907 C1904 1.403 . S
C1907 C1908 1.524 . S
C1907 C1911 1.400 . S
C1908 H1893 0.960 . S
C1908 H1894 0.960 . S
C1908 H1895 0.960 . S
C1908 C1907 1.524 . S
C1909 C1906 1.403 . S
C1909 C1910 1.392 . S
C1909 C1913 1.495 . S
C1910 C1909 1.392 . S
C1910 C1911 1.385 . S
C1910 C1912 1.478 . S
C1911 H1905 0.930 . S
C1911 C1907 1.400 . S
C1911 C1910 1.385 . S
C1912 C1910 1.478 . S
C1912 C1914 1.381 . S
C1912 C1918 1.383 . S
C1913 C1909 1.495 . S
C1913 H1919 0.959 . S
C1913 H1920 0.961 . S
C1913 H1921 0.960 . S
C1914 C1912 1.381 . S
C1914 C1915 1.394 . S
C1914 H1922 0.930 . S
C1915 C1914 1.394 . S
C1915 C1916 1.383 . S
C1915 H1923 0.929 . S
C1916 C1915 1.383 . S
C1916 C1917 1.377 . S
C1917 H1901 0.930 . S
C1917 C1916 1.377 . S
C1917 C1918 1.379 . S
C1918 H1902 0.931 . S
C1918 C1912 1.383 . S
C1918 C1917 1.379 . S
H1919 C1913 0.959 . S
H1920 C1913 0.961 . S
H1921 C1913 0.960 . S
H1922 C1914 0.930 . S
H1923 C1915 0.929 . S
H1924 C1932 0.929 . S
H1925 C1934 0.930 . S
H1926 C1936 0.930 . S
H1927 C1939 0.929 . S
H1928 C1942 0.930 . S
H1929 C1944 0.960 . S
H1930 C1944 0.960 . S
H1931 C1944 0.960 . S
C1932 H1924 0.929 . S
C1932 C1933 1.377 . S
C1932 C1934 1.384 . S
C1933 C1932 1.377 . S
C1933 C1939 1.390 . S
C1934 H1925 0.930 . S
C1934 C1932 1.384 . S
C1934 C1935 1.372 . S
C1935 C1934 1.372 . S
C1935 C1936 1.400 . S
C1935 C1940 1.490 . S
C1936 H1926 0.930 . S
C1936 C1935 1.400 . S
C1936 C1939 1.386 . S
H1937 C1953 0.930 . S
H1938 C1954 0.931 . S
C1939 H1927 0.929 . S
C1939 C1933 1.390 . S
C1939 C1936 1.386 . S
C1940 C1935 1.490 . S
C1940 C1942 1.395 . S
C1940 C1943 1.403 . S
H1941 C1947 0.930 . S
C1942 H1928 0.930 . S
C1942 C1940 1.395 . S
C1942 C1945 1.403 . S
C1943 C1940 1.403 . S
C1943 C1944 1.524 . S
C1943 C1947 1.400 . S
C1944 H1929 0.960 . S
C1944 H1930 0.960 . S
C1944 H1931 0.960 . S
C1944 C1943 1.524 . S
C1945 C1942 1.403 . S
C1945 C1946 1.392 . S
C1945 C1949 1.495 . S
C1946 C1945 1.392 . S
C1946 C1947 1.385 . S
C1946 C1948 1.478 . S
C1947 H1941 0.930 . S
C1947 C1943 1.400 . S
C1947 C1946 1.385 . S
C1948 C1946 1.478 . S
C1948 C1950 1.381 . S
C1948 C1954 1.383 . S
C1949 C1945 1.495 . S
C1949 H1955 0.959 . S
C1949 H1956 0.961 . S
C1949 H1957 0.960 . S
C1950 C1948 1.381 . S
C1950 C1951 1.394 . S
C1950 H1958 0.930 . S
C1951 C1950 1.394 . S
C1951 C1952 1.383 . S
C1951 H1959 0.929 . S
C1952 C1951 1.383 . S
C1952 C1953 1.377 . S
C1953 H1937 0.930 . S
C1953 C1952 1.377 . S
C1953 C1954 1.379 . S
C1954 H1938 0.931 . S
C1954 C1948 1.383 . S
C1954 C1953 1.379 . S
H1955 C1949 0.959 . S
H1956 C1949 0.961 . S
H1957 C1949 0.960 . S
H1958 C1950 0.930 . S
H1959 C1951 0.929 . S
H1960 C1968 0.929 . S
H1961 C1970 0.930 . S
H1962 C1972 0.930 . S
H1963 C1975 0.929 . S
H1964 C1978 0.930 . S
H1965 C1980 0.960 . S
H1966 C1980 0.960 . S
H1967 C1980 0.960 . S
C1968 H1960 0.929 . S
C1968 C1969 1.377 . S
C1968 C1970 1.384 . S
C1969 C1968 1.377 . S
C1969 C1975 1.390 . S
C1970 H1961 0.930 . S
C1970 C1968 1.384 . S
C1970 C1971 1.372 . S
C1971 C1970 1.372 . S
C1971 C1972 1.400 . S
C1971 C1976 1.490 . S
C1972 H1962 0.930 . S
C1972 C1971 1.400 . S
C1972 C1975 1.386 . S
H1973 C1989 0.930 . S
H1974 C1990 0.931 . S
C1975 H1963 0.929 . S
C1975 C1969 1.390 . S
C1975 C1972 1.386 . S
C1976 C1971 1.490 . S
C1976 C1978 1.395 . S
C1976 C1979 1.403 . S
H1977 C1983 0.930 . S
C1978 H1964 0.930 . S
C1978 C1976 1.395 . S
C1978 C1981 1.403 . S
C1979 C1976 1.403 . S
C1979 C1980 1.524 . S
C1979 C1983 1.400 . S
C1980 H1965 0.960 . S
C1980 H1966 0.960 . S
C1980 H1967 0.960 . S
C1980 C1979 1.524 . S
C1981 C1978 1.403 . S
C1981 C1982 1.392 . S
C1981 C1985 1.495 . S
C1982 C1981 1.392 . S
C1982 C1983 1.385 . S
C1982 C1984 1.478 . S
C1983 H1977 0.930 . S
C1983 C1979 1.400 . S
C1983 C1982 1.385 . S
C1984 C1982 1.478 . S
C1984 C1986 1.381 . S
C1984 C1990 1.383 . S
C1985 C1981 1.495 . S
C1985 H1991 0.959 . S
C1985 H1992 0.961 . S
C1985 H1993 0.960 . S
C1986 C1984 1.381 . S
C1986 C1987 1.394 . S
C1986 H1994 0.930 . S
C1987 C1986 1.394 . S
C1987 C1988 1.383 . S
C1987 H1995 0.929 . S
C1988 C1987 1.383 . S
C1988 C1989 1.377 . S
C1989 H1973 0.930 . S
C1989 C1988 1.377 . S
C1989 C1990 1.379 . S
C1990 H1974 0.931 . S
C1990 C1984 1.383 . S
C1990 C1989 1.379 . S
H1991 C1985 0.959 . S
H1992 C1985 0.961 . S
H1993 C1985 0.960 . S
H1994 C1986 0.930 . S
H1995 C1987 0.929 . S
H1996 C2004 0.929 . S
H1997 C2006 0.930 . S
H1998 C2008 0.930 . S
H1999 C2011 0.929 . S
H2000 C2014 0.930 . S
H2001 C2016 0.960 . S
H2002 C2016 0.960 . S
H2003 C2016 0.960 . S
C2004 H1996 0.929 . S
C2004 C2005 1.377 . S
C2004 C2006 1.384 . S
C2005 C2004 1.377 . S
C2005 C2011 1.390 . S
C2006 H1997 0.930 . S
C2006 C2004 1.384 . S
C2006 C2007 1.372 . S
C2007 C2006 1.372 . S
C2007 C2008 1.400 . S
C2007 C2012 1.490 . S
C2008 H1998 0.930 . S
C2008 C2007 1.400 . S
C2008 C2011 1.386 . S
H2009 C2025 0.930 . S
H2010 C2026 0.931 . S
C2011 H1999 0.929 . S
C2011 C2005 1.390 . S
C2011 C2008 1.386 . S
C2012 C2007 1.490 . S
C2012 C2014 1.395 . S
C2012 C2015 1.403 . S
H2013 C2019 0.930 . S
C2014 H2000 0.930 . S
C2014 C2012 1.395 . S
C2014 C2017 1.403 . S
C2015 C2012 1.403 . S
C2015 C2016 1.524 . S
C2015 C2019 1.400 . S
C2016 H2001 0.960 . S
C2016 H2002 0.960 . S
C2016 H2003 0.960 . S
C2016 C2015 1.524 . S
C2017 C2014 1.403 . S
C2017 C2018 1.392 . S
C2017 C2021 1.495 . S
C2018 C2017 1.392 . S
C2018 C2019 1.385 . S
C2018 C2020 1.478 . S
C2019 H2013 0.930 . S
C2019 C2015 1.400 . S
C2019 C2018 1.385 . S
C2020 C2018 1.478 . S
C2020 C2022 1.381 . S
C2020 C2026 1.383 . S
C2021 C2017 1.495 . S
C2021 H2027 0.959 . S
C2021 H2028 0.961 . S
C2021 H2029 0.960 . S
C2022 C2020 1.381 . S
C2022 C2023 1.394 . S
C2022 H2030 0.930 . S
C2023 C2022 1.394 . S
C2023 C2024 1.383 . S
C2023 H2031 0.929 . S
C2024 C2023 1.383 . S
C2024 C2025 1.377 . S
C2025 H2009 0.930 . S
C2025 C2024 1.377 . S
C2025 C2026 1.379 . S
C2026 H2010 0.931 . S
C2026 C2020 1.383 . S
C2026 C2025 1.379 . S
H2027 C2021 0.959 . S
H2028 C2021 0.961 . S
H2029 C2021 0.960 . S
H2030 C2022 0.930 . S
H2031 C2023 0.929 . S
H2032 C2040 0.929 . S
H2033 C2042 0.930 . S
H2034 C2044 0.930 . S
H2035 C2047 0.929 . S
H2036 C2050 0.930 . S
H2037 C2052 0.960 . S
H2038 C2052 0.960 . S
H2039 C2052 0.960 . S
C2040 H2032 0.929 . S
C2040 C2041 1.377 . S
C2040 C2042 1.384 . S
C2041 C2040 1.377 . S
C2041 C2047 1.390 . S
C2042 H2033 0.930 . S
C2042 C2040 1.384 . S
C2042 C2043 1.372 . S
C2043 C2042 1.372 . S
C2043 C2044 1.400 . S
C2043 C2048 1.490 . S
C2044 H2034 0.930 . S
C2044 C2043 1.400 . S
C2044 C2047 1.386 . S
H2045 C2061 0.930 . S
H2046 C2062 0.931 . S
C2047 H2035 0.929 . S
C2047 C2041 1.390 . S
C2047 C2044 1.386 . S
C2048 C2043 1.490 . S
C2048 C2050 1.395 . S
C2048 C2051 1.403 . S
H2049 C2055 0.930 . S
C2050 H2036 0.930 . S
C2050 C2048 1.395 . S
C2050 C2053 1.403 . S
C2051 C2048 1.403 . S
C2051 C2052 1.524 . S
C2051 C2055 1.400 . S
C2052 H2037 0.960 . S
C2052 H2038 0.960 . S
C2052 H2039 0.960 . S
C2052 C2051 1.524 . S
C2053 C2050 1.403 . S
C2053 C2054 1.392 . S
C2053 C2057 1.495 . S
C2054 C2053 1.392 . S
C2054 C2055 1.385 . S
C2054 C2056 1.478 . S
C2055 H2049 0.930 . S
C2055 C2051 1.400 . S
C2055 C2054 1.385 . S
C2056 C2054 1.478 . S
C2056 C2058 1.381 . S
C2056 C2062 1.383 . S
C2057 C2053 1.495 . S
C2057 H2063 0.959 . S
C2057 H2064 0.961 . S
C2057 H2065 0.960 . S
C2058 C2056 1.381 . S
C2058 C2059 1.394 . S
C2058 H2066 0.930 . S
C2059 C2058 1.394 . S
C2059 C2060 1.383 . S
C2059 H2067 0.929 . S
C2060 C2059 1.383 . S
C2060 C2061 1.377 . S
C2061 H2045 0.930 . S
C2061 C2060 1.377 . S
C2061 C2062 1.379 . S
C2062 H2046 0.931 . S
C2062 C2056 1.383 . S
C2062 C2061 1.379 . S
H2063 C2057 0.959 . S
H2064 C2057 0.961 . S
H2065 C2057 0.960 . S
H2066 C2058 0.930 . S
H2067 C2059 0.929 . S
H2068 C2076 0.929 . S
H2069 C2078 0.930 . S
H2070 C2080 0.930 . S
H2071 C2083 0.929 . S
H2072 C2086 0.930 . S
H2073 C2088 0.960 . S
H2074 C2088 0.960 . S
H2075 C2088 0.960 . S
C2076 H2068 0.929 . S
C2076 C2077 1.377 . S
C2076 C2078 1.384 . S
C2077 C2076 1.377 . S
C2077 C2083 1.390 . S
C2078 H2069 0.930 . S
C2078 C2076 1.384 . S
C2078 C2079 1.372 . S
C2079 C2078 1.372 . S
C2079 C2080 1.400 . S
C2079 C2084 1.490 . S
C2080 H2070 0.930 . S
C2080 C2079 1.400 . S
C2080 C2083 1.386 . S
H2081 C2097 0.930 . S
H2082 C2098 0.931 . S
C2083 H2071 0.929 . S
C2083 C2077 1.390 . S
C2083 C2080 1.386 . S
C2084 C2079 1.490 . S
C2084 C2086 1.395 . S
C2084 C2087 1.403 . S
H2085 C2091 0.930 . S
C2086 H2072 0.930 . S
C2086 C2084 1.395 . S
C2086 C2089 1.403 . S
C2087 C2084 1.403 . S
C2087 C2088 1.524 . S
C2087 C2091 1.400 . S
C2088 H2073 0.960 . S
C2088 H2074 0.960 . S
C2088 H2075 0.960 . S
C2088 C2087 1.524 . S
C2089 C2086 1.403 . S
C2089 C2090 1.392 . S
C2089 C2093 1.495 . S
C2090 C2089 1.392 . S
C2090 C2091 1.385 . S
C2090 C2092 1.478 . S
C2091 H2085 0.930 . S
C2091 C2087 1.400 . S
C2091 C2090 1.385 . S
C2092 C2090 1.478 . S
C2092 C2094 1.381 . S
C2092 C2098 1.383 . S
C2093 C2089 1.495 . S
C2093 H2099 0.959 . S
C2093 H2100 0.961 . S
C2093 H2101 0.960 . S
C2094 C2092 1.381 . S
C2094 C2095 1.394 . S
C2094 H2102 0.930 . S
C2095 C2094 1.394 . S
C2095 C2096 1.383 . S
C2095 H2103 0.929 . S
C2096 C2095 1.383 . S
C2096 C2097 1.377 . S
C2097 H2081 0.930 . S
C2097 C2096 1.377 . S
C2097 C2098 1.379 . S
C2098 H2082 0.931 . S
C2098 C2092 1.383 . S
C2098 C2097 1.379 . S
H2099 C2093 0.959 . S
H2100 C2093 0.961 . S
H2101 C2093 0.960 . S
H2102 C2094 0.930 . S
H2103 C2095 0.929 . S
H2104 C2112 0.929 . S
H2105 C2114 0.930 . S
H2106 C2116 0.930 . S
H2107 C2119 0.929 . S
H2108 C2122 0.930 . S
H2109 C2124 0.960 . S
H2110 C2124 0.960 . S
H2111 C2124 0.960 . S
C2112 H2104 0.929 . S
C2112 C2113 1.377 . S
C2112 C2114 1.384 . S
C2113 C2112 1.377 . S
C2113 C2119 1.390 . S
C2114 H2105 0.930 . S
C2114 C2112 1.384 . S
C2114 C2115 1.372 . S
C2115 C2114 1.372 . S
C2115 C2116 1.400 . S
C2115 C2120 1.490 . S
C2116 H2106 0.930 . S
C2116 C2115 1.400 . S
C2116 C2119 1.386 . S
H2117 C2133 0.930 . S
H2118 C2134 0.931 . S
C2119 H2107 0.929 . S
C2119 C2113 1.390 . S
C2119 C2116 1.386 . S
C2120 C2115 1.490 . S
C2120 C2122 1.395 . S
C2120 C2123 1.403 . S
H2121 C2127 0.930 . S
C2122 H2108 0.930 . S
C2122 C2120 1.395 . S
C2122 C2125 1.403 . S
C2123 C2120 1.403 . S
C2123 C2124 1.524 . S
C2123 C2127 1.400 . S
C2124 H2109 0.960 . S
C2124 H2110 0.960 . S
C2124 H2111 0.960 . S
C2124 C2123 1.524 . S
C2125 C2122 1.403 . S
C2125 C2126 1.392 . S
C2125 C2129 1.495 . S
C2126 C2125 1.392 . S
C2126 C2127 1.385 . S
C2126 C2128 1.478 . S
C2127 H2121 0.930 . S
C2127 C2123 1.400 . S
C2127 C2126 1.385 . S
C2128 C2126 1.478 . S
C2128 C2130 1.381 . S
C2128 C2134 1.383 . S
C2129 C2125 1.495 . S
C2129 H2135 0.959 . S
C2129 H2136 0.961 . S
C2129 H2137 0.960 . S
C2130 C2128 1.381 . S
C2130 C2131 1.394 . S
C2130 H2138 0.930 . S
C2131 C2130 1.394 . S
C2131 C2132 1.383 . S
C2131 H2139 0.929 . S
C2132 C2131 1.383 . S
C2132 C2133 1.377 . S
C2133 H2117 0.930 . S
C2133 C2132 1.377 . S
C2133 C2134 1.379 . S
C2134 H2118 0.931 . S
C2134 C2128 1.383 . S
C2134 C2133 1.379 . S
H2135 C2129 0.959 . S
H2136 C2129 0.961 . S
H2137 C2129 0.960 . S
H2138 C2130 0.930 . S
H2139 C2131 0.929 . S
H2140 C2148 0.929 . S
H2141 C2150 0.930 . S
H2142 C2152 0.930 . S
H2143 C2155 0.929 . S
H2144 C2158 0.930 . S
H2145 C2160 0.960 . S
H2146 C2160 0.960 . S
H2147 C2160 0.960 . S
C2148 H2140 0.929 . S
C2148 C2149 1.377 . S
C2148 C2150 1.384 . S
C2149 C2148 1.377 . S
C2149 C2155 1.390 . S
C2150 H2141 0.930 . S
C2150 C2148 1.384 . S
C2150 C2151 1.372 . S
C2151 C2150 1.372 . S
C2151 C2152 1.400 . S
C2151 C2156 1.490 . S
C2152 H2142 0.930 . S
C2152 C2151 1.400 . S
C2152 C2155 1.386 . S
H2153 C2169 0.930 . S
H2154 C2170 0.931 . S
C2155 H2143 0.929 . S
C2155 C2149 1.390 . S
C2155 C2152 1.386 . S
C2156 C2151 1.490 . S
C2156 C2158 1.395 . S
C2156 C2159 1.403 . S
H2157 C2163 0.930 . S
C2158 H2144 0.930 . S
C2158 C2156 1.395 . S
C2158 C2161 1.403 . S
C2159 C2156 1.403 . S
C2159 C2160 1.524 . S
C2159 C2163 1.400 . S
C2160 H2145 0.960 . S
C2160 H2146 0.960 . S
C2160 H2147 0.960 . S
C2160 C2159 1.524 . S
C2161 C2158 1.403 . S
C2161 C2162 1.392 . S
C2161 C2165 1.495 . S
C2162 C2161 1.392 . S
C2162 C2163 1.385 . S
C2162 C2164 1.478 . S
C2163 H2157 0.930 . S
C2163 C2159 1.400 . S
C2163 C2162 1.385 . S
C2164 C2162 1.478 . S
C2164 C2166 1.381 . S
C2164 C2170 1.383 . S
C2165 C2161 1.495 . S
C2165 H2171 0.959 . S
C2165 H2172 0.961 . S
C2165 H2173 0.960 . S
C2166 C2164 1.381 . S
C2166 C2167 1.394 . S
C2166 H2174 0.930 . S
C2167 C2166 1.394 . S
C2167 C2168 1.383 . S
C2167 H2175 0.929 . S
C2168 C2167 1.383 . S
C2168 C2169 1.377 . S
C2169 H2153 0.930 . S
C2169 C2168 1.377 . S
C2169 C2170 1.379 . S
C2170 H2154 0.931 . S
C2170 C2164 1.383 . S
C2170 C2169 1.379 . S
H2171 C2165 0.959 . S
H2172 C2165 0.961 . S
H2173 C2165 0.960 . S
H2174 C2166 0.930 . S
H2175 C2167 0.929 . S
H2176 C2184 0.929 . S
H2177 C2186 0.930 . S
H2178 C2188 0.930 . S
H2179 C2191 0.929 . S
H2180 C2194 0.930 . S
H2181 C2196 0.960 . S
H2182 C2196 0.960 . S
H2183 C2196 0.960 . S
C2184 H2176 0.929 . S
C2184 C2185 1.377 . S
C2184 C2186 1.384 . S
C2185 C2184 1.377 . S
C2185 C2191 1.390 . S
C2186 H2177 0.930 . S
C2186 C2184 1.384 . S
C2186 C2187 1.372 . S
C2187 C2186 1.372 . S
C2187 C2188 1.400 . S
C2187 C2192 1.490 . S
C2188 H2178 0.930 . S
C2188 C2187 1.400 . S
C2188 C2191 1.386 . S
H2189 C2205 0.930 . S
H2190 C2206 0.931 . S
C2191 H2179 0.929 . S
C2191 C2185 1.390 . S
C2191 C2188 1.386 . S
C2192 C2187 1.490 . S
C2192 C2194 1.395 . S
C2192 C2195 1.403 . S
H2193 C2199 0.930 . S
C2194 H2180 0.930 . S
C2194 C2192 1.395 . S
C2194 C2197 1.403 . S
C2195 C2192 1.403 . S
C2195 C2196 1.524 . S
C2195 C2199 1.400 . S
C2196 H2181 0.960 . S
C2196 H2182 0.960 . S
C2196 H2183 0.960 . S
C2196 C2195 1.524 . S
C2197 C2194 1.403 . S
C2197 C2198 1.392 . S
C2197 C2201 1.495 . S
C2198 C2197 1.392 . S
C2198 C2199 1.385 . S
C2198 C2200 1.478 . S
C2199 H2193 0.930 . S
C2199 C2195 1.400 . S
C2199 C2198 1.385 . S
C2200 C2198 1.478 . S
C2200 C2202 1.381 . S
C2200 C2206 1.383 . S
C2201 C2197 1.495 . S
C2201 H2207 0.959 . S
C2201 H2208 0.961 . S
C2201 H2209 0.960 . S
C2202 C2200 1.381 . S
C2202 C2203 1.394 . S
C2202 H2210 0.930 . S
C2203 C2202 1.394 . S
C2203 C2204 1.383 . S
C2203 H2211 0.929 . S
C2204 C2203 1.383 . S
C2204 C2205 1.377 . S
C2205 H2189 0.930 . S
C2205 C2204 1.377 . S
C2205 C2206 1.379 . S
C2206 H2190 0.931 . S
C2206 C2200 1.383 . S
C2206 C2205 1.379 . S
H2207 C2201 0.959 . S
H2208 C2201 0.961 . S
H2209 C2201 0.960 . S
H2210 C2202 0.930 . S
H2211 C2203 0.929 . S
H2212 C2220 0.929 . S
H2213 C2222 0.930 . S
H2214 C2224 0.930 . S
H2215 C2227 0.929 . S
H2216 C2230 0.930 . S
H2217 C2232 0.960 . S
H2218 C2232 0.960 . S
H2219 C2232 0.960 . S
C2220 H2212 0.929 . S
C2220 C2221 1.377 . S
C2220 C2222 1.384 . S
C2221 C2220 1.377 . S
C2221 C2227 1.390 . S
C2222 H2213 0.930 . S
C2222 C2220 1.384 . S
C2222 C2223 1.372 . S
C2223 C2222 1.372 . S
C2223 C2224 1.400 . S
C2223 C2228 1.490 . S
C2224 H2214 0.930 . S
C2224 C2223 1.400 . S
C2224 C2227 1.386 . S
H2225 C2241 0.930 . S
H2226 C2242 0.931 . S
C2227 H2215 0.929 . S
C2227 C2221 1.390 . S
C2227 C2224 1.386 . S
C2228 C2223 1.490 . S
C2228 C2230 1.395 . S
C2228 C2231 1.403 . S
H2229 C2235 0.930 . S
C2230 H2216 0.930 . S
C2230 C2228 1.395 . S
C2230 C2233 1.403 . S
C2231 C2228 1.403 . S
C2231 C2232 1.524 . S
C2231 C2235 1.400 . S
C2232 H2217 0.960 . S
C2232 H2218 0.960 . S
C2232 H2219 0.960 . S
C2232 C2231 1.524 . S
C2233 C2230 1.403 . S
C2233 C2234 1.392 . S
C2233 C2237 1.495 . S
C2234 C2233 1.392 . S
C2234 C2235 1.385 . S
C2234 C2236 1.478 . S
C2235 H2229 0.930 . S
C2235 C2231 1.400 . S
C2235 C2234 1.385 . S
C2236 C2234 1.478 . S
C2236 C2238 1.381 . S
C2236 C2242 1.383 . S
C2237 C2233 1.495 . S
C2237 H2243 0.959 . S
C2237 H2244 0.961 . S
C2237 H2245 0.960 . S
C2238 C2236 1.381 . S
C2238 C2239 1.394 . S
C2238 H2246 0.930 . S
C2239 C2238 1.394 . S
C2239 C2240 1.383 . S
C2239 H2247 0.929 . S
C2240 C2239 1.383 . S
C2240 C2241 1.377 . S
C2241 H2225 0.930 . S
C2241 C2240 1.377 . S
C2241 C2242 1.379 . S
C2242 H2226 0.931 . S
C2242 C2236 1.383 . S
C2242 C2241 1.379 . S
H2243 C2237 0.959 . S
H2244 C2237 0.961 . S
H2245 C2237 0.960 . S
H2246 C2238 0.930 . S
H2247 C2239 0.929 . S
H2248 C2256 0.929 . S
H2249 C2258 0.930 . S
H2250 C2260 0.930 . S
H2251 C2263 0.929 . S
H2252 C2266 0.930 . S
H2253 C2268 0.960 . S
H2254 C2268 0.960 . S
H2255 C2268 0.960 . S
C2256 H2248 0.929 . S
C2256 C2257 1.377 . S
C2256 C2258 1.384 . S
C2257 C2256 1.377 . S
C2257 C2263 1.390 . S
C2258 H2249 0.930 . S
C2258 C2256 1.384 . S
C2258 C2259 1.372 . S
C2259 C2258 1.372 . S
C2259 C2260 1.400 . S
C2259 C2264 1.490 . S
C2260 H2250 0.930 . S
C2260 C2259 1.400 . S
C2260 C2263 1.386 . S
H2261 C2277 0.930 . S
H2262 C2278 0.931 . S
C2263 H2251 0.929 . S
C2263 C2257 1.390 . S
C2263 C2260 1.386 . S
C2264 C2259 1.490 . S
C2264 C2266 1.395 . S
C2264 C2267 1.403 . S
H2265 C2271 0.930 . S
C2266 H2252 0.930 . S
C2266 C2264 1.395 . S
C2266 C2269 1.403 . S
C2267 C2264 1.403 . S
C2267 C2268 1.524 . S
C2267 C2271 1.400 . S
C2268 H2253 0.960 . S
C2268 H2254 0.960 . S
C2268 H2255 0.960 . S
C2268 C2267 1.524 . S
C2269 C2266 1.403 . S
C2269 C2270 1.392 . S
C2269 C2273 1.495 . S
C2270 C2269 1.392 . S
C2270 C2271 1.385 . S
C2270 C2272 1.478 . S
C2271 H2265 0.930 . S
C2271 C2267 1.400 . S
C2271 C2270 1.385 . S
C2272 C2270 1.478 . S
C2272 C2274 1.381 . S
C2272 C2278 1.383 . S
C2273 C2269 1.495 . S
C2273 H2279 0.959 . S
C2273 H2280 0.961 . S
C2273 H2281 0.960 . S
C2274 C2272 1.381 . S
C2274 C2275 1.394 . S
C2274 H2282 0.930 . S
C2275 C2274 1.394 . S
C2275 C2276 1.383 . S
C2275 H2283 0.929 . S
C2276 C2275 1.383 . S
C2276 C2277 1.377 . S
C2277 H2261 0.930 . S
C2277 C2276 1.377 . S
C2277 C2278 1.379 . S
C2278 H2262 0.931 . S
C2278 C2272 1.383 . S
C2278 C2277 1.379 . S
H2279 C2273 0.959 . S
H2280 C2273 0.961 . S
H2281 C2273 0.960 . S
H2282 C2274 0.930 . S
H2283 C2275 0.929 . S
H2284 C2292 0.929 . S
H2285 C2294 0.930 . S
H2286 C2296 0.930 . S
H2287 C2299 0.929 . S
H2288 C2302 0.930 . S
H2289 C2304 0.960 . S
H2290 C2304 0.960 . S
H2291 C2304 0.960 . S
C2292 H2284 0.929 . S
C2292 C2293 1.377 . S
C2292 C2294 1.384 . S
C2293 C2292 1.377 . S
C2293 C2299 1.390 . S
C2294 H2285 0.930 . S
C2294 C2292 1.384 . S
C2294 C2295 1.372 . S
C2295 C2294 1.372 . S
C2295 C2296 1.400 . S
C2295 C2300 1.490 . S
C2296 H2286 0.930 . S
C2296 C2295 1.400 . S
C2296 C2299 1.386 . S
H2297 C2313 0.930 . S
H2298 C2314 0.931 . S
C2299 H2287 0.929 . S
C2299 C2293 1.390 . S
C2299 C2296 1.386 . S
C2300 C2295 1.490 . S
C2300 C2302 1.395 . S
C2300 C2303 1.403 . S
H2301 C2307 0.930 . S
C2302 H2288 0.930 . S
C2302 C2300 1.395 . S
C2302 C2305 1.403 . S
C2303 C2300 1.403 . S
C2303 C2304 1.524 . S
C2303 C2307 1.400 . S
C2304 H2289 0.960 . S
C2304 H2290 0.960 . S
C2304 H2291 0.960 . S
C2304 C2303 1.524 . S
C2305 C2302 1.403 . S
C2305 C2306 1.392 . S
C2305 C2309 1.495 . S
C2306 C2305 1.392 . S
C2306 C2307 1.385 . S
C2306 C2308 1.478 . S
C2307 H2301 0.930 . S
C2307 C2303 1.400 . S
C2307 C2306 1.385 . S
C2308 C2306 1.478 . S
C2308 C2310 1.381 . S
C2308 C2314 1.383 . S
C2309 C2305 1.495 . S
C2309 H2315 0.959 . S
C2309 H2316 0.961 . S
C2309 H2317 0.960 . S
C2310 C2308 1.381 . S
C2310 C2311 1.394 . S
C2310 H2318 0.930 . S
C2311 C2310 1.394 . S
C2311 C2312 1.383 . S
C2311 H2319 0.929 . S
C2312 C2311 1.383 . S
C2312 C2313 1.377 . S
C2313 H2297 0.930 . S
C2313 C2312 1.377 . S
C2313 C2314 1.379 . S
C2314 H2298 0.931 . S
C2314 C2308 1.383 . S
C2314 C2313 1.379 . S
H2315 C2309 0.959 . S
H2316 C2309 0.961 . S
H2317 C2309 0.960 . S
H2318 C2310 0.930 . S
H2319 C2311 0.929 . S
H2320 C2328 0.929 . S
H2321 C2330 0.930 . S
H2322 C2332 0.930 . S
H2323 C2335 0.929 . S
H2324 C2338 0.930 . S
H2325 C2340 0.960 . S
H2326 C2340 0.960 . S
H2327 C2340 0.960 . S
C2328 H2320 0.929 . S
C2328 C2329 1.377 . S
C2328 C2330 1.384 . S
C2329 C2328 1.377 . S
C2329 C2335 1.390 . S
C2330 H2321 0.930 . S
C2330 C2328 1.384 . S
C2330 C2331 1.372 . S
C2331 C2330 1.372 . S
C2331 C2332 1.400 . S
C2331 C2336 1.490 . S
C2332 H2322 0.930 . S
C2332 C2331 1.400 . S
C2332 C2335 1.386 . S
H2333 C2349 0.930 . S
H2334 C2350 0.931 . S
C2335 H2323 0.929 . S
C2335 C2329 1.390 . S
C2335 C2332 1.386 . S
C2336 C2331 1.490 . S
C2336 C2338 1.395 . S
C2336 C2339 1.403 . S
H2337 C2343 0.930 . S
C2338 H2324 0.930 . S
C2338 C2336 1.395 . S
C2338 C2341 1.403 . S
C2339 C2336 1.403 . S
C2339 C2340 1.524 . S
C2339 C2343 1.400 . S
C2340 H2325 0.960 . S
C2340 H2326 0.960 . S
C2340 H2327 0.960 . S
C2340 C2339 1.524 . S
C2341 C2338 1.403 . S
C2341 C2342 1.392 . S
C2341 C2345 1.495 . S
C2342 C2341 1.392 . S
C2342 C2343 1.385 . S
C2342 C2344 1.478 . S
C2343 H2337 0.930 . S
C2343 C2339 1.400 . S
C2343 C2342 1.385 . S
C2344 C2342 1.478 . S
C2344 C2346 1.381 . S
C2344 C2350 1.383 . S
C2345 C2341 1.495 . S
C2345 H2351 0.959 . S
C2345 H2352 0.961 . S
C2345 H2353 0.960 . S
C2346 C2344 1.381 . S
C2346 C2347 1.394 . S
C2346 H2354 0.930 . S
C2347 C2346 1.394 . S
C2347 C2348 1.383 . S
C2347 H2355 0.929 . S
C2348 C2347 1.383 . S
C2348 C2349 1.377 . S
C2349 H2333 0.930 . S
C2349 C2348 1.377 . S
C2349 C2350 1.379 . S
C2350 H2334 0.931 . S
C2350 C2344 1.383 . S
C2350 C2349 1.379 . S
H2351 C2345 0.959 . S
H2352 C2345 0.961 . S
H2353 C2345 0.960 . S
H2354 C2346 0.930 . S
H2355 C2347 0.929 . S
H2356 C2364 0.929 . S
H2357 C2366 0.930 . S
H2358 C2368 0.930 . S
H2359 C2371 0.929 . S
H2360 C2374 0.930 . S
H2361 C2376 0.960 . S
H2362 C2376 0.960 . S
H2363 C2376 0.960 . S
C2364 H2356 0.929 . S
C2364 C2365 1.377 . S
C2364 C2366 1.384 . S
C2365 C2364 1.377 . S
C2365 C2371 1.390 . S
C2366 H2357 0.930 . S
C2366 C2364 1.384 . S
C2366 C2367 1.372 . S
C2367 C2366 1.372 . S
C2367 C2368 1.400 . S
C2367 C2372 1.490 . S
C2368 H2358 0.930 . S
C2368 C2367 1.400 . S
C2368 C2371 1.386 . S
H2369 C2385 0.930 . S
H2370 C2386 0.931 . S
C2371 H2359 0.929 . S
C2371 C2365 1.390 . S
C2371 C2368 1.386 . S
C2372 C2367 1.490 . S
C2372 C2374 1.395 . S
C2372 C2375 1.403 . S
H2373 C2379 0.930 . S
C2374 H2360 0.930 . S
C2374 C2372 1.395 . S
C2374 C2377 1.403 . S
C2375 C2372 1.403 . S
C2375 C2376 1.524 . S
C2375 C2379 1.400 . S
C2376 H2361 0.960 . S
C2376 H2362 0.960 . S
C2376 H2363 0.960 . S
C2376 C2375 1.524 . S
C2377 C2374 1.403 . S
C2377 C2378 1.392 . S
C2377 C2381 1.495 . S
C2378 C2377 1.392 . S
C2378 C2379 1.385 . S
C2378 C2380 1.478 . S
C2379 H2373 0.930 . S
C2379 C2375 1.400 . S
C2379 C2378 1.385 . S
C2380 C2378 1.478 . S
C2380 C2382 1.381 . S
C2380 C2386 1.383 . S
C2381 C2377 1.495 . S
C2381 H2387 0.959 . S
C2381 H2388 0.961 . S
C2381 H2389 0.960 . S
C2382 C2380 1.381 . S
C2382 C2383 1.394 . S
C2382 H2390 0.930 . S
C2383 C2382 1.394 . S
C2383 C2384 1.383 . S
C2383 H2391 0.929 . S
C2384 C2383 1.383 . S
C2384 C2385 1.377 . S
C2385 H2369 0.930 . S
C2385 C2384 1.377 . S
C2385 C2386 1.379 . S
C2386 H2370 0.931 . S
C2386 C2380 1.383 . S
C2386 C2385 1.379 . S
H2387 C2381 0.959 . S
H2388 C2381 0.961 . S
H2389 C2381 0.960 . S
H2390 C2382 0.930 . S
H2391 C2383 0.929 . S
H2392 C2400 0.929 . S
H2393 C2402 0.930 . S
H2394 C2404 0.930 . S
H2395 C2407 0.929 . S
H2396 C2410 0.930 . S
H2397 C2412 0.960 . S
H2398 C2412 0.960 . S
H2399 C2412 0.960 . S
C2400 H2392 0.929 . S
C2400 C2401 1.377 . S
C2400 C2402 1.384 . S
C2401 C2400 1.377 . S
C2401 C2407 1.390 . S
C2402 H2393 0.930 . S
C2402 C2400 1.384 . S
C2402 C2403 1.372 . S
C2403 C2402 1.372 . S
C2403 C2404 1.400 . S
C2403 C2408 1.490 . S
C2404 H2394 0.930 . S
C2404 C2403 1.400 . S
C2404 C2407 1.386 . S
H2405 C2421 0.930 . S
H2406 C2422 0.931 . S
C2407 H2395 0.929 . S
C2407 C2401 1.390 . S
C2407 C2404 1.386 . S
C2408 C2403 1.490 . S
C2408 C2410 1.395 . S
C2408 C2411 1.403 . S
H2409 C2415 0.930 . S
C2410 H2396 0.930 . S
C2410 C2408 1.395 . S
C2410 C2413 1.403 . S
C2411 C2408 1.403 . S
C2411 C2412 1.524 . S
C2411 C2415 1.400 . S
C2412 H2397 0.960 . S
C2412 H2398 0.960 . S
C2412 H2399 0.960 . S
C2412 C2411 1.524 . S
C2413 C2410 1.403 . S
C2413 C2414 1.392 . S
C2413 C2417 1.495 . S
C2414 C2413 1.392 . S
C2414 C2415 1.385 . S
C2414 C2416 1.478 . S
C2415 H2409 0.930 . S
C2415 C2411 1.400 . S
C2415 C2414 1.385 . S
C2416 C2414 1.478 . S
C2416 C2418 1.381 . S
C2416 C2422 1.383 . S
C2417 C2413 1.495 . S
C2417 H2423 0.959 . S
C2417 H2424 0.961 . S
C2417 H2425 0.960 . S
C2418 C2416 1.381 . S
C2418 C2419 1.394 . S
C2418 H2426 0.930 . S
C2419 C2418 1.394 . S
C2419 C2420 1.383 . S
C2419 H2427 0.929 . S
C2420 C2419 1.383 . S
C2420 C2421 1.377 . S
C2421 H2405 0.930 . S
C2421 C2420 1.377 . S
C2421 C2422 1.379 . S
C2422 H2406 0.931 . S
C2422 C2416 1.383 . S
C2422 C2421 1.379 . S
H2423 C2417 0.959 . S
H2424 C2417 0.961 . S
H2425 C2417 0.960 . S
H2426 C2418 0.930 . S
H2427 C2419 0.929 . S
H2428 C2436 0.929 . S
H2429 C2438 0.930 . S
H2430 C2440 0.930 . S
H2431 C2443 0.929 . S
H2432 C2446 0.930 . S
H2433 C2448 0.960 . S
H2434 C2448 0.960 . S
H2435 C2448 0.960 . S
C2436 H2428 0.929 . S
C2436 C2437 1.377 . S
C2436 C2438 1.384 . S
C2437 C2436 1.377 . S
C2437 C2443 1.390 . S
C2438 H2429 0.930 . S
C2438 C2436 1.384 . S
C2438 C2439 1.372 . S
C2439 C2438 1.372 . S
C2439 C2440 1.400 . S
C2439 C2444 1.490 . S
C2440 H2430 0.930 . S
C2440 C2439 1.400 . S
C2440 C2443 1.386 . S
H2441 C2457 0.930 . S
H2442 C2458 0.931 . S
C2443 H2431 0.929 . S
C2443 C2437 1.390 . S
C2443 C2440 1.386 . S
C2444 C2439 1.490 . S
C2444 C2446 1.395 . S
C2444 C2447 1.403 . S
H2445 C2451 0.930 . S
C2446 H2432 0.930 . S
C2446 C2444 1.395 . S
C2446 C2449 1.403 . S
C2447 C2444 1.403 . S
C2447 C2448 1.524 . S
C2447 C2451 1.400 . S
C2448 H2433 0.960 . S
C2448 H2434 0.960 . S
C2448 H2435 0.960 . S
C2448 C2447 1.524 . S
C2449 C2446 1.403 . S
C2449 C2450 1.392 . S
C2449 C2453 1.495 . S
C2450 C2449 1.392 . S
C2450 C2451 1.385 . S
C2450 C2452 1.478 . S
C2451 H2445 0.930 . S
C2451 C2447 1.400 . S
C2451 C2450 1.385 . S
C2452 C2450 1.478 . S
C2452 C2454 1.381 . S
C2452 C2458 1.383 . S
C2453 C2449 1.495 . S
C2453 H2459 0.959 . S
C2453 H2460 0.961 . S
C2453 H2461 0.960 . S
C2454 C2452 1.381 . S
C2454 C2455 1.394 . S
C2454 H2462 0.930 . S
C2455 C2454 1.394 . S
C2455 C2456 1.383 . S
C2455 H2463 0.929 . S
C2456 C2455 1.383 . S
C2456 C2457 1.377 . S
C2457 H2441 0.930 . S
C2457 C2456 1.377 . S
C2457 C2458 1.379 . S
C2458 H2442 0.931 . S
C2458 C2452 1.383 . S
C2458 C2457 1.379 . S
H2459 C2453 0.959 . S
H2460 C2453 0.961 . S
H2461 C2453 0.960 . S
H2462 C2454 0.930 . S
H2463 C2455 0.929 . S
H2464 C2472 0.929 . S
H2465 C2474 0.930 . S
H2466 C2476 0.930 . S
H2467 C2479 0.929 . S
H2468 C2482 0.930 . S
H2469 C2484 0.960 . S
H2470 C2484 0.960 . S
H2471 C2484 0.960 . S
C2472 H2464 0.929 . S
C2472 C2473 1.377 . S
C2472 C2474 1.384 . S
C2473 C2472 1.377 . S
C2473 C2479 1.390 . S
C2474 H2465 0.930 . S
C2474 C2472 1.384 . S
C2474 C2475 1.372 . S
C2475 C2474 1.372 . S
C2475 C2476 1.400 . S
C2475 C2480 1.490 . S
C2476 H2466 0.930 . S
C2476 C2475 1.400 . S
C2476 C2479 1.386 . S
H2477 C2493 0.930 . S
H2478 C2494 0.931 . S
C2479 H2467 0.929 . S
C2479 C2473 1.390 . S
C2479 C2476 1.386 . S
C2480 C2475 1.490 . S
C2480 C2482 1.395 . S
C2480 C2483 1.403 . S
H2481 C2487 0.930 . S
C2482 H2468 0.930 . S
C2482 C2480 1.395 . S
C2482 C2485 1.403 . S
C2483 C2480 1.403 . S
C2483 C2484 1.524 . S
C2483 C2487 1.400 . S
C2484 H2469 0.960 . S
C2484 H2470 0.960 . S
C2484 H2471 0.960 . S
C2484 C2483 1.524 . S
C2485 C2482 1.403 . S
C2485 C2486 1.392 . S
C2485 C2489 1.495 . S
C2486 C2485 1.392 . S
C2486 C2487 1.385 . S
C2486 C2488 1.478 . S
C2487 H2481 0.930 . S
C2487 C2483 1.400 . S
C2487 C2486 1.385 . S
C2488 C2486 1.478 . S
C2488 C2490 1.381 . S
C2488 C2494 1.383 . S
C2489 C2485 1.495 . S
C2489 H2495 0.959 . S
C2489 H2496 0.961 . S
C2489 H2497 0.960 . S
C2490 C2488 1.381 . S
C2490 C2491 1.394 . S
C2490 H2498 0.930 . S
C2491 C2490 1.394 . S
C2491 C2492 1.383 . S
C2491 H2499 0.929 . S
C2492 C2491 1.383 . S
C2492 C2493 1.377 . S
C2493 H2477 0.930 . S
C2493 C2492 1.377 . S
C2493 C2494 1.379 . S
C2494 H2478 0.931 . S
C2494 C2488 1.383 . S
C2494 C2493 1.379 . S
H2495 C2489 0.959 . S
H2496 C2489 0.961 . S
H2497 C2489 0.960 . S
H2498 C2490 0.930 . S
H2499 C2491 0.929 . S
H2500 C2508 0.929 . S
H2501 C2510 0.930 . S
H2502 C2512 0.930 . S
H2503 C2515 0.929 . S
H2504 C2518 0.930 . S
H2505 C2520 0.960 . S
H2506 C2520 0.960 . S
H2507 C2520 0.960 . S
C2508 H2500 0.929 . S
C2508 C2509 1.377 . S
C2508 C2510 1.384 . S
C2509 C2508 1.377 . S
C2509 C2515 1.390 . S
C2510 H2501 0.930 . S
C2510 C2508 1.384 . S
C2510 C2511 1.372 . S
C2511 C2510 1.372 . S
C2511 C2512 1.400 . S
C2511 C2516 1.490 . S
C2512 H2502 0.930 . S
C2512 C2511 1.400 . S
C2512 C2515 1.386 . S
H2513 C2529 0.930 . S
H2514 C2530 0.931 . S
C2515 H2503 0.929 . S
C2515 C2509 1.390 . S
C2515 C2512 1.386 . S
C2516 C2511 1.490 . S
C2516 C2518 1.395 . S
C2516 C2519 1.403 . S
H2517 C2523 0.930 . S
C2518 H2504 0.930 . S
C2518 C2516 1.395 . S
C2518 C2521 1.403 . S
C2519 C2516 1.403 . S
C2519 C2520 1.524 . S
C2519 C2523 1.400 . S
C2520 H2505 0.960 . S
C2520 H2506 0.960 . S
C2520 H2507 0.960 . S
C2520 C2519 1.524 . S
C2521 C2518 1.403 . S
C2521 C2522 1.392 . S
C2521 C2525 1.495 . S
C2522 C2521 1.392 . S
C2522 C2523 1.385 . S
C2522 C2524 1.478 . S
C2523 H2517 0.930 . S
C2523 C2519 1.400 . S
C2523 C2522 1.385 . S
C2524 C2522 1.478 . S
C2524 C2526 1.381 . S
C2524 C2530 1.383 . S
C2525 C2521 1.495 . S
C2525 H2531 0.959 . S
C2525 H2532 0.961 . S
C2525 H2533 0.960 . S
C2526 C2524 1.381 . S
C2526 C2527 1.394 . S
C2526 H2534 0.930 . S
C2527 C2526 1.394 . S
C2527 C2528 1.383 . S
C2527 H2535 0.929 . S
C2528 C2527 1.383 . S
C2528 C2529 1.377 . S
C2529 H2513 0.930 . S
C2529 C2528 1.377 . S
C2529 C2530 1.379 . S
C2530 H2514 0.931 . S
C2530 C2524 1.383 . S
C2530 C2529 1.379 . S
H2531 C2525 0.959 . S
H2532 C2525 0.961 . S
H2533 C2525 0.960 . S
H2534 C2526 0.930 . S
H2535 C2527 0.929 . S
H2536 C2544 0.929 . S
H2537 C2546 0.930 . S
H2538 C2548 0.930 . S
H2539 C2551 0.929 . S
H2540 C2554 0.930 . S
H2541 C2556 0.960 . S
H2542 C2556 0.960 . S
H2543 C2556 0.960 . S
C2544 H2536 0.929 . S
C2544 C2545 1.377 . S
C2544 C2546 1.384 . S
C2545 C2544 1.377 . S
C2545 C2551 1.390 . S
C2546 H2537 0.930 . S
C2546 C2544 1.384 . S
C2546 C2547 1.372 . S
C2547 C2546 1.372 . S
C2547 C2548 1.400 . S
C2547 C2552 1.490 . S
C2548 H2538 0.930 . S
C2548 C2547 1.400 . S
C2548 C2551 1.386 . S
H2549 C2565 0.930 . S
H2550 C2566 0.931 . S
C2551 H2539 0.929 . S
C2551 C2545 1.390 . S
C2551 C2548 1.386 . S
C2552 C2547 1.490 . S
C2552 C2554 1.395 . S
C2552 C2555 1.403 . S
H2553 C2559 0.930 . S
C2554 H2540 0.930 . S
C2554 C2552 1.395 . S
C2554 C2557 1.403 . S
C2555 C2552 1.403 . S
C2555 C2556 1.524 . S
C2555 C2559 1.400 . S
C2556 H2541 0.960 . S
C2556 H2542 0.960 . S
C2556 H2543 0.960 . S
C2556 C2555 1.524 . S
C2557 C2554 1.403 . S
C2557 C2558 1.392 . S
C2557 C2561 1.495 . S
C2558 C2557 1.392 . S
C2558 C2559 1.385 . S
C2558 C2560 1.478 . S
C2559 H2553 0.930 . S
C2559 C2555 1.400 . S
C2559 C2558 1.385 . S
C2560 C2558 1.478 . S
C2560 C2562 1.381 . S
C2560 C2566 1.383 . S
C2561 C2557 1.495 . S
C2561 H2567 0.959 . S
C2561 H2568 0.961 . S
C2561 H2569 0.960 . S
C2562 C2560 1.381 . S
C2562 C2563 1.394 . S
C2562 H2570 0.930 . S
C2563 C2562 1.394 . S
C2563 C2564 1.383 . S
C2563 H2571 0.929 . S
C2564 C2563 1.383 . S
C2564 C2565 1.377 . S
C2565 H2549 0.930 . S
C2565 C2564 1.377 . S
C2565 C2566 1.379 . S
C2566 H2550 0.931 . S
C2566 C2560 1.383 . S
C2566 C2565 1.379 . S
H2567 C2561 0.959 . S
H2568 C2561 0.961 . S
H2569 C2561 0.960 . S
H2570 C2562 0.930 . S
H2571 C2563 0.929 . S
H2572 C2580 0.929 . S
H2573 C2582 0.930 . S
H2574 C2584 0.930 . S
H2575 C2587 0.929 . S
H2576 C2590 0.930 . S
H2577 C2592 0.960 . S
H2578 C2592 0.960 . S
H2579 C2592 0.960 . S
C2580 H2572 0.929 . S
C2580 C2581 1.377 . S
C2580 C2582 1.384 . S
C2581 C2580 1.377 . S
C2581 C2587 1.390 . S
C2582 H2573 0.930 . S
C2582 C2580 1.384 . S
C2582 C2583 1.372 . S
C2583 C2582 1.372 . S
C2583 C2584 1.400 . S
C2583 C2588 1.490 . S
C2584 H2574 0.930 . S
C2584 C2583 1.400 . S
C2584 C2587 1.386 . S
H2585 C2601 0.930 . S
H2586 C2602 0.931 . S
C2587 H2575 0.929 . S
C2587 C2581 1.390 . S
C2587 C2584 1.386 . S
C2588 C2583 1.490 . S
C2588 C2590 1.395 . S
C2588 C2591 1.403 . S
H2589 C2595 0.930 . S
C2590 H2576 0.930 . S
C2590 C2588 1.395 . S
C2590 C2593 1.403 . S
C2591 C2588 1.403 . S
C2591 C2592 1.524 . S
C2591 C2595 1.400 . S
C2592 H2577 0.960 . S
C2592 H2578 0.960 . S
C2592 H2579 0.960 . S
C2592 C2591 1.524 . S
C2593 C2590 1.403 . S
C2593 C2594 1.392 . S
C2593 C2597 1.495 . S
C2594 C2593 1.392 . S
C2594 C2595 1.385 . S
C2594 C2596 1.478 . S
C2595 H2589 0.930 . S
C2595 C2591 1.400 . S
C2595 C2594 1.385 . S
C2596 C2594 1.478 . S
C2596 C2598 1.381 . S
C2596 C2602 1.383 . S
C2597 C2593 1.495 . S
C2597 H2603 0.959 . S
C2597 H2604 0.961 . S
C2597 H2605 0.960 . S
C2598 C2596 1.381 . S
C2598 C2599 1.394 . S
C2598 H2606 0.930 . S
C2599 C2598 1.394 . S
C2599 C2600 1.383 . S
C2599 H2607 0.929 . S
C2600 C2599 1.383 . S
C2600 C2601 1.377 . S
C2601 H2585 0.930 . S
C2601 C2600 1.377 . S
C2601 C2602 1.379 . S
C2602 H2586 0.931 . S
C2602 C2596 1.383 . S
C2602 C2601 1.379 . S
H2603 C2597 0.959 . S
H2604 C2597 0.961 . S
H2605 C2597 0.960 . S
H2606 C2598 0.930 . S
H2607 C2599 0.929 . S
H2608 C2616 0.929 . S
H2609 C2618 0.930 . S
H2610 C2620 0.930 . S
H2611 C2623 0.929 . S
H2612 C2626 0.930 . S
H2613 C2628 0.960 . S
H2614 C2628 0.960 . S
H2615 C2628 0.960 . S
C2616 H2608 0.929 . S
C2616 C2617 1.377 . S
C2616 C2618 1.384 . S
C2617 C2616 1.377 . S
C2617 C2623 1.390 . S
C2618 H2609 0.930 . S
C2618 C2616 1.384 . S
C2618 C2619 1.372 . S
C2619 C2618 1.372 . S
C2619 C2620 1.400 . S
C2619 C2624 1.490 . S
C2620 H2610 0.930 . S
C2620 C2619 1.400 . S
C2620 C2623 1.386 . S
H2621 C2637 0.930 . S
H2622 C2638 0.931 . S
C2623 H2611 0.929 . S
C2623 C2617 1.390 . S
C2623 C2620 1.386 . S
C2624 C2619 1.490 . S
C2624 C2626 1.395 . S
C2624 C2627 1.403 . S
H2625 C2631 0.930 . S
C2626 H2612 0.930 . S
C2626 C2624 1.395 . S
C2626 C2629 1.403 . S
C2627 C2624 1.403 . S
C2627 C2628 1.524 . S
C2627 C2631 1.400 . S
C2628 H2613 0.960 . S
C2628 H2614 0.960 . S
C2628 H2615 0.960 . S
C2628 C2627 1.524 . S
C2629 C2626 1.403 . S
C2629 C2630 1.392 . S
C2629 C2633 1.495 . S
C2630 C2629 1.392 . S
C2630 C2631 1.385 . S
C2630 C2632 1.478 . S
C2631 H2625 0.930 . S
C2631 C2627 1.400 . S
C2631 C2630 1.385 . S
C2632 C2630 1.478 . S
C2632 C2634 1.381 . S
C2632 C2638 1.383 . S
C2633 C2629 1.495 . S
C2633 H2639 0.959 . S
C2633 H2640 0.961 . S
C2633 H2641 0.960 . S
C2634 C2632 1.381 . S
C2634 C2635 1.394 . S
C2634 H2642 0.930 . S
C2635 C2634 1.394 . S
C2635 C2636 1.383 . S
C2635 H2643 0.929 . S
C2636 C2635 1.383 . S
C2636 C2637 1.377 . S
C2637 H2621 0.930 . S
C2637 C2636 1.377 . S
C2637 C2638 1.379 . S
C2638 H2622 0.931 . S
C2638 C2632 1.383 . S
C2638 C2637 1.379 . S
H2639 C2633 0.959 . S
H2640 C2633 0.961 . S
H2641 C2633 0.960 . S
H2642 C2634 0.930 . S
H2643 C2635 0.929 . S
H2644 C2652 0.929 . S
H2645 C2654 0.930 . S
H2646 C2656 0.930 . S
H2647 C2659 0.929 . S
H2648 C2662 0.930 . S
H2649 C2664 0.960 . S
H2650 C2664 0.960 . S
H2651 C2664 0.960 . S
C2652 H2644 0.929 . S
C2652 C2653 1.377 . S
C2652 C2654 1.384 . S
C2653 C2652 1.377 . S
C2653 C2659 1.390 . S
C2654 H2645 0.930 . S
C2654 C2652 1.384 . S
C2654 C2655 1.372 . S
C2655 C2654 1.372 . S
C2655 C2656 1.400 . S
C2655 C2660 1.490 . S
C2656 H2646 0.930 . S
C2656 C2655 1.400 . S
C2656 C2659 1.386 . S
H2657 C2673 0.930 . S
H2658 C2674 0.931 . S
C2659 H2647 0.929 . S
C2659 C2653 1.390 . S
C2659 C2656 1.386 . S
C2660 C2655 1.490 . S
C2660 C2662 1.395 . S
C2660 C2663 1.403 . S
H2661 C2667 0.930 . S
C2662 H2648 0.930 . S
C2662 C2660 1.395 . S
C2662 C2665 1.403 . S
C2663 C2660 1.403 . S
C2663 C2664 1.524 . S
C2663 C2667 1.400 . S
C2664 H2649 0.960 . S
C2664 H2650 0.960 . S
C2664 H2651 0.960 . S
C2664 C2663 1.524 . S
C2665 C2662 1.403 . S
C2665 C2666 1.392 . S
C2665 C2669 1.495 . S
C2666 C2665 1.392 . S
C2666 C2667 1.385 . S
C2666 C2668 1.478 . S
C2667 H2661 0.930 . S
C2667 C2663 1.400 . S
C2667 C2666 1.385 . S
C2668 C2666 1.478 . S
C2668 C2670 1.381 . S
C2668 C2674 1.383 . S
C2669 C2665 1.495 . S
C2669 H2675 0.959 . S
C2669 H2676 0.961 . S
C2669 H2677 0.960 . S
C2670 C2668 1.381 . S
C2670 C2671 1.394 . S
C2670 H2678 0.930 . S
C2671 C2670 1.394 . S
C2671 C2672 1.383 . S
C2671 H2679 0.929 . S
C2672 C2671 1.383 . S
C2672 C2673 1.377 . S
C2673 H2657 0.930 . S
C2673 C2672 1.377 . S
C2673 C2674 1.379 . S
C2674 H2658 0.931 . S
C2674 C2668 1.383 . S
C2674 C2673 1.379 . S
H2675 C2669 0.959 . S
H2676 C2669 0.961 . S
H2677 C2669 0.960 . S
H2678 C2670 0.930 . S
H2679 C2671 0.929 . S
H2680 C2688 0.929 . S
H2681 C2690 0.930 . S
H2682 C2692 0.930 . S
H2683 C2695 0.929 . S
H2684 C2698 0.930 . S
H2685 C2700 0.960 . S
H2686 C2700 0.960 . S
H2687 C2700 0.960 . S
C2688 H2680 0.929 . S
C2688 C2689 1.377 . S
C2688 C2690 1.384 . S
C2689 C2688 1.377 . S
C2689 C2695 1.390 . S
C2690 H2681 0.930 . S
C2690 C2688 1.384 . S
C2690 C2691 1.372 . S
C2691 C2690 1.372 . S
C2691 C2692 1.400 . S
C2691 C2696 1.490 . S
C2692 H2682 0.930 . S
C2692 C2691 1.400 . S
C2692 C2695 1.386 . S
H2693 C2709 0.930 . S
H2694 C2710 0.931 . S
C2695 H2683 0.929 . S
C2695 C2689 1.390 . S
C2695 C2692 1.386 . S
C2696 C2691 1.490 . S
C2696 C2698 1.395 . S
C2696 C2699 1.403 . S
H2697 C2703 0.930 . S
C2698 H2684 0.930 . S
C2698 C2696 1.395 . S
C2698 C2701 1.403 . S
C2699 C2696 1.403 . S
C2699 C2700 1.524 . S
C2699 C2703 1.400 . S
C2700 H2685 0.960 . S
C2700 H2686 0.960 . S
C2700 H2687 0.960 . S
C2700 C2699 1.524 . S
C2701 C2698 1.403 . S
C2701 C2702 1.392 . S
C2701 C2705 1.495 . S
C2702 C2701 1.392 . S
C2702 C2703 1.385 . S
C2702 C2704 1.478 . S
C2703 H2697 0.930 . S
C2703 C2699 1.400 . S
C2703 C2702 1.385 . S
C2704 C2702 1.478 . S
C2704 C2706 1.381 . S
C2704 C2710 1.383 . S
C2705 C2701 1.495 . S
C2705 H2711 0.959 . S
C2705 H2712 0.961 . S
C2705 H2713 0.960 . S
C2706 C2704 1.381 . S
C2706 C2707 1.394 . S
C2706 H2714 0.930 . S
C2707 C2706 1.394 . S
C2707 C2708 1.383 . S
C2707 H2715 0.929 . S
C2708 C2707 1.383 . S
C2708 C2709 1.377 . S
C2709 H2693 0.930 . S
C2709 C2708 1.377 . S
C2709 C2710 1.379 . S
C2710 H2694 0.931 . S
C2710 C2704 1.383 . S
C2710 C2709 1.379 . S
H2711 C2705 0.959 . S
H2712 C2705 0.961 . S
H2713 C2705 0.960 . S
H2714 C2706 0.930 . S
H2715 C2707 0.929 . S
H2716 C2724 0.929 . S
H2717 C2726 0.930 . S
H2718 C2728 0.930 . S
H2719 C2731 0.929 . S
H2720 C2734 0.930 . S
H2721 C2736 0.960 . S
H2722 C2736 0.960 . S
H2723 C2736 0.960 . S
C2724 H2716 0.929 . S
C2724 C2725 1.377 . S
C2724 C2726 1.384 . S
C2725 C2724 1.377 . S
C2725 C2731 1.390 . S
C2726 H2717 0.930 . S
C2726 C2724 1.384 . S
C2726 C2727 1.372 . S
C2727 C2726 1.372 . S
C2727 C2728 1.400 . S
C2727 C2732 1.490 . S
C2728 H2718 0.930 . S
C2728 C2727 1.400 . S
C2728 C2731 1.386 . S
H2729 C2745 0.930 . S
H2730 C2746 0.931 . S
C2731 H2719 0.929 . S
C2731 C2725 1.390 . S
C2731 C2728 1.386 . S
C2732 C2727 1.490 . S
C2732 C2734 1.395 . S
C2732 C2735 1.403 . S
H2733 C2739 0.930 . S
C2734 H2720 0.930 . S
C2734 C2732 1.395 . S
C2734 C2737 1.403 . S
C2735 C2732 1.403 . S
C2735 C2736 1.524 . S
C2735 C2739 1.400 . S
C2736 H2721 0.960 . S
C2736 H2722 0.960 . S
C2736 H2723 0.960 . S
C2736 C2735 1.524 . S
C2737 C2734 1.403 . S
C2737 C2738 1.392 . S
C2737 C2741 1.495 . S
C2738 C2737 1.392 . S
C2738 C2739 1.385 . S
C2738 C2740 1.478 . S
C2739 H2733 0.930 . S
C2739 C2735 1.400 . S
C2739 C2738 1.385 . S
C2740 C2738 1.478 . S
C2740 C2742 1.381 . S
C2740 C2746 1.383 . S
C2741 C2737 1.495 . S
C2741 H2747 0.959 . S
C2741 H2748 0.961 . S
C2741 H2749 0.960 . S
C2742 C2740 1.381 . S
C2742 C2743 1.394 . S
C2742 H2750 0.930 . S
C2743 C2742 1.394 . S
C2743 C2744 1.383 . S
C2743 H2751 0.929 . S
C2744 C2743 1.383 . S
C2744 C2745 1.377 . S
C2745 H2729 0.930 . S
C2745 C2744 1.377 . S
C2745 C2746 1.379 . S
C2746 H2730 0.931 . S
C2746 C2740 1.383 . S
C2746 C2745 1.379 . S
H2747 C2741 0.959 . S
H2748 C2741 0.961 . S
H2749 C2741 0.960 . S
H2750 C2742 0.930 . S
H2751 C2743 0.929 . S
C457 C415 1.588 . S
C476 C9 1.568 . S
C493 C23 1.586 . S
C512 C429 1.592 . S
C529 C443 1.585 . S
C548 C37 1.570 . S
C565 C401 1.588 . S
C584 C51 1.572 . S
C601 C65 1.583 . S
C620 C387 1.577 . S
C637 C345 1.587 . S
C656 C79 1.568 . S
C673 C93 1.585 . S
C692 C359 1.570 . S
C709 C373 1.587 . S
C728 C107 1.568 . S
C745 C121 1.584 . S
C764 C303 1.596 . S
C781 C135 1.582 . S
C800 C317 1.592 . S
C817 C331 1.587 . S
C836 C149 1.568 . S
C853 C163 1.583 . S
C872 C289 1.595 . S
C889 C275 1.585 . S
C908 C177 1.596 . S
C925 C233 1.585 . S
C944 C191 1.569 . S
C961 C205 1.582 . S
C980 C247 1.588 . S
C997 C219 1.587 . S
C1016 C261 1.568 . S
C1033 C3 1.362 . S
C1052 C143 1.359 . S
C1069 C157 1.359 . S
C1088 C17 1.355 . S
C1105 C115 1.361 . S
C1124 C31 1.361 . S
C1141 C129 1.360 . S
C1160 C45 1.350 . S
C1177 C59 1.361 . S
C1196 C199 1.362 . S
C1213 C213 1.361 . S
C1232 C73 1.348 . S
C1249 C171 1.361 . S
C1268 C87 1.348 . S
C1285 C185 1.359 . S
C1304 C101 1.355 . S
C1321 C227 1.362 . S
C1340 C367 1.350 . S
C1357 C381 1.360 . S
C1376 C241 1.349 . S
C1393 C339 1.362 . S
C1412 C255 1.359 . S
C1429 C269 1.361 . S
C1448 C353 1.360 . S
C1465 C283 1.361 . S
C1484 C423 1.360 . S
C1501 C437 1.361 . S
C1520 C297 1.348 . S
C1537 C395 1.361 . S
C1556 C311 1.348 . S
C1573 C325 1.362 . S
C1592 C409 1.358 . S
C1609 C8 1.508 . S
C1628 C64 1.513 . S
C1645 C22 1.508 . S
C1664 C78 1.514 . S
C1681 C92 1.507 . S
C1700 C36 1.516 . S
C1717 C50 1.507 . S
C1736 C106 1.515 . S
C1753 C120 1.510 . S
C1772 C176 1.514 . S
C1789 C190 1.510 . S
C1808 C134 1.515 . S
C1825 C204 1.509 . S
C1844 C148 1.513 . S
C1861 C162 1.511 . S
C1880 C218 1.515 . S
C1897 C232 1.511 . S
C1916 C288 1.498 . S
C1933 C302 1.511 . S
C1952 C246 1.497 . S
C1969 C260 1.510 . S
C1988 C316 1.501 . S
C2005 C330 1.510 . S
C2024 C274 1.500 . S
C2041 C400 1.509 . S
C2060 C344 1.500 . S
C2077 C358 1.508 . S
C2096 C414 1.496 . S
C2113 C372 1.511 . S
C2132 C428 1.512 . S
C2149 C386 1.511 . S
C2168 C442 1.509 . S
C2185 C7 1.303 . S
C2204 C77 1.266 . S
C2221 C21 1.304 . S
C2240 C91 1.268 . S
C2257 C105 1.296 . S
C2276 C35 1.286 . S
C2293 C63 1.292 . S
C2312 C49 1.309 . S
C2329 C189 1.298 . S
C2348 C119 1.303 . S
C2365 C203 1.292 . S
C2384 C133 1.267 . S
C2401 C217 1.297 . S
C2420 C147 1.300 . S
C2437 C161 1.300 . S
C2456 C175 1.315 . S
C2473 C231 1.292 . S
C2492 C301 1.320 . S
C2509 C315 1.292 . S
C2528 C245 1.306 . S
C2545 C329 1.299 . S
C2564 C259 1.273 . S
C2581 C273 1.292 . S
C2600 C287 1.323 . S
C2617 C413 1.292 . S
C2636 C343 1.266 . S
C2653 C357 1.302 . S
C2672 C427 1.306 . S
C2689 C371 1.298 . S
C2708 C441 1.303 . S
C2725 C399 1.295 . S
C2744 C385 1.273 . S
