# Generated by pormake.
# Topology qtz-x, (6)-cn, num edge types: 1
# Building blocks:
#     Node 0, Type 0, BuildingBlock: BETGAK_clean_sbu_0, # of connection points: 6
#     Node 1, Type 0, BuildingBlock: BETGAK_clean_sbu_0, # of connection points: 6
#     Node 2, Type 0, BuildingBlock: BETGAK_clean_sbu_0, # of connection points: 6
#     Edge 3, Type (0, 0), BuildingBlock: FUNLAD_clean_linker_0, # of connection points: 2
#     Edge 4, Type (0, 0), BuildingBlock: FUNLAD_clean_linker_0, # of connection points: 2
#     Edge 5, Type (0, 0), BuildingBlock: FUNLAD_clean_linker_0, # of connection points: 2
#     Edge 6, Type (0, 0), BuildingBlock: FUNLAD_clean_linker_0, # of connection points: 2
#     Edge 7, Type (0, 0), BuildingBlock: FUNLAD_clean_linker_0, # of connection points: 2
#     Edge 8, Type (0, 0), BuildingBlock: FUNLAD_clean_linker_0, # of connection points: 2
#     Edge 9, Type (0, 0), BuildingBlock: FUNLAD_clean_linker_0, # of connection points: 2
#     Edge 10, Type (0, 0), BuildingBlock: FUNLAD_clean_linker_0, # of connection points: 2
#     Edge 11, Type (0, 0), BuildingBlock: FUNLAD_clean_linker_0, # of connection points: 2
# Relax obj value: 0.204
# Max RMSD: 0.250
# Mean RMSD: 0.229
data_MOF--net-qtz-x--node1-BETGAK_clean_sbu_0--edge1-FUNLAD_clean_linker_0
_symmetry_space_group_name_H-M    P1
_symmetry_Int_Tables_number       1
_symmetry_cell_setting            triclinic
loop_
_symmetry_equiv_pos_as_xyz
'x, y, z'
_cell_length_a     16.936958
_cell_length_b     17.006374
_cell_length_c     60.003112
_cell_angle_alpha  70.582762
_cell_angle_beta   111.79628
_cell_angle_gamma 120.53525
loop_
_atom_site_label
_atom_site_type_symbol
_atom_site_fract_x
_atom_site_fract_y
_atom_site_fract_z
_atom_type_partial_charge
La0 La 1.02113 0.60125 0.19896 0.0
La1 La 0.20978 0.72827 0.19112 0.0
C2 C 0.88382 0.46702 0.21532 0.0
C3 C 0.86185 0.42589 0.23944 0.0
C4 C 0.7711 0.39904 0.24136 0.0
C5 C 0.74941 0.36232 0.2641 0.0
C6 C 0.81836 0.35224 0.28545 0.0
C7 C 0.90918 0.37876 0.28344 0.0
C8 C 0.93055 0.41476 0.26066 0.0
C9 C 1.05601 0.77828 0.18803 0.0
C10 C 0.19806 0.67673 0.24417 0.0
C11 C 0.34757 0.85367 0.17373 0.0
C12 C 0.37322 0.86839 0.15105 0.0
C13 C 0.44067 0.84185 0.15192 0.0
C14 C 0.45812 0.84598 0.13044 0.0
C15 C 0.40892 0.87725 0.10755 0.0
C16 C 0.34429 0.90745 0.10672 0.0
C17 C 0.32689 0.90339 0.12822 0.0
C18 C 0.1719 0.55011 0.20124 0.0
C19 C 1.03314 0.6627 0.14526 0.0
O20 O 0.8889 0.55016 0.206 0.0
O21 O 0.95174 0.45869 0.2123 0.0
O22 O 0.97506 0.71087 0.18068 0.0
O23 O 0.11329 0.74517 0.20191 0.0
O24 O 0.11398 0.60935 0.23645 0.0
O25 O 0.24492 0.74356 0.22844 0.0
O26 O 0.35091 0.78131 0.1901 0.0
O27 O 0.27205 0.8624 0.17119 0.0
O28 O 0.25292 0.61621 0.20897 0.0
O29 O 0.1165 0.58531 0.1875 0.0
O30 O 0.11991 0.72397 0.15378 0.0
O31 O 0.98154 0.59682 0.16025 0.0
H32 H 0.71706 0.40715 0.22524 0.0
H33 H 0.6791 0.34345 0.26503 0.0
H34 H 0.96357 0.37083 0.29946 0.0
H35 H 1.00086 0.43402 0.25967 0.0
H36 H 0.4785 0.81575 0.16922 0.0
H37 H 0.50978 0.82399 0.13176 0.0
H38 H 0.30479 0.93147 0.08941 0.0
H39 H 0.2752 0.92539 0.12686 0.0
La40 La 0.78652 0.16514 0.54812 0.0
La41 La 0.71898 0.96963 0.54621 0.0
C42 C 0.81738 0.31284 0.55787 0.0
C43 C 0.82813 0.33912 0.58018 0.0
C44 C 0.90046 0.42496 0.58608 0.0
C45 C 0.91863 0.44728 0.60843 0.0
C46 C 0.86474 0.38388 0.62528 0.0
C47 C 0.79053 0.29883 0.619 0.0
C48 C 0.77236 0.27661 0.59664 0.0
C49 C 0.91361 0.12927 0.5435 0.0
C50 C 0.78334 0.01434 0.59767 0.0
C51 C 0.68491 0.82467 0.53421 0.0
C52 C 0.65805 0.80055 0.51003 0.0
C53 C 0.57152 0.72474 0.50301 0.0
C54 C 0.53807 0.70841 0.4791 0.0
C55 C 0.59066 0.76744 0.46167 0.0
C56 C 0.67943 0.84081 0.46905 0.0
C57 C 0.71269 0.85735 0.49295 0.0
C58 C 0.59185 0.0058 0.55066 0.0
C59 C 0.72289 0.12308 0.49676 0.0
O60 O 0.88426 0.29419 0.55856 0.0
O61 O 0.73316 0.25258 0.54825 0.0
O62 O 0.90367 0.20482 0.53321 0.0
O63 O 0.85634 0.07814 0.55691 0.0
O64 O 0.78148 0.09468 0.58589 0.0
O65 O 0.77213 0.95467 0.58582 0.0
O66 O 0.62179 0.83597 0.53865 0.0
O67 O 0.77059 0.88889 0.54119 0.0
O68 O 0.60132 0.92998 0.56095 0.0
O69 O 0.64935 0.05653 0.5373 0.0
O70 O 0.72016 0.04053 0.50801 0.0
O71 O 0.73645 0.18238 0.50894 0.0
H72 H 0.94469 0.4737 0.57369 0.0
H73 H 0.97695 0.5129 0.61283 0.0
H74 H 0.74705 0.24903 0.63146 0.0
H75 H 0.7163 0.20964 0.59252 0.0
H76 H 0.52814 0.67983 0.51584 0.0
H77 H 0.47022 0.65029 0.47416 0.0
H78 H 0.72141 0.88821 0.45607 0.0
H79 H 0.77944 0.91686 0.49769 0.0
La80 La 0.7959 0.82209 0.86644 0.0
La81 La 0.93651 0.74885 0.87703 0.0
C82 C 0.66038 0.84283 0.86758 0.0
C83 C 0.62359 0.83205 0.88773 0.0
C84 C 0.60301 0.90129 0.88838 0.0
C85 C 0.57742 0.89702 0.90856 0.0
C86 C 0.57216 0.82338 0.92855 0.0
C87 C 0.59005 0.75263 0.92747 0.0
C88 C 0.61558 0.75694 0.90731 0.0
C89 C 0.96987 0.94909 0.86621 0.0
C90 C 0.89881 0.76085 0.92182 0.0
C91 C 0.0715 0.7269 0.87632 0.0
C92 C 0.08959 0.70746 0.85692 0.0
C93 C 0.08377 0.61994 0.85915 0.0
C94 C 0.08462 0.5947 0.83937 0.0
C95 C 0.0922 0.65691 0.81707 0.0
C96 C 0.10412 0.74654 0.81534 0.0
C97 C 0.10272 0.7716 0.83506 0.0
C98 C 0.76184 0.62173 0.87693 0.0
C99 C 0.83543 0.80977 0.82122 0.0
O100 O 0.74474 0.91081 0.86705 0.0
O101 O 0.65051 0.76705 0.8634 0.0
O102 O 0.89522 0.95906 0.85185 0.0
O103 O 0.94556 0.87304 0.88084 0.0
O104 O 0.82307 0.77093 0.90646 0.0
O105 O 0.96361 0.76486 0.91373 0.0
O106 O 0.99916 0.66023 0.88481 0.0
O107 O 0.07412 0.80847 0.8727 0.0
O108 O 0.83621 0.61106 0.89115 0.0
O109 O 0.78703 0.69815 0.86254 0.0
O110 O 0.90358 0.78775 0.83699 0.0
O111 O 0.77652 0.81946 0.82858 0.0
H112 H 0.60929 0.9601 0.87355 0.0
H113 H 0.56498 0.9531 0.90887 0.0
H114 H 0.58523 0.6942 0.94235 0.0
H115 H 0.63111 0.70249 0.90733 0.0
H116 H 0.0743 0.56951 0.87586 0.0
H117 H 0.07661 0.52556 0.84129 0.0
H118 H 0.10924 0.79568 0.79832 0.0
H119 H 0.10746 0.83972 0.83269 0.0
C120 C 0.14832 0.93493 0.20083 0.0
C121 C 0.06758 0.87222 0.1868 0.0
C122 C 0.15527 0.02113 0.20064 0.0
C123 C 0.08138 0.04657 0.18635 0.0
C124 C 1.00217 -0.01548 0.17184 0.0
C125 C 0.99509 0.89847 0.17215 0.0
C126 C 0.08426 0.13721 0.18548 0.0
C127 C 0.13982 0.19047 0.20289 0.0
C128 C 0.14335 0.28132 0.20211 0.0
C129 C 0.2219 0.34177 0.21714 0.0
C130 C 0.22987 0.42793 0.21705 0.0
C131 C 0.15897 0.456 0.20208 0.0
H132 H 1.00789 0.26361 0.17608 0.0
C133 C 0.07887 0.39502 0.18747 0.0
C134 C 0.07104 0.30862 0.18744 0.0
H135 H 1.02279 0.41453 0.17583 0.0
H136 H 0.20568 0.91695 0.21219 0.0
H137 H 0.21903 0.06752 0.21153 0.0
H138 H 0.94454 0.00206 0.16043 0.0
H139 H 0.93214 0.85199 0.16101 0.0
H140 H 1.037 0.15953 0.16988 0.0
H141 H 0.18675 0.16779 0.21851 0.0
H142 H 0.27835 0.32285 0.22884 0.0
H143 H 0.29229 0.47306 0.22863 0.0
C144 C 0.4925 0.09347 0.53636 0.0
C145 C 0.51456 0.02093 0.55189 0.0
C146 C 0.41595 0.10296 0.53732 0.0
C147 C 0.35997 0.03998 0.55393 0.0
C148 C 0.38425 0.9692 0.56977 0.0
C149 C 0.45991 0.9595 0.56869 0.0
C150 C 0.27735 0.04573 0.55596 0.0
C151 C 0.22983 0.09156 0.53839 0.0
C152 C 0.147 0.09699 0.54041 0.0
C153 C 0.12266 0.16782 0.52463 0.0
C154 C 1.04656 0.17696 0.52565 0.0
C155 C 0.99153 0.11492 0.54233 0.0
H156 H 0.10477 0.97617 0.56896 0.0
C157 C 1.01376 0.04241 0.55782 0.0
C158 C 0.09073 0.03348 0.55691 0.0
H159 H 0.97227 -0.00685 0.57076 0.0
H160 H 0.53369 0.14223 0.52332 0.0
H161 H 0.40194 0.16022 0.52522 0.0
H162 H 0.34366 0.92013 0.58293 0.0
H163 H 0.47537 0.90321 0.58106 0.0
H164 H 0.25421 0.00873 0.57267 0.0
H165 H 0.25298 0.12863 0.52169 0.0
H166 H 0.16349 0.21729 0.51156 0.0
H167 H 1.03102 0.23327 0.51332 0.0
C168 C 0.08688 0.10682 0.85138 0.0
C169 C 0.06781 0.02272 0.86805 0.0
C170 C 0.17913 0.17808 0.85355 0.0
C171 C 0.25428 0.16674 0.87261 0.0
C172 C 0.23506 0.08158 0.8889 0.0
C173 C 0.14278 0.01046 0.88674 0.0
C174 C 0.35364 0.24066 0.87585 0.0
C175 C 0.37735 0.33173 0.86698 0.0
C176 C 0.47681 0.40535 0.87025 0.0
C177 C 0.49699 0.4895 0.85353 0.0
C178 C 0.58952 0.56017 0.85574 0.0
C179 C 0.66366 0.54854 0.87494 0.0
H180 H 0.53839 0.3324 0.90356 0.0
C181 C 0.64358 0.46544 0.892 0.0
C182 C 0.55111 0.39459 0.88976 0.0
H183 H 0.69942 0.45512 0.90712 0.0
H184 H 1.03041 0.11767 0.83664 0.0
H185 H 0.1909 0.24104 0.84006 0.0
H186 H 0.29148 0.07041 0.9036 0.0
H187 H 0.13007 0.94625 0.89985 0.0
H188 H 0.40888 0.21844 0.8863 0.0
H189 H 0.32234 0.35419 0.85647 0.0
H190 H 0.44118 0.50013 0.83846 0.0
H191 H 0.6031 0.6234 0.84225 0.0
C192 C 0.48357 0.84928 0.94902 0.0
C193 C 0.55187 0.82218 0.95081 0.0
C194 C 0.46616 0.84969 0.97004 0.0
C195 C 0.51734 0.82359 0.99338 0.0
C196 C 0.58459 0.79541 0.99509 0.0
C197 C 0.60199 0.79506 0.97412 0.0
C198 C 0.50134 0.82215 1.01635 0.0
C199 C 0.46238 0.87183 1.01789 0.0
C200 C 0.4491 0.87148 0.04114 0.0
C201 C 0.44043 0.94664 0.04313 0.0
C202 C 0.42781 0.94894 0.06463 0.0
C203 C 0.42305 0.87572 0.08466 0.0
H204 H 0.44525 0.73643 0.06007 0.0
C205 C 0.43022 0.79979 0.08256 0.0
C206 C 0.44265 0.79739 0.06106 0.0
H207 H 0.42437 0.7411 0.0974 0.0
H208 H 0.44251 0.86898 0.93135 0.0
H209 H 0.41152 0.86896 0.96782 0.0
H210 H 0.62477 0.77447 1.01277 0.0
H211 H 0.65599 0.77494 0.97622 0.0
H212 H 0.52762 0.78196 1.03285 0.0
H213 H 0.4438 0.91855 1.00184 0.0
H214 H 0.44432 0.00434 1.02805 0.0
H215 H 0.42292 0.00866 0.06566 0.0
C216 C 0.70221 0.09095 0.45645 0.0
C217 C 0.72114 0.15341 0.4704 0.0
C218 C 0.7123 0.12209 0.43247 0.0
C219 C 0.74121 0.21674 0.42184 0.0
C220 C 0.75729 0.27845 0.43558 0.0
C221 C 0.74695 0.24726 0.45948 0.0
C222 C 0.76178 0.2552 0.3973 0.0
C223 C 0.72781 0.20448 0.37985 0.0
C224 C 0.7522 0.24454 0.35577 0.0
C225 C 0.68824 0.20283 0.33549 0.0
C226 C 0.70935 0.23793 0.31268 0.0
C227 C 0.79578 0.31482 0.30971 0.0
H228 H 0.8916 0.35351 0.36817 0.0
C229 C 0.86055 0.35569 0.3301 0.0
C230 C 0.83912 0.32106 0.35286 0.0
H231 H 0.92764 0.41514 0.32843 0.0
H232 H 0.68185 0.01826 0.46426 0.0
H233 H 0.70083 0.07221 0.42281 0.0
H234 H 0.77986 0.3517 0.42796 0.0
H235 H 0.76257 0.29759 0.46966 0.0
H236 H 0.80529 0.32948 0.39333 0.0
H237 H 0.6773 0.13199 0.38271 0.0
H238 H 0.62135 0.14314 0.33725 0.0
H239 H 0.65847 0.20398 0.29743 0.0
C240 C 0.76926 0.86302 0.77676 0.0
C241 C 0.8249 0.82096 0.7947 0.0
C242 C 0.76309 0.87595 0.75189 0.0
C243 C 0.81222 0.84669 0.74438 0.0
C244 C 0.86554 0.80242 0.76231 0.0
C245 C 0.87238 0.79032 0.78709 0.0
C246 C 0.80878 0.85981 0.71814 0.0
C247 C 0.79523 0.9299 0.70095 0.0
C248 C 0.7972 0.94867 0.6749 0.0
C249 C 0.81344 0.0381 0.66137 0.0
C250 C 0.812 0.05924 0.6367 0.0
C251 C 0.79292 -0.00876 0.62453 0.0
H252 H 0.76562 0.81022 0.67259 0.0
C253 C 0.77807 0.90169 0.63806 0.0
C254 C 0.78014 0.88051 0.66299 0.0
H255 H 0.76259 0.84742 0.62928 0.0
H256 H 0.73124 0.88689 0.78193 0.0
H257 H 0.71895 0.90792 0.73865 0.0
H258 H 0.90339 0.7782 0.75717 0.0
H259 H 0.91491 0.7565 0.80029 0.0
H260 H 0.82467 0.81408 0.71336 0.0
H261 H 0.78756 -0.02005 0.70644 0.0
H262 H 0.82693 0.09224 0.6699 0.0
H263 H 0.82481 0.12922 0.62711 0.0
C264 C 0.84392 0.7348 0.95862 0.0
C265 C 0.91356 0.74751 0.94858 0.0
C266 C 0.85986 0.72316 0.98397 0.0
C267 C 0.94609 0.72429 0.99975 0.0
C268 C 1.0152 0.73703 0.98961 0.0
C269 C 0.9991 0.74794 0.96446 0.0
C270 C 0.9702 0.71824 1.02662 0.0
C271 C 0.90688 0.68077 0.04015 0.0
C272 C 0.93731 0.67786 0.06706 0.0
C273 C 0.88041 0.60519 0.08225 0.0
C274 C 0.91022 0.59993 0.1077 0.0
C275 C 0.99719 0.66796 0.11838 0.0
H276 H 0.0667 0.80657 0.06672 0.0
C277 C 1.05205 0.74225 0.103 0.0
C278 C 1.02254 0.74739 0.07777 0.0
H279 H 0.1185 0.79699 0.11042 0.0
H280 H 0.77736 0.73432 0.94693 0.0
H281 H 0.8056 0.71561 0.991 0.0
H282 H 0.08252 0.73891 1.00124 0.0
H283 H 1.05462 0.75775 0.95749 0.0
H284 H 1.04498 0.74301 1.03586 0.0
H285 H 0.83166 0.64754 1.03171 0.0
H286 H 0.81376 0.55132 0.07447 0.0
H287 H 0.86585 0.54214 0.11896 0.0
C288 C 0.32831 0.74911 0.27916 0.0
C289 C 0.23785 0.67996 0.27064 0.0
C290 C 0.36556 0.75324 0.30405 0.0
C291 C 0.31335 0.68775 0.32112 0.0
C292 C 0.22268 0.6192 0.31255 0.0
C293 C 0.18549 0.61511 0.28766 0.0
C294 C 0.3488 0.69082 0.34776 0.0
C295 C 0.44108 0.73422 0.35915 0.0
C296 C 0.47634 0.73875 0.3857 0.0
C297 C 0.57219 0.76026 0.39712 0.0
C298 C 0.60911 0.76829 0.42178 0.0
C299 C 0.55106 0.75538 0.43566 0.0
H300 H 0.34494 0.71283 0.39145 0.0
C301 C 0.45516 0.7341 0.42425 0.0
C302 C 0.41827 0.72623 0.39959 0.0
H303 H 0.40893 0.726 0.43422 0.0
H304 H 0.37039 0.80077 0.26656 0.0
H305 H 0.43432 0.8091 0.30964 0.0
H306 H 0.18022 0.56842 0.32516 0.0
H307 H 0.1153 0.56156 0.28179 0.0
H308 H 0.2964 0.65266 0.35841 0.0
H309 H 0.49419 0.7654 0.34891 0.0
H310 H 0.61891 0.77096 0.38691 0.0
H311 H 0.68315 0.78428 0.42999 0.0
C312 C 1.00407 0.54067 0.78938 0.0
C313 C 0.07907 0.62609 0.79505 0.0
C314 C 0.98504 0.51486 0.76749 0.0
C315 C 1.04148 0.57367 0.75085 0.0
C316 C 0.11751 0.65831 0.75679 0.0
C317 C 0.13619 0.68433 0.77865 0.0
C318 C 1.01976 0.55236 0.72656 0.0
C319 C 0.96435 0.46686 0.72089 0.0
C320 C 0.9392 0.44763 0.69615 0.0
C321 C 0.91301 0.35772 0.69368 0.0
C322 C 0.88814 0.33678 0.67068 0.0
C323 C 0.88812 0.40529 0.64962 0.0
H324 H 0.95332 0.58488 0.67601 0.0
C325 C 0.91244 0.49481 0.65202 0.0
C326 C 0.93733 0.51576 0.67501 0.0
H327 H 0.91115 0.54852 0.63609 0.0
H328 H 0.95747 0.49534 0.80141 0.0
H329 H 0.92388 0.4505 0.76342 0.0
H330 H 0.16187 0.7052 0.74429 0.0
H331 H 0.19463 0.7505 0.78259 0.0
H332 H 1.05242 0.60969 0.71297 0.0
H333 H 0.93872 0.40765 0.73494 0.0
H334 H 0.91287 0.30371 0.70962 0.0
H335 H 0.87062 0.26735 0.66947 0.0
loop_
_geom_bond_atom_site_label_1
_geom_bond_atom_site_label_2
_geom_bond_distance
_geom_bond_site_symmetry_2
_ccdc_geom_bond_type
La0 C2 2.928 . S
La0 O20 2.521 . S
La0 O21 2.628 . S
La0 O22 2.554 . S
La0 O23 2.757 1_655 S
La0 O24 2.470 1_655 S
La0 O29 2.482 . S
La0 O31 2.503 . S
La1 C11 2.928 . S
La1 O23 2.482 . S
La1 O25 2.503 . S
La1 O26 2.521 . S
La1 O27 2.628 . S
La1 O28 2.554 . S
La1 O29 2.757 1_455 S
La1 O30 2.470 1_455 S
C2 La0 2.928 . S
C2 C3 1.503 . S
C2 O20 1.261 . S
C2 O21 1.243 . S
C3 C2 1.503 . S
C3 C4 1.394 . S
C3 C8 1.373 . S
C4 C3 1.394 . S
C4 C5 1.380 . S
C4 H32 0.930 . S
C5 C4 1.380 . S
C5 C6 1.376 . S
C5 H33 0.930 . S
C6 C5 1.376 . S
C6 C7 1.370 . S
C7 C6 1.370 . S
C7 C8 1.396 . S
C7 H34 0.929 . S
C8 C3 1.373 . S
C8 C7 1.396 . S
C8 H35 0.929 . S
C9 O22 1.240 . S
C9 O23 1.289 1_655 S
C10 O24 1.258 . S
C10 O25 1.256 . S
C11 La1 2.928 . S
C11 C12 1.503 . S
C11 O26 1.261 . S
C11 O27 1.243 . S
C12 C11 1.503 . S
C12 C13 1.394 . S
C12 C17 1.373 . S
C13 C12 1.394 . S
C13 C14 1.380 . S
C13 H36 0.930 . S
C14 C13 1.380 . S
C14 C15 1.376 . S
C14 H37 0.930 . S
C15 C14 1.376 . S
C15 C16 1.370 . S
C16 C15 1.370 . S
C16 C17 1.396 . S
C16 H38 0.929 . S
C17 C12 1.373 . S
C17 C16 1.396 . S
C17 H39 0.929 . S
C18 O28 1.240 . S
C18 O29 1.289 1_455 S
C19 O30 1.258 . S
C19 O31 1.256 . S
O20 La0 2.521 . S
O20 C2 1.261 . S
O21 La0 2.628 . S
O21 C2 1.243 . S
O22 La0 2.554 . S
O22 C9 1.240 . S
O23 La0 2.757 1_455 S
O23 La1 2.482 . S
O23 C9 1.289 1_455 S
O24 La0 2.470 1_455 S
O24 C10 1.258 . S
O25 La1 2.503 . S
O25 C10 1.256 . S
O26 La1 2.521 . S
O26 C11 1.261 . S
O27 La1 2.628 . S
O27 C11 1.243 . S
O28 La1 2.554 . S
O28 C18 1.240 . S
O29 La0 2.482 . S
O29 La1 2.757 1_655 S
O29 C18 1.289 1_655 S
O30 La1 2.470 1_655 S
O30 C19 1.258 . S
O31 La0 2.503 . S
O31 C19 1.256 . S
H32 C4 0.930 . S
H33 C5 0.930 . S
H34 C7 0.929 . S
H35 C8 0.929 . S
H36 C13 0.930 . S
H37 C14 0.930 . S
H38 C16 0.929 . S
H39 C17 0.929 . S
La40 C42 2.928 . S
La40 O60 2.521 . S
La40 O61 2.628 . S
La40 O62 2.554 . S
La40 O63 2.757 1_545 S
La40 O64 2.470 1_545 S
La40 O69 2.482 . S
La40 O71 2.503 . S
La41 C51 2.928 . S
La41 O63 2.482 . S
La41 O65 2.503 . S
La41 O66 2.521 . S
La41 O67 2.628 . S
La41 O68 2.554 . S
La41 O69 2.757 1_565 S
La41 O70 2.470 1_565 S
C42 La40 2.928 . S
C42 C43 1.503 . S
C42 O60 1.261 . S
C42 O61 1.243 . S
C43 C42 1.503 . S
C43 C44 1.394 . S
C43 C48 1.373 . S
C44 C43 1.394 . S
C44 C45 1.380 . S
C44 H72 0.930 1_655 S
C45 C44 1.380 . S
C45 C46 1.376 . S
C45 H73 0.930 1_655 S
C46 C45 1.376 . S
C46 C47 1.370 . S
C47 C46 1.370 . S
C47 C48 1.396 . S
C47 H74 0.929 . S
C48 C43 1.373 . S
C48 C47 1.396 . S
C48 H75 0.929 . S
C49 O62 1.240 . S
C49 O63 1.289 1_545 S
C50 O64 1.258 . S
C50 O65 1.256 . S
C51 La41 2.928 . S
C51 C52 1.503 . S
C51 O66 1.261 . S
C51 O67 1.243 . S
C52 C51 1.503 . S
C52 C53 1.394 . S
C52 C57 1.373 . S
C53 C52 1.394 . S
C53 C54 1.380 . S
C53 H76 0.930 . S
C54 C53 1.380 . S
C54 C55 1.376 . S
C54 H77 0.930 . S
C55 C54 1.376 . S
C55 C56 1.370 . S
C56 C55 1.370 . S
C56 C57 1.396 . S
C56 H78 0.929 . S
C57 C52 1.373 . S
C57 C56 1.396 . S
C57 H79 0.929 . S
C58 O68 1.240 . S
C58 O69 1.289 1_565 S
C59 O70 1.258 . S
C59 O71 1.256 . S
O60 La40 2.521 . S
O60 C42 1.261 . S
O61 La40 2.628 . S
O61 C42 1.243 . S
O62 La40 2.554 . S
O62 C49 1.240 . S
O63 La40 2.757 1_565 S
O63 La41 2.482 . S
O63 C49 1.289 1_565 S
O64 La40 2.470 1_565 S
O64 C50 1.258 . S
O65 La41 2.503 . S
O65 C50 1.256 . S
O66 La41 2.521 . S
O66 C51 1.261 . S
O67 La41 2.628 . S
O67 C51 1.243 . S
O68 La41 2.554 . S
O68 C58 1.240 . S
O69 La40 2.482 . S
O69 La41 2.757 1_545 S
O69 C58 1.289 1_545 S
O70 La41 2.470 1_545 S
O70 C59 1.258 . S
O71 La40 2.503 . S
O71 C59 1.256 . S
H72 C44 0.930 1_455 S
H73 C45 0.930 1_455 S
H74 C47 0.929 . S
H75 C48 0.929 . S
H76 C53 0.930 . S
H77 C54 0.930 . S
H78 C56 0.929 . S
H79 C57 0.929 . S
La80 C82 2.928 . S
La80 O100 2.521 1_565 S
La80 O101 2.628 . S
La80 O102 2.554 1_565 S
La80 O103 2.757 . S
La80 O104 2.470 . S
La80 O109 2.482 . S
La80 O111 2.503 . S
La81 C91 2.928 . S
La81 O103 2.482 . S
La81 O105 2.503 . S
La81 O106 2.521 . S
La81 O107 2.628 . S
La81 O108 2.554 . S
La81 O109 2.757 . S
La81 O110 2.470 . S
C82 La80 2.928 . S
C82 C83 1.503 . S
C82 O100 1.261 1_565 S
C82 O101 1.243 . S
C83 C82 1.503 . S
C83 C84 1.394 1_565 S
C83 C88 1.373 . S
C84 C83 1.394 1_545 S
C84 C85 1.380 . S
C84 H112 0.930 . S
C85 C84 1.380 . S
C85 C86 1.376 . S
C85 H113 0.930 . S
C86 C85 1.376 . S
C86 C87 1.370 1_545 S
C87 C86 1.370 1_565 S
C87 C88 1.396 . S
C87 H114 0.929 . S
C88 C83 1.373 . S
C88 C87 1.396 . S
C88 H115 0.929 . S
C89 O102 1.240 . S
C89 O103 1.289 1_545 S
C90 O104 1.258 . S
C90 O105 1.256 . S
C91 La81 2.928 . S
C91 C92 1.503 . S
C91 O106 1.261 . S
C91 O107 1.243 . S
C92 C91 1.503 . S
C92 C93 1.394 . S
C92 C97 1.373 1_655 S
C93 C92 1.394 . S
C93 C94 1.380 . S
C93 H116 0.930 . S
C94 C93 1.380 . S
C94 C95 1.376 1_655 S
C94 H117 0.930 . S
C95 C94 1.376 1_455 S
C95 C96 1.370 . S
C96 C95 1.370 . S
C96 C97 1.396 . S
C96 H118 0.929 . S
C97 C92 1.373 1_455 S
C97 C96 1.396 . S
C97 H119 0.929 . S
C98 O108 1.240 . S
C98 O109 1.289 . S
C99 O110 1.258 . S
C99 O111 1.256 . S
O100 La80 2.521 1_545 S
O100 C82 1.261 1_545 S
O101 La80 2.628 . S
O101 C82 1.243 . S
O102 La80 2.554 1_545 S
O102 C89 1.240 . S
O103 La80 2.757 . S
O103 La81 2.482 . S
O103 C89 1.289 1_565 S
O104 La80 2.470 . S
O104 C90 1.258 . S
O105 La81 2.503 . S
O105 C90 1.256 . S
O106 La81 2.521 . S
O106 C91 1.261 . S
O107 La81 2.628 . S
O107 C91 1.243 . S
O108 La81 2.554 . S
O108 C98 1.240 . S
O109 La80 2.482 . S
O109 La81 2.757 . S
O109 C98 1.289 . S
O110 La81 2.470 . S
O110 C99 1.258 . S
O111 La80 2.503 . S
O111 C99 1.256 . S
H112 C84 0.930 . S
H113 C85 0.930 . S
H114 C87 0.929 . S
H115 C88 0.929 . S
H116 C93 0.930 . S
H117 C94 0.930 . S
H118 C96 0.929 . S
H119 C97 0.929 . S
C120 C121 1.386 1_455 S
C120 C122 1.383 1_565 S
C120 H136 0.951 1_565 S
C121 C120 1.386 1_655 S
C121 C125 1.383 . S
C122 C120 1.383 1_545 S
C122 C123 1.402 1_455 S
C122 H137 0.951 . S
C123 C122 1.402 1_655 S
C123 C124 1.375 1_545 S
C123 C126 1.481 . S
C124 C123 1.375 1_565 S
C124 C125 1.367 . S
C124 H138 0.951 . S
C125 C121 1.383 . S
C125 C124 1.367 . S
C125 H139 0.950 . S
C126 C123 1.481 . S
C126 C127 1.297 1_655 S
C126 H140 0.950 . S
C127 C126 1.297 1_455 S
C127 C128 1.479 1_455 S
C127 H141 0.950 . S
C128 C127 1.479 1_655 S
C128 C129 1.375 1_655 S
C128 C134 1.404 . S
C129 C128 1.375 1_455 S
C129 C130 1.369 . S
C129 H142 0.950 . S
C130 C129 1.369 . S
C130 C131 1.392 1_455 S
C130 H143 0.951 . S
C131 C130 1.392 1_655 S
C131 C133 1.384 . S
H132 C134 0.949 . S
C133 C131 1.384 . S
C133 C134 1.385 . S
C133 H135 0.950 . S
C134 C128 1.404 . S
C134 H132 0.949 . S
C134 C133 1.385 . S
H135 C133 0.950 . S
H136 C120 0.951 1_545 S
H137 C122 0.951 . S
H138 C124 0.951 . S
H139 C125 0.950 . S
H140 C126 0.950 . S
H141 C127 0.950 . S
H142 C129 0.950 . S
H143 C130 0.951 . S
C144 C145 1.386 1_545 S
C144 C146 1.383 . S
C144 H160 0.951 . S
C145 C144 1.386 1_565 S
C145 C149 1.383 . S
C146 C144 1.383 . S
C146 C147 1.402 1_545 S
C146 H161 0.951 . S
C147 C146 1.402 1_565 S
C147 C148 1.375 . S
C147 C150 1.481 . S
C148 C147 1.375 . S
C148 C149 1.367 . S
C148 H162 0.951 . S
C149 C145 1.383 . S
C149 C148 1.367 . S
C149 H163 0.950 . S
C150 C147 1.481 . S
C150 C151 1.297 1_565 S
C150 H164 0.950 . S
C151 C150 1.297 1_545 S
C151 C152 1.479 . S
C151 H165 0.950 . S
C152 C151 1.479 . S
C152 C153 1.375 . S
C152 C158 1.404 1_545 S
C153 C152 1.375 . S
C153 C154 1.369 . S
C153 H166 0.950 . S
C154 C153 1.369 . S
C154 C155 1.392 1_455 S
C154 H167 0.951 . S
C155 C154 1.392 1_655 S
C155 C157 1.384 1_545 S
H156 C158 0.949 . S
C157 C155 1.384 1_565 S
C157 C158 1.385 1_655 S
C157 H159 0.950 . S
C158 C152 1.404 1_565 S
C158 H156 0.949 . S
C158 C157 1.385 1_455 S
H159 C157 0.950 . S
H160 C144 0.951 . S
H161 C146 0.951 . S
H162 C148 0.951 . S
H163 C149 0.950 . S
H164 C150 0.950 . S
H165 C151 0.950 . S
H166 C153 0.950 . S
H167 C154 0.951 . S
C168 C169 1.386 . S
C168 C170 1.383 . S
C168 H184 0.951 . S
C169 C168 1.386 . S
C169 C173 1.383 . S
C170 C168 1.383 . S
C170 C171 1.402 . S
C170 H185 0.951 . S
C171 C170 1.402 . S
C171 C172 1.375 . S
C171 C174 1.481 . S
C172 C171 1.375 . S
C172 C173 1.367 . S
C172 H186 0.951 . S
C173 C169 1.383 . S
C173 C172 1.367 . S
C173 H187 0.950 . S
C174 C171 1.481 . S
C174 C175 1.297 . S
C174 H188 0.950 . S
C175 C174 1.297 . S
C175 C176 1.479 . S
C175 H189 0.950 . S
C176 C175 1.479 . S
C176 C177 1.375 . S
C176 C182 1.404 . S
C177 C176 1.375 . S
C177 C178 1.369 . S
C177 H190 0.950 . S
C178 C177 1.369 . S
C178 C179 1.392 . S
C178 H191 0.951 . S
C179 C178 1.392 . S
C179 C181 1.384 . S
H180 C182 0.949 . S
C181 C179 1.384 . S
C181 C182 1.385 . S
C181 H183 0.950 . S
C182 C176 1.404 . S
C182 H180 0.949 . S
C182 C181 1.385 . S
H183 C181 0.950 . S
H184 C168 0.951 . S
H185 C170 0.951 . S
H186 C172 0.951 . S
H187 C173 0.950 . S
H188 C174 0.950 . S
H189 C175 0.950 . S
H190 C177 0.950 . S
H191 C178 0.951 . S
C192 C193 1.386 . S
C192 C194 1.383 . S
C192 H208 0.951 . S
C193 C192 1.386 . S
C193 C197 1.383 1_545 S
C194 C192 1.383 . S
C194 C195 1.402 1_545 S
C194 H209 0.951 . S
C195 C194 1.402 1_565 S
C195 C196 1.375 . S
C195 C198 1.481 . S
C196 C195 1.375 . S
C196 C197 1.367 . S
C196 H210 0.951 . S
C197 C193 1.383 1_565 S
C197 C196 1.367 . S
C197 H211 0.950 . S
C198 C195 1.481 . S
C198 C199 1.297 . S
C198 H212 0.950 . S
C199 C198 1.297 . S
C199 C200 1.479 . S
C199 H213 0.950 1_565 S
C200 C199 1.479 . S
C200 C201 1.373 1_565 S
C200 C206 1.404 1_556 S
C201 C200 1.373 1_545 S
C201 C202 1.373 1_556 S
C201 H214 0.948 . S
C202 C201 1.373 1_554 S
C202 C203 1.392 1_545 S
C202 H215 0.951 . S
C203 C202 1.392 1_565 S
C203 C205 1.384 . S
H204 C206 0.971 . S
C205 C203 1.384 . S
C205 C206 1.385 . S
C205 H207 0.950 . S
C206 C200 1.404 1_554 S
C206 H204 0.971 . S
C206 C205 1.385 . S
H207 C205 0.950 . S
H208 C192 0.951 . S
H209 C194 0.951 . S
H210 C196 0.951 . S
H211 C197 0.950 . S
H212 C198 0.950 . S
H213 C199 0.950 1_545 S
H214 C201 0.948 . S
H215 C202 0.951 . S
C216 C217 1.386 . S
C216 C218 1.383 . S
C216 H232 0.951 . S
C217 C216 1.386 . S
C217 C221 1.383 . S
C218 C216 1.383 . S
C218 C219 1.402 . S
C218 H233 0.951 . S
C219 C218 1.402 . S
C219 C220 1.375 . S
C219 C222 1.481 . S
C220 C219 1.375 . S
C220 C221 1.367 . S
C220 H234 0.951 . S
C221 C217 1.383 . S
C221 C220 1.367 . S
C221 H235 0.950 . S
C222 C219 1.481 . S
C222 C223 1.297 . S
C222 H236 0.950 . S
C223 C222 1.297 . S
C223 C224 1.479 . S
C223 H237 0.950 . S
C224 C223 1.479 . S
C224 C225 1.375 . S
C224 C230 1.404 . S
C225 C224 1.375 . S
C225 C226 1.369 . S
C225 H238 0.950 . S
C226 C225 1.369 . S
C226 C227 1.392 . S
C226 H239 0.951 . S
C227 C226 1.392 . S
C227 C229 1.384 . S
H228 C230 0.949 . S
C229 C227 1.384 . S
C229 C230 1.385 . S
C229 H231 0.950 . S
C230 C224 1.404 . S
C230 H228 0.949 . S
C230 C229 1.385 . S
H231 C229 0.950 . S
H232 C216 0.951 . S
H233 C218 0.951 . S
H234 C220 0.951 . S
H235 C221 0.950 . S
H236 C222 0.950 . S
H237 C223 0.950 . S
H238 C225 0.950 . S
H239 C226 0.951 . S
C240 C241 1.386 . S
C240 C242 1.383 . S
C240 H256 0.951 . S
C241 C240 1.386 . S
C241 C245 1.383 . S
C242 C240 1.383 . S
C242 C243 1.402 . S
C242 H257 0.951 . S
C243 C242 1.402 . S
C243 C244 1.375 . S
C243 C246 1.481 . S
C244 C243 1.375 . S
C244 C245 1.367 . S
C244 H258 0.951 . S
C245 C241 1.383 . S
C245 C244 1.367 . S
C245 H259 0.950 . S
C246 C243 1.481 . S
C246 C247 1.297 . S
C246 H260 0.950 . S
C247 C246 1.297 . S
C247 C248 1.479 . S
C247 H261 0.946 1_565 S
C248 C247 1.479 . S
C248 C249 1.375 . S
C248 C254 1.404 . S
C249 C248 1.375 . S
C249 C250 1.369 . S
C249 H262 0.950 1_565 S
C250 C249 1.369 . S
C250 C251 1.392 . S
C250 H263 0.951 . S
C251 C250 1.392 . S
C251 C253 1.384 . S
H252 C254 0.949 . S
C253 C251 1.384 . S
C253 C254 1.385 . S
C253 H255 0.950 . S
C254 C248 1.404 . S
C254 H252 0.949 . S
C254 C253 1.385 . S
H255 C253 0.950 . S
H256 C240 0.951 . S
H257 C242 0.951 . S
H258 C244 0.951 . S
H259 C245 0.950 . S
H260 C246 0.950 . S
H261 C247 0.946 1_545 S
H262 C249 0.950 1_545 S
H263 C250 0.951 . S
C264 C265 1.386 . S
C264 C266 1.383 . S
C264 H280 0.951 . S
C265 C264 1.386 . S
C265 C269 1.383 . S
C266 C264 1.383 . S
C266 C267 1.402 . S
C266 H281 0.951 . S
C267 C266 1.402 . S
C267 C268 1.375 . S
C267 C270 1.481 . S
C268 C267 1.375 . S
C268 C269 1.367 . S
C268 H282 0.951 . S
C269 C265 1.383 . S
C269 C268 1.367 . S
C269 H283 0.950 . S
C270 C267 1.481 . S
C270 C271 1.297 . S
C270 H284 0.950 . S
C271 C270 1.297 . S
C271 C272 1.479 1_556 S
C271 H285 0.950 . S
C272 C271 1.479 1_554 S
C272 C273 1.375 . S
C272 C278 1.404 . S
C273 C272 1.375 . S
C273 C274 1.369 . S
C273 H286 0.950 . S
C274 C273 1.369 . S
C274 C275 1.392 . S
C274 H287 0.951 . S
C275 C274 1.392 . S
C275 C277 1.384 . S
H276 C278 0.949 . S
C277 C275 1.384 . S
C277 C278 1.385 . S
C277 H279 0.950 . S
C278 C272 1.404 . S
C278 H276 0.949 . S
C278 C277 1.385 . S
H279 C277 0.950 . S
H280 C264 0.951 . S
H281 C266 0.951 . S
H282 C268 0.951 . S
H283 C269 0.950 . S
H284 C270 0.950 . S
H285 C271 0.950 . S
H286 C273 0.950 . S
H287 C274 0.951 . S
C288 C289 1.386 . S
C288 C290 1.383 . S
C288 H304 0.951 . S
C289 C288 1.386 . S
C289 C293 1.383 . S
C290 C288 1.383 . S
C290 C291 1.402 . S
C290 H305 0.951 . S
C291 C290 1.402 . S
C291 C292 1.375 . S
C291 C294 1.481 . S
C292 C291 1.375 . S
C292 C293 1.367 . S
C292 H306 0.951 . S
C293 C289 1.383 . S
C293 C292 1.367 . S
C293 H307 0.950 . S
C294 C291 1.481 . S
C294 C295 1.297 . S
C294 H308 0.950 . S
C295 C294 1.297 . S
C295 C296 1.479 . S
C295 H309 0.950 . S
C296 C295 1.479 . S
C296 C297 1.375 . S
C296 C302 1.404 . S
C297 C296 1.375 . S
C297 C298 1.369 . S
C297 H310 0.950 . S
C298 C297 1.369 . S
C298 C299 1.392 . S
C298 H311 0.951 . S
C299 C298 1.392 . S
C299 C301 1.384 . S
H300 C302 0.949 . S
C301 C299 1.384 . S
C301 C302 1.385 . S
C301 H303 0.950 . S
C302 C296 1.404 . S
C302 H300 0.949 . S
C302 C301 1.385 . S
H303 C301 0.950 . S
H304 C288 0.951 . S
H305 C290 0.951 . S
H306 C292 0.951 . S
H307 C293 0.950 . S
H308 C294 0.950 . S
H309 C295 0.950 . S
H310 C297 0.950 . S
H311 C298 0.951 . S
C312 C313 1.386 1_655 S
C312 C314 1.383 . S
C312 H328 0.951 . S
C313 C312 1.386 1_455 S
C313 C317 1.383 . S
C314 C312 1.383 . S
C314 C315 1.402 1_655 S
C314 H329 0.951 . S
C315 C314 1.402 1_455 S
C315 C316 1.375 . S
C315 C318 1.481 . S
C316 C315 1.375 . S
C316 C317 1.367 . S
C316 H330 0.951 . S
C317 C313 1.383 . S
C317 C316 1.367 . S
C317 H331 0.950 . S
C318 C315 1.481 . S
C318 C319 1.297 1_455 S
C318 H332 0.950 . S
C319 C318 1.297 1_655 S
C319 C320 1.479 . S
C319 H333 0.950 . S
C320 C319 1.479 . S
C320 C321 1.375 . S
C320 C326 1.404 1_655 S
C321 C320 1.375 . S
C321 C322 1.369 . S
C321 H334 0.950 . S
C322 C321 1.369 . S
C322 C323 1.392 . S
C322 H335 0.951 . S
C323 C322 1.392 . S
C323 C325 1.384 1_655 S
H324 C326 0.949 . S
C325 C323 1.384 1_455 S
C325 C326 1.385 . S
C325 H327 0.950 . S
C326 C320 1.404 1_455 S
C326 H324 0.949 . S
C326 C325 1.385 . S
H327 C325 0.950 . S
H328 C312 0.951 . S
H329 C314 0.951 . S
H330 C316 0.951 . S
H331 C317 0.950 . S
H332 C318 0.950 . S
H333 C319 0.950 . S
H334 C321 0.950 . S
H335 C322 0.951 . S
C121 C9 1.416 . S
C131 C18 1.398 1_655 S
C145 C58 1.493 . S
C155 C49 1.511 . S
C169 C89 1.294 1_455 S
C179 C98 1.242 . S
C193 C86 0.890 . S
C203 C15 0.943 . S
C217 C59 1.846 . S
C227 C6 1.840 . S
C241 C99 2.323 . S
C251 C50 2.295 . S
C265 C90 2.256 . S
C275 C19 2.228 . S
C289 C10 1.583 . S
C299 C55 1.497 . S
C313 C95 0.947 . S
C323 C46 0.873 . S
