# Generated by pormake.
# Topology ana-e, (6)-cn, num edge types: 1
# Building blocks:
#     Node 0, Type 0, BuildingBlock: BETDEL_clean_sbu_0, # of connection points: 6
#     Node 1, Type 0, BuildingBlock: BETDEL_clean_sbu_0, # of connection points: 6
#     Node 2, Type 0, BuildingBlock: BETDEL_clean_sbu_0, # of connection points: 6
#     Node 3, Type 0, BuildingBlock: BETDEL_clean_sbu_0, # of connection points: 6
#     Node 4, Type 0, BuildingBlock: BETDEL_clean_sbu_0, # of connection points: 6
#     Node 5, Type 0, BuildingBlock: BETDEL_clean_sbu_0, # of connection points: 6
#     Node 6, Type 0, BuildingBlock: BETDEL_clean_sbu_0, # of connection points: 6
#     Node 7, Type 0, BuildingBlock: BETDEL_clean_sbu_0, # of connection points: 6
#     Node 8, Type 0, BuildingBlock: BETDEL_clean_sbu_0, # of connection points: 6
#     Node 9, Type 0, BuildingBlock: BETDEL_clean_sbu_0, # of connection points: 6
#     Node 10, Type 0, BuildingBlock: BETDEL_clean_sbu_0, # of connection points: 6
#     Node 11, Type 0, BuildingBlock: BETDEL_clean_sbu_0, # of connection points: 6
#     Node 12, Type 0, BuildingBlock: BETDEL_clean_sbu_0, # of connection points: 6
#     Node 13, Type 0, BuildingBlock: BETDEL_clean_sbu_0, # of connection points: 6
#     Node 14, Type 0, BuildingBlock: BETDEL_clean_sbu_0, # of connection points: 6
#     Node 15, Type 0, BuildingBlock: BETDEL_clean_sbu_0, # of connection points: 6
#     Node 16, Type 0, BuildingBlock: BETDEL_clean_sbu_0, # of connection points: 6
#     Node 17, Type 0, BuildingBlock: BETDEL_clean_sbu_0, # of connection points: 6
#     Node 18, Type 0, BuildingBlock: BETDEL_clean_sbu_0, # of connection points: 6
#     Node 19, Type 0, BuildingBlock: BETDEL_clean_sbu_0, # of connection points: 6
#     Node 20, Type 0, BuildingBlock: BETDEL_clean_sbu_0, # of connection points: 6
#     Node 21, Type 0, BuildingBlock: BETDEL_clean_sbu_0, # of connection points: 6
#     Node 22, Type 0, BuildingBlock: BETDEL_clean_sbu_0, # of connection points: 6
#     Node 23, Type 0, BuildingBlock: BETDEL_clean_sbu_0, # of connection points: 6
#     Node 24, Type 0, BuildingBlock: BETDEL_clean_sbu_0, # of connection points: 6
#     Node 25, Type 0, BuildingBlock: BETDEL_clean_sbu_0, # of connection points: 6
#     Node 26, Type 0, BuildingBlock: BETDEL_clean_sbu_0, # of connection points: 6
#     Node 27, Type 0, BuildingBlock: BETDEL_clean_sbu_0, # of connection points: 6
#     Node 28, Type 0, BuildingBlock: BETDEL_clean_sbu_0, # of connection points: 6
#     Node 29, Type 0, BuildingBlock: BETDEL_clean_sbu_0, # of connection points: 6
#     Node 30, Type 0, BuildingBlock: BETDEL_clean_sbu_0, # of connection points: 6
#     Node 31, Type 0, BuildingBlock: BETDEL_clean_sbu_0, # of connection points: 6
#     Node 32, Type 0, BuildingBlock: BETDEL_clean_sbu_0, # of connection points: 6
#     Node 33, Type 0, BuildingBlock: BETDEL_clean_sbu_0, # of connection points: 6
#     Node 34, Type 0, BuildingBlock: BETDEL_clean_sbu_0, # of connection points: 6
#     Node 35, Type 0, BuildingBlock: BETDEL_clean_sbu_0, # of connection points: 6
#     Node 36, Type 0, BuildingBlock: BETDEL_clean_sbu_0, # of connection points: 6
#     Node 37, Type 0, BuildingBlock: BETDEL_clean_sbu_0, # of connection points: 6
#     Node 38, Type 0, BuildingBlock: BETDEL_clean_sbu_0, # of connection points: 6
#     Node 39, Type 0, BuildingBlock: BETDEL_clean_sbu_0, # of connection points: 6
#     Node 40, Type 0, BuildingBlock: BETDEL_clean_sbu_0, # of connection points: 6
#     Node 41, Type 0, BuildingBlock: BETDEL_clean_sbu_0, # of connection points: 6
#     Node 42, Type 0, BuildingBlock: BETDEL_clean_sbu_0, # of connection points: 6
#     Node 43, Type 0, BuildingBlock: BETDEL_clean_sbu_0, # of connection points: 6
#     Node 44, Type 0, BuildingBlock: BETDEL_clean_sbu_0, # of connection points: 6
#     Node 45, Type 0, BuildingBlock: BETDEL_clean_sbu_0, # of connection points: 6
#     Node 46, Type 0, BuildingBlock: BETDEL_clean_sbu_0, # of connection points: 6
#     Node 47, Type 0, BuildingBlock: BETDEL_clean_sbu_0, # of connection points: 6
#     Node 48, Type 0, BuildingBlock: BETDEL_clean_sbu_0, # of connection points: 6
#     Node 49, Type 0, BuildingBlock: BETDEL_clean_sbu_0, # of connection points: 6
#     Node 50, Type 0, BuildingBlock: BETDEL_clean_sbu_0, # of connection points: 6
#     Node 51, Type 0, BuildingBlock: BETDEL_clean_sbu_0, # of connection points: 6
#     Node 52, Type 0, BuildingBlock: BETDEL_clean_sbu_0, # of connection points: 6
#     Node 53, Type 0, BuildingBlock: BETDEL_clean_sbu_0, # of connection points: 6
#     Node 54, Type 0, BuildingBlock: BETDEL_clean_sbu_0, # of connection points: 6
#     Node 55, Type 0, BuildingBlock: BETDEL_clean_sbu_0, # of connection points: 6
#     Node 56, Type 0, BuildingBlock: BETDEL_clean_sbu_0, # of connection points: 6
#     Node 57, Type 0, BuildingBlock: BETDEL_clean_sbu_0, # of connection points: 6
#     Node 58, Type 0, BuildingBlock: BETDEL_clean_sbu_0, # of connection points: 6
#     Node 59, Type 0, BuildingBlock: BETDEL_clean_sbu_0, # of connection points: 6
#     Node 60, Type 0, BuildingBlock: BETDEL_clean_sbu_0, # of connection points: 6
#     Node 61, Type 0, BuildingBlock: BETDEL_clean_sbu_0, # of connection points: 6
#     Node 62, Type 0, BuildingBlock: BETDEL_clean_sbu_0, # of connection points: 6
#     Node 63, Type 0, BuildingBlock: BETDEL_clean_sbu_0, # of connection points: 6
#     Node 64, Type 0, BuildingBlock: BETDEL_clean_sbu_0, # of connection points: 6
#     Node 65, Type 0, BuildingBlock: BETDEL_clean_sbu_0, # of connection points: 6
#     Node 66, Type 0, BuildingBlock: BETDEL_clean_sbu_0, # of connection points: 6
#     Node 67, Type 0, BuildingBlock: BETDEL_clean_sbu_0, # of connection points: 6
#     Node 68, Type 0, BuildingBlock: BETDEL_clean_sbu_0, # of connection points: 6
#     Node 69, Type 0, BuildingBlock: BETDEL_clean_sbu_0, # of connection points: 6
#     Node 70, Type 0, BuildingBlock: BETDEL_clean_sbu_0, # of connection points: 6
#     Node 71, Type 0, BuildingBlock: BETDEL_clean_sbu_0, # of connection points: 6
#     Node 72, Type 0, BuildingBlock: BETDEL_clean_sbu_0, # of connection points: 6
#     Node 73, Type 0, BuildingBlock: BETDEL_clean_sbu_0, # of connection points: 6
#     Node 74, Type 0, BuildingBlock: BETDEL_clean_sbu_0, # of connection points: 6
#     Node 75, Type 0, BuildingBlock: BETDEL_clean_sbu_0, # of connection points: 6
#     Node 76, Type 0, BuildingBlock: BETDEL_clean_sbu_0, # of connection points: 6
#     Node 77, Type 0, BuildingBlock: BETDEL_clean_sbu_0, # of connection points: 6
#     Node 78, Type 0, BuildingBlock: BETDEL_clean_sbu_0, # of connection points: 6
#     Node 79, Type 0, BuildingBlock: BETDEL_clean_sbu_0, # of connection points: 6
#     Node 80, Type 0, BuildingBlock: BETDEL_clean_sbu_0, # of connection points: 6
#     Node 81, Type 0, BuildingBlock: BETDEL_clean_sbu_0, # of connection points: 6
#     Node 82, Type 0, BuildingBlock: BETDEL_clean_sbu_0, # of connection points: 6
#     Node 83, Type 0, BuildingBlock: BETDEL_clean_sbu_0, # of connection points: 6
#     Node 84, Type 0, BuildingBlock: BETDEL_clean_sbu_0, # of connection points: 6
#     Node 85, Type 0, BuildingBlock: BETDEL_clean_sbu_0, # of connection points: 6
#     Node 86, Type 0, BuildingBlock: BETDEL_clean_sbu_0, # of connection points: 6
#     Node 87, Type 0, BuildingBlock: BETDEL_clean_sbu_0, # of connection points: 6
#     Node 88, Type 0, BuildingBlock: BETDEL_clean_sbu_0, # of connection points: 6
#     Node 89, Type 0, BuildingBlock: BETDEL_clean_sbu_0, # of connection points: 6
#     Node 90, Type 0, BuildingBlock: BETDEL_clean_sbu_0, # of connection points: 6
#     Node 91, Type 0, BuildingBlock: BETDEL_clean_sbu_0, # of connection points: 6
#     Node 92, Type 0, BuildingBlock: BETDEL_clean_sbu_0, # of connection points: 6
#     Node 93, Type 0, BuildingBlock: BETDEL_clean_sbu_0, # of connection points: 6
#     Node 94, Type 0, BuildingBlock: BETDEL_clean_sbu_0, # of connection points: 6
#     Node 95, Type 0, BuildingBlock: BETDEL_clean_sbu_0, # of connection points: 6
#     Edge 96, Type (0, 0), BuildingBlock: CIFDUS_clean_linker_0, # of connection points: 2
#     Edge 97, Type (0, 0), BuildingBlock: CIFDUS_clean_linker_0, # of connection points: 2
#     Edge 98, Type (0, 0), BuildingBlock: CIFDUS_clean_linker_0, # of connection points: 2
#     Edge 99, Type (0, 0), BuildingBlock: CIFDUS_clean_linker_0, # of connection points: 2
#     Edge 100, Type (0, 0), BuildingBlock: CIFDUS_clean_linker_0, # of connection points: 2
#     Edge 101, Type (0, 0), BuildingBlock: CIFDUS_clean_linker_0, # of connection points: 2
#     Edge 102, Type (0, 0), BuildingBlock: CIFDUS_clean_linker_0, # of connection points: 2
#     Edge 103, Type (0, 0), BuildingBlock: CIFDUS_clean_linker_0, # of connection points: 2
#     Edge 104, Type (0, 0), BuildingBlock: CIFDUS_clean_linker_0, # of connection points: 2
#     Edge 105, Type (0, 0), BuildingBlock: CIFDUS_clean_linker_0, # of connection points: 2
#     Edge 106, Type (0, 0), BuildingBlock: CIFDUS_clean_linker_0, # of connection points: 2
#     Edge 107, Type (0, 0), BuildingBlock: CIFDUS_clean_linker_0, # of connection points: 2
#     Edge 108, Type (0, 0), BuildingBlock: CIFDUS_clean_linker_0, # of connection points: 2
#     Edge 109, Type (0, 0), BuildingBlock: CIFDUS_clean_linker_0, # of connection points: 2
#     Edge 110, Type (0, 0), BuildingBlock: CIFDUS_clean_linker_0, # of connection points: 2
#     Edge 111, Type (0, 0), BuildingBlock: CIFDUS_clean_linker_0, # of connection points: 2
#     Edge 112, Type (0, 0), BuildingBlock: CIFDUS_clean_linker_0, # of connection points: 2
#     Edge 113, Type (0, 0), BuildingBlock: CIFDUS_clean_linker_0, # of connection points: 2
#     Edge 114, Type (0, 0), BuildingBlock: CIFDUS_clean_linker_0, # of connection points: 2
#     Edge 115, Type (0, 0), BuildingBlock: CIFDUS_clean_linker_0, # of connection points: 2
#     Edge 116, Type (0, 0), BuildingBlock: CIFDUS_clean_linker_0, # of connection points: 2
#     Edge 117, Type (0, 0), BuildingBlock: CIFDUS_clean_linker_0, # of connection points: 2
#     Edge 118, Type (0, 0), BuildingBlock: CIFDUS_clean_linker_0, # of connection points: 2
#     Edge 119, Type (0, 0), BuildingBlock: CIFDUS_clean_linker_0, # of connection points: 2
#     Edge 120, Type (0, 0), BuildingBlock: CIFDUS_clean_linker_0, # of connection points: 2
#     Edge 121, Type (0, 0), BuildingBlock: CIFDUS_clean_linker_0, # of connection points: 2
#     Edge 122, Type (0, 0), BuildingBlock: CIFDUS_clean_linker_0, # of connection points: 2
#     Edge 123, Type (0, 0), BuildingBlock: CIFDUS_clean_linker_0, # of connection points: 2
#     Edge 124, Type (0, 0), BuildingBlock: CIFDUS_clean_linker_0, # of connection points: 2
#     Edge 125, Type (0, 0), BuildingBlock: CIFDUS_clean_linker_0, # of connection points: 2
#     Edge 126, Type (0, 0), BuildingBlock: CIFDUS_clean_linker_0, # of connection points: 2
#     Edge 127, Type (0, 0), BuildingBlock: CIFDUS_clean_linker_0, # of connection points: 2
#     Edge 128, Type (0, 0), BuildingBlock: CIFDUS_clean_linker_0, # of connection points: 2
#     Edge 129, Type (0, 0), BuildingBlock: CIFDUS_clean_linker_0, # of connection points: 2
#     Edge 130, Type (0, 0), BuildingBlock: CIFDUS_clean_linker_0, # of connection points: 2
#     Edge 131, Type (0, 0), BuildingBlock: CIFDUS_clean_linker_0, # of connection points: 2
#     Edge 132, Type (0, 0), BuildingBlock: CIFDUS_clean_linker_0, # of connection points: 2
#     Edge 133, Type (0, 0), BuildingBlock: CIFDUS_clean_linker_0, # of connection points: 2
#     Edge 134, Type (0, 0), BuildingBlock: CIFDUS_clean_linker_0, # of connection points: 2
#     Edge 135, Type (0, 0), BuildingBlock: CIFDUS_clean_linker_0, # of connection points: 2
#     Edge 136, Type (0, 0), BuildingBlock: CIFDUS_clean_linker_0, # of connection points: 2
#     Edge 137, Type (0, 0), BuildingBlock: CIFDUS_clean_linker_0, # of connection points: 2
#     Edge 138, Type (0, 0), BuildingBlock: CIFDUS_clean_linker_0, # of connection points: 2
#     Edge 139, Type (0, 0), BuildingBlock: CIFDUS_clean_linker_0, # of connection points: 2
#     Edge 140, Type (0, 0), BuildingBlock: CIFDUS_clean_linker_0, # of connection points: 2
#     Edge 141, Type (0, 0), BuildingBlock: CIFDUS_clean_linker_0, # of connection points: 2
#     Edge 142, Type (0, 0), BuildingBlock: CIFDUS_clean_linker_0, # of connection points: 2
#     Edge 143, Type (0, 0), BuildingBlock: CIFDUS_clean_linker_0, # of connection points: 2
#     Edge 144, Type (0, 0), BuildingBlock: CIFDUS_clean_linker_0, # of connection points: 2
#     Edge 145, Type (0, 0), BuildingBlock: CIFDUS_clean_linker_0, # of connection points: 2
#     Edge 146, Type (0, 0), BuildingBlock: CIFDUS_clean_linker_0, # of connection points: 2
#     Edge 147, Type (0, 0), BuildingBlock: CIFDUS_clean_linker_0, # of connection points: 2
#     Edge 148, Type (0, 0), BuildingBlock: CIFDUS_clean_linker_0, # of connection points: 2
#     Edge 149, Type (0, 0), BuildingBlock: CIFDUS_clean_linker_0, # of connection points: 2
#     Edge 150, Type (0, 0), BuildingBlock: CIFDUS_clean_linker_0, # of connection points: 2
#     Edge 151, Type (0, 0), BuildingBlock: CIFDUS_clean_linker_0, # of connection points: 2
#     Edge 152, Type (0, 0), BuildingBlock: CIFDUS_clean_linker_0, # of connection points: 2
#     Edge 153, Type (0, 0), BuildingBlock: CIFDUS_clean_linker_0, # of connection points: 2
#     Edge 154, Type (0, 0), BuildingBlock: CIFDUS_clean_linker_0, # of connection points: 2
#     Edge 155, Type (0, 0), BuildingBlock: CIFDUS_clean_linker_0, # of connection points: 2
#     Edge 156, Type (0, 0), BuildingBlock: CIFDUS_clean_linker_0, # of connection points: 2
#     Edge 157, Type (0, 0), BuildingBlock: CIFDUS_clean_linker_0, # of connection points: 2
#     Edge 158, Type (0, 0), BuildingBlock: CIFDUS_clean_linker_0, # of connection points: 2
#     Edge 159, Type (0, 0), BuildingBlock: CIFDUS_clean_linker_0, # of connection points: 2
#     Edge 160, Type (0, 0), BuildingBlock: CIFDUS_clean_linker_0, # of connection points: 2
#     Edge 161, Type (0, 0), BuildingBlock: CIFDUS_clean_linker_0, # of connection points: 2
#     Edge 162, Type (0, 0), BuildingBlock: CIFDUS_clean_linker_0, # of connection points: 2
#     Edge 163, Type (0, 0), BuildingBlock: CIFDUS_clean_linker_0, # of connection points: 2
#     Edge 164, Type (0, 0), BuildingBlock: CIFDUS_clean_linker_0, # of connection points: 2
#     Edge 165, Type (0, 0), BuildingBlock: CIFDUS_clean_linker_0, # of connection points: 2
#     Edge 166, Type (0, 0), BuildingBlock: CIFDUS_clean_linker_0, # of connection points: 2
#     Edge 167, Type (0, 0), BuildingBlock: CIFDUS_clean_linker_0, # of connection points: 2
#     Edge 168, Type (0, 0), BuildingBlock: CIFDUS_clean_linker_0, # of connection points: 2
#     Edge 169, Type (0, 0), BuildingBlock: CIFDUS_clean_linker_0, # of connection points: 2
#     Edge 170, Type (0, 0), BuildingBlock: CIFDUS_clean_linker_0, # of connection points: 2
#     Edge 171, Type (0, 0), BuildingBlock: CIFDUS_clean_linker_0, # of connection points: 2
#     Edge 172, Type (0, 0), BuildingBlock: CIFDUS_clean_linker_0, # of connection points: 2
#     Edge 173, Type (0, 0), BuildingBlock: CIFDUS_clean_linker_0, # of connection points: 2
#     Edge 174, Type (0, 0), BuildingBlock: CIFDUS_clean_linker_0, # of connection points: 2
#     Edge 175, Type (0, 0), BuildingBlock: CIFDUS_clean_linker_0, # of connection points: 2
#     Edge 176, Type (0, 0), BuildingBlock: CIFDUS_clean_linker_0, # of connection points: 2
#     Edge 177, Type (0, 0), BuildingBlock: CIFDUS_clean_linker_0, # of connection points: 2
#     Edge 178, Type (0, 0), BuildingBlock: CIFDUS_clean_linker_0, # of connection points: 2
#     Edge 179, Type (0, 0), BuildingBlock: CIFDUS_clean_linker_0, # of connection points: 2
#     Edge 180, Type (0, 0), BuildingBlock: CIFDUS_clean_linker_0, # of connection points: 2
#     Edge 181, Type (0, 0), BuildingBlock: CIFDUS_clean_linker_0, # of connection points: 2
#     Edge 182, Type (0, 0), BuildingBlock: CIFDUS_clean_linker_0, # of connection points: 2
#     Edge 183, Type (0, 0), BuildingBlock: CIFDUS_clean_linker_0, # of connection points: 2
#     Edge 184, Type (0, 0), BuildingBlock: CIFDUS_clean_linker_0, # of connection points: 2
#     Edge 185, Type (0, 0), BuildingBlock: CIFDUS_clean_linker_0, # of connection points: 2
#     Edge 186, Type (0, 0), BuildingBlock: CIFDUS_clean_linker_0, # of connection points: 2
#     Edge 187, Type (0, 0), BuildingBlock: CIFDUS_clean_linker_0, # of connection points: 2
#     Edge 188, Type (0, 0), BuildingBlock: CIFDUS_clean_linker_0, # of connection points: 2
#     Edge 189, Type (0, 0), BuildingBlock: CIFDUS_clean_linker_0, # of connection points: 2
#     Edge 190, Type (0, 0), BuildingBlock: CIFDUS_clean_linker_0, # of connection points: 2
#     Edge 191, Type (0, 0), BuildingBlock: CIFDUS_clean_linker_0, # of connection points: 2
#     Edge 192, Type (0, 0), BuildingBlock: CIFDUS_clean_linker_0, # of connection points: 2
#     Edge 193, Type (0, 0), BuildingBlock: CIFDUS_clean_linker_0, # of connection points: 2
#     Edge 194, Type (0, 0), BuildingBlock: CIFDUS_clean_linker_0, # of connection points: 2
#     Edge 195, Type (0, 0), BuildingBlock: CIFDUS_clean_linker_0, # of connection points: 2
#     Edge 196, Type (0, 0), BuildingBlock: CIFDUS_clean_linker_0, # of connection points: 2
#     Edge 197, Type (0, 0), BuildingBlock: CIFDUS_clean_linker_0, # of connection points: 2
#     Edge 198, Type (0, 0), BuildingBlock: CIFDUS_clean_linker_0, # of connection points: 2
#     Edge 199, Type (0, 0), BuildingBlock: CIFDUS_clean_linker_0, # of connection points: 2
#     Edge 200, Type (0, 0), BuildingBlock: CIFDUS_clean_linker_0, # of connection points: 2
#     Edge 201, Type (0, 0), BuildingBlock: CIFDUS_clean_linker_0, # of connection points: 2
#     Edge 202, Type (0, 0), BuildingBlock: CIFDUS_clean_linker_0, # of connection points: 2
#     Edge 203, Type (0, 0), BuildingBlock: CIFDUS_clean_linker_0, # of connection points: 2
#     Edge 204, Type (0, 0), BuildingBlock: CIFDUS_clean_linker_0, # of connection points: 2
#     Edge 205, Type (0, 0), BuildingBlock: CIFDUS_clean_linker_0, # of connection points: 2
#     Edge 206, Type (0, 0), BuildingBlock: CIFDUS_clean_linker_0, # of connection points: 2
#     Edge 207, Type (0, 0), BuildingBlock: CIFDUS_clean_linker_0, # of connection points: 2
#     Edge 208, Type (0, 0), BuildingBlock: CIFDUS_clean_linker_0, # of connection points: 2
#     Edge 209, Type (0, 0), BuildingBlock: CIFDUS_clean_linker_0, # of connection points: 2
#     Edge 210, Type (0, 0), BuildingBlock: CIFDUS_clean_linker_0, # of connection points: 2
#     Edge 211, Type (0, 0), BuildingBlock: CIFDUS_clean_linker_0, # of connection points: 2
#     Edge 212, Type (0, 0), BuildingBlock: CIFDUS_clean_linker_0, # of connection points: 2
#     Edge 213, Type (0, 0), BuildingBlock: CIFDUS_clean_linker_0, # of connection points: 2
#     Edge 214, Type (0, 0), BuildingBlock: CIFDUS_clean_linker_0, # of connection points: 2
#     Edge 215, Type (0, 0), BuildingBlock: CIFDUS_clean_linker_0, # of connection points: 2
#     Edge 216, Type (0, 0), BuildingBlock: CIFDUS_clean_linker_0, # of connection points: 2
#     Edge 217, Type (0, 0), BuildingBlock: CIFDUS_clean_linker_0, # of connection points: 2
#     Edge 218, Type (0, 0), BuildingBlock: CIFDUS_clean_linker_0, # of connection points: 2
#     Edge 219, Type (0, 0), BuildingBlock: CIFDUS_clean_linker_0, # of connection points: 2
#     Edge 220, Type (0, 0), BuildingBlock: CIFDUS_clean_linker_0, # of connection points: 2
#     Edge 221, Type (0, 0), BuildingBlock: CIFDUS_clean_linker_0, # of connection points: 2
#     Edge 222, Type (0, 0), BuildingBlock: CIFDUS_clean_linker_0, # of connection points: 2
#     Edge 223, Type (0, 0), BuildingBlock: CIFDUS_clean_linker_0, # of connection points: 2
#     Edge 224, Type (0, 0), BuildingBlock: CIFDUS_clean_linker_0, # of connection points: 2
#     Edge 225, Type (0, 0), BuildingBlock: CIFDUS_clean_linker_0, # of connection points: 2
#     Edge 226, Type (0, 0), BuildingBlock: CIFDUS_clean_linker_0, # of connection points: 2
#     Edge 227, Type (0, 0), BuildingBlock: CIFDUS_clean_linker_0, # of connection points: 2
#     Edge 228, Type (0, 0), BuildingBlock: CIFDUS_clean_linker_0, # of connection points: 2
#     Edge 229, Type (0, 0), BuildingBlock: CIFDUS_clean_linker_0, # of connection points: 2
#     Edge 230, Type (0, 0), BuildingBlock: CIFDUS_clean_linker_0, # of connection points: 2
#     Edge 231, Type (0, 0), BuildingBlock: CIFDUS_clean_linker_0, # of connection points: 2
#     Edge 232, Type (0, 0), BuildingBlock: CIFDUS_clean_linker_0, # of connection points: 2
#     Edge 233, Type (0, 0), BuildingBlock: CIFDUS_clean_linker_0, # of connection points: 2
#     Edge 234, Type (0, 0), BuildingBlock: CIFDUS_clean_linker_0, # of connection points: 2
#     Edge 235, Type (0, 0), BuildingBlock: CIFDUS_clean_linker_0, # of connection points: 2
#     Edge 236, Type (0, 0), BuildingBlock: CIFDUS_clean_linker_0, # of connection points: 2
#     Edge 237, Type (0, 0), BuildingBlock: CIFDUS_clean_linker_0, # of connection points: 2
#     Edge 238, Type (0, 0), BuildingBlock: CIFDUS_clean_linker_0, # of connection points: 2
#     Edge 239, Type (0, 0), BuildingBlock: CIFDUS_clean_linker_0, # of connection points: 2
#     Edge 240, Type (0, 0), BuildingBlock: CIFDUS_clean_linker_0, # of connection points: 2
#     Edge 241, Type (0, 0), BuildingBlock: CIFDUS_clean_linker_0, # of connection points: 2
#     Edge 242, Type (0, 0), BuildingBlock: CIFDUS_clean_linker_0, # of connection points: 2
#     Edge 243, Type (0, 0), BuildingBlock: CIFDUS_clean_linker_0, # of connection points: 2
#     Edge 244, Type (0, 0), BuildingBlock: CIFDUS_clean_linker_0, # of connection points: 2
#     Edge 245, Type (0, 0), BuildingBlock: CIFDUS_clean_linker_0, # of connection points: 2
#     Edge 246, Type (0, 0), BuildingBlock: CIFDUS_clean_linker_0, # of connection points: 2
#     Edge 247, Type (0, 0), BuildingBlock: CIFDUS_clean_linker_0, # of connection points: 2
#     Edge 248, Type (0, 0), BuildingBlock: CIFDUS_clean_linker_0, # of connection points: 2
#     Edge 249, Type (0, 0), BuildingBlock: CIFDUS_clean_linker_0, # of connection points: 2
#     Edge 250, Type (0, 0), BuildingBlock: CIFDUS_clean_linker_0, # of connection points: 2
#     Edge 251, Type (0, 0), BuildingBlock: CIFDUS_clean_linker_0, # of connection points: 2
#     Edge 252, Type (0, 0), BuildingBlock: CIFDUS_clean_linker_0, # of connection points: 2
#     Edge 253, Type (0, 0), BuildingBlock: CIFDUS_clean_linker_0, # of connection points: 2
#     Edge 254, Type (0, 0), BuildingBlock: CIFDUS_clean_linker_0, # of connection points: 2
#     Edge 255, Type (0, 0), BuildingBlock: CIFDUS_clean_linker_0, # of connection points: 2
#     Edge 256, Type (0, 0), BuildingBlock: CIFDUS_clean_linker_0, # of connection points: 2
#     Edge 257, Type (0, 0), BuildingBlock: CIFDUS_clean_linker_0, # of connection points: 2
#     Edge 258, Type (0, 0), BuildingBlock: CIFDUS_clean_linker_0, # of connection points: 2
#     Edge 259, Type (0, 0), BuildingBlock: CIFDUS_clean_linker_0, # of connection points: 2
#     Edge 260, Type (0, 0), BuildingBlock: CIFDUS_clean_linker_0, # of connection points: 2
#     Edge 261, Type (0, 0), BuildingBlock: CIFDUS_clean_linker_0, # of connection points: 2
#     Edge 262, Type (0, 0), BuildingBlock: CIFDUS_clean_linker_0, # of connection points: 2
#     Edge 263, Type (0, 0), BuildingBlock: CIFDUS_clean_linker_0, # of connection points: 2
#     Edge 264, Type (0, 0), BuildingBlock: CIFDUS_clean_linker_0, # of connection points: 2
#     Edge 265, Type (0, 0), BuildingBlock: CIFDUS_clean_linker_0, # of connection points: 2
#     Edge 266, Type (0, 0), BuildingBlock: CIFDUS_clean_linker_0, # of connection points: 2
#     Edge 267, Type (0, 0), BuildingBlock: CIFDUS_clean_linker_0, # of connection points: 2
#     Edge 268, Type (0, 0), BuildingBlock: CIFDUS_clean_linker_0, # of connection points: 2
#     Edge 269, Type (0, 0), BuildingBlock: CIFDUS_clean_linker_0, # of connection points: 2
#     Edge 270, Type (0, 0), BuildingBlock: CIFDUS_clean_linker_0, # of connection points: 2
#     Edge 271, Type (0, 0), BuildingBlock: CIFDUS_clean_linker_0, # of connection points: 2
#     Edge 272, Type (0, 0), BuildingBlock: CIFDUS_clean_linker_0, # of connection points: 2
#     Edge 273, Type (0, 0), BuildingBlock: CIFDUS_clean_linker_0, # of connection points: 2
#     Edge 274, Type (0, 0), BuildingBlock: CIFDUS_clean_linker_0, # of connection points: 2
#     Edge 275, Type (0, 0), BuildingBlock: CIFDUS_clean_linker_0, # of connection points: 2
#     Edge 276, Type (0, 0), BuildingBlock: CIFDUS_clean_linker_0, # of connection points: 2
#     Edge 277, Type (0, 0), BuildingBlock: CIFDUS_clean_linker_0, # of connection points: 2
#     Edge 278, Type (0, 0), BuildingBlock: CIFDUS_clean_linker_0, # of connection points: 2
#     Edge 279, Type (0, 0), BuildingBlock: CIFDUS_clean_linker_0, # of connection points: 2
#     Edge 280, Type (0, 0), BuildingBlock: CIFDUS_clean_linker_0, # of connection points: 2
#     Edge 281, Type (0, 0), BuildingBlock: CIFDUS_clean_linker_0, # of connection points: 2
#     Edge 282, Type (0, 0), BuildingBlock: CIFDUS_clean_linker_0, # of connection points: 2
#     Edge 283, Type (0, 0), BuildingBlock: CIFDUS_clean_linker_0, # of connection points: 2
#     Edge 284, Type (0, 0), BuildingBlock: CIFDUS_clean_linker_0, # of connection points: 2
#     Edge 285, Type (0, 0), BuildingBlock: CIFDUS_clean_linker_0, # of connection points: 2
#     Edge 286, Type (0, 0), BuildingBlock: CIFDUS_clean_linker_0, # of connection points: 2
#     Edge 287, Type (0, 0), BuildingBlock: CIFDUS_clean_linker_0, # of connection points: 2
#     Edge 288, Type (0, 0), BuildingBlock: CIFDUS_clean_linker_0, # of connection points: 2
#     Edge 289, Type (0, 0), BuildingBlock: CIFDUS_clean_linker_0, # of connection points: 2
#     Edge 290, Type (0, 0), BuildingBlock: CIFDUS_clean_linker_0, # of connection points: 2
#     Edge 291, Type (0, 0), BuildingBlock: CIFDUS_clean_linker_0, # of connection points: 2
#     Edge 292, Type (0, 0), BuildingBlock: CIFDUS_clean_linker_0, # of connection points: 2
#     Edge 293, Type (0, 0), BuildingBlock: CIFDUS_clean_linker_0, # of connection points: 2
#     Edge 294, Type (0, 0), BuildingBlock: CIFDUS_clean_linker_0, # of connection points: 2
#     Edge 295, Type (0, 0), BuildingBlock: CIFDUS_clean_linker_0, # of connection points: 2
#     Edge 296, Type (0, 0), BuildingBlock: CIFDUS_clean_linker_0, # of connection points: 2
#     Edge 297, Type (0, 0), BuildingBlock: CIFDUS_clean_linker_0, # of connection points: 2
#     Edge 298, Type (0, 0), BuildingBlock: CIFDUS_clean_linker_0, # of connection points: 2
#     Edge 299, Type (0, 0), BuildingBlock: CIFDUS_clean_linker_0, # of connection points: 2
#     Edge 300, Type (0, 0), BuildingBlock: CIFDUS_clean_linker_0, # of connection points: 2
#     Edge 301, Type (0, 0), BuildingBlock: CIFDUS_clean_linker_0, # of connection points: 2
#     Edge 302, Type (0, 0), BuildingBlock: CIFDUS_clean_linker_0, # of connection points: 2
#     Edge 303, Type (0, 0), BuildingBlock: CIFDUS_clean_linker_0, # of connection points: 2
#     Edge 304, Type (0, 0), BuildingBlock: CIFDUS_clean_linker_0, # of connection points: 2
#     Edge 305, Type (0, 0), BuildingBlock: CIFDUS_clean_linker_0, # of connection points: 2
#     Edge 306, Type (0, 0), BuildingBlock: CIFDUS_clean_linker_0, # of connection points: 2
#     Edge 307, Type (0, 0), BuildingBlock: CIFDUS_clean_linker_0, # of connection points: 2
#     Edge 308, Type (0, 0), BuildingBlock: CIFDUS_clean_linker_0, # of connection points: 2
#     Edge 309, Type (0, 0), BuildingBlock: CIFDUS_clean_linker_0, # of connection points: 2
#     Edge 310, Type (0, 0), BuildingBlock: CIFDUS_clean_linker_0, # of connection points: 2
#     Edge 311, Type (0, 0), BuildingBlock: CIFDUS_clean_linker_0, # of connection points: 2
#     Edge 312, Type (0, 0), BuildingBlock: CIFDUS_clean_linker_0, # of connection points: 2
#     Edge 313, Type (0, 0), BuildingBlock: CIFDUS_clean_linker_0, # of connection points: 2
#     Edge 314, Type (0, 0), BuildingBlock: CIFDUS_clean_linker_0, # of connection points: 2
#     Edge 315, Type (0, 0), BuildingBlock: CIFDUS_clean_linker_0, # of connection points: 2
#     Edge 316, Type (0, 0), BuildingBlock: CIFDUS_clean_linker_0, # of connection points: 2
#     Edge 317, Type (0, 0), BuildingBlock: CIFDUS_clean_linker_0, # of connection points: 2
#     Edge 318, Type (0, 0), BuildingBlock: CIFDUS_clean_linker_0, # of connection points: 2
#     Edge 319, Type (0, 0), BuildingBlock: CIFDUS_clean_linker_0, # of connection points: 2
#     Edge 320, Type (0, 0), BuildingBlock: CIFDUS_clean_linker_0, # of connection points: 2
#     Edge 321, Type (0, 0), BuildingBlock: CIFDUS_clean_linker_0, # of connection points: 2
#     Edge 322, Type (0, 0), BuildingBlock: CIFDUS_clean_linker_0, # of connection points: 2
#     Edge 323, Type (0, 0), BuildingBlock: CIFDUS_clean_linker_0, # of connection points: 2
#     Edge 324, Type (0, 0), BuildingBlock: CIFDUS_clean_linker_0, # of connection points: 2
#     Edge 325, Type (0, 0), BuildingBlock: CIFDUS_clean_linker_0, # of connection points: 2
#     Edge 326, Type (0, 0), BuildingBlock: CIFDUS_clean_linker_0, # of connection points: 2
#     Edge 327, Type (0, 0), BuildingBlock: CIFDUS_clean_linker_0, # of connection points: 2
#     Edge 328, Type (0, 0), BuildingBlock: CIFDUS_clean_linker_0, # of connection points: 2
#     Edge 329, Type (0, 0), BuildingBlock: CIFDUS_clean_linker_0, # of connection points: 2
#     Edge 330, Type (0, 0), BuildingBlock: CIFDUS_clean_linker_0, # of connection points: 2
#     Edge 331, Type (0, 0), BuildingBlock: CIFDUS_clean_linker_0, # of connection points: 2
#     Edge 332, Type (0, 0), BuildingBlock: CIFDUS_clean_linker_0, # of connection points: 2
#     Edge 333, Type (0, 0), BuildingBlock: CIFDUS_clean_linker_0, # of connection points: 2
#     Edge 334, Type (0, 0), BuildingBlock: CIFDUS_clean_linker_0, # of connection points: 2
#     Edge 335, Type (0, 0), BuildingBlock: CIFDUS_clean_linker_0, # of connection points: 2
#     Edge 336, Type (0, 0), BuildingBlock: CIFDUS_clean_linker_0, # of connection points: 2
#     Edge 337, Type (0, 0), BuildingBlock: CIFDUS_clean_linker_0, # of connection points: 2
#     Edge 338, Type (0, 0), BuildingBlock: CIFDUS_clean_linker_0, # of connection points: 2
#     Edge 339, Type (0, 0), BuildingBlock: CIFDUS_clean_linker_0, # of connection points: 2
#     Edge 340, Type (0, 0), BuildingBlock: CIFDUS_clean_linker_0, # of connection points: 2
#     Edge 341, Type (0, 0), BuildingBlock: CIFDUS_clean_linker_0, # of connection points: 2
#     Edge 342, Type (0, 0), BuildingBlock: CIFDUS_clean_linker_0, # of connection points: 2
#     Edge 343, Type (0, 0), BuildingBlock: CIFDUS_clean_linker_0, # of connection points: 2
#     Edge 344, Type (0, 0), BuildingBlock: CIFDUS_clean_linker_0, # of connection points: 2
#     Edge 345, Type (0, 0), BuildingBlock: CIFDUS_clean_linker_0, # of connection points: 2
#     Edge 346, Type (0, 0), BuildingBlock: CIFDUS_clean_linker_0, # of connection points: 2
#     Edge 347, Type (0, 0), BuildingBlock: CIFDUS_clean_linker_0, # of connection points: 2
#     Edge 348, Type (0, 0), BuildingBlock: CIFDUS_clean_linker_0, # of connection points: 2
#     Edge 349, Type (0, 0), BuildingBlock: CIFDUS_clean_linker_0, # of connection points: 2
#     Edge 350, Type (0, 0), BuildingBlock: CIFDUS_clean_linker_0, # of connection points: 2
#     Edge 351, Type (0, 0), BuildingBlock: CIFDUS_clean_linker_0, # of connection points: 2
#     Edge 352, Type (0, 0), BuildingBlock: CIFDUS_clean_linker_0, # of connection points: 2
#     Edge 353, Type (0, 0), BuildingBlock: CIFDUS_clean_linker_0, # of connection points: 2
#     Edge 354, Type (0, 0), BuildingBlock: CIFDUS_clean_linker_0, # of connection points: 2
#     Edge 355, Type (0, 0), BuildingBlock: CIFDUS_clean_linker_0, # of connection points: 2
#     Edge 356, Type (0, 0), BuildingBlock: CIFDUS_clean_linker_0, # of connection points: 2
#     Edge 357, Type (0, 0), BuildingBlock: CIFDUS_clean_linker_0, # of connection points: 2
#     Edge 358, Type (0, 0), BuildingBlock: CIFDUS_clean_linker_0, # of connection points: 2
#     Edge 359, Type (0, 0), BuildingBlock: CIFDUS_clean_linker_0, # of connection points: 2
#     Edge 360, Type (0, 0), BuildingBlock: CIFDUS_clean_linker_0, # of connection points: 2
#     Edge 361, Type (0, 0), BuildingBlock: CIFDUS_clean_linker_0, # of connection points: 2
#     Edge 362, Type (0, 0), BuildingBlock: CIFDUS_clean_linker_0, # of connection points: 2
#     Edge 363, Type (0, 0), BuildingBlock: CIFDUS_clean_linker_0, # of connection points: 2
#     Edge 364, Type (0, 0), BuildingBlock: CIFDUS_clean_linker_0, # of connection points: 2
#     Edge 365, Type (0, 0), BuildingBlock: CIFDUS_clean_linker_0, # of connection points: 2
#     Edge 366, Type (0, 0), BuildingBlock: CIFDUS_clean_linker_0, # of connection points: 2
#     Edge 367, Type (0, 0), BuildingBlock: CIFDUS_clean_linker_0, # of connection points: 2
#     Edge 368, Type (0, 0), BuildingBlock: CIFDUS_clean_linker_0, # of connection points: 2
#     Edge 369, Type (0, 0), BuildingBlock: CIFDUS_clean_linker_0, # of connection points: 2
#     Edge 370, Type (0, 0), BuildingBlock: CIFDUS_clean_linker_0, # of connection points: 2
#     Edge 371, Type (0, 0), BuildingBlock: CIFDUS_clean_linker_0, # of connection points: 2
#     Edge 372, Type (0, 0), BuildingBlock: CIFDUS_clean_linker_0, # of connection points: 2
#     Edge 373, Type (0, 0), BuildingBlock: CIFDUS_clean_linker_0, # of connection points: 2
#     Edge 374, Type (0, 0), BuildingBlock: CIFDUS_clean_linker_0, # of connection points: 2
#     Edge 375, Type (0, 0), BuildingBlock: CIFDUS_clean_linker_0, # of connection points: 2
#     Edge 376, Type (0, 0), BuildingBlock: CIFDUS_clean_linker_0, # of connection points: 2
#     Edge 377, Type (0, 0), BuildingBlock: CIFDUS_clean_linker_0, # of connection points: 2
#     Edge 378, Type (0, 0), BuildingBlock: CIFDUS_clean_linker_0, # of connection points: 2
#     Edge 379, Type (0, 0), BuildingBlock: CIFDUS_clean_linker_0, # of connection points: 2
#     Edge 380, Type (0, 0), BuildingBlock: CIFDUS_clean_linker_0, # of connection points: 2
#     Edge 381, Type (0, 0), BuildingBlock: CIFDUS_clean_linker_0, # of connection points: 2
#     Edge 382, Type (0, 0), BuildingBlock: CIFDUS_clean_linker_0, # of connection points: 2
#     Edge 383, Type (0, 0), BuildingBlock: CIFDUS_clean_linker_0, # of connection points: 2
# Relax obj value: 0.388
# Max RMSD: 0.268
# Mean RMSD: 0.251
data_MOF--net-ana-e--node1-BETDEL_clean_sbu_0--edge1-CIFDUS_clean_linker_0
_symmetry_space_group_name_H-M    P1
_symmetry_Int_Tables_number       1
_symmetry_cell_setting            triclinic
loop_
_symmetry_equiv_pos_as_xyz
'x, y, z'
_cell_length_a     68.427584
_cell_length_b     69.479937
_cell_length_c     70.860478
_cell_angle_alpha  90.244255
_cell_angle_beta   90.85002
_cell_angle_gamma 89.452428
loop_
_atom_site_label
_atom_site_type_symbol
_atom_site_fract_x
_atom_site_fract_y
_atom_site_fract_z
_atom_type_partial_charge
Dy0 Dy 0.02446 0.08818 0.36087 0.0
C1 C 0.95816 0.12413 0.39516 0.0
C2 C 0.05896 0.0747 0.34705 0.0
Dy3 Dy 0.99244 0.11087 0.38096 0.0
O4 O 0.05003 0.09029 0.34145 0.0
O5 O 0.04897 0.06643 0.36011 0.0
O6 O 0.00388 0.06357 0.35633 0.0
O7 O 0.00165 0.08096 0.3806 0.0
C8 C 0.99408 0.06727 0.37149 0.0
C9 C 0.02287 0.13163 0.37074 0.0
O10 O 0.00976 0.10206 0.4063 0.0
O11 O 0.03805 0.09614 0.38956 0.0
O12 O 0.97505 0.13221 0.39736 0.0
O13 O 0.96009 0.10839 0.38542 0.0
O14 O 0.01256 0.13565 0.38548 0.0
O15 O 0.01539 0.11814 0.36133 0.0
O16 O 0.00604 0.09596 0.33509 0.0
O17 O 0.98076 0.11133 0.35102 0.0
C18 C 0.02896 0.09977 0.40575 0.0
C19 C 0.98868 0.10483 0.33519 0.0
Dy20 Dy 0.16777 0.79156 0.61215 0.0
C21 C 0.12284 0.72133 0.62449 0.0
C22 C 0.17894 0.82821 0.60414 0.0
Dy23 Dy 0.14112 0.75559 0.61972 0.0
O24 O 0.16814 0.81741 0.59339 0.0
O25 O 0.18409 0.81883 0.61932 0.0
O26 O 0.19456 0.77217 0.61346 0.0
O27 O 0.16952 0.7658 0.62891 0.0
C28 C 0.18605 0.75968 0.62425 0.0
C29 C 0.12259 0.78764 0.60891 0.0
O30 O 0.14054 0.76914 0.64801 0.0
O31 O 0.15218 0.79925 0.63908 0.0
O32 O 0.11855 0.73387 0.61153 0.0
O33 O 0.13748 0.72733 0.63478 0.0
O34 O 0.11442 0.7744 0.61886 0.0
O35 O 0.139 0.78195 0.60342 0.0
O36 O 0.16612 0.77803 0.58357 0.0
O37 O 0.15659 0.74753 0.59321 0.0
C38 C 0.144 0.78755 0.65146 0.0
C39 C 0.1628 0.75959 0.58021 0.0
Dy40 Dy 0.4862 0.87922 0.83929 0.0
C41 C 0.46841 0.85718 0.91418 0.0
C42 C 0.50108 0.88652 0.80445 0.0
Dy43 Dy 0.48108 0.86944 0.88028 0.0
O44 O 0.49035 0.87197 0.80873 0.0
O45 O 0.50317 0.89759 0.8192 0.0
O46 O 0.45838 0.86339 0.83236 0.0
O47 O 0.47705 0.85386 0.85425 0.0
C48 C 0.46094 0.85115 0.84599 0.0
C49 C 0.50943 0.89456 0.87492 0.0
O50 O 0.50436 0.84796 0.87458 0.0
O51 O 0.51334 0.86152 0.84618 0.0
O52 O 0.47801 0.87291 0.91144 0.0
O53 O 0.46546 0.8482 0.89833 0.0
O54 O 0.50935 0.88196 0.88835 0.0
O55 O 0.49323 0.89474 0.86574 0.0
O56 O 0.4601 0.8984 0.84406 0.0
O57 O 0.45362 0.88613 0.87379 0.0
C58 C 0.5166 0.84953 0.86046 0.0
C59 C 0.44872 0.89681 0.85899 0.0
Dy60 Dy 0.36494 0.2217 0.10414 0.0
C61 C 0.3982 0.2918 0.13312 0.0
C62 C 0.35318 0.18634 0.09187 0.0
Dy63 Dy 0.38551 0.25608 0.12285 0.0
O64 O 0.36958 0.19439 0.08759 0.0
O65 O 0.34329 0.19754 0.103 0.0
O66 O 0.33956 0.24107 0.09544 0.0
O67 O 0.35573 0.24691 0.12001 0.0
C68 C 0.34272 0.25327 0.10908 0.0
C69 C 0.40786 0.2247 0.12047 0.0
O70 O 0.3694 0.24393 0.14726 0.0
O71 O 0.36891 0.21306 0.13475 0.0
O72 O 0.4011 0.27618 0.14279 0.0
O73 O 0.38785 0.28787 0.11813 0.0
O74 O 0.41023 0.23791 0.13323 0.0
O75 O 0.39553 0.2301 0.10808 0.0
O76 O 0.37411 0.23639 0.0776 0.0
O77 O 0.38663 0.26386 0.09207 0.0
C78 C 0.36782 0.22504 0.14937 0.0
C79 C 0.38184 0.2538 0.07676 0.0
Dy80 Dy 0.02007 0.87828 0.13686 0.0
C81 C 0.95333 0.85928 0.09145 0.0
C82 C 0.05457 0.88743 0.15451 0.0
Dy83 Dy 0.98804 0.86465 0.11008 0.0
O84 O 0.04624 0.87071 0.15522 0.0
O85 O 0.04393 0.89911 0.14438 0.0
O86 O -0.00088 0.90149 0.14638 0.0
O87 O -0.00098 0.89249 0.11818 0.0
C88 C 0.9909 0.90344 0.12986 0.0
C89 C 0.01631 0.83844 0.11587 0.0
O90 O 0.0061 0.88031 0.08984 0.0
O91 O 0.03422 0.87676 0.10796 0.0
O92 O 0.95582 0.86994 0.10636 0.0
O93 O 0.96997 0.85177 0.08664 0.0
O94 O 0.00589 0.83967 0.10047 0.0
O95 O 0.00969 0.84979 0.12827 0.0
O96 O 0.00053 0.86578 0.15902 0.0
O97 O 0.9746 0.85984 0.13829 0.0
C98 C 0.02532 0.87975 0.09141 0.0
C99 C 0.98221 0.86036 0.15562 0.0
Dy100 Dy 0.38396 0.76517 0.40747 0.0
C101 C 0.38742 0.79297 0.33278 0.0
C102 C 0.38034 0.74378 0.43948 0.0
Dy103 Dy 0.38469 0.77683 0.36728 0.0
O104 O 0.39615 0.75229 0.43428 0.0
O105 O 0.3663 0.74749 0.42746 0.0
O106 O 0.40088 0.7913 0.41686 0.0
O107 O 0.40576 0.77906 0.39022 0.0
C108 C 0.40967 0.79315 0.40082 0.0
C109 C 0.3619 0.74623 0.37301 0.0
O110 O 0.40993 0.75673 0.36654 0.0
O111 O 0.40141 0.74098 0.39377 0.0
O112 O 0.37112 0.78931 0.34108 0.0
O113 O 0.40218 0.78796 0.34334 0.0
O114 O 0.37201 0.74908 0.35801 0.0
O115 O 0.36304 0.76078 0.38394 0.0
O116 O 0.3642 0.79136 0.40981 0.0
O117 O 0.37146 0.80314 0.38018 0.0
C118 C 0.41183 0.74204 0.37815 0.0
C119 C 0.36322 0.80513 0.39683 0.0
Dy120 Dy 0.48445 0.10568 0.65763 0.0
C121 C 0.45081 0.10626 0.58342 0.0
C122 C 0.49968 0.10959 0.69301 0.0
Dy123 Dy 0.47199 0.10084 0.61561 0.0
O124 O 0.49276 0.1234 0.68265 0.0
O125 O 0.49889 0.09328 0.68385 0.0
O126 O 0.4596 0.12649 0.66094 0.0
O127 O 0.47443 0.12443 0.63521 0.0
C128 C 0.46034 0.13215 0.64356 0.0
C129 C 0.49657 0.07354 0.62705 0.0
O130 O 0.49733 0.12071 0.61235 0.0
O131 O 0.51088 0.11706 0.64252 0.0
O132 O 0.46726 0.09677 0.58431 0.0
O133 O 0.44609 0.11261 0.59997 0.0
O134 O 0.4933 0.07764 0.6094 0.0
O135 O 0.48406 0.08184 0.63746 0.0
O136 O 0.45572 0.09082 0.66197 0.0
O137 O 0.44571 0.08968 0.63036 0.0
C138 C 0.51178 0.12327 0.62481 0.0
C139 C 0.44238 0.08731 0.64858 0.0
Dy140 Dy 0.16427 0.21258 0.90166 0.0
C141 C 0.11881 0.27954 0.87861 0.0
C142 C 0.17505 0.17638 0.91237 0.0
Dy143 Dy 0.13955 0.24681 0.88588 0.0
O144 O 0.15918 0.18523 0.91745 0.0
O145 O 0.18527 0.18747 0.90168 0.0
O146 O 0.19103 0.23095 0.90318 0.0
O147 O 0.16908 0.23585 0.88235 0.0
C148 C 0.18473 0.24205 0.88955 0.0
C149 C 0.12023 0.21613 0.89736 0.0
O150 O 0.14391 0.23176 0.85849 0.0
O151 O 0.15392 0.20278 0.87225 0.0
O152 O 0.1126 0.26473 0.88767 0.0
O153 O 0.13672 0.27663 0.87319 0.0
O154 O 0.11484 0.22616 0.88279 0.0
O155 O 0.13496 0.22327 0.90528 0.0
O156 O 0.16019 0.22982 0.92849 0.0
O157 O 0.15137 0.25835 0.91333 0.0
C158 C 0.14781 0.21304 0.85729 0.0
C159 C 0.15646 0.24866 0.92875 0.0
Dy160 Dy 0.3402 0.04397 0.10198 0.0
C161 C 0.37427 0.98414 0.14786 0.0
C162 C 0.32433 0.07761 0.08904 0.0
Dy163 Dy 0.35556 0.01342 0.12983 0.0
O164 O 0.31939 0.069 0.10449 0.0
O165 O 0.33705 0.06707 0.08012 0.0
O166 O 0.35583 0.02978 0.07792 0.0
O167 O 0.34566 0.0134 0.10057 0.0
C168 C 0.35566 0.01292 0.08586 0.0
C169 C 0.33958 0.04515 0.14485 0.0
O170 O 0.38384 0.02654 0.12071 0.0
O171 O 0.37024 0.05504 0.10983 0.0
O172 O 0.37061 0.0009 0.15521 0.0
O173 O 0.36755 0.98329 0.13064 0.0
O174 O 0.33835 0.0283 0.15265 0.0
O175 O 0.35035 0.04409 0.13075 0.0
O176 O 0.31246 0.0266 0.10755 0.0
O177 O 0.32545 0.00201 0.12654 0.0
C178 C 0.38572 0.04461 0.11522 0.0
C179 C 0.31058 0.01036 0.11751 0.0
Dy180 Dy 0.2046 0.09723 0.3384 0.0
C181 C 0.26497 0.14018 0.37544 0.0
C182 C 0.17038 0.08074 0.32688 0.0
Dy183 Dy 0.23339 0.12251 0.35959 0.0
O184 O 0.18 0.09335 0.31736 0.0
O185 O 0.17984 0.07673 0.3424 0.0
O186 O 0.22616 0.09317 0.31478 0.0
O187 O 0.22538 0.1189 0.33036 0.0
C188 C 0.2345 0.10965 0.31806 0.0
C189 C 0.20277 0.11176 0.37968 0.0
O190 O 0.21674 0.14492 0.34411 0.0
O191 O 0.18922 0.12615 0.34337 0.0
O192 O 0.24688 0.14339 0.37977 0.0
O193 O 0.26568 0.12783 0.36166 0.0
O194 O 0.21138 0.12812 0.38189 0.0
O195 O 0.21191 0.10122 0.36824 0.0
O196 O 0.22462 0.07331 0.34877 0.0
O197 O 0.24851 0.09384 0.36049 0.0
C198 C 0.19755 0.1434 0.34302 0.0
C199 C 0.24209 0.07629 0.35667 0.0
Dy200 Dy 0.15171 0.97585 0.61262 0.0
C201 C 0.10494 0.04133 0.63743 0.0
C202 C 0.1707 0.9412 0.61084 0.0
Dy203 Dy 0.12163 0.00714 0.62654 0.0
O204 O 0.16903 0.9518 0.62584 0.0
O205 O 0.1623 0.94975 0.59651 0.0
O206 O 0.16211 0.99539 0.58969 0.0
O207 O 0.1333 0.99788 0.59959 0.0
C208 C 0.14592 0.00549 0.58933 0.0
C209 C 0.12713 0.97672 0.64864 0.0
O210 O 0.10212 0.99024 0.60747 0.0
O211 O 0.12185 0.96277 0.60896 0.0
O212 O 0.09827 0.02435 0.64124 0.0
O213 O 0.12003 0.0395 0.6266 0.0
O214 O 0.11063 0.98606 0.64788 0.0
O215 O 0.13977 0.98516 0.63923 0.0
O216 O 0.17294 0.99442 0.62813 0.0
O217 O 0.15078 0.01896 0.63544 0.0
C218 C 0.10474 0.97138 0.60538 0.0
C219 C 0.16869 0.01144 0.63556 0.0
Dy220 Dy 0.29449 0.8988 0.86013 0.0
C221 C 0.21855 0.87783 0.8873 0.0
C222 C 0.33323 0.9056 0.85289 0.0
Dy223 Dy 0.25677 0.88346 0.87853 0.0
O224 O 0.32023 0.90015 0.84045 0.0
O225 O 0.32493 0.90765 0.86916 0.0
O226 O 0.2763 0.90822 0.83466 0.0
O227 O 0.26805 0.88431 0.85039 0.0
C228 C 0.26285 0.89536 0.83725 0.0
C229 C 0.28767 0.88493 0.90168 0.0
O230 O 0.26771 0.85653 0.86532 0.0
O231 O 0.29985 0.86679 0.86311 0.0
O232 O 0.23317 0.86759 0.89369 0.0
O233 O 0.22482 0.89092 0.87596 0.0
O234 O 0.27342 0.87296 0.9037 0.0
O235 O 0.28353 0.89713 0.88902 0.0
O236 O 0.2818 0.92737 0.86871 0.0
O237 O 0.25169 0.91524 0.8779 0.0
C238 C 0.28662 0.85291 0.86336 0.0
C239 C 0.26356 0.92969 0.87445 0.0
Dy240 Dy 0.34472 0.95429 0.38148 0.0
C241 C 0.36843 0.02642 0.34997 0.0
C242 C 0.33653 0.91619 0.38817 0.0
Dy243 Dy 0.36271 0.98897 0.35951 0.0
O244 O 0.33208 0.92572 0.37293 0.0
O245 O 0.3447 0.92783 0.40033 0.0
O246 O 0.34041 0.97389 0.40688 0.0
O247 O 0.36334 0.97864 0.38818 0.0
C248 C 0.35445 0.98549 0.40215 0.0
C249 C 0.35454 0.95815 0.33852 0.0
O250 O 0.39063 0.97526 0.36927 0.0
O251 O 0.37611 0.94587 0.37597 0.0
O252 O 0.37616 0.01172 0.34127 0.0
O253 O 0.35823 0.02056 0.36404 0.0
O254 O 0.36782 0.97051 0.33406 0.0
O255 O 0.34489 0.96424 0.3524 0.0
O256 O 0.31641 0.97001 0.37515 0.0
O257 O 0.33119 0.99725 0.36268 0.0
C258 C 0.39179 0.95658 0.37301 0.0
C259 C 0.31562 0.98789 0.36849 0.0
Dy260 Dy 0.29046 0.10834 0.66053 0.0
C261 C 0.21863 0.12868 0.61712 0.0
C262 C 0.32895 0.0988 0.6677 0.0
Dy263 Dy 0.25346 0.12138 0.6355 0.0
O264 O 0.3184 0.11031 0.67809 0.0
O265 O 0.31826 0.09224 0.65385 0.0
O266 O 0.27178 0.10746 0.68697 0.0
O267 O 0.26422 0.12508 0.66406 0.0
C268 C 0.25839 0.11878 0.6795 0.0
C269 C 0.28635 0.11307 0.61736 0.0
O270 O 0.26455 0.14948 0.64522 0.0
O271 O 0.29648 0.13875 0.65071 0.0
O272 O 0.2298 0.14171 0.62471 0.0
O273 O 0.22637 0.11177 0.61989 0.0
O274 O 0.27321 0.12487 0.6108 0.0
O275 O 0.28013 0.10457 0.63157 0.0
O276 O 0.27447 0.08042 0.65786 0.0
O277 O 0.24429 0.09417 0.64916 0.0
C278 C 0.28345 0.15278 0.64743 0.0
C279 C 0.25529 0.07943 0.65489 0.0
Dy280 Dy 0.14713 0.02993 0.90377 0.0
C281 C 0.11465 0.96176 0.86986 0.0
C282 C 0.15966 0.06482 0.91646 0.0
Dy283 Dy 0.12632 0.99714 0.88177 0.0
O284 O 0.14708 0.05411 0.92492 0.0
O285 O 0.16554 0.05636 0.90116 0.0
O286 O 0.15239 0.00935 0.92821 0.0
O287 O 0.1278 0.00671 0.91058 0.0
C288 C 0.13718 -0.00096 0.92382 0.0
C289 C 0.13386 0.0279 0.86119 0.0
O290 O 0.10088 0.01212 0.89458 0.0
O291 O 0.1168 0.04138 0.89649 0.0
O292 O 0.10751 0.97804 0.86381 0.0
O293 O 0.12782 0.9649 0.88286 0.0
O294 O 0.11945 0.0164 0.85741 0.0
O295 O 0.14462 0.0212 0.8742 0.0
O296 O 0.17412 0.01422 0.89442 0.0
O297 O 0.15788 0.98813 0.8808 0.0
C298 C 0.10048 0.03113 0.89585 0.0
C299 C 0.17413 0.99726 0.88574 0.0
Dy300 Dy 0.19994 0.89746 0.14544 0.0
C301 C 0.26096 0.86755 0.09756 0.0
C302 C 0.16606 0.91171 0.1601 0.0
Dy303 Dy 0.23016 0.88314 0.11615 0.0
O304 O 0.17463 0.91836 0.14524 0.0
O305 O 0.1768 0.89813 0.16757 0.0
O306 O 0.21438 0.88021 0.16862 0.0
O307 O 0.23077 0.89039 0.14599 0.0
C308 C 0.23115 0.87959 0.1602 0.0
C309 C 0.19852 0.90157 0.1025 0.0
O310 O 0.21434 0.85511 0.12148 0.0
O311 O 0.18746 0.8692 0.13571 0.0
O312 O 0.24453 0.87275 0.08962 0.0
O313 O 0.26035 0.87043 0.11562 0.0
O314 O 0.21555 0.9023 0.09461 0.0
O315 O 0.19927 0.88994 0.11597 0.0
O316 O 0.2172 0.92491 0.14085 0.0
O317 O 0.24177 0.91277 0.12134 0.0
C318 C 0.19638 0.85393 0.12827 0.0
C319 C 0.23346 0.92708 0.13087 0.0
Dy320 Dy 0.12314 0.35443 0.03883 0.0
C321 C 0.13427 0.39382 0.9683 0.0
C322 C 0.12017 0.33913 0.07413 0.0
Dy323 Dy 0.133 0.38086 0.00453 0.0
O324 O 0.13529 0.33732 0.06337 0.0
O325 O 0.10657 0.34895 0.06543 0.0
O326 O 0.09686 0.34364 0.02275 0.0
O327 O 0.1068 0.37194 0.01881 0.0
C328 C 0.0948 0.35951 0.0132 0.0
C329 C 0.16128 0.37636 0.03045 0.0
O330 O 0.12041 0.40329 0.02311 0.0
O331 O 0.12472 0.38516 0.05052 0.0
O332 O 0.14562 0.39951 0.98207 0.0
O333 O 0.12162 0.38172 0.97467 0.0
O334 O 0.1598 0.3916 0.01987 0.0
O335 O 0.14919 0.36398 0.02496 0.0
O336 O 0.13567 0.3313 0.01962 0.0
O337 O 0.13877 0.35117 0.99341 0.0
C338 C 0.12183 0.40197 0.04174 0.0
C339 C 0.14002 0.33403 0.00155 0.0
Dy340 Dy 0.61088 0.1658 0.98482 0.0
C341 C 0.61547 0.08649 0.96036 0.0
C342 C 0.61077 0.20191 3e-05 0.0
Dy343 Dy 0.61076 0.12211 0.97582 0.0
O344 O 0.62497 0.19418 0.99071 0.0
O345 O 0.59629 0.18994 0.00081 0.0
O346 O 0.6309 0.17036 0.96071 0.0
O347 O 0.63258 0.14454 0.97621 0.0
C348 C 0.63886 0.1534 0.96209 0.0
C349 C 0.58227 0.13375 0.99806 0.0
O350 O 0.62818 0.12085 0.00268 0.0
O351 O 0.62193 0.15247 0.01194 0.0
O352 O 0.59882 0.09533 0.96228 0.0
O353 O 0.62959 0.09713 0.9668 0.0
O354 O 0.58924 0.11631 0.99824 0.0
O355 O 0.58905 0.14333 0.98464 0.0
O356 O 0.59171 0.16672 0.9591 0.0
O357 O 0.60103 0.1361 0.94881 0.0
C358 C 0.62899 0.13492 0.01535 0.0
C359 C 0.59224 0.153 0.94603 0.0
Dy360 Dy 0.12645 0.34568 0.22021 0.0
C361 C 0.17154 0.37903 0.28199 0.0
C362 C 0.11225 0.33598 0.18521 0.0
Dy363 Dy 0.15243 0.36507 0.25092 0.0
O364 O 0.1059 0.35018 0.19547 0.0
O365 O 0.12581 0.32661 0.19443 0.0
O366 O 0.11575 0.32372 0.24094 0.0
O367 O 0.14361 0.33582 0.2444 0.0
C368 C 0.13099 0.3255 0.25205 0.0
C369 C 0.14865 0.38452 0.21859 0.0
O370 O 0.17359 0.34496 0.23813 0.0
O371 O 0.15734 0.34556 0.2094 0.0
O372 O 0.17634 0.38206 0.26465 0.0
O373 O 0.15628 0.36803 0.28243 0.0
O374 O 0.16394 0.38559 0.22952 0.0
O375 O 0.13554 0.37497 0.22641 0.0
O376 O 0.10327 0.36319 0.23485 0.0
O377 O 0.1225 0.37309 0.26051 0.0
C378 C 0.17366 0.3435 0.21957 0.0
C379 C 0.10546 0.37207 0.25141 0.0
Dy380 Dy 0.89576 0.84717 0.46237 0.0
C381 C 0.86599 0.87912 0.53144 0.0
C382 C 0.90596 0.83772 0.42616 0.0
Dy383 Dy 0.87536 0.86616 0.49632 0.0
O384 O 0.91571 0.849 0.43743 0.0
O385 O 0.89092 0.83104 0.43493 0.0
O386 O 0.92229 0.84081 0.4806 0.0
O387 O 0.90505 0.86527 0.48621 0.0
C388 C 0.91911 0.85504 0.49222 0.0
C389 C 0.85176 0.85937 0.46666 0.0
O390 O 0.88636 0.89215 0.48208 0.0
O391 O 0.88799 0.87719 0.45289 0.0
O392 O 0.85854 0.8856 0.51575 0.0
O393 O 0.87841 0.86538 0.52798 0.0
O394 O 0.84862 0.87297 0.47885 0.0
O395 O 0.86572 0.84872 0.47222 0.0
O396 O 0.88802 0.82005 0.47762 0.0
O397 O 0.87736 0.83524 0.50516 0.0
C398 C 0.8869 0.89292 0.46347 0.0
C399 C 0.88194 0.8196 0.49532 0.0
Dy400 Dy 0.88094 0.12843 0.21779 0.0
C401 C 0.84908 0.10196 0.28807 0.0
C402 C 0.89416 0.13794 0.18289 0.0
Dy403 Dy 0.86251 0.10872 0.2528 0.0
O404 O 0.89985 0.12291 0.19244 0.0
O405 O 0.88152 0.14778 0.19252 0.0
O406 O 0.88036 0.1567 0.23328 0.0
O407 O 0.85896 0.1359 0.23838 0.0
C408 C 0.8655 0.15197 0.24349 0.0
C409 C 0.87885 0.0846 0.22808 0.0
O410 O 0.83586 0.11281 0.23511 0.0
O411 O 0.85201 0.11613 0.20668 0.0
O412 O 0.84176 0.09469 0.27263 0.0
O413 O 0.86377 0.11279 0.28412 0.0
O414 O 0.86603 0.07897 0.24015 0.0
O415 O 0.88426 0.10128 0.23212 0.0
O416 O 0.90765 0.12672 0.23747 0.0
O417 O 0.89062 0.11977 0.26488 0.0
C418 C 0.83592 0.11249 0.21644 0.0
C419 C 0.9069 0.12436 0.25617 0.0
Dy420 Dy 0.41496 0.6215 0.53377 0.0
C421 C 0.38188 0.59679 0.46159 0.0
C422 C 0.42196 0.62942 0.57111 0.0
Dy423 Dy 0.39297 0.60707 0.49728 0.0
O424 O 0.43096 0.61617 0.56141 0.0
O425 O 0.40983 0.63875 0.56017 0.0
O426 O 0.44258 0.62512 0.51665 0.0
O427 O 0.42195 0.60431 0.50927 0.0
C428 C 0.43723 0.61236 0.50406 0.0
C429 C 0.36994 0.61474 0.52641 0.0
O430 O 0.40276 0.57964 0.51019 0.0
O431 O 0.40378 0.59195 0.54053 0.0
O432 O 0.37693 0.58796 0.47686 0.0
O433 O 0.39298 0.61129 0.46583 0.0
O434 O 0.36479 0.60364 0.51247 0.0
O435 O 0.38526 0.62357 0.52233 0.0
O436 O 0.40992 0.65 0.51969 0.0
O437 O 0.39768 0.63821 0.49089 0.0
C438 C 0.40195 0.57725 0.52863 0.0
C439 C 0.40344 0.6525 0.50209 0.0
Dy440 Dy 0.11246 0.64993 0.29749 0.0
C441 C 0.14068 0.61012 0.23004 0.0
C442 C 0.09494 0.6526 0.33154 0.0
Dy443 Dy 0.13137 0.62922 0.26243 0.0
O444 O 0.10274 0.63715 0.3245 0.0
O445 O 0.097 0.66705 0.32012 0.0
O446 O 0.11944 0.67919 0.28621 0.0
O447 O 0.11524 0.65563 0.26773 0.0
C448 C 0.12091 0.67277 0.26897 0.0
C449 C 0.13402 0.61128 0.29543 0.0
O450 O 0.15618 0.64679 0.27326 0.0
O451 O 0.14479 0.65002 0.30403 0.0
O452 O 0.13632 0.60233 0.24599 0.0
O453 O 0.13993 0.62884 0.23152 0.0
O454 O 0.14755 0.61013 0.28287 0.0
O455 O 0.11962 0.6207 0.2892 0.0
O456 O 0.08514 0.64045 0.28269 0.0
O457 O 0.0995 0.62372 0.2576 0.0
C458 C 0.15915 0.65012 0.29155 0.0
C459 C 0.08404 0.62947 0.26734 0.0
Dy460 Dy 0.38029 0.33932 0.77472 0.0
C461 C 0.34808 0.36545 0.70318 0.0
C462 C 0.39052 0.33396 0.81219 0.0
Dy463 Dy 0.35992 0.35665 0.73909 0.0
O464 O 0.38091 0.32176 0.80166 0.0
O465 O 0.39516 0.34868 0.80199 0.0
O466 O 0.38971 0.31366 0.7568 0.0
O467 O 0.36371 0.32825 0.75047 0.0
C468 C 0.37527 0.31548 0.74464 0.0
C469 C 0.36415 0.38129 0.76791 0.0
O470 O 0.33469 0.34209 0.75221 0.0
O471 O 0.34852 0.34378 0.78212 0.0
O472 O 0.33856 0.36972 0.71836 0.0
O473 O 0.36407 0.35631 0.70769 0.0
O474 O 0.35041 0.3828 0.75523 0.0
O475 O 0.37616 0.36829 0.76331 0.0
O476 O 0.40731 0.34879 0.75981 0.0
O477 O 0.39154 0.35506 0.73099 0.0
C478 C 0.33296 0.34219 0.77078 0.0
C479 C 0.40762 0.3529 0.74151 0.0
Dy480 Dy 0.00828 0.87439 0.61454 0.0
C481 C 0.94718 0.91531 0.65219 0.0
C482 C 0.03592 0.85603 0.59363 0.0
Dy483 Dy 0.97752 0.89965 0.63263 0.0
O484 O 0.0384 0.87225 0.60242 0.0
O485 O 0.01832 0.84996 0.59625 0.0
O486 O 0.00095 0.85079 0.63436 0.0
O487 O 0.97871 0.86943 0.62472 0.0
C488 C 0.98265 0.8556 0.63565 0.0
C489 C 0.004 0.91883 0.61261 0.0
O490 O 0.99819 0.8942 0.65768 0.0
O491 O 0.02439 0.88103 0.64127 0.0
O492 O 0.9571 0.92407 0.63944 0.0
O493 O 0.9541 0.898 0.65456 0.0
O494 O 0.98612 0.92477 0.61462 0.0
O495 O 0.007 0.90435 0.62284 0.0
O496 O 0.98976 0.88259 0.58944 0.0
O497 O 0.96188 0.89076 0.6058 0.0
C498 C 0.01649 0.88745 0.65707 0.0
C499 C 0.97074 0.88622 0.58982 0.0
Dy500 Dy 0.87294 0.24366 0.36452 0.0
C501 C 0.83397 0.17534 0.39079 0.0
C502 C 0.89224 0.27636 0.35559 0.0
Dy503 Dy 0.84601 0.21141 0.3812 0.0
O504 O 0.89651 0.25925 0.34941 0.0
O505 O 0.87692 0.27575 0.36622 0.0
O506 O 0.89636 0.22142 0.35909 0.0
O507 O 0.87674 0.21757 0.38064 0.0
C508 C 0.88982 0.2094 0.3714 0.0
C509 C 0.82901 0.24558 0.37543 0.0
O510 O 0.85805 0.22397 0.40829 0.0
O511 O 0.87329 0.25072 0.39522 0.0
O512 O 0.82446 0.18696 0.37948 0.0
O513 O 0.84962 0.18369 0.39716 0.0
O514 O 0.82294 0.23359 0.38819 0.0
O515 O 0.84189 0.23774 0.36543 0.0
O516 O 0.85861 0.23333 0.3384 0.0
O517 O 0.85139 0.20327 0.35064 0.0
C518 C 0.86805 0.24026 0.40987 0.0
C519 C 0.85433 0.21495 0.33611 0.0
Dy520 Dy 0.51585 0.11305 0.12255 0.0
C521 C 0.49827 0.10839 0.20027 0.0
C522 C 0.52063 0.12375 0.08615 0.0
Dy523 Dy 0.51236 0.11104 0.16463 0.0
O524 O 0.50657 0.11297 0.09194 0.0
O525 O 0.53223 0.12815 0.10008 0.0
O526 O 0.5071 0.08197 0.12082 0.0
O527 O 0.49476 0.09972 0.14114 0.0
C528 C 0.49454 0.0829 0.13438 0.0
C529 C 0.54098 0.13407 0.15369 0.0
O530 O 0.53593 0.08854 0.1599 0.0
O531 O 0.54425 0.09911 0.1301 0.0
O532 O 0.50775 0.12289 0.19366 0.0
O533 O 0.49706 0.09492 0.18748 0.0
O534 O 0.54161 0.12433 0.16929 0.0
O535 O 0.52447 0.13226 0.1456 0.0
O536 O 0.49178 0.13462 0.12549 0.0
O537 O 0.48871 0.13275 0.15801 0.0
C538 C 0.54814 0.08901 0.14547 0.0
C539 C 0.48324 0.13979 0.14136 0.0
Dy540 Dy 0.62032 0.73938 0.8738 0.0
C541 C 0.65478 0.81034 0.89895 0.0
C542 C 0.60653 0.70324 0.86732 0.0
Dy543 Dy 0.64291 0.77414 0.88952 0.0
O544 O 0.60135 0.71848 0.8579 0.0
O545 O 0.61987 0.7077 0.87974 0.0
O546 O 0.59492 0.7575 0.86523 0.0
O547 O 0.61205 0.76584 0.88887 0.0
C548 C 0.59858 0.77094 0.87747 0.0
C549 C 0.66433 0.74237 0.88325 0.0
O550 O 0.63714 0.76008 0.91719 0.0
O551 O 0.62196 0.73287 0.90474 0.0
O552 O 0.64035 0.80136 0.90657 0.0
O553 O 0.66282 0.79952 0.88618 0.0
O554 O 0.66906 0.75493 0.89616 0.0
O555 O 0.65024 0.74857 0.87351 0.0
O556 O 0.63279 0.75061 0.8472 0.0
O557 O 0.63549 0.78153 0.85929 0.0
C558 C 0.62894 0.74304 0.91912 0.0
C559 C 0.63436 0.76943 0.84473 0.0
Dy560 Dy 0.0097 0.13005 0.87654 0.0
C561 C 0.93724 0.09847 0.85089 0.0
C562 C 0.04754 0.13588 0.88678 0.0
Dy563 Dy 0.97351 0.11154 0.86028 0.0
O564 O 0.03258 0.14397 0.89471 0.0
O565 O 0.04183 0.12494 0.87296 0.0
O566 O 0.99408 0.1566 0.88546 0.0
O567 O 0.98368 0.14139 0.86155 0.0
C568 C 0.97998 0.15481 0.87313 0.0
C569 C 0.00438 0.08811 0.86546 0.0
O570 O 0.9868 0.11993 0.83275 0.0
O571 O 0.01587 0.13169 0.84554 0.0
O572 O 0.94957 0.08982 0.86212 0.0
O573 O 0.94465 0.1144 0.84482 0.0
O574 O 0.99277 0.08673 0.85091 0.0
O575 O 0.99864 0.10115 0.87633 0.0
O576 O 0.99686 0.11932 0.9029 0.0
O577 O 0.96542 0.11821 0.89059 0.0
C578 C 0.0045 0.12725 0.83089 0.0
C579 C 0.97778 0.11891 0.90522 0.0
Dy580 Dy 0.61835 0.22325 0.63674 0.0
C581 C 0.62071 0.24787 0.56036 0.0
C582 C 0.61442 0.20956 0.67215 0.0
Dy583 Dy 0.61679 0.23062 0.59448 0.0
O584 O 0.61847 0.2274 0.66837 0.0
O585 O 0.61182 0.19978 0.65673 0.0
O586 O 0.65035 0.2308 0.63721 0.0
O587 O 0.6317 0.24451 0.61838 0.0
C588 C 0.64927 0.24341 0.62379 0.0
C589 C 0.59201 0.20345 0.60595 0.0
O590 O 0.63822 0.20559 0.59534 0.0
O591 O 0.62974 0.19549 0.62514 0.0
O592 O 0.6043 0.2418 0.5671 0.0
O593 O 0.63502 0.24393 0.57206 0.0
O594 O 0.59932 0.2037 0.58911 0.0
O595 O 0.59658 0.21865 0.61466 0.0
O596 O 0.59584 0.24701 0.63698 0.0
O597 O 0.5993 0.25585 0.60545 0.0
C598 C 0.63841 0.19244 0.60889 0.0
C599 C 0.59207 0.2587 0.62255 0.0
Dy600 Dy 0.52978 0.88774 0.37579 0.0
C601 C 0.49259 0.89534 0.30303 0.0
C602 C 0.5493 0.88502 0.40941 0.0
Dy603 Dy 0.51553 0.89127 0.33459 0.0
O604 O 0.54526 0.90097 0.40069 0.0
O605 O 0.54275 0.87045 0.39974 0.0
O606 O 0.50245 0.90126 0.3861 0.0
O607 O 0.51309 0.90947 0.35962 0.0
C608 C 0.49891 0.91091 0.37082 0.0
C609 C 0.54546 0.86721 0.33933 0.0
O610 O 0.54085 0.91182 0.33337 0.0
O611 O 0.55494 0.90163 0.36183 0.0
O612 O 0.50513 0.88155 0.30601 0.0
O613 O 0.49296 0.90738 0.31714 0.0
O614 O 0.54212 0.8764 0.32365 0.0
O615 O 0.53155 0.86963 0.35071 0.0
O616 O 0.50794 0.86423 0.37649 0.0
O617 O 0.49316 0.87172 0.34762 0.0
C618 C 0.55557 0.91142 0.34588 0.0
C619 C 0.49375 0.86208 0.36379 0.0
Dy620 Dy 0.86292 0.74824 0.11703 0.0
C621 C 0.82538 0.81491 0.08461 0.0
C622 C 0.88171 0.71584 0.12838 0.0
Dy623 Dy 0.83644 0.78019 0.09903 0.0
O624 O 0.88666 0.72636 0.11418 0.0
O625 O 0.86645 0.72306 0.13662 0.0
O626 O 0.88736 0.76928 0.11903 0.0
O627 O 0.86672 0.77136 0.0969 0.0
C628 C 0.88122 0.77927 0.10467 0.0
C629 C 0.81776 0.7508 0.11413 0.0
O630 O 0.8397 0.76014 0.07393 0.0
O631 O 0.85031 0.73368 0.0915 0.0
O632 O 0.81586 0.80557 0.09735 0.0
O633 O 0.84066 0.80508 0.07957 0.0
O634 O 0.81037 0.76042 0.09987 0.0
O635 O 0.83324 0.75841 0.11992 0.0
O636 O 0.85733 0.76475 0.14309 0.0
O637 O 0.84515 0.79235 0.12816 0.0
C638 C 0.84412 0.7415 0.07547 0.0
C639 C 0.85194 0.7831 0.14351 0.0
Dy640 Dy 0.62794 0.9917 0.8824 0.0
C641 C 0.67192 0.92236 0.89739 0.0
C642 C 0.61016 0.02639 0.87601 0.0
Dy643 Dy 0.65577 0.95831 0.8947 0.0
O644 O 0.60627 0.01043 0.86723 0.0
O645 O 0.62325 0.0231 0.88906 0.0
O646 O 0.62238 0.97659 0.8548 0.0
O647 O 0.64919 0.97318 0.86868 0.0
C648 C 0.63894 0.96741 0.85502 0.0
C649 C 0.64585 0.98312 0.92179 0.0
O650 O 0.67893 0.97989 0.88743 0.0
O651 O 0.65716 0.00589 0.88482 0.0
O652 O 0.66303 0.93145 0.91088 0.0
O653 O 0.67277 0.93334 0.88262 0.0
O654 O 0.66254 0.97393 0.9217 0.0
O655 O 0.63487 0.97708 0.90863 0.0
O656 O 0.60525 0.97155 0.89195 0.0
O657 O 0.62599 0.94504 0.88935 0.0
C658 C 0.67517 -0.00135 0.88568 0.0
C659 C 0.60814 0.95275 0.89043 0.0
Dy660 Dy 0.76418 0.89228 0.63334 0.0
C661 C 0.83514 0.91734 0.6686 0.0
C662 C 0.72826 0.88202 0.61998 0.0
Dy663 Dy 0.79858 0.90889 0.65541 0.0
O664 O 0.74469 0.87404 0.61525 0.0
O665 O 0.73143 0.89537 0.6325 0.0
O666 O 0.78207 0.88719 0.60781 0.0
O667 O 0.78898 0.91037 0.62591 0.0
C668 C 0.79457 0.90045 0.61205 0.0
C669 C 0.76796 0.89917 0.67617 0.0
O670 O 0.7827 0.93686 0.65011 0.0
O671 O 0.75487 0.92314 0.63654 0.0
O672 O 0.82357 0.90482 0.67591 0.0
O673 O 0.82657 0.92555 0.65422 0.0
O674 O 0.77948 0.91327 0.68073 0.0
O675 O 0.77442 0.89021 0.66216 0.0
O676 O 0.77844 0.86524 0.64341 0.0
O677 O 0.80871 0.87943 0.64564 0.0
C678 C 0.76476 0.93821 0.64282 0.0
C679 C 0.79773 0.86384 0.64391 0.0
Dy680 Dy 0.86489 0.98731 0.37847 0.0
C681 C 0.83886 0.06214 0.40572 0.0
C682 C 0.87261 0.95111 0.3651 0.0
Dy683 Dy 0.84711 0.02417 0.3988 0.0
O684 O 0.88217 0.96651 0.36081 0.0
O685 O 0.85927 0.95542 0.37736 0.0
O686 O 0.87555 0.00575 0.35498 0.0
O687 O 0.85051 0.01378 0.37006 0.0
C688 C 0.86253 0.01907 0.35799 0.0
C689 C 0.85133 0.99247 0.41987 0.0
O690 O 0.81907 0.01171 0.38818 0.0
O691 O 0.83239 0.98335 0.37547 0.0
O692 O 0.84875 0.05084 0.41704 0.0
O693 O 0.83308 0.0525 0.39096 0.0
O694 O 0.83839 0.00582 0.4237 0.0
O695 O 0.86218 -0.00197 0.40695 0.0
O696 O 0.89125 -0.00158 0.39365 0.0
O697 O 0.87922 0.02984 0.39495 0.0
C698 C 0.81737 0.99479 0.37964 0.0
C699 C 0.89398 0.01723 0.39537 0.0
Dy700 Dy 0.73613 0.10882 0.11577 0.0
C701 C 0.66338 0.08708 0.14986 0.0
C702 C 0.77086 0.10993 0.09764 0.0
Dy703 Dy 0.70111 0.09491 0.13954 0.0
O704 O 0.76532 0.12274 0.11001 0.0
O705 O 0.75733 0.09723 0.09505 0.0
O706 O 0.71632 0.11849 0.09272 0.0
O707 O 0.70814 0.09473 0.10933 0.0
C708 C 0.70256 0.10657 0.09672 0.0
C709 C 0.73473 0.10156 0.15894 0.0
O710 O 0.71509 0.06628 0.1336 0.0
O711 O 0.74498 0.07979 0.12642 0.0
O712 O 0.67625 0.09598 0.16033 0.0
O713 O 0.67132 0.08218 0.13398 0.0
O714 O 0.72189 0.08907 0.16447 0.0
O715 O 0.72791 0.11051 0.14495 0.0
O716 O 0.72533 0.13748 0.12506 0.0
O717 O 0.69486 0.12649 0.13466 0.0
C718 C 0.73406 0.0648 0.1304 0.0
C719 C 0.70705 0.1406 0.13041 0.0
Dy720 Dy 0.63581 0.00423 0.62802 0.0
C721 C 0.65098 0.07896 0.59747 0.0
C722 C 0.62821 0.9693 0.64338 0.0
Dy723 Dy 0.64716 0.04042 0.60611 0.0
O724 O 0.6209 0.98562 0.64883 0.0
O725 O 0.63983 0.97194 0.62929 0.0
O726 O 0.62718 0.0229 0.65242 0.0
O727 O 0.65034 0.0313 0.63538 0.0
C728 C 0.63955 0.03629 0.6488 0.0
C729 C 0.64322 0.00824 0.5849 0.0
O730 O 0.67751 0.02849 0.61174 0.0
O731 O 0.66795 -0.00057 0.62517 0.0
O732 O 0.6422 0.0662 0.58693 0.0
O733 O 0.65821 0.07045 0.61233 0.0
O734 O 0.65465 0.02242 0.5805 0.0
O735 O 0.63297 0.01311 0.59881 0.0
O736 O 0.60709 0.01263 0.6157 0.0
O737 O 0.61538 0.0447 0.61428 0.0
C738 C 0.68151 0.01121 0.61896 0.0
C739 C 0.60204 0.03098 0.61515 0.0
Dy740 Dy 0.74159 0.8798 0.36405 0.0
C741 C 0.66824 0.90903 0.33323 0.0
C742 C 0.77752 0.87375 0.38107 0.0
Dy743 Dy 0.70549 0.89587 0.34056 0.0
O744 O 0.76271 0.8623 0.38206 0.0
O745 O 0.77282 0.88824 0.37039 0.0
O746 O 0.72109 0.8661 0.38435 0.0
O747 O 0.71278 0.89132 0.37024 0.0
C748 C 0.70694 0.87813 0.38075 0.0
C749 C 0.7362 0.88452 0.32006 0.0
O750 O 0.71957 0.92373 0.3491 0.0
O751 O 0.74152 0.91104 0.37166 0.0
O752 O 0.68197 0.90767 0.32072 0.0
O753 O 0.67498 0.9034 0.34952 0.0
O754 O 0.71834 0.88483 0.31338 0.0
O755 O 0.73674 0.89215 0.33623 0.0
O756 O 0.73326 0.85461 0.34639 0.0
O757 O 0.70071 0.86404 0.34287 0.0
C758 C 0.73279 0.92571 0.3629 0.0
C759 C 0.71464 0.85056 0.34307 0.0
Dy760 Dy 0.87139 0.99173 0.12175 0.0
C761 C 0.82751 0.92657 0.09549 0.0
C762 C 0.88906 0.02379 0.13608 0.0
Dy763 Dy 0.84529 0.96051 0.1038 0.0
O764 O 0.89365 0.00614 0.14014 0.0
O765 O 0.87531 0.02394 0.12319 0.0
O766 O 0.88208 0.97104 0.14356 0.0
O767 O 0.85351 0.96843 0.1326 0.0
C768 C 0.86641 0.96076 0.14309 0.0
C769 C 0.85199 0.99104 0.08199 0.0
O770 O 0.8215 0.97834 0.11664 0.0
O771 O 0.84132 0.00364 0.1265 0.0
O772 O 0.83912 0.93562 0.08429 0.0
O773 O 0.82559 0.93613 0.11113 0.0
O774 O 0.83609 0.98098 0.0805 0.0
O775 O 0.86379 0.9831 0.09328 0.0
O776 O 0.893 0.97636 0.10386 0.0
O777 O 0.87591 0.94778 0.10486 0.0
C778 C 0.82393 0.9956 0.1243 0.0
C779 C 0.89241 0.95736 0.10244 0.0
Dy780 Dy 0.7581 0.12366 0.87294 0.0
C781 C 0.82397 0.09239 0.83467 0.0
C782 C 0.72534 0.13481 0.89126 0.0
Dy783 Dy 0.78873 0.10421 0.84817 0.0
O784 O 0.73177 0.14308 0.87618 0.0
O785 O 0.73689 0.12082 0.8963 0.0
O786 O 0.78032 0.12657 0.89621 0.0
O787 O 0.78148 0.10277 0.87773 0.0
C788 C 0.79004 0.11137 0.89105 0.0
C789 C 0.7571 0.11628 0.82923 0.0
O790 O 0.77149 0.07789 0.85503 0.0
O791 O 0.74445 0.09533 0.86515 0.0
O792 O 0.81594 0.08595 0.84986 0.0
O793 O 0.81231 0.10473 0.82649 0.0
O794 O 0.76768 0.10161 0.82394 0.0
O795 O 0.76503 0.12488 0.84308 0.0
O796 O 0.77596 0.14993 0.86851 0.0
O797 O 0.80234 0.13244 0.85706 0.0
C798 C 0.75313 0.07876 0.86079 0.0
C799 C 0.7945 0.14876 0.86346 0.0
Dy800 Dy 0.86709 0.61696 0.99484 0.0
C801 C 0.8908 0.65266 0.92566 0.0
C802 C 0.86318 0.60434 0.03097 0.0
Dy803 Dy 0.88097 0.63934 0.96021 0.0
O804 O 0.85389 0.5976 0.0163 0.0
O805 O 0.87517 0.61759 0.02573 0.0
O806 O 0.83832 0.60976 0.98145 0.0
O807 O 0.85296 0.63477 0.97331 0.0
C808 C 0.83916 0.62361 0.96926 0.0
C809 C 0.90762 0.63355 0.9873 0.0
O810 O 0.87083 0.66493 0.97743 0.0
O811 O 0.86469 0.6477 0.00484 0.0
O812 O 0.90157 0.64149 0.93617 0.0
O813 O 0.87443 0.65667 0.934 0.0
O814 O 0.90702 0.64895 0.97702 0.0
O815 O 0.89498 0.62165 0.98176 0.0
O816 O 0.87685 0.59206 0.97712 0.0
O817 O 0.87575 0.60914 0.94902 0.0
C818 C 0.86595 0.6642 0.99555 0.0
C819 C 0.87654 0.59259 0.95841 0.0
Dy820 Dy 0.37712 0.87473 0.02609 0.0
C821 C 0.39025 0.79466 -4e-05 0.0
C822 C 0.36573 0.90855 0.04168 0.0
Dy823 Dy 0.38133 0.83003 0.01419 0.0
O824 O 0.38351 0.90407 0.03721 0.0
O825 O 0.35391 0.89448 0.03771 0.0
O826 O 0.4047 0.8849 0.01203 0.0
O827 O 0.39641 0.85642 0.01105 0.0
C828 C 0.40931 0.86781 0.00597 0.0
C829 C 0.34726 0.84185 0.02819 0.0
O830 O 0.39801 0.83001 0.04178 0.0
O831 O 0.39135 0.86181 0.0516 0.0
O832 O 0.37645 0.79827 0.01192 0.0
O833 O 0.39995 0.81032 0.99685 0.0
O834 O 0.34865 0.82822 0.01566 0.0
O835 O 0.36395 0.84735 0.03339 0.0
O836 O 0.35971 0.87364 -0.00108 0.0
O837 O 0.37167 0.84426 0.98737 0.0
C838 C 0.39927 0.84445 0.05417 0.0
C839 C 0.3615 0.86052 0.98529 0.0
Dy840 Dy 0.85393 0.63851 0.75105 0.0
C841 C 0.88852 0.6716 0.81686 0.0
C842 C 0.84005 0.62533 0.71712 0.0
Dy843 Dy 0.87656 0.65894 0.78218 0.0
O844 O 0.83532 0.61869 0.73351 0.0
O845 O 0.852 0.6396 0.71933 0.0
O846 O 0.8459 0.61498 0.77115 0.0
O847 O 0.87275 0.62892 0.77436 0.0
C848 C 0.86144 0.61701 0.78164 0.0
C849 C 0.86984 0.68049 0.75175 0.0
O850 O 0.90249 0.64626 0.76753 0.0
O851 O 0.88482 0.63471 0.74161 0.0
O852 O 0.89518 0.65631 0.80842 0.0
O853 O 0.87579 0.68025 0.80605 0.0
O854 O 0.88514 0.68238 0.76267 0.0
O855 O 0.85803 0.66864 0.75862 0.0
O856 O 0.82925 0.65289 0.76541 0.0
O857 O 0.8465 0.65393 0.79355 0.0
C858 C 0.90156 0.6378 0.75073 0.0
C859 C 0.82969 0.6541 0.78402 0.0
Dy860 Dy 0.12266 0.12452 0.49971 0.0
C861 C 0.09403 0.15158 0.57159 0.0
C862 C 0.13099 0.11547 0.46324 0.0
Dy863 Dy 0.10125 0.14203 0.53456 0.0
O864 O 0.13953 0.10788 0.47796 0.0
O865 O 0.11789 0.12794 0.46848 0.0
O866 O 0.14915 0.11645 0.51651 0.0
O867 O 0.13156 0.1398 0.52533 0.0
C868 C 0.14549 0.12857 0.53007 0.0
C869 C 0.07867 0.13459 0.50372 0.0
O870 O 0.10802 0.16974 0.52002 0.0
O871 O 0.12356 0.15628 0.49384 0.0
O872 O 0.10918 0.1568 0.5621 0.0
O873 O 0.08244 0.14169 0.56059 0.0
O874 O 0.07453 0.14805 0.51599 0.0
O875 O 0.09305 0.12491 0.50976 0.0
O876 O 0.11236 0.09745 0.51306 0.0
O877 O 0.10681 0.11126 0.54254 0.0
C878 C 0.11694 0.17128 0.50358 0.0
C879 C 0.10929 0.09605 0.53145 0.0
Dy880 Dy 0.13715 0.88041 0.75084 0.0
C881 C 0.09996 0.84371 0.81361 0.0
C882 C 0.15176 0.8937 0.71791 0.0
Dy883 Dy 0.11499 0.85668 0.78055 0.0
O884 O 0.15634 0.9002 0.73459 0.0
O885 O 0.13946 0.87973 0.71935 0.0
O886 O 0.13739 0.90604 0.77034 0.0
O887 O 0.11447 0.88624 0.7712 0.0
C888 C 0.12188 0.90063 0.77909 0.0
C889 C 0.12933 0.83674 0.75167 0.0
O890 O 0.08939 0.86323 0.76076 0.0
O891 O 0.10779 0.87686 0.73692 0.0
O892 O 0.09539 0.86002 0.80567 0.0
O893 O 0.11243 0.8344 0.80327 0.0
O894 O 0.11357 0.83173 0.76042 0.0
O895 O 0.13735 0.85073 0.7599 0.0
O896 O 0.16254 0.87103 0.76827 0.0
O897 O 0.14399 0.86494 0.79472 0.0
C898 C 0.09092 0.87071 0.74352 0.0
C899 C 0.16108 0.86859 0.78669 0.0
Dy900 Dy 0.60996 0.38168 0.4983 0.0
C901 C 0.58766 0.35598 0.42396 0.0
C902 C 0.61993 0.38838 0.5352 0.0
Dy903 Dy 0.59115 0.36634 0.461 0.0
O904 O 0.62597 0.39818 0.52091 0.0
O905 O 0.60776 0.37539 0.5293 0.0
O906 O 0.63808 0.38794 0.48422 0.0
O907 O 0.62024 0.36575 0.47384 0.0
C908 C 0.63498 0.37584 0.47055 0.0
C909 C 0.56616 0.37273 0.48918 0.0
O910 O 0.59581 0.33797 0.47513 0.0
O911 O 0.60812 0.34996 0.50369 0.0
O912 O 0.59962 0.34825 0.43616 0.0
O913 O 0.57705 0.36918 0.43211 0.0
O914 O 0.56279 0.36048 0.47555 0.0
O915 O 0.58105 0.38251 0.48555 0.0
O916 O 0.60219 0.4096 0.48444 0.0
O917 O 0.59975 0.39658 0.45418 0.0
C918 C 0.60244 0.33558 0.49262 0.0
C919 C 0.60175 0.41146 0.4658 0.0
Dy920 Dy 0.86883 0.37036 0.73615 0.0
C921 C 0.90673 0.35228 0.66574 0.0
C922 C 0.85558 0.38149 0.77077 0.0
Dy923 Dy 0.89117 0.35462 0.70075 0.0
O924 O 0.84905 0.38773 0.75462 0.0
O925 O 0.86892 0.36833 0.76799 0.0
O926 O 0.85882 0.39599 0.71915 0.0
O927 O 0.88519 0.38235 0.71317 0.0
C928 C 0.87309 0.39462 0.7074 0.0
C929 C 0.88894 0.3305 0.72946 0.0
O930 O 0.91659 0.36661 0.71725 0.0
O931 O 0.90002 0.37396 0.74505 0.0
O932 O 0.89941 0.33776 0.67471 0.0
O933 O 0.90528 0.36784 0.67581 0.0
O934 O 0.90318 0.32987 0.71747 0.0
O935 O 0.87583 0.34228 0.72423 0.0
O936 O 0.84481 0.35512 0.72143 0.0
O937 O 0.85913 0.35538 0.69179 0.0
C938 C 0.91619 0.37268 0.73504 0.0
C939 C 0.84353 0.35416 0.70277 0.0
Dy940 Dy 0.63123 0.62966 0.24946 0.0
C941 C 0.59576 0.65649 0.18046 0.0
C942 C 0.64939 0.61533 0.28104 0.0
Dy943 Dy 0.61195 0.65264 0.2161 0.0
O944 O 0.63535 0.62801 0.28091 0.0
O945 O 0.65373 0.61067 0.26382 0.0
O946 O 0.62197 0.60212 0.23501 0.0
O947 O 0.62866 0.62615 0.21897 0.0
C948 C 0.62223 0.60931 0.21813 0.0
C949 C 0.62061 0.67397 0.24695 0.0
O950 O 0.5851 0.64108 0.23085 0.0
O951 O 0.60007 0.62641 0.25708 0.0
O952 O 0.60722 0.66899 0.18868 0.0
O953 O 0.59238 0.64261 0.19219 0.0
O954 O 0.61874 0.68131 0.23004 0.0
O955 O 0.61516 0.65668 0.24648 0.0
O956 O 0.6566 0.64663 0.23908 0.0
O957 O 0.64381 0.65091 0.20895 0.0
C958 C 0.58436 0.63135 0.24704 0.0
C959 C 0.65887 0.65072 0.22102 0.0
Dy960 Dy 0.52093 0.59392 0.85755 0.0
C961 C 0.44857 0.62205 0.88637 0.0
C962 C 0.55668 0.58175 0.84601 0.0
Dy963 Dy 0.48566 0.6125 0.8763 0.0
O964 O 0.54785 0.59728 0.84004 0.0
O965 O 0.54611 0.57315 0.85838 0.0
O966 O 0.5036 0.56775 0.85043 0.0
O967 O 0.49752 0.58347 0.87519 0.0
C968 C 0.49209 0.5698 0.86469 0.0
C969 C 0.51434 0.63665 0.86771 0.0
O970 O 0.50129 0.60142 0.90181 0.0
O971 O 0.53132 0.6024 0.88733 0.0
O972 O 0.46435 0.62992 0.89316 0.0
O973 O 0.45319 0.60859 0.87449 0.0
O974 O 0.50333 0.63911 0.8823 0.0
O975 O 0.50855 0.62267 0.85802 0.0
O976 O 0.50371 0.60117 0.83086 0.0
O977 O 0.47551 0.61124 0.84609 0.0
C978 C 0.52059 0.60206 0.90289 0.0
C979 C 0.48517 0.60721 0.83047 0.0
Dy980 Dy 0.65891 0.28473 0.11969 0.0
C981 C 0.62003 0.21672 0.14818 0.0
C982 C 0.67082 0.31992 0.10777 0.0
Dy983 Dy 0.63542 0.25146 0.13902 0.0
O984 O 0.68048 0.30908 0.11965 0.0
O985 O 0.65482 0.3115 0.10245 0.0
O986 O 0.68097 0.26382 0.10833 0.0
O987 O 0.66596 0.25746 0.13327 0.0
C988 C 0.6771 0.25077 0.12082 0.0
C989 C 0.61752 0.28569 0.1365 0.0
O990 O 0.65411 0.26143 0.1627 0.0
O991 O 0.65726 0.2923 0.1508 0.0
O992 O 0.62105 0.23146 0.15949 0.0
O993 O 0.62767 0.22087 0.13209 0.0
O994 O 0.61322 0.2734 0.14954 0.0
O995 O 0.6288 0.27805 0.12497 0.0
O996 O 0.64292 0.27309 0.09422 0.0
O997 O 0.6301 0.24575 0.10838 0.0
C998 C 0.65695 0.28007 0.16523 0.0
C999 C 0.63308 0.25671 0.09346 0.0
Dy1000 Dy 0.99561 0.38579 0.34108 0.0
C1001 C 0.96782 0.36721 0.41394 0.0
C1002 C 0.01101 0.39733 0.30762 0.0
Dy1003 Dy 0.98401 0.37871 0.38135 0.0
O1004 O 0.99598 0.38625 0.30932 0.0
O1005 O 0.01673 0.40305 0.32428 0.0
O1006 O 0.99173 0.35419 0.33483 0.0
O1007 O 0.97378 0.36819 0.35427 0.0
C1008 C 0.97769 0.35225 0.34678 0.0
C1009 C 0.01423 0.40268 0.37842 0.0
O1010 O 0.00637 0.35556 0.37738 0.0
O1011 O 0.02213 0.37046 0.35298 0.0
O1012 O 0.97384 0.38456 0.41068 0.0
O1013 O 0.97028 0.3562 0.3993 0.0
O1014 O 0.0117 0.391 0.39235 0.0
O1015 O -0.00049 0.40241 0.36728 0.0
O1016 O 0.96595 0.40092 0.34058 0.0
O1017 O 0.95811 0.39613 0.37211 0.0
C1018 C 0.02182 0.35749 0.3666 0.0
C1019 C 0.95361 0.40248 0.35496 0.0
Dy1020 Dy 0.84853 0.72351 0.60788 0.0
C1021 C 0.89565 0.78387 0.63948 0.0
C1022 C 0.83371 0.69028 0.59257 0.0
Dy1023 Dy 0.87423 0.75318 0.6277 0.0
O1024 O 0.82344 0.70444 0.59927 0.0
O1025 O 0.85211 0.69462 0.59355 0.0
O1026 O 0.82155 0.74012 0.61653 0.0
O1027 O 0.84748 0.75471 0.61123 0.0
C1028 C 0.83031 0.7566 0.61706 0.0
C1029 C 0.88728 0.71687 0.63143 0.0
O1030 O 0.85388 0.74552 0.65074 0.0
O1031 O 0.84713 0.71542 0.63837 0.0
O1032 O 0.90273 0.76751 0.63379 0.0
O1033 O 0.87666 0.78363 0.63875 0.0
O1034 O 0.88875 0.72995 0.64445 0.0
O1035 O 0.87963 0.72406 0.61664 0.0
O1036 O 0.85998 0.7375 0.58172 0.0
O1037 O 0.88183 0.75788 0.5974 0.0
C1038 C 0.84747 0.72772 0.65268 0.0
C1039 C 0.87402 0.75063 0.58165 0.0
Dy1040 Dy 0.5212 0.3823 0.63918 0.0
C1041 C 0.44815 0.36873 0.59849 0.0
C1042 C 0.55744 0.38937 0.65363 0.0
Dy1043 Dy 0.4843 0.3684 0.61489 0.0
O1044 O 0.54735 0.40109 0.64299 0.0
O1045 O 0.54764 0.37372 0.65656 0.0
O1046 O 0.50325 0.4075 0.64945 0.0
O1047 O 0.49765 0.39555 0.62271 0.0
C1048 C 0.49177 0.40768 0.63465 0.0
C1049 C 0.50822 0.33842 0.62341 0.0
O1050 O 0.50316 0.37864 0.59188 0.0
O1051 O 0.53243 0.38069 0.6092 0.0
O1052 O 0.46403 0.36253 0.59048 0.0
O1053 O 0.45221 0.37474 0.61547 0.0
O1054 O 0.49184 0.33647 0.61407 0.0
O1055 O 0.51005 0.3559 0.62757 0.0
O1056 O 0.50322 0.36858 0.66196 0.0
O1057 O 0.47397 0.36694 0.64453 0.0
C1058 C 0.52239 0.38053 0.59292 0.0
C1059 C 0.48413 0.36516 0.66051 0.0
Dy1060 Dy 0.87604 0.26851 0.90986 0.0
C1061 C 0.87603 0.2891 0.8324 0.0
C1062 C 0.87074 0.25042 0.94352 0.0
Dy1063 Dy 0.87712 0.27501 0.86799 0.0
O1064 O 0.88694 0.25818 0.93821 0.0
O1065 O 0.85727 0.25325 0.9307 0.0
O1066 O 0.89467 0.29483 0.91563 0.0
O1067 O 0.89799 0.27897 0.89067 0.0
C1068 C 0.90299 0.29408 0.89922 0.0
C1069 C 0.8541 0.246 0.87722 0.0
O1070 O 0.90122 0.2529 0.86955 0.0
O1071 O 0.8931 0.24292 0.89963 0.0
O1072 O 0.86095 0.28713 0.84305 0.0
O1073 O 0.89182 0.28325 0.84112 0.0
O1074 O 0.86382 0.24699 0.86175 0.0
O1075 O 0.85534 0.26169 0.88654 0.0
O1076 O 0.85721 0.29489 0.90967 0.0
O1077 O 0.86586 0.30332 0.87933 0.0
C1078 C 0.90308 0.24074 0.88387 0.0
C1079 C 0.85754 0.30742 0.89566 0.0
Dy1080 Dy 0.98328 0.60654 0.16351 0.0
C1081 C 0.95842 0.60929 0.08554 0.0
C1082 C 0.00049 0.60045 0.19778 0.0
Dy1083 Dy 0.97455 0.60712 0.12056 0.0
O1084 O 0.99149 0.61615 0.19269 0.0
O1085 O -0.00014 0.58788 0.18416 0.0
O1086 O 0.95821 0.62673 0.16892 0.0
O1087 O 0.97363 0.62784 0.14336 0.0
C1088 C 0.95905 0.63416 0.15212 0.0
C1089 C 0.00057 0.58076 0.13114 0.0
O1090 O -0.00024 0.62722 0.1206 0.0
O1091 O 0.00948 0.62237 0.15195 0.0
O1092 O 0.96512 0.62392 0.09502 0.0
O1093 O 0.96064 0.59354 0.09512 0.0
O1094 O -2e-05 0.58825 0.11442 0.0
O1095 O 0.9858 0.58577 0.14059 0.0
O1096 O 0.95467 0.59068 0.16363 0.0
O1097 O 0.94594 0.59863 0.13272 0.0
C1098 C 0.01227 0.62977 0.13487 0.0
C1099 C 0.94175 0.59142 0.14943 0.0
Dy1100 Dy 0.66455 0.71977 0.39279 0.0
C1101 C 0.62337 0.78912 0.37162 0.0
C1102 C 0.6761 0.68378 0.40419 0.0
Dy1103 Dy 0.64087 0.7543 0.37691 0.0
O1104 O 0.68554 0.69466 0.39268 0.0
O1105 O 0.66047 0.69274 0.40983 0.0
O1106 O 0.69242 0.73647 0.39093 0.0
O1107 O 0.6693 0.74147 0.37152 0.0
C1108 C 0.68592 0.74699 0.37697 0.0
C1109 C 0.61994 0.72645 0.39203 0.0
O1110 O 0.64179 0.73726 0.35017 0.0
O1111 O 0.65079 0.7087 0.36521 0.0
O1112 O 0.63318 0.77999 0.35867 0.0
O1113 O 0.62331 0.77923 0.38704 0.0
O1114 O 0.61347 0.73708 0.3783 0.0
O1115 O 0.63616 0.73226 0.39806 0.0
O1116 O 0.66337 0.73941 0.41852 0.0
O1117 O 0.65849 0.76693 0.40064 0.0
C1118 C 0.64441 0.7183 0.34997 0.0
C1119 C 0.66244 0.75852 0.41699 0.0
Dy1120 Dy 0.83811 0.54239 0.60294 0.0
C1121 C 0.87836 0.478 0.635 0.0
C1122 C 0.82597 0.57721 0.58882 0.0
Dy1123 Dy 0.86216 0.51221 0.62466 0.0
O1124 O 0.8362 0.56437 0.57991 0.0
O1125 O 0.82135 0.57053 0.60529 0.0
O1126 O 0.83575 0.5216 0.57871 0.0
O1127 O 0.86121 0.52217 0.59583 0.0
C1128 C 0.8527 0.51367 0.58236 0.0
C1129 C 0.84774 0.54056 0.64581 0.0
O1130 O 0.88699 0.53044 0.61682 0.0
O1131 O 0.86681 0.55684 0.61152 0.0
O1132 O 0.8796 0.49389 0.64465 0.0
O1133 O 0.86852 0.48093 0.61948 0.0
O1134 O 0.86358 0.53113 0.65032 0.0
O1135 O 0.8392 0.53279 0.63197 0.0
O1136 O 0.81291 0.52259 0.61 0.0
O1137 O 0.833 0.49805 0.62171 0.0
C1138 C 0.88448 0.54916 0.61478 0.0
C1139 C 0.81548 0.50473 0.61665 0.0
Dy1140 Dy 0.70168 0.59483 0.8386 0.0
C1141 C 0.76372 0.62403 0.88557 0.0
C1142 C 0.66779 0.57966 0.82483 0.0
Dy1143 Dy 0.73423 0.60778 0.86502 0.0
O1144 O 0.67787 0.59283 0.81658 0.0
O1145 O 0.67669 0.57433 0.84029 0.0
O1146 O 0.71232 0.61236 0.81448 0.0
O1147 O 0.73234 0.60177 0.83489 0.0
C1148 C 0.73012 0.613 0.82103 0.0
C1149 C 0.70419 0.59021 0.88171 0.0
O1150 O 0.72063 0.6359 0.85698 0.0
O1151 O 0.69052 0.62356 0.84843 0.0
O1152 O 0.74553 0.62371 0.8904 0.0
O1153 O 0.76587 0.61544 0.86945 0.0
O1154 O 0.72234 0.58806 0.88688 0.0
O1155 O 0.70306 0.60217 0.86844 0.0
O1156 O 0.71879 0.56697 0.84211 0.0
O1157 O 0.74583 0.57868 0.85883 0.0
C1158 C 0.70183 0.63827 0.85306 0.0
C1159 C 0.73615 0.56457 0.85049 0.0
Dy1160 Dy 0.65782 0.46639 0.09166 0.0
C1161 C 0.62541 0.52714 0.13972 0.0
C1162 C 0.66964 0.43005 0.0822 0.0
Dy1163 Dy 0.63927 0.49772 0.11766 0.0
O1164 O 0.67559 0.43968 0.09687 0.0
O1165 O 0.65773 0.44067 0.0721 0.0
O1166 O 0.66199 0.487 0.06813 0.0
O1167 O 0.63891 0.49149 0.08734 0.0
C1168 C 0.64829 0.49876 0.07392 0.0
C1169 C 0.64962 0.46419 0.13338 0.0
O1170 O 0.61249 0.48565 0.10449 0.0
O1171 O 0.6271 0.45636 0.09709 0.0
O1172 O 0.62221 0.50898 0.14202 0.0
O1173 O 0.63603 0.52956 0.12478 0.0
O1174 O 0.63505 0.47442 0.13925 0.0
O1175 O 0.65863 0.47323 0.1212 0.0
O1176 O 0.6852 0.4817 0.09992 0.0
O1177 O 0.67055 0.50707 0.11662 0.0
C1178 C 0.61133 0.46715 0.10015 0.0
C1179 C 0.6861 0.49802 0.10967 0.0
Dy1180 Dy 0.79844 0.39727 0.3679 0.0
C1181 C 0.72197 0.38901 0.40158 0.0
C1182 C 0.83787 0.40399 0.36473 0.0
Dy1183 Dy 0.75897 0.38787 0.38816 0.0
O1184 O 0.82772 0.40528 0.38001 0.0
O1185 O 0.82639 0.39887 0.35075 0.0
O1186 O 0.78113 0.40227 0.34041 0.0
O1187 O 0.7712 0.38313 0.36068 0.0
C1188 C 0.76679 0.39114 0.34536 0.0
C1189 C 0.79002 0.39064 0.41085 0.0
O1190 O 0.76921 0.35789 0.38311 0.0
O1191 O 0.80126 0.3655 0.3747 0.0
O1192 O 0.73505 0.40217 0.40407 0.0
O1193 O 0.7291 0.37474 0.39179 0.0
O1194 O 0.77491 0.38033 0.41466 0.0
O1195 O 0.78679 0.40073 0.3963 0.0
O1196 O 0.78622 0.42699 0.37226 0.0
O1197 O 0.75418 0.41663 0.3748 0.0
C1198 C 0.78759 0.35293 0.37954 0.0
C1199 C 0.76716 0.43041 0.37272 0.0
Dy1200 Dy 0.84973 0.45935 0.88709 0.0
C1201 C 0.86943 0.53355 0.85643 0.0
C1202 C 0.84152 0.42097 0.89052 0.0
Dy1203 Dy 0.86447 0.49608 0.86667 0.0
O1204 O 0.83645 0.43194 0.87648 0.0
O1205 O 0.85057 0.43121 0.90336 0.0
O1206 O 0.84473 0.47607 0.91386 0.0
O1207 O 0.86663 0.4849 0.89526 0.0
C1208 C 0.85715 0.48957 0.90982 0.0
C1209 C 0.85683 0.46597 0.84434 0.0
O1210 O 0.8934 0.48269 0.87413 0.0
O1211 O 0.88042 0.45226 0.87846 0.0
O1212 O 0.87838 0.51887 0.84895 0.0
O1213 O 0.85835 0.52775 0.86994 0.0
O1214 O 0.86871 0.47953 0.83964 0.0
O1215 O 0.84769 0.47096 0.85884 0.0
O1216 O 0.82047 0.47332 0.88228 0.0
O1217 O 0.8322 0.50167 0.8691 0.0
C1218 C 0.89543 0.46372 0.87536 0.0
C1219 C 0.81777 0.49078 0.87514 0.0
Dy1220 Dy 0.78881 0.6059 0.15244 0.0
C1221 C 0.7148 0.61763 0.10968 0.0
C1222 C 0.82717 0.59727 0.16048 0.0
Dy1223 Dy 0.75073 0.61206 0.12609 0.0
O1224 O 0.81359 0.59902 0.17316 0.0
O1225 O 0.81968 0.60023 0.1438 0.0
O1226 O 0.77377 0.62254 0.17615 0.0
O1227 O 0.75759 0.60778 0.15557 0.0
C1228 C 0.75631 0.61912 0.16928 0.0
C1229 C 0.7853 0.60942 0.10865 0.0
O1230 O 0.75848 0.64167 0.13455 0.0
O1231 O 0.79139 0.63603 0.14147 0.0
O1232 O 0.7232 0.62955 0.12132 0.0
O1233 O 0.72592 0.60253 0.10723 0.0
O1234 O 0.77009 0.61809 0.10144 0.0
O1235 O 0.78017 0.60074 0.12319 0.0
O1236 O 0.77722 0.57562 0.1514 0.0
O1237 O 0.74751 0.58163 0.135 0.0
C1238 C 0.77658 0.64765 0.13685 0.0
C1239 C 0.76026 0.57004 0.14375 0.0
Dy1240 Dy 0.65867 0.5363 0.40234 0.0
C1241 C 0.62023 0.47752 0.358 0.0
C1242 C 0.6716 0.57104 0.4156 0.0
Dy1243 Dy 0.63537 0.50772 0.37802 0.0
O1244 O 0.65968 0.55982 0.42434 0.0
O1245 O 0.6771 0.56281 0.40006 0.0
O1246 O 0.66543 0.51362 0.42409 0.0
O1247 O 0.63927 0.51237 0.40819 0.0
C1248 C 0.65002 0.50347 0.41989 0.0
C1249 C 0.64235 0.54147 0.36187 0.0
O1250 O 0.61099 0.52071 0.39396 0.0
O1251 O 0.62811 0.54872 0.39955 0.0
O1252 O 0.6184 0.49554 0.35364 0.0
O1253 O 0.62986 0.4759 0.3739 0.0
O1254 O 0.6266 0.53173 0.35869 0.0
O1255 O 0.65419 0.53213 0.37216 0.0
O1256 O 0.68436 0.52057 0.3901 0.0
O1257 O 0.66597 0.49674 0.37517 0.0
C1258 C 0.61137 0.53927 0.39816 0.0
C1259 C 0.68295 0.5045 0.38 0.0
Dy1260 Dy 0.70674 0.39173 0.64465 0.0
C1261 C 0.77407 0.35327 0.61535 0.0
C1262 C 0.67086 0.40555 0.65433 0.0
Dy1263 Dy 0.73911 0.36871 0.62538 0.0
O1264 O 0.68092 0.39278 0.66371 0.0
O1265 O 0.68075 0.41131 0.63992 0.0
O1266 O 0.7254 0.39509 0.67079 0.0
O1267 O 0.72839 0.37034 0.65384 0.0
C1268 C 0.73547 0.37943 0.6677 0.0
C1269 C 0.71107 0.38204 0.60214 0.0
O1270 O 0.7208 0.3444 0.6351 0.0
O1271 O 0.69298 0.36337 0.63558 0.0
O1272 O 0.77138 0.3706 0.62155 0.0
O1273 O 0.75761 0.34421 0.61455 0.0
O1274 O 0.72093 0.36644 0.59867 0.0
O1275 O 0.71809 0.39042 0.6163 0.0
O1276 O 0.72638 0.41677 0.63807 0.0
O1277 O 0.75329 0.39715 0.63197 0.0
C1278 C 0.70153 0.34611 0.63482 0.0
C1279 C 0.74536 0.41445 0.63477 0.0
Dy1280 Dy 0.62458 0.8562 0.53624 0.0
C1281 C 0.64009 0.89421 0.46611 0.0
C1282 C 0.62139 0.84126 0.57157 0.0
Dy1283 Dy 0.6373 0.88066 0.50195 0.0
O1284 O 0.60752 0.85026 0.56239 0.0
O1285 O 0.63693 0.84009 0.56127 0.0
O1286 O 0.59798 0.84665 0.52011 0.0
O1287 O 0.60985 0.87406 0.51525 0.0
C1288 C 0.5973 0.86204 0.50969 0.0
C1289 C 0.66485 0.87353 0.52799 0.0
O1290 O 0.62582 0.9045 0.51982 0.0
O1291 O 0.62744 0.88689 0.54766 0.0
O1292 O 0.64974 0.90083 0.48064 0.0
O1293 O 0.62874 0.88043 0.47132 0.0
O1294 O 0.66474 0.88905 0.51782 0.0
O1295 O 0.65167 0.86241 0.52246 0.0
O1296 O 0.63457 0.83166 0.51745 0.0
O1297 O 0.64105 0.85031 0.49098 0.0
C1298 C 0.62614 0.90363 0.53851 0.0
C1299 C 0.63971 0.83333 0.49945 0.0
Dy1300 Dy 0.11572 0.66985 0.47686 0.0
C1301 C 0.11346 0.58863 0.46087 0.0
C1302 C 0.12328 0.70487 0.49226 0.0
Dy1303 Dy 0.10985 0.62676 0.46875 0.0
O1304 O 0.13626 0.69262 0.48642 0.0
O1305 O 0.10575 0.69815 0.48932 0.0
O1306 O 0.13348 0.67189 0.45069 0.0
O1307 O 0.13406 0.6464 0.4665 0.0
C1308 C 0.1398 0.65427 0.45168 0.0
C1309 C 0.07866 0.64496 0.48325 0.0
O1310 O 0.12903 0.62464 0.49441 0.0
O1311 O 0.12733 0.65669 0.50371 0.0
O1312 O 0.10861 0.59566 0.47717 0.0
O1313 O 0.11625 0.60239 0.44884 0.0
O1314 O 0.07753 0.63022 0.47197 0.0
O1315 O 0.09635 0.64784 0.48728 0.0
O1316 O 0.09387 0.67161 0.45317 0.0
O1317 O 0.10112 0.64095 0.44173 0.0
C1318 C 0.13262 0.63855 0.50676 0.0
C1319 C 0.09304 0.65828 0.43973 0.0
Dy1320 Dy 0.62443 0.85126 0.71828 0.0
C1321 C 0.66106 0.88317 0.78619 0.0
C1322 C 0.6129 0.8419 0.68252 0.0
Dy1323 Dy 0.64353 0.87193 0.75328 0.0
O1324 O 0.60587 0.85613 0.69237 0.0
O1325 O 0.62594 0.83244 0.69242 0.0
O1326 O 0.61344 0.8272 0.73662 0.0
O1327 O 0.63854 0.84242 0.74464 0.0
C1328 C 0.62623 0.83036 0.74999 0.0
C1329 C 0.62932 0.89508 0.72624 0.0
O1330 O 0.67046 0.86308 0.73841 0.0
O1331 O 0.65603 0.85329 0.70993 0.0
O1332 O 0.66509 0.88983 0.7696 0.0
O1333 O 0.64789 0.86988 0.78456 0.0
O1334 O 0.63042 0.90015 0.74387 0.0
O1335 O 0.63756 0.87905 0.72395 0.0
O1336 O 0.59857 0.867 0.7306 0.0
O1337 O 0.61212 0.87175 0.76055 0.0
C1338 C 0.6716 0.85771 0.72051 0.0
C1339 C 0.59716 0.87231 0.74855 0.0
Dy1340 Dy 0.39791 0.35855 0.96148 0.0
C1341 C 0.36812 0.38542 0.03386 0.0
C1342 C 0.40419 0.34964 0.92405 0.0
Dy1343 Dy 0.37759 0.37448 0.99818 0.0
O1344 O 0.41424 0.36184 0.93416 0.0
O1345 O 0.39117 0.34173 0.93466 0.0
O1346 O 0.42691 0.35695 0.97807 0.0
O1347 O 0.40558 0.3772 0.98506 0.0
C1348 C 0.4217 0.37014 0.99025 0.0
C1349 C 0.35225 0.36554 0.97029 0.0
O1350 O 0.38451 0.40175 0.98375 0.0
O1351 O 0.38646 0.38817 0.95382 0.0
O1352 O 0.36839 0.39686 0.01944 0.0
O1353 O 0.37307 0.36813 0.02869 0.0
O1354 O 0.34793 0.37616 0.98476 0.0
O1355 O 0.36867 0.35753 0.97354 0.0
O1356 O 0.39634 0.33108 0.9785 0.0
O1357 O 0.39031 0.34631 0.00734 0.0
C1358 C 0.38394 0.40327 0.96515 0.0
C1359 C 0.39476 0.33086 0.99724 0.0
Dy1360 Dy 0.37977 0.63939 0.71453 0.0
C1361 C 0.34136 0.62196 0.78466 0.0
C1362 C 0.39482 0.64298 0.67912 0.0
Dy1363 Dy 0.35554 0.62732 0.74924 0.0
O1364 O 0.38498 0.65617 0.68802 0.0
O1365 O 0.39671 0.6278 0.6897 0.0
O1366 O 0.38717 0.66717 0.72972 0.0
O1367 O 0.36041 0.65369 0.73423 0.0
C1368 C 0.37118 0.66727 0.73947 0.0
C1369 C 0.36319 0.59897 0.72477 0.0
O1370 O 0.33175 0.63974 0.73114 0.0
O1371 O 0.34872 0.63465 0.70343 0.0
O1372 O 0.33379 0.61505 0.76917 0.0
O1373 O 0.35625 0.63249 0.78056 0.0
O1374 O 0.34806 0.59926 0.73553 0.0
O1375 O 0.37441 0.61257 0.7292 0.0
O1376 O 0.40501 0.63206 0.7343 0.0
O1377 O 0.38595 0.6298 0.7612 0.0
C1378 C 0.33202 0.63763 0.71253 0.0
C1379 C 0.40317 0.63041 0.7529 0.0
Dy1380 Dy 0.90595 0.12834 0.03673 0.0
C1381 C 0.87391 0.1069 0.96458 0.0
C1382 C 0.91569 0.13561 0.07356 0.0
Dy1383 Dy 0.88354 0.11378 0.00136 0.0
O1384 O 0.92503 0.12377 0.06257 0.0
O1385 O 0.90154 0.14391 0.06418 0.0
O1386 O 0.93232 0.13359 0.01835 0.0
O1387 O 0.91296 0.1113 0.01204 0.0
C1388 C 0.9275 0.12021 0.00624 0.0
C1389 C 0.86093 0.11911 0.03093 0.0
O1390 O 0.89182 0.08562 0.01422 0.0
O1391 O 0.89706 0.09838 0.04422 0.0
O1392 O 0.86626 0.09836 0.97892 0.0
O1393 O 0.88693 0.1191 0.97037 0.0
O1394 O 0.85666 0.10746 0.01711 0.0
O1395 O 0.87538 0.12947 0.02689 0.0
O1396 O 0.90005 0.15711 0.02392 0.0
O1397 O 0.88464 0.14571 0.99653 0.0
C1398 C 0.8939 0.08362 0.03273 0.0
C1399 C 0.89151 0.1599 0.00725 0.0
Dy1400 Dy 0.60321 0.14394 0.80253 0.0
C1401 C 0.62876 0.1131 0.72991 0.0
C1402 C 0.58748 0.14522 0.83735 0.0
Dy1403 Dy 0.62256 0.12443 0.76641 0.0
O1404 O 0.58575 0.1591 0.82509 0.0
O1405 O 0.59787 0.13116 0.83065 0.0
O1406 O 0.61106 0.17379 0.79264 0.0
O1407 O 0.60727 0.15096 0.77339 0.0
C1408 C 0.61302 0.16802 0.77522 0.0
C1409 C 0.62277 0.10361 0.79818 0.0
O1410 O 0.64672 0.14233 0.77794 0.0
O1411 O 0.63552 0.14339 0.80888 0.0
O1412 O 0.64077 0.10994 0.74396 0.0
O1413 O 0.61374 0.12277 0.73579 0.0
O1414 O 0.63501 0.10052 0.78459 0.0
O1415 O 0.61016 0.11541 0.79246 0.0
O1416 O 0.57633 0.13312 0.78714 0.0
O1417 O 0.59186 0.11433 0.76406 0.0
C1418 C 0.64975 0.14461 0.79635 0.0
C1419 C 0.57603 0.1205 0.77292 0.0
Dy1420 Dy 0.88572 0.84045 0.27872 0.0
C1421 C 0.85082 0.87538 0.21245 0.0
C1422 C 0.89737 0.82976 0.31438 0.0
Dy1423 Dy 0.86421 0.86206 0.24655 0.0
O1424 O 0.88571 0.82007 0.30335 0.0
O1425 O 0.90332 0.84497 0.3056 0.0
O1426 O 0.89027 0.81474 0.25998 0.0
O1427 O 0.86549 0.83244 0.25577 0.0
C1428 C 0.87532 0.81865 0.249 0.0
C1429 C 0.87565 0.88405 0.27579 0.0
O1430 O 0.83872 0.85046 0.26166 0.0
O1431 O 0.856 0.84885 0.28982 0.0
O1432 O 0.86581 0.86412 0.21507 0.0
O1433 O 0.84288 0.87917 0.22857 0.0
O1434 O 0.86049 0.888 0.26532 0.0
O1435 O 0.88488 0.87003 0.26894 0.0
O1436 O 0.91213 0.84704 0.26125 0.0
O1437 O 0.89398 0.85654 0.23472 0.0
C1438 C 0.83917 0.84997 0.28032 0.0
C1439 C 0.9108 0.85181 0.24309 0.0
Dy1440 Dy 0.51941 0.37952 0.11392 0.0
C1441 C 0.44417 0.40128 0.14363 0.0
C1442 C 0.55775 0.37394 0.10543 0.0
Dy1443 Dy 0.48151 0.39601 0.13164 0.0
O1444 O 0.5431 0.36536 0.09724 0.0
O1445 O 0.5512 0.38612 0.11779 0.0
O1446 O 0.50504 0.35125 0.10793 0.0
O1447 O 0.49606 0.36824 0.13076 0.0
C1448 C 0.49206 0.35364 0.12096 0.0
C1449 C 0.50881 0.42176 0.12358 0.0
O1450 O 0.4991 0.39115 0.15865 0.0
O1451 O 0.52793 0.38069 0.14464 0.0
O1452 O 0.45307 0.41256 0.13204 0.0
O1453 O 0.45569 0.38721 0.1487 0.0
O1454 O 0.49664 0.42417 0.13736 0.0
O1455 O 0.50447 0.40706 0.11413 0.0
O1456 O 0.50327 0.38735 0.08757 0.0
O1457 O 0.47266 0.3877 0.10145 0.0
C1458 C 0.51769 0.38531 0.15977 0.0
C1459 C 0.48394 0.38652 0.08624 0.0
Dy1460 Dy 0.35788 0.74073 0.86951 0.0
C1461 C 0.31663 0.67381 0.89452 0.0
C1462 C 0.37899 0.77271 0.86172 0.0
Dy1463 Dy 0.33028 0.70868 0.88383 0.0
O1464 O 0.38466 0.75872 0.87259 0.0
O1465 O 0.36159 0.76934 0.85497 0.0
O1466 O 0.38034 0.71791 0.86298 0.0
O1467 O 0.36123 0.71425 0.88534 0.0
C1468 C 0.37411 0.70615 0.87569 0.0
C1469 C 0.31298 0.74264 0.87853 0.0
O1470 O 0.34044 0.72097 0.91144 0.0
O1471 O 0.35281 0.74948 0.89945 0.0
O1472 O 0.33248 0.68175 0.90089 0.0
O1473 O 0.308 0.68501 0.88224 0.0
O1474 O 0.30665 0.73001 0.89046 0.0
O1475 O 0.3265 0.73557 0.86866 0.0
O1476 O 0.34952 0.72831 0.84181 0.0
O1477 O 0.33668 0.6999 0.85372 0.0
C1478 C 0.34817 0.73824 0.91374 0.0
C1479 C 0.34301 0.71057 0.83953 0.0
Dy1480 Dy 0.01629 0.62458 0.61364 0.0
C1481 C 0.99554 0.62199 0.69085 0.0
C1482 C 0.02603 0.62851 0.57706 0.0
Dy1483 Dy 0.01043 0.62347 0.6554 0.0
O1484 O 0.0267 0.64222 0.58953 0.0
O1485 O 0.02079 0.61247 0.58471 0.0
O1486 O 0.98738 0.61205 0.60795 0.0
O1487 O 0.00284 0.60316 0.63256 0.0
C1488 C 0.98669 0.60227 0.62338 0.0
C1489 C 0.03692 0.64882 0.64439 0.0
O1490 O 0.03736 0.60458 0.65453 0.0
O1491 O 0.04489 0.6117 0.62351 0.0
O1492 O 0.00434 0.63659 0.68366 0.0
O1493 O 0.99517 0.60788 0.67872 0.0
O1494 O 0.03822 0.63979 0.66037 0.0
O1495 O 0.02096 0.64513 0.63615 0.0
O1496 O 0.99407 0.64803 0.61533 0.0
O1497 O 0.98353 0.63972 0.64501 0.0
C1498 C 0.04969 0.60434 0.64019 0.0
C1499 C 0.98113 0.64926 0.62894 0.0
Dy1500 Dy 0.1182 0.24261 0.3836 0.0
C1501 C 0.16319 0.31193 0.40376 0.0
C1502 C 0.10621 0.20583 0.37762 0.0
Dy1503 Dy 0.14649 0.27779 0.39324 0.0
O1504 O 0.10504 0.21946 0.3651 0.0
O1505 O 0.11389 0.21238 0.39314 0.0
O1506 O 0.0892 0.25768 0.38716 0.0
O1507 O 0.11532 0.27251 0.39116 0.0
C1508 C 0.09698 0.27428 0.39099 0.0
C1509 C 0.16283 0.24671 0.3769 0.0
O1510 O 0.14579 0.26302 0.42163 0.0
O1511 O 0.12259 0.23928 0.41464 0.0
O1512 O 0.17078 0.29929 0.39242 0.0
O1513 O 0.14646 0.30578 0.4097 0.0
O1514 O 0.16997 0.26391 0.37551 0.0
O1515 O 0.14913 0.24692 0.38852 0.0
O1516 O 0.1255 0.25427 0.35512 0.0
O1517 O 0.13384 0.28529 0.36495 0.0
C1518 C 0.13443 0.24842 0.42652 0.0
C1519 C 0.12892 0.2727 0.35159 0.0
Dy1520 Dy 0.51442 0.62986 0.3717 0.0
C1521 C 0.44405 0.59453 0.34469 0.0
C1522 C 0.5484 0.64319 0.38701 0.0
Dy1523 Dy 0.47911 0.60708 0.35836 0.0
O1524 O 0.53104 0.64807 0.39251 0.0
O1525 O 0.54719 0.63127 0.37294 0.0
O1526 O 0.5004 0.65702 0.36083 0.0
O1527 O 0.4828 0.63531 0.37131 0.0
C1528 C 0.48256 0.65153 0.36348 0.0
C1529 C 0.50927 0.58516 0.36902 0.0
O1530 O 0.49208 0.6157 0.33026 0.0
O1531 O 0.52077 0.63007 0.34113 0.0
O1532 O 0.45604 0.5846 0.35519 0.0
O1533 O 0.45122 0.61146 0.34153 0.0
O1534 O 0.49135 0.5793 0.36944 0.0
O1535 O 0.51028 0.60103 0.3605 0.0
O1536 O 0.50482 0.61669 0.39865 0.0
O1537 O 0.47272 0.61196 0.38916 0.0
C1538 C 0.50903 0.62437 0.32731 0.0
C1539 C 0.48636 0.61332 0.40265 0.0
Dy1540 Dy 0.1219 0.72181 0.12853 0.0
C1541 C 0.12545 0.73866 0.05208 0.0
C1542 C 0.12617 0.71097 0.16503 0.0
Dy1543 Dy 0.12329 0.72414 0.08786 0.0
O1544 O 0.10975 0.71682 0.15746 0.0
O1545 O 0.13997 0.71108 0.15276 0.0
O1546 O 0.13174 0.75158 0.13246 0.0
O1547 O 0.14345 0.7357 0.10977 0.0
C1548 C 0.14265 0.75219 0.11778 0.0
C1549 C 0.09909 0.69631 0.09894 0.0
O1550 O 0.14454 0.69943 0.09045 0.0
O1551 O 0.13526 0.6933 0.12095 0.0
O1552 O 0.11088 0.72917 0.0587 0.0
O1553 O 0.13921 0.73963 0.06487 0.0
O1554 O 0.10908 0.69562 0.08349 0.0
O1555 O 0.10107 0.71255 0.10691 0.0
O1556 O 0.09538 0.74066 0.12567 0.0
O1557 O 0.10333 0.74876 0.09519 0.0
C1558 C 0.14471 0.68829 0.10557 0.0
C1559 C 0.09269 0.75137 0.11044 0.0
Dy1560 Dy 0.02688 0.39389 0.88302 0.0
C1561 C 0.00219 0.38478 0.80663 0.0
C1562 C 0.03925 0.39054 0.91946 0.0
Dy1563 Dy 0.0149 0.38484 0.84323 0.0
O1564 O 0.03723 0.40673 0.91052 0.0
O1565 O 0.0344 0.37628 0.90855 0.0
O1566 O 0.01703 0.42463 0.87972 0.0
O1567 O 0.0023 0.40297 0.86517 0.0
C1568 C 0.00318 0.42092 0.86756 0.0
C1569 C 0.03526 0.35703 0.86029 0.0
O1570 O 0.04183 0.40287 0.83816 0.0
O1571 O 0.05402 0.40293 0.86884 0.0
O1572 O 0.01242 0.37118 0.81458 0.0
O1573 O -0.00097 0.39858 0.81869 0.0
O1574 O 0.02107 0.35374 0.84839 0.0
O1575 O 0.03866 0.37478 0.86155 0.0
O1576 O 0.00141 0.37437 0.8882 0.0
O1577 O 0.98892 0.37236 0.85764 0.0
C1578 C 0.05578 0.40701 0.85075 0.0
C1579 C 0.98796 0.36839 0.8759 0.0
Dy1580 Dy 0.3717 0.25142 0.6069 0.0
C1581 C 0.32305 0.31414 0.58063 0.0
C1582 C 0.39069 0.21963 0.61913 0.0
Dy1583 Dy 0.3397 0.28072 0.59278 0.0
O1584 O 0.3957 0.22961 0.60453 0.0
O1585 O 0.37553 0.22715 0.62719 0.0
O1586 O 0.39426 0.27452 0.6061 0.0
O1587 O 0.37011 0.27511 0.58727 0.0
C1588 C 0.38452 0.2843 0.59342 0.0
C1589 C 0.32659 0.2479 0.60581 0.0
O1590 O 0.34357 0.26301 0.56615 0.0
O1591 O 0.36135 0.23768 0.57987 0.0
O1592 O 0.31499 0.30228 0.59226 0.0
O1593 O 0.34003 0.3076 0.5756 0.0
O1594 O 0.31635 0.25815 0.59378 0.0
O1595 O 0.34123 0.25694 0.61177 0.0
O1596 O 0.36815 0.26743 0.6338 0.0
O1597 O 0.34871 0.29252 0.62198 0.0
C1598 C 0.35186 0.2456 0.56538 0.0
C1599 C 0.35911 0.28419 0.63595 0.0
Dy1600 Dy 0.14581 0.48716 0.37398 0.0
C1601 C 0.17699 0.42366 0.41771 0.0
C1602 C 0.13045 0.51899 0.3574 0.0
Dy1603 Dy 0.16282 0.45781 0.40399 0.0
O1604 O 0.12636 0.50147 0.35219 0.0
O1605 O 0.14275 0.51893 0.37147 0.0
O1606 O 0.16278 0.47214 0.35126 0.0
O1607 O 0.15336 0.45689 0.37475 0.0
C1608 C 0.16375 0.45589 0.36032 0.0
C1609 C 0.14368 0.48794 0.41815 0.0
O1610 O 0.18986 0.47592 0.39839 0.0
O1611 O 0.17616 0.49809 0.377 0.0
O1612 O 0.16604 0.43575 0.42696 0.0
O1613 O 0.18141 0.43108 0.4015 0.0
O1614 O 0.14669 0.47233 0.42794 0.0
O1615 O 0.15377 0.48742 0.40349 0.0
O1616 O 0.11802 0.47311 0.38297 0.0
O1617 O 0.13285 0.44636 0.39702 0.0
C1618 C 0.19109 0.49126 0.38709 0.0
C1619 C 0.11708 0.45569 0.3905 0.0
Dy1620 Dy 0.25705 0.37412 0.13036 0.0
C1621 C 0.32932 0.41227 0.14997 0.0
C1622 C 0.22075 0.3599 0.12298 0.0
Dy1623 Dy 0.29232 0.39851 0.14586 0.0
O1624 O 0.2371 0.35224 0.11748 0.0
O1625 O 0.22449 0.37488 0.13343 0.0
O1626 O 0.27305 0.36596 0.10428 0.0
O1627 O 0.27954 0.39179 0.11835 0.0
C1628 C 0.28495 0.38035 0.1056 0.0
C1629 C 0.26482 0.38932 0.17061 0.0
O1630 O 0.27317 0.42311 0.13582 0.0
O1631 O 0.24605 0.40443 0.12773 0.0
O1632 O 0.3208 0.40102 0.16185 0.0
O1633 O 0.31734 0.41652 0.13619 0.0
O1634 O 0.27531 0.40482 0.17258 0.0
O1635 O 0.271 0.37939 0.15721 0.0
O1636 O 0.27526 0.35094 0.14305 0.0
O1637 O 0.30412 0.36825 0.14139 0.0
C1638 C 0.25487 0.42129 0.12953 0.0
C1639 C 0.29457 0.3517 0.14252 0.0
Dy1640 Dy 0.35781 0.4985 0.86142 0.0
C1641 C 0.32759 0.56266 0.90403 0.0
C1642 C 0.36877 0.46576 0.84258 0.0
Dy1643 Dy 0.34083 0.52845 0.89029 0.0
O1644 O 0.35524 0.46676 0.85522 0.0
O1645 O 0.37642 0.48263 0.84033 0.0
O1646 O 0.36085 0.52178 0.83971 0.0
O1647 O 0.33915 0.52378 0.86008 0.0
C1648 C 0.34779 0.53278 0.84747 0.0
C1649 C 0.35099 0.49442 0.90483 0.0
O1650 O 0.31311 0.51377 0.88291 0.0
O1651 O 0.32638 0.48991 0.86336 0.0
O1652 O 0.34024 0.55156 0.9127 0.0
O1653 O 0.32218 0.5549 0.88814 0.0
O1654 O 0.33797 0.50572 0.91252 0.0
O1655 O 0.3594 0.50299 0.89168 0.0
O1656 O 0.38496 0.51014 0.87458 0.0
O1657 O 0.37115 0.53897 0.88485 0.0
C1658 C 0.31149 0.49832 0.87208 0.0
C1659 C 0.38656 0.5282 0.88049 0.0
Dy1660 Dy 0.24189 0.61332 0.60424 0.0
C1661 C 0.16609 0.5976 0.63273 0.0
C1662 C 0.27461 0.62412 0.58572 0.0
Dy1663 Dy 0.20481 0.60716 0.62876 0.0
O1664 O 0.2747 0.61487 0.60164 0.0
O1665 O 0.25677 0.62741 0.58013 0.0
O1666 O 0.22573 0.59919 0.5804 0.0
O1667 O 0.21039 0.61607 0.59988 0.0
C1668 C 0.20866 0.60539 0.58552 0.0
C1669 C 0.23772 0.61468 0.64831 0.0
O1670 O 0.21682 0.5765 0.62558 0.0
O1671 O 0.24593 0.58224 0.60958 0.0
O1672 O 0.17679 0.60591 0.64579 0.0
O1673 O 0.17683 0.5941 0.61812 0.0
O1674 O 0.22036 0.61817 0.65516 0.0
O1675 O 0.23604 0.60539 0.6331 0.0
O1676 O 0.23602 0.64286 0.61521 0.0
O1677 O 0.20358 0.63903 0.62381 0.0
C1678 C 0.23339 0.57052 0.61757 0.0
C1679 C 0.21886 0.65001 0.62017 0.0
Dy1680 Dy 0.13376 0.49802 0.12978 0.0
C1681 C 0.15085 0.5743 0.10211 0.0
C1682 C 0.12808 0.4607 0.14028 0.0
Dy1683 Dy 0.14561 0.53616 0.11103 0.0
O1684 O 0.11521 0.47445 0.14161 0.0
O1685 O 0.14387 0.46734 0.13291 0.0
O1686 O 0.12892 0.51238 0.15759 0.0
O1687 O 0.14919 0.52404 0.13929 0.0
C1688 C 0.13971 0.52711 0.15412 0.0
C1689 C 0.13959 0.50607 0.08749 0.0
O1690 O 0.17556 0.52328 0.11628 0.0
O1691 O 0.16423 0.49211 0.12041 0.0
O1692 O 0.15748 0.56587 0.11727 0.0
O1693 O 0.14163 0.56179 0.09171 0.0
O1694 O 0.15188 0.51976 0.084 0.0
O1695 O 0.13012 0.51023 0.10203 0.0
O1696 O 0.10485 0.50912 0.12014 0.0
O1697 O 0.11465 0.54089 0.12109 0.0
C1698 C 0.17858 0.50444 0.11796 0.0
C1699 C 0.10076 0.52769 0.1214 0.0
Dy1700 Dy 0.24008 0.37902 0.86861 0.0
C1701 C 0.16764 0.40126 0.83081 0.0
C1702 C 0.27501 0.37233 0.8869 0.0
Dy1703 Dy 0.20445 0.38874 0.84071 0.0
O1704 O 0.2636 0.38713 0.88962 0.0
O1705 O 0.26741 0.36118 0.87402 0.0
O1706 O 0.2189 0.37254 0.8916 0.0
O1707 O 0.21122 0.3921 0.8708 0.0
C1708 C 0.20476 0.38299 0.8846 0.0
C1709 C 0.2369 0.37407 0.82489 0.0
O1710 O 0.21894 0.41738 0.84046 0.0
O1711 O 0.24507 0.40992 0.86132 0.0
O1712 O 0.17911 0.39135 0.81983 0.0
O1713 O 0.17653 0.40457 0.84676 0.0
O1714 O 0.21967 0.37255 0.81689 0.0
O1715 O 0.23568 0.38484 0.83904 0.0
O1716 O 0.23037 0.35033 0.85848 0.0
O1717 O 0.19835 0.35913 0.8509 0.0
C1718 C 0.23473 0.42207 0.85052 0.0
C1719 C 0.21191 0.34599 0.85491 0.0
Dy1720 Dy 0.35734 0.48661 0.62805 0.0
C1721 C 0.32995 0.42493 0.58026 0.0
C1722 C 0.36928 0.51868 0.64699 0.0
Dy1723 Dy 0.34242 0.4576 0.59761 0.0
O1724 O 0.37539 0.50131 0.6505 0.0
O1725 O 0.35653 0.51854 0.63324 0.0
O1726 O 0.3559 0.46439 0.65075 0.0
O1727 O 0.33689 0.46297 0.62722 0.0
C1728 C 0.34324 0.45413 0.64146 0.0
C1729 C 0.35712 0.4901 0.58436 0.0
O1730 O 0.315 0.47495 0.60045 0.0
O1731 O 0.32717 0.49827 0.62131 0.0
O1732 O 0.34299 0.43643 0.57357 0.0
O1733 O 0.32374 0.43136 0.59634 0.0
O1734 O 0.34396 0.48021 0.57516 0.0
O1735 O 0.36308 0.48103 0.59864 0.0
O1736 O 0.38528 0.47195 0.62025 0.0
O1737 O 0.37124 0.44457 0.60711 0.0
C1738 C 0.313 0.49098 0.61048 0.0
C1739 C 0.38652 0.45387 0.61429 0.0
Dy1740 Dy 0.26523 0.62263 0.37227 0.0
C1741 C 0.3306 0.59308 0.33189 0.0
C1742 C 0.23149 0.6344 0.38826 0.0
Dy1743 Dy 0.29583 0.60392 0.34705 0.0
O1744 O 0.24364 0.62198 0.39554 0.0
O1745 O 0.23792 0.64081 0.37236 0.0
O1746 O 0.28752 0.62894 0.39458 0.0
O1747 O 0.29072 0.6043 0.3772 0.0
C1748 C 0.2988 0.61469 0.38965 0.0
C1749 C 0.26258 0.61356 0.32915 0.0
O1750 O 0.28035 0.57684 0.35496 0.0
O1751 O 0.25379 0.59234 0.36868 0.0
O1752 O 0.31848 0.60552 0.32455 0.0
O1753 O 0.32338 0.58611 0.34725 0.0
O1754 O 0.27358 0.59914 0.32403 0.0
O1755 O 0.27084 0.62301 0.34219 0.0
O1756 O 0.28178 0.64962 0.36626 0.0
O1757 O 0.30822 0.63338 0.35321 0.0
C1758 C 0.26291 0.57648 0.36288 0.0
C1759 C 0.29981 0.64941 0.35962 0.0
Dy1760 Dy 0.35185 0.10966 0.49402 0.0
C1761 C 0.37531 0.15313 0.42742 0.0
C1762 C 0.34479 0.09448 0.52856 0.0
Dy1763 Dy 0.37046 0.13173 0.45931 0.0
O1764 O 0.3336 0.09259 0.51375 0.0
O1765 O 0.3598 0.10488 0.52457 0.0
O1766 O 0.3248 0.10281 0.47674 0.0
O1767 O 0.34188 0.12657 0.47039 0.0
C1768 C 0.32825 0.11619 0.46451 0.0
C1769 C 0.3953 0.11691 0.48502 0.0
O1770 O 0.36328 0.15681 0.47934 0.0
O1771 O 0.34667 0.14005 0.50295 0.0
O1772 O 0.35866 0.14844 0.4345 0.0
O1773 O 0.38948 0.14639 0.43797 0.0
O1774 O 0.40022 0.11915 0.4675 0.0
O1775 O 0.3787 0.12405 0.48748 0.0
O1776 O 0.36558 0.08598 0.47749 0.0
O1777 O 0.3647 0.10142 0.4484 0.0
C1778 C 0.35306 0.1563 0.49539 0.0
C1779 C 0.36513 0.08545 0.4588 0.0
Dy1780 Dy 0.88481 0.37352 0.52938 0.0
C1781 C 0.88595 0.29441 0.50453 0.0
C1782 C 0.87263 0.40969 0.53917 0.0
Dy1783 Dy 0.88663 0.33006 0.52038 0.0
O1784 O 0.89067 0.4038 0.53918 0.0
O1785 O 0.86124 0.39588 0.53374 0.0
O1786 O 0.91666 0.37631 0.52378 0.0
O1787 O 0.90045 0.35562 0.50915 0.0
C1788 C 0.91744 0.36192 0.51205 0.0
C1789 C 0.86297 0.33944 0.54833 0.0
O1790 O 0.90946 0.33234 0.54329 0.0
O1791 O 0.89645 0.36059 0.55594 0.0
O1792 O 0.87131 0.30298 0.51248 0.0
O1793 O 0.90135 0.30535 0.50535 0.0
O1794 O 0.87164 0.32283 0.54721 0.0
O1795 O 0.86572 0.34922 0.53368 0.0
O1796 O 0.87016 0.37458 0.50095 0.0
O1797 O 0.86905 0.34148 0.49576 0.0
C1798 C 0.90793 0.34515 0.55718 0.0
C1799 C 0.86481 0.35945 0.49071 0.0
Dy1800 Dy 0.35508 0.13878 0.25315 0.0
C1801 C 0.39187 0.16931 0.3192 0.0
C1802 C 0.3358 0.12353 0.22284 0.0
Dy1803 Dy 0.37891 0.15877 0.28394 0.0
O1804 O 0.33139 0.12095 0.24033 0.0
O1805 O 0.35082 0.13483 0.22177 0.0
O1806 O 0.34537 0.117 0.27447 0.0
O1807 O 0.37292 0.12891 0.27715 0.0
C1808 C 0.36097 0.11808 0.28493 0.0
C1809 C 0.3754 0.17875 0.25186 0.0
O1810 O 0.40318 0.1422 0.27001 0.0
O1811 O 0.3854 0.1327 0.24329 0.0
O1812 O 0.39926 0.15556 0.30902 0.0
O1813 O 0.37795 0.17786 0.30971 0.0
O1814 O 0.3905 0.17996 0.26316 0.0
O1815 O 0.36232 0.16868 0.2592 0.0
O1816 O 0.33306 0.1583 0.26521 0.0
O1817 O 0.34782 0.1564 0.29431 0.0
C1818 C 0.40203 0.13398 0.25305 0.0
C1819 C 0.33185 0.15856 0.28369 0.0
Dy1820 Dy 0.61646 0.6195 0.9951 0.0
C1821 C 0.59311 0.65173 0.06734 0.0
C1822 C 0.62659 0.60605 0.96028 0.0
Dy1823 Dy 0.59686 0.63897 0.03065 0.0
O1824 O 0.61315 0.61902 0.9633 0.0
O1825 O 0.63413 0.60041 0.97624 0.0
O1826 O 0.64323 0.61117 0.01116 0.0
O1827 O 0.62658 0.63485 0.02034 0.0
C1828 C 0.64029 0.62327 0.02483 0.0
C1829 C 0.57327 0.63158 0.00051 0.0
O1830 O 0.6037 0.66559 0.01439 0.0
O1831 O 0.61676 0.65081 0.98751 0.0
O1832 O 0.58107 0.64006 0.05871 0.0
O1833 O 0.60659 0.65679 0.05567 0.0
O1834 O 0.56997 0.64571 0.01231 0.0
O1835 O 0.58747 0.62169 0.00648 0.0
O1836 O 0.60416 0.59394 0.00956 0.0
O1837 O 0.60183 0.60827 0.03923 0.0
C1838 C 0.61115 0.66623 0.99721 0.0
C1839 C 0.60278 0.59283 0.0282 0.0
Dy1840 Dy 0.64336 0.3863 0.24457 0.0
C1841 C 0.6058 0.36542 0.31433 0.0
C1842 C 0.65771 0.38865 0.20915 0.0
Dy1843 Dy 0.62293 0.36946 0.28004 0.0
O1844 O 0.66313 0.39937 0.22335 0.0
O1845 O 0.64444 0.37671 0.21441 0.0
O1846 O 0.64105 0.41684 0.25512 0.0
O1847 O 0.62143 0.39598 0.26423 0.0
C1848 C 0.62772 0.41267 0.26728 0.0
C1849 C 0.63932 0.34402 0.25643 0.0
O1850 O 0.59708 0.3699 0.25948 0.0
O1851 O 0.61449 0.37717 0.23239 0.0
O1852 O 0.61901 0.35384 0.30753 0.0
O1853 O 0.60187 0.379 0.30233 0.0
O1854 O 0.62389 0.34001 0.26621 0.0
O1855 O 0.64557 0.36031 0.26099 0.0
O1856 O 0.66929 0.38309 0.26356 0.0
O1857 O 0.65207 0.3809 0.2916 0.0
C1858 C 0.59813 0.3724 0.24088 0.0
C1859 C 0.66859 0.38389 0.28222 0.0
Dy1860 Dy 0.11082 0.87791 0.98901 0.0
C1861 C 0.07872 0.84379 0.92249 0.0
C1862 C 0.126 0.89731 0.0191 0.0
Dy1863 Dy 0.08965 0.85558 0.95793 0.0
O1864 O 0.12898 0.9013 0.00158 0.0
O1865 O 0.11483 0.88233 0.02036 0.0
O1866 O 0.13255 0.88792 0.96788 0.0
O1867 O 0.12028 0.86067 0.96477 0.0
C1868 C 0.13109 0.87285 0.95722 0.0
C1869 C 0.06914 0.85993 0.98947 0.0
O1870 O 0.10364 0.8305 0.97312 0.0
O1871 O 0.11581 0.8478 -0.00099 0.0
O1872 O 0.06872 0.85543 0.93311 0.0
O1873 O 0.09425 0.83796 0.93163 0.0
O1874 O 0.06664 0.8456 0.97778 0.0
O1875 O 0.08032 0.87224 0.98247 0.0
O1876 O 0.09125 0.9002 0.9771 0.0
O1877 O 0.09213 0.8863 0.9478 0.0
C1878 C 0.1126 0.83139 0.98989 0.0
C1879 C 0.09056 0.90179 0.95863 0.0
Dy1880 Dy 0.36228 0.86451 0.22958 0.0
C1881 C 0.39919 0.83386 0.16251 0.0
C1882 C 0.3474 0.87624 0.26343 0.0
Dy1883 Dy 0.38506 0.84516 0.19656 0.0
O1884 O 0.34006 0.88043 0.24694 0.0
O1885 O 0.36258 0.86506 0.26142 0.0
O1886 O 0.35608 0.89079 0.21235 0.0
O1887 O 0.3811 0.87432 0.20705 0.0
C1888 C 0.3703 0.88759 0.20084 0.0
C1889 C 0.37715 0.82286 0.22585 0.0
O1890 O 0.41072 0.85574 0.21349 0.0
O1891 O 0.39332 0.865 0.24024 0.0
O1892 O 0.40267 0.85032 0.17062 0.0
O1893 O 0.38807 0.82355 0.17309 0.0
O1894 O 0.39279 0.82068 0.21583 0.0
O1895 O 0.3662 0.83559 0.21882 0.0
O1896 O 0.33805 0.85096 0.21325 0.0
O1897 O 0.35479 0.85135 0.18508 0.0
C1898 C 0.40995 0.86217 0.23115 0.0
C1899 C 0.33822 0.85095 0.19457 0.0
Dy1900 Dy 0.12334 0.13003 0.75649 0.0
C1901 C 0.10528 0.16267 0.68383 0.0
C1902 C 0.12803 0.11539 0.79185 0.0
Dy1903 Dy 0.11177 0.15453 0.72141 0.0
O1904 O 0.13926 0.11147 0.77772 0.0
O1905 O 0.11445 0.12743 0.78665 0.0
O1906 O 0.12736 0.10388 0.73808 0.0
O1907 O 0.10702 0.12507 0.73028 0.0
C1908 C 0.11541 0.10985 0.72497 0.0
C1909 C 0.11975 0.17472 0.7531 0.0
O1910 O 0.08208 0.15302 0.73474 0.0
O1911 O 0.09278 0.13888 0.76297 0.0
O1912 O 0.09668 0.14931 0.69331 0.0
O1913 O 0.11701 0.1721 0.6951 0.0
O1914 O 0.1083 0.18121 0.73959 0.0
O1915 O 0.12801 0.15941 0.74774 0.0
O1916 O 0.15269 0.13906 0.74768 0.0
O1917 O 0.1428 0.14376 0.71665 0.0
C1918 C 0.07902 0.14681 0.75218 0.0
C1919 C 0.15674 0.14031 0.72956 0.0
H1920 H 0.08504 0.19153 0.34805 0.0
H1921 H 0.10586 0.17823 0.40434 0.0
H1922 H 0.08311 0.15159 0.40611 0.0
H1923 H 0.05326 0.13647 0.39407 0.0
H1924 H 0.03246 0.14865 0.33771 0.0
H1925 H 0.05935 0.17133 0.33335 0.0
C1926 C 0.08492 0.18244 0.36045 0.0
C1927 C 0.09659 0.18709 0.37624 0.0
C1928 C 0.07162 0.16724 0.36146 0.0
C1929 C 0.09666 0.1751 0.39215 0.0
C1930 C 0.08362 0.15992 0.39322 0.0
C1931 C 0.055 0.14375 0.38069 0.0
C1932 C 0.04099 0.14138 0.36632 0.0
C1933 C 0.07037 0.15656 0.37836 0.0
C1934 C 0.04323 0.15051 0.34891 0.0
C1935 C 0.05848 0.16349 0.3465 0.0
H1936 H 0.07473 0.86266 0.59684 0.0
H1937 H 0.03269 0.82124 0.57659 0.0
H1938 H 0.05792 0.79622 0.57637 0.0
H1939 H 0.08947 0.78494 0.58895 0.0
H1940 H 0.1313 0.82565 0.61058 0.0
H1941 H 0.10873 0.85233 0.60318 0.0
C1942 C 0.0713 0.84832 0.59175 0.0
C1943 C 0.05189 0.84355 0.58722 0.0
C1944 C 0.08572 0.83387 0.59236 0.0
C1945 C 0.04755 0.82506 0.58043 0.0
C1946 C 0.06191 0.81074 0.58044 0.0
C1947 C 0.09375 0.79974 0.59153 0.0
C1948 C 0.11163 0.80358 0.60051 0.0
C1949 C 0.08066 0.81475 0.58752 0.0
C1950 C 0.11743 0.8226 0.60369 0.0
C1951 C 0.10452 0.83776 0.59956 0.0
H1952 H 0.42352 0.84615 0.8334 0.0
H1953 H 0.4684 0.82136 0.86946 0.0
H1954 H 0.44658 0.79543 0.87804 0.0
H1955 H 0.41525 0.77938 0.87482 0.0
H1956 H 0.37003 0.8032 0.83865 0.0
H1957 H 0.39144 0.83002 0.83056 0.0
C1958 C 0.42846 0.83502 0.84309 0.0
C1959 C 0.44747 0.83562 0.85083 0.0
C1960 C 0.41582 0.82003 0.84791 0.0
C1961 C 0.45375 0.82123 0.86344 0.0
C1962 C 0.44132 0.80638 0.86832 0.0
C1963 C 0.41004 0.79047 0.8652 0.0
C1964 C 0.39119 0.78936 0.85726 0.0
C1965 C 0.42239 0.80561 0.86059 0.0
C1966 C 0.38457 0.80381 0.84487 0.0
C1967 C 0.39679 0.81908 0.84024 0.0
H1968 H 0.42346 0.20814 0.15104 0.0
H1969 H 0.41704 0.20064 0.09088 0.0
H1970 H 0.43942 0.17272 0.09214 0.0
H1971 H 0.46274 0.15229 0.11032 0.0
H1972 H 0.46805 0.1601 0.17072 0.0
H1973 H 0.44393 0.18607 0.16942 0.0
C1974 C 0.42685 0.20029 0.13821 0.0
C1975 C 0.41898 0.2065 0.12085 0.0
C1976 C 0.43956 0.18445 0.13911 0.0
C1977 C 0.42308 0.19608 0.10437 0.0
C1978 C 0.43591 0.18023 0.10511 0.0
C1979 C 0.45857 0.15964 0.1232 0.0
C1980 C 0.46745 0.15446 0.14056 0.0
C1981 C 0.44459 0.17458 0.12238 0.0
C1982 C 0.46159 0.16386 0.15716 0.0
C1983 C 0.44781 0.17874 0.15644 0.0
H1984 H 0.03037 0.81478 0.08954 0.0
H1985 H 0.0351 0.82762 0.14897 0.0
H1986 H 0.05868 0.80092 0.15305 0.0
H1987 H 0.07814 0.77384 0.13918 0.0
H1988 H 0.07289 0.76266 0.07932 0.0
H1989 H 0.04912 0.78862 0.07601 0.0
C1990 C 0.0365 0.81174 0.10343 0.0
C1991 C 0.03098 0.82302 0.11894 0.0
C1992 C 0.04987 0.79655 0.10558 0.0
C1993 C 0.03918 0.81906 0.13681 0.0
C1994 C 0.05258 0.80378 0.13913 0.0
C1995 C 0.07158 0.77703 0.12551 0.0
C1996 C 0.07724 0.76633 0.10953 0.0
C1997 C 0.05802 0.79236 0.12358 0.0
C1998 C 0.06886 0.77072 0.09183 0.0
C1999 C 0.05526 0.78558 0.08988 0.0
H2000 H 0.47756 0.85431 0.3977 0.0
H2001 H 0.47406 0.83955 0.33859 0.0
H2002 H 0.448 0.81667 0.3449 0.0
H2003 H 0.42659 0.80055 0.36734 0.0
H2004 H 0.42778 0.81731 0.42592 0.0
H2005 H 0.45442 0.83966 0.41983 0.0
C2006 C 0.47111 0.84601 0.38624 0.0
C2007 C 0.47787 0.84841 0.36774 0.0
C2008 C 0.45574 0.83328 0.38991 0.0
C2009 C 0.46914 0.83789 0.35294 0.0
C2010 C 0.45426 0.8248 0.35655 0.0
C2011 C 0.43254 0.80921 0.37871 0.0
C2012 C 0.42524 0.80724 0.39704 0.0
C2013 C 0.44748 0.82236 0.37498 0.0
C2014 C 0.43315 0.81855 0.41168 0.0
C2015 C 0.4484 0.83131 0.4082 0.0
H2016 H 0.42829 0.14779 0.65897 0.0
H2017 H 0.46473 0.14979 0.60984 0.0
H2018 H 0.44551 0.17679 0.59739 0.0
H2019 H 0.41983 0.20104 0.60162 0.0
H2020 H 0.3834 0.19921 0.65075 0.0
H2021 H 0.4012 0.17079 0.66219 0.0
C2022 C 0.43191 0.15413 0.6455 0.0
C2023 C 0.44789 0.14715 0.63538 0.0
C2024 C 0.42095 0.16966 0.63857 0.0
C2025 C 0.45245 0.15514 0.61786 0.0
C2026 C 0.44154 0.17055 0.61078 0.0
C2027 C 0.41579 0.19435 0.61479 0.0
C2028 C 0.40065 0.20217 0.62552 0.0
C2029 C 0.42602 0.17814 0.62121 0.0
C2030 C 0.39523 0.19339 0.64242 0.0
C2031 C 0.40535 0.17719 0.64893 0.0
H2032 H 0.1184 0.18596 0.87395 0.0
H2033 H 0.10434 0.20485 0.93013 0.0
H2034 H 0.08279 0.17717 0.93387 0.0
H2035 H 0.06251 0.15286 0.91784 0.0
H2036 H 0.07697 0.13409 0.86163 0.0
H2037 H 0.10469 0.15595 0.86142 0.0
C2038 C 0.11115 0.18354 0.88723 0.0
C2039 C 0.11235 0.19734 0.90162 0.0
C2040 C 0.09892 0.16775 0.88917 0.0
C2041 C 0.10326 0.19427 0.91889 0.0
C2042 C 0.09095 0.17856 0.92096 0.0
C2043 C 0.07223 0.15308 0.90588 0.0
C2044 C 0.06753 0.14258 0.88955 0.0
C2045 C 0.0878 0.16593 0.90574 0.0
C2046 C 0.08028 0.14241 0.87423 0.0
C2047 C 0.09598 0.15502 0.87403 0.0
H2048 H 0.31699 0.05082 0.17544 0.0
H2049 H 0.35266 0.08056 0.13545 0.0
H2050 H 0.35178 0.10954 0.15492 0.0
H2051 H 0.3459 0.12416 0.18601 0.0
H2052 H 0.3098 0.0946 0.22576 0.0
H2053 H 0.30538 0.06808 0.20353 0.0
C2054 C 0.32421 0.06379 0.17086 0.0
C2055 C 0.33536 0.06345 0.15446 0.0
C2056 C 0.32368 0.0804 0.18213 0.0
C2057 C 0.34429 0.0804 0.14831 0.0
C2058 C 0.34383 0.09699 0.15942 0.0
C2059 C 0.3366 0.11217 0.18953 0.0
C2060 C 0.32861 0.11102 0.20757 0.0
C2061 C 0.33433 0.09684 0.17678 0.0
C2062 C 0.31635 0.09561 0.21198 0.0
C2063 C 0.3139 0.08038 0.19934 0.0
H2064 H 0.15503 0.08772 0.44943 0.0
H2065 H 0.12303 0.13917 0.43379 0.0
H2066 H 0.14099 0.14094 0.40436 0.0
H2067 H 0.1698 0.13116 0.3863 0.0
H2068 H 0.2012 0.0792 0.40085 0.0
H2069 H 0.17932 0.07404 0.42748 0.0
C2070 C 0.15169 0.09901 0.43932 0.0
C2071 C 0.13815 0.11356 0.44387 0.0
C2072 C 0.16209 0.09992 0.42243 0.0
C2073 C 0.1336 0.12795 0.43063 0.0
C2074 C 0.14393 0.12902 0.41385 0.0
C2075 C 0.17137 0.11839 0.39497 0.0
C2076 C 0.187 0.10565 0.39194 0.0
C2077 C 0.1588 0.1156 0.41008 0.0
C2078 C 0.18911 0.08911 0.40306 0.0
C2079 C 0.17674 0.08628 0.41832 0.0
H2080 H 0.12447 0.89821 0.69096 0.0
H2081 H 0.18226 0.91615 0.70792 0.0
H2082 H 0.18065 0.94251 0.68504 0.0
H2083 H 0.16039 0.96355 0.66473 0.0
H2084 H 0.10072 0.94822 0.65206 0.0
H2085 H 0.10526 0.91771 0.66879 0.0
C2086 C 0.13695 0.90752 0.68916 0.0
C2087 C 0.15349 0.90537 0.70091 0.0
C2088 C 0.13525 0.92341 0.67719 0.0
C2089 C 0.16946 0.91763 0.69884 0.0
C2090 C 0.16842 0.93278 0.68597 0.0
C2091 C 0.14852 0.95336 0.66552 0.0
C2092 C 0.13021 0.958 0.65756 0.0
C2093 C 0.15101 0.93635 0.67582 0.0
C2094 C 0.11481 0.94492 0.65851 0.0
C2095 C 0.11744 0.92751 0.66795 0.0
H2096 H 0.34731 0.89401 0.96936 0.0
H2097 H 0.35088 0.83248 0.96067 0.0
H2098 H 0.33 0.83514 0.93282 0.0
H2099 H 0.30806 0.8542 0.91276 0.0
H2100 H 0.30477 0.91572 0.91966 0.0
H2101 H 0.32842 0.91393 0.94614 0.0
C2102 C 0.34365 0.88125 0.96124 0.0
C2103 C 0.35048 0.86306 0.96729 0.0
C2104 C 0.33169 0.88287 0.94493 0.0
C2105 C 0.34585 0.84668 0.95644 0.0
C2106 C 0.33383 0.84814 0.94048 0.0
C2107 C 0.31287 0.86725 0.91985 0.0
C2108 C 0.30473 0.88502 0.91452 0.0
C2109 C 0.32633 0.86605 0.93487 0.0
C2110 C 0.31103 0.90189 0.92357 0.0
C2111 C 0.32437 0.90082 0.93879 0.0
H2112 H 0.32403 0.94169 0.31991 0.0
H2113 H 0.38368 0.9319 0.33787 0.0
H2114 H 0.38527 0.90254 0.31883 0.0
H2115 H 0.37162 0.88295 0.29311 0.0
H2116 H 0.31361 0.89528 0.27168 0.0
H2117 H 0.30918 0.91995 0.29607 0.0
C2118 C 0.33712 0.93275 0.32 0.0
C2119 C 0.35367 0.93872 0.33029 0.0
C2120 C 0.33824 0.91644 0.30817 0.0
C2121 C 0.37075 0.9274 0.33009 0.0
C2122 C 0.37169 0.91069 0.31914 0.0
C2123 C 0.3578 0.89064 0.29417 0.0
C2124 C 0.34295 0.88736 0.28067 0.0
C2125 C 0.3558 0.9055 0.30754 0.0
C2126 C 0.32523 0.8976 0.28197 0.0
C2127 C 0.32275 0.91179 0.29583 0.0
H2128 H 0.29096 0.08145 0.59626 0.0
H2129 H 0.31958 0.13329 0.61458 0.0
H2130 H 0.34454 0.12885 0.59048 0.0
H2131 H 0.35341 0.11422 0.56023 0.0
H2132 H 0.32119 0.06549 0.53909 0.0
H2133 H 0.30283 0.06411 0.56839 0.0
C2134 C 0.30313 0.09129 0.5953 0.0
C2135 C 0.30373 0.10757 0.60696 0.0
C2136 C 0.3166 0.08924 0.58073 0.0
C2137 C 0.31912 0.12061 0.60563 0.0
C2138 C 0.33325 0.11813 0.59182 0.0
C2139 C 0.34285 0.10291 0.56239 0.0
C2140 C 0.33841 0.09008 0.54766 0.0
C2141 C 0.33149 0.10307 0.57867 0.0
C2142 C 0.32464 0.07556 0.55034 0.0
C2143 C 0.31408 0.07487 0.567 0.0
H2144 H 0.1577 0.09849 0.81184 0.0
H2145 H 0.09492 0.10424 0.80818 0.0
H2146 H 0.09128 0.07738 0.82972 0.0
H2147 H 0.10579 0.05023 0.84661 0.0
H2148 H 0.16826 0.04606 0.85403 0.0
H2149 H 0.17237 0.0746 0.83411 0.0
C2150 C 0.1433 0.09419 0.81632 0.0
C2151 C 0.12659 0.10306 0.80842 0.0
C2152 C 0.14129 0.07907 0.82921 0.0
C2153 C 0.10796 0.09761 0.81424 0.0
C2154 C 0.10585 0.08222 0.82648 0.0
C2155 C 0.12027 0.05589 0.84426 0.0
C2156 C 0.13671 0.04617 0.85149 0.0
C2157 C 0.12238 0.07253 0.83357 0.0
C2158 C 0.15544 0.05344 0.84843 0.0
C2159 C 0.15775 0.06968 0.83708 0.0
H2160 H 0.194 0.9232 0.0712 0.0
H2161 H 0.162 0.88951 0.1111 0.0
H2162 H 0.13414 0.88808 0.08931 0.0
H2163 H 0.12223 0.89037 0.05644 0.0
H2164 H 0.15452 0.92381 0.01654 0.0
H2165 H 0.1787 0.93172 0.04086 0.0
C2166 C 0.18071 0.91603 0.07528 0.0
C2167 C 0.18023 0.90588 0.09228 0.0
C2168 C 0.16491 0.91497 0.06258 0.0
C2169 C 0.16282 0.89705 0.09779 0.0
C2170 C 0.14691 0.89614 0.08532 0.0
C2171 C 0.13429 0.8998 0.05327 0.0
C2172 C 0.13704 0.90601 0.03474 0.0
C2173 C 0.1483 0.90406 0.06725 0.0
C2174 C 0.1524 0.91856 0.03073 0.0
C2175 C 0.16626 0.92305 0.04459 0.0
H2176 H 0.17133 0.34534 0.0511 0.0
H2177 H 0.1704 0.40739 0.05216 0.0
H2178 H 0.18418 0.4073 0.08419 0.0
H2179 H 0.19972 0.38968 0.11009 0.0
H2180 H 0.20443 0.32783 0.10753 0.0
H2181 H 0.18457 0.3275 0.07845 0.0
C2182 C 0.17399 0.35878 0.05849 0.0
C2183 C 0.17013 0.37632 0.04939 0.0
C2184 C 0.18206 0.35857 0.07677 0.0
C2185 C 0.17369 0.39373 0.05887 0.0
C2186 C 0.1813 0.39367 0.07722 0.0
C2187 C 0.19573 0.37608 0.10356 0.0
C2188 C 0.20331 0.35877 0.11087 0.0
C2189 C 0.18587 0.37619 0.08614 0.0
C2190 C 0.19848 0.34126 0.10215 0.0
C2191 C 0.18749 0.34114 0.08538 0.0
H2192 H 0.71048 0.11639 0.92086 0.0
H2193 H 0.70074 0.1652 0.88437 0.0
H2194 H 0.67219 0.1748 0.90281 0.0
H2195 H 0.65115 0.16996 0.93016 0.0
H2196 H 0.66137 0.12126 0.96671 0.0
H2197 H 0.68864 0.11072 0.94718 0.0
C2198 C 0.70206 0.12911 0.91692 0.0
C2199 C 0.70769 0.14025 0.9015 0.0
C2200 C 0.68585 0.13447 0.92755 0.0
C2201 C 0.69664 0.15654 0.89633 0.0
C2202 C 0.68039 0.162 0.90684 0.0
C2203 C 0.65933 0.157 0.93377 0.0
C2204 C 0.65444 0.14639 0.94981 0.0
C2205 C 0.67504 0.15119 0.92261 0.0
C2206 C 0.66493 0.12957 0.95435 0.0
C2207 C 0.68053 0.12361 0.94326 0.0
H2208 H 0.15803 0.43653 0.14791 0.0
H2209 H 0.09615 0.44432 0.15604 0.0
H2210 H 0.09647 0.41841 0.1794 0.0
H2211 H 0.11551 0.39758 0.20122 0.0
H2212 H 0.17801 0.39314 0.19528 0.0
H2213 H 0.17638 0.41351 0.16729 0.0
C2214 C 0.14453 0.43221 0.15445 0.0
C2215 C 0.12713 0.44235 0.15048 0.0
C2216 C 0.14506 0.41812 0.16851 0.0
C2217 C 0.10973 0.43671 0.15902 0.0
C2218 C 0.10994 0.42201 0.17245 0.0
C2219 C 0.12865 0.40084 0.19352 0.0
C2220 C 0.14687 0.39423 0.20031 0.0
C2221 C 0.12769 0.41324 0.17792 0.0
C2222 C 0.16388 0.39842 0.19037 0.0
C2223 C 0.16295 0.41001 0.17439 0.0
H2224 H 0.84296 0.88783 0.44244 0.0
H2225 H 0.83588 0.82699 0.45097 0.0
H2226 H 0.81295 0.82556 0.42397 0.0
H2227 H 0.7923 0.84264 0.4001 0.0
H2228 H 0.80166 0.90308 0.39042 0.0
H2229 H 0.82658 0.90365 0.41545 0.0
C2230 C 0.8366 0.87422 0.43814 0.0
C2231 C 0.84076 0.85758 0.44871 0.0
C2232 C 0.82382 0.8735 0.42247 0.0
C2233 C 0.83278 0.83995 0.44298 0.0
C2234 C 0.81962 0.83918 0.42763 0.0
C2235 C 0.80009 0.85582 0.40327 0.0
C2236 C 0.79497 0.87286 0.39363 0.0
C2237 C 0.81463 0.85598 0.41758 0.0
C2238 C 0.80529 0.8898 0.39768 0.0
C2239 C 0.81946 0.89017 0.41207 0.0
H2240 H 0.87735 0.09307 0.19095 0.0
H2241 H 0.89614 0.04966 0.23061 0.0
H2242 H 0.90551 0.02836 0.20457 0.0
H2243 H 0.90417 0.02073 0.17105 0.0
H2244 H 0.88076 0.06217 0.1314 0.0
H2245 H 0.87826 0.08618 0.15678 0.0
C2246 C 0.884 0.07917 0.1938 0.0
C2247 C 0.88632 0.07288 0.21251 0.0
C2248 C 0.88853 0.06679 0.17876 0.0
C2249 C 0.89431 0.05465 0.21621 0.0
C2250 C 0.89967 0.04255 0.20137 0.0
C2251 C 0.899 0.03517 0.16783 0.0
C2252 C 0.89259 0.03972 0.14944 0.0
C2253 C 0.8963 0.04828 0.18262 0.0
C2254 C 0.88579 0.05841 0.14548 0.0
C2255 C 0.88416 0.07202 0.16002 0.0
H2256 H 0.33516 0.63156 0.52111 0.0
H2257 H 0.37428 0.60988 0.56431 0.0
H2258 H 0.34824 0.61262 0.58772 0.0
H2259 H 0.31301 0.61721 0.59449 0.0
H2260 H 0.27452 0.63932 0.55074 0.0
H2261 H 0.30165 0.64071 0.52897 0.0
C2262 C 0.33803 0.62793 0.53579 0.0
C2263 C 0.35635 0.62052 0.54115 0.0
C2264 C 0.32306 0.62943 0.54895 0.0
C2265 C 0.36017 0.61576 0.56006 0.0
C2266 C 0.34527 0.61718 0.57334 0.0
C2267 C 0.31071 0.62265 0.5803 0.0
C2268 C 0.29179 0.62784 0.57408 0.0
C2269 C 0.32645 0.62338 0.56778 0.0
C2270 C 0.28894 0.63505 0.55576 0.0
C2271 C 0.30443 0.63583 0.54328 0.0
H2272 H 0.1082 0.583 0.29888 0.0
H2273 H 0.15787 0.60964 0.32598 0.0
H2274 H 0.1587 0.5844 0.35008 0.0
H2275 H 0.14788 0.55304 0.36068 0.0
H2276 H 0.10159 0.52365 0.3307 0.0
H2277 H 0.09647 0.55184 0.31041 0.0
C2278 C 0.1189 0.58335 0.31035 0.0
C2279 C 0.13288 0.59792 0.31104 0.0
C2280 C 0.11991 0.5683 0.32336 0.0
C2281 C 0.147 0.59839 0.32549 0.0
C2282 C 0.14747 0.58401 0.33913 0.0
C2283 C 0.13644 0.55294 0.34991 0.0
C2284 C 0.12514 0.53643 0.34701 0.0
C2285 C 0.13438 0.56863 0.33782 0.0
C2286 C 0.11046 0.5363 0.33301 0.0
C2287 C 0.10761 0.55233 0.32144 0.0
H2288 H 0.34525 0.4354 0.83625 0.0
H2289 H 0.40128 0.45846 0.82183 0.0
H2290 H 0.40639 0.43211 0.79927 0.0
H2291 H 0.39316 0.40441 0.78113 0.0
H2292 H 0.33512 0.38474 0.79273 0.0
H2293 H 0.33258 0.40738 0.81906 0.0
C2294 C 0.35871 0.43444 0.82839 0.0
C2295 C 0.37289 0.44876 0.83066 0.0
C2296 C 0.36112 0.41977 0.8149 0.0
C2297 C 0.39016 0.44756 0.82024 0.0
C2298 C 0.39306 0.43252 0.80734 0.0
C2299 C 0.38022 0.40486 0.78979 0.0
C2300 C 0.36448 0.39276 0.78538 0.0
C2301 C 0.37843 0.41879 0.80419 0.0
C2302 C 0.3475 0.39374 0.7962 0.0
C2303 C 0.34599 0.40679 0.81112 0.0
H2304 H 0.94307 0.85994 0.63442 0.0
H2305 H 0.98927 0.82106 0.65224 0.0
H2306 H 0.96551 0.79584 0.65757 0.0
H2307 H 0.93255 0.78346 0.65242 0.0
H2308 H 0.88598 0.82179 0.63482 0.0
H2309 H 0.90883 0.84878 0.63442 0.0
C2310 C 0.94784 0.84606 0.63983 0.0
C2311 C 0.96788 0.84215 0.6425 0.0
C2312 C 0.93408 0.83153 0.64272 0.0
C2313 C 0.97392 0.82427 0.6498 0.0
C2314 C 0.96036 0.80983 0.65281 0.0
C2315 C 0.92737 0.79783 0.64891 0.0
C2316 C 0.90782 0.80072 0.64338 0.0
C2317 C 0.94056 0.81307 0.64858 0.0
C2318 C 0.90105 0.81934 0.63908 0.0
C2319 C 0.91414 0.83469 0.63872 0.0
H2320 H 0.88571 0.17094 0.36924 0.0
H2321 H 0.92071 0.21597 0.39394 0.0
H2322 H 0.94241 0.19207 0.4087 0.0
H2323 H 0.95394 0.15905 0.4104 0.0
H2324 H 0.92175 0.1139 0.38236 0.0
H2325 H 0.89568 0.13687 0.37398 0.0
C2326 C 0.89811 0.17532 0.3779 0.0
C2327 C 0.90225 0.19488 0.38018 0.0
C2328 C 0.91071 0.16151 0.38594 0.0
C2329 C 0.91786 0.2008 0.39171 0.0
C2330 C 0.93006 0.18721 0.40025 0.0
C2331 C 0.94095 0.15414 0.40292 0.0
C2332 C 0.93985 0.13506 0.39661 0.0
C2333 C 0.92698 0.16759 0.39693 0.0
C2334 C 0.92289 0.12866 0.38722 0.0
C2335 C 0.90818 0.14183 0.38216 0.0
H2336 H 0.57051 0.14681 0.17608 0.0
H2337 H 0.54342 0.15511 0.12136 0.0
H2338 H 0.56734 0.17975 0.11397 0.0
H2339 H 0.59485 0.20022 0.12383 0.0
H2340 H 0.61851 0.19553 0.18031 0.0
H2341 H 0.59709 0.16816 0.18642 0.0
C2342 C 0.56991 0.15395 0.16249 0.0
C2343 C 0.55546 0.14888 0.14909 0.0
C2344 C 0.58307 0.16878 0.15877 0.0
C2345 C 0.55465 0.15845 0.1317 0.0
C2346 C 0.56825 0.17264 0.12754 0.0
C2347 C 0.59543 0.19299 0.13737 0.0
C2348 C 0.6083 0.19953 0.15156 0.0
C2349 C 0.58241 0.17803 0.14104 0.0
C2350 C 0.60871 0.19053 0.16922 0.0
C2351 C 0.59647 0.17497 0.17269 0.0
H2352 H 0.53661 0.83616 0.89104 0.0
H2353 H 0.53641 0.83584 0.83014 0.0
H2354 H 0.5637 0.81286 0.83029 0.0
H2355 H 0.58502 0.7904 0.84769 0.0
H2356 H 0.58625 0.79108 0.90849 0.0
H2357 H 0.56129 0.81678 0.90855 0.0
C2358 C 0.54264 0.83111 0.87783 0.0
C2359 C 0.53429 0.83728 0.86059 0.0
C2360 C 0.55843 0.81807 0.87805 0.0
C2361 C 0.54251 0.83112 0.84355 0.0
C2362 C 0.55807 0.81798 0.84364 0.0
C2363 C 0.58001 0.79644 0.86094 0.0
C2364 C 0.58707 0.78883 0.87807 0.0
C2365 C 0.56576 0.81101 0.86078 0.0
C2366 C 0.5809 0.79683 0.89518 0.0
C2367 C 0.56655 0.81135 0.89518 0.0
H2368 H 0.91409 0.217 0.85459 0.0
H2369 H 0.92549 0.22999 0.91334 0.0
H2370 H 0.94979 0.20433 0.91506 0.0
H2371 H 0.9679 0.17841 0.90026 0.0
H2372 H 0.95657 0.16332 0.84213 0.0
H2373 H 0.93195 0.18933 0.83976 0.0
C2374 C 0.92204 0.2142 0.86765 0.0
C2375 C 0.9181 0.2254 0.88379 0.0
C2376 C 0.93584 0.19899 0.8687 0.0
C2377 C 0.92823 0.22151 0.90076 0.0
C2378 C 0.94213 0.20685 0.90178 0.0
C2379 C 0.96004 0.1808 0.88705 0.0
C2380 C 0.9641 0.16919 0.87136 0.0
C2381 C 0.94602 0.19552 0.8859 0.0
C2382 C 0.95363 0.17217 0.8544 0.0
C2383 C 0.93966 0.18707 0.85304 0.0
H2384 H 0.57636 0.17354 0.58628 0.0
H2385 H 0.57618 0.20099 0.64095 0.0
H2386 H 0.55299 0.17726 0.6523 0.0
H2387 H 0.53133 0.14963 0.64616 0.0
H2388 H 0.52907 0.12431 0.59054 0.0
H2389 H 0.55459 0.14611 0.58008 0.0
C2390 C 0.57129 0.17426 0.60069 0.0
C2391 C 0.57812 0.1889 0.61281 0.0
C2392 C 0.55746 0.16092 0.60693 0.0
C2393 C 0.57131 0.18975 0.63141 0.0
C2394 C 0.55798 0.17621 0.63788 0.0
C2395 C 0.53665 0.14873 0.63184 0.0
C2396 C 0.52846 0.13529 0.61917 0.0
C2397 C 0.55082 0.16182 0.62573 0.0
C2398 C 0.53519 0.13453 0.60054 0.0
C2399 C 0.54974 0.14701 0.59455 0.0
H2400 H 0.6163 0.80883 0.33905 0.0
H2401 H 0.60301 0.80791 0.39839 0.0
H2402 H 0.57806 0.8327 0.39376 0.0
H2403 H 0.55772 0.85204 0.37236 0.0
H2404 H 0.57127 0.85429 0.31326 0.0
H2405 H 0.59833 0.83148 0.31816 0.0
C2406 C 0.60816 0.81435 0.35096 0.0
C2407 C 0.6112 0.80641 0.36893 0.0
C2408 C 0.59367 0.82855 0.34819 0.0
C2409 C 0.60073 0.8137 0.38435 0.0
C2410 C 0.5864 0.82781 0.38173 0.0
C2411 C 0.56672 0.84767 0.36064 0.0
C2412 C 0.5624 0.85448 0.34251 0.0
C2413 C 0.58234 0.83487 0.36363 0.0
C2414 C 0.57426 0.84896 0.32737 0.0
C2415 C 0.58973 0.83598 0.33015 0.0
H2416 H 0.89643 0.794 0.07306 0.0
H2417 H 0.8803 0.80833 0.12997 0.0
H2418 H 0.89641 0.83923 0.12769 0.0
H2419 H 0.92144 0.858 0.11273 0.0
H2420 H 0.94398 0.84013 0.05892 0.0
H2421 H 0.91876 0.81547 0.05619 0.0
C2422 C 0.89601 0.80425 0.08464 0.0
C2423 C 0.88715 0.79914 0.10157 0.0
C2424 C 0.90671 0.82135 0.08375 0.0
C2425 C 0.88686 0.81215 0.11674 0.0
C2426 C 0.89619 0.82978 0.11548 0.0
C2427 C 0.92033 0.8492 0.10007 0.0
C2428 C 0.93458 0.85056 0.08617 0.0
C2429 C 0.90708 0.83401 0.09948 0.0
C2430 C 0.93312 0.83914 0.06984 0.0
C2431 C 0.91888 0.8249 0.06841 0.0
H2432 H 0.6722 0.95323 0.83999 0.0
H2433 H 0.61176 0.94 0.84972 0.0
H2434 H 0.61552 0.90925 0.83341 0.0
H2435 H 0.63432 0.88868 0.81258 0.0
H2436 H 0.69249 0.90481 0.79691 0.0
H2437 H 0.69178 0.93144 0.81978 0.0
C2438 C 0.66 0.94345 0.83859 0.0
C2439 C 0.64174 0.94873 0.84581 0.0
C2440 C 0.66199 0.92628 0.82826 0.0
C2441 C 0.62589 0.93618 0.84403 0.0
C2442 C 0.62806 0.9186 0.83481 0.0
C2443 C 0.64709 0.89764 0.81465 0.0
C2444 C 0.66349 0.89484 0.80331 0.0
C2445 C 0.64584 0.91379 0.82639 0.0
C2446 C 0.6798 0.90673 0.80571 0.0
C2447 C 0.67927 0.92205 0.81856 0.0
H2448 H 0.82697 0.87914 0.61004 0.0
H2449 H 0.79845 0.92934 0.58684 0.0
H2450 H 0.82076 0.92879 0.56005 0.0
H2451 H 0.84401 0.91017 0.54076 0.0
H2452 H 0.87217 0.85965 0.56415 0.0
H2453 H 0.85466 0.86428 0.59367 0.0
C2454 C 0.82627 0.8904 0.59951 0.0
C2455 C 0.81137 0.90432 0.60027 0.0
C2456 C 0.8388 0.88965 0.58409 0.0
C2457 C 0.81012 0.9187 0.58651 0.0
C2458 C 0.82268 0.91821 0.57113 0.0
C2459 C 0.84661 0.90047 0.55251 0.0
C2460 C 0.85893 0.88437 0.55026 0.0
C2461 C 0.83642 0.90317 0.56935 0.0
C2462 C 0.86254 0.87203 0.56557 0.0
C2463 C 0.8525 0.87463 0.5824 0.0
H2464 H 0.83131 0.04081 0.34819 0.0
H2465 H 0.89429 0.03924 0.34856 0.0
H2466 H 0.89502 0.06975 0.33166 0.0
H2467 H 0.87797 0.09288 0.31175 0.0
H2468 H 0.81551 0.08962 0.3042 0.0
H2469 H 0.81395 0.06552 0.32935 0.0
C2470 C 0.84511 0.04744 0.34479 0.0
C2471 C 0.86273 0.03811 0.34952 0.0
C2472 C 0.84535 0.06411 0.33377 0.0
C2473 C 0.88062 0.04641 0.34499 0.0
C2474 C 0.88101 0.06377 0.33534 0.0
C2475 C 0.86396 0.08736 0.31611 0.0
C2476 C 0.84687 0.09286 0.30639 0.0
C2477 C 0.86349 0.07227 0.32898 0.0
C2478 C 0.82879 0.08549 0.31173 0.0
C2479 C 0.82796 0.0716 0.32588 0.0
H2480 H 0.64232 0.1006 0.03015 0.0
H2481 H 0.63823 0.16153 0.04226 0.0
H2482 H 0.658 0.15713 0.07068 0.0
H2483 H 0.68006 0.13704 0.08967 0.0
H2484 H 0.68501 0.07632 0.07829 0.0
H2485 H 0.6609 0.07941 0.05234 0.0
C2486 C 0.64557 0.11287 0.03912 0.0
C2487 C 0.63908 0.13144 0.03376 0.0
C2488 C 0.65704 0.11027 0.05562 0.0
C2489 C 0.64317 0.14711 0.04578 0.0
C2490 C 0.65449 0.14463 0.06212 0.0
C2491 C 0.67534 0.12439 0.08186 0.0
C2492 C 0.68414 0.1065 0.08577 0.0
C2493 C 0.66197 0.12643 0.06684 0.0
C2494 C 0.67814 0.09017 0.07562 0.0
C2495 C 0.6646 0.09203 0.06063 0.0
H2496 H 0.65981 0.09475 0.7137 0.0
H2497 H 0.59887 0.10916 0.70491 0.0
H2498 H 0.59728 0.08758 0.67775 0.0
H2499 H 0.61203 0.06148 0.65926 0.0
H2500 H 0.67329 0.04831 0.66589 0.0
H2501 H 0.67612 0.07261 0.69108 0.0
C2502 C 0.64634 0.09344 0.70555 0.0
C2503 C 0.6294 0.10324 0.71145 0.0
C2504 C 0.64556 0.08111 0.68974 0.0
C2505 C 0.61207 0.10166 0.70071 0.0
C2506 C 0.6111 0.08925 0.68522 0.0
C2507 C 0.62606 0.06432 0.66593 0.0
C2508 C 0.64237 0.05319 0.661 0.0
C2509 C 0.62756 0.07844 0.68004 0.0
C2510 C 0.66057 0.05687 0.66956 0.0
C2511 C 0.66214 0.07064 0.684 0.0
H2512 H 0.69131 0.90997 0.39641 0.0
H2513 H 0.68372 0.84873 0.39056 0.0
H2514 H 0.65774 0.84958 0.41396 0.0
H2515 H 0.6418 0.86668 0.43975 0.0
H2516 H 0.65421 0.92656 0.44982 0.0
H2517 H 0.67325 0.92769 0.42081 0.0
C2518 C 0.68355 0.89697 0.39998 0.0
C2519 C 0.68923 0.87931 0.39199 0.0
C2520 C 0.66959 0.89742 0.41425 0.0
C2521 C 0.67947 0.86242 0.39674 0.0
C2522 C 0.6647 0.86292 0.41008 0.0
C2523 C 0.64814 0.88012 0.43521 0.0
C2524 C 0.64665 0.89656 0.44668 0.0
C2525 C 0.66025 0.88019 0.41948 0.0
C2526 C 0.6552 0.91381 0.44103 0.0
C2527 C 0.66619 0.91438 0.42458 0.0
H2528 H 0.83383 0.94269 0.15573 0.0
H2529 H 0.89655 0.93768 0.15235 0.0
H2530 H 0.89608 0.9074 0.16929 0.0
H2531 H 0.87886 0.88507 0.18888 0.0
H2532 H 0.81758 0.89373 0.19952 0.0
H2533 H 0.81615 0.91954 0.17588 0.0
C2534 C 0.84726 0.93471 0.15852 0.0
C2535 C 0.86515 0.94203 0.15242 0.0
C2536 C 0.84707 0.91804 0.16972 0.0
C2537 C 0.88258 0.93199 0.15648 0.0
C2538 C 0.88235 0.91476 0.1663 0.0
C2539 C 0.86506 0.89226 0.18566 0.0
C2540 C 0.84832 0.88753 0.19569 0.0
C2541 C 0.86479 0.90796 0.17344 0.0
C2542 C 0.83061 0.89717 0.19177 0.0
C2543 C 0.82986 0.912 0.17842 0.0
H2544 H 0.85078 0.07967 0.94902 0.0
H2545 H 0.87665 0.13482 0.93819 0.0
H2546 H 0.85383 0.14011 0.91188 0.0
H2547 H 0.82252 0.13181 0.89659 0.0
H2548 H 0.79714 0.07633 0.9064 0.0
H2549 H 0.82391 0.06817 0.92845 0.0
C2550 C 0.85177 0.09253 0.94047 0.0
C2551 C 0.86493 0.10704 0.94568 0.0
C2552 C 0.83852 0.09553 0.9255 0.0
C2553 C 0.86645 0.12354 0.93446 0.0
C2554 C 0.85331 0.12666 0.91954 0.0
C2555 C 0.82323 0.11776 0.90323 0.0
C2556 C 0.80796 0.10477 0.90041 0.0
C2557 C 0.83864 0.11321 0.91565 0.0
C2558 C 0.80887 0.08649 0.90865 0.0
C2559 C 0.82407 0.0819 0.92126 0.0
H2560 H 0.84185 0.63071 0.93211 0.0
H2561 H 0.801 0.62627 0.97754 0.0
H2562 H 0.77357 0.62977 0.95528 0.0
H2563 H 0.76144 0.62975 0.92283 0.0
H2564 H 0.80196 0.62954 0.87681 0.0
H2565 H 0.82942 0.63259 0.89923 0.0
C2566 C 0.8269 0.63094 0.93703 0.0
C2567 C 0.82319 0.62832 0.95622 0.0
C2568 C 0.81127 0.63198 0.92404 0.0
C2569 C 0.80395 0.62825 0.96269 0.0
C2570 C 0.78835 0.63022 0.95001 0.0
C2571 C 0.77626 0.63079 0.91771 0.0
C2572 C 0.77982 0.62938 0.89834 0.0
C2573 C 0.79185 0.63148 0.93063 0.0
C2574 C 0.79901 0.63056 0.89177 0.0
C2575 C 0.81466 0.6322 0.90455 0.0
H2576 H 0.34437 0.853 0.06438 0.0
H2577 H 0.31011 0.84072 0.01431 0.0
H2578 H 0.27994 0.84747 0.0315 0.0
H2579 H 0.26351 0.8568 0.06092 0.0
H2580 H 0.298 0.86645 0.11147 0.0
H2581 H 0.32799 0.86051 0.09404 0.0
C2582 C 0.33027 0.85194 0.05725 0.0
C2583 C 0.32927 0.84662 0.03817 0.0
C2584 C 0.31313 0.85515 0.06735 0.0
C2585 C 0.31105 0.8449 0.02905 0.0
C2586 C 0.29387 0.84869 0.03885 0.0
C2587 C 0.27761 0.85743 0.06809 0.0
C2588 C 0.27867 0.86208 0.08736 0.0
C2589 C 0.29475 0.85375 0.05804 0.0
C2590 C 0.29692 0.86281 0.09662 0.0
C2591 C 0.31405 0.85954 0.08666 0.0
H2592 H 0.89463 0.55005 0.8323 0.0
H2593 H 0.83944 0.55905 0.85972 0.0
H2594 H 0.83224 0.58653 0.83929 0.0
H2595 H 0.84002 0.60555 0.81107 0.0
H2596 H 0.89621 0.59832 0.78522 0.0
H2597 H 0.90476 0.57264 0.80756 0.0
C2598 C 0.88126 0.55834 0.83405 0.0
C2599 C 0.86749 0.55247 0.84728 0.0
C2600 C 0.87729 0.57421 0.82234 0.0
C2601 C 0.85027 0.56334 0.8496 0.0
C2602 C 0.84606 0.57894 0.83782 0.0
C2603 C 0.8542 0.59844 0.81056 0.0
C2604 C 0.86737 0.60339 0.79646 0.0
C2605 C 0.85917 0.58409 0.82373 0.0
C2606 C 0.88586 0.59452 0.79599 0.0
C2607 C 0.89071 0.57986 0.8087 0.0
H2608 H 0.15794 0.15672 0.55482 0.0
H2609 H 0.15395 0.0953 0.54723 0.0
H2610 H 0.17391 0.08989 0.57538 0.0
H2611 H 0.19622 0.10235 0.59945 0.0
H2612 H 0.20312 0.16356 0.6063 0.0
H2613 H 0.17841 0.1694 0.58146 0.0
C2614 C 0.16112 0.14223 0.55967 0.0
C2615 C 0.1545 0.1264 0.549 0.0
C2616 C 0.17345 0.13919 0.57559 0.0
C2617 C 0.15888 0.10767 0.55523 0.0
C2618 C 0.1704 0.10456 0.57129 0.0
C2619 C 0.19209 0.11698 0.59573 0.0
C2620 C 0.20159 0.13248 0.60453 0.0
C2621 C 0.17835 0.12017 0.58116 0.0
C2622 C 0.19604 0.15136 0.59963 0.0
C2623 C 0.18197 0.1547 0.58538 0.0
H2624 H 0.13948 0.89927 0.81311 0.0
H2625 H 0.08844 0.92092 0.7836 0.0
H2626 H 0.07892 0.93941 0.81164 0.0
H2627 H 0.08843 0.95321 0.84238 0.0
H2628 H 0.13921 0.93086 0.87203 0.0
H2629 H 0.14507 0.90797 0.84646 0.0
C2630 C 0.12608 0.90774 0.81306 0.0
C2631 C 0.11479 0.90925 0.79649 0.0
C2632 C 0.12064 0.91799 0.82922 0.0
C2633 C 0.09734 0.91992 0.79635 0.0
C2634 C 0.09193 0.9304 0.81231 0.0
C2635 C 0.10036 0.94285 0.8435 0.0
C2636 C 0.11365 0.94395 0.85872 0.0
C2637 C 0.10389 0.93009 0.82857 0.0
C2638 C 0.1289 0.93035 0.86029 0.0
C2639 C 0.1324 0.91743 0.84558 0.0
H2640 H 0.69657 0.35955 0.40768 0.0
H2641 H 0.70452 0.42062 0.41563 0.0
H2642 H 0.67618 0.42218 0.43591 0.0
H2643 H 0.65251 0.4056 0.45499 0.0
H2644 H 0.64392 0.34462 0.44826 0.0
H2645 H 0.66896 0.34352 0.42367 0.0
C2646 C 0.69177 0.3732 0.41356 0.0
C2647 C 0.70275 0.38988 0.41053 0.0
C2648 C 0.67559 0.37394 0.42559 0.0
C2649 C 0.69643 0.40755 0.41806 0.0
C2650 C 0.68027 0.40847 0.42968 0.0
C2651 C 0.65595 0.39212 0.44792 0.0
C2652 C 0.6469 0.37515 0.45355 0.0
C2653 C 0.67029 0.39165 0.43413 0.0
C2654 C 0.65097 0.35782 0.44413 0.0
C2655 C 0.66531 0.3572 0.43019 0.0
H2656 H 0.89681 0.4705 0.66778 0.0
H2657 H 0.86693 0.44324 0.62095 0.0
H2658 H 0.86396 0.41362 0.63921 0.0
H2659 H 0.86536 0.39754 0.67027 0.0
H2660 H 0.89376 0.42574 0.7173 0.0
H2661 H 0.90179 0.45313 0.6973 0.0
C2662 C 0.89012 0.45789 0.66143 0.0
C2663 C 0.88183 0.459 0.64329 0.0
C2664 C 0.88779 0.44133 0.67222 0.0
C2665 C 0.87334 0.44263 0.63501 0.0
C2666 C 0.87144 0.4258 0.6455 0.0
C2667 C 0.8734 0.40971 0.67594 0.0
C2668 C 0.87864 0.41019 0.69508 0.0
C2669 C 0.87779 0.42535 0.6644 0.0
C2670 C 0.88936 0.42557 0.70255 0.0
C2671 C 0.89401 0.44107 0.69115 0.0
H2672 H 0.63464 0.56561 0.14073 0.0
H2673 H 0.60476 0.52136 0.17126 0.0
H2674 H 0.60006 0.54318 0.19776 0.0
H2675 H 0.60696 0.57381 0.21361 0.0
H2676 H 0.63579 0.6188 0.18332 0.0
H2677 H 0.63822 0.59794 0.1555 0.0
C2678 C 0.62683 0.56091 0.15306 0.0
C2679 C 0.62026 0.54182 0.15408 0.0
C2680 C 0.62414 0.57362 0.16843 0.0
C2681 C 0.6101 0.53593 0.17014 0.0
C2682 C 0.60743 0.54839 0.18537 0.0
C2683 C 0.61358 0.5791 0.20084 0.0
C2684 C 0.62145 0.59765 0.20061 0.0
C2685 C 0.61481 0.56709 0.18489 0.0
C2686 C 0.62975 0.60446 0.1839 0.0
C2687 C 0.63118 0.59253 0.16798 0.0
H2688 H 0.54105 0.64844 0.89315 0.0
H2689 H 0.5273 0.64838 0.8337 0.0
H2690 H 0.55633 0.66775 0.82759 0.0
H2691 H 0.58405 0.68692 0.83996 0.0
H2692 H 0.59995 0.68291 0.89895 0.0
H2693 H 0.57217 0.66202 0.90445 0.0
C2694 C 0.54469 0.6524 0.87887 0.0
C2695 C 0.53213 0.6474 0.86393 0.0
C2696 C 0.56186 0.66251 0.87542 0.0
C2697 C 0.53682 0.65239 0.8454 0.0
C2698 C 0.55339 0.66335 0.84192 0.0
C2699 C 0.58171 0.68096 0.85386 0.0
C2700 C 0.5938 0.68651 0.86905 0.0
C2701 C 0.56585 0.66875 0.85689 0.0
C2702 C 0.59082 0.67871 0.88703 0.0
C2703 C 0.57481 0.66698 0.89025 0.0
H2704 H 0.57474 0.36536 0.1384 0.0
H2705 H 0.58093 0.35859 0.07829 0.0
H2706 H 0.60345 0.33141 0.08337 0.0
H2707 H 0.61485 0.30576 0.10446 0.0
H2708 H 0.60378 0.30945 0.16412 0.0
H2709 H 0.58932 0.34163 0.15978 0.0
C2710 C 0.5817 0.35842 0.12646 0.0
C2711 C 0.5764 0.36385 0.108 0.0
C2712 C 0.59299 0.34181 0.12947 0.0
C2713 C 0.58506 0.35463 0.09259 0.0
C2714 C 0.5976 0.33894 0.09551 0.0
C2715 C 0.60953 0.31378 0.11655 0.0
C2716 C 0.60999 0.30535 0.13452 0.0
C2717 C 0.60061 0.33173 0.11381 0.0
C2718 C 0.60308 0.31565 0.15012 0.0
C2719 C 0.59497 0.334 0.14765 0.0
H2720 H 0.92699 0.27744 0.33806 0.0
H2721 H 0.88658 0.31242 0.36978 0.0
H2722 H 0.90989 0.33892 0.37024 0.0
H2723 H 0.9421 0.35159 0.36258 0.0
H2724 H 0.98255 0.31682 0.3307 0.0
H2725 H 0.95893 0.29052 0.32958 0.0
C2726 C 0.92321 0.29096 0.34487 0.0
C2727 C 0.90513 0.29306 0.35384 0.0
C2728 C 0.93677 0.30597 0.34529 0.0
C2729 C 0.90041 0.31055 0.36271 0.0
C2730 C 0.91376 0.32563 0.36308 0.0
C2731 C 0.94578 0.33822 0.35545 0.0
C2732 C 0.96403 0.33602 0.3468 0.0
C2733 C 0.93207 0.32338 0.35464 0.0
C2734 C 0.96858 0.31874 0.33749 0.0
C2735 C 0.95508 0.30377 0.33679 0.0
H2736 H 0.95115 0.65562 0.65323 0.0
H2737 H 0.97059 0.66922 0.59718 0.0
H2738 H 0.94146 0.68901 0.59182 0.0
H2739 H 0.91169 0.70465 0.60392 0.0
H2740 H 0.89348 0.69278 0.6606 0.0
H2741 H 0.92051 0.66977 0.66467 0.0
C2742 C 0.94902 0.66286 0.63982 0.0
C2743 C 0.96322 0.66109 0.62575 0.0
C2744 C 0.93227 0.6744 0.63685 0.0
C2745 C 0.96006 0.67047 0.60839 0.0
C2746 C 0.94333 0.68176 0.60524 0.0
C2747 C 0.91337 0.69658 0.61693 0.0
C2748 C 0.90059 0.70013 0.63188 0.0
C2749 C 0.92946 0.68405 0.61945 0.0
C2750 C 0.90312 0.69003 0.64886 0.0
C2751 C 0.91866 0.67705 0.65125 0.0
H2752 H 0.54796 0.33894 0.62208 0.0
H2753 H 0.49919 0.30213 0.63318 0.0
H2754 H 0.52122 0.27432 0.63624 0.0
H2755 H 0.55408 0.25987 0.6329 0.0
H2756 H 0.60216 0.29587 0.61763 0.0
H2757 H 0.58099 0.32449 0.61912 0.0
C2758 C 0.5423 0.32487 0.62553 0.0
C2759 C 0.52207 0.32253 0.62761 0.0
C2760 C 0.55498 0.30875 0.62633 0.0
C2761 C 0.51476 0.30421 0.63162 0.0
C2762 C 0.52733 0.28831 0.6333 0.0
C2763 C 0.5599 0.27405 0.63022 0.0
C2764 C 0.5796 0.27589 0.62536 0.0
C2765 C 0.54742 0.2903 0.63028 0.0
C2766 C 0.587 0.29422 0.62149 0.0
C2767 C 0.5749 0.31055 0.6223 0.0
H2768 H 0.92164 0.32319 0.9183 0.0
H2769 H 0.91823 0.29469 0.86424 0.0
H2770 H 0.9429 0.31603 0.85179 0.0
H2771 H 0.96653 0.34202 0.85648 0.0
H2772 H 0.97243 0.36883 0.91122 0.0
H2773 H 0.94596 0.34904 0.92318 0.0
C2774 C 0.92626 0.32175 0.90379 0.0
C2775 C 0.9179 0.3075 0.89213 0.0
C2776 C 0.94105 0.33375 0.89686 0.0
C2777 C 0.92421 0.30568 0.87342 0.0
C2778 C 0.93842 0.31784 0.8663 0.0
C2779 C 0.9619 0.34365 0.87098 0.0
C2780 C 0.97138 0.35695 0.8829 0.0
C2781 C 0.94705 0.33185 0.87791 0.0
C2782 C 0.9654 0.35867 0.90175 0.0
C2783 C 0.95025 0.34736 0.9086 0.0
H2784 H 0.91256 0.70015 0.11127 0.0
H2785 H 0.87531 0.69362 0.15934 0.0
H2786 H 0.89572 0.66673 0.17068 0.0
H2787 H 0.9253 0.64649 0.16761 0.0
H2788 H 0.96264 0.6541 0.11971 0.0
H2789 H 0.9409 0.6792 0.10743 0.0
C2790 C 0.90885 0.69276 0.12418 0.0
C2791 C 0.8927 0.69882 0.13461 0.0
C2792 C 0.92067 0.67763 0.1306 0.0
C2793 C 0.88784 0.68913 0.1512 0.0
C2794 C 0.89949 0.67385 0.15767 0.0
C2795 C 0.92858 0.65367 0.15448 0.0
C2796 C 0.94548 0.64865 0.14457 0.0
C2797 C 0.91613 0.66821 0.14763 0.0
C2798 C 0.94962 0.65778 0.1275 0.0
C2799 C 0.93726 0.67214 0.12051 0.0
H2800 H 0.55125 0.67371 0.41027 0.0
H2801 H 0.58558 0.63466 0.37649 0.0
H2802 H 0.61362 0.65611 0.37914 0.0
H2803 H 0.62537 0.6889 0.38505 0.0
H2804 H 0.58936 0.72933 0.41532 0.0
H2805 H 0.56502 0.70438 0.42051 0.0
C2806 C 0.56506 0.66967 0.40397 0.0
C2807 C 0.56636 0.65299 0.39286 0.0
C2808 C 0.5807 0.68246 0.4048 0.0
C2809 C 0.58427 0.64768 0.38487 0.0
C2810 C 0.60025 0.65996 0.38631 0.0
C2811 C 0.61251 0.69194 0.39335 0.0
C2812 C 0.60894 0.71066 0.39988 0.0
C2813 C 0.59822 0.67785 0.39533 0.0
C2814 C 0.59224 0.71481 0.41036 0.0
C2815 C 0.57832 0.70064 0.41316 0.0
H2816 H 0.81975 0.59256 0.71197 0.0
H2817 H 0.85491 0.63373 0.6827 0.0
H2818 H 0.85815 0.61144 0.6561 0.0
H2819 H 0.85581 0.5782 0.64398 0.0
H2820 H 0.8219 0.53666 0.67392 0.0
H2821 H 0.81322 0.56108 0.69752 0.0
C2822 C 0.82766 0.59684 0.69954 0.0
C2823 C 0.83734 0.61457 0.69935 0.0
C2824 C 0.82994 0.58374 0.68461 0.0
C2825 C 0.84745 0.62006 0.68317 0.0
C2826 C 0.84943 0.60727 0.66803 0.0
C2827 C 0.8461 0.57475 0.65544 0.0
C2828 C 0.83944 0.55588 0.65745 0.0
C2829 C 0.84151 0.58876 0.66902 0.0
C2830 C 0.82704 0.55126 0.67226 0.0
C2831 C 0.82218 0.56516 0.68573 0.0
H2832 H 0.66835 0.60762 0.88232 0.0
H2833 H 0.70435 0.56518 0.91086 0.0
H2834 H 0.68124 0.56413 0.93674 0.0
H2835 H 0.65389 0.57895 0.95337 0.0
H2836 H 0.61873 0.6228 0.92607 0.0
H2837 H 0.63819 0.61945 0.89744 0.0
C2838 C 0.67087 0.59783 0.89401 0.0
C2839 C 0.68815 0.5867 0.89488 0.0
C2840 C 0.65779 0.59775 0.90913 0.0
C2841 C 0.69124 0.57403 0.91003 0.0
C2842 C 0.67808 0.57347 0.92485 0.0
C2843 C 0.65024 0.58749 0.94101 0.0
C2844 C 0.63514 0.60128 0.94185 0.0
C2845 C 0.66177 0.58585 0.9249 0.0
C2846 C 0.63039 0.61215 0.92573 0.0
C2847 C 0.64158 0.61031 0.90942 0.0
H2848 H 0.63524 0.4286 0.13594 0.0
H2849 H 0.68314 0.4645 0.15365 0.0
H2850 H 0.69395 0.44019 0.17656 0.0
H2851 H 0.68476 0.41275 0.19597 0.0
H2852 H 0.63649 0.37706 0.17852 0.0
H2853 H 0.63143 0.39661 0.15032 0.0
C2854 C 0.6483 0.43074 0.14456 0.0
C2855 C 0.65815 0.44823 0.14384 0.0
C2856 C 0.65435 0.41676 0.15757 0.0
C2857 C 0.67529 0.45106 0.15448 0.0
C2858 C 0.68144 0.43722 0.16748 0.0
C2859 C 0.67367 0.40884 0.18557 0.0
C2860 C 0.66053 0.39413 0.1895 0.0
C2861 C 0.67041 0.42054 0.16984 0.0
C2862 C 0.64652 0.38868 0.17586 0.0
C2863 C 0.64345 0.39999 0.15987 0.0
H2864 H 0.85674 0.39335 0.47213 0.0
H2865 H 0.84695 0.33199 0.46938 0.0
H2866 H 0.82517 0.33637 0.44239 0.0
H2867 H 0.80588 0.3576 0.42209 0.0
H2868 H 0.81477 0.41884 0.42389 0.0
H2869 H 0.84031 0.41454 0.44842 0.0
C2870 C 0.84998 0.38093 0.46552 0.0
C2871 C 0.85324 0.3624 0.47308 0.0
C2872 C 0.83735 0.38352 0.44982 0.0
C2873 C 0.84461 0.34645 0.46409 0.0
C2874 C 0.83211 0.3489 0.44859 0.0
C2875 C 0.81376 0.36997 0.42758 0.0
C2876 C 0.8085 0.38848 0.42146 0.0
C2877 C 0.82798 0.36736 0.44171 0.0
C2878 C 0.81876 0.40444 0.42842 0.0
C2879 C 0.83315 0.40197 0.44256 0.0
H2880 H 0.83414 0.41375 0.77566 0.0
H2881 H 0.87151 0.37359 0.80564 0.0
H2882 H 0.87308 0.39566 0.83273 0.0
H2883 H 0.8678 0.42851 0.84568 0.0
H2884 H 0.83278 0.46929 0.81409 0.0
H2885 H 0.82627 0.44495 0.78976 0.0
C2886 C 0.84227 0.40962 0.78829 0.0
C2887 C 0.85283 0.39217 0.78863 0.0
C2888 C 0.84379 0.4227 0.80335 0.0
C2889 C 0.8633 0.38699 0.80506 0.0
C2890 C 0.86433 0.39968 0.82047 0.0
C2891 C 0.85848 0.43183 0.8336 0.0
C2892 C 0.85075 0.45051 0.83147 0.0
C2893 C 0.85529 0.4179 0.81944 0.0
C2894 C 0.8388 0.45491 0.81585 0.0
C2895 C 0.83513 0.44104 0.80198 0.0
H2896 H 0.83654 0.57917 0.04306 0.0
H2897 H 0.8729 0.62605 0.06181 0.0
H2898 H 0.85284 0.63029 0.08984 0.0
H2899 H 0.82122 0.62469 0.10539 0.0
H2900 H 0.78433 0.57877 0.08549 0.0
H2901 H 0.80824 0.57003 0.06151 0.0
C2902 C 0.84042 0.5899 0.0536 0.0
C2903 C 0.85585 0.60252 0.05028 0.0
C2904 C 0.82842 0.59269 0.06922 0.0
C2905 C 0.86094 0.61625 0.06406 0.0
C2906 C 0.84935 0.61882 0.07997 0.0
C2907 C 0.81876 0.61254 0.09601 0.0
C2908 C 0.80116 0.60247 0.09681 0.0
C2909 C 0.83245 0.60782 0.08213 0.0
C2910 C 0.79787 0.58671 0.08483 0.0
C2911 C 0.81148 0.58174 0.07118 0.0
H2912 H 0.63292 0.61635 0.3153 0.0
H2913 H 0.67915 0.58907 0.28398 0.0
H2914 H 0.68397 0.5654 0.30916 0.0
H2915 H 0.67073 0.54911 0.33706 0.0
H2916 H 0.62145 0.57415 0.36555 0.0
H2917 H 0.62221 0.60222 0.34487 0.0
C2918 C 0.64439 0.60553 0.31423 0.0
C2919 C 0.65554 0.60425 0.2978 0.0
C2920 C 0.64634 0.59144 0.32825 0.0
C2921 C 0.67033 0.59019 0.29651 0.0
C2922 C 0.673 0.57661 0.31085 0.0
C2923 C 0.66065 0.56107 0.33903 0.0
C2924 C 0.64616 0.55986 0.35274 0.0
C2925 C 0.66048 0.57657 0.32636 0.0
C2926 C 0.63278 0.57504 0.35508 0.0
C2927 C 0.63314 0.59097 0.34319 0.0
H2928 H 0.64404 0.41505 0.55043 0.0
H2929 H 0.62126 0.3582 0.55939 0.0
H2930 H 0.64749 0.3514 0.5822 0.0
H2931 H 0.67991 0.35977 0.59521 0.0
H2932 H 0.70175 0.41717 0.5881 0.0
H2933 H 0.67294 0.42569 0.56874 0.0
C2934 C 0.64449 0.40143 0.55786 0.0
C2935 C 0.63105 0.38702 0.55305 0.0
C2936 C 0.65971 0.39756 0.57081 0.0
C2937 C 0.63154 0.36949 0.56285 0.0
C2938 C 0.64667 0.36549 0.5757 0.0
C2939 C 0.67813 0.37419 0.58958 0.0
C2940 C 0.69293 0.38773 0.59245 0.0
C2941 C 0.66135 0.37908 0.57903 0.0
C2942 C 0.6905 0.40653 0.58566 0.0
C2943 C 0.67408 0.41137 0.57468 0.0
H2944 H 0.71733 0.85231 0.59799 0.0
H2945 H 0.70076 0.90994 0.61441 0.0
H2946 H 0.67886 0.9124 0.58694 0.0
H2947 H 0.66853 0.89981 0.5558 0.0
H2948 H 0.68344 0.84152 0.54034 0.0
H2949 H 0.70222 0.83761 0.56982 0.0
C2950 C 0.70843 0.86514 0.59582 0.0
C2951 C 0.71076 0.881 0.6079 0.0
C2952 C 0.69614 0.86652 0.57992 0.0
C2953 C 0.69913 0.89755 0.60521 0.0
C2954 C 0.68684 0.89906 0.58938 0.0
C2955 C 0.67589 0.88629 0.55901 0.0
C2956 C 0.67536 0.87116 0.5459 0.0
C2957 C 0.686 0.88398 0.57619 0.0
C2958 C 0.68421 0.85343 0.55024 0.0
C2959 C 0.69478 0.85118 0.56707 0.0
H2960 H 0.21352 0.61583 0.416 0.0
H2961 H 0.20776 0.66469 0.37893 0.0
H2962 H 0.17749 0.67445 0.39454 0.0
H2963 H 0.15417 0.67012 0.42021 0.0
H2964 H 0.15993 0.62082 0.4568 0.0
H2965 H 0.18867 0.60988 0.43962 0.0
C2966 C 0.20558 0.62858 0.41133 0.0
C2967 C 0.21286 0.63979 0.39668 0.0
C2968 C 0.18828 0.63392 0.42022 0.0
C2969 C 0.20239 0.65604 0.39039 0.0
C2970 C 0.18515 0.66157 0.39927 0.0
C2971 C 0.16165 0.65689 0.42426 0.0
C2972 C 0.1553 0.64642 0.43985 0.0
C2973 C 0.17817 0.65079 0.41441 0.0
C2974 C 0.16478 0.62917 0.4449 0.0
C2975 C 0.18121 0.62296 0.43515 0.0
H2976 H 0.64048 0.89343 0.68971 0.0
H2977 H 0.60536 0.92599 0.72881 0.0
H2978 H 0.59923 0.9506 0.70488 0.0
H2979 H 0.60741 0.96471 0.67469 0.0
H2980 H 0.64511 0.93411 0.63639 0.0
H2981 H 0.64646 0.90659 0.65799 0.0
C2982 C 0.63122 0.90578 0.6928 0.0
C2983 C 0.62352 0.90816 0.71095 0.0
C2984 C 0.62838 0.92019 0.6792 0.0
C2985 C 0.61158 0.9241 0.71494 0.0
C2986 C 0.60809 0.93813 0.7013 0.0
C2987 C 0.61566 0.95189 0.67091 0.0
C2988 C 0.62633 0.95142 0.65416 0.0
C2989 C 0.61696 0.93662 0.68365 0.0
C2990 C 0.63687 0.93474 0.64932 0.0
C2991 C 0.63772 0.9191 0.66169 0.0
H2992 H 0.29612 0.39739 0.90759 0.0
H2993 H 0.29364 0.33754 0.89184 0.0
H2994 H 0.31999 0.32996 0.91461 0.0
H2995 H 0.34082 0.34012 0.94218 0.0
H2996 H 0.34162 0.40025 0.95752 0.0
H2997 H 0.31957 0.408 0.93153 0.0
C2998 C 0.30156 0.38273 0.90894 0.0
C2999 C 0.2928 0.36802 0.89832 0.0
C3000 C 0.31657 0.37853 0.92204 0.0
C3001 C 0.30013 0.34911 0.89999 0.0
C3002 C 0.31515 0.34477 0.91306 0.0
C3003 C 0.33657 0.35493 0.93941 0.0
C3004 C 0.34293 0.36959 0.95174 0.0
C3005 C 0.32313 0.3593 0.92461 0.0
C3006 C 0.33708 0.38871 0.94817 0.0
C3007 C 0.32427 0.39318 0.93339 0.0
H3008 H 0.34533 0.54857 0.65355 0.0
H3009 H 0.40225 0.52548 0.66788 0.0
H3010 H 0.40696 0.55096 0.69156 0.0
H3011 H 0.39291 0.57735 0.71086 0.0
H3012 H 0.33357 0.59574 0.69983 0.0
H3013 H 0.33174 0.57504 0.67202 0.0
C3014 C 0.35891 0.5494 0.66161 0.0
C3015 C 0.37346 0.53537 0.65907 0.0
C3016 C 0.36096 0.56328 0.67585 0.0
C3017 C 0.39088 0.53625 0.66973 0.0
C3018 C 0.39353 0.55074 0.68326 0.0
C3019 C 0.37981 0.577 0.70206 0.0
C3020 C 0.36351 0.58819 0.707 0.0
C3021 C 0.3784 0.56398 0.68686 0.0
C3022 C 0.34636 0.58743 0.69595 0.0
C3023 C 0.34526 0.5755 0.68017 0.0
H3024 H 0.84141 0.09058 0.04599 0.0
H3025 H 0.85275 0.15106 0.05297 0.0
H3026 H 0.82657 0.15347 0.07643 0.0
H3027 H 0.79753 0.13868 0.09166 0.0
H3028 H 0.7866 0.07823 0.0824 0.0
H3029 H 0.81558 0.07543 0.06322 0.0
C3030 C 0.83832 0.10426 0.05286 0.0
C3031 C 0.8486 0.12067 0.04767 0.0
C3032 C 0.82316 0.10552 0.06576 0.0
C3033 C 0.84486 0.13825 0.05682 0.0
C3034 C 0.82982 0.13962 0.07007 0.0
C3035 C 0.80174 0.12491 0.08562 0.0
C3036 C 0.78981 0.10875 0.08812 0.0
C3037 C 0.81839 0.12345 0.07415 0.0
C3038 C 0.79538 0.09094 0.08037 0.0
C3039 C 0.81197 0.08929 0.06943 0.0
H3040 H 0.62976 0.10287 0.83583 0.0
H3041 H 0.60265 0.0719 0.78976 0.0
H3042 H 0.59159 0.04718 0.81149 0.0
H3043 H 0.59266 0.03291 0.84263 0.0
H3044 H 0.62276 0.06157 0.8885 0.0
H3045 H 0.62863 0.08935 0.86818 0.0
C3046 C 0.62152 0.0906 0.83071 0.0
C3047 C 0.61742 0.08865 0.81137 0.0
C3048 C 0.61539 0.0764 0.84328 0.0
C3049 C 0.60635 0.07315 0.80464 0.0
C3050 C 0.59986 0.05923 0.81704 0.0
C3051 C 0.60007 0.04544 0.84835 0.0
C3052 C 0.60752 0.04517 0.86687 0.0
C3053 C 0.60462 0.06052 0.83629 0.0
C3054 C 0.61694 0.06152 0.8742 0.0
C3055 C 0.62058 0.07722 0.86251 0.0
H3056 H 0.85075 0.88959 0.30431 0.0
H3057 H 0.91011 0.89938 0.28774 0.0
H3058 H 0.91551 0.9196 0.31582 0.0
H3059 H 0.90164 0.93774 0.34272 0.0
H3060 H 0.84296 0.92577 0.36037 0.0
H3061 H 0.83911 0.90259 0.33459 0.0
C3062 C 0.86496 0.89588 0.30711 0.0
C3063 C 0.87994 0.89343 0.29398 0.0
C3064 C 0.86802 0.90701 0.32344 0.0
C3065 C 0.89839 0.90129 0.29771 0.0
C3066 C 0.90143 0.91285 0.3137 0.0
C3067 C 0.88823 0.92964 0.3412 0.0
C3068 C 0.87251 0.93362 0.35321 0.0
C3069 C 0.88614 0.91628 0.32635 0.0
C3070 C 0.85526 0.92296 0.35127 0.0
C3071 C 0.85297 0.90984 0.33641 0.0
H3072 H 0.46877 0.34575 0.15043 0.0
H3073 H 0.47238 0.34171 0.08984 0.0
H3074 H 0.44067 0.32594 0.08823 0.0
H3075 H 0.41407 0.31005 0.10419 0.0
H3076 H 0.41281 0.30903 0.16495 0.0
H3077 H 0.44103 0.33058 0.16653 0.0
C3078 C 0.46245 0.34148 0.13694 0.0
C3079 C 0.47281 0.34459 0.1203 0.0
C3080 C 0.44459 0.3317 0.13621 0.0
C3081 C 0.46469 0.33909 0.10283 0.0
C3082 C 0.44655 0.33022 0.1019 0.0
C3083 C 0.41963 0.31503 0.11777 0.0
C3084 C 0.41139 0.30826 0.13444 0.0
C3085 C 0.43662 0.32605 0.11851 0.0
C3086 C 0.41893 0.31432 0.15197 0.0
C3087 C 0.43515 0.32642 0.15285 0.0
H3088 H 0.4371 0.65057 0.90965 0.0
H3089 H 0.41747 0.61529 0.86301 0.0
H3090 H 0.39083 0.63802 0.85631 0.0
H3091 H 0.37709 0.6708 0.86031 0.0
H3092 H 0.39668 0.70584 0.90704 0.0
H3093 H 0.41952 0.68044 0.91716 0.0
C3094 C 0.4266 0.64759 0.89841 0.0
C3095 C 0.42938 0.63162 0.88659 0.0
C3096 C 0.41169 0.66093 0.89438 0.0
C3097 C 0.41564 0.62766 0.8722 0.0
C3098 C 0.40055 0.64075 0.86822 0.0
C3099 C 0.38621 0.67261 0.87284 0.0
C3100 C 0.38576 0.69004 0.88278 0.0
C3101 C 0.39911 0.65791 0.8786 0.0
C3102 C 0.39719 0.69244 0.89917 0.0
C3103 C 0.41015 0.67797 0.90494 0.0
H3104 H 0.07331 0.65451 0.65872 0.0
H3105 H 0.03393 0.6722 0.61382 0.0
H3106 H 0.0582 0.69475 0.60241 0.0
H3107 H 0.08952 0.71106 0.60661 0.0
H3108 H 0.12854 0.69458 0.65221 0.0
H3109 H 0.10562 0.6697 0.66186 0.0
C3110 C 0.0701 0.6633 0.64642 0.0
C3111 C 0.05186 0.66186 0.63717 0.0
C3112 C 0.08404 0.67639 0.6401 0.0
C3113 C 0.0479 0.6731 0.62113 0.0
C3114 C 0.06174 0.68601 0.61464 0.0
C3115 C 0.09312 0.70185 0.61851 0.0
C3116 C 0.11059 0.70465 0.62878 0.0
C3117 C 0.07972 0.68798 0.62419 0.0
C3118 C 0.11512 0.69266 0.64415 0.0
C3119 C 0.10199 0.67853 0.64971 0.0
H3120 H 0.09811 0.30532 0.36809 0.0
H3121 H 0.06875 0.28168 0.41594 0.0
H3122 H 0.04328 0.30649 0.41338 0.0
H3123 H 0.02746 0.33225 0.39532 0.0
H3124 H 0.05543 0.35489 0.34604 0.0
H3125 H 0.08328 0.33313 0.35126 0.0
C3126 C 0.08649 0.30612 0.37833 0.0
C3127 C 0.08541 0.29207 0.39245 0.0
C3128 C 0.0714 0.31989 0.37617 0.0
C3129 C 0.06997 0.29267 0.40523 0.0
C3130 C 0.05532 0.30668 0.40361 0.0
C3131 C 0.03967 0.33254 0.38574 0.0
C3132 C 0.03918 0.34501 0.37015 0.0
C3133 C 0.05553 0.31992 0.38874 0.0
C3134 C 0.05529 0.3453 0.35805 0.0
C3135 C 0.07127 0.33289 0.36105 0.0
H3136 H 0.48106 0.68843 0.35149 0.0
H3137 H 0.44769 0.64587 0.3808 0.0
H3138 H 0.42286 0.67015 0.38835 0.0
H3139 H 0.4114 0.70404 0.38789 0.0
H3140 H 0.44456 0.74609 0.35759 0.0
H3141 H 0.46869 0.72157 0.34932 0.0
C3142 C 0.46824 0.68444 0.35935 0.0
C3143 C 0.46629 0.66546 0.36569 0.0
C3144 C 0.45407 0.69847 0.36368 0.0
C3145 C 0.44955 0.66043 0.37577 0.0
C3146 C 0.43539 0.67433 0.38019 0.0
C3147 C 0.42396 0.70779 0.37955 0.0
C3148 C 0.42629 0.72687 0.37352 0.0
C3149 C 0.43767 0.69349 0.37451 0.0
C3150 C 0.44244 0.7315 0.36242 0.0
C3151 C 0.45625 0.71749 0.35766 0.0
H3152 H 0.03136 0.63529 0.10209 0.0
H3153 H 0.03176 0.65224 0.16068 0.0
H3154 H 0.05849 0.67459 0.15487 0.0
H3155 H 0.08122 0.69015 0.13265 0.0
H3156 H 0.08203 0.67106 0.07466 0.0
H3157 H 0.05546 0.64884 0.0807 0.0
C3158 C 0.03733 0.64384 0.1136 0.0
C3159 C 0.02944 0.64222 0.13174 0.0
C3160 C 0.05291 0.65639 0.11023 0.0
C3161 C 0.03757 0.65318 0.14658 0.0
C3162 C 0.05281 0.66604 0.14324 0.0
C3163 C 0.07555 0.68111 0.12141 0.0
C3164 C 0.08342 0.68245 0.1032 0.0
C3165 C 0.06049 0.66792 0.12506 0.0
C3166 C 0.07617 0.67039 0.0888 0.0
C3167 C 0.06096 0.65766 0.0922 0.0
H3168 H 0.08021 0.28167 0.88249 0.0
H3169 H 0.12988 0.31539 0.86663 0.0
H3170 H 0.10832 0.34347 0.86131 0.0
H3171 H 0.0749 0.35777 0.8602 0.0
H3172 H 0.02559 0.32236 0.87349 0.0
H3173 H 0.04753 0.29546 0.88117 0.0
C3174 C 0.08637 0.29519 0.87792 0.0
C3175 C 0.10652 0.29659 0.87495 0.0
C3176 C 0.07394 0.31089 0.87459 0.0
C3177 C 0.11433 0.31407 0.8689 0.0
C3178 C 0.10204 0.33006 0.86594 0.0
C3179 C 0.06911 0.3442 0.86505 0.0
C3180 C 0.0488 0.34189 0.86653 0.0
C3181 C 0.08178 0.32858 0.86866 0.0
C3182 C 0.04123 0.32429 0.87239 0.0
C3183 C 0.05373 0.30897 0.87669 0.0
H3184 H 0.37835 0.3189 0.60894 0.0
H3185 H 0.40481 0.29015 0.5617 0.0
H3186 H 0.42341 0.31909 0.55452 0.0
H3187 H 0.43841 0.34812 0.56754 0.0
H3188 H 0.41397 0.37544 0.61668 0.0
H3189 H 0.38738 0.35229 0.61663 0.0
C3190 C 0.38767 0.31936 0.5967 0.0
C3191 C 0.39075 0.30266 0.58602 0.0
C3192 C 0.39864 0.33578 0.59308 0.0
C3193 C 0.40259 0.30304 0.5701 0.0
C3194 C 0.41319 0.3195 0.56606 0.0
C3195 C 0.42676 0.3495 0.5777 0.0
C3196 C 0.42852 0.36268 0.59264 0.0
C3197 C 0.41232 0.33542 0.57827 0.0
C3198 C 0.41313 0.3649 0.60538 0.0
C3199 C 0.39808 0.35152 0.60551 0.0
H3200 H 0.16058 0.37725 0.31856 0.0
H3201 H 0.19779 0.4079 0.2806 0.0
H3202 H 0.20132 0.43393 0.30352 0.0
H3203 H 0.18819 0.45066 0.33123 0.0
H3204 H 0.1512 0.42008 0.36941 0.0
H3205 H 0.15349 0.39122 0.34976 0.0
C3206 C 0.16995 0.38935 0.3156 0.0
C3207 C 0.17847 0.39099 0.29781 0.0
C3208 C 0.17165 0.40443 0.32873 0.0
C3209 C 0.19083 0.40652 0.29415 0.0
C3210 C 0.19276 0.42147 0.30719 0.0
C3211 C 0.18104 0.43752 0.33543 0.0
C3212 C 0.16909 0.43757 0.3513 0.0
C3213 C 0.18233 0.42105 0.32403 0.0
C3214 C 0.16023 0.42042 0.35698 0.0
C3215 C 0.16147 0.40393 0.34574 0.0
H3216 H 0.35951 0.36018 0.06071 0.0
H3217 H 0.35442 0.42027 0.0464 0.0
H3218 H 0.33001 0.42497 0.07103 0.0
H3219 H 0.30546 0.41027 0.09179 0.0
H3220 H 0.30752 0.34898 0.1009 0.0
H3221 H 0.33775 0.34635 0.08346 0.0
C3222 C 0.35343 0.37442 0.06332 0.0
C3223 C 0.35835 0.38978 0.05166 0.0
C3224 C 0.33854 0.37664 0.07641 0.0
C3225 C 0.35059 0.4082 0.05519 0.0
C3226 C 0.33653 0.41083 0.06913 0.0
C3227 C 0.31285 0.39649 0.09018 0.0
C3228 C 0.3044 0.37981 0.09738 0.0
C3229 C 0.32961 0.39491 0.07906 0.0
C3230 C 0.31383 0.36194 0.09531 0.0
C3231 C 0.33108 0.36043 0.08533 0.0
H3232 H 0.36429 0.56767 0.84939 0.0
H3233 H 0.31454 0.53718 0.82702 0.0
H3234 H 0.30476 0.56535 0.80831 0.0
H3235 H 0.31426 0.59589 0.79407 0.0
H3236 H 0.36446 0.62619 0.81601 0.0
H3237 H 0.36965 0.60139 0.83992 0.0
C3238 C 0.35111 0.56748 0.84068 0.0
C3239 C 0.3403 0.55053 0.83904 0.0
C3240 C 0.34565 0.58368 0.83005 0.0
C3241 C 0.32309 0.5502 0.82812 0.0
C3242 C 0.31753 0.56625 0.8175 0.0
C3243 C 0.32588 0.59741 0.80455 0.0
C3244 C 0.33931 0.61244 0.803 0.0
C3245 C 0.3292 0.58274 0.81773 0.0
C3246 C 0.3541 0.61453 0.8168 0.0
C3247 C 0.35724 0.60022 0.83031 0.0
H3248 H 0.18128 0.63375 0.58287 0.0
H3249 H 0.19975 0.58018 0.55756 0.0
H3250 H 0.17619 0.58484 0.53163 0.0
H3251 H 0.15311 0.6058 0.51454 0.0
H3252 H 0.13662 0.66071 0.53854 0.0
H3253 H 0.15666 0.65392 0.56657 0.0
C3254 C 0.17982 0.62293 0.57187 0.0
C3255 C 0.19217 0.60665 0.57202 0.0
C3256 C 0.16686 0.62612 0.55663 0.0
C3257 C 0.19035 0.59282 0.55763 0.0
C3258 C 0.17699 0.59554 0.54279 0.0
C3259 C 0.1537 0.6162 0.52598 0.0
C3260 C 0.1435 0.6338 0.52436 0.0
C3261 C 0.1656 0.61241 0.54186 0.0
C3262 C 0.14449 0.64713 0.53933 0.0
C3263 C 0.15591 0.64325 0.55539 0.0
H3264 H 0.14064 0.56634 0.15184 0.0
H3265 H 0.14997 0.51864 0.18975 0.0
H3266 H 0.15356 0.54075 0.21633 0.0
H3267 H 0.15028 0.57292 0.22927 0.0
H3268 H 0.13928 0.6213 0.19266 0.0
H3269 H 0.14049 0.59981 0.16495 0.0
C3270 C 0.144 0.56095 0.16586 0.0
C3271 C 0.14516 0.54097 0.16895 0.0
C3272 C 0.14551 0.57383 0.18125 0.0
C3273 C 0.14905 0.53399 0.18716 0.0
C3274 C 0.15105 0.5466 0.20234 0.0
C3275 C 0.14839 0.57884 0.2152 0.0
C3276 C 0.14446 0.59855 0.21295 0.0
C3277 C 0.1487 0.56644 0.19962 0.0
C3278 C 0.14228 0.60611 0.19468 0.0
C3279 C 0.14286 0.59381 0.1789 0.0
H3280 H 0.169 0.3687 0.89174 0.0
H3281 H 0.2079 0.41527 0.90535 0.0
H3282 H 0.1867 0.4256 0.93106 0.0
H3283 H 0.16045 0.41769 0.95283 0.0
H3284 H 0.12138 0.37113 0.93938 0.0
H3285 H 0.13875 0.36488 0.91008 0.0
C3286 C 0.17244 0.38139 0.90008 0.0
C3287 C 0.18991 0.39116 0.897 0.0
C3288 C 0.1602 0.38718 0.91485 0.0
C3289 C 0.19443 0.4076 0.90768 0.0
C3290 C 0.18238 0.41345 0.92237 0.0
C3291 C 0.15536 0.40662 0.94315 0.0
C3292 C 0.13997 0.39465 0.94837 0.0
C3293 C 0.16567 0.40285 0.92656 0.0
C3294 C 0.13332 0.38046 0.93569 0.0
C3295 C 0.14338 0.37673 0.91903 0.0
H3296 H 0.36222 0.42061 0.63768 0.0
H3297 H 0.30996 0.44652 0.6599 0.0
H3298 H 0.30387 0.41758 0.67849 0.0
H3299 H 0.31781 0.38869 0.69347 0.0
H3300 H 0.37109 0.36364 0.67226 0.0
H3301 H 0.37203 0.38797 0.64753 0.0
C3302 C 0.34914 0.41951 0.64607 0.0
C3303 C 0.33657 0.43542 0.64772 0.0
C3304 C 0.34607 0.40308 0.65695 0.0
C3305 C 0.31971 0.43422 0.65857 0.0
C3306 C 0.31633 0.41778 0.66924 0.0
C3307 C 0.32922 0.38819 0.68301 0.0
C3308 C 0.34469 0.37491 0.68494 0.0
C3309 C 0.33003 0.40261 0.66932 0.0
C3310 C 0.35923 0.37404 0.67119 0.0
C3311 C 0.35986 0.38803 0.65716 0.0
H3312 H 0.37634 0.62362 0.43491 0.0
H3313 H 0.36357 0.56472 0.44846 0.0
H3314 H 0.33859 0.5638 0.42337 0.0
H3315 H 0.31597 0.58199 0.40249 0.0
H3316 H 0.32568 0.64242 0.39357 0.0
H3317 H 0.35632 0.64062 0.41154 0.0
C3318 C 0.36853 0.61041 0.43191 0.0
C3319 C 0.37155 0.59432 0.44348 0.0
C3320 C 0.35335 0.61046 0.41845 0.0
C3321 C 0.3613 0.5773 0.43968 0.0
C3322 C 0.34695 0.57683 0.42547 0.0
C3323 C 0.32517 0.59454 0.40411 0.0
C3324 C 0.31877 0.61229 0.39691 0.0
C3325 C 0.34212 0.59365 0.41549 0.0
C3326 C 0.33046 0.62864 0.39915 0.0
C3327 C 0.34791 0.62763 0.40945 0.0
H3328 H 0.26087 0.14684 0.4123 0.0
H3329 H 0.30418 0.13616 0.3698 0.0
H3330 H 0.32852 0.12847 0.39447 0.0
H3331 H 0.33553 0.11989 0.42764 0.0
H3332 H 0.29076 0.12698 0.46925 0.0
H3333 H 0.26828 0.14002 0.4452 0.0
C3334 C 0.27578 0.14336 0.40844 0.0
C3335 C 0.28084 0.14202 0.38936 0.0
C3336 C 0.28902 0.13748 0.42245 0.0
C3337 C 0.30011 0.13735 0.38448 0.0
C3338 C 0.31386 0.13265 0.39853 0.0
C3339 C 0.32091 0.12453 0.43135 0.0
C3340 C 0.31456 0.12255 0.44992 0.0
C3341 C 0.30816 0.13179 0.41745 0.0
C3342 C 0.29561 0.12818 0.45482 0.0
C3343 C 0.28294 0.13582 0.44119 0.0
H3344 H 0.83953 0.31551 0.56672 0.0
H3345 H 0.85671 0.37487 0.5633 0.0
H3346 H 0.83225 0.3839 0.58665 0.0
H3347 H 0.80398 0.37525 0.60529 0.0
H3348 H 0.7842 0.31651 0.60593 0.0
H3349 H 0.81206 0.30658 0.58671 0.0
C3350 C 0.83796 0.33037 0.57129 0.0
C3351 C 0.84943 0.34466 0.56322 0.0
C3352 C 0.82352 0.33543 0.58418 0.0
C3353 C 0.84752 0.36385 0.56907 0.0
C3354 C 0.83371 0.36893 0.58248 0.0
C3355 C 0.806 0.36022 0.60149 0.0
C3356 C 0.7922 0.34657 0.60681 0.0
C3357 C 0.82131 0.3549 0.58973 0.0
C3358 C 0.79475 0.32718 0.60183 0.0
C3359 C 0.81055 0.32156 0.59081 0.0
H3360 H 0.34112 0.10481 0.31462 0.0
H3361 H 0.39423 0.09677 0.28355 0.0
H3362 H 0.40231 0.068 0.30201 0.0
H3363 H 0.39245 0.04342 0.32496 0.0
H3364 H 0.34062 0.05305 0.35773 0.0
H3365 H 0.334 0.08306 0.34098 0.0
C3366 C 0.35457 0.09685 0.31218 0.0
C3367 C 0.36697 0.10257 0.29775 0.0
C3368 C 0.35932 0.08064 0.32311 0.0
C3369 C 0.38451 0.09247 0.29467 0.0
C3370 C 0.38909 0.07602 0.30515 0.0
C3371 C 0.37995 0.05232 0.32863 0.0
C3372 C 0.36693 0.04601 0.34232 0.0
C3373 C 0.37636 0.06972 0.31911 0.0
C3374 C 0.35085 0.05766 0.34717 0.0
C3375 C 0.34697 0.07476 0.33753 0.0
H3376 H 0.65177 0.64952 0.05204 0.0
H3377 H 0.64854 0.58881 0.03959 0.0
H3378 H 0.6692 0.58139 0.06672 0.0
H3379 H 0.69258 0.59223 0.09061 0.0
H3380 H 0.69736 0.65266 0.10343 0.0
H3381 H 0.67183 0.66014 0.07984 0.0
C3382 C 0.65521 0.63471 0.05566 0.0
C3383 C 0.64884 0.61975 0.04374 0.0
C3384 C 0.66776 0.6305 0.07114 0.0
C3385 C 0.65341 0.60058 0.04848 0.0
C3386 C 0.66533 0.5963 0.06396 0.0
C3387 C 0.68776 0.607 0.08848 0.0
C3388 C 0.69699 0.62188 0.09842 0.0
C3389 C 0.67331 0.61116 0.07484 0.0
C3390 C 0.69048 0.64095 0.09579 0.0
C3391 C 0.67596 0.64524 0.08224 0.0
H3392 H 0.60961 0.48149 0.32159 0.0
H3393 H 0.62434 0.43862 0.36341 0.0
H3394 H 0.62537 0.41377 0.33871 0.0
H3395 H 0.62688 0.40558 0.30482 0.0
H3396 H 0.61544 0.44939 0.26321 0.0
H3397 H 0.60864 0.47282 0.28822 0.0
C3398 C 0.61265 0.46663 0.32538 0.0
C3399 C 0.61696 0.46185 0.34424 0.0
C3400 C 0.61416 0.45276 0.31107 0.0
C3401 C 0.62098 0.44259 0.34895 0.0
C3402 C 0.62172 0.42845 0.33482 0.0
C3403 C 0.62222 0.42005 0.30128 0.0
C3404 C 0.62123 0.42575 0.28229 0.0
C3405 C 0.61901 0.43352 0.31577 0.0
C3406 C 0.61611 0.44477 0.27779 0.0
C3407 C 0.61225 0.45811 0.29206 0.0
H3408 H 0.20156 0.84909 0.90676 0.0
H3409 H 0.19148 0.90652 0.88564 0.0
H3410 H 0.16194 0.90945 0.90439 0.0
H3411 H 0.14183 0.89735 0.93023 0.0
H3412 H 0.15049 0.83933 0.95008 0.0
H3413 H 0.17766 0.83478 0.92828 0.0
C3414 C 0.19262 0.86205 0.90599 0.0
C3415 C 0.19879 0.87769 0.89519 0.0
C3416 C 0.1756 0.86359 0.91673 0.0
C3417 C 0.18703 0.89434 0.894 0.0
C3418 C 0.17022 0.89608 0.9048 0.0
C3419 C 0.14947 0.88361 0.92944 0.0
C3420 C 0.14457 0.86879 0.9418 0.0
C3421 C 0.16481 0.88107 0.91675 0.0
C3422 C 0.1542 0.85092 0.94064 0.0
C3423 C 0.16975 0.84837 0.92827 0.0
H3424 H 0.37577 0.94707 0.13627 0.0
H3425 H 0.38766 0.98415 0.184 0.0
H3426 H 0.3908 0.95622 0.2046 0.0
H3427 H 0.3839 0.92218 0.20987 0.0
H3428 H 0.37053 0.88505 0.16273 0.0
H3429 H 0.37436 0.91202 0.14085 0.0
C3430 C 0.37956 0.94894 0.15108 0.0
C3431 C 0.38107 0.9675 0.1588 0.0
C3432 C 0.38076 0.93287 0.16291 0.0
C3433 C 0.38617 0.9699 0.1779 0.0
C3434 C 0.38788 0.95398 0.18968 0.0
C3435 C 0.38236 0.92002 0.19474 0.0
C3436 C 0.3768 0.90205 0.18768 0.0
C3437 C 0.38422 0.93554 0.18249 0.0
C3438 C 0.37482 0.899 0.16822 0.0
C3439 C 0.3769 0.91437 0.15581 0.0
H3440 H 0.08432 0.09526 0.70563 0.0
H3441 H 0.14599 0.10609 0.70168 0.0
H3442 H 0.14705 0.08909 0.67144 0.0
H3443 H 0.13158 0.06736 0.64862 0.0
H3444 H 0.07123 0.05188 0.65505 0.0
H3445 H 0.06823 0.07466 0.68143 0.0
C3446 C 0.09782 0.09419 0.69786 0.0
C3447 C 0.11503 0.10197 0.70566 0.0
C3448 C 0.09851 0.08346 0.68094 0.0
C3449 C 0.13259 0.10026 0.6958 0.0
C3450 C 0.1332 0.09051 0.67856 0.0
C3451 C 0.1176 0.06943 0.65541 0.0
C3452 C 0.10156 0.05817 0.6498 0.0
C3453 C 0.1164 0.08154 0.67129 0.0
C3454 C 0.08369 0.06058 0.65904 0.0
C3455 C 0.08205 0.07346 0.67423 0.0
H3456 H 0.96055 0.13192 0.3281 0.0
H3457 H 0.9913 0.0849 0.30154 0.0
H3458 H 0.97044 0.08838 0.27324 0.0
H3459 H 0.94099 0.10292 0.25723 0.0
H3460 H 0.91071 0.14971 0.28461 0.0
H3461 H 0.93394 0.14845 0.31107 0.0
C3462 C 0.96286 0.1225 0.31608 0.0
C3463 C 0.97742 0.108 0.31713 0.0
C3464 C 0.95087 0.12466 0.29984 0.0
C3465 C 0.98024 0.09615 0.30123 0.0
C3466 C 0.96825 0.09813 0.28501 0.0
C3467 C 0.93998 0.11328 0.26866 0.0
C3468 C 0.92434 0.1267 0.26873 0.0
C3469 C 0.95325 0.11214 0.28424 0.0
C3470 C 0.92282 0.13955 0.28401 0.0
C3471 C 0.93598 0.13868 0.29928 0.0
H3472 H 0.15928 0.71481 0.5041 0.0
H3473 H 0.09838 0.73047 0.50903 0.0
H3474 H 0.10642 0.75186 0.53553 0.0
H3475 H 0.1299 0.7616 0.56025 0.0
H3476 H 0.18998 0.74295 0.55743 0.0
H3477 H 0.18329 0.72713 0.52695 0.0
C3478 C 0.14782 0.72326 0.51069 0.0
C3479 C 0.12824 0.72101 0.50483 0.0
C3480 C 0.15244 0.7347 0.52639 0.0
C3481 C 0.11353 0.73199 0.5134 0.0
C3482 C 0.11811 0.74408 0.5286 0.0
C3483 C 0.14156 0.75445 0.55262 0.0
C3484 C 0.16037 0.75336 0.56069 0.0
C3485 C 0.13737 0.74487 0.53566 0.0
C3486 C 0.17547 0.74396 0.55116 0.0
C3487 C 0.17159 0.73489 0.53388 0.0
H3488 H 0.53282 0.90855 0.79925 0.0
H3489 H 0.49856 0.86372 0.77319 0.0
H3490 H 0.52471 0.85707 0.75086 0.0
H3491 H 0.55963 0.86018 0.74268 0.0
H3492 H 0.59423 0.90344 0.77091 0.0
H3493 H 0.5658 0.91462 0.78823 0.0
C3494 C 0.53085 0.89775 0.7883 0.0
C3495 C 0.51394 0.88652 0.78795 0.0
C3496 C 0.54625 0.89345 0.77608 0.0
C3497 C 0.51155 0.8725 0.77376 0.0
C3498 C 0.52656 0.86858 0.76108 0.0
C3499 C 0.56071 0.87234 0.75227 0.0
C3500 C 0.57895 0.8808 0.75578 0.0
C3501 C 0.54436 0.87834 0.7627 0.0
C3502 C 0.58032 0.89652 0.76826 0.0
C3503 C 0.56409 0.90295 0.77816 0.0
H3504 H 0.40986 0.27917 0.06725 0.0
H3505 H 0.35968 0.24955 0.04449 0.0
H3506 H 0.36107 0.26885 0.01565 0.0
H3507 H 0.37396 0.29745 -0.0011 0.0
H3508 H 0.42419 0.32653 0.02219 0.0
H3509 H 0.42571 0.30397 0.04848 0.0
C3510 C 0.39942 0.2767 0.05584 0.0
C3511 C 0.38455 0.2631 0.05812 0.0
C3512 C 0.40039 0.28778 0.03929 0.0
C3513 C 0.37128 0.25993 0.04311 0.0
C3514 C 0.37202 0.27104 0.02663 0.0
C3515 C 0.38572 0.29824 0.0093 0.0
C3516 C 0.39916 0.31343 0.00846 0.0
C3517 C 0.3862 0.2854 0.02476 0.0
C3518 C 0.41394 0.31473 0.02237 0.0
C3519 C 0.41465 0.30199 0.03755 0.0
H3520 H 0.98624 0.86655 0.19434 0.0
H3521 H 0.9479 0.8416 0.15199 0.0
H3522 H 0.92363 0.83548 0.17559 0.0
H3523 H 0.91173 0.83932 0.20744 0.0
H3524 H 0.9486 0.86376 0.25089 0.0
H3525 H 0.97499 0.86758 0.22793 0.0
C3526 C 0.9727 0.85954 0.19037 0.0
C3527 C 0.96896 0.85484 0.17122 0.0
C3528 C 0.95843 0.85598 0.20423 0.0
C3529 C 0.95126 0.8457 0.16644 0.0
C3530 C 0.93726 0.84211 0.17997 0.0
C3531 C 0.92563 0.84532 0.21197 0.0
C3532 C 0.92816 0.85143 0.23077 0.0
C3533 C 0.94048 0.84756 0.19876 0.0
C3534 C 0.94633 0.85889 0.2365 0.0
C3535 C 0.96134 0.8612 0.22331 0.0
H3536 H 0.40855 0.73455 0.46538 0.0
H3537 H 0.35125 0.71829 0.4451 0.0
H3538 H 0.353 0.68894 0.46387 0.0
H3539 H 0.37227 0.6663 0.48312 0.0
H3540 H 0.42911 0.68242 0.50444 0.0
H3541 H 0.42614 0.71356 0.48827 0.0
C3542 C 0.3963 0.72475 0.46542 0.0
C3543 C 0.37987 0.72844 0.45377 0.0
C3544 C 0.39746 0.70783 0.4762 0.0
C3545 C 0.36404 0.71574 0.45395 0.0
C3546 C 0.3651 0.69889 0.46457 0.0
C3547 C 0.38391 0.67675 0.48436 0.0
C3548 C 0.40101 0.67211 0.49462 0.0
C3549 C 0.38197 0.69453 0.47525 0.0
C3550 C 0.41586 0.68577 0.49651 0.0
C3551 C 0.41417 0.70349 0.48724 0.0
H3552 H 0.54446 0.14185 0.76332 0.0
H3553 H 0.56716 0.08384 0.76378 0.0
H3554 H 0.54268 0.07413 0.74027 0.0
H3555 H 0.51966 0.08393 0.71502 0.0
H3556 H 0.49881 0.14268 0.71313 0.0
H3557 H 0.51748 0.15032 0.74167 0.0
C3558 C 0.5434 0.12694 0.75885 0.0
C3559 C 0.55748 0.11358 0.76506 0.0
C3560 C 0.52998 0.12173 0.74462 0.0
C3561 C 0.55634 0.09432 0.75905 0.0
C3562 C 0.54252 0.08882 0.74547 0.0
C3563 C 0.51892 0.09826 0.72114 0.0
C3564 C 0.50831 0.11282 0.71185 0.0
C3565 C 0.53004 0.10268 0.73736 0.0
C3566 C 0.50724 0.13131 0.71991 0.0
C3567 C 0.51787 0.13571 0.73625 0.0
H3568 H 0.13361 0.29438 0.00262 0.0
H3569 H 0.16476 0.3384 0.97281 0.0
H3570 H 0.1745 0.31531 0.94906 0.0
H3571 H 0.17122 0.28382 0.93438 0.0
H3572 H 0.14085 0.23876 0.96291 0.0
H3573 H 0.13419 0.26068 0.98948 0.0
C3574 C 0.14282 0.29876 0.99113 0.0
C3575 C 0.14801 0.3183 0.98941 0.0
C3576 C 0.1485 0.2852 0.97713 0.0
C3577 C 0.16008 0.32365 0.97439 0.0
C3578 C 0.16578 0.31041 0.96072 0.0
C3579 C 0.16353 0.27866 0.94663 0.0
C3580 C 0.15652 0.25975 0.94669 0.0
C3581 C 0.1596 0.29134 0.96161 0.0
C3582 C 0.1466 0.25322 0.96264 0.0
C3583 C 0.1426 0.26585 0.97774 0.0
H3584 H 0.28996 0.99672 0.147 0.0
H3585 H 0.29095 0.9977 0.08627 0.0
H3586 H 0.26614 0.97247 0.08486 0.0
H3587 H 0.247 0.94746 0.10112 0.0
H3588 H 0.2442 0.94809 0.16181 0.0
H3589 H 0.26664 0.9754 0.16312 0.0
C3590 C 0.28426 0.99182 0.13347 0.0
C3591 C 0.29216 -0.0008 0.11674 0.0
C3592 C 0.26985 0.9774 0.13281 0.0
C3593 C 0.28484 0.99255 0.09931 0.0
C3594 C 0.27082 0.97793 0.09852 0.0
C3595 C 0.251 0.95388 0.1146 0.0
C3596 C 0.24401 0.94572 0.13138 0.0
C3597 C 0.26363 0.96986 0.11519 0.0
C3598 C 0.24925 0.95418 0.14873 0.0
C3599 C 0.2622 0.96973 0.14946 0.0
H3600 H 0.31068 0.02203 0.38459 0.0
H3601 H 0.28016 0.97993 0.35097 0.0
H3602 H 0.25347 0.00333 0.34491 0.0
H3603 H 0.24077 0.0374 0.34664 0.0
H3604 H 0.27331 0.0785 0.38033 0.0
H3605 H 0.29705 0.05402 0.38873 0.0
C3606 C 0.29793 0.01782 0.3763 0.0
C3607 C 0.29726 -0.00068 0.36835 0.0
C3608 C 0.28311 0.03139 0.37256 0.0
C3609 C 0.2808 0.99403 0.35751 0.0
C3610 C 0.2657 0.00752 0.35386 0.0
C3611 C 0.25294 0.0409 0.35595 0.0
C3612 C 0.25526 0.06002 0.36247 0.0
C3613 C 0.26696 0.0265 0.36088 0.0
C3614 C 0.27114 0.06415 0.37468 0.0
C3615 C 0.28482 0.05009 0.37966 0.0
H3616 H 0.20827 0.0075 0.63191 0.0
H3617 H 0.16382 0.04053 0.6607 0.0
H3618 H 0.18846 0.0621 0.67334 0.0
H3619 H 0.22134 0.07471 0.67183 0.0
H3620 H 0.26577 0.04403 0.6412 0.0
H3621 H 0.24275 0.01792 0.63437 0.0
C3622 C 0.20407 0.01923 0.64121 0.0
C3623 C 0.18421 0.02269 0.64496 0.0
C3624 C 0.21835 0.03192 0.6482 0.0
C3625 C 0.17896 0.03781 0.65718 0.0
C3626 C 0.19304 0.05011 0.66454 0.0
C3627 C 0.22612 0.06195 0.66421 0.0
C3628 C 0.24499 0.0612 0.65686 0.0
C3629 C 0.21261 0.04774 0.65953 0.0
C3630 C 0.25126 0.04473 0.64708 0.0
C3631 C 0.238 0.03001 0.64291 0.0
H3632 H 0.2384 0.94496 0.84999 0.0
H3633 H 0.26709 0.9556 0.90335 0.0
H3634 H 0.24256 0.98041 0.91093 0.0
H3635 H 0.20949 0.99451 0.90453 0.0
H3636 H 0.17996 0.98051 0.8521 0.0
H3637 H 0.20811 0.96177 0.8419 0.0
C3638 C 0.23972 0.95338 0.86289 0.0
C3639 C 0.2546 0.94887 0.87594 0.0
C3640 C 0.22501 0.96665 0.86751 0.0
C3641 C 0.25597 0.95929 0.89291 0.0
C3642 C 0.24174 0.97319 0.89736 0.0
C3643 C 0.2095 0.98767 0.89074 0.0
C3644 C 0.19261 0.9886 0.87919 0.0
C3645 C 0.22564 0.97633 0.88514 0.0
C3646 C 0.19268 0.97968 0.86137 0.0
C3647 C 0.20879 0.96901 0.85548 0.0
H3648 H 0.58898 0.21164 0.02998 0.0
H3649 H 0.63919 0.2289 0.99843 0.0
H3650 H 0.64925 0.25049 0.02406 0.0
H3651 H 0.64686 0.25971 0.05769 0.0
H3652 H 0.59807 0.23963 0.08977 0.0
H3653 H 0.5843 0.22407 0.06182 0.0
C3654 C 0.60176 0.2206 0.02849 0.0
C3655 C 0.61344 0.21862 0.01253 0.0
C3656 C 0.60794 0.23219 0.04361 0.0
C3657 C 0.63004 0.23019 0.01073 0.0
C3658 C 0.63588 0.2424 0.02543 0.0
C3659 C 0.63301 0.2523 0.05836 0.0
C3660 C 0.62365 0.25048 0.07572 0.0
C3661 C 0.62547 0.24279 0.04232 0.0
C3662 C 0.60571 0.24086 0.07655 0.0
C3663 C 0.59779 0.232 0.06059 0.0
H3664 H 0.06624 0.36647 0.24495 0.0
H3665 H 0.10708 0.40036 0.2778 0.0
H3666 H 0.08045 0.41436 0.29563 0.0
H3667 H 0.04641 0.4136 0.30505 0.0
H3668 H 0.00532 0.37854 0.27402 0.0
H3669 H 0.03091 0.36901 0.25198 0.0
C3670 C 0.06923 0.37713 0.2558 0.0
C3671 C 0.08867 0.38199 0.26028 0.0
C3672 C 0.05376 0.38501 0.26635 0.0
C3673 C 0.09231 0.39597 0.27431 0.0
C3674 C 0.07707 0.40411 0.2845 0.0
C3675 C 0.04292 0.40432 0.29314 0.0
C3676 C 0.02412 0.39661 0.29128 0.0
C3677 C 0.05784 0.39825 0.28109 0.0
C3678 C 0.01975 0.38464 0.27576 0.0
C3679 C 0.03444 0.379 0.26328 0.0
H3680 H 0.90764 0.80534 0.52045 0.0
H3681 H 0.852 0.79411 0.49381 0.0
H3682 H 0.84543 0.76906 0.51718 0.0
H3683 H 0.85357 0.75417 0.54816 0.0
H3684 H 0.90902 0.76693 0.57498 0.0
H3685 H 0.91776 0.7872 0.54857 0.0
C3686 C 0.89442 0.79686 0.51941 0.0
C3687 C 0.88044 0.80122 0.50537 0.0
C3688 C 0.89059 0.78295 0.53317 0.0
C3689 C 0.86311 0.79062 0.50433 0.0
C3690 C 0.85928 0.77648 0.51783 0.0
C3691 C 0.86776 0.76096 0.54794 0.0
C3692 C 0.88049 0.75923 0.56367 0.0
C3693 C 0.87261 0.77303 0.53275 0.0
C3694 C 0.89881 0.76822 0.56321 0.0
C3695 C 0.90385 0.77986 0.54809 0.0
H3696 H 0.07519 0.5971 0.2482 0.0
H3697 H 0.04976 0.64962 0.26987 0.0
H3698 H 0.01941 0.6432 0.25234 0.0
H3699 H 0.00257 0.6254 0.22696 0.0
H3700 H 0.02852 0.57334 0.2048 0.0
H3701 H 0.05612 0.57654 0.22682 0.0
C3702 C 0.06287 0.60698 0.24929 0.0
C3703 C 0.06474 0.62401 0.25987 0.0
C3704 C 0.04566 0.60328 0.23909 0.0
C3705 C 0.04863 0.63649 0.26163 0.0
C3706 C 0.03134 0.63286 0.25157 0.0
C3707 C 0.01403 0.6145 0.22734 0.0
C3708 C 0.0138 0.59936 0.21416 0.0
C3709 C 0.03002 0.6167 0.23968 0.0
C3710 C 0.02852 0.58517 0.21481 0.0
C3711 C 0.04436 0.58709 0.22727 0.0
H3712 H 0.48243 0.37853 0.69735 0.0
H3713 H 0.46012 0.33511 0.65927 0.0
H3714 H 0.43569 0.32605 0.68207 0.0
H3715 H 0.41778 0.33323 0.71074 0.0
H3716 H 0.43895 0.37622 0.74965 0.0
H3717 H 0.46672 0.38259 0.72892 0.0
C3718 C 0.47257 0.36675 0.69437 0.0
C3719 C 0.47298 0.35758 0.67658 0.0
C3720 C 0.45815 0.36173 0.70759 0.0
C3721 C 0.45998 0.34246 0.67279 0.0
C3722 C 0.44595 0.33729 0.6858 0.0
C3723 C 0.42874 0.34371 0.71485 0.0
C3724 C 0.42638 0.35431 0.73156 0.0
C3725 C 0.44444 0.34727 0.7029 0.0
C3726 C 0.44061 0.36781 0.73685 0.0
C3727 C 0.45638 0.37153 0.72492 0.0
H3728 H 0.01393 0.86942 0.69157 0.0
H3729 H 0.0494 0.90781 0.65927 0.0
H3730 H 0.07481 0.90688 0.68375 0.0
H3731 H 0.08815 0.89341 0.71269 0.0
H3732 H 0.05431 0.85396 0.74548 0.0
H3733 H 0.02709 0.85707 0.72257 0.0
C3734 C 0.02706 0.87788 0.69019 0.0
C3735 C 0.02973 0.88888 0.67374 0.0
C3736 C 0.04202 0.87683 0.70423 0.0
C3737 C 0.04698 0.89941 0.67187 0.0
C3738 C 0.06156 0.89878 0.6858 0.0
C3739 C 0.07485 0.88544 0.715 0.0
C3740 C 0.07347 0.87325 0.73079 0.0
C3741 C 0.05945 0.88721 0.70179 0.0
C3742 C 0.05587 0.86339 0.73349 0.0
C3743 C 0.04031 0.86515 0.72033 0.0
H3744 H 0.85089 0.23871 0.4444 0.0
H3745 H 0.9036 0.25521 0.41627 0.0
H3746 H 0.91602 0.27014 0.44508 0.0
H3747 H 0.90956 0.28316 0.47639 0.0
H3748 H 0.85591 0.26918 0.50407 0.0
H3749 H 0.84647 0.24821 0.47776 0.0
C3750 C 0.86522 0.24525 0.4448 0.0
C3751 C 0.87611 0.24632 0.42825 0.0
C3752 C 0.87211 0.25432 0.46135 0.0
C3753 C 0.89474 0.2547 0.42881 0.0
C3754 C 0.90192 0.26316 0.44528 0.0
C3755 C 0.89613 0.27501 0.47691 0.0
C3756 C 0.88335 0.2778 0.49192 0.0
C3757 C 0.8904 0.26375 0.46139 0.0
C3758 C 0.86592 0.26728 0.49249 0.0
C3759 C 0.86043 0.25543 0.4774 0.0
H3760 H 0.44037 0.14322 0.25843 0.0
H3761 H 0.40233 0.10299 0.22985 0.0
H3762 H 0.43014 0.08846 0.21399 0.0
H3763 H 0.4643 0.09004 0.2049 0.0
H3764 H 0.50199 0.13238 0.23052 0.0
H3765 H 0.47562 0.14277 0.25134 0.0
C3766 C 0.43829 0.13111 0.24894 0.0
C3767 C 0.41935 0.1244 0.24506 0.0
C3768 C 0.45433 0.12312 0.23939 0.0
C3769 C 0.41676 0.10867 0.23276 0.0
C3770 C 0.43266 0.10026 0.22375 0.0
C3771 C 0.46691 0.10109 0.21548 0.0
C3772 C 0.48496 0.11044 0.21626 0.0
C3773 C 0.4514 0.10774 0.22651 0.0
C3774 C 0.48815 0.12495 0.22979 0.0
C3775 C 0.47302 0.13103 0.24152 0.0
H3776 H 0.6427 0.68643 0.9863 0.0
H3777 H 0.57977 0.68627 0.98466 0.0
H3778 H 0.57944 0.71211 0.96125 0.0
H3779 H 0.59732 0.73138 0.9381 0.0
H3780 H 0.66018 0.73299 0.94086 0.0
H3781 H 0.66044 0.71026 0.96724 0.0
C3782 C 0.62897 0.69255 0.98121 0.0
C3783 C 0.61128 0.68465 0.98712 0.0
C3784 C 0.62893 0.70752 0.9679 0.0
C3785 C 0.59352 0.6924 0.98041 0.0
C3786 C 0.59334 0.70703 0.96693 0.0
C3787 C 0.611 0.72719 0.94494 0.0
C3788 C 0.62871 0.73378 0.93773 0.0
C3789 C 0.61097 0.71425 0.96013 0.0
C3790 C 0.6464 0.72823 0.94645 0.0
C3791 C 0.64653 0.7151 0.96138 0.0
H3792 H 0.02276 0.15891 0.81827 0.0
H3793 H 0.00454 0.10219 0.80124 0.0
H3794 H 0.02367 0.10466 0.77236 0.0
H3795 H 0.04992 0.12098 0.75495 0.0
H3796 H 0.06749 0.17789 0.7719 0.0
H3797 H 0.04389 0.17768 0.7975 0.0
C3798 C 0.02263 0.14731 0.80797 0.0
C3799 C 0.01248 0.13031 0.81188 0.0
C3800 C 0.0335 0.14894 0.79137 0.0
C3801 C 0.01224 0.1154 0.79846 0.0
C3802 C 0.02325 0.11679 0.78201 0.0
C3803 C 0.0478 0.13368 0.76368 0.0
C3804 C 0.06008 0.1496 0.76137 0.0
C3805 C 0.03448 0.13324 0.77864 0.0
C3806 C 0.05778 0.16573 0.77313 0.0
C3807 C 0.04454 0.16546 0.78797 0.0
H3808 H 0.59263 0.25693 0.53426 0.0
H3809 H 0.65177 0.26987 0.55166 0.0
H3810 H 0.65186 0.29759 0.53065 0.0
H3811 H 0.63363 0.32047 0.51068 0.0
H3812 H 0.57498 0.30743 0.49218 0.0
H3813 H 0.57615 0.27727 0.51013 0.0
C3814 C 0.60567 0.26558 0.53308 0.0
C3815 C 0.62208 0.26156 0.54463 0.0
C3816 C 0.60559 0.28156 0.52098 0.0
C3817 C 0.63895 0.27273 0.54293 0.0
C3818 C 0.63897 0.28866 0.53103 0.0
C3819 C 0.62127 0.3108 0.51035 0.0
C3820 C 0.60418 0.31608 0.50042 0.0
C3821 C 0.62215 0.29357 0.52052 0.0
C3822 C 0.58828 0.30351 0.49978 0.0
C3823 C 0.58892 0.28637 0.51011 0.0
H3824 H 0.41427 0.89081 0.25655 0.0
H3825 H 0.44633 0.846 0.22782 0.0
H3826 H 0.47574 0.8538 0.24642 0.0
H3827 H 0.49129 0.8716 0.27271 0.0
H3828 H 0.45914 0.91675 0.30089 0.0
H3829 H 0.43079 0.91084 0.28034 0.0
C3830 C 0.42773 0.8828 0.25431 0.0
C3831 C 0.42814 0.86764 0.24111 0.0
C3832 C 0.44451 0.88751 0.26486 0.0
C3833 C 0.44572 0.85766 0.238 0.0
C3834 C 0.46248 0.8621 0.24864 0.0
C3835 C 0.47819 0.88038 0.27408 0.0
C3836 C 0.47719 0.8945 0.28832 0.0
C3837 C 0.46192 0.87677 0.26234 0.0
C3838 C 0.46023 0.90585 0.28997 0.0
C3839 C 0.44398 0.90236 0.27834 0.0
H3840 H 0.86033 0.74357 0.04019 0.0
H3841 H 0.82417 0.7085 0.07527 0.0
H3842 H 0.82663 0.68193 0.05281 0.0
H3843 H 0.84195 0.66737 0.02534 0.0
H3844 H 0.87873 0.7013 0.98982 0.0
H3845 H 0.87309 0.72956 0.0101 0.0
C3846 C 0.85251 0.73031 0.04253 0.0
C3847 C 0.84192 0.72804 0.0593 0.0
C3848 C 0.85443 0.71475 0.02966 0.0
C3849 C 0.83225 0.71063 0.0624 0.0
C3850 C 0.83379 0.69537 0.04964 0.0
C3851 C 0.84865 0.68098 0.02188 0.0
C3852 C 0.86098 0.68211 0.0062 0.0
C3853 C 0.84535 0.69704 0.03358 0.0
C3854 C 0.86921 0.69998 0.00182 0.0
C3855 C 0.86603 0.71613 0.01347 0.0
H3856 H 0.7239 0.07426 0.88523 0.0
H3857 H 0.75755 0.0429 0.84414 0.0
H3858 H 0.7377 0.01414 0.84949 0.0
H3859 H 0.7089 -0.00133 0.86463 0.0
H3860 H 0.67627 0.03131 0.90565 0.0
H3861 H 0.69777 0.05862 0.90179 0.0
C3862 C 0.72693 0.06117 0.87735 0.0
C3863 C 0.74194 0.06086 0.86402 0.0
C3864 C 0.71568 0.04481 0.88065 0.0
C3865 C 0.74595 0.04359 0.85436 0.0
C3866 C 0.7346 0.02714 0.85744 0.0
C3867 C 0.70689 0.01161 0.873 0.0
C3868 C 0.69102 0.01298 0.88543 0.0
C3869 C 0.71922 0.02762 0.87044 0.0
C3870 C 0.68836 0.02993 0.896 0.0
C3871 C 0.70057 0.04561 0.89373 0.0
H3872 H 0.70235 0.00346 0.65061 0.0
H3873 H 0.70495 0.00108 0.58999 0.0
H3874 H 0.73355 0.97961 0.59203 0.0
H3875 H 0.75395 0.95726 0.61121 0.0
H3876 H 0.7517 0.96008 0.67185 0.0
H3877 H 0.72704 0.98587 0.66984 0.0
C3878 C 0.70971 -0.00119 0.6379 0.0
C3879 C 0.70177 0.00389 0.62017 0.0
C3880 C 0.726 0.98636 0.63925 0.0
C3881 C 0.71109 0.99759 0.60375 0.0
C3882 C 0.72727 0.98513 0.60494 0.0
C3883 C 0.74853 0.96406 0.62394 0.0
C3884 C 0.75461 0.95697 0.64166 0.0
C3885 C 0.73434 0.97881 0.62261 0.0
C3886 C 0.74739 0.96558 0.6581 0.0
C3887 C 0.73316 0.98017 0.65693 0.0
H3888 H 0.75055 0.94996 0.33966 0.0
H3889 H 0.73351 0.94257 0.39737 0.0
H3890 H 0.7565 0.96742 0.40763 0.0
H3891 H 0.78631 0.98566 0.40082 0.0
H3892 H 0.80616 0.98909 0.34358 0.0
H3893 H 0.77733 0.97169 0.33232 0.0
C3894 C 0.75129 0.9545 0.35433 0.0
C3895 C 0.74036 0.94476 0.36776 0.0
C3896 C 0.76548 0.96777 0.36021 0.0
C3897 C 0.74172 0.95018 0.38683 0.0
C3898 C 0.75503 0.96418 0.3927 0.0
C3899 C 0.78386 0.98309 0.38586 0.0
C3900 C 0.7981 0.98851 0.37297 0.0
C3901 C 0.76775 0.97225 0.37965 0.0
C3902 C 0.79522 0.98493 0.35364 0.0
C3903 C 0.77881 0.97496 0.34724 0.0
H3904 H 0.76536 0.05875 0.15212 0.0
H3905 H 0.7271 0.03055 0.11222 0.0
H3906 H 0.75127 0.00443 0.10836 0.0
H3907 H 0.78564 0.99295 0.11249 0.0
H3908 H 0.8239 0.02335 0.15114 0.0
H3909 H 0.79745 0.04524 0.15937 0.0
C3910 C 0.7621 0.04653 0.14304 0.0
C3911 C 0.74463 0.04642 0.13247 0.0
C3912 C 0.77629 0.03222 0.14036 0.0
C3913 C 0.74042 0.0307 0.12067 0.0
C3914 C 0.75437 0.01597 0.11826 0.0
C3915 C 0.78802 0.00414 0.12296 0.0
C3916 C 0.80682 0.00675 0.13091 0.0
C3917 C 0.77273 0.01706 0.12741 0.0
C3918 C 0.8097 0.02127 0.14451 0.0
C3919 C 0.79456 0.03377 0.14931 0.0
H3920 H 0.36198 0.76777 0.9966 0.0
H3921 H 0.41528 0.7873 0.97145 0.0
H3922 H 0.40715 0.77001 0.94238 0.0
H3923 H 0.38242 0.75423 0.92264 0.0
H3924 H 0.32878 0.73493 0.94708 0.0
H3925 H 0.33936 0.74748 0.97803 0.0
C3926 C 0.37212 0.76768 0.98498 0.0
C3927 C 0.38906 0.77899 0.986 0.0
C3928 C 0.36696 0.75834 0.96807 0.0
C3929 C 0.40213 0.77873 0.97092 0.0
C3930 C 0.39736 0.76908 0.95422 0.0
C3931 C 0.37309 0.75274 0.93479 0.0
C3932 C 0.35463 0.7443 0.93266 0.0
C3933 C 0.37936 0.75973 0.95236 0.0
C3934 C 0.34291 0.74174 0.94849 0.0
C3935 C 0.34899 0.74884 0.96611 0.0
H3936 H 0.9646 0.60002 0.69895 0.0
H3937 H 0.99797 0.64836 0.71922 0.0
H3938 H 0.97249 0.65628 0.74193 0.0
H3939 H 0.93847 0.6523 0.75243 0.0
H3940 H 0.90432 0.60562 0.72947 0.0
H3941 H 0.9322 0.59419 0.71151 0.0
C3942 C 0.96653 0.61193 0.70873 0.0
C3943 C 0.98301 0.62363 0.70746 0.0
C3944 C 0.95143 0.61695 0.72101 0.0
C3945 C 0.98531 0.63917 0.72001 0.0
C3946 C 0.97068 0.6438 0.73288 0.0
C3947 C 0.93733 0.63945 0.74374 0.0
C3948 C 0.91937 0.62999 0.74202 0.0
C3949 C 0.95331 0.63326 0.73295 0.0
C3950 C 0.91796 0.61336 0.73072 0.0
C3951 C 0.9339 0.60675 0.7205 0.0
H3952 H 0.10568 0.24305 0.45159 0.0
H3953 H 0.16701 0.23281 0.44262 0.0
H3954 H 0.16764 0.2087 0.46777 0.0
H3955 H 0.14924 0.18678 0.48827 0.0
H3956 H 0.08823 0.198 0.49827 0.0
H3957 H 0.08891 0.22568 0.47697 0.0
C3958 C 0.11933 0.23608 0.45573 0.0
C3959 C 0.13631 0.23971 0.44541 0.0
C3960 C 0.11951 0.22219 0.47012 0.0
C3961 C 0.15387 0.23047 0.45062 0.0
C3962 C 0.15415 0.21648 0.4648 0.0
C3963 C 0.13627 0.19566 0.48616 0.0
C3964 C 0.11866 0.19036 0.49465 0.0
C3965 C 0.13686 0.21165 0.47406 0.0
C3966 C 0.10194 0.20192 0.49194 0.0
C3967 C 0.10231 0.21764 0.47966 0.0
H3968 H 0.95138 0.35469 0.73905 0.0
H3969 H 0.92002 0.40713 0.75174 0.0
H3970 H 0.94643 0.41748 0.77284 0.0
H3971 H 0.97541 0.40908 0.79158 0.0
H3972 H 0.00565 0.35543 0.78126 0.0
H3973 H 0.9831 0.34821 0.75512 0.0
C3974 C 0.95073 0.36859 0.74606 0.0
C3975 C 0.93393 0.38014 0.74409 0.0
C3976 C 0.96564 0.3741 0.75875 0.0
C3977 C 0.9329 0.39804 0.75328 0.0
C3978 C 0.94793 0.40392 0.76535 0.0
C3979 C 0.97735 0.39605 0.78328 0.0
C3980 C 0.9919 0.38268 0.78841 0.0
C3981 C 0.96394 0.3917 0.76881 0.0
C3982 C 0.99437 0.36587 0.77759 0.0
C3983 C 0.98143 0.36168 0.76272 0.0
H3984 H 0.52357 0.5983 0.30252 0.0
H3985 H 0.51151 0.65872 0.30999 0.0
H3986 H 0.53124 0.66628 0.28249 0.0
H3987 H 0.55665 0.65607 0.26002 0.0
H3988 H 0.57111 0.59588 0.25477 0.0
H3989 H 0.54565 0.58773 0.27717 0.0
C3990 C 0.52468 0.61301 0.2976 0.0
C3991 C 0.51588 0.62793 0.30798 0.0
C3992 C 0.53676 0.61728 0.28223 0.0
C3993 C 0.51791 0.64701 0.30195 0.0
C3994 C 0.52935 0.65134 0.28634 0.0
C3995 C 0.5536 0.64115 0.26323 0.0
C3996 C 0.56546 0.62655 0.25557 0.0
C3997 C 0.5395 0.63667 0.27683 0.0
C3998 C 0.5619 0.6073 0.2603 0.0
C3999 C 0.54748 0.60266 0.27326 0.0
H4000 H 0.43673 0.60756 0.75308 0.0
H4001 H 0.40758 0.65381 0.78255 0.0
H4002 H 0.43136 0.65163 0.80833 0.0
H4003 H 0.4581 0.63473 0.82411 0.0
H4004 H 0.48804 0.5881 0.79615 0.0
H4005 H 0.46661 0.59236 0.76819 0.0
C4006 C 0.43599 0.61745 0.76493 0.0
C4007 C 0.4204 0.63088 0.76589 0.0
C4008 C 0.44969 0.61586 0.78011 0.0
C4009 C 0.41941 0.64339 0.78148 0.0
C4010 C 0.43296 0.64209 0.79629 0.0
C4011 C 0.46011 0.62555 0.81184 0.0
C4012 C 0.4745 0.61095 0.81234 0.0
C4013 C 0.44777 0.62806 0.79602 0.0
C4014 C 0.47708 0.59945 0.79617 0.0
C4015 C 0.46474 0.60184 0.78021 0.0
H4016 H 0.86016 0.17444 0.98872 0.0
H4017 H 0.91753 0.18936 0.00962 0.0
H4018 H 0.91522 0.22044 0.99339 0.0
H4019 H 0.89831 0.24142 0.97012 0.0
H4020 H 0.84057 0.22644 0.95006 0.0
H4021 H 0.84136 0.1975 0.96945 0.0
C4022 C 0.87203 0.18464 0.9899 0.0
C4023 C 0.88911 0.17963 3e-05 0.0
C4024 C 0.8705 0.20242 0.98071 0.0
C4025 C 0.90427 0.19299 0.00182 0.0
C4026 C 0.90297 0.21069 0.99249 0.0
C4027 C 0.88574 0.23205 0.97038 0.0
C4028 C 0.8695 0.23589 0.95854 0.0
C4029 C 0.88637 0.21531 0.98147 0.0
C4030 C 0.85325 0.22374 0.95903 0.0
C4031 C 0.85375 0.20711 0.97 0.0
H4032 H 0.6631 0.83162 0.46894 0.0
H4033 H 0.62783 0.79576 0.50409 0.0
H4034 H 0.63386 0.76823 0.483 0.0
H4035 H 0.64666 0.75526 0.45248 0.0
H4036 H 0.68163 0.79212 0.41799 0.0
H4037 H 0.67848 0.8181 0.44096 0.0
C4038 C 0.65681 0.81775 0.47214 0.0
C4039 C 0.64481 0.81589 0.48802 0.0
C4040 C 0.66039 0.80205 0.46001 0.0
C4041 C 0.63709 0.79768 0.49199 0.0
C4042 C 0.64051 0.78192 0.47987 0.0
C4043 C 0.65412 0.76876 0.45037 0.0
C4044 C 0.6645 0.77166 0.43354 0.0
C4045 C 0.65187 0.78399 0.46359 0.0
C4046 C 0.67367 0.78944 0.43082 0.0
C4047 C 0.67175 0.80439 0.4439 0.0
H4048 H 0.8174 0.46966 0.63298 0.0
H4049 H 0.77587 0.50877 0.60687 0.0
H4050 H 0.74981 0.48501 0.61132 0.0
H4051 H 0.73928 0.45194 0.62165 0.0
H4052 H 0.78263 0.41413 0.64699 0.0
H4053 H 0.80736 0.43864 0.64386 0.0
C4054 C 0.80269 0.47326 0.62818 0.0
C4055 C 0.7988 0.49115 0.61943 0.0
C4056 C 0.78798 0.45961 0.63072 0.0
C4057 C 0.77945 0.49519 0.61358 0.0
C4058 C 0.76452 0.48155 0.61615 0.0
C4059 C 0.75407 0.44927 0.62674 0.0
C4060 C 0.75902 0.43109 0.63456 0.0
C4061 C 0.76863 0.46357 0.62461 0.0
C4062 C 0.77835 0.42783 0.64084 0.0
C4063 C 0.79258 0.44187 0.63904 0.0
H4064 H 0.74282 0.54187 0.88045 0.0
H4065 H 0.75269 0.54641 0.82077 0.0
H4066 H 0.7779 0.52117 0.82281 0.0
H4067 H 0.80083 0.50234 0.84272 0.0
H4068 H 0.79099 0.49762 0.9024 0.0
H4069 H 0.76176 0.51819 0.89935 0.0
C4070 C 0.75 0.53671 0.86781 0.0
C4071 C 0.74597 0.54573 0.85046 0.0
C4072 C 0.76461 0.52245 0.86922 0.0
C4073 C 0.75543 0.53935 0.83417 0.0
C4074 C 0.76998 0.52512 0.8354 0.0
C4075 C 0.79189 0.5054 0.85491 0.0
C4076 C 0.79793 0.4987 0.87276 0.0
C4077 C 0.77526 0.51722 0.853 0.0
C4078 C 0.78642 0.5026 0.88854 0.0
C4079 C 0.76985 0.51446 0.88679 0.0
H4080 H 0.76298 0.54463 0.11572 0.0
H4081 H 0.74242 0.55218 0.17239 0.0
H4082 H 0.71797 0.5272 0.16713 0.0
H4083 H 0.69784 0.50962 0.14401 0.0
H4084 H 0.71718 0.50328 0.08671 0.0
H4085 H 0.74686 0.52143 0.09442 0.0
C4086 C 0.75384 0.53994 0.12719 0.0
C4087 C 0.75439 0.54998 0.14441 0.0
C4088 C 0.73917 0.52644 0.12363 0.0
C4089 C 0.74235 0.5443 0.15916 0.0
C4090 C 0.72813 0.53035 0.15599 0.0
C4091 C 0.70878 0.51197 0.13334 0.0
C4092 C 0.70529 0.50578 0.11474 0.0
C4093 C 0.7256 0.52237 0.1379 0.0
C4094 C 0.7196 0.50827 0.10105 0.0
C4095 C 0.7365 0.5186 0.10547 0.0
H4096 H 0.71963 0.50247 0.39637 0.0
H4097 H 0.68571 0.4839 0.34788 0.0
H4098 H 0.71164 0.4618 0.33881 0.0
H4099 H 0.74078 0.44351 0.34786 0.0
H4100 H 0.77468 0.46026 0.39671 0.0
H4101 H 0.75242 0.4876 0.40218 0.0
C4102 C 0.7182 0.49393 0.38359 0.0
C4103 C 0.70059 0.49445 0.37309 0.0
C4104 C 0.73317 0.48085 0.37855 0.0
C4105 C 0.69894 0.4834 0.35647 0.0
C4106 C 0.71378 0.47078 0.35121 0.0
C4107 C 0.7437 0.45367 0.35922 0.0
C4108 C 0.75923 0.45007 0.37183 0.0
C4109 C 0.73052 0.46877 0.36259 0.0
C4110 C 0.7629 0.46304 0.38668 0.0
C4111 C 0.74999 0.47845 0.38996 0.0
H4112 H 0.54499 0.35861 0.16954 0.0
H4113 H 0.51381 0.40761 0.19184 0.0
H4114 H 0.5345 0.40668 0.22052 0.0
H4115 H 0.56415 0.39385 0.23768 0.0
H4116 H 0.59462 0.3448 0.21453 0.0
H4117 H 0.57117 0.34336 0.18828 0.0
C4118 C 0.54251 0.36895 0.18078 0.0
C4119 C 0.52797 0.3833 0.17842 0.0
C4120 C 0.55437 0.36824 0.1972 0.0
C4121 C 0.52485 0.39641 0.19326 0.0
C4122 C 0.53677 0.39593 0.20964 0.0
C4123 C 0.56524 0.38253 0.22715 0.0
C4124 C 0.58097 0.36924 0.22819 0.0
C4125 C 0.55192 0.38215 0.21161 0.0
C4126 C 0.58252 0.35499 0.21418 0.0
C4127 C 0.56927 0.35433 0.199 0.0
H4128 H 0.0965 0.79557 0.98898 0.0
H4129 H 0.14525 0.82768 0.0115 0.0
H4130 H 0.15564 0.80013 0.03043 0.0
H4131 H 0.14849 0.76864 0.04373 0.0
H4132 H 0.09821 0.7373 0.02367 0.0
H4133 H 0.09105 0.76245 0.0004 0.0
C4134 C 0.10959 0.79633 0.99776 0.0
C4135 C 0.11998 0.81364 -0.00099 0.0
C4136 C 0.11517 0.78056 0.00912 0.0
C4137 C 0.13686 0.81455 0.01052 0.0
C4138 C 0.14285 0.7988 0.02133 0.0
C4139 C 0.13627 0.76708 0.03392 0.0
C4140 C 0.12387 0.75122 0.03539 0.0
C4141 C 0.13178 0.78196 0.0212 0.0
C4142 C 0.10797 0.74944 0.02275 0.0
C4143 C 0.10379 0.76388 0.00955 0.0
H4144 H 0.32671 0.21738 0.55614 0.0
H4145 H 0.37717 0.24713 0.53624 0.0
H4146 H 0.38136 0.22302 0.51111 0.0
H4147 H 0.37272 0.19108 0.49718 0.0
H4148 H 0.32209 0.16181 0.51807 0.0
H4149 H 0.31583 0.18798 0.53999 0.0
C4150 C 0.33821 0.21889 0.54587 0.0
C4151 C 0.35136 0.23416 0.54773 0.0
C4152 C 0.3407 0.20479 0.53173 0.0
C4153 C 0.36659 0.23569 0.53476 0.0
C4154 C 0.3691 0.22178 0.52052 0.0
C4155 C 0.3601 0.19066 0.50624 0.0
C4156 C 0.34811 0.17425 0.50607 0.0
C4157 C 0.35655 0.20591 0.51916 0.0
C4158 C 0.33183 0.17402 0.51802 0.0
C4159 C 0.32816 0.18904 0.53063 0.0
H4160 H 0.21091 0.50203 0.35615 0.0
H4161 H 0.21018 0.50854 0.41659 0.0
H4162 H 0.23297 0.53551 0.41462 0.0
H4163 H 0.25013 0.55967 0.39513 0.0
H4164 H 0.25249 0.55164 0.3349 0.0
H4165 H 0.23213 0.52291 0.33724 0.0
C4166 C 0.2163 0.50895 0.36894 0.0
C4167 C 0.20904 0.50313 0.38653 0.0
C4168 C 0.22939 0.52445 0.36764 0.0
C4169 C 0.21586 0.51243 0.40295 0.0
C4170 C 0.22868 0.52806 0.40177 0.0
C4171 C 0.2464 0.55142 0.38259 0.0
C4172 C 0.25265 0.55783 0.36482 0.0
C4173 C 0.23507 0.53458 0.38414 0.0
C4174 C 0.24787 0.54697 0.34869 0.0
C4175 C 0.23619 0.53057 0.35004 0.0
H4176 H 0.19042 0.47577 0.09585 0.0
H4177 H 0.21005 0.51301 0.14077 0.0
H4178 H 0.23791 0.49126 0.14726 0.0
H4179 H 0.25314 0.45858 0.1434 0.0
H4180 H 0.23119 0.42144 0.09908 0.0
H4181 H 0.20801 0.44609 0.08906 0.0
C4182 C 0.20124 0.47945 0.1066 0.0
C4183 C 0.19836 0.49592 0.11774 0.0
C4184 C 0.2166 0.46659 0.11064 0.0
C4185 C 0.21223 0.50053 0.1318 0.0
C4186 C 0.22796 0.48792 0.1357 0.0
C4187 C 0.24357 0.45615 0.13132 0.0
C4188 C 0.24365 0.43807 0.12223 0.0
C4189 C 0.2298 0.47043 0.12574 0.0
C4190 C 0.23117 0.43509 0.10656 0.0
C4191 C 0.21791 0.4492 0.10074 0.0
H4192 H 0.23773 0.44791 0.87822 0.0
H4193 H 0.2505 0.43798 0.81965 0.0
H4194 H 0.27451 0.46392 0.82048 0.0
H4195 H 0.2963 0.48409 0.83985 0.0
H4196 H 0.28385 0.49359 0.89864 0.0
H4197 H 0.25491 0.47329 0.89584 0.0
C4198 C 0.24521 0.45209 0.86549 0.0
C4199 C 0.24265 0.4413 0.84893 0.0
C4200 C 0.25925 0.46653 0.8663 0.0
C4201 C 0.2523 0.44642 0.83244 0.0
C4202 C 0.26617 0.461 0.83302 0.0
C4203 C 0.28695 0.48199 0.8519 0.0
C4204 C 0.29224 0.48973 0.86952 0.0
C4205 C 0.27051 0.47032 0.85016 0.0
C4206 C 0.27999 0.48748 0.88501 0.0
C4207 C 0.26354 0.47587 0.88342 0.0
H4208 H 0.24224 0.54516 0.59026 0.0
H4209 H 0.24274 0.55306 0.65054 0.0
H4210 H 0.2673 0.52739 0.65405 0.0
H4211 H 0.29272 0.50703 0.63923 0.0
H4212 H 0.29146 0.49853 0.57894 0.0
H4213 H 0.26306 0.52007 0.57604 0.0
C4214 C 0.24707 0.54056 0.6042 0.0
C4215 C 0.24065 0.55075 0.62014 0.0
C4216 C 0.26147 0.52613 0.606 0.0
C4217 C 0.24721 0.54507 0.63814 0.0
C4218 C 0.26153 0.53067 0.64009 0.0
C4219 C 0.28597 0.50969 0.62553 0.0
C4220 C 0.29428 0.50159 0.60927 0.0
C4221 C 0.26945 0.52181 0.62403 0.0
C4222 C 0.28531 0.50475 0.59161 0.0
C4223 C 0.26911 0.51706 0.58995 0.0
H4224 H 0.01982 0.12427 0.43437 0.0
H4225 H 0.06452 0.08431 0.41655 0.0
H4226 H 0.08348 0.09098 0.44551 0.0
H4227 H 0.08707 0.10798 0.47624 0.0
H4228 H 0.04394 0.15048 0.49208 0.0
H4229 H 0.02449 0.14276 0.46383 0.0
C4230 C 0.03364 0.11687 0.43688 0.0
C4231 C 0.04054 0.10349 0.42342 0.0
C4232 C 0.04472 0.12125 0.45328 0.0
C4233 C 0.05875 0.0945 0.42671 0.0
C4234 C 0.06959 0.09833 0.44329 0.0
C4235 C 0.07356 0.11576 0.47338 0.0
C4236 C 0.06708 0.12993 0.48629 0.0
C4237 C 0.06272 0.11168 0.4567 0.0
C4238 C 0.04934 0.13958 0.48244 0.0
C4239 C 0.03819 0.13516 0.46626 0.0
H4240 H 0.11143 0.80897 0.73138 0.0
H4241 H 0.1604 0.84756 0.73077 0.0
H4242 H 0.1687 0.83655 0.69902 0.0
H4243 H 0.1619 0.81587 0.67143 0.0
H4244 H 0.11407 0.77592 0.67311 0.0
H4245 H 0.10538 0.78756 0.70446 0.0
C4246 C 0.12397 0.81488 0.72431 0.0
C4247 C 0.13517 0.82916 0.7332 0.0
C4248 C 0.12878 0.8083 0.70626 0.0
C4249 C 0.15147 0.83664 0.72403 0.0
C4250 C 0.1562 0.83038 0.70591 0.0
C4251 C 0.14951 0.80985 0.67865 0.0
C4252 C 0.13856 0.79518 0.67004 0.0
C4253 C 0.14489 0.81627 0.69685 0.0
C4254 C 0.12272 0.78722 0.67956 0.0
C4255 C 0.11775 0.79385 0.69746 0.0
H4256 H 0.41085 0.84036 0.97894 0.0
H4257 H 0.44326 0.88683 0.00439 0.0
H4258 H 0.46715 0.88505 0.97919 0.0
H4259 H 0.4753 0.87408 0.94757 0.0
H4260 H 0.44167 0.82921 0.92073 0.0
H4261 H 0.422 0.82599 0.94913 0.0
C4262 C 0.42355 0.84953 0.97929 0.0
C4263 C 0.42545 0.86368 0.99332 0.0
C4264 C 0.43679 0.84884 0.96442 0.0
C4265 C 0.44161 0.87591 0.99354 0.0
C4266 C 0.4552 0.87493 0.97915 0.0
C4267 C 0.46392 0.86334 0.94812 0.0
C4268 C 0.45957 0.85217 0.93215 0.0
C4269 C 0.4524 0.86205 0.96413 0.0
C4270 C 0.44506 0.83808 0.93294 0.0
C4271 C 0.43378 0.83632 0.94909 0.0
H4272 H 0.35007 0.2029 0.23381 0.0
H4273 H 0.40149 0.16782 0.22557 0.0
H4274 H 0.40263 0.17764 0.19245 0.0
H4275 H 0.38969 0.19728 0.16611 0.0
H4276 H 0.34115 0.23588 0.17548 0.0
H4277 H 0.33803 0.22376 0.20777 0.0
C4278 C 0.36141 0.19739 0.22465 0.0
C4279 C 0.37556 0.18456 0.2319 0.0
C4280 C 0.36246 0.2038 0.20586 0.0
C4281 C 0.39042 0.17767 0.22015 0.0
C4282 C 0.39107 0.18328 0.20125 0.0
C4283 C 0.37835 0.20286 0.17523 0.0
C4284 C 0.36549 0.21722 0.1685 0.0
C4285 C 0.37727 0.19646 0.19399 0.0
C4286 C 0.35112 0.22473 0.18045 0.0
C4287 C 0.34936 0.21782 0.19887 0.0
H4288 H 0.01645 0.85803 0.06148 0.0
H4289 H 0.05903 0.8986 0.08203 0.0
H4290 H 0.07592 0.89695 0.05158 0.0
H4291 H 0.07783 0.88413 0.01881 0.0
H4292 H 0.03713 0.84065 0.00047 0.0
H4293 H 0.01984 0.84355 0.03023 0.0
C4294 C 0.0294 0.86657 0.05924 0.0
C4295 C 0.03637 0.87867 0.07372 0.0
C4296 C 0.0392 0.86508 0.04209 0.0
C4297 C 0.05341 0.8893 0.07095 0.0
C4298 C 0.06297 0.88837 0.05357 0.0
C4299 C 0.06533 0.87517 0.02147 0.0
C4300 C 0.05879 0.86216 0.0075 0.0
C4301 C 0.05593 0.87635 0.03899 0.0
C4302 C 0.04244 0.85075 0.011 0.0
C4303 C 0.03256 0.85238 0.02801 0.0
H4304 H 0.40682 0.81263 0.24904 0.0
H4305 H 0.34425 0.82052 0.24628 0.0
H4306 H 0.34192 0.81267 0.27979 0.0
H4307 H 0.35779 0.80345 0.30962 0.0
H4308 H 0.42053 0.79687 0.31265 0.0
H4309 H 0.42281 0.80471 0.27917 0.0
C4310 C 0.39269 0.81236 0.25578 0.0
C4311 C 0.37568 0.81674 0.24539 0.0
C4312 C 0.39156 0.80837 0.27501 0.0
C4313 C 0.35746 0.8169 0.25417 0.0
C4314 C 0.35614 0.81255 0.27326 0.0
C4315 C 0.37194 0.80387 0.30293 0.0
C4316 C 0.38895 0.79953 0.31334 0.0
C4317 C 0.37311 0.80831 0.2838 0.0
C4318 C 0.40726 0.80018 0.30474 0.0
C4319 C 0.40856 0.80454 0.28564 0.0
H4320 H 0.4584 0.09465 0.54738 0.0
H4321 H 0.4165 0.12533 0.58153 0.0
H4322 H 0.3959 0.13112 0.55388 0.0
H4323 H 0.38992 0.12795 0.52049 0.0
H4324 H 0.43069 0.09754 0.4851 0.0
H4325 H 0.452 0.09138 0.51282 0.0
C4326 C 0.44476 0.10258 0.54866 0.0
C4327 C 0.43889 0.10953 0.56638 0.0
C4328 C 0.43294 0.10594 0.5326 0.0
C4329 C 0.42126 0.11983 0.56801 0.0
C4330 C 0.40949 0.12317 0.55223 0.0
C4331 C 0.40331 0.11968 0.51881 0.0
C4332 C 0.40863 0.11286 0.50095 0.0
C4333 C 0.41519 0.11629 0.53455 0.0
C4334 C 0.42633 0.10279 0.49884 0.0
C4335 C 0.43842 0.09928 0.51464 0.0
H4336 H 0.13997 0.16066 0.78372 0.0
H4337 H 0.10756 0.2104 0.76414 0.0
H4338 H 0.11372 0.2267 0.79428 0.0
H4339 H 0.12829 0.22693 0.82621 0.0
H4340 H 0.15945 0.17668 0.84658 0.0
H4341 H 0.15372 0.16051 0.81627 0.0
C4342 C 0.13426 0.17507 0.78607 0.0
C4343 C 0.12341 0.18436 0.77161 0.0
C4344 C 0.13765 0.18429 0.80362 0.0
C4345 C 0.116 0.20296 0.77496 0.0
C4346 C 0.11953 0.21229 0.79222 0.0
C4347 C 0.13395 0.21247 0.82405 0.0
C4348 C 0.1445 0.20317 0.83873 0.0
C4349 C 0.13037 0.20313 0.80664 0.0
C4350 C 0.15139 0.18429 0.83561 0.0
C4351 C 0.14811 0.17501 0.81824 0.0
H4352 H 0.45825 0.09836 0.13136 0.0
H4353 H 0.48902 0.04398 0.13155 0.0
H4354 H 0.45809 0.02709 0.1256 0.0
H4355 H 0.42216 0.02803 0.11985 0.0
H4356 H 0.3925 0.08312 0.11725 0.0
H4357 H 0.4231 0.09944 0.12435 0.0
C4358 C 0.45817 0.08277 0.13036 0.0
C4359 C 0.47585 0.07236 0.13232 0.0
C4360 C 0.44052 0.07332 0.12621 0.0
C4361 C 0.47556 0.05225 0.13039 0.0
C4362 C 0.45789 0.04264 0.12688 0.0
C4363 C 0.42242 0.04361 0.12073 0.0
C4364 C 0.40493 0.05428 0.11796 0.0
C4365 C 0.44026 0.05304 0.12463 0.0
C4366 C 0.40564 0.07448 0.11911 0.0
C4367 C 0.42316 0.08387 0.12333 0.0
H4368 H 0.14695 0.21103 0.37576 0.0
H4369 H 0.19554 0.24379 0.35579 0.0
H4370 H 0.20934 0.21487 0.34119 0.0
H4371 H 0.20901 0.17992 0.3366 0.0
H4372 H 0.16009 0.147 0.35588 0.0
H4373 H 0.14453 0.17647 0.36766 0.0
C4374 C 0.16036 0.21185 0.36798 0.0
C4375 C 0.17029 0.22944 0.36702 0.0
C4376 C 0.16806 0.19519 0.35942 0.0
C4377 C 0.18771 0.23037 0.35686 0.0
C4378 C 0.19558 0.21386 0.34848 0.0
C4379 C 0.19476 0.17921 0.34305 0.0
C4380 C 0.18587 0.16124 0.34563 0.0
C4381 C 0.18607 0.19613 0.34999 0.0
C4382 C 0.16729 0.16062 0.35378 0.0
C4383 C 0.15847 0.17745 0.36068 0.0
H4384 H 0.06663 0.9825 0.59982 0.0
H4385 H 0.1044 0.93231 0.60262 0.0
H4386 H 0.0761 0.91151 0.60298 0.0
H4387 H 0.04109 0.90785 0.6071 0.0
H4388 H 0.00274 0.95726 0.60411 0.0
H4389 H 0.03085 0.97817 0.59914 0.0
C4390 C 0.06868 0.96701 0.60012 0.0
C4391 C 0.08764 0.95905 0.60157 0.0
C4392 C 0.05228 0.95502 0.60053 0.0
C4393 C 0.09001 0.93891 0.60174 0.0
C4394 C 0.07382 0.92695 0.60201 0.0
C4395 C 0.03883 0.92309 0.60487 0.0
C4396 C 0.02 0.93103 0.60613 0.0
C4397 C 0.05496 0.93489 0.60211 0.0
C4398 C 0.01719 0.95085 0.60326 0.0
C4399 C 0.03325 0.9628 0.6005 0.0
H4400 H 0.32561 0.7709 0.85568 0.0
H4401 H 0.28159 0.75781 0.8964 0.0
H4402 H 0.26857 0.79058 0.89402 0.0
H4403 H 0.27083 0.82329 0.88165 0.0
H4404 H 0.31737 0.83772 0.84401 0.0
H4405 H 0.32877 0.80414 0.84419 0.0
C4406 C 0.31341 0.77536 0.86422 0.0
C4407 C 0.30478 0.76215 0.87639 0.0
C4408 C 0.30656 0.79441 0.86335 0.0
C4409 C 0.28853 0.76782 0.88699 0.0
C4410 C 0.28112 0.78653 0.88566 0.0
C4411 C 0.28334 0.81901 0.87332 0.0
C4412 C 0.29315 0.83275 0.86265 0.0
C4413 C 0.29016 0.79998 0.87406 0.0
C4414 C 0.3096 0.82724 0.85226 0.0
C4415 C 0.31608 0.80811 0.85236 0.0
H4416 H 0.42501 0.96388 0.3532 0.0
H4417 H 0.40145 0.92733 0.39624 0.0
H4418 H 0.43241 0.91 0.39884 0.0
H4419 H 0.46589 0.90511 0.3892 0.0
H4420 H 0.49023 0.93988 0.34532 0.0
H4421 H 0.45915 0.95791 0.34245 0.0
C4422 C 0.42681 0.95222 0.36322 0.0
C4423 C 0.41106 0.94698 0.37465 0.0
C4424 C 0.44465 0.94194 0.36436 0.0
C4425 C 0.41336 0.93163 0.38732 0.0
C4426 C 0.43105 0.92169 0.38882 0.0
C4427 C 0.46445 0.91667 0.37899 0.0
C4428 C 0.4803 0.92135 0.36761 0.0
C4429 C 0.44672 0.92671 0.37742 0.0
C4430 C 0.47815 0.93608 0.35423 0.0
C4431 C 0.46044 0.9464 0.35268 0.0
H4432 H 0.31865 0.16351 0.63484 0.0
H4433 H 0.26234 0.18578 0.65141 0.0
H4434 H 0.2706 0.2175 0.63942 0.0
H4435 H 0.29307 0.23831 0.62227 0.0
H4436 H 0.34871 0.21556 0.60485 0.0
H4437 H 0.34149 0.18452 0.61885 0.0
C4438 C 0.30838 0.17541 0.63617 0.0
C4439 C 0.28996 0.17241 0.64388 0.0
C4440 C 0.31296 0.19338 0.62875 0.0
C4441 C 0.27664 0.18784 0.64541 0.0
C4442 C 0.28126 0.20591 0.63846 0.0
C4443 C 0.30345 0.22644 0.6215 0.0
C4444 C 0.32137 0.22901 0.61275 0.0
C4445 C 0.29917 0.20869 0.62964 0.0
C4446 C 0.33495 0.21382 0.61185 0.0
C4447 C 0.33081 0.19609 0.61981 0.0
H4448 H 0.09198 0.06212 0.87446 0.0
H4449 H 0.06637 0.02153 0.91239 0.0
H4450 H 0.03392 0.03567 0.90631 0.0
H4451 H 0.01282 0.05921 0.88939 0.0
H4452 H 0.03788 0.09568 0.84736 0.0
H4453 H 0.07064 0.08354 0.85558 0.0
C4454 C 0.07928 0.05641 0.88134 0.0
C4455 C 0.08145 0.04096 0.89391 0.0
C4456 C 0.06062 0.06368 0.87676 0.0
C4457 C 0.06494 0.03355 0.90276 0.0
C4458 C 0.04643 0.04151 0.89918 0.0
C4459 C 0.02548 0.06409 0.8818 0.0
C4460 C 0.0232 0.07824 0.86787 0.0
C4461 C 0.04407 0.05639 0.88599 0.0
C4462 C 0.03949 0.08467 0.85806 0.0
C4463 C 0.05816 0.07778 0.86279 0.0
H4464 H 0.20588 0.81869 0.11107 0.0
H4465 H 0.15988 0.84839 0.14113 0.0
H4466 H 0.13937 0.8205 0.13847 0.0
H4467 H 0.13418 0.78762 0.12903 0.0
H4468 H 0.1789 0.75559 0.10008 0.0
H4469 H 0.19987 0.7844 0.10045 0.0
C4470 C 0.1914 0.81901 0.11705 0.0
C4471 C 0.18468 0.83587 0.1264 0.0
C4472 C 0.17928 0.80251 0.11555 0.0
C4473 C 0.16573 0.83587 0.13392 0.0
C4474 C 0.15381 0.81984 0.13238 0.0
C4475 C 0.14851 0.78686 0.12266 0.0
C4476 C 0.155 0.76942 0.11466 0.0
C4477 C 0.16043 0.80312 0.12338 0.0
C4478 C 0.17348 0.76885 0.10627 0.0
C4479 C 0.18552 0.7853 0.10667 0.0
H4480 H 0.13626 0.43604 0.03038 0.0
H4481 H 0.11041 0.40846 0.07821 0.0
H4482 H 0.11305 0.43848 0.09645 0.0
H4483 H 0.12281 0.47268 0.09865 0.0
H4484 H 0.15157 0.49893 0.0517 0.0
H4485 H 0.1476 0.46937 0.03316 0.0
C4486 C 0.13098 0.43665 0.04473 0.0
C4487 C 0.12275 0.42015 0.0528 0.0
C4488 C 0.13313 0.45372 0.05526 0.0
C4489 C 0.11658 0.42101 0.07161 0.0
C4490 C 0.11812 0.43816 0.08203 0.0
C4491 C 0.12823 0.47188 0.08438 0.0
C4492 C 0.13736 0.48801 0.07649 0.0
C4493 C 0.12638 0.45462 0.074 0.0
C4494 C 0.14446 0.48674 0.05804 0.0
C4495 C 0.14217 0.46985 0.04745 0.0
H4496 H 0.61236 0.00394 0.92348 0.0
H4497 H 0.67277 0.00369 0.94175 0.0
H4498 H 0.66874 0.0359 0.95521 0.0
H4499 H 0.6483 0.06456 0.96081 0.0
H4500 H 0.58788 0.06484 0.94257 0.0
H4501 H 0.5917 0.03228 0.92978 0.0
C4502 C 0.62457 0.01092 0.93055 0.0
C4503 C 0.64282 0.00157 0.93161 0.0
C4504 C 0.6222 0.02948 0.93805 0.0
C4505 C 0.65854 0.01063 0.94085 0.0
C4506 C 0.65629 0.02908 0.94843 0.0
C4507 C 0.636 0.05746 0.95403 0.0
C4508 C 0.61787 0.06699 0.95255 0.0
C4509 C 0.63825 0.03872 0.94692 0.0
C4510 C 0.60198 0.05769 0.94385 0.0
C4511 C 0.60414 0.0391 0.93658 0.0
H4512 H 0.24141 0.3594 0.16386 0.0
H4513 H 0.25363 0.40386 0.20492 0.0
H4514 H 0.22794 0.39125 0.2252 0.0
H4515 H 0.20124 0.36855 0.23022 0.0
H4516 H 0.18635 0.32715 0.18695 0.0
H4517 H 0.21434 0.33743 0.16838 0.0
C4518 C 0.23839 0.36645 0.17719 0.0
C4519 C 0.24922 0.38261 0.18291 0.0
C4520 C 0.22341 0.35947 0.18834 0.0
C4521 C 0.24532 0.39149 0.20024 0.0
C4522 C 0.23075 0.38422 0.21181 0.0
C4523 C 0.20443 0.36147 0.21693 0.0
C4524 C 0.19218 0.34679 0.21006 0.0
C4525 C 0.21968 0.36828 0.20593 0.0
C4526 C 0.19593 0.33818 0.19257 0.0
C4527 C 0.21174 0.34419 0.18194 0.0
H4528 H 0.8632 0.92193 0.47477 0.0
H4529 H 0.90247 0.90472 0.43059 0.0
H4530 H 0.89474 0.93428 0.41328 0.0
H4531 H 0.8766 0.96447 0.4106 0.0
H4532 H 0.83533 0.98103 0.45325 0.0
H4533 H 0.84398 0.95207 0.47143 0.0
C4534 C 0.87028 0.92487 0.46151 0.0
C4535 C 0.88366 0.91147 0.45406 0.0
C4536 C 0.86523 0.94154 0.45136 0.0
C4537 C 0.89231 0.91502 0.43662 0.0
C4538 C 0.88783 0.93182 0.42672 0.0
C4539 C 0.86936 0.9617 0.42381 0.0
C4540 C 0.85534 0.97477 0.43062 0.0
C4541 C 0.87422 0.94506 0.43391 0.0
C4542 C 0.84613 0.97107 0.44775 0.0
C4543 C 0.85114 0.9546 0.45814 0.0
H4544 H 0.82054 0.12642 0.18312 0.0
H4545 H 0.80932 0.08689 0.22832 0.0
H4546 H 0.77754 0.07917 0.21434 0.0
H4547 H 0.75202 0.08457 0.18987 0.0
H4548 H 0.76202 0.12619 0.14627 0.0
H4549 H 0.79485 0.13201 0.15875 0.0
C4550 C 0.81119 0.11599 0.18975 0.0
C4551 C 0.81731 0.10727 0.20673 0.0
C4552 C 0.79254 0.11201 0.18192 0.0
C4553 C 0.80491 0.09393 0.2153 0.0
C4554 C 0.7867 0.08947 0.20731 0.0
C4555 C 0.76142 0.09487 0.18312 0.0
C4556 C 0.75462 0.10476 0.16702 0.0
C4557 C 0.7802 0.0986 0.19075 0.0
C4558 C 0.76697 0.11815 0.1585 0.0
C4559 C 0.78576 0.12158 0.1657 0.0
H4560 H 0.40399 0.56448 0.56473 0.0
H4561 H 0.38485 0.54837 0.50854 0.0
H4562 H 0.36883 0.5201 0.52097 0.0
H4563 H 0.35837 0.50111 0.54799 0.0
H4564 H 0.37946 0.51556 0.60383 0.0
H4565 H 0.39633 0.54356 0.59143 0.0
C4566 C 0.39655 0.55462 0.5552 0.0
C4567 C 0.39549 0.55858 0.53581 0.0
C4568 C 0.38738 0.53835 0.56241 0.0
C4569 C 0.38595 0.54562 0.52355 0.0
C4570 C 0.37661 0.52953 0.53064 0.0
C4571 C 0.36662 0.51046 0.5574 0.0
C4572 C 0.36729 0.50675 0.5768 0.0
C4573 C 0.37687 0.52601 0.55008 0.0
C4574 C 0.37842 0.51853 0.58888 0.0
C4575 C 0.38818 0.53441 0.58178 0.0
H4576 H 0.18727 0.62663 0.27872 0.0
H4577 H 0.17572 0.66943 0.32144 0.0
H4578 H 0.20788 0.66297 0.33607 0.0
H4579 H 0.2384 0.64366 0.33748 0.0
H4580 H 0.24703 0.59766 0.29736 0.0
H4581 H 0.21704 0.60707 0.28059 0.0
C4582 C 0.19198 0.63488 0.29098 0.0
C4583 C 0.1794 0.64878 0.2988 0.0
C4584 C 0.20986 0.63032 0.29983 0.0
C4585 C 0.18536 0.65888 0.31505 0.0
C4586 C 0.20364 0.65508 0.32345 0.0
C4587 C 0.23353 0.63554 0.32527 0.0
C4588 C 0.24471 0.61979 0.31889 0.0
C4589 C 0.21583 0.64054 0.31617 0.0
C4590 C 0.23859 0.60975 0.30265 0.0
C4591 C 0.22146 0.61513 0.29304 0.0
H4592 H 0.32398 0.35325 0.80621 0.0
H4593 H 0.29751 0.33462 0.75369 0.0
H4594 H 0.26497 0.34131 0.76629 0.0
H4595 H 0.24416 0.35514 0.79156 0.0
H4596 H 0.27207 0.37736 0.84199 0.0
H4597 H 0.30378 0.36663 0.83094 0.0
C4598 C 0.31112 0.3504 0.79754 0.0
C4599 C 0.31321 0.34349 0.77902 0.0
C4600 C 0.29263 0.35509 0.80452 0.0
C4601 C 0.29633 0.33998 0.76801 0.0
C4602 C 0.27772 0.3439 0.77517 0.0
C4603 C 0.2572 0.35741 0.80014 0.0
C4604 C 0.25571 0.36666 0.81776 0.0
C4605 C 0.27569 0.35189 0.79329 0.0
C4606 C 0.27274 0.36983 0.82862 0.0
C4607 C 0.29094 0.36383 0.82224 0.0
H4608 H 0.91185 0.88157 0.51993 0.0
H4609 H 0.95345 0.83809 0.50288 0.0
H4610 H 0.97349 0.84465 0.53096 0.0
H4611 H 0.97895 0.86221 0.56068 0.0
H4612 H 0.93591 0.90339 0.57965 0.0
H4613 H 0.91649 0.89806 0.55074 0.0
C4614 C 0.9252 0.87342 0.52247 0.0
C4615 C 0.9311 0.8593 0.50934 0.0
C4616 C 0.93638 0.87685 0.53902 0.0
C4617 C 0.94856 0.849 0.51274 0.0
C4618 C 0.96003 0.85275 0.52882 0.0
C4619 C 0.9654 0.87015 0.55844 0.0
C4620 C 0.95903 0.88339 0.57221 0.0
C4621 C 0.95407 0.86659 0.54208 0.0
C4622 C 0.9412 0.89321 0.56924 0.0
C4623 C 0.9301 0.89016 0.55271 0.0
H4624 H 0.838 0.18193 0.32267 0.0
H4625 H 0.87373 0.22989 0.30657 0.0
H4626 H 0.87969 0.21495 0.27608 0.0
H4627 H 0.87692 0.18718 0.25493 0.0
H4628 H 0.83948 0.14018 0.26962 0.0
H4629 H 0.83205 0.15575 0.29972 0.0
C4630 C 0.84689 0.18917 0.31238 0.0
C4631 C 0.85552 0.20687 0.31692 0.0
C4632 C 0.85014 0.18059 0.29473 0.0
C4633 C 0.86685 0.21625 0.30341 0.0
C4634 C 0.87038 0.20768 0.28599 0.0
C4635 C 0.867 0.18046 0.26467 0.0
C4636 C 0.85919 0.16238 0.26043 0.0
C4637 C 0.86243 0.1897 0.28165 0.0
C4638 C 0.84603 0.15394 0.27289 0.0
C4639 C 0.84172 0.16285 0.29004 0.0
H4640 H 0.54758 0.11782 0.00349 0.0
H4641 H 0.58528 0.16322 0.02298 0.0
H4642 H 0.56619 0.1668 0.05165 0.0
H4643 H 0.54363 0.15188 0.07369 0.0
H4644 H 0.50683 0.10536 0.05483 0.0
H4645 H 0.52038 0.10745 0.02315 0.0
C4646 C 0.55102 0.129 0.01373 0.0
C4647 C 0.56757 0.14036 0.0113 0.0
C4648 C 0.5404 0.13042 0.03038 0.0
C4649 C 0.57227 0.1547 0.0245 0.0
C4650 C 0.56156 0.15648 0.04101 0.0
C4651 C 0.53825 0.14257 0.06246 0.0
C4652 C 0.52473 0.12817 0.06647 0.0
C4653 C 0.54631 0.14368 0.0445 0.0
C4654 C 0.51746 0.11639 0.05194 0.0
C4655 C 0.52525 0.11752 0.03391 0.0
H4656 H 0.6272 0.80632 0.83519 0.0
H4657 H 0.63936 0.75047 0.811 0.0
H4658 H 0.6374 0.76425 0.77922 0.0
H4659 H 0.63253 0.79267 0.75832 0.0
H4660 H 0.61929 0.84764 0.7836 0.0
H4661 H 0.62142 0.83382 0.81485 0.0
C4662 C 0.62959 0.79713 0.82301 0.0
C4663 C 0.63364 0.77746 0.82546 0.0
C4664 C 0.62826 0.80506 0.80493 0.0
C4665 C 0.6363 0.76571 0.80948 0.0
C4666 C 0.63516 0.77358 0.79131 0.0
C4667 C 0.63009 0.8015 0.77074 0.0
C4668 C 0.62632 0.8213 0.7687 0.0
C4669 C 0.63116 0.79328 0.78886 0.0
C4670 C 0.62295 0.83261 0.78476 0.0
C4671 C 0.62397 0.82464 0.80271 0.0
H4672 H 0.94819 0.09965 0.92186 0.0
H4673 H 0.99127 0.1435 0.93184 0.0
H4674 H 0.97972 0.14808 0.96405 0.0
H4675 H 0.95709 0.13971 0.9895 0.0
H4676 H 0.91631 0.09353 0.98041 0.0
H4677 H 0.92717 0.08971 0.94801 0.0
C4678 C 0.95496 0.1102 0.93113 0.0
C4679 C 0.97044 0.12127 0.92456 0.0
C4680 C 0.94867 0.11232 0.94986 0.0
C4681 C 0.97934 0.13475 0.9367 0.0
C4682 C 0.97274 0.1374 0.9551 0.0
C4683 C 0.95071 0.12876 0.98044 0.0
C4684 C 0.93566 0.11721 0.98723 0.0
C4685 C 0.95743 0.12624 0.96188 0.0
C4686 C 0.92771 0.10286 0.97542 0.0
C4687 C 0.93392 0.10062 0.95686 0.0
H4688 H 0.62503 0.15588 0.74196 0.0
H4689 H 0.60963 0.20749 0.77214 0.0
H4690 H 0.61004 0.22587 0.7425 0.0
H4691 H 0.61136 0.22599 0.70725 0.0
H4692 H 0.62252 0.17235 0.67812 0.0
H4693 H 0.62652 0.15575 0.70798 0.0
C4694 C 0.62162 0.1711 0.742 0.0
C4695 C 0.61683 0.18025 0.7589 0.0
C4696 C 0.62078 0.18106 0.72503 0.0
C4697 C 0.6133 0.20018 0.75912 0.0
C4698 C 0.61332 0.21059 0.74219 0.0
C4699 C 0.61467 0.2107 0.70759 0.0
C4700 C 0.61644 0.20032 0.69063 0.0
C4701 C 0.61643 0.20101 0.72494 0.0
C4702 C 0.6208 0.18055 0.69105 0.0
C4703 C 0.62324 0.17105 0.70808 0.0
H4704 H 0.59251 0.89363 0.48798 0.0
H4705 H 0.57814 0.83344 0.49105 0.0
H4706 H 0.56227 0.8351 0.45995 0.0
H4707 H 0.55311 0.85358 0.4316 0.0
H4708 H 0.56727 0.91384 0.42869 0.0
H4709 H 0.58294 0.91221 0.45989 0.0
C4710 C 0.58581 0.88093 0.48183 0.0
C4711 C 0.58649 0.86345 0.49167 0.0
C4712 C 0.57689 0.88196 0.46393 0.0
C4713 C 0.57772 0.84707 0.4837 0.0
C4714 C 0.56875 0.84799 0.4659 0.0
C4715 C 0.55966 0.86632 0.43782 0.0
C4716 C 0.55911 0.88378 0.42796 0.0
C4717 C 0.56839 0.86532 0.45583 0.0
C4718 C 0.56755 0.90024 0.43611 0.0
C4719 C 0.57645 0.89933 0.45393 0.0
H4720 H 0.87625 0.77313 0.1721 0.0
H4721 H 0.83284 0.81577 0.15641 0.0
H4722 H 0.83561 0.83033 0.18805 0.0
H4723 H 0.84985 0.82998 0.2207 0.0
H4724 H 0.89449 0.78792 0.23467 0.0
H4725 H 0.89135 0.77374 0.2033 0.0
C4726 C 0.86729 0.78559 0.17553 0.0
C4727 C 0.85414 0.79318 0.16196 0.0
C4728 C 0.86905 0.79383 0.19355 0.0
C4729 C 0.84303 0.8096 0.1666 0.0
C4730 C 0.84455 0.81785 0.18472 0.0
C4731 C 0.85892 0.81779 0.21679 0.0
C4732 C 0.8724 0.81001 0.23003 0.0
C4733 C 0.85739 0.80994 0.1984 0.0
C4734 C 0.88399 0.79414 0.22481 0.0
C4735 C 0.88225 0.78606 0.20683 0.0
H4736 H 0.54626 0.88652 0.88427 0.0
H4737 H 0.50973 0.93242 0.86254 0.0
H4738 H 0.53724 0.95492 0.86592 0.0
H4739 H 0.57134 0.96158 0.87697 0.0
H4740 H 0.60703 0.91465 0.89826 0.0
H4741 H 0.58001 0.89252 0.89344 0.0
C4742 C 0.54433 0.90145 0.88009 0.0
C4743 C 0.52601 0.90789 0.87329 0.0
C4744 C 0.55997 0.91413 0.88235 0.0
C4745 C 0.52376 0.92714 0.8677 0.0
C4746 C 0.53942 0.93999 0.86985 0.0
C4747 C 0.57309 0.94654 0.88072 0.0
C4748 C 0.59111 0.93984 0.8883 0.0
C4749 C 0.55749 0.93371 0.87756 0.0
C4750 C 0.59332 0.92023 0.8926 0.0
C4751 C 0.5779 0.90753 0.88977 0.0
H4752 H 0.78077 0.82847 0.6442 0.0
H4753 H 0.83588 0.85656 0.6353 0.0
H4754 H 0.85045 0.82607 0.62543 0.0
H4755 H 0.84722 0.79168 0.61798 0.0
H4756 H 0.79317 0.76287 0.62928 0.0
H4757 H 0.77836 0.79345 0.63919 0.0
C4758 C 0.79602 0.8279 0.64029 0.0
C4759 C 0.80711 0.84488 0.6403 0.0
C4760 C 0.80446 0.81021 0.63489 0.0
C4761 C 0.82692 0.8438 0.63534 0.0
C4762 C 0.8353 0.82635 0.62964 0.0
C4763 C 0.83234 0.79203 0.62299 0.0
C4764 C 0.82137 0.77504 0.62309 0.0
C4765 C 0.82415 0.80952 0.62917 0.0
C4766 C 0.80192 0.77578 0.6291 0.0
C4767 C 0.79347 0.79324 0.63482 0.0
H4768 H 0.90499 0.05017 0.37946 0.0
H4769 H 0.92773 0.00061 0.40919 0.0
H4770 H 0.9612 0.01226 0.40517 0.0
H4771 H 0.98392 0.03622 0.39187 0.0
H4772 H 0.9604 0.08205 0.35742 0.0
H4773 H 0.92719 0.07212 0.36422 0.0
C4774 C 0.91725 0.04192 0.3851 0.0
C4775 C 0.914 0.02466 0.39468 0.0
C4776 C 0.93625 0.04803 0.38171 0.0
C4777 C 0.92999 0.01402 0.40182 0.0
C4778 C 0.94906 0.02062 0.39944 0.0
C4779 C 0.97143 0.04392 0.38592 0.0
C4780 C 0.97436 0.0602 0.37471 0.0
C4781 C 0.95237 0.0375 0.38918 0.0
C4782 C 0.95833 0.06989 0.36659 0.0
C4783 C 0.93937 0.06415 0.37039 0.0
H4784 H 0.6662 0.22112 0.14263 0.0
H4785 H 0.70631 0.23681 0.09903 0.0
H4786 H 0.7198 0.20409 0.09877 0.0
H4787 H 0.71965 0.17097 0.11049 0.0
H4788 H 0.67784 0.15465 0.15237 0.0
H4789 H 0.66529 0.18769 0.15361 0.0
C4790 C 0.67785 0.21731 0.13306 0.0
C4791 C 0.6853 0.23121 0.12088 0.0
C4792 C 0.68515 0.19842 0.13266 0.0
C4793 C 0.70039 0.22624 0.10852 0.0
C4794 C 0.70808 0.20759 0.10837 0.0
C4795 C 0.70791 0.17471 0.12 0.0
C4796 C 0.69977 0.16053 0.13144 0.0
C4797 C 0.70053 0.19356 0.12033 0.0
C4798 C 0.68432 0.1654 0.14344 0.0
C4799 C 0.67717 0.18425 0.14418 0.0
H4800 H 0.51101 0.04208 0.61104 0.0
H4801 H 0.52338 0.08388 0.6545 0.0
H4802 H 0.55811 0.07477 0.65411 0.0
H4803 H 0.58536 0.05753 0.63825 0.0
H4804 H 0.57216 0.01464 0.59595 0.0
H4805 H 0.53724 0.0218 0.59864 0.0
C4806 C 0.52124 0.0487 0.6209 0.0
C4807 C 0.51479 0.06367 0.63269 0.0
C4808 C 0.54105 0.04364 0.62027 0.0
C4809 C 0.52803 0.07226 0.64537 0.0
C4810 C 0.54793 0.06725 0.64491 0.0
C4811 C 0.57478 0.04983 0.62966 0.0
C4812 C 0.58119 0.03595 0.61658 0.0
C4813 C 0.55469 0.05353 0.63182 0.0
C4814 C 0.56745 0.02562 0.60585 0.0
C4815 C 0.54754 0.02959 0.6075 0.0
H4816 H 0.73384 0.8213 0.3603 0.0
H4817 H 0.68161 0.83474 0.32791 0.0
H4818 H 0.66888 0.80264 0.33418 0.0
H4819 H 0.67129 0.77221 0.35151 0.0
H4820 H 0.72207 0.76023 0.38643 0.0
H4821 H 0.73688 0.79035 0.3764 0.0
C4822 C 0.7199 0.81705 0.3542 0.0
C4823 C 0.70869 0.83028 0.34358 0.0
C4824 C 0.71235 0.79897 0.35855 0.0
C4825 C 0.69049 0.82472 0.33608 0.0
C4826 C 0.68318 0.80645 0.33975 0.0
C4827 C 0.68564 0.77617 0.35681 0.0
C4828 C 0.69555 0.76422 0.36979 0.0
C4829 C 0.69375 0.79369 0.35142 0.0
C4830 C 0.71417 0.76934 0.3765 0.0
C4831 C 0.72262 0.78651 0.37077 0.0
H4832 H 0.90195 0.92571 0.12226 0.0
H4833 H 0.92491 0.9659 0.08239 0.0
H4834 H 0.95765 0.95166 0.08648 0.0
H4835 H 0.98013 0.92945 0.10357 0.0
H4836 H 0.95791 0.89495 0.1487 0.0
H4837 H 0.92454 0.90568 0.14113 0.0
C4838 C 0.91414 0.93136 0.11455 0.0
C4839 C 0.91114 0.9468 0.10213 0.0
C4840 C 0.93307 0.92437 0.11832 0.0
C4841 C 0.92696 0.95391 0.09197 0.0
C4842 C 0.94565 0.94592 0.09446 0.0
C4843 C 0.96792 0.92449 0.11179 0.0
C4844 C 0.97127 0.91149 0.1266 0.0
C4845 C 0.94897 0.93151 0.10799 0.0
C4846 C 0.95555 0.90506 0.13729 0.0
C4847 C 0.93651 0.91109 0.13289 0.0
H4848 H 0.86137 0.21039 0.86596 0.0
H4849 H 0.81809 0.24414 0.89508 0.0
H4850 H 0.79543 0.21669 0.89364 0.0
H4851 H 0.78738 0.18362 0.88153 0.0
H4852 H 0.83179 0.15162 0.85155 0.0
H4853 H 0.85436 0.17795 0.85566 0.0
C4854 C 0.84703 0.21171 0.87222 0.0
C4855 C 0.84135 0.22926 0.88052 0.0
C4856 C 0.83414 0.19625 0.87084 0.0
C4857 C 0.82285 0.23072 0.88874 0.0
C4858 C 0.80985 0.21509 0.88768 0.0
C4859 C 0.80197 0.18247 0.87585 0.0
C4860 C 0.80767 0.16558 0.86602 0.0
C4861 C 0.81518 0.19789 0.87829 0.0
C4862 C 0.82678 0.16432 0.85903 0.0
C4863 C 0.83983 0.1794 0.86143 0.0
H4864 H 0.85985 0.55875 0.96851 0.0
H4865 H 0.89141 0.58526 0.92347 0.0
H4866 H 0.88939 0.55549 0.9049 0.0
H4867 H 0.87809 0.52184 0.90122 0.0
H4868 H 0.84338 0.49687 0.94491 0.0
H4869 H 0.84746 0.52576 0.96429 0.0
C4870 C 0.86646 0.55794 0.95471 0.0
C4871 C 0.87598 0.57418 0.94751 0.0
C4872 C 0.86465 0.54096 0.94383 0.0
C4873 C 0.88407 0.57299 0.92941 0.0
C4874 C 0.88292 0.55594 0.91877 0.0
C4875 C 0.87131 0.52279 0.91491 0.0
C4876 C 0.86035 0.50718 0.92152 0.0
C4877 C 0.87313 0.53984 0.92577 0.0
C4878 C 0.85185 0.50863 0.93942 0.0
C4879 C 0.85417 0.52519 0.95054 0.0
H4880 H 0.38508 0.94174 0.03899 0.0
H4881 H 0.33433 0.91624 0.06373 0.0
H4882 H 0.32704 0.94655 0.08018 0.0
H4883 H 0.33576 0.97987 0.08799 0.0
H4884 H 0.38498 0.00613 0.06126 0.0
H4885 H 0.39242 0.97575 0.04499 0.0
C4886 C 0.37238 0.9429 0.04794 0.0
C4887 C 0.36029 0.92694 0.05037 0.0
C4888 C 0.36816 0.96035 0.05697 0.0
C4889 C 0.34375 0.92849 0.06172 0.0
C4890 C 0.33967 0.94572 0.07115 0.0
C4891 C 0.34814 0.97887 0.07862 0.0
C4892 C 0.36004 0.99495 0.07589 0.0
C4893 C 0.35189 0.96165 0.06899 0.0
C4894 C 0.37577 0.99378 0.06351 0.0
C4895 C 0.37998 0.97649 0.05427 0.0
H4896 H 0.76486 0.62253 0.83631 0.0
H4897 H 0.73076 0.62661 0.78502 0.0
H4898 H 0.75809 0.64206 0.76927 0.0
H4899 H 0.79257 0.6519 0.76969 0.0
H4900 H 0.82599 0.64859 0.82184 0.0
H4901 H 0.79775 0.63595 0.83794 0.0
C4902 C 0.7634 0.62696 0.82181 0.0
C4903 C 0.74607 0.62321 0.8118 0.0
C4904 C 0.77896 0.63611 0.81308 0.0
C4905 C 0.74412 0.62922 0.79297 0.0
C4906 C 0.7597 0.63807 0.78399 0.0
C4907 C 0.79358 0.64878 0.78466 0.0
C4908 C 0.81148 0.65093 0.79444 0.0
C4909 C 0.77732 0.64129 0.79385 0.0
C4910 C 0.81246 0.64699 0.81389 0.0
C4911 C 0.79635 0.6396 0.82312 0.0
H4912 H 0.13754 0.0693 0.52662 0.0
H4913 H 0.08541 0.08182 0.55794 0.0
H4914 H 0.09177 0.05395 0.57819 0.0
H4915 H 0.11361 0.02789 0.58861 0.0
H4916 H 0.16774 0.01747 0.55972 0.0
H4917 H 0.15943 0.04288 0.53703 0.0
C4918 C 0.12737 0.06555 0.53759 0.0
C4919 C 0.11091 0.07727 0.54071 0.0
C4920 C 0.13177 0.05024 0.54985 0.0
C4921 C 0.09805 0.07275 0.55524 0.0
C4922 C 0.10178 0.05698 0.5669 0.0
C4923 C 0.12357 0.03118 0.57733 0.0
C4924 C 0.14126 0.02094 0.57581 0.0
C4925 C 0.11886 0.04597 0.56464 0.0
C4926 C 0.15407 0.02529 0.56118 0.0
C4927 C 0.14928 0.03973 0.54818 0.0
H4928 H 0.23254 0.87165 0.84447 0.0
H4929 H 0.25244 0.91329 0.8043 0.0
H4930 H 0.22297 0.90819 0.78493 0.0
H4931 H 0.19168 0.89174 0.77934 0.0
H4932 H 0.17027 0.85234 0.82094 0.0
H4933 H 0.20005 0.85697 0.84008 0.0
C4934 C 0.23032 0.87979 0.83159 0.0
C4935 C 0.24468 0.89286 0.82583 0.0
C4936 C 0.21309 0.87714 0.82082 0.0
C4937 C 0.24164 0.90317 0.80904 0.0
C4938 C 0.22479 0.90023 0.79796 0.0
C4939 C 0.19357 0.88406 0.79255 0.0
C4940 C 0.17892 0.87142 0.79856 0.0
C4941 C 0.21047 0.8872 0.80367 0.0
C4942 C 0.18137 0.86201 0.81594 0.0
C4943 C 0.1984 0.86465 0.82686 0.0
H4944 H 0.63122 0.43534 0.47546 0.0
H4945 H 0.58331 0.4283 0.43597 0.0
H4946 H 0.59391 0.45648 0.41834 0.0
H4947 H 0.61774 0.48209 0.41329 0.0
H4948 H 0.66716 0.48772 0.45133 0.0
H4949 H 0.65526 0.46099 0.47026 0.0
C4950 C 0.62287 0.44033 0.46327 0.0
C4951 C 0.60626 0.43014 0.45722 0.0
C4952 C 0.62957 0.45602 0.45275 0.0
C4953 C 0.59594 0.4362 0.44101 0.0
C4954 C 0.60209 0.45218 0.43086 0.0
C4955 C 0.62589 0.47746 0.42574 0.0
C4956 C 0.64327 0.48687 0.43094 0.0
C4957 C 0.61906 0.462 0.43643 0.0
C4958 C 0.65375 0.48067 0.44703 0.0
C4959 C 0.64691 0.46545 0.4579 0.0
H4960 H 0.76444 0.35561 0.65544 0.0
H4961 H 0.74804 0.39255 0.70171 0.0
H4962 H 0.77953 0.38635 0.71733 0.0
H4963 H 0.81217 0.37209 0.71698 0.0
H4964 H 0.83082 0.3386 0.66904 0.0
H4965 H 0.79806 0.34198 0.6546 0.0
C4966 C 0.76784 0.36229 0.6689 0.0
C4967 C 0.75404 0.37456 0.67743 0.0
C4968 C 0.78635 0.35935 0.67737 0.0
C4969 C 0.75848 0.38309 0.69492 0.0
C4970 C 0.77647 0.37957 0.70381 0.0
C4971 C 0.80901 0.36525 0.7035 0.0
C4972 C 0.82373 0.35481 0.69421 0.0
C4973 C 0.79056 0.36793 0.69506 0.0
C4974 C 0.81962 0.34655 0.67649 0.0
C4975 C 0.80094 0.34852 0.66827 0.0
H4976 H 0.74841 0.63983 0.20173 0.0
H4977 H 0.72133 0.61322 0.15296 0.0
H4978 H 0.68938 0.6239 0.16305 0.0
H4979 H 0.6687 0.63819 0.18664 0.0
H4980 H 0.69377 0.66033 0.23839 0.0
H4981 H 0.72679 0.65414 0.22638 0.0
C4982 C 0.73549 0.6366 0.19331 0.0
C4983 C 0.73733 0.62629 0.17627 0.0
C4984 C 0.71675 0.64189 0.19981 0.0
C4985 C 0.72044 0.62176 0.16572 0.0
C4986 C 0.70207 0.62768 0.17158 0.0
C4987 C 0.68135 0.64208 0.19519 0.0
C4988 C 0.67881 0.64994 0.21326 0.0
C4989 C 0.70003 0.63753 0.18867 0.0
C4990 C 0.69539 0.65438 0.22434 0.0
C4991 C 0.71424 0.65074 0.21751 0.0
H4992 H 0.54464 0.60696 0.98961 0.0
H4993 H 0.58291 0.65037 0.9684 0.0
H4994 H 0.57198 0.64341 0.93605 0.0
H4995 H 0.55142 0.62474 0.91361 0.0
H4996 H 0.50995 0.58445 0.93526 0.0
H4997 H 0.52238 0.58997 0.96737 0.0
C4998 C 0.55031 0.61507 0.97789 0.0
C4999 C 0.56449 0.62923 0.98138 0.0
C5000 C 0.54355 0.61129 0.95932 0.0
C5001 C 0.57189 0.63952 0.9661 0.0
C5002 C 0.56571 0.63545 0.94756 0.0
C5003 C 0.54511 0.61719 0.92534 0.0
C5004 C 0.52981 0.60412 0.92197 0.0
C5005 C 0.5516 0.62128 0.94395 0.0
C5006 C 0.5218 0.59449 0.93742 0.0
C5007 C 0.52883 0.59774 0.95582 0.0
H5008 H 0.62717 0.30901 0.24385 0.0
H5009 H 0.66916 0.35348 0.23358 0.0
H5010 H 0.67901 0.33749 0.20447 0.0
H5011 H 0.67387 0.31195 0.18061 0.0
H5012 H 0.6344 0.26573 0.19274 0.0
H5013 H 0.62572 0.28101 0.2225 0.0
C5014 C 0.63862 0.31504 0.23533 0.0
C5015 C 0.64691 0.33273 0.24042 0.0
C5016 C 0.64474 0.3054 0.21894 0.0
C5017 C 0.66211 0.34015 0.22958 0.0
C5018 C 0.66784 0.33098 0.21297 0.0
C5019 C 0.66367 0.3051 0.18997 0.0
C5020 C 0.65478 0.28781 0.18449 0.0
C5021 C 0.65896 0.31379 0.20729 0.0
C5022 C 0.64161 0.27897 0.19674 0.0
C5023 C 0.63649 0.28777 0.21371 0.0
H5024 H 0.97464 0.38259 0.44814 0.0
H5025 H 0.94264 0.3378 0.41939 0.0
H5026 H 0.92602 0.32986 0.44873 0.0
H5027 H 0.91788 0.33861 0.48138 0.0
H5028 H 0.95042 0.38325 0.50999 0.0
H5029 H 0.97013 0.38789 0.48201 0.0
C5030 C 0.96415 0.37098 0.44841 0.0
C5031 C 0.95944 0.36103 0.43176 0.0
C5032 C 0.95491 0.36643 0.46526 0.0
C5033 C 0.94624 0.34572 0.43216 0.0
C5034 C 0.93678 0.34121 0.44887 0.0
C5035 C 0.92961 0.34901 0.4816 0.0
C5036 C 0.93245 0.36089 0.49748 0.0
C5037 C 0.94062 0.35185 0.46537 0.0
C5038 C 0.94783 0.37412 0.49779 0.0
C5039 C 0.959 0.37689 0.48177 0.0
H5040 H 0.86799 0.73796 0.68369 0.0
H5041 H 0.82333 0.69909 0.66398 0.0
H5042 H 0.82491 0.6819 0.69412 0.0
H5043 H 0.84141 0.67616 0.72485 0.0
H5044 H 0.88891 0.71288 0.74226 0.0
H5045 H 0.88372 0.73282 0.71438 0.0
C5046 C 0.85822 0.72606 0.68619 0.0
C5047 C 0.84539 0.71992 0.67181 0.0
C5048 C 0.85997 0.7157 0.70305 0.0
C5049 C 0.8332 0.70415 0.67499 0.0
C5050 C 0.8342 0.69426 0.69214 0.0
C5051 C 0.85055 0.68855 0.7225 0.0
C5052 C 0.86563 0.69296 0.73543 0.0
C5053 C 0.84794 0.69957 0.70606 0.0
C5054 C 0.8773 0.70913 0.73239 0.0
C5055 C 0.87433 0.72056 0.71648 0.0
H5056 H 0.51181 0.36434 0.55968 0.0
H5057 H 0.55686 0.39886 0.58571 0.0
H5058 H 0.57371 0.40077 0.55543 0.0
H5059 H 0.57537 0.39258 0.52138 0.0
H5060 H 0.53208 0.35497 0.49682 0.0
H5061 H 0.51439 0.35483 0.52651 0.0
C5062 C 0.52527 0.37239 0.55872 0.0
C5063 C 0.53297 0.38164 0.57486 0.0
C5064 C 0.53506 0.37298 0.54147 0.0
C5065 C 0.55063 0.39166 0.57348 0.0
C5066 C 0.56021 0.3928 0.55616 0.0
C5067 C 0.56221 0.38419 0.52264 0.0
C5068 C 0.55515 0.37365 0.50699 0.0
C5069 C 0.55256 0.3835 0.54005 0.0
C5070 C 0.53784 0.36316 0.50867 0.0
C5071 C 0.52775 0.36302 0.52566 0.0
H5072 H 0.90507 0.28957 0.80708 0.0
H5073 H 0.84509 0.30685 0.81545 0.0
H5074 H 0.84369 0.32106 0.78398 0.0
H5075 H 0.85964 0.32878 0.7543 0.0
H5076 H 0.91943 0.31107 0.74559 0.0
H5077 H 0.92079 0.29658 0.77697 0.0
C5078 C 0.89172 0.29643 0.80194 0.0
C5079 C 0.87523 0.29725 0.8134 0.0
C5080 C 0.89098 0.30437 0.78382 0.0
C5081 C 0.85795 0.30606 0.80673 0.0
C5082 C 0.85714 0.31418 0.78879 0.0
C5083 C 0.87292 0.32167 0.75929 0.0
C5084 C 0.8894 0.32093 0.74782 0.0
C5085 C 0.87357 0.31342 0.77725 0.0
C5086 C 0.90654 0.31169 0.75427 0.0
C5087 C 0.90735 0.30349 0.77219 0.0
H5088 H 0.91194 0.60184 0.00883 0.0
H5089 H 0.92896 0.66128 0.00472 0.0
H5090 H 0.94659 0.65894 0.03486 0.0
H5091 H 0.9562 0.64025 0.06282 0.0
H5092 H 0.93944 0.58073 0.06682 0.0
H5093 H 0.92253 0.58282 0.03626 0.0
C5094 C 0.91961 0.61421 0.01454 0.0
C5095 C 0.91917 0.6317 0.00475 0.0
C5096 C 0.92963 0.61277 0.03183 0.0
C5097 C 0.92917 0.64766 0.0121 0.0
C5098 C 0.93918 0.64636 0.02933 0.0
C5099 C 0.9489 0.62775 0.05692 0.0
C5100 C 0.94895 0.61041 0.06692 0.0
C5101 C 0.93935 0.62904 0.03937 0.0
C5102 C 0.93956 0.59424 0.05924 0.0
C5103 C 0.9299 0.59542 0.04183 0.0
H5104 H 0.62099 0.66114 0.28336 0.0
H5105 H 0.63058 0.71186 0.25016 0.0
H5106 H 0.63836 0.73014 0.27889 0.0
H5107 H 0.64276 0.73168 0.31361 0.0
H5108 H 0.6354 0.68018 0.34647 0.0
H5109 H 0.62695 0.66218 0.31781 0.0
C5110 C 0.62515 0.67607 0.28236 0.0
C5111 C 0.62543 0.68499 0.26453 0.0
C5112 C 0.63006 0.68639 0.29896 0.0
C5113 C 0.63029 0.70457 0.26363 0.0
C5114 C 0.63477 0.71504 0.28009 0.0
C5115 C 0.63931 0.71652 0.31452 0.0
C5116 C 0.63971 0.70737 0.33229 0.0
C5117 C 0.63474 0.70611 0.29786 0.0
C5118 C 0.63534 0.68764 0.33307 0.0
C5119 C 0.63042 0.67732 0.31665 0.0
H5120 H 0.92044 0.54041 0.63027 0.0
H5121 H 0.88716 0.58687 0.60474 0.0
H5122 H 0.91544 0.60785 0.60754 0.0
H5123 H 0.95003 0.6124 0.61504 0.0
H5124 H 0.984 0.56664 0.64054 0.0
H5125 H 0.95486 0.54606 0.64045 0.0
C5126 C 0.91937 0.55512 0.6253 0.0
C5127 C 0.90171 0.56193 0.61697 0.0
C5128 C 0.93573 0.56724 0.62712 0.0
C5129 C 0.90053 0.58116 0.61101 0.0
C5130 C 0.9167 0.5932 0.61265 0.0
C5131 C 0.951 0.59799 0.62087 0.0
C5132 C 0.96912 0.59095 0.62769 0.0
C5133 C 0.9344 0.58631 0.62041 0.0
C5134 C 0.97018 0.57239 0.63536 0.0
C5135 C 0.95357 0.5606 0.63507 0.0
H5136 H 0.71517 0.66676 0.87584 0.0
H5137 H 0.66831 0.65242 0.83698 0.0
H5138 H 0.65287 0.68377 0.84269 0.0
H5139 H 0.65263 0.71491 0.85889 0.0
H5140 H 0.6981 0.72854 0.89945 0.0
H5141 H 0.71436 0.69769 0.89282 0.0
C5142 C 0.70168 0.67059 0.86848 0.0
C5143 C 0.69295 0.65743 0.85586 0.0
C5144 C 0.69269 0.68839 0.87218 0.0
C5145 C 0.67529 0.66237 0.84671 0.0
C5146 C 0.66648 0.68025 0.84997 0.0
C5147 C 0.66607 0.7111 0.86633 0.0
C5148 C 0.67422 0.72389 0.87962 0.0
C5149 C 0.67502 0.6933 0.86273 0.0
C5150 C 0.69161 0.71885 0.88916 0.0
C5151 C 0.70088 0.70126 0.88536 0.0
H5152 H 0.58058 0.47748 0.12141 0.0
H5153 H 0.5994 0.4358 0.08003 0.0
H5154 H 0.56827 0.41898 0.08254 0.0
H5155 H 0.5365 0.41542 0.09757 0.0
H5156 H 0.5193 0.45493 0.14154 0.0
H5157 H 0.54891 0.4737 0.13668 0.0
C5158 C 0.57772 0.46489 0.11273 0.0
C5159 C 0.59209 0.45794 0.10041 0.0
C5160 C 0.56016 0.45496 0.11477 0.0
C5161 C 0.58846 0.44139 0.08955 0.0
C5162 C 0.57072 0.43179 0.091 0.0
C5163 C 0.53928 0.42811 0.10613 0.0
C5164 C 0.52594 0.43373 0.12002 0.0
C5165 C 0.5566 0.43831 0.10375 0.0
C5166 C 0.52949 0.45032 0.13083 0.0
C5167 C 0.54639 0.461 0.12808 0.0
H5168 H 0.81448 0.3336 0.35898 0.0
H5169 H 0.77265 0.32644 0.40327 0.0
H5170 H 0.78176 0.29244 0.40606 0.0
H5171 H 0.80191 0.26478 0.39604 0.0
H5172 H 0.84183 0.27152 0.35006 0.0
H5173 H 0.83327 0.30561 0.34781 0.0
C5174 C 0.80742 0.32456 0.36925 0.0
C5175 C 0.79301 0.33243 0.38094 0.0
C5176 C 0.81241 0.30498 0.37048 0.0
C5177 C 0.78374 0.3206 0.39404 0.0
C5178 C 0.78896 0.3012 0.39568 0.0
C5179 C 0.80864 0.27373 0.3855 0.0
C5180 C 0.82273 0.2658 0.37348 0.0
C5181 C 0.80328 0.29323 0.38397 0.0
C5182 C 0.83121 0.27744 0.35972 0.0
C5183 C 0.82627 0.2969 0.35836 0.0
H5184 H 0.93245 0.47871 0.87889 0.0
H5185 H 0.90107 0.4275 0.86248 0.0
H5186 H 0.93157 0.41087 0.85607 0.0
H5187 H 0.967 0.4098 0.85702 0.0
H5188 H -0.00058 0.45937 0.87587 0.0
H5189 H 0.96883 0.47781 0.87894 0.0
C5190 C 0.93236 0.46396 0.87385 0.0
C5191 C 0.91447 0.45434 0.87141 0.0
C5192 C 0.95016 0.45418 0.87049 0.0
C5193 C 0.91458 0.43521 0.86481 0.0
C5194 C 0.93204 0.42566 0.861 0.0
C5195 C 0.96746 0.42474 0.86154 0.0
C5196 C 0.98543 0.4332 0.86626 0.0
C5197 C 0.94989 0.43488 0.86405 0.0
C5198 C 0.98572 0.45255 0.87214 0.0
C5199 C 0.96823 0.46303 0.87403 0.0
H5200 H 0.80358 0.67117 0.15253 0.0
H5201 H 0.75832 0.66855 0.10963 0.0
H5202 H 0.76645 0.7008 0.09895 0.0
H5203 H 0.78783 0.72906 0.10068 0.0
H5204 H 0.83111 0.73264 0.14536 0.0
H5205 H 0.82245 0.70078 0.15647 0.0
C5206 C 0.79546 0.67779 0.14096 0.0
C5207 C 0.78053 0.66763 0.1318 0.0
C5208 C 0.79996 0.69642 0.13511 0.0
C5209 C 0.76986 0.67628 0.11695 0.0
C5210 C 0.77453 0.69465 0.11076 0.0
C5211 C 0.79515 0.72289 0.11295 0.0
C5212 C 0.81046 0.73277 0.12184 0.0
C5213 C 0.78973 0.70477 0.11959 0.0
C5214 C 0.81971 0.72489 0.13791 0.0
C5215 C 0.81469 0.70676 0.14437 0.0
H5216 H 0.57486 0.5255 0.39161 0.0
H5217 H 0.60634 0.57804 0.40284 0.0
H5218 H 0.57705 0.59693 0.39535 0.0
H5219 H 0.54332 0.59844 0.38308 0.0
H5220 H 0.51207 0.54627 0.37131 0.0
H5221 H 0.54044 0.52713 0.38172 0.0
C5222 C 0.57527 0.54106 0.39274 0.0
C5223 C 0.59285 0.55033 0.39755 0.0
C5224 C 0.55852 0.55185 0.38804 0.0
C5225 C 0.59304 0.57052 0.39908 0.0
C5226 C 0.57633 0.58136 0.39467 0.0
C5227 C 0.54292 0.58296 0.38253 0.0
C5228 C 0.52606 0.57377 0.37588 0.0
C5229 C 0.55921 0.57217 0.38858 0.0
C5230 C 0.52514 0.55361 0.37614 0.0
C5231 C 0.5413 0.5427 0.3821 0.0
H5232 H 0.71285 0.30811 0.63693 0.0
H5233 H 0.66253 0.34455 0.62599 0.0
H5234 H 0.64254 0.31623 0.6199 0.0
H5235 H 0.63896 0.28102 0.61831 0.0
H5236 H 0.68849 0.24435 0.63123 0.0
H5237 H 0.70916 0.27273 0.63558 0.0
C5238 C 0.6975 0.30989 0.63326 0.0
C5239 C 0.68929 0.32858 0.63202 0.0
C5240 C 0.68594 0.29343 0.62993 0.0
C5241 C 0.66932 0.33045 0.62723 0.0
C5242 C 0.65784 0.31422 0.62363 0.0
C5243 C 0.65435 0.27921 0.6218 0.0
C5244 C 0.66224 0.26052 0.6242 0.0
C5245 C 0.66597 0.29563 0.62495 0.0
C5246 C 0.68211 0.25853 0.62912 0.0
C5247 C 0.6939 0.27478 0.63173 0.0
H5248 H 0.62462 0.9751 0.59502 0.0
H5249 H 0.65684 0.00048 0.54978 0.0
H5250 H 0.65342 0.97096 0.53116 0.0
H5251 H 0.64181 0.93766 0.5278 0.0
H5252 H 0.61264 0.91081 0.57417 0.0
H5253 H 0.61453 0.94091 0.59233 0.0
C5254 C 0.631 0.9741 0.58115 0.0
C5255 C 0.64098 0.99006 0.57383 0.0
C5256 C 0.62951 0.95676 0.5707 0.0
C5257 C 0.64909 0.9885 0.55578 0.0
C5258 C 0.64713 0.97159 0.5451 0.0
C5259 C 0.63568 0.93843 0.54182 0.0
C5260 C 0.62676 0.92204 0.54946 0.0
C5261 C 0.6374 0.9556 0.55241 0.0
C5262 C 0.61941 0.92321 0.56786 0.0
C5263 C 0.62051 0.94044 0.57826 0.0
H5264 H 0.14221 0.50273 0.45372 0.0
H5265 H 0.12063 0.51117 0.39703 0.0
H5266 H 0.10919 0.54356 0.40507 0.0
H5267 H 0.10807 0.57042 0.42768 0.0
H5268 H 0.12655 0.56124 0.48535 0.0
H5269 H 0.13615 0.52803 0.47778 0.0
C5270 C 0.13467 0.51159 0.4433 0.0
C5271 C 0.13317 0.50524 0.42452 0.0
C5272 C 0.12767 0.52999 0.44825 0.0
C5273 C 0.12306 0.51651 0.41119 0.0
C5274 C 0.11626 0.53484 0.41588 0.0
C5275 C 0.114 0.56102 0.43859 0.0
C5276 C 0.11692 0.56815 0.45691 0.0
C5277 C 0.1191 0.54197 0.43421 0.0
C5278 C 0.12427 0.55592 0.4711 0.0
C5279 C 0.1298 0.537 0.46677 0.0
H5280 H 0.74189 0.87189 0.6663 0.0
H5281 H 0.75737 0.91143 0.71107 0.0
H5282 H 0.7301 0.90001 0.72978 0.0
H5283 H 0.70119 0.88016 0.73262 0.0
H5284 H 0.68386 0.84238 0.68693 0.0
H5285 H 0.71291 0.8515 0.66938 0.0
C5286 C 0.73929 0.87794 0.68019 0.0
C5287 C 0.75151 0.89246 0.68737 0.0
C5288 C 0.72344 0.87152 0.69068 0.0
C5289 C 0.74805 0.90029 0.70529 0.0
C5290 C 0.73254 0.89372 0.71598 0.0
C5291 C 0.70391 0.87357 0.71899 0.0
C5292 C 0.69048 0.86046 0.71114 0.0
C5293 C 0.72009 0.87945 0.70874 0.0
C5294 C 0.69407 0.85241 0.6933 0.0
C5295 C 0.71057 0.85771 0.68324 0.0
H5296 H 0.34602 0.4822 0.94052 0.0
H5297 H 0.37346 0.46706 0.88809 0.0
H5298 H 0.3863 0.43731 0.90205 0.0
H5299 H 0.38958 0.4156 0.9293 0.0
H5300 H 0.36452 0.43248 0.9825 0.0
H5301 H 0.35126 0.46174 0.96826 0.0
C5302 C 0.35473 0.47231 0.93217 0.0
C5303 C 0.35847 0.47649 0.91324 0.0
C5304 C 0.36272 0.45571 0.94051 0.0
C5305 C 0.37012 0.46386 0.90261 0.0
C5306 C 0.37757 0.44696 0.91062 0.0
C5307 C 0.38138 0.42579 0.93779 0.0
C5308 C 0.37806 0.4219 0.9569 0.0
C5309 C 0.37397 0.44274 0.92958 0.0
C5310 C 0.36747 0.43524 0.96779 0.0
C5311 C 0.35972 0.45191 0.95963 0.0
H5312 H 0.325 0.62297 0.67736 0.0
H5313 H 0.29623 0.65047 0.7242 0.0
H5314 H 0.26455 0.64655 0.70832 0.0
H5315 H 0.24467 0.63383 0.68162 0.0
H5316 H 0.27362 0.6039 0.63638 0.0
H5317 H 0.30536 0.61014 0.65107 0.0
C5318 C 0.31184 0.62827 0.68405 0.0
C5319 C 0.31307 0.63698 0.70199 0.0
C5320 C 0.29358 0.6254 0.67512 0.0
C5321 C 0.29577 0.64365 0.71043 0.0
C5322 C 0.2776 0.64137 0.70137 0.0
C5323 C 0.25795 0.62876 0.67499 0.0
C5324 C 0.25677 0.61869 0.65775 0.0
C5325 C 0.27626 0.63199 0.68382 0.0
C5326 C 0.27411 0.61205 0.64941 0.0
C5327 C 0.2923 0.61551 0.65788 0.0
H5328 H 0.86394 0.05967 0.02537 0.0
H5329 H 0.91546 0.06673 0.06036 0.0
H5330 H 0.90713 0.03809 0.07841 0.0
H5331 H 0.88437 0.01236 0.08528 0.0
H5332 H 0.83139 0.00636 0.05214 0.0
H5333 H 0.84094 0.03348 0.03233 0.0
C5334 C 0.87352 0.05457 0.03667 0.0
C5335 C 0.89046 0.06488 0.04139 0.0
C5336 C 0.86818 0.03861 0.04745 0.0
C5337 C 0.9025 0.05872 0.05641 0.0
C5338 C 0.89767 0.04249 0.06677 0.0
C5339 C 0.87492 0.01695 0.07369 0.0
C5340 C 0.85723 0.00745 0.07011 0.0
C5341 C 0.88039 0.03256 0.06262 0.0
C5342 C 0.84507 0.01355 0.05514 0.0
C5343 C 0.85056 0.02897 0.0438 0.0
H5344 H 0.68072 0.12748 0.78026 0.0
H5345 H 0.66411 0.16137 0.82866 0.0
H5346 H 0.69706 0.15736 0.8423 0.0
H5347 H 0.72972 0.14193 0.84135 0.0
H5348 H 0.7441 0.10452 0.79485 0.0
H5349 H 0.71306 0.11249 0.77926 0.0
C5350 C 0.68443 0.13437 0.79359 0.0
C5351 C 0.67014 0.1449 0.80337 0.0
C5352 C 0.70296 0.13121 0.80169 0.0
C5353 C 0.67497 0.15331 0.82086 0.0
C5354 C 0.69375 0.15095 0.82866 0.0
C5355 C 0.72598 0.13553 0.82788 0.0
C5356 C 0.739 0.12249 0.8194 0.0
C5357 C 0.70771 0.13953 0.8194 0.0
C5358 C 0.73421 0.11449 0.80173 0.0
C5359 C 0.71647 0.11904 0.79281 0.0
H5360 H 0.80196 0.85332 0.26614 0.0
H5361 H 0.83541 0.85548 0.31828 0.0
H5362 H 0.80647 0.86613 0.33515 0.0
H5363 H 0.77211 0.87669 0.33484 0.0
H5364 H 0.73836 0.87402 0.28309 0.0
H5365 H 0.76694 0.86173 0.26633 0.0
C5366 C 0.80289 0.85587 0.28123 0.0
C5367 C 0.82092 0.85368 0.29085 0.0
C5368 C 0.78617 0.86211 0.2909 0.0
C5369 C 0.82177 0.85701 0.31045 0.0
C5370 C 0.80523 0.86322 0.32014 0.0
C5371 C 0.77104 0.87339 0.31991 0.0
C5372 C 0.75328 0.87647 0.31015 0.0
C5373 C 0.78745 0.86616 0.31045 0.0
C5374 C 0.75195 0.87187 0.29087 0.0
C5375 C 0.76828 0.86483 0.28129 0.0
H5376 H 0.45821 0.3593 0.00379 0.0
H5377 H 0.40654 0.39158 0.01844 0.0
H5378 H 0.42032 0.39873 0.04951 0.0
H5379 H 0.44737 0.39626 0.07281 0.0
H5380 H 0.50054 0.36688 0.0572 0.0
H5381 H 0.48616 0.35844 0.02655 0.0
C5382 C 0.45002 0.36789 0.0138 0.0
C5383 C 0.43116 0.37457 0.00884 0.0
C5384 C 0.45843 0.37265 0.03158 0.0
C5385 C 0.42089 0.38593 0.02194 0.0
C5386 C 0.42883 0.39014 0.03975 0.0
C5387 C 0.45581 0.38807 0.06267 0.0
C5388 C 0.47504 0.38231 0.06735 0.0
C5389 C 0.44761 0.38362 0.04478 0.0
C5390 C 0.48578 0.37174 0.05395 0.0
C5391 C 0.47753 0.36679 0.0364 0.0
H5392 H 0.34108 0.6638 0.76326 0.0
H5393 H 0.39355 0.6962 0.75425 0.0
H5394 H 0.38852 0.71352 0.78404 0.0
H5395 H 0.37009 0.71811 0.81328 0.0
H5396 H 0.31979 0.68295 0.82376 0.0
H5397 H 0.32329 0.66762 0.79279 0.0
C5398 C 0.35145 0.67462 0.76783 0.0
C5399 C 0.36773 0.67868 0.75669 0.0
C5400 C 0.3489 0.68386 0.78524 0.0
C5401 C 0.38093 0.69285 0.76265 0.0
C5402 C 0.37809 0.70268 0.77967 0.0
C5403 C 0.35975 0.70725 0.80867 0.0
C5404 C 0.34454 0.7018 0.82062 0.0
C5405 C 0.36224 0.69813 0.79117 0.0
C5406 C 0.33154 0.6874 0.81473 0.0
C5407 C 0.33354 0.67868 0.79706 0.0
H5408 H 0.04183 0.65952 0.56079 0.0
H5409 H 0.01955 0.60281 0.54883 0.0
H5410 H 0.02959 0.60548 0.51602 0.0
H5411 H 0.04933 0.62158 0.49268 0.0
H5412 H 0.07549 0.67631 0.5059 0.0
H5413 H 0.05852 0.67731 0.53604 0.0
C5414 C 0.03897 0.64789 0.55089 0.0
C5415 C 0.03038 0.63087 0.5571 0.0
C5416 C 0.04531 0.6493 0.53229 0.0
C5417 C 0.02651 0.61591 0.54428 0.0
C5418 C 0.03214 0.61746 0.52556 0.0
C5419 C 0.05077 0.63403 0.50188 0.0
C5420 C 0.0637 0.64877 0.49733 0.0
C5421 C 0.04218 0.63379 0.51962 0.0
C5422 C 0.06557 0.66481 0.50929 0.0
C5423 C 0.0561 0.66525 0.52657 0.0
H5424 H 0.15222 0.2981 0.33454 0.0
H5425 H 0.10146 0.26294 0.32506 0.0
H5426 H 0.09727 0.27636 0.29326 0.0
H5427 H 0.10774 0.29891 0.26848 0.0
H5428 H 0.16059 0.33128 0.27718 0.0
H5429 H 0.16427 0.31829 0.30897 0.0
C5430 C 0.14028 0.29337 0.32545 0.0
C5431 C 0.12706 0.27973 0.33206 0.0
C5432 C 0.1383 0.30076 0.30712 0.0
C5433 C 0.11182 0.27343 0.32016 0.0
C5434 C 0.1094 0.28114 0.30204 0.0
C5435 C 0.12006 0.30304 0.27736 0.0
C5436 C 0.13359 0.31644 0.27073 0.0
C5437 C 0.12249 0.29493 0.29542 0.0
C5438 C 0.14971 0.3214 0.28218 0.0
C5439 C 0.1519 0.31388 0.30031 0.0
H5440 H 0.46935 0.62923 0.48878 0.0
H5441 H 0.42365 0.58843 0.47684 0.0
H5442 H 0.4344 0.58525 0.44441 0.0
H5443 H 0.45617 0.5948 0.41889 0.0
H5444 H 0.50378 0.63327 0.43126 0.0
H5445 H 0.49317 0.63641 0.46389 0.0
C5446 C 0.46189 0.61956 0.47909 0.0
C5447 C 0.44545 0.60946 0.48508 0.0
C5448 C 0.46853 0.61733 0.46046 0.0
C5449 C 0.4361 0.59672 0.47247 0.0
C5450 C 0.44227 0.59481 0.4539 0.0
C5451 C 0.46425 0.60376 0.42879 0.0
C5452 C 0.48063 0.61384 0.42267 0.0
C5453 C 0.45832 0.6052 0.44765 0.0
C5454 C 0.49114 0.62526 0.43566 0.0
C5455 C 0.48504 0.62715 0.45432 0.0
H5456 H 0.10692 0.72209 0.19643 0.0
H5457 H 0.15155 0.68335 0.17603 0.0
H5458 H 0.15518 0.66907 0.20732 0.0
H5459 H 0.14404 0.66621 0.23979 0.0
H5460 H 0.10083 0.70575 0.26114 0.0
H5461 H 0.09857 0.72168 0.23031 0.0
C5462 C 0.11747 0.7106 0.19899 0.0
C5463 C 0.12876 0.7035 0.18412 0.0
C5464 C 0.11985 0.70284 0.21711 0.0
C5465 C 0.14268 0.6889 0.18741 0.0
C5466 C 0.14477 0.68076 0.20523 0.0
C5467 C 0.13441 0.67852 0.23767 0.0
C5468 C 0.12256 0.68486 0.25236 0.0
C5469 C 0.13325 0.68745 0.22008 0.0
C5470 C 0.1102 0.70087 0.24985 0.0
C5471 C 0.10876 0.70979 0.23224 0.0
H5472 H 0.08548 0.39306 0.99646 0.0
H5473 H 0.07481 0.33203 0.99359 0.0
H5474 H 0.05532 0.33652 0.96465 0.0
H5475 H 0.04336 0.3576 0.93915 0.0
H5476 H 0.05443 0.41858 0.94198 0.0
H5477 H 0.07175 0.41437 0.97213 0.0
C5478 C 0.07874 0.38078 0.98955 0.0
C5479 C 0.08163 0.36224 0.9969 0.0
C5480 C 0.06776 0.38347 0.97296 0.0
C5481 C 0.07275 0.34643 0.98805 0.0
C5482 C 0.06169 0.34899 0.97152 0.0
C5483 C 0.04939 0.36997 0.9465 0.0
C5484 C 0.04778 0.38834 0.93844 0.0
C5485 C 0.0594 0.3674 0.9637 0.0
C5486 C 0.05555 0.4043 0.94801 0.0
C5487 C 0.06548 0.4019 0.96518 0.0
H5488 H 0.34829 0.32273 0.71672 0.0
H5489 H 0.40133 0.29062 0.72823 0.0
H5490 H 0.40123 0.27864 0.69566 0.0
H5491 H 0.38606 0.2772 0.66393 0.0
H5492 H 0.33442 0.31125 0.65158 0.0
H5493 H 0.33443 0.32317 0.68421 0.0
C5494 C 0.35994 0.31324 0.71207 0.0
C5495 C 0.37484 0.30762 0.72499 0.0
C5496 C 0.36014 0.30694 0.69307 0.0
C5497 C 0.38966 0.29513 0.7187 0.0
C5498 C 0.38965 0.28836 0.70001 0.0
C5499 C 0.3748 0.28729 0.66829 0.0
C5500 C 0.36012 0.29315 0.6552 0.0
C5501 C 0.37498 0.29417 0.68707 0.0
C5502 C 0.34589 0.30647 0.66121 0.0
C5503 C 0.34582 0.31319 0.67995 0.0
H5504 H 0.08459 0.46066 0.36738 0.0
H5505 H 0.10718 0.42718 0.41422 0.0
H5506 H 0.07752 0.40823 0.41426 0.0
H5507 H 0.04576 0.40051 0.40097 0.0
H5508 H 0.02218 0.43251 0.35375 0.0
H5509 H 0.05169 0.45259 0.35373 0.0
C5510 C 0.08289 0.44935 0.3777 0.0
C5511 C 0.09814 0.44541 0.39083 0.0
C5512 C 0.06572 0.43814 0.37747 0.0
C5513 C 0.09579 0.43052 0.40393 0.0
C5514 C 0.07881 0.41963 0.40397 0.0
C5515 C 0.04695 0.41192 0.39065 0.0
C5516 C 0.03174 0.41507 0.37742 0.0
C5517 C 0.0638 0.42321 0.39076 0.0
C5518 C 0.03368 0.4298 0.36408 0.0
C5519 C 0.05053 0.44129 0.36413 0.0
H5520 H 0.28319 0.32162 0.12134 0.0
H5521 H 0.33063 0.34201 0.15656 0.0
H5522 H 0.3496 0.31276 0.14951 0.0
H5523 H 0.35263 0.28183 0.13292 0.0
H5524 H 0.30684 0.26336 0.0947 0.0
H5525 H 0.28707 0.29161 0.10328 0.0
C5526 C 0.29756 0.31946 0.12772 0.0
C5527 C 0.30542 0.33359 0.13979 0.0
C5528 C 0.30863 0.30317 0.12286 0.0
C5529 C 0.32428 0.3311 0.14744 0.0
C5530 C 0.3351 0.31449 0.14334 0.0
C5531 C 0.33839 0.2841 0.12635 0.0
C5532 C 0.33112 0.27064 0.11322 0.0
C5533 C 0.32745 0.30053 0.13096 0.0
C5534 C 0.31269 0.27363 0.1048 0.0
C5535 C 0.30139 0.28969 0.10976 0.0
H5536 H 0.41806 0.51761 0.86059 0.0
H5537 H 0.3985 0.55817 0.90271 0.0
H5538 H 0.43057 0.57349 0.90301 0.0
H5539 H 0.4636 0.57613 0.89011 0.0
H5540 H 0.4814 0.53782 0.84535 0.0
H5541 H 0.45076 0.52033 0.84768 0.0
C5542 C 0.4209 0.52964 0.87001 0.0
C5543 C 0.40608 0.53673 0.88166 0.0
C5544 C 0.43905 0.53868 0.86966 0.0
C5545 C 0.40977 0.55252 0.89359 0.0
C5546 C 0.42807 0.56124 0.89379 0.0
C5547 C 0.46068 0.564 0.88085 0.0
C5548 C 0.47447 0.55839 0.86741 0.0
C5549 C 0.44271 0.55459 0.88168 0.0
C5550 C 0.47083 0.54245 0.85571 0.0
C5551 C 0.45334 0.53248 0.857 0.0
H5552 H 0.19418 0.67149 0.6414 0.0
H5553 H 0.23849 0.67571 0.59899 0.0
H5554 H 0.2334 0.71048 0.5973 0.0
H5555 H 0.21472 0.7395 0.60641 0.0
H5556 H 0.17182 0.7354 0.65012 0.0
H5557 H 0.17802 0.70089 0.65286 0.0
C5558 C 0.20275 0.68007 0.63187 0.0
C5559 C 0.21651 0.6711 0.62023 0.0
C5560 C 0.19997 0.70008 0.63116 0.0
C5561 C 0.22778 0.68235 0.60813 0.0
C5562 C 0.22487 0.70222 0.6071 0.0
C5563 C 0.20702 0.73106 0.61673 0.0
C5564 C 0.19251 0.73976 0.62771 0.0
C5565 C 0.21082 0.71123 0.61838 0.0
C5566 C 0.1827 0.7288 0.64115 0.0
C5567 C 0.18626 0.7091 0.64278 0.0
H5568 H 0.01117 0.54707 0.1164 0.0
H5569 H 0.02789 0.58928 0.15808 0.0
H5570 H 0.06115 0.57604 0.15911 0.0
H5571 H 0.08646 0.55536 0.14452 0.0
H5572 H 0.06929 0.5127 0.1033 0.0
H5573 H 0.03519 0.52324 0.1055 0.0
C5574 C 0.02193 0.55278 0.12628 0.0
C5575 C 0.01714 0.56885 0.13737 0.0
C5576 C 0.04105 0.54542 0.12636 0.0
C5577 C 0.03117 0.57656 0.14982 0.0
C5578 C 0.05028 0.56923 0.1501 0.0
C5579 C 0.07517 0.5484 0.13611 0.0
C5580 C 0.08026 0.53366 0.12342 0.0
C5581 C 0.05556 0.55421 0.13781 0.0
C5582 C 0.06561 0.52427 0.11295 0.0
C5583 C 0.04616 0.53023 0.11426 0.0
H5584 H 0.17188 0.26578 0.86226 0.0
H5585 H 0.21803 0.25818 0.90376 0.0
H5586 H 0.23176 0.28931 0.89512 0.0
H5587 H 0.22907 0.31944 0.8774 0.0
H5588 H 0.18096 0.32815 0.83817 0.0
H5589 H 0.16927 0.29569 0.84445 0.0
C5590 C 0.1849 0.27099 0.86946 0.0
C5591 C 0.19385 0.25998 0.88374 0.0
C5592 C 0.19223 0.28901 0.86486 0.0
C5593 C 0.2109 0.26658 0.89276 0.0
C5594 C 0.21869 0.28433 0.88785 0.0
C5595 C 0.2162 0.3141 0.87001 0.0
C5596 C 0.20588 0.326 0.8573 0.0
C5597 C 0.20928 0.29576 0.87414 0.0
C5598 C 0.18906 0.31914 0.84804 0.0
C5599 C 0.1824 0.30065 0.85162 0.0
H5600 H 0.46565 0.40753 0.6055 0.0
H5601 H 0.47698 0.43341 0.65991 0.0
H5602 H 0.44575 0.45081 0.65795 0.0
H5603 H 0.41458 0.45759 0.64131 0.0
H5604 H 0.40129 0.42804 0.58912 0.0
H5605 H 0.43356 0.41247 0.58995 0.0
C5606 C 0.4611 0.4167 0.61707 0.0
C5607 C 0.47339 0.41891 0.63297 0.0
C5608 C 0.44269 0.42582 0.61629 0.0
C5609 C 0.46767 0.43138 0.64757 0.0
C5610 C 0.4498 0.44126 0.64649 0.0
C5611 C 0.41882 0.44777 0.63011 0.0
C5612 C 0.40573 0.44407 0.61508 0.0
C5613 C 0.4371 0.43842 0.63102 0.0
C5614 C 0.41117 0.43108 0.60082 0.0
C5615 C 0.42962 0.42225 0.60126 0.0
H5616 H 0.29795 0.68096 0.38369 0.0
H5617 H 0.3292 0.65769 0.33612 0.0
H5618 H 0.35094 0.68512 0.33666 0.0
H5619 H 0.36155 0.71532 0.35041 0.0
H5620 H 0.33193 0.73957 0.39832 0.0
H5621 H 0.3093 0.71214 0.39807 0.0
C5622 C 0.30938 0.68206 0.37334 0.0
C5623 C 0.31178 0.66724 0.35977 0.0
C5624 C 0.32226 0.69795 0.3739 0.0
C5625 C 0.32694 0.66877 0.34669 0.0
C5626 C 0.33944 0.68448 0.347 0.0
C5627 C 0.35013 0.71472 0.36085 0.0
C5628 C 0.34838 0.7296 0.37429 0.0
C5629 C 0.33732 0.69906 0.36055 0.0
C5630 C 0.33362 0.72835 0.3878 0.0
C5631 C 0.32064 0.71269 0.38758 0.0
H5632 H 0.33687 0.00296 0.43225 0.0
H5633 H 0.3828 0.01053 0.39206 0.0
H5634 H 0.3895 0.04253 0.40482 0.0
H5635 H 0.38241 0.06876 0.42777 0.0
H5636 H 0.3389 0.05944 0.47004 0.0
H5637 H 0.33127 0.02808 0.45632 0.0
C5638 C 0.34837 0.0116 0.42634 0.0
C5639 C 0.359 0.00448 0.41093 0.0
C5640 C 0.35264 0.02983 0.4342 0.0
C5641 C 0.37409 0.01578 0.40367 0.0
C5642 C 0.378 0.03411 0.41101 0.0
C5643 C 0.37128 0.05982 0.4339 0.0
C5644 C 0.36123 0.06644 0.44988 0.0
C5645 C 0.36734 0.04138 0.42626 0.0
C5646 C 0.34695 0.05462 0.45781 0.0
C5647 C 0.34252 0.03668 0.44995 0.0
H5648 H 0.89445 0.4374 0.55573 0.0
H5649 H 0.83591 0.42483 0.53632 0.0
H5650 H 0.82468 0.4565 0.54711 0.0
H5651 H 0.8314 0.48741 0.56289 0.0
H5652 H 0.88962 0.49919 0.58371 0.0
H5653 H 0.90117 0.46821 0.5715 0.0
C5654 C 0.87927 0.44167 0.55379 0.0
C5655 C 0.86601 0.42893 0.54521 0.0
C5656 C 0.87289 0.45972 0.56028 0.0
C5657 C 0.84635 0.43448 0.54288 0.0
C5658 C 0.83994 0.45256 0.54904 0.0
C5659 C 0.84664 0.48323 0.56456 0.0
C5660 C 0.8597 0.4955 0.57405 0.0
C5661 C 0.85306 0.46526 0.55784 0.0
C5662 C 0.87935 0.48991 0.57639 0.0
C5663 C 0.88594 0.47222 0.56945 0.0
H5664 H 0.30736 0.13203 0.27017 0.0
H5665 H 0.3147 0.17294 0.31557 0.0
H5666 H 0.28405 0.16201 0.32956 0.0
H5667 H 0.25582 0.1403 0.32885 0.0
H5668 H 0.25174 0.09607 0.28612 0.0
H5669 H 0.2806 0.10901 0.27069 0.0
C5670 C 0.30211 0.13874 0.283 0.0
C5671 C 0.31288 0.15357 0.29167 0.0
C5672 C 0.28525 0.1317 0.29134 0.0
C5673 C 0.30636 0.16174 0.30857 0.0
C5674 C 0.28896 0.15543 0.31654 0.0
C5675 C 0.26141 0.13333 0.31632 0.0
C5676 C 0.25185 0.11717 0.30867 0.0
C5677 C 0.27842 0.14031 0.3081 0.0
C5678 C 0.25898 0.10846 0.29226 0.0
C5679 C 0.27541 0.11586 0.28346 0.0
H5680 H 0.62013 0.52443 0.08352 0.0
H5681 H 0.65979 0.50924 0.03896 0.0
H5682 H 0.6468 0.53551 0.01959 0.0
H5683 H 0.62544 0.56369 0.01599 0.0
H5684 H 0.58797 0.58089 0.06157 0.0
H5685 H 0.59839 0.5526 0.07973 0.0
C5686 C 0.62586 0.52689 0.06955 0.0
C5687 C 0.64085 0.515 0.06263 0.0
C5688 C 0.61852 0.54218 0.05861 0.0
C5689 C 0.64829 0.51831 0.04458 0.0
C5690 C 0.6408 0.53324 0.03347 0.0
C5691 C 0.61916 0.56093 0.02968 0.0
C5692 C 0.60579 0.57411 0.03738 0.0
C5693 C 0.62599 0.5453 0.04038 0.0
C5694 C 0.59818 0.57077 0.05535 0.0
C5695 C 0.60426 0.55473 0.06578 0.0
H5696 H 0.68119 0.3707 0.31676 0.0
H5697 H 0.6979 0.40676 0.27049 0.0
H5698 H 0.7294 0.41298 0.28587 0.0
H5699 H 0.753 0.40736 0.31222 0.0
H5700 H 0.73714 0.36887 0.35686 0.0
H5701 H 0.70489 0.36458 0.34264 0.0
C5702 C 0.69167 0.38005 0.31016 0.0
C5703 C 0.68714 0.38826 0.29252 0.0
C5704 C 0.7101 0.38313 0.31883 0.0
C5705 C 0.70103 0.40016 0.28403 0.0
C5706 C 0.71909 0.40374 0.29282 0.0
C5707 C 0.74246 0.39807 0.3188 0.0
C5708 C 0.74744 0.38871 0.33578 0.0
C5709 C 0.72394 0.39515 0.31015 0.0
C5710 C 0.73362 0.37658 0.34402 0.0
C5711 C 0.71513 0.374 0.33582 0.0
H5712 H 0.11616 0.92708 0.9728 0.0
H5713 H 0.07624 0.9178 0.92605 0.0
H5714 H 0.08684 0.94798 0.91162 0.0
H5715 H 0.10792 0.97622 0.91225 0.0
H5716 H 0.15094 0.98318 0.95682 0.0
H5717 H 0.13851 0.95444 0.97252 0.0
C5718 C 0.10953 0.93185 0.95961 0.0
C5719 C 0.09509 0.92063 0.95064 0.0
C5720 C 0.11639 0.94854 0.95107 0.0
C5721 C 0.08711 0.92649 0.93326 0.0
C5722 C 0.09324 0.94361 0.92504 0.0
C5723 C 0.11476 0.97133 0.92528 0.0
C5724 C 0.13042 0.98163 0.93335 0.0
C5725 C 0.10799 0.9546 0.93376 0.0
C5726 C 0.13895 0.97536 0.95036 0.0
C5727 C 0.13181 0.95901 0.9593 0.0
H5728 H 0.2677 0.88364 0.14737 0.0
H5729 H 0.23501 0.85731 0.19173 0.0
H5730 H 0.26543 0.84474 0.20588 0.0
H5731 H 0.3015 0.84272 0.2062 0.0
H5732 H 0.33334 0.8671 0.16003 0.0
H5733 H 0.30286 0.87814 0.14541 0.0
C5734 C 0.26712 0.87455 0.15971 0.0
C5735 C 0.24917 0.87112 0.16831 0.0
C5736 C 0.28448 0.86693 0.16734 0.0
C5737 C 0.24873 0.86009 0.18484 0.0
C5738 C 0.26607 0.85286 0.19289 0.0
C5739 C 0.30169 0.85013 0.19277 0.0
C5740 C 0.31963 0.85417 0.18427 0.0
C5741 C 0.28407 0.85636 0.18433 0.0
C5742 C 0.31972 0.86369 0.16681 0.0
C5743 C 0.30231 0.87016 0.1585 0.0
H5744 H 0.17106 0.14246 0.69417 0.0
H5745 H 0.1879 0.12857 0.75149 0.0
H5746 H 0.22067 0.11967 0.7412 0.0
H5747 H 0.24478 0.11567 0.71561 0.0
H5748 H 0.22755 0.13102 0.65889 0.0
H5749 H 0.19484 0.13918 0.66914 0.0
C5750 C 0.1819 0.13761 0.70446 0.0
C5751 C 0.17699 0.13626 0.72355 0.0
C5752 C 0.20071 0.13255 0.6985 0.0
C5753 C 0.19128 0.12987 0.73667 0.0
C5754 C 0.21004 0.12467 0.73081 0.0
C5755 C 0.23378 0.12071 0.70557 0.0
C5756 C 0.23855 0.1227 0.68649 0.0
C5757 C 0.21493 0.12587 0.71171 0.0
C5758 C 0.22425 0.12941 0.67363 0.0
C5759 C 0.20551 0.13411 0.67949 0.0
H5760 H 0.08009 0.08884 0.31836 0.0
H5761 H 0.08274 0.04856 0.36448 0.0
H5762 H 0.11787 0.04427 0.36012 0.0
H5763 H 0.14833 0.05597 0.3465 0.0
H5764 H 0.14575 0.09653 0.30061 0.0
H5765 H 0.11006 0.09635 0.3012 0.0
C5766 C 0.08833 0.07883 0.32716 0.0
C5767 C 0.07902 0.06928 0.3419 0.0
C5768 C 0.10852 0.07656 0.32466 0.0
C5769 C 0.08969 0.05616 0.35311 0.0
C5770 C 0.10978 0.05376 0.35068 0.0
C5771 C 0.13992 0.06434 0.33629 0.0
C5772 C 0.14956 0.07646 0.32373 0.0
C5773 C 0.11944 0.06446 0.33698 0.0
C5774 C 0.13859 0.08715 0.31047 0.0
C5775 C 0.11819 0.08718 0.31091 0.0
H5776 H 0.16937 0.91512 0.58226 0.0
H5777 H 0.18734 0.92218 0.64045 0.0
H5778 H 0.19412 0.8877 0.64288 0.0
H5779 H 0.19116 0.85506 0.62955 0.0
H5780 H 0.17136 0.84792 0.57192 0.0
H5781 H 0.16937 0.88279 0.56806 0.0
C5782 C 0.17515 0.90913 0.59533 0.0
C5783 C 0.17779 0.9211 0.61114 0.0
C5784 C 0.17857 0.88922 0.59676 0.0
C5785 C 0.18519 0.91321 0.62806 0.0
C5786 C 0.189 0.89348 0.62949 0.0
C5787 C 0.18685 0.86119 0.61605 0.0
C5788 C 0.18135 0.84901 0.60107 0.0
C5789 C 0.18521 0.88127 0.61409 0.0
C5790 C 0.17562 0.85706 0.58367 0.0
C5791 C 0.1744 0.87699 0.58147 0.0
H5792 H 0.42195 0.89674 0.83001 0.0
H5793 H 0.42994 0.91355 0.88821 0.0
H5794 H 0.39486 0.91939 0.89102 0.0
H5795 H 0.36151 0.91599 0.87816 0.0
H5796 H 0.35298 0.89777 0.82044 0.0
H5797 H 0.38843 0.89626 0.81618 0.0
C5798 C 0.41605 0.90232 0.84309 0.0
C5799 C 0.42858 0.90493 0.85883 0.0
C5800 C 0.39564 0.905 0.84481 0.0
C5801 C 0.42064 0.91161 0.87585 0.0
C5802 C 0.40053 0.91479 0.87752 0.0
C5803 C 0.36741 0.91196 0.86457 0.0
C5804 C 0.35461 0.90689 0.84968 0.0
C5805 C 0.38782 0.91092 0.8623 0.0
C5806 C 0.3625 0.90171 0.83215 0.0
C5807 C 0.3828 0.90082 0.82971 0.0
H5808 H 0.34612 0.10003 0.06677 0.0
H5809 H 0.29915 0.10216 0.10664 0.0
H5810 H 0.30256 0.13709 0.10941 0.0
H5811 H 0.32226 0.16603 0.10415 0.0
H5812 H 0.37117 0.16299 0.06653 0.0
H5813 H 0.36375 0.12942 0.05923 0.0
C5814 C 0.33624 0.10821 0.07562 0.0
C5815 C 0.32242 0.09859 0.08651 0.0
C5816 C 0.33898 0.12808 0.07787 0.0
C5817 C 0.30984 0.10932 0.09808 0.0
C5818 C 0.31195 0.12924 0.09982 0.0
C5819 C 0.33109 0.15806 0.09416 0.0
C5820 C 0.34735 0.16683 0.08603 0.0
C5821 C 0.32701 0.13863 0.0904 0.0
C5822 C 0.35869 0.15644 0.07308 0.0
C5823 C 0.35443 0.13727 0.06889 0.0
H5824 H 0.14305 0.88717 0.17893 0.0
H5825 H 0.14148 0.93979 0.1469 0.0
H5826 H 0.10581 0.93818 0.1446 0.0
H5827 H 0.07586 0.91919 0.14752 0.0
H5828 H 0.07804 0.86494 0.17684 0.0
H5829 H 0.11265 0.86976 0.18446 0.0
C5830 C 0.13485 0.89859 0.17194 0.0
C5831 C 0.14483 0.9136 0.1631 0.0
C5832 C 0.11448 0.89702 0.16988 0.0
C5833 C 0.13407 0.92815 0.15387 0.0
C5834 C 0.1137 0.92712 0.1524 0.0
C5835 C 0.08384 0.90861 0.15588 0.0
C5836 C 0.07451 0.89167 0.16152 0.0
C5837 C 0.10385 0.91122 0.15969 0.0
C5838 C 0.08497 0.87804 0.17229 0.0
C5839 C 0.10476 0.88079 0.17661 0.0
H5840 H 0.34883 0.89257 0.41742 0.0
H5841 H 0.32378 0.89156 0.36117 0.0
H5842 H 0.32767 0.85674 0.35988 0.0
H5843 H 0.34156 0.82701 0.37303 0.0
H5844 H 0.36637 0.82687 0.42923 0.0
H5845 H 0.35889 0.86141 0.43243 0.0
C5846 C 0.34387 0.88465 0.40506 0.0
C5847 C 0.33613 0.89477 0.38934 0.0
C5848 C 0.34618 0.86436 0.40437 0.0
C5849 C 0.3298 0.88425 0.37344 0.0
C5850 C 0.33208 0.86427 0.37265 0.0
C5851 C 0.34489 0.83444 0.38618 0.0
C5852 C 0.35448 0.82437 0.40088 0.0
C5853 C 0.34071 0.85424 0.38779 0.0
C5854 C 0.35874 0.8342 0.4178 0.0
C5855 C 0.35466 0.85403 0.41952 0.0
H5856 H 0.421 0.10262 0.67737 0.0
H5857 H 0.41737 0.06349 0.6301 0.0
H5858 H 0.3819 0.06229 0.63299 0.0
H5859 H 0.35163 0.07531 0.64639 0.0
H5860 H 0.35462 0.11557 0.69275 0.0
H5861 H 0.39042 0.11337 0.69287 0.0
C5862 C 0.41247 0.09334 0.66814 0.0
C5863 C 0.42188 0.08298 0.65365 0.0
C5864 C 0.39187 0.09324 0.66948 0.0
C5865 C 0.41054 0.07146 0.64145 0.0
C5866 C 0.39021 0.0709 0.643 0.0
C5867 C 0.3601 0.08337 0.65673 0.0
C5868 C 0.35044 0.09565 0.6695 0.0
C5869 C 0.38066 0.0822 0.65655 0.0
C5870 C 0.36166 0.10602 0.68277 0.0
C5871 C 0.38216 0.10479 0.6828 0.0
H5872 H 0.15607 0.15263 0.93573 0.0
H5873 H 0.20148 0.15373 0.89421 0.0
H5874 H 0.20233 0.11854 0.89336 0.0
H5875 H 0.18689 0.08781 0.90125 0.0
H5876 H 0.14145 0.08683 0.94276 0.0
H5877 H 0.14401 0.12163 0.947 0.0
C5878 C 0.16644 0.14513 0.92682 0.0
C5879 C 0.17852 0.15563 0.91488 0.0
C5880 C 0.16668 0.12496 0.92627 0.0
C5881 C 0.19201 0.14586 0.90348 0.0
C5882 C 0.1924 0.12577 0.9029 0.0
C5883 C 0.17784 0.09521 0.91148 0.0
C5884 C 0.16383 0.08493 0.92149 0.0
C5885 C 0.17931 0.11521 0.91374 0.0
C5886 C 0.15228 0.09453 0.93483 0.0
C5887 C 0.15368 0.11442 0.9372 0.0
H5888 H 0.09221 0.34816 0.09936 0.0
H5889 H 0.14722 0.31801 0.09385 0.0
H5890 H 0.14821 0.31198 0.12786 0.0
H5891 H 0.135 0.31809 0.15947 0.0
H5892 H 0.08148 0.35071 0.16513 0.0
H5893 H 0.07809 0.3527 0.13076 0.0
C5894 C 0.10424 0.34 0.10558 0.0
C5895 C 0.11961 0.33351 0.09417 0.0
C5896 C 0.10496 0.33707 0.12518 0.0
C5897 C 0.13521 0.32311 0.10239 0.0
C5898 C 0.1358 0.3197 0.12182 0.0
C5899 C 0.12237 0.32524 0.15314 0.0
C5900 C 0.10843 0.33416 0.16474 0.0
C5901 C 0.12096 0.32697 0.13341 0.0
C5902 C 0.09232 0.34368 0.15643 0.0
C5903 C 0.09045 0.34491 0.13681 0.0
H5904 H 0.5847 0.17589 0.86124 0.0
H5905 H 0.57583 0.11465 0.85698 0.0
H5906 H 0.57227 0.11254 0.89106 0.0
H5907 H 0.57781 0.12685 0.92192 0.0
H5908 H 0.59005 0.18739 0.92716 0.0
H5909 H 0.58566 0.19127 0.89295 0.0
C5910 C 0.58135 0.16227 0.86782 0.0
C5911 C 0.58061 0.14542 0.85683 0.0
C5912 C 0.58021 0.16103 0.88759 0.0
C5913 C 0.57652 0.12775 0.86532 0.0
C5914 C 0.57457 0.12653 0.88477 0.0
C5915 C 0.5791 0.14099 0.91561 0.0
C5916 C 0.58459 0.15674 0.92686 0.0
C5917 C 0.57734 0.14288 0.89605 0.0
C5918 C 0.58587 0.17504 0.91869 0.0
C5919 C 0.58355 0.17721 0.89913 0.0
H5920 H 0.88817 0.81339 0.40118 0.0
H5921 H 0.93107 0.85834 0.40504 0.0
H5922 H 0.93342 0.85895 0.37067 0.0
H5923 H 0.92104 0.84873 0.33934 0.0
H5924 H 0.87876 0.80321 0.3355 0.0
H5925 H 0.87858 0.80063 0.36987 0.0
C5926 C 0.89825 0.82309 0.39448 0.0
C5927 C 0.90933 0.83588 0.40563 0.0
C5928 C 0.89957 0.82333 0.37466 0.0
C5929 C 0.92239 0.84833 0.39678 0.0
C5930 C 0.92368 0.84875 0.3771 0.0
C5931 C 0.91207 0.83803 0.34604 0.0
C5932 C 0.89985 0.82627 0.33489 0.0
C5933 C 0.91203 0.83662 0.36587 0.0
C5934 C 0.88831 0.81244 0.34376 0.0
C5935 C 0.88812 0.81101 0.36344 0.0
H5936 H 0.8979 0.16042 0.0973 0.0
H5937 H 0.93714 0.11153 0.09626 0.0
H5938 H 0.93508 0.10863 0.1306 0.0
H5939 H 0.9193 0.11803 0.16046 0.0
H5940 H 0.88006 0.16699 0.16109 0.0
H5941 H 0.88499 0.1719 0.12743 0.0
C5942 C 0.9063 0.14938 0.10465 0.0
C5943 C 0.91756 0.13616 0.09432 0.0
C5944 C 0.90486 0.14768 0.1243 0.0
C5945 C 0.92841 0.12192 0.10396 0.0
C5946 C 0.92712 0.12016 0.12357 0.0
C5947 C 0.91209 0.12993 0.15324 0.0
C5948 C 0.89922 0.14204 0.16316 0.0
C5949 C 0.91496 0.13265 0.13382 0.0
C5950 C 0.88998 0.15743 0.15372 0.0
C5951 C 0.89276 0.16023 0.13446 0.0
H5952 H 0.41744 0.61776 0.65915 0.0
H5953 H 0.38565 0.67148 0.65445 0.0
H5954 H 0.39265 0.67285 0.62082 0.0
H5955 H 0.4056 0.6576 0.59224 0.0
H5956 H 0.43796 0.60424 0.59662 0.0
H5957 H 0.43325 0.60403 0.63083 0.0
C5958 C 0.41226 0.62985 0.65077 0.0
C5959 C 0.40091 0.64442 0.65923 0.0
C5960 C 0.41644 0.63061 0.63137 0.0
C5961 C 0.39437 0.66006 0.64826 0.0
C5962 C 0.39833 0.66085 0.62901 0.0
C5963 C 0.41191 0.6461 0.60074 0.0
C5964 C 0.42206 0.63093 0.59194 0.0
C5965 C 0.40905 0.64605 0.62034 0.0
C5966 C 0.43017 0.61613 0.6031 0.0
C5967 C 0.42735 0.61594 0.62264 0.0
H5968 H 0.09373 0.68306 0.35587 0.0
H5969 H 0.07818 0.62334 0.34961 0.0
H5970 H 0.07134 0.62134 0.38317 0.0
H5971 H 0.07625 0.6345 0.41467 0.0
H5972 H 0.09492 0.69314 0.422 0.0
H5973 H 0.09346 0.69795 0.38776 0.0
C5974 C 0.08829 0.66984 0.36185 0.0
C5975 C 0.08669 0.65329 0.35051 0.0
C5976 C 0.08513 0.66858 0.38137 0.0
C5977 C 0.07972 0.63617 0.35824 0.0
C5978 C 0.07584 0.635 0.3774 0.0
C5979 C 0.07944 0.64851 0.40877 0.0
C5980 C 0.08599 0.66334 0.42067 0.0
C5981 C 0.07946 0.65081 0.3892 0.0
C5982 C 0.08984 0.68151 0.41303 0.0
C5983 C 0.08925 0.68416 0.39345 0.0
H5984 H 0.41259 0.35694 0.83533 0.0
H5985 H 0.37368 0.30856 0.8362 0.0
H5986 H 0.37483 0.30858 0.87075 0.0
H5987 H 0.38554 0.32354 0.901 0.0
H5988 H 0.42542 0.37118 0.89995 0.0
H5989 H 0.42534 0.3702 0.86546 0.0
C5990 C 0.40455 0.34626 0.84308 0.0
C5991 C 0.39303 0.33278 0.83312 0.0
C5992 C 0.40539 0.34628 0.86303 0.0
C5993 C 0.38272 0.31905 0.84344 0.0
C5994 C 0.38331 0.31911 0.86325 0.0
C5995 C 0.39439 0.33355 0.89322 0.0
C5996 C 0.40545 0.34745 0.90313 0.0
C5997 C 0.39439 0.33282 0.87325 0.0
C5998 C 0.41681 0.3603 0.89276 0.0
C5999 C 0.41673 0.3598 0.87298 0.0
H6000 H 0.86074 0.94333 0.65549 0.0
H6001 H 0.85669 0.89316 0.69078 0.0
H6002 H 0.89224 0.88973 0.69134 0.0
H6003 H 0.92373 0.89775 0.67719 0.0
H6004 H 0.9277 0.94785 0.64176 0.0
H6005 H 0.89304 0.95482 0.64618 0.0
C6006 C 0.86771 0.93197 0.66369 0.0
C6007 C 0.85622 0.91832 0.67278 0.0
C6008 C 0.88813 0.92996 0.66377 0.0
C6009 C 0.86531 0.90377 0.68355 0.0
C6010 C 0.88562 0.90172 0.68379 0.0
C6011 C 0.91709 0.91047 0.67088 0.0
C6012 C 0.92806 0.92206 0.6589 0.0
C6013 C 0.89709 0.91423 0.67326 0.0
C6014 C 0.91943 0.93861 0.65092 0.0
C6015 C 0.8996 0.94255 0.65334 0.0
H6016 H 0.85038 0.15132 0.41664 0.0
H6017 H 0.80861 0.153 0.37052 0.0
H6018 H 0.80544 0.11795 0.37182 0.0
H6019 H 0.81673 0.08661 0.38438 0.0
H6020 H 0.85792 0.08511 0.43102 0.0
H6021 H 0.85902 0.12029 0.43136 0.0
C6022 C 0.84035 0.14402 0.40709 0.0
C6023 C 0.8298 0.15469 0.39345 0.0
C6024 C 0.8386 0.1239 0.40796 0.0
C6025 C 0.81683 0.1451 0.38118 0.0
C6026 C 0.8151 0.12505 0.38186 0.0
C6027 C 0.8257 0.09402 0.39481 0.0
C6028 C 0.8373 0.08331 0.40761 0.0
C6029 C 0.82622 0.11427 0.39494 0.0
C6030 C 0.84883 0.09305 0.42105 0.0
C6031 C 0.84953 0.11316 0.4212 0.0
H6032 H 0.57493 0.09573 0.17337 0.0
H6033 H 0.56682 0.06646 0.12017 0.0
H6034 H 0.60213 0.06157 0.11771 0.0
H6035 H 0.63543 0.06953 0.12847 0.0
H6036 H 0.64388 0.10052 0.18073 0.0
H6037 H 0.60854 0.10085 0.18581 0.0
C6038 C 0.58089 0.0876 0.16165 0.0
C6039 C 0.56826 0.0811 0.14715 0.0
C6040 C 0.60136 0.08561 0.15993 0.0
C6041 C 0.57623 0.07126 0.13166 0.0
C6042 C 0.59644 0.06868 0.13014 0.0
C6043 C 0.62956 0.07608 0.14113 0.0
C6044 C 0.64228 0.08509 0.15414 0.0
C6045 C 0.60919 0.07641 0.14383 0.0
C6046 C 0.63443 0.09352 0.17047 0.0
C6047 C 0.61419 0.09372 0.17337 0.0
H6048 H 0.66055 0.89696 0.92355 0.0
H6049 H 0.68934 0.90074 0.87 0.0
H6050 H 0.68855 0.86564 0.86672 0.0
H6051 H 0.67617 0.83431 0.87746 0.0
H6052 H 0.64455 0.83142 0.92955 0.0
H6053 H 0.64996 0.8657 0.93511 0.0
C6054 C 0.66705 0.89006 0.91137 0.0
C6055 C 0.67506 0.90135 0.89707 0.0
C6056 C 0.66576 0.87004 0.90922 0.0
C6057 C 0.68322 0.89229 0.88124 0.0
C6058 C 0.68262 0.87225 0.8793 0.0
C6059 C 0.67076 0.84118 0.89015 0.0
C6060 C 0.65995 0.83047 0.90307 0.0
C6061 C 0.6734 0.86104 0.89294 0.0
C6062 C 0.65284 0.83947 0.91938 0.0
C6063 C 0.65592 0.85904 0.92256 0.0
H6064 H 0.85065 0.07036 0.85322 0.0
H6065 H 0.84448 0.11207 0.80856 0.0
H6066 H 0.87985 0.11652 0.80848 0.0
H6067 H 0.91181 0.11199 0.82435 0.0
H6068 H 0.91784 0.07044 0.86915 0.0
H6069 H 0.88326 0.06247 0.86596 0.0
C6070 C 0.85713 0.08003 0.84313 0.0
C6071 C 0.84505 0.09104 0.83108 0.0
C6072 C 0.87739 0.08282 0.84346 0.0
C6073 C 0.85354 0.10347 0.81801 0.0
C6074 C 0.87373 0.10616 0.81808 0.0
C6075 C 0.90556 0.10101 0.8332 0.0
C6076 C 0.91715 0.09203 0.84715 0.0
C6077 C 0.88569 0.0965 0.83128 0.0
C6078 C 0.90908 0.07764 0.85841 0.0
C6079 C 0.88933 0.07308 0.8566 0.0
H6080 H 0.66647 0.1068 0.62019 0.0
H6081 H 0.63337 0.09905 0.56857 0.0
H6082 H 0.62881 0.13398 0.56588 0.0
H6083 H 0.63141 0.16675 0.58008 0.0
H6084 H 0.6632 0.17374 0.63255 0.0
H6085 H 0.67136 0.13944 0.63287 0.0
C6086 C 0.65852 0.11276 0.60819 0.0
C6087 C 0.65025 0.10025 0.59462 0.0
C6088 C 0.65573 0.13289 0.60688 0.0
C6089 C 0.63991 0.10829 0.57921 0.0
C6090 C 0.63726 0.12831 0.5777 0.0
C6091 C 0.64068 0.16083 0.59121 0.0
C6092 C 0.64701 0.17289 0.60611 0.0
C6093 C 0.64477 0.14079 0.59164 0.0
C6094 C 0.65842 0.16485 0.62079 0.0
C6095 C 0.66294 0.14517 0.62107 0.0
H6096 H 0.64358 0.92772 0.35637 0.0
H6097 H 0.64615 0.89999 0.30201 0.0
H6098 H 0.61035 0.90145 0.29914 0.0
H6099 H 0.57823 0.90595 0.3148 0.0
H6100 H 0.57653 0.93422 0.36901 0.0
H6101 H 0.61192 0.93787 0.36898 0.0
C6102 C 0.6363 0.92246 0.34369 0.0
C6103 C 0.64738 0.9136 0.32951 0.0
C6104 C 0.61581 0.92351 0.34211 0.0
C6105 C 0.63786 0.90691 0.31309 0.0
C6106 C 0.61739 0.90766 0.3115 0.0
C6107 C 0.58555 0.91374 0.32612 0.0
C6108 C 0.57478 0.91993 0.34185 0.0
C6109 C 0.60614 0.91536 0.32623 0.0
C6110 C 0.58451 0.92952 0.35669 0.0
C6111 C 0.60479 0.93138 0.3568 0.0
H6112 H 0.83793 0.90182 0.06781 0.0
H6113 H 0.80172 0.90718 0.11689 0.0
H6114 H 0.79476 0.87276 0.11559 0.0
H6115 H 0.80315 0.84064 0.10351 0.0
H6116 H 0.8419 0.835 0.05633 0.0
H6117 H 0.8434 0.87001 0.05357 0.0
C6118 C 0.82817 0.89549 0.07794 0.0
C6119 C 0.82047 0.90686 0.09251 0.0
C6120 C 0.82481 0.87562 0.0775 0.0
C6121 C 0.80789 0.89859 0.10561 0.0
C6122 C 0.80396 0.87893 0.10491 0.0
C6123 C 0.81147 0.84711 0.09231 0.0
C6124 C 0.82248 0.83539 0.0802 0.0
C6125 C 0.81293 0.8672 0.09135 0.0
C6126 C 0.83335 0.84384 0.06583 0.0
C6127 C 0.83431 0.86383 0.06432 0.0
H6128 H 0.9145 0.65502 0.84086 0.0
H6129 H 0.86624 0.69534 0.83847 0.0
H6130 H 0.86364 0.69443 0.87281 0.0
H6131 H 0.87207 0.67842 0.90288 0.0
H6132 H 0.92053 0.63828 0.90503 0.0
H6133 H 0.92615 0.64291 0.87147 0.0
C6134 C 0.90377 0.66398 0.84793 0.0
C6135 C 0.89043 0.67501 0.83726 0.0
C6136 C 0.90217 0.66315 0.86759 0.0
C6137 C 0.87665 0.68668 0.84648 0.0
C6138 C 0.87503 0.68604 0.86608 0.0
C6139 C 0.88402 0.67096 0.89601 0.0
C6140 C 0.89565 0.65781 0.90622 0.0
C6141 C 0.8872 0.67372 0.87669 0.0
C6142 C 0.91128 0.64837 0.89734 0.0
C6143 C 0.9145 0.65098 0.87816 0.0
H6144 H 0.39353 0.81382 0.0768 0.0
H6145 H 0.42325 0.86809 0.07373 0.0
H6146 H 0.42916 0.86775 0.10778 0.0
H6147 H 0.42007 0.85532 0.13862 0.0
H6148 H 0.38803 0.80237 0.14214 0.0
H6149 H 0.38904 0.79865 0.10783 0.0
C6150 C 0.40195 0.82514 0.08356 0.0
C6151 C 0.40789 0.84099 0.07296 0.0
C6152 C 0.40447 0.82527 0.10327 0.0
C6153 C 0.41852 0.85579 0.08176 0.0
C6154 C 0.42176 0.85566 0.10122 0.0
C6155 C 0.41375 0.84273 0.13189 0.0
C6156 C 0.40371 0.82932 0.14274 0.0
C6157 C 0.41389 0.84101 0.11219 0.0
C6158 C 0.39569 0.81298 0.13397 0.0
C6159 C 0.39619 0.81089 0.11436 0.0
H6160 H 0.11653 0.17294 0.59584 0.0
H6161 H 0.06707 0.13496 0.59411 0.0
H6162 H 0.0656 0.13564 0.62858 0.0
H6163 H 0.07961 0.14549 0.65943 0.0
H6164 H 0.12849 0.18417 0.66125 0.0
H6165 H 0.12888 0.18488 0.6267 0.0
C6166 C 0.10528 0.16502 0.60301 0.0
C6167 C 0.09194 0.15388 0.59237 0.0
C6168 C 0.10448 0.16554 0.62292 0.0
C6169 C 0.07747 0.14369 0.6019 0.0
C6170 C 0.07667 0.14402 0.62165 0.0
C6171 C 0.09019 0.15426 0.65226 0.0
C6172 C 0.10403 0.16474 0.66294 0.0
C6173 C 0.09027 0.15466 0.63234 0.0
C6174 C 0.11763 0.17603 0.6534 0.0
C6175 C 0.11791 0.17638 0.63362 0.0
H6176 H 0.07235 0.86016 0.83581 0.0
H6177 H 0.11609 0.81508 0.83481 0.0
H6178 H 0.11156 0.80932 0.86844 0.0
H6179 H 0.09815 0.8199 0.89882 0.0
H6180 H 0.05408 0.86464 0.89986 0.0
H6181 H 0.05542 0.86747 0.86553 0.0
C6182 C 0.0806 0.84885 0.84291 0.0
C6183 C 0.09469 0.83822 0.83296 0.0
C6184 C 0.07791 0.84561 0.86227 0.0
C6185 C 0.1052 0.8235 0.84223 0.0
C6186 C 0.10267 0.82024 0.86147 0.0
C6187 C 0.08851 0.82992 0.89146 0.0
C6188 C 0.07618 0.84216 0.90182 0.0
C6189 C 0.0895 0.83159 0.87175 0.0
C6190 C 0.0637 0.85505 0.89217 0.0
C6191 C 0.06457 0.85679 0.87255 0.0
H6192 H 0.61355 0.33848 0.34101 0.0
H6193 H 0.58067 0.39074 0.33076 0.0
H6194 H 0.57007 0.39125 0.36356 0.0
H6195 H 0.57256 0.37835 0.39586 0.0
H6196 H 0.60671 0.3269 0.40625 0.0
H6197 H 0.61412 0.32434 0.37272 0.0
C6198 C 0.60387 0.34982 0.34593 0.0
C6199 C 0.59794 0.36456 0.33357 0.0
C6200 C 0.59806 0.35016 0.36485 0.0
C6201 C 0.58542 0.37922 0.34006 0.0
C6202 C 0.57938 0.37954 0.35881 0.0
C6203 C 0.58127 0.36638 0.39068 0.0
C6204 C 0.58909 0.35283 0.40344 0.0
C6205 C 0.58591 0.36529 0.37144 0.0
C6206 C 0.60053 0.33749 0.39664 0.0
C6207 C 0.60486 0.33607 0.3775 0.0
H6208 H 0.92367 0.37016 0.58164 0.0
H6209 H 0.90811 0.31056 0.57523 0.0
H6210 H 0.90896 0.30655 0.60957 0.0
H6211 H 0.90761 0.32198 0.64113 0.0
H6212 H 0.92158 0.38221 0.6467 0.0
H6213 H 0.92794 0.38403 0.61305 0.0
C6214 C 0.9212 0.35613 0.5878 0.0
C6215 C 0.91571 0.34073 0.5761 0.0
C6216 C 0.92092 0.35421 0.60742 0.0
C6217 C 0.91254 0.32257 0.58404 0.0
C6218 C 0.9127 0.32038 0.60368 0.0
C6219 C 0.91245 0.33535 0.63498 0.0
C6220 C 0.91375 0.35202 0.64622 0.0
C6221 C 0.91582 0.33639 0.61549 0.0
C6222 C 0.92021 0.36925 0.63823 0.0
C6223 C 0.92387 0.37032 0.619 0.0
H6224 H 0.57215 0.63561 0.09595 0.0
H6225 H 0.61513 0.67893 0.08492 0.0
H6226 H 0.61848 0.6856 0.11868 0.0
H6227 H 0.61098 0.67762 0.15174 0.0
H6228 H 0.5694 0.63306 0.16297 0.0
H6229 H 0.56361 0.62856 0.12909 0.0
C6230 C 0.58202 0.6467 0.10094 0.0
C6231 C 0.59331 0.6568 0.08784 0.0
C6232 C 0.5842 0.65021 0.12056 0.0
C6233 C 0.60622 0.67096 0.09462 0.0
C6234 C 0.60819 0.67477 0.11399 0.0
C6235 C 0.60039 0.66718 0.14677 0.0
C6236 C 0.59054 0.6558 0.15995 0.0
C6237 C 0.59749 0.6643 0.12715 0.0
C6238 C 0.57711 0.6421 0.15319 0.0
C6239 C 0.57385 0.63945 0.13377 0.0
H6240 H 0.57874 0.59549 0.81775 0.0
H6241 H 0.57872 0.55398 0.86284 0.0
H6242 H 0.61315 0.54664 0.85755 0.0
H6243 H 0.64414 0.55571 0.84343 0.0
H6244 H 0.64451 0.59769 0.79879 0.0
H6245 H 0.60895 0.60065 0.80004 0.0
C6246 C 0.58626 0.58464 0.82618 0.0
C6247 C 0.57647 0.57557 0.84089 0.0
C6248 C 0.60606 0.58054 0.82309 0.0
C6249 C 0.58612 0.56131 0.85157 0.0
C6250 C 0.60578 0.55709 0.84856 0.0
C6251 C 0.63635 0.56505 0.83359 0.0
C6252 C 0.64683 0.57671 0.82128 0.0
C6253 C 0.61604 0.56711 0.83481 0.0
C6254 C 0.63668 0.58865 0.80847 0.0
C6255 C 0.61638 0.59052 0.80933 0.0
H6256 H 0.65441 0.34147 0.07999 0.0
H6257 H 0.69856 0.34269 0.12403 0.0
H6258 H 0.70401 0.37688 0.11813 0.0
H6259 H 0.69356 0.40701 0.10285 0.0
H6260 H 0.64929 0.40588 0.05891 0.0
H6261 H 0.64685 0.37092 0.06201 0.0
C6262 C 0.66543 0.34919 0.08808 0.0
C6263 C 0.67595 0.33972 0.10254 0.0
C6264 C 0.66846 0.3688 0.08459 0.0
C6265 C 0.69028 0.34974 0.11286 0.0
C6266 C 0.69335 0.36928 0.10951 0.0
C6267 C 0.68373 0.39904 0.09364 0.0
C6268 C 0.67154 0.40895 0.08075 0.0
C6269 C 0.68218 0.37904 0.09574 0.0
C6270 C 0.65887 0.39852 0.06889 0.0
C6271 C 0.65734 0.37857 0.07078 0.0
H6272 H 0.92783 0.41535 0.38083 0.0
H6273 H 0.93183 0.40012 0.32198 0.0
H6274 H 0.89603 0.40011 0.3192 0.0
H6275 H 0.86335 0.40075 0.33472 0.0
H6276 H 0.86075 0.41498 0.394 0.0
H6277 H 0.89599 0.4188 0.39536 0.0
C6278 C 0.92093 0.41243 0.36724 0.0
C6279 C 0.93262 0.40773 0.35166 0.0
C6280 C 0.90042 0.41184 0.36593 0.0
C6281 C 0.9233 0.40403 0.33419 0.0
C6282 C 0.90276 0.40374 0.33267 0.0
C6283 C 0.87053 0.40486 0.34785 0.0
C6284 C 0.85933 0.40739 0.36428 0.0
C6285 C 0.89113 0.407 0.34862 0.0
C6286 C 0.8689 0.4128 0.38116 0.0
C6287 C 0.88913 0.41504 0.38198 0.0
H6288 H 0.8489 0.66206 0.57046 0.0
H6289 H 0.80244 0.67423 0.60924 0.0
H6290 H 0.79441 0.64004 0.61045 0.0
H6291 H 0.80351 0.60618 0.60353 0.0
H6292 H 0.84844 0.59447 0.56288 0.0
H6293 H 0.85391 0.62883 0.55909 0.0
C6294 C 0.83673 0.65722 0.57879 0.0
C6295 C 0.82639 0.67053 0.58987 0.0
C6296 C 0.83201 0.63757 0.57921 0.0
C6297 C 0.81057 0.6642 0.60055 0.0
C6298 C 0.80606 0.64463 0.60136 0.0
C6299 C 0.81413 0.61121 0.59351 0.0
C6300 C 0.82569 0.59781 0.58368 0.0
C6301 C 0.81708 0.6311 0.5912 0.0
C6302 C 0.83934 0.60449 0.57065 0.0
C6303 C 0.8426 0.62416 0.56855 0.0
H6304 H 0.64652 0.38438 0.67517 0.0
H6305 H 0.64789 0.43293 0.63751 0.0
H6306 H 0.61212 0.43366 0.636 0.0
H6307 H 0.58094 0.41785 0.64213 0.0
H6308 H 0.57993 0.36733 0.67726 0.0
H6309 H 0.61515 0.36999 0.68313 0.0
C6310 C 0.63896 0.3954 0.66699 0.0
C6311 C 0.64971 0.4086 0.65646 0.0
C6312 C 0.61851 0.39516 0.66554 0.0
C6313 C 0.63983 0.42267 0.64575 0.0
C6314 C 0.61942 0.423 0.64479 0.0
C6315 C 0.5884 0.40762 0.65132 0.0
C6316 C 0.57799 0.39237 0.6592 0.0
C6317 C 0.60867 0.40891 0.65412 0.0
C6318 C 0.58774 0.37915 0.67101 0.0
C6319 C 0.60784 0.38065 0.67433 0.0
H6320 H 0.84411 0.33287 0.86957 0.0
H6321 H 0.85745 0.32757 0.92897 0.0
H6322 H 0.85281 0.36233 0.93313 0.0
H6323 H 0.84788 0.39485 0.9191 0.0
H6324 H 0.83337 0.39926 0.85979 0.0
H6325 H 0.83554 0.36444 0.85641 0.0
C6326 C 0.84567 0.33927 0.88349 0.0
C6327 C 0.85118 0.32764 0.89891 0.0
C6328 C 0.84297 0.35923 0.88577 0.0
C6329 C 0.85305 0.33615 0.91688 0.0
C6330 C 0.85057 0.35608 0.91924 0.0
C6331 C 0.84492 0.38811 0.90554 0.0
C6332 C 0.84057 0.39967 0.88972 0.0
C6333 C 0.84597 0.36786 0.90369 0.0
C6334 C 0.8367 0.39074 0.87223 0.0
C6335 C 0.838 0.37078 0.87024 0.0
H6336 H 0.85214 0.5807 0.13638 0.0
H6337 H 0.84956 0.60574 0.19199 0.0
H6338 H 0.8854 0.6038 0.19489 0.0
H6339 H 0.91777 0.5984 0.17966 0.0
H6340 H 0.91908 0.57302 0.12403 0.0
H6341 H 0.88358 0.57124 0.12326 0.0
C6342 C 0.85941 0.58544 0.14928 0.0
C6343 C 0.84829 0.59352 0.16387 0.0
C6344 C 0.87986 0.58418 0.15083 0.0
C6345 C 0.85784 0.59945 0.18056 0.0
C6346 C 0.87834 0.59841 0.18217 0.0
C6347 C 0.91027 0.59187 0.1677 0.0
C6348 C 0.92108 0.58583 0.15191 0.0
C6349 C 0.88958 0.59121 0.16718 0.0
C6350 C 0.91112 0.57775 0.13634 0.0
C6351 C 0.89078 0.57686 0.13582 0.0
H6352 H 0.6964 0.59566 0.39897 0.0
H6353 H 0.65129 0.59295 0.44069 0.0
H6354 H 0.64975 0.62811 0.44213 0.0
H6355 H 0.65843 0.65951 0.42853 0.0
H6356 H 0.70384 0.66202 0.38707 0.0
H6357 H 0.70818 0.62714 0.38862 0.0
C6358 C 0.68657 0.60279 0.4087 0.0
C6359 C 0.67389 0.59178 0.4196 0.0
C6360 C 0.68565 0.62299 0.40931 0.0
C6361 C 0.66124 0.60114 0.43217 0.0
C6362 C 0.66024 0.62125 0.43289 0.0
C6363 C 0.6695 0.65242 0.42011 0.0
C6364 C 0.68065 0.66325 0.40756 0.0
C6365 C 0.67193 0.63231 0.42107 0.0
C6366 C 0.69503 0.65396 0.39679 0.0
C6367 C 0.69748 0.634 0.39762 0.0
H6368 H 0.63601 0.82328 0.65754 0.0
H6369 H 0.5823 0.85586 0.66182 0.0
H6370 H 0.57897 0.85644 0.62741 0.0
H6371 H 0.59316 0.85075 0.59627 0.0
H6372 H 0.64837 0.82073 0.59197 0.0
H6373 H 0.64927 0.81591 0.62618 0.0
C6374 C 0.62338 0.83014 0.6509 0.0
C6375 C 0.60938 0.83947 0.6621 0.0
C6376 C 0.62197 0.83103 0.63112 0.0
C6377 C 0.59323 0.84856 0.65341 0.0
C6378 C 0.59137 0.84897 0.63377 0.0
C6379 C 0.60521 0.84286 0.60281 0.0
C6380 C 0.62068 0.8361 0.5917 0.0
C6381 C 0.60592 0.84071 0.62249 0.0
C6382 C 0.6363 0.82605 0.6003 0.0
C6383 C 0.63684 0.82335 0.61984 0.0
H6384 H 0.41701 0.42611 0.12942 0.0
H6385 H 0.42521 0.38044 0.16989 0.0
H6386 H 0.39045 0.38167 0.1773 0.0
H6387 H 0.35735 0.3938 0.17031 0.0
H6388 H 0.34866 0.43761 0.12801 0.0
H6389 H 0.38399 0.43933 0.12348 0.0
C6390 C 0.41118 0.41662 0.14002 0.0
C6391 C 0.42356 0.40321 0.1491 0.0
C6392 C 0.39111 0.4171 0.14387 0.0
C6393 C 0.4159 0.39087 0.16271 0.0
C6394 C 0.39604 0.39156 0.16695 0.0
C6395 C 0.36325 0.40401 0.16039 0.0
C6396 C 0.35052 0.41564 0.14957 0.0
C6397 C 0.38346 0.40437 0.15737 0.0
C6398 C 0.35825 0.42859 0.13656 0.0
C6399 C 0.37842 0.42949 0.13388 0.0
H6400 H 0.30091 0.58592 0.88732 0.0
H6401 H 0.34493 0.58445 0.9315 0.0
H6402 H 0.34305 0.61952 0.93445 0.0
H6403 H 0.3328 0.65049 0.92081 0.0
H6404 H 0.28977 0.65194 0.87573 0.0
H6405 H 0.28707 0.61688 0.87693 0.0
C6406 C 0.30975 0.59327 0.8979 0.0
C6407 C 0.32324 0.58278 0.909 0.0
C6408 C 0.3089 0.61338 0.89917 0.0
C6409 C 0.3345 0.59232 0.92277 0.0
C6410 C 0.33352 0.61235 0.92436 0.0
C6411 C 0.32252 0.64313 0.91155 0.0
C6412 C 0.3117 0.65361 0.89801 0.0
C6413 C 0.32137 0.62303 0.91208 0.0
C6414 C 0.29829 0.64407 0.88619 0.0
C6415 C 0.29684 0.62405 0.88681 0.0
H6416 H 0.07575 0.59152 0.61429 0.0
H6417 H 0.07127 0.60676 0.67308 0.0
H6418 H 0.10695 0.6054 0.67654 0.0
H6419 H 0.1399 0.60284 0.66188 0.0
H6420 H 0.14343 0.58674 0.60313 0.0
H6421 H 0.10797 0.58549 0.60071 0.0
C6422 C 0.08253 0.59413 0.62798 0.0
C6423 C 0.07073 0.59917 0.64339 0.0
C6424 C 0.10307 0.59344 0.62983 0.0
C6425 C 0.07987 0.60256 0.66101 0.0
C6426 C 0.10036 0.60201 0.66294 0.0
C6427 C 0.13288 0.59882 0.64865 0.0
C6428 C 0.14444 0.59503 0.63268 0.0
C6429 C 0.11219 0.59793 0.64732 0.0
C6430 C 0.13503 0.58977 0.61566 0.0
C6431 C 0.11466 0.58907 0.61422 0.0
H6432 H 0.19577 0.39589 0.3977 0.0
H6433 H 0.15835 0.40445 0.4455 0.0
H6434 H 0.15161 0.37 0.44634 0.0
H6435 H 0.15289 0.33811 0.43073 0.0
H6436 H 0.191 0.32958 0.38344 0.0
H6437 H 0.20092 0.3632 0.38516 0.0
C6438 C 0.1866 0.39012 0.40864 0.0
C6439 C 0.17747 0.40272 0.42142 0.0
C6440 C 0.18259 0.37031 0.4089 0.0
C6441 C 0.16559 0.39506 0.4355 0.0
C6442 C 0.16156 0.37536 0.43588 0.0
C6443 C 0.16359 0.34358 0.42103 0.0
C6444 C 0.17101 0.33148 0.40684 0.0
C6445 C 0.1694 0.36296 0.4222 0.0
C6446 C 0.18502 0.33865 0.39445 0.0
C6447 C 0.19068 0.3579 0.3954 0.0
H6448 H 0.41834 0.61203 0.32068 0.0
H6449 H 0.42498 0.56366 0.35825 0.0
H6450 H 0.39016 0.55686 0.35516 0.0
H6451 H 0.35727 0.5677 0.34561 0.0
H6452 H 0.35047 0.61596 0.30795 0.0
H6453 H 0.38592 0.61949 0.30681 0.0
C6454 C 0.41218 0.5998 0.32786 0.0
C6455 C 0.42402 0.58857 0.33992 0.0
C6456 C 0.39213 0.59599 0.32605 0.0
C6457 C 0.41604 0.5726 0.349 0.0
C6458 C 0.39614 0.56872 0.34729 0.0
C6459 C 0.36361 0.57863 0.33675 0.0
C6460 C 0.35139 0.59172 0.32711 0.0
C6461 C 0.38395 0.58075 0.33641 0.0
C6462 C 0.35966 0.60575 0.31555 0.0
C6463 C 0.37991 0.60789 0.31502 0.0
H6464 H 0.16562 0.60244 0.12491 0.0
H6465 H 0.13772 0.59333 0.07072 0.0
H6466 H 0.13613 0.62812 0.06551 0.0
H6467 H 0.13961 0.66135 0.07785 0.0
H6468 H 0.16563 0.67011 0.13292 0.0
H6469 H 0.1714 0.63551 0.13613 0.0
C6470 C 0.15947 0.60807 0.11184 0.0
C6471 C 0.15175 0.59529 0.09825 0.0
C6472 C 0.15833 0.62814 0.10907 0.0
C6473 C 0.14372 0.60284 0.08143 0.0
C6474 C 0.14281 0.62276 0.07844 0.0
C6475 C 0.14716 0.6557 0.09023 0.0
C6476 C 0.15251 0.66831 0.10499 0.0
C6477 C 0.14972 0.6356 0.09231 0.0
C6478 C 0.16166 0.66072 0.12125 0.0
C6479 C 0.16478 0.6409 0.12318 0.0
H6480 H 0.07665 0.39436 0.82051 0.0
H6481 H 0.07895 0.4328 0.8684 0.0
H6482 H 0.11405 0.43664 0.86452 0.0
H6483 H 0.14459 0.42494 0.85099 0.0
H6484 H 0.14324 0.38526 0.80411 0.0
H6485 H 0.10738 0.38618 0.80388 0.0
C6486 C 0.08477 0.40412 0.82961 0.0
C6487 C 0.07526 0.41333 0.84471 0.0
C6488 C 0.10519 0.40572 0.8277 0.0
C6489 C 0.08598 0.42561 0.85667 0.0
C6490 C 0.10607 0.42769 0.85455 0.0
C6491 C 0.13644 0.41683 0.84044 0.0
C6492 C 0.14649 0.4049 0.82772 0.0
C6493 C 0.11593 0.41717 0.84066 0.0
C6494 C 0.1358 0.39455 0.81406 0.0
C6495 C 0.11529 0.39499 0.81401 0.0
H6496 H 0.33839 0.33934 0.55636 0.0
H6497 H 0.29363 0.33354 0.59812 0.0
H6498 H 0.28929 0.36849 0.59917 0.0
H6499 H 0.30281 0.40036 0.59271 0.0
H6500 H 0.3486 0.40603 0.55198 0.0
H6501 H 0.34777 0.37143 0.54573 0.0
C6502 C 0.32731 0.34574 0.56529 0.0
C6503 C 0.31659 0.33407 0.57741 0.0
C6504 C 0.3253 0.36578 0.56617 0.0
C6505 C 0.30213 0.34235 0.58877 0.0
C6506 C 0.29976 0.36232 0.58947 0.0
C6507 C 0.31223 0.39405 0.58212 0.0
C6508 C 0.326 0.40551 0.57307 0.0
C6509 C 0.31196 0.37415 0.57894 0.0
C6510 C 0.338 0.39736 0.55921 0.0
C6511 C 0.3376 0.37759 0.55572 0.0
H6512 H 0.40707 0.1518 0.40489 0.0
H6513 H 0.34788 0.17334 0.40768 0.0
H6514 H 0.34921 0.18357 0.37477 0.0
H6515 H 0.3656 0.18257 0.34425 0.0
H6516 H 0.42325 0.15748 0.34037 0.0
H6517 H 0.42439 0.15282 0.37463 0.0
C6518 C 0.39466 0.15912 0.39837 0.0
C6519 C 0.37743 0.16188 0.40864 0.0
C6520 C 0.39526 0.16425 0.3792 0.0
C6521 C 0.36131 0.17111 0.40001 0.0
C6522 C 0.36204 0.17691 0.38119 0.0
C6523 C 0.37862 0.17658 0.35099 0.0
C6524 C 0.39438 0.17048 0.33989 0.0
C6525 C 0.37872 0.17304 0.3705 0.0
C6526 C 0.411 0.16238 0.34871 0.0
C6527 C 0.41159 0.15959 0.36825 0.0
loop_
_geom_bond_atom_site_label_1
_geom_bond_atom_site_label_2
_geom_bond_distance
_geom_bond_site_symmetry_2
_ccdc_geom_bond_type
Dy0 O4 2.398 . S
Dy0 O5 2.491 . S
Dy0 O6 2.403 . S
Dy0 O7 2.664 1_455 S
Dy0 O11 2.326 . S
Dy0 O15 2.310 . S
Dy0 O16 2.352 1_455 S
C1 O12 1.185 . S
C1 O13 1.355 . S
C2 O4 1.185 . S
C2 O5 1.355 . S
Dy3 O7 2.310 . S
Dy3 O10 2.351 1_655 S
Dy3 O12 2.398 . S
Dy3 O13 2.491 . S
Dy3 O14 2.403 1_655 S
Dy3 O15 2.664 1_655 S
Dy3 O17 2.326 . S
O4 Dy0 2.398 . S
O4 C2 1.185 . S
O5 Dy0 2.491 . S
O5 C2 1.355 . S
O6 Dy0 2.403 . S
O6 C8 1.254 1_455 S
O7 Dy0 2.664 1_655 S
O7 Dy3 2.310 . S
O7 C8 1.268 . S
C8 O6 1.254 1_655 S
C8 O7 1.268 . S
C9 O14 1.254 . S
C9 O15 1.268 . S
O10 Dy3 2.351 1_455 S
O10 C18 1.249 . S
O11 Dy0 2.326 . S
O11 C18 1.267 . S
O12 C1 1.185 . S
O12 Dy3 2.398 . S
O13 C1 1.355 . S
O13 Dy3 2.491 . S
O14 Dy3 2.403 1_455 S
O14 C9 1.254 . S
O15 Dy0 2.310 . S
O15 Dy3 2.664 1_455 S
O15 C9 1.268 . S
O16 Dy0 2.352 1_655 S
O16 C19 1.248 . S
O17 Dy3 2.326 . S
O17 C19 1.267 . S
C18 O10 1.249 . S
C18 O11 1.267 . S
C19 O16 1.248 . S
C19 O17 1.267 . S
Dy20 O24 2.398 . S
Dy20 O25 2.491 . S
Dy20 O26 2.403 . S
Dy20 O27 2.664 . S
Dy20 O31 2.326 . S
Dy20 O35 2.310 . S
Dy20 O36 2.351 . S
C21 O32 1.185 . S
C21 O33 1.355 . S
C22 O24 1.185 . S
C22 O25 1.355 . S
Dy23 O27 2.310 . S
Dy23 O30 2.351 . S
Dy23 O32 2.398 . S
Dy23 O33 2.491 . S
Dy23 O34 2.403 . S
Dy23 O35 2.664 . S
Dy23 O37 2.326 . S
O24 Dy20 2.398 . S
O24 C22 1.185 . S
O25 Dy20 2.491 . S
O25 C22 1.355 . S
O26 Dy20 2.403 . S
O26 C28 1.254 . S
O27 Dy20 2.664 . S
O27 Dy23 2.310 . S
O27 C28 1.268 . S
C28 O26 1.254 . S
C28 O27 1.268 . S
C29 O34 1.254 . S
C29 O35 1.268 . S
O30 Dy23 2.351 . S
O30 C38 1.249 . S
O31 Dy20 2.326 . S
O31 C38 1.267 . S
O32 C21 1.185 . S
O32 Dy23 2.398 . S
O33 C21 1.355 . S
O33 Dy23 2.491 . S
O34 Dy23 2.403 . S
O34 C29 1.254 . S
O35 Dy20 2.310 . S
O35 Dy23 2.664 . S
O35 C29 1.268 . S
O36 Dy20 2.351 . S
O36 C39 1.249 . S
O37 Dy23 2.326 . S
O37 C39 1.267 . S
C38 O30 1.249 . S
C38 O31 1.267 . S
C39 O36 1.249 . S
C39 O37 1.267 . S
Dy40 O44 2.398 . S
Dy40 O45 2.491 . S
Dy40 O46 2.403 . S
Dy40 O47 2.664 . S
Dy40 O51 2.326 . S
Dy40 O55 2.310 . S
Dy40 O56 2.351 . S
C41 O52 1.185 . S
C41 O53 1.355 . S
C42 O44 1.185 . S
C42 O45 1.355 . S
Dy43 O47 2.310 . S
Dy43 O50 2.351 . S
Dy43 O52 2.398 . S
Dy43 O53 2.491 . S
Dy43 O54 2.403 . S
Dy43 O55 2.664 . S
Dy43 O57 2.326 . S
O44 Dy40 2.398 . S
O44 C42 1.185 . S
O45 Dy40 2.491 . S
O45 C42 1.355 . S
O46 Dy40 2.403 . S
O46 C48 1.254 . S
O47 Dy40 2.664 . S
O47 Dy43 2.310 . S
O47 C48 1.268 . S
C48 O46 1.254 . S
C48 O47 1.268 . S
C49 O54 1.254 . S
C49 O55 1.268 . S
O50 Dy43 2.351 . S
O50 C58 1.249 . S
O51 Dy40 2.326 . S
O51 C58 1.267 . S
O52 C41 1.185 . S
O52 Dy43 2.398 . S
O53 C41 1.355 . S
O53 Dy43 2.491 . S
O54 Dy43 2.403 . S
O54 C49 1.254 . S
O55 Dy40 2.310 . S
O55 Dy43 2.664 . S
O55 C49 1.268 . S
O56 Dy40 2.351 . S
O56 C59 1.249 . S
O57 Dy43 2.326 . S
O57 C59 1.267 . S
C58 O50 1.249 . S
C58 O51 1.267 . S
C59 O56 1.249 . S
C59 O57 1.267 . S
Dy60 O64 2.398 . S
Dy60 O65 2.491 . S
Dy60 O66 2.403 . S
Dy60 O67 2.664 . S
Dy60 O71 2.326 . S
Dy60 O75 2.310 . S
Dy60 O76 2.351 . S
C61 O72 1.185 . S
C61 O73 1.355 . S
C62 O64 1.185 . S
C62 O65 1.355 . S
Dy63 O67 2.310 . S
Dy63 O70 2.351 . S
Dy63 O72 2.398 . S
Dy63 O73 2.491 . S
Dy63 O74 2.403 . S
Dy63 O75 2.664 . S
Dy63 O77 2.326 . S
O64 Dy60 2.398 . S
O64 C62 1.185 . S
O65 Dy60 2.491 . S
O65 C62 1.355 . S
O66 Dy60 2.403 . S
O66 C68 1.254 . S
O67 Dy60 2.664 . S
O67 Dy63 2.310 . S
O67 C68 1.268 . S
C68 O66 1.254 . S
C68 O67 1.268 . S
C69 O74 1.254 . S
C69 O75 1.268 . S
O70 Dy63 2.351 . S
O70 C78 1.249 . S
O71 Dy60 2.326 . S
O71 C78 1.267 . S
O72 C61 1.185 . S
O72 Dy63 2.398 . S
O73 C61 1.355 . S
O73 Dy63 2.491 . S
O74 Dy63 2.403 . S
O74 C69 1.254 . S
O75 Dy60 2.310 . S
O75 Dy63 2.664 . S
O75 C69 1.268 . S
O76 Dy60 2.351 . S
O76 C79 1.249 . S
O77 Dy63 2.326 . S
O77 C79 1.267 . S
C78 O70 1.249 . S
C78 O71 1.267 . S
C79 O76 1.249 . S
C79 O77 1.267 . S
Dy80 O84 2.398 . S
Dy80 O85 2.491 . S
Dy80 O86 2.403 . S
Dy80 O87 2.664 1_455 S
Dy80 O91 2.326 . S
Dy80 O95 2.310 . S
Dy80 O96 2.351 . S
C81 O92 1.185 . S
C81 O93 1.355 . S
C82 O84 1.185 . S
C82 O85 1.355 . S
Dy83 O87 2.310 . S
Dy83 O90 2.351 1_655 S
Dy83 O92 2.398 . S
Dy83 O93 2.491 . S
Dy83 O94 2.403 1_655 S
Dy83 O95 2.664 1_655 S
Dy83 O97 2.326 . S
O84 Dy80 2.398 . S
O84 C82 1.185 . S
O85 Dy80 2.491 . S
O85 C82 1.355 . S
O86 Dy80 2.403 . S
O86 C88 1.254 1_455 S
O87 Dy80 2.664 1_655 S
O87 Dy83 2.310 . S
O87 C88 1.268 . S
C88 O86 1.254 1_655 S
C88 O87 1.268 . S
C89 O94 1.254 . S
C89 O95 1.268 . S
O90 Dy83 2.351 1_455 S
O90 C98 1.249 . S
O91 Dy80 2.326 . S
O91 C98 1.267 . S
O92 C81 1.185 . S
O92 Dy83 2.398 . S
O93 C81 1.355 . S
O93 Dy83 2.491 . S
O94 Dy83 2.403 1_455 S
O94 C89 1.254 . S
O95 Dy80 2.310 . S
O95 Dy83 2.664 1_455 S
O95 C89 1.268 . S
O96 Dy80 2.351 . S
O96 C99 1.249 1_455 S
O97 Dy83 2.326 . S
O97 C99 1.267 . S
C98 O90 1.249 . S
C98 O91 1.267 . S
C99 O96 1.249 1_655 S
C99 O97 1.267 . S
Dy100 O104 2.398 . S
Dy100 O105 2.491 . S
Dy100 O106 2.403 . S
Dy100 O107 2.664 . S
Dy100 O111 2.326 . S
Dy100 O115 2.310 . S
Dy100 O116 2.351 . S
C101 O112 1.185 . S
C101 O113 1.355 . S
C102 O104 1.185 . S
C102 O105 1.355 . S
Dy103 O107 2.310 . S
Dy103 O110 2.351 . S
Dy103 O112 2.398 . S
Dy103 O113 2.491 . S
Dy103 O114 2.403 . S
Dy103 O115 2.664 . S
Dy103 O117 2.326 . S
O104 Dy100 2.398 . S
O104 C102 1.185 . S
O105 Dy100 2.491 . S
O105 C102 1.355 . S
O106 Dy100 2.403 . S
O106 C108 1.254 . S
O107 Dy100 2.664 . S
O107 Dy103 2.310 . S
O107 C108 1.268 . S
C108 O106 1.254 . S
C108 O107 1.268 . S
C109 O114 1.254 . S
C109 O115 1.268 . S
O110 Dy103 2.351 . S
O110 C118 1.249 . S
O111 Dy100 2.326 . S
O111 C118 1.267 . S
O112 C101 1.185 . S
O112 Dy103 2.398 . S
O113 C101 1.355 . S
O113 Dy103 2.491 . S
O114 Dy103 2.403 . S
O114 C109 1.254 . S
O115 Dy100 2.310 . S
O115 Dy103 2.664 . S
O115 C109 1.268 . S
O116 Dy100 2.351 . S
O116 C119 1.249 . S
O117 Dy103 2.326 . S
O117 C119 1.267 . S
C118 O110 1.249 . S
C118 O111 1.267 . S
C119 O116 1.249 . S
C119 O117 1.267 . S
Dy120 O124 2.398 . S
Dy120 O125 2.491 . S
Dy120 O126 2.403 . S
Dy120 O127 2.664 . S
Dy120 O131 2.326 . S
Dy120 O135 2.310 . S
Dy120 O136 2.351 . S
C121 O132 1.185 . S
C121 O133 1.355 . S
C122 O124 1.185 . S
C122 O125 1.355 . S
Dy123 O127 2.310 . S
Dy123 O130 2.351 . S
Dy123 O132 2.398 . S
Dy123 O133 2.491 . S
Dy123 O134 2.403 . S
Dy123 O135 2.664 . S
Dy123 O137 2.326 . S
O124 Dy120 2.398 . S
O124 C122 1.185 . S
O125 Dy120 2.491 . S
O125 C122 1.355 . S
O126 Dy120 2.403 . S
O126 C128 1.254 . S
O127 Dy120 2.664 . S
O127 Dy123 2.310 . S
O127 C128 1.268 . S
C128 O126 1.254 . S
C128 O127 1.268 . S
C129 O134 1.254 . S
C129 O135 1.268 . S
O130 Dy123 2.351 . S
O130 C138 1.249 . S
O131 Dy120 2.326 . S
O131 C138 1.267 . S
O132 C121 1.185 . S
O132 Dy123 2.398 . S
O133 C121 1.355 . S
O133 Dy123 2.491 . S
O134 Dy123 2.403 . S
O134 C129 1.254 . S
O135 Dy120 2.310 . S
O135 Dy123 2.664 . S
O135 C129 1.268 . S
O136 Dy120 2.351 . S
O136 C139 1.249 . S
O137 Dy123 2.326 . S
O137 C139 1.267 . S
C138 O130 1.249 . S
C138 O131 1.267 . S
C139 O136 1.249 . S
C139 O137 1.267 . S
Dy140 O144 2.398 . S
Dy140 O145 2.491 . S
Dy140 O146 2.403 . S
Dy140 O147 2.664 . S
Dy140 O151 2.326 . S
Dy140 O155 2.310 . S
Dy140 O156 2.351 . S
C141 O152 1.185 . S
C141 O153 1.355 . S
C142 O144 1.185 . S
C142 O145 1.355 . S
Dy143 O147 2.310 . S
Dy143 O150 2.351 . S
Dy143 O152 2.398 . S
Dy143 O153 2.491 . S
Dy143 O154 2.403 . S
Dy143 O155 2.664 . S
Dy143 O157 2.326 . S
O144 Dy140 2.398 . S
O144 C142 1.185 . S
O145 Dy140 2.491 . S
O145 C142 1.355 . S
O146 Dy140 2.403 . S
O146 C148 1.254 . S
O147 Dy140 2.664 . S
O147 Dy143 2.310 . S
O147 C148 1.268 . S
C148 O146 1.254 . S
C148 O147 1.268 . S
C149 O154 1.254 . S
C149 O155 1.268 . S
O150 Dy143 2.351 . S
O150 C158 1.249 . S
O151 Dy140 2.326 . S
O151 C158 1.267 . S
O152 C141 1.185 . S
O152 Dy143 2.398 . S
O153 C141 1.355 . S
O153 Dy143 2.491 . S
O154 Dy143 2.403 . S
O154 C149 1.254 . S
O155 Dy140 2.310 . S
O155 Dy143 2.664 . S
O155 C149 1.268 . S
O156 Dy140 2.351 . S
O156 C159 1.249 . S
O157 Dy143 2.326 . S
O157 C159 1.267 . S
C158 O150 1.249 . S
C158 O151 1.267 . S
C159 O156 1.249 . S
C159 O157 1.267 . S
Dy160 O164 2.398 . S
Dy160 O165 2.491 . S
Dy160 O166 2.403 . S
Dy160 O167 2.664 . S
Dy160 O171 2.326 . S
Dy160 O175 2.310 . S
Dy160 O176 2.351 . S
C161 O172 1.185 . S
C161 O173 1.355 . S
C162 O164 1.185 . S
C162 O165 1.355 . S
Dy163 O167 2.310 . S
Dy163 O170 2.351 . S
Dy163 O172 2.398 1_545 S
Dy163 O173 2.491 1_545 S
Dy163 O174 2.403 . S
Dy163 O175 2.664 . S
Dy163 O177 2.326 . S
O164 Dy160 2.398 . S
O164 C162 1.185 . S
O165 Dy160 2.491 . S
O165 C162 1.355 . S
O166 Dy160 2.403 . S
O166 C168 1.254 . S
O167 Dy160 2.664 . S
O167 Dy163 2.310 . S
O167 C168 1.268 . S
C168 O166 1.254 . S
C168 O167 1.268 . S
C169 O174 1.254 . S
C169 O175 1.268 . S
O170 Dy163 2.351 . S
O170 C178 1.249 . S
O171 Dy160 2.326 . S
O171 C178 1.267 . S
O172 C161 1.185 . S
O172 Dy163 2.398 1_565 S
O173 C161 1.355 . S
O173 Dy163 2.491 1_565 S
O174 Dy163 2.403 . S
O174 C169 1.254 . S
O175 Dy160 2.310 . S
O175 Dy163 2.664 . S
O175 C169 1.268 . S
O176 Dy160 2.351 . S
O176 C179 1.249 . S
O177 Dy163 2.326 . S
O177 C179 1.267 . S
C178 O170 1.249 . S
C178 O171 1.267 . S
C179 O176 1.249 . S
C179 O177 1.267 . S
Dy180 O184 2.398 . S
Dy180 O185 2.491 . S
Dy180 O186 2.403 . S
Dy180 O187 2.664 . S
Dy180 O191 2.326 . S
Dy180 O195 2.310 . S
Dy180 O196 2.351 . S
C181 O192 1.185 . S
C181 O193 1.355 . S
C182 O184 1.185 . S
C182 O185 1.355 . S
Dy183 O187 2.310 . S
Dy183 O190 2.351 . S
Dy183 O192 2.398 . S
Dy183 O193 2.491 . S
Dy183 O194 2.403 . S
Dy183 O195 2.664 . S
Dy183 O197 2.326 . S
O184 Dy180 2.398 . S
O184 C182 1.185 . S
O185 Dy180 2.491 . S
O185 C182 1.355 . S
O186 Dy180 2.403 . S
O186 C188 1.254 . S
O187 Dy180 2.664 . S
O187 Dy183 2.310 . S
O187 C188 1.268 . S
C188 O186 1.254 . S
C188 O187 1.268 . S
C189 O194 1.254 . S
C189 O195 1.268 . S
O190 Dy183 2.351 . S
O190 C198 1.249 . S
O191 Dy180 2.326 . S
O191 C198 1.267 . S
O192 C181 1.185 . S
O192 Dy183 2.398 . S
O193 C181 1.355 . S
O193 Dy183 2.491 . S
O194 Dy183 2.403 . S
O194 C189 1.254 . S
O195 Dy180 2.310 . S
O195 Dy183 2.664 . S
O195 C189 1.268 . S
O196 Dy180 2.351 . S
O196 C199 1.249 . S
O197 Dy183 2.326 . S
O197 C199 1.267 . S
C198 O190 1.249 . S
C198 O191 1.267 . S
C199 O196 1.249 . S
C199 O197 1.267 . S
Dy200 O204 2.398 . S
Dy200 O205 2.491 . S
Dy200 O206 2.403 . S
Dy200 O207 2.664 1_565 S
Dy200 O211 2.326 . S
Dy200 O215 2.310 . S
Dy200 O216 2.351 . S
C201 O212 1.185 . S
C201 O213 1.355 . S
C202 O204 1.185 . S
C202 O205 1.355 . S
Dy203 O207 2.310 . S
Dy203 O210 2.351 1_545 S
Dy203 O212 2.398 . S
Dy203 O213 2.491 . S
Dy203 O214 2.403 1_545 S
Dy203 O215 2.664 1_545 S
Dy203 O217 2.326 . S
O204 Dy200 2.398 . S
O204 C202 1.185 . S
O205 Dy200 2.491 . S
O205 C202 1.355 . S
O206 Dy200 2.403 . S
O206 C208 1.254 1_565 S
O207 Dy200 2.664 1_545 S
O207 Dy203 2.310 . S
O207 C208 1.268 . S
C208 O206 1.254 1_545 S
C208 O207 1.268 . S
C209 O214 1.254 . S
C209 O215 1.268 . S
O210 Dy203 2.351 1_565 S
O210 C218 1.249 . S
O211 Dy200 2.326 . S
O211 C218 1.267 . S
O212 C201 1.185 . S
O212 Dy203 2.398 . S
O213 C201 1.355 . S
O213 Dy203 2.491 . S
O214 Dy203 2.403 1_565 S
O214 C209 1.254 . S
O215 Dy200 2.310 . S
O215 Dy203 2.664 1_565 S
O215 C209 1.268 . S
O216 Dy200 2.351 . S
O216 C219 1.249 1_565 S
O217 Dy203 2.326 . S
O217 C219 1.267 . S
C218 O210 1.249 . S
C218 O211 1.267 . S
C219 O216 1.249 1_545 S
C219 O217 1.267 . S
Dy220 O224 2.398 . S
Dy220 O225 2.491 . S
Dy220 O226 2.403 . S
Dy220 O227 2.664 . S
Dy220 O231 2.326 . S
Dy220 O235 2.310 . S
Dy220 O236 2.351 . S
C221 O232 1.185 . S
C221 O233 1.355 . S
C222 O224 1.185 . S
C222 O225 1.355 . S
Dy223 O227 2.310 . S
Dy223 O230 2.351 . S
Dy223 O232 2.398 . S
Dy223 O233 2.491 . S
Dy223 O234 2.403 . S
Dy223 O235 2.664 . S
Dy223 O237 2.326 . S
O224 Dy220 2.398 . S
O224 C222 1.185 . S
O225 Dy220 2.491 . S
O225 C222 1.355 . S
O226 Dy220 2.403 . S
O226 C228 1.254 . S
O227 Dy220 2.664 . S
O227 Dy223 2.310 . S
O227 C228 1.268 . S
C228 O226 1.254 . S
C228 O227 1.268 . S
C229 O234 1.254 . S
C229 O235 1.268 . S
O230 Dy223 2.351 . S
O230 C238 1.249 . S
O231 Dy220 2.326 . S
O231 C238 1.267 . S
O232 C221 1.185 . S
O232 Dy223 2.398 . S
O233 C221 1.355 . S
O233 Dy223 2.491 . S
O234 Dy223 2.403 . S
O234 C229 1.254 . S
O235 Dy220 2.310 . S
O235 Dy223 2.664 . S
O235 C229 1.268 . S
O236 Dy220 2.351 . S
O236 C239 1.249 . S
O237 Dy223 2.326 . S
O237 C239 1.267 . S
C238 O230 1.249 . S
C238 O231 1.267 . S
C239 O236 1.249 . S
C239 O237 1.267 . S
Dy240 O244 2.398 . S
Dy240 O245 2.491 . S
Dy240 O246 2.403 . S
Dy240 O247 2.664 . S
Dy240 O251 2.326 . S
Dy240 O255 2.310 . S
Dy240 O256 2.351 . S
C241 O252 1.185 . S
C241 O253 1.355 . S
C242 O244 1.185 . S
C242 O245 1.355 . S
Dy243 O247 2.310 . S
Dy243 O250 2.351 . S
Dy243 O252 2.398 1_565 S
Dy243 O253 2.491 1_565 S
Dy243 O254 2.403 . S
Dy243 O255 2.664 . S
Dy243 O257 2.328 . S
O244 Dy240 2.398 . S
O244 C242 1.185 . S
O245 Dy240 2.491 . S
O245 C242 1.355 . S
O246 Dy240 2.403 . S
O246 C248 1.254 . S
O247 Dy240 2.664 . S
O247 Dy243 2.310 . S
O247 C248 1.268 . S
C248 O246 1.254 . S
C248 O247 1.268 . S
C249 O254 1.254 . S
C249 O255 1.268 . S
O250 Dy243 2.351 . S
O250 C258 1.249 . S
O251 Dy240 2.326 . S
O251 C258 1.267 . S
O252 C241 1.185 . S
O252 Dy243 2.398 1_545 S
O253 C241 1.355 . S
O253 Dy243 2.491 1_545 S
O254 Dy243 2.403 . S
O254 C249 1.254 . S
O255 Dy240 2.310 . S
O255 Dy243 2.664 . S
O255 C249 1.268 . S
O256 Dy240 2.351 . S
O256 C259 1.249 . S
O257 Dy243 2.328 . S
O257 C259 1.273 . S
C258 O250 1.249 . S
C258 O251 1.267 . S
C259 O256 1.249 . S
C259 O257 1.273 . S
Dy260 O264 2.398 . S
Dy260 O265 2.491 . S
Dy260 O266 2.403 . S
Dy260 O267 2.664 . S
Dy260 O271 2.326 . S
Dy260 O275 2.310 . S
Dy260 O276 2.351 . S
C261 O272 1.185 . S
C261 O273 1.355 . S
C262 O264 1.185 . S
C262 O265 1.355 . S
Dy263 O267 2.310 . S
Dy263 O270 2.351 . S
Dy263 O272 2.398 . S
Dy263 O273 2.491 . S
Dy263 O274 2.403 . S
Dy263 O275 2.664 . S
Dy263 O277 2.326 . S
O264 Dy260 2.398 . S
O264 C262 1.185 . S
O265 Dy260 2.491 . S
O265 C262 1.355 . S
O266 Dy260 2.403 . S
O266 C268 1.254 . S
O267 Dy260 2.664 . S
O267 Dy263 2.310 . S
O267 C268 1.268 . S
C268 O266 1.254 . S
C268 O267 1.268 . S
C269 O274 1.254 . S
C269 O275 1.268 . S
O270 Dy263 2.351 . S
O270 C278 1.249 . S
O271 Dy260 2.326 . S
O271 C278 1.267 . S
O272 C261 1.185 . S
O272 Dy263 2.398 . S
O273 C261 1.355 . S
O273 Dy263 2.491 . S
O274 Dy263 2.403 . S
O274 C269 1.254 . S
O275 Dy260 2.310 . S
O275 Dy263 2.664 . S
O275 C269 1.268 . S
O276 Dy260 2.351 . S
O276 C279 1.249 . S
O277 Dy263 2.326 . S
O277 C279 1.267 . S
C278 O270 1.249 . S
C278 O271 1.267 . S
C279 O276 1.249 . S
C279 O277 1.267 . S
Dy280 O284 2.398 . S
Dy280 O285 2.491 . S
Dy280 O286 2.403 . S
Dy280 O287 2.664 . S
Dy280 O291 2.326 . S
Dy280 O295 2.310 . S
Dy280 O296 2.351 . S
C281 O292 1.185 . S
C281 O293 1.355 . S
C282 O284 1.185 . S
C282 O285 1.355 . S
Dy283 O287 2.310 . S
Dy283 O290 2.351 . S
Dy283 O292 2.398 1_545 S
Dy283 O293 2.491 1_545 S
Dy283 O294 2.403 . S
Dy283 O295 2.664 . S
Dy283 O297 2.326 1_545 S
O284 Dy280 2.398 . S
O284 C282 1.185 . S
O285 Dy280 2.491 . S
O285 C282 1.355 . S
O286 Dy280 2.403 . S
O286 C288 1.254 . S
O287 Dy280 2.664 . S
O287 Dy283 2.310 . S
O287 C288 1.268 . S
C288 O286 1.254 . S
C288 O287 1.268 . S
C289 O294 1.254 . S
C289 O295 1.268 . S
O290 Dy283 2.351 . S
O290 C298 1.249 . S
O291 Dy280 2.326 . S
O291 C298 1.267 . S
O292 C281 1.185 . S
O292 Dy283 2.398 1_565 S
O293 C281 1.355 . S
O293 Dy283 2.491 1_565 S
O294 Dy283 2.403 . S
O294 C289 1.254 . S
O295 Dy280 2.310 . S
O295 Dy283 2.664 . S
O295 C289 1.268 . S
O296 Dy280 2.351 . S
O296 C299 1.211 1_545 S
O297 Dy283 2.326 1_565 S
O297 C299 1.276 . S
C298 O290 1.249 . S
C298 O291 1.267 . S
C299 O296 1.211 1_565 S
C299 O297 1.276 . S
Dy300 O304 2.398 . S
Dy300 O305 2.491 . S
Dy300 O306 2.403 . S
Dy300 O307 2.664 . S
Dy300 O311 2.326 . S
Dy300 O315 2.310 . S
Dy300 O316 2.351 . S
C301 O312 1.185 . S
C301 O313 1.355 . S
C302 O304 1.185 . S
C302 O305 1.355 . S
Dy303 O307 2.310 . S
Dy303 O310 2.351 . S
Dy303 O312 2.398 . S
Dy303 O313 2.491 . S
Dy303 O314 2.403 . S
Dy303 O315 2.664 . S
Dy303 O317 2.326 . S
O304 Dy300 2.398 . S
O304 C302 1.185 . S
O305 Dy300 2.491 . S
O305 C302 1.355 . S
O306 Dy300 2.403 . S
O306 C308 1.254 . S
O307 Dy300 2.664 . S
O307 Dy303 2.310 . S
O307 C308 1.268 . S
C308 O306 1.254 . S
C308 O307 1.268 . S
C309 O314 1.254 . S
C309 O315 1.268 . S
O310 Dy303 2.351 . S
O310 C318 1.249 . S
O311 Dy300 2.326 . S
O311 C318 1.267 . S
O312 C301 1.185 . S
O312 Dy303 2.398 . S
O313 C301 1.355 . S
O313 Dy303 2.491 . S
O314 Dy303 2.403 . S
O314 C309 1.254 . S
O315 Dy300 2.310 . S
O315 Dy303 2.664 . S
O315 C309 1.268 . S
O316 Dy300 2.351 . S
O316 C319 1.249 . S
O317 Dy303 2.326 . S
O317 C319 1.267 . S
C318 O310 1.249 . S
C318 O311 1.267 . S
C319 O316 1.249 . S
C319 O317 1.267 . S
Dy320 O324 2.398 . S
Dy320 O325 2.491 . S
Dy320 O326 2.403 . S
Dy320 O327 2.664 . S
Dy320 O331 2.326 . S
Dy320 O335 2.310 . S
Dy320 O336 2.351 . S
C321 O332 1.185 . S
C321 O333 1.355 . S
C322 O324 1.185 . S
C322 O325 1.355 . S
Dy323 O327 2.315 . S
Dy323 O330 2.384 . S
Dy323 O332 2.366 1_554 S
Dy323 O333 2.448 1_554 S
Dy323 O334 2.429 . S
Dy323 O335 2.704 . S
Dy323 O337 2.321 1_554 S
O324 Dy320 2.398 . S
O324 C322 1.185 . S
O325 Dy320 2.491 . S
O325 C322 1.355 . S
O326 Dy320 2.403 . S
O326 C328 1.254 . S
O327 Dy320 2.664 . S
O327 Dy323 2.315 . S
O327 C328 1.268 . S
C328 O326 1.254 . S
C328 O327 1.268 . S
C329 O334 1.254 . S
C329 O335 1.268 . S
O330 Dy323 2.384 . S
O330 C338 1.249 . S
O331 Dy320 2.326 . S
O331 C338 1.267 . S
O332 C321 1.185 . S
O332 Dy323 2.366 1_556 S
O333 C321 1.355 . S
O333 Dy323 2.448 1_556 S
O334 Dy323 2.429 . S
O334 C329 1.254 . S
O335 Dy320 2.310 . S
O335 Dy323 2.704 . S
O335 C329 1.268 . S
O336 Dy320 2.351 . S
O336 C339 1.244 1_554 S
O337 Dy323 2.321 1_556 S
O337 C339 1.268 . S
C338 O330 1.249 . S
C338 O331 1.267 . S
C339 O336 1.244 1_556 S
C339 O337 1.268 . S
Dy340 O344 2.398 . S
Dy340 O345 2.491 1_556 S
Dy340 O346 2.403 . S
Dy340 O347 2.664 . S
Dy340 O351 2.326 1_556 S
Dy340 O355 2.310 . S
Dy340 O356 2.351 . S
C341 O352 1.185 . S
C341 O353 1.355 . S
C342 O344 1.185 1_554 S
C342 O345 1.355 . S
Dy343 O347 2.310 . S
Dy343 O350 2.351 1_556 S
Dy343 O352 2.398 . S
Dy343 O353 2.491 . S
Dy343 O354 2.403 . S
Dy343 O355 2.664 . S
Dy343 O357 2.326 . S
O344 Dy340 2.398 . S
O344 C342 1.185 1_556 S
O345 Dy340 2.491 1_554 S
O345 C342 1.355 . S
O346 Dy340 2.403 . S
O346 C348 1.254 . S
O347 Dy340 2.664 . S
O347 Dy343 2.310 . S
O347 C348 1.268 . S
C348 O346 1.254 . S
C348 O347 1.268 . S
C349 O354 1.254 . S
C349 O355 1.268 . S
O350 Dy343 2.351 1_554 S
O350 C358 1.249 . S
O351 Dy340 2.326 1_554 S
O351 C358 1.267 . S
O352 C341 1.185 . S
O352 Dy343 2.398 . S
O353 C341 1.355 . S
O353 Dy343 2.491 . S
O354 Dy343 2.403 . S
O354 C349 1.254 . S
O355 Dy340 2.310 . S
O355 Dy343 2.664 . S
O355 C349 1.268 . S
O356 Dy340 2.351 . S
O356 C359 1.249 . S
O357 Dy343 2.326 . S
O357 C359 1.267 . S
C358 O350 1.249 . S
C358 O351 1.267 . S
C359 O356 1.249 . S
C359 O357 1.267 . S
Dy360 O364 2.398 . S
Dy360 O365 2.491 . S
Dy360 O366 2.403 . S
Dy360 O367 2.664 . S
Dy360 O371 2.326 . S
Dy360 O375 2.310 . S
Dy360 O376 2.351 . S
C361 O372 1.185 . S
C361 O373 1.355 . S
C362 O364 1.185 . S
C362 O365 1.355 . S
Dy363 O367 2.310 . S
Dy363 O370 2.351 . S
Dy363 O372 2.398 . S
Dy363 O373 2.491 . S
Dy363 O374 2.403 . S
Dy363 O375 2.664 . S
Dy363 O377 2.326 . S
O364 Dy360 2.398 . S
O364 C362 1.185 . S
O365 Dy360 2.491 . S
O365 C362 1.355 . S
O366 Dy360 2.403 . S
O366 C368 1.254 . S
O367 Dy360 2.664 . S
O367 Dy363 2.310 . S
O367 C368 1.268 . S
C368 O366 1.254 . S
C368 O367 1.268 . S
C369 O374 1.254 . S
C369 O375 1.268 . S
O370 Dy363 2.351 . S
O370 C378 1.249 . S
O371 Dy360 2.326 . S
O371 C378 1.267 . S
O372 C361 1.185 . S
O372 Dy363 2.398 . S
O373 C361 1.355 . S
O373 Dy363 2.491 . S
O374 Dy363 2.403 . S
O374 C369 1.254 . S
O375 Dy360 2.310 . S
O375 Dy363 2.664 . S
O375 C369 1.268 . S
O376 Dy360 2.351 . S
O376 C379 1.249 . S
O377 Dy363 2.326 . S
O377 C379 1.267 . S
C378 O370 1.249 . S
C378 O371 1.267 . S
C379 O376 1.249 . S
C379 O377 1.267 . S
Dy380 O384 2.398 . S
Dy380 O385 2.491 . S
Dy380 O386 2.403 . S
Dy380 O387 2.664 . S
Dy380 O391 2.326 . S
Dy380 O395 2.310 . S
Dy380 O396 2.351 . S
C381 O392 1.185 . S
C381 O393 1.355 . S
C382 O384 1.185 . S
C382 O385 1.355 . S
Dy383 O387 2.310 . S
Dy383 O390 2.351 . S
Dy383 O392 2.398 . S
Dy383 O393 2.491 . S
Dy383 O394 2.403 . S
Dy383 O395 2.664 . S
Dy383 O397 2.326 . S
O384 Dy380 2.398 . S
O384 C382 1.185 . S
O385 Dy380 2.491 . S
O385 C382 1.355 . S
O386 Dy380 2.403 . S
O386 C388 1.254 . S
O387 Dy380 2.664 . S
O387 Dy383 2.310 . S
O387 C388 1.268 . S
C388 O386 1.254 . S
C388 O387 1.268 . S
C389 O394 1.254 . S
C389 O395 1.268 . S
O390 Dy383 2.351 . S
O390 C398 1.249 . S
O391 Dy380 2.326 . S
O391 C398 1.267 . S
O392 C381 1.185 . S
O392 Dy383 2.398 . S
O393 C381 1.355 . S
O393 Dy383 2.491 . S
O394 Dy383 2.403 . S
O394 C389 1.254 . S
O395 Dy380 2.310 . S
O395 Dy383 2.664 . S
O395 C389 1.268 . S
O396 Dy380 2.351 . S
O396 C399 1.249 . S
O397 Dy383 2.326 . S
O397 C399 1.267 . S
C398 O390 1.249 . S
C398 O391 1.267 . S
C399 O396 1.249 . S
C399 O397 1.267 . S
Dy400 O404 2.398 . S
Dy400 O405 2.491 . S
Dy400 O406 2.403 . S
Dy400 O407 2.664 . S
Dy400 O411 2.326 . S
Dy400 O415 2.310 . S
Dy400 O416 2.351 . S
C401 O412 1.185 . S
C401 O413 1.355 . S
C402 O404 1.185 . S
C402 O405 1.355 . S
Dy403 O407 2.310 . S
Dy403 O410 2.351 . S
Dy403 O412 2.398 . S
Dy403 O413 2.491 . S
Dy403 O414 2.403 . S
Dy403 O415 2.664 . S
Dy403 O417 2.326 . S
O404 Dy400 2.398 . S
O404 C402 1.185 . S
O405 Dy400 2.491 . S
O405 C402 1.355 . S
O406 Dy400 2.403 . S
O406 C408 1.254 . S
O407 Dy400 2.664 . S
O407 Dy403 2.310 . S
O407 C408 1.268 . S
C408 O406 1.254 . S
C408 O407 1.268 . S
C409 O414 1.254 . S
C409 O415 1.268 . S
O410 Dy403 2.351 . S
O410 C418 1.249 . S
O411 Dy400 2.326 . S
O411 C418 1.267 . S
O412 C401 1.185 . S
O412 Dy403 2.398 . S
O413 C401 1.355 . S
O413 Dy403 2.491 . S
O414 Dy403 2.403 . S
O414 C409 1.254 . S
O415 Dy400 2.310 . S
O415 Dy403 2.664 . S
O415 C409 1.268 . S
O416 Dy400 2.351 . S
O416 C419 1.249 . S
O417 Dy403 2.326 . S
O417 C419 1.267 . S
C418 O410 1.249 . S
C418 O411 1.267 . S
C419 O416 1.249 . S
C419 O417 1.267 . S
Dy420 O424 2.398 . S
Dy420 O425 2.491 . S
Dy420 O426 2.403 . S
Dy420 O427 2.664 . S
Dy420 O431 2.326 . S
Dy420 O435 2.310 . S
Dy420 O436 2.351 . S
C421 O432 1.185 . S
C421 O433 1.355 . S
C422 O424 1.185 . S
C422 O425 1.355 . S
Dy423 O427 2.310 . S
Dy423 O430 2.351 . S
Dy423 O432 2.398 . S
Dy423 O433 2.491 . S
Dy423 O434 2.403 . S
Dy423 O435 2.664 . S
Dy423 O437 2.326 . S
O424 Dy420 2.398 . S
O424 C422 1.185 . S
O425 Dy420 2.491 . S
O425 C422 1.355 . S
O426 Dy420 2.403 . S
O426 C428 1.254 . S
O427 Dy420 2.664 . S
O427 Dy423 2.310 . S
O427 C428 1.268 . S
C428 O426 1.254 . S
C428 O427 1.268 . S
C429 O434 1.254 . S
C429 O435 1.268 . S
O430 Dy423 2.351 . S
O430 C438 1.249 . S
O431 Dy420 2.326 . S
O431 C438 1.267 . S
O432 C421 1.185 . S
O432 Dy423 2.398 . S
O433 C421 1.355 . S
O433 Dy423 2.491 . S
O434 Dy423 2.403 . S
O434 C429 1.254 . S
O435 Dy420 2.310 . S
O435 Dy423 2.664 . S
O435 C429 1.268 . S
O436 Dy420 2.351 . S
O436 C439 1.249 . S
O437 Dy423 2.326 . S
O437 C439 1.267 . S
C438 O430 1.249 . S
C438 O431 1.267 . S
C439 O436 1.249 . S
C439 O437 1.267 . S
Dy440 O444 2.398 . S
Dy440 O445 2.491 . S
Dy440 O446 2.403 . S
Dy440 O447 2.664 . S
Dy440 O451 2.326 . S
Dy440 O455 2.310 . S
Dy440 O456 2.351 . S
C441 O452 1.185 . S
C441 O453 1.355 . S
C442 O444 1.185 . S
C442 O445 1.355 . S
Dy443 O447 2.310 . S
Dy443 O450 2.351 . S
Dy443 O452 2.398 . S
Dy443 O453 2.491 . S
Dy443 O454 2.403 . S
Dy443 O455 2.664 . S
Dy443 O457 2.326 . S
O444 Dy440 2.398 . S
O444 C442 1.185 . S
O445 Dy440 2.491 . S
O445 C442 1.355 . S
O446 Dy440 2.403 . S
O446 C448 1.254 . S
O447 Dy440 2.664 . S
O447 Dy443 2.310 . S
O447 C448 1.268 . S
C448 O446 1.254 . S
C448 O447 1.268 . S
C449 O454 1.254 . S
C449 O455 1.268 . S
O450 Dy443 2.351 . S
O450 C458 1.249 . S
O451 Dy440 2.326 . S
O451 C458 1.267 . S
O452 C441 1.185 . S
O452 Dy443 2.398 . S
O453 C441 1.355 . S
O453 Dy443 2.491 . S
O454 Dy443 2.403 . S
O454 C449 1.254 . S
O455 Dy440 2.310 . S
O455 Dy443 2.664 . S
O455 C449 1.268 . S
O456 Dy440 2.351 . S
O456 C459 1.249 . S
O457 Dy443 2.326 . S
O457 C459 1.267 . S
C458 O450 1.249 . S
C458 O451 1.267 . S
C459 O456 1.249 . S
C459 O457 1.267 . S
Dy460 O464 2.398 . S
Dy460 O465 2.491 . S
Dy460 O466 2.403 . S
Dy460 O467 2.664 . S
Dy460 O471 2.326 . S
Dy460 O475 2.310 . S
Dy460 O476 2.351 . S
C461 O472 1.185 . S
C461 O473 1.355 . S
C462 O464 1.185 . S
C462 O465 1.355 . S
Dy463 O467 2.310 . S
Dy463 O470 2.351 . S
Dy463 O472 2.398 . S
Dy463 O473 2.491 . S
Dy463 O474 2.403 . S
Dy463 O475 2.664 . S
Dy463 O477 2.326 . S
O464 Dy460 2.398 . S
O464 C462 1.185 . S
O465 Dy460 2.491 . S
O465 C462 1.355 . S
O466 Dy460 2.403 . S
O466 C468 1.254 . S
O467 Dy460 2.664 . S
O467 Dy463 2.310 . S
O467 C468 1.268 . S
C468 O466 1.254 . S
C468 O467 1.268 . S
C469 O474 1.254 . S
C469 O475 1.268 . S
O470 Dy463 2.351 . S
O470 C478 1.249 . S
O471 Dy460 2.326 . S
O471 C478 1.267 . S
O472 C461 1.185 . S
O472 Dy463 2.398 . S
O473 C461 1.355 . S
O473 Dy463 2.491 . S
O474 Dy463 2.403 . S
O474 C469 1.254 . S
O475 Dy460 2.310 . S
O475 Dy463 2.664 . S
O475 C469 1.268 . S
O476 Dy460 2.351 . S
O476 C479 1.249 . S
O477 Dy463 2.326 . S
O477 C479 1.267 . S
C478 O470 1.249 . S
C478 O471 1.267 . S
C479 O476 1.249 . S
C479 O477 1.267 . S
Dy480 O484 2.398 . S
Dy480 O485 2.491 . S
Dy480 O486 2.403 1_455 S
Dy480 O487 2.664 1_455 S
Dy480 O491 2.326 . S
Dy480 O495 2.310 . S
Dy480 O496 2.351 1_455 S
C481 O492 1.185 . S
C481 O493 1.355 . S
C482 O484 1.185 . S
C482 O485 1.355 . S
Dy483 O487 2.310 . S
Dy483 O490 2.352 1_655 S
Dy483 O492 2.398 . S
Dy483 O493 2.491 . S
Dy483 O494 2.403 . S
Dy483 O495 2.664 1_655 S
Dy483 O497 2.326 . S
O484 Dy480 2.398 . S
O484 C482 1.185 . S
O485 Dy480 2.491 . S
O485 C482 1.355 . S
O486 Dy480 2.403 1_655 S
O486 C488 1.254 . S
O487 Dy480 2.664 1_655 S
O487 Dy483 2.310 . S
O487 C488 1.268 . S
C488 O486 1.254 . S
C488 O487 1.268 . S
C489 O494 1.254 1_455 S
C489 O495 1.268 . S
O490 Dy483 2.352 1_455 S
O490 C498 1.248 . S
O491 Dy480 2.326 . S
O491 C498 1.267 . S
O492 C481 1.185 . S
O492 Dy483 2.398 . S
O493 C481 1.355 . S
O493 Dy483 2.491 . S
O494 Dy483 2.403 . S
O494 C489 1.254 1_655 S
O495 Dy480 2.310 . S
O495 Dy483 2.664 1_455 S
O495 C489 1.268 . S
O496 Dy480 2.351 1_655 S
O496 C499 1.249 . S
O497 Dy483 2.326 . S
O497 C499 1.267 . S
C498 O490 1.248 . S
C498 O491 1.267 . S
C499 O496 1.249 . S
C499 O497 1.267 . S
Dy500 O504 2.398 . S
Dy500 O505 2.491 . S
Dy500 O506 2.403 . S
Dy500 O507 2.664 . S
Dy500 O511 2.326 . S
Dy500 O515 2.310 . S
Dy500 O516 2.351 . S
C501 O512 1.185 . S
C501 O513 1.355 . S
C502 O504 1.185 . S
C502 O505 1.355 . S
Dy503 O507 2.310 . S
Dy503 O510 2.351 . S
Dy503 O512 2.398 . S
Dy503 O513 2.491 . S
Dy503 O514 2.403 . S
Dy503 O515 2.664 . S
Dy503 O517 2.326 . S
O504 Dy500 2.398 . S
O504 C502 1.185 . S
O505 Dy500 2.491 . S
O505 C502 1.355 . S
O506 Dy500 2.403 . S
O506 C508 1.254 . S
O507 Dy500 2.664 . S
O507 Dy503 2.310 . S
O507 C508 1.268 . S
C508 O506 1.254 . S
C508 O507 1.268 . S
C509 O514 1.254 . S
C509 O515 1.268 . S
O510 Dy503 2.351 . S
O510 C518 1.249 . S
O511 Dy500 2.326 . S
O511 C518 1.267 . S
O512 C501 1.185 . S
O512 Dy503 2.398 . S
O513 C501 1.355 . S
O513 Dy503 2.491 . S
O514 Dy503 2.403 . S
O514 C509 1.254 . S
O515 Dy500 2.310 . S
O515 Dy503 2.664 . S
O515 C509 1.268 . S
O516 Dy500 2.351 . S
O516 C519 1.249 . S
O517 Dy503 2.326 . S
O517 C519 1.267 . S
C518 O510 1.249 . S
C518 O511 1.267 . S
C519 O516 1.249 . S
C519 O517 1.267 . S
Dy520 O524 2.398 . S
Dy520 O525 2.491 . S
Dy520 O526 2.403 . S
Dy520 O527 2.664 . S
Dy520 O531 2.326 . S
Dy520 O535 2.310 . S
Dy520 O536 2.351 . S
C521 O532 1.185 . S
C521 O533 1.355 . S
C522 O524 1.185 . S
C522 O525 1.355 . S
Dy523 O527 2.310 . S
Dy523 O530 2.351 . S
Dy523 O532 2.398 . S
Dy523 O533 2.491 . S
Dy523 O534 2.403 . S
Dy523 O535 2.664 . S
Dy523 O537 2.326 . S
O524 Dy520 2.398 . S
O524 C522 1.185 . S
O525 Dy520 2.491 . S
O525 C522 1.355 . S
O526 Dy520 2.403 . S
O526 C528 1.254 . S
O527 Dy520 2.664 . S
O527 Dy523 2.310 . S
O527 C528 1.268 . S
C528 O526 1.254 . S
C528 O527 1.268 . S
C529 O534 1.254 . S
C529 O535 1.268 . S
O530 Dy523 2.351 . S
O530 C538 1.249 . S
O531 Dy520 2.326 . S
O531 C538 1.267 . S
O532 C521 1.185 . S
O532 Dy523 2.398 . S
O533 C521 1.355 . S
O533 Dy523 2.491 . S
O534 Dy523 2.403 . S
O534 C529 1.254 . S
O535 Dy520 2.310 . S
O535 Dy523 2.664 . S
O535 C529 1.268 . S
O536 Dy520 2.351 . S
O536 C539 1.249 . S
O537 Dy523 2.326 . S
O537 C539 1.267 . S
C538 O530 1.249 . S
C538 O531 1.267 . S
C539 O536 1.249 . S
C539 O537 1.267 . S
Dy540 O544 2.398 . S
Dy540 O545 2.491 . S
Dy540 O546 2.403 . S
Dy540 O547 2.664 . S
Dy540 O551 2.326 . S
Dy540 O555 2.310 . S
Dy540 O556 2.351 . S
C541 O552 1.185 . S
C541 O553 1.355 . S
C542 O544 1.185 . S
C542 O545 1.355 . S
Dy543 O547 2.310 . S
Dy543 O550 2.351 . S
Dy543 O552 2.398 . S
Dy543 O553 2.491 . S
Dy543 O554 2.403 . S
Dy543 O555 2.664 . S
Dy543 O557 2.326 . S
O544 Dy540 2.398 . S
O544 C542 1.185 . S
O545 Dy540 2.491 . S
O545 C542 1.355 . S
O546 Dy540 2.403 . S
O546 C548 1.254 . S
O547 Dy540 2.664 . S
O547 Dy543 2.310 . S
O547 C548 1.268 . S
C548 O546 1.254 . S
C548 O547 1.268 . S
C549 O554 1.254 . S
C549 O555 1.268 . S
O550 Dy543 2.351 . S
O550 C558 1.249 . S
O551 Dy540 2.326 . S
O551 C558 1.267 . S
O552 C541 1.185 . S
O552 Dy543 2.398 . S
O553 C541 1.355 . S
O553 Dy543 2.491 . S
O554 Dy543 2.403 . S
O554 C549 1.254 . S
O555 Dy540 2.310 . S
O555 Dy543 2.664 . S
O555 C549 1.268 . S
O556 Dy540 2.351 . S
O556 C559 1.249 . S
O557 Dy543 2.326 . S
O557 C559 1.267 . S
C558 O550 1.249 . S
C558 O551 1.267 . S
C559 O556 1.249 . S
C559 O557 1.267 . S
Dy560 O564 2.398 . S
Dy560 O565 2.491 . S
Dy560 O566 2.403 1_455 S
Dy560 O567 2.664 1_455 S
Dy560 O571 2.326 . S
Dy560 O575 2.310 . S
Dy560 O576 2.351 1_455 S
C561 O572 1.185 . S
C561 O573 1.355 . S
C562 O564 1.185 . S
C562 O565 1.355 . S
Dy563 O567 2.310 . S
Dy563 O570 2.351 . S
Dy563 O572 2.398 . S
Dy563 O573 2.491 . S
Dy563 O574 2.403 . S
Dy563 O575 2.664 1_655 S
Dy563 O577 2.326 . S
O564 Dy560 2.398 . S
O564 C562 1.185 . S
O565 Dy560 2.491 . S
O565 C562 1.355 . S
O566 Dy560 2.403 1_655 S
O566 C568 1.254 . S
O567 Dy560 2.664 1_655 S
O567 Dy563 2.310 . S
O567 C568 1.268 . S
C568 O566 1.254 . S
C568 O567 1.268 . S
C569 O574 1.254 1_455 S
C569 O575 1.268 . S
O570 Dy563 2.351 . S
O570 C578 1.249 1_655 S
O571 Dy560 2.326 . S
O571 C578 1.267 . S
O572 C561 1.185 . S
O572 Dy563 2.398 . S
O573 C561 1.355 . S
O573 Dy563 2.491 . S
O574 Dy563 2.403 . S
O574 C569 1.254 1_655 S
O575 Dy560 2.310 . S
O575 Dy563 2.664 1_455 S
O575 C569 1.268 . S
O576 Dy560 2.351 1_655 S
O576 C579 1.249 . S
O577 Dy563 2.326 . S
O577 C579 1.267 . S
C578 O570 1.249 1_455 S
C578 O571 1.267 . S
C579 O576 1.249 . S
C579 O577 1.267 . S
Dy580 O584 2.398 . S
Dy580 O585 2.491 . S
Dy580 O586 2.403 . S
Dy580 O587 2.664 . S
Dy580 O591 2.326 . S
Dy580 O595 2.310 . S
Dy580 O596 2.351 . S
C581 O592 1.185 . S
C581 O593 1.355 . S
C582 O584 1.185 . S
C582 O585 1.355 . S
Dy583 O587 2.310 . S
Dy583 O590 2.351 . S
Dy583 O592 2.398 . S
Dy583 O593 2.491 . S
Dy583 O594 2.403 . S
Dy583 O595 2.664 . S
Dy583 O597 2.326 . S
O584 Dy580 2.398 . S
O584 C582 1.185 . S
O585 Dy580 2.491 . S
O585 C582 1.355 . S
O586 Dy580 2.403 . S
O586 C588 1.254 . S
O587 Dy580 2.664 . S
O587 Dy583 2.310 . S
O587 C588 1.268 . S
C588 O586 1.254 . S
C588 O587 1.268 . S
C589 O594 1.254 . S
C589 O595 1.268 . S
O590 Dy583 2.351 . S
O590 C598 1.249 . S
O591 Dy580 2.326 . S
O591 C598 1.267 . S
O592 C581 1.185 . S
O592 Dy583 2.398 . S
O593 C581 1.355 . S
O593 Dy583 2.491 . S
O594 Dy583 2.403 . S
O594 C589 1.254 . S
O595 Dy580 2.310 . S
O595 Dy583 2.664 . S
O595 C589 1.268 . S
O596 Dy580 2.351 . S
O596 C599 1.249 . S
O597 Dy583 2.326 . S
O597 C599 1.267 . S
C598 O590 1.249 . S
C598 O591 1.267 . S
C599 O596 1.249 . S
C599 O597 1.267 . S
Dy600 O604 2.398 . S
Dy600 O605 2.491 . S
Dy600 O606 2.403 . S
Dy600 O607 2.664 . S
Dy600 O611 2.326 . S
Dy600 O615 2.310 . S
Dy600 O616 2.351 . S
C601 O612 1.185 . S
C601 O613 1.355 . S
C602 O604 1.185 . S
C602 O605 1.355 . S
Dy603 O607 2.310 . S
Dy603 O610 2.351 . S
Dy603 O612 2.398 . S
Dy603 O613 2.491 . S
Dy603 O614 2.403 . S
Dy603 O615 2.664 . S
Dy603 O617 2.326 . S
O604 Dy600 2.398 . S
O604 C602 1.185 . S
O605 Dy600 2.491 . S
O605 C602 1.355 . S
O606 Dy600 2.403 . S
O606 C608 1.254 . S
O607 Dy600 2.664 . S
O607 Dy603 2.310 . S
O607 C608 1.268 . S
C608 O606 1.254 . S
C608 O607 1.268 . S
C609 O614 1.254 . S
C609 O615 1.268 . S
O610 Dy603 2.351 . S
O610 C618 1.249 . S
O611 Dy600 2.326 . S
O611 C618 1.267 . S
O612 C601 1.185 . S
O612 Dy603 2.398 . S
O613 C601 1.355 . S
O613 Dy603 2.491 . S
O614 Dy603 2.403 . S
O614 C609 1.254 . S
O615 Dy600 2.310 . S
O615 Dy603 2.664 . S
O615 C609 1.268 . S
O616 Dy600 2.351 . S
O616 C619 1.249 . S
O617 Dy603 2.326 . S
O617 C619 1.267 . S
C618 O610 1.249 . S
C618 O611 1.267 . S
C619 O616 1.249 . S
C619 O617 1.267 . S
Dy620 O624 2.398 . S
Dy620 O625 2.491 . S
Dy620 O626 2.403 . S
Dy620 O627 2.664 . S
Dy620 O631 2.326 . S
Dy620 O635 2.310 . S
Dy620 O636 2.351 . S
C621 O632 1.185 . S
C621 O633 1.355 . S
C622 O624 1.185 . S
C622 O625 1.355 . S
Dy623 O627 2.310 . S
Dy623 O630 2.351 . S
Dy623 O632 2.398 . S
Dy623 O633 2.491 . S
Dy623 O634 2.403 . S
Dy623 O635 2.664 . S
Dy623 O637 2.326 . S
O624 Dy620 2.398 . S
O624 C622 1.185 . S
O625 Dy620 2.491 . S
O625 C622 1.355 . S
O626 Dy620 2.403 . S
O626 C628 1.254 . S
O627 Dy620 2.664 . S
O627 Dy623 2.310 . S
O627 C628 1.268 . S
C628 O626 1.254 . S
C628 O627 1.268 . S
C629 O634 1.254 . S
C629 O635 1.268 . S
O630 Dy623 2.351 . S
O630 C638 1.249 . S
O631 Dy620 2.326 . S
O631 C638 1.267 . S
O632 C621 1.185 . S
O632 Dy623 2.398 . S
O633 C621 1.355 . S
O633 Dy623 2.491 . S
O634 Dy623 2.403 . S
O634 C629 1.254 . S
O635 Dy620 2.310 . S
O635 Dy623 2.664 . S
O635 C629 1.268 . S
O636 Dy620 2.351 . S
O636 C639 1.249 . S
O637 Dy623 2.326 . S
O637 C639 1.267 . S
C638 O630 1.249 . S
C638 O631 1.267 . S
C639 O636 1.249 . S
C639 O637 1.267 . S
Dy640 O644 2.398 1_565 S
Dy640 O645 2.491 1_565 S
Dy640 O646 2.403 . S
Dy640 O647 2.664 . S
Dy640 O651 2.326 . S
Dy640 O655 2.310 . S
Dy640 O656 2.351 . S
C641 O652 1.185 . S
C641 O653 1.355 . S
C642 O644 1.185 . S
C642 O645 1.355 . S
Dy643 O647 2.310 . S
Dy643 O650 2.351 . S
Dy643 O652 2.398 . S
Dy643 O653 2.491 . S
Dy643 O654 2.403 . S
Dy643 O655 2.664 . S
Dy643 O657 2.326 . S
O644 Dy640 2.398 1_545 S
O644 C642 1.185 . S
O645 Dy640 2.491 1_545 S
O645 C642 1.355 . S
O646 Dy640 2.403 . S
O646 C648 1.254 . S
O647 Dy640 2.664 . S
O647 Dy643 2.310 . S
O647 C648 1.268 . S
C648 O646 1.254 . S
C648 O647 1.268 . S
C649 O654 1.254 . S
C649 O655 1.268 . S
O650 Dy643 2.351 . S
O650 C658 1.249 . S
O651 Dy640 2.326 . S
O651 C658 1.267 . S
O652 C641 1.185 . S
O652 Dy643 2.398 . S
O653 C641 1.355 . S
O653 Dy643 2.491 . S
O654 Dy643 2.403 . S
O654 C649 1.254 . S
O655 Dy640 2.310 . S
O655 Dy643 2.664 . S
O655 C649 1.268 . S
O656 Dy640 2.351 . S
O656 C659 1.249 . S
O657 Dy643 2.326 . S
O657 C659 1.267 . S
C658 O650 1.249 . S
C658 O651 1.267 . S
C659 O656 1.249 . S
C659 O657 1.267 . S
Dy660 O664 2.398 . S
Dy660 O665 2.491 . S
Dy660 O666 2.403 . S
Dy660 O667 2.664 . S
Dy660 O671 2.326 . S
Dy660 O675 2.310 . S
Dy660 O676 2.351 . S
C661 O672 1.185 . S
C661 O673 1.355 . S
C662 O664 1.185 . S
C662 O665 1.355 . S
Dy663 O667 2.310 . S
Dy663 O670 2.351 . S
Dy663 O672 2.398 . S
Dy663 O673 2.491 . S
Dy663 O674 2.403 . S
Dy663 O675 2.664 . S
Dy663 O677 2.326 . S
O664 Dy660 2.398 . S
O664 C662 1.185 . S
O665 Dy660 2.491 . S
O665 C662 1.355 . S
O666 Dy660 2.403 . S
O666 C668 1.254 . S
O667 Dy660 2.664 . S
O667 Dy663 2.310 . S
O667 C668 1.268 . S
C668 O666 1.254 . S
C668 O667 1.268 . S
C669 O674 1.254 . S
C669 O675 1.268 . S
O670 Dy663 2.351 . S
O670 C678 1.249 . S
O671 Dy660 2.326 . S
O671 C678 1.267 . S
O672 C661 1.185 . S
O672 Dy663 2.398 . S
O673 C661 1.355 . S
O673 Dy663 2.491 . S
O674 Dy663 2.403 . S
O674 C669 1.254 . S
O675 Dy660 2.310 . S
O675 Dy663 2.664 . S
O675 C669 1.268 . S
O676 Dy660 2.351 . S
O676 C679 1.249 . S
O677 Dy663 2.326 . S
O677 C679 1.267 . S
C678 O670 1.249 . S
C678 O671 1.267 . S
C679 O676 1.249 . S
C679 O677 1.267 . S
Dy680 O684 2.398 . S
Dy680 O685 2.491 . S
Dy680 O686 2.403 1_565 S
Dy680 O687 2.664 1_565 S
Dy680 O691 2.326 . S
Dy680 O695 2.310 . S
Dy680 O696 2.351 1_565 S
C681 O692 1.185 . S
C681 O693 1.355 . S
C682 O684 1.185 . S
C682 O685 1.355 . S
Dy683 O687 2.310 . S
Dy683 O690 2.351 . S
Dy683 O692 2.398 . S
Dy683 O693 2.491 . S
Dy683 O694 2.403 . S
Dy683 O695 2.664 1_545 S
Dy683 O697 2.326 . S
O684 Dy680 2.398 . S
O684 C682 1.185 . S
O685 Dy680 2.491 . S
O685 C682 1.355 . S
O686 Dy680 2.403 1_545 S
O686 C688 1.254 . S
O687 Dy680 2.664 1_545 S
O687 Dy683 2.310 . S
O687 C688 1.268 . S
C688 O686 1.254 . S
C688 O687 1.268 . S
C689 O694 1.254 1_565 S
C689 O695 1.268 . S
O690 Dy683 2.351 . S
O690 C698 1.249 1_545 S
O691 Dy680 2.326 . S
O691 C698 1.267 . S
O692 C681 1.185 . S
O692 Dy683 2.398 . S
O693 C681 1.355 . S
O693 Dy683 2.491 . S
O694 Dy683 2.403 . S
O694 C689 1.254 1_545 S
O695 Dy680 2.310 . S
O695 Dy683 2.664 1_565 S
O695 C689 1.268 . S
O696 Dy680 2.351 1_545 S
O696 C699 1.249 . S
O697 Dy683 2.326 . S
O697 C699 1.267 . S
C698 O690 1.249 1_565 S
C698 O691 1.267 . S
C699 O696 1.249 . S
C699 O697 1.267 . S
Dy700 O704 2.398 . S
Dy700 O705 2.491 . S
Dy700 O706 2.403 . S
Dy700 O707 2.664 . S
Dy700 O711 2.326 . S
Dy700 O715 2.310 . S
Dy700 O716 2.351 . S
C701 O712 1.185 . S
C701 O713 1.355 . S
C702 O704 1.185 . S
C702 O705 1.355 . S
Dy703 O707 2.310 . S
Dy703 O710 2.351 . S
Dy703 O712 2.398 . S
Dy703 O713 2.491 . S
Dy703 O714 2.403 . S
Dy703 O715 2.664 . S
Dy703 O717 2.326 . S
O704 Dy700 2.398 . S
O704 C702 1.185 . S
O705 Dy700 2.491 . S
O705 C702 1.355 . S
O706 Dy700 2.403 . S
O706 C708 1.254 . S
O707 Dy700 2.664 . S
O707 Dy703 2.310 . S
O707 C708 1.268 . S
C708 O706 1.254 . S
C708 O707 1.268 . S
C709 O714 1.254 . S
C709 O715 1.268 . S
O710 Dy703 2.351 . S
O710 C718 1.249 . S
O711 Dy700 2.326 . S
O711 C718 1.267 . S
O712 C701 1.185 . S
O712 Dy703 2.398 . S
O713 C701 1.355 . S
O713 Dy703 2.491 . S
O714 Dy703 2.403 . S
O714 C709 1.254 . S
O715 Dy700 2.310 . S
O715 Dy703 2.664 . S
O715 C709 1.268 . S
O716 Dy700 2.351 . S
O716 C719 1.249 . S
O717 Dy703 2.326 . S
O717 C719 1.267 . S
C718 O710 1.249 . S
C718 O711 1.267 . S
C719 O716 1.249 . S
C719 O717 1.267 . S
Dy720 O724 2.398 1_545 S
Dy720 O725 2.491 1_545 S
Dy720 O726 2.403 . S
Dy720 O727 2.664 . S
Dy720 O731 2.328 . S
Dy720 O735 2.310 . S
Dy720 O736 2.351 . S
C721 O732 1.185 . S
C721 O733 1.355 . S
C722 O724 1.185 . S
C722 O725 1.355 . S
Dy723 O727 2.310 . S
Dy723 O730 2.351 . S
Dy723 O732 2.398 . S
Dy723 O733 2.491 . S
Dy723 O734 2.403 . S
Dy723 O735 2.664 . S
Dy723 O737 2.326 . S
O724 Dy720 2.398 1_565 S
O724 C722 1.185 . S
O725 Dy720 2.491 1_565 S
O725 C722 1.355 . S
O726 Dy720 2.403 . S
O726 C728 1.254 . S
O727 Dy720 2.664 . S
O727 Dy723 2.310 . S
O727 C728 1.268 . S
C728 O726 1.254 . S
C728 O727 1.268 . S
C729 O734 1.254 . S
C729 O735 1.268 . S
O730 Dy723 2.351 . S
O730 C738 1.249 . S
O731 Dy720 2.328 . S
O731 C738 1.273 . S
O732 C721 1.185 . S
O732 Dy723 2.398 . S
O733 C721 1.355 . S
O733 Dy723 2.491 . S
O734 Dy723 2.403 . S
O734 C729 1.254 . S
O735 Dy720 2.310 . S
O735 Dy723 2.664 . S
O735 C729 1.268 . S
O736 Dy720 2.351 . S
O736 C739 1.249 . S
O737 Dy723 2.326 . S
O737 C739 1.267 . S
C738 O730 1.249 . S
C738 O731 1.273 . S
C739 O736 1.249 . S
C739 O737 1.267 . S
Dy740 O744 2.398 . S
Dy740 O745 2.491 . S
Dy740 O746 2.403 . S
Dy740 O747 2.664 . S
Dy740 O751 2.326 . S
Dy740 O755 2.310 . S
Dy740 O756 2.351 . S
C741 O752 1.185 . S
C741 O753 1.355 . S
C742 O744 1.185 . S
C742 O745 1.355 . S
Dy743 O747 2.310 . S
Dy743 O750 2.351 . S
Dy743 O752 2.398 . S
Dy743 O753 2.491 . S
Dy743 O754 2.403 . S
Dy743 O755 2.664 . S
Dy743 O757 2.326 . S
O744 Dy740 2.398 . S
O744 C742 1.185 . S
O745 Dy740 2.491 . S
O745 C742 1.355 . S
O746 Dy740 2.403 . S
O746 C748 1.254 . S
O747 Dy740 2.664 . S
O747 Dy743 2.310 . S
O747 C748 1.268 . S
C748 O746 1.254 . S
C748 O747 1.268 . S
C749 O754 1.254 . S
C749 O755 1.268 . S
O750 Dy743 2.351 . S
O750 C758 1.249 . S
O751 Dy740 2.326 . S
O751 C758 1.267 . S
O752 C741 1.185 . S
O752 Dy743 2.398 . S
O753 C741 1.355 . S
O753 Dy743 2.491 . S
O754 Dy743 2.403 . S
O754 C749 1.254 . S
O755 Dy740 2.310 . S
O755 Dy743 2.664 . S
O755 C749 1.268 . S
O756 Dy740 2.351 . S
O756 C759 1.249 . S
O757 Dy743 2.326 . S
O757 C759 1.267 . S
C758 O750 1.249 . S
C758 O751 1.267 . S
C759 O756 1.249 . S
C759 O757 1.267 . S
Dy760 O764 2.398 1_565 S
Dy760 O765 2.491 1_565 S
Dy760 O766 2.403 . S
Dy760 O767 2.664 . S
Dy760 O771 2.326 1_565 S
Dy760 O775 2.310 . S
Dy760 O776 2.351 . S
C761 O772 1.185 . S
C761 O773 1.355 . S
C762 O764 1.185 . S
C762 O765 1.355 . S
Dy763 O767 2.310 . S
Dy763 O770 2.351 . S
Dy763 O772 2.398 . S
Dy763 O773 2.491 . S
Dy763 O774 2.403 . S
Dy763 O775 2.664 . S
Dy763 O777 2.326 . S
O764 Dy760 2.398 1_545 S
O764 C762 1.185 . S
O765 Dy760 2.491 1_545 S
O765 C762 1.355 . S
O766 Dy760 2.403 . S
O766 C768 1.254 . S
O767 Dy760 2.664 . S
O767 Dy763 2.310 . S
O767 C768 1.268 . S
C768 O766 1.254 . S
C768 O767 1.268 . S
C769 O774 1.254 . S
C769 O775 1.268 . S
O770 Dy763 2.351 . S
O770 C778 1.211 1_565 S
O771 Dy760 2.326 1_545 S
O771 C778 1.276 . S
O772 C761 1.185 . S
O772 Dy763 2.398 . S
O773 C761 1.355 . S
O773 Dy763 2.491 . S
O774 Dy763 2.403 . S
O774 C769 1.254 . S
O775 Dy760 2.310 . S
O775 Dy763 2.664 . S
O775 C769 1.268 . S
O776 Dy760 2.351 . S
O776 C779 1.249 . S
O777 Dy763 2.326 . S
O777 C779 1.267 . S
C778 O770 1.211 1_545 S
C778 O771 1.276 . S
C779 O776 1.249 . S
C779 O777 1.267 . S
Dy780 O784 2.398 . S
Dy780 O785 2.491 . S
Dy780 O786 2.403 . S
Dy780 O787 2.664 . S
Dy780 O791 2.326 . S
Dy780 O795 2.310 . S
Dy780 O796 2.351 . S
C781 O792 1.185 . S
C781 O793 1.355 . S
C782 O784 1.185 . S
C782 O785 1.355 . S
Dy783 O787 2.310 . S
Dy783 O790 2.351 . S
Dy783 O792 2.398 . S
Dy783 O793 2.491 . S
Dy783 O794 2.403 . S
Dy783 O795 2.664 . S
Dy783 O797 2.326 . S
O784 Dy780 2.398 . S
O784 C782 1.185 . S
O785 Dy780 2.491 . S
O785 C782 1.355 . S
O786 Dy780 2.403 . S
O786 C788 1.254 . S
O787 Dy780 2.664 . S
O787 Dy783 2.310 . S
O787 C788 1.268 . S
C788 O786 1.254 . S
C788 O787 1.268 . S
C789 O794 1.254 . S
C789 O795 1.268 . S
O790 Dy783 2.351 . S
O790 C798 1.249 . S
O791 Dy780 2.326 . S
O791 C798 1.267 . S
O792 C781 1.185 . S
O792 Dy783 2.398 . S
O793 C781 1.355 . S
O793 Dy783 2.491 . S
O794 Dy783 2.403 . S
O794 C789 1.254 . S
O795 Dy780 2.310 . S
O795 Dy783 2.664 . S
O795 C789 1.268 . S
O796 Dy780 2.351 . S
O796 C799 1.249 . S
O797 Dy783 2.326 . S
O797 C799 1.267 . S
C798 O790 1.249 . S
C798 O791 1.267 . S
C799 O796 1.249 . S
C799 O797 1.267 . S
Dy800 O804 2.366 1_556 S
Dy800 O805 2.448 1_556 S
Dy800 O806 2.429 . S
Dy800 O807 2.704 . S
Dy800 O811 2.321 1_556 S
Dy800 O815 2.315 . S
Dy800 O816 2.384 . S
C801 O812 1.185 . S
C801 O813 1.355 . S
C802 O804 1.185 . S
C802 O805 1.355 . S
Dy803 O807 2.310 . S
Dy803 O810 2.351 . S
Dy803 O812 2.398 . S
Dy803 O813 2.491 . S
Dy803 O814 2.403 . S
Dy803 O815 2.664 . S
Dy803 O817 2.326 . S
O804 Dy800 2.366 1_554 S
O804 C802 1.185 . S
O805 Dy800 2.448 1_554 S
O805 C802 1.355 . S
O806 Dy800 2.429 . S
O806 C808 1.254 . S
O807 Dy800 2.704 . S
O807 Dy803 2.310 . S
O807 C808 1.268 . S
C808 O806 1.254 . S
C808 O807 1.268 . S
C809 O814 1.254 . S
C809 O815 1.268 . S
O810 Dy803 2.351 . S
O810 C818 1.244 1_556 S
O811 Dy800 2.321 1_554 S
O811 C818 1.268 . S
O812 C801 1.185 . S
O812 Dy803 2.398 . S
O813 C801 1.355 . S
O813 Dy803 2.491 . S
O814 Dy803 2.403 . S
O814 C809 1.254 . S
O815 Dy800 2.315 . S
O815 Dy803 2.664 . S
O815 C809 1.268 . S
O816 Dy800 2.384 . S
O816 C819 1.249 . S
O817 Dy803 2.326 . S
O817 C819 1.267 . S
C818 O810 1.244 1_554 S
C818 O811 1.268 . S
C819 O816 1.249 . S
C819 O817 1.267 . S
Dy820 O824 2.398 . S
Dy820 O825 2.491 . S
Dy820 O826 2.403 . S
Dy820 O827 2.664 . S
Dy820 O831 2.326 . S
Dy820 O835 2.310 . S
Dy820 O836 2.351 1_554 S
C821 O832 1.185 1_556 S
C821 O833 1.355 . S
C822 O824 1.185 . S
C822 O825 1.355 . S
Dy823 O827 2.310 . S
Dy823 O830 2.351 . S
Dy823 O832 2.398 . S
Dy823 O833 2.491 1_554 S
Dy823 O834 2.403 . S
Dy823 O835 2.664 . S
Dy823 O837 2.326 1_554 S
O824 Dy820 2.398 . S
O824 C822 1.185 . S
O825 Dy820 2.491 . S
O825 C822 1.355 . S
O826 Dy820 2.403 . S
O826 C828 1.254 . S
O827 Dy820 2.664 . S
O827 Dy823 2.310 . S
O827 C828 1.268 . S
C828 O826 1.254 . S
C828 O827 1.268 . S
C829 O834 1.254 . S
C829 O835 1.268 . S
O830 Dy823 2.351 . S
O830 C838 1.249 . S
O831 Dy820 2.326 . S
O831 C838 1.267 . S
O832 C821 1.185 1_554 S
O832 Dy823 2.398 . S
O833 C821 1.355 . S
O833 Dy823 2.491 1_556 S
O834 Dy823 2.403 . S
O834 C829 1.254 . S
O835 Dy820 2.310 . S
O835 Dy823 2.664 . S
O835 C829 1.268 . S
O836 Dy820 2.351 1_556 S
O836 C839 1.249 . S
O837 Dy823 2.326 1_556 S
O837 C839 1.267 . S
C838 O830 1.249 . S
C838 O831 1.267 . S
C839 O836 1.249 . S
C839 O837 1.267 . S
Dy840 O844 2.398 . S
Dy840 O845 2.491 . S
Dy840 O846 2.403 . S
Dy840 O847 2.664 . S
Dy840 O851 2.326 . S
Dy840 O855 2.310 . S
Dy840 O856 2.351 . S
C841 O852 1.185 . S
C841 O853 1.355 . S
C842 O844 1.185 . S
C842 O845 1.355 . S
Dy843 O847 2.310 . S
Dy843 O850 2.351 . S
Dy843 O852 2.398 . S
Dy843 O853 2.491 . S
Dy843 O854 2.403 . S
Dy843 O855 2.664 . S
Dy843 O857 2.326 . S
O844 Dy840 2.398 . S
O844 C842 1.185 . S
O845 Dy840 2.491 . S
O845 C842 1.355 . S
O846 Dy840 2.403 . S
O846 C848 1.254 . S
O847 Dy840 2.664 . S
O847 Dy843 2.310 . S
O847 C848 1.268 . S
C848 O846 1.254 . S
C848 O847 1.268 . S
C849 O854 1.254 . S
C849 O855 1.268 . S
O850 Dy843 2.351 . S
O850 C858 1.249 . S
O851 Dy840 2.326 . S
O851 C858 1.267 . S
O852 C841 1.185 . S
O852 Dy843 2.398 . S
O853 C841 1.355 . S
O853 Dy843 2.491 . S
O854 Dy843 2.403 . S
O854 C849 1.254 . S
O855 Dy840 2.310 . S
O855 Dy843 2.664 . S
O855 C849 1.268 . S
O856 Dy840 2.351 . S
O856 C859 1.249 . S
O857 Dy843 2.326 . S
O857 C859 1.267 . S
C858 O850 1.249 . S
C858 O851 1.267 . S
C859 O856 1.249 . S
C859 O857 1.267 . S
Dy860 O864 2.398 . S
Dy860 O865 2.491 . S
Dy860 O866 2.403 . S
Dy860 O867 2.664 . S
Dy860 O871 2.326 . S
Dy860 O875 2.310 . S
Dy860 O876 2.351 . S
C861 O872 1.185 . S
C861 O873 1.355 . S
C862 O864 1.185 . S
C862 O865 1.355 . S
Dy863 O867 2.310 . S
Dy863 O870 2.351 . S
Dy863 O872 2.398 . S
Dy863 O873 2.491 . S
Dy863 O874 2.403 . S
Dy863 O875 2.664 . S
Dy863 O877 2.326 . S
O864 Dy860 2.398 . S
O864 C862 1.185 . S
O865 Dy860 2.491 . S
O865 C862 1.355 . S
O866 Dy860 2.403 . S
O866 C868 1.254 . S
O867 Dy860 2.664 . S
O867 Dy863 2.310 . S
O867 C868 1.268 . S
C868 O866 1.254 . S
C868 O867 1.268 . S
C869 O874 1.254 . S
C869 O875 1.268 . S
O870 Dy863 2.351 . S
O870 C878 1.249 . S
O871 Dy860 2.326 . S
O871 C878 1.267 . S
O872 C861 1.185 . S
O872 Dy863 2.398 . S
O873 C861 1.355 . S
O873 Dy863 2.491 . S
O874 Dy863 2.403 . S
O874 C869 1.254 . S
O875 Dy860 2.310 . S
O875 Dy863 2.664 . S
O875 C869 1.268 . S
O876 Dy860 2.351 . S
O876 C879 1.249 . S
O877 Dy863 2.326 . S
O877 C879 1.267 . S
C878 O870 1.249 . S
C878 O871 1.267 . S
C879 O876 1.249 . S
C879 O877 1.267 . S
Dy880 O884 2.398 . S
Dy880 O885 2.491 . S
Dy880 O886 2.403 . S
Dy880 O887 2.664 . S
Dy880 O891 2.326 . S
Dy880 O895 2.310 . S
Dy880 O896 2.351 . S
C881 O892 1.185 . S
C881 O893 1.355 . S
C882 O884 1.185 . S
C882 O885 1.355 . S
Dy883 O887 2.310 . S
Dy883 O890 2.351 . S
Dy883 O892 2.398 . S
Dy883 O893 2.491 . S
Dy883 O894 2.403 . S
Dy883 O895 2.664 . S
Dy883 O897 2.326 . S
O884 Dy880 2.398 . S
O884 C882 1.185 . S
O885 Dy880 2.491 . S
O885 C882 1.355 . S
O886 Dy880 2.403 . S
O886 C888 1.254 . S
O887 Dy880 2.664 . S
O887 Dy883 2.310 . S
O887 C888 1.268 . S
C888 O886 1.254 . S
C888 O887 1.268 . S
C889 O894 1.254 . S
C889 O895 1.268 . S
O890 Dy883 2.351 . S
O890 C898 1.249 . S
O891 Dy880 2.326 . S
O891 C898 1.267 . S
O892 C881 1.185 . S
O892 Dy883 2.398 . S
O893 C881 1.355 . S
O893 Dy883 2.491 . S
O894 Dy883 2.403 . S
O894 C889 1.254 . S
O895 Dy880 2.310 . S
O895 Dy883 2.664 . S
O895 C889 1.268 . S
O896 Dy880 2.351 . S
O896 C899 1.249 . S
O897 Dy883 2.326 . S
O897 C899 1.267 . S
C898 O890 1.249 . S
C898 O891 1.267 . S
C899 O896 1.249 . S
C899 O897 1.267 . S
Dy900 O904 2.398 . S
Dy900 O905 2.491 . S
Dy900 O906 2.403 . S
Dy900 O907 2.664 . S
Dy900 O911 2.326 . S
Dy900 O915 2.310 . S
Dy900 O916 2.351 . S
C901 O912 1.185 . S
C901 O913 1.355 . S
C902 O904 1.185 . S
C902 O905 1.355 . S
Dy903 O907 2.310 . S
Dy903 O910 2.351 . S
Dy903 O912 2.398 . S
Dy903 O913 2.491 . S
Dy903 O914 2.403 . S
Dy903 O915 2.664 . S
Dy903 O917 2.326 . S
O904 Dy900 2.398 . S
O904 C902 1.185 . S
O905 Dy900 2.491 . S
O905 C902 1.355 . S
O906 Dy900 2.403 . S
O906 C908 1.254 . S
O907 Dy900 2.664 . S
O907 Dy903 2.310 . S
O907 C908 1.268 . S
C908 O906 1.254 . S
C908 O907 1.268 . S
C909 O914 1.254 . S
C909 O915 1.268 . S
O910 Dy903 2.351 . S
O910 C918 1.249 . S
O911 Dy900 2.326 . S
O911 C918 1.267 . S
O912 C901 1.185 . S
O912 Dy903 2.398 . S
O913 C901 1.355 . S
O913 Dy903 2.491 . S
O914 Dy903 2.403 . S
O914 C909 1.254 . S
O915 Dy900 2.310 . S
O915 Dy903 2.664 . S
O915 C909 1.268 . S
O916 Dy900 2.351 . S
O916 C919 1.249 . S
O917 Dy903 2.326 . S
O917 C919 1.267 . S
C918 O910 1.249 . S
C918 O911 1.267 . S
C919 O916 1.249 . S
C919 O917 1.267 . S
Dy920 O924 2.398 . S
Dy920 O925 2.491 . S
Dy920 O926 2.403 . S
Dy920 O927 2.664 . S
Dy920 O931 2.326 . S
Dy920 O935 2.310 . S
Dy920 O936 2.351 . S
C921 O932 1.185 . S
C921 O933 1.355 . S
C922 O924 1.185 . S
C922 O925 1.355 . S
Dy923 O927 2.310 . S
Dy923 O930 2.351 . S
Dy923 O932 2.398 . S
Dy923 O933 2.491 . S
Dy923 O934 2.403 . S
Dy923 O935 2.664 . S
Dy923 O937 2.326 . S
O924 Dy920 2.398 . S
O924 C922 1.185 . S
O925 Dy920 2.491 . S
O925 C922 1.355 . S
O926 Dy920 2.403 . S
O926 C928 1.254 . S
O927 Dy920 2.664 . S
O927 Dy923 2.310 . S
O927 C928 1.268 . S
C928 O926 1.254 . S
C928 O927 1.268 . S
C929 O934 1.254 . S
C929 O935 1.268 . S
O930 Dy923 2.351 . S
O930 C938 1.249 . S
O931 Dy920 2.326 . S
O931 C938 1.267 . S
O932 C921 1.185 . S
O932 Dy923 2.398 . S
O933 C921 1.355 . S
O933 Dy923 2.491 . S
O934 Dy923 2.403 . S
O934 C929 1.254 . S
O935 Dy920 2.310 . S
O935 Dy923 2.664 . S
O935 C929 1.268 . S
O936 Dy920 2.351 . S
O936 C939 1.249 . S
O937 Dy923 2.326 . S
O937 C939 1.267 . S
C938 O930 1.249 . S
C938 O931 1.267 . S
C939 O936 1.249 . S
C939 O937 1.267 . S
Dy940 O944 2.398 . S
Dy940 O945 2.491 . S
Dy940 O946 2.403 . S
Dy940 O947 2.664 . S
Dy940 O951 2.326 . S
Dy940 O955 2.310 . S
Dy940 O956 2.351 . S
C941 O952 1.185 . S
C941 O953 1.355 . S
C942 O944 1.185 . S
C942 O945 1.355 . S
Dy943 O947 2.310 . S
Dy943 O950 2.351 . S
Dy943 O952 2.398 . S
Dy943 O953 2.491 . S
Dy943 O954 2.403 . S
Dy943 O955 2.664 . S
Dy943 O957 2.326 . S
O944 Dy940 2.398 . S
O944 C942 1.185 . S
O945 Dy940 2.491 . S
O945 C942 1.355 . S
O946 Dy940 2.403 . S
O946 C948 1.254 . S
O947 Dy940 2.664 . S
O947 Dy943 2.310 . S
O947 C948 1.268 . S
C948 O946 1.254 . S
C948 O947 1.268 . S
C949 O954 1.254 . S
C949 O955 1.268 . S
O950 Dy943 2.351 . S
O950 C958 1.249 . S
O951 Dy940 2.326 . S
O951 C958 1.267 . S
O952 C941 1.185 . S
O952 Dy943 2.398 . S
O953 C941 1.355 . S
O953 Dy943 2.491 . S
O954 Dy943 2.403 . S
O954 C949 1.254 . S
O955 Dy940 2.310 . S
O955 Dy943 2.664 . S
O955 C949 1.268 . S
O956 Dy940 2.351 . S
O956 C959 1.249 . S
O957 Dy943 2.326 . S
O957 C959 1.267 . S
C958 O950 1.249 . S
C958 O951 1.267 . S
C959 O956 1.249 . S
C959 O957 1.267 . S
Dy960 O964 2.398 . S
Dy960 O965 2.491 . S
Dy960 O966 2.403 . S
Dy960 O967 2.664 . S
Dy960 O971 2.326 . S
Dy960 O975 2.310 . S
Dy960 O976 2.351 . S
C961 O972 1.185 . S
C961 O973 1.355 . S
C962 O964 1.185 . S
C962 O965 1.355 . S
Dy963 O967 2.310 . S
Dy963 O970 2.351 . S
Dy963 O972 2.398 . S
Dy963 O973 2.491 . S
Dy963 O974 2.403 . S
Dy963 O975 2.664 . S
Dy963 O977 2.326 . S
O964 Dy960 2.398 . S
O964 C962 1.185 . S
O965 Dy960 2.491 . S
O965 C962 1.355 . S
O966 Dy960 2.403 . S
O966 C968 1.254 . S
O967 Dy960 2.664 . S
O967 Dy963 2.310 . S
O967 C968 1.268 . S
C968 O966 1.254 . S
C968 O967 1.268 . S
C969 O974 1.254 . S
C969 O975 1.268 . S
O970 Dy963 2.351 . S
O970 C978 1.249 . S
O971 Dy960 2.326 . S
O971 C978 1.267 . S
O972 C961 1.185 . S
O972 Dy963 2.398 . S
O973 C961 1.355 . S
O973 Dy963 2.491 . S
O974 Dy963 2.403 . S
O974 C969 1.254 . S
O975 Dy960 2.310 . S
O975 Dy963 2.664 . S
O975 C969 1.268 . S
O976 Dy960 2.351 . S
O976 C979 1.249 . S
O977 Dy963 2.326 . S
O977 C979 1.267 . S
C978 O970 1.249 . S
C978 O971 1.267 . S
C979 O976 1.249 . S
C979 O977 1.267 . S
Dy980 O984 2.398 . S
Dy980 O985 2.491 . S
Dy980 O986 2.403 . S
Dy980 O987 2.664 . S
Dy980 O991 2.326 . S
Dy980 O995 2.310 . S
Dy980 O996 2.351 . S
C981 O992 1.185 . S
C981 O993 1.355 . S
C982 O984 1.185 . S
C982 O985 1.355 . S
Dy983 O987 2.310 . S
Dy983 O990 2.351 . S
Dy983 O992 2.398 . S
Dy983 O993 2.491 . S
Dy983 O994 2.403 . S
Dy983 O995 2.664 . S
Dy983 O997 2.326 . S
O984 Dy980 2.398 . S
O984 C982 1.185 . S
O985 Dy980 2.491 . S
O985 C982 1.355 . S
O986 Dy980 2.403 . S
O986 C988 1.254 . S
O987 Dy980 2.664 . S
O987 Dy983 2.310 . S
O987 C988 1.268 . S
C988 O986 1.254 . S
C988 O987 1.268 . S
C989 O994 1.254 . S
C989 O995 1.268 . S
O990 Dy983 2.351 . S
O990 C998 1.249 . S
O991 Dy980 2.326 . S
O991 C998 1.267 . S
O992 C981 1.185 . S
O992 Dy983 2.398 . S
O993 C981 1.355 . S
O993 Dy983 2.491 . S
O994 Dy983 2.403 . S
O994 C989 1.254 . S
O995 Dy980 2.310 . S
O995 Dy983 2.664 . S
O995 C989 1.268 . S
O996 Dy980 2.351 . S
O996 C999 1.249 . S
O997 Dy983 2.326 . S
O997 C999 1.267 . S
C998 O990 1.249 . S
C998 O991 1.267 . S
C999 O996 1.249 . S
C999 O997 1.267 . S
Dy1000 O1004 2.398 1_655 S
Dy1000 O1005 2.491 1_655 S
Dy1000 O1006 2.403 . S
Dy1000 O1007 2.664 . S
Dy1000 O1011 2.326 1_655 S
Dy1000 O1015 2.310 1_655 S
Dy1000 O1016 2.351 . S
C1001 O1012 1.185 . S
C1001 O1013 1.355 . S
C1002 O1004 1.185 . S
C1002 O1005 1.355 . S
Dy1003 O1007 2.310 . S
Dy1003 O1010 2.351 1_655 S
Dy1003 O1012 2.398 . S
Dy1003 O1013 2.491 . S
Dy1003 O1014 2.403 1_655 S
Dy1003 O1015 2.664 1_655 S
Dy1003 O1017 2.326 . S
O1004 Dy1000 2.398 1_455 S
O1004 C1002 1.185 . S
O1005 Dy1000 2.491 1_455 S
O1005 C1002 1.355 . S
O1006 Dy1000 2.403 . S
O1006 C1008 1.254 . S
O1007 Dy1000 2.664 . S
O1007 Dy1003 2.310 . S
O1007 C1008 1.268 . S
C1008 O1006 1.254 . S
C1008 O1007 1.268 . S
C1009 O1014 1.254 . S
C1009 O1015 1.268 . S
O1010 Dy1003 2.351 1_455 S
O1010 C1018 1.249 . S
O1011 Dy1000 2.326 1_455 S
O1011 C1018 1.267 . S
O1012 C1001 1.185 . S
O1012 Dy1003 2.398 . S
O1013 C1001 1.355 . S
O1013 Dy1003 2.491 . S
O1014 Dy1003 2.403 1_455 S
O1014 C1009 1.254 . S
O1015 Dy1000 2.310 1_455 S
O1015 Dy1003 2.664 1_455 S
O1015 C1009 1.268 . S
O1016 Dy1000 2.351 . S
O1016 C1019 1.249 . S
O1017 Dy1003 2.326 . S
O1017 C1019 1.267 . S
C1018 O1010 1.249 . S
C1018 O1011 1.267 . S
C1019 O1016 1.249 . S
C1019 O1017 1.267 . S
Dy1020 O1024 2.398 . S
Dy1020 O1025 2.491 . S
Dy1020 O1026 2.403 . S
Dy1020 O1027 2.664 . S
Dy1020 O1031 2.326 . S
Dy1020 O1035 2.310 . S
Dy1020 O1036 2.351 . S
C1021 O1032 1.185 . S
C1021 O1033 1.355 . S
C1022 O1024 1.185 . S
C1022 O1025 1.355 . S
Dy1023 O1027 2.310 . S
Dy1023 O1030 2.351 . S
Dy1023 O1032 2.398 . S
Dy1023 O1033 2.491 . S
Dy1023 O1034 2.403 . S
Dy1023 O1035 2.664 . S
Dy1023 O1037 2.326 . S
O1024 Dy1020 2.398 . S
O1024 C1022 1.185 . S
O1025 Dy1020 2.491 . S
O1025 C1022 1.355 . S
O1026 Dy1020 2.403 . S
O1026 C1028 1.254 . S
O1027 Dy1020 2.664 . S
O1027 Dy1023 2.310 . S
O1027 C1028 1.268 . S
C1028 O1026 1.254 . S
C1028 O1027 1.268 . S
C1029 O1034 1.254 . S
C1029 O1035 1.268 . S
O1030 Dy1023 2.351 . S
O1030 C1038 1.249 . S
O1031 Dy1020 2.326 . S
O1031 C1038 1.267 . S
O1032 C1021 1.185 . S
O1032 Dy1023 2.398 . S
O1033 C1021 1.355 . S
O1033 Dy1023 2.491 . S
O1034 Dy1023 2.403 . S
O1034 C1029 1.254 . S
O1035 Dy1020 2.310 . S
O1035 Dy1023 2.664 . S
O1035 C1029 1.268 . S
O1036 Dy1020 2.351 . S
O1036 C1039 1.249 . S
O1037 Dy1023 2.326 . S
O1037 C1039 1.267 . S
C1038 O1030 1.249 . S
C1038 O1031 1.267 . S
C1039 O1036 1.249 . S
C1039 O1037 1.267 . S
Dy1040 O1044 2.398 . S
Dy1040 O1045 2.491 . S
Dy1040 O1046 2.403 . S
Dy1040 O1047 2.664 . S
Dy1040 O1051 2.326 . S
Dy1040 O1055 2.310 . S
Dy1040 O1056 2.351 . S
C1041 O1052 1.185 . S
C1041 O1053 1.355 . S
C1042 O1044 1.185 . S
C1042 O1045 1.355 . S
Dy1043 O1047 2.310 . S
Dy1043 O1050 2.351 . S
Dy1043 O1052 2.398 . S
Dy1043 O1053 2.491 . S
Dy1043 O1054 2.403 . S
Dy1043 O1055 2.664 . S
Dy1043 O1057 2.326 . S
O1044 Dy1040 2.398 . S
O1044 C1042 1.185 . S
O1045 Dy1040 2.491 . S
O1045 C1042 1.355 . S
O1046 Dy1040 2.403 . S
O1046 C1048 1.254 . S
O1047 Dy1040 2.664 . S
O1047 Dy1043 2.310 . S
O1047 C1048 1.268 . S
C1048 O1046 1.254 . S
C1048 O1047 1.268 . S
C1049 O1054 1.254 . S
C1049 O1055 1.268 . S
O1050 Dy1043 2.351 . S
O1050 C1058 1.249 . S
O1051 Dy1040 2.326 . S
O1051 C1058 1.267 . S
O1052 C1041 1.185 . S
O1052 Dy1043 2.398 . S
O1053 C1041 1.355 . S
O1053 Dy1043 2.491 . S
O1054 Dy1043 2.403 . S
O1054 C1049 1.254 . S
O1055 Dy1040 2.310 . S
O1055 Dy1043 2.664 . S
O1055 C1049 1.268 . S
O1056 Dy1040 2.351 . S
O1056 C1059 1.249 . S
O1057 Dy1043 2.326 . S
O1057 C1059 1.267 . S
C1058 O1050 1.249 . S
C1058 O1051 1.267 . S
C1059 O1056 1.249 . S
C1059 O1057 1.267 . S
Dy1060 O1064 2.398 . S
Dy1060 O1065 2.491 . S
Dy1060 O1066 2.403 . S
Dy1060 O1067 2.664 . S
Dy1060 O1071 2.326 . S
Dy1060 O1075 2.310 . S
Dy1060 O1076 2.351 . S
C1061 O1072 1.185 . S
C1061 O1073 1.355 . S
C1062 O1064 1.185 . S
C1062 O1065 1.355 . S
Dy1063 O1067 2.310 . S
Dy1063 O1070 2.351 . S
Dy1063 O1072 2.398 . S
Dy1063 O1073 2.491 . S
Dy1063 O1074 2.403 . S
Dy1063 O1075 2.664 . S
Dy1063 O1077 2.326 . S
O1064 Dy1060 2.398 . S
O1064 C1062 1.185 . S
O1065 Dy1060 2.491 . S
O1065 C1062 1.355 . S
O1066 Dy1060 2.403 . S
O1066 C1068 1.254 . S
O1067 Dy1060 2.664 . S
O1067 Dy1063 2.310 . S
O1067 C1068 1.268 . S
C1068 O1066 1.254 . S
C1068 O1067 1.268 . S
C1069 O1074 1.254 . S
C1069 O1075 1.268 . S
O1070 Dy1063 2.351 . S
O1070 C1078 1.249 . S
O1071 Dy1060 2.326 . S
O1071 C1078 1.267 . S
O1072 C1061 1.185 . S
O1072 Dy1063 2.398 . S
O1073 C1061 1.355 . S
O1073 Dy1063 2.491 . S
O1074 Dy1063 2.403 . S
O1074 C1069 1.254 . S
O1075 Dy1060 2.310 . S
O1075 Dy1063 2.664 . S
O1075 C1069 1.268 . S
O1076 Dy1060 2.351 . S
O1076 C1079 1.249 . S
O1077 Dy1063 2.326 . S
O1077 C1079 1.267 . S
C1078 O1070 1.249 . S
C1078 O1071 1.267 . S
C1079 O1076 1.249 . S
C1079 O1077 1.267 . S
Dy1080 O1084 2.379 1_655 S
Dy1080 O1085 2.491 1_655 S
Dy1080 O1086 2.403 . S
Dy1080 O1087 2.664 . S
Dy1080 O1091 2.326 1_655 S
Dy1080 O1095 2.310 . S
Dy1080 O1096 2.351 . S
C1081 O1092 1.185 . S
C1081 O1093 1.355 . S
C1082 O1084 1.226 . S
C1082 O1085 1.355 . S
Dy1083 O1087 2.310 . S
Dy1083 O1090 2.351 1_655 S
Dy1083 O1092 2.398 . S
Dy1083 O1093 2.491 . S
Dy1083 O1094 2.420 . S
Dy1083 O1095 2.664 . S
Dy1083 O1097 2.326 . S
O1084 Dy1080 2.379 1_455 S
O1084 C1082 1.226 . S
O1085 Dy1080 2.491 1_455 S
O1085 C1082 1.355 . S
O1086 Dy1080 2.403 . S
O1086 C1088 1.254 . S
O1087 Dy1080 2.664 . S
O1087 Dy1083 2.310 . S
O1087 C1088 1.268 . S
C1088 O1086 1.254 . S
C1088 O1087 1.268 . S
C1089 O1094 1.246 1_455 S
C1089 O1095 1.268 1_455 S
O1090 Dy1083 2.351 1_455 S
O1090 C1098 1.249 . S
O1091 Dy1080 2.326 1_455 S
O1091 C1098 1.267 . S
O1092 C1081 1.185 . S
O1092 Dy1083 2.398 . S
O1093 C1081 1.355 . S
O1093 Dy1083 2.491 . S
O1094 Dy1083 2.420 . S
O1094 C1089 1.246 1_655 S
O1095 Dy1080 2.310 . S
O1095 Dy1083 2.664 . S
O1095 C1089 1.268 1_655 S
O1096 Dy1080 2.351 . S
O1096 C1099 1.249 . S
O1097 Dy1083 2.326 . S
O1097 C1099 1.267 . S
C1098 O1090 1.249 . S
C1098 O1091 1.267 . S
C1099 O1096 1.249 . S
C1099 O1097 1.267 . S
Dy1100 O1104 2.398 . S
Dy1100 O1105 2.491 . S
Dy1100 O1106 2.403 . S
Dy1100 O1107 2.664 . S
Dy1100 O1111 2.326 . S
Dy1100 O1115 2.310 . S
Dy1100 O1116 2.351 . S
C1101 O1112 1.185 . S
C1101 O1113 1.355 . S
C1102 O1104 1.185 . S
C1102 O1105 1.355 . S
Dy1103 O1107 2.310 . S
Dy1103 O1110 2.351 . S
Dy1103 O1112 2.398 . S
Dy1103 O1113 2.491 . S
Dy1103 O1114 2.403 . S
Dy1103 O1115 2.664 . S
Dy1103 O1117 2.326 . S
O1104 Dy1100 2.398 . S
O1104 C1102 1.185 . S
O1105 Dy1100 2.491 . S
O1105 C1102 1.355 . S
O1106 Dy1100 2.403 . S
O1106 C1108 1.254 . S
O1107 Dy1100 2.664 . S
O1107 Dy1103 2.310 . S
O1107 C1108 1.268 . S
C1108 O1106 1.254 . S
C1108 O1107 1.268 . S
C1109 O1114 1.254 . S
C1109 O1115 1.268 . S
O1110 Dy1103 2.351 . S
O1110 C1118 1.249 . S
O1111 Dy1100 2.326 . S
O1111 C1118 1.267 . S
O1112 C1101 1.185 . S
O1112 Dy1103 2.398 . S
O1113 C1101 1.355 . S
O1113 Dy1103 2.491 . S
O1114 Dy1103 2.403 . S
O1114 C1109 1.254 . S
O1115 Dy1100 2.310 . S
O1115 Dy1103 2.664 . S
O1115 C1109 1.268 . S
O1116 Dy1100 2.351 . S
O1116 C1119 1.249 . S
O1117 Dy1103 2.326 . S
O1117 C1119 1.267 . S
C1118 O1110 1.249 . S
C1118 O1111 1.267 . S
C1119 O1116 1.249 . S
C1119 O1117 1.267 . S
Dy1120 O1124 2.398 . S
Dy1120 O1125 2.491 . S
Dy1120 O1126 2.403 . S
Dy1120 O1127 2.664 . S
Dy1120 O1131 2.326 . S
Dy1120 O1135 2.310 . S
Dy1120 O1136 2.351 . S
C1121 O1132 1.185 . S
C1121 O1133 1.355 . S
C1122 O1124 1.185 . S
C1122 O1125 1.355 . S
Dy1123 O1127 2.310 . S
Dy1123 O1130 2.351 . S
Dy1123 O1132 2.398 . S
Dy1123 O1133 2.491 . S
Dy1123 O1134 2.403 . S
Dy1123 O1135 2.664 . S
Dy1123 O1137 2.326 . S
O1124 Dy1120 2.398 . S
O1124 C1122 1.185 . S
O1125 Dy1120 2.491 . S
O1125 C1122 1.355 . S
O1126 Dy1120 2.403 . S
O1126 C1128 1.254 . S
O1127 Dy1120 2.664 . S
O1127 Dy1123 2.310 . S
O1127 C1128 1.268 . S
C1128 O1126 1.254 . S
C1128 O1127 1.268 . S
C1129 O1134 1.254 . S
C1129 O1135 1.268 . S
O1130 Dy1123 2.351 . S
O1130 C1138 1.249 . S
O1131 Dy1120 2.326 . S
O1131 C1138 1.267 . S
O1132 C1121 1.185 . S
O1132 Dy1123 2.398 . S
O1133 C1121 1.355 . S
O1133 Dy1123 2.491 . S
O1134 Dy1123 2.403 . S
O1134 C1129 1.254 . S
O1135 Dy1120 2.310 . S
O1135 Dy1123 2.664 . S
O1135 C1129 1.268 . S
O1136 Dy1120 2.351 . S
O1136 C1139 1.249 . S
O1137 Dy1123 2.326 . S
O1137 C1139 1.267 . S
C1138 O1130 1.249 . S
C1138 O1131 1.267 . S
C1139 O1136 1.249 . S
C1139 O1137 1.267 . S
Dy1140 O1144 2.398 . S
Dy1140 O1145 2.491 . S
Dy1140 O1146 2.403 . S
Dy1140 O1147 2.664 . S
Dy1140 O1151 2.326 . S
Dy1140 O1155 2.310 . S
Dy1140 O1156 2.351 . S
C1141 O1152 1.185 . S
C1141 O1153 1.355 . S
C1142 O1144 1.185 . S
C1142 O1145 1.355 . S
Dy1143 O1147 2.310 . S
Dy1143 O1150 2.351 . S
Dy1143 O1152 2.398 . S
Dy1143 O1153 2.491 . S
Dy1143 O1154 2.403 . S
Dy1143 O1155 2.664 . S
Dy1143 O1157 2.326 . S
O1144 Dy1140 2.398 . S
O1144 C1142 1.185 . S
O1145 Dy1140 2.491 . S
O1145 C1142 1.355 . S
O1146 Dy1140 2.403 . S
O1146 C1148 1.254 . S
O1147 Dy1140 2.664 . S
O1147 Dy1143 2.310 . S
O1147 C1148 1.268 . S
C1148 O1146 1.254 . S
C1148 O1147 1.268 . S
C1149 O1154 1.254 . S
C1149 O1155 1.268 . S
O1150 Dy1143 2.351 . S
O1150 C1158 1.249 . S
O1151 Dy1140 2.326 . S
O1151 C1158 1.267 . S
O1152 C1141 1.185 . S
O1152 Dy1143 2.398 . S
O1153 C1141 1.355 . S
O1153 Dy1143 2.491 . S
O1154 Dy1143 2.403 . S
O1154 C1149 1.254 . S
O1155 Dy1140 2.310 . S
O1155 Dy1143 2.664 . S
O1155 C1149 1.268 . S
O1156 Dy1140 2.351 . S
O1156 C1159 1.249 . S
O1157 Dy1143 2.326 . S
O1157 C1159 1.267 . S
C1158 O1150 1.249 . S
C1158 O1151 1.267 . S
C1159 O1156 1.249 . S
C1159 O1157 1.267 . S
Dy1160 O1164 2.398 . S
Dy1160 O1165 2.491 . S
Dy1160 O1166 2.403 . S
Dy1160 O1167 2.664 . S
Dy1160 O1171 2.326 . S
Dy1160 O1175 2.310 . S
Dy1160 O1176 2.351 . S
C1161 O1172 1.185 . S
C1161 O1173 1.355 . S
C1162 O1164 1.185 . S
C1162 O1165 1.355 . S
Dy1163 O1167 2.310 . S
Dy1163 O1170 2.351 . S
Dy1163 O1172 2.398 . S
Dy1163 O1173 2.491 . S
Dy1163 O1174 2.403 . S
Dy1163 O1175 2.664 . S
Dy1163 O1177 2.326 . S
O1164 Dy1160 2.398 . S
O1164 C1162 1.185 . S
O1165 Dy1160 2.491 . S
O1165 C1162 1.355 . S
O1166 Dy1160 2.403 . S
O1166 C1168 1.254 . S
O1167 Dy1160 2.664 . S
O1167 Dy1163 2.310 . S
O1167 C1168 1.268 . S
C1168 O1166 1.254 . S
C1168 O1167 1.268 . S
C1169 O1174 1.254 . S
C1169 O1175 1.268 . S
O1170 Dy1163 2.351 . S
O1170 C1178 1.249 . S
O1171 Dy1160 2.326 . S
O1171 C1178 1.267 . S
O1172 C1161 1.185 . S
O1172 Dy1163 2.398 . S
O1173 C1161 1.355 . S
O1173 Dy1163 2.491 . S
O1174 Dy1163 2.403 . S
O1174 C1169 1.254 . S
O1175 Dy1160 2.310 . S
O1175 Dy1163 2.664 . S
O1175 C1169 1.268 . S
O1176 Dy1160 2.351 . S
O1176 C1179 1.249 . S
O1177 Dy1163 2.326 . S
O1177 C1179 1.267 . S
C1178 O1170 1.249 . S
C1178 O1171 1.267 . S
C1179 O1176 1.249 . S
C1179 O1177 1.267 . S
Dy1180 O1184 2.398 . S
Dy1180 O1185 2.491 . S
Dy1180 O1186 2.403 . S
Dy1180 O1187 2.664 . S
Dy1180 O1191 2.326 . S
Dy1180 O1195 2.310 . S
Dy1180 O1196 2.351 . S
C1181 O1192 1.185 . S
C1181 O1193 1.355 . S
C1182 O1184 1.185 . S
C1182 O1185 1.355 . S
Dy1183 O1187 2.310 . S
Dy1183 O1190 2.351 . S
Dy1183 O1192 2.398 . S
Dy1183 O1193 2.491 . S
Dy1183 O1194 2.403 . S
Dy1183 O1195 2.664 . S
Dy1183 O1197 2.326 . S
O1184 Dy1180 2.398 . S
O1184 C1182 1.185 . S
O1185 Dy1180 2.491 . S
O1185 C1182 1.355 . S
O1186 Dy1180 2.403 . S
O1186 C1188 1.254 . S
O1187 Dy1180 2.664 . S
O1187 Dy1183 2.310 . S
O1187 C1188 1.268 . S
C1188 O1186 1.254 . S
C1188 O1187 1.268 . S
C1189 O1194 1.254 . S
C1189 O1195 1.268 . S
O1190 Dy1183 2.351 . S
O1190 C1198 1.249 . S
O1191 Dy1180 2.326 . S
O1191 C1198 1.267 . S
O1192 C1181 1.185 . S
O1192 Dy1183 2.398 . S
O1193 C1181 1.355 . S
O1193 Dy1183 2.491 . S
O1194 Dy1183 2.403 . S
O1194 C1189 1.254 . S
O1195 Dy1180 2.310 . S
O1195 Dy1183 2.664 . S
O1195 C1189 1.268 . S
O1196 Dy1180 2.351 . S
O1196 C1199 1.249 . S
O1197 Dy1183 2.326 . S
O1197 C1199 1.267 . S
C1198 O1190 1.249 . S
C1198 O1191 1.267 . S
C1199 O1196 1.249 . S
C1199 O1197 1.267 . S
Dy1200 O1204 2.398 . S
Dy1200 O1205 2.491 . S
Dy1200 O1206 2.403 . S
Dy1200 O1207 2.664 . S
Dy1200 O1211 2.326 . S
Dy1200 O1215 2.310 . S
Dy1200 O1216 2.351 . S
C1201 O1212 1.185 . S
C1201 O1213 1.355 . S
C1202 O1204 1.185 . S
C1202 O1205 1.355 . S
Dy1203 O1207 2.310 . S
Dy1203 O1210 2.351 . S
Dy1203 O1212 2.398 . S
Dy1203 O1213 2.491 . S
Dy1203 O1214 2.403 . S
Dy1203 O1215 2.664 . S
Dy1203 O1217 2.326 . S
O1204 Dy1200 2.398 . S
O1204 C1202 1.185 . S
O1205 Dy1200 2.491 . S
O1205 C1202 1.355 . S
O1206 Dy1200 2.403 . S
O1206 C1208 1.254 . S
O1207 Dy1200 2.664 . S
O1207 Dy1203 2.310 . S
O1207 C1208 1.268 . S
C1208 O1206 1.254 . S
C1208 O1207 1.268 . S
C1209 O1214 1.254 . S
C1209 O1215 1.268 . S
O1210 Dy1203 2.351 . S
O1210 C1218 1.249 . S
O1211 Dy1200 2.326 . S
O1211 C1218 1.267 . S
O1212 C1201 1.185 . S
O1212 Dy1203 2.398 . S
O1213 C1201 1.355 . S
O1213 Dy1203 2.491 . S
O1214 Dy1203 2.403 . S
O1214 C1209 1.254 . S
O1215 Dy1200 2.310 . S
O1215 Dy1203 2.664 . S
O1215 C1209 1.268 . S
O1216 Dy1200 2.351 . S
O1216 C1219 1.249 . S
O1217 Dy1203 2.326 . S
O1217 C1219 1.267 . S
C1218 O1210 1.249 . S
C1218 O1211 1.267 . S
C1219 O1216 1.249 . S
C1219 O1217 1.267 . S
Dy1220 O1224 2.398 . S
Dy1220 O1225 2.491 . S
Dy1220 O1226 2.403 . S
Dy1220 O1227 2.664 . S
Dy1220 O1231 2.326 . S
Dy1220 O1235 2.310 . S
Dy1220 O1236 2.351 . S
C1221 O1232 1.185 . S
C1221 O1233 1.355 . S
C1222 O1224 1.185 . S
C1222 O1225 1.355 . S
Dy1223 O1227 2.310 . S
Dy1223 O1230 2.351 . S
Dy1223 O1232 2.398 . S
Dy1223 O1233 2.491 . S
Dy1223 O1234 2.403 . S
Dy1223 O1235 2.664 . S
Dy1223 O1237 2.326 . S
O1224 Dy1220 2.398 . S
O1224 C1222 1.185 . S
O1225 Dy1220 2.491 . S
O1225 C1222 1.355 . S
O1226 Dy1220 2.403 . S
O1226 C1228 1.254 . S
O1227 Dy1220 2.664 . S
O1227 Dy1223 2.310 . S
O1227 C1228 1.268 . S
C1228 O1226 1.254 . S
C1228 O1227 1.268 . S
C1229 O1234 1.254 . S
C1229 O1235 1.268 . S
O1230 Dy1223 2.351 . S
O1230 C1238 1.249 . S
O1231 Dy1220 2.326 . S
O1231 C1238 1.267 . S
O1232 C1221 1.185 . S
O1232 Dy1223 2.398 . S
O1233 C1221 1.355 . S
O1233 Dy1223 2.491 . S
O1234 Dy1223 2.403 . S
O1234 C1229 1.254 . S
O1235 Dy1220 2.310 . S
O1235 Dy1223 2.664 . S
O1235 C1229 1.268 . S
O1236 Dy1220 2.351 . S
O1236 C1239 1.249 . S
O1237 Dy1223 2.326 . S
O1237 C1239 1.267 . S
C1238 O1230 1.249 . S
C1238 O1231 1.267 . S
C1239 O1236 1.249 . S
C1239 O1237 1.267 . S
Dy1240 O1244 2.398 . S
Dy1240 O1245 2.491 . S
Dy1240 O1246 2.403 . S
Dy1240 O1247 2.664 . S
Dy1240 O1251 2.326 . S
Dy1240 O1255 2.310 . S
Dy1240 O1256 2.351 . S
C1241 O1252 1.185 . S
C1241 O1253 1.355 . S
C1242 O1244 1.185 . S
C1242 O1245 1.355 . S
Dy1243 O1247 2.310 . S
Dy1243 O1250 2.351 . S
Dy1243 O1252 2.398 . S
Dy1243 O1253 2.491 . S
Dy1243 O1254 2.403 . S
Dy1243 O1255 2.664 . S
Dy1243 O1257 2.326 . S
O1244 Dy1240 2.398 . S
O1244 C1242 1.185 . S
O1245 Dy1240 2.491 . S
O1245 C1242 1.355 . S
O1246 Dy1240 2.403 . S
O1246 C1248 1.254 . S
O1247 Dy1240 2.664 . S
O1247 Dy1243 2.310 . S
O1247 C1248 1.268 . S
C1248 O1246 1.254 . S
C1248 O1247 1.268 . S
C1249 O1254 1.254 . S
C1249 O1255 1.268 . S
O1250 Dy1243 2.351 . S
O1250 C1258 1.249 . S
O1251 Dy1240 2.326 . S
O1251 C1258 1.267 . S
O1252 C1241 1.185 . S
O1252 Dy1243 2.398 . S
O1253 C1241 1.355 . S
O1253 Dy1243 2.491 . S
O1254 Dy1243 2.403 . S
O1254 C1249 1.254 . S
O1255 Dy1240 2.310 . S
O1255 Dy1243 2.664 . S
O1255 C1249 1.268 . S
O1256 Dy1240 2.351 . S
O1256 C1259 1.249 . S
O1257 Dy1243 2.326 . S
O1257 C1259 1.267 . S
C1258 O1250 1.249 . S
C1258 O1251 1.267 . S
C1259 O1256 1.249 . S
C1259 O1257 1.267 . S
Dy1260 O1264 2.398 . S
Dy1260 O1265 2.491 . S
Dy1260 O1266 2.403 . S
Dy1260 O1267 2.664 . S
Dy1260 O1271 2.326 . S
Dy1260 O1275 2.310 . S
Dy1260 O1276 2.351 . S
C1261 O1272 1.185 . S
C1261 O1273 1.355 . S
C1262 O1264 1.185 . S
C1262 O1265 1.355 . S
Dy1263 O1267 2.310 . S
Dy1263 O1270 2.351 . S
Dy1263 O1272 2.398 . S
Dy1263 O1273 2.491 . S
Dy1263 O1274 2.403 . S
Dy1263 O1275 2.664 . S
Dy1263 O1277 2.326 . S
O1264 Dy1260 2.398 . S
O1264 C1262 1.185 . S
O1265 Dy1260 2.491 . S
O1265 C1262 1.355 . S
O1266 Dy1260 2.403 . S
O1266 C1268 1.254 . S
O1267 Dy1260 2.664 . S
O1267 Dy1263 2.310 . S
O1267 C1268 1.268 . S
C1268 O1266 1.254 . S
C1268 O1267 1.268 . S
C1269 O1274 1.254 . S
C1269 O1275 1.268 . S
O1270 Dy1263 2.351 . S
O1270 C1278 1.249 . S
O1271 Dy1260 2.326 . S
O1271 C1278 1.267 . S
O1272 C1261 1.185 . S
O1272 Dy1263 2.398 . S
O1273 C1261 1.355 . S
O1273 Dy1263 2.491 . S
O1274 Dy1263 2.403 . S
O1274 C1269 1.254 . S
O1275 Dy1260 2.310 . S
O1275 Dy1263 2.664 . S
O1275 C1269 1.268 . S
O1276 Dy1260 2.351 . S
O1276 C1279 1.249 . S
O1277 Dy1263 2.326 . S
O1277 C1279 1.267 . S
C1278 O1270 1.249 . S
C1278 O1271 1.267 . S
C1279 O1276 1.249 . S
C1279 O1277 1.267 . S
Dy1280 O1284 2.398 . S
Dy1280 O1285 2.491 . S
Dy1280 O1286 2.403 . S
Dy1280 O1287 2.664 . S
Dy1280 O1291 2.326 . S
Dy1280 O1295 2.310 . S
Dy1280 O1296 2.351 . S
C1281 O1292 1.185 . S
C1281 O1293 1.355 . S
C1282 O1284 1.185 . S
C1282 O1285 1.355 . S
Dy1283 O1287 2.310 . S
Dy1283 O1290 2.351 . S
Dy1283 O1292 2.398 . S
Dy1283 O1293 2.491 . S
Dy1283 O1294 2.403 . S
Dy1283 O1295 2.664 . S
Dy1283 O1297 2.326 . S
O1284 Dy1280 2.398 . S
O1284 C1282 1.185 . S
O1285 Dy1280 2.491 . S
O1285 C1282 1.355 . S
O1286 Dy1280 2.403 . S
O1286 C1288 1.254 . S
O1287 Dy1280 2.664 . S
O1287 Dy1283 2.310 . S
O1287 C1288 1.268 . S
C1288 O1286 1.254 . S
C1288 O1287 1.268 . S
C1289 O1294 1.254 . S
C1289 O1295 1.268 . S
O1290 Dy1283 2.351 . S
O1290 C1298 1.249 . S
O1291 Dy1280 2.326 . S
O1291 C1298 1.267 . S
O1292 C1281 1.185 . S
O1292 Dy1283 2.398 . S
O1293 C1281 1.355 . S
O1293 Dy1283 2.491 . S
O1294 Dy1283 2.403 . S
O1294 C1289 1.254 . S
O1295 Dy1280 2.310 . S
O1295 Dy1283 2.664 . S
O1295 C1289 1.268 . S
O1296 Dy1280 2.351 . S
O1296 C1299 1.249 . S
O1297 Dy1283 2.326 . S
O1297 C1299 1.267 . S
C1298 O1290 1.249 . S
C1298 O1291 1.267 . S
C1299 O1296 1.249 . S
C1299 O1297 1.267 . S
Dy1300 O1304 2.398 . S
Dy1300 O1305 2.491 . S
Dy1300 O1306 2.403 . S
Dy1300 O1307 2.664 . S
Dy1300 O1311 2.326 . S
Dy1300 O1315 2.310 . S
Dy1300 O1316 2.351 . S
C1301 O1312 1.185 . S
C1301 O1313 1.355 . S
C1302 O1304 1.185 . S
C1302 O1305 1.355 . S
Dy1303 O1307 2.310 . S
Dy1303 O1310 2.351 . S
Dy1303 O1312 2.398 . S
Dy1303 O1313 2.491 . S
Dy1303 O1314 2.403 . S
Dy1303 O1315 2.664 . S
Dy1303 O1317 2.326 . S
O1304 Dy1300 2.398 . S
O1304 C1302 1.185 . S
O1305 Dy1300 2.491 . S
O1305 C1302 1.355 . S
O1306 Dy1300 2.403 . S
O1306 C1308 1.254 . S
O1307 Dy1300 2.664 . S
O1307 Dy1303 2.310 . S
O1307 C1308 1.268 . S
C1308 O1306 1.254 . S
C1308 O1307 1.268 . S
C1309 O1314 1.254 . S
C1309 O1315 1.268 . S
O1310 Dy1303 2.351 . S
O1310 C1318 1.249 . S
O1311 Dy1300 2.326 . S
O1311 C1318 1.267 . S
O1312 C1301 1.185 . S
O1312 Dy1303 2.398 . S
O1313 C1301 1.355 . S
O1313 Dy1303 2.491 . S
O1314 Dy1303 2.403 . S
O1314 C1309 1.254 . S
O1315 Dy1300 2.310 . S
O1315 Dy1303 2.664 . S
O1315 C1309 1.268 . S
O1316 Dy1300 2.351 . S
O1316 C1319 1.249 . S
O1317 Dy1303 2.326 . S
O1317 C1319 1.267 . S
C1318 O1310 1.249 . S
C1318 O1311 1.267 . S
C1319 O1316 1.249 . S
C1319 O1317 1.267 . S
Dy1320 O1324 2.398 . S
Dy1320 O1325 2.491 . S
Dy1320 O1326 2.403 . S
Dy1320 O1327 2.664 . S
Dy1320 O1331 2.326 . S
Dy1320 O1335 2.310 . S
Dy1320 O1336 2.351 . S
C1321 O1332 1.185 . S
C1321 O1333 1.355 . S
C1322 O1324 1.185 . S
C1322 O1325 1.355 . S
Dy1323 O1327 2.310 . S
Dy1323 O1330 2.351 . S
Dy1323 O1332 2.398 . S
Dy1323 O1333 2.491 . S
Dy1323 O1334 2.403 . S
Dy1323 O1335 2.664 . S
Dy1323 O1337 2.326 . S
O1324 Dy1320 2.398 . S
O1324 C1322 1.185 . S
O1325 Dy1320 2.491 . S
O1325 C1322 1.355 . S
O1326 Dy1320 2.403 . S
O1326 C1328 1.254 . S
O1327 Dy1320 2.664 . S
O1327 Dy1323 2.310 . S
O1327 C1328 1.268 . S
C1328 O1326 1.254 . S
C1328 O1327 1.268 . S
C1329 O1334 1.254 . S
C1329 O1335 1.268 . S
O1330 Dy1323 2.351 . S
O1330 C1338 1.249 . S
O1331 Dy1320 2.326 . S
O1331 C1338 1.267 . S
O1332 C1321 1.185 . S
O1332 Dy1323 2.398 . S
O1333 C1321 1.355 . S
O1333 Dy1323 2.491 . S
O1334 Dy1323 2.403 . S
O1334 C1329 1.254 . S
O1335 Dy1320 2.310 . S
O1335 Dy1323 2.664 . S
O1335 C1329 1.268 . S
O1336 Dy1320 2.351 . S
O1336 C1339 1.249 . S
O1337 Dy1323 2.326 . S
O1337 C1339 1.267 . S
C1338 O1330 1.249 . S
C1338 O1331 1.267 . S
C1339 O1336 1.249 . S
C1339 O1337 1.267 . S
Dy1340 O1344 2.398 . S
Dy1340 O1345 2.491 . S
Dy1340 O1346 2.403 . S
Dy1340 O1347 2.664 . S
Dy1340 O1351 2.326 . S
Dy1340 O1355 2.310 . S
Dy1340 O1356 2.351 . S
C1341 O1352 1.185 . S
C1341 O1353 1.355 . S
C1342 O1344 1.185 . S
C1342 O1345 1.355 . S
Dy1343 O1347 2.310 1_554 S
Dy1343 O1350 2.351 1_554 S
Dy1343 O1352 2.398 . S
Dy1343 O1353 2.491 . S
Dy1343 O1354 2.403 1_554 S
Dy1343 O1355 2.664 1_554 S
Dy1343 O1357 2.326 . S
O1344 Dy1340 2.398 . S
O1344 C1342 1.185 . S
O1345 Dy1340 2.491 . S
O1345 C1342 1.355 . S
O1346 Dy1340 2.403 . S
O1346 C1348 1.254 . S
O1347 Dy1340 2.664 . S
O1347 Dy1343 2.310 1_556 S
O1347 C1348 1.268 . S
C1348 O1346 1.254 . S
C1348 O1347 1.268 . S
C1349 O1354 1.254 . S
C1349 O1355 1.268 . S
O1350 Dy1343 2.351 1_556 S
O1350 C1358 1.249 . S
O1351 Dy1340 2.326 . S
O1351 C1358 1.267 . S
O1352 C1341 1.185 . S
O1352 Dy1343 2.398 . S
O1353 C1341 1.355 . S
O1353 Dy1343 2.491 . S
O1354 Dy1343 2.403 1_556 S
O1354 C1349 1.254 . S
O1355 Dy1340 2.310 . S
O1355 Dy1343 2.664 1_556 S
O1355 C1349 1.268 . S
O1356 Dy1340 2.351 . S
O1356 C1359 1.249 1_556 S
O1357 Dy1343 2.326 . S
O1357 C1359 1.267 . S
C1358 O1350 1.249 . S
C1358 O1351 1.267 . S
C1359 O1356 1.249 1_554 S
C1359 O1357 1.267 . S
Dy1360 O1364 2.398 . S
Dy1360 O1365 2.491 . S
Dy1360 O1366 2.403 . S
Dy1360 O1367 2.664 . S
Dy1360 O1371 2.326 . S
Dy1360 O1375 2.310 . S
Dy1360 O1376 2.351 . S
C1361 O1372 1.185 . S
C1361 O1373 1.355 . S
C1362 O1364 1.185 . S
C1362 O1365 1.355 . S
Dy1363 O1367 2.310 . S
Dy1363 O1370 2.351 . S
Dy1363 O1372 2.398 . S
Dy1363 O1373 2.491 . S
Dy1363 O1374 2.403 . S
Dy1363 O1375 2.664 . S
Dy1363 O1377 2.326 . S
O1364 Dy1360 2.398 . S
O1364 C1362 1.185 . S
O1365 Dy1360 2.491 . S
O1365 C1362 1.355 . S
O1366 Dy1360 2.403 . S
O1366 C1368 1.254 . S
O1367 Dy1360 2.664 . S
O1367 Dy1363 2.310 . S
O1367 C1368 1.268 . S
C1368 O1366 1.254 . S
C1368 O1367 1.268 . S
C1369 O1374 1.254 . S
C1369 O1375 1.268 . S
O1370 Dy1363 2.351 . S
O1370 C1378 1.249 . S
O1371 Dy1360 2.326 . S
O1371 C1378 1.267 . S
O1372 C1361 1.185 . S
O1372 Dy1363 2.398 . S
O1373 C1361 1.355 . S
O1373 Dy1363 2.491 . S
O1374 Dy1363 2.403 . S
O1374 C1369 1.254 . S
O1375 Dy1360 2.310 . S
O1375 Dy1363 2.664 . S
O1375 C1369 1.268 . S
O1376 Dy1360 2.351 . S
O1376 C1379 1.249 . S
O1377 Dy1363 2.326 . S
O1377 C1379 1.267 . S
C1378 O1370 1.249 . S
C1378 O1371 1.267 . S
C1379 O1376 1.249 . S
C1379 O1377 1.267 . S
Dy1380 O1384 2.398 . S
Dy1380 O1385 2.491 . S
Dy1380 O1386 2.403 . S
Dy1380 O1387 2.664 . S
Dy1380 O1391 2.326 . S
Dy1380 O1395 2.310 . S
Dy1380 O1396 2.351 . S
C1381 O1392 1.185 . S
C1381 O1393 1.355 . S
C1382 O1384 1.185 . S
C1382 O1385 1.355 . S
Dy1383 O1387 2.310 1_556 S
Dy1383 O1390 2.351 1_556 S
Dy1383 O1392 2.398 . S
Dy1383 O1393 2.491 . S
Dy1383 O1394 2.403 1_556 S
Dy1383 O1395 2.664 1_556 S
Dy1383 O1397 2.326 . S
O1384 Dy1380 2.398 . S
O1384 C1382 1.185 . S
O1385 Dy1380 2.491 . S
O1385 C1382 1.355 . S
O1386 Dy1380 2.403 . S
O1386 C1388 1.254 . S
O1387 Dy1380 2.664 . S
O1387 Dy1383 2.310 1_554 S
O1387 C1388 1.268 . S
C1388 O1386 1.254 . S
C1388 O1387 1.268 . S
C1389 O1394 1.254 . S
C1389 O1395 1.268 . S
O1390 Dy1383 2.351 1_554 S
O1390 C1398 1.249 . S
O1391 Dy1380 2.326 . S
O1391 C1398 1.267 . S
O1392 C1381 1.185 . S
O1392 Dy1383 2.398 . S
O1393 C1381 1.355 . S
O1393 Dy1383 2.491 . S
O1394 Dy1383 2.403 1_554 S
O1394 C1389 1.254 . S
O1395 Dy1380 2.310 . S
O1395 Dy1383 2.664 1_554 S
O1395 C1389 1.268 . S
O1396 Dy1380 2.351 . S
O1396 C1399 1.249 1_554 S
O1397 Dy1383 2.326 . S
O1397 C1399 1.267 . S
C1398 O1390 1.249 . S
C1398 O1391 1.267 . S
C1399 O1396 1.249 1_556 S
C1399 O1397 1.267 . S
Dy1400 O1404 2.398 . S
Dy1400 O1405 2.491 . S
Dy1400 O1406 2.403 . S
Dy1400 O1407 2.664 . S
Dy1400 O1411 2.326 . S
Dy1400 O1415 2.310 . S
Dy1400 O1416 2.351 . S
C1401 O1412 1.185 . S
C1401 O1413 1.355 . S
C1402 O1404 1.185 . S
C1402 O1405 1.355 . S
Dy1403 O1407 2.310 . S
Dy1403 O1410 2.351 . S
Dy1403 O1412 2.398 . S
Dy1403 O1413 2.491 . S
Dy1403 O1414 2.403 . S
Dy1403 O1415 2.664 . S
Dy1403 O1417 2.326 . S
O1404 Dy1400 2.398 . S
O1404 C1402 1.185 . S
O1405 Dy1400 2.491 . S
O1405 C1402 1.355 . S
O1406 Dy1400 2.403 . S
O1406 C1408 1.254 . S
O1407 Dy1400 2.664 . S
O1407 Dy1403 2.310 . S
O1407 C1408 1.268 . S
C1408 O1406 1.254 . S
C1408 O1407 1.268 . S
C1409 O1414 1.254 . S
C1409 O1415 1.268 . S
O1410 Dy1403 2.351 . S
O1410 C1418 1.249 . S
O1411 Dy1400 2.326 . S
O1411 C1418 1.267 . S
O1412 C1401 1.185 . S
O1412 Dy1403 2.398 . S
O1413 C1401 1.355 . S
O1413 Dy1403 2.491 . S
O1414 Dy1403 2.403 . S
O1414 C1409 1.254 . S
O1415 Dy1400 2.310 . S
O1415 Dy1403 2.664 . S
O1415 C1409 1.268 . S
O1416 Dy1400 2.351 . S
O1416 C1419 1.249 . S
O1417 Dy1403 2.326 . S
O1417 C1419 1.267 . S
C1418 O1410 1.249 . S
C1418 O1411 1.267 . S
C1419 O1416 1.249 . S
C1419 O1417 1.267 . S
Dy1420 O1424 2.398 . S
Dy1420 O1425 2.491 . S
Dy1420 O1426 2.403 . S
Dy1420 O1427 2.664 . S
Dy1420 O1431 2.326 . S
Dy1420 O1435 2.310 . S
Dy1420 O1436 2.351 . S
C1421 O1432 1.185 . S
C1421 O1433 1.355 . S
C1422 O1424 1.185 . S
C1422 O1425 1.355 . S
Dy1423 O1427 2.310 . S
Dy1423 O1430 2.351 . S
Dy1423 O1432 2.398 . S
Dy1423 O1433 2.491 . S
Dy1423 O1434 2.403 . S
Dy1423 O1435 2.664 . S
Dy1423 O1437 2.326 . S
O1424 Dy1420 2.398 . S
O1424 C1422 1.185 . S
O1425 Dy1420 2.491 . S
O1425 C1422 1.355 . S
O1426 Dy1420 2.403 . S
O1426 C1428 1.254 . S
O1427 Dy1420 2.664 . S
O1427 Dy1423 2.310 . S
O1427 C1428 1.268 . S
C1428 O1426 1.254 . S
C1428 O1427 1.268 . S
C1429 O1434 1.254 . S
C1429 O1435 1.268 . S
O1430 Dy1423 2.351 . S
O1430 C1438 1.249 . S
O1431 Dy1420 2.326 . S
O1431 C1438 1.267 . S
O1432 C1421 1.185 . S
O1432 Dy1423 2.398 . S
O1433 C1421 1.355 . S
O1433 Dy1423 2.491 . S
O1434 Dy1423 2.403 . S
O1434 C1429 1.254 . S
O1435 Dy1420 2.310 . S
O1435 Dy1423 2.664 . S
O1435 C1429 1.268 . S
O1436 Dy1420 2.351 . S
O1436 C1439 1.249 . S
O1437 Dy1423 2.326 . S
O1437 C1439 1.267 . S
C1438 O1430 1.249 . S
C1438 O1431 1.267 . S
C1439 O1436 1.249 . S
C1439 O1437 1.267 . S
Dy1440 O1444 2.398 . S
Dy1440 O1445 2.491 . S
Dy1440 O1446 2.403 . S
Dy1440 O1447 2.664 . S
Dy1440 O1451 2.326 . S
Dy1440 O1455 2.310 . S
Dy1440 O1456 2.351 . S
C1441 O1452 1.185 . S
C1441 O1453 1.355 . S
C1442 O1444 1.185 . S
C1442 O1445 1.355 . S
Dy1443 O1447 2.310 . S
Dy1443 O1450 2.351 . S
Dy1443 O1452 2.398 . S
Dy1443 O1453 2.491 . S
Dy1443 O1454 2.403 . S
Dy1443 O1455 2.664 . S
Dy1443 O1457 2.326 . S
O1444 Dy1440 2.398 . S
O1444 C1442 1.185 . S
O1445 Dy1440 2.491 . S
O1445 C1442 1.355 . S
O1446 Dy1440 2.403 . S
O1446 C1448 1.254 . S
O1447 Dy1440 2.664 . S
O1447 Dy1443 2.310 . S
O1447 C1448 1.268 . S
C1448 O1446 1.254 . S
C1448 O1447 1.268 . S
C1449 O1454 1.254 . S
C1449 O1455 1.268 . S
O1450 Dy1443 2.351 . S
O1450 C1458 1.249 . S
O1451 Dy1440 2.326 . S
O1451 C1458 1.267 . S
O1452 C1441 1.185 . S
O1452 Dy1443 2.398 . S
O1453 C1441 1.355 . S
O1453 Dy1443 2.491 . S
O1454 Dy1443 2.403 . S
O1454 C1449 1.254 . S
O1455 Dy1440 2.310 . S
O1455 Dy1443 2.664 . S
O1455 C1449 1.268 . S
O1456 Dy1440 2.351 . S
O1456 C1459 1.249 . S
O1457 Dy1443 2.326 . S
O1457 C1459 1.267 . S
C1458 O1450 1.249 . S
C1458 O1451 1.267 . S
C1459 O1456 1.249 . S
C1459 O1457 1.267 . S
Dy1460 O1464 2.398 . S
Dy1460 O1465 2.491 . S
Dy1460 O1466 2.403 . S
Dy1460 O1467 2.664 . S
Dy1460 O1471 2.326 . S
Dy1460 O1475 2.310 . S
Dy1460 O1476 2.351 . S
C1461 O1472 1.185 . S
C1461 O1473 1.355 . S
C1462 O1464 1.185 . S
C1462 O1465 1.355 . S
Dy1463 O1467 2.310 . S
Dy1463 O1470 2.351 . S
Dy1463 O1472 2.398 . S
Dy1463 O1473 2.491 . S
Dy1463 O1474 2.403 . S
Dy1463 O1475 2.664 . S
Dy1463 O1477 2.326 . S
O1464 Dy1460 2.398 . S
O1464 C1462 1.185 . S
O1465 Dy1460 2.491 . S
O1465 C1462 1.355 . S
O1466 Dy1460 2.403 . S
O1466 C1468 1.254 . S
O1467 Dy1460 2.664 . S
O1467 Dy1463 2.310 . S
O1467 C1468 1.268 . S
C1468 O1466 1.254 . S
C1468 O1467 1.268 . S
C1469 O1474 1.254 . S
C1469 O1475 1.268 . S
O1470 Dy1463 2.351 . S
O1470 C1478 1.249 . S
O1471 Dy1460 2.326 . S
O1471 C1478 1.267 . S
O1472 C1461 1.185 . S
O1472 Dy1463 2.398 . S
O1473 C1461 1.355 . S
O1473 Dy1463 2.491 . S
O1474 Dy1463 2.403 . S
O1474 C1469 1.254 . S
O1475 Dy1460 2.310 . S
O1475 Dy1463 2.664 . S
O1475 C1469 1.268 . S
O1476 Dy1460 2.351 . S
O1476 C1479 1.249 . S
O1477 Dy1463 2.326 . S
O1477 C1479 1.267 . S
C1478 O1470 1.249 . S
C1478 O1471 1.267 . S
C1479 O1476 1.249 . S
C1479 O1477 1.267 . S
Dy1480 O1484 2.398 . S
Dy1480 O1485 2.491 . S
Dy1480 O1486 2.403 1_455 S
Dy1480 O1487 2.664 1_455 S
Dy1480 O1491 2.326 . S
Dy1480 O1495 2.310 . S
Dy1480 O1496 2.351 1_455 S
C1481 O1492 1.185 . S
C1481 O1493 1.355 . S
C1482 O1484 1.185 . S
C1482 O1485 1.355 . S
Dy1483 O1487 2.310 1_455 S
Dy1483 O1490 2.351 . S
Dy1483 O1492 2.398 1_455 S
Dy1483 O1493 2.491 1_455 S
Dy1483 O1494 2.403 . S
Dy1483 O1495 2.664 . S
Dy1483 O1497 2.326 1_455 S
O1484 Dy1480 2.398 . S
O1484 C1482 1.185 . S
O1485 Dy1480 2.491 . S
O1485 C1482 1.355 . S
O1486 Dy1480 2.403 1_655 S
O1486 C1488 1.254 . S
O1487 Dy1480 2.664 1_655 S
O1487 Dy1483 2.310 1_655 S
O1487 C1488 1.268 . S
C1488 O1486 1.254 . S
C1488 O1487 1.268 . S
C1489 O1494 1.254 . S
C1489 O1495 1.268 . S
O1490 Dy1483 2.351 . S
O1490 C1498 1.249 . S
O1491 Dy1480 2.326 . S
O1491 C1498 1.267 . S
O1492 C1481 1.185 . S
O1492 Dy1483 2.398 1_655 S
O1493 C1481 1.355 . S
O1493 Dy1483 2.491 1_655 S
O1494 Dy1483 2.403 . S
O1494 C1489 1.254 . S
O1495 Dy1480 2.310 . S
O1495 Dy1483 2.664 . S
O1495 C1489 1.268 . S
O1496 Dy1480 2.351 1_655 S
O1496 C1499 1.249 . S
O1497 Dy1483 2.326 1_655 S
O1497 C1499 1.267 . S
C1498 O1490 1.249 . S
C1498 O1491 1.267 . S
C1499 O1496 1.249 . S
C1499 O1497 1.267 . S
Dy1500 O1504 2.398 . S
Dy1500 O1505 2.491 . S
Dy1500 O1506 2.403 . S
Dy1500 O1507 2.664 . S
Dy1500 O1511 2.326 . S
Dy1500 O1515 2.310 . S
Dy1500 O1516 2.351 . S
C1501 O1512 1.185 . S
C1501 O1513 1.355 . S
C1502 O1504 1.185 . S
C1502 O1505 1.355 . S
Dy1503 O1507 2.310 . S
Dy1503 O1510 2.351 . S
Dy1503 O1512 2.398 . S
Dy1503 O1513 2.491 . S
Dy1503 O1514 2.403 . S
Dy1503 O1515 2.664 . S
Dy1503 O1517 2.326 . S
O1504 Dy1500 2.398 . S
O1504 C1502 1.185 . S
O1505 Dy1500 2.491 . S
O1505 C1502 1.355 . S
O1506 Dy1500 2.403 . S
O1506 C1508 1.254 . S
O1507 Dy1500 2.664 . S
O1507 Dy1503 2.310 . S
O1507 C1508 1.268 . S
C1508 O1506 1.254 . S
C1508 O1507 1.268 . S
C1509 O1514 1.254 . S
C1509 O1515 1.268 . S
O1510 Dy1503 2.351 . S
O1510 C1518 1.249 . S
O1511 Dy1500 2.326 . S
O1511 C1518 1.267 . S
O1512 C1501 1.185 . S
O1512 Dy1503 2.398 . S
O1513 C1501 1.355 . S
O1513 Dy1503 2.491 . S
O1514 Dy1503 2.403 . S
O1514 C1509 1.254 . S
O1515 Dy1500 2.310 . S
O1515 Dy1503 2.664 . S
O1515 C1509 1.268 . S
O1516 Dy1500 2.351 . S
O1516 C1519 1.249 . S
O1517 Dy1503 2.326 . S
O1517 C1519 1.267 . S
C1518 O1510 1.249 . S
C1518 O1511 1.267 . S
C1519 O1516 1.249 . S
C1519 O1517 1.267 . S
Dy1520 O1524 2.398 . S
Dy1520 O1525 2.491 . S
Dy1520 O1526 2.403 . S
Dy1520 O1527 2.664 . S
Dy1520 O1531 2.326 . S
Dy1520 O1535 2.310 . S
Dy1520 O1536 2.351 . S
C1521 O1532 1.185 . S
C1521 O1533 1.355 . S
C1522 O1524 1.185 . S
C1522 O1525 1.355 . S
Dy1523 O1527 2.310 . S
Dy1523 O1530 2.351 . S
Dy1523 O1532 2.398 . S
Dy1523 O1533 2.491 . S
Dy1523 O1534 2.403 . S
Dy1523 O1535 2.664 . S
Dy1523 O1537 2.326 . S
O1524 Dy1520 2.398 . S
O1524 C1522 1.185 . S
O1525 Dy1520 2.491 . S
O1525 C1522 1.355 . S
O1526 Dy1520 2.403 . S
O1526 C1528 1.254 . S
O1527 Dy1520 2.664 . S
O1527 Dy1523 2.310 . S
O1527 C1528 1.268 . S
C1528 O1526 1.254 . S
C1528 O1527 1.268 . S
C1529 O1534 1.254 . S
C1529 O1535 1.268 . S
O1530 Dy1523 2.351 . S
O1530 C1538 1.249 . S
O1531 Dy1520 2.326 . S
O1531 C1538 1.267 . S
O1532 C1521 1.185 . S
O1532 Dy1523 2.398 . S
O1533 C1521 1.355 . S
O1533 Dy1523 2.491 . S
O1534 Dy1523 2.403 . S
O1534 C1529 1.254 . S
O1535 Dy1520 2.310 . S
O1535 Dy1523 2.664 . S
O1535 C1529 1.268 . S
O1536 Dy1520 2.351 . S
O1536 C1539 1.249 . S
O1537 Dy1523 2.326 . S
O1537 C1539 1.267 . S
C1538 O1530 1.249 . S
C1538 O1531 1.267 . S
C1539 O1536 1.249 . S
C1539 O1537 1.267 . S
Dy1540 O1544 2.398 . S
Dy1540 O1545 2.491 . S
Dy1540 O1546 2.403 . S
Dy1540 O1547 2.664 . S
Dy1540 O1551 2.326 . S
Dy1540 O1555 2.310 . S
Dy1540 O1556 2.351 . S
C1541 O1552 1.185 . S
C1541 O1553 1.355 . S
C1542 O1544 1.185 . S
C1542 O1545 1.355 . S
Dy1543 O1547 2.310 . S
Dy1543 O1550 2.351 . S
Dy1543 O1552 2.398 . S
Dy1543 O1553 2.491 . S
Dy1543 O1554 2.403 . S
Dy1543 O1555 2.664 . S
Dy1543 O1557 2.326 . S
O1544 Dy1540 2.398 . S
O1544 C1542 1.185 . S
O1545 Dy1540 2.491 . S
O1545 C1542 1.355 . S
O1546 Dy1540 2.403 . S
O1546 C1548 1.254 . S
O1547 Dy1540 2.664 . S
O1547 Dy1543 2.310 . S
O1547 C1548 1.268 . S
C1548 O1546 1.254 . S
C1548 O1547 1.268 . S
C1549 O1554 1.254 . S
C1549 O1555 1.268 . S
O1550 Dy1543 2.351 . S
O1550 C1558 1.249 . S
O1551 Dy1540 2.326 . S
O1551 C1558 1.267 . S
O1552 C1541 1.185 . S
O1552 Dy1543 2.398 . S
O1553 C1541 1.355 . S
O1553 Dy1543 2.491 . S
O1554 Dy1543 2.403 . S
O1554 C1549 1.254 . S
O1555 Dy1540 2.310 . S
O1555 Dy1543 2.664 . S
O1555 C1549 1.268 . S
O1556 Dy1540 2.351 . S
O1556 C1559 1.249 . S
O1557 Dy1543 2.326 . S
O1557 C1559 1.267 . S
C1558 O1550 1.249 . S
C1558 O1551 1.267 . S
C1559 O1556 1.249 . S
C1559 O1557 1.267 . S
Dy1560 O1564 2.398 . S
Dy1560 O1565 2.491 . S
Dy1560 O1566 2.420 . S
Dy1560 O1567 2.664 . S
Dy1560 O1571 2.326 . S
Dy1560 O1575 2.310 . S
Dy1560 O1576 2.351 1_455 S
C1561 O1572 1.226 . S
C1561 O1573 1.355 . S
C1562 O1564 1.185 . S
C1562 O1565 1.355 . S
Dy1563 O1567 2.310 . S
Dy1563 O1570 2.351 . S
Dy1563 O1572 2.379 1_455 S
Dy1563 O1573 2.491 1_455 S
Dy1563 O1574 2.403 . S
Dy1563 O1575 2.664 . S
Dy1563 O1577 2.326 1_455 S
O1564 Dy1560 2.398 . S
O1564 C1562 1.185 . S
O1565 Dy1560 2.491 . S
O1565 C1562 1.355 . S
O1566 Dy1560 2.420 . S
O1566 C1568 1.246 1_455 S
O1567 Dy1560 2.664 . S
O1567 Dy1563 2.310 . S
O1567 C1568 1.268 1_455 S
C1568 O1566 1.246 1_655 S
C1568 O1567 1.268 1_655 S
C1569 O1574 1.254 . S
C1569 O1575 1.268 . S
O1570 Dy1563 2.351 . S
O1570 C1578 1.249 . S
O1571 Dy1560 2.326 . S
O1571 C1578 1.267 . S
O1572 C1561 1.226 . S
O1572 Dy1563 2.379 1_655 S
O1573 C1561 1.355 . S
O1573 Dy1563 2.491 1_655 S
O1574 Dy1563 2.403 . S
O1574 C1569 1.254 . S
O1575 Dy1560 2.310 . S
O1575 Dy1563 2.664 . S
O1575 C1569 1.268 . S
O1576 Dy1560 2.351 1_655 S
O1576 C1579 1.249 . S
O1577 Dy1563 2.326 1_655 S
O1577 C1579 1.267 . S
C1578 O1570 1.249 . S
C1578 O1571 1.267 . S
C1579 O1576 1.249 . S
C1579 O1577 1.267 . S
Dy1580 O1584 2.398 . S
Dy1580 O1585 2.491 . S
Dy1580 O1586 2.403 . S
Dy1580 O1587 2.664 . S
Dy1580 O1591 2.326 . S
Dy1580 O1595 2.310 . S
Dy1580 O1596 2.351 . S
C1581 O1592 1.185 . S
C1581 O1593 1.355 . S
C1582 O1584 1.185 . S
C1582 O1585 1.355 . S
Dy1583 O1587 2.310 . S
Dy1583 O1590 2.351 . S
Dy1583 O1592 2.398 . S
Dy1583 O1593 2.491 . S
Dy1583 O1594 2.403 . S
Dy1583 O1595 2.664 . S
Dy1583 O1597 2.326 . S
O1584 Dy1580 2.398 . S
O1584 C1582 1.185 . S
O1585 Dy1580 2.491 . S
O1585 C1582 1.355 . S
O1586 Dy1580 2.403 . S
O1586 C1588 1.254 . S
O1587 Dy1580 2.664 . S
O1587 Dy1583 2.310 . S
O1587 C1588 1.268 . S
C1588 O1586 1.254 . S
C1588 O1587 1.268 . S
C1589 O1594 1.254 . S
C1589 O1595 1.268 . S
O1590 Dy1583 2.351 . S
O1590 C1598 1.249 . S
O1591 Dy1580 2.326 . S
O1591 C1598 1.267 . S
O1592 C1581 1.185 . S
O1592 Dy1583 2.398 . S
O1593 C1581 1.355 . S
O1593 Dy1583 2.491 . S
O1594 Dy1583 2.403 . S
O1594 C1589 1.254 . S
O1595 Dy1580 2.310 . S
O1595 Dy1583 2.664 . S
O1595 C1589 1.268 . S
O1596 Dy1580 2.351 . S
O1596 C1599 1.249 . S
O1597 Dy1583 2.326 . S
O1597 C1599 1.267 . S
C1598 O1590 1.249 . S
C1598 O1591 1.267 . S
C1599 O1596 1.249 . S
C1599 O1597 1.267 . S
Dy1600 O1604 2.398 . S
Dy1600 O1605 2.491 . S
Dy1600 O1606 2.403 . S
Dy1600 O1607 2.664 . S
Dy1600 O1611 2.326 . S
Dy1600 O1615 2.310 . S
Dy1600 O1616 2.351 . S
C1601 O1612 1.185 . S
C1601 O1613 1.355 . S
C1602 O1604 1.185 . S
C1602 O1605 1.355 . S
Dy1603 O1607 2.310 . S
Dy1603 O1610 2.351 . S
Dy1603 O1612 2.398 . S
Dy1603 O1613 2.491 . S
Dy1603 O1614 2.403 . S
Dy1603 O1615 2.664 . S
Dy1603 O1617 2.326 . S
O1604 Dy1600 2.398 . S
O1604 C1602 1.185 . S
O1605 Dy1600 2.491 . S
O1605 C1602 1.355 . S
O1606 Dy1600 2.403 . S
O1606 C1608 1.254 . S
O1607 Dy1600 2.664 . S
O1607 Dy1603 2.310 . S
O1607 C1608 1.268 . S
C1608 O1606 1.254 . S
C1608 O1607 1.268 . S
C1609 O1614 1.254 . S
C1609 O1615 1.268 . S
O1610 Dy1603 2.351 . S
O1610 C1618 1.249 . S
O1611 Dy1600 2.326 . S
O1611 C1618 1.267 . S
O1612 C1601 1.185 . S
O1612 Dy1603 2.398 . S
O1613 C1601 1.355 . S
O1613 Dy1603 2.491 . S
O1614 Dy1603 2.403 . S
O1614 C1609 1.254 . S
O1615 Dy1600 2.310 . S
O1615 Dy1603 2.664 . S
O1615 C1609 1.268 . S
O1616 Dy1600 2.351 . S
O1616 C1619 1.249 . S
O1617 Dy1603 2.326 . S
O1617 C1619 1.267 . S
C1618 O1610 1.249 . S
C1618 O1611 1.267 . S
C1619 O1616 1.249 . S
C1619 O1617 1.267 . S
Dy1620 O1624 2.398 . S
Dy1620 O1625 2.491 . S
Dy1620 O1626 2.403 . S
Dy1620 O1627 2.664 . S
Dy1620 O1631 2.326 . S
Dy1620 O1635 2.310 . S
Dy1620 O1636 2.351 . S
C1621 O1632 1.185 . S
C1621 O1633 1.355 . S
C1622 O1624 1.185 . S
C1622 O1625 1.355 . S
Dy1623 O1627 2.310 . S
Dy1623 O1630 2.351 . S
Dy1623 O1632 2.398 . S
Dy1623 O1633 2.491 . S
Dy1623 O1634 2.403 . S
Dy1623 O1635 2.664 . S
Dy1623 O1637 2.326 . S
O1624 Dy1620 2.398 . S
O1624 C1622 1.185 . S
O1625 Dy1620 2.491 . S
O1625 C1622 1.355 . S
O1626 Dy1620 2.403 . S
O1626 C1628 1.254 . S
O1627 Dy1620 2.664 . S
O1627 Dy1623 2.310 . S
O1627 C1628 1.268 . S
C1628 O1626 1.254 . S
C1628 O1627 1.268 . S
C1629 O1634 1.254 . S
C1629 O1635 1.268 . S
O1630 Dy1623 2.351 . S
O1630 C1638 1.249 . S
O1631 Dy1620 2.326 . S
O1631 C1638 1.267 . S
O1632 C1621 1.185 . S
O1632 Dy1623 2.398 . S
O1633 C1621 1.355 . S
O1633 Dy1623 2.491 . S
O1634 Dy1623 2.403 . S
O1634 C1629 1.254 . S
O1635 Dy1620 2.310 . S
O1635 Dy1623 2.664 . S
O1635 C1629 1.268 . S
O1636 Dy1620 2.351 . S
O1636 C1639 1.249 . S
O1637 Dy1623 2.326 . S
O1637 C1639 1.267 . S
C1638 O1630 1.249 . S
C1638 O1631 1.267 . S
C1639 O1636 1.249 . S
C1639 O1637 1.267 . S
Dy1640 O1644 2.398 . S
Dy1640 O1645 2.491 . S
Dy1640 O1646 2.403 . S
Dy1640 O1647 2.664 . S
Dy1640 O1651 2.326 . S
Dy1640 O1655 2.310 . S
Dy1640 O1656 2.351 . S
C1641 O1652 1.185 . S
C1641 O1653 1.355 . S
C1642 O1644 1.185 . S
C1642 O1645 1.355 . S
Dy1643 O1647 2.310 . S
Dy1643 O1650 2.351 . S
Dy1643 O1652 2.398 . S
Dy1643 O1653 2.491 . S
Dy1643 O1654 2.403 . S
Dy1643 O1655 2.664 . S
Dy1643 O1657 2.326 . S
O1644 Dy1640 2.398 . S
O1644 C1642 1.185 . S
O1645 Dy1640 2.491 . S
O1645 C1642 1.355 . S
O1646 Dy1640 2.403 . S
O1646 C1648 1.254 . S
O1647 Dy1640 2.664 . S
O1647 Dy1643 2.310 . S
O1647 C1648 1.268 . S
C1648 O1646 1.254 . S
C1648 O1647 1.268 . S
C1649 O1654 1.254 . S
C1649 O1655 1.268 . S
O1650 Dy1643 2.351 . S
O1650 C1658 1.249 . S
O1651 Dy1640 2.326 . S
O1651 C1658 1.267 . S
O1652 C1641 1.185 . S
O1652 Dy1643 2.398 . S
O1653 C1641 1.355 . S
O1653 Dy1643 2.491 . S
O1654 Dy1643 2.403 . S
O1654 C1649 1.254 . S
O1655 Dy1640 2.310 . S
O1655 Dy1643 2.664 . S
O1655 C1649 1.268 . S
O1656 Dy1640 2.351 . S
O1656 C1659 1.249 . S
O1657 Dy1643 2.326 . S
O1657 C1659 1.267 . S
C1658 O1650 1.249 . S
C1658 O1651 1.267 . S
C1659 O1656 1.249 . S
C1659 O1657 1.267 . S
Dy1660 O1664 2.398 . S
Dy1660 O1665 2.491 . S
Dy1660 O1666 2.403 . S
Dy1660 O1667 2.664 . S
Dy1660 O1671 2.326 . S
Dy1660 O1675 2.310 . S
Dy1660 O1676 2.351 . S
C1661 O1672 1.185 . S
C1661 O1673 1.355 . S
C1662 O1664 1.185 . S
C1662 O1665 1.355 . S
Dy1663 O1667 2.310 . S
Dy1663 O1670 2.351 . S
Dy1663 O1672 2.398 . S
Dy1663 O1673 2.491 . S
Dy1663 O1674 2.403 . S
Dy1663 O1675 2.664 . S
Dy1663 O1677 2.326 . S
O1664 Dy1660 2.398 . S
O1664 C1662 1.185 . S
O1665 Dy1660 2.491 . S
O1665 C1662 1.355 . S
O1666 Dy1660 2.403 . S
O1666 C1668 1.254 . S
O1667 Dy1660 2.664 . S
O1667 Dy1663 2.310 . S
O1667 C1668 1.268 . S
C1668 O1666 1.254 . S
C1668 O1667 1.268 . S
C1669 O1674 1.254 . S
C1669 O1675 1.268 . S
O1670 Dy1663 2.351 . S
O1670 C1678 1.249 . S
O1671 Dy1660 2.326 . S
O1671 C1678 1.267 . S
O1672 C1661 1.185 . S
O1672 Dy1663 2.398 . S
O1673 C1661 1.355 . S
O1673 Dy1663 2.491 . S
O1674 Dy1663 2.403 . S
O1674 C1669 1.254 . S
O1675 Dy1660 2.310 . S
O1675 Dy1663 2.664 . S
O1675 C1669 1.268 . S
O1676 Dy1660 2.351 . S
O1676 C1679 1.249 . S
O1677 Dy1663 2.326 . S
O1677 C1679 1.267 . S
C1678 O1670 1.249 . S
C1678 O1671 1.267 . S
C1679 O1676 1.249 . S
C1679 O1677 1.267 . S
Dy1680 O1684 2.398 . S
Dy1680 O1685 2.491 . S
Dy1680 O1686 2.403 . S
Dy1680 O1687 2.664 . S
Dy1680 O1691 2.326 . S
Dy1680 O1695 2.310 . S
Dy1680 O1696 2.351 . S
C1681 O1692 1.185 . S
C1681 O1693 1.355 . S
C1682 O1684 1.185 . S
C1682 O1685 1.355 . S
Dy1683 O1687 2.310 . S
Dy1683 O1690 2.351 . S
Dy1683 O1692 2.398 . S
Dy1683 O1693 2.491 . S
Dy1683 O1694 2.403 . S
Dy1683 O1695 2.664 . S
Dy1683 O1697 2.326 . S
O1684 Dy1680 2.398 . S
O1684 C1682 1.185 . S
O1685 Dy1680 2.491 . S
O1685 C1682 1.355 . S
O1686 Dy1680 2.403 . S
O1686 C1688 1.254 . S
O1687 Dy1680 2.664 . S
O1687 Dy1683 2.310 . S
O1687 C1688 1.268 . S
C1688 O1686 1.254 . S
C1688 O1687 1.268 . S
C1689 O1694 1.254 . S
C1689 O1695 1.268 . S
O1690 Dy1683 2.351 . S
O1690 C1698 1.249 . S
O1691 Dy1680 2.326 . S
O1691 C1698 1.267 . S
O1692 C1681 1.185 . S
O1692 Dy1683 2.398 . S
O1693 C1681 1.355 . S
O1693 Dy1683 2.491 . S
O1694 Dy1683 2.403 . S
O1694 C1689 1.254 . S
O1695 Dy1680 2.310 . S
O1695 Dy1683 2.664 . S
O1695 C1689 1.268 . S
O1696 Dy1680 2.351 . S
O1696 C1699 1.249 . S
O1697 Dy1683 2.326 . S
O1697 C1699 1.267 . S
C1698 O1690 1.249 . S
C1698 O1691 1.267 . S
C1699 O1696 1.249 . S
C1699 O1697 1.267 . S
Dy1700 O1704 2.398 . S
Dy1700 O1705 2.491 . S
Dy1700 O1706 2.403 . S
Dy1700 O1707 2.664 . S
Dy1700 O1711 2.326 . S
Dy1700 O1715 2.310 . S
Dy1700 O1716 2.351 . S
C1701 O1712 1.185 . S
C1701 O1713 1.355 . S
C1702 O1704 1.185 . S
C1702 O1705 1.355 . S
Dy1703 O1707 2.310 . S
Dy1703 O1710 2.351 . S
Dy1703 O1712 2.398 . S
Dy1703 O1713 2.491 . S
Dy1703 O1714 2.403 . S
Dy1703 O1715 2.664 . S
Dy1703 O1717 2.326 . S
O1704 Dy1700 2.398 . S
O1704 C1702 1.185 . S
O1705 Dy1700 2.491 . S
O1705 C1702 1.355 . S
O1706 Dy1700 2.403 . S
O1706 C1708 1.254 . S
O1707 Dy1700 2.664 . S
O1707 Dy1703 2.310 . S
O1707 C1708 1.268 . S
C1708 O1706 1.254 . S
C1708 O1707 1.268 . S
C1709 O1714 1.254 . S
C1709 O1715 1.268 . S
O1710 Dy1703 2.351 . S
O1710 C1718 1.249 . S
O1711 Dy1700 2.326 . S
O1711 C1718 1.267 . S
O1712 C1701 1.185 . S
O1712 Dy1703 2.398 . S
O1713 C1701 1.355 . S
O1713 Dy1703 2.491 . S
O1714 Dy1703 2.403 . S
O1714 C1709 1.254 . S
O1715 Dy1700 2.310 . S
O1715 Dy1703 2.664 . S
O1715 C1709 1.268 . S
O1716 Dy1700 2.351 . S
O1716 C1719 1.249 . S
O1717 Dy1703 2.326 . S
O1717 C1719 1.267 . S
C1718 O1710 1.249 . S
C1718 O1711 1.267 . S
C1719 O1716 1.249 . S
C1719 O1717 1.267 . S
Dy1720 O1724 2.398 . S
Dy1720 O1725 2.491 . S
Dy1720 O1726 2.403 . S
Dy1720 O1727 2.664 . S
Dy1720 O1731 2.326 . S
Dy1720 O1735 2.310 . S
Dy1720 O1736 2.351 . S
C1721 O1732 1.185 . S
C1721 O1733 1.355 . S
C1722 O1724 1.185 . S
C1722 O1725 1.355 . S
Dy1723 O1727 2.310 . S
Dy1723 O1730 2.351 . S
Dy1723 O1732 2.398 . S
Dy1723 O1733 2.491 . S
Dy1723 O1734 2.403 . S
Dy1723 O1735 2.664 . S
Dy1723 O1737 2.326 . S
O1724 Dy1720 2.398 . S
O1724 C1722 1.185 . S
O1725 Dy1720 2.491 . S
O1725 C1722 1.355 . S
O1726 Dy1720 2.403 . S
O1726 C1728 1.254 . S
O1727 Dy1720 2.664 . S
O1727 Dy1723 2.310 . S
O1727 C1728 1.268 . S
C1728 O1726 1.254 . S
C1728 O1727 1.268 . S
C1729 O1734 1.254 . S
C1729 O1735 1.268 . S
O1730 Dy1723 2.351 . S
O1730 C1738 1.249 . S
O1731 Dy1720 2.326 . S
O1731 C1738 1.267 . S
O1732 C1721 1.185 . S
O1732 Dy1723 2.398 . S
O1733 C1721 1.355 . S
O1733 Dy1723 2.491 . S
O1734 Dy1723 2.403 . S
O1734 C1729 1.254 . S
O1735 Dy1720 2.310 . S
O1735 Dy1723 2.664 . S
O1735 C1729 1.268 . S
O1736 Dy1720 2.351 . S
O1736 C1739 1.249 . S
O1737 Dy1723 2.326 . S
O1737 C1739 1.267 . S
C1738 O1730 1.249 . S
C1738 O1731 1.267 . S
C1739 O1736 1.249 . S
C1739 O1737 1.267 . S
Dy1740 O1744 2.398 . S
Dy1740 O1745 2.491 . S
Dy1740 O1746 2.403 . S
Dy1740 O1747 2.664 . S
Dy1740 O1751 2.326 . S
Dy1740 O1755 2.310 . S
Dy1740 O1756 2.351 . S
C1741 O1752 1.185 . S
C1741 O1753 1.355 . S
C1742 O1744 1.185 . S
C1742 O1745 1.355 . S
Dy1743 O1747 2.310 . S
Dy1743 O1750 2.351 . S
Dy1743 O1752 2.398 . S
Dy1743 O1753 2.491 . S
Dy1743 O1754 2.403 . S
Dy1743 O1755 2.664 . S
Dy1743 O1757 2.326 . S
O1744 Dy1740 2.398 . S
O1744 C1742 1.185 . S
O1745 Dy1740 2.491 . S
O1745 C1742 1.355 . S
O1746 Dy1740 2.403 . S
O1746 C1748 1.254 . S
O1747 Dy1740 2.664 . S
O1747 Dy1743 2.310 . S
O1747 C1748 1.268 . S
C1748 O1746 1.254 . S
C1748 O1747 1.268 . S
C1749 O1754 1.254 . S
C1749 O1755 1.268 . S
O1750 Dy1743 2.351 . S
O1750 C1758 1.249 . S
O1751 Dy1740 2.326 . S
O1751 C1758 1.267 . S
O1752 C1741 1.185 . S
O1752 Dy1743 2.398 . S
O1753 C1741 1.355 . S
O1753 Dy1743 2.491 . S
O1754 Dy1743 2.403 . S
O1754 C1749 1.254 . S
O1755 Dy1740 2.310 . S
O1755 Dy1743 2.664 . S
O1755 C1749 1.268 . S
O1756 Dy1740 2.351 . S
O1756 C1759 1.249 . S
O1757 Dy1743 2.326 . S
O1757 C1759 1.267 . S
C1758 O1750 1.249 . S
C1758 O1751 1.267 . S
C1759 O1756 1.249 . S
C1759 O1757 1.267 . S
Dy1760 O1764 2.398 . S
Dy1760 O1765 2.491 . S
Dy1760 O1766 2.403 . S
Dy1760 O1767 2.664 . S
Dy1760 O1771 2.326 . S
Dy1760 O1775 2.310 . S
Dy1760 O1776 2.351 . S
C1761 O1772 1.185 . S
C1761 O1773 1.355 . S
C1762 O1764 1.185 . S
C1762 O1765 1.355 . S
Dy1763 O1767 2.310 . S
Dy1763 O1770 2.351 . S
Dy1763 O1772 2.398 . S
Dy1763 O1773 2.491 . S
Dy1763 O1774 2.403 . S
Dy1763 O1775 2.664 . S
Dy1763 O1777 2.326 . S
O1764 Dy1760 2.398 . S
O1764 C1762 1.185 . S
O1765 Dy1760 2.491 . S
O1765 C1762 1.355 . S
O1766 Dy1760 2.403 . S
O1766 C1768 1.254 . S
O1767 Dy1760 2.664 . S
O1767 Dy1763 2.310 . S
O1767 C1768 1.268 . S
C1768 O1766 1.254 . S
C1768 O1767 1.268 . S
C1769 O1774 1.254 . S
C1769 O1775 1.268 . S
O1770 Dy1763 2.351 . S
O1770 C1778 1.249 . S
O1771 Dy1760 2.326 . S
O1771 C1778 1.267 . S
O1772 C1761 1.185 . S
O1772 Dy1763 2.398 . S
O1773 C1761 1.355 . S
O1773 Dy1763 2.491 . S
O1774 Dy1763 2.403 . S
O1774 C1769 1.254 . S
O1775 Dy1760 2.310 . S
O1775 Dy1763 2.664 . S
O1775 C1769 1.268 . S
O1776 Dy1760 2.351 . S
O1776 C1779 1.249 . S
O1777 Dy1763 2.326 . S
O1777 C1779 1.267 . S
C1778 O1770 1.249 . S
C1778 O1771 1.267 . S
C1779 O1776 1.249 . S
C1779 O1777 1.267 . S
Dy1780 O1784 2.398 . S
Dy1780 O1785 2.491 . S
Dy1780 O1786 2.403 . S
Dy1780 O1787 2.664 . S
Dy1780 O1791 2.326 . S
Dy1780 O1795 2.310 . S
Dy1780 O1796 2.351 . S
C1781 O1792 1.185 . S
C1781 O1793 1.355 . S
C1782 O1784 1.185 . S
C1782 O1785 1.355 . S
Dy1783 O1787 2.310 . S
Dy1783 O1790 2.351 . S
Dy1783 O1792 2.398 . S
Dy1783 O1793 2.491 . S
Dy1783 O1794 2.403 . S
Dy1783 O1795 2.664 . S
Dy1783 O1797 2.326 . S
O1784 Dy1780 2.398 . S
O1784 C1782 1.185 . S
O1785 Dy1780 2.491 . S
O1785 C1782 1.355 . S
O1786 Dy1780 2.403 . S
O1786 C1788 1.254 . S
O1787 Dy1780 2.664 . S
O1787 Dy1783 2.310 . S
O1787 C1788 1.268 . S
C1788 O1786 1.254 . S
C1788 O1787 1.268 . S
C1789 O1794 1.254 . S
C1789 O1795 1.268 . S
O1790 Dy1783 2.351 . S
O1790 C1798 1.249 . S
O1791 Dy1780 2.326 . S
O1791 C1798 1.267 . S
O1792 C1781 1.185 . S
O1792 Dy1783 2.398 . S
O1793 C1781 1.355 . S
O1793 Dy1783 2.491 . S
O1794 Dy1783 2.403 . S
O1794 C1789 1.254 . S
O1795 Dy1780 2.310 . S
O1795 Dy1783 2.664 . S
O1795 C1789 1.268 . S
O1796 Dy1780 2.351 . S
O1796 C1799 1.249 . S
O1797 Dy1783 2.326 . S
O1797 C1799 1.267 . S
C1798 O1790 1.249 . S
C1798 O1791 1.267 . S
C1799 O1796 1.249 . S
C1799 O1797 1.267 . S
Dy1800 O1804 2.398 . S
Dy1800 O1805 2.491 . S
Dy1800 O1806 2.403 . S
Dy1800 O1807 2.664 . S
Dy1800 O1811 2.326 . S
Dy1800 O1815 2.310 . S
Dy1800 O1816 2.351 . S
C1801 O1812 1.185 . S
C1801 O1813 1.355 . S
C1802 O1804 1.185 . S
C1802 O1805 1.355 . S
Dy1803 O1807 2.310 . S
Dy1803 O1810 2.351 . S
Dy1803 O1812 2.398 . S
Dy1803 O1813 2.491 . S
Dy1803 O1814 2.403 . S
Dy1803 O1815 2.664 . S
Dy1803 O1817 2.326 . S
O1804 Dy1800 2.398 . S
O1804 C1802 1.185 . S
O1805 Dy1800 2.491 . S
O1805 C1802 1.355 . S
O1806 Dy1800 2.403 . S
O1806 C1808 1.254 . S
O1807 Dy1800 2.664 . S
O1807 Dy1803 2.310 . S
O1807 C1808 1.268 . S
C1808 O1806 1.254 . S
C1808 O1807 1.268 . S
C1809 O1814 1.254 . S
C1809 O1815 1.268 . S
O1810 Dy1803 2.351 . S
O1810 C1818 1.249 . S
O1811 Dy1800 2.326 . S
O1811 C1818 1.267 . S
O1812 C1801 1.185 . S
O1812 Dy1803 2.398 . S
O1813 C1801 1.355 . S
O1813 Dy1803 2.491 . S
O1814 Dy1803 2.403 . S
O1814 C1809 1.254 . S
O1815 Dy1800 2.310 . S
O1815 Dy1803 2.664 . S
O1815 C1809 1.268 . S
O1816 Dy1800 2.351 . S
O1816 C1819 1.249 . S
O1817 Dy1803 2.326 . S
O1817 C1819 1.267 . S
C1818 O1810 1.249 . S
C1818 O1811 1.267 . S
C1819 O1816 1.249 . S
C1819 O1817 1.267 . S
Dy1820 O1824 2.398 . S
Dy1820 O1825 2.491 . S
Dy1820 O1826 2.403 1_556 S
Dy1820 O1827 2.664 1_556 S
Dy1820 O1831 2.326 . S
Dy1820 O1835 2.310 1_556 S
Dy1820 O1836 2.351 1_556 S
C1821 O1832 1.185 . S
C1821 O1833 1.355 . S
C1822 O1824 1.185 . S
C1822 O1825 1.355 . S
Dy1823 O1827 2.310 . S
Dy1823 O1830 2.351 . S
Dy1823 O1832 2.398 . S
Dy1823 O1833 2.491 . S
Dy1823 O1834 2.403 . S
Dy1823 O1835 2.664 . S
Dy1823 O1837 2.326 . S
O1824 Dy1820 2.398 . S
O1824 C1822 1.185 . S
O1825 Dy1820 2.491 . S
O1825 C1822 1.355 . S
O1826 Dy1820 2.403 1_554 S
O1826 C1828 1.254 . S
O1827 Dy1820 2.664 1_554 S
O1827 Dy1823 2.310 . S
O1827 C1828 1.268 . S
C1828 O1826 1.254 . S
C1828 O1827 1.268 . S
C1829 O1834 1.254 . S
C1829 O1835 1.268 . S
O1830 Dy1823 2.351 . S
O1830 C1838 1.249 1_554 S
O1831 Dy1820 2.326 . S
O1831 C1838 1.267 . S
O1832 C1821 1.185 . S
O1832 Dy1823 2.398 . S
O1833 C1821 1.355 . S
O1833 Dy1823 2.491 . S
O1834 Dy1823 2.403 . S
O1834 C1829 1.254 . S
O1835 Dy1820 2.310 1_554 S
O1835 Dy1823 2.664 . S
O1835 C1829 1.268 . S
O1836 Dy1820 2.351 1_554 S
O1836 C1839 1.249 . S
O1837 Dy1823 2.326 . S
O1837 C1839 1.267 . S
C1838 O1830 1.249 1_556 S
C1838 O1831 1.267 . S
C1839 O1836 1.249 . S
C1839 O1837 1.267 . S
Dy1840 O1844 2.398 . S
Dy1840 O1845 2.491 . S
Dy1840 O1846 2.403 . S
Dy1840 O1847 2.664 . S
Dy1840 O1851 2.326 . S
Dy1840 O1855 2.310 . S
Dy1840 O1856 2.351 . S
C1841 O1852 1.185 . S
C1841 O1853 1.355 . S
C1842 O1844 1.185 . S
C1842 O1845 1.355 . S
Dy1843 O1847 2.310 . S
Dy1843 O1850 2.351 . S
Dy1843 O1852 2.398 . S
Dy1843 O1853 2.491 . S
Dy1843 O1854 2.403 . S
Dy1843 O1855 2.664 . S
Dy1843 O1857 2.326 . S
O1844 Dy1840 2.398 . S
O1844 C1842 1.185 . S
O1845 Dy1840 2.491 . S
O1845 C1842 1.355 . S
O1846 Dy1840 2.403 . S
O1846 C1848 1.254 . S
O1847 Dy1840 2.664 . S
O1847 Dy1843 2.310 . S
O1847 C1848 1.268 . S
C1848 O1846 1.254 . S
C1848 O1847 1.268 . S
C1849 O1854 1.254 . S
C1849 O1855 1.268 . S
O1850 Dy1843 2.351 . S
O1850 C1858 1.249 . S
O1851 Dy1840 2.326 . S
O1851 C1858 1.267 . S
O1852 C1841 1.185 . S
O1852 Dy1843 2.398 . S
O1853 C1841 1.355 . S
O1853 Dy1843 2.491 . S
O1854 Dy1843 2.403 . S
O1854 C1849 1.254 . S
O1855 Dy1840 2.310 . S
O1855 Dy1843 2.664 . S
O1855 C1849 1.268 . S
O1856 Dy1840 2.351 . S
O1856 C1859 1.249 . S
O1857 Dy1843 2.326 . S
O1857 C1859 1.267 . S
C1858 O1850 1.249 . S
C1858 O1851 1.267 . S
C1859 O1856 1.249 . S
C1859 O1857 1.267 . S
Dy1860 O1864 2.398 . S
Dy1860 O1865 2.491 . S
Dy1860 O1866 2.403 1_554 S
Dy1860 O1867 2.664 1_554 S
Dy1860 O1871 2.326 . S
Dy1860 O1875 2.310 1_554 S
Dy1860 O1876 2.351 1_554 S
C1861 O1872 1.185 . S
C1861 O1873 1.355 . S
C1862 O1864 1.185 . S
C1862 O1865 1.355 . S
Dy1863 O1867 2.310 . S
Dy1863 O1870 2.351 . S
Dy1863 O1872 2.398 . S
Dy1863 O1873 2.491 . S
Dy1863 O1874 2.403 . S
Dy1863 O1875 2.664 . S
Dy1863 O1877 2.326 . S
O1864 Dy1860 2.398 . S
O1864 C1862 1.185 . S
O1865 Dy1860 2.491 . S
O1865 C1862 1.355 . S
O1866 Dy1860 2.403 1_556 S
O1866 C1868 1.254 . S
O1867 Dy1860 2.664 1_556 S
O1867 Dy1863 2.310 . S
O1867 C1868 1.268 . S
C1868 O1866 1.254 . S
C1868 O1867 1.268 . S
C1869 O1874 1.254 . S
C1869 O1875 1.268 . S
O1870 Dy1863 2.351 . S
O1870 C1878 1.249 1_556 S
O1871 Dy1860 2.326 . S
O1871 C1878 1.267 . S
O1872 C1861 1.185 . S
O1872 Dy1863 2.398 . S
O1873 C1861 1.355 . S
O1873 Dy1863 2.491 . S
O1874 Dy1863 2.403 . S
O1874 C1869 1.254 . S
O1875 Dy1860 2.310 1_556 S
O1875 Dy1863 2.664 . S
O1875 C1869 1.268 . S
O1876 Dy1860 2.351 1_556 S
O1876 C1879 1.249 . S
O1877 Dy1863 2.326 . S
O1877 C1879 1.267 . S
C1878 O1870 1.249 1_554 S
C1878 O1871 1.267 . S
C1879 O1876 1.249 . S
C1879 O1877 1.267 . S
Dy1880 O1884 2.398 . S
Dy1880 O1885 2.491 . S
Dy1880 O1886 2.403 . S
Dy1880 O1887 2.664 . S
Dy1880 O1891 2.326 . S
Dy1880 O1895 2.310 . S
Dy1880 O1896 2.351 . S
C1881 O1892 1.185 . S
C1881 O1893 1.355 . S
C1882 O1884 1.185 . S
C1882 O1885 1.355 . S
Dy1883 O1887 2.310 . S
Dy1883 O1890 2.351 . S
Dy1883 O1892 2.398 . S
Dy1883 O1893 2.491 . S
Dy1883 O1894 2.403 . S
Dy1883 O1895 2.664 . S
Dy1883 O1897 2.326 . S
O1884 Dy1880 2.398 . S
O1884 C1882 1.185 . S
O1885 Dy1880 2.491 . S
O1885 C1882 1.355 . S
O1886 Dy1880 2.403 . S
O1886 C1888 1.254 . S
O1887 Dy1880 2.664 . S
O1887 Dy1883 2.310 . S
O1887 C1888 1.268 . S
C1888 O1886 1.254 . S
C1888 O1887 1.268 . S
C1889 O1894 1.254 . S
C1889 O1895 1.268 . S
O1890 Dy1883 2.351 . S
O1890 C1898 1.249 . S
O1891 Dy1880 2.326 . S
O1891 C1898 1.267 . S
O1892 C1881 1.185 . S
O1892 Dy1883 2.398 . S
O1893 C1881 1.355 . S
O1893 Dy1883 2.491 . S
O1894 Dy1883 2.403 . S
O1894 C1889 1.254 . S
O1895 Dy1880 2.310 . S
O1895 Dy1883 2.664 . S
O1895 C1889 1.268 . S
O1896 Dy1880 2.351 . S
O1896 C1899 1.249 . S
O1897 Dy1883 2.326 . S
O1897 C1899 1.267 . S
C1898 O1890 1.249 . S
C1898 O1891 1.267 . S
C1899 O1896 1.249 . S
C1899 O1897 1.267 . S
Dy1900 O1904 2.398 . S
Dy1900 O1905 2.491 . S
Dy1900 O1906 2.403 . S
Dy1900 O1907 2.664 . S
Dy1900 O1911 2.326 . S
Dy1900 O1915 2.310 . S
Dy1900 O1916 2.351 . S
C1901 O1912 1.185 . S
C1901 O1913 1.355 . S
C1902 O1904 1.185 . S
C1902 O1905 1.355 . S
Dy1903 O1907 2.310 . S
Dy1903 O1910 2.351 . S
Dy1903 O1912 2.398 . S
Dy1903 O1913 2.491 . S
Dy1903 O1914 2.403 . S
Dy1903 O1915 2.664 . S
Dy1903 O1917 2.326 . S
O1904 Dy1900 2.398 . S
O1904 C1902 1.185 . S
O1905 Dy1900 2.491 . S
O1905 C1902 1.355 . S
O1906 Dy1900 2.403 . S
O1906 C1908 1.254 . S
O1907 Dy1900 2.664 . S
O1907 Dy1903 2.310 . S
O1907 C1908 1.268 . S
C1908 O1906 1.254 . S
C1908 O1907 1.268 . S
C1909 O1914 1.254 . S
C1909 O1915 1.268 . S
O1910 Dy1903 2.351 . S
O1910 C1918 1.249 . S
O1911 Dy1900 2.326 . S
O1911 C1918 1.267 . S
O1912 C1901 1.185 . S
O1912 Dy1903 2.398 . S
O1913 C1901 1.355 . S
O1913 Dy1903 2.491 . S
O1914 Dy1903 2.403 . S
O1914 C1909 1.254 . S
O1915 Dy1900 2.310 . S
O1915 Dy1903 2.664 . S
O1915 C1909 1.268 . S
O1916 Dy1900 2.351 . S
O1916 C1919 1.249 . S
O1917 Dy1903 2.326 . S
O1917 C1919 1.267 . S
C1918 O1910 1.249 . S
C1918 O1911 1.267 . S
C1919 O1916 1.249 . S
C1919 O1917 1.267 . S
H1920 C1926 0.930 . S
H1921 C1929 0.930 . S
H1922 C1930 0.930 . S
H1923 C1931 0.930 . S
H1924 C1934 0.930 . S
H1925 C1935 0.930 . S
C1926 H1920 0.930 . S
C1926 C1927 1.355 . S
C1926 C1928 1.415 . S
C1927 C1926 1.355 . S
C1927 C1929 1.419 . S
C1928 C1926 1.415 . S
C1928 C1933 1.425 . S
C1928 C1935 1.409 . S
C1929 H1921 0.930 . S
C1929 C1927 1.419 . S
C1929 C1930 1.362 . S
C1930 H1922 0.930 . S
C1930 C1929 1.362 . S
C1930 C1933 1.409 . S
C1931 H1923 0.930 . S
C1931 C1932 1.355 . S
C1931 C1933 1.415 . S
C1932 C1931 1.355 . S
C1932 C1934 1.419 . S
C1933 C1928 1.425 . S
C1933 C1930 1.409 . S
C1933 C1931 1.415 . S
C1934 H1924 0.930 . S
C1934 C1932 1.419 . S
C1934 C1935 1.362 . S
C1935 H1925 0.930 . S
C1935 C1928 1.409 . S
C1935 C1934 1.362 . S
H1936 C1942 0.930 . S
H1937 C1945 0.930 . S
H1938 C1946 0.930 . S
H1939 C1947 0.930 . S
H1940 C1950 0.930 . S
H1941 C1951 0.930 . S
C1942 H1936 0.930 . S
C1942 C1943 1.355 . S
C1942 C1944 1.415 . S
C1943 C1942 1.355 . S
C1943 C1945 1.419 . S
C1944 C1942 1.415 . S
C1944 C1949 1.425 . S
C1944 C1951 1.409 . S
C1945 H1937 0.930 . S
C1945 C1943 1.419 . S
C1945 C1946 1.362 . S
C1946 H1938 0.930 . S
C1946 C1945 1.362 . S
C1946 C1949 1.409 . S
C1947 H1939 0.930 . S
C1947 C1948 1.355 . S
C1947 C1949 1.415 . S
C1948 C1947 1.355 . S
C1948 C1950 1.419 . S
C1949 C1944 1.425 . S
C1949 C1946 1.409 . S
C1949 C1947 1.415 . S
C1950 H1940 0.930 . S
C1950 C1948 1.419 . S
C1950 C1951 1.362 . S
C1951 H1941 0.930 . S
C1951 C1944 1.409 . S
C1951 C1950 1.362 . S
H1952 C1958 0.930 . S
H1953 C1961 0.930 . S
H1954 C1962 0.930 . S
H1955 C1963 0.930 . S
H1956 C1966 0.930 . S
H1957 C1967 0.930 . S
C1958 H1952 0.930 . S
C1958 C1959 1.355 . S
C1958 C1960 1.415 . S
C1959 C1958 1.355 . S
C1959 C1961 1.419 . S
C1960 C1958 1.415 . S
C1960 C1965 1.425 . S
C1960 C1967 1.409 . S
C1961 H1953 0.930 . S
C1961 C1959 1.419 . S
C1961 C1962 1.362 . S
C1962 H1954 0.930 . S
C1962 C1961 1.362 . S
C1962 C1965 1.409 . S
C1963 H1955 0.930 . S
C1963 C1964 1.355 . S
C1963 C1965 1.415 . S
C1964 C1963 1.355 . S
C1964 C1966 1.419 . S
C1965 C1960 1.425 . S
C1965 C1962 1.409 . S
C1965 C1963 1.415 . S
C1966 H1956 0.930 . S
C1966 C1964 1.419 . S
C1966 C1967 1.362 . S
C1967 H1957 0.930 . S
C1967 C1960 1.409 . S
C1967 C1966 1.362 . S
H1968 C1974 0.930 . S
H1969 C1977 0.930 . S
H1970 C1978 0.930 . S
H1971 C1979 0.930 . S
H1972 C1982 0.930 . S
H1973 C1983 0.930 . S
C1974 H1968 0.930 . S
C1974 C1975 1.355 . S
C1974 C1976 1.415 . S
C1975 C1974 1.355 . S
C1975 C1977 1.419 . S
C1976 C1974 1.415 . S
C1976 C1981 1.425 . S
C1976 C1983 1.409 . S
C1977 H1969 0.930 . S
C1977 C1975 1.419 . S
C1977 C1978 1.362 . S
C1978 H1970 0.930 . S
C1978 C1977 1.362 . S
C1978 C1981 1.409 . S
C1979 H1971 0.930 . S
C1979 C1980 1.355 . S
C1979 C1981 1.415 . S
C1980 C1979 1.355 . S
C1980 C1982 1.419 . S
C1981 C1976 1.425 . S
C1981 C1978 1.409 . S
C1981 C1979 1.415 . S
C1982 H1972 0.930 . S
C1982 C1980 1.419 . S
C1982 C1983 1.362 . S
C1983 H1973 0.930 . S
C1983 C1976 1.409 . S
C1983 C1982 1.362 . S
H1984 C1990 0.930 . S
H1985 C1993 0.930 . S
H1986 C1994 0.930 . S
H1987 C1995 0.930 . S
H1988 C1998 0.930 . S
H1989 C1999 0.930 . S
C1990 H1984 0.930 . S
C1990 C1991 1.355 . S
C1990 C1992 1.415 . S
C1991 C1990 1.355 . S
C1991 C1993 1.419 . S
C1992 C1990 1.415 . S
C1992 C1997 1.425 . S
C1992 C1999 1.409 . S
C1993 H1985 0.930 . S
C1993 C1991 1.419 . S
C1993 C1994 1.362 . S
C1994 H1986 0.930 . S
C1994 C1993 1.362 . S
C1994 C1997 1.409 . S
C1995 H1987 0.930 . S
C1995 C1996 1.355 . S
C1995 C1997 1.415 . S
C1996 C1995 1.355 . S
C1996 C1998 1.419 . S
C1997 C1992 1.425 . S
C1997 C1994 1.409 . S
C1997 C1995 1.415 . S
C1998 H1988 0.930 . S
C1998 C1996 1.419 . S
C1998 C1999 1.362 . S
C1999 H1989 0.930 . S
C1999 C1992 1.409 . S
C1999 C1998 1.362 . S
H2000 C2006 0.930 . S
H2001 C2009 0.930 . S
H2002 C2010 0.930 . S
H2003 C2011 0.930 . S
H2004 C2014 0.930 . S
H2005 C2015 0.930 . S
C2006 H2000 0.930 . S
C2006 C2007 1.355 . S
C2006 C2008 1.415 . S
C2007 C2006 1.355 . S
C2007 C2009 1.419 . S
C2008 C2006 1.415 . S
C2008 C2013 1.425 . S
C2008 C2015 1.409 . S
C2009 H2001 0.930 . S
C2009 C2007 1.419 . S
C2009 C2010 1.362 . S
C2010 H2002 0.930 . S
C2010 C2009 1.362 . S
C2010 C2013 1.409 . S
C2011 H2003 0.930 . S
C2011 C2012 1.355 . S
C2011 C2013 1.415 . S
C2012 C2011 1.355 . S
C2012 C2014 1.419 . S
C2013 C2008 1.425 . S
C2013 C2010 1.409 . S
C2013 C2011 1.415 . S
C2014 H2004 0.930 . S
C2014 C2012 1.419 . S
C2014 C2015 1.362 . S
C2015 H2005 0.930 . S
C2015 C2008 1.409 . S
C2015 C2014 1.362 . S
H2016 C2022 0.930 . S
H2017 C2025 0.930 . S
H2018 C2026 0.930 . S
H2019 C2027 0.930 . S
H2020 C2030 0.930 . S
H2021 C2031 0.930 . S
C2022 H2016 0.930 . S
C2022 C2023 1.355 . S
C2022 C2024 1.415 . S
C2023 C2022 1.355 . S
C2023 C2025 1.419 . S
C2024 C2022 1.415 . S
C2024 C2029 1.425 . S
C2024 C2031 1.409 . S
C2025 H2017 0.930 . S
C2025 C2023 1.419 . S
C2025 C2026 1.362 . S
C2026 H2018 0.930 . S
C2026 C2025 1.362 . S
C2026 C2029 1.409 . S
C2027 H2019 0.930 . S
C2027 C2028 1.355 . S
C2027 C2029 1.415 . S
C2028 C2027 1.355 . S
C2028 C2030 1.419 . S
C2029 C2024 1.425 . S
C2029 C2026 1.409 . S
C2029 C2027 1.415 . S
C2030 H2020 0.930 . S
C2030 C2028 1.419 . S
C2030 C2031 1.362 . S
C2031 H2021 0.930 . S
C2031 C2024 1.409 . S
C2031 C2030 1.362 . S
H2032 C2038 0.930 . S
H2033 C2041 0.930 . S
H2034 C2042 0.930 . S
H2035 C2043 0.930 . S
H2036 C2046 0.930 . S
H2037 C2047 0.930 . S
C2038 H2032 0.930 . S
C2038 C2039 1.355 . S
C2038 C2040 1.415 . S
C2039 C2038 1.355 . S
C2039 C2041 1.419 . S
C2040 C2038 1.415 . S
C2040 C2045 1.425 . S
C2040 C2047 1.409 . S
C2041 H2033 0.930 . S
C2041 C2039 1.419 . S
C2041 C2042 1.362 . S
C2042 H2034 0.930 . S
C2042 C2041 1.362 . S
C2042 C2045 1.409 . S
C2043 H2035 0.930 . S
C2043 C2044 1.355 . S
C2043 C2045 1.415 . S
C2044 C2043 1.355 . S
C2044 C2046 1.419 . S
C2045 C2040 1.425 . S
C2045 C2042 1.409 . S
C2045 C2043 1.415 . S
C2046 H2036 0.930 . S
C2046 C2044 1.419 . S
C2046 C2047 1.362 . S
C2047 H2037 0.930 . S
C2047 C2040 1.409 . S
C2047 C2046 1.362 . S
H2048 C2054 0.930 . S
H2049 C2057 0.930 . S
H2050 C2058 0.930 . S
H2051 C2059 0.930 . S
H2052 C2062 0.930 . S
H2053 C2063 0.930 . S
C2054 H2048 0.930 . S
C2054 C2055 1.355 . S
C2054 C2056 1.415 . S
C2055 C2054 1.355 . S
C2055 C2057 1.419 . S
C2056 C2054 1.415 . S
C2056 C2061 1.425 . S
C2056 C2063 1.409 . S
C2057 H2049 0.930 . S
C2057 C2055 1.419 . S
C2057 C2058 1.362 . S
C2058 H2050 0.930 . S
C2058 C2057 1.362 . S
C2058 C2061 1.409 . S
C2059 H2051 0.930 . S
C2059 C2060 1.355 . S
C2059 C2061 1.415 . S
C2060 C2059 1.355 . S
C2060 C2062 1.419 . S
C2061 C2056 1.425 . S
C2061 C2058 1.409 . S
C2061 C2059 1.415 . S
C2062 H2052 0.930 . S
C2062 C2060 1.419 . S
C2062 C2063 1.362 . S
C2063 H2053 0.930 . S
C2063 C2056 1.409 . S
C2063 C2062 1.362 . S
H2064 C2070 0.930 . S
H2065 C2073 0.930 . S
H2066 C2074 0.930 . S
H2067 C2075 0.930 . S
H2068 C2078 0.930 . S
H2069 C2079 0.930 . S
C2070 H2064 0.930 . S
C2070 C2071 1.355 . S
C2070 C2072 1.415 . S
C2071 C2070 1.355 . S
C2071 C2073 1.419 . S
C2072 C2070 1.415 . S
C2072 C2077 1.425 . S
C2072 C2079 1.409 . S
C2073 H2065 0.930 . S
C2073 C2071 1.419 . S
C2073 C2074 1.362 . S
C2074 H2066 0.930 . S
C2074 C2073 1.362 . S
C2074 C2077 1.409 . S
C2075 H2067 0.930 . S
C2075 C2076 1.355 . S
C2075 C2077 1.415 . S
C2076 C2075 1.355 . S
C2076 C2078 1.419 . S
C2077 C2072 1.425 . S
C2077 C2074 1.409 . S
C2077 C2075 1.415 . S
C2078 H2068 0.930 . S
C2078 C2076 1.419 . S
C2078 C2079 1.362 . S
C2079 H2069 0.930 . S
C2079 C2072 1.409 . S
C2079 C2078 1.362 . S
H2080 C2086 0.930 . S
H2081 C2089 0.930 . S
H2082 C2090 0.930 . S
H2083 C2091 0.930 . S
H2084 C2094 0.930 . S
H2085 C2095 0.930 . S
C2086 H2080 0.930 . S
C2086 C2087 1.355 . S
C2086 C2088 1.415 . S
C2087 C2086 1.355 . S
C2087 C2089 1.419 . S
C2088 C2086 1.415 . S
C2088 C2093 1.425 . S
C2088 C2095 1.409 . S
C2089 H2081 0.930 . S
C2089 C2087 1.419 . S
C2089 C2090 1.362 . S
C2090 H2082 0.930 . S
C2090 C2089 1.362 . S
C2090 C2093 1.409 . S
C2091 H2083 0.930 . S
C2091 C2092 1.355 . S
C2091 C2093 1.415 . S
C2092 C2091 1.355 . S
C2092 C2094 1.419 . S
C2093 C2088 1.425 . S
C2093 C2090 1.409 . S
C2093 C2091 1.415 . S
C2094 H2084 0.930 . S
C2094 C2092 1.419 . S
C2094 C2095 1.362 . S
C2095 H2085 0.930 . S
C2095 C2088 1.409 . S
C2095 C2094 1.362 . S
H2096 C2102 0.930 . S
H2097 C2105 0.930 . S
H2098 C2106 0.930 . S
H2099 C2107 0.930 . S
H2100 C2110 0.930 . S
H2101 C2111 0.930 . S
C2102 H2096 0.930 . S
C2102 C2103 1.355 . S
C2102 C2104 1.415 . S
C2103 C2102 1.355 . S
C2103 C2105 1.419 . S
C2104 C2102 1.415 . S
C2104 C2109 1.425 . S
C2104 C2111 1.409 . S
C2105 H2097 0.930 . S
C2105 C2103 1.419 . S
C2105 C2106 1.362 . S
C2106 H2098 0.930 . S
C2106 C2105 1.362 . S
C2106 C2109 1.409 . S
C2107 H2099 0.930 . S
C2107 C2108 1.355 . S
C2107 C2109 1.415 . S
C2108 C2107 1.355 . S
C2108 C2110 1.419 . S
C2109 C2104 1.425 . S
C2109 C2106 1.409 . S
C2109 C2107 1.415 . S
C2110 H2100 0.930 . S
C2110 C2108 1.419 . S
C2110 C2111 1.362 . S
C2111 H2101 0.930 . S
C2111 C2104 1.409 . S
C2111 C2110 1.362 . S
H2112 C2118 0.930 . S
H2113 C2121 0.930 . S
H2114 C2122 0.930 . S
H2115 C2123 0.930 . S
H2116 C2126 0.930 . S
H2117 C2127 0.930 . S
C2118 H2112 0.930 . S
C2118 C2119 1.355 . S
C2118 C2120 1.415 . S
C2119 C2118 1.355 . S
C2119 C2121 1.419 . S
C2120 C2118 1.415 . S
C2120 C2125 1.425 . S
C2120 C2127 1.409 . S
C2121 H2113 0.930 . S
C2121 C2119 1.419 . S
C2121 C2122 1.362 . S
C2122 H2114 0.930 . S
C2122 C2121 1.362 . S
C2122 C2125 1.409 . S
C2123 H2115 0.930 . S
C2123 C2124 1.355 . S
C2123 C2125 1.415 . S
C2124 C2123 1.355 . S
C2124 C2126 1.419 . S
C2125 C2120 1.425 . S
C2125 C2122 1.409 . S
C2125 C2123 1.415 . S
C2126 H2116 0.930 . S
C2126 C2124 1.419 . S
C2126 C2127 1.362 . S
C2127 H2117 0.930 . S
C2127 C2120 1.409 . S
C2127 C2126 1.362 . S
H2128 C2134 0.930 . S
H2129 C2137 0.930 . S
H2130 C2138 0.930 . S
H2131 C2139 0.930 . S
H2132 C2142 0.930 . S
H2133 C2143 0.930 . S
C2134 H2128 0.930 . S
C2134 C2135 1.355 . S
C2134 C2136 1.415 . S
C2135 C2134 1.355 . S
C2135 C2137 1.419 . S
C2136 C2134 1.415 . S
C2136 C2141 1.425 . S
C2136 C2143 1.409 . S
C2137 H2129 0.930 . S
C2137 C2135 1.419 . S
C2137 C2138 1.362 . S
C2138 H2130 0.930 . S
C2138 C2137 1.362 . S
C2138 C2141 1.409 . S
C2139 H2131 0.930 . S
C2139 C2140 1.355 . S
C2139 C2141 1.415 . S
C2140 C2139 1.355 . S
C2140 C2142 1.419 . S
C2141 C2136 1.425 . S
C2141 C2138 1.409 . S
C2141 C2139 1.415 . S
C2142 H2132 0.930 . S
C2142 C2140 1.419 . S
C2142 C2143 1.362 . S
C2143 H2133 0.930 . S
C2143 C2136 1.409 . S
C2143 C2142 1.362 . S
H2144 C2150 0.930 . S
H2145 C2153 0.930 . S
H2146 C2154 0.930 . S
H2147 C2155 0.930 . S
H2148 C2158 0.930 . S
H2149 C2159 0.930 . S
C2150 H2144 0.930 . S
C2150 C2151 1.355 . S
C2150 C2152 1.415 . S
C2151 C2150 1.355 . S
C2151 C2153 1.419 . S
C2152 C2150 1.415 . S
C2152 C2157 1.425 . S
C2152 C2159 1.409 . S
C2153 H2145 0.930 . S
C2153 C2151 1.419 . S
C2153 C2154 1.362 . S
C2154 H2146 0.930 . S
C2154 C2153 1.362 . S
C2154 C2157 1.409 . S
C2155 H2147 0.930 . S
C2155 C2156 1.355 . S
C2155 C2157 1.415 . S
C2156 C2155 1.355 . S
C2156 C2158 1.419 . S
C2157 C2152 1.425 . S
C2157 C2154 1.409 . S
C2157 C2155 1.415 . S
C2158 H2148 0.930 . S
C2158 C2156 1.419 . S
C2158 C2159 1.362 . S
C2159 H2149 0.930 . S
C2159 C2152 1.409 . S
C2159 C2158 1.362 . S
H2160 C2166 0.930 . S
H2161 C2169 0.930 . S
H2162 C2170 0.930 . S
H2163 C2171 0.930 . S
H2164 C2174 0.930 . S
H2165 C2175 0.930 . S
C2166 H2160 0.930 . S
C2166 C2167 1.355 . S
C2166 C2168 1.415 . S
C2167 C2166 1.355 . S
C2167 C2169 1.419 . S
C2168 C2166 1.415 . S
C2168 C2173 1.425 . S
C2168 C2175 1.409 . S
C2169 H2161 0.930 . S
C2169 C2167 1.419 . S
C2169 C2170 1.362 . S
C2170 H2162 0.930 . S
C2170 C2169 1.362 . S
C2170 C2173 1.409 . S
C2171 H2163 0.930 . S
C2171 C2172 1.355 . S
C2171 C2173 1.415 . S
C2172 C2171 1.355 . S
C2172 C2174 1.419 . S
C2173 C2168 1.425 . S
C2173 C2170 1.409 . S
C2173 C2171 1.415 . S
C2174 H2164 0.930 . S
C2174 C2172 1.419 . S
C2174 C2175 1.362 . S
C2175 H2165 0.930 . S
C2175 C2168 1.409 . S
C2175 C2174 1.362 . S
H2176 C2182 0.930 . S
H2177 C2185 0.930 . S
H2178 C2186 0.930 . S
H2179 C2187 0.930 . S
H2180 C2190 0.930 . S
H2181 C2191 0.930 . S
C2182 H2176 0.930 . S
C2182 C2183 1.355 . S
C2182 C2184 1.415 . S
C2183 C2182 1.355 . S
C2183 C2185 1.419 . S
C2184 C2182 1.415 . S
C2184 C2189 1.425 . S
C2184 C2191 1.409 . S
C2185 H2177 0.930 . S
C2185 C2183 1.419 . S
C2185 C2186 1.362 . S
C2186 H2178 0.930 . S
C2186 C2185 1.362 . S
C2186 C2189 1.409 . S
C2187 H2179 0.930 . S
C2187 C2188 1.355 . S
C2187 C2189 1.415 . S
C2188 C2187 1.355 . S
C2188 C2190 1.419 . S
C2189 C2184 1.425 . S
C2189 C2186 1.409 . S
C2189 C2187 1.415 . S
C2190 H2180 0.930 . S
C2190 C2188 1.419 . S
C2190 C2191 1.362 . S
C2191 H2181 0.930 . S
C2191 C2184 1.409 . S
C2191 C2190 1.362 . S
H2192 C2198 0.930 . S
H2193 C2201 0.930 . S
H2194 C2202 0.930 . S
H2195 C2203 0.930 . S
H2196 C2206 0.930 . S
H2197 C2207 0.930 . S
C2198 H2192 0.930 . S
C2198 C2199 1.355 . S
C2198 C2200 1.415 . S
C2199 C2198 1.355 . S
C2199 C2201 1.419 . S
C2200 C2198 1.415 . S
C2200 C2205 1.425 . S
C2200 C2207 1.409 . S
C2201 H2193 0.930 . S
C2201 C2199 1.419 . S
C2201 C2202 1.362 . S
C2202 H2194 0.930 . S
C2202 C2201 1.362 . S
C2202 C2205 1.409 . S
C2203 H2195 0.930 . S
C2203 C2204 1.355 . S
C2203 C2205 1.415 . S
C2204 C2203 1.355 . S
C2204 C2206 1.419 . S
C2205 C2200 1.425 . S
C2205 C2202 1.409 . S
C2205 C2203 1.415 . S
C2206 H2196 0.930 . S
C2206 C2204 1.419 . S
C2206 C2207 1.362 . S
C2207 H2197 0.930 . S
C2207 C2200 1.409 . S
C2207 C2206 1.362 . S
H2208 C2214 0.930 . S
H2209 C2217 0.930 . S
H2210 C2218 0.930 . S
H2211 C2219 0.930 . S
H2212 C2222 0.930 . S
H2213 C2223 0.930 . S
C2214 H2208 0.930 . S
C2214 C2215 1.355 . S
C2214 C2216 1.415 . S
C2215 C2214 1.355 . S
C2215 C2217 1.419 . S
C2216 C2214 1.415 . S
C2216 C2221 1.425 . S
C2216 C2223 1.409 . S
C2217 H2209 0.930 . S
C2217 C2215 1.419 . S
C2217 C2218 1.362 . S
C2218 H2210 0.930 . S
C2218 C2217 1.362 . S
C2218 C2221 1.409 . S
C2219 H2211 0.930 . S
C2219 C2220 1.355 . S
C2219 C2221 1.415 . S
C2220 C2219 1.355 . S
C2220 C2222 1.419 . S
C2221 C2216 1.425 . S
C2221 C2218 1.409 . S
C2221 C2219 1.415 . S
C2222 H2212 0.930 . S
C2222 C2220 1.419 . S
C2222 C2223 1.362 . S
C2223 H2213 0.930 . S
C2223 C2216 1.409 . S
C2223 C2222 1.362 . S
H2224 C2230 0.930 . S
H2225 C2233 0.930 . S
H2226 C2234 0.930 . S
H2227 C2235 0.930 . S
H2228 C2238 0.930 . S
H2229 C2239 0.930 . S
C2230 H2224 0.930 . S
C2230 C2231 1.355 . S
C2230 C2232 1.415 . S
C2231 C2230 1.355 . S
C2231 C2233 1.419 . S
C2232 C2230 1.415 . S
C2232 C2237 1.425 . S
C2232 C2239 1.409 . S
C2233 H2225 0.930 . S
C2233 C2231 1.419 . S
C2233 C2234 1.362 . S
C2234 H2226 0.930 . S
C2234 C2233 1.362 . S
C2234 C2237 1.409 . S
C2235 H2227 0.930 . S
C2235 C2236 1.355 . S
C2235 C2237 1.415 . S
C2236 C2235 1.355 . S
C2236 C2238 1.419 . S
C2237 C2232 1.425 . S
C2237 C2234 1.409 . S
C2237 C2235 1.415 . S
C2238 H2228 0.930 . S
C2238 C2236 1.419 . S
C2238 C2239 1.362 . S
C2239 H2229 0.930 . S
C2239 C2232 1.409 . S
C2239 C2238 1.362 . S
H2240 C2246 0.930 . S
H2241 C2249 0.930 . S
H2242 C2250 0.930 . S
H2243 C2251 0.930 . S
H2244 C2254 0.930 . S
H2245 C2255 0.930 . S
C2246 H2240 0.930 . S
C2246 C2247 1.355 . S
C2246 C2248 1.415 . S
C2247 C2246 1.355 . S
C2247 C2249 1.419 . S
C2248 C2246 1.415 . S
C2248 C2253 1.425 . S
C2248 C2255 1.409 . S
C2249 H2241 0.930 . S
C2249 C2247 1.419 . S
C2249 C2250 1.362 . S
C2250 H2242 0.930 . S
C2250 C2249 1.362 . S
C2250 C2253 1.409 . S
C2251 H2243 0.930 . S
C2251 C2252 1.355 . S
C2251 C2253 1.415 . S
C2252 C2251 1.355 . S
C2252 C2254 1.419 . S
C2253 C2248 1.425 . S
C2253 C2250 1.409 . S
C2253 C2251 1.415 . S
C2254 H2244 0.930 . S
C2254 C2252 1.419 . S
C2254 C2255 1.362 . S
C2255 H2245 0.930 . S
C2255 C2248 1.409 . S
C2255 C2254 1.362 . S
H2256 C2262 0.930 . S
H2257 C2265 0.930 . S
H2258 C2266 0.930 . S
H2259 C2267 0.930 . S
H2260 C2270 0.930 . S
H2261 C2271 0.930 . S
C2262 H2256 0.930 . S
C2262 C2263 1.355 . S
C2262 C2264 1.415 . S
C2263 C2262 1.355 . S
C2263 C2265 1.419 . S
C2264 C2262 1.415 . S
C2264 C2269 1.425 . S
C2264 C2271 1.409 . S
C2265 H2257 0.930 . S
C2265 C2263 1.419 . S
C2265 C2266 1.362 . S
C2266 H2258 0.930 . S
C2266 C2265 1.362 . S
C2266 C2269 1.409 . S
C2267 H2259 0.930 . S
C2267 C2268 1.355 . S
C2267 C2269 1.415 . S
C2268 C2267 1.355 . S
C2268 C2270 1.419 . S
C2269 C2264 1.425 . S
C2269 C2266 1.409 . S
C2269 C2267 1.415 . S
C2270 H2260 0.930 . S
C2270 C2268 1.419 . S
C2270 C2271 1.362 . S
C2271 H2261 0.930 . S
C2271 C2264 1.409 . S
C2271 C2270 1.362 . S
H2272 C2278 0.930 . S
H2273 C2281 0.930 . S
H2274 C2282 0.930 . S
H2275 C2283 0.930 . S
H2276 C2286 0.930 . S
H2277 C2287 0.930 . S
C2278 H2272 0.930 . S
C2278 C2279 1.355 . S
C2278 C2280 1.415 . S
C2279 C2278 1.355 . S
C2279 C2281 1.419 . S
C2280 C2278 1.415 . S
C2280 C2285 1.425 . S
C2280 C2287 1.409 . S
C2281 H2273 0.930 . S
C2281 C2279 1.419 . S
C2281 C2282 1.362 . S
C2282 H2274 0.930 . S
C2282 C2281 1.362 . S
C2282 C2285 1.409 . S
C2283 H2275 0.930 . S
C2283 C2284 1.355 . S
C2283 C2285 1.415 . S
C2284 C2283 1.355 . S
C2284 C2286 1.419 . S
C2285 C2280 1.425 . S
C2285 C2282 1.409 . S
C2285 C2283 1.415 . S
C2286 H2276 0.930 . S
C2286 C2284 1.419 . S
C2286 C2287 1.362 . S
C2287 H2277 0.930 . S
C2287 C2280 1.409 . S
C2287 C2286 1.362 . S
H2288 C2294 0.930 . S
H2289 C2297 0.930 . S
H2290 C2298 0.930 . S
H2291 C2299 0.930 . S
H2292 C2302 0.930 . S
H2293 C2303 0.930 . S
C2294 H2288 0.930 . S
C2294 C2295 1.355 . S
C2294 C2296 1.415 . S
C2295 C2294 1.355 . S
C2295 C2297 1.419 . S
C2296 C2294 1.415 . S
C2296 C2301 1.425 . S
C2296 C2303 1.409 . S
C2297 H2289 0.930 . S
C2297 C2295 1.419 . S
C2297 C2298 1.362 . S
C2298 H2290 0.930 . S
C2298 C2297 1.362 . S
C2298 C2301 1.409 . S
C2299 H2291 0.930 . S
C2299 C2300 1.355 . S
C2299 C2301 1.415 . S
C2300 C2299 1.355 . S
C2300 C2302 1.419 . S
C2301 C2296 1.425 . S
C2301 C2298 1.409 . S
C2301 C2299 1.415 . S
C2302 H2292 0.930 . S
C2302 C2300 1.419 . S
C2302 C2303 1.362 . S
C2303 H2293 0.930 . S
C2303 C2296 1.409 . S
C2303 C2302 1.362 . S
H2304 C2310 0.930 . S
H2305 C2313 0.930 . S
H2306 C2314 0.930 . S
H2307 C2315 0.930 . S
H2308 C2318 0.930 . S
H2309 C2319 0.930 . S
C2310 H2304 0.930 . S
C2310 C2311 1.355 . S
C2310 C2312 1.415 . S
C2311 C2310 1.355 . S
C2311 C2313 1.419 . S
C2312 C2310 1.415 . S
C2312 C2317 1.425 . S
C2312 C2319 1.409 . S
C2313 H2305 0.930 . S
C2313 C2311 1.419 . S
C2313 C2314 1.362 . S
C2314 H2306 0.930 . S
C2314 C2313 1.362 . S
C2314 C2317 1.409 . S
C2315 H2307 0.930 . S
C2315 C2316 1.355 . S
C2315 C2317 1.415 . S
C2316 C2315 1.355 . S
C2316 C2318 1.419 . S
C2317 C2312 1.425 . S
C2317 C2314 1.409 . S
C2317 C2315 1.415 . S
C2318 H2308 0.930 . S
C2318 C2316 1.419 . S
C2318 C2319 1.362 . S
C2319 H2309 0.930 . S
C2319 C2312 1.409 . S
C2319 C2318 1.362 . S
H2320 C2326 0.930 . S
H2321 C2329 0.930 . S
H2322 C2330 0.930 . S
H2323 C2331 0.930 . S
H2324 C2334 0.930 . S
H2325 C2335 0.930 . S
C2326 H2320 0.930 . S
C2326 C2327 1.355 . S
C2326 C2328 1.415 . S
C2327 C2326 1.355 . S
C2327 C2329 1.419 . S
C2328 C2326 1.415 . S
C2328 C2333 1.425 . S
C2328 C2335 1.409 . S
C2329 H2321 0.930 . S
C2329 C2327 1.419 . S
C2329 C2330 1.362 . S
C2330 H2322 0.930 . S
C2330 C2329 1.362 . S
C2330 C2333 1.409 . S
C2331 H2323 0.930 . S
C2331 C2332 1.355 . S
C2331 C2333 1.415 . S
C2332 C2331 1.355 . S
C2332 C2334 1.419 . S
C2333 C2328 1.425 . S
C2333 C2330 1.409 . S
C2333 C2331 1.415 . S
C2334 H2324 0.930 . S
C2334 C2332 1.419 . S
C2334 C2335 1.362 . S
C2335 H2325 0.930 . S
C2335 C2328 1.409 . S
C2335 C2334 1.362 . S
H2336 C2342 0.930 . S
H2337 C2345 0.930 . S
H2338 C2346 0.930 . S
H2339 C2347 0.930 . S
H2340 C2350 0.930 . S
H2341 C2351 0.930 . S
C2342 H2336 0.930 . S
C2342 C2343 1.355 . S
C2342 C2344 1.415 . S
C2343 C2342 1.355 . S
C2343 C2345 1.419 . S
C2344 C2342 1.415 . S
C2344 C2349 1.425 . S
C2344 C2351 1.409 . S
C2345 H2337 0.930 . S
C2345 C2343 1.419 . S
C2345 C2346 1.362 . S
C2346 H2338 0.930 . S
C2346 C2345 1.362 . S
C2346 C2349 1.409 . S
C2347 H2339 0.930 . S
C2347 C2348 1.355 . S
C2347 C2349 1.415 . S
C2348 C2347 1.355 . S
C2348 C2350 1.419 . S
C2349 C2344 1.425 . S
C2349 C2346 1.409 . S
C2349 C2347 1.415 . S
C2350 H2340 0.930 . S
C2350 C2348 1.419 . S
C2350 C2351 1.362 . S
C2351 H2341 0.930 . S
C2351 C2344 1.409 . S
C2351 C2350 1.362 . S
H2352 C2358 0.930 . S
H2353 C2361 0.930 . S
H2354 C2362 0.930 . S
H2355 C2363 0.930 . S
H2356 C2366 0.930 . S
H2357 C2367 0.930 . S
C2358 H2352 0.930 . S
C2358 C2359 1.355 . S
C2358 C2360 1.415 . S
C2359 C2358 1.355 . S
C2359 C2361 1.419 . S
C2360 C2358 1.415 . S
C2360 C2365 1.425 . S
C2360 C2367 1.409 . S
C2361 H2353 0.930 . S
C2361 C2359 1.419 . S
C2361 C2362 1.362 . S
C2362 H2354 0.930 . S
C2362 C2361 1.362 . S
C2362 C2365 1.409 . S
C2363 H2355 0.930 . S
C2363 C2364 1.355 . S
C2363 C2365 1.415 . S
C2364 C2363 1.355 . S
C2364 C2366 1.419 . S
C2365 C2360 1.425 . S
C2365 C2362 1.409 . S
C2365 C2363 1.415 . S
C2366 H2356 0.930 . S
C2366 C2364 1.419 . S
C2366 C2367 1.362 . S
C2367 H2357 0.930 . S
C2367 C2360 1.409 . S
C2367 C2366 1.362 . S
H2368 C2374 0.930 . S
H2369 C2377 0.930 . S
H2370 C2378 0.930 . S
H2371 C2379 0.930 . S
H2372 C2382 0.930 . S
H2373 C2383 0.930 . S
C2374 H2368 0.930 . S
C2374 C2375 1.355 . S
C2374 C2376 1.415 . S
C2375 C2374 1.355 . S
C2375 C2377 1.419 . S
C2376 C2374 1.415 . S
C2376 C2381 1.425 . S
C2376 C2383 1.409 . S
C2377 H2369 0.930 . S
C2377 C2375 1.419 . S
C2377 C2378 1.362 . S
C2378 H2370 0.930 . S
C2378 C2377 1.362 . S
C2378 C2381 1.409 . S
C2379 H2371 0.930 . S
C2379 C2380 1.355 . S
C2379 C2381 1.415 . S
C2380 C2379 1.355 . S
C2380 C2382 1.419 . S
C2381 C2376 1.425 . S
C2381 C2378 1.409 . S
C2381 C2379 1.415 . S
C2382 H2372 0.930 . S
C2382 C2380 1.419 . S
C2382 C2383 1.362 . S
C2383 H2373 0.930 . S
C2383 C2376 1.409 . S
C2383 C2382 1.362 . S
H2384 C2390 0.930 . S
H2385 C2393 0.930 . S
H2386 C2394 0.930 . S
H2387 C2395 0.930 . S
H2388 C2398 0.930 . S
H2389 C2399 0.930 . S
C2390 H2384 0.930 . S
C2390 C2391 1.355 . S
C2390 C2392 1.415 . S
C2391 C2390 1.355 . S
C2391 C2393 1.419 . S
C2392 C2390 1.415 . S
C2392 C2397 1.425 . S
C2392 C2399 1.409 . S
C2393 H2385 0.930 . S
C2393 C2391 1.419 . S
C2393 C2394 1.362 . S
C2394 H2386 0.930 . S
C2394 C2393 1.362 . S
C2394 C2397 1.409 . S
C2395 H2387 0.930 . S
C2395 C2396 1.355 . S
C2395 C2397 1.415 . S
C2396 C2395 1.355 . S
C2396 C2398 1.419 . S
C2397 C2392 1.425 . S
C2397 C2394 1.409 . S
C2397 C2395 1.415 . S
C2398 H2388 0.930 . S
C2398 C2396 1.419 . S
C2398 C2399 1.362 . S
C2399 H2389 0.930 . S
C2399 C2392 1.409 . S
C2399 C2398 1.362 . S
H2400 C2406 0.930 . S
H2401 C2409 0.930 . S
H2402 C2410 0.930 . S
H2403 C2411 0.930 . S
H2404 C2414 0.930 . S
H2405 C2415 0.930 . S
C2406 H2400 0.930 . S
C2406 C2407 1.355 . S
C2406 C2408 1.415 . S
C2407 C2406 1.355 . S
C2407 C2409 1.419 . S
C2408 C2406 1.415 . S
C2408 C2413 1.425 . S
C2408 C2415 1.409 . S
C2409 H2401 0.930 . S
C2409 C2407 1.419 . S
C2409 C2410 1.362 . S
C2410 H2402 0.930 . S
C2410 C2409 1.362 . S
C2410 C2413 1.409 . S
C2411 H2403 0.930 . S
C2411 C2412 1.355 . S
C2411 C2413 1.415 . S
C2412 C2411 1.355 . S
C2412 C2414 1.419 . S
C2413 C2408 1.425 . S
C2413 C2410 1.409 . S
C2413 C2411 1.415 . S
C2414 H2404 0.930 . S
C2414 C2412 1.419 . S
C2414 C2415 1.362 . S
C2415 H2405 0.930 . S
C2415 C2408 1.409 . S
C2415 C2414 1.362 . S
H2416 C2422 0.930 . S
H2417 C2425 0.930 . S
H2418 C2426 0.930 . S
H2419 C2427 0.930 . S
H2420 C2430 0.930 . S
H2421 C2431 0.930 . S
C2422 H2416 0.930 . S
C2422 C2423 1.355 . S
C2422 C2424 1.415 . S
C2423 C2422 1.355 . S
C2423 C2425 1.419 . S
C2424 C2422 1.415 . S
C2424 C2429 1.425 . S
C2424 C2431 1.409 . S
C2425 H2417 0.930 . S
C2425 C2423 1.419 . S
C2425 C2426 1.362 . S
C2426 H2418 0.930 . S
C2426 C2425 1.362 . S
C2426 C2429 1.409 . S
C2427 H2419 0.930 . S
C2427 C2428 1.355 . S
C2427 C2429 1.415 . S
C2428 C2427 1.355 . S
C2428 C2430 1.419 . S
C2429 C2424 1.425 . S
C2429 C2426 1.409 . S
C2429 C2427 1.415 . S
C2430 H2420 0.930 . S
C2430 C2428 1.419 . S
C2430 C2431 1.362 . S
C2431 H2421 0.930 . S
C2431 C2424 1.409 . S
C2431 C2430 1.362 . S
H2432 C2438 0.930 . S
H2433 C2441 0.930 . S
H2434 C2442 0.930 . S
H2435 C2443 0.930 . S
H2436 C2446 0.930 . S
H2437 C2447 0.930 . S
C2438 H2432 0.930 . S
C2438 C2439 1.355 . S
C2438 C2440 1.415 . S
C2439 C2438 1.355 . S
C2439 C2441 1.419 . S
C2440 C2438 1.415 . S
C2440 C2445 1.425 . S
C2440 C2447 1.409 . S
C2441 H2433 0.930 . S
C2441 C2439 1.419 . S
C2441 C2442 1.362 . S
C2442 H2434 0.930 . S
C2442 C2441 1.362 . S
C2442 C2445 1.409 . S
C2443 H2435 0.930 . S
C2443 C2444 1.355 . S
C2443 C2445 1.415 . S
C2444 C2443 1.355 . S
C2444 C2446 1.419 . S
C2445 C2440 1.425 . S
C2445 C2442 1.409 . S
C2445 C2443 1.415 . S
C2446 H2436 0.930 . S
C2446 C2444 1.419 . S
C2446 C2447 1.362 . S
C2447 H2437 0.930 . S
C2447 C2440 1.409 . S
C2447 C2446 1.362 . S
H2448 C2454 0.930 . S
H2449 C2457 0.930 . S
H2450 C2458 0.930 . S
H2451 C2459 0.930 . S
H2452 C2462 0.930 . S
H2453 C2463 0.930 . S
C2454 H2448 0.930 . S
C2454 C2455 1.355 . S
C2454 C2456 1.415 . S
C2455 C2454 1.355 . S
C2455 C2457 1.419 . S
C2456 C2454 1.415 . S
C2456 C2461 1.425 . S
C2456 C2463 1.409 . S
C2457 H2449 0.930 . S
C2457 C2455 1.419 . S
C2457 C2458 1.362 . S
C2458 H2450 0.930 . S
C2458 C2457 1.362 . S
C2458 C2461 1.409 . S
C2459 H2451 0.930 . S
C2459 C2460 1.355 . S
C2459 C2461 1.415 . S
C2460 C2459 1.355 . S
C2460 C2462 1.419 . S
C2461 C2456 1.425 . S
C2461 C2458 1.409 . S
C2461 C2459 1.415 . S
C2462 H2452 0.930 . S
C2462 C2460 1.419 . S
C2462 C2463 1.362 . S
C2463 H2453 0.930 . S
C2463 C2456 1.409 . S
C2463 C2462 1.362 . S
H2464 C2470 0.930 . S
H2465 C2473 0.930 . S
H2466 C2474 0.930 . S
H2467 C2475 0.930 . S
H2468 C2478 0.930 . S
H2469 C2479 0.930 . S
C2470 H2464 0.930 . S
C2470 C2471 1.355 . S
C2470 C2472 1.415 . S
C2471 C2470 1.355 . S
C2471 C2473 1.419 . S
C2472 C2470 1.415 . S
C2472 C2477 1.425 . S
C2472 C2479 1.409 . S
C2473 H2465 0.930 . S
C2473 C2471 1.419 . S
C2473 C2474 1.362 . S
C2474 H2466 0.930 . S
C2474 C2473 1.362 . S
C2474 C2477 1.409 . S
C2475 H2467 0.930 . S
C2475 C2476 1.355 . S
C2475 C2477 1.415 . S
C2476 C2475 1.355 . S
C2476 C2478 1.419 . S
C2477 C2472 1.425 . S
C2477 C2474 1.409 . S
C2477 C2475 1.415 . S
C2478 H2468 0.930 . S
C2478 C2476 1.419 . S
C2478 C2479 1.362 . S
C2479 H2469 0.930 . S
C2479 C2472 1.409 . S
C2479 C2478 1.362 . S
H2480 C2486 0.930 . S
H2481 C2489 0.930 . S
H2482 C2490 0.930 . S
H2483 C2491 0.930 . S
H2484 C2494 0.930 . S
H2485 C2495 0.930 . S
C2486 H2480 0.930 . S
C2486 C2487 1.355 . S
C2486 C2488 1.415 . S
C2487 C2486 1.355 . S
C2487 C2489 1.419 . S
C2488 C2486 1.415 . S
C2488 C2493 1.425 . S
C2488 C2495 1.409 . S
C2489 H2481 0.930 . S
C2489 C2487 1.419 . S
C2489 C2490 1.362 . S
C2490 H2482 0.930 . S
C2490 C2489 1.362 . S
C2490 C2493 1.409 . S
C2491 H2483 0.930 . S
C2491 C2492 1.355 . S
C2491 C2493 1.415 . S
C2492 C2491 1.355 . S
C2492 C2494 1.419 . S
C2493 C2488 1.425 . S
C2493 C2490 1.409 . S
C2493 C2491 1.415 . S
C2494 H2484 0.930 . S
C2494 C2492 1.419 . S
C2494 C2495 1.362 . S
C2495 H2485 0.930 . S
C2495 C2488 1.409 . S
C2495 C2494 1.362 . S
H2496 C2502 0.930 . S
H2497 C2505 0.930 . S
H2498 C2506 0.930 . S
H2499 C2507 0.930 . S
H2500 C2510 0.930 . S
H2501 C2511 0.930 . S
C2502 H2496 0.930 . S
C2502 C2503 1.355 . S
C2502 C2504 1.415 . S
C2503 C2502 1.355 . S
C2503 C2505 1.419 . S
C2504 C2502 1.415 . S
C2504 C2509 1.425 . S
C2504 C2511 1.409 . S
C2505 H2497 0.930 . S
C2505 C2503 1.419 . S
C2505 C2506 1.362 . S
C2506 H2498 0.930 . S
C2506 C2505 1.362 . S
C2506 C2509 1.409 . S
C2507 H2499 0.930 . S
C2507 C2508 1.355 . S
C2507 C2509 1.415 . S
C2508 C2507 1.355 . S
C2508 C2510 1.419 . S
C2509 C2504 1.425 . S
C2509 C2506 1.409 . S
C2509 C2507 1.415 . S
C2510 H2500 0.930 . S
C2510 C2508 1.419 . S
C2510 C2511 1.362 . S
C2511 H2501 0.930 . S
C2511 C2504 1.409 . S
C2511 C2510 1.362 . S
H2512 C2518 0.930 . S
H2513 C2521 0.930 . S
H2514 C2522 0.930 . S
H2515 C2523 0.930 . S
H2516 C2526 0.930 . S
H2517 C2527 0.930 . S
C2518 H2512 0.930 . S
C2518 C2519 1.355 . S
C2518 C2520 1.415 . S
C2519 C2518 1.355 . S
C2519 C2521 1.419 . S
C2520 C2518 1.415 . S
C2520 C2525 1.425 . S
C2520 C2527 1.409 . S
C2521 H2513 0.930 . S
C2521 C2519 1.419 . S
C2521 C2522 1.362 . S
C2522 H2514 0.930 . S
C2522 C2521 1.362 . S
C2522 C2525 1.409 . S
C2523 H2515 0.930 . S
C2523 C2524 1.355 . S
C2523 C2525 1.415 . S
C2524 C2523 1.355 . S
C2524 C2526 1.419 . S
C2525 C2520 1.425 . S
C2525 C2522 1.409 . S
C2525 C2523 1.415 . S
C2526 H2516 0.930 . S
C2526 C2524 1.419 . S
C2526 C2527 1.362 . S
C2527 H2517 0.930 . S
C2527 C2520 1.409 . S
C2527 C2526 1.362 . S
H2528 C2534 0.930 . S
H2529 C2537 0.930 . S
H2530 C2538 0.930 . S
H2531 C2539 0.930 . S
H2532 C2542 0.930 . S
H2533 C2543 0.930 . S
C2534 H2528 0.930 . S
C2534 C2535 1.355 . S
C2534 C2536 1.415 . S
C2535 C2534 1.355 . S
C2535 C2537 1.419 . S
C2536 C2534 1.415 . S
C2536 C2541 1.425 . S
C2536 C2543 1.409 . S
C2537 H2529 0.930 . S
C2537 C2535 1.419 . S
C2537 C2538 1.362 . S
C2538 H2530 0.930 . S
C2538 C2537 1.362 . S
C2538 C2541 1.409 . S
C2539 H2531 0.930 . S
C2539 C2540 1.355 . S
C2539 C2541 1.415 . S
C2540 C2539 1.355 . S
C2540 C2542 1.419 . S
C2541 C2536 1.425 . S
C2541 C2538 1.409 . S
C2541 C2539 1.415 . S
C2542 H2532 0.930 . S
C2542 C2540 1.419 . S
C2542 C2543 1.362 . S
C2543 H2533 0.930 . S
C2543 C2536 1.409 . S
C2543 C2542 1.362 . S
H2544 C2550 0.930 . S
H2545 C2553 0.930 . S
H2546 C2554 0.930 . S
H2547 C2555 0.930 . S
H2548 C2558 0.930 . S
H2549 C2559 0.930 . S
C2550 H2544 0.930 . S
C2550 C2551 1.355 . S
C2550 C2552 1.415 . S
C2551 C2550 1.355 . S
C2551 C2553 1.419 . S
C2552 C2550 1.415 . S
C2552 C2557 1.425 . S
C2552 C2559 1.409 . S
C2553 H2545 0.930 . S
C2553 C2551 1.419 . S
C2553 C2554 1.362 . S
C2554 H2546 0.930 . S
C2554 C2553 1.362 . S
C2554 C2557 1.409 . S
C2555 H2547 0.930 . S
C2555 C2556 1.355 . S
C2555 C2557 1.415 . S
C2556 C2555 1.355 . S
C2556 C2558 1.419 . S
C2557 C2552 1.425 . S
C2557 C2554 1.409 . S
C2557 C2555 1.415 . S
C2558 H2548 0.930 . S
C2558 C2556 1.419 . S
C2558 C2559 1.362 . S
C2559 H2549 0.930 . S
C2559 C2552 1.409 . S
C2559 C2558 1.362 . S
H2560 C2566 0.930 . S
H2561 C2569 0.930 . S
H2562 C2570 0.930 . S
H2563 C2571 0.930 . S
H2564 C2574 0.930 . S
H2565 C2575 0.930 . S
C2566 H2560 0.930 . S
C2566 C2567 1.355 . S
C2566 C2568 1.415 . S
C2567 C2566 1.355 . S
C2567 C2569 1.419 . S
C2568 C2566 1.415 . S
C2568 C2573 1.425 . S
C2568 C2575 1.409 . S
C2569 H2561 0.930 . S
C2569 C2567 1.419 . S
C2569 C2570 1.362 . S
C2570 H2562 0.930 . S
C2570 C2569 1.362 . S
C2570 C2573 1.409 . S
C2571 H2563 0.930 . S
C2571 C2572 1.355 . S
C2571 C2573 1.415 . S
C2572 C2571 1.355 . S
C2572 C2574 1.419 . S
C2573 C2568 1.425 . S
C2573 C2570 1.409 . S
C2573 C2571 1.415 . S
C2574 H2564 0.930 . S
C2574 C2572 1.419 . S
C2574 C2575 1.362 . S
C2575 H2565 0.930 . S
C2575 C2568 1.409 . S
C2575 C2574 1.362 . S
H2576 C2582 0.930 . S
H2577 C2585 0.930 . S
H2578 C2586 0.930 . S
H2579 C2587 0.930 . S
H2580 C2590 0.930 . S
H2581 C2591 0.930 . S
C2582 H2576 0.930 . S
C2582 C2583 1.355 . S
C2582 C2584 1.415 . S
C2583 C2582 1.355 . S
C2583 C2585 1.419 . S
C2584 C2582 1.415 . S
C2584 C2589 1.425 . S
C2584 C2591 1.409 . S
C2585 H2577 0.930 . S
C2585 C2583 1.419 . S
C2585 C2586 1.362 . S
C2586 H2578 0.930 . S
C2586 C2585 1.362 . S
C2586 C2589 1.409 . S
C2587 H2579 0.930 . S
C2587 C2588 1.355 . S
C2587 C2589 1.415 . S
C2588 C2587 1.355 . S
C2588 C2590 1.419 . S
C2589 C2584 1.425 . S
C2589 C2586 1.409 . S
C2589 C2587 1.415 . S
C2590 H2580 0.930 . S
C2590 C2588 1.419 . S
C2590 C2591 1.362 . S
C2591 H2581 0.930 . S
C2591 C2584 1.409 . S
C2591 C2590 1.362 . S
H2592 C2598 0.930 . S
H2593 C2601 0.930 . S
H2594 C2602 0.930 . S
H2595 C2603 0.930 . S
H2596 C2606 0.930 . S
H2597 C2607 0.930 . S
C2598 H2592 0.930 . S
C2598 C2599 1.355 . S
C2598 C2600 1.415 . S
C2599 C2598 1.355 . S
C2599 C2601 1.419 . S
C2600 C2598 1.415 . S
C2600 C2605 1.425 . S
C2600 C2607 1.409 . S
C2601 H2593 0.930 . S
C2601 C2599 1.419 . S
C2601 C2602 1.362 . S
C2602 H2594 0.930 . S
C2602 C2601 1.362 . S
C2602 C2605 1.409 . S
C2603 H2595 0.930 . S
C2603 C2604 1.355 . S
C2603 C2605 1.415 . S
C2604 C2603 1.355 . S
C2604 C2606 1.419 . S
C2605 C2600 1.425 . S
C2605 C2602 1.409 . S
C2605 C2603 1.415 . S
C2606 H2596 0.930 . S
C2606 C2604 1.419 . S
C2606 C2607 1.362 . S
C2607 H2597 0.930 . S
C2607 C2600 1.409 . S
C2607 C2606 1.362 . S
H2608 C2614 0.930 . S
H2609 C2617 0.930 . S
H2610 C2618 0.930 . S
H2611 C2619 0.930 . S
H2612 C2622 0.930 . S
H2613 C2623 0.930 . S
C2614 H2608 0.930 . S
C2614 C2615 1.355 . S
C2614 C2616 1.415 . S
C2615 C2614 1.355 . S
C2615 C2617 1.419 . S
C2616 C2614 1.415 . S
C2616 C2621 1.425 . S
C2616 C2623 1.409 . S
C2617 H2609 0.930 . S
C2617 C2615 1.419 . S
C2617 C2618 1.362 . S
C2618 H2610 0.930 . S
C2618 C2617 1.362 . S
C2618 C2621 1.409 . S
C2619 H2611 0.930 . S
C2619 C2620 1.355 . S
C2619 C2621 1.415 . S
C2620 C2619 1.355 . S
C2620 C2622 1.419 . S
C2621 C2616 1.425 . S
C2621 C2618 1.409 . S
C2621 C2619 1.415 . S
C2622 H2612 0.930 . S
C2622 C2620 1.419 . S
C2622 C2623 1.362 . S
C2623 H2613 0.930 . S
C2623 C2616 1.409 . S
C2623 C2622 1.362 . S
H2624 C2630 0.930 . S
H2625 C2633 0.930 . S
H2626 C2634 0.930 . S
H2627 C2635 0.930 . S
H2628 C2638 0.930 . S
H2629 C2639 0.930 . S
C2630 H2624 0.930 . S
C2630 C2631 1.355 . S
C2630 C2632 1.415 . S
C2631 C2630 1.355 . S
C2631 C2633 1.419 . S
C2632 C2630 1.415 . S
C2632 C2637 1.425 . S
C2632 C2639 1.409 . S
C2633 H2625 0.930 . S
C2633 C2631 1.419 . S
C2633 C2634 1.362 . S
C2634 H2626 0.930 . S
C2634 C2633 1.362 . S
C2634 C2637 1.409 . S
C2635 H2627 0.930 . S
C2635 C2636 1.355 . S
C2635 C2637 1.415 . S
C2636 C2635 1.355 . S
C2636 C2638 1.419 . S
C2637 C2632 1.425 . S
C2637 C2634 1.409 . S
C2637 C2635 1.415 . S
C2638 H2628 0.930 . S
C2638 C2636 1.419 . S
C2638 C2639 1.362 . S
C2639 H2629 0.930 . S
C2639 C2632 1.409 . S
C2639 C2638 1.362 . S
H2640 C2646 0.930 . S
H2641 C2649 0.930 . S
H2642 C2650 0.930 . S
H2643 C2651 0.930 . S
H2644 C2654 0.930 . S
H2645 C2655 0.930 . S
C2646 H2640 0.930 . S
C2646 C2647 1.355 . S
C2646 C2648 1.415 . S
C2647 C2646 1.355 . S
C2647 C2649 1.419 . S
C2648 C2646 1.415 . S
C2648 C2653 1.425 . S
C2648 C2655 1.409 . S
C2649 H2641 0.930 . S
C2649 C2647 1.419 . S
C2649 C2650 1.362 . S
C2650 H2642 0.930 . S
C2650 C2649 1.362 . S
C2650 C2653 1.409 . S
C2651 H2643 0.930 . S
C2651 C2652 1.355 . S
C2651 C2653 1.415 . S
C2652 C2651 1.355 . S
C2652 C2654 1.419 . S
C2653 C2648 1.425 . S
C2653 C2650 1.409 . S
C2653 C2651 1.415 . S
C2654 H2644 0.930 . S
C2654 C2652 1.419 . S
C2654 C2655 1.362 . S
C2655 H2645 0.930 . S
C2655 C2648 1.409 . S
C2655 C2654 1.362 . S
H2656 C2662 0.930 . S
H2657 C2665 0.930 . S
H2658 C2666 0.930 . S
H2659 C2667 0.930 . S
H2660 C2670 0.930 . S
H2661 C2671 0.930 . S
C2662 H2656 0.930 . S
C2662 C2663 1.355 . S
C2662 C2664 1.415 . S
C2663 C2662 1.355 . S
C2663 C2665 1.419 . S
C2664 C2662 1.415 . S
C2664 C2669 1.425 . S
C2664 C2671 1.409 . S
C2665 H2657 0.930 . S
C2665 C2663 1.419 . S
C2665 C2666 1.362 . S
C2666 H2658 0.930 . S
C2666 C2665 1.362 . S
C2666 C2669 1.409 . S
C2667 H2659 0.930 . S
C2667 C2668 1.355 . S
C2667 C2669 1.415 . S
C2668 C2667 1.355 . S
C2668 C2670 1.419 . S
C2669 C2664 1.425 . S
C2669 C2666 1.409 . S
C2669 C2667 1.415 . S
C2670 H2660 0.930 . S
C2670 C2668 1.419 . S
C2670 C2671 1.362 . S
C2671 H2661 0.930 . S
C2671 C2664 1.409 . S
C2671 C2670 1.362 . S
H2672 C2678 0.930 . S
H2673 C2681 0.930 . S
H2674 C2682 0.930 . S
H2675 C2683 0.930 . S
H2676 C2686 0.930 . S
H2677 C2687 0.930 . S
C2678 H2672 0.930 . S
C2678 C2679 1.355 . S
C2678 C2680 1.415 . S
C2679 C2678 1.355 . S
C2679 C2681 1.419 . S
C2680 C2678 1.415 . S
C2680 C2685 1.425 . S
C2680 C2687 1.409 . S
C2681 H2673 0.930 . S
C2681 C2679 1.419 . S
C2681 C2682 1.362 . S
C2682 H2674 0.930 . S
C2682 C2681 1.362 . S
C2682 C2685 1.409 . S
C2683 H2675 0.930 . S
C2683 C2684 1.355 . S
C2683 C2685 1.415 . S
C2684 C2683 1.355 . S
C2684 C2686 1.419 . S
C2685 C2680 1.425 . S
C2685 C2682 1.409 . S
C2685 C2683 1.415 . S
C2686 H2676 0.930 . S
C2686 C2684 1.419 . S
C2686 C2687 1.362 . S
C2687 H2677 0.930 . S
C2687 C2680 1.409 . S
C2687 C2686 1.362 . S
H2688 C2694 0.930 . S
H2689 C2697 0.930 . S
H2690 C2698 0.930 . S
H2691 C2699 0.930 . S
H2692 C2702 0.930 . S
H2693 C2703 0.930 . S
C2694 H2688 0.930 . S
C2694 C2695 1.355 . S
C2694 C2696 1.415 . S
C2695 C2694 1.355 . S
C2695 C2697 1.419 . S
C2696 C2694 1.415 . S
C2696 C2701 1.425 . S
C2696 C2703 1.409 . S
C2697 H2689 0.930 . S
C2697 C2695 1.419 . S
C2697 C2698 1.362 . S
C2698 H2690 0.930 . S
C2698 C2697 1.362 . S
C2698 C2701 1.409 . S
C2699 H2691 0.930 . S
C2699 C2700 1.355 . S
C2699 C2701 1.415 . S
C2700 C2699 1.355 . S
C2700 C2702 1.419 . S
C2701 C2696 1.425 . S
C2701 C2698 1.409 . S
C2701 C2699 1.415 . S
C2702 H2692 0.930 . S
C2702 C2700 1.419 . S
C2702 C2703 1.362 . S
C2703 H2693 0.930 . S
C2703 C2696 1.409 . S
C2703 C2702 1.362 . S
H2704 C2710 0.930 . S
H2705 C2713 0.930 . S
H2706 C2714 0.930 . S
H2707 C2715 0.930 . S
H2708 C2718 0.930 . S
H2709 C2719 0.930 . S
C2710 H2704 0.930 . S
C2710 C2711 1.355 . S
C2710 C2712 1.415 . S
C2711 C2710 1.355 . S
C2711 C2713 1.419 . S
C2712 C2710 1.415 . S
C2712 C2717 1.425 . S
C2712 C2719 1.409 . S
C2713 H2705 0.930 . S
C2713 C2711 1.419 . S
C2713 C2714 1.362 . S
C2714 H2706 0.930 . S
C2714 C2713 1.362 . S
C2714 C2717 1.409 . S
C2715 H2707 0.930 . S
C2715 C2716 1.355 . S
C2715 C2717 1.415 . S
C2716 C2715 1.355 . S
C2716 C2718 1.419 . S
C2717 C2712 1.425 . S
C2717 C2714 1.409 . S
C2717 C2715 1.415 . S
C2718 H2708 0.930 . S
C2718 C2716 1.419 . S
C2718 C2719 1.362 . S
C2719 H2709 0.930 . S
C2719 C2712 1.409 . S
C2719 C2718 1.362 . S
H2720 C2726 0.930 . S
H2721 C2729 0.930 . S
H2722 C2730 0.930 . S
H2723 C2731 0.930 . S
H2724 C2734 0.930 . S
H2725 C2735 0.930 . S
C2726 H2720 0.930 . S
C2726 C2727 1.355 . S
C2726 C2728 1.415 . S
C2727 C2726 1.355 . S
C2727 C2729 1.419 . S
C2728 C2726 1.415 . S
C2728 C2733 1.425 . S
C2728 C2735 1.409 . S
C2729 H2721 0.930 . S
C2729 C2727 1.419 . S
C2729 C2730 1.362 . S
C2730 H2722 0.930 . S
C2730 C2729 1.362 . S
C2730 C2733 1.409 . S
C2731 H2723 0.930 . S
C2731 C2732 1.355 . S
C2731 C2733 1.415 . S
C2732 C2731 1.355 . S
C2732 C2734 1.419 . S
C2733 C2728 1.425 . S
C2733 C2730 1.409 . S
C2733 C2731 1.415 . S
C2734 H2724 0.930 . S
C2734 C2732 1.419 . S
C2734 C2735 1.362 . S
C2735 H2725 0.930 . S
C2735 C2728 1.409 . S
C2735 C2734 1.362 . S
H2736 C2742 0.930 . S
H2737 C2745 0.930 . S
H2738 C2746 0.930 . S
H2739 C2747 0.930 . S
H2740 C2750 0.930 . S
H2741 C2751 0.930 . S
C2742 H2736 0.930 . S
C2742 C2743 1.355 . S
C2742 C2744 1.415 . S
C2743 C2742 1.355 . S
C2743 C2745 1.419 . S
C2744 C2742 1.415 . S
C2744 C2749 1.425 . S
C2744 C2751 1.409 . S
C2745 H2737 0.930 . S
C2745 C2743 1.419 . S
C2745 C2746 1.362 . S
C2746 H2738 0.930 . S
C2746 C2745 1.362 . S
C2746 C2749 1.409 . S
C2747 H2739 0.930 . S
C2747 C2748 1.355 . S
C2747 C2749 1.415 . S
C2748 C2747 1.355 . S
C2748 C2750 1.419 . S
C2749 C2744 1.425 . S
C2749 C2746 1.409 . S
C2749 C2747 1.415 . S
C2750 H2740 0.930 . S
C2750 C2748 1.419 . S
C2750 C2751 1.362 . S
C2751 H2741 0.930 . S
C2751 C2744 1.409 . S
C2751 C2750 1.362 . S
H2752 C2758 0.930 . S
H2753 C2761 0.930 . S
H2754 C2762 0.930 . S
H2755 C2763 0.930 . S
H2756 C2766 0.930 . S
H2757 C2767 0.930 . S
C2758 H2752 0.930 . S
C2758 C2759 1.355 . S
C2758 C2760 1.415 . S
C2759 C2758 1.355 . S
C2759 C2761 1.419 . S
C2760 C2758 1.415 . S
C2760 C2765 1.425 . S
C2760 C2767 1.409 . S
C2761 H2753 0.930 . S
C2761 C2759 1.419 . S
C2761 C2762 1.362 . S
C2762 H2754 0.930 . S
C2762 C2761 1.362 . S
C2762 C2765 1.409 . S
C2763 H2755 0.930 . S
C2763 C2764 1.355 . S
C2763 C2765 1.415 . S
C2764 C2763 1.355 . S
C2764 C2766 1.419 . S
C2765 C2760 1.425 . S
C2765 C2762 1.409 . S
C2765 C2763 1.415 . S
C2766 H2756 0.930 . S
C2766 C2764 1.419 . S
C2766 C2767 1.362 . S
C2767 H2757 0.930 . S
C2767 C2760 1.409 . S
C2767 C2766 1.362 . S
H2768 C2774 0.930 . S
H2769 C2777 0.930 . S
H2770 C2778 0.930 . S
H2771 C2779 0.930 . S
H2772 C2782 0.930 . S
H2773 C2783 0.930 . S
C2774 H2768 0.930 . S
C2774 C2775 1.355 . S
C2774 C2776 1.415 . S
C2775 C2774 1.355 . S
C2775 C2777 1.419 . S
C2776 C2774 1.415 . S
C2776 C2781 1.425 . S
C2776 C2783 1.409 . S
C2777 H2769 0.930 . S
C2777 C2775 1.419 . S
C2777 C2778 1.362 . S
C2778 H2770 0.930 . S
C2778 C2777 1.362 . S
C2778 C2781 1.409 . S
C2779 H2771 0.930 . S
C2779 C2780 1.355 . S
C2779 C2781 1.415 . S
C2780 C2779 1.355 . S
C2780 C2782 1.419 . S
C2781 C2776 1.425 . S
C2781 C2778 1.409 . S
C2781 C2779 1.415 . S
C2782 H2772 0.930 . S
C2782 C2780 1.419 . S
C2782 C2783 1.362 . S
C2783 H2773 0.930 . S
C2783 C2776 1.409 . S
C2783 C2782 1.362 . S
H2784 C2790 0.930 . S
H2785 C2793 0.930 . S
H2786 C2794 0.930 . S
H2787 C2795 0.930 . S
H2788 C2798 0.930 . S
H2789 C2799 0.930 . S
C2790 H2784 0.930 . S
C2790 C2791 1.355 . S
C2790 C2792 1.415 . S
C2791 C2790 1.355 . S
C2791 C2793 1.419 . S
C2792 C2790 1.415 . S
C2792 C2797 1.425 . S
C2792 C2799 1.409 . S
C2793 H2785 0.930 . S
C2793 C2791 1.419 . S
C2793 C2794 1.362 . S
C2794 H2786 0.930 . S
C2794 C2793 1.362 . S
C2794 C2797 1.409 . S
C2795 H2787 0.930 . S
C2795 C2796 1.355 . S
C2795 C2797 1.415 . S
C2796 C2795 1.355 . S
C2796 C2798 1.419 . S
C2797 C2792 1.425 . S
C2797 C2794 1.409 . S
C2797 C2795 1.415 . S
C2798 H2788 0.930 . S
C2798 C2796 1.419 . S
C2798 C2799 1.362 . S
C2799 H2789 0.930 . S
C2799 C2792 1.409 . S
C2799 C2798 1.362 . S
H2800 C2806 0.930 . S
H2801 C2809 0.930 . S
H2802 C2810 0.930 . S
H2803 C2811 0.930 . S
H2804 C2814 0.930 . S
H2805 C2815 0.930 . S
C2806 H2800 0.930 . S
C2806 C2807 1.355 . S
C2806 C2808 1.415 . S
C2807 C2806 1.355 . S
C2807 C2809 1.419 . S
C2808 C2806 1.415 . S
C2808 C2813 1.425 . S
C2808 C2815 1.409 . S
C2809 H2801 0.930 . S
C2809 C2807 1.419 . S
C2809 C2810 1.362 . S
C2810 H2802 0.930 . S
C2810 C2809 1.362 . S
C2810 C2813 1.409 . S
C2811 H2803 0.930 . S
C2811 C2812 1.355 . S
C2811 C2813 1.415 . S
C2812 C2811 1.355 . S
C2812 C2814 1.419 . S
C2813 C2808 1.425 . S
C2813 C2810 1.409 . S
C2813 C2811 1.415 . S
C2814 H2804 0.930 . S
C2814 C2812 1.419 . S
C2814 C2815 1.362 . S
C2815 H2805 0.930 . S
C2815 C2808 1.409 . S
C2815 C2814 1.362 . S
H2816 C2822 0.930 . S
H2817 C2825 0.930 . S
H2818 C2826 0.930 . S
H2819 C2827 0.930 . S
H2820 C2830 0.930 . S
H2821 C2831 0.930 . S
C2822 H2816 0.930 . S
C2822 C2823 1.355 . S
C2822 C2824 1.415 . S
C2823 C2822 1.355 . S
C2823 C2825 1.419 . S
C2824 C2822 1.415 . S
C2824 C2829 1.425 . S
C2824 C2831 1.409 . S
C2825 H2817 0.930 . S
C2825 C2823 1.419 . S
C2825 C2826 1.362 . S
C2826 H2818 0.930 . S
C2826 C2825 1.362 . S
C2826 C2829 1.409 . S
C2827 H2819 0.930 . S
C2827 C2828 1.355 . S
C2827 C2829 1.415 . S
C2828 C2827 1.355 . S
C2828 C2830 1.419 . S
C2829 C2824 1.425 . S
C2829 C2826 1.409 . S
C2829 C2827 1.415 . S
C2830 H2820 0.930 . S
C2830 C2828 1.419 . S
C2830 C2831 1.362 . S
C2831 H2821 0.930 . S
C2831 C2824 1.409 . S
C2831 C2830 1.362 . S
H2832 C2838 0.930 . S
H2833 C2841 0.930 . S
H2834 C2842 0.930 . S
H2835 C2843 0.930 . S
H2836 C2846 0.930 . S
H2837 C2847 0.930 . S
C2838 H2832 0.930 . S
C2838 C2839 1.355 . S
C2838 C2840 1.415 . S
C2839 C2838 1.355 . S
C2839 C2841 1.419 . S
C2840 C2838 1.415 . S
C2840 C2845 1.425 . S
C2840 C2847 1.409 . S
C2841 H2833 0.930 . S
C2841 C2839 1.419 . S
C2841 C2842 1.362 . S
C2842 H2834 0.930 . S
C2842 C2841 1.362 . S
C2842 C2845 1.409 . S
C2843 H2835 0.930 . S
C2843 C2844 1.355 . S
C2843 C2845 1.415 . S
C2844 C2843 1.355 . S
C2844 C2846 1.419 . S
C2845 C2840 1.425 . S
C2845 C2842 1.409 . S
C2845 C2843 1.415 . S
C2846 H2836 0.930 . S
C2846 C2844 1.419 . S
C2846 C2847 1.362 . S
C2847 H2837 0.930 . S
C2847 C2840 1.409 . S
C2847 C2846 1.362 . S
H2848 C2854 0.930 . S
H2849 C2857 0.930 . S
H2850 C2858 0.930 . S
H2851 C2859 0.930 . S
H2852 C2862 0.930 . S
H2853 C2863 0.930 . S
C2854 H2848 0.930 . S
C2854 C2855 1.355 . S
C2854 C2856 1.415 . S
C2855 C2854 1.355 . S
C2855 C2857 1.419 . S
C2856 C2854 1.415 . S
C2856 C2861 1.425 . S
C2856 C2863 1.409 . S
C2857 H2849 0.930 . S
C2857 C2855 1.419 . S
C2857 C2858 1.362 . S
C2858 H2850 0.930 . S
C2858 C2857 1.362 . S
C2858 C2861 1.409 . S
C2859 H2851 0.930 . S
C2859 C2860 1.355 . S
C2859 C2861 1.415 . S
C2860 C2859 1.355 . S
C2860 C2862 1.419 . S
C2861 C2856 1.425 . S
C2861 C2858 1.409 . S
C2861 C2859 1.415 . S
C2862 H2852 0.930 . S
C2862 C2860 1.419 . S
C2862 C2863 1.362 . S
C2863 H2853 0.930 . S
C2863 C2856 1.409 . S
C2863 C2862 1.362 . S
H2864 C2870 0.930 . S
H2865 C2873 0.930 . S
H2866 C2874 0.930 . S
H2867 C2875 0.930 . S
H2868 C2878 0.930 . S
H2869 C2879 0.930 . S
C2870 H2864 0.930 . S
C2870 C2871 1.355 . S
C2870 C2872 1.415 . S
C2871 C2870 1.355 . S
C2871 C2873 1.419 . S
C2872 C2870 1.415 . S
C2872 C2877 1.425 . S
C2872 C2879 1.409 . S
C2873 H2865 0.930 . S
C2873 C2871 1.419 . S
C2873 C2874 1.362 . S
C2874 H2866 0.930 . S
C2874 C2873 1.362 . S
C2874 C2877 1.409 . S
C2875 H2867 0.930 . S
C2875 C2876 1.355 . S
C2875 C2877 1.415 . S
C2876 C2875 1.355 . S
C2876 C2878 1.419 . S
C2877 C2872 1.425 . S
C2877 C2874 1.409 . S
C2877 C2875 1.415 . S
C2878 H2868 0.930 . S
C2878 C2876 1.419 . S
C2878 C2879 1.362 . S
C2879 H2869 0.930 . S
C2879 C2872 1.409 . S
C2879 C2878 1.362 . S
H2880 C2886 0.930 . S
H2881 C2889 0.930 . S
H2882 C2890 0.930 . S
H2883 C2891 0.930 . S
H2884 C2894 0.930 . S
H2885 C2895 0.930 . S
C2886 H2880 0.930 . S
C2886 C2887 1.355 . S
C2886 C2888 1.415 . S
C2887 C2886 1.355 . S
C2887 C2889 1.419 . S
C2888 C2886 1.415 . S
C2888 C2893 1.425 . S
C2888 C2895 1.409 . S
C2889 H2881 0.930 . S
C2889 C2887 1.419 . S
C2889 C2890 1.362 . S
C2890 H2882 0.930 . S
C2890 C2889 1.362 . S
C2890 C2893 1.409 . S
C2891 H2883 0.930 . S
C2891 C2892 1.355 . S
C2891 C2893 1.415 . S
C2892 C2891 1.355 . S
C2892 C2894 1.419 . S
C2893 C2888 1.425 . S
C2893 C2890 1.409 . S
C2893 C2891 1.415 . S
C2894 H2884 0.930 . S
C2894 C2892 1.419 . S
C2894 C2895 1.362 . S
C2895 H2885 0.930 . S
C2895 C2888 1.409 . S
C2895 C2894 1.362 . S
H2896 C2902 0.930 . S
H2897 C2905 0.930 . S
H2898 C2906 0.930 . S
H2899 C2907 0.930 . S
H2900 C2910 0.930 . S
H2901 C2911 0.930 . S
C2902 H2896 0.930 . S
C2902 C2903 1.355 . S
C2902 C2904 1.415 . S
C2903 C2902 1.355 . S
C2903 C2905 1.419 . S
C2904 C2902 1.415 . S
C2904 C2909 1.425 . S
C2904 C2911 1.409 . S
C2905 H2897 0.930 . S
C2905 C2903 1.419 . S
C2905 C2906 1.362 . S
C2906 H2898 0.930 . S
C2906 C2905 1.362 . S
C2906 C2909 1.409 . S
C2907 H2899 0.930 . S
C2907 C2908 1.355 . S
C2907 C2909 1.415 . S
C2908 C2907 1.355 . S
C2908 C2910 1.419 . S
C2909 C2904 1.425 . S
C2909 C2906 1.409 . S
C2909 C2907 1.415 . S
C2910 H2900 0.930 . S
C2910 C2908 1.419 . S
C2910 C2911 1.362 . S
C2911 H2901 0.930 . S
C2911 C2904 1.409 . S
C2911 C2910 1.362 . S
H2912 C2918 0.930 . S
H2913 C2921 0.930 . S
H2914 C2922 0.930 . S
H2915 C2923 0.930 . S
H2916 C2926 0.930 . S
H2917 C2927 0.930 . S
C2918 H2912 0.930 . S
C2918 C2919 1.355 . S
C2918 C2920 1.415 . S
C2919 C2918 1.355 . S
C2919 C2921 1.419 . S
C2920 C2918 1.415 . S
C2920 C2925 1.425 . S
C2920 C2927 1.409 . S
C2921 H2913 0.930 . S
C2921 C2919 1.419 . S
C2921 C2922 1.362 . S
C2922 H2914 0.930 . S
C2922 C2921 1.362 . S
C2922 C2925 1.409 . S
C2923 H2915 0.930 . S
C2923 C2924 1.355 . S
C2923 C2925 1.415 . S
C2924 C2923 1.355 . S
C2924 C2926 1.419 . S
C2925 C2920 1.425 . S
C2925 C2922 1.409 . S
C2925 C2923 1.415 . S
C2926 H2916 0.930 . S
C2926 C2924 1.419 . S
C2926 C2927 1.362 . S
C2927 H2917 0.930 . S
C2927 C2920 1.409 . S
C2927 C2926 1.362 . S
H2928 C2934 0.930 . S
H2929 C2937 0.930 . S
H2930 C2938 0.930 . S
H2931 C2939 0.930 . S
H2932 C2942 0.930 . S
H2933 C2943 0.930 . S
C2934 H2928 0.930 . S
C2934 C2935 1.355 . S
C2934 C2936 1.415 . S
C2935 C2934 1.355 . S
C2935 C2937 1.419 . S
C2936 C2934 1.415 . S
C2936 C2941 1.425 . S
C2936 C2943 1.409 . S
C2937 H2929 0.930 . S
C2937 C2935 1.419 . S
C2937 C2938 1.362 . S
C2938 H2930 0.930 . S
C2938 C2937 1.362 . S
C2938 C2941 1.409 . S
C2939 H2931 0.930 . S
C2939 C2940 1.355 . S
C2939 C2941 1.415 . S
C2940 C2939 1.355 . S
C2940 C2942 1.419 . S
C2941 C2936 1.425 . S
C2941 C2938 1.409 . S
C2941 C2939 1.415 . S
C2942 H2932 0.930 . S
C2942 C2940 1.419 . S
C2942 C2943 1.362 . S
C2943 H2933 0.930 . S
C2943 C2936 1.409 . S
C2943 C2942 1.362 . S
H2944 C2950 0.930 . S
H2945 C2953 0.930 . S
H2946 C2954 0.930 . S
H2947 C2955 0.930 . S
H2948 C2958 0.930 . S
H2949 C2959 0.930 . S
C2950 H2944 0.930 . S
C2950 C2951 1.355 . S
C2950 C2952 1.415 . S
C2951 C2950 1.355 . S
C2951 C2953 1.419 . S
C2952 C2950 1.415 . S
C2952 C2957 1.425 . S
C2952 C2959 1.409 . S
C2953 H2945 0.930 . S
C2953 C2951 1.419 . S
C2953 C2954 1.362 . S
C2954 H2946 0.930 . S
C2954 C2953 1.362 . S
C2954 C2957 1.409 . S
C2955 H2947 0.930 . S
C2955 C2956 1.355 . S
C2955 C2957 1.415 . S
C2956 C2955 1.355 . S
C2956 C2958 1.419 . S
C2957 C2952 1.425 . S
C2957 C2954 1.409 . S
C2957 C2955 1.415 . S
C2958 H2948 0.930 . S
C2958 C2956 1.419 . S
C2958 C2959 1.362 . S
C2959 H2949 0.930 . S
C2959 C2952 1.409 . S
C2959 C2958 1.362 . S
H2960 C2966 0.930 . S
H2961 C2969 0.930 . S
H2962 C2970 0.930 . S
H2963 C2971 0.930 . S
H2964 C2974 0.930 . S
H2965 C2975 0.930 . S
C2966 H2960 0.930 . S
C2966 C2967 1.355 . S
C2966 C2968 1.415 . S
C2967 C2966 1.355 . S
C2967 C2969 1.419 . S
C2968 C2966 1.415 . S
C2968 C2973 1.425 . S
C2968 C2975 1.409 . S
C2969 H2961 0.930 . S
C2969 C2967 1.419 . S
C2969 C2970 1.362 . S
C2970 H2962 0.930 . S
C2970 C2969 1.362 . S
C2970 C2973 1.409 . S
C2971 H2963 0.930 . S
C2971 C2972 1.355 . S
C2971 C2973 1.415 . S
C2972 C2971 1.355 . S
C2972 C2974 1.419 . S
C2973 C2968 1.425 . S
C2973 C2970 1.409 . S
C2973 C2971 1.415 . S
C2974 H2964 0.930 . S
C2974 C2972 1.419 . S
C2974 C2975 1.362 . S
C2975 H2965 0.930 . S
C2975 C2968 1.409 . S
C2975 C2974 1.362 . S
H2976 C2982 0.930 . S
H2977 C2985 0.930 . S
H2978 C2986 0.930 . S
H2979 C2987 0.930 . S
H2980 C2990 0.930 . S
H2981 C2991 0.930 . S
C2982 H2976 0.930 . S
C2982 C2983 1.355 . S
C2982 C2984 1.415 . S
C2983 C2982 1.355 . S
C2983 C2985 1.419 . S
C2984 C2982 1.415 . S
C2984 C2989 1.425 . S
C2984 C2991 1.409 . S
C2985 H2977 0.930 . S
C2985 C2983 1.419 . S
C2985 C2986 1.362 . S
C2986 H2978 0.930 . S
C2986 C2985 1.362 . S
C2986 C2989 1.409 . S
C2987 H2979 0.930 . S
C2987 C2988 1.355 . S
C2987 C2989 1.415 . S
C2988 C2987 1.355 . S
C2988 C2990 1.419 . S
C2989 C2984 1.425 . S
C2989 C2986 1.409 . S
C2989 C2987 1.415 . S
C2990 H2980 0.930 . S
C2990 C2988 1.419 . S
C2990 C2991 1.362 . S
C2991 H2981 0.930 . S
C2991 C2984 1.409 . S
C2991 C2990 1.362 . S
H2992 C2998 0.930 . S
H2993 C3001 0.930 . S
H2994 C3002 0.930 . S
H2995 C3003 0.930 . S
H2996 C3006 0.930 . S
H2997 C3007 0.930 . S
C2998 H2992 0.930 . S
C2998 C2999 1.355 . S
C2998 C3000 1.415 . S
C2999 C2998 1.355 . S
C2999 C3001 1.419 . S
C3000 C2998 1.415 . S
C3000 C3005 1.425 . S
C3000 C3007 1.409 . S
C3001 H2993 0.930 . S
C3001 C2999 1.419 . S
C3001 C3002 1.362 . S
C3002 H2994 0.930 . S
C3002 C3001 1.362 . S
C3002 C3005 1.409 . S
C3003 H2995 0.930 . S
C3003 C3004 1.355 . S
C3003 C3005 1.415 . S
C3004 C3003 1.355 . S
C3004 C3006 1.419 . S
C3005 C3000 1.425 . S
C3005 C3002 1.409 . S
C3005 C3003 1.415 . S
C3006 H2996 0.930 . S
C3006 C3004 1.419 . S
C3006 C3007 1.362 . S
C3007 H2997 0.930 . S
C3007 C3000 1.409 . S
C3007 C3006 1.362 . S
H3008 C3014 0.930 . S
H3009 C3017 0.930 . S
H3010 C3018 0.930 . S
H3011 C3019 0.930 . S
H3012 C3022 0.930 . S
H3013 C3023 0.930 . S
C3014 H3008 0.930 . S
C3014 C3015 1.355 . S
C3014 C3016 1.415 . S
C3015 C3014 1.355 . S
C3015 C3017 1.419 . S
C3016 C3014 1.415 . S
C3016 C3021 1.425 . S
C3016 C3023 1.409 . S
C3017 H3009 0.930 . S
C3017 C3015 1.419 . S
C3017 C3018 1.362 . S
C3018 H3010 0.930 . S
C3018 C3017 1.362 . S
C3018 C3021 1.409 . S
C3019 H3011 0.930 . S
C3019 C3020 1.355 . S
C3019 C3021 1.415 . S
C3020 C3019 1.355 . S
C3020 C3022 1.419 . S
C3021 C3016 1.425 . S
C3021 C3018 1.409 . S
C3021 C3019 1.415 . S
C3022 H3012 0.930 . S
C3022 C3020 1.419 . S
C3022 C3023 1.362 . S
C3023 H3013 0.930 . S
C3023 C3016 1.409 . S
C3023 C3022 1.362 . S
H3024 C3030 0.930 . S
H3025 C3033 0.930 . S
H3026 C3034 0.930 . S
H3027 C3035 0.930 . S
H3028 C3038 0.930 . S
H3029 C3039 0.930 . S
C3030 H3024 0.930 . S
C3030 C3031 1.355 . S
C3030 C3032 1.415 . S
C3031 C3030 1.355 . S
C3031 C3033 1.419 . S
C3032 C3030 1.415 . S
C3032 C3037 1.425 . S
C3032 C3039 1.409 . S
C3033 H3025 0.930 . S
C3033 C3031 1.419 . S
C3033 C3034 1.362 . S
C3034 H3026 0.930 . S
C3034 C3033 1.362 . S
C3034 C3037 1.409 . S
C3035 H3027 0.930 . S
C3035 C3036 1.355 . S
C3035 C3037 1.415 . S
C3036 C3035 1.355 . S
C3036 C3038 1.419 . S
C3037 C3032 1.425 . S
C3037 C3034 1.409 . S
C3037 C3035 1.415 . S
C3038 H3028 0.930 . S
C3038 C3036 1.419 . S
C3038 C3039 1.362 . S
C3039 H3029 0.930 . S
C3039 C3032 1.409 . S
C3039 C3038 1.362 . S
H3040 C3046 0.930 . S
H3041 C3049 0.930 . S
H3042 C3050 0.930 . S
H3043 C3051 0.930 . S
H3044 C3054 0.930 . S
H3045 C3055 0.930 . S
C3046 H3040 0.930 . S
C3046 C3047 1.355 . S
C3046 C3048 1.415 . S
C3047 C3046 1.355 . S
C3047 C3049 1.419 . S
C3048 C3046 1.415 . S
C3048 C3053 1.425 . S
C3048 C3055 1.409 . S
C3049 H3041 0.930 . S
C3049 C3047 1.419 . S
C3049 C3050 1.362 . S
C3050 H3042 0.930 . S
C3050 C3049 1.362 . S
C3050 C3053 1.409 . S
C3051 H3043 0.930 . S
C3051 C3052 1.355 . S
C3051 C3053 1.415 . S
C3052 C3051 1.355 . S
C3052 C3054 1.419 . S
C3053 C3048 1.425 . S
C3053 C3050 1.409 . S
C3053 C3051 1.415 . S
C3054 H3044 0.930 . S
C3054 C3052 1.419 . S
C3054 C3055 1.362 . S
C3055 H3045 0.930 . S
C3055 C3048 1.409 . S
C3055 C3054 1.362 . S
H3056 C3062 0.930 . S
H3057 C3065 0.930 . S
H3058 C3066 0.930 . S
H3059 C3067 0.930 . S
H3060 C3070 0.930 . S
H3061 C3071 0.930 . S
C3062 H3056 0.930 . S
C3062 C3063 1.355 . S
C3062 C3064 1.415 . S
C3063 C3062 1.355 . S
C3063 C3065 1.419 . S
C3064 C3062 1.415 . S
C3064 C3069 1.425 . S
C3064 C3071 1.409 . S
C3065 H3057 0.930 . S
C3065 C3063 1.419 . S
C3065 C3066 1.362 . S
C3066 H3058 0.930 . S
C3066 C3065 1.362 . S
C3066 C3069 1.409 . S
C3067 H3059 0.930 . S
C3067 C3068 1.355 . S
C3067 C3069 1.415 . S
C3068 C3067 1.355 . S
C3068 C3070 1.419 . S
C3069 C3064 1.425 . S
C3069 C3066 1.409 . S
C3069 C3067 1.415 . S
C3070 H3060 0.930 . S
C3070 C3068 1.419 . S
C3070 C3071 1.362 . S
C3071 H3061 0.930 . S
C3071 C3064 1.409 . S
C3071 C3070 1.362 . S
H3072 C3078 0.930 . S
H3073 C3081 0.930 . S
H3074 C3082 0.930 . S
H3075 C3083 0.930 . S
H3076 C3086 0.930 . S
H3077 C3087 0.930 . S
C3078 H3072 0.930 . S
C3078 C3079 1.355 . S
C3078 C3080 1.415 . S
C3079 C3078 1.355 . S
C3079 C3081 1.419 . S
C3080 C3078 1.415 . S
C3080 C3085 1.425 . S
C3080 C3087 1.409 . S
C3081 H3073 0.930 . S
C3081 C3079 1.419 . S
C3081 C3082 1.362 . S
C3082 H3074 0.930 . S
C3082 C3081 1.362 . S
C3082 C3085 1.409 . S
C3083 H3075 0.930 . S
C3083 C3084 1.355 . S
C3083 C3085 1.415 . S
C3084 C3083 1.355 . S
C3084 C3086 1.419 . S
C3085 C3080 1.425 . S
C3085 C3082 1.409 . S
C3085 C3083 1.415 . S
C3086 H3076 0.930 . S
C3086 C3084 1.419 . S
C3086 C3087 1.362 . S
C3087 H3077 0.930 . S
C3087 C3080 1.409 . S
C3087 C3086 1.362 . S
H3088 C3094 0.930 . S
H3089 C3097 0.930 . S
H3090 C3098 0.930 . S
H3091 C3099 0.930 . S
H3092 C3102 0.930 . S
H3093 C3103 0.930 . S
C3094 H3088 0.930 . S
C3094 C3095 1.355 . S
C3094 C3096 1.415 . S
C3095 C3094 1.355 . S
C3095 C3097 1.419 . S
C3096 C3094 1.415 . S
C3096 C3101 1.425 . S
C3096 C3103 1.409 . S
C3097 H3089 0.930 . S
C3097 C3095 1.419 . S
C3097 C3098 1.362 . S
C3098 H3090 0.930 . S
C3098 C3097 1.362 . S
C3098 C3101 1.409 . S
C3099 H3091 0.930 . S
C3099 C3100 1.355 . S
C3099 C3101 1.415 . S
C3100 C3099 1.355 . S
C3100 C3102 1.419 . S
C3101 C3096 1.425 . S
C3101 C3098 1.409 . S
C3101 C3099 1.415 . S
C3102 H3092 0.930 . S
C3102 C3100 1.419 . S
C3102 C3103 1.362 . S
C3103 H3093 0.930 . S
C3103 C3096 1.409 . S
C3103 C3102 1.362 . S
H3104 C3110 0.930 . S
H3105 C3113 0.930 . S
H3106 C3114 0.930 . S
H3107 C3115 0.930 . S
H3108 C3118 0.930 . S
H3109 C3119 0.930 . S
C3110 H3104 0.930 . S
C3110 C3111 1.355 . S
C3110 C3112 1.415 . S
C3111 C3110 1.355 . S
C3111 C3113 1.419 . S
C3112 C3110 1.415 . S
C3112 C3117 1.425 . S
C3112 C3119 1.409 . S
C3113 H3105 0.930 . S
C3113 C3111 1.419 . S
C3113 C3114 1.362 . S
C3114 H3106 0.930 . S
C3114 C3113 1.362 . S
C3114 C3117 1.409 . S
C3115 H3107 0.930 . S
C3115 C3116 1.355 . S
C3115 C3117 1.415 . S
C3116 C3115 1.355 . S
C3116 C3118 1.419 . S
C3117 C3112 1.425 . S
C3117 C3114 1.409 . S
C3117 C3115 1.415 . S
C3118 H3108 0.930 . S
C3118 C3116 1.419 . S
C3118 C3119 1.362 . S
C3119 H3109 0.930 . S
C3119 C3112 1.409 . S
C3119 C3118 1.362 . S
H3120 C3126 0.930 . S
H3121 C3129 0.930 . S
H3122 C3130 0.930 . S
H3123 C3131 0.930 . S
H3124 C3134 0.930 . S
H3125 C3135 0.930 . S
C3126 H3120 0.930 . S
C3126 C3127 1.355 . S
C3126 C3128 1.415 . S
C3127 C3126 1.355 . S
C3127 C3129 1.419 . S
C3128 C3126 1.415 . S
C3128 C3133 1.425 . S
C3128 C3135 1.409 . S
C3129 H3121 0.930 . S
C3129 C3127 1.419 . S
C3129 C3130 1.362 . S
C3130 H3122 0.930 . S
C3130 C3129 1.362 . S
C3130 C3133 1.409 . S
C3131 H3123 0.930 . S
C3131 C3132 1.355 . S
C3131 C3133 1.415 . S
C3132 C3131 1.355 . S
C3132 C3134 1.419 . S
C3133 C3128 1.425 . S
C3133 C3130 1.409 . S
C3133 C3131 1.415 . S
C3134 H3124 0.930 . S
C3134 C3132 1.419 . S
C3134 C3135 1.362 . S
C3135 H3125 0.930 . S
C3135 C3128 1.409 . S
C3135 C3134 1.362 . S
H3136 C3142 0.930 . S
H3137 C3145 0.930 . S
H3138 C3146 0.930 . S
H3139 C3147 0.930 . S
H3140 C3150 0.930 . S
H3141 C3151 0.930 . S
C3142 H3136 0.930 . S
C3142 C3143 1.355 . S
C3142 C3144 1.415 . S
C3143 C3142 1.355 . S
C3143 C3145 1.419 . S
C3144 C3142 1.415 . S
C3144 C3149 1.425 . S
C3144 C3151 1.409 . S
C3145 H3137 0.930 . S
C3145 C3143 1.419 . S
C3145 C3146 1.362 . S
C3146 H3138 0.930 . S
C3146 C3145 1.362 . S
C3146 C3149 1.409 . S
C3147 H3139 0.930 . S
C3147 C3148 1.355 . S
C3147 C3149 1.415 . S
C3148 C3147 1.355 . S
C3148 C3150 1.419 . S
C3149 C3144 1.425 . S
C3149 C3146 1.409 . S
C3149 C3147 1.415 . S
C3150 H3140 0.930 . S
C3150 C3148 1.419 . S
C3150 C3151 1.362 . S
C3151 H3141 0.930 . S
C3151 C3144 1.409 . S
C3151 C3150 1.362 . S
H3152 C3158 0.930 . S
H3153 C3161 0.930 . S
H3154 C3162 0.930 . S
H3155 C3163 0.930 . S
H3156 C3166 0.930 . S
H3157 C3167 0.930 . S
C3158 H3152 0.930 . S
C3158 C3159 1.355 . S
C3158 C3160 1.415 . S
C3159 C3158 1.355 . S
C3159 C3161 1.419 . S
C3160 C3158 1.415 . S
C3160 C3165 1.425 . S
C3160 C3167 1.409 . S
C3161 H3153 0.930 . S
C3161 C3159 1.419 . S
C3161 C3162 1.362 . S
C3162 H3154 0.930 . S
C3162 C3161 1.362 . S
C3162 C3165 1.409 . S
C3163 H3155 0.930 . S
C3163 C3164 1.355 . S
C3163 C3165 1.415 . S
C3164 C3163 1.355 . S
C3164 C3166 1.419 . S
C3165 C3160 1.425 . S
C3165 C3162 1.409 . S
C3165 C3163 1.415 . S
C3166 H3156 0.930 . S
C3166 C3164 1.419 . S
C3166 C3167 1.362 . S
C3167 H3157 0.930 . S
C3167 C3160 1.409 . S
C3167 C3166 1.362 . S
H3168 C3174 0.930 . S
H3169 C3177 0.930 . S
H3170 C3178 0.930 . S
H3171 C3179 0.930 . S
H3172 C3182 0.930 . S
H3173 C3183 0.930 . S
C3174 H3168 0.930 . S
C3174 C3175 1.355 . S
C3174 C3176 1.415 . S
C3175 C3174 1.355 . S
C3175 C3177 1.419 . S
C3176 C3174 1.415 . S
C3176 C3181 1.425 . S
C3176 C3183 1.409 . S
C3177 H3169 0.930 . S
C3177 C3175 1.419 . S
C3177 C3178 1.362 . S
C3178 H3170 0.930 . S
C3178 C3177 1.362 . S
C3178 C3181 1.409 . S
C3179 H3171 0.930 . S
C3179 C3180 1.355 . S
C3179 C3181 1.415 . S
C3180 C3179 1.355 . S
C3180 C3182 1.419 . S
C3181 C3176 1.425 . S
C3181 C3178 1.409 . S
C3181 C3179 1.415 . S
C3182 H3172 0.930 . S
C3182 C3180 1.419 . S
C3182 C3183 1.362 . S
C3183 H3173 0.930 . S
C3183 C3176 1.409 . S
C3183 C3182 1.362 . S
H3184 C3190 0.930 . S
H3185 C3193 0.930 . S
H3186 C3194 0.930 . S
H3187 C3195 0.930 . S
H3188 C3198 0.930 . S
H3189 C3199 0.930 . S
C3190 H3184 0.930 . S
C3190 C3191 1.355 . S
C3190 C3192 1.415 . S
C3191 C3190 1.355 . S
C3191 C3193 1.419 . S
C3192 C3190 1.415 . S
C3192 C3197 1.425 . S
C3192 C3199 1.409 . S
C3193 H3185 0.930 . S
C3193 C3191 1.419 . S
C3193 C3194 1.362 . S
C3194 H3186 0.930 . S
C3194 C3193 1.362 . S
C3194 C3197 1.409 . S
C3195 H3187 0.930 . S
C3195 C3196 1.355 . S
C3195 C3197 1.415 . S
C3196 C3195 1.355 . S
C3196 C3198 1.419 . S
C3197 C3192 1.425 . S
C3197 C3194 1.409 . S
C3197 C3195 1.415 . S
C3198 H3188 0.930 . S
C3198 C3196 1.419 . S
C3198 C3199 1.362 . S
C3199 H3189 0.930 . S
C3199 C3192 1.409 . S
C3199 C3198 1.362 . S
H3200 C3206 0.930 . S
H3201 C3209 0.930 . S
H3202 C3210 0.930 . S
H3203 C3211 0.930 . S
H3204 C3214 0.930 . S
H3205 C3215 0.930 . S
C3206 H3200 0.930 . S
C3206 C3207 1.355 . S
C3206 C3208 1.415 . S
C3207 C3206 1.355 . S
C3207 C3209 1.419 . S
C3208 C3206 1.415 . S
C3208 C3213 1.425 . S
C3208 C3215 1.409 . S
C3209 H3201 0.930 . S
C3209 C3207 1.419 . S
C3209 C3210 1.362 . S
C3210 H3202 0.930 . S
C3210 C3209 1.362 . S
C3210 C3213 1.409 . S
C3211 H3203 0.930 . S
C3211 C3212 1.355 . S
C3211 C3213 1.415 . S
C3212 C3211 1.355 . S
C3212 C3214 1.419 . S
C3213 C3208 1.425 . S
C3213 C3210 1.409 . S
C3213 C3211 1.415 . S
C3214 H3204 0.930 . S
C3214 C3212 1.419 . S
C3214 C3215 1.362 . S
C3215 H3205 0.930 . S
C3215 C3208 1.409 . S
C3215 C3214 1.362 . S
H3216 C3222 0.930 . S
H3217 C3225 0.930 . S
H3218 C3226 0.930 . S
H3219 C3227 0.930 . S
H3220 C3230 0.930 . S
H3221 C3231 0.930 . S
C3222 H3216 0.930 . S
C3222 C3223 1.355 . S
C3222 C3224 1.415 . S
C3223 C3222 1.355 . S
C3223 C3225 1.419 . S
C3224 C3222 1.415 . S
C3224 C3229 1.425 . S
C3224 C3231 1.409 . S
C3225 H3217 0.930 . S
C3225 C3223 1.419 . S
C3225 C3226 1.362 . S
C3226 H3218 0.930 . S
C3226 C3225 1.362 . S
C3226 C3229 1.409 . S
C3227 H3219 0.930 . S
C3227 C3228 1.355 . S
C3227 C3229 1.415 . S
C3228 C3227 1.355 . S
C3228 C3230 1.419 . S
C3229 C3224 1.425 . S
C3229 C3226 1.409 . S
C3229 C3227 1.415 . S
C3230 H3220 0.930 . S
C3230 C3228 1.419 . S
C3230 C3231 1.362 . S
C3231 H3221 0.930 . S
C3231 C3224 1.409 . S
C3231 C3230 1.362 . S
H3232 C3238 0.930 . S
H3233 C3241 0.930 . S
H3234 C3242 0.930 . S
H3235 C3243 0.930 . S
H3236 C3246 0.930 . S
H3237 C3247 0.930 . S
C3238 H3232 0.930 . S
C3238 C3239 1.355 . S
C3238 C3240 1.415 . S
C3239 C3238 1.355 . S
C3239 C3241 1.419 . S
C3240 C3238 1.415 . S
C3240 C3245 1.425 . S
C3240 C3247 1.409 . S
C3241 H3233 0.930 . S
C3241 C3239 1.419 . S
C3241 C3242 1.362 . S
C3242 H3234 0.930 . S
C3242 C3241 1.362 . S
C3242 C3245 1.409 . S
C3243 H3235 0.930 . S
C3243 C3244 1.355 . S
C3243 C3245 1.415 . S
C3244 C3243 1.355 . S
C3244 C3246 1.419 . S
C3245 C3240 1.425 . S
C3245 C3242 1.409 . S
C3245 C3243 1.415 . S
C3246 H3236 0.930 . S
C3246 C3244 1.419 . S
C3246 C3247 1.362 . S
C3247 H3237 0.930 . S
C3247 C3240 1.409 . S
C3247 C3246 1.362 . S
H3248 C3254 0.930 . S
H3249 C3257 0.930 . S
H3250 C3258 0.930 . S
H3251 C3259 0.930 . S
H3252 C3262 0.930 . S
H3253 C3263 0.930 . S
C3254 H3248 0.930 . S
C3254 C3255 1.355 . S
C3254 C3256 1.415 . S
C3255 C3254 1.355 . S
C3255 C3257 1.419 . S
C3256 C3254 1.415 . S
C3256 C3261 1.425 . S
C3256 C3263 1.409 . S
C3257 H3249 0.930 . S
C3257 C3255 1.419 . S
C3257 C3258 1.362 . S
C3258 H3250 0.930 . S
C3258 C3257 1.362 . S
C3258 C3261 1.409 . S
C3259 H3251 0.930 . S
C3259 C3260 1.355 . S
C3259 C3261 1.415 . S
C3260 C3259 1.355 . S
C3260 C3262 1.419 . S
C3261 C3256 1.425 . S
C3261 C3258 1.409 . S
C3261 C3259 1.415 . S
C3262 H3252 0.930 . S
C3262 C3260 1.419 . S
C3262 C3263 1.362 . S
C3263 H3253 0.930 . S
C3263 C3256 1.409 . S
C3263 C3262 1.362 . S
H3264 C3270 0.930 . S
H3265 C3273 0.930 . S
H3266 C3274 0.930 . S
H3267 C3275 0.930 . S
H3268 C3278 0.930 . S
H3269 C3279 0.930 . S
C3270 H3264 0.930 . S
C3270 C3271 1.355 . S
C3270 C3272 1.415 . S
C3271 C3270 1.355 . S
C3271 C3273 1.419 . S
C3272 C3270 1.415 . S
C3272 C3277 1.425 . S
C3272 C3279 1.409 . S
C3273 H3265 0.930 . S
C3273 C3271 1.419 . S
C3273 C3274 1.362 . S
C3274 H3266 0.930 . S
C3274 C3273 1.362 . S
C3274 C3277 1.409 . S
C3275 H3267 0.930 . S
C3275 C3276 1.355 . S
C3275 C3277 1.415 . S
C3276 C3275 1.355 . S
C3276 C3278 1.419 . S
C3277 C3272 1.425 . S
C3277 C3274 1.409 . S
C3277 C3275 1.415 . S
C3278 H3268 0.930 . S
C3278 C3276 1.419 . S
C3278 C3279 1.362 . S
C3279 H3269 0.930 . S
C3279 C3272 1.409 . S
C3279 C3278 1.362 . S
H3280 C3286 0.930 . S
H3281 C3289 0.930 . S
H3282 C3290 0.930 . S
H3283 C3291 0.930 . S
H3284 C3294 0.930 . S
H3285 C3295 0.930 . S
C3286 H3280 0.930 . S
C3286 C3287 1.355 . S
C3286 C3288 1.415 . S
C3287 C3286 1.355 . S
C3287 C3289 1.419 . S
C3288 C3286 1.415 . S
C3288 C3293 1.425 . S
C3288 C3295 1.409 . S
C3289 H3281 0.930 . S
C3289 C3287 1.419 . S
C3289 C3290 1.362 . S
C3290 H3282 0.930 . S
C3290 C3289 1.362 . S
C3290 C3293 1.409 . S
C3291 H3283 0.930 . S
C3291 C3292 1.355 . S
C3291 C3293 1.415 . S
C3292 C3291 1.355 . S
C3292 C3294 1.419 . S
C3293 C3288 1.425 . S
C3293 C3290 1.409 . S
C3293 C3291 1.415 . S
C3294 H3284 0.930 . S
C3294 C3292 1.419 . S
C3294 C3295 1.362 . S
C3295 H3285 0.930 . S
C3295 C3288 1.409 . S
C3295 C3294 1.362 . S
H3296 C3302 0.930 . S
H3297 C3305 0.930 . S
H3298 C3306 0.930 . S
H3299 C3307 0.930 . S
H3300 C3310 0.930 . S
H3301 C3311 0.930 . S
C3302 H3296 0.930 . S
C3302 C3303 1.355 . S
C3302 C3304 1.415 . S
C3303 C3302 1.355 . S
C3303 C3305 1.419 . S
C3304 C3302 1.415 . S
C3304 C3309 1.425 . S
C3304 C3311 1.409 . S
C3305 H3297 0.930 . S
C3305 C3303 1.419 . S
C3305 C3306 1.362 . S
C3306 H3298 0.930 . S
C3306 C3305 1.362 . S
C3306 C3309 1.409 . S
C3307 H3299 0.930 . S
C3307 C3308 1.355 . S
C3307 C3309 1.415 . S
C3308 C3307 1.355 . S
C3308 C3310 1.419 . S
C3309 C3304 1.425 . S
C3309 C3306 1.409 . S
C3309 C3307 1.415 . S
C3310 H3300 0.930 . S
C3310 C3308 1.419 . S
C3310 C3311 1.362 . S
C3311 H3301 0.930 . S
C3311 C3304 1.409 . S
C3311 C3310 1.362 . S
H3312 C3318 0.930 . S
H3313 C3321 0.930 . S
H3314 C3322 0.930 . S
H3315 C3323 0.930 . S
H3316 C3326 0.930 . S
H3317 C3327 0.930 . S
C3318 H3312 0.930 . S
C3318 C3319 1.355 . S
C3318 C3320 1.415 . S
C3319 C3318 1.355 . S
C3319 C3321 1.419 . S
C3320 C3318 1.415 . S
C3320 C3325 1.425 . S
C3320 C3327 1.409 . S
C3321 H3313 0.930 . S
C3321 C3319 1.419 . S
C3321 C3322 1.362 . S
C3322 H3314 0.930 . S
C3322 C3321 1.362 . S
C3322 C3325 1.409 . S
C3323 H3315 0.930 . S
C3323 C3324 1.355 . S
C3323 C3325 1.415 . S
C3324 C3323 1.355 . S
C3324 C3326 1.419 . S
C3325 C3320 1.425 . S
C3325 C3322 1.409 . S
C3325 C3323 1.415 . S
C3326 H3316 0.930 . S
C3326 C3324 1.419 . S
C3326 C3327 1.362 . S
C3327 H3317 0.930 . S
C3327 C3320 1.409 . S
C3327 C3326 1.362 . S
H3328 C3334 0.930 . S
H3329 C3337 0.930 . S
H3330 C3338 0.930 . S
H3331 C3339 0.930 . S
H3332 C3342 0.930 . S
H3333 C3343 0.930 . S
C3334 H3328 0.930 . S
C3334 C3335 1.355 . S
C3334 C3336 1.415 . S
C3335 C3334 1.355 . S
C3335 C3337 1.419 . S
C3336 C3334 1.415 . S
C3336 C3341 1.425 . S
C3336 C3343 1.409 . S
C3337 H3329 0.930 . S
C3337 C3335 1.419 . S
C3337 C3338 1.362 . S
C3338 H3330 0.930 . S
C3338 C3337 1.362 . S
C3338 C3341 1.409 . S
C3339 H3331 0.930 . S
C3339 C3340 1.355 . S
C3339 C3341 1.415 . S
C3340 C3339 1.355 . S
C3340 C3342 1.419 . S
C3341 C3336 1.425 . S
C3341 C3338 1.409 . S
C3341 C3339 1.415 . S
C3342 H3332 0.930 . S
C3342 C3340 1.419 . S
C3342 C3343 1.362 . S
C3343 H3333 0.930 . S
C3343 C3336 1.409 . S
C3343 C3342 1.362 . S
H3344 C3350 0.930 . S
H3345 C3353 0.930 . S
H3346 C3354 0.930 . S
H3347 C3355 0.930 . S
H3348 C3358 0.930 . S
H3349 C3359 0.930 . S
C3350 H3344 0.930 . S
C3350 C3351 1.355 . S
C3350 C3352 1.415 . S
C3351 C3350 1.355 . S
C3351 C3353 1.419 . S
C3352 C3350 1.415 . S
C3352 C3357 1.425 . S
C3352 C3359 1.409 . S
C3353 H3345 0.930 . S
C3353 C3351 1.419 . S
C3353 C3354 1.362 . S
C3354 H3346 0.930 . S
C3354 C3353 1.362 . S
C3354 C3357 1.409 . S
C3355 H3347 0.930 . S
C3355 C3356 1.355 . S
C3355 C3357 1.415 . S
C3356 C3355 1.355 . S
C3356 C3358 1.419 . S
C3357 C3352 1.425 . S
C3357 C3354 1.409 . S
C3357 C3355 1.415 . S
C3358 H3348 0.930 . S
C3358 C3356 1.419 . S
C3358 C3359 1.362 . S
C3359 H3349 0.930 . S
C3359 C3352 1.409 . S
C3359 C3358 1.362 . S
H3360 C3366 0.930 . S
H3361 C3369 0.930 . S
H3362 C3370 0.930 . S
H3363 C3371 0.930 . S
H3364 C3374 0.930 . S
H3365 C3375 0.930 . S
C3366 H3360 0.930 . S
C3366 C3367 1.355 . S
C3366 C3368 1.415 . S
C3367 C3366 1.355 . S
C3367 C3369 1.419 . S
C3368 C3366 1.415 . S
C3368 C3373 1.425 . S
C3368 C3375 1.409 . S
C3369 H3361 0.930 . S
C3369 C3367 1.419 . S
C3369 C3370 1.362 . S
C3370 H3362 0.930 . S
C3370 C3369 1.362 . S
C3370 C3373 1.409 . S
C3371 H3363 0.930 . S
C3371 C3372 1.355 . S
C3371 C3373 1.415 . S
C3372 C3371 1.355 . S
C3372 C3374 1.419 . S
C3373 C3368 1.425 . S
C3373 C3370 1.409 . S
C3373 C3371 1.415 . S
C3374 H3364 0.930 . S
C3374 C3372 1.419 . S
C3374 C3375 1.362 . S
C3375 H3365 0.930 . S
C3375 C3368 1.409 . S
C3375 C3374 1.362 . S
H3376 C3382 0.930 . S
H3377 C3385 0.930 . S
H3378 C3386 0.930 . S
H3379 C3387 0.930 . S
H3380 C3390 0.930 . S
H3381 C3391 0.930 . S
C3382 H3376 0.930 . S
C3382 C3383 1.355 . S
C3382 C3384 1.415 . S
C3383 C3382 1.355 . S
C3383 C3385 1.419 . S
C3384 C3382 1.415 . S
C3384 C3389 1.425 . S
C3384 C3391 1.409 . S
C3385 H3377 0.930 . S
C3385 C3383 1.419 . S
C3385 C3386 1.362 . S
C3386 H3378 0.930 . S
C3386 C3385 1.362 . S
C3386 C3389 1.409 . S
C3387 H3379 0.930 . S
C3387 C3388 1.355 . S
C3387 C3389 1.415 . S
C3388 C3387 1.355 . S
C3388 C3390 1.419 . S
C3389 C3384 1.425 . S
C3389 C3386 1.409 . S
C3389 C3387 1.415 . S
C3390 H3380 0.930 . S
C3390 C3388 1.419 . S
C3390 C3391 1.362 . S
C3391 H3381 0.930 . S
C3391 C3384 1.409 . S
C3391 C3390 1.362 . S
H3392 C3398 0.930 . S
H3393 C3401 0.930 . S
H3394 C3402 0.930 . S
H3395 C3403 0.930 . S
H3396 C3406 0.930 . S
H3397 C3407 0.930 . S
C3398 H3392 0.930 . S
C3398 C3399 1.355 . S
C3398 C3400 1.415 . S
C3399 C3398 1.355 . S
C3399 C3401 1.419 . S
C3400 C3398 1.415 . S
C3400 C3405 1.425 . S
C3400 C3407 1.409 . S
C3401 H3393 0.930 . S
C3401 C3399 1.419 . S
C3401 C3402 1.362 . S
C3402 H3394 0.930 . S
C3402 C3401 1.362 . S
C3402 C3405 1.409 . S
C3403 H3395 0.930 . S
C3403 C3404 1.355 . S
C3403 C3405 1.415 . S
C3404 C3403 1.355 . S
C3404 C3406 1.419 . S
C3405 C3400 1.425 . S
C3405 C3402 1.409 . S
C3405 C3403 1.415 . S
C3406 H3396 0.930 . S
C3406 C3404 1.419 . S
C3406 C3407 1.362 . S
C3407 H3397 0.930 . S
C3407 C3400 1.409 . S
C3407 C3406 1.362 . S
H3408 C3414 0.930 . S
H3409 C3417 0.930 . S
H3410 C3418 0.930 . S
H3411 C3419 0.930 . S
H3412 C3422 0.930 . S
H3413 C3423 0.930 . S
C3414 H3408 0.930 . S
C3414 C3415 1.355 . S
C3414 C3416 1.415 . S
C3415 C3414 1.355 . S
C3415 C3417 1.419 . S
C3416 C3414 1.415 . S
C3416 C3421 1.425 . S
C3416 C3423 1.409 . S
C3417 H3409 0.930 . S
C3417 C3415 1.419 . S
C3417 C3418 1.362 . S
C3418 H3410 0.930 . S
C3418 C3417 1.362 . S
C3418 C3421 1.409 . S
C3419 H3411 0.930 . S
C3419 C3420 1.355 . S
C3419 C3421 1.415 . S
C3420 C3419 1.355 . S
C3420 C3422 1.419 . S
C3421 C3416 1.425 . S
C3421 C3418 1.409 . S
C3421 C3419 1.415 . S
C3422 H3412 0.930 . S
C3422 C3420 1.419 . S
C3422 C3423 1.362 . S
C3423 H3413 0.930 . S
C3423 C3416 1.409 . S
C3423 C3422 1.362 . S
H3424 C3430 0.930 . S
H3425 C3433 0.930 . S
H3426 C3434 0.930 . S
H3427 C3435 0.930 . S
H3428 C3438 0.930 . S
H3429 C3439 0.930 . S
C3430 H3424 0.930 . S
C3430 C3431 1.355 . S
C3430 C3432 1.415 . S
C3431 C3430 1.355 . S
C3431 C3433 1.419 . S
C3432 C3430 1.415 . S
C3432 C3437 1.425 . S
C3432 C3439 1.409 . S
C3433 H3425 0.930 . S
C3433 C3431 1.419 . S
C3433 C3434 1.362 . S
C3434 H3426 0.930 . S
C3434 C3433 1.362 . S
C3434 C3437 1.409 . S
C3435 H3427 0.930 . S
C3435 C3436 1.355 . S
C3435 C3437 1.415 . S
C3436 C3435 1.355 . S
C3436 C3438 1.419 . S
C3437 C3432 1.425 . S
C3437 C3434 1.409 . S
C3437 C3435 1.415 . S
C3438 H3428 0.930 . S
C3438 C3436 1.419 . S
C3438 C3439 1.362 . S
C3439 H3429 0.930 . S
C3439 C3432 1.409 . S
C3439 C3438 1.362 . S
H3440 C3446 0.930 . S
H3441 C3449 0.930 . S
H3442 C3450 0.930 . S
H3443 C3451 0.930 . S
H3444 C3454 0.930 . S
H3445 C3455 0.930 . S
C3446 H3440 0.930 . S
C3446 C3447 1.355 . S
C3446 C3448 1.415 . S
C3447 C3446 1.355 . S
C3447 C3449 1.419 . S
C3448 C3446 1.415 . S
C3448 C3453 1.425 . S
C3448 C3455 1.409 . S
C3449 H3441 0.930 . S
C3449 C3447 1.419 . S
C3449 C3450 1.362 . S
C3450 H3442 0.930 . S
C3450 C3449 1.362 . S
C3450 C3453 1.409 . S
C3451 H3443 0.930 . S
C3451 C3452 1.355 . S
C3451 C3453 1.415 . S
C3452 C3451 1.355 . S
C3452 C3454 1.419 . S
C3453 C3448 1.425 . S
C3453 C3450 1.409 . S
C3453 C3451 1.415 . S
C3454 H3444 0.930 . S
C3454 C3452 1.419 . S
C3454 C3455 1.362 . S
C3455 H3445 0.930 . S
C3455 C3448 1.409 . S
C3455 C3454 1.362 . S
H3456 C3462 0.930 . S
H3457 C3465 0.930 . S
H3458 C3466 0.930 . S
H3459 C3467 0.930 . S
H3460 C3470 0.930 . S
H3461 C3471 0.930 . S
C3462 H3456 0.930 . S
C3462 C3463 1.355 . S
C3462 C3464 1.415 . S
C3463 C3462 1.355 . S
C3463 C3465 1.419 . S
C3464 C3462 1.415 . S
C3464 C3469 1.425 . S
C3464 C3471 1.409 . S
C3465 H3457 0.930 . S
C3465 C3463 1.419 . S
C3465 C3466 1.362 . S
C3466 H3458 0.930 . S
C3466 C3465 1.362 . S
C3466 C3469 1.409 . S
C3467 H3459 0.930 . S
C3467 C3468 1.355 . S
C3467 C3469 1.415 . S
C3468 C3467 1.355 . S
C3468 C3470 1.419 . S
C3469 C3464 1.425 . S
C3469 C3466 1.409 . S
C3469 C3467 1.415 . S
C3470 H3460 0.930 . S
C3470 C3468 1.419 . S
C3470 C3471 1.362 . S
C3471 H3461 0.930 . S
C3471 C3464 1.409 . S
C3471 C3470 1.362 . S
H3472 C3478 0.930 . S
H3473 C3481 0.930 . S
H3474 C3482 0.930 . S
H3475 C3483 0.930 . S
H3476 C3486 0.930 . S
H3477 C3487 0.930 . S
C3478 H3472 0.930 . S
C3478 C3479 1.355 . S
C3478 C3480 1.415 . S
C3479 C3478 1.355 . S
C3479 C3481 1.419 . S
C3480 C3478 1.415 . S
C3480 C3485 1.425 . S
C3480 C3487 1.409 . S
C3481 H3473 0.930 . S
C3481 C3479 1.419 . S
C3481 C3482 1.362 . S
C3482 H3474 0.930 . S
C3482 C3481 1.362 . S
C3482 C3485 1.409 . S
C3483 H3475 0.930 . S
C3483 C3484 1.355 . S
C3483 C3485 1.415 . S
C3484 C3483 1.355 . S
C3484 C3486 1.419 . S
C3485 C3480 1.425 . S
C3485 C3482 1.409 . S
C3485 C3483 1.415 . S
C3486 H3476 0.930 . S
C3486 C3484 1.419 . S
C3486 C3487 1.362 . S
C3487 H3477 0.930 . S
C3487 C3480 1.409 . S
C3487 C3486 1.362 . S
H3488 C3494 0.930 . S
H3489 C3497 0.930 . S
H3490 C3498 0.930 . S
H3491 C3499 0.930 . S
H3492 C3502 0.930 . S
H3493 C3503 0.930 . S
C3494 H3488 0.930 . S
C3494 C3495 1.355 . S
C3494 C3496 1.415 . S
C3495 C3494 1.355 . S
C3495 C3497 1.419 . S
C3496 C3494 1.415 . S
C3496 C3501 1.425 . S
C3496 C3503 1.409 . S
C3497 H3489 0.930 . S
C3497 C3495 1.419 . S
C3497 C3498 1.362 . S
C3498 H3490 0.930 . S
C3498 C3497 1.362 . S
C3498 C3501 1.409 . S
C3499 H3491 0.930 . S
C3499 C3500 1.355 . S
C3499 C3501 1.415 . S
C3500 C3499 1.355 . S
C3500 C3502 1.419 . S
C3501 C3496 1.425 . S
C3501 C3498 1.409 . S
C3501 C3499 1.415 . S
C3502 H3492 0.930 . S
C3502 C3500 1.419 . S
C3502 C3503 1.362 . S
C3503 H3493 0.930 . S
C3503 C3496 1.409 . S
C3503 C3502 1.362 . S
H3504 C3510 0.930 . S
H3505 C3513 0.930 . S
H3506 C3514 0.930 . S
H3507 C3515 0.930 . S
H3508 C3518 0.930 . S
H3509 C3519 0.930 . S
C3510 H3504 0.930 . S
C3510 C3511 1.355 . S
C3510 C3512 1.415 . S
C3511 C3510 1.355 . S
C3511 C3513 1.419 . S
C3512 C3510 1.415 . S
C3512 C3517 1.425 . S
C3512 C3519 1.409 . S
C3513 H3505 0.930 . S
C3513 C3511 1.419 . S
C3513 C3514 1.362 . S
C3514 H3506 0.930 . S
C3514 C3513 1.362 . S
C3514 C3517 1.409 . S
C3515 H3507 0.930 . S
C3515 C3516 1.355 . S
C3515 C3517 1.415 . S
C3516 C3515 1.355 . S
C3516 C3518 1.419 . S
C3517 C3512 1.425 . S
C3517 C3514 1.409 . S
C3517 C3515 1.415 . S
C3518 H3508 0.930 . S
C3518 C3516 1.419 . S
C3518 C3519 1.362 . S
C3519 H3509 0.930 . S
C3519 C3512 1.409 . S
C3519 C3518 1.362 . S
H3520 C3526 0.930 . S
H3521 C3529 0.930 . S
H3522 C3530 0.930 . S
H3523 C3531 0.930 . S
H3524 C3534 0.930 . S
H3525 C3535 0.930 . S
C3526 H3520 0.930 . S
C3526 C3527 1.355 . S
C3526 C3528 1.415 . S
C3527 C3526 1.355 . S
C3527 C3529 1.419 . S
C3528 C3526 1.415 . S
C3528 C3533 1.425 . S
C3528 C3535 1.409 . S
C3529 H3521 0.930 . S
C3529 C3527 1.419 . S
C3529 C3530 1.362 . S
C3530 H3522 0.930 . S
C3530 C3529 1.362 . S
C3530 C3533 1.409 . S
C3531 H3523 0.930 . S
C3531 C3532 1.355 . S
C3531 C3533 1.415 . S
C3532 C3531 1.355 . S
C3532 C3534 1.419 . S
C3533 C3528 1.425 . S
C3533 C3530 1.409 . S
C3533 C3531 1.415 . S
C3534 H3524 0.930 . S
C3534 C3532 1.419 . S
C3534 C3535 1.362 . S
C3535 H3525 0.930 . S
C3535 C3528 1.409 . S
C3535 C3534 1.362 . S
H3536 C3542 0.930 . S
H3537 C3545 0.930 . S
H3538 C3546 0.930 . S
H3539 C3547 0.930 . S
H3540 C3550 0.930 . S
H3541 C3551 0.930 . S
C3542 H3536 0.930 . S
C3542 C3543 1.355 . S
C3542 C3544 1.415 . S
C3543 C3542 1.355 . S
C3543 C3545 1.419 . S
C3544 C3542 1.415 . S
C3544 C3549 1.425 . S
C3544 C3551 1.409 . S
C3545 H3537 0.930 . S
C3545 C3543 1.419 . S
C3545 C3546 1.362 . S
C3546 H3538 0.930 . S
C3546 C3545 1.362 . S
C3546 C3549 1.409 . S
C3547 H3539 0.930 . S
C3547 C3548 1.355 . S
C3547 C3549 1.415 . S
C3548 C3547 1.355 . S
C3548 C3550 1.419 . S
C3549 C3544 1.425 . S
C3549 C3546 1.409 . S
C3549 C3547 1.415 . S
C3550 H3540 0.930 . S
C3550 C3548 1.419 . S
C3550 C3551 1.362 . S
C3551 H3541 0.930 . S
C3551 C3544 1.409 . S
C3551 C3550 1.362 . S
H3552 C3558 0.930 . S
H3553 C3561 0.930 . S
H3554 C3562 0.930 . S
H3555 C3563 0.930 . S
H3556 C3566 0.930 . S
H3557 C3567 0.930 . S
C3558 H3552 0.930 . S
C3558 C3559 1.355 . S
C3558 C3560 1.415 . S
C3559 C3558 1.355 . S
C3559 C3561 1.419 . S
C3560 C3558 1.415 . S
C3560 C3565 1.425 . S
C3560 C3567 1.409 . S
C3561 H3553 0.930 . S
C3561 C3559 1.419 . S
C3561 C3562 1.362 . S
C3562 H3554 0.930 . S
C3562 C3561 1.362 . S
C3562 C3565 1.409 . S
C3563 H3555 0.930 . S
C3563 C3564 1.355 . S
C3563 C3565 1.415 . S
C3564 C3563 1.355 . S
C3564 C3566 1.419 . S
C3565 C3560 1.425 . S
C3565 C3562 1.409 . S
C3565 C3563 1.415 . S
C3566 H3556 0.930 . S
C3566 C3564 1.419 . S
C3566 C3567 1.362 . S
C3567 H3557 0.930 . S
C3567 C3560 1.409 . S
C3567 C3566 1.362 . S
H3568 C3574 0.930 . S
H3569 C3577 0.930 . S
H3570 C3578 0.930 . S
H3571 C3579 0.930 . S
H3572 C3582 0.930 . S
H3573 C3583 0.930 . S
C3574 H3568 0.930 . S
C3574 C3575 1.355 . S
C3574 C3576 1.415 . S
C3575 C3574 1.355 . S
C3575 C3577 1.419 . S
C3576 C3574 1.415 . S
C3576 C3581 1.425 . S
C3576 C3583 1.409 . S
C3577 H3569 0.930 . S
C3577 C3575 1.419 . S
C3577 C3578 1.362 . S
C3578 H3570 0.930 . S
C3578 C3577 1.362 . S
C3578 C3581 1.409 . S
C3579 H3571 0.930 . S
C3579 C3580 1.355 . S
C3579 C3581 1.415 . S
C3580 C3579 1.355 . S
C3580 C3582 1.419 . S
C3581 C3576 1.425 . S
C3581 C3578 1.409 . S
C3581 C3579 1.415 . S
C3582 H3572 0.930 . S
C3582 C3580 1.419 . S
C3582 C3583 1.362 . S
C3583 H3573 0.930 . S
C3583 C3576 1.409 . S
C3583 C3582 1.362 . S
H3584 C3590 0.930 . S
H3585 C3593 0.930 1_545 S
H3586 C3594 0.930 . S
H3587 C3595 0.930 . S
H3588 C3598 0.930 . S
H3589 C3599 0.930 . S
C3590 H3584 0.930 . S
C3590 C3591 1.355 . S
C3590 C3592 1.415 . S
C3591 C3590 1.355 . S
C3591 C3593 1.419 . S
C3592 C3590 1.415 . S
C3592 C3597 1.425 . S
C3592 C3599 1.409 . S
C3593 H3585 0.930 1_565 S
C3593 C3591 1.419 . S
C3593 C3594 1.362 . S
C3594 H3586 0.930 . S
C3594 C3593 1.362 . S
C3594 C3597 1.409 . S
C3595 H3587 0.930 . S
C3595 C3596 1.355 . S
C3595 C3597 1.415 . S
C3596 C3595 1.355 . S
C3596 C3598 1.419 . S
C3597 C3592 1.425 . S
C3597 C3594 1.409 . S
C3597 C3595 1.415 . S
C3598 H3588 0.930 . S
C3598 C3596 1.419 . S
C3598 C3599 1.362 . S
C3599 H3589 0.930 . S
C3599 C3592 1.409 . S
C3599 C3598 1.362 . S
H3600 C3606 0.930 . S
H3601 C3609 0.930 1_565 S
H3602 C3610 0.930 . S
H3603 C3611 0.930 . S
H3604 C3614 0.930 . S
H3605 C3615 0.930 . S
C3606 H3600 0.930 . S
C3606 C3607 1.355 . S
C3606 C3608 1.415 . S
C3607 C3606 1.355 . S
C3607 C3609 1.419 . S
C3608 C3606 1.415 . S
C3608 C3613 1.425 . S
C3608 C3615 1.409 . S
C3609 H3601 0.930 1_545 S
C3609 C3607 1.419 . S
C3609 C3610 1.362 . S
C3610 H3602 0.930 . S
C3610 C3609 1.362 . S
C3610 C3613 1.409 . S
C3611 H3603 0.930 . S
C3611 C3612 1.355 . S
C3611 C3613 1.415 . S
C3612 C3611 1.355 . S
C3612 C3614 1.419 . S
C3613 C3608 1.425 . S
C3613 C3610 1.409 . S
C3613 C3611 1.415 . S
C3614 H3604 0.930 . S
C3614 C3612 1.419 . S
C3614 C3615 1.362 . S
C3615 H3605 0.930 . S
C3615 C3608 1.409 . S
C3615 C3614 1.362 . S
H3616 C3622 0.930 . S
H3617 C3625 0.930 . S
H3618 C3626 0.930 . S
H3619 C3627 0.930 . S
H3620 C3630 0.930 . S
H3621 C3631 0.930 . S
C3622 H3616 0.930 . S
C3622 C3623 1.355 . S
C3622 C3624 1.415 . S
C3623 C3622 1.355 . S
C3623 C3625 1.419 . S
C3624 C3622 1.415 . S
C3624 C3629 1.425 . S
C3624 C3631 1.409 . S
C3625 H3617 0.930 . S
C3625 C3623 1.419 . S
C3625 C3626 1.362 . S
C3626 H3618 0.930 . S
C3626 C3625 1.362 . S
C3626 C3629 1.409 . S
C3627 H3619 0.930 . S
C3627 C3628 1.355 . S
C3627 C3629 1.415 . S
C3628 C3627 1.355 . S
C3628 C3630 1.419 . S
C3629 C3624 1.425 . S
C3629 C3626 1.409 . S
C3629 C3627 1.415 . S
C3630 H3620 0.930 . S
C3630 C3628 1.419 . S
C3630 C3631 1.362 . S
C3631 H3621 0.930 . S
C3631 C3624 1.409 . S
C3631 C3630 1.362 . S
H3632 C3638 0.930 . S
H3633 C3641 0.930 . S
H3634 C3642 0.930 . S
H3635 C3643 0.930 . S
H3636 C3646 0.930 . S
H3637 C3647 0.930 . S
C3638 H3632 0.930 . S
C3638 C3639 1.355 . S
C3638 C3640 1.415 . S
C3639 C3638 1.355 . S
C3639 C3641 1.419 . S
C3640 C3638 1.415 . S
C3640 C3645 1.425 . S
C3640 C3647 1.409 . S
C3641 H3633 0.930 . S
C3641 C3639 1.419 . S
C3641 C3642 1.362 . S
C3642 H3634 0.930 . S
C3642 C3641 1.362 . S
C3642 C3645 1.409 . S
C3643 H3635 0.930 . S
C3643 C3644 1.355 . S
C3643 C3645 1.415 . S
C3644 C3643 1.355 . S
C3644 C3646 1.419 . S
C3645 C3640 1.425 . S
C3645 C3642 1.409 . S
C3645 C3643 1.415 . S
C3646 H3636 0.930 . S
C3646 C3644 1.419 . S
C3646 C3647 1.362 . S
C3647 H3637 0.930 . S
C3647 C3640 1.409 . S
C3647 C3646 1.362 . S
H3648 C3654 0.930 . S
H3649 C3657 0.930 . S
H3650 C3658 0.930 . S
H3651 C3659 0.930 . S
H3652 C3662 0.930 . S
H3653 C3663 0.930 . S
C3654 H3648 0.930 . S
C3654 C3655 1.355 . S
C3654 C3656 1.415 . S
C3655 C3654 1.355 . S
C3655 C3657 1.419 . S
C3656 C3654 1.415 . S
C3656 C3661 1.425 . S
C3656 C3663 1.409 . S
C3657 H3649 0.930 . S
C3657 C3655 1.419 . S
C3657 C3658 1.362 . S
C3658 H3650 0.930 . S
C3658 C3657 1.362 . S
C3658 C3661 1.409 . S
C3659 H3651 0.930 . S
C3659 C3660 1.355 . S
C3659 C3661 1.415 . S
C3660 C3659 1.355 . S
C3660 C3662 1.419 . S
C3661 C3656 1.425 . S
C3661 C3658 1.409 . S
C3661 C3659 1.415 . S
C3662 H3652 0.930 . S
C3662 C3660 1.419 . S
C3662 C3663 1.362 . S
C3663 H3653 0.930 . S
C3663 C3656 1.409 . S
C3663 C3662 1.362 . S
H3664 C3670 0.930 . S
H3665 C3673 0.930 . S
H3666 C3674 0.930 . S
H3667 C3675 0.930 . S
H3668 C3678 0.930 . S
H3669 C3679 0.930 . S
C3670 H3664 0.930 . S
C3670 C3671 1.355 . S
C3670 C3672 1.415 . S
C3671 C3670 1.355 . S
C3671 C3673 1.419 . S
C3672 C3670 1.415 . S
C3672 C3677 1.425 . S
C3672 C3679 1.409 . S
C3673 H3665 0.930 . S
C3673 C3671 1.419 . S
C3673 C3674 1.362 . S
C3674 H3666 0.930 . S
C3674 C3673 1.362 . S
C3674 C3677 1.409 . S
C3675 H3667 0.930 . S
C3675 C3676 1.355 . S
C3675 C3677 1.415 . S
C3676 C3675 1.355 . S
C3676 C3678 1.419 . S
C3677 C3672 1.425 . S
C3677 C3674 1.409 . S
C3677 C3675 1.415 . S
C3678 H3668 0.930 . S
C3678 C3676 1.419 . S
C3678 C3679 1.362 . S
C3679 H3669 0.930 . S
C3679 C3672 1.409 . S
C3679 C3678 1.362 . S
H3680 C3686 0.930 . S
H3681 C3689 0.930 . S
H3682 C3690 0.930 . S
H3683 C3691 0.930 . S
H3684 C3694 0.930 . S
H3685 C3695 0.930 . S
C3686 H3680 0.930 . S
C3686 C3687 1.355 . S
C3686 C3688 1.415 . S
C3687 C3686 1.355 . S
C3687 C3689 1.419 . S
C3688 C3686 1.415 . S
C3688 C3693 1.425 . S
C3688 C3695 1.409 . S
C3689 H3681 0.930 . S
C3689 C3687 1.419 . S
C3689 C3690 1.362 . S
C3690 H3682 0.930 . S
C3690 C3689 1.362 . S
C3690 C3693 1.409 . S
C3691 H3683 0.930 . S
C3691 C3692 1.355 . S
C3691 C3693 1.415 . S
C3692 C3691 1.355 . S
C3692 C3694 1.419 . S
C3693 C3688 1.425 . S
C3693 C3690 1.409 . S
C3693 C3691 1.415 . S
C3694 H3684 0.930 . S
C3694 C3692 1.419 . S
C3694 C3695 1.362 . S
C3695 H3685 0.930 . S
C3695 C3688 1.409 . S
C3695 C3694 1.362 . S
H3696 C3702 0.930 . S
H3697 C3705 0.930 . S
H3698 C3706 0.930 . S
H3699 C3707 0.930 . S
H3700 C3710 0.930 . S
H3701 C3711 0.930 . S
C3702 H3696 0.930 . S
C3702 C3703 1.355 . S
C3702 C3704 1.415 . S
C3703 C3702 1.355 . S
C3703 C3705 1.419 . S
C3704 C3702 1.415 . S
C3704 C3709 1.425 . S
C3704 C3711 1.409 . S
C3705 H3697 0.930 . S
C3705 C3703 1.419 . S
C3705 C3706 1.362 . S
C3706 H3698 0.930 . S
C3706 C3705 1.362 . S
C3706 C3709 1.409 . S
C3707 H3699 0.930 . S
C3707 C3708 1.355 . S
C3707 C3709 1.415 . S
C3708 C3707 1.355 . S
C3708 C3710 1.419 . S
C3709 C3704 1.425 . S
C3709 C3706 1.409 . S
C3709 C3707 1.415 . S
C3710 H3700 0.930 . S
C3710 C3708 1.419 . S
C3710 C3711 1.362 . S
C3711 H3701 0.930 . S
C3711 C3704 1.409 . S
C3711 C3710 1.362 . S
H3712 C3718 0.930 . S
H3713 C3721 0.930 . S
H3714 C3722 0.930 . S
H3715 C3723 0.930 . S
H3716 C3726 0.930 . S
H3717 C3727 0.930 . S
C3718 H3712 0.930 . S
C3718 C3719 1.355 . S
C3718 C3720 1.415 . S
C3719 C3718 1.355 . S
C3719 C3721 1.419 . S
C3720 C3718 1.415 . S
C3720 C3725 1.425 . S
C3720 C3727 1.409 . S
C3721 H3713 0.930 . S
C3721 C3719 1.419 . S
C3721 C3722 1.362 . S
C3722 H3714 0.930 . S
C3722 C3721 1.362 . S
C3722 C3725 1.409 . S
C3723 H3715 0.930 . S
C3723 C3724 1.355 . S
C3723 C3725 1.415 . S
C3724 C3723 1.355 . S
C3724 C3726 1.419 . S
C3725 C3720 1.425 . S
C3725 C3722 1.409 . S
C3725 C3723 1.415 . S
C3726 H3716 0.930 . S
C3726 C3724 1.419 . S
C3726 C3727 1.362 . S
C3727 H3717 0.930 . S
C3727 C3720 1.409 . S
C3727 C3726 1.362 . S
H3728 C3734 0.930 . S
H3729 C3737 0.930 . S
H3730 C3738 0.930 . S
H3731 C3739 0.930 . S
H3732 C3742 0.930 . S
H3733 C3743 0.930 . S
C3734 H3728 0.930 . S
C3734 C3735 1.355 . S
C3734 C3736 1.415 . S
C3735 C3734 1.355 . S
C3735 C3737 1.419 . S
C3736 C3734 1.415 . S
C3736 C3741 1.425 . S
C3736 C3743 1.409 . S
C3737 H3729 0.930 . S
C3737 C3735 1.419 . S
C3737 C3738 1.362 . S
C3738 H3730 0.930 . S
C3738 C3737 1.362 . S
C3738 C3741 1.409 . S
C3739 H3731 0.930 . S
C3739 C3740 1.355 . S
C3739 C3741 1.415 . S
C3740 C3739 1.355 . S
C3740 C3742 1.419 . S
C3741 C3736 1.425 . S
C3741 C3738 1.409 . S
C3741 C3739 1.415 . S
C3742 H3732 0.930 . S
C3742 C3740 1.419 . S
C3742 C3743 1.362 . S
C3743 H3733 0.930 . S
C3743 C3736 1.409 . S
C3743 C3742 1.362 . S
H3744 C3750 0.930 . S
H3745 C3753 0.930 . S
H3746 C3754 0.930 . S
H3747 C3755 0.930 . S
H3748 C3758 0.930 . S
H3749 C3759 0.930 . S
C3750 H3744 0.930 . S
C3750 C3751 1.355 . S
C3750 C3752 1.415 . S
C3751 C3750 1.355 . S
C3751 C3753 1.419 . S
C3752 C3750 1.415 . S
C3752 C3757 1.425 . S
C3752 C3759 1.409 . S
C3753 H3745 0.930 . S
C3753 C3751 1.419 . S
C3753 C3754 1.362 . S
C3754 H3746 0.930 . S
C3754 C3753 1.362 . S
C3754 C3757 1.409 . S
C3755 H3747 0.930 . S
C3755 C3756 1.355 . S
C3755 C3757 1.415 . S
C3756 C3755 1.355 . S
C3756 C3758 1.419 . S
C3757 C3752 1.425 . S
C3757 C3754 1.409 . S
C3757 C3755 1.415 . S
C3758 H3748 0.930 . S
C3758 C3756 1.419 . S
C3758 C3759 1.362 . S
C3759 H3749 0.930 . S
C3759 C3752 1.409 . S
C3759 C3758 1.362 . S
H3760 C3766 0.930 . S
H3761 C3769 0.930 . S
H3762 C3770 0.930 . S
H3763 C3771 0.930 . S
H3764 C3774 0.930 . S
H3765 C3775 0.930 . S
C3766 H3760 0.930 . S
C3766 C3767 1.355 . S
C3766 C3768 1.415 . S
C3767 C3766 1.355 . S
C3767 C3769 1.419 . S
C3768 C3766 1.415 . S
C3768 C3773 1.425 . S
C3768 C3775 1.409 . S
C3769 H3761 0.930 . S
C3769 C3767 1.419 . S
C3769 C3770 1.362 . S
C3770 H3762 0.930 . S
C3770 C3769 1.362 . S
C3770 C3773 1.409 . S
C3771 H3763 0.930 . S
C3771 C3772 1.355 . S
C3771 C3773 1.415 . S
C3772 C3771 1.355 . S
C3772 C3774 1.419 . S
C3773 C3768 1.425 . S
C3773 C3770 1.409 . S
C3773 C3771 1.415 . S
C3774 H3764 0.930 . S
C3774 C3772 1.419 . S
C3774 C3775 1.362 . S
C3775 H3765 0.930 . S
C3775 C3768 1.409 . S
C3775 C3774 1.362 . S
H3776 C3782 0.930 . S
H3777 C3785 0.930 . S
H3778 C3786 0.930 . S
H3779 C3787 0.930 . S
H3780 C3790 0.930 . S
H3781 C3791 0.930 . S
C3782 H3776 0.930 . S
C3782 C3783 1.355 . S
C3782 C3784 1.415 . S
C3783 C3782 1.355 . S
C3783 C3785 1.419 . S
C3784 C3782 1.415 . S
C3784 C3789 1.425 . S
C3784 C3791 1.409 . S
C3785 H3777 0.930 . S
C3785 C3783 1.419 . S
C3785 C3786 1.362 . S
C3786 H3778 0.930 . S
C3786 C3785 1.362 . S
C3786 C3789 1.409 . S
C3787 H3779 0.930 . S
C3787 C3788 1.355 . S
C3787 C3789 1.415 . S
C3788 C3787 1.355 . S
C3788 C3790 1.419 . S
C3789 C3784 1.425 . S
C3789 C3786 1.409 . S
C3789 C3787 1.415 . S
C3790 H3780 0.930 . S
C3790 C3788 1.419 . S
C3790 C3791 1.362 . S
C3791 H3781 0.930 . S
C3791 C3784 1.409 . S
C3791 C3790 1.362 . S
H3792 C3798 0.930 . S
H3793 C3801 0.930 . S
H3794 C3802 0.930 . S
H3795 C3803 0.930 . S
H3796 C3806 0.930 . S
H3797 C3807 0.930 . S
C3798 H3792 0.930 . S
C3798 C3799 1.355 . S
C3798 C3800 1.415 . S
C3799 C3798 1.355 . S
C3799 C3801 1.419 . S
C3800 C3798 1.415 . S
C3800 C3805 1.425 . S
C3800 C3807 1.409 . S
C3801 H3793 0.930 . S
C3801 C3799 1.419 . S
C3801 C3802 1.362 . S
C3802 H3794 0.930 . S
C3802 C3801 1.362 . S
C3802 C3805 1.409 . S
C3803 H3795 0.930 . S
C3803 C3804 1.355 . S
C3803 C3805 1.415 . S
C3804 C3803 1.355 . S
C3804 C3806 1.419 . S
C3805 C3800 1.425 . S
C3805 C3802 1.409 . S
C3805 C3803 1.415 . S
C3806 H3796 0.930 . S
C3806 C3804 1.419 . S
C3806 C3807 1.362 . S
C3807 H3797 0.930 . S
C3807 C3800 1.409 . S
C3807 C3806 1.362 . S
H3808 C3814 0.930 . S
H3809 C3817 0.930 . S
H3810 C3818 0.930 . S
H3811 C3819 0.930 . S
H3812 C3822 0.930 . S
H3813 C3823 0.930 . S
C3814 H3808 0.930 . S
C3814 C3815 1.355 . S
C3814 C3816 1.415 . S
C3815 C3814 1.355 . S
C3815 C3817 1.419 . S
C3816 C3814 1.415 . S
C3816 C3821 1.425 . S
C3816 C3823 1.409 . S
C3817 H3809 0.930 . S
C3817 C3815 1.419 . S
C3817 C3818 1.362 . S
C3818 H3810 0.930 . S
C3818 C3817 1.362 . S
C3818 C3821 1.409 . S
C3819 H3811 0.930 . S
C3819 C3820 1.355 . S
C3819 C3821 1.415 . S
C3820 C3819 1.355 . S
C3820 C3822 1.419 . S
C3821 C3816 1.425 . S
C3821 C3818 1.409 . S
C3821 C3819 1.415 . S
C3822 H3812 0.930 . S
C3822 C3820 1.419 . S
C3822 C3823 1.362 . S
C3823 H3813 0.930 . S
C3823 C3816 1.409 . S
C3823 C3822 1.362 . S
H3824 C3830 0.930 . S
H3825 C3833 0.930 . S
H3826 C3834 0.930 . S
H3827 C3835 0.930 . S
H3828 C3838 0.930 . S
H3829 C3839 0.930 . S
C3830 H3824 0.930 . S
C3830 C3831 1.355 . S
C3830 C3832 1.415 . S
C3831 C3830 1.355 . S
C3831 C3833 1.419 . S
C3832 C3830 1.415 . S
C3832 C3837 1.425 . S
C3832 C3839 1.409 . S
C3833 H3825 0.930 . S
C3833 C3831 1.419 . S
C3833 C3834 1.362 . S
C3834 H3826 0.930 . S
C3834 C3833 1.362 . S
C3834 C3837 1.409 . S
C3835 H3827 0.930 . S
C3835 C3836 1.355 . S
C3835 C3837 1.415 . S
C3836 C3835 1.355 . S
C3836 C3838 1.419 . S
C3837 C3832 1.425 . S
C3837 C3834 1.409 . S
C3837 C3835 1.415 . S
C3838 H3828 0.930 . S
C3838 C3836 1.419 . S
C3838 C3839 1.362 . S
C3839 H3829 0.930 . S
C3839 C3832 1.409 . S
C3839 C3838 1.362 . S
H3840 C3846 0.930 . S
H3841 C3849 0.930 . S
H3842 C3850 0.930 . S
H3843 C3851 0.930 . S
H3844 C3854 0.930 1_556 S
H3845 C3855 0.930 . S
C3846 H3840 0.930 . S
C3846 C3847 1.355 . S
C3846 C3848 1.415 . S
C3847 C3846 1.355 . S
C3847 C3849 1.419 . S
C3848 C3846 1.415 . S
C3848 C3853 1.425 . S
C3848 C3855 1.409 . S
C3849 H3841 0.930 . S
C3849 C3847 1.419 . S
C3849 C3850 1.362 . S
C3850 H3842 0.930 . S
C3850 C3849 1.362 . S
C3850 C3853 1.409 . S
C3851 H3843 0.930 . S
C3851 C3852 1.355 . S
C3851 C3853 1.415 . S
C3852 C3851 1.355 . S
C3852 C3854 1.419 . S
C3853 C3848 1.425 . S
C3853 C3850 1.409 . S
C3853 C3851 1.415 . S
C3854 H3844 0.930 1_554 S
C3854 C3852 1.419 . S
C3854 C3855 1.362 . S
C3855 H3845 0.930 . S
C3855 C3848 1.409 . S
C3855 C3854 1.362 . S
H3856 C3862 0.930 . S
H3857 C3865 0.930 . S
H3858 C3866 0.930 . S
H3859 C3867 0.930 . S
H3860 C3870 0.930 . S
H3861 C3871 0.930 . S
C3862 H3856 0.930 . S
C3862 C3863 1.355 . S
C3862 C3864 1.415 . S
C3863 C3862 1.355 . S
C3863 C3865 1.419 . S
C3864 C3862 1.415 . S
C3864 C3869 1.425 . S
C3864 C3871 1.409 . S
C3865 H3857 0.930 . S
C3865 C3863 1.419 . S
C3865 C3866 1.362 . S
C3866 H3858 0.930 . S
C3866 C3865 1.362 . S
C3866 C3869 1.409 . S
C3867 H3859 0.930 . S
C3867 C3868 1.355 . S
C3867 C3869 1.415 . S
C3868 C3867 1.355 . S
C3868 C3870 1.419 . S
C3869 C3864 1.425 . S
C3869 C3866 1.409 . S
C3869 C3867 1.415 . S
C3870 H3860 0.930 . S
C3870 C3868 1.419 . S
C3870 C3871 1.362 . S
C3871 H3861 0.930 . S
C3871 C3864 1.409 . S
C3871 C3870 1.362 . S
H3872 C3878 0.930 . S
H3873 C3881 0.930 . S
H3874 C3882 0.930 . S
H3875 C3883 0.930 . S
H3876 C3886 0.930 . S
H3877 C3887 0.930 . S
C3878 H3872 0.930 . S
C3878 C3879 1.355 . S
C3878 C3880 1.415 . S
C3879 C3878 1.355 . S
C3879 C3881 1.419 . S
C3880 C3878 1.415 . S
C3880 C3885 1.425 . S
C3880 C3887 1.409 . S
C3881 H3873 0.930 . S
C3881 C3879 1.419 . S
C3881 C3882 1.362 . S
C3882 H3874 0.930 . S
C3882 C3881 1.362 . S
C3882 C3885 1.409 . S
C3883 H3875 0.930 . S
C3883 C3884 1.355 . S
C3883 C3885 1.415 . S
C3884 C3883 1.355 . S
C3884 C3886 1.419 . S
C3885 C3880 1.425 . S
C3885 C3882 1.409 . S
C3885 C3883 1.415 . S
C3886 H3876 0.930 . S
C3886 C3884 1.419 . S
C3886 C3887 1.362 . S
C3887 H3877 0.930 . S
C3887 C3880 1.409 . S
C3887 C3886 1.362 . S
H3888 C3894 0.930 . S
H3889 C3897 0.930 . S
H3890 C3898 0.930 . S
H3891 C3899 0.930 . S
H3892 C3902 0.930 . S
H3893 C3903 0.930 . S
C3894 H3888 0.930 . S
C3894 C3895 1.355 . S
C3894 C3896 1.415 . S
C3895 C3894 1.355 . S
C3895 C3897 1.419 . S
C3896 C3894 1.415 . S
C3896 C3901 1.425 . S
C3896 C3903 1.409 . S
C3897 H3889 0.930 . S
C3897 C3895 1.419 . S
C3897 C3898 1.362 . S
C3898 H3890 0.930 . S
C3898 C3897 1.362 . S
C3898 C3901 1.409 . S
C3899 H3891 0.930 . S
C3899 C3900 1.355 . S
C3899 C3901 1.415 . S
C3900 C3899 1.355 . S
C3900 C3902 1.419 . S
C3901 C3896 1.425 . S
C3901 C3898 1.409 . S
C3901 C3899 1.415 . S
C3902 H3892 0.930 . S
C3902 C3900 1.419 . S
C3902 C3903 1.362 . S
C3903 H3893 0.930 . S
C3903 C3896 1.409 . S
C3903 C3902 1.362 . S
H3904 C3910 0.930 . S
H3905 C3913 0.930 . S
H3906 C3914 0.930 . S
H3907 C3915 0.930 . S
H3908 C3918 0.930 . S
H3909 C3919 0.930 . S
C3910 H3904 0.930 . S
C3910 C3911 1.355 . S
C3910 C3912 1.415 . S
C3911 C3910 1.355 . S
C3911 C3913 1.419 . S
C3912 C3910 1.415 . S
C3912 C3917 1.425 . S
C3912 C3919 1.409 . S
C3913 H3905 0.930 . S
C3913 C3911 1.419 . S
C3913 C3914 1.362 . S
C3914 H3906 0.930 . S
C3914 C3913 1.362 . S
C3914 C3917 1.409 . S
C3915 H3907 0.930 . S
C3915 C3916 1.355 . S
C3915 C3917 1.415 . S
C3916 C3915 1.355 . S
C3916 C3918 1.419 . S
C3917 C3912 1.425 . S
C3917 C3914 1.409 . S
C3917 C3915 1.415 . S
C3918 H3908 0.930 . S
C3918 C3916 1.419 . S
C3918 C3919 1.362 . S
C3919 H3909 0.930 . S
C3919 C3912 1.409 . S
C3919 C3918 1.362 . S
H3920 C3926 0.930 . S
H3921 C3929 0.930 . S
H3922 C3930 0.930 . S
H3923 C3931 0.930 . S
H3924 C3934 0.930 . S
H3925 C3935 0.930 . S
C3926 H3920 0.930 . S
C3926 C3927 1.355 . S
C3926 C3928 1.415 . S
C3927 C3926 1.355 . S
C3927 C3929 1.419 . S
C3928 C3926 1.415 . S
C3928 C3933 1.425 . S
C3928 C3935 1.409 . S
C3929 H3921 0.930 . S
C3929 C3927 1.419 . S
C3929 C3930 1.362 . S
C3930 H3922 0.930 . S
C3930 C3929 1.362 . S
C3930 C3933 1.409 . S
C3931 H3923 0.930 . S
C3931 C3932 1.355 . S
C3931 C3933 1.415 . S
C3932 C3931 1.355 . S
C3932 C3934 1.419 . S
C3933 C3928 1.425 . S
C3933 C3930 1.409 . S
C3933 C3931 1.415 . S
C3934 H3924 0.930 . S
C3934 C3932 1.419 . S
C3934 C3935 1.362 . S
C3935 H3925 0.930 . S
C3935 C3928 1.409 . S
C3935 C3934 1.362 . S
H3936 C3942 0.930 . S
H3937 C3945 0.930 . S
H3938 C3946 0.930 . S
H3939 C3947 0.930 . S
H3940 C3950 0.930 . S
H3941 C3951 0.930 . S
C3942 H3936 0.930 . S
C3942 C3943 1.355 . S
C3942 C3944 1.415 . S
C3943 C3942 1.355 . S
C3943 C3945 1.419 . S
C3944 C3942 1.415 . S
C3944 C3949 1.425 . S
C3944 C3951 1.409 . S
C3945 H3937 0.930 . S
C3945 C3943 1.419 . S
C3945 C3946 1.362 . S
C3946 H3938 0.930 . S
C3946 C3945 1.362 . S
C3946 C3949 1.409 . S
C3947 H3939 0.930 . S
C3947 C3948 1.355 . S
C3947 C3949 1.415 . S
C3948 C3947 1.355 . S
C3948 C3950 1.419 . S
C3949 C3944 1.425 . S
C3949 C3946 1.409 . S
C3949 C3947 1.415 . S
C3950 H3940 0.930 . S
C3950 C3948 1.419 . S
C3950 C3951 1.362 . S
C3951 H3941 0.930 . S
C3951 C3944 1.409 . S
C3951 C3950 1.362 . S
H3952 C3958 0.930 . S
H3953 C3961 0.930 . S
H3954 C3962 0.930 . S
H3955 C3963 0.930 . S
H3956 C3966 0.930 . S
H3957 C3967 0.930 . S
C3958 H3952 0.930 . S
C3958 C3959 1.355 . S
C3958 C3960 1.415 . S
C3959 C3958 1.355 . S
C3959 C3961 1.419 . S
C3960 C3958 1.415 . S
C3960 C3965 1.425 . S
C3960 C3967 1.409 . S
C3961 H3953 0.930 . S
C3961 C3959 1.419 . S
C3961 C3962 1.362 . S
C3962 H3954 0.930 . S
C3962 C3961 1.362 . S
C3962 C3965 1.409 . S
C3963 H3955 0.930 . S
C3963 C3964 1.355 . S
C3963 C3965 1.415 . S
C3964 C3963 1.355 . S
C3964 C3966 1.419 . S
C3965 C3960 1.425 . S
C3965 C3962 1.409 . S
C3965 C3963 1.415 . S
C3966 H3956 0.930 . S
C3966 C3964 1.419 . S
C3966 C3967 1.362 . S
C3967 H3957 0.930 . S
C3967 C3960 1.409 . S
C3967 C3966 1.362 . S
H3968 C3974 0.930 . S
H3969 C3977 0.930 . S
H3970 C3978 0.930 . S
H3971 C3979 0.930 . S
H3972 C3982 0.930 . S
H3973 C3983 0.930 . S
C3974 H3968 0.930 . S
C3974 C3975 1.355 . S
C3974 C3976 1.415 . S
C3975 C3974 1.355 . S
C3975 C3977 1.419 . S
C3976 C3974 1.415 . S
C3976 C3981 1.425 . S
C3976 C3983 1.409 . S
C3977 H3969 0.930 . S
C3977 C3975 1.419 . S
C3977 C3978 1.362 . S
C3978 H3970 0.930 . S
C3978 C3977 1.362 . S
C3978 C3981 1.409 . S
C3979 H3971 0.930 . S
C3979 C3980 1.355 . S
C3979 C3981 1.415 . S
C3980 C3979 1.355 . S
C3980 C3982 1.419 . S
C3981 C3976 1.425 . S
C3981 C3978 1.409 . S
C3981 C3979 1.415 . S
C3982 H3972 0.930 . S
C3982 C3980 1.419 . S
C3982 C3983 1.362 . S
C3983 H3973 0.930 . S
C3983 C3976 1.409 . S
C3983 C3982 1.362 . S
H3984 C3990 0.930 . S
H3985 C3993 0.930 . S
H3986 C3994 0.930 . S
H3987 C3995 0.930 . S
H3988 C3998 0.930 . S
H3989 C3999 0.930 . S
C3990 H3984 0.930 . S
C3990 C3991 1.355 . S
C3990 C3992 1.415 . S
C3991 C3990 1.355 . S
C3991 C3993 1.419 . S
C3992 C3990 1.415 . S
C3992 C3997 1.425 . S
C3992 C3999 1.409 . S
C3993 H3985 0.930 . S
C3993 C3991 1.419 . S
C3993 C3994 1.362 . S
C3994 H3986 0.930 . S
C3994 C3993 1.362 . S
C3994 C3997 1.409 . S
C3995 H3987 0.930 . S
C3995 C3996 1.355 . S
C3995 C3997 1.415 . S
C3996 C3995 1.355 . S
C3996 C3998 1.419 . S
C3997 C3992 1.425 . S
C3997 C3994 1.409 . S
C3997 C3995 1.415 . S
C3998 H3988 0.930 . S
C3998 C3996 1.419 . S
C3998 C3999 1.362 . S
C3999 H3989 0.930 . S
C3999 C3992 1.409 . S
C3999 C3998 1.362 . S
H4000 C4006 0.930 . S
H4001 C4009 0.930 . S
H4002 C4010 0.930 . S
H4003 C4011 0.930 . S
H4004 C4014 0.930 . S
H4005 C4015 0.930 . S
C4006 H4000 0.930 . S
C4006 C4007 1.355 . S
C4006 C4008 1.415 . S
C4007 C4006 1.355 . S
C4007 C4009 1.419 . S
C4008 C4006 1.415 . S
C4008 C4013 1.425 . S
C4008 C4015 1.409 . S
C4009 H4001 0.930 . S
C4009 C4007 1.419 . S
C4009 C4010 1.362 . S
C4010 H4002 0.930 . S
C4010 C4009 1.362 . S
C4010 C4013 1.409 . S
C4011 H4003 0.930 . S
C4011 C4012 1.355 . S
C4011 C4013 1.415 . S
C4012 C4011 1.355 . S
C4012 C4014 1.419 . S
C4013 C4008 1.425 . S
C4013 C4010 1.409 . S
C4013 C4011 1.415 . S
C4014 H4004 0.930 . S
C4014 C4012 1.419 . S
C4014 C4015 1.362 . S
C4015 H4005 0.930 . S
C4015 C4008 1.409 . S
C4015 C4014 1.362 . S
H4016 C4022 0.930 . S
H4017 C4025 0.930 . S
H4018 C4026 0.930 . S
H4019 C4027 0.930 . S
H4020 C4030 0.930 . S
H4021 C4031 0.930 . S
C4022 H4016 0.930 . S
C4022 C4023 1.355 . S
C4022 C4024 1.415 . S
C4023 C4022 1.355 . S
C4023 C4025 1.419 . S
C4024 C4022 1.415 . S
C4024 C4029 1.425 . S
C4024 C4031 1.409 . S
C4025 H4017 0.930 . S
C4025 C4023 1.419 . S
C4025 C4026 1.362 . S
C4026 H4018 0.930 . S
C4026 C4025 1.362 . S
C4026 C4029 1.409 . S
C4027 H4019 0.930 . S
C4027 C4028 1.355 . S
C4027 C4029 1.415 . S
C4028 C4027 1.355 . S
C4028 C4030 1.419 . S
C4029 C4024 1.425 . S
C4029 C4026 1.409 . S
C4029 C4027 1.415 . S
C4030 H4020 0.930 . S
C4030 C4028 1.419 . S
C4030 C4031 1.362 . S
C4031 H4021 0.930 . S
C4031 C4024 1.409 . S
C4031 C4030 1.362 . S
H4032 C4038 0.930 . S
H4033 C4041 0.930 . S
H4034 C4042 0.930 . S
H4035 C4043 0.930 . S
H4036 C4046 0.930 . S
H4037 C4047 0.930 . S
C4038 H4032 0.930 . S
C4038 C4039 1.355 . S
C4038 C4040 1.415 . S
C4039 C4038 1.355 . S
C4039 C4041 1.419 . S
C4040 C4038 1.415 . S
C4040 C4045 1.425 . S
C4040 C4047 1.409 . S
C4041 H4033 0.930 . S
C4041 C4039 1.419 . S
C4041 C4042 1.362 . S
C4042 H4034 0.930 . S
C4042 C4041 1.362 . S
C4042 C4045 1.409 . S
C4043 H4035 0.930 . S
C4043 C4044 1.355 . S
C4043 C4045 1.415 . S
C4044 C4043 1.355 . S
C4044 C4046 1.419 . S
C4045 C4040 1.425 . S
C4045 C4042 1.409 . S
C4045 C4043 1.415 . S
C4046 H4036 0.930 . S
C4046 C4044 1.419 . S
C4046 C4047 1.362 . S
C4047 H4037 0.930 . S
C4047 C4040 1.409 . S
C4047 C4046 1.362 . S
H4048 C4054 0.930 . S
H4049 C4057 0.930 . S
H4050 C4058 0.930 . S
H4051 C4059 0.930 . S
H4052 C4062 0.930 . S
H4053 C4063 0.930 . S
C4054 H4048 0.930 . S
C4054 C4055 1.355 . S
C4054 C4056 1.415 . S
C4055 C4054 1.355 . S
C4055 C4057 1.419 . S
C4056 C4054 1.415 . S
C4056 C4061 1.425 . S
C4056 C4063 1.409 . S
C4057 H4049 0.930 . S
C4057 C4055 1.419 . S
C4057 C4058 1.362 . S
C4058 H4050 0.930 . S
C4058 C4057 1.362 . S
C4058 C4061 1.409 . S
C4059 H4051 0.930 . S
C4059 C4060 1.355 . S
C4059 C4061 1.415 . S
C4060 C4059 1.355 . S
C4060 C4062 1.419 . S
C4061 C4056 1.425 . S
C4061 C4058 1.409 . S
C4061 C4059 1.415 . S
C4062 H4052 0.930 . S
C4062 C4060 1.419 . S
C4062 C4063 1.362 . S
C4063 H4053 0.930 . S
C4063 C4056 1.409 . S
C4063 C4062 1.362 . S
H4064 C4070 0.930 . S
H4065 C4073 0.930 . S
H4066 C4074 0.930 . S
H4067 C4075 0.930 . S
H4068 C4078 0.930 . S
H4069 C4079 0.930 . S
C4070 H4064 0.930 . S
C4070 C4071 1.355 . S
C4070 C4072 1.415 . S
C4071 C4070 1.355 . S
C4071 C4073 1.419 . S
C4072 C4070 1.415 . S
C4072 C4077 1.425 . S
C4072 C4079 1.409 . S
C4073 H4065 0.930 . S
C4073 C4071 1.419 . S
C4073 C4074 1.362 . S
C4074 H4066 0.930 . S
C4074 C4073 1.362 . S
C4074 C4077 1.409 . S
C4075 H4067 0.930 . S
C4075 C4076 1.355 . S
C4075 C4077 1.415 . S
C4076 C4075 1.355 . S
C4076 C4078 1.419 . S
C4077 C4072 1.425 . S
C4077 C4074 1.409 . S
C4077 C4075 1.415 . S
C4078 H4068 0.930 . S
C4078 C4076 1.419 . S
C4078 C4079 1.362 . S
C4079 H4069 0.930 . S
C4079 C4072 1.409 . S
C4079 C4078 1.362 . S
H4080 C4086 0.930 . S
H4081 C4089 0.930 . S
H4082 C4090 0.930 . S
H4083 C4091 0.930 . S
H4084 C4094 0.930 . S
H4085 C4095 0.930 . S
C4086 H4080 0.930 . S
C4086 C4087 1.355 . S
C4086 C4088 1.415 . S
C4087 C4086 1.355 . S
C4087 C4089 1.419 . S
C4088 C4086 1.415 . S
C4088 C4093 1.425 . S
C4088 C4095 1.409 . S
C4089 H4081 0.930 . S
C4089 C4087 1.419 . S
C4089 C4090 1.362 . S
C4090 H4082 0.930 . S
C4090 C4089 1.362 . S
C4090 C4093 1.409 . S
C4091 H4083 0.930 . S
C4091 C4092 1.355 . S
C4091 C4093 1.415 . S
C4092 C4091 1.355 . S
C4092 C4094 1.419 . S
C4093 C4088 1.425 . S
C4093 C4090 1.409 . S
C4093 C4091 1.415 . S
C4094 H4084 0.930 . S
C4094 C4092 1.419 . S
C4094 C4095 1.362 . S
C4095 H4085 0.930 . S
C4095 C4088 1.409 . S
C4095 C4094 1.362 . S
H4096 C4102 0.930 . S
H4097 C4105 0.930 . S
H4098 C4106 0.930 . S
H4099 C4107 0.930 . S
H4100 C4110 0.930 . S
H4101 C4111 0.930 . S
C4102 H4096 0.930 . S
C4102 C4103 1.355 . S
C4102 C4104 1.415 . S
C4103 C4102 1.355 . S
C4103 C4105 1.419 . S
C4104 C4102 1.415 . S
C4104 C4109 1.425 . S
C4104 C4111 1.409 . S
C4105 H4097 0.930 . S
C4105 C4103 1.419 . S
C4105 C4106 1.362 . S
C4106 H4098 0.930 . S
C4106 C4105 1.362 . S
C4106 C4109 1.409 . S
C4107 H4099 0.930 . S
C4107 C4108 1.355 . S
C4107 C4109 1.415 . S
C4108 C4107 1.355 . S
C4108 C4110 1.419 . S
C4109 C4104 1.425 . S
C4109 C4106 1.409 . S
C4109 C4107 1.415 . S
C4110 H4100 0.930 . S
C4110 C4108 1.419 . S
C4110 C4111 1.362 . S
C4111 H4101 0.930 . S
C4111 C4104 1.409 . S
C4111 C4110 1.362 . S
H4112 C4118 0.930 . S
H4113 C4121 0.930 . S
H4114 C4122 0.930 . S
H4115 C4123 0.930 . S
H4116 C4126 0.930 . S
H4117 C4127 0.930 . S
C4118 H4112 0.930 . S
C4118 C4119 1.355 . S
C4118 C4120 1.415 . S
C4119 C4118 1.355 . S
C4119 C4121 1.419 . S
C4120 C4118 1.415 . S
C4120 C4125 1.425 . S
C4120 C4127 1.409 . S
C4121 H4113 0.930 . S
C4121 C4119 1.419 . S
C4121 C4122 1.362 . S
C4122 H4114 0.930 . S
C4122 C4121 1.362 . S
C4122 C4125 1.409 . S
C4123 H4115 0.930 . S
C4123 C4124 1.355 . S
C4123 C4125 1.415 . S
C4124 C4123 1.355 . S
C4124 C4126 1.419 . S
C4125 C4120 1.425 . S
C4125 C4122 1.409 . S
C4125 C4123 1.415 . S
C4126 H4116 0.930 . S
C4126 C4124 1.419 . S
C4126 C4127 1.362 . S
C4127 H4117 0.930 . S
C4127 C4120 1.409 . S
C4127 C4126 1.362 . S
H4128 C4134 0.977 . S
H4129 C4137 0.930 . S
H4130 C4138 0.930 . S
H4131 C4139 0.930 . S
H4132 C4142 0.930 . S
H4133 C4143 0.930 . S
C4134 H4128 0.977 . S
C4134 C4135 1.355 . S
C4134 C4136 1.415 . S
C4135 C4134 1.355 . S
C4135 C4137 1.419 . S
C4136 C4134 1.415 . S
C4136 C4141 1.425 . S
C4136 C4143 1.409 . S
C4137 H4129 0.930 . S
C4137 C4135 1.419 . S
C4137 C4138 1.362 . S
C4138 H4130 0.930 . S
C4138 C4137 1.362 . S
C4138 C4141 1.409 . S
C4139 H4131 0.930 . S
C4139 C4140 1.355 . S
C4139 C4141 1.415 . S
C4140 C4139 1.355 . S
C4140 C4142 1.419 . S
C4141 C4136 1.425 . S
C4141 C4138 1.409 . S
C4141 C4139 1.415 . S
C4142 H4132 0.930 . S
C4142 C4140 1.419 . S
C4142 C4143 1.362 . S
C4143 H4133 0.930 . S
C4143 C4136 1.409 . S
C4143 C4142 1.362 . S
H4144 C4150 0.930 . S
H4145 C4153 0.930 . S
H4146 C4154 0.930 . S
H4147 C4155 0.930 . S
H4148 C4158 0.930 . S
H4149 C4159 0.930 . S
C4150 H4144 0.930 . S
C4150 C4151 1.355 . S
C4150 C4152 1.415 . S
C4151 C4150 1.355 . S
C4151 C4153 1.419 . S
C4152 C4150 1.415 . S
C4152 C4157 1.425 . S
C4152 C4159 1.409 . S
C4153 H4145 0.930 . S
C4153 C4151 1.419 . S
C4153 C4154 1.362 . S
C4154 H4146 0.930 . S
C4154 C4153 1.362 . S
C4154 C4157 1.409 . S
C4155 H4147 0.930 . S
C4155 C4156 1.355 . S
C4155 C4157 1.415 . S
C4156 C4155 1.355 . S
C4156 C4158 1.419 . S
C4157 C4152 1.425 . S
C4157 C4154 1.409 . S
C4157 C4155 1.415 . S
C4158 H4148 0.930 . S
C4158 C4156 1.419 . S
C4158 C4159 1.362 . S
C4159 H4149 0.930 . S
C4159 C4152 1.409 . S
C4159 C4158 1.362 . S
H4160 C4166 0.930 . S
H4161 C4169 0.930 . S
H4162 C4170 0.930 . S
H4163 C4171 0.930 . S
H4164 C4174 0.930 . S
H4165 C4175 0.930 . S
C4166 H4160 0.930 . S
C4166 C4167 1.355 . S
C4166 C4168 1.415 . S
C4167 C4166 1.355 . S
C4167 C4169 1.419 . S
C4168 C4166 1.415 . S
C4168 C4173 1.425 . S
C4168 C4175 1.409 . S
C4169 H4161 0.930 . S
C4169 C4167 1.419 . S
C4169 C4170 1.362 . S
C4170 H4162 0.930 . S
C4170 C4169 1.362 . S
C4170 C4173 1.409 . S
C4171 H4163 0.930 . S
C4171 C4172 1.355 . S
C4171 C4173 1.415 . S
C4172 C4171 1.355 . S
C4172 C4174 1.419 . S
C4173 C4168 1.425 . S
C4173 C4170 1.409 . S
C4173 C4171 1.415 . S
C4174 H4164 0.930 . S
C4174 C4172 1.419 . S
C4174 C4175 1.362 . S
C4175 H4165 0.930 . S
C4175 C4168 1.409 . S
C4175 C4174 1.362 . S
H4176 C4182 0.930 . S
H4177 C4185 0.930 . S
H4178 C4186 0.930 . S
H4179 C4187 0.930 . S
H4180 C4190 0.930 . S
H4181 C4191 0.930 . S
C4182 H4176 0.930 . S
C4182 C4183 1.355 . S
C4182 C4184 1.415 . S
C4183 C4182 1.355 . S
C4183 C4185 1.419 . S
C4184 C4182 1.415 . S
C4184 C4189 1.425 . S
C4184 C4191 1.409 . S
C4185 H4177 0.930 . S
C4185 C4183 1.419 . S
C4185 C4186 1.362 . S
C4186 H4178 0.930 . S
C4186 C4185 1.362 . S
C4186 C4189 1.409 . S
C4187 H4179 0.930 . S
C4187 C4188 1.355 . S
C4187 C4189 1.415 . S
C4188 C4187 1.355 . S
C4188 C4190 1.419 . S
C4189 C4184 1.425 . S
C4189 C4186 1.409 . S
C4189 C4187 1.415 . S
C4190 H4180 0.930 . S
C4190 C4188 1.419 . S
C4190 C4191 1.362 . S
C4191 H4181 0.930 . S
C4191 C4184 1.409 . S
C4191 C4190 1.362 . S
H4192 C4198 0.930 . S
H4193 C4201 0.930 . S
H4194 C4202 0.930 . S
H4195 C4203 0.930 . S
H4196 C4206 0.930 . S
H4197 C4207 0.930 . S
C4198 H4192 0.930 . S
C4198 C4199 1.355 . S
C4198 C4200 1.415 . S
C4199 C4198 1.355 . S
C4199 C4201 1.419 . S
C4200 C4198 1.415 . S
C4200 C4205 1.425 . S
C4200 C4207 1.409 . S
C4201 H4193 0.930 . S
C4201 C4199 1.419 . S
C4201 C4202 1.362 . S
C4202 H4194 0.930 . S
C4202 C4201 1.362 . S
C4202 C4205 1.409 . S
C4203 H4195 0.930 . S
C4203 C4204 1.355 . S
C4203 C4205 1.415 . S
C4204 C4203 1.355 . S
C4204 C4206 1.419 . S
C4205 C4200 1.425 . S
C4205 C4202 1.409 . S
C4205 C4203 1.415 . S
C4206 H4196 0.930 . S
C4206 C4204 1.419 . S
C4206 C4207 1.362 . S
C4207 H4197 0.930 . S
C4207 C4200 1.409 . S
C4207 C4206 1.362 . S
H4208 C4214 0.930 . S
H4209 C4217 0.930 . S
H4210 C4218 0.930 . S
H4211 C4219 0.930 . S
H4212 C4222 0.930 . S
H4213 C4223 0.930 . S
C4214 H4208 0.930 . S
C4214 C4215 1.355 . S
C4214 C4216 1.415 . S
C4215 C4214 1.355 . S
C4215 C4217 1.419 . S
C4216 C4214 1.415 . S
C4216 C4221 1.425 . S
C4216 C4223 1.409 . S
C4217 H4209 0.930 . S
C4217 C4215 1.419 . S
C4217 C4218 1.362 . S
C4218 H4210 0.930 . S
C4218 C4217 1.362 . S
C4218 C4221 1.409 . S
C4219 H4211 0.930 . S
C4219 C4220 1.355 . S
C4219 C4221 1.415 . S
C4220 C4219 1.355 . S
C4220 C4222 1.419 . S
C4221 C4216 1.425 . S
C4221 C4218 1.409 . S
C4221 C4219 1.415 . S
C4222 H4212 0.930 . S
C4222 C4220 1.419 . S
C4222 C4223 1.362 . S
C4223 H4213 0.930 . S
C4223 C4216 1.409 . S
C4223 C4222 1.362 . S
H4224 C4230 0.930 . S
H4225 C4233 0.930 . S
H4226 C4234 0.930 . S
H4227 C4235 0.930 . S
H4228 C4238 0.930 . S
H4229 C4239 0.930 . S
C4230 H4224 0.930 . S
C4230 C4231 1.355 . S
C4230 C4232 1.415 . S
C4231 C4230 1.355 . S
C4231 C4233 1.419 . S
C4232 C4230 1.415 . S
C4232 C4237 1.425 . S
C4232 C4239 1.409 . S
C4233 H4225 0.930 . S
C4233 C4231 1.419 . S
C4233 C4234 1.362 . S
C4234 H4226 0.930 . S
C4234 C4233 1.362 . S
C4234 C4237 1.409 . S
C4235 H4227 0.930 . S
C4235 C4236 1.355 . S
C4235 C4237 1.415 . S
C4236 C4235 1.355 . S
C4236 C4238 1.419 . S
C4237 C4232 1.425 . S
C4237 C4234 1.409 . S
C4237 C4235 1.415 . S
C4238 H4228 0.930 . S
C4238 C4236 1.419 . S
C4238 C4239 1.362 . S
C4239 H4229 0.930 . S
C4239 C4232 1.409 . S
C4239 C4238 1.362 . S
H4240 C4246 0.930 . S
H4241 C4249 0.930 . S
H4242 C4250 0.930 . S
H4243 C4251 0.930 . S
H4244 C4254 0.930 . S
H4245 C4255 0.930 . S
C4246 H4240 0.930 . S
C4246 C4247 1.355 . S
C4246 C4248 1.415 . S
C4247 C4246 1.355 . S
C4247 C4249 1.419 . S
C4248 C4246 1.415 . S
C4248 C4253 1.425 . S
C4248 C4255 1.409 . S
C4249 H4241 0.930 . S
C4249 C4247 1.419 . S
C4249 C4250 1.362 . S
C4250 H4242 0.930 . S
C4250 C4249 1.362 . S
C4250 C4253 1.409 . S
C4251 H4243 0.930 . S
C4251 C4252 1.355 . S
C4251 C4253 1.415 . S
C4252 C4251 1.355 . S
C4252 C4254 1.419 . S
C4253 C4248 1.425 . S
C4253 C4250 1.409 . S
C4253 C4251 1.415 . S
C4254 H4244 0.930 . S
C4254 C4252 1.419 . S
C4254 C4255 1.362 . S
C4255 H4245 0.930 . S
C4255 C4248 1.409 . S
C4255 C4254 1.362 . S
H4256 C4262 0.930 . S
H4257 C4265 0.930 1_554 S
H4258 C4266 0.930 . S
H4259 C4267 0.930 . S
H4260 C4270 0.930 . S
H4261 C4271 0.930 . S
C4262 H4256 0.930 . S
C4262 C4263 1.399 . S
C4262 C4264 1.415 . S
C4263 C4262 1.399 . S
C4263 C4265 1.428 . S
C4264 C4262 1.415 . S
C4264 C4269 1.425 . S
C4264 C4271 1.409 . S
C4265 H4257 0.930 1_556 S
C4265 C4263 1.428 . S
C4265 C4266 1.362 . S
C4266 H4258 0.930 . S
C4266 C4265 1.362 . S
C4266 C4269 1.409 . S
C4267 H4259 0.930 . S
C4267 C4268 1.355 . S
C4267 C4269 1.415 . S
C4268 C4267 1.355 . S
C4268 C4270 1.419 . S
C4269 C4264 1.425 . S
C4269 C4266 1.409 . S
C4269 C4267 1.415 . S
C4270 H4260 0.930 . S
C4270 C4268 1.419 . S
C4270 C4271 1.362 . S
C4271 H4261 0.930 . S
C4271 C4264 1.409 . S
C4271 C4270 1.362 . S
H4272 C4278 0.930 . S
H4273 C4281 0.930 . S
H4274 C4282 0.930 . S
H4275 C4283 0.930 . S
H4276 C4286 0.930 . S
H4277 C4287 0.930 . S
C4278 H4272 0.930 . S
C4278 C4279 1.355 . S
C4278 C4280 1.415 . S
C4279 C4278 1.355 . S
C4279 C4281 1.419 . S
C4280 C4278 1.415 . S
C4280 C4285 1.425 . S
C4280 C4287 1.409 . S
C4281 H4273 0.930 . S
C4281 C4279 1.419 . S
C4281 C4282 1.362 . S
C4282 H4274 0.930 . S
C4282 C4281 1.362 . S
C4282 C4285 1.409 . S
C4283 H4275 0.930 . S
C4283 C4284 1.355 . S
C4283 C4285 1.415 . S
C4284 C4283 1.355 . S
C4284 C4286 1.419 . S
C4285 C4280 1.425 . S
C4285 C4282 1.409 . S
C4285 C4283 1.415 . S
C4286 H4276 0.930 . S
C4286 C4284 1.419 . S
C4286 C4287 1.362 . S
C4287 H4277 0.930 . S
C4287 C4280 1.409 . S
C4287 C4286 1.362 . S
H4288 C4294 0.930 . S
H4289 C4297 0.930 . S
H4290 C4298 0.930 . S
H4291 C4299 0.930 . S
H4292 C4302 0.930 . S
H4293 C4303 0.930 . S
C4294 H4288 0.930 . S
C4294 C4295 1.355 . S
C4294 C4296 1.415 . S
C4295 C4294 1.355 . S
C4295 C4297 1.419 . S
C4296 C4294 1.415 . S
C4296 C4301 1.425 . S
C4296 C4303 1.409 . S
C4297 H4289 0.930 . S
C4297 C4295 1.419 . S
C4297 C4298 1.362 . S
C4298 H4290 0.930 . S
C4298 C4297 1.362 . S
C4298 C4301 1.409 . S
C4299 H4291 0.930 . S
C4299 C4300 1.355 . S
C4299 C4301 1.415 . S
C4300 C4299 1.355 . S
C4300 C4302 1.419 . S
C4301 C4296 1.425 . S
C4301 C4298 1.409 . S
C4301 C4299 1.415 . S
C4302 H4292 0.930 . S
C4302 C4300 1.419 . S
C4302 C4303 1.362 . S
C4303 H4293 0.930 . S
C4303 C4296 1.409 . S
C4303 C4302 1.362 . S
H4304 C4310 0.930 . S
H4305 C4313 0.930 . S
H4306 C4314 0.930 . S
H4307 C4315 0.930 . S
H4308 C4318 0.930 . S
H4309 C4319 0.930 . S
C4310 H4304 0.930 . S
C4310 C4311 1.355 . S
C4310 C4312 1.415 . S
C4311 C4310 1.355 . S
C4311 C4313 1.419 . S
C4312 C4310 1.415 . S
C4312 C4317 1.425 . S
C4312 C4319 1.409 . S
C4313 H4305 0.930 . S
C4313 C4311 1.419 . S
C4313 C4314 1.362 . S
C4314 H4306 0.930 . S
C4314 C4313 1.362 . S
C4314 C4317 1.409 . S
C4315 H4307 0.930 . S
C4315 C4316 1.355 . S
C4315 C4317 1.415 . S
C4316 C4315 1.355 . S
C4316 C4318 1.419 . S
C4317 C4312 1.425 . S
C4317 C4314 1.409 . S
C4317 C4315 1.415 . S
C4318 H4308 0.930 . S
C4318 C4316 1.419 . S
C4318 C4319 1.362 . S
C4319 H4309 0.930 . S
C4319 C4312 1.409 . S
C4319 C4318 1.362 . S
H4320 C4326 0.930 . S
H4321 C4329 0.930 . S
H4322 C4330 0.930 . S
H4323 C4331 0.930 . S
H4324 C4334 0.930 . S
H4325 C4335 0.930 . S
C4326 H4320 0.930 . S
C4326 C4327 1.355 . S
C4326 C4328 1.415 . S
C4327 C4326 1.355 . S
C4327 C4329 1.419 . S
C4328 C4326 1.415 . S
C4328 C4333 1.425 . S
C4328 C4335 1.409 . S
C4329 H4321 0.930 . S
C4329 C4327 1.419 . S
C4329 C4330 1.362 . S
C4330 H4322 0.930 . S
C4330 C4329 1.362 . S
C4330 C4333 1.409 . S
C4331 H4323 0.930 . S
C4331 C4332 1.355 . S
C4331 C4333 1.415 . S
C4332 C4331 1.355 . S
C4332 C4334 1.419 . S
C4333 C4328 1.425 . S
C4333 C4330 1.409 . S
C4333 C4331 1.415 . S
C4334 H4324 0.930 . S
C4334 C4332 1.419 . S
C4334 C4335 1.362 . S
C4335 H4325 0.930 . S
C4335 C4328 1.409 . S
C4335 C4334 1.362 . S
H4336 C4342 0.930 . S
H4337 C4345 0.930 . S
H4338 C4346 0.930 . S
H4339 C4347 0.930 . S
H4340 C4350 0.930 . S
H4341 C4351 0.930 . S
C4342 H4336 0.930 . S
C4342 C4343 1.355 . S
C4342 C4344 1.415 . S
C4343 C4342 1.355 . S
C4343 C4345 1.419 . S
C4344 C4342 1.415 . S
C4344 C4349 1.425 . S
C4344 C4351 1.409 . S
C4345 H4337 0.930 . S
C4345 C4343 1.419 . S
C4345 C4346 1.362 . S
C4346 H4338 0.930 . S
C4346 C4345 1.362 . S
C4346 C4349 1.409 . S
C4347 H4339 0.930 . S
C4347 C4348 1.355 . S
C4347 C4349 1.415 . S
C4348 C4347 1.355 . S
C4348 C4350 1.419 . S
C4349 C4344 1.425 . S
C4349 C4346 1.409 . S
C4349 C4347 1.415 . S
C4350 H4340 0.930 . S
C4350 C4348 1.419 . S
C4350 C4351 1.362 . S
C4351 H4341 0.930 . S
C4351 C4344 1.409 . S
C4351 C4350 1.362 . S
H4352 C4358 0.930 . S
H4353 C4361 0.930 . S
H4354 C4362 0.930 . S
H4355 C4363 0.930 . S
H4356 C4366 0.930 . S
H4357 C4367 0.930 . S
C4358 H4352 0.930 . S
C4358 C4359 1.355 . S
C4358 C4360 1.415 . S
C4359 C4358 1.355 . S
C4359 C4361 1.419 . S
C4360 C4358 1.415 . S
C4360 C4365 1.425 . S
C4360 C4367 1.409 . S
C4361 H4353 0.930 . S
C4361 C4359 1.419 . S
C4361 C4362 1.362 . S
C4362 H4354 0.930 . S
C4362 C4361 1.362 . S
C4362 C4365 1.409 . S
C4363 H4355 0.930 . S
C4363 C4364 1.355 . S
C4363 C4365 1.415 . S
C4364 C4363 1.355 . S
C4364 C4366 1.419 . S
C4365 C4360 1.425 . S
C4365 C4362 1.409 . S
C4365 C4363 1.415 . S
C4366 H4356 0.930 . S
C4366 C4364 1.419 . S
C4366 C4367 1.362 . S
C4367 H4357 0.930 . S
C4367 C4360 1.409 . S
C4367 C4366 1.362 . S
H4368 C4374 0.930 . S
H4369 C4377 0.930 . S
H4370 C4378 0.930 . S
H4371 C4379 0.930 . S
H4372 C4382 0.930 . S
H4373 C4383 0.930 . S
C4374 H4368 0.930 . S
C4374 C4375 1.355 . S
C4374 C4376 1.415 . S
C4375 C4374 1.355 . S
C4375 C4377 1.419 . S
C4376 C4374 1.415 . S
C4376 C4381 1.425 . S
C4376 C4383 1.409 . S
C4377 H4369 0.930 . S
C4377 C4375 1.419 . S
C4377 C4378 1.362 . S
C4378 H4370 0.930 . S
C4378 C4377 1.362 . S
C4378 C4381 1.409 . S
C4379 H4371 0.930 . S
C4379 C4380 1.355 . S
C4379 C4381 1.415 . S
C4380 C4379 1.355 . S
C4380 C4382 1.419 . S
C4381 C4376 1.425 . S
C4381 C4378 1.409 . S
C4381 C4379 1.415 . S
C4382 H4372 0.930 . S
C4382 C4380 1.419 . S
C4382 C4383 1.362 . S
C4383 H4373 0.930 . S
C4383 C4376 1.409 . S
C4383 C4382 1.362 . S
H4384 C4390 0.930 . S
H4385 C4393 0.930 . S
H4386 C4394 0.930 . S
H4387 C4395 0.930 . S
H4388 C4398 0.930 . S
H4389 C4399 0.930 . S
C4390 H4384 0.930 . S
C4390 C4391 1.355 . S
C4390 C4392 1.415 . S
C4391 C4390 1.355 . S
C4391 C4393 1.419 . S
C4392 C4390 1.415 . S
C4392 C4397 1.425 . S
C4392 C4399 1.409 . S
C4393 H4385 0.930 . S
C4393 C4391 1.419 . S
C4393 C4394 1.362 . S
C4394 H4386 0.930 . S
C4394 C4393 1.362 . S
C4394 C4397 1.409 . S
C4395 H4387 0.930 . S
C4395 C4396 1.355 . S
C4395 C4397 1.415 . S
C4396 C4395 1.355 . S
C4396 C4398 1.419 . S
C4397 C4392 1.425 . S
C4397 C4394 1.409 . S
C4397 C4395 1.415 . S
C4398 H4388 0.930 . S
C4398 C4396 1.419 . S
C4398 C4399 1.362 . S
C4399 H4389 0.930 . S
C4399 C4392 1.409 . S
C4399 C4398 1.362 . S
H4400 C4406 0.930 . S
H4401 C4409 0.930 . S
H4402 C4410 0.930 . S
H4403 C4411 0.930 . S
H4404 C4414 0.930 . S
H4405 C4415 0.930 . S
C4406 H4400 0.930 . S
C4406 C4407 1.355 . S
C4406 C4408 1.415 . S
C4407 C4406 1.355 . S
C4407 C4409 1.419 . S
C4408 C4406 1.415 . S
C4408 C4413 1.425 . S
C4408 C4415 1.409 . S
C4409 H4401 0.930 . S
C4409 C4407 1.419 . S
C4409 C4410 1.362 . S
C4410 H4402 0.930 . S
C4410 C4409 1.362 . S
C4410 C4413 1.409 . S
C4411 H4403 0.930 . S
C4411 C4412 1.355 . S
C4411 C4413 1.415 . S
C4412 C4411 1.355 . S
C4412 C4414 1.419 . S
C4413 C4408 1.425 . S
C4413 C4410 1.409 . S
C4413 C4411 1.415 . S
C4414 H4404 0.930 . S
C4414 C4412 1.419 . S
C4414 C4415 1.362 . S
C4415 H4405 0.930 . S
C4415 C4408 1.409 . S
C4415 C4414 1.362 . S
H4416 C4422 0.930 . S
H4417 C4425 0.930 . S
H4418 C4426 0.930 . S
H4419 C4427 0.930 . S
H4420 C4430 0.930 . S
H4421 C4431 0.930 . S
C4422 H4416 0.930 . S
C4422 C4423 1.355 . S
C4422 C4424 1.415 . S
C4423 C4422 1.355 . S
C4423 C4425 1.419 . S
C4424 C4422 1.415 . S
C4424 C4429 1.425 . S
C4424 C4431 1.409 . S
C4425 H4417 0.930 . S
C4425 C4423 1.419 . S
C4425 C4426 1.362 . S
C4426 H4418 0.930 . S
C4426 C4425 1.362 . S
C4426 C4429 1.409 . S
C4427 H4419 0.930 . S
C4427 C4428 1.355 . S
C4427 C4429 1.415 . S
C4428 C4427 1.355 . S
C4428 C4430 1.419 . S
C4429 C4424 1.425 . S
C4429 C4426 1.409 . S
C4429 C4427 1.415 . S
C4430 H4420 0.930 . S
C4430 C4428 1.419 . S
C4430 C4431 1.362 . S
C4431 H4421 0.930 . S
C4431 C4424 1.409 . S
C4431 C4430 1.362 . S
H4432 C4438 0.930 . S
H4433 C4441 0.930 . S
H4434 C4442 0.930 . S
H4435 C4443 0.930 . S
H4436 C4446 0.930 . S
H4437 C4447 0.930 . S
C4438 H4432 0.930 . S
C4438 C4439 1.355 . S
C4438 C4440 1.415 . S
C4439 C4438 1.355 . S
C4439 C4441 1.419 . S
C4440 C4438 1.415 . S
C4440 C4445 1.425 . S
C4440 C4447 1.409 . S
C4441 H4433 0.930 . S
C4441 C4439 1.419 . S
C4441 C4442 1.362 . S
C4442 H4434 0.930 . S
C4442 C4441 1.362 . S
C4442 C4445 1.409 . S
C4443 H4435 0.930 . S
C4443 C4444 1.355 . S
C4443 C4445 1.415 . S
C4444 C4443 1.355 . S
C4444 C4446 1.419 . S
C4445 C4440 1.425 . S
C4445 C4442 1.409 . S
C4445 C4443 1.415 . S
C4446 H4436 0.930 . S
C4446 C4444 1.419 . S
C4446 C4447 1.362 . S
C4447 H4437 0.930 . S
C4447 C4440 1.409 . S
C4447 C4446 1.362 . S
H4448 C4454 0.930 . S
H4449 C4457 0.930 . S
H4450 C4458 0.930 . S
H4451 C4459 0.930 . S
H4452 C4462 0.930 . S
H4453 C4463 0.930 . S
C4454 H4448 0.930 . S
C4454 C4455 1.355 . S
C4454 C4456 1.415 . S
C4455 C4454 1.355 . S
C4455 C4457 1.419 . S
C4456 C4454 1.415 . S
C4456 C4461 1.425 . S
C4456 C4463 1.409 . S
C4457 H4449 0.930 . S
C4457 C4455 1.419 . S
C4457 C4458 1.362 . S
C4458 H4450 0.930 . S
C4458 C4457 1.362 . S
C4458 C4461 1.409 . S
C4459 H4451 0.930 . S
C4459 C4460 1.355 . S
C4459 C4461 1.415 . S
C4460 C4459 1.355 . S
C4460 C4462 1.419 . S
C4461 C4456 1.425 . S
C4461 C4458 1.409 . S
C4461 C4459 1.415 . S
C4462 H4452 0.930 . S
C4462 C4460 1.419 . S
C4462 C4463 1.362 . S
C4463 H4453 0.930 . S
C4463 C4456 1.409 . S
C4463 C4462 1.362 . S
H4464 C4470 0.930 . S
H4465 C4473 0.930 . S
H4466 C4474 0.930 . S
H4467 C4475 0.930 . S
H4468 C4478 0.930 . S
H4469 C4479 0.930 . S
C4470 H4464 0.930 . S
C4470 C4471 1.355 . S
C4470 C4472 1.415 . S
C4471 C4470 1.355 . S
C4471 C4473 1.419 . S
C4472 C4470 1.415 . S
C4472 C4477 1.425 . S
C4472 C4479 1.409 . S
C4473 H4465 0.930 . S
C4473 C4471 1.419 . S
C4473 C4474 1.362 . S
C4474 H4466 0.930 . S
C4474 C4473 1.362 . S
C4474 C4477 1.409 . S
C4475 H4467 0.930 . S
C4475 C4476 1.355 . S
C4475 C4477 1.415 . S
C4476 C4475 1.355 . S
C4476 C4478 1.419 . S
C4477 C4472 1.425 . S
C4477 C4474 1.409 . S
C4477 C4475 1.415 . S
C4478 H4468 0.930 . S
C4478 C4476 1.419 . S
C4478 C4479 1.362 . S
C4479 H4469 0.930 . S
C4479 C4472 1.409 . S
C4479 C4478 1.362 . S
H4480 C4486 0.930 . S
H4481 C4489 0.930 . S
H4482 C4490 0.930 . S
H4483 C4491 0.930 . S
H4484 C4494 0.930 . S
H4485 C4495 0.930 . S
C4486 H4480 0.930 . S
C4486 C4487 1.355 . S
C4486 C4488 1.415 . S
C4487 C4486 1.355 . S
C4487 C4489 1.419 . S
C4488 C4486 1.415 . S
C4488 C4493 1.425 . S
C4488 C4495 1.409 . S
C4489 H4481 0.930 . S
C4489 C4487 1.419 . S
C4489 C4490 1.362 . S
C4490 H4482 0.930 . S
C4490 C4489 1.362 . S
C4490 C4493 1.409 . S
C4491 H4483 0.930 . S
C4491 C4492 1.355 . S
C4491 C4493 1.415 . S
C4492 C4491 1.355 . S
C4492 C4494 1.419 . S
C4493 C4488 1.425 . S
C4493 C4490 1.409 . S
C4493 C4491 1.415 . S
C4494 H4484 0.930 . S
C4494 C4492 1.419 . S
C4494 C4495 1.362 . S
C4495 H4485 0.930 . S
C4495 C4488 1.409 . S
C4495 C4494 1.362 . S
H4496 C4502 0.918 1_565 S
H4497 C4505 0.930 . S
H4498 C4506 0.930 . S
H4499 C4507 0.930 . S
H4500 C4510 0.930 . S
H4501 C4511 0.930 . S
C4502 H4496 0.918 1_545 S
C4502 C4503 1.355 1_545 S
C4502 C4504 1.415 . S
C4503 C4502 1.355 1_565 S
C4503 C4505 1.419 1_565 S
C4504 C4502 1.415 . S
C4504 C4509 1.425 . S
C4504 C4511 1.409 . S
C4505 H4497 0.930 . S
C4505 C4503 1.419 1_545 S
C4505 C4506 1.362 . S
C4506 H4498 0.930 . S
C4506 C4505 1.362 . S
C4506 C4509 1.409 . S
C4507 H4499 0.930 . S
C4507 C4508 1.355 . S
C4507 C4509 1.415 . S
C4508 C4507 1.355 . S
C4508 C4510 1.419 . S
C4509 C4504 1.425 . S
C4509 C4506 1.409 . S
C4509 C4507 1.415 . S
C4510 H4500 0.930 . S
C4510 C4508 1.419 . S
C4510 C4511 1.362 . S
C4511 H4501 0.930 . S
C4511 C4504 1.409 . S
C4511 C4510 1.362 . S
H4512 C4518 0.930 . S
H4513 C4521 0.930 . S
H4514 C4522 0.930 . S
H4515 C4523 0.930 . S
H4516 C4526 0.930 . S
H4517 C4527 0.930 . S
C4518 H4512 0.930 . S
C4518 C4519 1.355 . S
C4518 C4520 1.415 . S
C4519 C4518 1.355 . S
C4519 C4521 1.419 . S
C4520 C4518 1.415 . S
C4520 C4525 1.425 . S
C4520 C4527 1.409 . S
C4521 H4513 0.930 . S
C4521 C4519 1.419 . S
C4521 C4522 1.362 . S
C4522 H4514 0.930 . S
C4522 C4521 1.362 . S
C4522 C4525 1.409 . S
C4523 H4515 0.930 . S
C4523 C4524 1.355 . S
C4523 C4525 1.415 . S
C4524 C4523 1.355 . S
C4524 C4526 1.419 . S
C4525 C4520 1.425 . S
C4525 C4522 1.409 . S
C4525 C4523 1.415 . S
C4526 H4516 0.930 . S
C4526 C4524 1.419 . S
C4526 C4527 1.362 . S
C4527 H4517 0.930 . S
C4527 C4520 1.409 . S
C4527 C4526 1.362 . S
H4528 C4534 0.930 . S
H4529 C4537 0.930 . S
H4530 C4538 0.930 . S
H4531 C4539 0.930 . S
H4532 C4542 0.930 . S
H4533 C4543 0.930 . S
C4534 H4528 0.930 . S
C4534 C4535 1.355 . S
C4534 C4536 1.415 . S
C4535 C4534 1.355 . S
C4535 C4537 1.419 . S
C4536 C4534 1.415 . S
C4536 C4541 1.425 . S
C4536 C4543 1.409 . S
C4537 H4529 0.930 . S
C4537 C4535 1.419 . S
C4537 C4538 1.362 . S
C4538 H4530 0.930 . S
C4538 C4537 1.362 . S
C4538 C4541 1.409 . S
C4539 H4531 0.930 . S
C4539 C4540 1.355 . S
C4539 C4541 1.415 . S
C4540 C4539 1.355 . S
C4540 C4542 1.419 . S
C4541 C4536 1.425 . S
C4541 C4538 1.409 . S
C4541 C4539 1.415 . S
C4542 H4532 0.930 . S
C4542 C4540 1.419 . S
C4542 C4543 1.362 . S
C4543 H4533 0.930 . S
C4543 C4536 1.409 . S
C4543 C4542 1.362 . S
H4544 C4550 0.930 . S
H4545 C4553 0.930 . S
H4546 C4554 0.930 . S
H4547 C4555 0.930 . S
H4548 C4558 0.930 . S
H4549 C4559 0.930 . S
C4550 H4544 0.930 . S
C4550 C4551 1.355 . S
C4550 C4552 1.415 . S
C4551 C4550 1.355 . S
C4551 C4553 1.419 . S
C4552 C4550 1.415 . S
C4552 C4557 1.425 . S
C4552 C4559 1.409 . S
C4553 H4545 0.930 . S
C4553 C4551 1.419 . S
C4553 C4554 1.362 . S
C4554 H4546 0.930 . S
C4554 C4553 1.362 . S
C4554 C4557 1.409 . S
C4555 H4547 0.930 . S
C4555 C4556 1.355 . S
C4555 C4557 1.415 . S
C4556 C4555 1.355 . S
C4556 C4558 1.419 . S
C4557 C4552 1.425 . S
C4557 C4554 1.409 . S
C4557 C4555 1.415 . S
C4558 H4548 0.930 . S
C4558 C4556 1.419 . S
C4558 C4559 1.362 . S
C4559 H4549 0.930 . S
C4559 C4552 1.409 . S
C4559 C4558 1.362 . S
H4560 C4566 0.930 . S
H4561 C4569 0.930 . S
H4562 C4570 0.930 . S
H4563 C4571 0.930 . S
H4564 C4574 0.930 . S
H4565 C4575 0.930 . S
C4566 H4560 0.930 . S
C4566 C4567 1.355 . S
C4566 C4568 1.415 . S
C4567 C4566 1.355 . S
C4567 C4569 1.419 . S
C4568 C4566 1.415 . S
C4568 C4573 1.425 . S
C4568 C4575 1.409 . S
C4569 H4561 0.930 . S
C4569 C4567 1.419 . S
C4569 C4570 1.362 . S
C4570 H4562 0.930 . S
C4570 C4569 1.362 . S
C4570 C4573 1.409 . S
C4571 H4563 0.930 . S
C4571 C4572 1.355 . S
C4571 C4573 1.415 . S
C4572 C4571 1.355 . S
C4572 C4574 1.419 . S
C4573 C4568 1.425 . S
C4573 C4570 1.409 . S
C4573 C4571 1.415 . S
C4574 H4564 0.930 . S
C4574 C4572 1.419 . S
C4574 C4575 1.362 . S
C4575 H4565 0.930 . S
C4575 C4568 1.409 . S
C4575 C4574 1.362 . S
H4576 C4582 0.930 . S
H4577 C4585 0.930 . S
H4578 C4586 0.930 . S
H4579 C4587 0.930 . S
H4580 C4590 0.930 . S
H4581 C4591 0.930 . S
C4582 H4576 0.930 . S
C4582 C4583 1.355 . S
C4582 C4584 1.415 . S
C4583 C4582 1.355 . S
C4583 C4585 1.419 . S
C4584 C4582 1.415 . S
C4584 C4589 1.425 . S
C4584 C4591 1.409 . S
C4585 H4577 0.930 . S
C4585 C4583 1.419 . S
C4585 C4586 1.362 . S
C4586 H4578 0.930 . S
C4586 C4585 1.362 . S
C4586 C4589 1.409 . S
C4587 H4579 0.930 . S
C4587 C4588 1.355 . S
C4587 C4589 1.415 . S
C4588 C4587 1.355 . S
C4588 C4590 1.419 . S
C4589 C4584 1.425 . S
C4589 C4586 1.409 . S
C4589 C4587 1.415 . S
C4590 H4580 0.930 . S
C4590 C4588 1.419 . S
C4590 C4591 1.362 . S
C4591 H4581 0.930 . S
C4591 C4584 1.409 . S
C4591 C4590 1.362 . S
H4592 C4598 0.930 . S
H4593 C4601 0.930 . S
H4594 C4602 0.930 . S
H4595 C4603 0.930 . S
H4596 C4606 0.930 . S
H4597 C4607 0.930 . S
C4598 H4592 0.930 . S
C4598 C4599 1.355 . S
C4598 C4600 1.415 . S
C4599 C4598 1.355 . S
C4599 C4601 1.419 . S
C4600 C4598 1.415 . S
C4600 C4605 1.425 . S
C4600 C4607 1.409 . S
C4601 H4593 0.930 . S
C4601 C4599 1.419 . S
C4601 C4602 1.362 . S
C4602 H4594 0.930 . S
C4602 C4601 1.362 . S
C4602 C4605 1.409 . S
C4603 H4595 0.930 . S
C4603 C4604 1.355 . S
C4603 C4605 1.415 . S
C4604 C4603 1.355 . S
C4604 C4606 1.419 . S
C4605 C4600 1.425 . S
C4605 C4602 1.409 . S
C4605 C4603 1.415 . S
C4606 H4596 0.930 . S
C4606 C4604 1.419 . S
C4606 C4607 1.362 . S
C4607 H4597 0.930 . S
C4607 C4600 1.409 . S
C4607 C4606 1.362 . S
H4608 C4614 0.930 . S
H4609 C4617 0.930 . S
H4610 C4618 0.930 . S
H4611 C4619 0.930 . S
H4612 C4622 0.930 . S
H4613 C4623 0.930 . S
C4614 H4608 0.930 . S
C4614 C4615 1.355 . S
C4614 C4616 1.415 . S
C4615 C4614 1.355 . S
C4615 C4617 1.419 . S
C4616 C4614 1.415 . S
C4616 C4621 1.425 . S
C4616 C4623 1.409 . S
C4617 H4609 0.930 . S
C4617 C4615 1.419 . S
C4617 C4618 1.362 . S
C4618 H4610 0.930 . S
C4618 C4617 1.362 . S
C4618 C4621 1.409 . S
C4619 H4611 0.930 . S
C4619 C4620 1.355 . S
C4619 C4621 1.415 . S
C4620 C4619 1.355 . S
C4620 C4622 1.419 . S
C4621 C4616 1.425 . S
C4621 C4618 1.409 . S
C4621 C4619 1.415 . S
C4622 H4612 0.930 . S
C4622 C4620 1.419 . S
C4622 C4623 1.362 . S
C4623 H4613 0.930 . S
C4623 C4616 1.409 . S
C4623 C4622 1.362 . S
H4624 C4630 0.930 . S
H4625 C4633 0.930 . S
H4626 C4634 0.930 . S
H4627 C4635 0.930 . S
H4628 C4638 0.930 . S
H4629 C4639 0.930 . S
C4630 H4624 0.930 . S
C4630 C4631 1.355 . S
C4630 C4632 1.415 . S
C4631 C4630 1.355 . S
C4631 C4633 1.419 . S
C4632 C4630 1.415 . S
C4632 C4637 1.425 . S
C4632 C4639 1.409 . S
C4633 H4625 0.930 . S
C4633 C4631 1.419 . S
C4633 C4634 1.362 . S
C4634 H4626 0.930 . S
C4634 C4633 1.362 . S
C4634 C4637 1.409 . S
C4635 H4627 0.930 . S
C4635 C4636 1.355 . S
C4635 C4637 1.415 . S
C4636 C4635 1.355 . S
C4636 C4638 1.419 . S
C4637 C4632 1.425 . S
C4637 C4634 1.409 . S
C4637 C4635 1.415 . S
C4638 H4628 0.930 . S
C4638 C4636 1.419 . S
C4638 C4639 1.362 . S
C4639 H4629 0.930 . S
C4639 C4632 1.409 . S
C4639 C4638 1.362 . S
H4640 C4646 0.945 . S
H4641 C4649 0.930 . S
H4642 C4650 0.930 . S
H4643 C4651 0.930 . S
H4644 C4654 0.930 . S
H4645 C4655 0.930 . S
C4646 H4640 0.945 . S
C4646 C4647 1.355 . S
C4646 C4648 1.415 . S
C4647 C4646 1.355 . S
C4647 C4649 1.419 . S
C4648 C4646 1.415 . S
C4648 C4653 1.425 . S
C4648 C4655 1.409 . S
C4649 H4641 0.930 . S
C4649 C4647 1.419 . S
C4649 C4650 1.362 . S
C4650 H4642 0.930 . S
C4650 C4649 1.362 . S
C4650 C4653 1.409 . S
C4651 H4643 0.930 . S
C4651 C4652 1.355 . S
C4651 C4653 1.415 . S
C4652 C4651 1.355 . S
C4652 C4654 1.419 . S
C4653 C4648 1.425 . S
C4653 C4650 1.409 . S
C4653 C4651 1.415 . S
C4654 H4644 0.930 . S
C4654 C4652 1.419 . S
C4654 C4655 1.362 . S
C4655 H4645 0.930 . S
C4655 C4648 1.409 . S
C4655 C4654 1.362 . S
H4656 C4662 0.930 . S
H4657 C4665 0.930 . S
H4658 C4666 0.930 . S
H4659 C4667 0.930 . S
H4660 C4670 0.930 . S
H4661 C4671 0.930 . S
C4662 H4656 0.930 . S
C4662 C4663 1.355 . S
C4662 C4664 1.415 . S
C4663 C4662 1.355 . S
C4663 C4665 1.419 . S
C4664 C4662 1.415 . S
C4664 C4669 1.425 . S
C4664 C4671 1.409 . S
C4665 H4657 0.930 . S
C4665 C4663 1.419 . S
C4665 C4666 1.362 . S
C4666 H4658 0.930 . S
C4666 C4665 1.362 . S
C4666 C4669 1.409 . S
C4667 H4659 0.930 . S
C4667 C4668 1.355 . S
C4667 C4669 1.415 . S
C4668 C4667 1.355 . S
C4668 C4670 1.419 . S
C4669 C4664 1.425 . S
C4669 C4666 1.409 . S
C4669 C4667 1.415 . S
C4670 H4660 0.930 . S
C4670 C4668 1.419 . S
C4670 C4671 1.362 . S
C4671 H4661 0.930 . S
C4671 C4664 1.409 . S
C4671 C4670 1.362 . S
H4672 C4678 0.930 . S
H4673 C4681 0.930 . S
H4674 C4682 0.930 . S
H4675 C4683 0.930 . S
H4676 C4686 0.930 . S
H4677 C4687 0.930 . S
C4678 H4672 0.930 . S
C4678 C4679 1.355 . S
C4678 C4680 1.415 . S
C4679 C4678 1.355 . S
C4679 C4681 1.419 . S
C4680 C4678 1.415 . S
C4680 C4685 1.425 . S
C4680 C4687 1.409 . S
C4681 H4673 0.930 . S
C4681 C4679 1.419 . S
C4681 C4682 1.362 . S
C4682 H4674 0.930 . S
C4682 C4681 1.362 . S
C4682 C4685 1.409 . S
C4683 H4675 0.930 . S
C4683 C4684 1.355 . S
C4683 C4685 1.415 . S
C4684 C4683 1.355 . S
C4684 C4686 1.419 . S
C4685 C4680 1.425 . S
C4685 C4682 1.409 . S
C4685 C4683 1.415 . S
C4686 H4676 0.930 . S
C4686 C4684 1.419 . S
C4686 C4687 1.362 . S
C4687 H4677 0.930 . S
C4687 C4680 1.409 . S
C4687 C4686 1.362 . S
H4688 C4694 0.930 . S
H4689 C4697 0.930 . S
H4690 C4698 0.930 . S
H4691 C4699 0.930 . S
H4692 C4702 0.930 . S
H4693 C4703 0.930 . S
C4694 H4688 0.930 . S
C4694 C4695 1.355 . S
C4694 C4696 1.415 . S
C4695 C4694 1.355 . S
C4695 C4697 1.419 . S
C4696 C4694 1.415 . S
C4696 C4701 1.425 . S
C4696 C4703 1.409 . S
C4697 H4689 0.930 . S
C4697 C4695 1.419 . S
C4697 C4698 1.362 . S
C4698 H4690 0.930 . S
C4698 C4697 1.362 . S
C4698 C4701 1.409 . S
C4699 H4691 0.930 . S
C4699 C4700 1.355 . S
C4699 C4701 1.415 . S
C4700 C4699 1.355 . S
C4700 C4702 1.419 . S
C4701 C4696 1.425 . S
C4701 C4698 1.409 . S
C4701 C4699 1.415 . S
C4702 H4692 0.930 . S
C4702 C4700 1.419 . S
C4702 C4703 1.362 . S
C4703 H4693 0.930 . S
C4703 C4696 1.409 . S
C4703 C4702 1.362 . S
H4704 C4710 0.930 . S
H4705 C4713 0.930 . S
H4706 C4714 0.930 . S
H4707 C4715 0.930 . S
H4708 C4718 0.930 . S
H4709 C4719 0.930 . S
C4710 H4704 0.930 . S
C4710 C4711 1.355 . S
C4710 C4712 1.415 . S
C4711 C4710 1.355 . S
C4711 C4713 1.419 . S
C4712 C4710 1.415 . S
C4712 C4717 1.425 . S
C4712 C4719 1.409 . S
C4713 H4705 0.930 . S
C4713 C4711 1.419 . S
C4713 C4714 1.362 . S
C4714 H4706 0.930 . S
C4714 C4713 1.362 . S
C4714 C4717 1.409 . S
C4715 H4707 0.930 . S
C4715 C4716 1.355 . S
C4715 C4717 1.415 . S
C4716 C4715 1.355 . S
C4716 C4718 1.419 . S
C4717 C4712 1.425 . S
C4717 C4714 1.409 . S
C4717 C4715 1.415 . S
C4718 H4708 0.930 . S
C4718 C4716 1.419 . S
C4718 C4719 1.362 . S
C4719 H4709 0.930 . S
C4719 C4712 1.409 . S
C4719 C4718 1.362 . S
H4720 C4726 0.930 . S
H4721 C4729 0.930 . S
H4722 C4730 0.930 . S
H4723 C4731 0.930 . S
H4724 C4734 0.930 . S
H4725 C4735 0.930 . S
C4726 H4720 0.930 . S
C4726 C4727 1.355 . S
C4726 C4728 1.415 . S
C4727 C4726 1.355 . S
C4727 C4729 1.419 . S
C4728 C4726 1.415 . S
C4728 C4733 1.425 . S
C4728 C4735 1.409 . S
C4729 H4721 0.930 . S
C4729 C4727 1.419 . S
C4729 C4730 1.362 . S
C4730 H4722 0.930 . S
C4730 C4729 1.362 . S
C4730 C4733 1.409 . S
C4731 H4723 0.930 . S
C4731 C4732 1.355 . S
C4731 C4733 1.415 . S
C4732 C4731 1.355 . S
C4732 C4734 1.419 . S
C4733 C4728 1.425 . S
C4733 C4730 1.409 . S
C4733 C4731 1.415 . S
C4734 H4724 0.930 . S
C4734 C4732 1.419 . S
C4734 C4735 1.362 . S
C4735 H4725 0.930 . S
C4735 C4728 1.409 . S
C4735 C4734 1.362 . S
H4736 C4742 0.930 . S
H4737 C4745 0.930 . S
H4738 C4746 0.930 . S
H4739 C4747 0.930 . S
H4740 C4750 0.930 . S
H4741 C4751 0.930 . S
C4742 H4736 0.930 . S
C4742 C4743 1.355 . S
C4742 C4744 1.415 . S
C4743 C4742 1.355 . S
C4743 C4745 1.419 . S
C4744 C4742 1.415 . S
C4744 C4749 1.425 . S
C4744 C4751 1.409 . S
C4745 H4737 0.930 . S
C4745 C4743 1.419 . S
C4745 C4746 1.362 . S
C4746 H4738 0.930 . S
C4746 C4745 1.362 . S
C4746 C4749 1.409 . S
C4747 H4739 0.930 . S
C4747 C4748 1.355 . S
C4747 C4749 1.415 . S
C4748 C4747 1.355 . S
C4748 C4750 1.419 . S
C4749 C4744 1.425 . S
C4749 C4746 1.409 . S
C4749 C4747 1.415 . S
C4750 H4740 0.930 . S
C4750 C4748 1.419 . S
C4750 C4751 1.362 . S
C4751 H4741 0.930 . S
C4751 C4744 1.409 . S
C4751 C4750 1.362 . S
H4752 C4758 0.930 . S
H4753 C4761 0.930 . S
H4754 C4762 0.930 . S
H4755 C4763 0.930 . S
H4756 C4766 0.930 . S
H4757 C4767 0.930 . S
C4758 H4752 0.930 . S
C4758 C4759 1.355 . S
C4758 C4760 1.415 . S
C4759 C4758 1.355 . S
C4759 C4761 1.419 . S
C4760 C4758 1.415 . S
C4760 C4765 1.425 . S
C4760 C4767 1.409 . S
C4761 H4753 0.930 . S
C4761 C4759 1.419 . S
C4761 C4762 1.362 . S
C4762 H4754 0.930 . S
C4762 C4761 1.362 . S
C4762 C4765 1.409 . S
C4763 H4755 0.930 . S
C4763 C4764 1.355 . S
C4763 C4765 1.415 . S
C4764 C4763 1.355 . S
C4764 C4766 1.419 . S
C4765 C4760 1.425 . S
C4765 C4762 1.409 . S
C4765 C4763 1.415 . S
C4766 H4756 0.930 . S
C4766 C4764 1.419 . S
C4766 C4767 1.362 . S
C4767 H4757 0.930 . S
C4767 C4760 1.409 . S
C4767 C4766 1.362 . S
H4768 C4774 0.930 . S
H4769 C4777 0.930 . S
H4770 C4778 0.930 . S
H4771 C4779 0.930 . S
H4772 C4782 0.930 . S
H4773 C4783 0.930 . S
C4774 H4768 0.930 . S
C4774 C4775 1.355 . S
C4774 C4776 1.415 . S
C4775 C4774 1.355 . S
C4775 C4777 1.419 . S
C4776 C4774 1.415 . S
C4776 C4781 1.425 . S
C4776 C4783 1.409 . S
C4777 H4769 0.930 . S
C4777 C4775 1.419 . S
C4777 C4778 1.362 . S
C4778 H4770 0.930 . S
C4778 C4777 1.362 . S
C4778 C4781 1.409 . S
C4779 H4771 0.930 . S
C4779 C4780 1.355 . S
C4779 C4781 1.415 . S
C4780 C4779 1.355 . S
C4780 C4782 1.419 . S
C4781 C4776 1.425 . S
C4781 C4778 1.409 . S
C4781 C4779 1.415 . S
C4782 H4772 0.930 . S
C4782 C4780 1.419 . S
C4782 C4783 1.362 . S
C4783 H4773 0.930 . S
C4783 C4776 1.409 . S
C4783 C4782 1.362 . S
H4784 C4790 0.930 . S
H4785 C4793 0.930 . S
H4786 C4794 0.930 . S
H4787 C4795 0.930 . S
H4788 C4798 0.930 . S
H4789 C4799 0.930 . S
C4790 H4784 0.930 . S
C4790 C4791 1.355 . S
C4790 C4792 1.415 . S
C4791 C4790 1.355 . S
C4791 C4793 1.419 . S
C4792 C4790 1.415 . S
C4792 C4797 1.425 . S
C4792 C4799 1.409 . S
C4793 H4785 0.930 . S
C4793 C4791 1.419 . S
C4793 C4794 1.362 . S
C4794 H4786 0.930 . S
C4794 C4793 1.362 . S
C4794 C4797 1.409 . S
C4795 H4787 0.930 . S
C4795 C4796 1.355 . S
C4795 C4797 1.415 . S
C4796 C4795 1.355 . S
C4796 C4798 1.419 . S
C4797 C4792 1.425 . S
C4797 C4794 1.409 . S
C4797 C4795 1.415 . S
C4798 H4788 0.930 . S
C4798 C4796 1.419 . S
C4798 C4799 1.362 . S
C4799 H4789 0.930 . S
C4799 C4792 1.409 . S
C4799 C4798 1.362 . S
H4800 C4806 0.930 . S
H4801 C4809 0.930 . S
H4802 C4810 0.930 . S
H4803 C4811 0.930 . S
H4804 C4814 0.930 . S
H4805 C4815 0.930 . S
C4806 H4800 0.930 . S
C4806 C4807 1.355 . S
C4806 C4808 1.415 . S
C4807 C4806 1.355 . S
C4807 C4809 1.419 . S
C4808 C4806 1.415 . S
C4808 C4813 1.425 . S
C4808 C4815 1.409 . S
C4809 H4801 0.930 . S
C4809 C4807 1.419 . S
C4809 C4810 1.362 . S
C4810 H4802 0.930 . S
C4810 C4809 1.362 . S
C4810 C4813 1.409 . S
C4811 H4803 0.930 . S
C4811 C4812 1.355 . S
C4811 C4813 1.415 . S
C4812 C4811 1.355 . S
C4812 C4814 1.419 . S
C4813 C4808 1.425 . S
C4813 C4810 1.409 . S
C4813 C4811 1.415 . S
C4814 H4804 0.930 . S
C4814 C4812 1.419 . S
C4814 C4815 1.362 . S
C4815 H4805 0.930 . S
C4815 C4808 1.409 . S
C4815 C4814 1.362 . S
H4816 C4822 0.930 . S
H4817 C4825 0.930 . S
H4818 C4826 0.930 . S
H4819 C4827 0.930 . S
H4820 C4830 0.930 . S
H4821 C4831 0.930 . S
C4822 H4816 0.930 . S
C4822 C4823 1.355 . S
C4822 C4824 1.415 . S
C4823 C4822 1.355 . S
C4823 C4825 1.419 . S
C4824 C4822 1.415 . S
C4824 C4829 1.425 . S
C4824 C4831 1.409 . S
C4825 H4817 0.930 . S
C4825 C4823 1.419 . S
C4825 C4826 1.362 . S
C4826 H4818 0.930 . S
C4826 C4825 1.362 . S
C4826 C4829 1.409 . S
C4827 H4819 0.930 . S
C4827 C4828 1.355 . S
C4827 C4829 1.415 . S
C4828 C4827 1.355 . S
C4828 C4830 1.419 . S
C4829 C4824 1.425 . S
C4829 C4826 1.409 . S
C4829 C4827 1.415 . S
C4830 H4820 0.930 . S
C4830 C4828 1.419 . S
C4830 C4831 1.362 . S
C4831 H4821 0.930 . S
C4831 C4824 1.409 . S
C4831 C4830 1.362 . S
H4832 C4838 0.930 . S
H4833 C4841 0.930 . S
H4834 C4842 0.930 . S
H4835 C4843 0.930 . S
H4836 C4846 0.930 . S
H4837 C4847 0.930 . S
C4838 H4832 0.930 . S
C4838 C4839 1.355 . S
C4838 C4840 1.415 . S
C4839 C4838 1.355 . S
C4839 C4841 1.419 . S
C4840 C4838 1.415 . S
C4840 C4845 1.425 . S
C4840 C4847 1.409 . S
C4841 H4833 0.930 . S
C4841 C4839 1.419 . S
C4841 C4842 1.362 . S
C4842 H4834 0.930 . S
C4842 C4841 1.362 . S
C4842 C4845 1.409 . S
C4843 H4835 0.930 . S
C4843 C4844 1.355 . S
C4843 C4845 1.415 . S
C4844 C4843 1.355 . S
C4844 C4846 1.419 . S
C4845 C4840 1.425 . S
C4845 C4842 1.409 . S
C4845 C4843 1.415 . S
C4846 H4836 0.930 . S
C4846 C4844 1.419 . S
C4846 C4847 1.362 . S
C4847 H4837 0.930 . S
C4847 C4840 1.409 . S
C4847 C4846 1.362 . S
H4848 C4854 0.930 . S
H4849 C4857 0.930 . S
H4850 C4858 0.930 . S
H4851 C4859 0.930 . S
H4852 C4862 0.930 . S
H4853 C4863 0.930 . S
C4854 H4848 0.930 . S
C4854 C4855 1.355 . S
C4854 C4856 1.415 . S
C4855 C4854 1.355 . S
C4855 C4857 1.419 . S
C4856 C4854 1.415 . S
C4856 C4861 1.425 . S
C4856 C4863 1.409 . S
C4857 H4849 0.930 . S
C4857 C4855 1.419 . S
C4857 C4858 1.362 . S
C4858 H4850 0.930 . S
C4858 C4857 1.362 . S
C4858 C4861 1.409 . S
C4859 H4851 0.930 . S
C4859 C4860 1.355 . S
C4859 C4861 1.415 . S
C4860 C4859 1.355 . S
C4860 C4862 1.419 . S
C4861 C4856 1.425 . S
C4861 C4858 1.409 . S
C4861 C4859 1.415 . S
C4862 H4852 0.930 . S
C4862 C4860 1.419 . S
C4862 C4863 1.362 . S
C4863 H4853 0.930 . S
C4863 C4856 1.409 . S
C4863 C4862 1.362 . S
H4864 C4870 0.930 . S
H4865 C4873 0.930 . S
H4866 C4874 0.930 . S
H4867 C4875 0.930 . S
H4868 C4878 0.930 . S
H4869 C4879 0.930 . S
C4870 H4864 0.930 . S
C4870 C4871 1.355 . S
C4870 C4872 1.415 . S
C4871 C4870 1.355 . S
C4871 C4873 1.419 . S
C4872 C4870 1.415 . S
C4872 C4877 1.425 . S
C4872 C4879 1.409 . S
C4873 H4865 0.930 . S
C4873 C4871 1.419 . S
C4873 C4874 1.362 . S
C4874 H4866 0.930 . S
C4874 C4873 1.362 . S
C4874 C4877 1.409 . S
C4875 H4867 0.930 . S
C4875 C4876 1.355 . S
C4875 C4877 1.415 . S
C4876 C4875 1.355 . S
C4876 C4878 1.419 . S
C4877 C4872 1.425 . S
C4877 C4874 1.409 . S
C4877 C4875 1.415 . S
C4878 H4868 0.930 . S
C4878 C4876 1.419 . S
C4878 C4879 1.362 . S
C4879 H4869 0.930 . S
C4879 C4872 1.409 . S
C4879 C4878 1.362 . S
H4880 C4886 0.930 . S
H4881 C4889 0.930 . S
H4882 C4890 0.930 . S
H4883 C4891 0.930 . S
H4884 C4894 0.930 . S
H4885 C4895 0.930 . S
C4886 H4880 0.930 . S
C4886 C4887 1.355 . S
C4886 C4888 1.415 . S
C4887 C4886 1.355 . S
C4887 C4889 1.419 . S
C4888 C4886 1.415 . S
C4888 C4893 1.425 . S
C4888 C4895 1.409 . S
C4889 H4881 0.930 . S
C4889 C4887 1.419 . S
C4889 C4890 1.362 . S
C4890 H4882 0.930 . S
C4890 C4889 1.362 . S
C4890 C4893 1.409 . S
C4891 H4883 0.930 . S
C4891 C4892 1.355 1_565 S
C4891 C4893 1.415 . S
C4892 C4891 1.355 1_545 S
C4892 C4894 1.419 1_545 S
C4893 C4888 1.425 . S
C4893 C4890 1.409 . S
C4893 C4891 1.415 . S
C4894 H4884 0.930 . S
C4894 C4892 1.419 1_565 S
C4894 C4895 1.362 . S
C4895 H4885 0.930 . S
C4895 C4888 1.409 . S
C4895 C4894 1.362 . S
H4896 C4902 0.930 . S
H4897 C4905 0.930 . S
H4898 C4906 0.930 . S
H4899 C4907 0.930 . S
H4900 C4910 0.930 . S
H4901 C4911 0.930 . S
C4902 H4896 0.930 . S
C4902 C4903 1.355 . S
C4902 C4904 1.415 . S
C4903 C4902 1.355 . S
C4903 C4905 1.419 . S
C4904 C4902 1.415 . S
C4904 C4909 1.425 . S
C4904 C4911 1.409 . S
C4905 H4897 0.930 . S
C4905 C4903 1.419 . S
C4905 C4906 1.362 . S
C4906 H4898 0.930 . S
C4906 C4905 1.362 . S
C4906 C4909 1.409 . S
C4907 H4899 0.930 . S
C4907 C4908 1.355 . S
C4907 C4909 1.415 . S
C4908 C4907 1.355 . S
C4908 C4910 1.419 . S
C4909 C4904 1.425 . S
C4909 C4906 1.409 . S
C4909 C4907 1.415 . S
C4910 H4900 0.930 . S
C4910 C4908 1.419 . S
C4910 C4911 1.362 . S
C4911 H4901 0.930 . S
C4911 C4904 1.409 . S
C4911 C4910 1.362 . S
H4912 C4918 0.930 . S
H4913 C4921 0.930 . S
H4914 C4922 0.930 . S
H4915 C4923 0.930 . S
H4916 C4926 0.930 . S
H4917 C4927 0.930 . S
C4918 H4912 0.930 . S
C4918 C4919 1.355 . S
C4918 C4920 1.415 . S
C4919 C4918 1.355 . S
C4919 C4921 1.419 . S
C4920 C4918 1.415 . S
C4920 C4925 1.425 . S
C4920 C4927 1.409 . S
C4921 H4913 0.930 . S
C4921 C4919 1.419 . S
C4921 C4922 1.362 . S
C4922 H4914 0.930 . S
C4922 C4921 1.362 . S
C4922 C4925 1.409 . S
C4923 H4915 0.930 . S
C4923 C4924 1.355 . S
C4923 C4925 1.415 . S
C4924 C4923 1.355 . S
C4924 C4926 1.419 . S
C4925 C4920 1.425 . S
C4925 C4922 1.409 . S
C4925 C4923 1.415 . S
C4926 H4916 0.930 . S
C4926 C4924 1.419 . S
C4926 C4927 1.362 . S
C4927 H4917 0.930 . S
C4927 C4920 1.409 . S
C4927 C4926 1.362 . S
H4928 C4934 0.930 . S
H4929 C4937 0.930 . S
H4930 C4938 0.930 . S
H4931 C4939 0.930 . S
H4932 C4942 0.930 . S
H4933 C4943 0.930 . S
C4934 H4928 0.930 . S
C4934 C4935 1.355 . S
C4934 C4936 1.415 . S
C4935 C4934 1.355 . S
C4935 C4937 1.419 . S
C4936 C4934 1.415 . S
C4936 C4941 1.425 . S
C4936 C4943 1.409 . S
C4937 H4929 0.930 . S
C4937 C4935 1.419 . S
C4937 C4938 1.362 . S
C4938 H4930 0.930 . S
C4938 C4937 1.362 . S
C4938 C4941 1.409 . S
C4939 H4931 0.930 . S
C4939 C4940 1.355 . S
C4939 C4941 1.415 . S
C4940 C4939 1.355 . S
C4940 C4942 1.419 . S
C4941 C4936 1.425 . S
C4941 C4938 1.409 . S
C4941 C4939 1.415 . S
C4942 H4932 0.930 . S
C4942 C4940 1.419 . S
C4942 C4943 1.362 . S
C4943 H4933 0.930 . S
C4943 C4936 1.409 . S
C4943 C4942 1.362 . S
H4944 C4950 0.930 . S
H4945 C4953 0.930 . S
H4946 C4954 0.930 . S
H4947 C4955 0.930 . S
H4948 C4958 0.930 . S
H4949 C4959 0.930 . S
C4950 H4944 0.930 . S
C4950 C4951 1.355 . S
C4950 C4952 1.415 . S
C4951 C4950 1.355 . S
C4951 C4953 1.419 . S
C4952 C4950 1.415 . S
C4952 C4957 1.425 . S
C4952 C4959 1.409 . S
C4953 H4945 0.930 . S
C4953 C4951 1.419 . S
C4953 C4954 1.362 . S
C4954 H4946 0.930 . S
C4954 C4953 1.362 . S
C4954 C4957 1.409 . S
C4955 H4947 0.930 . S
C4955 C4956 1.355 . S
C4955 C4957 1.415 . S
C4956 C4955 1.355 . S
C4956 C4958 1.419 . S
C4957 C4952 1.425 . S
C4957 C4954 1.409 . S
C4957 C4955 1.415 . S
C4958 H4948 0.930 . S
C4958 C4956 1.419 . S
C4958 C4959 1.362 . S
C4959 H4949 0.930 . S
C4959 C4952 1.409 . S
C4959 C4958 1.362 . S
H4960 C4966 0.930 . S
H4961 C4969 0.930 . S
H4962 C4970 0.930 . S
H4963 C4971 0.930 . S
H4964 C4974 0.930 . S
H4965 C4975 0.930 . S
C4966 H4960 0.930 . S
C4966 C4967 1.355 . S
C4966 C4968 1.415 . S
C4967 C4966 1.355 . S
C4967 C4969 1.419 . S
C4968 C4966 1.415 . S
C4968 C4973 1.425 . S
C4968 C4975 1.409 . S
C4969 H4961 0.930 . S
C4969 C4967 1.419 . S
C4969 C4970 1.362 . S
C4970 H4962 0.930 . S
C4970 C4969 1.362 . S
C4970 C4973 1.409 . S
C4971 H4963 0.930 . S
C4971 C4972 1.355 . S
C4971 C4973 1.415 . S
C4972 C4971 1.355 . S
C4972 C4974 1.419 . S
C4973 C4968 1.425 . S
C4973 C4970 1.409 . S
C4973 C4971 1.415 . S
C4974 H4964 0.930 . S
C4974 C4972 1.419 . S
C4974 C4975 1.362 . S
C4975 H4965 0.930 . S
C4975 C4968 1.409 . S
C4975 C4974 1.362 . S
H4976 C4982 0.930 . S
H4977 C4985 0.930 . S
H4978 C4986 0.930 . S
H4979 C4987 0.930 . S
H4980 C4990 0.930 . S
H4981 C4991 0.930 . S
C4982 H4976 0.930 . S
C4982 C4983 1.355 . S
C4982 C4984 1.415 . S
C4983 C4982 1.355 . S
C4983 C4985 1.419 . S
C4984 C4982 1.415 . S
C4984 C4989 1.425 . S
C4984 C4991 1.409 . S
C4985 H4977 0.930 . S
C4985 C4983 1.419 . S
C4985 C4986 1.362 . S
C4986 H4978 0.930 . S
C4986 C4985 1.362 . S
C4986 C4989 1.409 . S
C4987 H4979 0.930 . S
C4987 C4988 1.355 . S
C4987 C4989 1.415 . S
C4988 C4987 1.355 . S
C4988 C4990 1.419 . S
C4989 C4984 1.425 . S
C4989 C4986 1.409 . S
C4989 C4987 1.415 . S
C4990 H4980 0.930 . S
C4990 C4988 1.419 . S
C4990 C4991 1.362 . S
C4991 H4981 0.930 . S
C4991 C4984 1.409 . S
C4991 C4990 1.362 . S
H4992 C4998 0.930 . S
H4993 C5001 0.930 . S
H4994 C5002 0.930 . S
H4995 C5003 0.930 . S
H4996 C5006 0.930 . S
H4997 C5007 0.930 . S
C4998 H4992 0.930 . S
C4998 C4999 1.355 . S
C4998 C5000 1.415 . S
C4999 C4998 1.355 . S
C4999 C5001 1.419 . S
C5000 C4998 1.415 . S
C5000 C5005 1.425 . S
C5000 C5007 1.409 . S
C5001 H4993 0.930 . S
C5001 C4999 1.419 . S
C5001 C5002 1.362 . S
C5002 H4994 0.930 . S
C5002 C5001 1.362 . S
C5002 C5005 1.409 . S
C5003 H4995 0.930 . S
C5003 C5004 1.355 . S
C5003 C5005 1.415 . S
C5004 C5003 1.355 . S
C5004 C5006 1.419 . S
C5005 C5000 1.425 . S
C5005 C5002 1.409 . S
C5005 C5003 1.415 . S
C5006 H4996 0.930 . S
C5006 C5004 1.419 . S
C5006 C5007 1.362 . S
C5007 H4997 0.930 . S
C5007 C5000 1.409 . S
C5007 C5006 1.362 . S
H5008 C5014 0.930 . S
H5009 C5017 0.930 . S
H5010 C5018 0.930 . S
H5011 C5019 0.930 . S
H5012 C5022 0.930 . S
H5013 C5023 0.930 . S
C5014 H5008 0.930 . S
C5014 C5015 1.355 . S
C5014 C5016 1.415 . S
C5015 C5014 1.355 . S
C5015 C5017 1.419 . S
C5016 C5014 1.415 . S
C5016 C5021 1.425 . S
C5016 C5023 1.409 . S
C5017 H5009 0.930 . S
C5017 C5015 1.419 . S
C5017 C5018 1.362 . S
C5018 H5010 0.930 . S
C5018 C5017 1.362 . S
C5018 C5021 1.409 . S
C5019 H5011 0.930 . S
C5019 C5020 1.355 . S
C5019 C5021 1.415 . S
C5020 C5019 1.355 . S
C5020 C5022 1.419 . S
C5021 C5016 1.425 . S
C5021 C5018 1.409 . S
C5021 C5019 1.415 . S
C5022 H5012 0.930 . S
C5022 C5020 1.419 . S
C5022 C5023 1.362 . S
C5023 H5013 0.930 . S
C5023 C5016 1.409 . S
C5023 C5022 1.362 . S
H5024 C5030 0.930 . S
H5025 C5033 0.930 . S
H5026 C5034 0.930 . S
H5027 C5035 0.930 . S
H5028 C5038 0.930 . S
H5029 C5039 0.930 . S
C5030 H5024 0.930 . S
C5030 C5031 1.355 . S
C5030 C5032 1.415 . S
C5031 C5030 1.355 . S
C5031 C5033 1.419 . S
C5032 C5030 1.415 . S
C5032 C5037 1.425 . S
C5032 C5039 1.409 . S
C5033 H5025 0.930 . S
C5033 C5031 1.419 . S
C5033 C5034 1.362 . S
C5034 H5026 0.930 . S
C5034 C5033 1.362 . S
C5034 C5037 1.409 . S
C5035 H5027 0.930 . S
C5035 C5036 1.355 . S
C5035 C5037 1.415 . S
C5036 C5035 1.355 . S
C5036 C5038 1.419 . S
C5037 C5032 1.425 . S
C5037 C5034 1.409 . S
C5037 C5035 1.415 . S
C5038 H5028 0.930 . S
C5038 C5036 1.419 . S
C5038 C5039 1.362 . S
C5039 H5029 0.930 . S
C5039 C5032 1.409 . S
C5039 C5038 1.362 . S
H5040 C5046 0.930 . S
H5041 C5049 0.930 . S
H5042 C5050 0.930 . S
H5043 C5051 0.930 . S
H5044 C5054 0.930 . S
H5045 C5055 0.930 . S
C5046 H5040 0.930 . S
C5046 C5047 1.355 . S
C5046 C5048 1.415 . S
C5047 C5046 1.355 . S
C5047 C5049 1.419 . S
C5048 C5046 1.415 . S
C5048 C5053 1.425 . S
C5048 C5055 1.409 . S
C5049 H5041 0.930 . S
C5049 C5047 1.419 . S
C5049 C5050 1.362 . S
C5050 H5042 0.930 . S
C5050 C5049 1.362 . S
C5050 C5053 1.409 . S
C5051 H5043 0.930 . S
C5051 C5052 1.355 . S
C5051 C5053 1.415 . S
C5052 C5051 1.355 . S
C5052 C5054 1.419 . S
C5053 C5048 1.425 . S
C5053 C5050 1.409 . S
C5053 C5051 1.415 . S
C5054 H5044 0.930 . S
C5054 C5052 1.419 . S
C5054 C5055 1.362 . S
C5055 H5045 0.930 . S
C5055 C5048 1.409 . S
C5055 C5054 1.362 . S
H5056 C5062 0.930 . S
H5057 C5065 0.930 . S
H5058 C5066 0.930 . S
H5059 C5067 0.930 . S
H5060 C5070 0.930 . S
H5061 C5071 0.930 . S
C5062 H5056 0.930 . S
C5062 C5063 1.355 . S
C5062 C5064 1.415 . S
C5063 C5062 1.355 . S
C5063 C5065 1.419 . S
C5064 C5062 1.415 . S
C5064 C5069 1.425 . S
C5064 C5071 1.409 . S
C5065 H5057 0.930 . S
C5065 C5063 1.419 . S
C5065 C5066 1.362 . S
C5066 H5058 0.930 . S
C5066 C5065 1.362 . S
C5066 C5069 1.409 . S
C5067 H5059 0.930 . S
C5067 C5068 1.355 . S
C5067 C5069 1.415 . S
C5068 C5067 1.355 . S
C5068 C5070 1.419 . S
C5069 C5064 1.425 . S
C5069 C5066 1.409 . S
C5069 C5067 1.415 . S
C5070 H5060 0.930 . S
C5070 C5068 1.419 . S
C5070 C5071 1.362 . S
C5071 H5061 0.930 . S
C5071 C5064 1.409 . S
C5071 C5070 1.362 . S
H5072 C5078 0.930 . S
H5073 C5081 0.930 . S
H5074 C5082 0.930 . S
H5075 C5083 0.930 . S
H5076 C5086 0.930 . S
H5077 C5087 0.930 . S
C5078 H5072 0.930 . S
C5078 C5079 1.355 . S
C5078 C5080 1.415 . S
C5079 C5078 1.355 . S
C5079 C5081 1.419 . S
C5080 C5078 1.415 . S
C5080 C5085 1.425 . S
C5080 C5087 1.409 . S
C5081 H5073 0.930 . S
C5081 C5079 1.419 . S
C5081 C5082 1.362 . S
C5082 H5074 0.930 . S
C5082 C5081 1.362 . S
C5082 C5085 1.409 . S
C5083 H5075 0.930 . S
C5083 C5084 1.355 . S
C5083 C5085 1.415 . S
C5084 C5083 1.355 . S
C5084 C5086 1.419 . S
C5085 C5080 1.425 . S
C5085 C5082 1.409 . S
C5085 C5083 1.415 . S
C5086 H5076 0.930 . S
C5086 C5084 1.419 . S
C5086 C5087 1.362 . S
C5087 H5077 0.930 . S
C5087 C5080 1.409 . S
C5087 C5086 1.362 . S
H5088 C5094 0.930 . S
H5089 C5097 0.930 1_556 S
H5090 C5098 0.930 . S
H5091 C5099 0.930 . S
H5092 C5102 0.930 . S
H5093 C5103 0.930 . S
C5094 H5088 0.930 . S
C5094 C5095 1.355 . S
C5094 C5096 1.415 . S
C5095 C5094 1.355 . S
C5095 C5097 1.419 . S
C5096 C5094 1.415 . S
C5096 C5101 1.425 . S
C5096 C5103 1.409 . S
C5097 H5089 0.930 1_554 S
C5097 C5095 1.419 . S
C5097 C5098 1.362 . S
C5098 H5090 0.930 . S
C5098 C5097 1.362 . S
C5098 C5101 1.409 . S
C5099 H5091 0.930 . S
C5099 C5100 1.355 . S
C5099 C5101 1.415 . S
C5100 C5099 1.355 . S
C5100 C5102 1.419 . S
C5101 C5096 1.425 . S
C5101 C5098 1.409 . S
C5101 C5099 1.415 . S
C5102 H5092 0.930 . S
C5102 C5100 1.419 . S
C5102 C5103 1.362 . S
C5103 H5093 0.930 . S
C5103 C5096 1.409 . S
C5103 C5102 1.362 . S
H5104 C5110 0.930 . S
H5105 C5113 0.930 . S
H5106 C5114 0.930 . S
H5107 C5115 0.930 . S
H5108 C5118 0.930 . S
H5109 C5119 0.930 . S
C5110 H5104 0.930 . S
C5110 C5111 1.355 . S
C5110 C5112 1.415 . S
C5111 C5110 1.355 . S
C5111 C5113 1.419 . S
C5112 C5110 1.415 . S
C5112 C5117 1.425 . S
C5112 C5119 1.409 . S
C5113 H5105 0.930 . S
C5113 C5111 1.419 . S
C5113 C5114 1.362 . S
C5114 H5106 0.930 . S
C5114 C5113 1.362 . S
C5114 C5117 1.409 . S
C5115 H5107 0.930 . S
C5115 C5116 1.355 . S
C5115 C5117 1.415 . S
C5116 C5115 1.355 . S
C5116 C5118 1.419 . S
C5117 C5112 1.425 . S
C5117 C5114 1.409 . S
C5117 C5115 1.415 . S
C5118 H5108 0.930 . S
C5118 C5116 1.419 . S
C5118 C5119 1.362 . S
C5119 H5109 0.930 . S
C5119 C5112 1.409 . S
C5119 C5118 1.362 . S
H5120 C5126 0.930 . S
H5121 C5129 0.930 . S
H5122 C5130 0.930 . S
H5123 C5131 0.930 . S
H5124 C5134 0.930 . S
H5125 C5135 0.930 . S
C5126 H5120 0.930 . S
C5126 C5127 1.355 . S
C5126 C5128 1.415 . S
C5127 C5126 1.355 . S
C5127 C5129 1.419 . S
C5128 C5126 1.415 . S
C5128 C5133 1.425 . S
C5128 C5135 1.409 . S
C5129 H5121 0.930 . S
C5129 C5127 1.419 . S
C5129 C5130 1.362 . S
C5130 H5122 0.930 . S
C5130 C5129 1.362 . S
C5130 C5133 1.409 . S
C5131 H5123 0.930 . S
C5131 C5132 1.355 . S
C5131 C5133 1.415 . S
C5132 C5131 1.355 . S
C5132 C5134 1.419 . S
C5133 C5128 1.425 . S
C5133 C5130 1.409 . S
C5133 C5131 1.415 . S
C5134 H5124 0.930 . S
C5134 C5132 1.419 . S
C5134 C5135 1.362 . S
C5135 H5125 0.930 . S
C5135 C5128 1.409 . S
C5135 C5134 1.362 . S
H5136 C5142 0.930 . S
H5137 C5145 0.930 . S
H5138 C5146 0.930 . S
H5139 C5147 0.930 . S
H5140 C5150 0.930 . S
H5141 C5151 0.930 . S
C5142 H5136 0.930 . S
C5142 C5143 1.355 . S
C5142 C5144 1.415 . S
C5143 C5142 1.355 . S
C5143 C5145 1.419 . S
C5144 C5142 1.415 . S
C5144 C5149 1.425 . S
C5144 C5151 1.409 . S
C5145 H5137 0.930 . S
C5145 C5143 1.419 . S
C5145 C5146 1.362 . S
C5146 H5138 0.930 . S
C5146 C5145 1.362 . S
C5146 C5149 1.409 . S
C5147 H5139 0.930 . S
C5147 C5148 1.355 . S
C5147 C5149 1.415 . S
C5148 C5147 1.355 . S
C5148 C5150 1.419 . S
C5149 C5144 1.425 . S
C5149 C5146 1.409 . S
C5149 C5147 1.415 . S
C5150 H5140 0.930 . S
C5150 C5148 1.419 . S
C5150 C5151 1.362 . S
C5151 H5141 0.930 . S
C5151 C5144 1.409 . S
C5151 C5150 1.362 . S
H5152 C5158 0.930 . S
H5153 C5161 0.930 . S
H5154 C5162 0.930 . S
H5155 C5163 0.930 . S
H5156 C5166 0.930 . S
H5157 C5167 0.930 . S
C5158 H5152 0.930 . S
C5158 C5159 1.355 . S
C5158 C5160 1.415 . S
C5159 C5158 1.355 . S
C5159 C5161 1.419 . S
C5160 C5158 1.415 . S
C5160 C5165 1.425 . S
C5160 C5167 1.409 . S
C5161 H5153 0.930 . S
C5161 C5159 1.419 . S
C5161 C5162 1.362 . S
C5162 H5154 0.930 . S
C5162 C5161 1.362 . S
C5162 C5165 1.409 . S
C5163 H5155 0.930 . S
C5163 C5164 1.355 . S
C5163 C5165 1.415 . S
C5164 C5163 1.355 . S
C5164 C5166 1.419 . S
C5165 C5160 1.425 . S
C5165 C5162 1.409 . S
C5165 C5163 1.415 . S
C5166 H5156 0.930 . S
C5166 C5164 1.419 . S
C5166 C5167 1.362 . S
C5167 H5157 0.930 . S
C5167 C5160 1.409 . S
C5167 C5166 1.362 . S
H5168 C5174 0.930 . S
H5169 C5177 0.930 . S
H5170 C5178 0.930 . S
H5171 C5179 0.930 . S
H5172 C5182 0.930 . S
H5173 C5183 0.930 . S
C5174 H5168 0.930 . S
C5174 C5175 1.355 . S
C5174 C5176 1.415 . S
C5175 C5174 1.355 . S
C5175 C5177 1.419 . S
C5176 C5174 1.415 . S
C5176 C5181 1.425 . S
C5176 C5183 1.409 . S
C5177 H5169 0.930 . S
C5177 C5175 1.419 . S
C5177 C5178 1.362 . S
C5178 H5170 0.930 . S
C5178 C5177 1.362 . S
C5178 C5181 1.409 . S
C5179 H5171 0.930 . S
C5179 C5180 1.355 . S
C5179 C5181 1.415 . S
C5180 C5179 1.355 . S
C5180 C5182 1.419 . S
C5181 C5176 1.425 . S
C5181 C5178 1.409 . S
C5181 C5179 1.415 . S
C5182 H5172 0.930 . S
C5182 C5180 1.419 . S
C5182 C5183 1.362 . S
C5183 H5173 0.930 . S
C5183 C5176 1.409 . S
C5183 C5182 1.362 . S
H5184 C5190 0.930 . S
H5185 C5193 0.930 . S
H5186 C5194 0.930 . S
H5187 C5195 0.930 . S
H5188 C5198 0.930 . S
H5189 C5199 0.930 . S
C5190 H5184 0.930 . S
C5190 C5191 1.355 . S
C5190 C5192 1.415 . S
C5191 C5190 1.355 . S
C5191 C5193 1.419 . S
C5192 C5190 1.415 . S
C5192 C5197 1.425 . S
C5192 C5199 1.409 . S
C5193 H5185 0.930 . S
C5193 C5191 1.419 . S
C5193 C5194 1.362 . S
C5194 H5186 0.930 . S
C5194 C5193 1.362 . S
C5194 C5197 1.409 . S
C5195 H5187 0.930 . S
C5195 C5196 1.355 . S
C5195 C5197 1.415 . S
C5196 C5195 1.355 . S
C5196 C5198 1.419 . S
C5197 C5192 1.425 . S
C5197 C5194 1.409 . S
C5197 C5195 1.415 . S
C5198 H5188 0.930 . S
C5198 C5196 1.419 . S
C5198 C5199 1.362 . S
C5199 H5189 0.930 . S
C5199 C5192 1.409 . S
C5199 C5198 1.362 . S
H5200 C5206 0.930 . S
H5201 C5209 0.930 . S
H5202 C5210 0.930 . S
H5203 C5211 0.930 . S
H5204 C5214 0.930 . S
H5205 C5215 0.930 . S
C5206 H5200 0.930 . S
C5206 C5207 1.355 . S
C5206 C5208 1.415 . S
C5207 C5206 1.355 . S
C5207 C5209 1.419 . S
C5208 C5206 1.415 . S
C5208 C5213 1.425 . S
C5208 C5215 1.409 . S
C5209 H5201 0.930 . S
C5209 C5207 1.419 . S
C5209 C5210 1.362 . S
C5210 H5202 0.930 . S
C5210 C5209 1.362 . S
C5210 C5213 1.409 . S
C5211 H5203 0.930 . S
C5211 C5212 1.355 . S
C5211 C5213 1.415 . S
C5212 C5211 1.355 . S
C5212 C5214 1.419 . S
C5213 C5208 1.425 . S
C5213 C5210 1.409 . S
C5213 C5211 1.415 . S
C5214 H5204 0.930 . S
C5214 C5212 1.419 . S
C5214 C5215 1.362 . S
C5215 H5205 0.930 . S
C5215 C5208 1.409 . S
C5215 C5214 1.362 . S
H5216 C5222 0.930 . S
H5217 C5225 0.930 . S
H5218 C5226 0.930 . S
H5219 C5227 0.930 . S
H5220 C5230 0.930 . S
H5221 C5231 0.930 . S
C5222 H5216 0.930 . S
C5222 C5223 1.355 . S
C5222 C5224 1.415 . S
C5223 C5222 1.355 . S
C5223 C5225 1.419 . S
C5224 C5222 1.415 . S
C5224 C5229 1.425 . S
C5224 C5231 1.409 . S
C5225 H5217 0.930 . S
C5225 C5223 1.419 . S
C5225 C5226 1.362 . S
C5226 H5218 0.930 . S
C5226 C5225 1.362 . S
C5226 C5229 1.409 . S
C5227 H5219 0.930 . S
C5227 C5228 1.355 . S
C5227 C5229 1.415 . S
C5228 C5227 1.355 . S
C5228 C5230 1.419 . S
C5229 C5224 1.425 . S
C5229 C5226 1.409 . S
C5229 C5227 1.415 . S
C5230 H5220 0.930 . S
C5230 C5228 1.419 . S
C5230 C5231 1.362 . S
C5231 H5221 0.930 . S
C5231 C5224 1.409 . S
C5231 C5230 1.362 . S
H5232 C5238 0.930 . S
H5233 C5241 0.930 . S
H5234 C5242 0.930 . S
H5235 C5243 0.930 . S
H5236 C5246 0.930 . S
H5237 C5247 0.930 . S
C5238 H5232 0.930 . S
C5238 C5239 1.355 . S
C5238 C5240 1.415 . S
C5239 C5238 1.355 . S
C5239 C5241 1.419 . S
C5240 C5238 1.415 . S
C5240 C5245 1.425 . S
C5240 C5247 1.409 . S
C5241 H5233 0.930 . S
C5241 C5239 1.419 . S
C5241 C5242 1.362 . S
C5242 H5234 0.930 . S
C5242 C5241 1.362 . S
C5242 C5245 1.409 . S
C5243 H5235 0.930 . S
C5243 C5244 1.355 . S
C5243 C5245 1.415 . S
C5244 C5243 1.355 . S
C5244 C5246 1.419 . S
C5245 C5240 1.425 . S
C5245 C5242 1.409 . S
C5245 C5243 1.415 . S
C5246 H5236 0.930 . S
C5246 C5244 1.419 . S
C5246 C5247 1.362 . S
C5247 H5237 0.930 . S
C5247 C5240 1.409 . S
C5247 C5246 1.362 . S
H5248 C5254 0.930 . S
H5249 C5257 0.930 . S
H5250 C5258 0.930 . S
H5251 C5259 0.930 . S
H5252 C5262 0.930 . S
H5253 C5263 0.930 . S
C5254 H5248 0.930 . S
C5254 C5255 1.355 . S
C5254 C5256 1.415 . S
C5255 C5254 1.355 . S
C5255 C5257 1.419 . S
C5256 C5254 1.415 . S
C5256 C5261 1.425 . S
C5256 C5263 1.409 . S
C5257 H5249 0.930 . S
C5257 C5255 1.419 . S
C5257 C5258 1.362 . S
C5258 H5250 0.930 . S
C5258 C5257 1.362 . S
C5258 C5261 1.409 . S
C5259 H5251 0.930 . S
C5259 C5260 1.355 . S
C5259 C5261 1.415 . S
C5260 C5259 1.355 . S
C5260 C5262 1.419 . S
C5261 C5256 1.425 . S
C5261 C5258 1.409 . S
C5261 C5259 1.415 . S
C5262 H5252 0.930 . S
C5262 C5260 1.419 . S
C5262 C5263 1.362 . S
C5263 H5253 0.930 . S
C5263 C5256 1.409 . S
C5263 C5262 1.362 . S
H5264 C5270 0.930 . S
H5265 C5273 0.930 . S
H5266 C5274 0.930 . S
H5267 C5275 0.930 . S
H5268 C5278 0.930 . S
H5269 C5279 0.930 . S
C5270 H5264 0.930 . S
C5270 C5271 1.355 . S
C5270 C5272 1.415 . S
C5271 C5270 1.355 . S
C5271 C5273 1.419 . S
C5272 C5270 1.415 . S
C5272 C5277 1.425 . S
C5272 C5279 1.409 . S
C5273 H5265 0.930 . S
C5273 C5271 1.419 . S
C5273 C5274 1.362 . S
C5274 H5266 0.930 . S
C5274 C5273 1.362 . S
C5274 C5277 1.409 . S
C5275 H5267 0.930 . S
C5275 C5276 1.355 . S
C5275 C5277 1.415 . S
C5276 C5275 1.355 . S
C5276 C5278 1.419 . S
C5277 C5272 1.425 . S
C5277 C5274 1.409 . S
C5277 C5275 1.415 . S
C5278 H5268 0.930 . S
C5278 C5276 1.419 . S
C5278 C5279 1.362 . S
C5279 H5269 0.930 . S
C5279 C5272 1.409 . S
C5279 C5278 1.362 . S
H5280 C5286 0.930 . S
H5281 C5289 0.930 . S
H5282 C5290 0.930 . S
H5283 C5291 0.930 . S
H5284 C5294 0.930 . S
H5285 C5295 0.930 . S
C5286 H5280 0.930 . S
C5286 C5287 1.355 . S
C5286 C5288 1.415 . S
C5287 C5286 1.355 . S
C5287 C5289 1.419 . S
C5288 C5286 1.415 . S
C5288 C5293 1.425 . S
C5288 C5295 1.409 . S
C5289 H5281 0.930 . S
C5289 C5287 1.419 . S
C5289 C5290 1.362 . S
C5290 H5282 0.930 . S
C5290 C5289 1.362 . S
C5290 C5293 1.409 . S
C5291 H5283 0.930 . S
C5291 C5292 1.355 . S
C5291 C5293 1.415 . S
C5292 C5291 1.355 . S
C5292 C5294 1.419 . S
C5293 C5288 1.425 . S
C5293 C5290 1.409 . S
C5293 C5291 1.415 . S
C5294 H5284 0.930 . S
C5294 C5292 1.419 . S
C5294 C5295 1.362 . S
C5295 H5285 0.930 . S
C5295 C5288 1.409 . S
C5295 C5294 1.362 . S
H5296 C5302 0.930 . S
H5297 C5305 0.930 . S
H5298 C5306 0.930 . S
H5299 C5307 0.930 . S
H5300 C5310 0.930 . S
H5301 C5311 0.930 . S
C5302 H5296 0.930 . S
C5302 C5303 1.355 . S
C5302 C5304 1.415 . S
C5303 C5302 1.355 . S
C5303 C5305 1.419 . S
C5304 C5302 1.415 . S
C5304 C5309 1.425 . S
C5304 C5311 1.409 . S
C5305 H5297 0.930 . S
C5305 C5303 1.419 . S
C5305 C5306 1.362 . S
C5306 H5298 0.930 . S
C5306 C5305 1.362 . S
C5306 C5309 1.409 . S
C5307 H5299 0.930 . S
C5307 C5308 1.355 . S
C5307 C5309 1.415 . S
C5308 C5307 1.355 . S
C5308 C5310 1.419 . S
C5309 C5304 1.425 . S
C5309 C5306 1.409 . S
C5309 C5307 1.415 . S
C5310 H5300 0.930 . S
C5310 C5308 1.419 . S
C5310 C5311 1.362 . S
C5311 H5301 0.930 . S
C5311 C5304 1.409 . S
C5311 C5310 1.362 . S
H5312 C5318 0.930 . S
H5313 C5321 0.930 . S
H5314 C5322 0.930 . S
H5315 C5323 0.930 . S
H5316 C5326 0.930 . S
H5317 C5327 0.930 . S
C5318 H5312 0.930 . S
C5318 C5319 1.355 . S
C5318 C5320 1.415 . S
C5319 C5318 1.355 . S
C5319 C5321 1.419 . S
C5320 C5318 1.415 . S
C5320 C5325 1.425 . S
C5320 C5327 1.409 . S
C5321 H5313 0.930 . S
C5321 C5319 1.419 . S
C5321 C5322 1.362 . S
C5322 H5314 0.930 . S
C5322 C5321 1.362 . S
C5322 C5325 1.409 . S
C5323 H5315 0.930 . S
C5323 C5324 1.355 . S
C5323 C5325 1.415 . S
C5324 C5323 1.355 . S
C5324 C5326 1.419 . S
C5325 C5320 1.425 . S
C5325 C5322 1.409 . S
C5325 C5323 1.415 . S
C5326 H5316 0.930 . S
C5326 C5324 1.419 . S
C5326 C5327 1.362 . S
C5327 H5317 0.930 . S
C5327 C5320 1.409 . S
C5327 C5326 1.362 . S
H5328 C5334 0.930 . S
H5329 C5337 0.930 . S
H5330 C5338 0.930 . S
H5331 C5339 0.930 . S
H5332 C5342 0.930 . S
H5333 C5343 0.930 . S
C5334 H5328 0.930 . S
C5334 C5335 1.355 . S
C5334 C5336 1.415 . S
C5335 C5334 1.355 . S
C5335 C5337 1.419 . S
C5336 C5334 1.415 . S
C5336 C5341 1.425 . S
C5336 C5343 1.409 . S
C5337 H5329 0.930 . S
C5337 C5335 1.419 . S
C5337 C5338 1.362 . S
C5338 H5330 0.930 . S
C5338 C5337 1.362 . S
C5338 C5341 1.409 . S
C5339 H5331 0.930 . S
C5339 C5340 1.355 . S
C5339 C5341 1.415 . S
C5340 C5339 1.355 . S
C5340 C5342 1.419 . S
C5341 C5336 1.425 . S
C5341 C5338 1.409 . S
C5341 C5339 1.415 . S
C5342 H5332 0.930 . S
C5342 C5340 1.419 . S
C5342 C5343 1.362 . S
C5343 H5333 0.930 . S
C5343 C5336 1.409 . S
C5343 C5342 1.362 . S
H5344 C5350 0.930 . S
H5345 C5353 0.930 . S
H5346 C5354 0.930 . S
H5347 C5355 0.930 . S
H5348 C5358 0.930 . S
H5349 C5359 0.930 . S
C5350 H5344 0.930 . S
C5350 C5351 1.355 . S
C5350 C5352 1.415 . S
C5351 C5350 1.355 . S
C5351 C5353 1.419 . S
C5352 C5350 1.415 . S
C5352 C5357 1.425 . S
C5352 C5359 1.409 . S
C5353 H5345 0.930 . S
C5353 C5351 1.419 . S
C5353 C5354 1.362 . S
C5354 H5346 0.930 . S
C5354 C5353 1.362 . S
C5354 C5357 1.409 . S
C5355 H5347 0.930 . S
C5355 C5356 1.355 . S
C5355 C5357 1.415 . S
C5356 C5355 1.355 . S
C5356 C5358 1.419 . S
C5357 C5352 1.425 . S
C5357 C5354 1.409 . S
C5357 C5355 1.415 . S
C5358 H5348 0.930 . S
C5358 C5356 1.419 . S
C5358 C5359 1.362 . S
C5359 H5349 0.930 . S
C5359 C5352 1.409 . S
C5359 C5358 1.362 . S
H5360 C5366 0.930 . S
H5361 C5369 0.930 . S
H5362 C5370 0.930 . S
H5363 C5371 0.930 . S
H5364 C5374 0.930 . S
H5365 C5375 0.930 . S
C5366 H5360 0.930 . S
C5366 C5367 1.355 . S
C5366 C5368 1.415 . S
C5367 C5366 1.355 . S
C5367 C5369 1.419 . S
C5368 C5366 1.415 . S
C5368 C5373 1.425 . S
C5368 C5375 1.409 . S
C5369 H5361 0.930 . S
C5369 C5367 1.419 . S
C5369 C5370 1.362 . S
C5370 H5362 0.930 . S
C5370 C5369 1.362 . S
C5370 C5373 1.409 . S
C5371 H5363 0.930 . S
C5371 C5372 1.355 . S
C5371 C5373 1.415 . S
C5372 C5371 1.355 . S
C5372 C5374 1.419 . S
C5373 C5368 1.425 . S
C5373 C5370 1.409 . S
C5373 C5371 1.415 . S
C5374 H5364 0.930 . S
C5374 C5372 1.419 . S
C5374 C5375 1.362 . S
C5375 H5365 0.930 . S
C5375 C5368 1.409 . S
C5375 C5374 1.362 . S
H5376 C5382 0.930 . S
H5377 C5385 0.930 . S
H5378 C5386 0.930 . S
H5379 C5387 0.930 . S
H5380 C5390 0.930 . S
H5381 C5391 0.930 . S
C5382 H5376 0.930 . S
C5382 C5383 1.355 . S
C5382 C5384 1.415 . S
C5383 C5382 1.355 . S
C5383 C5385 1.419 . S
C5384 C5382 1.415 . S
C5384 C5389 1.425 . S
C5384 C5391 1.409 . S
C5385 H5377 0.930 . S
C5385 C5383 1.419 . S
C5385 C5386 1.362 . S
C5386 H5378 0.930 . S
C5386 C5385 1.362 . S
C5386 C5389 1.409 . S
C5387 H5379 0.930 . S
C5387 C5388 1.355 . S
C5387 C5389 1.415 . S
C5388 C5387 1.355 . S
C5388 C5390 1.419 . S
C5389 C5384 1.425 . S
C5389 C5386 1.409 . S
C5389 C5387 1.415 . S
C5390 H5380 0.930 . S
C5390 C5388 1.419 . S
C5390 C5391 1.362 . S
C5391 H5381 0.930 . S
C5391 C5384 1.409 . S
C5391 C5390 1.362 . S
H5392 C5398 0.930 . S
H5393 C5401 0.930 . S
H5394 C5402 0.930 . S
H5395 C5403 0.930 . S
H5396 C5406 0.930 . S
H5397 C5407 0.930 . S
C5398 H5392 0.930 . S
C5398 C5399 1.355 . S
C5398 C5400 1.415 . S
C5399 C5398 1.355 . S
C5399 C5401 1.419 . S
C5400 C5398 1.415 . S
C5400 C5405 1.425 . S
C5400 C5407 1.409 . S
C5401 H5393 0.930 . S
C5401 C5399 1.419 . S
C5401 C5402 1.362 . S
C5402 H5394 0.930 . S
C5402 C5401 1.362 . S
C5402 C5405 1.409 . S
C5403 H5395 0.930 . S
C5403 C5404 1.355 . S
C5403 C5405 1.415 . S
C5404 C5403 1.355 . S
C5404 C5406 1.419 . S
C5405 C5400 1.425 . S
C5405 C5402 1.409 . S
C5405 C5403 1.415 . S
C5406 H5396 0.930 . S
C5406 C5404 1.419 . S
C5406 C5407 1.362 . S
C5407 H5397 0.930 . S
C5407 C5400 1.409 . S
C5407 C5406 1.362 . S
H5408 C5414 0.930 . S
H5409 C5417 0.930 . S
H5410 C5418 0.930 . S
H5411 C5419 0.930 . S
H5412 C5422 0.930 . S
H5413 C5423 0.930 . S
C5414 H5408 0.930 . S
C5414 C5415 1.355 . S
C5414 C5416 1.415 . S
C5415 C5414 1.355 . S
C5415 C5417 1.419 . S
C5416 C5414 1.415 . S
C5416 C5421 1.425 . S
C5416 C5423 1.409 . S
C5417 H5409 0.930 . S
C5417 C5415 1.419 . S
C5417 C5418 1.362 . S
C5418 H5410 0.930 . S
C5418 C5417 1.362 . S
C5418 C5421 1.409 . S
C5419 H5411 0.930 . S
C5419 C5420 1.355 . S
C5419 C5421 1.415 . S
C5420 C5419 1.355 . S
C5420 C5422 1.419 . S
C5421 C5416 1.425 . S
C5421 C5418 1.409 . S
C5421 C5419 1.415 . S
C5422 H5412 0.930 . S
C5422 C5420 1.419 . S
C5422 C5423 1.362 . S
C5423 H5413 0.930 . S
C5423 C5416 1.409 . S
C5423 C5422 1.362 . S
H5424 C5430 0.930 . S
H5425 C5433 0.930 . S
H5426 C5434 0.930 . S
H5427 C5435 0.930 . S
H5428 C5438 0.930 . S
H5429 C5439 0.930 . S
C5430 H5424 0.930 . S
C5430 C5431 1.355 . S
C5430 C5432 1.415 . S
C5431 C5430 1.355 . S
C5431 C5433 1.419 . S
C5432 C5430 1.415 . S
C5432 C5437 1.425 . S
C5432 C5439 1.409 . S
C5433 H5425 0.930 . S
C5433 C5431 1.419 . S
C5433 C5434 1.362 . S
C5434 H5426 0.930 . S
C5434 C5433 1.362 . S
C5434 C5437 1.409 . S
C5435 H5427 0.930 . S
C5435 C5436 1.355 . S
C5435 C5437 1.415 . S
C5436 C5435 1.355 . S
C5436 C5438 1.419 . S
C5437 C5432 1.425 . S
C5437 C5434 1.409 . S
C5437 C5435 1.415 . S
C5438 H5428 0.930 . S
C5438 C5436 1.419 . S
C5438 C5439 1.362 . S
C5439 H5429 0.930 . S
C5439 C5432 1.409 . S
C5439 C5438 1.362 . S
H5440 C5446 0.930 . S
H5441 C5449 0.930 . S
H5442 C5450 0.930 . S
H5443 C5451 0.930 . S
H5444 C5454 0.930 . S
H5445 C5455 0.930 . S
C5446 H5440 0.930 . S
C5446 C5447 1.355 . S
C5446 C5448 1.415 . S
C5447 C5446 1.355 . S
C5447 C5449 1.419 . S
C5448 C5446 1.415 . S
C5448 C5453 1.425 . S
C5448 C5455 1.409 . S
C5449 H5441 0.930 . S
C5449 C5447 1.419 . S
C5449 C5450 1.362 . S
C5450 H5442 0.930 . S
C5450 C5449 1.362 . S
C5450 C5453 1.409 . S
C5451 H5443 0.930 . S
C5451 C5452 1.355 . S
C5451 C5453 1.415 . S
C5452 C5451 1.355 . S
C5452 C5454 1.419 . S
C5453 C5448 1.425 . S
C5453 C5450 1.409 . S
C5453 C5451 1.415 . S
C5454 H5444 0.930 . S
C5454 C5452 1.419 . S
C5454 C5455 1.362 . S
C5455 H5445 0.930 . S
C5455 C5448 1.409 . S
C5455 C5454 1.362 . S
H5456 C5462 0.930 . S
H5457 C5465 0.930 . S
H5458 C5466 0.930 . S
H5459 C5467 0.930 . S
H5460 C5470 0.930 . S
H5461 C5471 0.930 . S
C5462 H5456 0.930 . S
C5462 C5463 1.355 . S
C5462 C5464 1.415 . S
C5463 C5462 1.355 . S
C5463 C5465 1.419 . S
C5464 C5462 1.415 . S
C5464 C5469 1.425 . S
C5464 C5471 1.409 . S
C5465 H5457 0.930 . S
C5465 C5463 1.419 . S
C5465 C5466 1.362 . S
C5466 H5458 0.930 . S
C5466 C5465 1.362 . S
C5466 C5469 1.409 . S
C5467 H5459 0.930 . S
C5467 C5468 1.355 . S
C5467 C5469 1.415 . S
C5468 C5467 1.355 . S
C5468 C5470 1.419 . S
C5469 C5464 1.425 . S
C5469 C5466 1.409 . S
C5469 C5467 1.415 . S
C5470 H5460 0.930 . S
C5470 C5468 1.419 . S
C5470 C5471 1.362 . S
C5471 H5461 0.930 . S
C5471 C5464 1.409 . S
C5471 C5470 1.362 . S
H5472 C5478 0.930 . S
H5473 C5481 0.930 . S
H5474 C5482 0.930 . S
H5475 C5483 0.930 . S
H5476 C5486 0.930 . S
H5477 C5487 0.930 . S
C5478 H5472 0.930 . S
C5478 C5479 1.355 . S
C5478 C5480 1.415 . S
C5479 C5478 1.355 . S
C5479 C5481 1.419 . S
C5480 C5478 1.415 . S
C5480 C5485 1.425 . S
C5480 C5487 1.409 . S
C5481 H5473 0.930 . S
C5481 C5479 1.419 . S
C5481 C5482 1.362 . S
C5482 H5474 0.930 . S
C5482 C5481 1.362 . S
C5482 C5485 1.409 . S
C5483 H5475 0.930 . S
C5483 C5484 1.355 . S
C5483 C5485 1.415 . S
C5484 C5483 1.355 . S
C5484 C5486 1.419 . S
C5485 C5480 1.425 . S
C5485 C5482 1.409 . S
C5485 C5483 1.415 . S
C5486 H5476 0.930 . S
C5486 C5484 1.419 . S
C5486 C5487 1.362 . S
C5487 H5477 0.930 . S
C5487 C5480 1.409 . S
C5487 C5486 1.362 . S
H5488 C5494 0.930 . S
H5489 C5497 0.930 . S
H5490 C5498 0.930 . S
H5491 C5499 0.930 . S
H5492 C5502 0.930 . S
H5493 C5503 0.930 . S
C5494 H5488 0.930 . S
C5494 C5495 1.355 . S
C5494 C5496 1.415 . S
C5495 C5494 1.355 . S
C5495 C5497 1.419 . S
C5496 C5494 1.415 . S
C5496 C5501 1.425 . S
C5496 C5503 1.409 . S
C5497 H5489 0.930 . S
C5497 C5495 1.419 . S
C5497 C5498 1.362 . S
C5498 H5490 0.930 . S
C5498 C5497 1.362 . S
C5498 C5501 1.409 . S
C5499 H5491 0.930 . S
C5499 C5500 1.355 . S
C5499 C5501 1.415 . S
C5500 C5499 1.355 . S
C5500 C5502 1.419 . S
C5501 C5496 1.425 . S
C5501 C5498 1.409 . S
C5501 C5499 1.415 . S
C5502 H5492 0.930 . S
C5502 C5500 1.419 . S
C5502 C5503 1.362 . S
C5503 H5493 0.930 . S
C5503 C5496 1.409 . S
C5503 C5502 1.362 . S
H5504 C5510 0.930 . S
H5505 C5513 0.930 . S
H5506 C5514 0.930 . S
H5507 C5515 0.930 . S
H5508 C5518 0.930 . S
H5509 C5519 0.930 . S
C5510 H5504 0.930 . S
C5510 C5511 1.355 . S
C5510 C5512 1.415 . S
C5511 C5510 1.355 . S
C5511 C5513 1.419 . S
C5512 C5510 1.415 . S
C5512 C5517 1.425 . S
C5512 C5519 1.409 . S
C5513 H5505 0.930 . S
C5513 C5511 1.419 . S
C5513 C5514 1.362 . S
C5514 H5506 0.930 . S
C5514 C5513 1.362 . S
C5514 C5517 1.409 . S
C5515 H5507 0.930 . S
C5515 C5516 1.355 . S
C5515 C5517 1.415 . S
C5516 C5515 1.355 . S
C5516 C5518 1.419 . S
C5517 C5512 1.425 . S
C5517 C5514 1.409 . S
C5517 C5515 1.415 . S
C5518 H5508 0.930 . S
C5518 C5516 1.419 . S
C5518 C5519 1.362 . S
C5519 H5509 0.930 . S
C5519 C5512 1.409 . S
C5519 C5518 1.362 . S
H5520 C5526 0.930 . S
H5521 C5529 0.930 . S
H5522 C5530 0.930 . S
H5523 C5531 0.930 . S
H5524 C5534 0.930 . S
H5525 C5535 0.930 . S
C5526 H5520 0.930 . S
C5526 C5527 1.355 . S
C5526 C5528 1.415 . S
C5527 C5526 1.355 . S
C5527 C5529 1.419 . S
C5528 C5526 1.415 . S
C5528 C5533 1.425 . S
C5528 C5535 1.409 . S
C5529 H5521 0.930 . S
C5529 C5527 1.419 . S
C5529 C5530 1.362 . S
C5530 H5522 0.930 . S
C5530 C5529 1.362 . S
C5530 C5533 1.409 . S
C5531 H5523 0.930 . S
C5531 C5532 1.355 . S
C5531 C5533 1.415 . S
C5532 C5531 1.355 . S
C5532 C5534 1.419 . S
C5533 C5528 1.425 . S
C5533 C5530 1.409 . S
C5533 C5531 1.415 . S
C5534 H5524 0.930 . S
C5534 C5532 1.419 . S
C5534 C5535 1.362 . S
C5535 H5525 0.930 . S
C5535 C5528 1.409 . S
C5535 C5534 1.362 . S
H5536 C5542 0.930 . S
H5537 C5545 0.930 . S
H5538 C5546 0.930 . S
H5539 C5547 0.930 . S
H5540 C5550 0.930 . S
H5541 C5551 0.930 . S
C5542 H5536 0.930 . S
C5542 C5543 1.355 . S
C5542 C5544 1.415 . S
C5543 C5542 1.355 . S
C5543 C5545 1.419 . S
C5544 C5542 1.415 . S
C5544 C5549 1.425 . S
C5544 C5551 1.409 . S
C5545 H5537 0.930 . S
C5545 C5543 1.419 . S
C5545 C5546 1.362 . S
C5546 H5538 0.930 . S
C5546 C5545 1.362 . S
C5546 C5549 1.409 . S
C5547 H5539 0.930 . S
C5547 C5548 1.355 . S
C5547 C5549 1.415 . S
C5548 C5547 1.355 . S
C5548 C5550 1.419 . S
C5549 C5544 1.425 . S
C5549 C5546 1.409 . S
C5549 C5547 1.415 . S
C5550 H5540 0.930 . S
C5550 C5548 1.419 . S
C5550 C5551 1.362 . S
C5551 H5541 0.930 . S
C5551 C5544 1.409 . S
C5551 C5550 1.362 . S
H5552 C5558 0.930 . S
H5553 C5561 0.930 . S
H5554 C5562 0.930 . S
H5555 C5563 0.930 . S
H5556 C5566 0.930 . S
H5557 C5567 0.930 . S
C5558 H5552 0.930 . S
C5558 C5559 1.355 . S
C5558 C5560 1.415 . S
C5559 C5558 1.355 . S
C5559 C5561 1.419 . S
C5560 C5558 1.415 . S
C5560 C5565 1.425 . S
C5560 C5567 1.409 . S
C5561 H5553 0.930 . S
C5561 C5559 1.419 . S
C5561 C5562 1.362 . S
C5562 H5554 0.930 . S
C5562 C5561 1.362 . S
C5562 C5565 1.409 . S
C5563 H5555 0.930 . S
C5563 C5564 1.355 . S
C5563 C5565 1.415 . S
C5564 C5563 1.355 . S
C5564 C5566 1.419 . S
C5565 C5560 1.425 . S
C5565 C5562 1.409 . S
C5565 C5563 1.415 . S
C5566 H5556 0.930 . S
C5566 C5564 1.419 . S
C5566 C5567 1.362 . S
C5567 H5557 0.930 . S
C5567 C5560 1.409 . S
C5567 C5566 1.362 . S
H5568 C5574 0.930 . S
H5569 C5577 0.930 . S
H5570 C5578 0.930 . S
H5571 C5579 0.930 . S
H5572 C5582 0.930 . S
H5573 C5583 0.930 . S
C5574 H5568 0.930 . S
C5574 C5575 1.355 . S
C5574 C5576 1.415 . S
C5575 C5574 1.355 . S
C5575 C5577 1.419 . S
C5576 C5574 1.415 . S
C5576 C5581 1.425 . S
C5576 C5583 1.409 . S
C5577 H5569 0.930 . S
C5577 C5575 1.419 . S
C5577 C5578 1.362 . S
C5578 H5570 0.930 . S
C5578 C5577 1.362 . S
C5578 C5581 1.409 . S
C5579 H5571 0.930 . S
C5579 C5580 1.355 . S
C5579 C5581 1.415 . S
C5580 C5579 1.355 . S
C5580 C5582 1.419 . S
C5581 C5576 1.425 . S
C5581 C5578 1.409 . S
C5581 C5579 1.415 . S
C5582 H5572 0.930 . S
C5582 C5580 1.419 . S
C5582 C5583 1.362 . S
C5583 H5573 0.930 . S
C5583 C5576 1.409 . S
C5583 C5582 1.362 . S
H5584 C5590 0.930 . S
H5585 C5593 0.930 . S
H5586 C5594 0.930 . S
H5587 C5595 0.930 . S
H5588 C5598 0.930 . S
H5589 C5599 0.930 . S
C5590 H5584 0.930 . S
C5590 C5591 1.355 . S
C5590 C5592 1.415 . S
C5591 C5590 1.355 . S
C5591 C5593 1.419 . S
C5592 C5590 1.415 . S
C5592 C5597 1.425 . S
C5592 C5599 1.409 . S
C5593 H5585 0.930 . S
C5593 C5591 1.419 . S
C5593 C5594 1.362 . S
C5594 H5586 0.930 . S
C5594 C5593 1.362 . S
C5594 C5597 1.409 . S
C5595 H5587 0.930 . S
C5595 C5596 1.355 . S
C5595 C5597 1.415 . S
C5596 C5595 1.355 . S
C5596 C5598 1.419 . S
C5597 C5592 1.425 . S
C5597 C5594 1.409 . S
C5597 C5595 1.415 . S
C5598 H5588 0.930 . S
C5598 C5596 1.419 . S
C5598 C5599 1.362 . S
C5599 H5589 0.930 . S
C5599 C5592 1.409 . S
C5599 C5598 1.362 . S
H5600 C5606 0.930 . S
H5601 C5609 0.930 . S
H5602 C5610 0.930 . S
H5603 C5611 0.930 . S
H5604 C5614 0.930 . S
H5605 C5615 0.930 . S
C5606 H5600 0.930 . S
C5606 C5607 1.355 . S
C5606 C5608 1.415 . S
C5607 C5606 1.355 . S
C5607 C5609 1.419 . S
C5608 C5606 1.415 . S
C5608 C5613 1.425 . S
C5608 C5615 1.409 . S
C5609 H5601 0.930 . S
C5609 C5607 1.419 . S
C5609 C5610 1.362 . S
C5610 H5602 0.930 . S
C5610 C5609 1.362 . S
C5610 C5613 1.409 . S
C5611 H5603 0.930 . S
C5611 C5612 1.355 . S
C5611 C5613 1.415 . S
C5612 C5611 1.355 . S
C5612 C5614 1.419 . S
C5613 C5608 1.425 . S
C5613 C5610 1.409 . S
C5613 C5611 1.415 . S
C5614 H5604 0.930 . S
C5614 C5612 1.419 . S
C5614 C5615 1.362 . S
C5615 H5605 0.930 . S
C5615 C5608 1.409 . S
C5615 C5614 1.362 . S
H5616 C5622 0.930 . S
H5617 C5625 0.930 . S
H5618 C5626 0.930 . S
H5619 C5627 0.930 . S
H5620 C5630 0.930 . S
H5621 C5631 0.930 . S
C5622 H5616 0.930 . S
C5622 C5623 1.355 . S
C5622 C5624 1.415 . S
C5623 C5622 1.355 . S
C5623 C5625 1.419 . S
C5624 C5622 1.415 . S
C5624 C5629 1.425 . S
C5624 C5631 1.409 . S
C5625 H5617 0.930 . S
C5625 C5623 1.419 . S
C5625 C5626 1.362 . S
C5626 H5618 0.930 . S
C5626 C5625 1.362 . S
C5626 C5629 1.409 . S
C5627 H5619 0.930 . S
C5627 C5628 1.355 . S
C5627 C5629 1.415 . S
C5628 C5627 1.355 . S
C5628 C5630 1.419 . S
C5629 C5624 1.425 . S
C5629 C5626 1.409 . S
C5629 C5627 1.415 . S
C5630 H5620 0.930 . S
C5630 C5628 1.419 . S
C5630 C5631 1.362 . S
C5631 H5621 0.930 . S
C5631 C5624 1.409 . S
C5631 C5630 1.362 . S
H5632 C5638 0.930 . S
H5633 C5641 0.930 . S
H5634 C5642 0.930 . S
H5635 C5643 0.930 . S
H5636 C5646 0.930 . S
H5637 C5647 0.930 . S
C5638 H5632 0.930 . S
C5638 C5639 1.355 . S
C5638 C5640 1.415 . S
C5639 C5638 1.355 . S
C5639 C5641 1.419 . S
C5640 C5638 1.415 . S
C5640 C5645 1.425 . S
C5640 C5647 1.409 . S
C5641 H5633 0.930 . S
C5641 C5639 1.419 . S
C5641 C5642 1.362 . S
C5642 H5634 0.930 . S
C5642 C5641 1.362 . S
C5642 C5645 1.409 . S
C5643 H5635 0.930 . S
C5643 C5644 1.355 . S
C5643 C5645 1.415 . S
C5644 C5643 1.355 . S
C5644 C5646 1.419 . S
C5645 C5640 1.425 . S
C5645 C5642 1.409 . S
C5645 C5643 1.415 . S
C5646 H5636 0.930 . S
C5646 C5644 1.419 . S
C5646 C5647 1.362 . S
C5647 H5637 0.930 . S
C5647 C5640 1.409 . S
C5647 C5646 1.362 . S
H5648 C5654 0.930 . S
H5649 C5657 0.930 . S
H5650 C5658 0.930 . S
H5651 C5659 0.930 . S
H5652 C5662 0.930 . S
H5653 C5663 0.930 . S
C5654 H5648 0.930 . S
C5654 C5655 1.355 . S
C5654 C5656 1.415 . S
C5655 C5654 1.355 . S
C5655 C5657 1.419 . S
C5656 C5654 1.415 . S
C5656 C5661 1.425 . S
C5656 C5663 1.409 . S
C5657 H5649 0.930 . S
C5657 C5655 1.419 . S
C5657 C5658 1.362 . S
C5658 H5650 0.930 . S
C5658 C5657 1.362 . S
C5658 C5661 1.409 . S
C5659 H5651 0.930 . S
C5659 C5660 1.355 . S
C5659 C5661 1.415 . S
C5660 C5659 1.355 . S
C5660 C5662 1.419 . S
C5661 C5656 1.425 . S
C5661 C5658 1.409 . S
C5661 C5659 1.415 . S
C5662 H5652 0.930 . S
C5662 C5660 1.419 . S
C5662 C5663 1.362 . S
C5663 H5653 0.930 . S
C5663 C5656 1.409 . S
C5663 C5662 1.362 . S
H5664 C5670 0.930 . S
H5665 C5673 0.930 . S
H5666 C5674 0.930 . S
H5667 C5675 0.930 . S
H5668 C5678 0.930 . S
H5669 C5679 0.930 . S
C5670 H5664 0.930 . S
C5670 C5671 1.355 . S
C5670 C5672 1.415 . S
C5671 C5670 1.355 . S
C5671 C5673 1.419 . S
C5672 C5670 1.415 . S
C5672 C5677 1.425 . S
C5672 C5679 1.409 . S
C5673 H5665 0.930 . S
C5673 C5671 1.419 . S
C5673 C5674 1.362 . S
C5674 H5666 0.930 . S
C5674 C5673 1.362 . S
C5674 C5677 1.409 . S
C5675 H5667 0.930 . S
C5675 C5676 1.355 . S
C5675 C5677 1.415 . S
C5676 C5675 1.355 . S
C5676 C5678 1.419 . S
C5677 C5672 1.425 . S
C5677 C5674 1.409 . S
C5677 C5675 1.415 . S
C5678 H5668 0.930 . S
C5678 C5676 1.419 . S
C5678 C5679 1.362 . S
C5679 H5669 0.930 . S
C5679 C5672 1.409 . S
C5679 C5678 1.362 . S
H5680 C5686 0.930 . S
H5681 C5689 0.930 . S
H5682 C5690 0.930 . S
H5683 C5691 0.930 . S
H5684 C5694 0.930 . S
H5685 C5695 0.930 . S
C5686 H5680 0.930 . S
C5686 C5687 1.355 . S
C5686 C5688 1.415 . S
C5687 C5686 1.355 . S
C5687 C5689 1.419 . S
C5688 C5686 1.415 . S
C5688 C5693 1.425 . S
C5688 C5695 1.409 . S
C5689 H5681 0.930 . S
C5689 C5687 1.419 . S
C5689 C5690 1.362 . S
C5690 H5682 0.930 . S
C5690 C5689 1.362 . S
C5690 C5693 1.409 . S
C5691 H5683 0.930 . S
C5691 C5692 1.355 . S
C5691 C5693 1.415 . S
C5692 C5691 1.355 . S
C5692 C5694 1.419 . S
C5693 C5688 1.425 . S
C5693 C5690 1.409 . S
C5693 C5691 1.415 . S
C5694 H5684 0.930 . S
C5694 C5692 1.419 . S
C5694 C5695 1.362 . S
C5695 H5685 0.930 . S
C5695 C5688 1.409 . S
C5695 C5694 1.362 . S
H5696 C5702 0.930 . S
H5697 C5705 0.930 . S
H5698 C5706 0.930 . S
H5699 C5707 0.930 . S
H5700 C5710 0.930 . S
H5701 C5711 0.930 . S
C5702 H5696 0.930 . S
C5702 C5703 1.355 . S
C5702 C5704 1.415 . S
C5703 C5702 1.355 . S
C5703 C5705 1.419 . S
C5704 C5702 1.415 . S
C5704 C5709 1.425 . S
C5704 C5711 1.409 . S
C5705 H5697 0.930 . S
C5705 C5703 1.419 . S
C5705 C5706 1.362 . S
C5706 H5698 0.930 . S
C5706 C5705 1.362 . S
C5706 C5709 1.409 . S
C5707 H5699 0.930 . S
C5707 C5708 1.355 . S
C5707 C5709 1.415 . S
C5708 C5707 1.355 . S
C5708 C5710 1.419 . S
C5709 C5704 1.425 . S
C5709 C5706 1.409 . S
C5709 C5707 1.415 . S
C5710 H5700 0.930 . S
C5710 C5708 1.419 . S
C5710 C5711 1.362 . S
C5711 H5701 0.930 . S
C5711 C5704 1.409 . S
C5711 C5710 1.362 . S
H5712 C5718 0.930 . S
H5713 C5721 0.930 . S
H5714 C5722 0.930 . S
H5715 C5723 0.930 . S
H5716 C5726 0.930 . S
H5717 C5727 0.930 . S
C5718 H5712 0.930 . S
C5718 C5719 1.355 . S
C5718 C5720 1.415 . S
C5719 C5718 1.355 . S
C5719 C5721 1.419 . S
C5720 C5718 1.415 . S
C5720 C5725 1.425 . S
C5720 C5727 1.409 . S
C5721 H5713 0.930 . S
C5721 C5719 1.419 . S
C5721 C5722 1.362 . S
C5722 H5714 0.930 . S
C5722 C5721 1.362 . S
C5722 C5725 1.409 . S
C5723 H5715 0.930 . S
C5723 C5724 1.355 . S
C5723 C5725 1.415 . S
C5724 C5723 1.355 . S
C5724 C5726 1.419 . S
C5725 C5720 1.425 . S
C5725 C5722 1.409 . S
C5725 C5723 1.415 . S
C5726 H5716 0.930 . S
C5726 C5724 1.419 . S
C5726 C5727 1.362 . S
C5727 H5717 0.930 . S
C5727 C5720 1.409 . S
C5727 C5726 1.362 . S
H5728 C5734 0.930 . S
H5729 C5737 0.930 . S
H5730 C5738 0.930 . S
H5731 C5739 0.930 . S
H5732 C5742 0.930 . S
H5733 C5743 0.930 . S
C5734 H5728 0.930 . S
C5734 C5735 1.355 . S
C5734 C5736 1.415 . S
C5735 C5734 1.355 . S
C5735 C5737 1.419 . S
C5736 C5734 1.415 . S
C5736 C5741 1.425 . S
C5736 C5743 1.409 . S
C5737 H5729 0.930 . S
C5737 C5735 1.419 . S
C5737 C5738 1.362 . S
C5738 H5730 0.930 . S
C5738 C5737 1.362 . S
C5738 C5741 1.409 . S
C5739 H5731 0.930 . S
C5739 C5740 1.355 . S
C5739 C5741 1.415 . S
C5740 C5739 1.355 . S
C5740 C5742 1.419 . S
C5741 C5736 1.425 . S
C5741 C5738 1.409 . S
C5741 C5739 1.415 . S
C5742 H5732 0.930 . S
C5742 C5740 1.419 . S
C5742 C5743 1.362 . S
C5743 H5733 0.930 . S
C5743 C5736 1.409 . S
C5743 C5742 1.362 . S
H5744 C5750 0.930 . S
H5745 C5753 0.930 . S
H5746 C5754 0.930 . S
H5747 C5755 0.930 . S
H5748 C5758 0.930 . S
H5749 C5759 0.930 . S
C5750 H5744 0.930 . S
C5750 C5751 1.355 . S
C5750 C5752 1.415 . S
C5751 C5750 1.355 . S
C5751 C5753 1.419 . S
C5752 C5750 1.415 . S
C5752 C5757 1.425 . S
C5752 C5759 1.409 . S
C5753 H5745 0.930 . S
C5753 C5751 1.419 . S
C5753 C5754 1.362 . S
C5754 H5746 0.930 . S
C5754 C5753 1.362 . S
C5754 C5757 1.409 . S
C5755 H5747 0.930 . S
C5755 C5756 1.355 . S
C5755 C5757 1.415 . S
C5756 C5755 1.355 . S
C5756 C5758 1.419 . S
C5757 C5752 1.425 . S
C5757 C5754 1.409 . S
C5757 C5755 1.415 . S
C5758 H5748 0.930 . S
C5758 C5756 1.419 . S
C5758 C5759 1.362 . S
C5759 H5749 0.930 . S
C5759 C5752 1.409 . S
C5759 C5758 1.362 . S
H5760 C5766 0.930 . S
H5761 C5769 0.930 . S
H5762 C5770 0.930 . S
H5763 C5771 0.930 . S
H5764 C5774 0.930 . S
H5765 C5775 0.930 . S
C5766 H5760 0.930 . S
C5766 C5767 1.355 . S
C5766 C5768 1.415 . S
C5767 C5766 1.355 . S
C5767 C5769 1.419 . S
C5768 C5766 1.415 . S
C5768 C5773 1.425 . S
C5768 C5775 1.409 . S
C5769 H5761 0.930 . S
C5769 C5767 1.419 . S
C5769 C5770 1.362 . S
C5770 H5762 0.930 . S
C5770 C5769 1.362 . S
C5770 C5773 1.409 . S
C5771 H5763 0.930 . S
C5771 C5772 1.355 . S
C5771 C5773 1.415 . S
C5772 C5771 1.355 . S
C5772 C5774 1.419 . S
C5773 C5768 1.425 . S
C5773 C5770 1.409 . S
C5773 C5771 1.415 . S
C5774 H5764 0.930 . S
C5774 C5772 1.419 . S
C5774 C5775 1.362 . S
C5775 H5765 0.930 . S
C5775 C5768 1.409 . S
C5775 C5774 1.362 . S
H5776 C5782 0.930 . S
H5777 C5785 0.930 . S
H5778 C5786 0.930 . S
H5779 C5787 0.930 . S
H5780 C5790 0.930 . S
H5781 C5791 0.930 . S
C5782 H5776 0.930 . S
C5782 C5783 1.355 . S
C5782 C5784 1.415 . S
C5783 C5782 1.355 . S
C5783 C5785 1.419 . S
C5784 C5782 1.415 . S
C5784 C5789 1.425 . S
C5784 C5791 1.409 . S
C5785 H5777 0.930 . S
C5785 C5783 1.419 . S
C5785 C5786 1.362 . S
C5786 H5778 0.930 . S
C5786 C5785 1.362 . S
C5786 C5789 1.409 . S
C5787 H5779 0.930 . S
C5787 C5788 1.355 . S
C5787 C5789 1.415 . S
C5788 C5787 1.355 . S
C5788 C5790 1.419 . S
C5789 C5784 1.425 . S
C5789 C5786 1.409 . S
C5789 C5787 1.415 . S
C5790 H5780 0.930 . S
C5790 C5788 1.419 . S
C5790 C5791 1.362 . S
C5791 H5781 0.930 . S
C5791 C5784 1.409 . S
C5791 C5790 1.362 . S
H5792 C5798 0.930 . S
H5793 C5801 0.930 . S
H5794 C5802 0.930 . S
H5795 C5803 0.930 . S
H5796 C5806 0.930 . S
H5797 C5807 0.930 . S
C5798 H5792 0.930 . S
C5798 C5799 1.355 . S
C5798 C5800 1.415 . S
C5799 C5798 1.355 . S
C5799 C5801 1.419 . S
C5800 C5798 1.415 . S
C5800 C5805 1.425 . S
C5800 C5807 1.409 . S
C5801 H5793 0.930 . S
C5801 C5799 1.419 . S
C5801 C5802 1.362 . S
C5802 H5794 0.930 . S
C5802 C5801 1.362 . S
C5802 C5805 1.409 . S
C5803 H5795 0.930 . S
C5803 C5804 1.355 . S
C5803 C5805 1.415 . S
C5804 C5803 1.355 . S
C5804 C5806 1.419 . S
C5805 C5800 1.425 . S
C5805 C5802 1.409 . S
C5805 C5803 1.415 . S
C5806 H5796 0.930 . S
C5806 C5804 1.419 . S
C5806 C5807 1.362 . S
C5807 H5797 0.930 . S
C5807 C5800 1.409 . S
C5807 C5806 1.362 . S
H5808 C5814 0.930 . S
H5809 C5817 0.930 . S
H5810 C5818 0.930 . S
H5811 C5819 0.930 . S
H5812 C5822 0.930 . S
H5813 C5823 0.930 . S
C5814 H5808 0.930 . S
C5814 C5815 1.355 . S
C5814 C5816 1.415 . S
C5815 C5814 1.355 . S
C5815 C5817 1.419 . S
C5816 C5814 1.415 . S
C5816 C5821 1.425 . S
C5816 C5823 1.409 . S
C5817 H5809 0.930 . S
C5817 C5815 1.419 . S
C5817 C5818 1.362 . S
C5818 H5810 0.930 . S
C5818 C5817 1.362 . S
C5818 C5821 1.409 . S
C5819 H5811 0.930 . S
C5819 C5820 1.355 . S
C5819 C5821 1.415 . S
C5820 C5819 1.355 . S
C5820 C5822 1.419 . S
C5821 C5816 1.425 . S
C5821 C5818 1.409 . S
C5821 C5819 1.415 . S
C5822 H5812 0.930 . S
C5822 C5820 1.419 . S
C5822 C5823 1.362 . S
C5823 H5813 0.930 . S
C5823 C5816 1.409 . S
C5823 C5822 1.362 . S
H5824 C5830 0.930 . S
H5825 C5833 0.930 . S
H5826 C5834 0.930 . S
H5827 C5835 0.930 . S
H5828 C5838 0.930 . S
H5829 C5839 0.930 . S
C5830 H5824 0.930 . S
C5830 C5831 1.355 . S
C5830 C5832 1.415 . S
C5831 C5830 1.355 . S
C5831 C5833 1.419 . S
C5832 C5830 1.415 . S
C5832 C5837 1.425 . S
C5832 C5839 1.409 . S
C5833 H5825 0.930 . S
C5833 C5831 1.419 . S
C5833 C5834 1.362 . S
C5834 H5826 0.930 . S
C5834 C5833 1.362 . S
C5834 C5837 1.409 . S
C5835 H5827 0.930 . S
C5835 C5836 1.355 . S
C5835 C5837 1.415 . S
C5836 C5835 1.355 . S
C5836 C5838 1.419 . S
C5837 C5832 1.425 . S
C5837 C5834 1.409 . S
C5837 C5835 1.415 . S
C5838 H5828 0.930 . S
C5838 C5836 1.419 . S
C5838 C5839 1.362 . S
C5839 H5829 0.930 . S
C5839 C5832 1.409 . S
C5839 C5838 1.362 . S
H5840 C5846 0.930 . S
H5841 C5849 0.930 . S
H5842 C5850 0.930 . S
H5843 C5851 0.930 . S
H5844 C5854 0.930 . S
H5845 C5855 0.930 . S
C5846 H5840 0.930 . S
C5846 C5847 1.355 . S
C5846 C5848 1.415 . S
C5847 C5846 1.355 . S
C5847 C5849 1.419 . S
C5848 C5846 1.415 . S
C5848 C5853 1.425 . S
C5848 C5855 1.409 . S
C5849 H5841 0.930 . S
C5849 C5847 1.419 . S
C5849 C5850 1.362 . S
C5850 H5842 0.930 . S
C5850 C5849 1.362 . S
C5850 C5853 1.409 . S
C5851 H5843 0.930 . S
C5851 C5852 1.355 . S
C5851 C5853 1.415 . S
C5852 C5851 1.355 . S
C5852 C5854 1.419 . S
C5853 C5848 1.425 . S
C5853 C5850 1.409 . S
C5853 C5851 1.415 . S
C5854 H5844 0.930 . S
C5854 C5852 1.419 . S
C5854 C5855 1.362 . S
C5855 H5845 0.930 . S
C5855 C5848 1.409 . S
C5855 C5854 1.362 . S
H5856 C5862 0.930 . S
H5857 C5865 0.930 . S
H5858 C5866 0.930 . S
H5859 C5867 0.930 . S
H5860 C5870 0.930 . S
H5861 C5871 0.930 . S
C5862 H5856 0.930 . S
C5862 C5863 1.355 . S
C5862 C5864 1.415 . S
C5863 C5862 1.355 . S
C5863 C5865 1.419 . S
C5864 C5862 1.415 . S
C5864 C5869 1.425 . S
C5864 C5871 1.409 . S
C5865 H5857 0.930 . S
C5865 C5863 1.419 . S
C5865 C5866 1.362 . S
C5866 H5858 0.930 . S
C5866 C5865 1.362 . S
C5866 C5869 1.409 . S
C5867 H5859 0.930 . S
C5867 C5868 1.355 . S
C5867 C5869 1.415 . S
C5868 C5867 1.355 . S
C5868 C5870 1.419 . S
C5869 C5864 1.425 . S
C5869 C5866 1.409 . S
C5869 C5867 1.415 . S
C5870 H5860 0.930 . S
C5870 C5868 1.419 . S
C5870 C5871 1.362 . S
C5871 H5861 0.930 . S
C5871 C5864 1.409 . S
C5871 C5870 1.362 . S
H5872 C5878 0.930 . S
H5873 C5881 0.930 . S
H5874 C5882 0.930 . S
H5875 C5883 0.930 . S
H5876 C5886 0.930 . S
H5877 C5887 0.930 . S
C5878 H5872 0.930 . S
C5878 C5879 1.355 . S
C5878 C5880 1.415 . S
C5879 C5878 1.355 . S
C5879 C5881 1.419 . S
C5880 C5878 1.415 . S
C5880 C5885 1.425 . S
C5880 C5887 1.409 . S
C5881 H5873 0.930 . S
C5881 C5879 1.419 . S
C5881 C5882 1.362 . S
C5882 H5874 0.930 . S
C5882 C5881 1.362 . S
C5882 C5885 1.409 . S
C5883 H5875 0.930 . S
C5883 C5884 1.355 . S
C5883 C5885 1.415 . S
C5884 C5883 1.355 . S
C5884 C5886 1.419 . S
C5885 C5880 1.425 . S
C5885 C5882 1.409 . S
C5885 C5883 1.415 . S
C5886 H5876 0.930 . S
C5886 C5884 1.419 . S
C5886 C5887 1.362 . S
C5887 H5877 0.930 . S
C5887 C5880 1.409 . S
C5887 C5886 1.362 . S
H5888 C5894 0.930 . S
H5889 C5897 0.930 . S
H5890 C5898 0.930 . S
H5891 C5899 0.930 . S
H5892 C5902 0.930 . S
H5893 C5903 0.930 . S
C5894 H5888 0.930 . S
C5894 C5895 1.355 . S
C5894 C5896 1.415 . S
C5895 C5894 1.355 . S
C5895 C5897 1.419 . S
C5896 C5894 1.415 . S
C5896 C5901 1.425 . S
C5896 C5903 1.409 . S
C5897 H5889 0.930 . S
C5897 C5895 1.419 . S
C5897 C5898 1.362 . S
C5898 H5890 0.930 . S
C5898 C5897 1.362 . S
C5898 C5901 1.409 . S
C5899 H5891 0.930 . S
C5899 C5900 1.355 . S
C5899 C5901 1.415 . S
C5900 C5899 1.355 . S
C5900 C5902 1.419 . S
C5901 C5896 1.425 . S
C5901 C5898 1.409 . S
C5901 C5899 1.415 . S
C5902 H5892 0.930 . S
C5902 C5900 1.419 . S
C5902 C5903 1.362 . S
C5903 H5893 0.930 . S
C5903 C5896 1.409 . S
C5903 C5902 1.362 . S
H5904 C5910 0.930 . S
H5905 C5913 0.930 . S
H5906 C5914 0.930 . S
H5907 C5915 0.930 . S
H5908 C5918 0.930 . S
H5909 C5919 0.930 . S
C5910 H5904 0.930 . S
C5910 C5911 1.355 . S
C5910 C5912 1.415 . S
C5911 C5910 1.355 . S
C5911 C5913 1.419 . S
C5912 C5910 1.415 . S
C5912 C5917 1.425 . S
C5912 C5919 1.409 . S
C5913 H5905 0.930 . S
C5913 C5911 1.419 . S
C5913 C5914 1.362 . S
C5914 H5906 0.930 . S
C5914 C5913 1.362 . S
C5914 C5917 1.409 . S
C5915 H5907 0.930 . S
C5915 C5916 1.355 . S
C5915 C5917 1.415 . S
C5916 C5915 1.355 . S
C5916 C5918 1.419 . S
C5917 C5912 1.425 . S
C5917 C5914 1.409 . S
C5917 C5915 1.415 . S
C5918 H5908 0.930 . S
C5918 C5916 1.419 . S
C5918 C5919 1.362 . S
C5919 H5909 0.930 . S
C5919 C5912 1.409 . S
C5919 C5918 1.362 . S
H5920 C5926 0.930 . S
H5921 C5929 0.930 . S
H5922 C5930 0.930 . S
H5923 C5931 0.930 . S
H5924 C5934 0.930 . S
H5925 C5935 0.930 . S
C5926 H5920 0.930 . S
C5926 C5927 1.355 . S
C5926 C5928 1.415 . S
C5927 C5926 1.355 . S
C5927 C5929 1.419 . S
C5928 C5926 1.415 . S
C5928 C5933 1.425 . S
C5928 C5935 1.409 . S
C5929 H5921 0.930 . S
C5929 C5927 1.419 . S
C5929 C5930 1.362 . S
C5930 H5922 0.930 . S
C5930 C5929 1.362 . S
C5930 C5933 1.409 . S
C5931 H5923 0.930 . S
C5931 C5932 1.355 . S
C5931 C5933 1.415 . S
C5932 C5931 1.355 . S
C5932 C5934 1.419 . S
C5933 C5928 1.425 . S
C5933 C5930 1.409 . S
C5933 C5931 1.415 . S
C5934 H5924 0.930 . S
C5934 C5932 1.419 . S
C5934 C5935 1.362 . S
C5935 H5925 0.930 . S
C5935 C5928 1.409 . S
C5935 C5934 1.362 . S
H5936 C5942 0.930 . S
H5937 C5945 0.930 . S
H5938 C5946 0.930 . S
H5939 C5947 0.930 . S
H5940 C5950 0.930 . S
H5941 C5951 0.930 . S
C5942 H5936 0.930 . S
C5942 C5943 1.355 . S
C5942 C5944 1.415 . S
C5943 C5942 1.355 . S
C5943 C5945 1.419 . S
C5944 C5942 1.415 . S
C5944 C5949 1.425 . S
C5944 C5951 1.409 . S
C5945 H5937 0.930 . S
C5945 C5943 1.419 . S
C5945 C5946 1.362 . S
C5946 H5938 0.930 . S
C5946 C5945 1.362 . S
C5946 C5949 1.409 . S
C5947 H5939 0.930 . S
C5947 C5948 1.355 . S
C5947 C5949 1.415 . S
C5948 C5947 1.355 . S
C5948 C5950 1.419 . S
C5949 C5944 1.425 . S
C5949 C5946 1.409 . S
C5949 C5947 1.415 . S
C5950 H5940 0.930 . S
C5950 C5948 1.419 . S
C5950 C5951 1.362 . S
C5951 H5941 0.930 . S
C5951 C5944 1.409 . S
C5951 C5950 1.362 . S
H5952 C5958 0.930 . S
H5953 C5961 0.930 . S
H5954 C5962 0.930 . S
H5955 C5963 0.930 . S
H5956 C5966 0.930 . S
H5957 C5967 0.930 . S
C5958 H5952 0.930 . S
C5958 C5959 1.355 . S
C5958 C5960 1.415 . S
C5959 C5958 1.355 . S
C5959 C5961 1.419 . S
C5960 C5958 1.415 . S
C5960 C5965 1.425 . S
C5960 C5967 1.409 . S
C5961 H5953 0.930 . S
C5961 C5959 1.419 . S
C5961 C5962 1.362 . S
C5962 H5954 0.930 . S
C5962 C5961 1.362 . S
C5962 C5965 1.409 . S
C5963 H5955 0.930 . S
C5963 C5964 1.355 . S
C5963 C5965 1.415 . S
C5964 C5963 1.355 . S
C5964 C5966 1.419 . S
C5965 C5960 1.425 . S
C5965 C5962 1.409 . S
C5965 C5963 1.415 . S
C5966 H5956 0.930 . S
C5966 C5964 1.419 . S
C5966 C5967 1.362 . S
C5967 H5957 0.930 . S
C5967 C5960 1.409 . S
C5967 C5966 1.362 . S
H5968 C5974 0.930 . S
H5969 C5977 0.930 . S
H5970 C5978 0.930 . S
H5971 C5979 0.930 . S
H5972 C5982 0.930 . S
H5973 C5983 0.930 . S
C5974 H5968 0.930 . S
C5974 C5975 1.355 . S
C5974 C5976 1.415 . S
C5975 C5974 1.355 . S
C5975 C5977 1.419 . S
C5976 C5974 1.415 . S
C5976 C5981 1.425 . S
C5976 C5983 1.409 . S
C5977 H5969 0.930 . S
C5977 C5975 1.419 . S
C5977 C5978 1.362 . S
C5978 H5970 0.930 . S
C5978 C5977 1.362 . S
C5978 C5981 1.409 . S
C5979 H5971 0.930 . S
C5979 C5980 1.355 . S
C5979 C5981 1.415 . S
C5980 C5979 1.355 . S
C5980 C5982 1.419 . S
C5981 C5976 1.425 . S
C5981 C5978 1.409 . S
C5981 C5979 1.415 . S
C5982 H5972 0.930 . S
C5982 C5980 1.419 . S
C5982 C5983 1.362 . S
C5983 H5973 0.930 . S
C5983 C5976 1.409 . S
C5983 C5982 1.362 . S
H5984 C5990 0.930 . S
H5985 C5993 0.930 . S
H5986 C5994 0.930 . S
H5987 C5995 0.930 . S
H5988 C5998 0.930 . S
H5989 C5999 0.930 . S
C5990 H5984 0.930 . S
C5990 C5991 1.355 . S
C5990 C5992 1.415 . S
C5991 C5990 1.355 . S
C5991 C5993 1.419 . S
C5992 C5990 1.415 . S
C5992 C5997 1.425 . S
C5992 C5999 1.409 . S
C5993 H5985 0.930 . S
C5993 C5991 1.419 . S
C5993 C5994 1.362 . S
C5994 H5986 0.930 . S
C5994 C5993 1.362 . S
C5994 C5997 1.409 . S
C5995 H5987 0.930 . S
C5995 C5996 1.355 . S
C5995 C5997 1.415 . S
C5996 C5995 1.355 . S
C5996 C5998 1.419 . S
C5997 C5992 1.425 . S
C5997 C5994 1.409 . S
C5997 C5995 1.415 . S
C5998 H5988 0.930 . S
C5998 C5996 1.419 . S
C5998 C5999 1.362 . S
C5999 H5989 0.930 . S
C5999 C5992 1.409 . S
C5999 C5998 1.362 . S
H6000 C6006 0.930 . S
H6001 C6009 0.930 . S
H6002 C6010 0.930 . S
H6003 C6011 0.930 . S
H6004 C6014 0.930 . S
H6005 C6015 0.930 . S
C6006 H6000 0.930 . S
C6006 C6007 1.355 . S
C6006 C6008 1.415 . S
C6007 C6006 1.355 . S
C6007 C6009 1.419 . S
C6008 C6006 1.415 . S
C6008 C6013 1.425 . S
C6008 C6015 1.409 . S
C6009 H6001 0.930 . S
C6009 C6007 1.419 . S
C6009 C6010 1.362 . S
C6010 H6002 0.930 . S
C6010 C6009 1.362 . S
C6010 C6013 1.409 . S
C6011 H6003 0.930 . S
C6011 C6012 1.355 . S
C6011 C6013 1.415 . S
C6012 C6011 1.355 . S
C6012 C6014 1.419 . S
C6013 C6008 1.425 . S
C6013 C6010 1.409 . S
C6013 C6011 1.415 . S
C6014 H6004 0.930 . S
C6014 C6012 1.419 . S
C6014 C6015 1.362 . S
C6015 H6005 0.930 . S
C6015 C6008 1.409 . S
C6015 C6014 1.362 . S
H6016 C6022 0.930 . S
H6017 C6025 0.930 . S
H6018 C6026 0.930 . S
H6019 C6027 0.930 . S
H6020 C6030 0.930 . S
H6021 C6031 0.930 . S
C6022 H6016 0.930 . S
C6022 C6023 1.355 . S
C6022 C6024 1.415 . S
C6023 C6022 1.355 . S
C6023 C6025 1.419 . S
C6024 C6022 1.415 . S
C6024 C6029 1.425 . S
C6024 C6031 1.409 . S
C6025 H6017 0.930 . S
C6025 C6023 1.419 . S
C6025 C6026 1.362 . S
C6026 H6018 0.930 . S
C6026 C6025 1.362 . S
C6026 C6029 1.409 . S
C6027 H6019 0.930 . S
C6027 C6028 1.355 . S
C6027 C6029 1.415 . S
C6028 C6027 1.355 . S
C6028 C6030 1.419 . S
C6029 C6024 1.425 . S
C6029 C6026 1.409 . S
C6029 C6027 1.415 . S
C6030 H6020 0.930 . S
C6030 C6028 1.419 . S
C6030 C6031 1.362 . S
C6031 H6021 0.930 . S
C6031 C6024 1.409 . S
C6031 C6030 1.362 . S
H6032 C6038 0.930 . S
H6033 C6041 0.930 . S
H6034 C6042 0.930 . S
H6035 C6043 0.930 . S
H6036 C6046 0.930 . S
H6037 C6047 0.930 . S
C6038 H6032 0.930 . S
C6038 C6039 1.355 . S
C6038 C6040 1.415 . S
C6039 C6038 1.355 . S
C6039 C6041 1.419 . S
C6040 C6038 1.415 . S
C6040 C6045 1.425 . S
C6040 C6047 1.409 . S
C6041 H6033 0.930 . S
C6041 C6039 1.419 . S
C6041 C6042 1.362 . S
C6042 H6034 0.930 . S
C6042 C6041 1.362 . S
C6042 C6045 1.409 . S
C6043 H6035 0.930 . S
C6043 C6044 1.355 . S
C6043 C6045 1.415 . S
C6044 C6043 1.355 . S
C6044 C6046 1.419 . S
C6045 C6040 1.425 . S
C6045 C6042 1.409 . S
C6045 C6043 1.415 . S
C6046 H6036 0.930 . S
C6046 C6044 1.419 . S
C6046 C6047 1.362 . S
C6047 H6037 0.930 . S
C6047 C6040 1.409 . S
C6047 C6046 1.362 . S
H6048 C6054 0.930 . S
H6049 C6057 0.930 . S
H6050 C6058 0.930 . S
H6051 C6059 0.930 . S
H6052 C6062 0.930 . S
H6053 C6063 0.930 . S
C6054 H6048 0.930 . S
C6054 C6055 1.355 . S
C6054 C6056 1.415 . S
C6055 C6054 1.355 . S
C6055 C6057 1.419 . S
C6056 C6054 1.415 . S
C6056 C6061 1.425 . S
C6056 C6063 1.409 . S
C6057 H6049 0.930 . S
C6057 C6055 1.419 . S
C6057 C6058 1.362 . S
C6058 H6050 0.930 . S
C6058 C6057 1.362 . S
C6058 C6061 1.409 . S
C6059 H6051 0.930 . S
C6059 C6060 1.355 . S
C6059 C6061 1.415 . S
C6060 C6059 1.355 . S
C6060 C6062 1.419 . S
C6061 C6056 1.425 . S
C6061 C6058 1.409 . S
C6061 C6059 1.415 . S
C6062 H6052 0.930 . S
C6062 C6060 1.419 . S
C6062 C6063 1.362 . S
C6063 H6053 0.930 . S
C6063 C6056 1.409 . S
C6063 C6062 1.362 . S
H6064 C6070 0.930 . S
H6065 C6073 0.930 . S
H6066 C6074 0.930 . S
H6067 C6075 0.930 . S
H6068 C6078 0.930 . S
H6069 C6079 0.930 . S
C6070 H6064 0.930 . S
C6070 C6071 1.355 . S
C6070 C6072 1.415 . S
C6071 C6070 1.355 . S
C6071 C6073 1.419 . S
C6072 C6070 1.415 . S
C6072 C6077 1.425 . S
C6072 C6079 1.409 . S
C6073 H6065 0.930 . S
C6073 C6071 1.419 . S
C6073 C6074 1.362 . S
C6074 H6066 0.930 . S
C6074 C6073 1.362 . S
C6074 C6077 1.409 . S
C6075 H6067 0.930 . S
C6075 C6076 1.355 . S
C6075 C6077 1.415 . S
C6076 C6075 1.355 . S
C6076 C6078 1.419 . S
C6077 C6072 1.425 . S
C6077 C6074 1.409 . S
C6077 C6075 1.415 . S
C6078 H6068 0.930 . S
C6078 C6076 1.419 . S
C6078 C6079 1.362 . S
C6079 H6069 0.930 . S
C6079 C6072 1.409 . S
C6079 C6078 1.362 . S
H6080 C6086 0.930 . S
H6081 C6089 0.930 . S
H6082 C6090 0.930 . S
H6083 C6091 0.930 . S
H6084 C6094 0.930 . S
H6085 C6095 0.930 . S
C6086 H6080 0.930 . S
C6086 C6087 1.355 . S
C6086 C6088 1.415 . S
C6087 C6086 1.355 . S
C6087 C6089 1.419 . S
C6088 C6086 1.415 . S
C6088 C6093 1.425 . S
C6088 C6095 1.409 . S
C6089 H6081 0.930 . S
C6089 C6087 1.419 . S
C6089 C6090 1.362 . S
C6090 H6082 0.930 . S
C6090 C6089 1.362 . S
C6090 C6093 1.409 . S
C6091 H6083 0.930 . S
C6091 C6092 1.355 . S
C6091 C6093 1.415 . S
C6092 C6091 1.355 . S
C6092 C6094 1.419 . S
C6093 C6088 1.425 . S
C6093 C6090 1.409 . S
C6093 C6091 1.415 . S
C6094 H6084 0.930 . S
C6094 C6092 1.419 . S
C6094 C6095 1.362 . S
C6095 H6085 0.930 . S
C6095 C6088 1.409 . S
C6095 C6094 1.362 . S
H6096 C6102 0.930 . S
H6097 C6105 0.930 . S
H6098 C6106 0.930 . S
H6099 C6107 0.930 . S
H6100 C6110 0.930 . S
H6101 C6111 0.930 . S
C6102 H6096 0.930 . S
C6102 C6103 1.355 . S
C6102 C6104 1.415 . S
C6103 C6102 1.355 . S
C6103 C6105 1.419 . S
C6104 C6102 1.415 . S
C6104 C6109 1.425 . S
C6104 C6111 1.409 . S
C6105 H6097 0.930 . S
C6105 C6103 1.419 . S
C6105 C6106 1.362 . S
C6106 H6098 0.930 . S
C6106 C6105 1.362 . S
C6106 C6109 1.409 . S
C6107 H6099 0.930 . S
C6107 C6108 1.355 . S
C6107 C6109 1.415 . S
C6108 C6107 1.355 . S
C6108 C6110 1.419 . S
C6109 C6104 1.425 . S
C6109 C6106 1.409 . S
C6109 C6107 1.415 . S
C6110 H6100 0.930 . S
C6110 C6108 1.419 . S
C6110 C6111 1.362 . S
C6111 H6101 0.930 . S
C6111 C6104 1.409 . S
C6111 C6110 1.362 . S
H6112 C6118 0.930 . S
H6113 C6121 0.930 . S
H6114 C6122 0.930 . S
H6115 C6123 0.930 . S
H6116 C6126 0.930 . S
H6117 C6127 0.930 . S
C6118 H6112 0.930 . S
C6118 C6119 1.355 . S
C6118 C6120 1.415 . S
C6119 C6118 1.355 . S
C6119 C6121 1.419 . S
C6120 C6118 1.415 . S
C6120 C6125 1.425 . S
C6120 C6127 1.409 . S
C6121 H6113 0.930 . S
C6121 C6119 1.419 . S
C6121 C6122 1.362 . S
C6122 H6114 0.930 . S
C6122 C6121 1.362 . S
C6122 C6125 1.409 . S
C6123 H6115 0.930 . S
C6123 C6124 1.355 . S
C6123 C6125 1.415 . S
C6124 C6123 1.355 . S
C6124 C6126 1.419 . S
C6125 C6120 1.425 . S
C6125 C6122 1.409 . S
C6125 C6123 1.415 . S
C6126 H6116 0.930 . S
C6126 C6124 1.419 . S
C6126 C6127 1.362 . S
C6127 H6117 0.930 . S
C6127 C6120 1.409 . S
C6127 C6126 1.362 . S
H6128 C6134 0.930 . S
H6129 C6137 0.930 . S
H6130 C6138 0.930 . S
H6131 C6139 0.930 . S
H6132 C6142 0.930 . S
H6133 C6143 0.930 . S
C6134 H6128 0.930 . S
C6134 C6135 1.355 . S
C6134 C6136 1.415 . S
C6135 C6134 1.355 . S
C6135 C6137 1.419 . S
C6136 C6134 1.415 . S
C6136 C6141 1.425 . S
C6136 C6143 1.409 . S
C6137 H6129 0.930 . S
C6137 C6135 1.419 . S
C6137 C6138 1.362 . S
C6138 H6130 0.930 . S
C6138 C6137 1.362 . S
C6138 C6141 1.409 . S
C6139 H6131 0.930 . S
C6139 C6140 1.355 . S
C6139 C6141 1.415 . S
C6140 C6139 1.355 . S
C6140 C6142 1.419 . S
C6141 C6136 1.425 . S
C6141 C6138 1.409 . S
C6141 C6139 1.415 . S
C6142 H6132 0.930 . S
C6142 C6140 1.419 . S
C6142 C6143 1.362 . S
C6143 H6133 0.930 . S
C6143 C6136 1.409 . S
C6143 C6142 1.362 . S
H6144 C6150 0.930 . S
H6145 C6153 0.930 . S
H6146 C6154 0.930 . S
H6147 C6155 0.930 . S
H6148 C6158 0.930 . S
H6149 C6159 0.930 . S
C6150 H6144 0.930 . S
C6150 C6151 1.355 . S
C6150 C6152 1.415 . S
C6151 C6150 1.355 . S
C6151 C6153 1.419 . S
C6152 C6150 1.415 . S
C6152 C6157 1.425 . S
C6152 C6159 1.409 . S
C6153 H6145 0.930 . S
C6153 C6151 1.419 . S
C6153 C6154 1.362 . S
C6154 H6146 0.930 . S
C6154 C6153 1.362 . S
C6154 C6157 1.409 . S
C6155 H6147 0.930 . S
C6155 C6156 1.355 . S
C6155 C6157 1.415 . S
C6156 C6155 1.355 . S
C6156 C6158 1.419 . S
C6157 C6152 1.425 . S
C6157 C6154 1.409 . S
C6157 C6155 1.415 . S
C6158 H6148 0.930 . S
C6158 C6156 1.419 . S
C6158 C6159 1.362 . S
C6159 H6149 0.930 . S
C6159 C6152 1.409 . S
C6159 C6158 1.362 . S
H6160 C6166 0.930 . S
H6161 C6169 0.930 . S
H6162 C6170 0.930 . S
H6163 C6171 0.930 . S
H6164 C6174 0.930 . S
H6165 C6175 0.930 . S
C6166 H6160 0.930 . S
C6166 C6167 1.355 . S
C6166 C6168 1.415 . S
C6167 C6166 1.355 . S
C6167 C6169 1.419 . S
C6168 C6166 1.415 . S
C6168 C6173 1.425 . S
C6168 C6175 1.409 . S
C6169 H6161 0.930 . S
C6169 C6167 1.419 . S
C6169 C6170 1.362 . S
C6170 H6162 0.930 . S
C6170 C6169 1.362 . S
C6170 C6173 1.409 . S
C6171 H6163 0.930 . S
C6171 C6172 1.355 . S
C6171 C6173 1.415 . S
C6172 C6171 1.355 . S
C6172 C6174 1.419 . S
C6173 C6168 1.425 . S
C6173 C6170 1.409 . S
C6173 C6171 1.415 . S
C6174 H6164 0.930 . S
C6174 C6172 1.419 . S
C6174 C6175 1.362 . S
C6175 H6165 0.930 . S
C6175 C6168 1.409 . S
C6175 C6174 1.362 . S
H6176 C6182 0.930 . S
H6177 C6185 0.930 . S
H6178 C6186 0.930 . S
H6179 C6187 0.930 . S
H6180 C6190 0.930 . S
H6181 C6191 0.930 . S
C6182 H6176 0.930 . S
C6182 C6183 1.355 . S
C6182 C6184 1.415 . S
C6183 C6182 1.355 . S
C6183 C6185 1.419 . S
C6184 C6182 1.415 . S
C6184 C6189 1.425 . S
C6184 C6191 1.409 . S
C6185 H6177 0.930 . S
C6185 C6183 1.419 . S
C6185 C6186 1.362 . S
C6186 H6178 0.930 . S
C6186 C6185 1.362 . S
C6186 C6189 1.409 . S
C6187 H6179 0.930 . S
C6187 C6188 1.355 . S
C6187 C6189 1.415 . S
C6188 C6187 1.355 . S
C6188 C6190 1.419 . S
C6189 C6184 1.425 . S
C6189 C6186 1.409 . S
C6189 C6187 1.415 . S
C6190 H6180 0.930 . S
C6190 C6188 1.419 . S
C6190 C6191 1.362 . S
C6191 H6181 0.930 . S
C6191 C6184 1.409 . S
C6191 C6190 1.362 . S
H6192 C6198 0.930 . S
H6193 C6201 0.930 . S
H6194 C6202 0.930 . S
H6195 C6203 0.930 . S
H6196 C6206 0.930 . S
H6197 C6207 0.930 . S
C6198 H6192 0.930 . S
C6198 C6199 1.355 . S
C6198 C6200 1.415 . S
C6199 C6198 1.355 . S
C6199 C6201 1.419 . S
C6200 C6198 1.415 . S
C6200 C6205 1.425 . S
C6200 C6207 1.409 . S
C6201 H6193 0.930 . S
C6201 C6199 1.419 . S
C6201 C6202 1.362 . S
C6202 H6194 0.930 . S
C6202 C6201 1.362 . S
C6202 C6205 1.409 . S
C6203 H6195 0.930 . S
C6203 C6204 1.355 . S
C6203 C6205 1.415 . S
C6204 C6203 1.355 . S
C6204 C6206 1.419 . S
C6205 C6200 1.425 . S
C6205 C6202 1.409 . S
C6205 C6203 1.415 . S
C6206 H6196 0.930 . S
C6206 C6204 1.419 . S
C6206 C6207 1.362 . S
C6207 H6197 0.930 . S
C6207 C6200 1.409 . S
C6207 C6206 1.362 . S
H6208 C6214 0.930 . S
H6209 C6217 0.930 . S
H6210 C6218 0.930 . S
H6211 C6219 0.930 . S
H6212 C6222 0.930 . S
H6213 C6223 0.930 . S
C6214 H6208 0.930 . S
C6214 C6215 1.355 . S
C6214 C6216 1.415 . S
C6215 C6214 1.355 . S
C6215 C6217 1.419 . S
C6216 C6214 1.415 . S
C6216 C6221 1.425 . S
C6216 C6223 1.409 . S
C6217 H6209 0.930 . S
C6217 C6215 1.419 . S
C6217 C6218 1.362 . S
C6218 H6210 0.930 . S
C6218 C6217 1.362 . S
C6218 C6221 1.409 . S
C6219 H6211 0.930 . S
C6219 C6220 1.355 . S
C6219 C6221 1.415 . S
C6220 C6219 1.355 . S
C6220 C6222 1.419 . S
C6221 C6216 1.425 . S
C6221 C6218 1.409 . S
C6221 C6219 1.415 . S
C6222 H6212 0.930 . S
C6222 C6220 1.419 . S
C6222 C6223 1.362 . S
C6223 H6213 0.930 . S
C6223 C6216 1.409 . S
C6223 C6222 1.362 . S
H6224 C6230 0.930 . S
H6225 C6233 0.930 . S
H6226 C6234 0.930 . S
H6227 C6235 0.930 . S
H6228 C6238 0.930 . S
H6229 C6239 0.930 . S
C6230 H6224 0.930 . S
C6230 C6231 1.355 . S
C6230 C6232 1.415 . S
C6231 C6230 1.355 . S
C6231 C6233 1.419 . S
C6232 C6230 1.415 . S
C6232 C6237 1.425 . S
C6232 C6239 1.409 . S
C6233 H6225 0.930 . S
C6233 C6231 1.419 . S
C6233 C6234 1.362 . S
C6234 H6226 0.930 . S
C6234 C6233 1.362 . S
C6234 C6237 1.409 . S
C6235 H6227 0.930 . S
C6235 C6236 1.355 . S
C6235 C6237 1.415 . S
C6236 C6235 1.355 . S
C6236 C6238 1.419 . S
C6237 C6232 1.425 . S
C6237 C6234 1.409 . S
C6237 C6235 1.415 . S
C6238 H6228 0.930 . S
C6238 C6236 1.419 . S
C6238 C6239 1.362 . S
C6239 H6229 0.930 . S
C6239 C6232 1.409 . S
C6239 C6238 1.362 . S
H6240 C6246 0.930 . S
H6241 C6249 0.930 . S
H6242 C6250 0.930 . S
H6243 C6251 0.930 . S
H6244 C6254 0.930 . S
H6245 C6255 0.930 . S
C6246 H6240 0.930 . S
C6246 C6247 1.355 . S
C6246 C6248 1.415 . S
C6247 C6246 1.355 . S
C6247 C6249 1.419 . S
C6248 C6246 1.415 . S
C6248 C6253 1.425 . S
C6248 C6255 1.409 . S
C6249 H6241 0.930 . S
C6249 C6247 1.419 . S
C6249 C6250 1.362 . S
C6250 H6242 0.930 . S
C6250 C6249 1.362 . S
C6250 C6253 1.409 . S
C6251 H6243 0.930 . S
C6251 C6252 1.355 . S
C6251 C6253 1.415 . S
C6252 C6251 1.355 . S
C6252 C6254 1.419 . S
C6253 C6248 1.425 . S
C6253 C6250 1.409 . S
C6253 C6251 1.415 . S
C6254 H6244 0.930 . S
C6254 C6252 1.419 . S
C6254 C6255 1.362 . S
C6255 H6245 0.930 . S
C6255 C6248 1.409 . S
C6255 C6254 1.362 . S
H6256 C6262 0.930 . S
H6257 C6265 0.930 . S
H6258 C6266 0.930 . S
H6259 C6267 0.930 . S
H6260 C6270 0.930 . S
H6261 C6271 0.930 . S
C6262 H6256 0.930 . S
C6262 C6263 1.355 . S
C6262 C6264 1.415 . S
C6263 C6262 1.355 . S
C6263 C6265 1.419 . S
C6264 C6262 1.415 . S
C6264 C6269 1.425 . S
C6264 C6271 1.409 . S
C6265 H6257 0.930 . S
C6265 C6263 1.419 . S
C6265 C6266 1.362 . S
C6266 H6258 0.930 . S
C6266 C6265 1.362 . S
C6266 C6269 1.409 . S
C6267 H6259 0.930 . S
C6267 C6268 1.355 . S
C6267 C6269 1.415 . S
C6268 C6267 1.355 . S
C6268 C6270 1.419 . S
C6269 C6264 1.425 . S
C6269 C6266 1.409 . S
C6269 C6267 1.415 . S
C6270 H6260 0.930 . S
C6270 C6268 1.419 . S
C6270 C6271 1.362 . S
C6271 H6261 0.930 . S
C6271 C6264 1.409 . S
C6271 C6270 1.362 . S
H6272 C6278 0.930 . S
H6273 C6281 0.930 . S
H6274 C6282 0.930 . S
H6275 C6283 0.930 . S
H6276 C6286 0.930 . S
H6277 C6287 0.930 . S
C6278 H6272 0.930 . S
C6278 C6279 1.355 . S
C6278 C6280 1.415 . S
C6279 C6278 1.355 . S
C6279 C6281 1.419 . S
C6280 C6278 1.415 . S
C6280 C6285 1.425 . S
C6280 C6287 1.409 . S
C6281 H6273 0.930 . S
C6281 C6279 1.419 . S
C6281 C6282 1.362 . S
C6282 H6274 0.930 . S
C6282 C6281 1.362 . S
C6282 C6285 1.409 . S
C6283 H6275 0.930 . S
C6283 C6284 1.355 . S
C6283 C6285 1.415 . S
C6284 C6283 1.355 . S
C6284 C6286 1.419 . S
C6285 C6280 1.425 . S
C6285 C6282 1.409 . S
C6285 C6283 1.415 . S
C6286 H6276 0.930 . S
C6286 C6284 1.419 . S
C6286 C6287 1.362 . S
C6287 H6277 0.930 . S
C6287 C6280 1.409 . S
C6287 C6286 1.362 . S
H6288 C6294 0.930 . S
H6289 C6297 0.930 . S
H6290 C6298 0.930 . S
H6291 C6299 0.930 . S
H6292 C6302 0.930 . S
H6293 C6303 0.930 . S
C6294 H6288 0.930 . S
C6294 C6295 1.355 . S
C6294 C6296 1.415 . S
C6295 C6294 1.355 . S
C6295 C6297 1.419 . S
C6296 C6294 1.415 . S
C6296 C6301 1.425 . S
C6296 C6303 1.409 . S
C6297 H6289 0.930 . S
C6297 C6295 1.419 . S
C6297 C6298 1.362 . S
C6298 H6290 0.930 . S
C6298 C6297 1.362 . S
C6298 C6301 1.409 . S
C6299 H6291 0.930 . S
C6299 C6300 1.355 . S
C6299 C6301 1.415 . S
C6300 C6299 1.355 . S
C6300 C6302 1.419 . S
C6301 C6296 1.425 . S
C6301 C6298 1.409 . S
C6301 C6299 1.415 . S
C6302 H6292 0.930 . S
C6302 C6300 1.419 . S
C6302 C6303 1.362 . S
C6303 H6293 0.930 . S
C6303 C6296 1.409 . S
C6303 C6302 1.362 . S
H6304 C6310 0.930 . S
H6305 C6313 0.930 . S
H6306 C6314 0.930 . S
H6307 C6315 0.930 . S
H6308 C6318 0.930 . S
H6309 C6319 0.930 . S
C6310 H6304 0.930 . S
C6310 C6311 1.355 . S
C6310 C6312 1.415 . S
C6311 C6310 1.355 . S
C6311 C6313 1.419 . S
C6312 C6310 1.415 . S
C6312 C6317 1.425 . S
C6312 C6319 1.409 . S
C6313 H6305 0.930 . S
C6313 C6311 1.419 . S
C6313 C6314 1.362 . S
C6314 H6306 0.930 . S
C6314 C6313 1.362 . S
C6314 C6317 1.409 . S
C6315 H6307 0.930 . S
C6315 C6316 1.355 . S
C6315 C6317 1.415 . S
C6316 C6315 1.355 . S
C6316 C6318 1.419 . S
C6317 C6312 1.425 . S
C6317 C6314 1.409 . S
C6317 C6315 1.415 . S
C6318 H6308 0.930 . S
C6318 C6316 1.419 . S
C6318 C6319 1.362 . S
C6319 H6309 0.930 . S
C6319 C6312 1.409 . S
C6319 C6318 1.362 . S
H6320 C6326 0.930 . S
H6321 C6329 0.930 . S
H6322 C6330 0.930 . S
H6323 C6331 0.930 . S
H6324 C6334 0.930 . S
H6325 C6335 0.930 . S
C6326 H6320 0.930 . S
C6326 C6327 1.355 . S
C6326 C6328 1.415 . S
C6327 C6326 1.355 . S
C6327 C6329 1.419 . S
C6328 C6326 1.415 . S
C6328 C6333 1.425 . S
C6328 C6335 1.409 . S
C6329 H6321 0.930 . S
C6329 C6327 1.419 . S
C6329 C6330 1.362 . S
C6330 H6322 0.930 . S
C6330 C6329 1.362 . S
C6330 C6333 1.409 . S
C6331 H6323 0.930 . S
C6331 C6332 1.355 . S
C6331 C6333 1.415 . S
C6332 C6331 1.355 . S
C6332 C6334 1.419 . S
C6333 C6328 1.425 . S
C6333 C6330 1.409 . S
C6333 C6331 1.415 . S
C6334 H6324 0.930 . S
C6334 C6332 1.419 . S
C6334 C6335 1.362 . S
C6335 H6325 0.930 . S
C6335 C6328 1.409 . S
C6335 C6334 1.362 . S
H6336 C6342 0.930 . S
H6337 C6345 0.930 . S
H6338 C6346 0.930 . S
H6339 C6347 0.930 . S
H6340 C6350 0.930 . S
H6341 C6351 0.930 . S
C6342 H6336 0.930 . S
C6342 C6343 1.355 . S
C6342 C6344 1.415 . S
C6343 C6342 1.355 . S
C6343 C6345 1.419 . S
C6344 C6342 1.415 . S
C6344 C6349 1.425 . S
C6344 C6351 1.409 . S
C6345 H6337 0.930 . S
C6345 C6343 1.419 . S
C6345 C6346 1.362 . S
C6346 H6338 0.930 . S
C6346 C6345 1.362 . S
C6346 C6349 1.409 . S
C6347 H6339 0.930 . S
C6347 C6348 1.355 . S
C6347 C6349 1.415 . S
C6348 C6347 1.355 . S
C6348 C6350 1.419 . S
C6349 C6344 1.425 . S
C6349 C6346 1.409 . S
C6349 C6347 1.415 . S
C6350 H6340 0.930 . S
C6350 C6348 1.419 . S
C6350 C6351 1.362 . S
C6351 H6341 0.930 . S
C6351 C6344 1.409 . S
C6351 C6350 1.362 . S
H6352 C6358 0.930 . S
H6353 C6361 0.930 . S
H6354 C6362 0.930 . S
H6355 C6363 0.930 . S
H6356 C6366 0.930 . S
H6357 C6367 0.930 . S
C6358 H6352 0.930 . S
C6358 C6359 1.355 . S
C6358 C6360 1.415 . S
C6359 C6358 1.355 . S
C6359 C6361 1.419 . S
C6360 C6358 1.415 . S
C6360 C6365 1.425 . S
C6360 C6367 1.409 . S
C6361 H6353 0.930 . S
C6361 C6359 1.419 . S
C6361 C6362 1.362 . S
C6362 H6354 0.930 . S
C6362 C6361 1.362 . S
C6362 C6365 1.409 . S
C6363 H6355 0.930 . S
C6363 C6364 1.355 . S
C6363 C6365 1.415 . S
C6364 C6363 1.355 . S
C6364 C6366 1.419 . S
C6365 C6360 1.425 . S
C6365 C6362 1.409 . S
C6365 C6363 1.415 . S
C6366 H6356 0.930 . S
C6366 C6364 1.419 . S
C6366 C6367 1.362 . S
C6367 H6357 0.930 . S
C6367 C6360 1.409 . S
C6367 C6366 1.362 . S
H6368 C6374 0.930 . S
H6369 C6377 0.930 . S
H6370 C6378 0.930 . S
H6371 C6379 0.930 . S
H6372 C6382 0.930 . S
H6373 C6383 0.930 . S
C6374 H6368 0.930 . S
C6374 C6375 1.355 . S
C6374 C6376 1.415 . S
C6375 C6374 1.355 . S
C6375 C6377 1.419 . S
C6376 C6374 1.415 . S
C6376 C6381 1.425 . S
C6376 C6383 1.409 . S
C6377 H6369 0.930 . S
C6377 C6375 1.419 . S
C6377 C6378 1.362 . S
C6378 H6370 0.930 . S
C6378 C6377 1.362 . S
C6378 C6381 1.409 . S
C6379 H6371 0.930 . S
C6379 C6380 1.355 . S
C6379 C6381 1.415 . S
C6380 C6379 1.355 . S
C6380 C6382 1.419 . S
C6381 C6376 1.425 . S
C6381 C6378 1.409 . S
C6381 C6379 1.415 . S
C6382 H6372 0.930 . S
C6382 C6380 1.419 . S
C6382 C6383 1.362 . S
C6383 H6373 0.930 . S
C6383 C6376 1.409 . S
C6383 C6382 1.362 . S
H6384 C6390 0.930 . S
H6385 C6393 0.930 . S
H6386 C6394 0.930 . S
H6387 C6395 0.930 . S
H6388 C6398 0.930 . S
H6389 C6399 0.930 . S
C6390 H6384 0.930 . S
C6390 C6391 1.355 . S
C6390 C6392 1.415 . S
C6391 C6390 1.355 . S
C6391 C6393 1.419 . S
C6392 C6390 1.415 . S
C6392 C6397 1.425 . S
C6392 C6399 1.409 . S
C6393 H6385 0.930 . S
C6393 C6391 1.419 . S
C6393 C6394 1.362 . S
C6394 H6386 0.930 . S
C6394 C6393 1.362 . S
C6394 C6397 1.409 . S
C6395 H6387 0.930 . S
C6395 C6396 1.355 . S
C6395 C6397 1.415 . S
C6396 C6395 1.355 . S
C6396 C6398 1.419 . S
C6397 C6392 1.425 . S
C6397 C6394 1.409 . S
C6397 C6395 1.415 . S
C6398 H6388 0.930 . S
C6398 C6396 1.419 . S
C6398 C6399 1.362 . S
C6399 H6389 0.930 . S
C6399 C6392 1.409 . S
C6399 C6398 1.362 . S
H6400 C6406 0.930 . S
H6401 C6409 0.930 . S
H6402 C6410 0.930 . S
H6403 C6411 0.930 . S
H6404 C6414 0.930 . S
H6405 C6415 0.930 . S
C6406 H6400 0.930 . S
C6406 C6407 1.355 . S
C6406 C6408 1.415 . S
C6407 C6406 1.355 . S
C6407 C6409 1.419 . S
C6408 C6406 1.415 . S
C6408 C6413 1.425 . S
C6408 C6415 1.409 . S
C6409 H6401 0.930 . S
C6409 C6407 1.419 . S
C6409 C6410 1.362 . S
C6410 H6402 0.930 . S
C6410 C6409 1.362 . S
C6410 C6413 1.409 . S
C6411 H6403 0.930 . S
C6411 C6412 1.355 . S
C6411 C6413 1.415 . S
C6412 C6411 1.355 . S
C6412 C6414 1.419 . S
C6413 C6408 1.425 . S
C6413 C6410 1.409 . S
C6413 C6411 1.415 . S
C6414 H6404 0.930 . S
C6414 C6412 1.419 . S
C6414 C6415 1.362 . S
C6415 H6405 0.930 . S
C6415 C6408 1.409 . S
C6415 C6414 1.362 . S
H6416 C6422 0.930 . S
H6417 C6425 0.930 . S
H6418 C6426 0.930 . S
H6419 C6427 0.930 . S
H6420 C6430 0.930 . S
H6421 C6431 0.930 . S
C6422 H6416 0.930 . S
C6422 C6423 1.355 . S
C6422 C6424 1.415 . S
C6423 C6422 1.355 . S
C6423 C6425 1.419 . S
C6424 C6422 1.415 . S
C6424 C6429 1.425 . S
C6424 C6431 1.409 . S
C6425 H6417 0.930 . S
C6425 C6423 1.419 . S
C6425 C6426 1.362 . S
C6426 H6418 0.930 . S
C6426 C6425 1.362 . S
C6426 C6429 1.409 . S
C6427 H6419 0.930 . S
C6427 C6428 1.355 . S
C6427 C6429 1.415 . S
C6428 C6427 1.355 . S
C6428 C6430 1.419 . S
C6429 C6424 1.425 . S
C6429 C6426 1.409 . S
C6429 C6427 1.415 . S
C6430 H6420 0.930 . S
C6430 C6428 1.419 . S
C6430 C6431 1.362 . S
C6431 H6421 0.930 . S
C6431 C6424 1.409 . S
C6431 C6430 1.362 . S
H6432 C6438 0.930 . S
H6433 C6441 0.930 . S
H6434 C6442 0.930 . S
H6435 C6443 0.930 . S
H6436 C6446 0.930 . S
H6437 C6447 0.930 . S
C6438 H6432 0.930 . S
C6438 C6439 1.355 . S
C6438 C6440 1.415 . S
C6439 C6438 1.355 . S
C6439 C6441 1.419 . S
C6440 C6438 1.415 . S
C6440 C6445 1.425 . S
C6440 C6447 1.409 . S
C6441 H6433 0.930 . S
C6441 C6439 1.419 . S
C6441 C6442 1.362 . S
C6442 H6434 0.930 . S
C6442 C6441 1.362 . S
C6442 C6445 1.409 . S
C6443 H6435 0.930 . S
C6443 C6444 1.355 . S
C6443 C6445 1.415 . S
C6444 C6443 1.355 . S
C6444 C6446 1.419 . S
C6445 C6440 1.425 . S
C6445 C6442 1.409 . S
C6445 C6443 1.415 . S
C6446 H6436 0.930 . S
C6446 C6444 1.419 . S
C6446 C6447 1.362 . S
C6447 H6437 0.930 . S
C6447 C6440 1.409 . S
C6447 C6446 1.362 . S
H6448 C6454 0.930 . S
H6449 C6457 0.930 . S
H6450 C6458 0.930 . S
H6451 C6459 0.930 . S
H6452 C6462 0.930 . S
H6453 C6463 0.930 . S
C6454 H6448 0.930 . S
C6454 C6455 1.355 . S
C6454 C6456 1.415 . S
C6455 C6454 1.355 . S
C6455 C6457 1.419 . S
C6456 C6454 1.415 . S
C6456 C6461 1.425 . S
C6456 C6463 1.409 . S
C6457 H6449 0.930 . S
C6457 C6455 1.419 . S
C6457 C6458 1.362 . S
C6458 H6450 0.930 . S
C6458 C6457 1.362 . S
C6458 C6461 1.409 . S
C6459 H6451 0.930 . S
C6459 C6460 1.355 . S
C6459 C6461 1.415 . S
C6460 C6459 1.355 . S
C6460 C6462 1.419 . S
C6461 C6456 1.425 . S
C6461 C6458 1.409 . S
C6461 C6459 1.415 . S
C6462 H6452 0.930 . S
C6462 C6460 1.419 . S
C6462 C6463 1.362 . S
C6463 H6453 0.930 . S
C6463 C6456 1.409 . S
C6463 C6462 1.362 . S
H6464 C6470 0.930 . S
H6465 C6473 0.930 . S
H6466 C6474 0.930 . S
H6467 C6475 0.930 . S
H6468 C6478 0.930 . S
H6469 C6479 0.930 . S
C6470 H6464 0.930 . S
C6470 C6471 1.355 . S
C6470 C6472 1.415 . S
C6471 C6470 1.355 . S
C6471 C6473 1.419 . S
C6472 C6470 1.415 . S
C6472 C6477 1.425 . S
C6472 C6479 1.409 . S
C6473 H6465 0.930 . S
C6473 C6471 1.419 . S
C6473 C6474 1.362 . S
C6474 H6466 0.930 . S
C6474 C6473 1.362 . S
C6474 C6477 1.409 . S
C6475 H6467 0.930 . S
C6475 C6476 1.355 . S
C6475 C6477 1.415 . S
C6476 C6475 1.355 . S
C6476 C6478 1.419 . S
C6477 C6472 1.425 . S
C6477 C6474 1.409 . S
C6477 C6475 1.415 . S
C6478 H6468 0.930 . S
C6478 C6476 1.419 . S
C6478 C6479 1.362 . S
C6479 H6469 0.930 . S
C6479 C6472 1.409 . S
C6479 C6478 1.362 . S
H6480 C6486 0.930 . S
H6481 C6489 0.930 . S
H6482 C6490 0.930 . S
H6483 C6491 0.930 . S
H6484 C6494 0.930 . S
H6485 C6495 0.930 . S
C6486 H6480 0.930 . S
C6486 C6487 1.355 . S
C6486 C6488 1.415 . S
C6487 C6486 1.355 . S
C6487 C6489 1.419 . S
C6488 C6486 1.415 . S
C6488 C6493 1.425 . S
C6488 C6495 1.409 . S
C6489 H6481 0.930 . S
C6489 C6487 1.419 . S
C6489 C6490 1.362 . S
C6490 H6482 0.930 . S
C6490 C6489 1.362 . S
C6490 C6493 1.409 . S
C6491 H6483 0.930 . S
C6491 C6492 1.355 . S
C6491 C6493 1.415 . S
C6492 C6491 1.355 . S
C6492 C6494 1.419 . S
C6493 C6488 1.425 . S
C6493 C6490 1.409 . S
C6493 C6491 1.415 . S
C6494 H6484 0.930 . S
C6494 C6492 1.419 . S
C6494 C6495 1.362 . S
C6495 H6485 0.930 . S
C6495 C6488 1.409 . S
C6495 C6494 1.362 . S
H6496 C6502 0.930 . S
H6497 C6505 0.930 . S
H6498 C6506 0.930 . S
H6499 C6507 0.930 . S
H6500 C6510 0.930 . S
H6501 C6511 0.930 . S
C6502 H6496 0.930 . S
C6502 C6503 1.355 . S
C6502 C6504 1.415 . S
C6503 C6502 1.355 . S
C6503 C6505 1.419 . S
C6504 C6502 1.415 . S
C6504 C6509 1.425 . S
C6504 C6511 1.409 . S
C6505 H6497 0.930 . S
C6505 C6503 1.419 . S
C6505 C6506 1.362 . S
C6506 H6498 0.930 . S
C6506 C6505 1.362 . S
C6506 C6509 1.409 . S
C6507 H6499 0.930 . S
C6507 C6508 1.355 . S
C6507 C6509 1.415 . S
C6508 C6507 1.355 . S
C6508 C6510 1.419 . S
C6509 C6504 1.425 . S
C6509 C6506 1.409 . S
C6509 C6507 1.415 . S
C6510 H6500 0.930 . S
C6510 C6508 1.419 . S
C6510 C6511 1.362 . S
C6511 H6501 0.930 . S
C6511 C6504 1.409 . S
C6511 C6510 1.362 . S
H6512 C6518 0.930 . S
H6513 C6521 0.930 . S
H6514 C6522 0.930 . S
H6515 C6523 0.930 . S
H6516 C6526 0.930 . S
H6517 C6527 0.930 . S
C6518 H6512 0.930 . S
C6518 C6519 1.355 . S
C6518 C6520 1.415 . S
C6519 C6518 1.355 . S
C6519 C6521 1.419 . S
C6520 C6518 1.415 . S
C6520 C6525 1.425 . S
C6520 C6527 1.409 . S
C6521 H6513 0.930 . S
C6521 C6519 1.419 . S
C6521 C6522 1.362 . S
C6522 H6514 0.930 . S
C6522 C6521 1.362 . S
C6522 C6525 1.409 . S
C6523 H6515 0.930 . S
C6523 C6524 1.355 . S
C6523 C6525 1.415 . S
C6524 C6523 1.355 . S
C6524 C6526 1.419 . S
C6525 C6520 1.425 . S
C6525 C6522 1.409 . S
C6525 C6523 1.415 . S
C6526 H6516 0.930 . S
C6526 C6524 1.419 . S
C6526 C6527 1.362 . S
C6527 H6517 0.930 . S
C6527 C6520 1.409 . S
C6527 C6526 1.362 . S
C1927 C1502 0.877 . S
C1932 C9 0.825 . S
C1943 C482 0.697 . S
C1948 C29 0.756 . S
C1959 C48 1.013 . S
C1964 C1462 1.056 . S
C1975 C69 1.336 . S
C1980 C539 1.370 . S
C1991 C89 1.342 . S
C1996 C1559 1.283 . S
C2007 C619 1.417 . S
C2012 C108 1.414 . S
C2023 C128 0.893 . S
C2028 C1582 0.904 . S
C2039 C149 0.676 . S
C2044 C562 0.764 . S
C2055 C169 0.850 . S
C2060 C1802 0.872 . S
C2071 C862 0.942 . S
C2076 C189 0.977 . S
C2087 C882 0.915 . S
C2092 C209 0.884 . S
C2103 C839 1.215 . S
C2108 C229 1.267 . S
C2119 C249 1.008 . S
C2124 C1882 0.948 . S
C2135 C269 0.805 . S
C2140 C1762 0.757 . S
C2151 C1902 0.987 . S
C2156 C289 1.021 . S
C2167 C309 0.835 . S
C2172 C1862 0.845 . S
C2183 C329 0.909 . S
C2188 C1622 0.830 . S
C2199 C782 0.932 . S
C2204 C348 0.913 . S
C2215 C1682 0.905 . S
C2220 C369 0.955 . S
C2231 C389 1.056 . S
C2236 C742 1.077 . S
C2247 C409 0.901 . S
C2252 C762 0.946 . S
C2263 C429 0.936 . S
C2268 C1662 0.887 . S
C2279 C449 0.772 . S
C2284 C1602 0.692 . S
C2295 C1642 0.870 . S
C2300 C469 0.909 . S
C2311 C488 0.808 . S
C2316 C1021 0.871 . S
C2327 C508 0.808 . S
C2332 C1 0.847 . S
C2343 C529 1.009 . S
C2348 C981 0.953 . S
C2359 C58 1.294 . S
C2364 C548 1.370 . S
C2375 C1078 1.288 . S
C2380 C568 1.343 . S
C2391 C589 1.430 . S
C2396 C138 1.378 . S
C2407 C1101 0.838 . S
C2412 C609 0.804 . S
C2423 C628 0.670 . S
C2428 C81 0.639 . S
C2439 C648 0.886 . S
C2444 C1321 0.829 . S
C2455 C668 0.967 . S
C2460 C381 0.969 . S
C2471 C688 0.885 . S
C2476 C401 0.881 . S
C2487 C358 1.269 . S
C2492 C708 1.199 . S
C2503 C1401 1.025 . S
C2508 C728 0.983 . S
C2519 C748 0.820 . S
C2524 C1281 0.758 . S
C2535 C768 0.920 . S
C2540 C1421 0.925 . S
C2551 C1381 0.900 . S
C2556 C788 0.843 . S
C2567 C808 0.887 . S
C2572 C1141 0.937 . S
C2583 C829 0.914 . S
C2588 C301 0.837 . S
C2599 C1201 0.954 . S
C2604 C848 1.011 . S
C2615 C868 0.985 . S
C2620 C261 0.978 . S
C2631 C888 0.937 . S
C2636 C281 0.861 . S
C2647 C1181 0.915 . S
C2652 C908 0.977 . S
C2663 C1121 0.798 . S
C2668 C928 0.747 . S
C2679 C1161 0.908 . S
C2684 C948 0.894 . S
C2695 C969 0.869 . S
C2700 C542 0.828 . S
C2711 C1442 0.717 . S
C2716 C989 0.739 . S
C2727 C502 0.956 . S
C2732 C1008 0.990 . S
C2743 C1499 1.292 . S
C2748 C1029 1.349 . S
C2759 C1049 1.293 . S
C2764 C599 1.337 . S
C2775 C1068 1.389 . S
C2780 C1579 1.344 . S
C2791 C622 0.871 . S
C2796 C1088 0.901 . S
C2807 C1522 0.784 . S
C2812 C1109 0.748 . S
C2823 C842 0.944 . S
C2828 C1129 0.882 . S
C2839 C1149 0.865 . S
C2844 C1822 0.882 . S
C2855 C1169 0.971 . S
C2860 C1842 0.961 . S
C2871 C1799 1.271 . S
C2876 C1189 1.257 . S
C2887 C922 1.023 . S
C2892 C1209 1.000 . S
C2903 C802 0.851 . S
C2908 C1229 0.871 . S
C2919 C942 0.900 . S
C2924 C1249 0.934 . S
C2935 C902 0.936 . S
C2940 C1269 0.883 . S
C2951 C662 0.932 . S
C2956 C1289 0.929 . S
C2967 C1742 0.913 . S
C2972 C1308 0.856 . S
C2983 C1329 0.941 . S
C2988 C722 0.983 . S
C2999 C1702 0.964 . S
C3004 C1349 0.995 . S
C3015 C1722 0.894 . S
C3020 C1369 0.884 . S
C3031 C1389 0.985 . S
C3036 C702 0.929 . S
C3047 C1409 0.670 . S
C3052 C642 0.749 . S
C3063 C1429 0.993 . S
C3068 C682 0.934 . S
C3079 C1448 0.775 . S
C3084 C61 0.777 . S
C3095 C961 0.832 . S
C3100 C1468 0.757 . S
C3111 C1489 1.038 . S
C3116 C21 1.062 . S
C3127 C1508 1.356 . S
C3132 C1018 1.369 . S
C3143 C1528 1.280 . S
C3148 C118 1.324 . S
C3159 C1098 1.421 . S
C3164 C1549 1.430 . S
C3175 C141 0.833 . S
C3180 C1569 0.802 . S
C3191 C1588 0.749 . S
C3196 C1041 0.783 . S
C3207 C361 0.842 . S
C3212 C1608 0.862 . S
C3223 C1341 0.862 . S
C3228 C1628 0.936 . S
C3239 C1648 0.976 . S
C3244 C1361 0.943 . S
C3255 C1668 1.225 . S
C3260 C1318 1.281 . S
C3271 C1688 0.956 . S
C3276 C441 1.017 . S
C3287 C1708 0.822 . S
C3292 C321 0.876 . S
C3303 C1728 1.013 . S
C3308 C461 0.946 . S
C3319 C421 0.817 . S
C3324 C1748 0.903 . S
C3335 C181 0.914 . S
C3340 C1768 0.858 . S
C3351 C1789 0.874 . S
C3356 C1261 0.795 . S
C3367 C1808 1.008 . S
C3372 C241 0.946 . S
C3383 C1828 0.983 . S
C3388 C1221 1.001 . S
C3399 C1241 0.966 . S
C3404 C1848 0.981 . S
C3415 C221 0.959 . S
C3420 C1868 0.908 . S
C3431 C161 0.655 . S
C3436 C1888 0.690 . S
C3447 C1908 0.937 . S
C3452 C201 0.867 . S
C3463 C19 1.751 . S
C3468 C419 1.750 . S
C3479 C1302 1.332 . S
C3484 C39 1.329 . S
C3495 C42 1.281 . S
C3500 C1339 1.277 . S
C3511 C79 1.791 . S
C3516 C1359 1.791 . S
C3527 C99 1.802 . S
C3532 C1439 1.803 . S
C3543 C102 1.320 . S
C3548 C439 1.350 . S
C3559 C1419 1.364 . S
C3564 C122 1.365 . S
C3575 C339 1.822 . S
C3580 C159 1.820 . S
C3591 C179 1.848 1_565 S
C3596 C319 1.849 . S
C3607 C259 1.727 1_545 S
C3612 C199 1.723 . S
C3623 C219 1.594 . S
C3628 C279 1.592 . S
C3639 C239 1.761 . S
C3644 C299 1.795 . S
C3655 C342 1.340 . S
C3660 C999 1.342 . S
C3671 C379 1.277 . S
C3676 C1002 1.282 . S
C3687 C399 1.795 . S
C3692 C1039 1.794 . S
C3703 C459 1.364 . S
C3708 C1082 1.361 . S
C3719 C1059 1.799 . S
C3724 C479 1.798 . S
C3735 C498 1.746 . S
C3740 C898 1.749 . S
C3751 C518 1.332 . S
C3756 C1781 1.344 . S
C3767 C1818 1.276 . S
C3772 C521 1.283 . S
C3783 C1838 1.793 . S
C3788 C558 1.792 . S
C3799 C578 1.798 . S
C3804 C1918 1.793 . S
C3815 C581 1.340 . S
C3820 C918 1.348 . S
C3831 C1898 1.369 . S
C3836 C601 1.377 . S
C3847 C638 1.827 . S
C3852 C818 1.834 . S
C3863 C798 1.843 . S
C3868 C658 1.833 1_545 S
C3879 C738 1.728 1_565 S
C3884 C678 1.725 . S
C3895 C758 1.594 . S
C3900 C698 1.594 . S
C3911 C718 1.760 . S
C3916 C778 1.794 . S
C3927 C821 1.327 . S
C3932 C1478 1.340 . S
C3943 C1481 1.280 . S
C3948 C858 1.278 . S
C3959 C1518 1.794 . S
C3964 C878 1.796 . S
C3975 C938 1.365 . S
C3980 C1561 1.372 . S
C3991 C1538 1.798 . S
C3996 C958 1.793 . S
C4007 C1379 1.743 . S
C4012 C979 1.745 . S
C4023 C1399 1.352 . S
C4028 C1062 1.326 . S
C4039 C1299 1.830 . S
C4044 C1119 1.828 . S
C4055 C1139 1.845 . S
C4060 C1279 1.844 . S
C4071 C1159 1.722 . S
C4076 C1219 1.725 . S
C4087 C1239 1.590 . S
C4092 C1179 1.595 . S
C4103 C1259 1.756 . S
C4108 C1199 1.759 . S
C4119 C1458 1.748 . S
C4124 C1858 1.745 . S
C4135 C1878 1.352 . S
C4140 C1541 1.329 . S
C4151 C1598 1.819 . S
C4156 C1778 1.820 . S
C4167 C1618 1.847 . S
C4172 C1758 1.846 . S
C4183 C1698 1.721 . S
C4188 C1638 1.720 . S
C4199 C1718 1.597 . S
C4204 C1658 1.601 . S
C4215 C1678 1.761 . S
C4220 C1738 1.758 . S
C4231 C18 1.307 . S
C4236 C869 1.334 . S
C4247 C889 1.078 . S
C4252 C38 1.034 . S
C4263 C828 0.642 1_556 S
C4268 C41 0.650 . S
C4279 C1809 1.214 . S
C4284 C78 1.235 . S
C4295 C98 1.269 . S
C4300 C1869 1.279 1_554 S
C4311 C1889 0.849 . S
C4316 C101 0.786 . S
C4327 C121 0.640 . S
C4332 C1769 0.654 . S
C4343 C1909 1.226 . S
C4348 C158 1.256 . S
C4359 C528 1.248 . S
C4364 C178 1.288 . S
C4375 C1509 1.134 . S
C4380 C198 1.134 . S
C4391 C218 0.999 . S
C4396 C489 0.992 . S
C4407 C1469 0.992 . S
C4412 C238 0.992 . S
C4423 C258 1.068 . S
C4428 C608 1.043 . S
C4439 C278 0.832 . S
C4444 C1589 0.819 . S
C4455 C298 1.057 . S
C4460 C569 1.052 . S
C4471 C318 1.324 . S
C4476 C1548 1.259 . S
C4487 C338 1.381 . S
C4492 C1689 1.363 . S
C4503 C649 0.684 . S
C4508 C341 0.754 . S
C4519 C1629 1.028 . S
C4524 C378 1.000 . S
C4535 C398 1.107 . S
C4540 C689 1.085 . S
C4551 C418 1.268 . S
C4556 C709 1.264 . S
C4567 C438 1.075 . S
C4572 C1729 1.123 . S
C4583 C458 0.960 . S
C4588 C1749 0.942 . S
C4599 C478 1.228 . S
C4604 C1709 1.257 . S
C4615 C388 1.333 . S
C4620 C499 1.319 . S
C4631 C519 1.032 . S
C4636 C408 1.076 . S
C4647 C349 0.750 1_554 S
C4652 C522 0.717 . S
C4663 C559 1.235 . S
C4668 C1328 1.215 . S
C4679 C579 1.282 . S
C4684 C1388 1.284 1_556 S
C4695 C1408 0.799 . S
C4700 C582 0.862 . S
C4711 C1288 0.730 . S
C4716 C602 0.798 . S
C4727 C639 1.267 . S
C4732 C1428 1.235 . S
C4743 C49 1.199 . S
C4748 C659 1.263 . S
C4759 C679 1.131 . S
C4764 C1028 1.136 . S
C4775 C699 0.938 . S
C4780 C8 0.955 . S
C4791 C988 1.065 . S
C4796 C719 1.084 . S
C4807 C129 0.971 . S
C4812 C739 1.034 . S
C4823 C759 0.805 . S
C4828 C1108 0.828 . S
C4839 C779 1.057 . S
C4844 C88 1.052 . S
C4855 C1069 1.209 . S
C4860 C799 1.303 . S
C4871 C819 1.382 . S
C4876 C1208 1.367 . S
C4887 C822 0.623 . S
C4892 C168 0.690 . S
C4903 C1148 1.065 . S
C4908 C859 1.052 . S
C4919 C879 1.125 . S
C4924 C208 1.096 . S
C4935 C228 1.267 . S
C4940 C899 1.292 . S
C4951 C919 1.104 . S
C4956 C1248 1.089 . S
C4967 C1268 0.954 . S
C4972 C939 0.948 . S
C4983 C1228 1.244 . S
C4988 C959 1.247 . S
C4999 C1829 1.294 1_556 S
C5004 C978 1.289 . S
C5015 C1849 1.085 . S
C5020 C998 1.048 . S
C5031 C1001 0.580 . S
C5036 C1788 0.573 . S
C5047 C1038 1.242 . S
C5052 C849 1.191 . S
C5063 C1058 1.290 . S
C5068 C909 1.248 . S
C5079 C1061 0.759 . S
C5084 C929 0.734 . S
C5095 C809 0.708 1_554 S
C5100 C1081 0.799 . S
C5111 C949 1.226 . S
C5116 C1118 1.257 . S
C5127 C1138 1.285 . S
C5132 C1488 1.196 . S
C5143 C1158 1.135 . S
C5148 C549 1.133 . S
C5159 C1178 0.959 . S
C5164 C1449 0.933 . S
C5175 C1198 1.002 . S
C5180 C509 1.030 . S
C5191 C1218 1.102 . S
C5196 C1568 1.063 . S
C5207 C1238 0.801 . S
C5212 C629 0.841 . S
C5223 C1258 1.095 . S
C5228 C1529 1.053 . S
C5239 C1278 1.295 . S
C5244 C588 1.196 . S
C5255 C729 1.341 1_565 S
C5260 C1298 1.359 . S
C5271 C1609 0.686 . S
C5276 C1301 0.623 . S
C5287 C669 1.066 . S
C5292 C1338 1.040 . S
C5303 C1649 1.127 . S
C5308 C1358 1.088 . S
C5319 C1378 1.252 . S
C5324 C1669 1.282 . S
C5335 C1398 1.080 . S
C5340 C769 1.088 1_545 S
C5351 C1418 0.941 . S
C5356 C789 0.956 . S
C5367 C1438 1.252 . S
C5372 C749 1.285 . S
C5383 C1348 1.297 1_554 S
C5388 C1459 1.286 . S
C5399 C1368 1.041 . S
C5404 C1479 1.082 . S
C5415 C1482 0.749 . S
C5420 C1309 0.787 . S
C5431 C1519 1.241 . S
C5436 C368 1.237 . S
C5447 C428 1.258 . S
C5452 C1539 1.251 . S
C5463 C1542 0.865 . S
C5468 C448 0.813 . S
C5479 C328 0.647 1_556 S
C5484 C1562 0.683 . S
C5495 C468 1.262 . S
C5500 C1599 1.274 . S
C5511 C1619 1.296 . S
C5516 C1009 1.219 . S
C5527 C1639 1.127 . S
C5532 C68 1.138 . S
C5543 C1659 0.959 . S
C5548 C968 0.933 . S
C5559 C1679 1.015 . S
C5564 C28 1.048 . S
C5575 C1089 0.968 . S
C5580 C1699 1.033 . S
C5591 C148 0.881 . S
C5596 C1719 0.828 . S
C5607 C1048 1.091 . S
C5612 C1739 1.099 . S
C5623 C1759 1.290 . S
C5628 C109 1.213 . S
C5639 C248 1.359 1_545 S
C5644 C1779 1.329 . S
C5655 C1782 0.750 . S
C5660 C1128 0.765 . S
C5671 C1819 1.070 . S
C5676 C188 1.053 . S
C5687 C1168 1.091 . S
C5692 C1839 1.120 . S
C5703 C1859 1.270 . S
C5708 C1188 1.301 . S
C5719 C1879 1.061 . S
C5724 C288 1.098 1_565 S
C5735 C308 0.923 . S
C5740 C1899 0.867 . S
C5751 C1919 1.235 . S
C5756 C268 1.249 . S
C5767 C2 1.708 . S
C5772 C182 1.711 . S
C5783 C202 1.735 . S
C5788 C22 1.718 . S
C5799 C59 1.957 . S
C5804 C222 1.906 . S
C5815 C162 1.453 . S
C5820 C62 1.458 . S
C5831 C302 1.481 . S
C5836 C82 1.494 . S
C5847 C242 1.854 . S
C5852 C119 1.929 . S
C5863 C139 2.047 . S
C5868 C262 1.990 . S
C5879 C142 1.754 . S
C5884 C282 1.769 . S
C5895 C322 1.580 . S
C5900 C362 1.598 . S
C5911 C1402 1.633 . S
C5916 C359 1.725 . S
C5927 C382 1.912 . S
C5932 C1422 1.899 . S
C5943 C1382 1.760 . S
C5948 C402 1.749 . S
C5959 C1362 1.762 . S
C5964 C422 1.756 . S
C5975 C442 1.635 . S
C5980 C1319 1.728 . S
C5991 C462 1.877 . S
C5996 C1342 1.880 . S
C6007 C661 1.637 . S
C6012 C481 1.636 . S
C6023 C501 1.812 . S
C6028 C681 1.831 . S
C6039 C538 1.941 . S
C6044 C701 1.902 . S
C6055 C641 1.482 . S
C6060 C541 1.490 . S
C6071 C781 1.532 . S
C6076 C561 1.552 . S
C6087 C721 1.932 . S
C6092 C598 1.985 . S
C6103 C741 1.944 . S
C6108 C618 2.019 . S
C6119 C761 1.689 . S
C6124 C621 1.686 . S
C6135 C841 1.620 . S
C6140 C801 1.620 . S
C6151 C838 1.769 . S
C6156 C1881 1.686 . S
C6167 C861 1.881 . S
C6172 C1901 1.878 . S
C6183 C881 1.783 . S
C6188 C1861 1.790 . S
C6199 C1841 1.704 . S
C6204 C901 1.701 . S
C6215 C1798 1.749 . S
C6220 C921 1.658 . S
C6231 C1821 1.830 . S
C6236 C941 1.813 . S
C6247 C962 1.686 . S
C6252 C1142 1.701 . S
C6263 C982 1.794 . S
C6268 C1162 1.805 . S
C6279 C1019 1.906 . S
C6284 C1182 1.863 . S
C6295 C1022 1.506 . S
C6300 C1122 1.499 . S
C6311 C1262 1.584 . S
C6316 C1042 1.586 . S
C6327 C1079 1.930 . S
C6332 C1202 1.863 . S
C6343 C1222 1.976 . S
C6348 C1099 2.019 . S
C6359 C1242 1.738 . S
C6364 C1102 1.740 . S
C6375 C1322 1.571 . S
C6380 C1282 1.562 . S
C6391 C1441 1.624 . S
C6396 C1621 1.640 . S
C6407 C1641 1.773 . S
C6412 C1461 1.744 . S
C6423 C1498 1.901 . S
C6428 C1661 1.831 . S
C6439 C1601 1.480 . S
C6444 C1501 1.487 . S
C6455 C1521 1.561 . S
C6460 C1741 1.543 . S
C6471 C1681 1.892 . S
C6476 C1558 1.968 . S
C6487 C1578 2.047 . S
C6492 C1701 1.990 . S
C6503 C1581 1.765 . S
C6508 C1721 1.767 . S
C6519 C1761 1.561 . S
C6524 C1801 1.570 . S
