# Generated by pormake.
# Topology fcu, (12)-cn, num edge types: 1
# Building blocks:
#     Node 0, Type 0, BuildingBlock: FANWIC_clean_sbu_0, # of connection points: 12
#     Node 1, Type 0, BuildingBlock: FANWIC_clean_sbu_0, # of connection points: 12
#     Node 2, Type 0, BuildingBlock: FANWIC_clean_sbu_0, # of connection points: 12
#     Node 3, Type 0, BuildingBlock: FANWIC_clean_sbu_0, # of connection points: 12
#     Edge 4, Type (0, 0), BuildingBlock: EZIPEK_clean_linker_0, # of connection points: 2
#     Edge 5, Type (0, 0), BuildingBlock: EZIPEK_clean_linker_0, # of connection points: 2
#     Edge 6, Type (0, 0), BuildingBlock: EZIPEK_clean_linker_0, # of connection points: 2
#     Edge 7, Type (0, 0), BuildingBlock: EZIPEK_clean_linker_0, # of connection points: 2
#     Edge 8, Type (0, 0), BuildingBlock: EZIPEK_clean_linker_0, # of connection points: 2
#     Edge 9, Type (0, 0), BuildingBlock: EZIPEK_clean_linker_0, # of connection points: 2
#     Edge 10, Type (0, 0), BuildingBlock: EZIPEK_clean_linker_0, # of connection points: 2
#     Edge 11, Type (0, 0), BuildingBlock: EZIPEK_clean_linker_0, # of connection points: 2
#     Edge 12, Type (0, 0), BuildingBlock: EZIPEK_clean_linker_0, # of connection points: 2
#     Edge 13, Type (0, 0), BuildingBlock: EZIPEK_clean_linker_0, # of connection points: 2
#     Edge 14, Type (0, 0), BuildingBlock: EZIPEK_clean_linker_0, # of connection points: 2
#     Edge 15, Type (0, 0), BuildingBlock: EZIPEK_clean_linker_0, # of connection points: 2
#     Edge 16, Type (0, 0), BuildingBlock: EZIPEK_clean_linker_0, # of connection points: 2
#     Edge 17, Type (0, 0), BuildingBlock: EZIPEK_clean_linker_0, # of connection points: 2
#     Edge 18, Type (0, 0), BuildingBlock: EZIPEK_clean_linker_0, # of connection points: 2
#     Edge 19, Type (0, 0), BuildingBlock: EZIPEK_clean_linker_0, # of connection points: 2
#     Edge 20, Type (0, 0), BuildingBlock: EZIPEK_clean_linker_0, # of connection points: 2
#     Edge 21, Type (0, 0), BuildingBlock: EZIPEK_clean_linker_0, # of connection points: 2
#     Edge 22, Type (0, 0), BuildingBlock: EZIPEK_clean_linker_0, # of connection points: 2
#     Edge 23, Type (0, 0), BuildingBlock: EZIPEK_clean_linker_0, # of connection points: 2
#     Edge 24, Type (0, 0), BuildingBlock: EZIPEK_clean_linker_0, # of connection points: 2
#     Edge 25, Type (0, 0), BuildingBlock: EZIPEK_clean_linker_0, # of connection points: 2
#     Edge 26, Type (0, 0), BuildingBlock: EZIPEK_clean_linker_0, # of connection points: 2
#     Edge 27, Type (0, 0), BuildingBlock: EZIPEK_clean_linker_0, # of connection points: 2
# Relax obj value: 0.219
# Max RMSD: 0.293
# Mean RMSD: 0.293
data_MOF--net-fcu--node1-FANWIC_clean_sbu_0--edge1-EZIPEK_clean_linker_0
_symmetry_space_group_name_H-M    P1
_symmetry_Int_Tables_number       1
_symmetry_cell_setting            triclinic
loop_
_symmetry_equiv_pos_as_xyz
'x, y, z'
_cell_length_a     19.138332
_cell_length_b     19.812528
_cell_length_c     19.577643
_cell_angle_alpha  91.198385
_cell_angle_beta   89.277722
_cell_angle_gamma 90.014272
loop_
_atom_site_label
_atom_site_type_symbol
_atom_site_fract_x
_atom_site_fract_y
_atom_site_fract_z
_atom_type_partial_charge
Zn0 Zn 0.92934 -0.02044 0.88716 0.0
Zn1 Zn 0.88145 0.95682 0.06336 0.0
Zn2 Zn 0.9544 0.11121 -0.0064 0.0
Zn3 Zn 0.80251 0.04789 0.97135 0.0
O4 O 0.90434 0.02024 -0.01624 0.0
C5 C -0.00213 0.18108 0.11581 0.0
O6 O 0.96899 0.23213 0.08522 0.0
N7 N 0.00367 0.90752 0.88097 0.0
N8 N 0.05889 0.89383 0.91941 0.0
N9 N 0.05535 0.81627 0.83522 0.0
C10 C 0.00401 0.86202 0.82902 0.0
C11 C 0.09071 0.83809 0.89101 0.0
N12 N 0.94774 0.94282 0.13495 0.0
C13 C 0.03654 0.91077 0.19139 0.0
N14 N 0.98137 0.87648 0.21806 0.0
C15 C 0.92684 0.9022 0.18541 0.0
N16 N 0.01631 0.95062 0.13958 0.0
H17 H 0.84783 0.83964 0.23485 0.0
C18 C 0.85226 0.88396 0.20144 0.0
H19 H 0.82316 0.87373 0.15444 0.0
H20 H 0.82716 0.92711 0.22918 0.0
N21 N 0.04374 0.10597 0.93779 0.0
C22 C 0.09453 0.15298 0.93738 0.0
C23 C 0.13905 0.06437 0.892 0.0
N24 N 0.07133 0.0508 0.90832 0.0
N25 N 0.15556 0.12784 0.91218 0.0
C26 C 0.0812 0.22712 0.94517 0.0
H27 H 0.07272 0.24763 0.89383 0.0
H28 H 0.03404 0.2375 0.97666 0.0
H29 H 0.12767 0.25417 0.96488 0.0
O30 O 0.74961 -0.01203 0.90407 0.0
O31 O 0.83883 0.94681 0.84257 0.0
C32 C 0.77331 0.9535 0.85323 0.0
O33 O 0.86743 0.86202 0.02365 0.0
O34 O 0.79282 0.13749 0.93198 0.0
O35 O 0.883 0.19342 0.97478 0.0
O36 O 0.96231 0.05447 0.82538 0.0
O37 O 0.74667 0.06475 0.0599 0.0
O38 O 0.80086 -0.00922 0.12149 0.0
O39 O -0.00666 0.12225 0.08911 0.0
C40 C 0.81111 0.82813 0.0244 0.0
O41 O 0.75357 0.85566 0.04929 0.0
C42 C 0.82338 0.19285 0.94487 0.0
C43 C 0.93289 0.07848 0.77326 0.0
O44 O 0.87435 0.05205 0.75136 0.0
C45 C 0.75426 0.03527 0.11615 0.0
H46 H 0.93393 0.91704 0.76451 0.0
H47 H 0.92206 0.82581 0.76377 0.0
H48 H -0.0058 0.86186 0.7202 0.0
C49 C 0.96033 0.86752 0.76635 0.0
Zn50 Zn 0.9498 0.48668 0.38975 0.0
Zn51 Zn 0.9152 0.44655 0.55697 0.0
Zn52 Zn 0.96301 0.60067 0.51615 0.0
Zn53 Zn 0.82426 0.51629 0.48943 0.0
O54 O 0.92747 0.51264 0.4882 0.0
C55 C 0.97124 0.6096 0.66738 0.0
O56 O 0.90319 0.61848 0.66847 0.0
N57 N 0.02485 0.41724 0.38453 0.0
N58 N 0.07039 0.39569 0.43039 0.0
N59 N 0.07508 0.3252 0.34051 0.0
C60 C 0.0304 0.37615 0.32974 0.0
C61 C 0.10293 0.34007 0.40272 0.0
N62 N -0.00698 0.39662 0.58739 0.0
C63 C 0.08262 0.36813 0.64716 0.0
N64 N 0.03565 0.31582 0.65022 0.0
C65 C 0.98055 0.33681 0.61462 0.0
N66 N 0.05462 0.41777 0.60916 0.0
H67 H 0.90114 0.26572 0.58304 0.0
C68 C 0.90796 0.30702 0.62142 0.0
H69 H 0.86759 0.34595 0.61641 0.0
H70 H 0.89805 0.28483 0.67197 0.0
N71 N 0.04836 0.60952 0.45822 0.0
C72 C 0.09436 0.65994 0.46365 0.0
C73 C 0.13921 0.58699 0.39371 0.0
N74 N 0.0762 0.56363 0.41516 0.0
N75 N 0.15169 0.64774 0.42425 0.0
C76 C 0.08412 0.72005 0.51072 0.0
H77 H 0.08933 0.76698 0.48106 0.0
H78 H 0.03223 0.71841 0.5366 0.0
H79 H 0.12489 0.72173 0.55008 0.0
O80 O 0.77651 0.46517 0.41336 0.0
O81 O 0.86407 0.45365 0.33993 0.0
C82 C 0.79954 0.44816 0.35432 0.0
O83 O 0.84787 0.38947 0.50756 0.0
O84 O 0.79789 0.60838 0.47306 0.0
O85 O 0.88033 0.67435 0.51674 0.0
O86 O 0.97085 0.57109 0.33552 0.0
O87 O 0.77544 0.49514 0.58129 0.0
O88 O 0.86704 0.47777 0.64276 0.0
O89 O 0.00147 0.59803 0.61035 0.0
C90 C 0.8621 0.33719 0.47274 0.0
O91 O 0.9278 0.31991 0.46467 0.0
C92 C 0.81853 0.66615 0.49287 0.0
C93 C 0.92733 0.60505 0.3014 0.0
O94 O 0.86249 0.5844 0.29587 0.0
C95 C 0.80149 0.48398 0.63951 0.0
H96 H 0.96532 0.43603 0.26423 0.0
H97 H 0.97477 0.34695 0.23891 0.0
H98 H 0.04457 0.40486 0.22618 0.0
C99 C 0.00085 0.39204 0.26134 0.0
Zn100 Zn 0.43706 0.97217 0.38858 0.0
Zn101 Zn 0.40895 0.95743 0.56354 0.0
Zn102 Zn 0.4665 0.0981 0.51793 0.0
Zn103 Zn 0.31941 0.02536 0.49927 0.0
O104 O 0.42225 0.01387 0.48478 0.0
C105 C 0.50412 0.0807 0.68119 0.0
O106 O 0.52573 0.02314 0.70517 0.0
N107 N 0.49973 0.8934 0.39322 0.0
N108 N 0.54563 0.87526 0.44001 0.0
N109 N 0.54373 0.79473 0.35909 0.0
C110 C 0.50186 0.84654 0.34323 0.0
C111 C 0.5741 0.81538 0.4185 0.0
N112 N 0.48736 0.91393 0.60253 0.0
C113 C 0.58367 0.87824 0.64559 0.0
N114 N 0.5311 0.84185 0.67418 0.0
C115 C 0.47302 0.86744 0.64871 0.0
N116 N 0.55606 0.92322 0.60165 0.0
H117 H 0.39322 0.79428 0.66 0.0
C118 C 0.40158 0.84814 0.67291 0.0
H119 H 0.36065 0.87992 0.65136 0.0
H120 H 0.39871 0.85174 0.72945 0.0
N121 N 0.55329 0.10351 0.46692 0.0
C122 C 0.61668 0.12222 0.4881 0.0
C123 C 0.62373 0.10799 0.38011 0.0
N124 N 0.55839 0.09293 0.40038 0.0
N125 N 0.66114 0.13038 0.43446 0.0
C126 C 0.63215 0.14276 0.56051 0.0
H127 H 0.60153 0.18839 0.5749 0.0
H128 H 0.61653 0.10193 0.59493 0.0
H129 H 0.68862 0.1532 0.56751 0.0
O130 O 0.26575 -0.00799 0.41749 0.0
O131 O 0.34352 0.9481 0.3459 0.0
C132 C 0.28034 0.96144 0.36128 0.0
O133 O 0.34059 0.88734 0.52703 0.0
O134 O 0.29965 0.12239 0.50137 0.0
O135 O 0.3994 0.17938 0.49788 0.0
O136 O 0.47866 0.03748 0.32008 0.0
O137 O 0.27283 -0.0116 0.58795 0.0
O138 O 0.36679 0.01087 0.64277 0.0
O139 O 0.4903 0.08178 0.61773 0.0
C140 C 0.36168 0.83063 0.50403 0.0
O141 O 0.42773 0.81468 0.50855 0.0
C142 C 0.33259 0.17752 0.49456 0.0
C143 C 0.44965 0.07761 0.27931 0.0
O144 O 0.38148 0.07687 0.2733 0.0
C145 C 0.30178 0.00197 0.64465 0.0
H146 H 0.43955 0.90344 0.27311 0.0
H147 H 0.43562 0.81218 0.26119 0.0
H148 H 0.51125 0.85809 0.23519 0.0
C149 C 0.46937 0.85581 0.27463 0.0
Zn150 Zn 0.42579 0.48794 0.89288 0.0
Zn151 Zn 0.40435 0.42871 0.06238 0.0
Zn152 Zn 0.46478 0.59431 -0.00159 0.0
Zn153 Zn 0.30847 0.51851 -0.0049 0.0
O154 O 0.41336 0.50333 -0.00632 0.0
C155 C 0.45917 0.63085 0.14471 0.0
O156 O 0.39083 0.63174 0.13943 0.0
N157 N 0.50125 0.42111 0.87178 0.0
N158 N 0.56541 0.41709 0.89673 0.0
N159 N 0.55014 0.32733 0.82914 0.0
C160 C 0.49239 0.36669 0.83102 0.0
C161 C 0.59589 0.36022 0.87074 0.0
N162 N 0.48685 0.39599 0.1063 0.0
C163 C 0.57956 0.37902 0.16406 0.0
N164 N 0.54018 0.32235 0.1717 0.0
C165 C 0.48236 0.33646 0.1372 0.0
N166 N 0.547 0.42397 0.12371 0.0
H167 H 0.41411 0.25927 0.10174 0.0
C168 C 0.4163 0.29724 0.14401 0.0
H169 H 0.37168 0.33219 0.14412 0.0
H170 H 0.41253 0.26965 0.19242 0.0
N171 N 0.56023 0.59177 0.94775 0.0
C172 C 0.6148 0.63233 0.96272 0.0
C173 C 0.65162 0.5637 0.88623 0.0
N174 N 0.58316 0.55006 0.8987 0.0
N175 N 0.67358 0.61632 0.92614 0.0
C176 C 0.60885 0.6911 0.01079 0.0
H177 H 0.64246 0.73347 -0.00599 0.0
H178 H 0.5539 0.70774 0.01264 0.0
H179 H 0.6254 0.67531 0.06208 0.0
O180 O 0.25235 0.46245 0.92463 0.0
O181 O 0.33632 0.45968 0.84622 0.0
C182 C 0.27323 0.44898 0.86376 0.0
O183 O 0.37007 0.34615 0.01093 0.0
O184 O 0.28943 0.61188 0.96963 0.0
O185 O 0.38848 0.67076 0.97441 0.0
O186 O 0.44079 0.58078 0.8546 0.0
O187 O 0.26304 0.51448 0.09013 0.0
O188 O 0.34002 0.45422 0.14276 0.0
O189 O 0.49663 0.61389 0.09356 0.0
C190 C 0.31389 0.31565 0.02582 0.0
O191 O 0.26815 0.34596 0.0664 0.0
C192 C 0.32218 0.66706 0.96411 0.0
C193 C 0.47369 0.58985 0.79917 0.0
O194 O 0.50003 0.53668 0.76686 0.0
C195 C 0.28311 0.48688 0.14464 0.0
H196 H 0.41292 0.39265 0.76007 0.0
H197 H 0.38245 0.34817 0.83392 0.0
H198 H 0.42503 0.3029 0.76642 0.0
C199 C 0.42495 0.35129 0.7954 0.0
C200 C 0.01569 0.17351 0.24151 0.0
C201 C 0.04041 0.19477 0.17749 0.0
C202 C 0.11833 0.27671 0.23354 0.0
C203 C 0.08124 0.26758 0.29466 0.0
N204 N -0.00137 0.20422 0.36036 0.0
N205 N 0.12091 0.25956 0.11158 0.0
C206 C 0.03276 0.21333 0.30016 0.0
C207 C 0.09483 0.24324 0.17365 0.0
N208 N 0.97008 0.12056 0.24481 0.0
N209 N 0.17313 0.32077 0.23288 0.0
H210 H 0.11373 0.22668 0.07056 0.0
H211 H 0.14942 0.30311 0.10209 0.0
H212 H 0.18933 0.34591 0.27738 0.0
H213 H 0.20486 0.32889 0.19032 0.0
H214 H 0.9476 0.10308 0.28955 0.0
H215 H 0.95678 0.09119 0.20218 0.0
H216 H 0.97064 0.16127 0.37317 0.0
H217 H -0.00237 0.24202 0.39784 0.0
C218 C 0.72447 0.1215 0.2091 0.0
C219 C 0.71418 0.05653 0.17906 0.0
C220 C 0.64755 0.02399 0.28142 0.0
C221 C 0.65211 0.09116 0.30892 0.0
N222 N 0.67941 0.20706 0.28771 0.0
N223 N 0.65555 0.94933 0.18161 0.0
C224 C 0.68614 0.1408 0.26938 0.0
C225 C 0.67268 0.0088 0.21389 0.0
N226 N 0.77323 0.16392 0.18211 0.0
N227 N 0.62219 0.97345 0.32074 0.0
H228 H 0.67209 0.93721 0.1319 0.0
H229 H 0.61951 0.91524 0.20123 0.0
H230 H 0.60192 -0.01806 0.36955 0.0
H231 H 0.62695 0.92253 0.30722 0.0
H232 H 0.79038 0.20693 0.20815 0.0
H233 H 0.80188 0.1527 0.13766 0.0
H234 H 0.70323 0.24577 0.26162 0.0
H235 H 0.64461 0.22351 0.3257 0.0
C236 C 0.97016 0.75394 0.18921 0.0
C237 C 0.98015 0.80683 0.23901 0.0
C238 C 0.95873 0.72559 0.32918 0.0
C239 C 0.94602 0.67408 0.27943 0.0
N240 N 0.94032 0.63872 0.16111 0.0
N241 N 0.96524 0.84539 0.35477 0.0
C242 C 0.95169 0.68826 0.20938 0.0
C243 C 0.97082 0.79292 0.30885 0.0
N244 N 0.97365 0.76551 0.12118 0.0
N245 N 0.95534 0.71048 0.39633 0.0
H246 H 0.95463 0.89395 0.33911 0.0
H247 H 0.9626 0.84103 0.40747 0.0
H248 H 0.94023 0.66321 0.41254 0.0
H249 H 0.97066 0.74311 0.43534 0.0
H250 H -0.01476 0.81219 0.1005 0.0
H251 H -0.01476 0.81219 0.1005 0.0
H252 H 0.94422 0.64728 0.10875 0.0
H253 H 0.92759 0.58918 0.1734 0.0
C254 C 0.15284 0.93992 0.34233 0.0
C255 C 0.22152 0.94162 0.31424 0.0
C256 C 0.1693 0.91395 0.2018 0.0
C257 C 0.10177 0.92381 0.23057 0.0
N258 N 0.03838 -0.01795 0.32125 0.0
N259 N 0.29148 0.94331 0.20863 0.0
C260 C 0.09596 0.94754 0.29875 0.0
C261 C 0.22936 0.93177 0.24142 0.0
N262 N 0.14061 0.92823 0.40988 0.0
N263 N 0.17628 0.88884 0.1367 0.0
H264 H 0.33638 0.96023 0.2324 0.0
H265 H 0.29656 0.94317 0.15558 0.0
H266 H 0.13329 0.87904 0.1059 0.0
H267 H 0.22409 0.87376 0.11536 0.0
H268 H 0.08993 0.92506 0.42999 0.0
H269 H 0.17959 0.91194 0.44247 0.0
H270 H 0.03545 0.00431 0.37004 0.0
H271 H -0.00319 -0.00749 0.28923 0.0
C272 C 0.00512 0.70085 0.83316 0.0
C273 C 0.05204 0.74933 0.80525 0.0
C274 C 0.07502 0.67244 0.70978 0.0
C275 C 0.01361 0.63644 0.72542 0.0
N276 N 0.93253 0.6012 0.81161 0.0
N277 N 0.12174 0.7847 0.70906 0.0
C278 C -0.01691 0.64522 0.79109 0.0
C279 C 0.08574 0.73556 0.74206 0.0
N280 N 0.97941 0.71023 0.89793 0.0
N281 N 0.12232 0.64713 0.66385 0.0
H282 H 0.12117 0.83473 0.72621 0.0
H283 H 0.14372 0.77734 0.66048 0.0
H284 H 0.11828 0.59839 0.64327 0.0
H285 H 0.16975 0.67103 0.65519 0.0
H286 H 0.94887 0.67511 0.92339 0.0
H287 H -0.00894 0.75283 0.92755 0.0
H288 H 0.90424 0.60585 0.85714 0.0
H289 H 0.91994 0.55846 0.78212 0.0
C290 C 0.23866 0.00031 0.83491 0.0
C291 C 0.17438 0.03459 0.8297 0.0
C292 C 0.19242 0.04179 0.70541 0.0
C293 C 0.25948 0.01198 0.70971 0.0
N294 N 0.35183 0.97393 0.78486 0.0
N295 N 0.1108 0.11262 0.76316 0.0
C296 C 0.28439 -0.0058 0.77622 0.0
C297 C 0.15494 0.05933 0.76557 0.0
N298 N 0.2558 0.97339 0.89617 0.0
N299 N 0.16538 0.06072 0.64444 0.0
H300 H 0.08181 0.13088 0.80441 0.0
H301 H 0.11472 0.14599 0.7233 0.0
H302 H 0.19496 0.07244 0.60137 0.0
H303 H 0.11207 0.06965 0.63944 0.0
H304 H 0.29834 0.94161 0.90291 0.0
H305 H 0.22284 -0.02258 0.93897 0.0
H306 H 0.37427 0.96814 0.83252 0.0
H307 H 0.3882 0.96773 0.74568 0.0
C308 C 0.00055 0.25904 0.75455 0.0
C309 C 0.02892 0.25504 0.68802 0.0
C310 C -0.01556 0.13911 0.67301 0.0
C311 C 0.96141 0.1407 0.74198 0.0
N312 N 0.95029 0.20088 0.84945 0.0
N313 N 0.05791 0.19337 0.58744 0.0
C314 C 0.97026 0.20053 0.78288 0.0
C315 C 0.02321 0.19503 0.64838 0.0
N316 N -0.00225 0.32034 0.78796 0.0
N317 N 0.97007 0.08454 0.63161 0.0
H318 H 0.06309 0.15031 0.55632 0.0
H319 H 0.06309 0.15031 0.55632 0.0
H320 H 0.94699 0.04047 0.64922 0.0
H321 H 0.97713 0.08414 0.57882 0.0
H322 H 0.96979 0.33009 0.83295 0.0
H323 H 0.02011 0.36375 0.7681 0.0
H324 H 0.95392 0.24237 0.88237 0.0
H325 H 0.93189 0.15777 0.87234 0.0
C326 C 0.6755 0.84184 0.7277 0.0
C327 C 0.65318 0.88852 0.6794 0.0
C328 C 0.71371 -0.02184 0.7429 0.0
C329 C 0.72564 0.93295 0.797 0.0
N330 N 0.69748 0.82656 0.8471 0.0
N331 N 0.68834 -0.01078 0.6227 0.0
C332 C 0.70189 0.86565 0.79095 0.0
C333 C 0.68326 0.95358 0.6813 0.0
N334 N 0.67628 0.77493 0.71084 0.0
N335 N 0.72652 0.04547 0.75209 0.0
H336 H 0.67248 0.96895 0.57576 0.0
H337 H 0.71749 0.03347 0.61924 0.0
H338 H 0.74546 0.06572 0.79785 0.0
H339 H 0.71186 0.08148 0.71694 0.0
H340 H 0.69621 0.73871 0.74305 0.0
H341 H 0.66273 0.75792 0.66187 0.0
H342 H 0.6733 0.77934 0.84597 0.0
H343 H 0.71041 0.84528 0.89556 0.0
C344 C 0.32142 0.22215 0.93765 0.0
C345 C 0.30341 0.24395 0.00449 0.0
C346 C 0.22677 0.14654 0.01367 0.0
C347 C 0.22144 0.14696 0.94159 0.0
N348 N 0.27472 0.17625 0.83341 0.0
N349 N 0.26336 0.20831 0.11542 0.0
C350 C 0.27393 0.17974 0.90284 0.0
C351 C 0.26471 0.19931 0.04615 0.0
N352 N 0.3831 0.24058 0.90829 0.0
N353 N 0.19131 0.09891 0.04971 0.0
H354 H 0.29085 0.24666 0.13992 0.0
H355 H 0.23474 0.17873 0.14892 0.0
H356 H 0.16363 0.06019 0.02538 0.0
H357 H 0.19302 0.09442 0.10247 0.0
H358 H 0.39995 0.22077 0.86121 0.0
H359 H 0.42105 0.26755 0.93504 0.0
H360 H 0.30821 0.205 0.8033 0.0
H361 H 0.23717 0.1502 0.80624 0.0
C362 C 0.22467 0.74392 0.00094 0.0
C363 C 0.27701 0.72732 0.95135 0.0
C364 C 0.21703 0.80056 0.8707 0.0
C365 C 0.15802 0.80628 0.91549 0.0
N366 N 0.10476 0.77705 0.02245 0.0
N367 N 0.31864 0.7348 0.83533 0.0
C368 C 0.16215 0.77713 0.98089 0.0
C369 C 0.27243 0.75488 0.88531 0.0
N370 N 0.23458 0.72692 0.06741 0.0
N371 N 0.22141 0.84072 0.81528 0.0
H372 H 0.35933 0.70153 0.84468 0.0
H373 H 0.31338 0.74714 0.78416 0.0
H374 H 0.18435 0.87803 0.8069 0.0
H375 H 0.26511 0.84257 0.7831 0.0
H376 H 0.20133 0.7421 0.10737 0.0
H377 H 0.28007 0.70317 0.08332 0.0
H378 H 0.10128 0.74869 0.06654 0.0
H379 H 0.05922 0.80217 0.00991 0.0
C380 C 0.70797 0.30226 0.83541 0.0
C381 C 0.66876 0.33511 0.88763 0.0
C382 C 0.76404 0.30651 0.96673 0.0
C383 C 0.78715 0.25519 0.92004 0.0
N384 N 0.7834 0.20875 0.80479 0.0
N385 N 0.66985 0.38206 0.0032 0.0
C386 C 0.76084 0.25542 0.85232 0.0
C387 C 0.70031 0.34237 0.95336 0.0
N388 N 0.69562 0.31928 0.76975 0.0
N389 N 0.80258 0.32052 0.02342 0.0
H390 H 0.62167 0.40521 -0.00105 0.0
H391 H 0.69182 0.39234 0.05041 0.0
H392 H 0.84836 0.29466 0.0341 0.0
H393 H 0.79447 0.36265 0.05509 0.0
H394 H 0.72561 0.30259 0.72785 0.0
H395 H 0.72561 0.30259 0.72785 0.0
H396 H 0.75939 0.20132 0.75773 0.0
H397 H 0.82305 0.17446 0.81413 0.0
C398 C 0.81112 0.74674 0.92548 0.0
C399 C 0.80911 0.75784 -0.00317 0.0
C400 C 0.76148 0.64463 0.01161 0.0
C401 C 0.74264 0.64335 0.94175 0.0
N402 N 0.78034 0.6755 0.82883 0.0
N403 N 0.79741 0.71324 0.10944 0.0
C404 C 0.77723 0.68879 0.8972 0.0
C405 C 0.79101 0.70443 0.04047 0.0
N406 N 0.84151 0.79392 0.88496 0.0
N407 N 0.74414 0.59092 0.05087 0.0
H408 H 0.82173 0.75564 0.13071 0.0
H409 H 0.77841 0.67966 0.14535 0.0
H410 H 0.71722 0.54942 0.03081 0.0
H411 H 0.75934 0.58576 0.10134 0.0
H412 H 0.83549 0.7955 0.83248 0.0
H413 H 0.8716 0.83336 0.9046 0.0
H414 H 0.80813 0.70377 0.79359 0.0
H415 H 0.76283 0.63097 0.8076 0.0
C416 C 0.6664 0.55199 0.75999 0.0
C417 C 0.6894 0.53405 0.82531 0.0
C418 C 0.78351 0.46755 0.76891 0.0
C419 C 0.75678 0.48561 0.70372 0.0
N420 N 0.64832 0.50978 0.64652 0.0
N421 N 0.76957 0.47216 0.89343 0.0
C422 C 0.69028 0.51602 0.70201 0.0
C423 C 0.74795 0.49048 0.83036 0.0
N424 N 0.63031 0.61011 0.75162 0.0
N425 N 0.84003 0.42572 0.77176 0.0
H426 H 0.74303 0.48745 0.93775 0.0
H427 H 0.81153 0.4405 0.90252 0.0
H428 H 0.85847 0.3986 0.72918 0.0
H429 H 0.86651 0.4146 0.81612 0.0
H430 H 0.62077 0.62846 0.70306 0.0
H431 H 0.62051 0.64378 0.79222 0.0
H432 H 0.59825 0.53076 0.64638 0.0
H433 H 0.65879 0.47567 0.60643 0.0
C434 C 0.16809 0.33629 0.74264 0.0
C435 C 0.14538 0.38203 0.69315 0.0
C436 C 0.2128 0.47121 0.7532 0.0
C437 C 0.2235 0.42777 0.8088 0.0
N438 N 0.20656 0.31824 0.85678 0.0
N439 N 0.18577 0.47963 0.63358 0.0
C440 C 0.19893 0.36058 0.80388 0.0
C441 C 0.17861 0.44627 0.69328 0.0
N442 N 0.17383 0.26949 0.72727 0.0
N443 N 0.23338 0.53721 0.75839 0.0
H444 H 0.16844 0.45996 0.58717 0.0
H445 H 0.21922 0.52041 0.62845 0.0
H446 H 0.25686 0.55773 0.80194 0.0
H447 H 0.22199 0.57298 0.72204 0.0
H448 H 0.1666 0.24995 0.67792 0.0
H449 H 0.1666 0.24995 0.67792 0.0
H450 H 0.18504 0.27007 0.85454 0.0
H451 H 0.22877 0.3332 0.90302 0.0
C452 C 0.24236 0.5226 0.33587 0.0
C453 C 0.17789 0.55801 0.33132 0.0
C454 C 0.17431 0.52641 0.20885 0.0
C455 C 0.24227 0.49841 0.21114 0.0
N456 N 0.32238 0.44069 0.28476 0.0
N457 N 0.09441 0.608 0.25694 0.0
C458 C 0.27172 0.48841 0.27685 0.0
C459 C 0.14694 0.56314 0.26614 0.0
N460 N 0.27714 0.52321 0.39603 0.0
N461 N 0.13288 0.51319 0.15385 0.0
H462 H 0.07582 0.63908 0.29652 0.0
H463 H 0.07711 0.62049 0.20857 0.0
H464 H 0.14744 0.47906 0.11493 0.0
H465 H 0.08052 0.5276 0.15232 0.0
H466 H 0.32859 0.50715 0.40097 0.0
H467 H 0.25551 0.54355 0.44051 0.0
H468 H 0.34201 0.42737 0.33195 0.0
H469 H 0.33655 0.40604 0.24648 0.0
C470 C 0.63054 0.45457 0.25523 0.0
C471 C 0.63895 0.39933 0.20814 0.0
C472 C 0.75841 0.38258 0.24821 0.0
C473 C 0.74815 0.4343 0.29881 0.0
N474 N 0.68722 0.53845 0.32649 0.0
N475 N 0.71566 0.31489 0.15633 0.0
C476 C 0.68788 0.47594 0.29537 0.0
C477 C 0.70396 0.36555 0.20293 0.0
N478 N 0.56651 0.48407 0.26542 0.0
N479 N 0.82052 0.34948 0.24156 0.0
H480 H 0.67894 0.29738 0.12146 0.0
H481 H 0.67894 0.29738 0.12146 0.0
H482 H 0.86222 0.35872 0.27316 0.0
H483 H 0.83135 0.31452 0.20229 0.0
H484 H 0.55606 0.51827 0.30538 0.0
H485 H 0.52162 0.46888 0.23981 0.0
H486 H 0.64775 0.57379 0.31952 0.0
H487 H 0.73023 0.55877 0.35177 0.0
C488 C 0.28487 0.73262 0.52547 0.0
C489 C 0.31124 0.77989 0.47936 0.0
C490 C 0.23851 0.73156 0.3896 0.0
C491 C 0.21681 0.68117 0.4348 0.0
N492 N 0.23261 0.62389 0.54087 0.0
N493 N 0.32916 0.81025 0.36235 0.0
C494 C 0.24714 0.67696 0.50012 0.0
C495 C 0.29292 0.77522 0.40963 0.0
N496 N 0.28774 0.74558 0.59384 0.0
N497 N 0.20504 0.74003 0.32941 0.0
H498 H 0.37219 0.83849 0.37673 0.0
H499 H 0.32123 0.80495 0.30994 0.0
H500 H 0.16485 0.70842 0.31374 0.0
H501 H 0.21397 0.78111 0.29804 0.0
H502 H 0.27407 0.7114 0.63126 0.0
H503 H 0.29197 0.79506 0.61181 0.0
H504 H 0.26074 0.61552 0.58509 0.0
H505 H 0.1967 0.58637 0.52769 0.0
C506 C 0.17562 0.2358 0.41646 0.0
C507 C 0.16653 0.30487 0.43177 0.0
C508 C 0.27954 0.29741 0.49185 0.0
C509 C 0.29035 0.23182 0.4627 0.0
N510 N 0.25593 0.15385 0.37218 0.0
N511 N 0.22253 0.40571 0.47798 0.0
C512 C 0.24264 0.20894 0.41303 0.0
C513 C 0.22231 0.33764 0.46784 0.0
N514 N 0.12234 0.19236 0.42659 0.0
N515 N 0.32136 0.32029 0.54306 0.0
H516 H 0.18371 0.43706 0.45983 0.0
H517 H 0.26456 0.43114 0.50002 0.0
H518 H 0.36358 0.29216 0.5598 0.0
H519 H 0.31117 0.36476 0.57083 0.0
H520 H 0.12785 0.14015 0.41966 0.0
H521 H 0.07982 0.20864 0.45593 0.0
H522 H 0.21888 0.1355 0.33767 0.0
H523 H 0.30478 0.13058 0.37042 0.0
C524 C 0.76645 0.78386 0.47042 0.0
C525 C 0.76122 0.71796 0.49619 0.0
C526 C 0.63586 0.71796 0.47635 0.0
C527 C 0.63841 0.78406 0.44986 0.0
N528 N 0.70656 0.88742 0.44349 0.0
N529 N 0.68594 0.64305 0.55756 0.0
C530 C 0.70381 0.81965 0.45377 0.0
C531 C 0.69408 0.69224 0.51037 0.0
N532 N 0.83048 0.81247 0.46216 0.0
N533 N 0.57773 0.6792 0.47109 0.0
H534 H 0.72787 0.626 0.58617 0.0
H535 H 0.63692 0.6261 0.57344 0.0
H536 H 0.52988 0.70021 0.46135 0.0
H537 H 0.57747 0.62752 0.48047 0.0
H538 H 0.83895 0.85624 0.43471 0.0
H539 H 0.87488 0.79167 0.48338 0.0
H540 H 0.7511 0.91659 0.45141 0.0
H541 H 0.66268 0.91619 0.43486 0.0
C542 C 0.68622 0.24995 0.45925 0.0
C543 C 0.70851 0.18616 0.43328 0.0
C544 C 0.81857 0.23719 0.40553 0.0
C545 C 0.80533 0.28992 0.45405 0.0
N546 N 0.72069 0.33436 0.53981 0.0
N547 N 0.80085 0.11836 0.38343 0.0
C548 C 0.73716 0.29419 0.48435 0.0
C549 C 0.77653 0.17908 0.4071 0.0
N550 N 0.61733 0.26755 0.4613 0.0
N551 N 0.8649 0.24535 0.35355 0.0
H552 H 0.77104 0.07435 0.38609 0.0
H553 H 0.85226 0.11212 0.36627 0.0
H554 H 0.89468 0.289 0.34911 0.0
H555 H 0.86808 0.21095 0.31249 0.0
H556 H 0.60067 0.31556 0.47728 0.0
H557 H 0.57874 0.23725 0.43942 0.0
H558 H 0.671 0.33396 0.56236 0.0
H559 H 0.75665 0.35894 0.5706 0.0
C560 C 0.54498 0.20287 0.83071 0.0
C561 C 0.55469 0.26297 0.79384 0.0
C562 C 0.51244 0.20742 0.6907 0.0
C563 C 0.51096 0.14442 0.72358 0.0
N564 N 0.51547 0.08421 0.83003 0.0
N565 N 0.56244 0.3191 0.68659 0.0
C566 C 0.52541 0.1424 0.79503 0.0
C567 C 0.54599 0.26282 0.72245 0.0
N568 N 0.54837 0.20519 0.90042 0.0
N569 N 0.47347 0.21735 0.63401 0.0
H570 H 0.58241 0.36266 0.71009 0.0
H571 H 0.56154 0.32003 0.63338 0.0
H572 H 0.4338 0.184 0.62024 0.0
H573 H 0.47119 0.2633 0.60927 0.0
H574 H 0.53407 0.16558 0.93169 0.0
H575 H 0.56182 0.24863 0.92801 0.0
H576 H 0.53723 0.07535 0.87748 0.0
H577 H 0.48282 0.04563 0.81268 0.0
C578 C 0.51231 0.72053 0.66756 0.0
C579 C 0.52946 0.77829 0.70756 0.0
C580 C 0.50094 0.71728 0.81046 0.0
C581 C 0.48269 0.65869 0.76993 0.0
N582 N 0.45364 0.6141 0.65776 0.0
N583 N 0.5229 0.83803 0.81449 0.0
C584 C 0.48296 0.66345 0.69796 0.0
C585 C 0.51927 0.77826 0.77843 0.0
N586 N 0.518 0.72142 0.59861 0.0
N587 N 0.5033 0.71517 0.87939 0.0
H588 H 0.53865 0.883 0.7921 0.0
H589 H 0.50535 0.84438 0.86478 0.0
H590 H 0.48557 0.67464 0.90594 0.0
H591 H 0.52524 0.75308 0.90978 0.0
H592 H 0.53814 0.76245 0.57232 0.0
H593 H 0.53814 0.76245 0.57232 0.0
H594 H 0.45445 0.61569 0.60446 0.0
H595 H 0.42384 0.57485 0.67768 0.0
C596 C 0.54496 0.7107 0.19943 0.0
C597 C 0.49331 0.65981 0.20601 0.0
C598 C 0.4856 0.68756 0.32634 0.0
C599 C 0.5443 0.73211 0.3205 0.0
N600 N 0.64184 0.7682 0.25277 0.0
N601 N 0.42862 0.58748 0.28142 0.0
C602 C 0.58092 0.73316 0.25801 0.0
C603 C 0.46997 0.64258 0.27175 0.0
N604 N 0.5481 0.74845 0.14232 0.0
N605 N 0.43776 0.69577 0.37777 0.0
H606 H 0.41579 0.5541 0.24157 0.0
H607 H 0.41382 0.57195 0.33008 0.0
H608 H 0.44061 0.73564 0.41275 0.0
H609 H 0.3917 0.66773 0.38058 0.0
H610 H 0.58206 0.78934 0.13731 0.0
H611 H 0.5085 0.74577 0.10631 0.0
H612 H 0.66982 0.77075 0.20675 0.0
H613 H 0.6658 0.78942 0.29579 0.0
C614 C 0.52609 0.13704 0.19386 0.0
C615 C 0.48932 0.13802 0.2569 0.0
C616 C 0.52079 0.25733 0.2751 0.0
C617 C 0.54763 0.25965 0.20745 0.0
N618 N 0.56878 0.2027 0.09919 0.0
N619 N 0.44862 0.1989 0.35715 0.0
C620 C 0.55069 0.19901 0.16677 0.0
C621 C 0.48699 0.19788 0.29795 0.0
N622 N 0.53525 0.07728 0.15884 0.0
N623 N 0.52392 0.31373 0.31593 0.0
H624 H 0.4258 0.15559 0.37665 0.0
H625 H 0.43591 0.24272 0.38474 0.0
H626 H 0.54516 0.35845 0.29894 0.0
H627 H 0.51051 0.31521 0.36759 0.0
H628 H 0.56713 0.07195 0.11557 0.0
H629 H 0.51568 0.03161 0.1766 0.0
H630 H 0.58232 0.24792 0.07626 0.0
H631 H 0.56462 0.16251 0.0644 0.0
loop_
_geom_bond_atom_site_label_1
_geom_bond_atom_site_label_2
_geom_bond_distance
_geom_bond_site_symmetry_2
_ccdc_geom_bond_type
Zn0 O4 1.978 . S
Zn0 N7 2.004 1_545 S
Zn0 O31 2.064 1_545 S
Zn0 O36 1.963 . S
Zn1 O4 1.978 1_564 S
Zn1 N12 2.004 . S
Zn1 O33 1.963 1_554 S
Zn1 O38 2.064 . S
Zn2 O4 1.978 1_554 S
Zn2 N21 2.003 1_655 S
Zn2 O35 2.064 . S
Zn2 O39 1.963 . S
Zn3 O4 1.913 . S
Zn3 O30 1.941 . S
Zn3 O34 1.941 1_556 S
Zn3 O37 1.941 1_556 S
O4 Zn0 1.978 . S
O4 Zn1 1.978 1_546 S
O4 Zn2 1.978 1_556 S
O4 Zn3 1.913 . S
C5 O6 1.237 1_655 S
C5 O39 1.268 . S
O6 C5 1.237 1_455 S
N7 Zn0 2.004 1_565 S
N7 N8 1.383 1_655 S
N7 C10 1.306 1_655 S
N8 N7 1.383 1_455 S
N8 C11 1.302 . S
N9 C10 1.368 . S
N9 C11 1.379 . S
C10 N7 1.306 1_455 S
C10 N9 1.368 . S
C10 C49 1.481 1_455 S
C11 N8 1.302 . S
C11 N9 1.379 . S
N12 Zn1 2.004 . S
N12 C15 1.306 1_655 S
N12 N16 1.383 1_655 S
C13 N14 1.379 . S
C13 N16 1.302 . S
N14 C13 1.379 . S
N14 C15 1.368 . S
C15 N12 1.306 1_455 S
C15 N14 1.368 . S
C15 C18 1.481 1_455 S
N16 N12 1.383 1_455 S
N16 C13 1.302 . S
H17 C18 0.969 . S
C18 C15 1.481 1_655 S
C18 H17 0.969 . S
C18 H19 0.970 . S
C18 H20 0.971 . S
H19 C18 0.970 . S
H20 C18 0.971 . S
N21 Zn2 2.003 1_455 S
N21 C22 1.306 . S
N21 N24 1.384 1_554 S
C22 N21 1.306 . S
C22 N25 1.368 1_554 S
C22 C26 1.481 . S
C23 N24 1.302 . S
C23 N25 1.379 . S
N24 N21 1.384 1_556 S
N24 C23 1.302 . S
N25 C22 1.368 1_556 S
N25 C23 1.379 . S
C26 C22 1.481 . S
C26 H27 0.971 . S
C26 H28 0.970 . S
C26 H29 0.969 . S
H27 C26 0.971 . S
H28 C26 0.970 . S
H29 C26 0.969 . S
O30 Zn3 1.941 . S
O30 C32 1.277 1_545 S
O31 Zn0 2.064 1_565 S
O31 C32 1.233 . S
C32 O30 1.277 1_565 S
C32 O31 1.233 . S
O33 Zn1 1.963 1_556 S
O33 C40 1.268 . S
O34 Zn3 1.941 1_554 S
O34 C42 1.277 1_554 S
O35 Zn2 2.064 . S
O35 C42 1.230 1_554 S
O36 Zn0 1.963 . S
O36 C43 1.268 . S
O37 Zn3 1.941 1_554 S
O37 C45 1.277 1_545 S
O38 Zn1 2.064 . S
O38 C45 1.233 . S
O39 Zn2 1.963 . S
O39 C5 1.268 . S
C40 O33 1.268 . S
C40 O41 1.237 1_556 S
O41 C40 1.237 1_554 S
C42 O34 1.277 1_556 S
C42 O35 1.230 1_556 S
C43 O36 1.268 . S
C43 O44 1.237 . S
O44 C43 1.237 . S
C45 O37 1.277 1_565 S
C45 O38 1.233 . S
H46 C49 0.970 . S
H47 C49 0.971 . S
H48 C49 0.969 1_455 S
C49 C10 1.481 1_655 S
C49 H46 0.970 . S
C49 H47 0.971 . S
C49 H48 0.969 1_655 S
Zn50 O54 1.978 . S
Zn50 N57 2.004 . S
Zn50 O81 2.064 . S
Zn50 O86 1.963 . S
Zn51 O54 1.978 . S
Zn51 N62 2.004 . S
Zn51 O83 1.963 . S
Zn51 O88 2.064 . S
Zn52 O54 1.978 . S
Zn52 N71 2.004 1_655 S
Zn52 O85 2.064 . S
Zn52 O89 1.963 . S
Zn53 O54 1.913 . S
Zn53 O80 1.941 . S
Zn53 O84 1.941 . S
Zn53 O87 1.941 . S
O54 Zn50 1.978 . S
O54 Zn51 1.978 . S
O54 Zn52 1.978 . S
O54 Zn53 1.913 . S
C55 O56 1.237 1_655 S
C55 O89 1.268 . S
O56 C55 1.237 1_455 S
N57 Zn50 2.004 . S
N57 N58 1.383 1_655 S
N57 C60 1.306 1_655 S
N58 N57 1.383 1_455 S
N58 C61 1.302 . S
N59 C60 1.368 . S
N59 C61 1.379 . S
C60 N57 1.306 1_455 S
C60 N59 1.368 . S
C60 C99 1.481 1_455 S
C61 N58 1.302 . S
C61 N59 1.379 . S
N62 Zn51 2.004 . S
N62 C65 1.306 1_655 S
N62 N66 1.383 1_655 S
C63 N64 1.379 . S
C63 N66 1.302 . S
N64 C63 1.379 . S
N64 C65 1.368 . S
C65 N62 1.306 1_455 S
C65 N64 1.368 . S
C65 C68 1.481 1_455 S
N66 N62 1.383 1_455 S
N66 C63 1.302 . S
H67 C68 0.969 . S
C68 C65 1.481 1_655 S
C68 H67 0.969 . S
C68 H69 0.970 . S
C68 H70 0.971 . S
H69 C68 0.970 . S
H70 C68 0.971 . S
N71 Zn52 2.004 1_455 S
N71 C72 1.306 . S
N71 N74 1.383 . S
C72 N71 1.306 . S
C72 N75 1.368 . S
C72 C76 1.481 . S
C73 N74 1.302 . S
C73 N75 1.379 . S
N74 N71 1.383 . S
N74 C73 1.302 . S
N75 C72 1.368 . S
N75 C73 1.379 . S
C76 C72 1.481 . S
C76 H77 0.971 . S
C76 H78 0.970 . S
C76 H79 0.969 . S
H77 C76 0.971 . S
H78 C76 0.970 . S
H79 C76 0.969 . S
O80 Zn53 1.941 . S
O80 C82 1.277 . S
O81 Zn50 2.064 . S
O81 C82 1.233 . S
C82 O80 1.277 . S
C82 O81 1.233 . S
O83 Zn51 1.963 . S
O83 C90 1.268 . S
O84 Zn53 1.941 . S
O84 C92 1.277 . S
O85 Zn52 2.064 . S
O85 C92 1.233 . S
O86 Zn50 1.963 . S
O86 C93 1.268 . S
O87 Zn53 1.941 . S
O87 C95 1.277 . S
O88 Zn51 2.064 . S
O88 C95 1.233 . S
O89 Zn52 1.963 . S
O89 C55 1.268 . S
C90 O83 1.268 . S
C90 O91 1.237 . S
O91 C90 1.237 . S
C92 O84 1.277 . S
C92 O85 1.233 . S
C93 O86 1.268 . S
C93 O94 1.237 . S
O94 C93 1.237 . S
C95 O87 1.277 . S
C95 O88 1.233 . S
H96 C99 0.970 . S
H97 C99 0.971 . S
H98 C99 0.969 1_455 S
C99 C60 1.481 1_655 S
C99 H96 0.970 . S
C99 H97 0.971 . S
C99 H98 0.969 1_655 S
Zn100 O104 1.978 . S
Zn100 N107 2.004 1_545 S
Zn100 O131 2.064 1_545 S
Zn100 O136 1.963 . S
Zn101 O104 1.978 1_565 S
Zn101 N112 2.004 . S
Zn101 O133 1.963 . S
Zn101 O138 2.064 . S
Zn102 O104 1.978 . S
Zn102 N121 2.004 . S
Zn102 O135 2.064 . S
Zn102 O139 1.963 . S
Zn103 O104 1.913 . S
Zn103 O130 1.941 . S
Zn103 O134 1.941 . S
Zn103 O137 1.941 . S
O104 Zn100 1.978 . S
O104 Zn101 1.978 1_545 S
O104 Zn102 1.978 . S
O104 Zn103 1.913 . S
C105 O106 1.237 . S
C105 O139 1.268 . S
O106 C105 1.237 . S
N107 Zn100 2.004 1_565 S
N107 N108 1.383 . S
N107 C110 1.306 . S
N108 N107 1.383 . S
N108 C111 1.302 . S
N109 C110 1.368 . S
N109 C111 1.379 . S
C110 N107 1.306 . S
C110 N109 1.368 . S
C110 C149 1.481 . S
C111 N108 1.302 . S
C111 N109 1.379 . S
N112 Zn101 2.004 . S
N112 C115 1.306 . S
N112 N116 1.383 . S
C113 N114 1.379 . S
C113 N116 1.302 . S
N114 C113 1.379 . S
N114 C115 1.368 . S
C115 N112 1.306 . S
C115 N114 1.368 . S
C115 C118 1.481 . S
N116 N112 1.383 . S
N116 C113 1.302 . S
H117 C118 0.969 . S
C118 C115 1.481 . S
C118 H117 0.969 . S
C118 H119 0.970 . S
C118 H120 0.971 . S
H119 C118 0.970 . S
H120 C118 0.971 . S
N121 Zn102 2.004 . S
N121 C122 1.306 . S
N121 N124 1.383 . S
C122 N121 1.306 . S
C122 N125 1.368 . S
C122 C126 1.481 . S
C123 N124 1.302 . S
C123 N125 1.379 . S
N124 N121 1.383 . S
N124 C123 1.302 . S
N125 C122 1.368 . S
N125 C123 1.379 . S
C126 C122 1.481 . S
C126 H127 0.971 . S
C126 H128 0.970 . S
C126 H129 0.969 . S
H127 C126 0.971 . S
H128 C126 0.970 . S
H129 C126 0.969 . S
O130 Zn103 1.941 . S
O130 C132 1.277 1_545 S
O131 Zn100 2.064 1_565 S
O131 C132 1.233 . S
C132 O130 1.277 1_565 S
C132 O131 1.233 . S
O133 Zn101 1.963 . S
O133 C140 1.268 . S
O134 Zn103 1.941 . S
O134 C142 1.277 . S
O135 Zn102 2.064 . S
O135 C142 1.233 . S
O136 Zn100 1.963 . S
O136 C143 1.268 . S
O137 Zn103 1.941 . S
O137 C145 1.277 1_545 S
O138 Zn101 2.064 . S
O138 C145 1.233 . S
O139 Zn102 1.963 . S
O139 C105 1.268 . S
C140 O133 1.268 . S
C140 O141 1.237 . S
O141 C140 1.237 . S
C142 O134 1.277 . S
C142 O135 1.233 . S
C143 O136 1.268 . S
C143 O144 1.237 . S
O144 C143 1.237 . S
C145 O137 1.277 1_565 S
C145 O138 1.233 . S
H146 C149 0.970 . S
H147 C149 0.971 . S
H148 C149 0.969 . S
C149 C110 1.481 . S
C149 H146 0.970 . S
C149 H147 0.971 . S
C149 H148 0.969 . S
Zn150 O154 1.978 . S
Zn150 N157 2.004 . S
Zn150 O181 2.064 . S
Zn150 O186 1.963 . S
Zn151 O154 1.978 1_554 S
Zn151 N162 2.004 . S
Zn151 O183 1.963 1_554 S
Zn151 O188 2.064 . S
Zn152 O154 1.978 1_554 S
Zn152 N171 2.003 . S
Zn152 O185 2.064 . S
Zn152 O189 1.963 . S
Zn153 O154 1.913 . S
Zn153 O180 1.941 . S
Zn153 O184 1.941 1_556 S
Zn153 O187 1.941 1_556 S
O154 Zn150 1.978 . S
O154 Zn151 1.978 1_556 S
O154 Zn152 1.978 1_556 S
O154 Zn153 1.913 . S
C155 O156 1.237 . S
C155 O189 1.268 . S
O156 C155 1.237 . S
N157 Zn150 2.004 . S
N157 N158 1.383 . S
N157 C160 1.306 . S
N158 N157 1.383 . S
N158 C161 1.302 . S
N159 C160 1.368 . S
N159 C161 1.379 . S
C160 N157 1.306 . S
C160 N159 1.368 . S
C160 C199 1.481 . S
C161 N158 1.302 . S
C161 N159 1.379 . S
N162 Zn151 2.004 . S
N162 C165 1.306 . S
N162 N166 1.383 . S
C163 N164 1.379 . S
C163 N166 1.302 . S
N164 C163 1.379 . S
N164 C165 1.368 . S
C165 N162 1.306 . S
C165 N164 1.368 . S
C165 C168 1.481 . S
N166 N162 1.383 . S
N166 C163 1.302 . S
H167 C168 0.969 . S
C168 C165 1.481 . S
C168 H167 0.969 . S
C168 H169 0.970 . S
C168 H170 0.971 . S
H169 C168 0.970 . S
H170 C168 0.971 . S
N171 Zn152 2.003 . S
N171 C172 1.306 . S
N171 N174 1.384 1_554 S
C172 N171 1.306 . S
C172 N175 1.368 1_554 S
C172 C176 1.481 . S
C173 N174 1.302 . S
C173 N175 1.379 . S
N174 N171 1.384 1_556 S
N174 C173 1.302 . S
N175 C172 1.368 1_556 S
N175 C173 1.379 . S
C176 C172 1.481 . S
C176 H177 0.971 . S
C176 H178 0.970 . S
C176 H179 0.969 . S
H177 C176 0.971 . S
H178 C176 0.970 . S
H179 C176 0.969 . S
O180 Zn153 1.941 . S
O180 C182 1.277 . S
O181 Zn150 2.064 . S
O181 C182 1.233 . S
C182 O180 1.277 . S
C182 O181 1.233 . S
O183 Zn151 1.963 1_556 S
O183 C190 1.268 . S
O184 Zn153 1.941 1_554 S
O184 C192 1.277 1_554 S
O185 Zn152 2.064 . S
O185 C192 1.230 1_554 S
O186 Zn150 1.963 . S
O186 C193 1.268 . S
O187 Zn153 1.941 1_554 S
O187 C195 1.277 . S
O188 Zn151 2.064 . S
O188 C195 1.233 . S
O189 Zn152 1.963 . S
O189 C155 1.268 . S
C190 O183 1.268 . S
C190 O191 1.237 1_556 S
O191 C190 1.237 1_554 S
C192 O184 1.277 1_556 S
C192 O185 1.230 1_556 S
C193 O186 1.268 . S
C193 O194 1.237 . S
O194 C193 1.237 . S
C195 O187 1.277 . S
C195 O188 1.233 . S
H196 C199 0.970 . S
H197 C199 0.971 . S
H198 C199 0.969 . S
C199 C160 1.481 . S
C199 H196 0.970 . S
C199 H197 0.971 . S
C199 H198 0.969 . S
C200 C201 1.363 1_655 S
C200 C206 1.379 . S
C200 N208 1.356 . S
C201 C200 1.363 1_455 S
C201 C207 1.363 . S
C202 C203 1.363 . S
C202 C207 1.379 . S
C202 N209 1.356 . S
C203 C202 1.363 . S
C203 C206 1.363 1_455 S
N204 C206 1.356 . S
N204 H216 0.984 . S
N204 H217 0.985 1_655 S
N205 C207 1.356 . S
N205 H210 0.984 . S
N205 H211 0.985 . S
C206 C200 1.379 . S
C206 C203 1.363 1_655 S
C206 N204 1.356 . S
C207 C201 1.363 . S
C207 C202 1.379 . S
C207 N205 1.356 . S
N208 C200 1.356 . S
N208 H214 0.984 . S
N208 H215 0.984 . S
N209 C202 1.356 . S
N209 H212 0.984 . S
N209 H213 0.985 . S
H210 N205 0.984 . S
H211 N205 0.985 . S
H212 N209 0.984 . S
H213 N209 0.985 . S
H214 N208 0.984 . S
H215 N208 0.984 . S
H216 N204 0.984 . S
H217 N204 0.985 1_455 S
C218 C219 1.363 . S
C218 C224 1.379 . S
C218 N226 1.356 . S
C219 C218 1.363 . S
C219 C225 1.363 1_545 S
C220 C221 1.363 1_565 S
C220 C225 1.379 . S
C220 N227 1.356 . S
C221 C220 1.363 1_545 S
C221 C224 1.363 . S
N222 C224 1.356 . S
N222 H234 0.984 . S
N222 H235 0.985 . S
N223 C225 1.356 . S
N223 H228 0.984 . S
N223 H229 0.985 . S
C224 C218 1.379 . S
C224 C221 1.363 . S
C224 N222 1.356 . S
C225 C219 1.363 1_565 S
C225 C220 1.379 . S
C225 N223 1.356 . S
N226 C218 1.356 . S
N226 H232 0.984 . S
N226 H233 0.984 . S
N227 C220 1.356 . S
N227 H230 0.984 . S
N227 H231 0.985 . S
H228 N223 0.984 . S
H229 N223 0.985 . S
H230 N227 0.984 . S
H231 N227 0.985 . S
H232 N226 0.984 . S
H233 N226 0.984 . S
H234 N222 0.984 . S
H235 N222 0.985 . S
C236 C237 1.363 . S
C236 C242 1.379 . S
C236 N244 1.356 . S
C237 C236 1.363 . S
C237 C243 1.363 . S
C238 C239 1.363 . S
C238 C243 1.379 . S
C238 N245 1.356 . S
C239 C238 1.363 . S
C239 C242 1.363 . S
N240 C242 1.356 . S
N240 H252 0.984 . S
N240 H253 0.985 . S
N241 C243 1.356 . S
N241 H246 0.984 . S
N241 H247 0.985 . S
C242 C236 1.379 . S
C242 C239 1.363 . S
C242 N240 1.356 . S
C243 C237 1.363 . S
C243 C238 1.379 . S
C243 N241 1.356 . S
N244 C236 1.356 . S
N244 H250 0.984 . S
N244 H251 0.984 . S
N245 C238 1.356 . S
N245 H248 0.984 1_455 S
N245 H249 0.983 1_455 S
H246 N241 0.984 . S
H247 N241 0.985 . S
H248 N245 0.984 1_655 S
H249 N245 0.983 1_655 S
H250 N244 0.984 . S
H251 N244 0.984 . S
H252 N240 0.984 . S
H253 N240 0.985 . S
C254 C255 1.363 1_545 S
C254 C260 1.379 . S
C254 N262 1.356 . S
C255 C254 1.363 1_565 S
C255 C261 1.363 . S
C256 C257 1.363 . S
C256 C261 1.379 . S
C256 N263 1.356 . S
C257 C256 1.363 . S
C257 C260 1.363 1_565 S
N258 C260 1.356 . S
N258 H270 0.984 . S
N258 H271 0.985 . S
N259 C261 1.356 . S
N259 H264 0.984 . S
N259 H265 0.985 . S
C260 C254 1.379 . S
C260 C257 1.363 1_545 S
C260 N258 1.356 . S
C261 C255 1.363 . S
C261 C256 1.379 . S
C261 N259 1.356 . S
N262 C254 1.356 . S
N262 H268 0.984 . S
N262 H269 0.984 . S
N263 C256 1.356 . S
N263 H266 0.984 . S
N263 H267 0.985 . S
H264 N259 0.984 . S
H265 N259 0.985 . S
H266 N263 0.984 . S
H267 N263 0.985 . S
H268 N262 0.984 . S
H269 N262 0.984 . S
H270 N258 0.984 . S
H271 N258 0.985 . S
C272 C273 1.363 1_655 S
C272 C278 1.379 . S
C272 N280 1.356 . S
C273 C272 1.363 1_455 S
C273 C279 1.363 . S
C274 C275 1.363 . S
C274 C279 1.379 . S
C274 N281 1.356 . S
C275 C274 1.363 . S
C275 C278 1.363 1_455 S
N276 C278 1.356 . S
N276 H288 0.984 . S
N276 H289 0.985 . S
N277 C279 1.356 . S
N277 H282 0.984 . S
N277 H283 0.985 . S
C278 C272 1.379 . S
C278 C275 1.363 1_655 S
C278 N276 1.356 . S
C279 C273 1.363 . S
C279 C274 1.379 . S
C279 N277 1.356 . S
N280 C272 1.356 . S
N280 H286 0.984 . S
N280 H287 0.984 . S
N281 C274 1.356 . S
N281 H284 0.984 . S
N281 H285 0.985 . S
H282 N277 0.984 . S
H283 N277 0.985 . S
H284 N281 0.984 . S
H285 N281 0.985 . S
H286 N280 0.984 . S
H287 N280 0.984 . S
H288 N276 0.984 . S
H289 N276 0.985 . S
C290 C291 1.363 1_565 S
C290 C296 1.379 . S
C290 N298 1.356 . S
C291 C290 1.363 1_545 S
C291 C297 1.363 . S
C292 C293 1.363 . S
C292 C297 1.379 . S
C292 N299 1.356 . S
C293 C292 1.363 . S
C293 C296 1.363 1_545 S
N294 C296 1.356 . S
N294 H306 0.984 . S
N294 H307 0.985 . S
N295 C297 1.356 . S
N295 H300 0.984 . S
N295 H301 0.985 . S
C296 C290 1.379 . S
C296 C293 1.363 1_565 S
C296 N294 1.356 . S
C297 C291 1.363 . S
C297 C292 1.379 . S
C297 N295 1.356 . S
N298 C290 1.356 . S
N298 H304 0.984 . S
N298 H305 0.984 . S
N299 C292 1.356 . S
N299 H302 0.984 . S
N299 H303 0.985 . S
H300 N295 0.984 . S
H301 N295 0.985 . S
H302 N299 0.984 . S
H303 N299 0.985 . S
H304 N298 0.984 . S
H305 N298 0.984 . S
H306 N294 0.984 . S
H307 N294 0.985 . S
C308 C309 1.363 . S
C308 C314 1.379 . S
C308 N316 1.356 . S
C309 C308 1.363 . S
C309 C315 1.363 . S
C310 C311 1.363 . S
C310 C315 1.379 . S
C310 N317 1.356 . S
C311 C310 1.363 . S
C311 C314 1.363 . S
N312 C314 1.356 . S
N312 H324 0.984 . S
N312 H325 0.985 . S
N313 C315 1.356 . S
N313 H318 0.984 . S
N313 H319 0.985 . S
C314 C308 1.379 . S
C314 C311 1.363 . S
C314 N312 1.356 . S
C315 C309 1.363 . S
C315 C310 1.379 . S
C315 N313 1.356 . S
N316 C308 1.356 . S
N316 H322 0.984 . S
N316 H323 0.984 . S
N317 C310 1.356 . S
N317 H320 0.984 . S
N317 H321 0.985 . S
H318 N313 0.984 . S
H319 N313 0.985 . S
H320 N317 0.984 . S
H321 N317 0.985 . S
H322 N316 0.984 . S
H323 N316 0.984 . S
H324 N312 0.984 . S
H325 N312 0.985 . S
C326 C327 1.363 . S
C326 C332 1.379 . S
C326 N334 1.356 . S
C327 C326 1.363 . S
C327 C333 1.363 1_565 S
C328 C329 1.363 1_545 S
C328 C333 1.379 . S
C328 N335 1.356 . S
C329 C328 1.363 1_565 S
C329 C332 1.363 . S
N330 C332 1.356 . S
N330 H342 0.984 . S
N330 H343 0.985 . S
N331 C333 1.356 . S
N331 H336 0.984 . S
N331 H337 0.985 . S
C332 C326 1.379 . S
C332 C329 1.363 . S
C332 N330 1.356 . S
C333 C327 1.363 1_545 S
C333 C328 1.379 . S
C333 N331 1.356 . S
N334 C326 1.356 . S
N334 H340 0.984 . S
N334 H341 0.984 . S
N335 C328 1.356 . S
N335 H338 0.984 . S
N335 H339 0.985 . S
H336 N331 0.984 . S
H337 N331 0.985 . S
H338 N335 0.984 . S
H339 N335 0.985 . S
H340 N334 0.984 . S
H341 N334 0.984 . S
H342 N330 0.984 . S
H343 N330 0.985 . S
C344 C345 1.363 . S
C344 C350 1.379 . S
C344 N352 1.356 . S
C345 C344 1.363 . S
C345 C351 1.363 1_556 S
C346 C347 1.363 1_554 S
C346 C351 1.379 . S
C346 N353 1.356 . S
C347 C346 1.363 1_556 S
C347 C350 1.363 . S
N348 C350 1.356 . S
N348 H360 0.984 . S
N348 H361 0.985 . S
N349 C351 1.356 . S
N349 H354 0.984 . S
N349 H355 0.985 . S
C350 C344 1.379 . S
C350 C347 1.363 . S
C350 N348 1.356 . S
C351 C345 1.363 1_554 S
C351 C346 1.379 . S
C351 N349 1.356 . S
N352 C344 1.356 . S
N352 H358 0.984 . S
N352 H359 0.984 . S
N353 C346 1.356 . S
N353 H356 0.984 . S
N353 H357 0.985 . S
H354 N349 0.984 . S
H355 N349 0.985 . S
H356 N353 0.984 . S
H357 N353 0.985 . S
H358 N352 0.984 . S
H359 N352 0.984 . S
H360 N348 0.984 . S
H361 N348 0.985 . S
C362 C363 1.363 1_554 S
C362 C368 1.379 . S
C362 N370 1.356 . S
C363 C362 1.363 1_556 S
C363 C369 1.363 . S
C364 C365 1.363 . S
C364 C369 1.379 . S
C364 N371 1.356 . S
C365 C364 1.363 . S
C365 C368 1.363 1_556 S
N366 C368 1.356 . S
N366 H378 0.984 . S
N366 H379 0.985 . S
N367 C369 1.356 . S
N367 H372 0.984 . S
N367 H373 0.985 . S
C368 C362 1.379 . S
C368 C365 1.363 1_554 S
C368 N366 1.356 . S
C369 C363 1.363 . S
C369 C364 1.379 . S
C369 N367 1.356 . S
N370 C362 1.356 . S
N370 H376 0.984 . S
N370 H377 0.984 . S
N371 C364 1.356 . S
N371 H374 0.984 . S
N371 H375 0.985 . S
H372 N367 0.984 . S
H373 N367 0.985 . S
H374 N371 0.984 . S
H375 N371 0.985 . S
H376 N370 0.984 . S
H377 N370 0.984 . S
H378 N366 0.984 . S
H379 N366 0.985 . S
C380 C381 1.363 . S
C380 C386 1.379 . S
C380 N388 1.356 . S
C381 C380 1.363 . S
C381 C387 1.363 1_556 S
C382 C383 1.363 1_554 S
C382 C387 1.379 . S
C382 N389 1.356 . S
C383 C382 1.363 1_556 S
C383 C386 1.363 . S
N384 C386 1.356 . S
N384 H396 0.984 . S
N384 H397 0.985 . S
N385 C387 1.356 . S
N385 H390 0.984 . S
N385 H391 0.985 . S
C386 C380 1.379 . S
C386 C383 1.363 . S
C386 N384 1.356 . S
C387 C381 1.363 1_554 S
C387 C382 1.379 . S
C387 N385 1.356 . S
N388 C380 1.356 . S
N388 H394 0.984 . S
N388 H395 0.984 . S
N389 C382 1.356 . S
N389 H392 0.984 . S
N389 H393 0.985 . S
H390 N385 0.984 . S
H391 N385 0.985 . S
H392 N389 0.984 . S
H393 N389 0.985 . S
H394 N388 0.984 . S
H395 N388 0.984 . S
H396 N384 0.984 . S
H397 N384 0.985 . S
C398 C399 1.363 . S
C398 C404 1.379 . S
C398 N406 1.356 . S
C399 C398 1.363 . S
C399 C405 1.363 1_556 S
C400 C401 1.369 . S
C400 C405 1.378 1_556 S
C400 N407 1.352 1_556 S
C401 C400 1.369 . S
C401 C404 1.363 . S
N402 C404 1.356 . S
N402 H414 0.984 . S
N402 H415 0.985 . S
N403 C405 1.356 . S
N403 H408 0.984 . S
N403 H409 0.985 . S
C404 C398 1.379 . S
C404 C401 1.363 . S
C404 N402 1.356 . S
C405 C399 1.363 1_554 S
C405 C400 1.378 1_554 S
C405 N403 1.356 . S
N406 C398 1.356 . S
N406 H412 0.984 . S
N406 H413 0.984 . S
N407 C400 1.352 1_554 S
N407 H410 0.984 . S
N407 H411 0.985 . S
H408 N403 0.984 . S
H409 N403 0.985 . S
H410 N407 0.984 . S
H411 N407 0.985 . S
H412 N406 0.984 . S
H413 N406 0.984 . S
H414 N402 0.984 . S
H415 N402 0.985 . S
C416 C417 1.363 . S
C416 C422 1.379 . S
C416 N424 1.356 . S
C417 C416 1.363 . S
C417 C423 1.363 . S
C418 C419 1.363 . S
C418 C423 1.379 . S
C418 N425 1.356 . S
C419 C418 1.363 . S
C419 C422 1.363 . S
N420 C422 1.356 . S
N420 H432 0.984 . S
N420 H433 0.985 . S
N421 C423 1.356 . S
N421 H426 0.984 . S
N421 H427 0.985 . S
C422 C416 1.379 . S
C422 C419 1.363 . S
C422 N420 1.356 . S
C423 C417 1.363 . S
C423 C418 1.379 . S
C423 N421 1.356 . S
N424 C416 1.356 . S
N424 H430 0.984 . S
N424 H431 0.984 . S
N425 C418 1.356 . S
N425 H428 0.984 . S
N425 H429 0.985 . S
H426 N421 0.984 . S
H427 N421 0.985 . S
H428 N425 0.984 . S
H429 N425 0.985 . S
H430 N424 0.984 . S
H431 N424 0.984 . S
H432 N420 0.984 . S
H433 N420 0.985 . S
C434 C435 1.363 . S
C434 C440 1.379 . S
C434 N442 1.356 . S
C435 C434 1.363 . S
C435 C441 1.363 . S
C436 C437 1.363 . S
C436 C441 1.379 . S
C436 N443 1.356 . S
C437 C436 1.363 . S
C437 C440 1.363 . S
N438 C440 1.356 . S
N438 H450 0.984 . S
N438 H451 0.985 . S
N439 C441 1.356 . S
N439 H444 0.984 . S
N439 H445 0.985 . S
C440 C434 1.379 . S
C440 C437 1.363 . S
C440 N438 1.356 . S
C441 C435 1.363 . S
C441 C436 1.379 . S
C441 N439 1.356 . S
N442 C434 1.356 . S
N442 H448 0.984 . S
N442 H449 0.984 . S
N443 C436 1.356 . S
N443 H446 0.984 . S
N443 H447 0.985 . S
H444 N439 0.984 . S
H445 N439 0.985 . S
H446 N443 0.984 . S
H447 N443 0.985 . S
H448 N442 0.984 . S
H449 N442 0.984 . S
H450 N438 0.984 . S
H451 N438 0.985 . S
C452 C453 1.363 . S
C452 C458 1.379 . S
C452 N460 1.356 . S
C453 C452 1.363 . S
C453 C459 1.363 . S
C454 C455 1.363 . S
C454 C459 1.379 . S
C454 N461 1.356 . S
C455 C454 1.363 . S
C455 C458 1.363 . S
N456 C458 1.356 . S
N456 H468 0.984 . S
N456 H469 0.985 . S
N457 C459 1.356 . S
N457 H462 0.984 . S
N457 H463 0.985 . S
C458 C452 1.379 . S
C458 C455 1.363 . S
C458 N456 1.356 . S
C459 C453 1.363 . S
C459 C454 1.379 . S
C459 N457 1.356 . S
N460 C452 1.356 . S
N460 H466 0.984 . S
N460 H467 0.984 . S
N461 C454 1.356 . S
N461 H464 0.984 . S
N461 H465 0.985 . S
H462 N457 0.984 . S
H463 N457 0.985 . S
H464 N461 0.984 . S
H465 N461 0.985 . S
H466 N460 0.984 . S
H467 N460 0.984 . S
H468 N456 0.984 . S
H469 N456 0.985 . S
C470 C471 1.363 . S
C470 C476 1.379 . S
C470 N478 1.356 . S
C471 C470 1.363 . S
C471 C477 1.363 . S
C472 C473 1.363 . S
C472 C477 1.379 . S
C472 N479 1.356 . S
C473 C472 1.363 . S
C473 C476 1.363 . S
N474 C476 1.356 . S
N474 H486 0.984 . S
N474 H487 0.985 . S
N475 C477 1.356 . S
N475 H480 0.984 . S
N475 H481 0.985 . S
C476 C470 1.379 . S
C476 C473 1.363 . S
C476 N474 1.356 . S
C477 C471 1.363 . S
C477 C472 1.379 . S
C477 N475 1.356 . S
N478 C470 1.356 . S
N478 H484 0.984 . S
N478 H485 0.984 . S
N479 C472 1.356 . S
N479 H482 0.984 . S
N479 H483 0.985 . S
H480 N475 0.984 . S
H481 N475 0.985 . S
H482 N479 0.984 . S
H483 N479 0.985 . S
H484 N478 0.984 . S
H485 N478 0.984 . S
H486 N474 0.984 . S
H487 N474 0.985 . S
C488 C489 1.363 . S
C488 C494 1.379 . S
C488 N496 1.356 . S
C489 C488 1.363 . S
C489 C495 1.363 . S
C490 C491 1.363 . S
C490 C495 1.379 . S
C490 N497 1.356 . S
C491 C490 1.363 . S
C491 C494 1.363 . S
N492 C494 1.356 . S
N492 H504 0.984 . S
N492 H505 0.985 . S
N493 C495 1.356 . S
N493 H498 0.984 . S
N493 H499 0.985 . S
C494 C488 1.379 . S
C494 C491 1.363 . S
C494 N492 1.356 . S
C495 C489 1.363 . S
C495 C490 1.379 . S
C495 N493 1.356 . S
N496 C488 1.356 . S
N496 H502 0.984 . S
N496 H503 0.984 . S
N497 C490 1.356 . S
N497 H500 0.984 . S
N497 H501 0.985 . S
H498 N493 0.984 . S
H499 N493 0.985 . S
H500 N497 0.984 . S
H501 N497 0.985 . S
H502 N496 0.984 . S
H503 N496 0.984 . S
H504 N492 0.984 . S
H505 N492 0.985 . S
C506 C507 1.363 . S
C506 C512 1.379 . S
C506 N514 1.356 . S
C507 C506 1.363 . S
C507 C513 1.363 . S
C508 C509 1.363 . S
C508 C513 1.379 . S
C508 N515 1.356 . S
C509 C508 1.363 . S
C509 C512 1.363 . S
N510 C512 1.356 . S
N510 H522 0.984 . S
N510 H523 0.985 . S
N511 C513 1.356 . S
N511 H516 0.984 . S
N511 H517 0.985 . S
C512 C506 1.379 . S
C512 C509 1.363 . S
C512 N510 1.356 . S
C513 C507 1.363 . S
C513 C508 1.379 . S
C513 N511 1.356 . S
N514 C506 1.356 . S
N514 H520 0.984 . S
N514 H521 0.984 . S
N515 C508 1.356 . S
N515 H518 0.984 . S
N515 H519 0.985 . S
H516 N511 0.984 . S
H517 N511 0.985 . S
H518 N515 0.984 . S
H519 N515 0.985 . S
H520 N514 0.984 . S
H521 N514 0.984 . S
H522 N510 0.984 . S
H523 N510 0.985 . S
C524 C525 1.363 . S
C524 C530 1.379 . S
C524 N532 1.356 . S
C525 C524 1.363 . S
C525 C531 1.363 . S
C526 C527 1.363 . S
C526 C531 1.379 . S
C526 N533 1.356 . S
C527 C526 1.363 . S
C527 C530 1.363 . S
N528 C530 1.356 . S
N528 H540 0.984 . S
N528 H541 0.985 . S
N529 C531 1.356 . S
N529 H534 0.984 . S
N529 H535 0.985 . S
C530 C524 1.379 . S
C530 C527 1.363 . S
C530 N528 1.356 . S
C531 C525 1.363 . S
C531 C526 1.379 . S
C531 N529 1.356 . S
N532 C524 1.356 . S
N532 H538 0.984 . S
N532 H539 0.984 . S
N533 C526 1.356 . S
N533 H536 0.984 . S
N533 H537 0.985 . S
H534 N529 0.984 . S
H535 N529 0.985 . S
H536 N533 0.984 . S
H537 N533 0.985 . S
H538 N532 0.984 . S
H539 N532 0.984 . S
H540 N528 0.984 . S
H541 N528 0.985 . S
C542 C543 1.363 . S
C542 C548 1.379 . S
C542 N550 1.356 . S
C543 C542 1.363 . S
C543 C549 1.363 . S
C544 C545 1.363 . S
C544 C549 1.379 . S
C544 N551 1.356 . S
C545 C544 1.363 . S
C545 C548 1.363 . S
N546 C548 1.356 . S
N546 H558 0.984 . S
N546 H559 0.985 . S
N547 C549 1.356 . S
N547 H552 0.984 . S
N547 H553 0.985 . S
C548 C542 1.379 . S
C548 C545 1.363 . S
C548 N546 1.356 . S
C549 C543 1.363 . S
C549 C544 1.379 . S
C549 N547 1.356 . S
N550 C542 1.356 . S
N550 H556 0.984 . S
N550 H557 0.984 . S
N551 C544 1.356 . S
N551 H554 0.984 . S
N551 H555 0.985 . S
H552 N547 0.984 . S
H553 N547 0.985 . S
H554 N551 0.984 . S
H555 N551 0.985 . S
H556 N550 0.984 . S
H557 N550 0.984 . S
H558 N546 0.984 . S
H559 N546 0.985 . S
C560 C561 1.363 . S
C560 C566 1.379 . S
C560 N568 1.356 . S
C561 C560 1.363 . S
C561 C567 1.363 . S
C562 C563 1.363 . S
C562 C567 1.379 . S
C562 N569 1.356 . S
C563 C562 1.363 . S
C563 C566 1.363 . S
N564 C566 1.356 . S
N564 H576 0.984 . S
N564 H577 0.985 . S
N565 C567 1.356 . S
N565 H570 0.984 . S
N565 H571 0.985 . S
C566 C560 1.379 . S
C566 C563 1.363 . S
C566 N564 1.356 . S
C567 C561 1.363 . S
C567 C562 1.379 . S
C567 N565 1.356 . S
N568 C560 1.356 . S
N568 H574 0.984 . S
N568 H575 0.984 . S
N569 C562 1.356 . S
N569 H572 0.984 . S
N569 H573 0.985 . S
H570 N565 0.984 . S
H571 N565 0.985 . S
H572 N569 0.984 . S
H573 N569 0.985 . S
H574 N568 0.984 . S
H575 N568 0.984 . S
H576 N564 0.984 . S
H577 N564 0.985 . S
C578 C579 1.363 . S
C578 C584 1.379 . S
C578 N586 1.356 . S
C579 C578 1.363 . S
C579 C585 1.363 . S
C580 C581 1.363 . S
C580 C585 1.379 . S
C580 N587 1.356 . S
C581 C580 1.363 . S
C581 C584 1.363 . S
N582 C584 1.356 . S
N582 H594 0.984 . S
N582 H595 0.985 . S
N583 C585 1.356 . S
N583 H588 0.984 . S
N583 H589 0.985 . S
C584 C578 1.379 . S
C584 C581 1.363 . S
C584 N582 1.356 . S
C585 C579 1.363 . S
C585 C580 1.379 . S
C585 N583 1.356 . S
N586 C578 1.356 . S
N586 H592 0.984 . S
N586 H593 0.984 . S
N587 C580 1.356 . S
N587 H590 0.984 . S
N587 H591 0.985 . S
H588 N583 0.984 . S
H589 N583 0.985 . S
H590 N587 0.984 . S
H591 N587 0.985 . S
H592 N586 0.984 . S
H593 N586 0.984 . S
H594 N582 0.984 . S
H595 N582 0.985 . S
C596 C597 1.363 . S
C596 C602 1.379 . S
C596 N604 1.356 . S
C597 C596 1.363 . S
C597 C603 1.363 . S
C598 C599 1.363 . S
C598 C603 1.379 . S
C598 N605 1.356 . S
C599 C598 1.363 . S
C599 C602 1.363 . S
N600 C602 1.356 . S
N600 H612 0.984 . S
N600 H613 0.985 . S
N601 C603 1.356 . S
N601 H606 0.984 . S
N601 H607 0.985 . S
C602 C596 1.379 . S
C602 C599 1.363 . S
C602 N600 1.356 . S
C603 C597 1.363 . S
C603 C598 1.379 . S
C603 N601 1.356 . S
N604 C596 1.356 . S
N604 H610 0.984 . S
N604 H611 0.984 . S
N605 C598 1.356 . S
N605 H608 0.984 . S
N605 H609 0.985 . S
H606 N601 0.984 . S
H607 N601 0.985 . S
H608 N605 0.984 . S
H609 N605 0.985 . S
H610 N604 0.984 . S
H611 N604 0.984 . S
H612 N600 0.984 . S
H613 N600 0.985 . S
C614 C615 1.363 . S
C614 C620 1.379 . S
C614 N622 1.356 . S
C615 C614 1.363 . S
C615 C621 1.363 . S
C616 C617 1.363 . S
C616 C621 1.379 . S
C616 N623 1.356 . S
C617 C616 1.363 . S
C617 C620 1.363 . S
N618 C620 1.356 . S
N618 H630 0.984 . S
N618 H631 0.985 . S
N619 C621 1.356 . S
N619 H624 0.984 . S
N619 H625 0.985 . S
C620 C614 1.379 . S
C620 C617 1.363 . S
C620 N618 1.356 . S
C621 C615 1.363 . S
C621 C616 1.379 . S
C621 N619 1.356 . S
N622 C614 1.356 . S
N622 H628 0.984 . S
N622 H629 0.984 . S
N623 C616 1.356 . S
N623 H626 0.984 . S
N623 H627 0.985 . S
H624 N619 0.984 . S
H625 N619 0.985 . S
H626 N623 0.984 . S
H627 N623 0.985 . S
H628 N622 0.984 . S
H629 N622 0.984 . S
H630 N618 0.984 . S
H631 N618 0.985 . S
C201 C5 1.189 1_455 S
C203 N59 1.410 . S
C219 C45 1.824 1_545 S
C221 C123 1.782 . S
C237 N14 1.657 . S
C239 C93 1.930 1_455 S
C255 C132 1.391 . S
C257 C13 1.266 . S
C273 N9 1.413 . S
C275 C55 1.191 1_455 S
C291 C23 1.783 . S
C293 C145 1.825 1_545 S
C309 N64 1.657 . S
C311 C43 1.928 1_455 S
C327 C113 1.268 . S
C329 C32 1.394 . S
C345 C190 0.998 . S
C347 N25 1.039 . S
C363 C192 1.947 . S
C365 C11 2.032 . S
C381 C161 2.032 . S
C383 C42 1.948 . S
C399 C40 0.998 . S
C401 N175 1.044 . S
C417 C173 1.783 . S
C419 C95 1.827 . S
C435 C63 1.268 . S
C437 C182 1.391 . S
C453 C73 1.783 . S
C455 C195 1.822 . S
C471 C163 1.268 . S
C473 C82 1.391 . S
C489 C140 0.998 . S
C491 N75 1.041 . S
C507 C61 2.032 . S
C509 C142 1.942 . S
C525 C92 1.945 . S
C527 C111 2.035 . S
C543 N125 1.041 . S
C545 C90 0.997 . S
C561 N159 1.413 . S
C563 C105 1.190 . S
C579 N114 1.657 . S
C581 C193 1.932 . S
C597 C155 1.189 . S
C599 N109 1.413 . S
C615 C143 1.929 . S
C617 N164 1.654 . S
