# Generated by pormake.
# Topology xbj, (5)-cn, num edge types: 1
# Building blocks:
#     Node 0, Type 0, BuildingBlock: BEQFEK_clean_sbu_0, # of connection points: 5
#     Node 1, Type 0, BuildingBlock: BEQFEK_clean_sbu_0, # of connection points: 5
#     Node 2, Type 0, BuildingBlock: BEQFEK_clean_sbu_0, # of connection points: 5
#     Node 3, Type 0, BuildingBlock: BEQFEK_clean_sbu_0, # of connection points: 5
#     Node 4, Type 0, BuildingBlock: BEQFEK_clean_sbu_0, # of connection points: 5
#     Node 5, Type 0, BuildingBlock: BEQFEK_clean_sbu_0, # of connection points: 5
#     Node 6, Type 0, BuildingBlock: BEQFEK_clean_sbu_0, # of connection points: 5
#     Node 7, Type 0, BuildingBlock: BEQFEK_clean_sbu_0, # of connection points: 5
#     Edge 8, Type (0, 0), BuildingBlock: TEMPAE_clean_linker_10, # of connection points: 2
#     Edge 9, Type (0, 0), BuildingBlock: TEMPAE_clean_linker_10, # of connection points: 2
#     Edge 10, Type (0, 0), BuildingBlock: TEMPAE_clean_linker_10, # of connection points: 2
#     Edge 11, Type (0, 0), BuildingBlock: TEMPAE_clean_linker_10, # of connection points: 2
#     Edge 12, Type (0, 0), BuildingBlock: TEMPAE_clean_linker_10, # of connection points: 2
#     Edge 13, Type (0, 0), BuildingBlock: TEMPAE_clean_linker_10, # of connection points: 2
#     Edge 14, Type (0, 0), BuildingBlock: TEMPAE_clean_linker_10, # of connection points: 2
#     Edge 15, Type (0, 0), BuildingBlock: TEMPAE_clean_linker_10, # of connection points: 2
#     Edge 16, Type (0, 0), BuildingBlock: TEMPAE_clean_linker_10, # of connection points: 2
#     Edge 17, Type (0, 0), BuildingBlock: TEMPAE_clean_linker_10, # of connection points: 2
#     Edge 18, Type (0, 0), BuildingBlock: TEMPAE_clean_linker_10, # of connection points: 2
#     Edge 19, Type (0, 0), BuildingBlock: TEMPAE_clean_linker_10, # of connection points: 2
#     Edge 20, Type (0, 0), BuildingBlock: TEMPAE_clean_linker_10, # of connection points: 2
#     Edge 21, Type (0, 0), BuildingBlock: TEMPAE_clean_linker_10, # of connection points: 2
#     Edge 22, Type (0, 0), BuildingBlock: TEMPAE_clean_linker_10, # of connection points: 2
#     Edge 23, Type (0, 0), BuildingBlock: TEMPAE_clean_linker_10, # of connection points: 2
#     Edge 24, Type (0, 0), BuildingBlock: TEMPAE_clean_linker_10, # of connection points: 2
#     Edge 25, Type (0, 0), BuildingBlock: TEMPAE_clean_linker_10, # of connection points: 2
#     Edge 26, Type (0, 0), BuildingBlock: TEMPAE_clean_linker_10, # of connection points: 2
#     Edge 27, Type (0, 0), BuildingBlock: TEMPAE_clean_linker_10, # of connection points: 2
# Relax obj value: 0.045
# Max RMSD: 0.114
# Mean RMSD: 0.111
data_MOF--net-xbj--node1-BEQFEK_clean_sbu_0--edge1-TEMPAE_clean_linker_10
_symmetry_space_group_name_H-M    P1
_symmetry_Int_Tables_number       1
_symmetry_cell_setting            triclinic
loop_
_symmetry_equiv_pos_as_xyz
'x, y, z'
_cell_length_a     19.832095
_cell_length_b     19.788945
_cell_length_c     112.27619
_cell_angle_alpha  91.181075
_cell_angle_beta   91.225549
_cell_angle_gamma 90.039685
loop_
_atom_site_label
_atom_site_type_symbol
_atom_site_fract_x
_atom_site_fract_y
_atom_site_fract_z
_atom_type_partial_charge
Co0 Co 0.26745 0.79013 0.0424 0.0
Co1 Co 0.10884 0.80317 0.04243 0.0
C2 C 0.18828 0.91181 0.03293 0.0
O3 O 0.2408 0.87619 0.0349 0.0
O4 O 0.13012 0.89274 0.03617 0.0
C5 C 0.40034 0.84055 0.04869 0.0
O6 O 0.36772 0.89435 0.05248 0.0
C7 C 0.96074 0.82838 0.04487 0.0
C8 C 0.92757 0.72435 0.04859 0.0
C9 C 0.90429 0.7898 0.0474 0.0
N10 N 0.01483 0.78723 0.04467 0.0
N11 N 0.99429 0.72518 0.04679 0.0
C12 C 0.96429 0.90323 0.04344 0.0
H13 H 0.96051 0.91469 0.03382 0.0
H14 H 0.01336 0.92283 0.04697 0.0
H15 H 0.92234 0.92894 0.0481 0.0
C16 C 0.24479 0.76364 0.0679 0.0
N17 N 0.22275 0.77852 0.05683 0.0
N18 N 0.15694 0.78687 0.05688 0.0
C19 C 0.13519 0.77921 0.06804 0.0
C20 C 0.18986 0.76325 0.07535 0.0
C21 C 0.3165 0.74754 0.07111 0.0
H22 H 0.34047 0.7199 0.06362 0.0
H23 H 0.34455 0.79545 0.07278 0.0
H24 H 0.31981 0.71678 0.07925 0.0
O25 O 0.2434 0.718 0.03081 0.0
O26 O 0.13334 0.73826 0.02961 0.0
H27 H 0.03388 0.74571 0.07031 0.0
H28 H 0.06275 0.80641 0.08144 0.0
C29 C 0.06435 0.79221 0.07183 0.0
H30 H 0.04179 0.83357 0.06658 0.0
H31 H 0.02628 0.68341 0.04721 0.0
O32 O 0.3671 0.79022 0.04448 0.0
C33 C 0.18562 0.70758 0.026 0.0
Co34 Co 0.57858 0.75926 0.29302 0.0
Co35 Co 0.60962 0.602 0.29293 0.0
C36 C 0.48121 0.66028 0.28252 0.0
O37 O 0.49446 0.72075 0.28598 0.0
O38 O 0.52163 0.61168 0.2846 0.0
C39 C 0.52585 0.89688 0.29858 0.0
O40 O 0.47135 0.86882 0.30274 0.0
C41 C 0.58588 0.4553 0.29561 0.0
C42 C 0.68953 0.41813 0.29884 0.0
C43 C 0.62297 0.39707 0.2978 0.0
N44 N 0.62868 0.50811 0.29535 0.0
N45 N 0.69055 0.48535 0.29723 0.0
C46 C 0.51083 0.46186 0.29465 0.0
H47 H 0.4947 0.51044 0.29879 0.0
H48 H 0.48535 0.41939 0.29904 0.0
H49 H 0.49531 0.46187 0.28509 0.0
C50 C 0.6111 0.74277 0.31868 0.0
N51 N 0.60271 0.71756 0.30752 0.0
N52 N 0.61225 0.6517 0.30759 0.0
C53 C 0.62506 0.63269 0.31886 0.0
C54 C 0.62523 0.68981 0.32625 0.0
C55 C 0.60971 0.8166 0.32185 0.0
H56 H 0.63416 0.8458 0.31481 0.0
H57 H 0.55653 0.83338 0.32248 0.0
H58 H 0.6362 0.82744 0.33048 0.0
O59 O 0.64779 0.74406 0.28106 0.0
O60 O 0.6776 0.63606 0.2818 0.0
H61 H 0.68315 0.54219 0.32023 0.0
H62 H 0.62551 0.55549 0.33229 0.0
C63 C 0.63228 0.56077 0.32257 0.0
H64 H 0.59408 0.52896 0.31779 0.0
H65 H 0.73349 0.51591 0.29752 0.0
O66 O 0.57285 0.85963 0.2946 0.0
C67 C 0.68344 0.69469 0.27747 0.0
Co68 Co 0.73352 0.32197 0.54177 0.0
Co69 Co 0.57687 0.28948 0.53997 0.0
C70 C 0.63496 0.42544 0.53398 0.0
O71 O 0.69506 0.40973 0.53708 0.0
O72 O 0.5863 0.3837 0.53471 0.0
C73 C 0.87104 0.3522 0.53718 0.0
O74 O 0.84463 0.37371 0.52711 0.0
C75 C 0.42758 0.30315 0.54059 0.0
C76 C 0.39694 0.19663 0.54252 0.0
C77 C 0.37143 0.26152 0.54161 0.0
N78 N 0.48347 0.26452 0.54108 0.0
N79 N 0.46459 0.20093 0.54218 0.0
C80 C 0.42855 0.37698 0.53796 0.0
H81 H 0.45996 0.38517 0.53009 0.0
H82 H 0.4519 0.40519 0.54564 0.0
H83 H 0.37754 0.39716 0.536 0.0
C84 C 0.71377 0.27097 0.56595 0.0
N85 N 0.68964 0.28679 0.55507 0.0
N86 N 0.62414 0.2759 0.55456 0.0
C87 C 0.60427 0.25408 0.56521 0.0
C88 C 0.66049 0.24949 0.57272 0.0
C89 C 0.78687 0.27404 0.56952 0.0
H90 H 0.81704 0.24748 0.56267 0.0
H91 H 0.80344 0.32762 0.56997 0.0
H92 H 0.7967 0.25041 0.57826 0.0
O93 O 0.72339 0.2613 0.52774 0.0
O94 O 0.61506 0.23179 0.52723 0.0
H95 H 0.51624 0.19188 0.56532 0.0
H96 H 0.52577 0.24682 0.57823 0.0
C97 C 0.53229 0.24302 0.56845 0.0
H98 H 0.4995 0.28107 0.56413 0.0
H99 H 0.49803 0.16032 0.54263 0.0
O100 O 0.83207 0.3302 0.54506 0.0
C101 C 0.67414 0.22848 0.52305 0.0
Co102 Co 0.06887 0.29137 0.78771 0.0
Co103 Co 0.08492 0.13309 0.7889 0.0
C104 C 0.95732 0.196 0.78027 0.0
O105 O 0.97872 0.25589 0.78253 0.0
O106 O 0.99366 0.14431 0.7823 0.0
C107 C 0.02157 0.42697 0.79406 0.0
O108 O 0.97076 0.39693 0.7991 0.0
C109 C 0.0636 0.98611 0.792 0.0
C110 C 0.16714 0.95346 0.79672 0.0
C111 C 0.10197 0.92969 0.79486 0.0
N112 N 0.1045 0.04045 0.7921 0.0
N113 N 0.16625 0.02045 0.79493 0.0
C114 C 0.98881 0.98958 0.79006 0.0
H115 H 0.96894 0.03686 0.79412 0.0
H116 H 0.9632 0.9457 0.79398 0.0
H117 H 0.97731 0.99011 0.78034 0.0
C118 C 0.11546 0.27967 0.81286 0.0
N119 N 0.09938 0.2524 0.80209 0.0
N120 N 0.09655 0.18645 0.80291 0.0
C121 C 0.10472 0.16956 0.81438 0.0
C122 C 0.11852 0.22809 0.82119 0.0
C123 C 0.13202 0.35302 0.81473 0.0
H124 H 0.15249 0.37401 0.80647 0.0
H125 H 0.08546 0.38122 0.81695 0.0
H126 H 0.16991 0.36035 0.82206 0.0
O127 O 0.12876 0.27008 0.77462 0.0
O128 O 0.14736 0.15982 0.77613 0.0
H129 H 0.13583 0.06949 0.81888 0.0
H130 H 0.06797 0.10257 0.8278 0.0
C131 C 0.08911 0.10029 0.81874 0.0
H132 H 0.05161 0.07504 0.81269 0.0
H133 H 0.20784 0.05273 0.79566 0.0
O134 O 0.06656 0.39136 0.78905 0.0
C135 C 0.15658 0.21586 0.77104 0.0
Co136 Co 0.08705 0.26971 0.94533 0.0
Co137 Co 0.24382 0.29266 0.94395 0.0
C138 C 0.16482 0.39622 0.95495 0.0
O139 O 0.11381 0.35728 0.95336 0.0
O140 O 0.22249 0.38102 0.95087 0.0
C141 C 0.95419 0.31906 0.94 0.0
O142 O 0.98749 0.37309 0.93688 0.0
C143 C 0.39272 0.3164 0.94192 0.0
C144 C 0.42087 0.21952 0.93322 0.0
C145 C 0.4474 0.28019 0.93751 0.0
N146 N 0.33673 0.27839 0.94028 0.0
N147 N 0.35425 0.22061 0.93512 0.0
C148 C 0.39274 0.3868 0.94702 0.0
H149 H 0.39574 0.38457 0.95689 0.0
H150 H 0.34521 0.41284 0.94449 0.0
H151 H 0.4364 0.41607 0.94387 0.0
C152 C 0.10406 0.2443 0.91953 0.0
N153 N 0.1284 0.25953 0.93052 0.0
N154 N 0.19173 0.27761 0.92987 0.0
C155 C 0.20874 0.28008 0.91838 0.0
C156 C 0.15413 0.25745 0.91127 0.0
C157 C 0.03564 0.21386 0.91737 0.0
H158 H 0.01919 0.18727 0.92541 0.0
H159 H 0.99873 0.2546 0.91548 0.0
H160 H 0.03602 0.17743 0.90972 0.0
O161 O 0.11574 0.19888 0.95608 0.0
O162 O 0.22423 0.22738 0.95678 0.0
H163 H 0.31184 0.27375 0.91313 0.0
H164 H 0.26418 0.34021 0.90605 0.0
C165 C 0.27256 0.31287 0.91448 0.0
H166 H 0.29132 0.34929 0.92144 0.0
H167 H 0.32039 0.18184 0.93284 0.0
O168 O 0.98701 0.26805 0.94366 0.0
C169 C 0.17481 0.19324 0.96053 0.0
Co170 Co 0.06998 0.63228 0.19421 0.0
Co171 Co 0.10712 0.78763 0.19735 0.0
C172 C 0.97916 0.72562 0.20674 0.0
O173 O 0.98874 0.66764 0.20194 0.0
O174 O 0.02102 0.77392 0.20565 0.0
C175 C 0.03076 0.49498 0.19722 0.0
O176 O 0.00302 0.52087 0.20681 0.0
C177 C 0.08816 0.93613 0.19488 0.0
C178 C 0.19146 0.9726 0.199 0.0
C179 C 0.12697 0.99484 0.19611 0.0
N180 N 0.12821 0.88237 0.19692 0.0
N181 N 0.18987 0.90475 0.19933 0.0
C182 C 0.01389 0.93089 0.19239 0.0
H183 H 0.99441 0.88088 0.19491 0.0
H184 H 0.00399 0.93668 0.18271 0.0
H185 H 0.98663 0.97143 0.19728 0.0
C186 C 0.09694 0.66375 0.16918 0.0
N187 N 0.09141 0.68264 0.18069 0.0
N188 N 0.10646 0.74724 0.18193 0.0
C189 C 0.12259 0.77145 0.17124 0.0
C190 C 0.11703 0.71934 0.16281 0.0
C191 C 0.08182 0.59405 0.16442 0.0
H192 H 0.03447 0.57542 0.1683 0.0
H193 H 0.07666 0.59292 0.15456 0.0
H194 H 0.12319 0.5596 0.16717 0.0
O195 O 0.1426 0.63761 0.20651 0.0
O196 O 0.17619 0.74486 0.20752 0.0
H197 H 0.18832 0.8538 0.17605 0.0
H198 H 0.16863 0.84743 0.16033 0.0
C199 C 0.14805 0.84159 0.16936 0.0
H200 H 0.1062 0.87801 0.17062 0.0
H201 H 0.23083 0.87363 0.20134 0.0
O202 O 0.06009 0.53428 0.19015 0.0
C203 C 0.18097 0.68391 0.21084 0.0
Co204 Co 0.60863 0.80997 0.44589 0.0
Co205 Co 0.76504 0.77818 0.44807 0.0
C206 C 0.70509 0.91509 0.45416 0.0
O207 O 0.64544 0.89913 0.4507 0.0
O208 O 0.75352 0.87284 0.45369 0.0
C209 C 0.47043 0.85044 0.4486 0.0
O210 O 0.49566 0.88845 0.45734 0.0
C211 C 0.91373 0.79235 0.44495 0.0
C212 C 0.94728 0.69016 0.44993 0.0
C213 C 0.97111 0.75259 0.44655 0.0
N214 N 0.85895 0.75482 0.4473 0.0
N215 N 0.87964 0.69372 0.45018 0.0
C216 C 0.9112 0.86557 0.44189 0.0
H217 H 0.86217 0.88825 0.44418 0.0
H218 H 0.91763 0.87048 0.43216 0.0
H219 H 0.95258 0.89378 0.44659 0.0
C220 C 0.63187 0.75989 0.42147 0.0
N221 N 0.65432 0.77382 0.43264 0.0
N222 N 0.71962 0.76217 0.43334 0.0
C223 C 0.74091 0.74086 0.42259 0.0
C224 C 0.6859 0.73837 0.41477 0.0
C225 C 0.56103 0.77219 0.41719 0.0
H226 H 0.54587 0.82441 0.41972 0.0
H227 H 0.5554 0.76519 0.40739 0.0
H228 H 0.52668 0.73683 0.42163 0.0
O229 O 0.6184 0.75223 0.45992 0.0
O230 O 0.72633 0.72185 0.46053 0.0
H231 H 0.81759 0.70408 0.41062 0.0
H232 H 0.8443 0.76935 0.42124 0.0
C233 C 0.81247 0.7236 0.41989 0.0
H234 H 0.83094 0.68484 0.42616 0.0
H235 H 0.84749 0.65471 0.45256 0.0
O236 O 0.51013 0.81485 0.44233 0.0
C237 C 0.6671 0.71985 0.46464 0.0
Co238 Co 0.55403 0.11876 0.69253 0.0
Co239 Co 0.57976 0.27674 0.69236 0.0
C240 C 0.44973 0.21507 0.70053 0.0
O241 O 0.46655 0.15479 0.69768 0.0
O242 O 0.48896 0.26507 0.69898 0.0
C243 C 0.50254 0.9819 0.68699 0.0
O244 O 0.44737 0.01079 0.68289 0.0
C245 C 0.55541 0.42278 0.68877 0.0
C246 C 0.65977 0.46131 0.68798 0.0
C247 C 0.59293 0.48142 0.68745 0.0
N248 N 0.59826 0.37054 0.69 0.0
N249 N 0.66052 0.39412 0.68959 0.0
C250 C 0.48032 0.41559 0.68829 0.0
H251 H 0.46602 0.36671 0.68392 0.0
H252 H 0.45645 0.4578 0.6834 0.0
H253 H 0.46134 0.41578 0.69752 0.0
C254 C 0.5915 0.13342 0.66724 0.0
N255 N 0.58152 0.15922 0.67827 0.0
N256 N 0.58972 0.22528 0.67813 0.0
C257 C 0.60407 0.24364 0.66699 0.0
C258 C 0.60576 0.18613 0.65977 0.0
C259 C 0.58314 0.06042 0.66381 0.0
H260 H 0.52909 0.04662 0.6643 0.0
H261 H 0.6004 0.04967 0.65464 0.0
H262 H 0.61195 0.02882 0.67018 0.0
O263 O 0.61769 0.13809 0.70592 0.0
O264 O 0.64399 0.24695 0.70475 0.0
H265 H 0.62413 0.31877 0.65366 0.0
H266 H 0.57319 0.34704 0.66598 0.0
C267 C 0.61646 0.31492 0.66338 0.0
H268 H 0.66232 0.33433 0.66811 0.0
H269 H 0.70363 0.36419 0.69038 0.0
O270 O 0.55094 0.01843 0.69103 0.0
C271 C 0.65022 0.18996 0.70966 0.0
C272 C 0.14023 0.70373 0.09234 0.0
C273 C 0.18833 0.74877 0.08817 0.0
C274 C 0.13229 0.69493 0.10456 0.0
C275 C 0.17384 0.7319 0.11277 0.0
C276 C 0.22475 0.77507 0.10857 0.0
C277 C 0.23136 0.78308 0.09627 0.0
C278 C 0.07756 0.64832 0.10869 0.0
C279 C 0.27015 0.81501 0.11708 0.0
C280 C 0.10027 0.77087 0.14298 0.0
C281 C 0.13166 0.72215 0.15002 0.0
C282 C 0.1141 0.77491 0.13083 0.0
C283 C 0.16051 0.72908 0.12569 0.0
C284 C 0.19249 0.67981 0.13281 0.0
C285 C 0.1775 0.67686 0.14494 0.0
C286 C 0.07865 0.82783 0.12349 0.0
C287 C 0.24231 0.6303 0.12761 0.0
H288 H 0.10767 0.67655 0.08601 0.0
H289 H 0.26829 0.81818 0.09299 0.0
H290 H 0.09862 0.61175 0.11513 0.0
H291 H 0.03852 0.67824 0.11337 0.0
H292 H 0.05285 0.61975 0.10117 0.0
H293 H 0.31102 0.84142 0.11241 0.0
H294 H 0.23993 0.85328 0.12197 0.0
H295 H 0.29322 0.78128 0.1238 0.0
H296 H 0.0645 0.80551 0.14697 0.0
H297 H 0.20207 0.6396 0.15049 0.0
H298 H 0.04833 0.80307 0.11622 0.0
H299 H 0.11629 0.86065 0.11927 0.0
H300 H 0.04472 0.86017 0.12891 0.0
H301 H 0.21743 0.59935 0.12043 0.0
H302 H 0.26363 0.59589 0.13442 0.0
H303 H 0.28433 0.65799 0.12353 0.0
C304 C 0.72052 0.76654 0.39437 0.0
C305 C 0.68547 0.72413 0.40188 0.0
C306 C 0.71437 0.75845 0.38197 0.0
C307 C 0.6729 0.70612 0.37709 0.0
C308 C 0.63975 0.66133 0.38471 0.0
C309 C 0.64597 0.67136 0.39707 0.0
C310 C 0.74971 0.8077 0.37411 0.0
C311 C 0.59604 0.60431 0.37982 0.0
C312 C 0.59402 0.73099 0.3465 0.0
C313 C 0.63736 0.69343 0.33926 0.0
C314 C 0.60531 0.7358 0.35884 0.0
C315 C 0.66059 0.7011 0.36404 0.0
C316 C 0.70403 0.6623 0.35678 0.0
C317 C 0.69222 0.65948 0.34442 0.0
C318 C 0.55829 0.77823 0.3663 0.0
C319 C 0.76287 0.62393 0.36206 0.0
H320 H 0.75057 0.80764 0.39821 0.0
H321 H 0.61904 0.63879 0.403 0.0
H322 H 0.78049 0.78013 0.36747 0.0
H323 H 0.71169 0.83759 0.3691 0.0
H324 H 0.78299 0.84315 0.37931 0.0
H325 H 0.57884 0.57048 0.38692 0.0
H326 H 0.55099 0.6253 0.37519 0.0
H327 H 0.62401 0.57378 0.37316 0.0
H328 H 0.55108 0.75647 0.34249 0.0
H329 H 0.72613 0.63102 0.33878 0.0
H330 H 0.58732 0.8179 0.37131 0.0
H331 H 0.53362 0.74628 0.37295 0.0
H332 H 0.51848 0.80303 0.36082 0.0
H333 H 0.79859 0.65961 0.36661 0.0
H334 H 0.79054 0.5944 0.35521 0.0
H335 H 0.74486 0.58877 0.36888 0.0
C336 C 0.62966 0.17069 0.58871 0.0
C337 C 0.66171 0.23009 0.58532 0.0
C338 C 0.62388 0.15526 0.60077 0.0
C339 C 0.65093 0.20049 0.60955 0.0
C340 C 0.68617 0.25899 0.60612 0.0
C341 C 0.69094 0.27321 0.594 0.0
C342 C 0.58608 0.09242 0.60411 0.0
C343 C 0.71578 0.30833 0.61524 0.0
C344 C 0.56806 0.21677 0.63945 0.0
C345 C 0.61429 0.18338 0.64681 0.0
C346 C 0.57844 0.22078 0.62721 0.0
C347 C 0.63659 0.19065 0.62229 0.0
C348 C 0.68224 0.15467 0.62966 0.0
C349 C 0.67042 0.15141 0.64192 0.0
C350 C 0.52842 0.25927 0.61961 0.0
C351 C 0.74463 0.12193 0.6247 0.0
H352 H 0.60761 0.1372 0.58192 0.0
H353 H 0.71517 0.31946 0.59132 0.0
H354 H 0.61578 0.06327 0.61072 0.0
H355 H 0.53799 0.10698 0.60833 0.0
H356 H 0.57436 0.05911 0.59625 0.0
H357 H 0.74682 0.34789 0.61111 0.0
H358 H 0.67451 0.33344 0.62017 0.0
H359 H 0.74759 0.28136 0.62186 0.0
H360 H 0.52456 0.24111 0.64336 0.0
H361 H 0.70603 0.1258 0.64773 0.0
H362 H 0.51041 0.22718 0.61197 0.0
H363 H 0.55332 0.3042 0.6159 0.0
H364 H 0.48406 0.27653 0.62473 0.0
H365 H 0.73114 0.08889 0.6169 0.0
H366 H 0.77202 0.09134 0.63143 0.0
H367 H 0.77925 0.1615 0.62154 0.0
C368 C 0.08891 0.2571 0.89174 0.0
C369 C 0.15045 0.25087 0.898 0.0
C370 C 0.0849 0.24879 0.87933 0.0
C371 C 0.14507 0.24272 0.87278 0.0
C372 C 0.20785 0.23962 0.87901 0.0
C373 C 0.20903 0.23918 0.89148 0.0
C374 C 0.0156 0.24694 0.87347 0.0
C375 C 0.27464 0.23717 0.87279 0.0
C376 C 0.15723 0.17975 0.84068 0.0
C377 C 0.12947 0.23379 0.83435 0.0
C378 C 0.15949 0.18037 0.85316 0.0
C379 C 0.14211 0.24029 0.85952 0.0
C380 C 0.1204 0.29761 0.85311 0.0
C381 C 0.11038 0.2921 0.84074 0.0
C382 C 0.17969 0.11585 0.85925 0.0
C383 C 0.10668 0.3652 0.85907 0.0
H384 H 0.04319 0.26858 0.89642 0.0
H385 H 0.25667 0.23053 0.89603 0.0
H386 H 0.99576 0.29917 0.87289 0.0
H387 H 0.01533 0.22327 0.86442 0.0
H388 H 0.98009 0.2184 0.87901 0.0
H389 H 0.2942 0.18468 0.87285 0.0
H390 H 0.27128 0.25452 0.86347 0.0
H391 H 0.31239 0.26917 0.87772 0.0
H392 H 0.17579 0.13563 0.83596 0.0
H393 H 0.08694 0.33386 0.83621 0.0
H394 H 0.16325 0.11406 0.86862 0.0
H395 H 0.23531 0.11038 0.85904 0.0
H396 H 0.1579 0.07138 0.85433 0.0
H397 H 0.05143 0.37243 0.85976 0.0
H398 H 0.12561 0.40673 0.85353 0.0
H399 H 0.13047 0.37042 0.86807 0.0
C400 C 0.13792 0.68605 0.00571 0.0
C401 C 0.1799 0.66521 0.01514 0.0
C402 C 0.1341 0.64891 -0.00503 0.0
C403 C 0.17137 0.58835 -0.00616 0.0
C404 C 0.21342 0.56674 0.00339 0.0
C405 C 0.21817 0.60629 0.01388 0.0
C406 C 0.09054 0.67459 0.98483 0.0
C407 C 0.25243 0.50134 0.0026 0.0
C408 C 0.11009 0.45177 0.97224 0.0
C409 C 0.15963 0.45337 0.96351 0.0
C410 C 0.11232 0.49674 0.98201 0.0
C411 C 0.16416 0.54578 0.98288 0.0
C412 C 0.21129 0.55107 0.97365 0.0
C413 C 0.20908 0.50402 0.96413 0.0
C414 C 0.06189 0.48873 0.99179 0.0
C415 C 0.26577 0.60442 0.97409 0.0
H416 H 0.10933 0.7325 0.00663 0.0
H417 H 0.25072 0.59055 0.0212 0.0
H418 H 0.1208 0.6786 0.97668 0.0
H419 H 0.04902 0.63837 0.98277 0.0
H420 H 0.0682 0.72481 0.98692 0.0
H421 H 0.28194 0.49133 0.0109 0.0
H422 H 0.21718 0.45852 0.00084 0.0
H423 H 0.28759 0.50266 -0.00494 0.0
H424 H 0.07197 0.41244 0.97187 0.0
H425 H 0.24726 0.50559 0.95737 0.0
H426 H 0.03644 0.53747 -0.00627 0.0
H427 H 0.08856 0.47344 9e-05 0.0
H428 H 0.02278 0.45016 0.98946 0.0
H429 H 0.24399 0.65472 0.97625 0.0
H430 H 0.29257 0.60736 0.96553 0.0
H431 H 0.30322 0.59276 0.98123 0.0
C432 C 0.7086 0.75367 0.25876 0.0
C433 C 0.72649 0.70462 0.26711 0.0
C434 C 0.74513 0.76108 0.24834 0.0
C435 C 0.80198 0.71965 0.24639 0.0
C436 C 0.82127 0.67101 0.25491 0.0
C437 C 0.78256 0.66335 0.26511 0.0
C438 C 0.72211 0.81226 0.23933 0.0
C439 C 0.88274 0.62713 0.25323 0.0
C440 C 0.87124 0.68807 0.21558 0.0
C441 C 0.9261 0.73274 0.21569 0.0
C442 C 0.82818 0.68561 0.22532 0.0
C443 C 0.8417 0.72744 0.23547 0.0
C444 C 0.89522 0.77467 0.2354 0.0
C445 C 0.93619 0.77745 0.22542 0.0
C446 C 0.77003 0.63627 0.22493 0.0
C447 C 0.91192 0.81927 0.24615 0.0
H448 H 0.66456 0.785 0.26019 0.0
H449 H 0.79637 0.62546 0.27156 0.0
H450 H 0.76275 0.84956 0.23789 0.0
H451 H 0.71116 0.78652 0.23062 0.0
H452 H 0.67621 0.83993 0.24215 0.0
H453 H 0.89233 0.59365 0.26091 0.0
H454 H 0.87629 0.59519 0.24505 0.0
H455 H 0.92789 0.65927 0.25204 0.0
H456 H 0.86325 0.65357 0.20806 0.0
H457 H 0.97897 0.81163 0.22562 0.0
H458 H 0.72285 0.66199 0.22761 0.0
H459 H 0.77992 0.59546 0.23137 0.0
H460 H 0.76202 0.61289 0.21593 0.0
H461 H 0.86675 0.84793 0.24897 0.0
H462 H 0.95299 0.85576 0.24442 0.0
H463 H 0.92788 0.78737 0.25372 0.0
C464 C 0.69012 0.62355 0.478 0.0
C465 C 0.65576 0.6837 0.47572 0.0
C466 C 0.6808 0.5896 0.48867 0.0
C467 C 0.63797 0.61801 0.49739 0.0
C468 C 0.60445 0.67973 0.49524 0.0
C469 C 0.61285 0.71133 0.48431 0.0
C470 C 0.71613 0.52289 0.49052 0.0
C471 C 0.56038 0.71257 0.50451 0.0
C472 C 0.57312 0.48685 0.51811 0.0
C473 C 0.62458 0.48665 0.52688 0.0
C474 C 0.57403 0.53291 0.50883 0.0
C475 C 0.62669 0.581 0.50852 0.0
C476 C 0.6741 0.58624 0.5181 0.0
C477 C 0.67306 0.53827 0.52712 0.0
C478 C 0.52301 0.52495 0.49871 0.0
C479 C 0.72936 0.63874 0.51831 0.0
H480 H 0.72338 0.60248 0.47135 0.0
H481 H 0.58729 0.75868 0.4826 0.0
H482 H 0.75046 0.52663 0.49844 0.0
H483 H 0.67852 0.48289 0.49226 0.0
H484 H 0.74605 0.50691 0.4827 0.0
H485 H 0.54035 0.76218 0.50163 0.0
H486 H 0.51726 0.67909 0.50642 0.0
H487 H 0.58956 0.72018 0.51297 0.0
H488 H 0.53566 0.44698 0.51779 0.0
H489 H 0.71254 0.53877 0.53396 0.0
H490 H 0.54811 0.50247 0.49082 0.0
H491 H 0.50245 0.57465 0.49607 0.0
H492 H 0.48037 0.49162 0.50105 0.0
H493 H 0.76918 0.62301 0.51204 0.0
H494 H 0.75289 0.64513 0.52734 0.0
H495 H 0.70959 0.6883 0.51539 0.0
C496 C 0.88841 0.12811 0.76571 0.0
C497 C 0.89553 0.18682 0.77285 0.0
C498 C 0.84176 0.12521 0.7562 0.0
C499 C 0.79972 0.18152 0.75406 0.0
C500 C 0.80146 0.23789 0.76203 0.0
C501 C 0.85019 0.24035 0.77127 0.0
C502 C 0.84231 0.06461 0.74778 0.0
C503 C 0.75525 0.29762 0.7603 0.0
C504 C 0.75305 0.21635 0.72189 0.0
C505 C 0.68959 0.18594 0.72081 0.0
C506 C 0.78965 0.21479 0.73269 0.0
C507 C 0.7605 0.18461 0.74271 0.0
C508 C 0.69549 0.15541 0.74171 0.0
C509 C 0.66126 0.15526 0.73067 0.0
C510 C 0.85976 0.24474 0.73334 0.0
C511 C 0.66188 0.12525 0.75231 0.0
H512 H 0.92318 0.08641 0.76687 0.0
H513 H 0.85496 0.2855 0.77686 0.0
H514 H 0.79037 0.04606 0.74589 0.0
H515 H 0.86381 0.07956 0.73918 0.0
H516 H 0.87287 0.02234 0.75138 0.0
H517 H 0.75401 0.33088 0.76839 0.0
H518 H 0.77307 0.32799 0.75279 0.0
H519 H 0.70317 0.28054 0.75803 0.0
H520 H 0.77439 0.24034 0.71423 0.0
H521 H 0.61132 0.13308 0.72982 0.0
H522 H 0.89655 0.20601 0.73632 0.0
H523 H 0.8618 0.28695 0.73999 0.0
H524 H 0.87582 0.26409 0.72463 0.0
H525 H 0.69171 0.08185 0.75562 0.0
H526 H 0.60977 0.10759 0.75015 0.0
H527 H 0.65991 0.16326 0.7597 0.0
C528 C 0.16709 0.254 0.75031 0.0
C529 C 0.19356 0.21719 0.75986 0.0
C530 C 0.19996 0.25525 0.73941 0.0
C531 C 0.26196 0.22088 0.73823 0.0
C532 C 0.28894 0.18359 0.74788 0.0
C533 C 0.25356 0.18111 0.75855 0.0
C534 C 0.16849 0.29336 0.72918 0.0
C535 C 0.35588 0.14767 0.74702 0.0
C536 C 0.34164 0.17437 0.70888 0.0
C537 C 0.39078 0.22499 0.70817 0.0
C538 C 0.29568 0.17497 0.7182 0.0
C539 C 0.30052 0.22636 0.72713 0.0
C540 C 0.34674 0.28016 0.72597 0.0
C541 C 0.39061 0.2794 0.71638 0.0
C542 C 0.24499 0.11833 0.71889 0.0
C543 C 0.35404 0.33545 0.7354 0.0
H544 H 0.11981 0.28084 0.7513 0.0
H545 H 0.27361 0.15257 0.76596 0.0
H546 H 0.201 0.33668 0.72693 0.0
H547 H 0.16438 0.26003 0.72113 0.0
H548 H 0.11751 0.31289 0.73129 0.0
H549 H 0.37017 0.12177 0.75539 0.0
H550 H 0.35391 0.1096 0.73963 0.0
H551 H 0.39606 0.18448 0.74498 0.0
H552 H 0.3412 0.13255 0.70248 0.0
H553 H 0.42853 0.31869 0.71591 0.0
H554 H 0.1947 0.13841 0.72127 0.0
H555 H 0.26104 0.0831 0.72596 0.0
H556 H 0.2401 0.08925 0.71034 0.0
H557 H 0.30432 0.35804 0.7374 0.0
H558 H 0.38858 0.37633 0.73269 0.0
H559 H 0.37426 0.31361 0.74377 0.0
C560 C 0.28484 0.70504 0.22321 0.0
C561 C 0.22516 0.66861 0.22111 0.0
C562 C 0.32318 0.69607 0.23368 0.0
C563 C 0.2998 0.65136 0.24239 0.0
C564 C 0.23995 0.61382 0.24024 0.0
C565 C 0.2038 0.62218 0.22951 0.0
C566 C 0.38798 0.73543 0.23553 0.0
C567 C 0.21257 0.56719 0.24946 0.0
C568 C 0.43129 0.59762 0.26511 0.0
C569 C 0.42527 0.6488 0.27386 0.0
C570 C 0.38872 0.59595 0.255 0.0
C571 C 0.33768 0.64534 0.25384 0.0
C572 C 0.32731 0.69317 0.26318 0.0
C573 C 0.37202 0.69501 0.27302 0.0
C574 C 0.40224 0.54501 0.24513 0.0
C575 C 0.27166 0.74503 0.26243 0.0
H576 H 0.30119 0.74095 0.21669 0.0
H577 H 0.15692 0.59481 0.22797 0.0
H578 H 0.38296 0.77166 0.24313 0.0
H579 H 0.43004 0.70067 0.23777 0.0
H580 H 0.40151 0.76414 0.22752 0.0
H581 H 0.16693 0.53941 0.24617 0.0
H582 H 0.25141 0.52994 0.25217 0.0
H583 H 0.1994 0.59703 0.25756 0.0
H584 H 0.47265 0.56194 0.26566 0.0
H585 H 0.36699 0.73431 0.27982 0.0
H586 H 0.42303 0.57149 0.2374 0.0
H587 H 0.35488 0.51983 0.24204 0.0
H588 H 0.43885 0.50568 0.24795 0.0
H589 H 0.28428 0.78306 0.2557 0.0
H590 H 0.26418 0.77176 0.2711 0.0
H591 H 0.22344 0.72076 0.25952 0.0
C592 C 0.76776 0.98222 0.4697 0.0
C593 C 0.7151 0.97833 0.46117 0.0
C594 C 0.76698 0.03089 0.47891 0.0
C595 C 0.71342 0.07796 0.47934 0.0
C596 C 0.66485 0.07953 0.46993 0.0
C597 C 0.66571 0.02897 0.461 0.0
C598 C 0.8193 0.02694 0.48886 0.0
C599 C 0.6086 0.13086 0.46983 0.0
C600 C 0.65165 0.12808 0.50992 0.0
C601 C 0.68488 0.18963 0.51198 0.0
C602 C 0.66098 0.09111 0.49932 0.0
C603 C 0.70254 0.11784 0.49043 0.0
C604 C 0.73483 0.18095 0.49237 0.0
C605 C 0.72656 0.21563 0.50325 0.0
C606 C 0.627 0.02307 0.4977 0.0
C607 C 0.77736 0.21203 0.48291 0.0
H608 H 0.80638 0.94347 0.46986 0.0
H609 H 0.62545 0.02679 0.45432 0.0
H610 H 0.83912 0.07781 0.49133 0.0
H611 H 0.79558 0.00624 0.49687 0.0
H612 H 0.8623 0.99384 0.48641 0.0
H613 H 0.584 0.13422 0.46087 0.0
H614 H 0.56979 0.11613 0.47626 0.0
H615 H 0.62771 0.18162 0.4726 0.0
H616 H 0.61941 0.10829 0.51671 0.0
H617 H 0.75126 0.26401 0.50481 0.0
H618 H 0.66529 0.98348 0.4959 0.0
H619 H 0.59175 0.02375 0.4899 0.0
H620 H 0.59831 0.00865 0.50565 0.0
H621 H 0.82094 0.17892 0.48092 0.0
H622 H 0.79664 0.26287 0.48565 0.0
H623 H 0.74726 0.2166 0.47452 0.0
C624 C 0.13866 0.01128 0.02245 0.0
C625 C 0.19373 0.96862 0.02466 0.0
C626 C 0.13846 0.05499 0.01275 0.0
C627 C 0.19378 0.05439 0.00498 0.0
C628 C 0.25118 0.01473 0.00763 0.0
C629 C 0.25089 0.9732 0.01755 0.0
C630 C 0.07748 0.09878 0.01045 0.0
C631 C 0.3107 0.01176 -0.00055 0.0
C632 C 0.15524 0.09116 0.97255 0.0
C633 C 0.18366 0.15535 0.97153 0.0
C634 C 0.15906 0.05732 0.98339 0.0
C635 C 0.18939 0.09001 -0.00649 0.0
C636 C 0.21714 0.15545 0.99254 0.0
C637 C 0.21508 0.18687 0.98147 0.0
C638 C 0.13086 0.98658 0.984 0.0
C639 C 0.24751 0.1928 0.00323 0.0
H640 H 0.09458 0.00845 0.02796 0.0
H641 H 0.29384 0.94056 0.01918 0.0
H642 H 0.09309 0.15075 0.00819 0.0
H643 H 0.04794 0.07775 0.00273 0.0
H644 H 0.04406 0.10158 0.01826 0.0
H645 H 0.35346 0.98247 0.00326 0.0
H646 H 0.2949 0.9876 0.99082 0.0
H647 H 0.32876 0.06334 -0.00248 0.0
H648 H 0.13051 0.06739 0.96484 0.0
H649 H 0.23556 0.23739 0.98069 0.0
H650 H 0.08906 0.98557 0.9904 0.0
H651 H 0.17045 0.95157 0.9873 0.0
H652 H 0.11159 0.96741 0.9752 0.0
H653 H 0.20967 0.19731 0.01034 0.0
H654 H 0.26509 0.24427 0.00101 0.0
H655 H 0.29084 0.1641 0.00693 0.0
C656 C 0.79463 0.78087 0.05754 0.0
C657 C 0.83304 0.8102 0.04868 0.0
C658 C 0.72496 0.79196 0.05811 0.0
C659 C 0.69263 0.83241 0.04945 0.0
C660 C 0.73156 0.8641 0.04071 0.0
C661 C 0.80154 0.85278 0.04045 0.0
C662 C 0.68557 0.75795 0.06768 0.0
C663 C 0.69883 0.90695 0.03125 0.0
C664 C 0.50938 0.78806 0.04266 0.0
C665 C 0.4751 0.83918 0.0489 0.0
C666 C 0.58007 0.78634 0.04256 0.0
C667 C 0.61763 0.83646 0.04898 0.0
C668 C 0.58344 0.88829 0.05529 0.0
C669 C 0.51253 0.88926 0.05512 0.0
C670 C 0.61456 0.73047 0.03564 0.0
C671 C 0.62178 0.94207 0.06236 0.0
H672 H 0.81902 0.74798 0.06393 0.0
H673 H 0.8309 0.87443 0.03345 0.0
H674 H 0.65294 0.79516 0.07231 0.0
H675 H 0.65209 0.71866 0.06355 0.0
H676 H 0.71899 0.73361 0.07439 0.0
H677 H 0.73659 0.93305 0.02579 0.0
H678 H 0.66682 0.87454 0.02525 0.0
H679 H 0.66547 0.94543 0.03536 0.0
H680 H 0.48092 0.74944 0.03775 0.0
H681 H 0.48643 0.9289 0.05997 0.0
H682 H 0.64495 0.69902 0.04181 0.0
H683 H 0.64972 0.7523 0.02919 0.0
H684 H 0.57809 0.69715 0.03069 0.0
H685 H 0.65266 0.91829 0.06948 0.0
H686 H 0.58777 0.9799 0.06653 0.0
H687 H 0.65701 0.96872 0.05651 0.0
C688 C 0.55115 0.29916 0.29071 0.0
C689 C 0.59954 0.32627 0.29874 0.0
C690 C 0.53357 0.23033 0.2909 0.0
C691 C 0.56498 0.18776 0.29937 0.0
C692 C 0.61234 0.21551 0.30773 0.0
C693 C 0.62952 0.28423 0.30723 0.0
C694 C 0.4836 0.20258 0.28172 0.0
C695 C 0.6465 0.17216 0.31698 0.0
C696 C 0.49114 0.01378 0.30521 0.0
C697 C 0.53386 0.97151 0.2986 0.0
C698 C 0.50018 0.08438 0.30548 0.0
C699 C 0.55263 0.11336 0.29889 0.0
C700 C 0.59503 0.07095 0.29205 0.0
C701 C 0.58541 1.00071 0.29205 0.0
C702 C 0.45442 0.12787 0.31299 0.0
C703 C 0.65111 0.09973 0.28479 0.0
H704 H 0.52905 0.33106 0.28394 0.0
H705 H 0.66698 0.30509 0.31346 0.0
H706 H 0.50954 0.1669 0.2756 0.0
H707 H 0.44334 0.17384 0.2861 0.0
H708 H 0.45986 0.24307 0.27636 0.0
H709 H 0.67775 0.20248 0.32345 0.0
H710 H 0.60834 0.14369 0.32194 0.0
H711 H 0.67946 0.13452 0.31253 0.0
H712 H 0.45133 0.99165 0.31032 0.0
H713 H 0.61842 0.96858 0.28685 0.0
H714 H 0.42932 0.16643 0.3074 0.0
H715 H 0.48464 0.15537 0.31997 0.0
H716 H 0.41506 0.09779 0.31737 0.0
H717 H 0.63053 0.13766 0.27854 0.0
H718 H 0.67784 0.06013 0.27956 0.0
H719 H 0.68835 0.12607 0.29076 0.0
C720 C 0.25239 0.23601 0.53548 0.0
C721 C 0.29876 0.27925 0.54137 0.0
C722 C 0.18316 0.25073 0.53521 0.0
C723 C 0.15961 0.31013 0.54101 0.0
C724 C 0.2061 0.35359 0.54711 0.0
C725 C 0.27508 0.33721 0.54732 0.0
C726 C 0.13523 0.20269 0.52871 0.0
C727 C 0.18294 0.41726 0.55342 0.0
C728 C 0.98831 0.37307 0.53022 0.0
C729 C 0.94533 0.34705 0.53878 0.0
C730 C 0.0584 0.3634 0.53106 0.0
C731 C 0.08623 0.3264 0.54064 0.0
C732 C 0.04336 0.30176 0.5495 0.0
C733 C 0.97348 0.31261 0.54849 0.0
C734 C 0.10248 0.39106 0.5215 0.0
C735 C 0.07099 0.26178 0.55982 0.0
H736 H 0.2704 0.19075 0.53097 0.0
H737 H 0.31034 0.36933 0.55231 0.0
H738 H 0.09662 0.1845 0.53489 0.0
H739 H 0.10823 0.22938 0.52144 0.0
H740 H 0.16154 0.15821 0.5248 0.0
H741 H 0.2256 0.44635 0.55755 0.0
H742 H 0.15572 0.45014 0.54704 0.0
H743 H 0.14705 0.40444 0.56047 0.0
H744 H 0.9671 0.40004 0.52272 0.0
H745 H 0.94074 0.29231 0.55515 0.0
H746 H 0.12615 0.3487 0.5165 0.0
H747 H 0.14385 0.42204 0.52559 0.0
H748 H 0.07367 0.42255 0.51509 0.0
H749 H 0.09299 0.21373 0.55644 0.0
H750 H 0.03157 0.24967 0.56633 0.0
H751 H 0.11205 0.29031 0.56453 0.0
C752 C 0.03617 0.82932 0.78708 0.0
C753 C 0.08125 0.85802 0.79554 0.0
C754 C 0.02113 0.75994 0.78709 0.0
C755 C 0.0523 0.71836 0.79572 0.0
C756 C 0.09669 0.74745 0.80444 0.0
C757 C 0.11094 0.81685 0.80419 0.0
C758 C 0.97406 0.7307 0.77757 0.0
C759 C 0.13086 0.7049 0.81381 0.0
C760 C 0.98328 0.54204 0.80092 0.0
C761 C 0.0279 0.50166 0.79436 0.0
C762 C 0.99017 0.61279 0.80139 0.0
C763 C 0.04267 0.64375 0.7951 0.0
C764 C 0.08734 0.60327 0.78837 0.0
C765 C 0.07953 0.53285 0.7881 0.0
C766 C 0.94179 0.65437 0.8087 0.0
C767 C 0.14385 0.63432 0.7815 0.0
H768 H 0.01467 0.86048 0.78015 0.0
H769 H 0.14601 0.83892 0.81072 0.0
H770 H 0.00254 0.69641 0.77158 0.0
H771 H 0.93409 0.70017 0.78166 0.0
H772 H 0.94979 0.77051 0.77212 0.0
H773 H 0.16009 0.73599 0.82046 0.0
H774 H 0.0929 0.67495 0.81855 0.0
H775 H 0.16574 0.66856 0.80949 0.0
H776 H 0.94332 0.51839 0.80579 0.0
H777 H 0.11417 0.50217 0.78298 0.0
H778 H 0.9161 0.69207 0.80301 0.0
H779 H 0.96998 0.68284 0.81582 0.0
H780 H 0.90292 0.62275 0.81289 0.0
H781 H 0.12317 0.6715 0.77513 0.0
H782 H 0.17319 0.59588 0.77646 0.0
H783 H 0.1788 0.66202 0.78772 0.0
C784 C 0.84383 0.2625 0.94377 0.0
C785 C 0.87934 0.31814 0.93954 0.0
C786 C 0.77303 0.26118 0.94353 0.0
C787 C 0.73667 0.31666 0.93889 0.0
C788 C 0.77213 0.37305 0.93462 0.0
C789 C 0.84302 0.37318 0.93502 0.0
C790 C 0.73712 0.20008 0.94818 0.0
C791 C 0.73515 0.43294 0.92954 0.0
C792 C 0.55889 0.27607 0.92779 0.0
C793 C 0.52003 0.29772 0.93743 0.0
C794 C 0.62914 0.28427 0.92797 0.0
C795 C 0.66159 0.31421 0.93811 0.0
C796 C 0.62247 0.33795 0.94775 0.0
C797 C 0.55203 0.32934 0.9473 0.0
C798 C 0.66883 0.25865 0.91747 0.0
C799 C 0.65526 0.36978 0.95875 0.0
H800 H 0.87137 0.21983 0.94732 0.0
H801 H 0.86996 0.41641 0.93173 0.0
H802 H 0.70199 0.21571 0.95528 0.0
H803 H 0.70649 0.1757 0.9409 0.0
H804 H 0.7727 0.16204 0.95183 0.0
H805 H 0.77006 0.47352 0.92684 0.0
H806 H 0.70428 0.41655 0.92164 0.0
H807 H 0.70004 0.45422 0.9362 0.0
H808 H 0.53429 0.25149 0.92014 0.0
H809 H 0.52254 0.34452 0.95491 0.0
H810 H 0.70151 0.21605 0.92025 0.0
H811 H 0.70233 0.29903 0.91426 0.0
H812 H 0.63566 0.24091 0.90994 0.0
H813 H 0.68628 0.33151 0.96343 0.0
H814 H 0.6176 0.3904 0.96504 0.0
H815 H 0.6896 0.41119 0.95626 0.0
C816 C 0.0543 0.08886 0.18789 0.0
C817 C 0.10673 0.06717 0.19549 0.0
C818 C 0.0363 0.15755 0.18739 0.0
C819 C 0.07253 0.2059 0.19446 0.0
C820 C 0.12619 0.18447 0.20199 0.0
C821 C 0.14246 0.11559 0.20242 0.0
C822 C 0.97874 0.17846 0.17926 0.0
C823 C 0.16659 0.23437 0.2096 0.0
C824 C 0.07673 0.39212 0.1868 0.0
C825 C 0.03485 0.42053 0.19548 0.0
C826 C 0.08736 0.32196 0.18604 0.0
C827 C 0.05489 0.27909 0.19408 0.0
C828 C 0.00988 0.30716 0.20246 0.0
C829 C 0.00061 0.3775 0.20309 0.0
C830 C 0.13599 0.29414 0.17701 0.0
C831 C 0.97365 0.26315 0.2111 0.0
H832 H 0.0281 0.05273 0.18212 0.0
H833 H 0.18326 0.09957 0.20828 0.0
H834 H 0.94019 0.20614 0.18446 0.0
H835 H 0.99736 0.21346 0.17247 0.0
H836 H 0.95422 0.13452 0.17462 0.0
H837 H 0.20748 0.20963 0.21483 0.0
H838 H 0.18947 0.27298 0.2039 0.0
H839 H 0.13295 0.2613 0.21588 0.0
H840 H 0.10331 0.42489 0.18086 0.0
H841 H 0.96774 0.39888 0.20977 0.0
H842 H 0.11263 0.25161 0.17182 0.0
H843 H 0.18128 0.27401 0.1817 0.0
H844 H 0.15243 0.33318 0.17072 0.0
H845 H 0.94803 0.22055 0.20628 0.0
H846 H 0.9356 0.29184 0.21627 0.0
H847 H 0.01073 0.24105 0.21745 0.0
C848 C 0.08996 0.74124 0.45392 0.0
C849 C 0.04355 0.7715 0.44608 0.0
C850 C 0.15885 0.75714 0.45375 0.0
C851 C 0.18225 0.80455 0.44551 0.0
C852 C 0.13588 0.83501 0.4375 0.0
C853 C 0.06713 0.81768 0.43782 0.0
C854 C 0.20664 0.72312 0.4624 0.0
C855 C 0.15896 0.88559 0.42857 0.0
C856 C 0.35226 0.88362 0.45363 0.0
C857 C 0.3963 0.8436 0.44688 0.0
C858 C 0.28217 0.87332 0.4529 0.0
C859 C 0.25547 0.82144 0.44531 0.0
C860 C 0.29945 0.78249 0.43815 0.0
C861 C 0.36926 0.79421 0.43899 0.0
C862 C 0.23689 0.91639 0.46058 0.0
C863 C 0.27306 0.72644 0.42999 0.0
H864 H 0.07227 0.70531 0.46032 0.0
H865 H 0.03237 0.83938 0.43141 0.0
H866 H 0.24611 0.69532 0.45745 0.0
H867 H 0.23255 0.7617 0.46816 0.0
H868 H 0.18042 0.68704 0.46818 0.0
H869 H 0.11634 0.90621 0.42319 0.0
H870 H 0.18555 0.92817 0.43323 0.0
H871 H 0.19539 0.86147 0.42245 0.0
H872 H 0.37259 0.92218 0.45969 0.0
H873 H 0.40281 0.76309 0.43371 0.0
H874 H 0.21315 0.88456 0.46735 0.0
H875 H 0.19562 0.93837 0.45507 0.0
H876 H 0.26483 0.95814 0.46525 0.0
H877 H 0.25131 0.68574 0.43538 0.0
H878 H 0.31316 0.70423 0.42437 0.0
H879 H 0.23208 0.74549 0.42408 0.0
C880 C 0.46722 0.86643 0.67953 0.0
C881 C 0.50944 0.90729 0.68682 0.0
C882 C 0.47526 0.79579 0.67908 0.0
C883 C 0.52593 0.76534 0.68625 0.0
C884 C 0.56768 0.80633 0.69381 0.0
C885 C 0.55932 0.87672 0.69392 0.0
C886 C 0.43049 0.75385 0.67078 0.0
C887 C 0.6217 0.77589 0.70173 0.0
C888 C 0.51968 0.5786 0.69361 0.0
C889 C 0.56976 0.55207 0.68625 0.0
C890 C 0.50316 0.64767 0.69344 0.0
C891 C 0.53719 0.69089 0.68564 0.0
C892 C 0.586 0.66364 0.67788 0.0
C893 C 0.60224 0.59473 0.67838 0.0
C894 C 0.45171 0.67493 0.702 0.0
C895 C 0.62278 0.70772 0.66931 0.0
H896 H 0.42878 0.88975 0.67397 0.0
H897 H 0.59181 0.90788 0.69966 0.0
H898 H 0.46173 0.72691 0.66412 0.0
H899 H 0.40373 0.71486 0.67584 0.0
H900 H 0.39252 0.78501 0.66598 0.0
H901 H 0.64772 0.81446 0.7075 0.0
H902 H 0.5993 0.73728 0.70749 0.0
H903 H 0.65988 0.75001 0.69619 0.0
H904 H 0.4956 0.54606 0.6999 0.0
H905 H 0.64105 0.57422 0.67269 0.0
H906 H 0.413 0.70496 0.69719 0.0
H907 H 0.47689 0.7093 0.70865 0.0
H908 H 0.4261 0.63405 0.70682 0.0
H909 H 0.58624 0.73769 0.66399 0.0
H910 H 0.65457 0.67773 0.66313 0.0
H911 H 0.65566 0.74402 0.67437 0.0
loop_
_geom_bond_atom_site_label_1
_geom_bond_atom_site_label_2
_geom_bond_distance
_geom_bond_site_symmetry_2
_ccdc_geom_bond_type
Co0 O3 1.970 . S
Co0 N17 1.989 . S
Co0 O25 1.967 . S
Co0 O32 1.920 . S
Co1 O4 1.966 . S
Co1 N10 2.022 1_455 S
Co1 N18 1.993 . S
Co1 O26 1.941 . S
C2 O3 1.258 . S
C2 O4 1.263 . S
O3 Co0 1.970 . S
O3 C2 1.258 . S
O4 Co1 1.966 . S
O4 C2 1.263 . S
C5 O6 1.235 . S
C5 O32 1.289 . S
O6 C5 1.235 . S
C7 C9 1.400 . S
C7 N10 1.351 . S
C7 C12 1.501 . S
C8 C9 1.387 . S
C8 N11 1.341 . S
C9 C7 1.400 . S
C9 C8 1.387 . S
N10 Co1 2.022 1_655 S
N10 C7 1.351 . S
N10 N11 1.365 . S
N11 C8 1.341 . S
N11 N10 1.365 . S
N11 H31 0.862 . S
C12 C7 1.501 . S
C12 H13 0.961 . S
C12 H14 0.961 . S
C12 H15 0.960 . S
H13 C12 0.961 . S
H14 C12 0.961 . S
H15 C12 0.960 . S
C16 N17 1.342 . S
C16 C20 1.401 . S
C16 C21 1.499 . S
N17 Co0 1.989 . S
N17 C16 1.342 . S
N17 N18 1.388 . S
N18 Co1 1.993 . S
N18 N17 1.388 . S
N18 C19 1.346 . S
C19 N18 1.346 . S
C19 C20 1.396 . S
C19 C29 1.510 1_455 S
C20 C16 1.401 . S
C20 C19 1.396 . S
C21 C16 1.499 . S
C21 H22 0.959 . S
C21 H23 0.960 . S
C21 H24 0.961 . S
H22 C21 0.959 . S
H23 C21 0.960 . S
H24 C21 0.961 . S
O25 Co0 1.967 . S
O25 C33 1.258 . S
O26 Co1 1.941 . S
O26 C33 1.266 . S
H27 C29 0.959 . S
H28 C29 0.961 . S
C29 C19 1.510 1_655 S
C29 H27 0.959 . S
C29 H28 0.961 . S
C29 H30 0.960 . S
H30 C29 0.960 . S
H31 N11 0.862 . S
O32 Co0 1.920 . S
O32 C5 1.289 . S
C33 O25 1.258 . S
C33 O26 1.266 . S
Co34 O37 1.970 . S
Co34 N51 1.989 . S
Co34 O59 1.967 . S
Co34 O66 1.920 . S
Co35 O38 1.966 . S
Co35 N44 2.022 . S
Co35 N52 1.993 . S
Co35 O60 1.941 . S
C36 O37 1.258 . S
C36 O38 1.263 . S
O37 Co34 1.970 . S
O37 C36 1.258 . S
O38 Co35 1.966 . S
O38 C36 1.263 . S
C39 O40 1.235 . S
C39 O66 1.289 . S
O40 C39 1.235 . S
C41 C43 1.400 . S
C41 N44 1.351 . S
C41 C46 1.501 . S
C42 C43 1.387 . S
C42 N45 1.341 . S
C43 C41 1.400 . S
C43 C42 1.387 . S
N44 Co35 2.022 . S
N44 C41 1.351 . S
N44 N45 1.365 . S
N45 C42 1.341 . S
N45 N44 1.365 . S
N45 H65 0.862 . S
C46 C41 1.501 . S
C46 H47 0.961 . S
C46 H48 0.961 . S
C46 H49 0.960 . S
H47 C46 0.961 . S
H48 C46 0.961 . S
H49 C46 0.960 . S
C50 N51 1.342 . S
C50 C54 1.401 . S
C50 C55 1.499 . S
N51 Co34 1.989 . S
N51 C50 1.342 . S
N51 N52 1.388 . S
N52 Co35 1.993 . S
N52 N51 1.388 . S
N52 C53 1.346 . S
C53 N52 1.346 . S
C53 C54 1.396 . S
C53 C63 1.510 . S
C54 C50 1.401 . S
C54 C53 1.396 . S
C55 C50 1.499 . S
C55 H56 0.959 . S
C55 H57 0.960 . S
C55 H58 0.961 . S
H56 C55 0.959 . S
H57 C55 0.960 . S
H58 C55 0.961 . S
O59 Co34 1.967 . S
O59 C67 1.258 . S
O60 Co35 1.941 . S
O60 C67 1.266 . S
H61 C63 0.959 . S
H62 C63 0.961 . S
C63 C53 1.510 . S
C63 H61 0.959 . S
C63 H62 0.961 . S
C63 H64 0.960 . S
H64 C63 0.960 . S
H65 N45 0.862 . S
O66 Co34 1.920 . S
O66 C39 1.289 . S
C67 O59 1.258 . S
C67 O60 1.266 . S
Co68 O71 1.970 . S
Co68 N85 1.989 . S
Co68 O93 1.967 . S
Co68 O100 1.920 . S
Co69 O72 1.966 . S
Co69 N78 2.022 . S
Co69 N86 1.993 . S
Co69 O94 1.941 . S
C70 O71 1.258 . S
C70 O72 1.263 . S
O71 Co68 1.970 . S
O71 C70 1.258 . S
O72 Co69 1.966 . S
O72 C70 1.263 . S
C73 O74 1.235 . S
C73 O100 1.289 . S
O74 C73 1.235 . S
C75 C77 1.400 . S
C75 N78 1.351 . S
C75 C80 1.501 . S
C76 C77 1.387 . S
C76 N79 1.341 . S
C77 C75 1.400 . S
C77 C76 1.387 . S
N78 Co69 2.022 . S
N78 C75 1.351 . S
N78 N79 1.365 . S
N79 C76 1.341 . S
N79 N78 1.365 . S
N79 H99 0.862 . S
C80 C75 1.501 . S
C80 H81 0.961 . S
C80 H82 0.961 . S
C80 H83 0.960 . S
H81 C80 0.961 . S
H82 C80 0.961 . S
H83 C80 0.960 . S
C84 N85 1.342 . S
C84 C88 1.401 . S
C84 C89 1.499 . S
N85 Co68 1.989 . S
N85 C84 1.342 . S
N85 N86 1.388 . S
N86 Co69 1.993 . S
N86 N85 1.388 . S
N86 C87 1.346 . S
C87 N86 1.346 . S
C87 C88 1.396 . S
C87 C97 1.510 . S
C88 C84 1.401 . S
C88 C87 1.396 . S
C89 C84 1.499 . S
C89 H90 0.959 . S
C89 H91 0.960 . S
C89 H92 0.961 . S
H90 C89 0.959 . S
H91 C89 0.960 . S
H92 C89 0.961 . S
O93 Co68 1.967 . S
O93 C101 1.258 . S
O94 Co69 1.941 . S
O94 C101 1.266 . S
H95 C97 0.959 . S
H96 C97 0.961 . S
C97 C87 1.510 . S
C97 H95 0.959 . S
C97 H96 0.961 . S
C97 H98 0.960 . S
H98 C97 0.960 . S
H99 N79 0.862 . S
O100 Co68 1.920 . S
O100 C73 1.289 . S
C101 O93 1.258 . S
C101 O94 1.266 . S
Co102 O105 1.970 . S
Co102 N119 1.989 . S
Co102 O127 1.967 . S
Co102 O134 1.920 . S
Co103 O106 1.966 . S
Co103 N112 2.022 . S
Co103 N120 1.993 . S
Co103 O128 1.941 . S
C104 O105 1.258 . S
C104 O106 1.263 . S
O105 Co102 1.970 . S
O105 C104 1.258 . S
O106 Co103 1.966 . S
O106 C104 1.263 . S
C107 O108 1.235 . S
C107 O134 1.289 . S
O108 C107 1.235 . S
C109 C111 1.400 . S
C109 N112 1.351 1_565 S
C109 C114 1.499 1_565 S
C110 C111 1.387 . S
C110 N113 1.341 . S
C111 C109 1.400 . S
C111 C110 1.387 . S
N112 Co103 2.022 . S
N112 C109 1.351 1_545 S
N112 N113 1.365 1_545 S
N113 C110 1.341 . S
N113 N112 1.365 1_565 S
N113 H133 0.862 1_565 S
C114 C109 1.499 1_545 S
C114 H115 0.967 . S
C114 H116 0.961 1_445 S
C114 H117 0.956 1_445 S
H115 C114 0.967 . S
H116 C114 0.961 1_665 S
H117 C114 0.956 1_665 S
C118 N119 1.342 . S
C118 C122 1.401 . S
C118 C123 1.499 . S
N119 Co102 1.989 . S
N119 C118 1.342 . S
N119 N120 1.388 . S
N120 Co103 1.993 . S
N120 N119 1.388 . S
N120 C121 1.346 . S
C121 N120 1.346 . S
C121 C122 1.396 . S
C121 C131 1.510 . S
C122 C118 1.401 . S
C122 C121 1.396 . S
C123 C118 1.499 . S
C123 H124 0.959 . S
C123 H125 0.960 . S
C123 H126 0.961 . S
H124 C123 0.959 . S
H125 C123 0.960 . S
H126 C123 0.961 . S
O127 Co102 1.967 . S
O127 C135 1.258 . S
O128 Co103 1.941 . S
O128 C135 1.266 . S
H129 C131 0.959 . S
H130 C131 0.961 . S
C131 C121 1.510 . S
C131 H129 0.959 . S
C131 H130 0.961 . S
C131 H132 0.960 . S
H132 C131 0.960 . S
H133 N113 0.862 1_545 S
O134 Co102 1.920 . S
O134 C107 1.289 . S
C135 O127 1.258 . S
C135 O128 1.266 . S
Co136 O139 1.970 . S
Co136 N153 1.989 . S
Co136 O161 1.967 . S
Co136 O168 1.920 1_455 S
Co137 O140 1.966 . S
Co137 N146 2.022 . S
Co137 N154 1.993 . S
Co137 O162 1.941 . S
C138 O139 1.258 . S
C138 O140 1.263 . S
O139 Co136 1.970 . S
O139 C138 1.258 . S
O140 Co137 1.966 . S
O140 C138 1.263 . S
C141 O142 1.235 . S
C141 O168 1.289 . S
O142 C141 1.235 . S
C143 C145 1.400 . S
C143 N146 1.351 . S
C143 C148 1.501 . S
C144 C145 1.387 . S
C144 N147 1.341 . S
C145 C143 1.400 . S
C145 C144 1.387 . S
N146 Co137 2.022 . S
N146 C143 1.351 . S
N146 N147 1.365 . S
N147 C144 1.341 . S
N147 N146 1.365 . S
N147 H167 0.862 . S
C148 C143 1.501 . S
C148 H149 0.961 . S
C148 H150 0.961 . S
C148 H151 0.960 . S
H149 C148 0.961 . S
H150 C148 0.961 . S
H151 C148 0.960 . S
C152 N153 1.342 . S
C152 C156 1.401 . S
C152 C157 1.499 . S
N153 Co136 1.989 . S
N153 C152 1.342 . S
N153 N154 1.388 . S
N154 Co137 1.993 . S
N154 N153 1.388 . S
N154 C155 1.346 . S
C155 N154 1.346 . S
C155 C156 1.396 . S
C155 C165 1.510 . S
C156 C152 1.401 . S
C156 C155 1.396 . S
C157 C152 1.499 . S
C157 H158 0.959 . S
C157 H159 0.960 . S
C157 H160 0.961 . S
H158 C157 0.959 . S
H159 C157 0.960 . S
H160 C157 0.961 . S
O161 Co136 1.967 . S
O161 C169 1.258 . S
O162 Co137 1.941 . S
O162 C169 1.266 . S
H163 C165 0.959 . S
H164 C165 0.961 . S
C165 C155 1.510 . S
C165 H163 0.959 . S
C165 H164 0.961 . S
C165 H166 0.960 . S
H166 C165 0.960 . S
H167 N147 0.862 . S
O168 Co136 1.920 1_655 S
O168 C141 1.289 . S
C169 O161 1.258 . S
C169 O162 1.266 . S
Co170 O173 1.970 . S
Co170 N187 1.989 . S
Co170 O195 1.967 . S
Co170 O202 1.920 . S
Co171 O174 1.966 . S
Co171 N180 2.022 . S
Co171 N188 1.993 . S
Co171 O196 1.941 . S
C172 O173 1.258 . S
C172 O174 1.263 . S
O173 Co170 1.970 . S
O173 C172 1.258 . S
O174 Co171 1.966 . S
O174 C172 1.263 . S
C175 O176 1.235 . S
C175 O202 1.289 . S
O176 C175 1.235 . S
C177 C179 1.400 1_565 S
C177 N180 1.351 . S
C177 C182 1.501 1_455 S
C178 C179 1.387 . S
C178 N181 1.341 1_545 S
C179 C177 1.400 1_545 S
C179 C178 1.387 . S
N180 Co171 2.022 . S
N180 C177 1.351 . S
N180 N181 1.365 . S
N181 C178 1.341 1_565 S
N181 N180 1.365 . S
N181 H201 0.862 . S
C182 C177 1.501 1_655 S
C182 H183 0.961 . S
C182 H184 0.961 . S
C182 H185 0.960 . S
H183 C182 0.961 . S
H184 C182 0.961 . S
H185 C182 0.960 . S
C186 N187 1.342 . S
C186 C190 1.401 . S
C186 C191 1.499 . S
N187 Co170 1.989 . S
N187 C186 1.342 . S
N187 N188 1.388 . S
N188 Co171 1.993 . S
N188 N187 1.388 . S
N188 C189 1.346 . S
C189 N188 1.346 . S
C189 C190 1.396 . S
C189 C199 1.510 . S
C190 C186 1.401 . S
C190 C189 1.396 . S
C191 C186 1.499 . S
C191 H192 0.959 . S
C191 H193 0.960 . S
C191 H194 0.961 . S
H192 C191 0.959 . S
H193 C191 0.960 . S
H194 C191 0.961 . S
O195 Co170 1.967 . S
O195 C203 1.258 . S
O196 Co171 1.941 . S
O196 C203 1.266 . S
H197 C199 0.959 . S
H198 C199 0.961 . S
C199 C189 1.510 . S
C199 H197 0.959 . S
C199 H198 0.961 . S
C199 H200 0.960 . S
H200 C199 0.960 . S
H201 N181 0.862 . S
O202 Co170 1.920 . S
O202 C175 1.289 . S
C203 O195 1.258 . S
C203 O196 1.266 . S
Co204 O207 1.970 . S
Co204 N221 1.989 . S
Co204 O229 1.967 . S
Co204 O236 1.920 . S
Co205 O208 1.966 . S
Co205 N214 2.022 . S
Co205 N222 1.993 . S
Co205 O230 1.941 . S
C206 O207 1.258 . S
C206 O208 1.263 . S
O207 Co204 1.970 . S
O207 C206 1.258 . S
O208 Co205 1.966 . S
O208 C206 1.263 . S
C209 O210 1.235 . S
C209 O236 1.289 . S
O210 C209 1.235 . S
C211 C213 1.400 . S
C211 N214 1.351 . S
C211 C216 1.501 . S
C212 C213 1.387 . S
C212 N215 1.341 . S
C213 C211 1.400 . S
C213 C212 1.387 . S
N214 Co205 2.022 . S
N214 C211 1.351 . S
N214 N215 1.365 . S
N215 C212 1.341 . S
N215 N214 1.365 . S
N215 H235 0.862 . S
C216 C211 1.501 . S
C216 H217 0.961 . S
C216 H218 0.961 . S
C216 H219 0.960 . S
H217 C216 0.961 . S
H218 C216 0.961 . S
H219 C216 0.960 . S
C220 N221 1.342 . S
C220 C224 1.401 . S
C220 C225 1.499 . S
N221 Co204 1.989 . S
N221 C220 1.342 . S
N221 N222 1.388 . S
N222 Co205 1.993 . S
N222 N221 1.388 . S
N222 C223 1.346 . S
C223 N222 1.346 . S
C223 C224 1.396 . S
C223 C233 1.510 . S
C224 C220 1.401 . S
C224 C223 1.396 . S
C225 C220 1.499 . S
C225 H226 0.959 . S
C225 H227 0.960 . S
C225 H228 0.961 . S
H226 C225 0.959 . S
H227 C225 0.960 . S
H228 C225 0.961 . S
O229 Co204 1.967 . S
O229 C237 1.258 . S
O230 Co205 1.941 . S
O230 C237 1.266 . S
H231 C233 0.959 . S
H232 C233 0.961 . S
C233 C223 1.510 . S
C233 H231 0.959 . S
C233 H232 0.961 . S
C233 H234 0.960 . S
H234 C233 0.960 . S
H235 N215 0.862 . S
O236 Co204 1.920 . S
O236 C209 1.289 . S
C237 O229 1.258 . S
C237 O230 1.266 . S
Co238 O241 1.970 . S
Co238 N255 1.989 . S
Co238 O263 1.967 . S
Co238 O270 1.920 . S
Co239 O242 1.966 . S
Co239 N248 2.022 . S
Co239 N256 1.993 . S
Co239 O264 1.941 . S
C240 O241 1.258 . S
C240 O242 1.263 . S
O241 Co238 1.970 . S
O241 C240 1.258 . S
O242 Co239 1.966 . S
O242 C240 1.263 . S
C243 O244 1.235 . S
C243 O270 1.289 . S
O244 C243 1.235 . S
C245 C247 1.400 . S
C245 N248 1.351 . S
C245 C250 1.501 . S
C246 C247 1.387 . S
C246 N249 1.341 . S
C247 C245 1.400 . S
C247 C246 1.387 . S
N248 Co239 2.022 . S
N248 C245 1.351 . S
N248 N249 1.365 . S
N249 C246 1.341 . S
N249 N248 1.365 . S
N249 H269 0.862 . S
C250 C245 1.501 . S
C250 H251 0.961 . S
C250 H252 0.961 . S
C250 H253 0.960 . S
H251 C250 0.961 . S
H252 C250 0.961 . S
H253 C250 0.960 . S
C254 N255 1.342 . S
C254 C258 1.401 . S
C254 C259 1.499 . S
N255 Co238 1.989 . S
N255 C254 1.342 . S
N255 N256 1.388 . S
N256 Co239 1.993 . S
N256 N255 1.388 . S
N256 C257 1.346 . S
C257 N256 1.346 . S
C257 C258 1.396 . S
C257 C267 1.510 . S
C258 C254 1.401 . S
C258 C257 1.396 . S
C259 C254 1.499 . S
C259 H260 0.959 . S
C259 H261 0.960 . S
C259 H262 0.961 . S
H260 C259 0.959 . S
H261 C259 0.960 . S
H262 C259 0.961 . S
O263 Co238 1.967 . S
O263 C271 1.258 . S
O264 Co239 1.941 . S
O264 C271 1.266 . S
H265 C267 0.959 . S
H266 C267 0.961 . S
C267 C257 1.510 . S
C267 H265 0.959 . S
C267 H266 0.961 . S
C267 H268 0.960 . S
H268 C267 0.960 . S
H269 N249 0.862 . S
O270 Co238 1.920 . S
O270 C243 1.289 . S
C271 O263 1.258 . S
C271 O264 1.266 . S
C272 C273 1.391 . S
C272 C274 1.394 . S
C272 H288 0.931 . S
C273 C272 1.391 . S
C273 C277 1.376 . S
C274 C272 1.394 . S
C274 C275 1.369 . S
C274 C278 1.531 . S
C275 C274 1.369 . S
C275 C276 1.410 . S
C275 C283 1.503 . S
C276 C275 1.410 . S
C276 C277 1.392 . S
C276 C279 1.511 . S
C277 C273 1.376 . S
C277 C276 1.392 . S
C277 H289 0.929 . S
C278 C274 1.531 . S
C278 H290 0.960 . S
C278 H291 0.962 1_455 S
C278 H292 0.960 . S
C279 C276 1.511 . S
C279 H293 0.961 . S
C279 H294 0.961 . S
C279 H295 0.961 . S
C280 C281 1.370 . S
C280 C282 1.363 . S
C280 H296 0.931 . S
C281 C280 1.370 . S
C281 C285 1.408 . S
C282 C280 1.363 . S
C282 C283 1.370 . S
C282 C286 1.524 . S
C283 C275 1.503 . S
C283 C282 1.370 . S
C283 C284 1.403 . S
C284 C283 1.403 . S
C284 C285 1.404 . S
C284 C287 1.539 . S
C285 C281 1.408 . S
C285 C284 1.404 . S
C285 H297 0.930 . S
C286 C282 1.524 . S
C286 H298 0.956 . S
C286 H299 0.961 . S
C286 H300 0.961 . S
C287 C284 1.539 . S
C287 H301 0.958 . S
C287 H302 0.961 . S
C287 H303 0.960 . S
H288 C272 0.931 . S
H289 C277 0.929 . S
H290 C278 0.960 . S
H291 C278 0.962 1_655 S
H292 C278 0.960 . S
H293 C279 0.961 . S
H294 C279 0.961 . S
H295 C279 0.961 . S
H296 C280 0.931 . S
H297 C285 0.930 . S
H298 C286 0.956 . S
H299 C286 0.961 . S
H300 C286 0.961 . S
H301 C287 0.958 . S
H302 C287 0.961 . S
H303 C287 0.960 . S
C304 C305 1.391 . S
C304 C306 1.394 . S
C304 H320 0.931 . S
C305 C304 1.391 . S
C305 C309 1.376 . S
C306 C304 1.394 . S
C306 C307 1.369 . S
C306 C310 1.531 . S
C307 C306 1.369 . S
C307 C308 1.410 . S
C307 C315 1.503 . S
C308 C307 1.410 . S
C308 C309 1.392 . S
C308 C311 1.511 . S
C309 C305 1.376 . S
C309 C308 1.392 . S
C309 H321 0.929 . S
C310 C306 1.531 . S
C310 H322 0.960 . S
C310 H323 0.962 . S
C310 H324 0.960 . S
C311 C308 1.511 . S
C311 H325 0.961 . S
C311 H326 0.961 . S
C311 H327 0.961 . S
C312 C313 1.370 . S
C312 C314 1.363 . S
C312 H328 0.931 . S
C313 C312 1.370 . S
C313 C317 1.408 . S
C314 C312 1.363 . S
C314 C315 1.370 . S
C314 C318 1.524 . S
C315 C307 1.503 . S
C315 C314 1.370 . S
C315 C316 1.403 . S
C316 C315 1.403 . S
C316 C317 1.404 . S
C316 C319 1.539 . S
C317 C313 1.408 . S
C317 C316 1.404 . S
C317 H329 0.930 . S
C318 C314 1.524 . S
C318 H330 0.956 . S
C318 H331 0.961 . S
C318 H332 0.961 . S
C319 C316 1.539 . S
C319 H333 0.958 . S
C319 H334 0.961 . S
C319 H335 0.960 . S
H320 C304 0.931 . S
H321 C309 0.929 . S
H322 C310 0.960 . S
H323 C310 0.962 . S
H324 C310 0.960 . S
H325 C311 0.961 . S
H326 C311 0.961 . S
H327 C311 0.961 . S
H328 C312 0.931 . S
H329 C317 0.930 . S
H330 C318 0.956 . S
H331 C318 0.961 . S
H332 C318 0.961 . S
H333 C319 0.958 . S
H334 C319 0.961 . S
H335 C319 0.960 . S
C336 C337 1.391 . S
C336 C338 1.394 . S
C336 H352 0.931 . S
C337 C336 1.391 . S
C337 C341 1.376 . S
C338 C336 1.394 . S
C338 C339 1.369 . S
C338 C342 1.531 . S
C339 C338 1.369 . S
C339 C340 1.410 . S
C339 C347 1.503 . S
C340 C339 1.410 . S
C340 C341 1.392 . S
C340 C343 1.511 . S
C341 C337 1.376 . S
C341 C340 1.392 . S
C341 H353 0.929 . S
C342 C338 1.531 . S
C342 H354 0.960 . S
C342 H355 0.962 . S
C342 H356 0.960 . S
C343 C340 1.511 . S
C343 H357 0.961 . S
C343 H358 0.961 . S
C343 H359 0.961 . S
C344 C345 1.370 . S
C344 C346 1.363 . S
C344 H360 0.931 . S
C345 C344 1.370 . S
C345 C349 1.408 . S
C346 C344 1.363 . S
C346 C347 1.370 . S
C346 C350 1.524 . S
C347 C339 1.503 . S
C347 C346 1.370 . S
C347 C348 1.403 . S
C348 C347 1.403 . S
C348 C349 1.404 . S
C348 C351 1.539 . S
C349 C345 1.408 . S
C349 C348 1.404 . S
C349 H361 0.930 . S
C350 C346 1.524 . S
C350 H362 0.956 . S
C350 H363 0.961 . S
C350 H364 0.961 . S
C351 C348 1.539 . S
C351 H365 0.958 . S
C351 H366 0.961 . S
C351 H367 0.960 . S
H352 C336 0.931 . S
H353 C341 0.929 . S
H354 C342 0.960 . S
H355 C342 0.962 . S
H356 C342 0.960 . S
H357 C343 0.961 . S
H358 C343 0.961 . S
H359 C343 0.961 . S
H360 C344 0.931 . S
H361 C349 0.930 . S
H362 C350 0.956 . S
H363 C350 0.961 . S
H364 C350 0.961 . S
H365 C351 0.958 . S
H366 C351 0.961 . S
H367 C351 0.960 . S
C368 C369 1.391 . S
C368 C370 1.394 . S
C368 H384 0.931 . S
C369 C368 1.391 . S
C369 C373 1.376 . S
C370 C368 1.394 . S
C370 C371 1.369 . S
C370 C374 1.531 . S
C371 C370 1.369 . S
C371 C372 1.410 . S
C371 C379 1.503 . S
C372 C371 1.410 . S
C372 C373 1.392 . S
C372 C375 1.511 . S
C373 C369 1.376 . S
C373 C372 1.392 . S
C373 H385 0.929 . S
C374 C370 1.531 . S
C374 H386 0.960 . S
C374 H387 0.962 . S
C374 H388 0.960 1_455 S
C375 C372 1.511 . S
C375 H389 0.961 . S
C375 H390 0.961 . S
C375 H391 0.961 . S
C376 C377 1.370 . S
C376 C378 1.363 . S
C376 H392 0.931 . S
C377 C376 1.370 . S
C377 C381 1.408 . S
C378 C376 1.363 . S
C378 C379 1.370 . S
C378 C382 1.524 . S
C379 C371 1.503 . S
C379 C378 1.370 . S
C379 C380 1.403 . S
C380 C379 1.403 . S
C380 C381 1.404 . S
C380 C383 1.539 . S
C381 C377 1.408 . S
C381 C380 1.404 . S
C381 H393 0.930 . S
C382 C378 1.524 . S
C382 H394 0.956 . S
C382 H395 0.961 . S
C382 H396 0.961 . S
C383 C380 1.539 . S
C383 H397 0.958 . S
C383 H398 0.961 . S
C383 H399 0.960 . S
H384 C368 0.931 . S
H385 C373 0.929 . S
H386 C374 0.960 . S
H387 C374 0.962 . S
H388 C374 0.960 1_655 S
H389 C375 0.961 . S
H390 C375 0.961 . S
H391 C375 0.961 . S
H392 C376 0.931 . S
H393 C381 0.930 . S
H394 C382 0.956 . S
H395 C382 0.961 . S
H396 C382 0.961 . S
H397 C383 0.958 . S
H398 C383 0.961 . S
H399 C383 0.960 . S
C400 C401 1.391 . S
C400 C402 1.394 . S
C400 H416 0.931 . S
C401 C400 1.391 . S
C401 C405 1.376 . S
C402 C400 1.394 . S
C402 C403 1.369 . S
C402 C406 1.531 1_554 S
C403 C402 1.369 . S
C403 C404 1.410 . S
C403 C411 1.503 1_554 S
C404 C403 1.410 . S
C404 C405 1.392 . S
C404 C407 1.511 . S
C405 C401 1.376 . S
C405 C404 1.392 . S
C405 H417 0.929 . S
C406 C402 1.531 1_556 S
C406 H418 0.960 . S
C406 H419 0.962 . S
C406 H420 0.960 . S
C407 C404 1.511 . S
C407 H421 0.961 . S
C407 H422 0.961 . S
C407 H423 0.961 . S
C408 C409 1.370 . S
C408 C410 1.363 . S
C408 H424 0.931 . S
C409 C408 1.370 . S
C409 C413 1.408 . S
C410 C408 1.363 . S
C410 C411 1.370 . S
C410 C414 1.524 1_556 S
C411 C403 1.503 1_556 S
C411 C410 1.370 . S
C411 C412 1.403 . S
C412 C411 1.403 . S
C412 C413 1.404 . S
C412 C415 1.539 . S
C413 C409 1.408 . S
C413 C412 1.404 . S
C413 H425 0.930 . S
C414 C410 1.524 1_554 S
C414 H426 0.956 . S
C414 H427 0.961 . S
C414 H428 0.961 . S
C415 C412 1.539 . S
C415 H429 0.958 . S
C415 H430 0.961 . S
C415 H431 0.960 . S
H416 C400 0.931 . S
H417 C405 0.929 . S
H418 C406 0.960 . S
H419 C406 0.962 . S
H420 C406 0.960 . S
H421 C407 0.961 . S
H422 C407 0.961 . S
H423 C407 0.961 . S
H424 C408 0.931 . S
H425 C413 0.930 . S
H426 C414 0.956 . S
H427 C414 0.961 . S
H428 C414 0.961 . S
H429 C415 0.958 . S
H430 C415 0.961 . S
H431 C415 0.960 . S
C432 C433 1.391 . S
C432 C434 1.394 . S
C432 H448 0.931 . S
C433 C432 1.391 . S
C433 C437 1.376 . S
C434 C432 1.394 . S
C434 C435 1.369 . S
C434 C438 1.531 . S
C435 C434 1.369 . S
C435 C436 1.410 . S
C435 C443 1.503 . S
C436 C435 1.410 . S
C436 C437 1.392 . S
C436 C439 1.511 . S
C437 C433 1.376 . S
C437 C436 1.392 . S
C437 H449 0.929 . S
C438 C434 1.531 . S
C438 H450 0.960 . S
C438 H451 0.962 . S
C438 H452 0.960 . S
C439 C436 1.511 . S
C439 H453 0.961 . S
C439 H454 0.961 . S
C439 H455 0.961 . S
C440 C441 1.370 . S
C440 C442 1.363 . S
C440 H456 0.931 . S
C441 C440 1.370 . S
C441 C445 1.408 . S
C442 C440 1.363 . S
C442 C443 1.370 . S
C442 C446 1.524 . S
C443 C435 1.503 . S
C443 C442 1.370 . S
C443 C444 1.403 . S
C444 C443 1.403 . S
C444 C445 1.404 . S
C444 C447 1.539 . S
C445 C441 1.408 . S
C445 C444 1.404 . S
C445 H457 0.930 1_655 S
C446 C442 1.524 . S
C446 H458 0.956 . S
C446 H459 0.961 . S
C446 H460 0.961 . S
C447 C444 1.539 . S
C447 H461 0.958 . S
C447 H462 0.961 1_655 S
C447 H463 0.960 . S
H448 C432 0.931 . S
H449 C437 0.929 . S
H450 C438 0.960 . S
H451 C438 0.962 . S
H452 C438 0.960 . S
H453 C439 0.961 . S
H454 C439 0.961 . S
H455 C439 0.961 . S
H456 C440 0.931 . S
H457 C445 0.930 1_455 S
H458 C446 0.956 . S
H459 C446 0.961 . S
H460 C446 0.961 . S
H461 C447 0.958 . S
H462 C447 0.961 1_455 S
H463 C447 0.960 . S
C464 C465 1.391 . S
C464 C466 1.394 . S
C464 H480 0.931 . S
C465 C464 1.391 . S
C465 C469 1.376 . S
C466 C464 1.394 . S
C466 C467 1.369 . S
C466 C470 1.531 . S
C467 C466 1.369 . S
C467 C468 1.410 . S
C467 C475 1.503 . S
C468 C467 1.410 . S
C468 C469 1.392 . S
C468 C471 1.511 . S
C469 C465 1.376 . S
C469 C468 1.392 . S
C469 H481 0.929 . S
C470 C466 1.531 . S
C470 H482 0.960 . S
C470 H483 0.962 . S
C470 H484 0.960 . S
C471 C468 1.511 . S
C471 H485 0.961 . S
C471 H486 0.961 . S
C471 H487 0.961 . S
C472 C473 1.370 . S
C472 C474 1.363 . S
C472 H488 0.931 . S
C473 C472 1.370 . S
C473 C477 1.408 . S
C474 C472 1.363 . S
C474 C475 1.370 . S
C474 C478 1.524 . S
C475 C467 1.503 . S
C475 C474 1.370 . S
C475 C476 1.403 . S
C476 C475 1.403 . S
C476 C477 1.404 . S
C476 C479 1.539 . S
C477 C473 1.408 . S
C477 C476 1.404 . S
C477 H489 0.930 . S
C478 C474 1.524 . S
C478 H490 0.956 . S
C478 H491 0.961 . S
C478 H492 0.961 . S
C479 C476 1.539 . S
C479 H493 0.958 . S
C479 H494 0.961 . S
C479 H495 0.960 . S
H480 C464 0.931 . S
H481 C469 0.929 . S
H482 C470 0.960 . S
H483 C470 0.962 . S
H484 C470 0.960 . S
H485 C471 0.961 . S
H486 C471 0.961 . S
H487 C471 0.961 . S
H488 C472 0.931 . S
H489 C477 0.930 . S
H490 C478 0.956 . S
H491 C478 0.961 . S
H492 C478 0.961 . S
H493 C479 0.958 . S
H494 C479 0.961 . S
H495 C479 0.960 . S
C496 C497 1.391 . S
C496 C498 1.394 . S
C496 H512 0.931 1_655 S
C497 C496 1.391 . S
C497 C501 1.376 . S
C498 C496 1.394 . S
C498 C499 1.369 . S
C498 C502 1.531 . S
C499 C498 1.369 . S
C499 C500 1.410 . S
C499 C507 1.503 . S
C500 C499 1.410 . S
C500 C501 1.392 . S
C500 C503 1.511 . S
C501 C497 1.376 . S
C501 C500 1.392 . S
C501 H513 0.929 . S
C502 C498 1.531 . S
C502 H514 0.960 . S
C502 H515 0.962 . S
C502 H516 0.960 . S
C503 C500 1.511 . S
C503 H517 0.961 . S
C503 H518 0.961 . S
C503 H519 0.961 . S
C504 C505 1.370 . S
C504 C506 1.363 . S
C504 H520 0.931 . S
C505 C504 1.370 . S
C505 C509 1.408 . S
C506 C504 1.363 . S
C506 C507 1.370 . S
C506 C510 1.524 . S
C507 C499 1.503 . S
C507 C506 1.370 . S
C507 C508 1.403 . S
C508 C507 1.403 . S
C508 C509 1.404 . S
C508 C511 1.539 . S
C509 C505 1.408 . S
C509 C508 1.404 . S
C509 H521 0.930 . S
C510 C506 1.524 . S
C510 H522 0.956 . S
C510 H523 0.961 . S
C510 H524 0.961 . S
C511 C508 1.539 . S
C511 H525 0.958 . S
C511 H526 0.961 . S
C511 H527 0.960 . S
H512 C496 0.931 1_455 S
H513 C501 0.929 . S
H514 C502 0.960 . S
H515 C502 0.962 . S
H516 C502 0.960 . S
H517 C503 0.961 . S
H518 C503 0.961 . S
H519 C503 0.961 . S
H520 C504 0.931 . S
H521 C509 0.930 . S
H522 C510 0.956 . S
H523 C510 0.961 . S
H524 C510 0.961 . S
H525 C511 0.958 . S
H526 C511 0.961 . S
H527 C511 0.960 . S
C528 C529 1.391 . S
C528 C530 1.394 . S
C528 H544 0.931 . S
C529 C528 1.391 . S
C529 C533 1.376 . S
C530 C528 1.394 . S
C530 C531 1.369 . S
C530 C534 1.531 . S
C531 C530 1.369 . S
C531 C532 1.410 . S
C531 C539 1.503 . S
C532 C531 1.410 . S
C532 C533 1.392 . S
C532 C535 1.511 . S
C533 C529 1.376 . S
C533 C532 1.392 . S
C533 H545 0.929 . S
C534 C530 1.531 . S
C534 H546 0.960 . S
C534 H547 0.962 . S
C534 H548 0.960 . S
C535 C532 1.511 . S
C535 H549 0.961 . S
C535 H550 0.961 . S
C535 H551 0.961 . S
C536 C537 1.370 . S
C536 C538 1.363 . S
C536 H552 0.931 . S
C537 C536 1.370 . S
C537 C541 1.408 . S
C538 C536 1.363 . S
C538 C539 1.370 . S
C538 C542 1.524 . S
C539 C531 1.503 . S
C539 C538 1.370 . S
C539 C540 1.403 . S
C540 C539 1.403 . S
C540 C541 1.404 . S
C540 C543 1.539 . S
C541 C537 1.408 . S
C541 C540 1.404 . S
C541 H553 0.930 . S
C542 C538 1.524 . S
C542 H554 0.956 . S
C542 H555 0.961 . S
C542 H556 0.961 . S
C543 C540 1.539 . S
C543 H557 0.958 . S
C543 H558 0.961 . S
C543 H559 0.960 . S
H544 C528 0.931 . S
H545 C533 0.929 . S
H546 C534 0.960 . S
H547 C534 0.962 . S
H548 C534 0.960 . S
H549 C535 0.961 . S
H550 C535 0.961 . S
H551 C535 0.961 . S
H552 C536 0.931 . S
H553 C541 0.930 . S
H554 C542 0.956 . S
H555 C542 0.961 . S
H556 C542 0.961 . S
H557 C543 0.958 . S
H558 C543 0.961 . S
H559 C543 0.960 . S
C560 C561 1.391 . S
C560 C562 1.394 . S
C560 H576 0.931 . S
C561 C560 1.391 . S
C561 C565 1.376 . S
C562 C560 1.394 . S
C562 C563 1.369 . S
C562 C566 1.531 . S
C563 C562 1.369 . S
C563 C564 1.410 . S
C563 C571 1.503 . S
C564 C563 1.410 . S
C564 C565 1.392 . S
C564 C567 1.511 . S
C565 C561 1.376 . S
C565 C564 1.392 . S
C565 H577 0.929 . S
C566 C562 1.531 . S
C566 H578 0.960 . S
C566 H579 0.962 . S
C566 H580 0.960 . S
C567 C564 1.511 . S
C567 H581 0.961 . S
C567 H582 0.961 . S
C567 H583 0.961 . S
C568 C569 1.370 . S
C568 C570 1.363 . S
C568 H584 0.931 . S
C569 C568 1.370 . S
C569 C573 1.408 . S
C570 C568 1.363 . S
C570 C571 1.370 . S
C570 C574 1.524 . S
C571 C563 1.503 . S
C571 C570 1.370 . S
C571 C572 1.403 . S
C572 C571 1.403 . S
C572 C573 1.404 . S
C572 C575 1.539 . S
C573 C569 1.408 . S
C573 C572 1.404 . S
C573 H585 0.930 . S
C574 C570 1.524 . S
C574 H586 0.956 . S
C574 H587 0.961 . S
C574 H588 0.961 . S
C575 C572 1.539 . S
C575 H589 0.958 . S
C575 H590 0.961 . S
C575 H591 0.960 . S
H576 C560 0.931 . S
H577 C565 0.929 . S
H578 C566 0.960 . S
H579 C566 0.962 . S
H580 C566 0.960 . S
H581 C567 0.961 . S
H582 C567 0.961 . S
H583 C567 0.961 . S
H584 C568 0.931 . S
H585 C573 0.930 . S
H586 C574 0.956 . S
H587 C574 0.961 . S
H588 C574 0.961 . S
H589 C575 0.958 . S
H590 C575 0.961 . S
H591 C575 0.960 . S
C592 C593 1.391 . S
C592 C594 1.394 . S
C592 H608 0.931 . S
C593 C592 1.391 . S
C593 C597 1.376 . S
C594 C592 1.394 . S
C594 C595 1.371 . S
C594 C598 1.530 1_565 S
C595 C594 1.371 . S
C595 C596 1.412 . S
C595 C603 1.499 1_565 S
C596 C595 1.412 . S
C596 C597 1.392 . S
C596 C599 1.511 1_565 S
C597 C593 1.376 . S
C597 C596 1.392 . S
C597 H609 0.929 . S
C598 C594 1.530 1_545 S
C598 H610 0.963 . S
C598 H611 0.960 1_545 S
C598 H612 0.960 1_545 S
C599 C596 1.511 1_545 S
C599 H613 0.961 1_545 S
C599 H614 0.961 . S
C599 H615 0.961 . S
C600 C601 1.370 . S
C600 C602 1.363 . S
C600 H616 0.931 . S
C601 C600 1.370 . S
C601 C605 1.408 . S
C602 C600 1.363 . S
C602 C603 1.370 . S
C602 C606 1.524 1_545 S
C603 C595 1.499 1_545 S
C603 C602 1.370 . S
C603 C604 1.403 . S
C604 C603 1.403 . S
C604 C605 1.404 . S
C604 C607 1.539 . S
C605 C601 1.408 . S
C605 C604 1.404 . S
C605 H617 0.930 . S
C606 C602 1.524 1_565 S
C606 H618 0.956 . S
C606 H619 0.961 . S
C606 H620 0.961 . S
C607 C604 1.539 . S
C607 H621 0.958 . S
C607 H622 0.961 . S
C607 H623 0.960 . S
H608 C592 0.931 . S
H609 C597 0.929 . S
H610 C598 0.963 . S
H611 C598 0.960 1_565 S
H612 C598 0.960 1_565 S
H613 C599 0.961 1_565 S
H614 C599 0.961 . S
H615 C599 0.961 . S
H616 C600 0.931 . S
H617 C605 0.930 . S
H618 C606 0.956 . S
H619 C606 0.961 . S
H620 C606 0.961 . S
H621 C607 0.958 . S
H622 C607 0.961 . S
H623 C607 0.960 . S
C624 C625 1.391 . S
C624 C626 1.394 . S
C624 H640 0.931 . S
C625 C624 1.391 . S
C625 C629 1.376 . S
C626 C624 1.394 . S
C626 C627 1.368 1_565 S
C626 C630 1.531 1_565 S
C627 C626 1.368 1_545 S
C627 C628 1.404 1_545 S
C627 C635 1.509 1_554 S
C628 C627 1.404 1_565 S
C628 C629 1.392 . S
C628 C631 1.511 . S
C629 C625 1.376 . S
C629 C628 1.392 . S
C629 H641 0.929 . S
C630 C626 1.531 1_545 S
C630 H642 0.960 . S
C630 H643 0.962 1_455 S
C630 H644 0.960 1_455 S
C631 C628 1.511 . S
C631 H645 0.961 . S
C631 H646 0.961 1_554 S
C631 H647 0.961 1_565 S
C632 C633 1.370 . S
C632 C634 1.363 . S
C632 H648 0.931 . S
C633 C632 1.370 . S
C633 C637 1.408 . S
C634 C632 1.363 . S
C634 C635 1.370 . S
C634 C638 1.524 1_545 S
C635 C627 1.509 1_556 S
C635 C634 1.370 . S
C635 C636 1.403 . S
C636 C635 1.403 . S
C636 C637 1.404 . S
C636 C639 1.539 1_556 S
C637 C633 1.408 . S
C637 C636 1.404 . S
C637 H649 0.930 . S
C638 C634 1.524 1_565 S
C638 H650 0.956 . S
C638 H651 0.961 . S
C638 H652 0.961 . S
C639 C636 1.539 1_554 S
C639 H653 0.958 . S
C639 H654 0.961 . S
C639 H655 0.960 . S
H640 C624 0.931 . S
H641 C629 0.929 . S
H642 C630 0.960 . S
H643 C630 0.962 1_655 S
H644 C630 0.960 1_655 S
H645 C631 0.961 . S
H646 C631 0.961 1_556 S
H647 C631 0.961 1_545 S
H648 C632 0.931 . S
H649 C637 0.930 . S
H650 C638 0.956 . S
H651 C638 0.961 . S
H652 C638 0.961 . S
H653 C639 0.958 . S
H654 C639 0.961 . S
H655 C639 0.960 . S
C656 C657 1.391 . S
C656 C658 1.394 . S
C656 H672 0.931 . S
C657 C656 1.391 . S
C657 C661 1.376 . S
C658 C656 1.394 . S
C658 C659 1.369 . S
C658 C662 1.531 . S
C659 C658 1.369 . S
C659 C660 1.410 . S
C659 C667 1.503 . S
C660 C659 1.410 . S
C660 C661 1.392 . S
C660 C663 1.511 . S
C661 C657 1.376 . S
C661 C660 1.392 . S
C661 H673 0.929 . S
C662 C658 1.531 . S
C662 H674 0.960 . S
C662 H675 0.962 . S
C662 H676 0.960 . S
C663 C660 1.511 . S
C663 H677 0.961 . S
C663 H678 0.961 . S
C663 H679 0.961 . S
C664 C665 1.370 . S
C664 C666 1.363 . S
C664 H680 0.931 . S
C665 C664 1.370 . S
C665 C669 1.408 . S
C666 C664 1.363 . S
C666 C667 1.370 . S
C666 C670 1.524 . S
C667 C659 1.503 . S
C667 C666 1.370 . S
C667 C668 1.403 . S
C668 C667 1.403 . S
C668 C669 1.404 . S
C668 C671 1.539 . S
C669 C665 1.408 . S
C669 C668 1.404 . S
C669 H681 0.930 . S
C670 C666 1.524 . S
C670 H682 0.956 . S
C670 H683 0.961 . S
C670 H684 0.961 . S
C671 C668 1.539 . S
C671 H685 0.958 . S
C671 H686 0.961 . S
C671 H687 0.960 . S
H672 C656 0.931 . S
H673 C661 0.929 . S
H674 C662 0.960 . S
H675 C662 0.962 . S
H676 C662 0.960 . S
H677 C663 0.961 . S
H678 C663 0.961 . S
H679 C663 0.961 . S
H680 C664 0.931 . S
H681 C669 0.930 . S
H682 C670 0.956 . S
H683 C670 0.961 . S
H684 C670 0.961 . S
H685 C671 0.958 . S
H686 C671 0.961 . S
H687 C671 0.960 . S
C688 C689 1.391 . S
C688 C690 1.394 . S
C688 H704 0.931 . S
C689 C688 1.391 . S
C689 C693 1.376 . S
C690 C688 1.394 . S
C690 C691 1.369 . S
C690 C694 1.531 . S
C691 C690 1.369 . S
C691 C692 1.410 . S
C691 C699 1.503 . S
C692 C691 1.410 . S
C692 C693 1.392 . S
C692 C695 1.511 . S
C693 C689 1.376 . S
C693 C692 1.392 . S
C693 H705 0.929 . S
C694 C690 1.531 . S
C694 H706 0.960 . S
C694 H707 0.962 . S
C694 H708 0.960 . S
C695 C692 1.511 . S
C695 H709 0.961 . S
C695 H710 0.961 . S
C695 H711 0.961 . S
C696 C697 1.370 1_545 S
C696 C698 1.363 . S
C696 H712 0.931 . S
C697 C696 1.370 1_565 S
C697 C701 1.408 1_565 S
C698 C696 1.363 . S
C698 C699 1.370 . S
C698 C702 1.524 . S
C699 C691 1.503 . S
C699 C698 1.370 . S
C699 C700 1.403 . S
C700 C699 1.403 . S
C700 C701 1.404 . S
C700 C703 1.539 . S
C701 C697 1.408 1_545 S
C701 C700 1.404 . S
C701 H713 0.930 . S
C702 C698 1.524 . S
C702 H714 0.956 . S
C702 H715 0.961 . S
C702 H716 0.961 . S
C703 C700 1.539 . S
C703 H717 0.958 . S
C703 H718 0.961 . S
C703 H719 0.960 . S
H704 C688 0.931 . S
H705 C693 0.929 . S
H706 C694 0.960 . S
H707 C694 0.962 . S
H708 C694 0.960 . S
H709 C695 0.961 . S
H710 C695 0.961 . S
H711 C695 0.961 . S
H712 C696 0.931 . S
H713 C701 0.930 . S
H714 C702 0.956 . S
H715 C702 0.961 . S
H716 C702 0.961 . S
H717 C703 0.958 . S
H718 C703 0.961 . S
H719 C703 0.960 . S
C720 C721 1.391 . S
C720 C722 1.394 . S
C720 H736 0.931 . S
C721 C720 1.391 . S
C721 C725 1.376 . S
C722 C720 1.394 . S
C722 C723 1.369 . S
C722 C726 1.531 . S
C723 C722 1.369 . S
C723 C724 1.410 . S
C723 C731 1.503 . S
C724 C723 1.410 . S
C724 C725 1.392 . S
C724 C727 1.511 . S
C725 C721 1.376 . S
C725 C724 1.392 . S
C725 H737 0.929 . S
C726 C722 1.531 . S
C726 H738 0.960 . S
C726 H739 0.962 . S
C726 H740 0.960 . S
C727 C724 1.511 . S
C727 H741 0.961 . S
C727 H742 0.961 . S
C727 H743 0.961 . S
C728 C729 1.370 . S
C728 C730 1.363 1_655 S
C728 H744 0.931 . S
C729 C728 1.370 . S
C729 C733 1.408 . S
C730 C728 1.363 1_455 S
C730 C731 1.370 . S
C730 C734 1.524 . S
C731 C723 1.503 . S
C731 C730 1.370 . S
C731 C732 1.403 . S
C732 C731 1.403 . S
C732 C733 1.404 1_455 S
C732 C735 1.539 . S
C733 C729 1.408 . S
C733 C732 1.404 1_655 S
C733 H745 0.930 . S
C734 C730 1.524 . S
C734 H746 0.956 . S
C734 H747 0.961 . S
C734 H748 0.961 . S
C735 C732 1.539 . S
C735 H749 0.958 . S
C735 H750 0.961 . S
C735 H751 0.960 . S
H736 C720 0.931 . S
H737 C725 0.929 . S
H738 C726 0.960 . S
H739 C726 0.962 . S
H740 C726 0.960 . S
H741 C727 0.961 . S
H742 C727 0.961 . S
H743 C727 0.961 . S
H744 C728 0.931 . S
H745 C733 0.930 . S
H746 C734 0.956 . S
H747 C734 0.961 . S
H748 C734 0.961 . S
H749 C735 0.958 . S
H750 C735 0.961 . S
H751 C735 0.960 . S
C752 C753 1.391 . S
C752 C754 1.394 . S
C752 H768 0.931 1_455 S
C753 C752 1.391 . S
C753 C757 1.376 . S
C754 C752 1.394 . S
C754 C755 1.369 . S
C754 C758 1.531 1_455 S
C755 C754 1.369 . S
C755 C756 1.410 . S
C755 C763 1.503 . S
C756 C755 1.410 . S
C756 C757 1.392 . S
C756 C759 1.511 . S
C757 C753 1.376 . S
C757 C756 1.392 . S
C757 H769 0.929 . S
C758 C754 1.531 1_655 S
C758 H770 0.960 1_655 S
C758 H771 0.962 . S
C758 H772 0.960 . S
C759 C756 1.511 . S
C759 H773 0.961 . S
C759 H774 0.961 . S
C759 H775 0.961 . S
C760 C761 1.370 . S
C760 C762 1.363 . S
C760 H776 0.931 . S
C761 C760 1.370 . S
C761 C765 1.408 . S
C762 C760 1.363 . S
C762 C763 1.370 . S
C762 C766 1.530 . S
C763 C755 1.503 . S
C763 C762 1.370 . S
C763 C764 1.403 . S
C764 C763 1.403 . S
C764 C765 1.404 . S
C764 C767 1.539 . S
C765 C761 1.408 . S
C765 C764 1.404 . S
C765 H777 0.930 . S
C766 C762 1.530 . S
C766 H778 0.948 1_455 S
C766 H779 0.967 . S
C766 H780 0.956 1_455 S
C767 C764 1.539 . S
C767 H781 0.958 . S
C767 H782 0.961 . S
C767 H783 0.960 . S
H768 C752 0.931 1_655 S
H769 C757 0.929 . S
H770 C758 0.960 1_455 S
H771 C758 0.962 . S
H772 C758 0.960 . S
H773 C759 0.961 . S
H774 C759 0.961 . S
H775 C759 0.961 . S
H776 C760 0.931 . S
H777 C765 0.930 . S
H778 C766 0.948 1_655 S
H779 C766 0.967 . S
H780 C766 0.956 1_655 S
H781 C767 0.958 . S
H782 C767 0.961 . S
H783 C767 0.960 . S
C784 C785 1.391 . S
C784 C786 1.394 . S
C784 H800 0.931 . S
C785 C784 1.391 . S
C785 C789 1.376 . S
C786 C784 1.394 . S
C786 C787 1.369 . S
C786 C790 1.531 . S
C787 C786 1.369 . S
C787 C788 1.410 . S
C787 C795 1.503 . S
C788 C787 1.410 . S
C788 C789 1.392 . S
C788 C791 1.511 . S
C789 C785 1.376 . S
C789 C788 1.392 . S
C789 H801 0.929 . S
C790 C786 1.531 . S
C790 H802 0.960 . S
C790 H803 0.962 . S
C790 H804 0.960 . S
C791 C788 1.511 . S
C791 H805 0.961 . S
C791 H806 0.961 . S
C791 H807 0.961 . S
C792 C793 1.370 . S
C792 C794 1.363 . S
C792 H808 0.931 . S
C793 C792 1.370 . S
C793 C797 1.408 . S
C794 C792 1.363 . S
C794 C795 1.370 . S
C794 C798 1.524 . S
C795 C787 1.503 . S
C795 C794 1.370 . S
C795 C796 1.403 . S
C796 C795 1.403 . S
C796 C797 1.404 . S
C796 C799 1.539 . S
C797 C793 1.408 . S
C797 C796 1.404 . S
C797 H809 0.930 . S
C798 C794 1.524 . S
C798 H810 0.956 . S
C798 H811 0.961 . S
C798 H812 0.961 . S
C799 C796 1.539 . S
C799 H813 0.958 . S
C799 H814 0.961 . S
C799 H815 0.960 . S
H800 C784 0.931 . S
H801 C789 0.929 . S
H802 C790 0.960 . S
H803 C790 0.962 . S
H804 C790 0.960 . S
H805 C791 0.961 . S
H806 C791 0.961 . S
H807 C791 0.961 . S
H808 C792 0.931 . S
H809 C797 0.930 . S
H810 C798 0.956 . S
H811 C798 0.961 . S
H812 C798 0.961 . S
H813 C799 0.958 . S
H814 C799 0.961 . S
H815 C799 0.960 . S
C816 C817 1.391 1_655 S
C816 C818 1.394 . S
C816 H832 0.931 . S
C817 C816 1.391 1_455 S
C817 C821 1.376 . S
C818 C816 1.394 . S
C818 C819 1.369 1_655 S
C818 C822 1.531 . S
C819 C818 1.369 1_455 S
C819 C820 1.410 . S
C819 C827 1.503 . S
C820 C819 1.410 . S
C820 C821 1.392 . S
C820 C823 1.511 . S
C821 C817 1.376 . S
C821 C820 1.392 . S
C821 H833 0.929 . S
C822 C818 1.531 . S
C822 H834 0.960 . S
C822 H835 0.962 . S
C822 H836 0.960 . S
C823 C820 1.511 . S
C823 H837 0.961 . S
C823 H838 0.961 . S
C823 H839 0.961 . S
C824 C825 1.370 . S
C824 C826 1.363 . S
C824 H840 0.931 . S
C825 C824 1.370 . S
C825 C829 1.408 . S
C826 C824 1.363 . S
C826 C827 1.370 . S
C826 C830 1.524 . S
C827 C819 1.503 . S
C827 C826 1.370 . S
C827 C828 1.403 . S
C828 C827 1.403 . S
C828 C829 1.404 . S
C828 C831 1.539 . S
C829 C825 1.408 . S
C829 C828 1.404 . S
C829 H841 0.930 . S
C830 C826 1.524 . S
C830 H842 0.956 . S
C830 H843 0.961 . S
C830 H844 0.961 . S
C831 C828 1.539 . S
C831 H845 0.958 1_455 S
C831 H846 0.961 . S
C831 H847 0.960 . S
H832 C816 0.931 . S
H833 C821 0.929 . S
H834 C822 0.960 . S
H835 C822 0.962 . S
H836 C822 0.960 . S
H837 C823 0.961 . S
H838 C823 0.961 . S
H839 C823 0.961 . S
H840 C824 0.931 . S
H841 C829 0.930 . S
H842 C830 0.956 . S
H843 C830 0.961 . S
H844 C830 0.961 . S
H845 C831 0.958 1_655 S
H846 C831 0.961 . S
H847 C831 0.960 . S
C848 C849 1.391 . S
C848 C850 1.394 . S
C848 H864 0.931 . S
C849 C848 1.391 . S
C849 C853 1.376 . S
C850 C848 1.394 . S
C850 C851 1.369 . S
C850 C854 1.531 . S
C851 C850 1.369 . S
C851 C852 1.410 . S
C851 C859 1.503 . S
C852 C851 1.410 . S
C852 C853 1.392 . S
C852 C855 1.511 . S
C853 C849 1.376 . S
C853 C852 1.392 . S
C853 H865 0.929 . S
C854 C850 1.531 . S
C854 H866 0.960 . S
C854 H867 0.962 . S
C854 H868 0.960 . S
C855 C852 1.511 . S
C855 H869 0.961 . S
C855 H870 0.961 . S
C855 H871 0.961 . S
C856 C857 1.370 . S
C856 C858 1.363 . S
C856 H872 0.931 . S
C857 C856 1.370 . S
C857 C861 1.408 . S
C858 C856 1.363 . S
C858 C859 1.370 . S
C858 C862 1.524 . S
C859 C851 1.503 . S
C859 C858 1.370 . S
C859 C860 1.403 . S
C860 C859 1.403 . S
C860 C861 1.404 . S
C860 C863 1.539 . S
C861 C857 1.408 . S
C861 C860 1.404 . S
C861 H873 0.930 . S
C862 C858 1.524 . S
C862 H874 0.956 . S
C862 H875 0.961 . S
C862 H876 0.961 . S
C863 C860 1.539 . S
C863 H877 0.958 . S
C863 H878 0.961 . S
C863 H879 0.960 . S
H864 C848 0.931 . S
H865 C853 0.929 . S
H866 C854 0.960 . S
H867 C854 0.962 . S
H868 C854 0.960 . S
H869 C855 0.961 . S
H870 C855 0.961 . S
H871 C855 0.961 . S
H872 C856 0.931 . S
H873 C861 0.930 . S
H874 C862 0.956 . S
H875 C862 0.961 . S
H876 C862 0.961 . S
H877 C863 0.958 . S
H878 C863 0.961 . S
H879 C863 0.960 . S
C880 C881 1.391 . S
C880 C882 1.394 . S
C880 H896 0.931 . S
C881 C880 1.391 . S
C881 C885 1.376 . S
C882 C880 1.394 . S
C882 C883 1.369 . S
C882 C886 1.531 . S
C883 C882 1.369 . S
C883 C884 1.410 . S
C883 C891 1.503 . S
C884 C883 1.410 . S
C884 C885 1.392 . S
C884 C887 1.511 . S
C885 C881 1.376 . S
C885 C884 1.392 . S
C885 H897 0.929 . S
C886 C882 1.531 . S
C886 H898 0.960 . S
C886 H899 0.962 . S
C886 H900 0.960 . S
C887 C884 1.511 . S
C887 H901 0.961 . S
C887 H902 0.961 . S
C887 H903 0.961 . S
C888 C889 1.370 . S
C888 C890 1.363 . S
C888 H904 0.931 . S
C889 C888 1.370 . S
C889 C893 1.408 . S
C890 C888 1.363 . S
C890 C891 1.370 . S
C890 C894 1.524 . S
C891 C883 1.503 . S
C891 C890 1.370 . S
C891 C892 1.403 . S
C892 C891 1.403 . S
C892 C893 1.404 . S
C892 C895 1.539 . S
C893 C889 1.408 . S
C893 C892 1.404 . S
C893 H905 0.930 . S
C894 C890 1.524 . S
C894 H906 0.956 . S
C894 H907 0.961 . S
C894 H908 0.961 . S
C895 C892 1.539 . S
C895 H909 0.958 . S
C895 H910 0.961 . S
C895 H911 0.960 . S
H896 C880 0.931 . S
H897 C885 0.929 . S
H898 C886 0.960 . S
H899 C886 0.962 . S
H900 C886 0.960 . S
H901 C887 0.961 . S
H902 C887 0.961 . S
H903 C887 0.961 . S
H904 C888 0.931 . S
H905 C893 0.930 . S
H906 C894 0.956 . S
H907 C894 0.961 . S
H908 C894 0.961 . S
H909 C895 0.958 . S
H910 C895 0.961 . S
H911 C895 0.960 . S
C273 C20 1.461 . S
C281 C190 1.461 . S
C305 C224 1.487 . S
C313 C54 1.479 . S
C337 C88 1.466 . S
C345 C258 1.459 . S
C369 C156 1.460 . S
C377 C122 1.476 . S
C401 C33 1.139 . S
C409 C138 1.168 . S
C433 C67 1.169 . S
C441 C172 1.154 1_655 S
C465 C237 1.141 . S
C473 C70 1.154 . S
C497 C104 1.175 1_655 S
C505 C271 1.151 . S
C529 C135 1.146 . S
C537 C240 1.163 . S
C561 C203 1.136 . S
C569 C36 1.168 . S
C593 C206 1.171 . S
C601 C101 1.149 . S
C625 C2 1.160 . S
C633 C169 1.145 . S
C657 C9 1.509 . S
C665 C5 1.564 . S
C689 C43 1.433 . S
C697 C39 1.575 . S
C721 C77 1.453 . S
C729 C73 1.571 . S
C753 C111 1.436 . S
C761 C107 1.575 . S
C785 C141 1.574 . S
C793 C145 1.465 . S
C817 C179 1.473 . S
C825 C175 1.568 . S
C849 C213 1.453 1_455 S
C857 C209 1.571 . S
C881 C243 1.571 1_565 S
C889 C247 1.466 . S
