# Generated by pormake.
# Topology zfe, (5)-cn, num edge types: 1
# Building blocks:
#     Node 0, Type 0, BuildingBlock: XOMCOT_clean_sbu_0, # of connection points: 5
#     Node 1, Type 0, BuildingBlock: XOMCOT_clean_sbu_0, # of connection points: 5
#     Node 2, Type 0, BuildingBlock: XOMCOT_clean_sbu_0, # of connection points: 5
#     Node 3, Type 0, BuildingBlock: XOMCOT_clean_sbu_0, # of connection points: 5
#     Node 4, Type 0, BuildingBlock: XOMCOT_clean_sbu_0, # of connection points: 5
#     Node 5, Type 0, BuildingBlock: XOMCOT_clean_sbu_0, # of connection points: 5
#     Node 6, Type 0, BuildingBlock: XOMCOT_clean_sbu_0, # of connection points: 5
#     Node 7, Type 0, BuildingBlock: XOMCOT_clean_sbu_0, # of connection points: 5
#     Node 8, Type 0, BuildingBlock: XOMCOT_clean_sbu_0, # of connection points: 5
#     Node 9, Type 0, BuildingBlock: XOMCOT_clean_sbu_0, # of connection points: 5
#     Node 10, Type 0, BuildingBlock: XOMCOT_clean_sbu_0, # of connection points: 5
#     Node 11, Type 0, BuildingBlock: XOMCOT_clean_sbu_0, # of connection points: 5
#     Node 12, Type 0, BuildingBlock: XOMCOT_clean_sbu_0, # of connection points: 5
#     Node 13, Type 0, BuildingBlock: XOMCOT_clean_sbu_0, # of connection points: 5
#     Node 14, Type 0, BuildingBlock: XOMCOT_clean_sbu_0, # of connection points: 5
#     Node 15, Type 0, BuildingBlock: XOMCOT_clean_sbu_0, # of connection points: 5
#     Edge 16, Type (0, 0), None
#     Edge 17, Type (0, 0), None
#     Edge 18, Type (0, 0), None
#     Edge 19, Type (0, 0), None
#     Edge 20, Type (0, 0), None
#     Edge 21, Type (0, 0), None
#     Edge 22, Type (0, 0), None
#     Edge 23, Type (0, 0), None
#     Edge 24, Type (0, 0), None
#     Edge 25, Type (0, 0), None
#     Edge 26, Type (0, 0), None
#     Edge 27, Type (0, 0), None
#     Edge 28, Type (0, 0), None
#     Edge 29, Type (0, 0), None
#     Edge 30, Type (0, 0), None
#     Edge 31, Type (0, 0), None
#     Edge 32, Type (0, 0), None
#     Edge 33, Type (0, 0), None
#     Edge 34, Type (0, 0), None
#     Edge 35, Type (0, 0), None
#     Edge 36, Type (0, 0), None
#     Edge 37, Type (0, 0), None
#     Edge 38, Type (0, 0), None
#     Edge 39, Type (0, 0), None
#     Edge 40, Type (0, 0), None
#     Edge 41, Type (0, 0), None
#     Edge 42, Type (0, 0), None
#     Edge 43, Type (0, 0), None
#     Edge 44, Type (0, 0), None
#     Edge 45, Type (0, 0), None
#     Edge 46, Type (0, 0), None
#     Edge 47, Type (0, 0), None
#     Edge 48, Type (0, 0), None
#     Edge 49, Type (0, 0), None
#     Edge 50, Type (0, 0), None
#     Edge 51, Type (0, 0), None
#     Edge 52, Type (0, 0), None
#     Edge 53, Type (0, 0), None
#     Edge 54, Type (0, 0), None
#     Edge 55, Type (0, 0), None
# Relax obj value: 0.183
# Max RMSD: 0.160
# Mean RMSD: 0.160
data_MOF--net-zfe--node1-XOMCOT_clean_sbu_0--edge1-none
_symmetry_space_group_name_H-M    P1
_symmetry_Int_Tables_number       1
_symmetry_cell_setting            triclinic
loop_
_symmetry_equiv_pos_as_xyz
'x, y, z'
_cell_length_a     29.069304
_cell_length_b     29.069437
_cell_length_c     12.47344
_cell_angle_alpha  89.999563
_cell_angle_beta   90.000081
_cell_angle_gamma 89.999998
loop_
_atom_site_label
_atom_site_type_symbol
_atom_site_fract_x
_atom_site_fract_y
_atom_site_fract_z
_atom_type_partial_charge
Co0 Co 0.04293 0.25641 0.10289 0.0
C1 C 0.11927 0.3269 0.10366 0.0
C2 C 0.06927 0.33909 0.98104 0.0
C3 C 0.10235 0.37265 0.97358 0.0
N4 N 0.08059 0.309 0.05962 0.0
N5 N 0.13394 0.36431 0.04933 0.0
H6 H 0.13475 0.3152 0.17747 0.0
H7 H 0.03763 0.33869 0.93573 0.0
C8 C 0.03033 0.25324 0.86479 0.0
O9 O 0.07522 0.25242 0.85277 0.0
N10 N 1.00288 0.20583 0.14175 0.0
C11 C 1.01369 0.16565 0.18957 0.0
C12 C 0.97721 0.13567 0.17735 0.0
C13 C 0.95962 0.20033 0.10449 0.0
N14 N 0.94364 0.15773 0.1235 0.0
C15 C 0.1296 0.21137 0.12066 0.0
C16 C 0.10152 0.13178 1.01919 0.0
C17 C 0.13895 0.13016 0.08949 0.0
C18 C 0.15473 0.17092 0.13524 0.0
C19 C 0.07798 0.17332 1.00424 0.0
N20 N 0.09013 0.21185 0.06095 0.0
H21 H 0.13893 0.2404 0.16908 0.0
H22 H 0.04603 0.17228 0.96015 0.0
H23 H 0.04684 0.15765 0.22424 0.0
H24 H 0.94116 0.22607 0.05886 0.0
O25 O 0.06184 0.26327 0.25005 0.0
O26 O 1.00101 0.2971 0.17881 0.0
O27 O 1.01244 0.25569 0.95782 0.0
C28 C 0.02555 0.2884 0.26412 0.0
H29 H 0.10145 0.40283 0.92281 0.0
H30 H 0.97576 0.10021 0.20372 0.0
H31 H 0.08869 0.10057 0.9824 0.0
H32 H 0.18358 0.17053 0.19018 0.0
Co33 Co 0.7742 0.04293 0.10289 0.0
C34 C 0.70369 0.11926 0.10367 0.0
C35 C 0.69152 0.06928 0.98102 0.0
C36 C 0.65796 0.10235 0.97357 0.0
N37 N 0.7216 0.08059 0.05962 0.0
N38 N 0.66629 0.13394 0.04933 0.0
H39 H 0.71539 0.13474 0.17749 0.0
H40 H 0.69193 0.03764 0.9357 0.0
C41 C 0.77737 0.03033 0.86479 0.0
O42 O 0.7782 0.07522 0.85276 0.0
N43 N 0.82478 1.00288 0.14175 0.0
C44 C 0.86496 1.01369 0.18957 0.0
C45 C 0.89493 0.97721 0.17735 0.0
C46 C 0.83027 0.95962 0.10448 0.0
N47 N 0.87288 0.94364 0.1235 0.0
C48 C 0.81922 0.1296 0.12065 0.0
C49 C 0.89883 0.10153 1.01923 0.0
C50 C 0.90044 0.13895 0.08954 0.0
C51 C 0.85967 0.15473 0.13526 0.0
C52 C 0.85729 0.07798 1.00426 0.0
N53 N 0.81875 0.09014 0.06095 0.0
H54 H 0.79019 0.13894 0.16907 0.0
H55 H 0.85833 0.04603 0.96017 0.0
H56 H 0.87295 0.04684 0.22425 0.0
H57 H 0.80454 0.94116 0.05885 0.0
O58 O 0.76734 0.06184 0.25006 0.0
O59 O 0.73351 1.00101 0.17882 0.0
O60 O 0.77491 1.01244 0.95782 0.0
C61 C 0.74221 0.02555 0.26412 0.0
H62 H 0.62778 0.10146 0.92278 0.0
H63 H 0.93039 0.97576 0.20372 0.0
H64 H 0.93004 0.0887 0.98246 0.0
H65 H 0.86005 0.18359 0.1902 0.0
Co66 Co 0.98767 0.7742 0.10287 0.0
C67 C 0.91134 0.70369 0.10365 0.0
C68 C 0.96133 0.69152 0.981 0.0
C69 C 0.92825 0.65796 0.97355 0.0
N70 N 0.95001 0.7216 0.05961 0.0
N71 N 0.89666 0.66629 0.04932 0.0
H72 H 0.89586 0.71539 0.17748 0.0
H73 H 0.99297 0.69193 0.93569 0.0
C74 C 1.00027 0.77737 0.86478 0.0
O75 O 0.95538 0.7782 0.85275 0.0
N76 N 0.02773 0.82478 0.14173 0.0
C77 C 0.01691 0.86496 0.18957 0.0
C78 C 0.0534 0.89493 0.17734 0.0
C79 C 0.07098 0.83028 0.10446 0.0
N80 N 0.08697 0.87288 0.12348 0.0
C81 C 0.901 0.81923 0.12064 0.0
C82 C 0.92908 0.89883 1.01923 0.0
C83 C 0.89165 0.90044 0.08954 0.0
C84 C 0.87587 0.85967 0.13525 0.0
C85 C 0.95262 0.85729 1.00425 0.0
N86 N 0.94047 0.81875 0.06094 0.0
H87 H 0.89167 0.79019 0.16905 0.0
H88 H 0.98457 0.85833 0.96016 0.0
H89 H 0.98377 0.87295 0.22424 0.0
H90 H 0.08944 0.80454 0.05883 0.0
O91 O 0.96876 0.76734 0.25004 0.0
O92 O 0.0296 0.73351 0.1788 0.0
O93 O 0.01816 0.77491 0.9578 0.0
C94 C 1.00505 0.74221 0.26411 0.0
H95 H 0.92915 0.62778 0.92276 0.0
H96 H 0.05485 0.93039 0.20373 0.0
H97 H 0.94191 0.93004 0.98246 0.0
H98 H 0.84702 0.86005 0.19019 0.0
Co99 Co 0.25641 0.98767 0.10287 0.0
C100 C 0.32691 0.91134 0.10366 0.0
C101 C 0.33908 0.96132 0.981 0.0
C102 C 0.37264 0.92824 0.97356 0.0
N103 N 0.30901 0.95001 0.05961 0.0
N104 N 0.36432 0.89666 0.04933 0.0
H105 H 0.31521 0.89586 0.17749 0.0
H106 H 0.33868 0.99296 0.93568 0.0
C107 C 0.25324 1.00027 0.86477 0.0
O108 O 0.25241 0.95538 0.85275 0.0
N109 N 0.20583 0.02773 0.14172 0.0
C110 C 0.16565 0.01691 0.18956 0.0
C111 C 0.13567 0.05339 0.17732 0.0
C112 C 0.20033 0.07098 0.10443 0.0
N113 N 0.15772 0.08695 0.12342 0.0
C114 C 0.21138 0.901 0.12064 0.0
C115 C 0.13178 0.92908 1.01922 0.0
C116 C 0.13017 0.89165 0.08953 0.0
C117 C 0.17094 0.87587 0.13525 0.0
C118 C 0.17332 0.95262 1.00424 0.0
N119 N 0.21186 0.94047 0.06094 0.0
H120 H 0.24041 0.89167 0.16905 0.0
H121 H 0.17227 0.98457 0.96016 0.0
H122 H 0.15767 0.98377 0.22426 0.0
H123 H 0.22606 0.08944 0.05879 0.0
O124 O 0.26327 0.96876 0.25004 0.0
O125 O 0.2971 0.02959 0.17879 0.0
O126 O 0.2557 0.01816 0.9578 0.0
C127 C 0.2884 1.00505 0.2641 0.0
H128 H 0.40282 0.92914 0.92277 0.0
H129 H 0.10022 0.05484 0.20371 0.0
H130 H 0.10057 0.94191 0.98245 0.0
H131 H 0.17055 0.84701 0.19019 0.0
Co132 Co 0.04293 0.77419 0.53253 0.0
C133 C 0.11926 0.7037 0.53176 0.0
C134 C 0.06927 0.69152 0.65439 0.0
C135 C 0.10235 0.65796 0.66184 0.0
N136 N 0.08059 0.7216 0.57579 0.0
N137 N 0.13394 0.66629 0.58609 0.0
H138 H 0.13475 0.7154 0.45795 0.0
H139 H 0.03763 0.69192 0.69969 0.0
C140 C 0.03033 0.77737 0.77063 0.0
O141 O 0.07522 0.77819 0.78265 0.0
N142 N 1.00287 0.82478 0.49367 0.0
C143 C 1.01369 0.86496 0.44585 0.0
C144 C 0.97721 0.89493 0.45807 0.0
C145 C 0.95962 0.83027 0.53094 0.0
N146 N 0.94363 0.87288 0.51192 0.0
C147 C 0.1296 0.81923 0.51476 0.0
C148 C 0.10152 0.89882 0.61622 0.0
C149 C 0.13895 0.90044 0.54592 0.0
C150 C 0.15473 0.85967 0.50018 0.0
C151 C 0.07798 0.85728 0.63117 0.0
N152 N 0.09013 0.81875 0.57447 0.0
H153 H 0.13893 0.7902 0.46634 0.0
H154 H 0.04603 0.85832 0.67526 0.0
H155 H 0.04684 0.87295 0.41118 0.0
H156 H 0.94116 0.80454 0.57657 0.0
O157 O 0.06185 0.76734 0.38536 0.0
O158 O 1.001 0.7335 0.45663 0.0
O159 O 1.01244 0.77491 0.6776 0.0
C160 C 0.02555 0.74222 0.37134 0.0
H161 H 0.10144 0.62777 0.71262 0.0
H162 H 0.97576 0.93039 0.4317 0.0
H163 H 0.08869 0.93003 0.65301 0.0
H164 H 0.18358 0.86007 0.44523 0.0
Co165 Co 0.25641 0.04292 0.53253 0.0
C166 C 0.32691 0.11926 0.53175 0.0
C167 C 0.33909 0.06927 0.65438 0.0
C168 C 0.37265 0.10235 0.66183 0.0
N169 N 0.30901 0.08059 0.57579 0.0
N170 N 0.36432 0.13394 0.58608 0.0
H171 H 0.31521 0.13475 0.45794 0.0
H172 H 0.33869 0.03763 0.69969 0.0
C173 C 0.25324 0.03033 0.77063 0.0
O174 O 0.25242 0.07522 0.78265 0.0
N175 N 0.20583 1.00287 0.49368 0.0
C176 C 0.16565 1.01369 0.44585 0.0
C177 C 0.13567 0.97721 0.4581 0.0
C178 C 0.20033 0.95962 0.53097 0.0
N179 N 0.15772 0.94364 0.51199 0.0
C180 C 0.21138 0.12959 0.51476 0.0
C181 C 0.13179 0.10152 0.61623 0.0
C182 C 0.13017 0.13894 0.54593 0.0
C183 C 0.17093 0.15472 0.50018 0.0
C184 C 0.17332 0.07797 0.63118 0.0
N185 N 0.21186 0.09013 0.57447 0.0
H186 H 0.24041 0.13893 0.46634 0.0
H187 H 0.17229 0.04602 0.67526 0.0
H188 H 0.15767 0.04683 0.41116 0.0
H189 H 0.22607 0.94116 0.5766 0.0
O190 O 0.26327 0.06184 0.38536 0.0
O191 O 0.29711 1.001 0.45663 0.0
O192 O 0.2557 1.01244 0.6776 0.0
C193 C 0.28839 0.02554 0.37134 0.0
H194 H 0.40283 0.10145 0.71262 0.0
H195 H 0.10022 0.97576 0.43171 0.0
H196 H 0.10058 0.08869 0.65302 0.0
H197 H 0.17054 0.18358 0.44524 0.0
Co198 Co 0.98768 0.25641 0.53255 0.0
C199 C 0.91134 0.3269 0.53177 0.0
C200 C 0.96133 0.33908 0.6544 0.0
C201 C 0.92825 0.37264 0.66185 0.0
N202 N 0.95002 0.309 0.5758 0.0
N203 N 0.89666 0.36431 0.58609 0.0
H204 H 0.89586 0.3152 0.45795 0.0
H205 H 0.99297 0.33868 0.69971 0.0
C206 C 1.00027 0.25324 0.77064 0.0
O207 O 0.95538 0.25241 0.78267 0.0
N208 N 0.02773 0.20583 0.4937 0.0
C209 C 0.01692 0.16565 0.44586 0.0
C210 C 0.0534 0.13567 0.4581 0.0
C211 C 0.07099 0.20032 0.53099 0.0
N212 N 0.08696 0.15771 0.512 0.0
C213 C 0.90101 0.21137 0.51478 0.0
C214 C 0.92909 0.13178 0.61623 0.0
C215 C 0.89166 0.13016 0.54593 0.0
C216 C 0.87588 0.17093 0.50019 0.0
C217 C 0.95263 0.17332 0.63119 0.0
N218 N 0.94048 0.21185 0.57448 0.0
H219 H 0.89167 0.2404 0.46636 0.0
H220 H 0.98458 0.17228 0.67528 0.0
H221 H 0.98378 0.15766 0.41116 0.0
H222 H 0.08944 0.22606 0.57662 0.0
O223 O 0.96876 0.26326 0.38538 0.0
O224 O 0.02961 0.2971 0.45665 0.0
O225 O 0.01817 0.25569 0.67762 0.0
C226 C 1.00506 0.28838 0.37136 0.0
H227 H 0.92915 0.40283 0.71263 0.0
H228 H 0.05485 0.10022 0.43171 0.0
H229 H 0.94192 0.10057 0.65302 0.0
H230 H 0.84702 0.17053 0.44525 0.0
Co231 Co 0.7742 0.98767 0.53255 0.0
C232 C 0.70369 0.91134 0.53175 0.0
C233 C 0.69152 0.96132 0.65442 0.0
C234 C 0.65796 0.92824 0.66187 0.0
N235 N 0.7216 0.95001 0.57581 0.0
N236 N 0.66629 0.89666 0.58609 0.0
H237 H 0.71539 0.89587 0.45792 0.0
H238 H 0.69193 0.99296 0.69975 0.0
C239 C 0.77738 1.00027 0.77065 0.0
O240 O 0.7782 0.95538 0.78268 0.0
N241 N 0.82478 0.02773 0.4937 0.0
C242 C 0.86495 0.01691 0.44586 0.0
C243 C 0.89493 0.05339 0.4581 0.0
C244 C 0.83028 0.07098 0.53099 0.0
N245 N 0.87289 0.08696 0.51201 0.0
C246 C 0.81922 0.901 0.51478 0.0
C247 C 0.89883 0.92908 0.61619 0.0
C248 C 0.90044 0.89165 0.54588 0.0
C249 C 0.85966 0.87587 0.50017 0.0
C250 C 0.85729 0.95262 0.63117 0.0
N251 N 0.81875 0.94047 0.57448 0.0
H252 H 0.79019 0.89167 0.46638 0.0
H253 H 0.85833 0.98457 0.67526 0.0
H254 H 0.87294 0.98378 0.41116 0.0
H255 H 0.80455 0.08944 0.57663 0.0
O256 O 0.76734 0.96876 0.38538 0.0
O257 O 0.7335 0.02961 0.45665 0.0
O258 O 0.77491 0.01816 0.67762 0.0
C259 C 0.74222 1.00506 0.37136 0.0
H260 H 0.62779 0.92914 0.71267 0.0
H261 H 0.93039 0.05485 0.43171 0.0
H262 H 0.93004 0.94191 0.65296 0.0
H263 H 0.86005 0.84701 0.44524 0.0
Co264 Co 0.54294 0.75641 0.60289 0.0
C265 C 0.61923 0.82693 0.60413 0.0
C266 C 0.56943 0.83907 0.48101 0.0
C267 C 0.60249 0.87267 0.47384 0.0
N268 N 0.58064 0.809 0.55974 0.0
N269 N 0.63391 0.86438 0.55 0.0
H270 H 0.63463 0.81522 0.67803 0.0
H271 H 0.53788 0.83864 0.43539 0.0
C272 C 0.53034 0.75325 0.36479 0.0
O273 O 0.57523 0.75239 0.35274 0.0
N274 N 0.50287 0.70583 0.64167 0.0
C275 C 0.51368 0.66566 0.68955 0.0
C276 C 0.47719 0.63569 0.67732 0.0
C277 C 0.45962 0.70034 0.60437 0.0
N278 N 0.44363 0.65774 0.62342 0.0
C279 C 0.62962 0.71138 0.62055 0.0
C280 C 0.60152 0.63178 0.51915 0.0
C281 C 0.63896 0.63017 0.58941 0.0
C282 C 0.65475 0.67093 0.63512 0.0
C283 C 0.57797 0.67332 0.50422 0.0
N284 N 0.59014 0.71185 0.56091 0.0
H285 H 0.63897 0.74041 0.66894 0.0
H286 H 0.54601 0.67228 0.46017 0.0
H287 H 0.54681 0.65767 0.72426 0.0
H288 H 0.44117 0.72607 0.55871 0.0
O289 O 0.56184 0.76322 0.75007 0.0
O290 O 0.50103 0.7971 0.67883 0.0
O291 O 0.51246 0.75574 0.45782 0.0
C292 C 0.52556 0.78837 0.76414 0.0
H293 H 0.60169 0.90282 0.42296 0.0
H294 H 0.47573 0.60024 0.70374 0.0
H295 H 0.58867 0.60057 0.48239 0.0
H296 H 0.68362 0.67054 0.69002 0.0
Co297 Co 0.27419 0.54294 0.60289 0.0
C298 C 0.20366 0.61922 0.60414 0.0
C299 C 0.19154 0.56944 0.48099 0.0
C300 C 0.15794 0.6025 0.47382 0.0
N301 N 0.2216 0.58064 0.55974 0.0
N302 N 0.16622 0.63391 0.55 0.0
H303 H 0.21537 0.63461 0.67805 0.0
H304 H 0.19197 0.53789 0.43536 0.0
C305 C 0.27737 0.53034 0.36479 0.0
O306 O 0.27823 0.57523 0.35273 0.0
N307 N 0.32477 0.50287 0.64167 0.0
C308 C 0.36494 0.51368 0.68955 0.0
C309 C 0.39491 0.47719 0.67732 0.0
C310 C 0.33027 0.45962 0.60437 0.0
N311 N 0.37287 0.44363 0.62342 0.0
C312 C 0.31922 0.62962 0.62055 0.0
C313 C 0.39883 0.60152 0.5192 0.0
C314 C 0.40043 0.63896 0.58946 0.0
C315 C 0.35966 0.65476 0.63514 0.0
C316 C 0.35729 0.57797 0.50425 0.0
N317 N 0.31875 0.59014 0.56092 0.0
H318 H 0.29018 0.63897 0.66892 0.0
H319 H 0.35833 0.54602 0.46019 0.0
H320 H 0.37293 0.54681 0.72427 0.0
H321 H 0.30454 0.44117 0.55871 0.0
O322 O 0.26738 0.56184 0.75007 0.0
O323 O 0.2335 0.50103 0.67883 0.0
O324 O 0.27487 0.51246 0.45782 0.0
C325 C 0.24223 0.52556 0.76414 0.0
H326 H 0.12779 0.6017 0.42293 0.0
H327 H 0.43037 0.47573 0.70374 0.0
H328 H 0.43004 0.58868 0.48245 0.0
H329 H 0.36004 0.68363 0.69004 0.0
Co330 Co 0.48766 0.27419 0.60287 0.0
C331 C 0.41138 0.20366 0.60413 0.0
C332 C 0.46116 0.19154 0.48097 0.0
C333 C 0.4281 0.15794 0.47381 0.0
N334 N 0.44997 0.2216 0.55973 0.0
N335 N 0.39669 0.16622 0.54999 0.0
H336 H 0.39599 0.21537 0.67804 0.0
H337 H 0.49272 0.19197 0.43535 0.0
C338 C 0.50027 0.27737 0.36477 0.0
O339 O 0.45537 0.27823 0.35272 0.0
N340 N 0.52773 0.32477 0.64166 0.0
C341 C 0.51693 0.36494 0.68954 0.0
C342 C 0.55342 0.39491 0.67731 0.0
C343 C 0.57098 0.33027 0.60435 0.0
N344 N 0.58698 0.37287 0.6234 0.0
C345 C 0.40098 0.31922 0.62054 0.0
C346 C 0.42908 0.39883 0.51919 0.0
C347 C 0.39164 0.40043 0.58945 0.0
C348 C 0.37585 0.35966 0.63513 0.0
C349 C 0.45263 0.35729 0.50423 0.0
N350 N 0.44047 0.31875 0.5609 0.0
H351 H 0.39163 0.29018 0.66891 0.0
H352 H 0.48459 0.35833 0.46018 0.0
H353 H 0.4838 0.37293 0.72426 0.0
H354 H 0.58943 0.30454 0.55869 0.0
O355 O 0.46876 0.26738 0.75006 0.0
O356 O 0.52958 0.23351 0.67881 0.0
O357 O 0.51814 0.27487 0.4578 0.0
C358 C 0.50505 0.24223 0.76412 0.0
H359 H 0.4289 0.12779 0.42292 0.0
H360 H 0.55488 0.43036 0.70374 0.0
H361 H 0.44192 0.43004 0.48245 0.0
H362 H 0.34698 0.36004 0.69003 0.0
Co363 Co 0.75641 0.48766 0.60287 0.0
C364 C 0.82694 0.41138 0.60413 0.0
C365 C 0.83907 0.46116 0.48097 0.0
C366 C 0.87266 0.4281 0.47381 0.0
N367 N 0.80901 0.44996 0.55973 0.0
N368 N 0.86439 0.39669 0.55 0.0
H369 H 0.81523 0.39599 0.67805 0.0
H370 H 0.83864 0.49271 0.43534 0.0
C371 C 0.75325 0.50026 0.36477 0.0
O372 O 0.75238 0.45537 0.35272 0.0
N373 N 0.70584 0.52773 0.64165 0.0
C374 C 0.66567 0.51693 0.68954 0.0
C375 C 0.63569 0.55341 0.67729 0.0
C376 C 0.70033 0.57098 0.60432 0.0
N377 N 0.65773 0.58696 0.62333 0.0
C378 C 0.71139 0.40098 0.62054 0.0
C379 C 0.63178 0.42908 0.51919 0.0
C380 C 0.63017 0.39164 0.58945 0.0
C381 C 0.67095 0.37585 0.63512 0.0
C382 C 0.67332 0.45263 0.50423 0.0
N383 N 0.71186 0.44046 0.5609 0.0
H384 H 0.74043 0.39163 0.66891 0.0
H385 H 0.67227 0.48459 0.46018 0.0
H386 H 0.65769 0.4838 0.72428 0.0
H387 H 0.72607 0.58943 0.55865 0.0
O388 O 0.76323 0.46876 0.75006 0.0
O389 O 0.7971 0.52958 0.67881 0.0
O390 O 0.75574 0.51814 0.4578 0.0
C391 C 0.78837 0.50505 0.76412 0.0
H392 H 0.90281 0.42889 0.42292 0.0
H393 H 0.60024 0.55487 0.70373 0.0
H394 H 0.60057 0.44192 0.48244 0.0
H395 H 0.67056 0.34697 0.69002 0.0
Co396 Co 0.54294 0.27419 0.03255 0.0
C397 C 0.61922 0.20366 0.03129 0.0
C398 C 0.56944 0.19153 0.15444 0.0
C399 C 0.6025 0.15794 0.1616 0.0
N400 N 0.58064 0.2216 0.07569 0.0
N401 N 0.63391 0.16622 0.08542 0.0
H402 H 0.63462 0.21538 0.95739 0.0
H403 H 0.53788 0.19197 0.20007 0.0
C404 C 0.53034 0.27736 0.27065 0.0
O405 O 0.57523 0.27822 0.2827 0.0
N406 N 0.50287 0.32477 0.99377 0.0
C407 C 0.51367 0.36494 0.94589 0.0
C408 C 0.47719 0.39491 0.95812 0.0
C409 C 0.45962 0.33027 0.03107 0.0
N410 N 0.44363 0.37287 1.01202 0.0
C411 C 0.62962 0.31922 1.01488 0.0
C412 C 0.60151 0.39882 0.11627 0.0
C413 C 0.63896 0.40043 0.04602 0.0
C414 C 0.65475 0.35966 1.00032 0.0
C415 C 0.57797 0.35728 0.1312 0.0
N416 N 0.59013 0.31875 0.07452 0.0
H417 H 0.63897 0.29018 0.9665 0.0
H418 H 0.54601 0.35832 0.17525 0.0
H419 H 0.54681 0.37293 0.91117 0.0
H420 H 0.44117 0.30453 0.07673 0.0
O421 O 0.56184 0.26738 0.88536 0.0
O422 O 0.50101 0.2335 0.95664 0.0
O423 O 0.51246 0.27486 0.17762 0.0
C424 C 0.52555 0.24225 0.87134 0.0
H425 H 0.6017 0.12779 0.21249 0.0
H426 H 0.47573 0.43036 0.9317 0.0
H427 H 0.58867 0.43003 0.15303 0.0
H428 H 0.68362 0.36005 0.94542 0.0
Co429 Co 0.75642 0.54294 0.03255 0.0
C430 C 0.82694 0.61922 0.03128 0.0
C431 C 0.83907 0.56944 0.15443 0.0
C432 C 0.87267 0.6025 0.16159 0.0
N433 N 0.80901 0.58063 0.07568 0.0
N434 N 0.86439 0.63391 0.08541 0.0
H435 H 0.81523 0.63461 0.95737 0.0
H436 H 0.83864 0.53788 0.20006 0.0
C437 C 0.75325 0.53033 0.27065 0.0
O438 O 0.75239 0.57522 0.2827 0.0
N439 N 0.70584 0.50286 0.99377 0.0
C440 C 0.66567 0.51367 0.94589 0.0
C441 C 0.63569 0.47719 0.95814 0.0
C442 C 0.70034 0.45962 0.0311 0.0
N443 N 0.65773 0.44363 1.01209 0.0
C444 C 0.71139 0.62961 1.01488 0.0
C445 C 0.63179 0.60151 0.11628 0.0
C446 C 0.63017 0.63896 0.04603 0.0
C447 C 0.67094 0.65475 1.00032 0.0
C448 C 0.67332 0.57796 0.13121 0.0
N449 N 0.71186 0.59013 0.07452 0.0
H450 H 0.74042 0.63897 0.9665 0.0
H451 H 0.67229 0.546 0.17526 0.0
H452 H 0.65769 0.5468 0.91115 0.0
H453 H 0.72607 0.44117 0.07676 0.0
O454 O 0.76322 0.56184 0.88536 0.0
O455 O 0.79711 0.50101 0.95663 0.0
O456 O 0.75575 0.51246 0.17762 0.0
C457 C 0.78836 0.52555 0.87134 0.0
H458 H 0.90282 0.6017 0.21248 0.0
H459 H 0.60024 0.47573 0.93171 0.0
H460 H 0.60058 0.58867 0.15304 0.0
H461 H 0.67056 0.68362 0.94543 0.0
Co462 Co 0.48767 0.75641 0.03256 0.0
C463 C 0.41139 0.82694 0.0313 0.0
C464 C 0.46117 0.83907 0.15445 0.0
C465 C 0.4281 0.87266 0.16161 0.0
N466 N 0.44997 0.809 0.0757 0.0
N467 N 0.39669 0.86438 0.08543 0.0
H468 H 0.39599 0.81522 0.95739 0.0
H469 H 0.49272 0.83864 0.20008 0.0
C470 C 0.50027 0.75325 0.27067 0.0
O471 O 0.45538 0.75238 0.28272 0.0
N472 N 0.52774 0.70583 0.99379 0.0
C473 C 0.51694 0.66567 0.9459 0.0
C474 C 0.55342 0.63569 0.95815 0.0
C475 C 0.57099 0.70033 0.03112 0.0
N476 N 0.58697 0.65773 1.0121 0.0
C477 C 0.40099 0.71138 1.0149 0.0
C478 C 0.4291 0.63178 0.11628 0.0
C479 C 0.39165 0.63017 0.04604 0.0
C480 C 0.37586 0.67094 1.00033 0.0
C481 C 0.45264 0.67332 0.13122 0.0
N482 N 0.44047 0.71185 0.07454 0.0
H483 H 0.39164 0.74042 0.96652 0.0
H484 H 0.4846 0.67228 0.17527 0.0
H485 H 0.48381 0.65768 0.91116 0.0
H486 H 0.58944 0.72606 0.07679 0.0
O487 O 0.46877 0.76322 0.88537 0.0
O488 O 0.52959 0.7971 0.95665 0.0
O489 O 0.51815 0.75574 0.17764 0.0
C490 C 0.50506 0.78836 0.87136 0.0
H491 H 0.4289 0.90281 0.2125 0.0
H492 H 0.55488 0.60024 0.93171 0.0
H493 H 0.44194 0.60057 0.15304 0.0
H494 H 0.34698 0.67055 0.94544 0.0
Co495 Co 0.27419 0.48766 0.03257 0.0
C496 C 0.20366 0.41139 0.03128 0.0
C497 C 0.19154 0.46115 0.15447 0.0
C498 C 0.15795 0.42809 0.16163 0.0
N499 N 0.2216 0.44996 0.0757 0.0
N500 N 0.16622 0.39669 0.08542 0.0
H501 H 0.21537 0.396 0.95736 0.0
H502 H 0.19198 0.4927 0.20012 0.0
C503 C 0.27737 0.50026 0.27067 0.0
O504 O 0.27824 0.45537 0.28273 0.0
N505 N 0.32477 0.52774 0.99379 0.0
C506 C 0.36494 0.51693 0.9459 0.0
C507 C 0.39491 0.55341 0.95815 0.0
C508 C 0.33027 0.57098 0.03113 0.0
N509 N 0.37288 0.58697 1.01211 0.0
C510 C 0.31921 0.40098 1.0149 0.0
C511 C 0.39883 0.42908 0.11624 0.0
C512 C 0.40043 0.39164 0.04599 0.0
C513 C 0.35965 0.37585 1.00032 0.0
C514 C 0.35729 0.45263 0.1312 0.0
N515 N 0.31875 0.44047 0.07454 0.0
H516 H 0.29017 0.39163 0.96654 0.0
H517 H 0.35833 0.48459 0.17525 0.0
H518 H 0.37292 0.4838 0.91115 0.0
H519 H 0.30454 0.58943 0.0768 0.0
O520 O 0.26739 0.46876 0.88538 0.0
O521 O 0.2335 0.52959 0.95666 0.0
O522 O 0.27486 0.51814 0.17764 0.0
C523 C 0.24225 0.50505 0.87136 0.0
H524 H 0.1278 0.42888 0.21253 0.0
H525 H 0.43036 0.55488 0.93171 0.0
H526 H 0.43004 0.44192 0.15298 0.0
H527 H 0.36003 0.34697 0.94542 0.0
loop_
_geom_bond_atom_site_label_1
_geom_bond_atom_site_label_2
_geom_bond_distance
_geom_bond_site_symmetry_2
_ccdc_geom_bond_type
Co0 N4 2.148 . S
Co0 N10 2.128 1_455 S
Co0 N20 2.194 . S
Co0 O25 2.351 . S
Co0 O26 2.155 1_455 S
Co0 O27 2.096 1_454 S
C1 N4 1.301 . S
C1 N5 1.328 . S
C1 H6 0.930 . S
C2 C3 1.333 . S
C2 N4 1.317 1_556 S
C2 H7 0.930 . S
C3 C2 1.333 . S
C3 N5 1.350 1_556 S
C3 H29 0.931 . S
N4 Co0 2.148 . S
N4 C1 1.301 . S
N4 C2 1.317 1_554 S
N5 C1 1.328 . S
N5 C3 1.350 1_554 S
H6 C1 0.930 . S
H7 C2 0.930 . S
C8 O9 1.224 1_655 S
C8 O27 1.247 . S
O9 C8 1.224 1_455 S
N10 Co0 2.128 1_655 S
N10 C11 1.355 . S
N10 C13 1.311 1_554 S
C11 N10 1.355 . S
C11 C12 1.363 . S
C11 H23 0.937 . S
C12 C11 1.363 . S
C12 N14 1.375 1_554 S
C12 H30 0.931 . S
C13 N10 1.311 1_556 S
C13 N14 1.347 . S
C13 H24 0.929 . S
N14 C12 1.375 1_556 S
N14 C13 1.347 . S
C15 C18 1.365 . S
C15 N20 1.328 . S
C15 H21 0.929 . S
C16 C17 1.368 . S
C16 C19 1.378 . S
C16 H31 0.929 . S
C17 C16 1.368 . S
C17 C18 1.359 1_556 S
C18 C15 1.365 . S
C18 C17 1.359 1_554 S
C18 H32 0.930 . S
C19 C16 1.378 . S
C19 N20 1.315 1_556 S
C19 H22 0.930 . S
N20 Co0 2.194 . S
N20 C15 1.328 . S
N20 C19 1.315 1_554 S
H21 C15 0.929 . S
H22 C19 0.930 . S
H23 C11 0.937 . S
H24 C13 0.929 . S
O25 Co0 2.351 . S
O25 C28 1.232 1_455 S
O26 Co0 2.155 1_655 S
O26 C28 1.248 . S
O27 Co0 2.096 1_656 S
O27 C8 1.247 . S
C28 O25 1.232 1_655 S
C28 O26 1.248 . S
H29 C3 0.931 . S
H30 C12 0.931 . S
H31 C16 0.929 . S
H32 C18 0.930 . S
Co33 N37 2.148 . S
Co33 N43 2.128 1_545 S
Co33 N53 2.194 . S
Co33 O58 2.351 . S
Co33 O59 2.155 1_545 S
Co33 O60 2.096 1_544 S
C34 N37 1.301 . S
C34 N38 1.328 . S
C34 H39 0.930 . S
C35 C36 1.333 . S
C35 N37 1.317 1_556 S
C35 H40 0.930 . S
C36 C35 1.333 . S
C36 N38 1.350 1_556 S
C36 H62 0.931 . S
N37 Co33 2.148 . S
N37 C34 1.301 . S
N37 C35 1.317 1_554 S
N38 C34 1.328 . S
N38 C36 1.350 1_554 S
H39 C34 0.930 . S
H40 C35 0.930 . S
C41 O42 1.224 1_565 S
C41 O60 1.247 . S
O42 C41 1.224 1_545 S
N43 Co33 2.128 1_565 S
N43 C44 1.355 . S
N43 C46 1.311 1_554 S
C44 N43 1.355 . S
C44 C45 1.363 . S
C44 H56 0.937 . S
C45 C44 1.363 . S
C45 N47 1.375 1_554 S
C45 H63 0.931 . S
C46 N43 1.311 1_556 S
C46 N47 1.347 . S
C46 H57 0.929 . S
N47 C45 1.375 1_556 S
N47 C46 1.347 . S
C48 C51 1.365 . S
C48 N53 1.328 . S
C48 H54 0.929 . S
C49 C50 1.368 . S
C49 C52 1.378 . S
C49 H64 0.929 . S
C50 C49 1.368 . S
C50 C51 1.359 1_556 S
C51 C48 1.365 . S
C51 C50 1.359 1_554 S
C51 H65 0.930 . S
C52 C49 1.378 . S
C52 N53 1.315 1_556 S
C52 H55 0.930 . S
N53 Co33 2.194 . S
N53 C48 1.328 . S
N53 C52 1.315 1_554 S
H54 C48 0.929 . S
H55 C52 0.930 . S
H56 C44 0.937 . S
H57 C46 0.929 . S
O58 Co33 2.351 . S
O58 C61 1.232 1_545 S
O59 Co33 2.155 1_565 S
O59 C61 1.248 . S
O60 Co33 2.096 1_566 S
O60 C41 1.247 . S
C61 O58 1.232 1_565 S
C61 O59 1.248 . S
H62 C36 0.931 . S
H63 C45 0.931 . S
H64 C49 0.929 . S
H65 C51 0.930 . S
Co66 N70 2.148 . S
Co66 N76 2.128 1_655 S
Co66 N86 2.194 . S
Co66 O91 2.351 . S
Co66 O92 2.155 1_655 S
Co66 O93 2.096 1_654 S
C67 N70 1.301 . S
C67 N71 1.328 . S
C67 H72 0.930 . S
C68 C69 1.333 . S
C68 N70 1.317 1_556 S
C68 H73 0.930 . S
C69 C68 1.333 . S
C69 N71 1.350 1_556 S
C69 H95 0.931 . S
N70 Co66 2.148 . S
N70 C67 1.301 . S
N70 C68 1.317 1_554 S
N71 C67 1.328 . S
N71 C69 1.350 1_554 S
H72 C67 0.930 . S
H73 C68 0.930 . S
C74 O75 1.224 1_455 S
C74 O93 1.247 . S
O75 C74 1.224 1_655 S
N76 Co66 2.128 1_455 S
N76 C77 1.355 . S
N76 C79 1.311 1_554 S
C77 N76 1.355 . S
C77 C78 1.363 . S
C77 H89 0.937 . S
C78 C77 1.363 . S
C78 N80 1.375 1_554 S
C78 H96 0.931 . S
C79 N76 1.311 1_556 S
C79 N80 1.347 . S
C79 H90 0.929 . S
N80 C78 1.375 1_556 S
N80 C79 1.347 . S
C81 C84 1.365 . S
C81 N86 1.328 . S
C81 H87 0.929 . S
C82 C83 1.368 . S
C82 C85 1.378 . S
C82 H97 0.929 . S
C83 C82 1.368 . S
C83 C84 1.359 1_556 S
C84 C81 1.365 . S
C84 C83 1.359 1_554 S
C84 H98 0.930 . S
C85 C82 1.378 . S
C85 N86 1.315 1_556 S
C85 H88 0.930 . S
N86 Co66 2.194 . S
N86 C81 1.328 . S
N86 C85 1.315 1_554 S
H87 C81 0.929 . S
H88 C85 0.930 . S
H89 C77 0.937 . S
H90 C79 0.929 . S
O91 Co66 2.351 . S
O91 C94 1.232 1_655 S
O92 Co66 2.155 1_455 S
O92 C94 1.248 . S
O93 Co66 2.096 1_456 S
O93 C74 1.247 . S
C94 O91 1.232 1_455 S
C94 O92 1.248 . S
H95 C69 0.931 . S
H96 C78 0.931 . S
H97 C82 0.929 . S
H98 C84 0.930 . S
Co99 N103 2.148 . S
Co99 N109 2.128 1_565 S
Co99 N119 2.194 . S
Co99 O124 2.351 . S
Co99 O125 2.155 1_565 S
Co99 O126 2.096 1_564 S
C100 N103 1.301 . S
C100 N104 1.328 . S
C100 H105 0.930 . S
C101 C102 1.333 . S
C101 N103 1.317 1_556 S
C101 H106 0.930 . S
C102 C101 1.333 . S
C102 N104 1.350 1_556 S
C102 H128 0.931 . S
N103 Co99 2.148 . S
N103 C100 1.301 . S
N103 C101 1.317 1_554 S
N104 C100 1.328 . S
N104 C102 1.350 1_554 S
H105 C100 0.930 . S
H106 C101 0.930 . S
C107 O108 1.224 1_545 S
C107 O126 1.247 . S
O108 C107 1.224 1_565 S
N109 Co99 2.128 1_545 S
N109 C110 1.355 . S
N109 C112 1.311 1_554 S
C110 N109 1.355 . S
C110 C111 1.363 . S
C110 H122 0.937 . S
C111 C110 1.363 . S
C111 N113 1.375 1_554 S
C111 H129 0.931 . S
C112 N109 1.311 1_556 S
C112 N113 1.347 . S
C112 H123 0.929 . S
N113 C111 1.375 1_556 S
N113 C112 1.347 . S
C114 C117 1.365 . S
C114 N119 1.328 . S
C114 H120 0.929 . S
C115 C116 1.368 . S
C115 C118 1.378 . S
C115 H130 0.929 . S
C116 C115 1.368 . S
C116 C117 1.359 1_556 S
C117 C114 1.365 . S
C117 C116 1.359 1_554 S
C117 H131 0.930 . S
C118 C115 1.378 . S
C118 N119 1.315 1_556 S
C118 H121 0.930 . S
N119 Co99 2.194 . S
N119 C114 1.328 . S
N119 C118 1.315 1_554 S
H120 C114 0.929 . S
H121 C118 0.930 . S
H122 C110 0.937 . S
H123 C112 0.929 . S
O124 Co99 2.351 . S
O124 C127 1.232 1_565 S
O125 Co99 2.155 1_545 S
O125 C127 1.248 . S
O126 Co99 2.096 1_546 S
O126 C107 1.247 . S
C127 O124 1.232 1_545 S
C127 O125 1.248 . S
H128 C102 0.931 . S
H129 C111 0.931 . S
H130 C115 0.929 . S
H131 C117 0.930 . S
Co132 N136 2.148 . S
Co132 N142 2.128 1_455 S
Co132 N152 2.194 . S
Co132 O157 2.351 . S
Co132 O158 2.155 1_455 S
Co132 O159 2.096 1_455 S
C133 N136 1.301 . S
C133 N137 1.328 . S
C133 H138 0.930 . S
C134 C135 1.333 . S
C134 N136 1.317 . S
C134 H139 0.930 . S
C135 C134 1.333 . S
C135 N137 1.350 . S
C135 H161 0.931 . S
N136 Co132 2.148 . S
N136 C133 1.301 . S
N136 C134 1.317 . S
N137 C133 1.328 . S
N137 C135 1.350 . S
H138 C133 0.930 . S
H139 C134 0.930 . S
C140 O141 1.224 1_655 S
C140 O159 1.247 . S
O141 C140 1.224 1_455 S
N142 Co132 2.128 1_655 S
N142 C143 1.355 . S
N142 C145 1.311 . S
C143 N142 1.355 . S
C143 C144 1.363 . S
C143 H155 0.937 . S
C144 C143 1.363 . S
C144 N146 1.375 . S
C144 H162 0.931 . S
C145 N142 1.311 . S
C145 N146 1.347 . S
C145 H156 0.929 . S
N146 C144 1.375 . S
N146 C145 1.347 . S
C147 C150 1.365 . S
C147 N152 1.328 . S
C147 H153 0.929 . S
C148 C149 1.362 . S
C148 C151 1.378 . S
C148 H163 0.929 . S
C149 C148 1.362 . S
C149 C150 1.366 . S
C150 C147 1.365 . S
C150 C149 1.366 . S
C150 H164 0.930 . S
C151 C148 1.378 . S
C151 N152 1.315 . S
C151 H154 0.930 . S
N152 Co132 2.194 . S
N152 C147 1.328 . S
N152 C151 1.315 . S
H153 C147 0.929 . S
H154 C151 0.930 . S
H155 C143 0.937 . S
H156 C145 0.929 . S
O157 Co132 2.351 . S
O157 C160 1.232 1_455 S
O158 Co132 2.155 1_655 S
O158 C160 1.248 . S
O159 Co132 2.096 1_655 S
O159 C140 1.247 . S
C160 O157 1.232 1_655 S
C160 O158 1.248 . S
H161 C135 0.931 . S
H162 C144 0.931 . S
H163 C148 0.929 . S
H164 C150 0.930 . S
Co165 N169 2.148 . S
Co165 N175 2.128 1_545 S
Co165 N185 2.194 . S
Co165 O190 2.351 . S
Co165 O191 2.155 1_545 S
Co165 O192 2.096 1_545 S
C166 N169 1.301 . S
C166 N170 1.328 . S
C166 H171 0.930 . S
C167 C168 1.333 . S
C167 N169 1.317 . S
C167 H172 0.930 . S
C168 C167 1.333 . S
C168 N170 1.350 . S
C168 H194 0.931 . S
N169 Co165 2.148 . S
N169 C166 1.301 . S
N169 C167 1.317 . S
N170 C166 1.328 . S
N170 C168 1.350 . S
H171 C166 0.930 . S
H172 C167 0.930 . S
C173 O174 1.224 1_565 S
C173 O192 1.247 . S
O174 C173 1.224 1_545 S
N175 Co165 2.128 1_565 S
N175 C176 1.355 . S
N175 C178 1.311 . S
C176 N175 1.355 . S
C176 C177 1.363 . S
C176 H188 0.937 . S
C177 C176 1.363 . S
C177 N179 1.375 . S
C177 H195 0.931 . S
C178 N175 1.311 . S
C178 N179 1.347 . S
C178 H189 0.929 . S
N179 C177 1.375 . S
N179 C178 1.347 . S
C180 C183 1.365 . S
C180 N185 1.328 . S
C180 H186 0.929 . S
C181 C182 1.362 . S
C181 C184 1.378 . S
C181 H196 0.929 . S
C182 C181 1.362 . S
C182 C183 1.366 . S
C183 C180 1.365 . S
C183 C182 1.366 . S
C183 H197 0.930 . S
C184 C181 1.378 . S
C184 N185 1.315 . S
C184 H187 0.930 . S
N185 Co165 2.194 . S
N185 C180 1.328 . S
N185 C184 1.315 . S
H186 C180 0.929 . S
H187 C184 0.930 . S
H188 C176 0.937 . S
H189 C178 0.929 . S
O190 Co165 2.351 . S
O190 C193 1.232 1_545 S
O191 Co165 2.155 1_565 S
O191 C193 1.248 . S
O192 Co165 2.096 1_565 S
O192 C173 1.247 . S
C193 O190 1.232 1_565 S
C193 O191 1.248 . S
H194 C168 0.931 . S
H195 C177 0.931 . S
H196 C181 0.929 . S
H197 C183 0.930 . S
Co198 N202 2.148 . S
Co198 N208 2.128 1_655 S
Co198 N218 2.194 . S
Co198 O223 2.351 . S
Co198 O224 2.155 1_655 S
Co198 O225 2.096 1_655 S
C199 N202 1.301 . S
C199 N203 1.328 . S
C199 H204 0.930 . S
C200 C201 1.333 . S
C200 N202 1.317 . S
C200 H205 0.930 . S
C201 C200 1.333 . S
C201 N203 1.350 . S
C201 H227 0.931 . S
N202 Co198 2.148 . S
N202 C199 1.301 . S
N202 C200 1.317 . S
N203 C199 1.328 . S
N203 C201 1.350 . S
H204 C199 0.930 . S
H205 C200 0.930 . S
C206 O207 1.224 1_455 S
C206 O225 1.247 . S
O207 C206 1.224 1_655 S
N208 Co198 2.128 1_455 S
N208 C209 1.355 . S
N208 C211 1.311 . S
C209 N208 1.355 . S
C209 C210 1.363 . S
C209 H221 0.937 . S
C210 C209 1.363 . S
C210 N212 1.375 . S
C210 H228 0.931 . S
C211 N208 1.311 . S
C211 N212 1.347 . S
C211 H222 0.929 . S
N212 C210 1.375 . S
N212 C211 1.347 . S
C213 C216 1.365 . S
C213 N218 1.328 . S
C213 H219 0.929 . S
C214 C215 1.362 . S
C214 C217 1.378 . S
C214 H229 0.929 . S
C215 C214 1.362 . S
C215 C216 1.366 . S
C216 C213 1.365 . S
C216 C215 1.366 . S
C216 H230 0.930 . S
C217 C214 1.378 . S
C217 N218 1.315 . S
C217 H220 0.930 . S
N218 Co198 2.194 . S
N218 C213 1.328 . S
N218 C217 1.315 . S
H219 C213 0.929 . S
H220 C217 0.930 . S
H221 C209 0.937 . S
H222 C211 0.929 . S
O223 Co198 2.351 . S
O223 C226 1.232 1_655 S
O224 Co198 2.155 1_455 S
O224 C226 1.248 . S
O225 Co198 2.096 1_455 S
O225 C206 1.247 . S
C226 O223 1.232 1_455 S
C226 O224 1.248 . S
H227 C201 0.931 . S
H228 C210 0.931 . S
H229 C214 0.929 . S
H230 C216 0.930 . S
Co231 N235 2.148 . S
Co231 N241 2.128 1_565 S
Co231 N251 2.194 . S
Co231 O256 2.351 . S
Co231 O257 2.155 1_565 S
Co231 O258 2.096 1_565 S
C232 N235 1.301 . S
C232 N236 1.328 . S
C232 H237 0.930 . S
C233 C234 1.333 . S
C233 N235 1.317 . S
C233 H238 0.930 . S
C234 C233 1.333 . S
C234 N236 1.350 . S
C234 H260 0.931 . S
N235 Co231 2.148 . S
N235 C232 1.301 . S
N235 C233 1.317 . S
N236 C232 1.328 . S
N236 C234 1.350 . S
H237 C232 0.930 . S
H238 C233 0.930 . S
C239 O240 1.224 1_545 S
C239 O258 1.247 . S
O240 C239 1.224 1_565 S
N241 Co231 2.128 1_545 S
N241 C242 1.355 . S
N241 C244 1.311 . S
C242 N241 1.355 . S
C242 C243 1.363 . S
C242 H254 0.937 . S
C243 C242 1.363 . S
C243 N245 1.375 . S
C243 H261 0.931 . S
C244 N241 1.311 . S
C244 N245 1.347 . S
C244 H255 0.929 . S
N245 C243 1.375 . S
N245 C244 1.347 . S
C246 C249 1.365 . S
C246 N251 1.328 . S
C246 H252 0.929 . S
C247 C248 1.362 . S
C247 C250 1.378 . S
C247 H262 0.929 . S
C248 C247 1.362 . S
C248 C249 1.366 . S
C249 C246 1.365 . S
C249 C248 1.366 . S
C249 H263 0.930 . S
C250 C247 1.378 . S
C250 N251 1.315 . S
C250 H253 0.930 . S
N251 Co231 2.194 . S
N251 C246 1.328 . S
N251 C250 1.315 . S
H252 C246 0.929 . S
H253 C250 0.930 . S
H254 C242 0.937 . S
H255 C244 0.929 . S
O256 Co231 2.351 . S
O256 C259 1.232 1_565 S
O257 Co231 2.155 1_545 S
O257 C259 1.248 . S
O258 Co231 2.096 1_545 S
O258 C239 1.247 . S
C259 O256 1.232 1_545 S
C259 O257 1.248 . S
H260 C234 0.931 . S
H261 C243 0.931 . S
H262 C247 0.929 . S
H263 C249 0.930 . S
Co264 N268 2.148 . S
Co264 N274 2.128 . S
Co264 N284 2.194 . S
Co264 O289 2.351 . S
Co264 O290 2.155 . S
Co264 O291 2.096 . S
C265 N268 1.301 . S
C265 N269 1.328 . S
C265 H270 0.930 . S
C266 C267 1.333 . S
C266 N268 1.317 . S
C266 H271 0.930 . S
C267 C266 1.333 . S
C267 N269 1.350 . S
C267 H293 0.931 . S
N268 Co264 2.148 . S
N268 C265 1.301 . S
N268 C266 1.317 . S
N269 C265 1.328 . S
N269 C267 1.350 . S
H270 C265 0.930 . S
H271 C266 0.930 . S
C272 O273 1.224 . S
C272 O291 1.247 . S
O273 C272 1.224 . S
N274 Co264 2.128 . S
N274 C275 1.355 . S
N274 C277 1.311 . S
C275 N274 1.355 . S
C275 C276 1.363 . S
C275 H287 0.929 . S
C276 C275 1.363 . S
C276 N278 1.375 . S
C276 H294 0.931 . S
C277 N274 1.311 . S
C277 N278 1.347 . S
C277 H288 0.929 . S
N278 C276 1.375 . S
N278 C277 1.347 . S
C279 C282 1.365 . S
C279 N284 1.328 . S
C279 H285 0.929 . S
C280 C281 1.362 . S
C280 C283 1.378 . S
C280 H295 0.929 . S
C281 C280 1.362 . S
C281 C282 1.366 . S
C282 C279 1.365 . S
C282 C281 1.366 . S
C282 H296 0.930 . S
C283 C280 1.378 . S
C283 N284 1.315 . S
C283 H286 0.930 . S
N284 Co264 2.194 . S
N284 C279 1.328 . S
N284 C283 1.315 . S
H285 C279 0.929 . S
H286 C283 0.930 . S
H287 C275 0.929 . S
H288 C277 0.929 . S
O289 Co264 2.351 . S
O289 C292 1.244 . S
O290 Co264 2.155 . S
O290 C292 1.240 . S
O291 Co264 2.096 . S
O291 C272 1.247 . S
C292 O289 1.244 . S
C292 O290 1.240 . S
H293 C267 0.931 . S
H294 C276 0.931 . S
H295 C280 0.929 . S
H296 C282 0.930 . S
Co297 N301 2.148 . S
Co297 N307 2.128 . S
Co297 N317 2.194 . S
Co297 O322 2.351 . S
Co297 O323 2.155 . S
Co297 O324 2.096 . S
C298 N301 1.301 . S
C298 N302 1.328 . S
C298 H303 0.930 . S
C299 C300 1.333 . S
C299 N301 1.317 . S
C299 H304 0.930 . S
C300 C299 1.333 . S
C300 N302 1.350 . S
C300 H326 0.931 . S
N301 Co297 2.148 . S
N301 C298 1.301 . S
N301 C299 1.317 . S
N302 C298 1.328 . S
N302 C300 1.350 . S
H303 C298 0.930 . S
H304 C299 0.930 . S
C305 O306 1.224 . S
C305 O324 1.247 . S
O306 C305 1.224 . S
N307 Co297 2.128 . S
N307 C308 1.355 . S
N307 C310 1.311 . S
C308 N307 1.355 . S
C308 C309 1.363 . S
C308 H320 0.929 . S
C309 C308 1.363 . S
C309 N311 1.375 . S
C309 H327 0.931 . S
C310 N307 1.311 . S
C310 N311 1.347 . S
C310 H321 0.929 . S
N311 C309 1.375 . S
N311 C310 1.347 . S
C312 C315 1.365 . S
C312 N317 1.328 . S
C312 H318 0.929 . S
C313 C314 1.362 . S
C313 C316 1.378 . S
C313 H328 0.929 . S
C314 C313 1.362 . S
C314 C315 1.366 . S
C315 C312 1.365 . S
C315 C314 1.366 . S
C315 H329 0.930 . S
C316 C313 1.378 . S
C316 N317 1.315 . S
C316 H319 0.930 . S
N317 Co297 2.194 . S
N317 C312 1.328 . S
N317 C316 1.315 . S
H318 C312 0.929 . S
H319 C316 0.930 . S
H320 C308 0.929 . S
H321 C310 0.929 . S
O322 Co297 2.351 . S
O322 C325 1.244 . S
O323 Co297 2.155 . S
O323 C325 1.240 . S
O324 Co297 2.096 . S
O324 C305 1.247 . S
C325 O322 1.244 . S
C325 O323 1.240 . S
H326 C300 0.931 . S
H327 C309 0.931 . S
H328 C313 0.929 . S
H329 C315 0.930 . S
Co330 N334 2.148 . S
Co330 N340 2.128 . S
Co330 N350 2.194 . S
Co330 O355 2.351 . S
Co330 O356 2.155 . S
Co330 O357 2.096 . S
C331 N334 1.301 . S
C331 N335 1.328 . S
C331 H336 0.930 . S
C332 C333 1.333 . S
C332 N334 1.317 . S
C332 H337 0.930 . S
C333 C332 1.333 . S
C333 N335 1.350 . S
C333 H359 0.931 . S
N334 Co330 2.148 . S
N334 C331 1.301 . S
N334 C332 1.317 . S
N335 C331 1.328 . S
N335 C333 1.350 . S
H336 C331 0.930 . S
H337 C332 0.930 . S
C338 O339 1.224 . S
C338 O357 1.247 . S
O339 C338 1.224 . S
N340 Co330 2.128 . S
N340 C341 1.355 . S
N340 C343 1.311 . S
C341 N340 1.355 . S
C341 C342 1.363 . S
C341 H353 0.929 . S
C342 C341 1.363 . S
C342 N344 1.375 . S
C342 H360 0.931 . S
C343 N340 1.311 . S
C343 N344 1.347 . S
C343 H354 0.929 . S
N344 C342 1.375 . S
N344 C343 1.347 . S
C345 C348 1.365 . S
C345 N350 1.328 . S
C345 H351 0.929 . S
C346 C347 1.362 . S
C346 C349 1.378 . S
C346 H361 0.929 . S
C347 C346 1.362 . S
C347 C348 1.366 . S
C348 C345 1.365 . S
C348 C347 1.366 . S
C348 H362 0.930 . S
C349 C346 1.378 . S
C349 N350 1.315 . S
C349 H352 0.930 . S
N350 Co330 2.194 . S
N350 C345 1.328 . S
N350 C349 1.315 . S
H351 C345 0.929 . S
H352 C349 0.930 . S
H353 C341 0.929 . S
H354 C343 0.929 . S
O355 Co330 2.351 . S
O355 C358 1.244 . S
O356 Co330 2.155 . S
O356 C358 1.240 . S
O357 Co330 2.096 . S
O357 C338 1.247 . S
C358 O355 1.244 . S
C358 O356 1.240 . S
H359 C333 0.931 . S
H360 C342 0.931 . S
H361 C346 0.929 . S
H362 C348 0.930 . S
Co363 N367 2.148 . S
Co363 N373 2.128 . S
Co363 N383 2.194 . S
Co363 O388 2.351 . S
Co363 O389 2.155 . S
Co363 O390 2.096 . S
C364 N367 1.301 . S
C364 N368 1.328 . S
C364 H369 0.930 . S
C365 C366 1.333 . S
C365 N367 1.317 . S
C365 H370 0.930 . S
C366 C365 1.333 . S
C366 N368 1.350 . S
C366 H392 0.931 . S
N367 Co363 2.148 . S
N367 C364 1.301 . S
N367 C365 1.317 . S
N368 C364 1.328 . S
N368 C366 1.350 . S
H369 C364 0.930 . S
H370 C365 0.930 . S
C371 O372 1.224 . S
C371 O390 1.247 . S
O372 C371 1.224 . S
N373 Co363 2.128 . S
N373 C374 1.355 . S
N373 C376 1.311 . S
C374 N373 1.355 . S
C374 C375 1.363 . S
C374 H386 0.929 . S
C375 C374 1.363 . S
C375 N377 1.375 . S
C375 H393 0.931 . S
C376 N373 1.311 . S
C376 N377 1.347 . S
C376 H387 0.929 . S
N377 C375 1.375 . S
N377 C376 1.347 . S
C378 C381 1.365 . S
C378 N383 1.328 . S
C378 H384 0.929 . S
C379 C380 1.362 . S
C379 C382 1.378 . S
C379 H394 0.929 . S
C380 C379 1.362 . S
C380 C381 1.366 . S
C381 C378 1.365 . S
C381 C380 1.366 . S
C381 H395 0.930 . S
C382 C379 1.378 . S
C382 N383 1.315 . S
C382 H385 0.930 . S
N383 Co363 2.194 . S
N383 C378 1.328 . S
N383 C382 1.315 . S
H384 C378 0.929 . S
H385 C382 0.930 . S
H386 C374 0.929 . S
H387 C376 0.929 . S
O388 Co363 2.351 . S
O388 C391 1.244 . S
O389 Co363 2.155 . S
O389 C391 1.240 . S
O390 Co363 2.096 . S
O390 C371 1.247 . S
C391 O388 1.244 . S
C391 O389 1.240 . S
H392 C366 0.931 . S
H393 C375 0.931 . S
H394 C379 0.929 . S
H395 C381 0.930 . S
Co396 N400 2.148 . S
Co396 N406 2.128 . S
Co396 N416 2.194 . S
Co396 O421 2.351 1_554 S
Co396 O422 2.155 1_554 S
Co396 O423 2.096 . S
C397 N400 1.301 . S
C397 N401 1.328 . S
C397 H402 0.930 1_554 S
C398 C399 1.333 . S
C398 N400 1.317 . S
C398 H403 0.930 . S
C399 C398 1.333 . S
C399 N401 1.350 . S
C399 H425 0.931 . S
N400 Co396 2.148 . S
N400 C397 1.301 . S
N400 C398 1.317 . S
N401 C397 1.328 . S
N401 C399 1.350 . S
H402 C397 0.930 1_556 S
H403 C398 0.930 . S
C404 O405 1.224 . S
C404 O423 1.247 . S
O405 C404 1.224 . S
N406 Co396 2.128 . S
N406 C407 1.355 1_554 S
N406 C409 1.311 . S
C407 N406 1.355 1_556 S
C407 C408 1.363 1_556 S
C407 H419 0.929 . S
C408 C407 1.363 1_554 S
C408 N410 1.375 . S
C408 H426 0.931 1_554 S
C409 N406 1.311 . S
C409 N410 1.347 . S
C409 H420 0.929 . S
N410 C408 1.375 . S
N410 C409 1.347 . S
C411 C414 1.365 . S
C411 N416 1.328 1_556 S
C411 H417 0.929 . S
C412 C413 1.362 . S
C412 C415 1.378 . S
C412 H427 0.929 . S
C413 C412 1.362 . S
C413 C414 1.366 1_554 S
C414 C411 1.365 . S
C414 C413 1.366 1_556 S
C414 H428 0.930 . S
C415 C412 1.378 . S
C415 N416 1.315 . S
C415 H418 0.930 . S
N416 Co396 2.194 . S
N416 C411 1.328 1_554 S
N416 C415 1.315 . S
H417 C411 0.929 . S
H418 C415 0.930 . S
H419 C407 0.929 . S
H420 C409 0.929 . S
O421 Co396 2.351 1_556 S
O421 C424 1.244 . S
O422 Co396 2.155 1_556 S
O422 C424 1.240 . S
O423 Co396 2.096 . S
O423 C404 1.247 . S
C424 O421 1.244 . S
C424 O422 1.240 . S
H425 C399 0.931 . S
H426 C408 0.931 1_556 S
H427 C412 0.929 . S
H428 C414 0.930 . S
Co429 N433 2.148 . S
Co429 N439 2.128 . S
Co429 N449 2.194 . S
Co429 O454 2.351 1_554 S
Co429 O455 2.155 1_554 S
Co429 O456 2.096 . S
C430 N433 1.301 . S
C430 N434 1.328 . S
C430 H435 0.930 1_554 S
C431 C432 1.333 . S
C431 N433 1.317 . S
C431 H436 0.930 . S
C432 C431 1.333 . S
C432 N434 1.350 . S
C432 H458 0.931 . S
N433 Co429 2.148 . S
N433 C430 1.301 . S
N433 C431 1.317 . S
N434 C430 1.328 . S
N434 C432 1.350 . S
H435 C430 0.930 1_556 S
H436 C431 0.930 . S
C437 O438 1.224 . S
C437 O456 1.247 . S
O438 C437 1.224 . S
N439 Co429 2.128 . S
N439 C440 1.355 1_554 S
N439 C442 1.311 . S
C440 N439 1.355 1_556 S
C440 C441 1.363 1_556 S
C440 H452 0.929 . S
C441 C440 1.363 1_554 S
C441 N443 1.375 . S
C441 H459 0.931 1_554 S
C442 N439 1.311 . S
C442 N443 1.347 . S
C442 H453 0.929 . S
N443 C441 1.375 . S
N443 C442 1.347 . S
C444 C447 1.365 . S
C444 N449 1.328 1_556 S
C444 H450 0.929 . S
C445 C446 1.362 . S
C445 C448 1.378 . S
C445 H460 0.929 . S
C446 C445 1.362 . S
C446 C447 1.366 1_554 S
C447 C444 1.365 . S
C447 C446 1.366 1_556 S
C447 H461 0.930 . S
C448 C445 1.378 . S
C448 N449 1.315 . S
C448 H451 0.930 . S
N449 Co429 2.194 . S
N449 C444 1.328 1_554 S
N449 C448 1.315 . S
H450 C444 0.929 . S
H451 C448 0.930 . S
H452 C440 0.929 . S
H453 C442 0.929 . S
O454 Co429 2.351 1_556 S
O454 C457 1.244 . S
O455 Co429 2.155 1_556 S
O455 C457 1.240 . S
O456 Co429 2.096 . S
O456 C437 1.247 . S
C457 O454 1.244 . S
C457 O455 1.240 . S
H458 C432 0.931 . S
H459 C441 0.931 1_556 S
H460 C445 0.929 . S
H461 C447 0.930 . S
Co462 N466 2.148 . S
Co462 N472 2.128 . S
Co462 N482 2.194 . S
Co462 O487 2.351 1_554 S
Co462 O488 2.155 1_554 S
Co462 O489 2.096 . S
C463 N466 1.301 . S
C463 N467 1.328 . S
C463 H468 0.930 1_554 S
C464 C465 1.333 . S
C464 N466 1.317 . S
C464 H469 0.930 . S
C465 C464 1.333 . S
C465 N467 1.350 . S
C465 H491 0.931 . S
N466 Co462 2.148 . S
N466 C463 1.301 . S
N466 C464 1.317 . S
N467 C463 1.328 . S
N467 C465 1.350 . S
H468 C463 0.930 1_556 S
H469 C464 0.930 . S
C470 O471 1.224 . S
C470 O489 1.247 . S
O471 C470 1.224 . S
N472 Co462 2.128 . S
N472 C473 1.355 1_554 S
N472 C475 1.311 . S
C473 N472 1.355 1_556 S
C473 C474 1.363 1_556 S
C473 H485 0.929 . S
C474 C473 1.363 1_554 S
C474 N476 1.375 . S
C474 H492 0.931 1_554 S
C475 N472 1.311 . S
C475 N476 1.347 . S
C475 H486 0.929 . S
N476 C474 1.375 . S
N476 C475 1.347 . S
C477 C480 1.365 . S
C477 N482 1.328 1_556 S
C477 H483 0.929 . S
C478 C479 1.362 . S
C478 C481 1.378 . S
C478 H493 0.929 . S
C479 C478 1.362 . S
C479 C480 1.366 1_554 S
C480 C477 1.365 . S
C480 C479 1.366 1_556 S
C480 H494 0.930 . S
C481 C478 1.378 . S
C481 N482 1.315 . S
C481 H484 0.930 . S
N482 Co462 2.194 . S
N482 C477 1.328 1_554 S
N482 C481 1.315 . S
H483 C477 0.929 . S
H484 C481 0.930 . S
H485 C473 0.929 . S
H486 C475 0.929 . S
O487 Co462 2.351 1_556 S
O487 C490 1.244 . S
O488 Co462 2.155 1_556 S
O488 C490 1.240 . S
O489 Co462 2.096 . S
O489 C470 1.247 . S
C490 O487 1.244 . S
C490 O488 1.240 . S
H491 C465 0.931 . S
H492 C474 0.931 1_556 S
H493 C478 0.929 . S
H494 C480 0.930 . S
Co495 N499 2.148 . S
Co495 N505 2.128 . S
Co495 N515 2.194 . S
Co495 O520 2.351 1_554 S
Co495 O521 2.155 1_554 S
Co495 O522 2.096 . S
C496 N499 1.301 . S
C496 N500 1.328 . S
C496 H501 0.930 1_554 S
C497 C498 1.333 . S
C497 N499 1.317 . S
C497 H502 0.930 . S
C498 C497 1.333 . S
C498 N500 1.350 . S
C498 H524 0.931 . S
N499 Co495 2.148 . S
N499 C496 1.301 . S
N499 C497 1.317 . S
N500 C496 1.328 . S
N500 C498 1.350 . S
H501 C496 0.930 1_556 S
H502 C497 0.930 . S
C503 O504 1.224 . S
C503 O522 1.247 . S
O504 C503 1.224 . S
N505 Co495 2.128 . S
N505 C506 1.355 1_554 S
N505 C508 1.311 . S
C506 N505 1.355 1_556 S
C506 C507 1.363 1_556 S
C506 H518 0.929 . S
C507 C506 1.363 1_554 S
C507 N509 1.375 . S
C507 H525 0.931 1_554 S
C508 N505 1.311 . S
C508 N509 1.347 . S
C508 H519 0.929 . S
N509 C507 1.375 . S
N509 C508 1.347 . S
C510 C513 1.365 . S
C510 N515 1.328 1_556 S
C510 H516 0.929 . S
C511 C512 1.362 . S
C511 C514 1.378 . S
C511 H526 0.929 . S
C512 C511 1.362 . S
C512 C513 1.366 1_554 S
C513 C510 1.365 . S
C513 C512 1.366 1_556 S
C513 H527 0.930 . S
C514 C511 1.378 . S
C514 N515 1.315 . S
C514 H517 0.930 . S
N515 Co495 2.194 . S
N515 C510 1.328 1_554 S
N515 C514 1.315 . S
H516 C510 0.929 . S
H517 C514 0.930 . S
H518 C506 0.929 . S
H519 C508 0.929 . S
O520 Co495 2.351 1_556 S
O520 C523 1.244 . S
O521 Co495 2.155 1_556 S
O521 C523 1.240 . S
O522 Co495 2.096 . S
O522 C503 1.247 . S
C523 O520 1.244 . S
C523 O521 1.240 . S
H524 C498 0.931 . S
H525 C507 0.931 1_556 S
H526 C511 0.929 . S
H527 C513 0.930 . S
N5 N500 1.244 . S
N38 N401 1.244 . S
N434 N71 1.244 . S
N104 N467 1.244 . S
N137 N302 1.244 . S
N335 N170 1.244 . S
N368 N203 1.244 . S
N269 N236 1.244 . S
N113 C17 1.608 . S
N14 C50 1.608 . S
C83 N47 1.608 . S
C116 N80 1.608 . S
N179 C149 1.607 . S
N212 C182 1.607 . S
N245 C215 1.607 . S
N146 C248 1.607 . S
N377 C281 1.607 . S
C314 N278 1.607 . S
N311 C347 1.607 . S
N344 C380 1.607 . S
N443 C413 1.607 . S
N476 C446 1.607 . S
N509 C479 1.607 . S
N410 C512 1.607 . S
C226 C28 2.203 1_455 S
C259 C61 2.203 1_545 S
C94 C160 2.203 1_455 S
C193 C127 2.203 1_565 S
C74 C140 1.295 1_455 S
C173 C107 1.295 1_565 S
C8 C206 1.295 1_655 S
C239 C41 1.295 1_545 S
C490 C292 2.204 . S
C523 C325 2.204 . S
C424 C358 2.204 . S
C391 C457 2.204 . S
C404 C338 1.295 . S
C371 C437 1.295 . S
C272 C470 1.295 . S
C503 C305 1.295 . S
