# Generated by pormake.
# Topology zfp, (5)-cn, num edge types: 1
# Building blocks:
#     Node 0, Type 0, BuildingBlock: XOMCOT_clean_sbu_0, # of connection points: 5
#     Node 1, Type 0, BuildingBlock: XOMCOT_clean_sbu_0, # of connection points: 5
#     Node 2, Type 0, BuildingBlock: XOMCOT_clean_sbu_0, # of connection points: 5
#     Node 3, Type 0, BuildingBlock: XOMCOT_clean_sbu_0, # of connection points: 5
#     Node 4, Type 0, BuildingBlock: XOMCOT_clean_sbu_0, # of connection points: 5
#     Node 5, Type 0, BuildingBlock: XOMCOT_clean_sbu_0, # of connection points: 5
#     Node 6, Type 0, BuildingBlock: XOMCOT_clean_sbu_0, # of connection points: 5
#     Node 7, Type 0, BuildingBlock: XOMCOT_clean_sbu_0, # of connection points: 5
#     Node 8, Type 0, BuildingBlock: XOMCOT_clean_sbu_0, # of connection points: 5
#     Node 9, Type 0, BuildingBlock: XOMCOT_clean_sbu_0, # of connection points: 5
#     Node 10, Type 0, BuildingBlock: XOMCOT_clean_sbu_0, # of connection points: 5
#     Node 11, Type 0, BuildingBlock: XOMCOT_clean_sbu_0, # of connection points: 5
#     Node 12, Type 0, BuildingBlock: XOMCOT_clean_sbu_0, # of connection points: 5
#     Node 13, Type 0, BuildingBlock: XOMCOT_clean_sbu_0, # of connection points: 5
#     Node 14, Type 0, BuildingBlock: XOMCOT_clean_sbu_0, # of connection points: 5
#     Node 15, Type 0, BuildingBlock: XOMCOT_clean_sbu_0, # of connection points: 5
#     Edge 16, Type (0, 0), BuildingBlock: OJICUG_clean_linker_0, # of connection points: 2
#     Edge 17, Type (0, 0), BuildingBlock: OJICUG_clean_linker_0, # of connection points: 2
#     Edge 18, Type (0, 0), BuildingBlock: OJICUG_clean_linker_0, # of connection points: 2
#     Edge 19, Type (0, 0), BuildingBlock: OJICUG_clean_linker_0, # of connection points: 2
#     Edge 20, Type (0, 0), BuildingBlock: OJICUG_clean_linker_0, # of connection points: 2
#     Edge 21, Type (0, 0), BuildingBlock: OJICUG_clean_linker_0, # of connection points: 2
#     Edge 22, Type (0, 0), BuildingBlock: OJICUG_clean_linker_0, # of connection points: 2
#     Edge 23, Type (0, 0), BuildingBlock: OJICUG_clean_linker_0, # of connection points: 2
#     Edge 24, Type (0, 0), BuildingBlock: OJICUG_clean_linker_0, # of connection points: 2
#     Edge 25, Type (0, 0), BuildingBlock: OJICUG_clean_linker_0, # of connection points: 2
#     Edge 26, Type (0, 0), BuildingBlock: OJICUG_clean_linker_0, # of connection points: 2
#     Edge 27, Type (0, 0), BuildingBlock: OJICUG_clean_linker_0, # of connection points: 2
#     Edge 28, Type (0, 0), BuildingBlock: OJICUG_clean_linker_0, # of connection points: 2
#     Edge 29, Type (0, 0), BuildingBlock: OJICUG_clean_linker_0, # of connection points: 2
#     Edge 30, Type (0, 0), BuildingBlock: OJICUG_clean_linker_0, # of connection points: 2
#     Edge 31, Type (0, 0), BuildingBlock: OJICUG_clean_linker_0, # of connection points: 2
#     Edge 32, Type (0, 0), BuildingBlock: OJICUG_clean_linker_0, # of connection points: 2
#     Edge 33, Type (0, 0), BuildingBlock: OJICUG_clean_linker_0, # of connection points: 2
#     Edge 34, Type (0, 0), BuildingBlock: OJICUG_clean_linker_0, # of connection points: 2
#     Edge 35, Type (0, 0), BuildingBlock: OJICUG_clean_linker_0, # of connection points: 2
#     Edge 36, Type (0, 0), BuildingBlock: OJICUG_clean_linker_0, # of connection points: 2
#     Edge 37, Type (0, 0), BuildingBlock: OJICUG_clean_linker_0, # of connection points: 2
#     Edge 38, Type (0, 0), BuildingBlock: OJICUG_clean_linker_0, # of connection points: 2
#     Edge 39, Type (0, 0), BuildingBlock: OJICUG_clean_linker_0, # of connection points: 2
#     Edge 40, Type (0, 0), BuildingBlock: OJICUG_clean_linker_0, # of connection points: 2
#     Edge 41, Type (0, 0), BuildingBlock: OJICUG_clean_linker_0, # of connection points: 2
#     Edge 42, Type (0, 0), BuildingBlock: OJICUG_clean_linker_0, # of connection points: 2
#     Edge 43, Type (0, 0), BuildingBlock: OJICUG_clean_linker_0, # of connection points: 2
#     Edge 44, Type (0, 0), BuildingBlock: OJICUG_clean_linker_0, # of connection points: 2
#     Edge 45, Type (0, 0), BuildingBlock: OJICUG_clean_linker_0, # of connection points: 2
#     Edge 46, Type (0, 0), BuildingBlock: OJICUG_clean_linker_0, # of connection points: 2
#     Edge 47, Type (0, 0), BuildingBlock: OJICUG_clean_linker_0, # of connection points: 2
#     Edge 48, Type (0, 0), BuildingBlock: OJICUG_clean_linker_0, # of connection points: 2
#     Edge 49, Type (0, 0), BuildingBlock: OJICUG_clean_linker_0, # of connection points: 2
#     Edge 50, Type (0, 0), BuildingBlock: OJICUG_clean_linker_0, # of connection points: 2
#     Edge 51, Type (0, 0), BuildingBlock: OJICUG_clean_linker_0, # of connection points: 2
#     Edge 52, Type (0, 0), BuildingBlock: OJICUG_clean_linker_0, # of connection points: 2
#     Edge 53, Type (0, 0), BuildingBlock: OJICUG_clean_linker_0, # of connection points: 2
#     Edge 54, Type (0, 0), BuildingBlock: OJICUG_clean_linker_0, # of connection points: 2
#     Edge 55, Type (0, 0), BuildingBlock: OJICUG_clean_linker_0, # of connection points: 2
# Relax obj value: 0.363
# Max RMSD: 0.245
# Mean RMSD: 0.245
data_MOF--net-zfp--node1-XOMCOT_clean_sbu_0--edge1-OJICUG_clean_linker_0
_symmetry_space_group_name_H-M    P1
_symmetry_Int_Tables_number       1
_symmetry_cell_setting            triclinic
loop_
_symmetry_equiv_pos_as_xyz
'x, y, z'
_cell_length_a     21.280699
_cell_length_b     21.279437
_cell_length_c     53.314288
_cell_angle_alpha  90.038242
_cell_angle_beta   90.003211
_cell_angle_gamma 89.953528
loop_
_atom_site_label
_atom_site_type_symbol
_atom_site_fract_x
_atom_site_fract_y
_atom_site_fract_z
_atom_type_partial_charge
Co0 Co 0.30169 0.32768 0.15019 0.0
C1 C 0.3192 0.29302 0.20353 0.0
C2 C 0.28736 0.21418 0.18183 0.0
C3 C 0.29076 0.19658 0.20674 0.0
N4 N 0.30442 0.27488 0.17993 0.0
N5 N 0.31047 0.24632 0.22042 0.0
H6 H 0.33273 0.34054 0.20836 0.0
H7 H 0.27176 0.18534 0.16632 0.0
C8 C 0.1719 0.31804 0.13017 0.0
O9 O 0.17939 0.378 0.12515 0.0
N10 N 0.30347 0.37904 0.11957 0.0
C11 C 0.3359 0.43293 0.11629 0.0
C12 C 0.33615 0.44856 0.09132 0.0
C13 C 0.2884 0.36062 0.09585 0.0
N14 N 0.3061 0.40331 0.07834 0.0
C15 C 0.25439 0.45112 0.16777 0.0
C16 C 0.14947 0.39823 0.19002 0.0
C17 C 0.14999 0.46244 0.18529 0.0
C18 C 0.20452 0.48992 0.17544 0.0
C19 C 0.1996 0.3617 0.18213 0.0
N20 N 0.24893 0.3872 0.16907 0.0
H21 H 0.29531 0.47272 0.15989 0.0
H22 H 0.19468 0.3115 0.18412 0.0
H23 H 0.36286 0.45678 0.13055 0.0
H24 H 0.2663 0.31617 0.09146 0.0
O25 O 0.38596 0.35727 0.15831 0.0
O26 O 0.36487 0.27491 0.13447 0.0
O27 O 0.2189 0.28625 0.1388 0.0
C28 C 0.40716 0.31168 0.14438 0.0
H29 H 0.27888 0.15083 0.21421 0.0
H30 H 0.36041 0.48829 0.08315 0.0
H31 H 0.10836 0.37565 0.19793 0.0
H32 H 0.20687 0.54011 0.17217 0.0
Co33 Co 0.74756 0.30335 0.64998 0.0
C34 C 0.78071 0.31816 0.70369 0.0
C35 C 0.85948 0.28559 0.6821 0.0
C36 C 0.87679 0.28844 0.70705 0.0
N37 N 0.79907 0.3036 0.68008 0.0
N38 N 0.82714 0.30868 0.72066 0.0
H39 H 0.73341 0.33265 0.70842 0.0
H40 H 0.88846 0.27013 0.66661 0.0
C41 C 0.75643 0.17404 0.62909 0.0
O42 O 0.69712 0.18279 0.62321 0.0
N43 N 0.69749 0.3071 0.61906 0.0
C44 C 0.64416 0.34051 0.61572 0.0
C45 C 0.63169 0.3458 0.59057 0.0
C46 C 0.7181 0.29529 0.59533 0.0
N47 N 0.67827 0.31778 0.57761 0.0
C48 C 0.62284 0.26292 0.66812 0.0
C49 C 0.66899 0.15235 0.68826 0.0
C50 C 0.60414 0.15824 0.6848 0.0
C51 C 0.58086 0.21621 0.67608 0.0
C52 C 0.70866 0.2001 0.68041 0.0
N53 N 0.686 0.25192 0.66815 0.0
H54 H 0.60414 0.30667 0.66153 0.0
H55 H 0.75858 0.19207 0.68208 0.0
H56 H 0.61928 0.36599 0.6301 0.0
H57 H 0.76344 0.27474 0.59113 0.0
O58 O 0.71929 0.38803 0.6583 0.0
O59 O 0.80224 0.36595 0.63495 0.0
O60 O 0.7881 0.22025 0.6384 0.0
C61 C 0.76571 0.40871 0.64473 0.0
H62 H 0.92241 0.27615 0.71456 0.0
H63 H 0.59293 0.37169 0.58243 0.0
H64 H 0.69006 0.10933 0.69508 0.0
H65 H 0.53083 0.22463 0.67451 0.0
Co66 Co 0.77439 0.74584 0.14933 0.0
C67 C 0.7585 0.78022 0.20286 0.0
C68 C 0.79151 0.85848 0.18114 0.0
C69 C 0.78859 0.87618 0.20605 0.0
N70 N 0.77327 0.79813 0.17923 0.0
N71 N 0.76811 0.82684 0.21974 0.0
H72 H 0.744 0.73301 0.20768 0.0
H73 H 0.80734 0.88708 0.16561 0.0
C74 C 0.90457 0.75403 0.1293 0.0
O75 O 0.89654 0.69422 0.12407 0.0
N76 N 0.77168 0.6949 0.11859 0.0
C77 C 0.73916 0.6411 0.11522 0.0
C78 C 0.73911 0.62554 0.09024 0.0
C79 C 0.78718 0.71327 0.09493 0.0
N80 N 0.76949 0.67068 0.07735 0.0
C81 C 0.81407 0.62154 0.16811 0.0
C82 C 0.92407 0.66776 0.1887 0.0
C83 C 0.91825 0.60286 0.18533 0.0
C84 C 0.86048 0.57958 0.17641 0.0
C85 C 0.87661 0.70742 0.1805 0.0
N86 N 0.82519 0.68466 0.16801 0.0
H87 H 0.7705 0.60286 0.16132 0.0
H88 H 0.88467 0.75735 0.18205 0.0
H89 H 0.71185 0.61733 0.12935 0.0
H90 H 0.8097 0.75755 0.09063 0.0
O91 O 0.68964 0.71777 0.15739 0.0
O92 O 0.71208 0.80015 0.13381 0.0
O93 O 0.85782 0.78604 0.13801 0.0
C94 C 0.66917 0.76393 0.14362 0.0
H95 H 0.80115 0.92181 0.21349 0.0
H96 H 0.71477 0.58593 0.082 0.0
H97 H 0.96692 0.68884 0.19566 0.0
H98 H 0.85208 0.52953 0.1749 0.0
Co99 Co 0.32809 0.77435 0.65024 0.0
C100 C 0.29409 0.75754 0.70363 0.0
C101 C 0.21501 0.78944 0.68207 0.0
C102 C 0.19754 0.78571 0.70699 0.0
N103 N 0.27575 0.77251 0.68009 0.0
N104 N 0.24742 0.7659 0.72057 0.0
H105 H 0.34162 0.74383 0.70837 0.0
H106 H 0.18597 0.80491 0.66661 0.0
C107 C 0.31796 0.90342 0.62954 0.0
O108 O 0.37745 0.89524 0.62383 0.0
N109 N 0.37896 0.77148 0.61953 0.0
C110 C 0.43229 0.73797 0.61635 0.0
C111 C 0.44512 0.7324 0.59124 0.0
C112 C 0.35862 0.78293 0.59574 0.0
N113 N 0.39869 0.76023 0.57815 0.0
C114 C 0.45177 0.82217 0.6673 0.0
C115 C 0.39902 0.92772 0.68923 0.0
C116 C 0.46321 0.92694 0.68446 0.0
C117 C 0.49061 0.87214 0.67476 0.0
C118 C 0.36245 0.87739 0.6816 0.0
N119 N 0.38786 0.82767 0.66871 0.0
H120 H 0.47337 0.78105 0.65955 0.0
H121 H 0.31227 0.88235 0.6837 0.0
H122 H 0.45693 0.71269 0.63088 0.0
H123 H 0.31322 0.80317 0.59142 0.0
O124 O 0.3577 0.69014 0.65863 0.0
O125 O 0.27503 0.71086 0.63493 0.0
O126 O 0.28647 0.85685 0.63864 0.0
C127 C 0.3119 0.66871 0.64489 0.0
H128 H 0.15174 0.79725 0.71453 0.0
H129 H 0.48395 0.70637 0.58322 0.0
H130 H 0.37649 0.96903 0.69705 0.0
H131 H 0.54078 0.8696 0.67147 0.0
Co132 Co 0.80176 0.2485 0.89838 0.0
C133 C 0.81778 0.28252 0.84488 0.0
C134 C 0.78565 0.3614 0.86653 0.0
C135 C 0.78872 0.37881 0.84159 0.0
N136 N 0.80314 0.30081 0.86849 0.0
N137 N 0.80864 0.32906 0.82795 0.0
H138 H 0.83173 0.23507 0.84011 0.0
H139 H 0.77014 0.39034 0.88203 0.0
C140 C 0.6727 0.25785 0.91921 0.0
O141 O 0.68109 0.1983 0.92476 0.0
N142 N 0.80497 0.19766 0.9291 0.0
C143 C 0.83864 0.14443 0.93226 0.0
C144 C 0.84395 0.13143 0.95737 0.0
C145 C 0.7932 0.2178 0.9529 0.0
N146 N 0.81582 0.17767 0.97049 0.0
C147 C 0.75505 0.12449 0.88117 0.0
C148 C 0.64894 0.17641 0.85941 0.0
C149 C 0.65041 0.11214 0.864 0.0
C150 C 0.70551 0.0852 0.87362 0.0
C151 C 0.69883 0.21341 0.86713 0.0
N152 N 0.74885 0.18836 0.87993 0.0
H153 H 0.79644 0.10324 0.88884 0.0
H154 H 0.69337 0.26357 0.86514 0.0
H155 H 0.86407 0.11992 0.91774 0.0
H156 H 0.77264 0.26304 0.95725 0.0
O157 O 0.8862 0.21946 0.88998 0.0
O158 O 0.86486 0.302 0.91368 0.0
O159 O 0.71908 0.28959 0.91008 0.0
C160 C 0.90728 0.2654 0.90375 0.0
H161 H 0.7766 0.42449 0.83409 0.0
H162 H 0.86988 0.09252 0.96536 0.0
H163 H 0.60743 0.19861 0.85162 0.0
H164 H 0.70862 1.035 0.87677 0.0
Co165 Co 0.82763 0.8033 0.39774 0.0
C166 C 0.79462 0.81838 0.34403 0.0
C167 C 0.7154 0.78709 0.36562 0.0
C168 C 0.69821 0.78988 0.34065 0.0
N169 N 0.77605 0.80422 0.36763 0.0
N170 N 0.74815 0.80927 0.32704 0.0
H171 H 0.84213 0.83207 0.3393 0.0
H172 H 0.68622 0.77213 0.38111 0.0
C173 C 0.81787 0.6743 0.41857 0.0
O174 O 0.87717 0.68274 0.42451 0.0
N175 N 0.87759 0.80694 0.4287 0.0
C176 C 0.93027 0.84128 0.43209 0.0
C177 C 0.94253 0.84689 0.45724 0.0
C178 C 0.85699 0.79507 0.45243 0.0
N179 N 0.89636 0.81826 0.47017 0.0
C180 C 0.95235 0.75638 0.38157 0.0
C181 C 0.90172 0.65004 0.35953 0.0
C182 C 0.96567 0.65151 0.36476 0.0
C183 C 0.99204 0.70661 0.37457 0.0
C184 C 0.86425 0.70014 0.36677 0.0
N185 N 0.88857 0.7503 0.37971 0.0
H186 H 0.97317 0.79779 0.38938 0.0
H187 H 0.81421 0.69467 0.36437 0.0
H188 H 0.95484 0.8669 0.41766 0.0
H189 H 0.81191 0.77403 0.4566 0.0
O190 O 0.8567 0.88763 0.38932 0.0
O191 O 0.77355 0.86657 0.41267 0.0
O192 O 0.78636 0.72069 0.4093 0.0
C193 C 0.81039 0.90888 0.40285 0.0
H194 H 0.6525 0.77802 0.33312 0.0
H195 H 0.98084 0.87338 0.4654 0.0
H196 H 0.88002 0.60835 0.35168 0.0
H197 H 0.04201 0.7096 0.37825 0.0
Co198 Co 0.27463 0.82631 0.89819 0.0
C199 C 0.2598 0.79281 0.84463 0.0
C200 C 0.29227 0.71401 0.8662 0.0
C201 C 0.28908 0.69657 0.84127 0.0
N202 N 0.27451 0.77451 0.8682 0.0
N203 N 0.26885 0.74625 0.82769 0.0
H204 H 0.24538 0.84013 0.83991 0.0
H205 H 0.30766 0.68503 0.88169 0.0
C206 C 0.40351 0.81666 0.91942 0.0
O207 O 0.39524 0.87614 0.92516 0.0
N208 N 0.27079 0.87682 0.92897 0.0
C209 C 0.23793 0.93056 0.93214 0.0
C210 C 0.23257 0.94349 0.95725 0.0
C211 C 0.28216 0.85645 0.95275 0.0
N212 N 0.25997 0.89681 0.97034 0.0
C213 C 0.31523 0.95045 0.87963 0.0
C214 C 0.42658 0.90412 0.86022 0.0
C215 C 0.42033 0.96907 0.86334 0.0
C216 C 0.36196 0.99237 0.87165 0.0
C217 C 0.37872 0.86451 0.86803 0.0
N218 N 0.32656 0.88737 0.88001 0.0
H219 H 0.27112 0.96913 0.88586 0.0
H220 H 0.3868 0.81455 0.86654 0.0
H221 H 0.21288 0.95552 0.91767 0.0
H222 H 0.30224 0.81098 0.95707 0.0
O223 O 0.19025 0.85494 0.88965 0.0
O224 O 0.21163 0.77213 0.91317 0.0
O225 O 0.35722 0.78533 0.91001 0.0
C226 C 0.16919 0.80872 0.90323 0.0
H227 H 0.30106 0.65086 0.83374 0.0
H228 H 0.20709 0.9827 0.96527 0.0
H229 H 0.46985 0.88301 0.85367 0.0
H230 H 0.35319 0.04241 0.87288 0.0
Co231 Co 0.24865 0.27268 0.39842 0.0
C232 C 0.28161 0.25784 0.34465 0.0
C233 C 0.36039 0.2902 0.36626 0.0
C234 C 0.37778 0.28718 0.34133 0.0
N235 N 0.29993 0.27245 0.36825 0.0
N236 N 0.32813 0.26708 0.3277 0.0
H237 H 0.23431 0.24343 0.3399 0.0
H238 H 0.38939 0.30552 0.38176 0.0
C239 C 0.25758 0.40208 0.41918 0.0
O240 O 0.19833 0.39342 0.42517 0.0
N241 N 0.19893 0.2688 0.42943 0.0
C242 C 0.14627 0.23448 0.43289 0.0
C243 C 0.13407 0.22923 0.45806 0.0
C244 C 0.21952 0.28113 0.45313 0.0
N245 N 0.18022 0.25814 0.47092 0.0
C246 C 0.12344 0.31443 0.38127 0.0
C247 C 0.1697 0.42394 0.36032 0.0
C248 C 0.10512 0.41916 0.36461 0.0
C249 C 0.08161 0.36182 0.3738 0.0
C250 C 0.20928 0.37569 0.36787 0.0
N251 N 0.18675 0.32428 0.38042 0.0
H252 H 0.1045 0.27124 0.38827 0.0
H253 H 0.25918 0.3832 0.36581 0.0
H254 H 0.12175 0.20847 0.41856 0.0
H255 H 0.26453 0.30241 0.45725 0.0
O256 O 0.22046 0.18802 0.39009 0.0
O257 O 0.3036 0.21005 0.41332 0.0
O258 O 0.2892 0.35576 0.4099 0.0
C259 C 0.26707 0.1673 0.40358 0.0
H260 H 0.42347 0.29922 0.33383 0.0
H261 H 0.09583 0.2028 0.46627 0.0
H262 H 0.1907 0.4666 0.35314 0.0
H263 H 1.03159 0.35453 0.37613 0.0
Co264 Co 0.77395 0.74621 0.89806 0.0
C265 C 0.75623 0.78118 0.84473 0.0
C266 C 0.78867 0.8597 0.86648 0.0
C267 C 0.78523 0.87748 0.84159 0.0
N268 N 0.77125 0.7991 0.86834 0.0
N269 N 0.76516 0.82794 0.82788 0.0
H270 H 0.74242 0.73378 0.83987 0.0
H271 H 0.80456 0.88836 0.882 0.0
C272 C 0.90409 0.75506 0.91785 0.0
O273 O 0.89634 0.69514 0.92288 0.0
N274 N 0.77218 0.69481 0.92866 0.0
C275 C 0.73941 0.64116 0.93199 0.0
C276 C 0.7393 0.62553 0.95696 0.0
C277 C 0.78762 0.71314 0.95235 0.0
N278 N 0.76978 0.67057 0.96989 0.0
C279 C 0.82056 0.6225 0.88048 0.0
C280 C 0.92548 0.67487 0.85805 0.0
C281 C 0.92484 0.61072 0.8629 0.0
C282 C 0.87029 0.58348 0.87284 0.0
C283 C 0.87549 0.71163 0.86593 0.0
N284 N 0.82619 0.68639 0.87909 0.0
H285 H 0.77963 0.60108 0.88844 0.0
H286 H 0.88061 0.7618 0.86389 0.0
H287 H 0.71214 0.6175 0.91777 0.0
H288 H 0.81004 0.75744 0.95671 0.0
O289 O 0.68939 0.71716 0.89007 0.0
O290 O 0.7112 0.79933 0.9139 0.0
O291 O 0.85713 0.78712 0.90932 0.0
C292 C 0.66858 0.76285 0.90405 0.0
H293 H 0.79737 0.9232 0.83416 0.0
H294 H 0.71483 0.58598 0.96517 0.0
H295 H 0.96663 0.69727 0.85008 0.0
H296 H 0.86786 0.53335 0.87621 0.0
Co297 Co 0.32931 0.77275 0.39842 0.0
C298 C 0.29654 0.75807 0.34472 0.0
C299 C 0.21753 0.79052 0.3662 0.0
C300 C 0.20045 0.78768 0.34123 0.0
N301 N 0.27795 0.77258 0.36829 0.0
N302 N 0.25026 0.76752 0.32769 0.0
H303 H 0.34391 0.74366 0.34006 0.0
H304 H 0.1884 0.80591 0.38166 0.0
C305 C 0.32026 0.90202 0.41933 0.0
O306 O 0.37955 0.89332 0.42525 0.0
N307 N 0.37927 0.76883 0.42935 0.0
C308 C 0.43233 0.735 0.4327 0.0
C309 C 0.44485 0.7298 0.45784 0.0
C310 C 0.35878 0.78091 0.45308 0.0
N311 N 0.39852 0.75824 0.47079 0.0
C312 C 0.45422 0.81413 0.38078 0.0
C313 C 0.40764 0.9242 0.36035 0.0
C314 C 0.4724 0.919 0.36418 0.0
C315 C 0.49598 0.86131 0.37307 0.0
C316 C 0.36818 0.87605 0.368 0.0
N317 N 0.39094 0.82441 0.38036 0.0
H318 H 0.4732 0.77067 0.38753 0.0
H319 H 0.31825 0.88374 0.36615 0.0
H320 H 0.457 0.7093 0.41832 0.0
H321 H 0.31362 0.80184 0.45728 0.0
O322 O 0.35755 0.68805 0.39006 0.0
O323 O 0.27453 0.71011 0.41336 0.0
O324 O 0.28867 0.85577 0.41001 0.0
C325 C 0.31102 0.66735 0.40357 0.0
H326 H 0.15489 0.79994 0.33365 0.0
H327 H 0.48349 0.70374 0.46599 0.0
H328 H 0.38641 0.96703 0.35341 0.0
H329 H 0.54604 0.85351 0.37498 0.0
Co330 Co 0.30211 0.32882 0.89878 0.0
C331 C 0.31832 0.29497 0.84524 0.0
C332 C 0.28581 0.21629 0.86684 0.0
C333 C 0.2891 0.19876 0.84191 0.0
N334 N 0.30349 0.27679 0.86882 0.0
N335 N 0.30929 0.24838 0.8283 0.0
H336 H 0.33254 0.34231 0.84048 0.0
H337 H 0.27018 0.18742 0.88231 0.0
C338 C 0.17214 0.31963 0.9189 0.0
O339 O 0.17983 0.37946 0.92417 0.0
N340 N 0.30463 0.37953 0.92959 0.0
C341 C 0.3369 0.43346 0.93301 0.0
C342 C 0.33693 0.44888 0.958 0.0
C343 C 0.28929 0.36093 0.95325 0.0
N344 N 0.30679 0.40351 0.97086 0.0
C345 C 0.26144 0.45302 0.88024 0.0
C346 C 0.15177 0.40619 0.85958 0.0
C347 C 0.1571 0.47108 0.86306 0.0
C348 C 0.21469 0.49471 0.87203 0.0
C349 C 0.19955 0.3668 0.8677 0.0
N350 N 0.25082 0.38981 0.88021 0.0
H351 H 0.30486 0.47196 0.88706 0.0
H352 H 0.19185 0.31682 0.86607 0.0
H353 H 0.36404 0.45747 0.91889 0.0
H354 H 0.267 0.31652 0.95752 0.0
O355 O 0.38662 0.35749 0.8907 0.0
O356 O 0.36476 0.27478 0.91418 0.0
O357 O 0.21901 0.28797 0.91009 0.0
C358 C 0.4074 0.31132 0.90438 0.0
H359 H 0.27704 0.15307 0.8344 0.0
H360 H 0.36106 0.48857 0.96628 0.0
H361 H 0.10907 0.38488 0.85258 0.0
H362 H 0.2227 0.5448 0.87363 0.0
Co363 Co 0.74862 0.30334 0.39796 0.0
C364 C 0.78235 0.31958 0.34442 0.0
C365 C 0.86131 0.28751 0.36601 0.0
C366 C 0.87878 0.29097 0.34109 0.0
N367 N 0.80064 0.30471 0.36799 0.0
N368 N 0.829 0.31088 0.32749 0.0
H369 H 0.7349 0.33352 0.33966 0.0
H370 H 0.89031 0.27208 0.38149 0.0
C371 C 0.75842 0.17424 0.41867 0.0
O372 O 0.69904 0.18266 0.42452 0.0
N373 N 0.69816 0.30664 0.42879 0.0
C374 C 0.64517 0.34064 0.43206 0.0
C375 C 0.6325 0.34614 0.45719 0.0
C376 C 0.71852 0.29486 0.45256 0.0
N377 N 0.67873 0.31778 0.47022 0.0
C378 C 0.62439 0.25593 0.38138 0.0
C379 C 0.67623 0.15008 0.35934 0.0
C380 C 0.61218 0.15107 0.3644 0.0
C381 C 0.58521 0.20598 0.37418 0.0
C382 C 0.71316 0.20038 0.36673 0.0
N383 N 0.68825 0.25027 0.37968 0.0
H384 H 0.60312 0.29713 0.38919 0.0
H385 H 0.76326 0.19522 0.36444 0.0
H386 H 0.62062 0.36614 0.41757 0.0
H387 H 0.76371 0.2741 0.45683 0.0
O388 O 0.71938 0.38769 0.38957 0.0
O389 O 0.80225 0.36661 0.4131 0.0
O390 O 0.78997 0.22069 0.40952 0.0
C391 C 0.76548 0.40893 0.4032 0.0
H392 H 0.92455 0.27921 0.33358 0.0
H393 H 0.59387 0.37237 0.46526 0.0
H394 H 0.69841 0.10863 0.35148 0.0
H395 H 0.53515 0.20865 0.37771 0.0
Co396 Co 0.27482 0.82696 0.14984 0.0
C397 C 0.2605 0.79373 0.20346 0.0
C398 C 0.29338 0.71501 0.18191 0.0
C399 C 0.29079 0.69784 0.20688 0.0
N400 N 0.27498 0.7753 0.17987 0.0
N401 N 0.27034 0.74748 0.22046 0.0
H402 H 0.24583 0.84101 0.20816 0.0
H403 H 0.30894 0.68604 0.16643 0.0
C404 C 0.40388 0.81823 0.12868 0.0
O405 O 0.39522 0.87766 0.12297 0.0
N406 N 0.27076 0.87733 0.11906 0.0
C407 C 0.23766 0.93091 0.11588 0.0
C408 C 0.23228 0.94372 0.09077 0.0
C409 C 0.28226 0.85692 0.09529 0.0
N410 N 0.25989 0.8971 0.07769 0.0
C411 C 0.31432 0.95145 0.16854 0.0
C412 C 0.42592 0.90596 0.18801 0.0
C413 C 0.4191 0.97088 0.18502 0.0
C414 C 0.36061 0.99373 0.17665 0.0
C415 C 0.37849 0.866 0.18006 0.0
N416 N 0.3262 0.88847 0.16807 0.0
H417 H 0.27008 0.96978 0.1623 0.0
H418 H 0.38701 0.8161 0.18149 0.0
H419 H 0.21248 0.9558 0.13033 0.0
H420 H 0.30256 0.81153 0.09098 0.0
O421 O 0.19012 0.85495 0.15828 0.0
O422 O 0.2123 0.77224 0.13479 0.0
O423 O 0.35778 0.78659 0.13806 0.0
C424 C 0.1695 0.80857 0.14465 0.0
H425 H 0.30341 0.65236 0.21442 0.0
H426 H 0.20664 0.98279 0.08274 0.0
H427 H 0.46931 0.88516 0.19457 0.0
H428 H 0.35142 0.0437 0.17549 0.0
Co429 Co 0.24988 0.27445 0.65053 0.0
C430 C 0.28331 0.25854 0.70411 0.0
C431 C 0.36253 0.28992 0.68254 0.0
C432 C 0.37982 0.28668 0.70749 0.0
N433 N 0.30181 0.27301 0.68053 0.0
N434 N 0.32987 0.26721 0.72108 0.0
H435 H 0.23577 0.24493 0.70884 0.0
H436 H 0.39168 0.30503 0.66706 0.0
C437 C 0.26003 0.40334 0.62966 0.0
O438 O 0.20059 0.39517 0.62389 0.0
N439 N 0.19947 0.27128 0.61969 0.0
C440 C 0.14634 0.23757 0.61641 0.0
C441 C 0.13384 0.23193 0.59127 0.0
C442 C 0.22002 0.28279 0.59593 0.0
N443 N 0.18026 0.25996 0.57827 0.0
C444 C 0.12576 0.32198 0.66724 0.0
C445 C 0.17756 0.42806 0.68906 0.0
C446 C 0.11341 0.42689 0.68419 0.0
C447 C 0.0865 0.37185 0.67453 0.0
C448 C 0.21456 0.3778 0.68161 0.0
N449 N 0.18962 0.3278 0.66877 0.0
H450 H 0.10453 0.28065 0.65953 0.0
H451 H 0.26468 0.38297 0.68381 0.0
H452 H 0.12163 0.21227 0.63089 0.0
H453 H 0.26534 0.30322 0.59168 0.0
O454 O 0.2204 0.19024 0.65895 0.0
O455 O 0.30334 0.21092 0.63542 0.0
O456 O 0.29146 0.35686 0.63891 0.0
C457 C 0.2664 0.16878 0.6453 0.0
H458 H 0.42559 0.29828 0.71503 0.0
H459 H 0.09524 0.20576 0.58317 0.0
H460 H 0.19972 0.46957 0.69685 0.0
H461 H 1.03638 0.36899 0.67117 0.0
Co462 Co 0.80119 0.24926 0.14999 0.0
C463 C 0.81766 0.28373 0.20341 0.0
C464 C 0.78597 0.36262 0.1817 0.0
C465 C 0.78952 0.38032 0.20661 0.0
N466 N 0.80288 0.30185 0.17981 0.0
N467 N 0.8092 0.33057 0.22028 0.0
H468 H 0.83134 0.23624 0.20823 0.0
H469 H 0.77065 0.39154 0.16619 0.0
C470 C 0.67235 0.25939 0.12907 0.0
O471 O 0.6804 0.19977 0.12352 0.0
N472 N 0.80415 0.19815 0.11931 0.0
C473 C 0.83743 0.14464 0.11621 0.0
C474 C 0.84284 0.13148 0.09111 0.0
C475 C 0.79272 0.21825 0.09549 0.0
N476 N 0.81515 0.17786 0.07795 0.0
C477 C 0.75355 0.12581 0.1673 0.0
C478 C 0.64772 0.17867 0.18896 0.0
C479 C 0.64882 0.11433 0.18447 0.0
C480 C 0.70377 0.08693 0.17491 0.0
C481 C 0.69789 0.21526 0.18121 0.0
N482 N 0.74775 0.18972 0.16846 0.0
H483 H 0.79482 0.10421 0.15968 0.0
H484 H 0.69279 0.26547 0.18316 0.0
H485 H 0.86259 0.12002 0.13077 0.0
H486 H 0.77256 0.26364 0.0911 0.0
O487 O 0.88528 0.2196 0.15851 0.0
O488 O 0.86478 0.30212 0.1347 0.0
O489 O 0.71888 0.29089 0.13821 0.0
C490 C 0.90682 0.26527 0.14474 0.0
H491 H 0.77798 0.42622 0.21407 0.0
H492 H 0.86858 0.09236 0.08316 0.0
H493 H 0.60635 0.20122 0.1967 0.0
H494 H 0.70659 1.03667 0.17185 0.0
Co495 Co 0.82727 0.80318 0.64991 0.0
C496 C 0.79402 0.81756 0.70365 0.0
C497 C 0.71531 0.78543 0.68195 0.0
C498 C 0.69785 0.78817 0.70688 0.0
N499 N 0.77577 0.80323 0.68001 0.0
N500 N 0.74746 0.80813 0.72056 0.0
H501 H 0.84132 0.83188 0.70844 0.0
H502 H 0.68637 0.77024 0.66641 0.0
C503 C 0.81837 0.67398 0.62892 0.0
O504 O 0.87765 0.68265 0.623 0.0
N505 N 0.87727 0.80709 0.61898 0.0
C506 C 0.93043 0.84067 0.61563 0.0
C507 C 0.9428 0.84609 0.59048 0.0
C508 C 0.85663 0.7953 0.59525 0.0
N509 N 0.89632 0.81797 0.57753 0.0
C510 C 0.9521 0.76251 0.66787 0.0
C511 C 0.90625 0.6518 0.68794 0.0
C512 C 0.97107 0.65768 0.68441 0.0
C513 C 0.9942 0.71571 0.67572 0.0
C514 C 0.86645 0.69966 0.68021 0.0
N515 N 0.88895 0.75157 0.66799 0.0
H516 H 0.9707 0.80628 0.66131 0.0
H517 H 0.81654 0.69166 0.68194 0.0
H518 H 0.95525 0.86615 0.63002 0.0
H519 H 0.81137 0.77465 0.59105 0.0
O520 O 0.85549 0.88778 0.65832 0.0
O521 O 0.77252 0.86593 0.63496 0.0
O522 O 0.78674 0.72021 0.63826 0.0
C523 C 0.80904 0.9086 0.64478 0.0
H524 H 0.65215 0.77603 0.71433 0.0
H525 H 0.98139 0.87214 0.58233 0.0
H526 H 0.8853 0.60874 0.69474 0.0
H527 H 0.04421 0.72413 0.67409 0.0
C528 C 0.27863 0.21271 0.26325 0.0
C529 C 0.31605 0.25037 0.24749 0.0
H530 H 0.25301 0.18845 0.30095 0.0
C531 C 0.35803 0.29302 0.25869 0.0
H532 H 0.2453 0.17981 0.25536 0.0
C533 C 0.36244 0.29794 0.28487 0.0
C534 C 0.32453 0.2608 0.30064 0.0
H535 H 0.38784 0.32244 0.2472 0.0
H536 H 0.39483 0.3318 0.29274 0.0
C537 C 0.28258 0.21809 0.28945 0.0
C538 C 0.77706 0.36274 0.78509 0.0
C539 C 0.81439 0.32501 0.80088 0.0
H540 H 0.75175 0.38721 0.74738 0.0
C541 C 0.85656 0.28243 0.78971 0.0
H542 H 0.74359 0.3956 0.79295 0.0
C543 C 0.86121 0.27764 0.76352 0.0
C544 C 0.82338 0.31485 0.74772 0.0
H545 H 0.88634 0.25297 0.80122 0.0
H546 H 0.89374 0.24383 0.75567 0.0
C547 C 0.78126 0.35749 0.75889 0.0
C548 C 0.7143 0.77748 0.28423 0.0
C549 C 0.75227 0.8147 0.29997 0.0
H550 H 0.68946 0.75211 0.24656 0.0
C551 C 0.79499 0.85653 0.28874 0.0
H552 H 0.68135 0.74426 0.29213 0.0
C553 C 0.79961 0.86102 0.26255 0.0
C554 C 0.76211 0.82333 0.2468 0.0
H555 H 0.82464 0.88621 0.30022 0.0
H556 H 0.83351 0.89329 0.25465 0.0
C557 C 0.71938 0.78151 0.25803 0.0
C558 C 0.29931 0.71239 0.78475 0.0
C559 C 0.26221 0.75002 0.80067 0.0
H560 H 0.3237 0.68781 0.74696 0.0
C561 C 0.21932 0.79214 0.78967 0.0
H562 H 0.33327 0.67987 0.79248 0.0
C563 C 0.21381 0.79664 0.76351 0.0
C564 C 0.25152 0.75962 0.74759 0.0
H565 H 0.18966 0.82147 0.8013 0.0
H566 H 0.18083 0.83014 0.75577 0.0
C567 C 0.29427 0.71736 0.75859 0.0
C568 C 0.79706 0.8618 0.78509 0.0
C569 C 0.75954 0.82411 0.80081 0.0
H570 H 0.82273 0.88634 0.74743 0.0
C571 C 0.71743 0.78169 0.78955 0.0
H572 H 0.8305 0.89452 0.79302 0.0
C573 C 0.71299 0.77701 0.76335 0.0
C574 C 0.75102 0.81418 0.74763 0.0
H575 H 0.68753 0.75225 0.801 0.0
H576 H 0.6805 0.74332 0.75544 0.0
C577 C 0.79308 0.85667 0.75889 0.0
C578 C 0.29693 0.71908 0.28955 0.0
C579 C 0.25438 0.76143 0.30064 0.0
H580 H 0.33537 0.68135 0.25558 0.0
C581 C 0.21656 0.79848 0.28478 0.0
H582 H 0.32644 0.68948 0.30111 0.0
C583 C 0.22164 0.79381 0.2586 0.0
C584 C 0.26426 0.75154 0.24751 0.0
H585 H 0.18372 0.83206 0.29256 0.0
H586 H 0.19182 0.8231 0.24704 0.0
C587 C 0.30159 0.71398 0.26337 0.0
C588 C 0.28309 0.21926 0.75923 0.0
C589 C 0.32576 0.26135 0.74813 0.0
H590 H 0.24443 0.18203 0.79322 0.0
C591 C 0.36355 0.29846 0.76397 0.0
H592 H 0.25358 0.18965 0.74768 0.0
C593 C 0.35829 0.29415 0.79015 0.0
C594 C 0.31557 0.25211 0.80126 0.0
H595 H 0.39647 0.33185 0.75615 0.0
H596 H 0.38803 0.32352 0.80171 0.0
C597 C 0.2783 0.21447 0.78541 0.0
C598 C 0.86281 0.27977 0.2846 0.0
C599 C 0.82513 0.31706 0.30045 0.0
H600 H 0.88738 0.25479 0.24687 0.0
C601 C 0.78286 0.35963 0.28934 0.0
H602 H 0.89543 0.24603 0.29242 0.0
C603 C 0.77831 0.36469 0.26316 0.0
C604 C 0.81541 0.32682 0.24732 0.0
H605 H 0.75346 0.38937 0.30091 0.0
H606 H 0.74473 0.39747 0.25534 0.0
C607 C 0.85777 0.28435 0.25843 0.0
C608 C 0.2958 0.45792 0.03771 0.0
C609 C 0.29917 0.40141 0.05129 0.0
H610 H 0.29417 0.50268 1.00188 0.0
C611 C 0.29938 0.34441 0.03779 0.0
H612 H 0.29391 0.5026 0.0474 0.0
C613 C 0.29954 0.34446 1.01132 0.0
C614 C 0.29949 0.40151 0.99789 0.0
H615 H 0.30203 0.30003 0.04764 0.0
H616 H 0.30232 0.30012 1.00143 0.0
C617 C 0.29595 0.45797 1.01153 0.0
C618 C 0.66313 0.3714 0.51084 0.0
C619 C 0.68611 0.31963 0.49724 0.0
H620 H 0.64409 0.41199 0.54664 0.0
C621 C 0.71245 0.26905 0.51069 0.0
H622 H 0.64431 0.41201 0.50121 0.0
C623 C 0.71235 0.26906 0.53717 0.0
C624 C 0.68589 0.31963 0.5506 0.0
H625 H 0.73064 0.22855 0.50075 0.0
H626 H 0.73046 0.22856 0.54711 0.0
C627 C 0.66301 0.3714 0.53701 0.0
C628 C 0.77703 0.72954 1.0104 0.0
C629 C 0.77689 0.6725 0.99693 0.0
H630 H 0.77443 0.77396 0.04674 0.0
C631 C 0.78003 0.61601 1.01053 0.0
H632 H 0.77455 0.77391 1.00054 0.0
C633 C 0.77997 0.61604 0.03671 0.0
C634 C 0.77676 0.67256 0.05032 0.0
H635 H 0.78164 0.57131 1.00085 0.0
H636 H 0.78156 0.57135 0.04638 0.0
C637 C 0.77696 0.72957 0.03687 0.0
C638 C 0.41414 0.7054 0.51153 0.0
C639 C 0.39109 0.75687 0.49781 0.0
H640 H 0.43319 0.66552 0.54744 0.0
C641 C 0.36465 0.80767 0.51111 0.0
H642 H 0.43305 0.66464 0.502 0.0
C643 C 0.36471 0.80816 0.53759 0.0
C644 C 0.39123 0.75788 0.55115 0.0
H645 H 0.34641 0.84795 0.50108 0.0
H646 H 0.34649 0.84881 0.54742 0.0
C647 C 0.41423 0.7059 0.5377 0.0
C648 C 0.76719 0.2122 0.03741 0.0
C649 C 0.81715 0.18485 0.05091 0.0
H650 H 0.7273 0.23116 1.00096 0.0
C651 C 0.86848 0.16076 0.03736 0.0
H652 H 0.72703 0.23126 0.0473 0.0
C653 C 0.86864 0.16072 1.01119 0.0
C654 C 0.81748 0.18475 0.99753 0.0
H655 H 0.90866 0.14113 0.04703 0.0
H656 H 0.90896 0.14108 1.00161 0.0
C657 C 0.76735 0.21214 1.01093 0.0
C658 C 0.86285 0.76906 0.53706 0.0
C659 C 0.88862 0.81989 0.55053 0.0
H660 H 0.84529 0.72844 0.50061 0.0
C661 C 0.91086 0.87196 0.53698 0.0
H662 H 0.84525 0.72833 0.54697 0.0
C663 C 0.91085 0.87204 0.51081 0.0
C664 C 0.88864 0.82003 0.49718 0.0
H665 H 0.92925 0.91271 0.54666 0.0
H666 H 0.92922 0.91287 0.50121 0.0
C667 C 0.86287 0.76913 0.51058 0.0
C668 C 0.30805 0.86239 0.03726 0.0
C669 C 0.25799 0.88981 0.05068 0.0
H670 H 0.34819 0.8433 1.00086 0.0
C671 C 0.20671 0.91376 0.03708 0.0
H672 H 0.34817 0.84344 0.0472 0.0
C673 C 0.20672 0.91369 1.01092 0.0
C674 C 0.25802 0.88965 0.99735 0.0
H675 H 0.16646 0.93343 0.0467 0.0
H676 H 0.1665 0.93331 1.00127 0.0
C677 C 0.30807 0.86231 1.01079 0.0
C678 C 0.2136 0.30836 0.53772 0.0
C679 C 0.18795 0.25767 0.55127 0.0
H680 H 0.23108 0.34851 0.5012 0.0
C681 C 0.16584 0.20535 0.53781 0.0
H682 H 0.23111 0.34928 0.54756 0.0
C683 C 0.16587 0.20489 0.51165 0.0
C684 C 0.18796 0.25676 0.49793 0.0
H685 H 0.14754 0.1647 0.54756 0.0
H686 H 0.14761 0.16388 0.50211 0.0
C687 C 0.2136 0.30792 0.51123 0.0
C688 C 0.04101 0.47955 0.1707 0.0
C689 C 0.09026 0.49707 0.18673 0.0
H690 H 0.94861 0.49915 0.15752 0.0
C691 C 0.08107 0.54558 0.20405 0.0
H692 H 0.04733 0.44183 0.15725 0.0
C693 C 1.02342 0.5772 0.20493 0.0
C694 C 0.97468 0.56189 0.188 0.0
H695 H 0.11828 0.55884 0.21687 0.0
H696 H 1.01765 0.61445 0.21857 0.0
C697 C 0.98405 0.51182 0.17117 0.0
C698 C 0.54657 0.9954 0.70323 0.0
C699 C 0.49806 0.9865 0.6859 0.0
H700 H 0.61554 0.05846 0.71783 0.0
C701 C 0.48074 1.03589 0.66991 0.0
H702 H 0.55969 0.95808 0.71602 0.0
C703 C 0.51316 0.09272 0.67045 0.0
C704 C 0.56318 0.10181 0.6873 0.0
H705 H 0.44302 1.0298 0.65646 0.0
H706 H 0.50061 0.12831 0.65684 0.0
C707 C 0.57834 0.0529 0.70417 0.0
C708 C 0.4846 0.0612 0.87743 0.0
C709 C 0.4766 1.0103 0.8609 0.0
H710 H 0.54626 0.13264 0.89125 0.0
C711 C 0.5263 0.99476 0.84445 0.0
H712 H 0.44841 0.07409 0.89075 0.0
C713 C 0.58346 1.02714 0.84547 0.0
C714 C 0.59121 0.07665 0.86245 0.0
H715 H 0.52163 0.95685 0.83103 0.0
H716 H 0.62139 1.01374 0.83301 0.0
C717 C 0.54106 0.09423 0.87804 0.0
C718 C 1.01798 0.48749 0.38052 0.0
C719 C 0.06491 0.47618 0.36251 0.0
H720 H 0.95062 0.55252 0.39527 0.0
C721 C 0.07797 0.52333 0.34463 0.0
H722 H 1.00737 0.4532 0.39491 0.0
C723 C 0.04666 0.58116 0.34543 0.0
C724 C 1.00106 0.59221 0.36381 0.0
H725 H 0.11303 0.51597 0.33021 0.0
H726 H 0.05772 0.61697 0.3317 0.0
C727 C 0.98619 0.54474 0.38105 0.0
C728 C 0.99414 0.52779 0.84421 0.0
C729 C 0.98456 0.57605 0.86161 0.0
H730 H 0.05801 0.45932 0.82969 0.0
C731 C 1.0335 0.59347 0.87781 0.0
H732 H 0.95717 0.51461 0.83127 0.0
C733 C 0.09059 0.56143 0.87738 0.0
C734 C 0.10039 0.51168 0.86044 0.0
H735 H 1.02688 0.63101 0.89131 0.0
H736 H 0.12582 0.57406 0.89113 0.0
C737 C 0.05191 0.49637 0.84339 0.0
C738 C 0.52963 0.08182 0.34553 0.0
C739 C 0.57719 0.09156 0.36321 0.0
H740 H 0.46174 1.01785 0.33072 0.0
C741 C 0.59385 0.04287 0.37965 0.0
H742 H 0.51708 0.11858 0.3324 0.0
C743 C 0.56181 0.98581 0.37912 0.0
C744 C 0.51285 0.97582 0.36186 0.0
H745 H 0.63088 0.04963 0.39335 0.0
H746 H 0.57385 0.9507 0.393 0.0
C747 C 0.4982 1.02412 0.34465 0.0
C748 C 0.48283 0.0636 0.17119 0.0
C749 C 0.47502 1.01252 0.18762 0.0
H750 H 0.54435 0.13519 0.15743 0.0
C751 C 0.52473 0.99711 0.20408 0.0
H752 H 0.44661 0.07643 0.15788 0.0
C753 C 0.58182 1.02958 0.20307 0.0
C754 C 0.58948 0.07913 0.18613 0.0
H755 H 0.52017 0.95913 0.21745 0.0
H756 H 0.61982 1.01615 0.2155 0.0
C757 C 0.53923 0.09675 0.17061 0.0
C758 C 1.02948 0.495 0.70284 0.0
C759 C 0.07807 0.48625 0.68553 0.0
H760 H 0.96012 0.5578 0.7174 0.0
C761 C 0.09502 0.53562 0.66948 0.0
H762 H 1.01663 0.45769 0.71567 0.0
C763 C 0.06222 0.5923 0.66997 0.0
C764 C 1.0122 0.60127 0.68684 0.0
H765 H 0.13278 0.52965 0.65603 0.0
H766 H 0.07454 0.62789 0.65634 0.0
C767 C 0.99733 0.55235 0.70374 0.0
C768 C 0.58634 0.32867 0.14728 0.0
C769 C 0.60593 0.28193 0.1303 0.0
H770 H 0.50815 0.37454 0.16526 0.0
C771 C 0.55944 0.24818 0.11715 0.0
H772 H 0.62068 0.35487 0.15802 0.0
C773 C 0.49549 0.25846 0.1216 0.0
C774 C 0.47564 0.30322 0.13924 0.0
H775 H 0.5725 0.21173 0.10394 0.0
H776 H 0.46154 0.23034 0.11144 0.0
C777 C 0.52181 0.3393 0.15165 0.0
C778 C 0.82042 0.49663 0.62226 0.0
C779 C 0.77489 0.47714 0.63962 0.0
H780 H 0.86778 0.57328 0.60467 0.0
C781 C 0.73834 0.52363 0.65166 0.0
H782 H 0.84888 0.46244 0.61236 0.0
C783 C 0.74911 0.58807 0.64717 0.0
C784 C 0.79648 0.60733 0.63044 0.0
H785 H 0.70246 0.51028 0.66503 0.0
H786 H 0.7223 0.62262 0.65759 0.0
C787 C 0.83089 0.56053 0.6177 0.0
C788 C 0.51714 0.83034 0.11711 0.0
C789 C 0.47047 0.79598 0.1299 0.0
H790 H 0.61522 0.84784 0.11153 0.0
C791 C 0.48988 0.74818 0.14641 0.0
H792 H 0.50425 0.86756 0.10424 0.0
C793 C 0.55434 0.73697 0.15067 0.0
C794 C 0.60074 0.77345 0.1386 0.0
H795 H 0.45545 0.72139 0.15685 0.0
H796 H 0.56779 0.7008 0.16391 0.0
C797 C 0.5811 0.81939 0.12142 0.0
C798 C 0.32896 0.48947 0.64798 0.0
C799 C 0.28237 0.46981 0.63097 0.0
H800 H 0.37467 0.56776 0.66594 0.0
C801 C 0.24863 0.51626 0.61778 0.0
H802 H 0.35515 0.45517 0.65875 0.0
C803 C 0.2588 0.58023 0.62221 0.0
C804 C 0.30345 0.60016 0.63987 0.0
H805 H 0.2123 0.50317 0.60454 0.0
H806 H 0.23071 0.61413 0.61201 0.0
C807 C 0.3395 0.55403 0.65233 0.0
C808 C 0.08667 0.24964 0.90077 0.0
C809 C 0.10589 0.29666 0.91769 0.0
H810 H 1.00881 0.20307 0.88286 0.0
C811 C 0.05915 0.33013 0.93083 0.0
H812 H 0.12121 0.22361 0.89005 0.0
C813 C 0.99528 0.31929 0.92643 0.0
C814 C 0.97575 0.27432 0.90882 0.0
H815 H 0.07195 0.36671 0.94401 0.0
H816 H 0.96112 0.34716 0.93661 0.0
C817 C 1.02221 0.2385 0.89643 0.0
C818 C 0.75647 0.99712 0.42543 0.0
C819 C 0.8016 0.97738 0.40792 0.0
H820 H 0.70966 0.07395 0.44317 0.0
C821 C 0.83801 1.02366 0.39575 0.0
H822 H 0.72808 0.96311 0.43541 0.0
C823 C 0.82744 0.08817 0.40026 0.0
C824 C 0.78049 0.10765 0.41715 0.0
H825 H 0.87356 1.01009 0.38226 0.0
H826 H 0.854 0.1226 0.38972 0.0
C827 C 0.7463 0.06103 0.43003 0.0
C828 C 1.01693 0.74378 0.92979 0.0
C829 C 0.9704 0.77781 0.91676 0.0
H830 H 0.11485 0.72605 0.93556 0.0
C831 C 0.98991 0.82502 0.90003 0.0
H832 H 1.00391 0.70694 0.94281 0.0
C833 C 0.05445 0.83594 0.8958 0.0
C834 C 0.10068 0.79966 0.9081 0.0
H835 H 0.95554 0.8514 0.88937 0.0
H836 H 0.06808 0.87163 0.8824 0.0
C837 C 0.08087 0.75434 0.92548 0.0
C838 C 0.23984 0.05238 0.39665 0.0
C839 C 0.27642 0.09886 0.40864 0.0
H840 H 0.22391 0.95339 0.39075 0.0
C841 C 0.32214 0.07937 0.42594 0.0
H842 H 0.20381 0.06574 0.38333 0.0
C843 C 0.33274 1.01548 0.43049 0.0
C844 C 0.29828 0.96867 0.4178 0.0
H845 H 0.35063 0.11355 0.4358 0.0
H846 H 0.36977 1.00272 0.44348 0.0
C847 C 0.25075 0.98794 0.40113 0.0
C848 C 0.48928 0.74688 0.90131 0.0
C849 C 0.46996 0.79407 0.91815 0.0
H850 H 0.56715 0.70022 0.88343 0.0
C851 C 0.51667 0.82778 0.93119 0.0
H852 H 0.45479 0.72061 0.89067 0.0
C853 C 0.58058 0.81697 0.92677 0.0
C854 C 0.60016 0.77179 0.90924 0.0
H855 H 0.50383 0.86449 0.94432 0.0
H856 H 0.61473 0.84501 0.93686 0.0
C857 C 0.55373 0.7358 0.89694 0.0
C858 C 0.32711 0.48791 0.401 0.0
C859 C 0.27952 0.46871 0.41765 0.0
H860 H 0.3742 0.56566 0.38328 0.0
C861 C 0.24507 0.51558 0.43034 0.0
H862 H 0.35395 0.45332 0.39062 0.0
C863 C 0.25577 0.57946 0.42584 0.0
C864 C 0.30159 0.5989 0.40858 0.0
H865 H 0.20799 0.50288 0.4433 0.0
H866 H 0.22729 0.61368 0.43571 0.0
C867 C 0.33812 0.55235 0.39657 0.0
C868 C 0.58661 0.32769 0.90144 0.0
C869 C 0.60618 0.28015 0.91803 0.0
H870 H 0.50847 0.37462 0.8839 0.0
C871 C 0.55965 0.24578 0.9309 0.0
H872 H 0.62095 0.3544 0.89091 0.0
C873 C 0.49568 0.25641 0.92657 0.0
C874 C 0.47587 0.30212 0.90935 0.0
H875 H 0.57268 0.2087 0.94381 0.0
H876 H 0.4617 0.22788 0.93651 0.0
C877 C 0.52209 0.33864 0.89719 0.0
C878 C 0.73792 0.52371 0.39598 0.0
C879 C 0.77433 0.47745 0.40819 0.0
H880 H 0.72206 0.62264 0.38979 0.0
C881 C 0.81965 0.49722 0.4256 0.0
H882 H 0.70225 0.51012 0.38255 0.0
C883 C 0.83 0.56115 0.43007 0.0
C884 C 0.79578 0.60774 0.41716 0.0
H885 H 0.84807 0.46323 0.43561 0.0
H886 H 0.86678 0.57409 0.44314 0.0
C887 C 0.74865 0.58824 0.40035 0.0
C888 C 0.99008 0.82429 0.14725 0.0
C889 C 0.97097 0.77661 0.13062 0.0
H890 H 0.06776 0.87157 0.16497 0.0
C891 C 1.01785 0.74239 0.11785 0.0
H892 H 0.95545 0.85092 0.15769 0.0
C893 C 0.08171 0.75332 0.1223 0.0
C894 C 0.10108 0.7991 0.1396 0.0
H895 H 1.00517 0.70527 0.10489 0.0
H896 H 0.11597 0.72496 0.1124 0.0
C897 C 0.0545 0.8355 0.15165 0.0
C898 C 0.23871 0.05407 0.65255 0.0
C899 C 0.27484 0.10025 0.64019 0.0
H900 H 0.22289 0.95516 0.65875 0.0
C901 C 0.31945 0.08041 0.62249 0.0
H902 H 0.20356 0.06773 0.66619 0.0
C903 C 0.32948 1.01647 0.61791 0.0
C904 C 0.29566 0.96993 0.63098 0.0
H905 H 0.34758 0.11435 0.61236 0.0
H906 H 0.36578 1.00344 0.60463 0.0
C907 C 0.24913 0.98952 0.64805 0.0
C908 C 0.99537 0.31812 0.12211 0.0
C909 C 0.97537 0.27365 0.1398 0.0
H910 H 0.07252 0.36473 0.10457 0.0
C911 C 1.02144 0.23782 0.1524 0.0
H912 H 0.96152 0.34602 0.11179 0.0
C913 C 0.08602 0.24851 0.14819 0.0
C914 C 0.1057 0.29503 0.13117 0.0
H915 H 1.00764 0.20278 0.16605 0.0
H916 H 0.12028 0.22263 0.1591 0.0
C917 C 0.05934 0.32844 0.11781 0.0
C918 C 0.82567 0.08794 0.64732 0.0
C919 C 0.77831 0.10735 0.63059 0.0
H920 H 0.87229 1.01 0.66515 0.0
C921 C 0.7439 0.06064 0.61783 0.0
H922 H 0.85248 0.12241 0.65775 0.0
C923 C 0.75433 0.99671 0.62236 0.0
C924 C 0.79986 0.97707 0.63972 0.0
H925 H 0.70701 0.0735 0.6048 0.0
H926 H 0.72587 0.9626 0.61244 0.0
C927 C 0.83641 1.02346 0.65178 0.0
loop_
_geom_bond_atom_site_label_1
_geom_bond_atom_site_label_2
_geom_bond_distance
_geom_bond_site_symmetry_2
_ccdc_geom_bond_type
Co0 N4 2.148 . S
Co0 N10 2.128 . S
Co0 N20 2.194 . S
Co0 O25 2.351 . S
Co0 O26 2.155 . S
Co0 O27 2.096 . S
C1 N4 1.301 . S
C1 N5 1.328 . S
C1 H6 0.930 . S
C2 C3 1.333 . S
C2 N4 1.317 . S
C2 H7 0.930 . S
C3 C2 1.333 . S
C3 N5 1.350 . S
C3 H29 0.931 . S
N4 Co0 2.148 . S
N4 C1 1.301 . S
N4 C2 1.317 . S
N5 C1 1.328 . S
N5 C3 1.350 . S
H6 C1 0.930 . S
H7 C2 0.930 . S
C8 O9 1.224 . S
C8 O27 1.247 1_655 S
O9 C8 1.224 . S
N10 Co0 2.128 . S
N10 C11 1.355 . S
N10 C13 1.311 . S
C11 N10 1.355 . S
C11 C12 1.363 . S
C11 H23 0.929 . S
C12 C11 1.363 . S
C12 N14 1.375 . S
C12 H30 0.931 . S
C13 N10 1.311 . S
C13 N14 1.347 . S
C13 H24 0.929 . S
N14 C12 1.375 . S
N14 C13 1.347 . S
C15 C18 1.365 . S
C15 N20 1.328 . S
C15 H21 0.929 . S
C16 C17 1.362 . S
C16 C19 1.378 . S
C16 H31 0.929 1_455 S
C17 C16 1.362 . S
C17 C18 1.366 . S
C18 C15 1.365 . S
C18 C17 1.366 . S
C18 H32 0.930 . S
C19 C16 1.378 . S
C19 N20 1.315 . S
C19 H22 0.930 1_455 S
N20 Co0 2.194 . S
N20 C15 1.328 . S
N20 C19 1.315 . S
H21 C15 0.929 . S
H22 C19 0.930 1_655 S
H23 C11 0.929 . S
H24 C13 0.929 . S
O25 Co0 2.351 . S
O25 C28 1.244 . S
O26 Co0 2.155 . S
O26 C28 1.240 . S
O27 Co0 2.096 . S
O27 C8 1.247 1_455 S
C28 O25 1.244 . S
C28 O26 1.240 . S
H29 C3 0.931 . S
H30 C12 0.931 . S
H31 C16 0.929 1_655 S
H32 C18 0.930 . S
Co33 N37 2.148 . S
Co33 N43 2.128 . S
Co33 N53 2.194 . S
Co33 O58 2.351 . S
Co33 O59 2.155 . S
Co33 O60 2.096 . S
C34 N37 1.301 . S
C34 N38 1.328 . S
C34 H39 0.930 . S
C35 C36 1.333 . S
C35 N37 1.317 . S
C35 H40 0.930 . S
C36 C35 1.333 . S
C36 N38 1.350 . S
C36 H62 0.931 . S
N37 Co33 2.148 . S
N37 C34 1.301 . S
N37 C35 1.317 . S
N38 C34 1.328 . S
N38 C36 1.350 . S
H39 C34 0.930 . S
H40 C35 0.930 . S
C41 O42 1.224 . S
C41 O60 1.247 1_565 S
O42 C41 1.224 . S
N43 Co33 2.128 . S
N43 C44 1.355 . S
N43 C46 1.311 . S
C44 N43 1.355 . S
C44 C45 1.363 . S
C44 H56 0.929 . S
C45 C44 1.363 . S
C45 N47 1.375 . S
C45 H63 0.931 . S
C46 N43 1.311 . S
C46 N47 1.347 . S
C46 H57 0.929 . S
N47 C45 1.375 . S
N47 C46 1.347 . S
C48 C51 1.365 . S
C48 N53 1.328 . S
C48 H54 0.929 . S
C49 C50 1.362 . S
C49 C52 1.378 . S
C49 H64 0.929 1_545 S
C50 C49 1.362 . S
C50 C51 1.366 . S
C51 C48 1.365 . S
C51 C50 1.366 . S
C51 H65 0.930 . S
C52 C49 1.378 . S
C52 N53 1.315 . S
C52 H55 0.930 1_545 S
N53 Co33 2.194 . S
N53 C48 1.328 . S
N53 C52 1.315 . S
H54 C48 0.929 . S
H55 C52 0.930 1_565 S
H56 C44 0.929 . S
H57 C46 0.929 . S
O58 Co33 2.351 . S
O58 C61 1.244 . S
O59 Co33 2.155 . S
O59 C61 1.240 . S
O60 Co33 2.096 . S
O60 C41 1.247 1_545 S
C61 O58 1.244 . S
C61 O59 1.240 . S
H62 C36 0.931 . S
H63 C45 0.931 . S
H64 C49 0.929 1_565 S
H65 C51 0.930 . S
Co66 N70 2.148 . S
Co66 N76 2.128 . S
Co66 N86 2.194 . S
Co66 O91 2.351 . S
Co66 O92 2.155 . S
Co66 O93 2.096 . S
C67 N70 1.301 . S
C67 N71 1.328 . S
C67 H72 0.930 . S
C68 C69 1.333 . S
C68 N70 1.317 . S
C68 H73 0.930 . S
C69 C68 1.333 . S
C69 N71 1.350 . S
C69 H95 0.931 . S
N70 Co66 2.148 . S
N70 C67 1.301 . S
N70 C68 1.317 . S
N71 C67 1.328 . S
N71 C69 1.350 . S
H72 C67 0.930 . S
H73 C68 0.930 . S
C74 O75 1.224 . S
C74 O93 1.247 1_455 S
O75 C74 1.224 . S
N76 Co66 2.128 . S
N76 C77 1.355 . S
N76 C79 1.311 . S
C77 N76 1.355 . S
C77 C78 1.363 . S
C77 H89 0.929 . S
C78 C77 1.363 . S
C78 N80 1.375 . S
C78 H96 0.931 . S
C79 N76 1.311 . S
C79 N80 1.347 . S
C79 H90 0.929 . S
N80 C78 1.375 . S
N80 C79 1.347 . S
C81 C84 1.365 . S
C81 N86 1.328 . S
C81 H87 0.929 . S
C82 C83 1.362 . S
C82 C85 1.378 . S
C82 H97 0.929 1_655 S
C83 C82 1.362 . S
C83 C84 1.366 . S
C84 C81 1.365 . S
C84 C83 1.366 . S
C84 H98 0.930 . S
C85 C82 1.378 . S
C85 N86 1.315 . S
C85 H88 0.930 1_655 S
N86 Co66 2.194 . S
N86 C81 1.328 . S
N86 C85 1.315 . S
H87 C81 0.929 . S
H88 C85 0.930 1_455 S
H89 C77 0.929 . S
H90 C79 0.929 . S
O91 Co66 2.351 . S
O91 C94 1.244 . S
O92 Co66 2.155 . S
O92 C94 1.240 . S
O93 Co66 2.096 . S
O93 C74 1.247 1_655 S
C94 O91 1.244 . S
C94 O92 1.240 . S
H95 C69 0.931 . S
H96 C78 0.931 . S
H97 C82 0.929 1_455 S
H98 C84 0.930 . S
Co99 N103 2.148 . S
Co99 N109 2.128 . S
Co99 N119 2.194 . S
Co99 O124 2.351 . S
Co99 O125 2.155 . S
Co99 O126 2.096 . S
C100 N103 1.301 . S
C100 N104 1.328 . S
C100 H105 0.930 . S
C101 C102 1.333 . S
C101 N103 1.317 . S
C101 H106 0.930 . S
C102 C101 1.333 . S
C102 N104 1.350 . S
C102 H128 0.931 . S
N103 Co99 2.148 . S
N103 C100 1.301 . S
N103 C101 1.317 . S
N104 C100 1.328 . S
N104 C102 1.350 . S
H105 C100 0.930 . S
H106 C101 0.930 . S
C107 O108 1.224 . S
C107 O126 1.247 1_545 S
O108 C107 1.224 . S
N109 Co99 2.128 . S
N109 C110 1.355 . S
N109 C112 1.311 . S
C110 N109 1.355 . S
C110 C111 1.363 . S
C110 H122 0.929 . S
C111 C110 1.363 . S
C111 N113 1.375 . S
C111 H129 0.931 . S
C112 N109 1.311 . S
C112 N113 1.347 . S
C112 H123 0.929 . S
N113 C111 1.375 . S
N113 C112 1.347 . S
C114 C117 1.365 . S
C114 N119 1.328 . S
C114 H120 0.929 . S
C115 C116 1.362 . S
C115 C118 1.378 . S
C115 H130 0.929 1_565 S
C116 C115 1.362 . S
C116 C117 1.366 . S
C117 C114 1.365 . S
C117 C116 1.366 . S
C117 H131 0.930 . S
C118 C115 1.378 . S
C118 N119 1.315 . S
C118 H121 0.930 1_565 S
N119 Co99 2.194 . S
N119 C114 1.328 . S
N119 C118 1.315 . S
H120 C114 0.929 . S
H121 C118 0.930 1_545 S
H122 C110 0.929 . S
H123 C112 0.929 . S
O124 Co99 2.351 . S
O124 C127 1.244 . S
O125 Co99 2.155 . S
O125 C127 1.240 . S
O126 Co99 2.096 . S
O126 C107 1.247 1_565 S
C127 O124 1.244 . S
C127 O125 1.240 . S
H128 C102 0.931 . S
H129 C111 0.931 . S
H130 C115 0.929 1_545 S
H131 C117 0.930 . S
Co132 N136 2.148 . S
Co132 N142 2.128 . S
Co132 N152 2.194 . S
Co132 O157 2.351 . S
Co132 O158 2.155 . S
Co132 O159 2.096 . S
C133 N136 1.301 . S
C133 N137 1.328 . S
C133 H138 0.930 . S
C134 C135 1.333 . S
C134 N136 1.317 . S
C134 H139 0.930 . S
C135 C134 1.333 . S
C135 N137 1.350 . S
C135 H161 0.931 . S
N136 Co132 2.148 . S
N136 C133 1.301 . S
N136 C134 1.317 . S
N137 C133 1.328 . S
N137 C135 1.350 . S
H138 C133 0.930 . S
H139 C134 0.930 . S
C140 O141 1.224 . S
C140 O159 1.247 . S
O141 C140 1.224 . S
N142 Co132 2.128 . S
N142 C143 1.355 . S
N142 C145 1.311 . S
C143 N142 1.355 . S
C143 C144 1.363 . S
C143 H155 0.929 . S
C144 C143 1.363 . S
C144 N146 1.375 . S
C144 H162 0.931 . S
C145 N142 1.311 . S
C145 N146 1.347 . S
C145 H156 0.929 . S
N146 C144 1.375 . S
N146 C145 1.347 . S
C147 C150 1.365 . S
C147 N152 1.328 . S
C147 H153 0.929 . S
C148 C149 1.362 . S
C148 C151 1.378 . S
C148 H163 0.929 . S
C149 C148 1.362 . S
C149 C150 1.366 . S
C150 C147 1.365 . S
C150 C149 1.366 . S
C150 H164 0.930 . S
C151 C148 1.378 . S
C151 N152 1.315 . S
C151 H154 0.930 . S
N152 Co132 2.194 . S
N152 C147 1.328 . S
N152 C151 1.315 . S
H153 C147 0.929 . S
H154 C151 0.930 . S
H155 C143 0.929 . S
H156 C145 0.929 . S
O157 Co132 2.351 . S
O157 C160 1.244 . S
O158 Co132 2.155 . S
O158 C160 1.240 . S
O159 Co132 2.096 . S
O159 C140 1.247 . S
C160 O157 1.244 . S
C160 O158 1.240 . S
H161 C135 0.931 . S
H162 C144 0.931 . S
H163 C148 0.929 . S
H164 C150 0.930 . S
Co165 N169 2.148 . S
Co165 N175 2.128 . S
Co165 N185 2.194 . S
Co165 O190 2.351 . S
Co165 O191 2.155 . S
Co165 O192 2.096 . S
C166 N169 1.301 . S
C166 N170 1.328 . S
C166 H171 0.930 . S
C167 C168 1.333 . S
C167 N169 1.317 . S
C167 H172 0.930 . S
C168 C167 1.333 . S
C168 N170 1.350 . S
C168 H194 0.931 . S
N169 Co165 2.148 . S
N169 C166 1.301 . S
N169 C167 1.317 . S
N170 C166 1.328 . S
N170 C168 1.350 . S
H171 C166 0.930 . S
H172 C167 0.930 . S
C173 O174 1.224 . S
C173 O192 1.247 . S
O174 C173 1.224 . S
N175 Co165 2.128 . S
N175 C176 1.355 . S
N175 C178 1.311 . S
C176 N175 1.355 . S
C176 C177 1.363 . S
C176 H188 0.929 . S
C177 C176 1.363 . S
C177 N179 1.375 . S
C177 H195 0.931 . S
C178 N175 1.311 . S
C178 N179 1.347 . S
C178 H189 0.929 . S
N179 C177 1.375 . S
N179 C178 1.347 . S
C180 C183 1.365 . S
C180 N185 1.328 . S
C180 H186 0.929 . S
C181 C182 1.362 . S
C181 C184 1.378 . S
C181 H196 0.929 . S
C182 C181 1.362 . S
C182 C183 1.366 . S
C183 C180 1.365 . S
C183 C182 1.366 . S
C183 H197 0.930 . S
C184 C181 1.378 . S
C184 N185 1.315 . S
C184 H187 0.930 . S
N185 Co165 2.194 . S
N185 C180 1.328 . S
N185 C184 1.315 . S
H186 C180 0.929 . S
H187 C184 0.930 . S
H188 C176 0.929 . S
H189 C178 0.929 . S
O190 Co165 2.351 . S
O190 C193 1.244 . S
O191 Co165 2.155 . S
O191 C193 1.240 . S
O192 Co165 2.096 . S
O192 C173 1.247 . S
C193 O190 1.244 . S
C193 O191 1.240 . S
H194 C168 0.931 . S
H195 C177 0.931 . S
H196 C181 0.929 . S
H197 C183 0.930 . S
Co198 N202 2.148 . S
Co198 N208 2.128 . S
Co198 N218 2.194 . S
Co198 O223 2.351 . S
Co198 O224 2.155 . S
Co198 O225 2.096 . S
C199 N202 1.301 . S
C199 N203 1.328 . S
C199 H204 0.930 . S
C200 C201 1.333 . S
C200 N202 1.317 . S
C200 H205 0.930 . S
C201 C200 1.333 . S
C201 N203 1.350 . S
C201 H227 0.931 . S
N202 Co198 2.148 . S
N202 C199 1.301 . S
N202 C200 1.317 . S
N203 C199 1.328 . S
N203 C201 1.350 . S
H204 C199 0.930 . S
H205 C200 0.930 . S
C206 O207 1.224 . S
C206 O225 1.247 . S
O207 C206 1.224 . S
N208 Co198 2.128 . S
N208 C209 1.355 . S
N208 C211 1.311 . S
C209 N208 1.355 . S
C209 C210 1.363 . S
C209 H221 0.929 . S
C210 C209 1.363 . S
C210 N212 1.375 . S
C210 H228 0.931 . S
C211 N208 1.311 . S
C211 N212 1.347 . S
C211 H222 0.929 . S
N212 C210 1.375 . S
N212 C211 1.347 . S
C213 C216 1.365 . S
C213 N218 1.328 . S
C213 H219 0.929 . S
C214 C215 1.362 . S
C214 C217 1.378 . S
C214 H229 0.929 . S
C215 C214 1.362 . S
C215 C216 1.366 . S
C216 C213 1.365 . S
C216 C215 1.366 . S
C216 H230 0.930 . S
C217 C214 1.378 . S
C217 N218 1.315 . S
C217 H220 0.930 . S
N218 Co198 2.194 . S
N218 C213 1.328 . S
N218 C217 1.315 . S
H219 C213 0.929 . S
H220 C217 0.930 . S
H221 C209 0.929 . S
H222 C211 0.929 . S
O223 Co198 2.351 . S
O223 C226 1.244 . S
O224 Co198 2.155 . S
O224 C226 1.240 . S
O225 Co198 2.096 . S
O225 C206 1.247 . S
C226 O223 1.244 . S
C226 O224 1.240 . S
H227 C201 0.931 . S
H228 C210 0.931 . S
H229 C214 0.929 . S
H230 C216 0.930 . S
Co231 N235 2.148 . S
Co231 N241 2.128 . S
Co231 N251 2.194 . S
Co231 O256 2.351 . S
Co231 O257 2.155 . S
Co231 O258 2.096 . S
C232 N235 1.301 . S
C232 N236 1.328 . S
C232 H237 0.930 . S
C233 C234 1.333 . S
C233 N235 1.317 . S
C233 H238 0.930 . S
C234 C233 1.333 . S
C234 N236 1.350 . S
C234 H260 0.931 . S
N235 Co231 2.148 . S
N235 C232 1.301 . S
N235 C233 1.317 . S
N236 C232 1.328 . S
N236 C234 1.350 . S
H237 C232 0.930 . S
H238 C233 0.930 . S
C239 O240 1.224 . S
C239 O258 1.247 . S
O240 C239 1.224 . S
N241 Co231 2.128 . S
N241 C242 1.355 . S
N241 C244 1.311 . S
C242 N241 1.355 . S
C242 C243 1.363 . S
C242 H254 0.929 . S
C243 C242 1.363 . S
C243 N245 1.375 . S
C243 H261 0.931 . S
C244 N241 1.311 . S
C244 N245 1.347 . S
C244 H255 0.929 . S
N245 C243 1.375 . S
N245 C244 1.347 . S
C246 C249 1.365 . S
C246 N251 1.328 . S
C246 H252 0.929 . S
C247 C248 1.362 . S
C247 C250 1.378 . S
C247 H262 0.929 . S
C248 C247 1.362 . S
C248 C249 1.366 . S
C249 C246 1.365 . S
C249 C248 1.366 . S
C249 H263 0.930 . S
C250 C247 1.378 . S
C250 N251 1.315 . S
C250 H253 0.930 . S
N251 Co231 2.194 . S
N251 C246 1.328 . S
N251 C250 1.315 . S
H252 C246 0.929 . S
H253 C250 0.930 . S
H254 C242 0.929 . S
H255 C244 0.929 . S
O256 Co231 2.351 . S
O256 C259 1.244 . S
O257 Co231 2.155 . S
O257 C259 1.240 . S
O258 Co231 2.096 . S
O258 C239 1.247 . S
C259 O256 1.244 . S
C259 O257 1.240 . S
H260 C234 0.931 . S
H261 C243 0.931 . S
H262 C247 0.929 . S
H263 C249 0.930 . S
Co264 N268 2.148 . S
Co264 N274 2.128 . S
Co264 N284 2.194 . S
Co264 O289 2.351 . S
Co264 O290 2.155 . S
Co264 O291 2.096 . S
C265 N268 1.301 . S
C265 N269 1.328 . S
C265 H270 0.930 . S
C266 C267 1.333 . S
C266 N268 1.317 . S
C266 H271 0.930 . S
C267 C266 1.333 . S
C267 N269 1.350 . S
C267 H293 0.931 . S
N268 Co264 2.148 . S
N268 C265 1.301 . S
N268 C266 1.317 . S
N269 C265 1.328 . S
N269 C267 1.350 . S
H270 C265 0.930 . S
H271 C266 0.930 . S
C272 O273 1.224 . S
C272 O291 1.247 1_455 S
O273 C272 1.224 . S
N274 Co264 2.128 . S
N274 C275 1.355 . S
N274 C277 1.311 . S
C275 N274 1.355 . S
C275 C276 1.363 . S
C275 H287 0.929 . S
C276 C275 1.363 . S
C276 N278 1.375 . S
C276 H294 0.931 . S
C277 N274 1.311 . S
C277 N278 1.347 . S
C277 H288 0.929 . S
N278 C276 1.375 . S
N278 C277 1.347 . S
C279 C282 1.365 . S
C279 N284 1.328 . S
C279 H285 0.929 . S
C280 C281 1.362 . S
C280 C283 1.378 . S
C280 H295 0.929 1_655 S
C281 C280 1.362 . S
C281 C282 1.366 . S
C282 C279 1.365 . S
C282 C281 1.366 . S
C282 H296 0.930 . S
C283 C280 1.378 . S
C283 N284 1.315 . S
C283 H286 0.930 1_655 S
N284 Co264 2.194 . S
N284 C279 1.328 . S
N284 C283 1.315 . S
H285 C279 0.929 . S
H286 C283 0.930 1_455 S
H287 C275 0.929 . S
H288 C277 0.929 . S
O289 Co264 2.351 . S
O289 C292 1.244 . S
O290 Co264 2.155 . S
O290 C292 1.240 . S
O291 Co264 2.096 . S
O291 C272 1.247 1_655 S
C292 O289 1.244 . S
C292 O290 1.240 . S
H293 C267 0.931 . S
H294 C276 0.931 . S
H295 C280 0.929 1_455 S
H296 C282 0.930 . S
Co297 N301 2.148 . S
Co297 N307 2.128 . S
Co297 N317 2.194 . S
Co297 O322 2.351 . S
Co297 O323 2.155 . S
Co297 O324 2.096 . S
C298 N301 1.301 . S
C298 N302 1.328 . S
C298 H303 0.930 . S
C299 C300 1.333 . S
C299 N301 1.317 . S
C299 H304 0.930 . S
C300 C299 1.333 . S
C300 N302 1.350 . S
C300 H326 0.931 . S
N301 Co297 2.148 . S
N301 C298 1.301 . S
N301 C299 1.317 . S
N302 C298 1.328 . S
N302 C300 1.350 . S
H303 C298 0.930 . S
H304 C299 0.930 . S
C305 O306 1.224 . S
C305 O324 1.247 1_545 S
O306 C305 1.224 . S
N307 Co297 2.128 . S
N307 C308 1.355 . S
N307 C310 1.311 . S
C308 N307 1.355 . S
C308 C309 1.363 . S
C308 H320 0.929 . S
C309 C308 1.363 . S
C309 N311 1.375 . S
C309 H327 0.931 . S
C310 N307 1.311 . S
C310 N311 1.347 . S
C310 H321 0.929 . S
N311 C309 1.375 . S
N311 C310 1.347 . S
C312 C315 1.365 . S
C312 N317 1.328 . S
C312 H318 0.929 . S
C313 C314 1.362 . S
C313 C316 1.378 . S
C313 H328 0.929 1_565 S
C314 C313 1.362 . S
C314 C315 1.366 . S
C315 C312 1.365 . S
C315 C314 1.366 . S
C315 H329 0.930 . S
C316 C313 1.378 . S
C316 N317 1.315 . S
C316 H319 0.930 1_565 S
N317 Co297 2.194 . S
N317 C312 1.328 . S
N317 C316 1.315 . S
H318 C312 0.929 . S
H319 C316 0.930 1_545 S
H320 C308 0.929 . S
H321 C310 0.929 . S
O322 Co297 2.351 . S
O322 C325 1.244 . S
O323 Co297 2.155 . S
O323 C325 1.240 . S
O324 Co297 2.096 . S
O324 C305 1.247 1_565 S
C325 O322 1.244 . S
C325 O323 1.240 . S
H326 C300 0.931 . S
H327 C309 0.931 . S
H328 C313 0.929 1_545 S
H329 C315 0.930 . S
Co330 N334 2.148 . S
Co330 N340 2.128 . S
Co330 N350 2.194 . S
Co330 O355 2.351 . S
Co330 O356 2.155 . S
Co330 O357 2.096 . S
C331 N334 1.301 . S
C331 N335 1.328 . S
C331 H336 0.930 . S
C332 C333 1.333 . S
C332 N334 1.317 . S
C332 H337 0.930 . S
C333 C332 1.333 . S
C333 N335 1.350 . S
C333 H359 0.931 . S
N334 Co330 2.148 . S
N334 C331 1.301 . S
N334 C332 1.317 . S
N335 C331 1.328 . S
N335 C333 1.350 . S
H336 C331 0.930 . S
H337 C332 0.930 . S
C338 O339 1.224 . S
C338 O357 1.247 1_655 S
O339 C338 1.224 . S
N340 Co330 2.128 . S
N340 C341 1.355 . S
N340 C343 1.311 . S
C341 N340 1.355 . S
C341 C342 1.363 . S
C341 H353 0.929 . S
C342 C341 1.363 . S
C342 N344 1.375 . S
C342 H360 0.931 . S
C343 N340 1.311 . S
C343 N344 1.347 . S
C343 H354 0.929 . S
N344 C342 1.375 . S
N344 C343 1.347 . S
C345 C348 1.365 . S
C345 N350 1.328 . S
C345 H351 0.929 . S
C346 C347 1.362 . S
C346 C349 1.378 . S
C346 H361 0.929 1_455 S
C347 C346 1.362 . S
C347 C348 1.366 . S
C348 C345 1.365 . S
C348 C347 1.366 . S
C348 H362 0.930 . S
C349 C346 1.378 . S
C349 N350 1.315 . S
C349 H352 0.930 1_455 S
N350 Co330 2.194 . S
N350 C345 1.328 . S
N350 C349 1.315 . S
H351 C345 0.929 . S
H352 C349 0.930 1_655 S
H353 C341 0.929 . S
H354 C343 0.929 . S
O355 Co330 2.351 . S
O355 C358 1.244 . S
O356 Co330 2.155 . S
O356 C358 1.240 . S
O357 Co330 2.096 . S
O357 C338 1.247 1_455 S
C358 O355 1.244 . S
C358 O356 1.240 . S
H359 C333 0.931 . S
H360 C342 0.931 . S
H361 C346 0.929 1_655 S
H362 C348 0.930 . S
Co363 N367 2.148 . S
Co363 N373 2.128 . S
Co363 N383 2.194 . S
Co363 O388 2.351 . S
Co363 O389 2.155 . S
Co363 O390 2.096 . S
C364 N367 1.301 . S
C364 N368 1.328 . S
C364 H369 0.930 . S
C365 C366 1.333 . S
C365 N367 1.317 . S
C365 H370 0.930 . S
C366 C365 1.333 . S
C366 N368 1.350 . S
C366 H392 0.931 . S
N367 Co363 2.148 . S
N367 C364 1.301 . S
N367 C365 1.317 . S
N368 C364 1.328 . S
N368 C366 1.350 . S
H369 C364 0.930 . S
H370 C365 0.930 . S
C371 O372 1.224 . S
C371 O390 1.247 1_565 S
O372 C371 1.224 . S
N373 Co363 2.128 . S
N373 C374 1.355 . S
N373 C376 1.311 . S
C374 N373 1.355 . S
C374 C375 1.363 . S
C374 H386 0.929 . S
C375 C374 1.363 . S
C375 N377 1.375 . S
C375 H393 0.931 . S
C376 N373 1.311 . S
C376 N377 1.347 . S
C376 H387 0.929 . S
N377 C375 1.375 . S
N377 C376 1.347 . S
C378 C381 1.365 . S
C378 N383 1.328 . S
C378 H384 0.929 . S
C379 C380 1.362 . S
C379 C382 1.378 . S
C379 H394 0.929 1_545 S
C380 C379 1.362 . S
C380 C381 1.366 . S
C381 C378 1.365 . S
C381 C380 1.366 . S
C381 H395 0.930 . S
C382 C379 1.378 . S
C382 N383 1.315 . S
C382 H385 0.930 1_545 S
N383 Co363 2.194 . S
N383 C378 1.328 . S
N383 C382 1.315 . S
H384 C378 0.929 . S
H385 C382 0.930 1_565 S
H386 C374 0.929 . S
H387 C376 0.929 . S
O388 Co363 2.351 . S
O388 C391 1.244 . S
O389 Co363 2.155 . S
O389 C391 1.240 . S
O390 Co363 2.096 . S
O390 C371 1.247 1_545 S
C391 O388 1.244 . S
C391 O389 1.240 . S
H392 C366 0.931 . S
H393 C375 0.931 . S
H394 C379 0.929 1_565 S
H395 C381 0.930 . S
Co396 N400 2.148 . S
Co396 N406 2.128 . S
Co396 N416 2.194 . S
Co396 O421 2.351 . S
Co396 O422 2.155 . S
Co396 O423 2.096 . S
C397 N400 1.301 . S
C397 N401 1.328 . S
C397 H402 0.930 . S
C398 C399 1.333 . S
C398 N400 1.317 . S
C398 H403 0.930 . S
C399 C398 1.333 . S
C399 N401 1.350 . S
C399 H425 0.931 . S
N400 Co396 2.148 . S
N400 C397 1.301 . S
N400 C398 1.317 . S
N401 C397 1.328 . S
N401 C399 1.350 . S
H402 C397 0.930 . S
H403 C398 0.930 . S
C404 O405 1.224 . S
C404 O423 1.247 . S
O405 C404 1.224 . S
N406 Co396 2.128 . S
N406 C407 1.355 . S
N406 C409 1.311 . S
C407 N406 1.355 . S
C407 C408 1.363 . S
C407 H419 0.929 . S
C408 C407 1.363 . S
C408 N410 1.375 . S
C408 H426 0.931 . S
C409 N406 1.311 . S
C409 N410 1.347 . S
C409 H420 0.929 . S
N410 C408 1.375 . S
N410 C409 1.347 . S
C411 C414 1.365 . S
C411 N416 1.328 . S
C411 H417 0.929 . S
C412 C413 1.362 . S
C412 C415 1.378 . S
C412 H427 0.929 . S
C413 C412 1.362 . S
C413 C414 1.366 . S
C414 C411 1.365 . S
C414 C413 1.366 . S
C414 H428 0.930 . S
C415 C412 1.378 . S
C415 N416 1.315 . S
C415 H418 0.930 . S
N416 Co396 2.194 . S
N416 C411 1.328 . S
N416 C415 1.315 . S
H417 C411 0.929 . S
H418 C415 0.930 . S
H419 C407 0.929 . S
H420 C409 0.929 . S
O421 Co396 2.351 . S
O421 C424 1.244 . S
O422 Co396 2.155 . S
O422 C424 1.240 . S
O423 Co396 2.096 . S
O423 C404 1.247 . S
C424 O421 1.244 . S
C424 O422 1.240 . S
H425 C399 0.931 . S
H426 C408 0.931 . S
H427 C412 0.929 . S
H428 C414 0.930 . S
Co429 N433 2.148 . S
Co429 N439 2.128 . S
Co429 N449 2.194 . S
Co429 O454 2.351 . S
Co429 O455 2.155 . S
Co429 O456 2.096 . S
C430 N433 1.301 . S
C430 N434 1.328 . S
C430 H435 0.930 . S
C431 C432 1.333 . S
C431 N433 1.317 . S
C431 H436 0.930 . S
C432 C431 1.333 . S
C432 N434 1.350 . S
C432 H458 0.931 . S
N433 Co429 2.148 . S
N433 C430 1.301 . S
N433 C431 1.317 . S
N434 C430 1.328 . S
N434 C432 1.350 . S
H435 C430 0.930 . S
H436 C431 0.930 . S
C437 O438 1.224 . S
C437 O456 1.247 . S
O438 C437 1.224 . S
N439 Co429 2.128 . S
N439 C440 1.355 . S
N439 C442 1.311 . S
C440 N439 1.355 . S
C440 C441 1.363 . S
C440 H452 0.929 . S
C441 C440 1.363 . S
C441 N443 1.375 . S
C441 H459 0.931 . S
C442 N439 1.311 . S
C442 N443 1.347 . S
C442 H453 0.929 . S
N443 C441 1.375 . S
N443 C442 1.347 . S
C444 C447 1.365 . S
C444 N449 1.328 . S
C444 H450 0.929 . S
C445 C446 1.362 . S
C445 C448 1.378 . S
C445 H460 0.929 . S
C446 C445 1.362 . S
C446 C447 1.366 . S
C447 C444 1.365 . S
C447 C446 1.366 . S
C447 H461 0.930 . S
C448 C445 1.378 . S
C448 N449 1.315 . S
C448 H451 0.930 . S
N449 Co429 2.194 . S
N449 C444 1.328 . S
N449 C448 1.315 . S
H450 C444 0.929 . S
H451 C448 0.930 . S
H452 C440 0.929 . S
H453 C442 0.929 . S
O454 Co429 2.351 . S
O454 C457 1.244 . S
O455 Co429 2.155 . S
O455 C457 1.240 . S
O456 Co429 2.096 . S
O456 C437 1.247 . S
C457 O454 1.244 . S
C457 O455 1.240 . S
H458 C432 0.931 . S
H459 C441 0.931 . S
H460 C445 0.929 . S
H461 C447 0.930 . S
Co462 N466 2.148 . S
Co462 N472 2.128 . S
Co462 N482 2.194 . S
Co462 O487 2.351 . S
Co462 O488 2.155 . S
Co462 O489 2.096 . S
C463 N466 1.301 . S
C463 N467 1.328 . S
C463 H468 0.930 . S
C464 C465 1.333 . S
C464 N466 1.317 . S
C464 H469 0.930 . S
C465 C464 1.333 . S
C465 N467 1.350 . S
C465 H491 0.931 . S
N466 Co462 2.148 . S
N466 C463 1.301 . S
N466 C464 1.317 . S
N467 C463 1.328 . S
N467 C465 1.350 . S
H468 C463 0.930 . S
H469 C464 0.930 . S
C470 O471 1.224 . S
C470 O489 1.247 . S
O471 C470 1.224 . S
N472 Co462 2.128 . S
N472 C473 1.355 . S
N472 C475 1.311 . S
C473 N472 1.355 . S
C473 C474 1.363 . S
C473 H485 0.929 . S
C474 C473 1.363 . S
C474 N476 1.375 . S
C474 H492 0.931 . S
C475 N472 1.311 . S
C475 N476 1.347 . S
C475 H486 0.929 . S
N476 C474 1.375 . S
N476 C475 1.347 . S
C477 C480 1.365 . S
C477 N482 1.328 . S
C477 H483 0.929 . S
C478 C479 1.362 . S
C478 C481 1.378 . S
C478 H493 0.929 . S
C479 C478 1.362 . S
C479 C480 1.366 . S
C480 C477 1.365 . S
C480 C479 1.366 . S
C480 H494 0.930 . S
C481 C478 1.378 . S
C481 N482 1.315 . S
C481 H484 0.930 . S
N482 Co462 2.194 . S
N482 C477 1.328 . S
N482 C481 1.315 . S
H483 C477 0.929 . S
H484 C481 0.930 . S
H485 C473 0.929 . S
H486 C475 0.929 . S
O487 Co462 2.351 . S
O487 C490 1.244 . S
O488 Co462 2.155 . S
O488 C490 1.240 . S
O489 Co462 2.096 . S
O489 C470 1.247 . S
C490 O487 1.244 . S
C490 O488 1.240 . S
H491 C465 0.931 . S
H492 C474 0.931 . S
H493 C478 0.929 . S
H494 C480 0.930 . S
Co495 N499 2.148 . S
Co495 N505 2.128 . S
Co495 N515 2.194 . S
Co495 O520 2.351 . S
Co495 O521 2.155 . S
Co495 O522 2.096 . S
C496 N499 1.301 . S
C496 N500 1.328 . S
C496 H501 0.930 . S
C497 C498 1.333 . S
C497 N499 1.317 . S
C497 H502 0.930 . S
C498 C497 1.333 . S
C498 N500 1.350 . S
C498 H524 0.931 . S
N499 Co495 2.148 . S
N499 C496 1.301 . S
N499 C497 1.317 . S
N500 C496 1.328 . S
N500 C498 1.350 . S
H501 C496 0.930 . S
H502 C497 0.930 . S
C503 O504 1.224 . S
C503 O522 1.247 . S
O504 C503 1.224 . S
N505 Co495 2.128 . S
N505 C506 1.355 . S
N505 C508 1.311 . S
C506 N505 1.355 . S
C506 C507 1.363 . S
C506 H518 0.929 . S
C507 C506 1.363 . S
C507 N509 1.375 . S
C507 H525 0.931 . S
C508 N505 1.311 . S
C508 N509 1.347 . S
C508 H519 0.929 . S
N509 C507 1.375 . S
N509 C508 1.347 . S
C510 C513 1.365 . S
C510 N515 1.328 . S
C510 H516 0.929 . S
C511 C512 1.362 . S
C511 C514 1.378 . S
C511 H526 0.929 . S
C512 C511 1.362 . S
C512 C513 1.366 . S
C513 C510 1.365 . S
C513 C512 1.366 . S
C513 H527 0.930 . S
C514 C511 1.378 . S
C514 N515 1.315 . S
C514 H517 0.930 . S
N515 Co495 2.194 . S
N515 C510 1.328 . S
N515 C514 1.315 . S
H516 C510 0.929 . S
H517 C514 0.930 . S
H518 C506 0.929 . S
H519 C508 0.929 . S
O520 Co495 2.351 . S
O520 C523 1.244 . S
O521 Co495 2.155 . S
O521 C523 1.240 . S
O522 Co495 2.096 . S
O522 C503 1.247 . S
C523 O520 1.244 . S
C523 O521 1.240 . S
H524 C498 0.931 . S
H525 C507 0.931 . S
H526 C511 0.929 . S
H527 C513 0.930 . S
C528 C529 1.387 . S
C528 H532 0.950 . S
C528 C537 1.390 . S
C529 C528 1.387 . S
C529 C531 1.387 . S
H530 C537 0.950 . S
C531 C529 1.387 . S
C531 C533 1.390 . S
C531 H535 0.950 . S
H532 C528 0.950 . S
C533 C531 1.390 . S
C533 C534 1.387 . S
C533 H536 0.950 . S
C534 C533 1.387 . S
C534 C537 1.387 . S
H535 C531 0.950 . S
H536 C533 0.950 . S
C537 C528 1.390 . S
C537 H530 0.950 . S
C537 C534 1.387 . S
C538 C539 1.387 . S
C538 H542 0.950 . S
C538 C547 1.390 . S
C539 C538 1.387 . S
C539 C541 1.387 . S
H540 C547 0.950 . S
C541 C539 1.387 . S
C541 C543 1.390 . S
C541 H545 0.950 . S
H542 C538 0.950 . S
C543 C541 1.390 . S
C543 C544 1.387 . S
C543 H546 0.950 . S
C544 C543 1.387 . S
C544 C547 1.387 . S
H545 C541 0.950 . S
H546 C543 0.950 . S
C547 C538 1.390 . S
C547 H540 0.950 . S
C547 C544 1.387 . S
C548 C549 1.387 . S
C548 H552 0.950 . S
C548 C557 1.390 . S
C549 C548 1.387 . S
C549 C551 1.387 . S
H550 C557 0.950 . S
C551 C549 1.387 . S
C551 C553 1.390 . S
C551 H555 0.950 . S
H552 C548 0.950 . S
C553 C551 1.390 . S
C553 C554 1.387 . S
C553 H556 0.950 . S
C554 C553 1.387 . S
C554 C557 1.387 . S
H555 C551 0.950 . S
H556 C553 0.950 . S
C557 C548 1.390 . S
C557 H550 0.950 . S
C557 C554 1.387 . S
C558 C559 1.387 . S
C558 H562 0.950 . S
C558 C567 1.390 . S
C559 C558 1.387 . S
C559 C561 1.387 . S
H560 C567 0.950 . S
C561 C559 1.387 . S
C561 C563 1.390 . S
C561 H565 0.950 . S
H562 C558 0.950 . S
C563 C561 1.390 . S
C563 C564 1.387 . S
C563 H566 0.950 . S
C564 C563 1.387 . S
C564 C567 1.387 . S
H565 C561 0.950 . S
H566 C563 0.950 . S
C567 C558 1.390 . S
C567 H560 0.950 . S
C567 C564 1.387 . S
C568 C569 1.387 . S
C568 H572 0.950 . S
C568 C577 1.390 . S
C569 C568 1.387 . S
C569 C571 1.387 . S
H570 C577 0.950 . S
C571 C569 1.387 . S
C571 C573 1.390 . S
C571 H575 0.950 . S
H572 C568 0.950 . S
C573 C571 1.390 . S
C573 C574 1.387 . S
C573 H576 0.950 . S
C574 C573 1.387 . S
C574 C577 1.387 . S
H575 C571 0.950 . S
H576 C573 0.950 . S
C577 C568 1.390 . S
C577 H570 0.950 . S
C577 C574 1.387 . S
C578 C579 1.387 . S
C578 H582 0.950 . S
C578 C587 1.390 . S
C579 C578 1.387 . S
C579 C581 1.387 . S
H580 C587 0.950 . S
C581 C579 1.387 . S
C581 C583 1.390 . S
C581 H585 0.950 . S
H582 C578 0.950 . S
C583 C581 1.390 . S
C583 C584 1.387 . S
C583 H586 0.950 . S
C584 C583 1.387 . S
C584 C587 1.387 . S
H585 C581 0.950 . S
H586 C583 0.950 . S
C587 C578 1.390 . S
C587 H580 0.950 . S
C587 C584 1.387 . S
C588 C589 1.387 . S
C588 H592 0.950 . S
C588 C597 1.390 . S
C589 C588 1.387 . S
C589 C591 1.387 . S
H590 C597 0.950 . S
C591 C589 1.387 . S
C591 C593 1.390 . S
C591 H595 0.950 . S
H592 C588 0.950 . S
C593 C591 1.390 . S
C593 C594 1.387 . S
C593 H596 0.950 . S
C594 C593 1.387 . S
C594 C597 1.387 . S
H595 C591 0.950 . S
H596 C593 0.950 . S
C597 C588 1.390 . S
C597 H590 0.950 . S
C597 C594 1.387 . S
C598 C599 1.387 . S
C598 H602 0.950 . S
C598 C607 1.390 . S
C599 C598 1.387 . S
C599 C601 1.387 . S
H600 C607 0.950 . S
C601 C599 1.387 . S
C601 C603 1.390 . S
C601 H605 0.950 . S
H602 C598 0.950 . S
C603 C601 1.390 . S
C603 C604 1.387 . S
C603 H606 0.950 . S
C604 C603 1.387 . S
C604 C607 1.387 . S
H605 C601 0.950 . S
H606 C603 0.950 . S
C607 C598 1.390 . S
C607 H600 0.950 . S
C607 C604 1.387 . S
C608 C609 1.387 . S
C608 H612 0.950 . S
C608 C617 1.390 1_554 S
C609 C608 1.387 . S
C609 C611 1.387 . S
H610 C617 0.950 . S
C611 C609 1.387 . S
C611 C613 1.390 1_554 S
C611 H615 0.950 . S
H612 C608 0.950 . S
C613 C611 1.390 1_556 S
C613 C614 1.387 . S
C613 H616 0.950 . S
C614 C613 1.387 . S
C614 C617 1.387 . S
H615 C611 0.950 . S
H616 C613 0.950 . S
C617 C608 1.390 1_556 S
C617 H610 0.950 . S
C617 C614 1.387 . S
C618 C619 1.387 . S
C618 H622 0.950 . S
C618 C627 1.390 . S
C619 C618 1.387 . S
C619 C621 1.387 . S
H620 C627 0.950 . S
C621 C619 1.387 . S
C621 C623 1.390 . S
C621 H625 0.950 1_545 S
H622 C618 0.950 . S
C623 C621 1.390 . S
C623 C624 1.387 . S
C623 H626 0.950 1_545 S
C624 C623 1.387 . S
C624 C627 1.387 . S
H625 C621 0.950 1_565 S
H626 C623 0.950 1_565 S
C627 C618 1.390 . S
C627 H620 0.950 . S
C627 C624 1.387 . S
C628 C629 1.387 . S
C628 H632 0.950 . S
C628 C637 1.390 1_556 S
C629 C628 1.387 . S
C629 C631 1.387 . S
H630 C637 0.950 . S
C631 C629 1.387 . S
C631 C633 1.390 1_556 S
C631 H635 0.950 . S
H632 C628 0.950 . S
C633 C631 1.390 1_554 S
C633 C634 1.387 . S
C633 H636 0.950 . S
C634 C633 1.387 . S
C634 C637 1.387 . S
H635 C631 0.950 . S
H636 C633 0.950 . S
C637 C628 1.390 1_554 S
C637 H630 0.950 . S
C637 C634 1.387 . S
C638 C639 1.387 . S
C638 H642 0.950 . S
C638 C647 1.390 . S
C639 C638 1.387 . S
C639 C641 1.387 . S
H640 C647 0.950 . S
C641 C639 1.387 . S
C641 C643 1.390 . S
C641 H645 0.950 1_565 S
H642 C638 0.950 . S
C643 C641 1.390 . S
C643 C644 1.387 . S
C643 H646 0.950 1_565 S
C644 C643 1.387 . S
C644 C647 1.387 . S
H645 C641 0.950 1_545 S
H646 C643 0.950 1_545 S
C647 C638 1.390 . S
C647 H640 0.950 . S
C647 C644 1.387 . S
C648 C649 1.387 . S
C648 H652 0.950 . S
C648 C657 1.390 1_554 S
C649 C648 1.387 . S
C649 C651 1.387 . S
H650 C657 0.950 . S
C651 C649 1.387 . S
C651 C653 1.390 1_554 S
C651 H655 0.950 . S
H652 C648 0.950 . S
C653 C651 1.390 1_556 S
C653 C654 1.387 . S
C653 H656 0.950 . S
C654 C653 1.387 . S
C654 C657 1.387 . S
H655 C651 0.950 . S
H656 C653 0.950 . S
C657 C648 1.390 1_556 S
C657 H650 0.950 . S
C657 C654 1.387 . S
C658 C659 1.387 . S
C658 H662 0.950 . S
C658 C667 1.390 . S
C659 C658 1.387 . S
C659 C661 1.387 . S
H660 C667 0.950 . S
C661 C659 1.387 . S
C661 C663 1.390 . S
C661 H665 0.950 . S
H662 C658 0.950 . S
C663 C661 1.390 . S
C663 C664 1.387 . S
C663 H666 0.950 . S
C664 C663 1.387 . S
C664 C667 1.387 . S
H665 C661 0.950 . S
H666 C663 0.950 . S
C667 C658 1.390 . S
C667 H660 0.950 . S
C667 C664 1.387 . S
C668 C669 1.387 . S
C668 H672 0.950 . S
C668 C677 1.390 1_554 S
C669 C668 1.387 . S
C669 C671 1.387 . S
H670 C677 0.950 . S
C671 C669 1.387 . S
C671 C673 1.390 1_554 S
C671 H675 0.950 . S
H672 C668 0.950 . S
C673 C671 1.390 1_556 S
C673 C674 1.387 . S
C673 H676 0.950 . S
C674 C673 1.387 . S
C674 C677 1.387 . S
H675 C671 0.950 . S
H676 C673 0.950 . S
C677 C668 1.390 1_556 S
C677 H670 0.950 . S
C677 C674 1.387 . S
C678 C679 1.387 . S
C678 H682 0.950 . S
C678 C687 1.390 . S
C679 C678 1.387 . S
C679 C681 1.387 . S
H680 C687 0.950 . S
C681 C679 1.387 . S
C681 C683 1.390 . S
C681 H685 0.950 . S
H682 C678 0.950 . S
C683 C681 1.390 . S
C683 C684 1.387 . S
C683 H686 0.950 . S
C684 C683 1.387 . S
C684 C687 1.387 . S
H685 C681 0.950 . S
H686 C683 0.950 . S
C687 C678 1.390 . S
C687 H680 0.950 . S
C687 C684 1.387 . S
C688 C689 1.387 . S
C688 H692 0.950 . S
C688 C697 1.390 1_455 S
C689 C688 1.387 . S
C689 C691 1.387 . S
H690 C697 0.950 . S
C691 C689 1.387 . S
C691 C693 1.390 1_455 S
C691 H695 0.950 . S
H692 C688 0.950 . S
C693 C691 1.390 1_655 S
C693 C694 1.387 . S
C693 H696 0.950 . S
C694 C693 1.387 . S
C694 C697 1.387 . S
H695 C691 0.950 . S
H696 C693 0.950 . S
C697 C688 1.390 1_655 S
C697 H690 0.950 . S
C697 C694 1.387 . S
C698 C699 1.387 . S
C698 H702 0.950 . S
C698 C707 1.390 1_565 S
C699 C698 1.387 . S
C699 C701 1.387 . S
H700 C707 0.950 . S
C701 C699 1.387 . S
C701 C703 1.390 1_565 S
C701 H705 0.950 . S
H702 C698 0.950 . S
C703 C701 1.390 1_545 S
C703 C704 1.387 . S
C703 H706 0.950 . S
C704 C703 1.387 . S
C704 C707 1.387 . S
H705 C701 0.950 . S
H706 C703 0.950 . S
C707 C698 1.390 1_545 S
C707 H700 0.950 . S
C707 C704 1.387 . S
C708 C709 1.387 . S
C708 H712 0.950 . S
C708 C717 1.390 1_565 S
C709 C708 1.387 . S
C709 C711 1.387 . S
H710 C717 0.950 . S
C711 C709 1.387 . S
C711 C713 1.390 1_565 S
C711 H715 0.950 . S
H712 C708 0.950 . S
C713 C711 1.390 1_545 S
C713 C714 1.387 . S
C713 H716 0.950 . S
C714 C713 1.387 . S
C714 C717 1.387 . S
H715 C711 0.950 . S
H716 C713 0.950 . S
C717 C708 1.390 1_545 S
C717 H710 0.950 . S
C717 C714 1.387 . S
C718 C719 1.387 . S
C718 H722 0.950 . S
C718 C727 1.390 1_455 S
C719 C718 1.387 . S
C719 C721 1.387 . S
H720 C727 0.950 . S
C721 C719 1.387 . S
C721 C723 1.390 1_455 S
C721 H725 0.950 . S
H722 C718 0.950 . S
C723 C721 1.390 1_655 S
C723 C724 1.387 . S
C723 H726 0.950 . S
C724 C723 1.387 . S
C724 C727 1.387 . S
H725 C721 0.950 . S
H726 C723 0.950 . S
C727 C718 1.390 1_655 S
C727 H720 0.950 . S
C727 C724 1.387 . S
C728 C729 1.387 . S
C728 H732 0.950 . S
C728 C737 1.390 1_655 S
C729 C728 1.387 . S
C729 C731 1.387 . S
H730 C737 0.950 . S
C731 C729 1.387 . S
C731 C733 1.390 1_655 S
C731 H735 0.950 . S
H732 C728 0.950 . S
C733 C731 1.390 1_455 S
C733 C734 1.387 . S
C733 H736 0.950 . S
C734 C733 1.387 . S
C734 C737 1.387 . S
H735 C731 0.950 . S
H736 C733 0.950 . S
C737 C728 1.390 1_455 S
C737 H730 0.950 . S
C737 C734 1.387 . S
C738 C739 1.387 . S
C738 H742 0.950 . S
C738 C747 1.390 1_545 S
C739 C738 1.387 . S
C739 C741 1.387 . S
H740 C747 0.950 . S
C741 C739 1.387 . S
C741 C743 1.390 1_545 S
C741 H745 0.950 . S
H742 C738 0.950 . S
C743 C741 1.390 1_565 S
C743 C744 1.387 . S
C743 H746 0.950 . S
C744 C743 1.387 . S
C744 C747 1.387 . S
H745 C741 0.950 . S
H746 C743 0.950 . S
C747 C738 1.390 1_565 S
C747 H740 0.950 . S
C747 C744 1.387 . S
C748 C749 1.387 . S
C748 H752 0.950 . S
C748 C757 1.390 1_565 S
C749 C748 1.387 . S
C749 C751 1.387 . S
H750 C757 0.950 . S
C751 C749 1.387 . S
C751 C753 1.390 1_565 S
C751 H755 0.950 . S
H752 C748 0.950 . S
C753 C751 1.390 1_545 S
C753 C754 1.387 . S
C753 H756 0.950 . S
C754 C753 1.387 . S
C754 C757 1.387 . S
H755 C751 0.950 . S
H756 C753 0.950 . S
C757 C748 1.390 1_545 S
C757 H750 0.950 . S
C757 C754 1.387 . S
C758 C759 1.387 . S
C758 H762 0.950 . S
C758 C767 1.390 1_455 S
C759 C758 1.387 . S
C759 C761 1.387 . S
H760 C767 0.950 . S
C761 C759 1.387 . S
C761 C763 1.390 1_455 S
C761 H765 0.950 . S
H762 C758 0.950 . S
C763 C761 1.390 1_655 S
C763 C764 1.387 . S
C763 H766 0.950 . S
C764 C763 1.387 . S
C764 C767 1.387 . S
H765 C761 0.950 . S
H766 C763 0.950 . S
C767 C758 1.390 1_655 S
C767 H760 0.950 . S
C767 C764 1.387 . S
C768 C769 1.387 . S
C768 H772 0.950 . S
C768 C777 1.390 . S
C769 C768 1.387 . S
C769 C771 1.387 . S
H770 C777 0.950 . S
C771 C769 1.387 . S
C771 C773 1.390 . S
C771 H775 0.950 . S
H772 C768 0.950 . S
C773 C771 1.390 . S
C773 C774 1.387 . S
C773 H776 0.950 . S
C774 C773 1.387 . S
C774 C777 1.387 . S
H775 C771 0.950 . S
H776 C773 0.950 . S
C777 C768 1.390 . S
C777 H770 0.950 . S
C777 C774 1.387 . S
C778 C779 1.387 . S
C778 H782 0.950 . S
C778 C787 1.390 . S
C779 C778 1.387 . S
C779 C781 1.387 . S
H780 C787 0.950 . S
C781 C779 1.387 . S
C781 C783 1.390 . S
C781 H785 0.950 . S
H782 C778 0.950 . S
C783 C781 1.390 . S
C783 C784 1.387 . S
C783 H786 0.950 . S
C784 C783 1.387 . S
C784 C787 1.387 . S
H785 C781 0.950 . S
H786 C783 0.950 . S
C787 C778 1.390 . S
C787 H780 0.950 . S
C787 C784 1.387 . S
C788 C789 1.387 . S
C788 H792 0.950 . S
C788 C797 1.390 . S
C789 C788 1.387 . S
C789 C791 1.387 . S
H790 C797 0.950 . S
C791 C789 1.387 . S
C791 C793 1.390 . S
C791 H795 0.950 . S
H792 C788 0.950 . S
C793 C791 1.390 . S
C793 C794 1.387 . S
C793 H796 0.950 . S
C794 C793 1.387 . S
C794 C797 1.387 . S
H795 C791 0.950 . S
H796 C793 0.950 . S
C797 C788 1.390 . S
C797 H790 0.950 . S
C797 C794 1.387 . S
C798 C799 1.387 . S
C798 H802 0.950 . S
C798 C807 1.390 . S
C799 C798 1.387 . S
C799 C801 1.387 . S
H800 C807 0.950 . S
C801 C799 1.387 . S
C801 C803 1.390 . S
C801 H805 0.950 . S
H802 C798 0.950 . S
C803 C801 1.390 . S
C803 C804 1.387 . S
C803 H806 0.950 . S
C804 C803 1.387 . S
C804 C807 1.387 . S
H805 C801 0.950 . S
H806 C803 0.950 . S
C807 C798 1.390 . S
C807 H800 0.950 . S
C807 C804 1.387 . S
C808 C809 1.387 . S
C808 H812 0.950 . S
C808 C817 1.390 . S
C809 C808 1.387 . S
C809 C811 1.387 . S
H810 C817 0.950 . S
C811 C809 1.387 . S
C811 C813 1.390 . S
C811 H815 0.950 . S
H812 C808 0.950 . S
C813 C811 1.390 . S
C813 C814 1.387 . S
C813 H816 0.950 . S
C814 C813 1.387 . S
C814 C817 1.387 . S
H815 C811 0.950 . S
H816 C813 0.950 . S
C817 C808 1.390 . S
C817 H810 0.950 . S
C817 C814 1.387 . S
C818 C819 1.387 . S
C818 H822 0.950 . S
C818 C827 1.390 . S
C819 C818 1.387 . S
C819 C821 1.387 . S
H820 C827 0.950 . S
C821 C819 1.387 . S
C821 C823 1.390 . S
C821 H825 0.950 . S
H822 C818 0.950 . S
C823 C821 1.390 . S
C823 C824 1.387 . S
C823 H826 0.950 . S
C824 C823 1.387 . S
C824 C827 1.387 . S
H825 C821 0.950 . S
H826 C823 0.950 . S
C827 C818 1.390 . S
C827 H820 0.950 . S
C827 C824 1.387 . S
C828 C829 1.387 . S
C828 H832 0.950 . S
C828 C837 1.390 . S
C829 C828 1.387 . S
C829 C831 1.387 . S
H830 C837 0.950 . S
C831 C829 1.387 . S
C831 C833 1.390 . S
C831 H835 0.950 . S
H832 C828 0.950 . S
C833 C831 1.390 . S
C833 C834 1.387 . S
C833 H836 0.950 . S
C834 C833 1.387 . S
C834 C837 1.387 . S
H835 C831 0.950 . S
H836 C833 0.950 . S
C837 C828 1.390 . S
C837 H830 0.950 . S
C837 C834 1.387 . S
C838 C839 1.387 . S
C838 H842 0.950 . S
C838 C847 1.390 . S
C839 C838 1.387 . S
C839 C841 1.387 . S
H840 C847 0.950 . S
C841 C839 1.387 . S
C841 C843 1.390 . S
C841 H845 0.950 . S
H842 C838 0.950 . S
C843 C841 1.390 . S
C843 C844 1.387 . S
C843 H846 0.950 . S
C844 C843 1.387 . S
C844 C847 1.387 . S
H845 C841 0.950 . S
H846 C843 0.950 . S
C847 C838 1.390 . S
C847 H840 0.950 . S
C847 C844 1.387 . S
C848 C849 1.387 . S
C848 H852 0.950 . S
C848 C857 1.390 . S
C849 C848 1.387 . S
C849 C851 1.387 . S
H850 C857 0.950 . S
C851 C849 1.387 . S
C851 C853 1.390 . S
C851 H855 0.950 . S
H852 C848 0.950 . S
C853 C851 1.390 . S
C853 C854 1.387 . S
C853 H856 0.950 . S
C854 C853 1.387 . S
C854 C857 1.387 . S
H855 C851 0.950 . S
H856 C853 0.950 . S
C857 C848 1.390 . S
C857 H850 0.950 . S
C857 C854 1.387 . S
C858 C859 1.387 . S
C858 H862 0.950 . S
C858 C867 1.390 . S
C859 C858 1.387 . S
C859 C861 1.387 . S
H860 C867 0.950 . S
C861 C859 1.387 . S
C861 C863 1.390 . S
C861 H865 0.950 . S
H862 C858 0.950 . S
C863 C861 1.390 . S
C863 C864 1.387 . S
C863 H866 0.950 . S
C864 C863 1.387 . S
C864 C867 1.387 . S
H865 C861 0.950 . S
H866 C863 0.950 . S
C867 C858 1.390 . S
C867 H860 0.950 . S
C867 C864 1.387 . S
C868 C869 1.387 . S
C868 H872 0.950 . S
C868 C877 1.390 . S
C869 C868 1.387 . S
C869 C871 1.387 . S
H870 C877 0.950 . S
C871 C869 1.387 . S
C871 C873 1.390 . S
C871 H875 0.950 . S
H872 C868 0.950 . S
C873 C871 1.390 . S
C873 C874 1.387 . S
C873 H876 0.950 . S
C874 C873 1.387 . S
C874 C877 1.387 . S
H875 C871 0.950 . S
H876 C873 0.950 . S
C877 C868 1.390 . S
C877 H870 0.950 . S
C877 C874 1.387 . S
C878 C879 1.387 . S
C878 H882 0.950 . S
C878 C887 1.390 . S
C879 C878 1.387 . S
C879 C881 1.387 . S
H880 C887 0.950 . S
C881 C879 1.387 . S
C881 C883 1.390 . S
C881 H885 0.950 . S
H882 C878 0.950 . S
C883 C881 1.390 . S
C883 C884 1.387 . S
C883 H886 0.950 . S
C884 C883 1.387 . S
C884 C887 1.387 . S
H885 C881 0.950 . S
H886 C883 0.950 . S
C887 C878 1.390 . S
C887 H880 0.950 . S
C887 C884 1.387 . S
C888 C889 1.387 . S
C888 H892 0.950 . S
C888 C897 1.390 . S
C889 C888 1.387 . S
C889 C891 1.387 . S
H890 C897 0.950 . S
C891 C889 1.387 . S
C891 C893 1.390 . S
C891 H895 0.950 . S
H892 C888 0.950 . S
C893 C891 1.390 . S
C893 C894 1.387 . S
C893 H896 0.950 . S
C894 C893 1.387 . S
C894 C897 1.387 . S
H895 C891 0.950 . S
H896 C893 0.950 . S
C897 C888 1.390 . S
C897 H890 0.950 . S
C897 C894 1.387 . S
C898 C899 1.387 . S
C898 H902 0.950 . S
C898 C907 1.390 . S
C899 C898 1.387 . S
C899 C901 1.387 . S
H900 C907 0.950 . S
C901 C899 1.387 . S
C901 C903 1.390 . S
C901 H905 0.950 . S
H902 C898 0.950 . S
C903 C901 1.390 . S
C903 C904 1.387 . S
C903 H906 0.950 . S
C904 C903 1.387 . S
C904 C907 1.387 . S
H905 C901 0.950 . S
H906 C903 0.950 . S
C907 C898 1.390 . S
C907 H900 0.950 . S
C907 C904 1.387 . S
C908 C909 1.387 . S
C908 H912 0.950 . S
C908 C917 1.390 . S
C909 C908 1.387 . S
C909 C911 1.387 . S
H910 C917 0.950 . S
C911 C909 1.387 . S
C911 C913 1.390 . S
C911 H915 0.950 . S
H912 C908 0.950 . S
C913 C911 1.390 . S
C913 C914 1.387 . S
C913 H916 0.950 . S
C914 C913 1.387 . S
C914 C917 1.387 . S
H915 C911 0.950 . S
H916 C913 0.950 . S
C917 C908 1.390 . S
C917 H910 0.950 . S
C917 C914 1.387 . S
C918 C919 1.387 . S
C918 H922 0.950 . S
C918 C927 1.390 . S
C919 C918 1.387 . S
C919 C921 1.387 . S
H920 C927 0.950 . S
C921 C919 1.387 . S
C921 C923 1.390 . S
C921 H925 0.950 . S
H922 C918 0.950 . S
C923 C921 1.390 . S
C923 C924 1.387 . S
C923 H926 0.950 . S
C924 C923 1.387 . S
C924 C927 1.387 . S
H925 C921 0.950 . S
H926 C923 0.950 . S
C927 C918 1.390 . S
C927 H920 0.950 . S
C927 C924 1.387 . S
C529 N5 1.870 . S
C534 N236 1.870 . S
C539 N137 1.870 . S
C544 N38 1.870 . S
C549 N170 1.869 . S
C554 N71 1.870 . S
C559 N203 1.869 . S
C564 N104 1.870 . S
C569 N269 1.870 . S
C574 N500 1.869 . S
C579 N302 1.869 . S
C584 N401 1.870 . S
C589 N434 1.870 . S
C594 N335 1.870 . S
C599 N368 1.870 . S
C604 N467 1.869 . S
C609 N14 1.604 . S
C614 N344 1.603 . S
C619 N377 1.604 . S
C624 N47 1.603 . S
C629 N278 1.604 . S
C634 N80 1.603 . S
C639 N311 1.604 . S
C644 N113 1.603 . S
C649 N476 1.604 . S
C654 N146 1.604 . S
C659 N509 1.602 . S
C664 N179 1.605 . S
C669 N410 1.603 . S
C674 N212 1.605 . S
C679 N443 1.602 . S
C684 N245 1.605 . S
C689 C17 0.725 . S
C694 C83 0.725 . S
C699 C116 0.713 . S
C704 C50 0.713 . S
C709 C215 0.725 . S
C714 C149 0.725 . S
C719 C248 0.725 . S
C724 C182 0.725 . S
C729 C281 0.725 . S
C734 C347 0.725 . S
C739 C380 0.725 . S
C744 C314 0.725 . S
C749 C413 0.713 . S
C754 C479 0.713 . S
C759 C446 0.725 . S
C764 C512 0.725 . S
C769 C470 1.922 . S
C774 C28 2.118 . S
C779 C61 2.121 . S
C784 C503 1.926 . S
C789 C404 1.926 . S
C794 C94 2.121 . S
C799 C437 1.922 . S
C804 C127 2.118 . S
C809 C338 1.922 . S
C814 C160 2.118 . S
C819 C193 2.121 . S
C824 C371 1.926 . S
C829 C272 1.926 . S
C834 C226 2.121 . S
C839 C259 2.118 . S
C844 C305 1.922 . S
C849 C206 1.926 . S
C854 C292 2.121 . S
C859 C239 1.926 . S
C864 C325 2.121 . S
C869 C140 1.926 . S
C874 C358 2.121 . S
C879 C391 2.121 . S
C884 C173 1.926 . S
C889 C74 1.926 . S
C894 C424 2.121 . S
C899 C457 2.121 . S
C904 C107 1.926 . S
C909 C490 2.118 . S
C914 C8 1.922 . S
C919 C41 1.926 . S
C924 C523 2.121 . S
