# Generated by pormake.
# Topology rho, (4)-cn, num edge types: 1
# Building blocks:
#     Node 0, Type 0, BuildingBlock: QUQFOY_clean_sbu_1, # of connection points: 4
#     Node 1, Type 0, BuildingBlock: QUQFOY_clean_sbu_1, # of connection points: 4
#     Node 2, Type 0, BuildingBlock: QUQFOY_clean_sbu_1, # of connection points: 4
#     Node 3, Type 0, BuildingBlock: QUQFOY_clean_sbu_1, # of connection points: 4
#     Node 4, Type 0, BuildingBlock: QUQFOY_clean_sbu_1, # of connection points: 4
#     Node 5, Type 0, BuildingBlock: QUQFOY_clean_sbu_1, # of connection points: 4
#     Node 6, Type 0, BuildingBlock: QUQFOY_clean_sbu_1, # of connection points: 4
#     Node 7, Type 0, BuildingBlock: QUQFOY_clean_sbu_1, # of connection points: 4
#     Node 8, Type 0, BuildingBlock: QUQFOY_clean_sbu_1, # of connection points: 4
#     Node 9, Type 0, BuildingBlock: QUQFOY_clean_sbu_1, # of connection points: 4
#     Node 10, Type 0, BuildingBlock: QUQFOY_clean_sbu_1, # of connection points: 4
#     Node 11, Type 0, BuildingBlock: QUQFOY_clean_sbu_1, # of connection points: 4
#     Node 12, Type 0, BuildingBlock: QUQFOY_clean_sbu_1, # of connection points: 4
#     Node 13, Type 0, BuildingBlock: QUQFOY_clean_sbu_1, # of connection points: 4
#     Node 14, Type 0, BuildingBlock: QUQFOY_clean_sbu_1, # of connection points: 4
#     Node 15, Type 0, BuildingBlock: QUQFOY_clean_sbu_1, # of connection points: 4
#     Node 16, Type 0, BuildingBlock: QUQFOY_clean_sbu_1, # of connection points: 4
#     Node 17, Type 0, BuildingBlock: QUQFOY_clean_sbu_1, # of connection points: 4
#     Node 18, Type 0, BuildingBlock: QUQFOY_clean_sbu_1, # of connection points: 4
#     Node 19, Type 0, BuildingBlock: QUQFOY_clean_sbu_1, # of connection points: 4
#     Node 20, Type 0, BuildingBlock: QUQFOY_clean_sbu_1, # of connection points: 4
#     Node 21, Type 0, BuildingBlock: QUQFOY_clean_sbu_1, # of connection points: 4
#     Node 22, Type 0, BuildingBlock: QUQFOY_clean_sbu_1, # of connection points: 4
#     Node 23, Type 0, BuildingBlock: QUQFOY_clean_sbu_1, # of connection points: 4
#     Node 24, Type 0, BuildingBlock: QUQFOY_clean_sbu_1, # of connection points: 4
#     Node 25, Type 0, BuildingBlock: QUQFOY_clean_sbu_1, # of connection points: 4
#     Node 26, Type 0, BuildingBlock: QUQFOY_clean_sbu_1, # of connection points: 4
#     Node 27, Type 0, BuildingBlock: QUQFOY_clean_sbu_1, # of connection points: 4
#     Node 28, Type 0, BuildingBlock: QUQFOY_clean_sbu_1, # of connection points: 4
#     Node 29, Type 0, BuildingBlock: QUQFOY_clean_sbu_1, # of connection points: 4
#     Node 30, Type 0, BuildingBlock: QUQFOY_clean_sbu_1, # of connection points: 4
#     Node 31, Type 0, BuildingBlock: QUQFOY_clean_sbu_1, # of connection points: 4
#     Node 32, Type 0, BuildingBlock: QUQFOY_clean_sbu_1, # of connection points: 4
#     Node 33, Type 0, BuildingBlock: QUQFOY_clean_sbu_1, # of connection points: 4
#     Node 34, Type 0, BuildingBlock: QUQFOY_clean_sbu_1, # of connection points: 4
#     Node 35, Type 0, BuildingBlock: QUQFOY_clean_sbu_1, # of connection points: 4
#     Node 36, Type 0, BuildingBlock: QUQFOY_clean_sbu_1, # of connection points: 4
#     Node 37, Type 0, BuildingBlock: QUQFOY_clean_sbu_1, # of connection points: 4
#     Node 38, Type 0, BuildingBlock: QUQFOY_clean_sbu_1, # of connection points: 4
#     Node 39, Type 0, BuildingBlock: QUQFOY_clean_sbu_1, # of connection points: 4
#     Node 40, Type 0, BuildingBlock: QUQFOY_clean_sbu_1, # of connection points: 4
#     Node 41, Type 0, BuildingBlock: QUQFOY_clean_sbu_1, # of connection points: 4
#     Node 42, Type 0, BuildingBlock: QUQFOY_clean_sbu_1, # of connection points: 4
#     Node 43, Type 0, BuildingBlock: QUQFOY_clean_sbu_1, # of connection points: 4
#     Node 44, Type 0, BuildingBlock: QUQFOY_clean_sbu_1, # of connection points: 4
#     Node 45, Type 0, BuildingBlock: QUQFOY_clean_sbu_1, # of connection points: 4
#     Node 46, Type 0, BuildingBlock: QUQFOY_clean_sbu_1, # of connection points: 4
#     Node 47, Type 0, BuildingBlock: QUQFOY_clean_sbu_1, # of connection points: 4
#     Edge 48, Type (0, 0), BuildingBlock: AJUNOK_clean_linker_0, # of connection points: 2
#     Edge 49, Type (0, 0), BuildingBlock: AJUNOK_clean_linker_0, # of connection points: 2
#     Edge 50, Type (0, 0), BuildingBlock: AJUNOK_clean_linker_0, # of connection points: 2
#     Edge 51, Type (0, 0), BuildingBlock: AJUNOK_clean_linker_0, # of connection points: 2
#     Edge 52, Type (0, 0), BuildingBlock: AJUNOK_clean_linker_0, # of connection points: 2
#     Edge 53, Type (0, 0), BuildingBlock: AJUNOK_clean_linker_0, # of connection points: 2
#     Edge 54, Type (0, 0), BuildingBlock: AJUNOK_clean_linker_0, # of connection points: 2
#     Edge 55, Type (0, 0), BuildingBlock: AJUNOK_clean_linker_0, # of connection points: 2
#     Edge 56, Type (0, 0), BuildingBlock: AJUNOK_clean_linker_0, # of connection points: 2
#     Edge 57, Type (0, 0), BuildingBlock: AJUNOK_clean_linker_0, # of connection points: 2
#     Edge 58, Type (0, 0), BuildingBlock: AJUNOK_clean_linker_0, # of connection points: 2
#     Edge 59, Type (0, 0), BuildingBlock: AJUNOK_clean_linker_0, # of connection points: 2
#     Edge 60, Type (0, 0), BuildingBlock: AJUNOK_clean_linker_0, # of connection points: 2
#     Edge 61, Type (0, 0), BuildingBlock: AJUNOK_clean_linker_0, # of connection points: 2
#     Edge 62, Type (0, 0), BuildingBlock: AJUNOK_clean_linker_0, # of connection points: 2
#     Edge 63, Type (0, 0), BuildingBlock: AJUNOK_clean_linker_0, # of connection points: 2
#     Edge 64, Type (0, 0), BuildingBlock: AJUNOK_clean_linker_0, # of connection points: 2
#     Edge 65, Type (0, 0), BuildingBlock: AJUNOK_clean_linker_0, # of connection points: 2
#     Edge 66, Type (0, 0), BuildingBlock: AJUNOK_clean_linker_0, # of connection points: 2
#     Edge 67, Type (0, 0), BuildingBlock: AJUNOK_clean_linker_0, # of connection points: 2
#     Edge 68, Type (0, 0), BuildingBlock: AJUNOK_clean_linker_0, # of connection points: 2
#     Edge 69, Type (0, 0), BuildingBlock: AJUNOK_clean_linker_0, # of connection points: 2
#     Edge 70, Type (0, 0), BuildingBlock: AJUNOK_clean_linker_0, # of connection points: 2
#     Edge 71, Type (0, 0), BuildingBlock: AJUNOK_clean_linker_0, # of connection points: 2
#     Edge 72, Type (0, 0), BuildingBlock: AJUNOK_clean_linker_0, # of connection points: 2
#     Edge 73, Type (0, 0), BuildingBlock: AJUNOK_clean_linker_0, # of connection points: 2
#     Edge 74, Type (0, 0), BuildingBlock: AJUNOK_clean_linker_0, # of connection points: 2
#     Edge 75, Type (0, 0), BuildingBlock: AJUNOK_clean_linker_0, # of connection points: 2
#     Edge 76, Type (0, 0), BuildingBlock: AJUNOK_clean_linker_0, # of connection points: 2
#     Edge 77, Type (0, 0), BuildingBlock: AJUNOK_clean_linker_0, # of connection points: 2
#     Edge 78, Type (0, 0), BuildingBlock: AJUNOK_clean_linker_0, # of connection points: 2
#     Edge 79, Type (0, 0), BuildingBlock: AJUNOK_clean_linker_0, # of connection points: 2
#     Edge 80, Type (0, 0), BuildingBlock: AJUNOK_clean_linker_0, # of connection points: 2
#     Edge 81, Type (0, 0), BuildingBlock: AJUNOK_clean_linker_0, # of connection points: 2
#     Edge 82, Type (0, 0), BuildingBlock: AJUNOK_clean_linker_0, # of connection points: 2
#     Edge 83, Type (0, 0), BuildingBlock: AJUNOK_clean_linker_0, # of connection points: 2
#     Edge 84, Type (0, 0), BuildingBlock: AJUNOK_clean_linker_0, # of connection points: 2
#     Edge 85, Type (0, 0), BuildingBlock: AJUNOK_clean_linker_0, # of connection points: 2
#     Edge 86, Type (0, 0), BuildingBlock: AJUNOK_clean_linker_0, # of connection points: 2
#     Edge 87, Type (0, 0), BuildingBlock: AJUNOK_clean_linker_0, # of connection points: 2
#     Edge 88, Type (0, 0), BuildingBlock: AJUNOK_clean_linker_0, # of connection points: 2
#     Edge 89, Type (0, 0), BuildingBlock: AJUNOK_clean_linker_0, # of connection points: 2
#     Edge 90, Type (0, 0), BuildingBlock: AJUNOK_clean_linker_0, # of connection points: 2
#     Edge 91, Type (0, 0), BuildingBlock: AJUNOK_clean_linker_0, # of connection points: 2
#     Edge 92, Type (0, 0), BuildingBlock: AJUNOK_clean_linker_0, # of connection points: 2
#     Edge 93, Type (0, 0), BuildingBlock: AJUNOK_clean_linker_0, # of connection points: 2
#     Edge 94, Type (0, 0), BuildingBlock: AJUNOK_clean_linker_0, # of connection points: 2
#     Edge 95, Type (0, 0), BuildingBlock: AJUNOK_clean_linker_0, # of connection points: 2
#     Edge 96, Type (0, 0), BuildingBlock: AJUNOK_clean_linker_0, # of connection points: 2
#     Edge 97, Type (0, 0), BuildingBlock: AJUNOK_clean_linker_0, # of connection points: 2
#     Edge 98, Type (0, 0), BuildingBlock: AJUNOK_clean_linker_0, # of connection points: 2
#     Edge 99, Type (0, 0), BuildingBlock: AJUNOK_clean_linker_0, # of connection points: 2
#     Edge 100, Type (0, 0), BuildingBlock: AJUNOK_clean_linker_0, # of connection points: 2
#     Edge 101, Type (0, 0), BuildingBlock: AJUNOK_clean_linker_0, # of connection points: 2
#     Edge 102, Type (0, 0), BuildingBlock: AJUNOK_clean_linker_0, # of connection points: 2
#     Edge 103, Type (0, 0), BuildingBlock: AJUNOK_clean_linker_0, # of connection points: 2
#     Edge 104, Type (0, 0), BuildingBlock: AJUNOK_clean_linker_0, # of connection points: 2
#     Edge 105, Type (0, 0), BuildingBlock: AJUNOK_clean_linker_0, # of connection points: 2
#     Edge 106, Type (0, 0), BuildingBlock: AJUNOK_clean_linker_0, # of connection points: 2
#     Edge 107, Type (0, 0), BuildingBlock: AJUNOK_clean_linker_0, # of connection points: 2
#     Edge 108, Type (0, 0), BuildingBlock: AJUNOK_clean_linker_0, # of connection points: 2
#     Edge 109, Type (0, 0), BuildingBlock: AJUNOK_clean_linker_0, # of connection points: 2
#     Edge 110, Type (0, 0), BuildingBlock: AJUNOK_clean_linker_0, # of connection points: 2
#     Edge 111, Type (0, 0), BuildingBlock: AJUNOK_clean_linker_0, # of connection points: 2
#     Edge 112, Type (0, 0), BuildingBlock: AJUNOK_clean_linker_0, # of connection points: 2
#     Edge 113, Type (0, 0), BuildingBlock: AJUNOK_clean_linker_0, # of connection points: 2
#     Edge 114, Type (0, 0), BuildingBlock: AJUNOK_clean_linker_0, # of connection points: 2
#     Edge 115, Type (0, 0), BuildingBlock: AJUNOK_clean_linker_0, # of connection points: 2
#     Edge 116, Type (0, 0), BuildingBlock: AJUNOK_clean_linker_0, # of connection points: 2
#     Edge 117, Type (0, 0), BuildingBlock: AJUNOK_clean_linker_0, # of connection points: 2
#     Edge 118, Type (0, 0), BuildingBlock: AJUNOK_clean_linker_0, # of connection points: 2
#     Edge 119, Type (0, 0), BuildingBlock: AJUNOK_clean_linker_0, # of connection points: 2
#     Edge 120, Type (0, 0), BuildingBlock: AJUNOK_clean_linker_0, # of connection points: 2
#     Edge 121, Type (0, 0), BuildingBlock: AJUNOK_clean_linker_0, # of connection points: 2
#     Edge 122, Type (0, 0), BuildingBlock: AJUNOK_clean_linker_0, # of connection points: 2
#     Edge 123, Type (0, 0), BuildingBlock: AJUNOK_clean_linker_0, # of connection points: 2
#     Edge 124, Type (0, 0), BuildingBlock: AJUNOK_clean_linker_0, # of connection points: 2
#     Edge 125, Type (0, 0), BuildingBlock: AJUNOK_clean_linker_0, # of connection points: 2
#     Edge 126, Type (0, 0), BuildingBlock: AJUNOK_clean_linker_0, # of connection points: 2
#     Edge 127, Type (0, 0), BuildingBlock: AJUNOK_clean_linker_0, # of connection points: 2
#     Edge 128, Type (0, 0), BuildingBlock: AJUNOK_clean_linker_0, # of connection points: 2
#     Edge 129, Type (0, 0), BuildingBlock: AJUNOK_clean_linker_0, # of connection points: 2
#     Edge 130, Type (0, 0), BuildingBlock: AJUNOK_clean_linker_0, # of connection points: 2
#     Edge 131, Type (0, 0), BuildingBlock: AJUNOK_clean_linker_0, # of connection points: 2
#     Edge 132, Type (0, 0), BuildingBlock: AJUNOK_clean_linker_0, # of connection points: 2
#     Edge 133, Type (0, 0), BuildingBlock: AJUNOK_clean_linker_0, # of connection points: 2
#     Edge 134, Type (0, 0), BuildingBlock: AJUNOK_clean_linker_0, # of connection points: 2
#     Edge 135, Type (0, 0), BuildingBlock: AJUNOK_clean_linker_0, # of connection points: 2
#     Edge 136, Type (0, 0), BuildingBlock: AJUNOK_clean_linker_0, # of connection points: 2
#     Edge 137, Type (0, 0), BuildingBlock: AJUNOK_clean_linker_0, # of connection points: 2
#     Edge 138, Type (0, 0), BuildingBlock: AJUNOK_clean_linker_0, # of connection points: 2
#     Edge 139, Type (0, 0), BuildingBlock: AJUNOK_clean_linker_0, # of connection points: 2
#     Edge 140, Type (0, 0), BuildingBlock: AJUNOK_clean_linker_0, # of connection points: 2
#     Edge 141, Type (0, 0), BuildingBlock: AJUNOK_clean_linker_0, # of connection points: 2
#     Edge 142, Type (0, 0), BuildingBlock: AJUNOK_clean_linker_0, # of connection points: 2
#     Edge 143, Type (0, 0), BuildingBlock: AJUNOK_clean_linker_0, # of connection points: 2
# Relax obj value: 0.016
# Max RMSD: 0.056
# Mean RMSD: 0.056
data_MOF--net-rho--node1-QUQFOY_clean_sbu_1--edge1-AJUNOK_clean_linker_0
_symmetry_space_group_name_H-M    P1
_symmetry_Int_Tables_number       1
_symmetry_cell_setting            triclinic
loop_
_symmetry_equiv_pos_as_xyz
'x, y, z'
_cell_length_a     56.890519
_cell_length_b     56.897826
_cell_length_c     56.907662
_cell_angle_alpha  89.999931
_cell_angle_beta   89.987133
_cell_angle_gamma 90.007879
loop_
_atom_site_label
_atom_site_type_symbol
_atom_site_fract_x
_atom_site_fract_y
_atom_site_fract_z
_atom_type_partial_charge
O0 O 0.1097 0.2406 0.44591 0.0
Cd1 Cd 0.10308 0.23116 0.41155 0.0
Cd2 Cd 0.10046 0.28127 0.40885 0.0
O3 O 0.11233 0.2792 0.44325 0.0
O4 O 0.10962 0.19674 0.41221 0.0
O5 O 0.13099 0.22154 0.39151 0.0
C6 C 0.12745 0.20032 0.39876 0.0
C7 C 0.11306 0.31203 0.38428 0.0
C8 C 0.11375 0.26044 0.45532 0.0
C9 C 0.05644 0.25209 0.39889 0.0
O10 O 0.06597 0.27192 0.40276 0.0
O11 O 0.0685 0.23331 0.40016 0.0
O12 O 0.09983 0.31569 0.40225 0.0
O13 O 0.12018 0.29078 0.38068 0.0
O14 O 0.7404 0.06609 0.40193 0.0
Cd15 Cd 0.73111 0.10056 0.40825 0.0
Cd16 Cd 0.78117 0.10312 0.41114 0.0
O17 O 0.77904 0.06857 0.39964 0.0
O18 O 0.69673 0.10008 0.40144 0.0
O19 O 0.72185 0.12051 0.38018 0.0
C20 C 0.70055 0.11342 0.38358 0.0
C21 C 0.81193 0.12755 0.39828 0.0
C22 C 0.76024 0.05656 0.39816 0.0
C23 C 0.75182 0.11362 0.45489 0.0
O24 O 0.77171 0.10967 0.44552 0.0
O25 O 0.73309 0.1122 0.44275 0.0
O26 O 0.81558 0.10974 0.41174 0.0
O27 O 0.79069 0.13103 0.39109 0.0
O28 O 0.90361 0.77166 0.44541 0.0
Cd29 Cd 0.90867 0.78105 0.41075 0.0
Cd30 Cd 0.91118 0.73145 0.40744 0.0
O31 O 0.90042 0.73317 0.44224 0.0
O32 O 0.90088 0.81523 0.41108 0.0
O33 O 0.87993 0.7893 0.39136 0.0
C34 C 0.88278 0.81074 0.39826 0.0
C35 C 0.89802 0.70064 0.3832 0.0
C36 C 0.89989 0.7517 0.45473 0.0
C37 C 0.95493 0.76072 0.39655 0.0
O38 O 0.94552 0.74084 0.40046 0.0
O39 O 0.94287 0.77947 0.3983 0.0
O40 O 0.91177 0.69704 0.40078 0.0
O41 O 0.89072 0.72187 0.37982 0.0
O42 O 0.2706 0.94591 0.40018 0.0
Cd43 Cd 0.28014 0.91155 0.40679 0.0
Cd44 Cd 0.23067 0.90885 0.41055 0.0
O45 O 0.23197 0.94314 0.39831 0.0
O46 O 0.31437 0.91218 0.39925 0.0
O47 O 0.289 0.89123 0.37885 0.0
C48 C 0.31028 0.89865 0.38159 0.0
C49 C 0.20092 0.88297 0.39818 0.0
C50 C 0.25066 0.95527 0.39648 0.0
C51 C 0.26052 0.89993 0.4542 0.0
O52 O 0.24046 0.9036 0.44507 0.0
O53 O 0.27894 0.90061 0.44155 0.0
O54 O 0.19652 0.90095 0.4112 0.0
O55 O 0.2223 0.88022 0.39105 0.0
O56 O 0.06642 0.74143 0.61127 0.0
Cd57 Cd 0.10068 0.73176 0.60432 0.0
Cd58 Cd 0.1034 0.78148 0.60078 0.0
O59 O 0.06918 0.78007 0.61322 0.0
O60 O 0.09963 0.69734 0.61089 0.0
O61 O 0.12094 0.72183 0.63198 0.0
C62 C 0.11338 0.70071 0.62852 0.0
C63 C 0.12934 0.8112 0.61312 0.0
C64 C 0.05708 0.76136 0.61509 0.0
C65 C 0.11215 0.75183 0.55697 0.0
O66 O 0.10849 0.77185 0.5662 0.0
O67 O 0.11152 0.73335 0.56954 0.0
O68 O 0.11127 0.81564 0.60024 0.0
O69 O 0.13214 0.7898 0.62015 0.0
O70 O 0.24026 0.10891 0.56609 0.0
Cd71 Cd 0.23083 0.10355 0.60071 0.0
Cd72 Cd 0.28022 0.10112 0.60405 0.0
O73 O 0.27876 0.11209 0.56931 0.0
O74 O 0.19667 0.11142 0.60053 0.0
O75 O 0.22269 0.13211 0.62041 0.0
C76 C 0.20123 0.12936 0.61355 0.0
C77 C 0.31022 0.11431 0.62923 0.0
C78 C 0.26024 0.1127 0.5568 0.0
C79 C 0.25114 0.05722 0.61458 0.0
O80 O 0.271 0.06668 0.61071 0.0
O81 O 0.23237 0.06925 0.6129 0.0
O82 O 0.31447 0.10085 0.61155 0.0
O83 O 0.28887 0.12152 0.63198 0.0
O84 O 0.94526 0.2712 0.60848 0.0
Cd85 Cd 0.91072 0.28078 0.60294 0.0
Cd86 Cd 0.90726 0.23098 0.60073 0.0
O87 O 0.94195 0.23273 0.61185 0.0
O88 O 0.91136 0.31515 0.60982 0.0
O89 O 0.89124 0.29001 0.63136 0.0
C90 C 0.89826 0.31132 0.62786 0.0
C91 C 0.88277 0.20031 0.61379 0.0
C92 C 0.95448 0.25123 0.61243 0.0
C93 C 0.89683 0.25997 0.55672 0.0
O94 O 0.90064 0.24015 0.56628 0.0
O95 O 0.89852 0.27879 0.56865 0.0
O96 O 0.90051 0.19658 0.60027 0.0
O97 O 0.87938 0.22158 0.62094 0.0
O98 O 0.77043 0.90191 0.56616 0.0
Cd99 Cd 0.78 0.90765 0.60068 0.0
Cd100 Cd 0.73078 0.91076 0.60391 0.0
O101 O 0.73193 0.89901 0.56944 0.0
O102 O 0.81423 0.90007 0.60006 0.0
O103 O 0.78871 0.87933 0.62052 0.0
C104 C 0.81004 0.8822 0.6133 0.0
C105 C 0.70117 0.89794 0.62976 0.0
C106 C 0.75043 0.8981 0.55693 0.0
C107 C 0.7602 0.95463 0.6132 0.0
O108 O 0.74021 0.94535 0.60946 0.0
O109 O 0.77872 0.94215 0.61232 0.0
O110 O 0.69665 0.91107 0.6119 0.0
O111 O 0.7226 0.89091 0.63238 0.0
O112 O 0.4024 0.06673 0.27119 0.0
Cd113 Cd 0.40822 0.10121 0.28086 0.0
Cd114 Cd 0.41127 0.10476 0.23171 0.0
O115 O 0.39955 0.07028 0.23273 0.0
O116 O 0.40027 0.10072 0.315 0.0
O117 O 0.3799 0.12119 0.28921 0.0
C118 C 0.38248 0.114 0.31058 0.0
C119 C 0.39842 0.13045 0.20199 0.0
C120 C 0.3986 0.05764 0.25114 0.0
C121 C 0.45523 0.1138 0.26113 0.0
O122 O 0.44588 0.11031 0.24113 0.0
O123 O 0.44279 0.11272 0.27967 0.0
O124 O 0.41165 0.11264 0.19757 0.0
O125 O 0.39137 0.13316 0.2234 0.0
O126 O 0.9448 0.40189 0.27146 0.0
Cd127 Cd 0.91017 0.40743 0.28072 0.0
Cd128 Cd 0.9073 0.41077 0.23127 0.0
O129 O 0.94182 0.39922 0.23293 0.0
O130 O 0.91043 0.39966 0.31491 0.0
O131 O 0.89033 0.37899 0.28907 0.0
C132 C 0.89731 0.38176 0.31049 0.0
C133 C 0.88267 0.39815 0.20053 0.0
C134 C 0.9542 0.39825 0.25151 0.0
C135 C 0.89755 0.45444 0.26095 0.0
O136 O 0.90137 0.44524 0.24094 0.0
O137 O 0.89845 0.44191 0.27944 0.0
O138 O 0.9005 0.41158 0.19689 0.0
O139 O 0.87919 0.39093 0.22176 0.0
O140 O 0.56669 0.90344 0.23962 0.0
Cd141 Cd 0.60109 0.90914 0.22959 0.0
Cd142 Cd 0.60519 0.91136 0.27922 0.0
O143 O 0.57047 0.9003 0.27806 0.0
O144 O 0.60009 0.90217 0.19526 0.0
O145 O 0.62064 0.88082 0.2202 0.0
C146 C 0.61336 0.88423 0.19897 0.0
C147 C 0.63042 0.89813 0.30918 0.0
C148 C 0.55772 0.89959 0.25972 0.0
C149 C 0.61516 0.95542 0.25017 0.0
O150 O 0.61171 0.94583 0.27005 0.0
O151 O 0.61315 0.94349 0.23138 0.0
O152 O 0.61277 0.91162 0.31344 0.0
O153 O 0.63317 0.89097 0.28782 0.0
O154 O 0.10935 0.56638 0.2409 0.0
Cd155 Cd 0.10291 0.60077 0.23143 0.0
Cd156 Cd 0.10042 0.60368 0.28115 0.0
O157 O 0.11206 0.56917 0.27948 0.0
O158 O 0.10962 0.60011 0.19704 0.0
O159 O 0.13093 0.62071 0.22196 0.0
C160 C 0.12748 0.61349 0.20072 0.0
C161 C 0.11366 0.62922 0.31078 0.0
C162 C 0.11337 0.55701 0.26077 0.0
C163 C 0.05633 0.61369 0.25226 0.0
O164 O 0.06586 0.60983 0.27208 0.0
O165 O 0.06837 0.61232 0.23347 0.0
O166 O 0.10048 0.61139 0.31533 0.0
O167 O 0.12055 0.63192 0.28932 0.0
O168 O 0.44541 0.90367 0.77149 0.0
Cd169 Cd 0.41082 0.90912 0.78092 0.0
Cd170 Cd 0.40754 0.9116 0.73123 0.0
O171 O 0.44222 0.90048 0.73301 0.0
O172 O 0.41107 0.90132 0.81509 0.0
O173 O 0.39114 0.88057 0.78916 0.0
C174 C 0.39808 0.88334 0.81059 0.0
C175 C 0.38327 0.89881 0.70029 0.0
C176 C 0.4547 0.89981 0.75154 0.0
C177 C 0.39702 0.95547 0.76051 0.0
O178 O 0.40084 0.94598 0.74065 0.0
O179 O 0.3987 0.94345 0.77928 0.0
O180 O 0.401 0.91241 0.69681 0.0
O181 O 0.37975 0.89143 0.72146 0.0
O182 O 0.11068 0.44565 0.77096 0.0
Cd183 Cd 0.10413 0.41126 0.78044 0.0
Cd184 Cd 0.10068 0.4087 0.73079 0.0
O185 O 0.1128 0.44303 0.73233 0.0
O186 O 0.11076 0.41212 0.81484 0.0
O187 O 0.13203 0.39123 0.79014 0.0
C188 C 0.12853 0.3986 0.81132 0.0
C189 C 0.11332 0.38291 0.70109 0.0
C190 C 0.11447 0.4551 0.75107 0.0
C191 C 0.05693 0.3993 0.76032 0.0
O192 O 0.06612 0.4032 0.74033 0.0
O193 O 0.06948 0.39999 0.77879 0.0
O194 O 0.10031 0.40089 0.69663 0.0
O195 O 0.12033 0.38015 0.7225 0.0
O196 O 0.60958 0.06642 0.74027 0.0
Cd197 Cd 0.60295 0.1007 0.73052 0.0
Cd198 Cd 0.60029 0.10384 0.78074 0.0
O199 O 0.61203 0.06936 0.77887 0.0
O200 O 0.60955 0.09975 0.6961 0.0
O201 O 0.63087 0.12066 0.72075 0.0
C202 C 0.62737 0.11323 0.69959 0.0
C203 C 0.6129 0.12842 0.8115 0.0
C204 C 0.61353 0.05716 0.7602 0.0
C205 C 0.55633 0.11371 0.75139 0.0
O206 O 0.56586 0.11008 0.77126 0.0
O207 O 0.56836 0.11213 0.7326 0.0
O208 O 0.59953 0.11054 0.81514 0.0
O209 O 0.62013 0.13193 0.79027 0.0
O210 O 0.90206 0.56613 0.77073 0.0
Cd211 Cd 0.90792 0.60064 0.78025 0.0
Cd212 Cd 0.91124 0.60391 0.73083 0.0
O213 O 0.89944 0.56947 0.73223 0.0
O214 O 0.90007 0.60023 0.81441 0.0
O215 O 0.87963 0.62065 0.78864 0.0
C216 C 0.88229 0.61351 0.81002 0.0
C217 C 0.8988 0.62878 0.70024 0.0
C218 C 0.89833 0.55694 0.7507 0.0
C219 C 0.95499 0.61321 0.76055 0.0
O220 O 0.94575 0.60962 0.74052 0.0
O221 O 0.94248 0.61216 0.77905 0.0
O222 O 0.91215 0.61092 0.69651 0.0
O223 O 0.89156 0.63217 0.72148 0.0
O224 O 0.27057 0.40243 0.06676 0.0
Cd225 Cd 0.2802 0.40806 0.10126 0.0
Cd226 Cd 0.2307 0.41144 0.10463 0.0
O227 O 0.23205 0.3999 0.0701 0.0
O228 O 0.31441 0.40039 0.10056 0.0
O229 O 0.28887 0.37965 0.121 0.0
C230 C 0.3102 0.38249 0.11374 0.0
C231 C 0.20008 0.39884 0.12941 0.0
C232 C 0.25052 0.39883 0.05756 0.0
C233 C 0.26054 0.45505 0.11421 0.0
O234 O 0.24048 0.44588 0.11059 0.0
O235 O 0.27901 0.44252 0.11302 0.0
O236 O 0.19636 0.41233 0.11166 0.0
O237 O 0.22132 0.39156 0.13275 0.0
O238 O 0.24055 0.56668 0.9025 0.0
Cd239 Cd 0.23102 0.60122 0.90818 0.0
Cd240 Cd 0.28022 0.60447 0.91161 0.0
O241 O 0.27907 0.56998 0.89991 0.0
O242 O 0.1969 0.6008 0.90018 0.0
O243 O 0.22279 0.62114 0.87979 0.0
C244 C 0.20139 0.61403 0.88238 0.0
C245 C 0.31015 0.63006 0.89899 0.0
C246 C 0.26058 0.55746 0.89885 0.0
C247 C 0.25048 0.61384 0.95526 0.0
O248 O 0.27053 0.61016 0.94611 0.0
O249 O 0.23203 0.61285 0.94268 0.0
O250 O 0.31441 0.61222 0.91225 0.0
O251 O 0.28881 0.63282 0.89176 0.0
O252 O 0.40245 0.27145 0.9455 0.0
Cd253 Cd 0.40797 0.28116 0.911 0.0
Cd254 Cd 0.41022 0.23156 0.90745 0.0
O255 O 0.39907 0.23299 0.94213 0.0
O256 O 0.40107 0.31551 0.91179 0.0
O257 O 0.37954 0.29046 0.89156 0.0
C258 C 0.38304 0.31174 0.89867 0.0
C259 C 0.39709 0.20161 0.88215 0.0
C260 C 0.39852 0.25147 0.9547 0.0
C261 C 0.45426 0.26051 0.89717 0.0
O262 O 0.44472 0.24068 0.90099 0.0
O263 O 0.44227 0.27931 0.89881 0.0
O264 O 0.41044 0.19732 0.89991 0.0
O265 O 0.38995 0.22298 0.87939 0.0
O266 O 0.7707 0.44522 0.90057 0.0
Cd267 Cd 0.77997 0.41079 0.90712 0.0
Cd268 Cd 0.73006 0.40852 0.91074 0.0
O269 O 0.73203 0.44284 0.89868 0.0
O270 O 0.81439 0.41147 0.90044 0.0
O271 O 0.78956 0.39071 0.8792 0.0
C272 C 0.81078 0.39799 0.88266 0.0
C273 C 0.69938 0.38378 0.89824 0.0
C274 C 0.75085 0.45479 0.8969 0.0
C275 C 0.75981 0.39899 0.95438 0.0
O276 O 0.73979 0.40285 0.94522 0.0
O277 O 0.77828 0.39965 0.94179 0.0
O278 O 0.69567 0.40172 0.9115 0.0
O279 O 0.72065 0.38024 0.89114 0.0
O280 O 0.60976 0.73996 0.94523 0.0
Cd281 Cd 0.60337 0.73049 0.91084 0.0
Cd282 Cd 0.60069 0.78072 0.90809 0.0
O283 O 0.61231 0.77858 0.94258 0.0
O284 O 0.60999 0.69607 0.91156 0.0
O285 O 0.63143 0.72092 0.89099 0.0
C286 C 0.6279 0.6997 0.89823 0.0
C287 C 0.61325 0.81171 0.88376 0.0
C288 C 0.6137 0.75982 0.95466 0.0
C289 C 0.55683 0.75136 0.89776 0.0
O290 O 0.56631 0.77121 0.90164 0.0
O291 O 0.56887 0.73258 0.89921 0.0
O292 O 0.59986 0.81517 0.90166 0.0
O293 O 0.62056 0.79053 0.88011 0.0
O294 O 0.74088 0.60835 0.06609 0.0
Cd295 Cd 0.73139 0.60294 0.10068 0.0
Cd296 Cd 0.78074 0.60041 0.10404 0.0
O297 O 0.77936 0.61161 0.06936 0.0
O298 O 0.69724 0.61088 0.10043 0.0
O299 O 0.72327 0.63151 0.12037 0.0
C300 C 0.70181 0.62882 0.11345 0.0
C301 C 0.81062 0.61343 0.12945 0.0
C302 C 0.76085 0.61222 0.05684 0.0
C303 C 0.75157 0.55652 0.11436 0.0
O304 O 0.77144 0.56595 0.11045 0.0
O305 O 0.73284 0.56862 0.11282 0.0
O306 O 0.81495 0.60009 0.11169 0.0
O307 O 0.78926 0.62062 0.13214 0.0
O308 O 0.44615 0.77089 0.10979 0.0
Cd309 Cd 0.41165 0.78053 0.10411 0.0
Cd310 Cd 0.40832 0.73111 0.10056 0.0
O311 O 0.44284 0.73236 0.11218 0.0
O312 O 0.41227 0.81469 0.11193 0.0
O313 O 0.39178 0.78905 0.13247 0.0
C314 C 0.39901 0.8104 0.12975 0.0
C315 C 0.38337 0.70057 0.11303 0.0
C316 C 0.45536 0.75084 0.11333 0.0
C317 C 0.39892 0.76105 0.05701 0.0
O318 O 0.40251 0.74097 0.06614 0.0
O319 O 0.40003 0.77949 0.0696 0.0
O320 O 0.40118 0.6968 0.0996 0.0
O321 O 0.38009 0.72181 0.12033 0.0
O322 O 0.56604 0.24065 0.10947 0.0
Cd323 Cd 0.60038 0.23109 0.10285 0.0
Cd324 Cd 0.60333 0.28092 0.10046 0.0
O325 O 0.56889 0.27923 0.11234 0.0
O326 O 0.59963 0.19667 0.10947 0.0
O327 O 0.62041 0.22148 0.13074 0.0
C328 C 0.6131 0.20027 0.12728 0.0
C329 C 0.62892 0.31068 0.11338 0.0
C330 C 0.55671 0.26052 0.11362 0.0
C331 C 0.61302 0.25203 0.05626 0.0
O332 O 0.60921 0.27183 0.06588 0.0
O333 O 0.61176 0.2332 0.06826 0.0
O334 O 0.61096 0.31513 0.10035 0.0
O335 O 0.63173 0.28925 0.1203 0.0
O336 O 0.90388 0.77195 0.56626 0.0
Cd337 Cd 0.90897 0.78146 0.60088 0.0
Cd338 Cd 0.91165 0.73188 0.60436 0.0
O339 O 0.90076 0.73347 0.5696 0.0
O340 O 0.9009 0.81556 0.60057 0.0
O341 O 0.88022 0.78945 0.62035 0.0
C342 C 0.88287 0.81092 0.61344 0.0
C343 C 0.89884 0.70098 0.62867 0.0
C344 C 0.90016 0.75194 0.55703 0.0
C345 C 0.9553 0.76138 0.6151 0.0
O346 O 0.94595 0.74147 0.61125 0.0
O347 O 0.94321 0.78009 0.61328 0.0
O348 O 0.91255 0.69748 0.61103 0.0
O349 O 0.89137 0.72214 0.63207 0.0
O350 O 0.27135 0.94609 0.61061 0.0
Cd351 Cd 0.28092 0.91179 0.60373 0.0
Cd352 Cd 0.23126 0.90905 0.60031 0.0
O353 O 0.23272 0.94331 0.61262 0.0
O354 O 0.31529 0.91259 0.61054 0.0
O355 O 0.29049 0.89146 0.63146 0.0
C356 C 0.31168 0.89889 0.62815 0.0
C357 C 0.20152 0.88321 0.61283 0.0
C358 C 0.25142 0.95543 0.61443 0.0
C359 C 0.26083 0.90015 0.55646 0.0
O360 O 0.24082 0.9038 0.56573 0.0
O361 O 0.27933 0.90089 0.56898 0.0
O362 O 0.19708 0.90122 0.59988 0.0
O363 O 0.22294 0.88041 0.61983 0.0
O364 O 0.1104 0.24078 0.56666 0.0
Cd365 Cd 0.10405 0.23158 0.60114 0.0
Cd366 Cd 0.10051 0.28095 0.60346 0.0
O367 O 0.11267 0.2794 0.56915 0.0
O368 O 0.1116 0.19735 0.60077 0.0
O369 O 0.13218 0.22294 0.62128 0.0
C370 C 0.1294 0.2016 0.61407 0.0
C371 C 0.11314 0.31071 0.62918 0.0
C372 C 0.11424 0.26062 0.55714 0.0
C373 C 0.05676 0.25137 0.6128 0.0
O374 O 0.06594 0.27136 0.60884 0.0
O375 O 0.06937 0.23292 0.61233 0.0
O376 O 0.10012 0.31513 0.61122 0.0
O377 O 0.12015 0.2893 0.63199 0.0
O378 O 0.73987 0.06595 0.60887 0.0
Cd379 Cd 0.73009 0.10038 0.60299 0.0
Cd380 Cd 0.78004 0.10409 0.60097 0.0
O381 O 0.77833 0.06947 0.61225 0.0
O382 O 0.69568 0.09957 0.6097 0.0
O383 O 0.72055 0.12006 0.63117 0.0
C384 C 0.69931 0.11286 0.62763 0.0
C385 C 0.81078 0.12856 0.61389 0.0
C386 C 0.75988 0.05685 0.61289 0.0
C387 C 0.75112 0.11408 0.55677 0.0
O388 O 0.77092 0.11051 0.56647 0.0
O389 O 0.73224 0.1123 0.56861 0.0
O390 O 0.81445 0.11077 0.60044 0.0
O391 O 0.78952 0.13205 0.62103 0.0
O392 O 0.94473 0.27137 0.40254 0.0
Cd393 Cd 0.91005 0.28022 0.40833 0.0
Cd394 Cd 0.90795 0.23042 0.41121 0.0
O395 O 0.94255 0.23274 0.3999 0.0
O396 O 0.90996 0.31444 0.40072 0.0
O397 O 0.89025 0.28843 0.37987 0.0
C398 C 0.89704 0.30991 0.38271 0.0
C399 C 0.8837 0.19956 0.39827 0.0
C400 C 0.95446 0.25163 0.39871 0.0
C401 C 0.89691 0.25967 0.45489 0.0
O402 O 0.9012 0.23984 0.44555 0.0
O403 O 0.89811 0.2784 0.44273 0.0
O404 O 0.90148 0.19598 0.41178 0.0
O405 O 0.88015 0.22079 0.39105 0.0
O406 O 0.77093 0.90248 0.44573 0.0
Cd407 Cd 0.78069 0.90823 0.41128 0.0
Cd408 Cd 0.7314 0.91046 0.40748 0.0
O409 O 0.7325 0.89899 0.44206 0.0
O410 O 0.81488 0.90049 0.41177 0.0
O411 O 0.78915 0.87986 0.39145 0.0
C412 C 0.81053 0.88262 0.39859 0.0
C413 C 0.70177 0.89746 0.38178 0.0
C414 C 0.75089 0.89839 0.45476 0.0
C415 C 0.76032 0.95464 0.39781 0.0
O416 O 0.74048 0.94505 0.40145 0.0
O417 O 0.77912 0.94265 0.39941 0.0
O418 O 0.69725 0.91064 0.3996 0.0
O419 O 0.72319 0.89042 0.37916 0.0
O420 O 0.06617 0.74095 0.40066 0.0
Cd421 Cd 0.10058 0.73171 0.4074 0.0
Cd422 Cd 0.103 0.78113 0.41082 0.0
O423 O 0.06878 0.77957 0.39841 0.0
O424 O 0.10028 0.69746 0.39997 0.0
O425 O 0.12102 0.72299 0.37952 0.0
C426 C 0.11378 0.70165 0.38231 0.0
C427 C 0.12884 0.81085 0.3983 0.0
C428 C 0.05673 0.76081 0.39672 0.0
C429 C 0.11201 0.75166 0.45469 0.0
O430 O 0.10818 0.77163 0.44543 0.0
O431 O 0.1115 0.73316 0.44215 0.0
O432 O 0.11079 0.8153 0.4112 0.0
O433 O 0.13168 0.78943 0.39135 0.0
O434 O 0.23977 0.10886 0.44542 0.0
Cd435 Cd 0.22983 0.10333 0.41098 0.0
Cd436 Cd 0.27963 0.10097 0.40713 0.0
O437 O 0.27826 0.11193 0.44188 0.0
O438 O 0.19548 0.11025 0.41194 0.0
O439 O 0.22044 0.1317 0.39151 0.0
C440 C 0.19919 0.12823 0.39872 0.0
C441 C 0.30984 0.11396 0.38203 0.0
C442 C 0.25983 0.11262 0.45453 0.0
C443 C 0.25038 0.05708 0.39681 0.0
O444 O 0.27027 0.06658 0.40044 0.0
O445 O 0.2316 0.06905 0.39876 0.0
O446 O 0.3139 0.10046 0.39971 0.0
O447 O 0.28855 0.12132 0.37922 0.0
O448 O 0.61066 0.94562 0.74129 0.0
Cd449 Cd 0.60433 0.91108 0.73226 0.0
Cd450 Cd 0.60048 0.90908 0.78185 0.0
O451 O 0.61249 0.94344 0.77994 0.0
O452 O 0.61183 0.91132 0.69801 0.0
O453 O 0.63243 0.89087 0.72362 0.0
C454 C 0.62961 0.898 0.70226 0.0
C455 C 0.61296 0.88416 0.81237 0.0
C456 C 0.61425 0.95531 0.76108 0.0
C457 C 0.55695 0.89942 0.75201 0.0
O458 O 0.56603 0.90342 0.77203 0.0
O459 O 0.56964 0.89993 0.7336 0.0
O460 O 0.59971 0.9021 0.81619 0.0
O461 O 0.6201 0.88077 0.79109 0.0
O462 O 0.06629 0.60907 0.74016 0.0
Cd463 Cd 0.10073 0.6033 0.73031 0.0
Cd464 Cd 0.10454 0.60104 0.77993 0.0
O465 O 0.06988 0.61227 0.77862 0.0
O466 O 0.09994 0.61032 0.69599 0.0
O467 O 0.12042 0.63158 0.72107 0.0
C468 C 0.11324 0.62822 0.6998 0.0
C469 C 0.12982 0.61405 0.80993 0.0
C470 C 0.05722 0.61297 0.76021 0.0
C471 C 0.11452 0.55697 0.75089 0.0
O472 O 0.11091 0.56654 0.77074 0.0
O473 O 0.11272 0.56893 0.7321 0.0
O474 O 0.11206 0.60069 0.81416 0.0
O475 O 0.13263 0.62124 0.78859 0.0
O476 O 0.44487 0.11007 0.7713 0.0
Cd477 Cd 0.41032 0.10397 0.78052 0.0
Cd478 Cd 0.40768 0.10109 0.73095 0.0
O479 O 0.4423 0.11245 0.73269 0.0
O480 O 0.41044 0.11163 0.81472 0.0
O481 O 0.39027 0.13222 0.78886 0.0
C482 C 0.39724 0.12947 0.81029 0.0
C483 C 0.38236 0.11427 0.70109 0.0
C484 C 0.45438 0.11383 0.75144 0.0
C485 C 0.39719 0.05731 0.76019 0.0
O486 O 0.40117 0.06667 0.7403 0.0
O487 O 0.39861 0.06947 0.77889 0.0
O488 O 0.4001 0.10091 0.69674 0.0
O489 O 0.37962 0.12136 0.72248 0.0
O490 O 0.90162 0.44554 0.77069 0.0
Cd491 Cd 0.9076 0.41108 0.78032 0.0
Cd492 Cd 0.91089 0.40782 0.73068 0.0
O493 O 0.89911 0.44226 0.73217 0.0
O494 O 0.9006 0.41184 0.81467 0.0
O495 O 0.87948 0.39117 0.78966 0.0
C496 C 0.88282 0.39837 0.81092 0.0
C497 C 0.89846 0.383 0.70001 0.0
C498 C 0.89797 0.45475 0.75066 0.0
C499 C 0.95467 0.39863 0.76034 0.0
O500 O 0.94541 0.40218 0.74031 0.0
O501 O 0.94217 0.39965 0.77884 0.0
O502 O 0.91176 0.40091 0.69632 0.0
O503 O 0.89126 0.37953 0.72126 0.0
O504 O 0.56649 0.1095 0.2402 0.0
Cd505 Cd 0.60085 0.10369 0.23009 0.0
Cd506 Cd 0.60486 0.10102 0.28017 0.0
O507 O 0.57017 0.11216 0.27869 0.0
O508 O 0.59971 0.11052 0.19572 0.0
O509 O 0.62045 0.13191 0.22046 0.0
C510 C 0.61308 0.12842 0.19928 0.0
C511 C 0.62919 0.1136 0.31117 0.0
C512 C 0.55748 0.11315 0.26032 0.0
C513 C 0.61495 0.05728 0.25055 0.0
O514 O 0.61153 0.06671 0.2705 0.0
O515 O 0.61286 0.06932 0.23184 0.0
O516 O 0.61149 0.09995 0.31458 0.0
O517 O 0.63268 0.12111 0.29004 0.0
O518 O 0.90224 0.56582 0.24098 0.0
Cd519 Cd 0.90802 0.60034 0.23147 0.0
Cd520 Cd 0.91026 0.6038 0.28109 0.0
O521 O 0.89882 0.56922 0.27942 0.0
O522 O 0.90042 0.60006 0.19725 0.0
O523 O 0.87967 0.62021 0.22301 0.0
C524 C 0.88251 0.6132 0.20161 0.0
C525 C 0.89743 0.62845 0.31171 0.0
C526 C 0.89817 0.55666 0.26095 0.0
C527 C 0.95439 0.61383 0.25207 0.0
O528 O 0.94478 0.61011 0.27189 0.0
O529 O 0.94243 0.61223 0.23325 0.0
O530 O 0.91081 0.61061 0.31546 0.0
O531 O 0.89029 0.63186 0.29045 0.0
O532 O 0.40262 0.9463 0.27083 0.0
Cd533 Cd 0.40848 0.91178 0.28035 0.0
Cd534 Cd 0.41155 0.90851 0.23122 0.0
O535 O 0.39968 0.94294 0.23236 0.0
O536 O 0.40055 0.91214 0.31449 0.0
O537 O 0.38017 0.89175 0.28864 0.0
C538 C 0.38278 0.89886 0.31003 0.0
C539 C 0.39889 0.88269 0.20154 0.0
C540 C 0.39875 0.95547 0.25083 0.0
C541 C 0.45549 0.89939 0.26059 0.0
O542 O 0.44616 0.90306 0.24063 0.0
O543 O 0.44303 0.90028 0.27914 0.0
O544 O 0.41197 0.90061 0.19708 0.0
O545 O 0.39182 0.87999 0.22294 0.0
O546 O 0.11001 0.4455 0.24139 0.0
Cd547 Cd 0.10369 0.41101 0.23215 0.0
Cd548 Cd 0.09992 0.40884 0.28198 0.0
O549 O 0.11181 0.44323 0.28004 0.0
O550 O 0.11039 0.41173 0.19776 0.0
O551 O 0.13174 0.39109 0.22259 0.0
C552 C 0.12825 0.39834 0.20137 0.0
C553 C 0.11257 0.38406 0.31253 0.0
C554 C 0.11358 0.45514 0.26121 0.0
C555 C 0.05644 0.3989 0.25218 0.0
O556 O 0.06549 0.40294 0.27221 0.0
O557 O 0.0691 0.39959 0.23377 0.0
O558 O 0.09923 0.40194 0.31633 0.0
O559 O 0.11969 0.38064 0.29125 0.0
O560 O 0.74038 0.60858 0.94549 0.0
Cd561 Cd 0.73048 0.60296 0.91105 0.0
Cd562 Cd 0.78015 0.60062 0.90723 0.0
O563 O 0.77886 0.61171 0.94193 0.0
O564 O 0.69612 0.60986 0.91194 0.0
O565 O 0.72109 0.63127 0.89148 0.0
C566 C 0.69983 0.62779 0.89866 0.0
C567 C 0.81011 0.61367 0.8819 0.0
C568 C 0.76043 0.61239 0.95459 0.0
C569 C 0.75104 0.55665 0.8971 0.0
O570 O 0.77092 0.56616 0.90076 0.0
O571 O 0.73227 0.56865 0.89892 0.0
O572 O 0.81438 0.60028 0.89963 0.0
O573 O 0.78876 0.62089 0.87918 0.0
O574 O 0.77111 0.44515 0.11041 0.0
Cd575 Cd 0.78039 0.41072 0.10382 0.0
Cd576 Cd 0.73078 0.40839 0.10053 0.0
O577 O 0.73248 0.44268 0.11273 0.0
O578 O 0.81478 0.4113 0.1106 0.0
O579 O 0.78981 0.3906 0.13175 0.0
C580 C 0.81106 0.39783 0.12838 0.0
C581 C 0.70104 0.38268 0.11326 0.0
C582 C 0.75128 0.45467 0.11432 0.0
C583 C 0.76012 0.39905 0.05664 0.0
O584 O 0.74018 0.40301 0.06592 0.0
O585 O 0.77865 0.39957 0.06914 0.0
O586 O 0.69658 0.40068 0.10029 0.0
O587 O 0.72248 0.37983 0.12015 0.0
O588 O 0.61084 0.74037 0.06624 0.0
Cd589 Cd 0.60479 0.73127 0.10081 0.0
Cd590 Cd 0.60094 0.78101 0.1029 0.0
O591 O 0.61271 0.77903 0.06846 0.0
O592 O 0.61232 0.69703 0.10047 0.0
O593 O 0.63305 0.72265 0.12077 0.0
C594 C 0.6302 0.70129 0.11366 0.0
C595 C 0.6133 0.81191 0.12743 0.0
C596 C 0.61438 0.76018 0.05656 0.0
C597 C 0.55756 0.75101 0.113 0.0
O598 O 0.56659 0.77105 0.10893 0.0
O599 O 0.57022 0.7326 0.1123 0.0
O600 O 0.59991 0.81541 0.10954 0.0
O601 O 0.62065 0.79073 0.13099 0.0
O602 O 0.24035 0.56637 0.11048 0.0
Cd603 Cd 0.23049 0.60077 0.10447 0.0
Cd604 Cd 0.28031 0.60425 0.10106 0.0
O605 O 0.2789 0.56978 0.11277 0.0
O606 O 0.19612 0.59971 0.11132 0.0
O607 O 0.22086 0.62059 0.13254 0.0
C608 C 0.19967 0.61321 0.1291 0.0
C609 C 0.31113 0.62897 0.11333 0.0
C610 C 0.26043 0.55723 0.11404 0.0
C611 C 0.25042 0.61359 0.05745 0.0
O612 O 0.27049 0.6101 0.06664 0.0
O613 O 0.23193 0.61234 0.06996 0.0
O614 O 0.31468 0.61109 0.09995 0.0
O615 O 0.28994 0.63245 0.12071 0.0
O616 O 0.40292 0.27165 0.06603 0.0
Cd617 Cd 0.40849 0.28126 0.10055 0.0
Cd618 Cd 0.4107 0.232 0.10417 0.0
O619 O 0.39932 0.23323 0.06957 0.0
O620 O 0.40057 0.31539 0.10025 0.0
O621 O 0.38 0.28942 0.12034 0.0
C622 C 0.38267 0.31086 0.11335 0.0
C623 C 0.39776 0.20223 0.12975 0.0
C624 C 0.39883 0.25165 0.05692 0.0
C625 C 0.45485 0.26093 0.11408 0.0
O626 O 0.44526 0.24111 0.1103 0.0
O627 O 0.44286 0.27973 0.11255 0.0
O628 O 0.41095 0.19782 0.11191 0.0
O629 O 0.39066 0.22363 0.13245 0.0
O630 O 0.27057 0.40237 0.94616 0.0
Cd631 Cd 0.28027 0.40822 0.9117 0.0
Cd632 Cd 0.23063 0.41162 0.90836 0.0
O633 O 0.23202 0.40003 0.94287 0.0
O634 O 0.31462 0.40127 0.91256 0.0
O635 O 0.28967 0.38003 0.89193 0.0
C636 C 0.31092 0.38344 0.89916 0.0
C637 C 0.20009 0.39899 0.88351 0.0
C638 C 0.25051 0.39884 0.95537 0.0
C639 C 0.2604 0.45525 0.89889 0.0
O640 O 0.24033 0.44608 0.90247 0.0
O641 O 0.27887 0.44272 0.90006 0.0
O642 O 0.1963 0.41243 0.9013 0.0
O643 O 0.22135 0.39177 0.8802 0.0
O644 O 0.56557 0.24056 0.90121 0.0
Cd645 Cd 0.59997 0.23118 0.90775 0.0
Cd646 Cd 0.60265 0.28128 0.91033 0.0
O647 O 0.5682 0.27918 0.89855 0.0
O648 O 0.59936 0.19675 0.90118 0.0
O649 O 0.62 0.22162 0.87982 0.0
C650 C 0.61279 0.20038 0.88335 0.0
C651 C 0.62728 0.31201 0.89771 0.0
C652 C 0.55613 0.2604 0.89719 0.0
C653 C 0.61272 0.25214 0.95433 0.0
O654 O 0.60883 0.27196 0.9448 0.0
O655 O 0.61143 0.23334 0.9423 0.0
O656 O 0.60931 0.3157 0.91093 0.0
O657 O 0.63082 0.29075 0.89058 0.0
O658 O 0.44549 0.77144 0.90121 0.0
Cd659 Cd 0.41105 0.78087 0.90756 0.0
Cd660 Cd 0.40846 0.73143 0.91121 0.0
O661 O 0.44284 0.73282 0.89918 0.0
O662 O 0.41156 0.81509 0.89997 0.0
O663 O 0.39088 0.78958 0.87948 0.0
C664 C 0.39816 0.8109 0.88223 0.0
C665 C 0.38262 0.70173 0.89866 0.0
C666 C 0.45494 0.75154 0.89751 0.0
C667 C 0.39907 0.76117 0.95483 0.0
O668 O 0.40293 0.74114 0.9457 0.0
O669 O 0.39979 0.77961 0.94221 0.0
O670 O 0.40055 0.69729 0.91173 0.0
O671 O 0.37993 0.72312 0.89154 0.0
C672 C 0.12342 0.34351 0.32627 0.0
C673 C 0.11732 0.36689 0.33164 0.0
C674 C 0.12356 0.326 0.34372 0.0
C675 C 0.1176 0.33124 0.36716 0.0
H676 H 0.12682 0.33839 0.30825 0.0
H677 H 0.12705 0.30802 0.3385 0.0
S678 S 0.10466 0.39055 0.39113 0.0
N679 N 0.10835 0.39488 0.36269 0.0
N680 N 0.10861 0.36213 0.39532 0.0
C681 C 0.11332 0.35489 0.37305 0.0
C682 C 0.11318 0.37266 0.35534 0.0
C683 C 0.6869 0.12447 0.34306 0.0
C684 C 0.68146 0.11812 0.36636 0.0
C685 C 0.66954 0.12452 0.32544 0.0
C686 C 0.64614 0.11821 0.3305 0.0
H687 H 0.7049 0.12814 0.33806 0.0
H688 H 0.67482 0.12821 0.30753 0.0
S689 S 0.62199 0.10446 0.38955 0.0
N690 N 0.65035 0.10852 0.39408 0.0
N691 N 0.61791 0.10859 0.36114 0.0
C692 C 0.64018 0.11366 0.35407 0.0
C693 C 0.65778 0.11363 0.37195 0.0
C694 C 0.88684 0.6866 0.34285 0.0
C695 C 0.89308 0.68141 0.36623 0.0
C696 C 0.8867 0.66903 0.32546 0.0
C697 C 0.89279 0.64565 0.33083 0.0
H698 H 0.88338 0.70458 0.33763 0.0
H699 H 0.88314 0.67412 0.30746 0.0
S700 S 0.90606 0.62213 0.39023 0.0
N701 N 0.90228 0.65058 0.39438 0.0
N702 N 0.902 0.61772 0.36186 0.0
C703 C 0.89717 0.63993 0.35449 0.0
C704 C 0.89732 0.65776 0.37214 0.0
C705 C 0.36974 0.90147 0.35183 0.0
C706 C 0.36502 0.89418 0.32867 0.0
C707 C 0.35224 0.9014 0.36911 0.0
C708 C 0.32916 0.89404 0.36408 0.0
H709 H 0.3869 0.90826 0.35652 0.0
H710 H 0.35668 0.90816 0.38635 0.0
S711 S 0.30825 0.87038 0.30698 0.0
N712 N 0.33607 0.87716 0.30219 0.0
N713 N 0.30309 0.87704 0.33476 0.0
C714 C 0.32454 0.88512 0.34146 0.0
C715 C 0.34247 0.88519 0.32375 0.0
C716 C 0.12425 0.66879 0.68618 0.0
C717 C 0.11789 0.64549 0.68074 0.0
C718 C 0.12432 0.68641 0.66884 0.0
C719 C 0.11801 0.68137 0.64544 0.0
H720 H 0.12791 0.67376 0.70418 0.0
H721 H 0.12801 0.70433 0.67412 0.0
S722 S 0.10427 0.62233 0.62126 0.0
N723 N 0.1083 0.61778 0.64962 0.0
N724 N 0.1084 0.65075 0.61721 0.0
C725 C 0.11346 0.6578 0.63947 0.0
C726 C 0.1134 0.63991 0.65706 0.0
C727 C 0.35215 0.11175 0.64186 0.0
C728 C 0.32903 0.11903 0.64679 0.0
C729 C 0.36958 0.11173 0.65922 0.0
C730 C 0.36472 0.11899 0.68236 0.0
H731 H 0.35669 0.105 0.62465 0.0
H732 H 0.38677 0.10497 0.65461 0.0
S733 S 0.30779 0.14264 0.7038 0.0
N734 N 0.30279 0.13597 0.67601 0.0
N735 N 0.33561 0.13594 0.70871 0.0
C736 C 0.34214 0.12793 0.68718 0.0
C737 C 0.32429 0.12795 0.6694 0.0
C738 C 0.88785 0.32499 0.66856 0.0
C739 C 0.89371 0.3304 0.64512 0.0
C740 C 0.88789 0.34242 0.6861 0.0
C741 C 0.89382 0.36587 0.68083 0.0
H742 H 0.88448 0.30697 0.67368 0.0
H743 H 0.88457 0.33719 0.7041 0.0
S744 S 0.90619 0.38994 0.62145 0.0
N745 N 0.90243 0.3615 0.61711 0.0
N746 N 0.90253 0.39408 0.64992 0.0
C747 C 0.89788 0.37179 0.65716 0.0
C748 C 0.89783 0.35411 0.63936 0.0
C749 C 0.65935 0.90038 0.64277 0.0
C750 C 0.68257 0.89331 0.64757 0.0
C751 C 0.64206 0.90038 0.66028 0.0
C752 C 0.64715 0.89331 0.68343 0.0
H753 H 0.65461 0.90695 0.62555 0.0
H754 H 0.62478 0.90696 0.65576 0.0
S755 S 0.70445 0.87031 0.70457 0.0
N756 N 0.70918 0.87682 0.67668 0.0
N757 N 0.67662 0.87682 0.70966 0.0
C758 C 0.66986 0.88461 0.68813 0.0
C759 C 0.68756 0.88461 0.6702 0.0
C760 C 0.36935 0.11116 0.35234 0.0
C761 C 0.36469 0.11859 0.32921 0.0
C762 C 0.35182 0.11117 0.36959 0.0
C763 C 0.32876 0.1186 0.36457 0.0
H764 H 0.38649 0.10431 0.35702 0.0
H765 H 0.35622 0.10431 0.3868 0.0
S766 S 0.30801 0.14262 0.30756 0.0
N767 N 0.33583 0.13581 0.30278 0.0
N768 N 0.30279 0.13582 0.33528 0.0
C769 C 0.32421 0.12765 0.34198 0.0
C770 C 0.34217 0.12765 0.3243 0.0
C771 C 0.89939 0.35179 0.36988 0.0
C772 C 0.89246 0.32856 0.36494 0.0
C773 C 0.89947 0.36914 0.35244 0.0
C774 C 0.89263 0.3641 0.32921 0.0
H775 H 0.90579 0.3565 0.38718 0.0
H776 H 0.90593 0.38644 0.35707 0.0
S777 S 0.87008 0.30677 0.30765 0.0
N778 N 0.87635 0.30198 0.33558 0.0
N779 N 0.87651 0.33465 0.30272 0.0
C780 C 0.88407 0.34137 0.32435 0.0
C781 C 0.88399 0.32361 0.34221 0.0
C782 C 0.65997 0.89997 0.36875 0.0
C783 C 0.68319 0.89288 0.36395 0.0
C784 C 0.64274 0.90015 0.3512 0.0
C785 C 0.64788 0.89324 0.32802 0.0
H786 H 0.65521 0.90645 0.386 0.0
H787 H 0.62546 0.90675 0.35572 0.0
S788 S 0.70517 0.87024 0.30684 0.0
N789 N 0.70984 0.87652 0.33478 0.0
N790 N 0.67737 0.87685 0.30173 0.0
C791 C 0.67056 0.88449 0.3233 0.0
C792 C 0.68822 0.88432 0.34127 0.0
C793 C 0.11139 0.64215 0.35263 0.0
C794 C 0.11844 0.64696 0.32941 0.0
C795 C 0.11143 0.65965 0.36991 0.0
C796 C 0.11852 0.6828 0.36481 0.0
H797 H 0.10478 0.62494 0.35736 0.0
H798 H 0.10484 0.65515 0.38719 0.0
S799 S 0.14154 0.70394 0.30753 0.0
N800 N 0.13499 0.67607 0.30279 0.0
N801 N 0.13506 0.70903 0.33536 0.0
C802 C 0.12724 0.6875 0.34212 0.0
C803 C 0.1272 0.66958 0.32441 0.0
C804 C 0.34296 0.88762 0.68609 0.0
C805 C 0.3663 0.89412 0.68098 0.0
C806 C 0.32555 0.88763 0.66854 0.0
C807 C 0.33085 0.89415 0.64526 0.0
H808 H 0.33778 0.8838 0.70401 0.0
H809 H 0.30758 0.88383 0.67358 0.0
S810 S 0.39014 0.90834 0.62191 0.0
N811 N 0.39435 0.90408 0.65029 0.0
N812 N 0.36179 0.90411 0.61747 0.0
C813 C 0.35448 0.89884 0.6396 0.0
C814 C 0.37215 0.89882 0.65741 0.0
C815 C 0.11077 0.37006 0.65923 0.0
C816 C 0.11782 0.36515 0.68242 0.0
C817 C 0.11072 0.35263 0.64188 0.0
C818 C 0.11772 0.32944 0.64687 0.0
H819 H 0.10427 0.38734 0.65456 0.0
H820 H 0.10419 0.35725 0.62461 0.0
S821 S 0.1406 0.30795 0.70407 0.0
N822 N 0.13419 0.33584 0.70892 0.0
N823 N 0.13409 0.30301 0.67623 0.0
C824 C 0.12637 0.3246 0.66955 0.0
C825 C 0.12643 0.34245 0.68733 0.0
C826 C 0.68533 0.12395 0.66805 0.0
C827 C 0.68009 0.11748 0.64474 0.0
C828 C 0.66784 0.12407 0.68553 0.0
C829 C 0.64448 0.11771 0.68034 0.0
H830 H 0.70328 0.12769 0.67315 0.0
H831 H 0.67297 0.12788 0.70346 0.0
S832 S 0.62081 0.10358 0.62119 0.0
N833 N 0.6492 0.10765 0.61685 0.0
N834 N 0.61651 0.10786 0.64955 0.0
C835 C 0.63871 0.113 0.65675 0.0
C836 C 0.65646 0.11289 0.639 0.0
C837 C 0.88786 0.68687 0.66906 0.0
C838 C 0.89414 0.68171 0.64568 0.0
C839 C 0.88788 0.66932 0.68647 0.0
C840 C 0.89418 0.64598 0.68112 0.0
H841 H 0.88421 0.70482 0.67426 0.0
H842 H 0.88423 0.67438 0.70445 0.0
S843 S 0.90773 0.62254 0.62173 0.0
N844 N 0.90366 0.65096 0.61756 0.0
N845 N 0.90369 0.61812 0.65011 0.0
C846 C 0.89865 0.6403 0.65746 0.0
C847 C 0.89863 0.65811 0.63979 0.0
C848 C 0.35214 0.36995 0.11094 0.0
C849 C 0.32903 0.36489 0.11819 0.0
C850 C 0.36964 0.35266 0.11085 0.0
C851 C 0.36487 0.32946 0.11799 0.0
H852 H 0.35663 0.38723 0.10432 0.0
H853 H 0.38683 0.35739 0.10415 0.0
S854 S 0.30799 0.30764 0.14142 0.0
N855 N 0.30288 0.33546 0.13491 0.0
N856 N 0.33583 0.30289 0.13473 0.0
C857 C 0.34228 0.32449 0.12684 0.0
C858 C 0.32436 0.3422 0.12695 0.0
C859 C 0.36959 0.65994 0.90149 0.0
C860 C 0.3648 0.68309 0.89422 0.0
C861 C 0.35209 0.64264 0.90158 0.0
C862 C 0.32896 0.64765 0.89439 0.0
H863 H 0.3868 0.65526 0.90814 0.0
H864 H 0.35661 0.62541 0.90829 0.0
S865 S 0.30782 0.70474 0.87089 0.0
N866 N 0.33569 0.70955 0.87744 0.0
N867 N 0.30274 0.67696 0.8776 0.0
C868 C 0.32425 0.67028 0.88552 0.0
C869 C 0.34217 0.688 0.88543 0.0
C870 C 0.32481 0.34291 0.88842 0.0
C871 C 0.33009 0.36633 0.89444 0.0
C872 C 0.34235 0.32547 0.8883 0.0
C873 C 0.36579 0.33085 0.89419 0.0
H874 H 0.3068 0.33769 0.88508 0.0
H875 H 0.33721 0.30746 0.88487 0.0
S876 S 0.3895 0.39032 0.90691 0.0
N877 N 0.36103 0.39449 0.90326 0.0
N878 N 0.39382 0.3619 0.90303 0.0
C879 C 0.37156 0.35453 0.8984 0.0
C880 C 0.35377 0.37222 0.89853 0.0
C881 C 0.6679 0.32585 0.8872 0.0
C882 C 0.64448 0.33117 0.89321 0.0
C883 C 0.68544 0.34329 0.88736 0.0
C884 C 0.68017 0.36668 0.89354 0.0
H885 H 0.67304 0.30786 0.88364 0.0
H886 H 0.70343 0.3381 0.8839 0.0
S887 S 0.62079 0.39053 0.90641 0.0
N888 N 0.61647 0.36214 0.90237 0.0
N889 N 0.64925 0.39475 0.90267 0.0
C890 C 0.6565 0.37252 0.89776 0.0
C891 C 0.63871 0.35482 0.89759 0.0
C892 C 0.68595 0.66829 0.88776 0.0
C893 C 0.68066 0.64492 0.89401 0.0
C894 C 0.66846 0.68576 0.88762 0.0
C895 C 0.64504 0.6805 0.89372 0.0
H896 H 0.70394 0.67343 0.88423 0.0
H897 H 0.67362 0.70373 0.88401 0.0
S898 S 0.62127 0.6212 0.90712 0.0
N899 N 0.6497 0.61692 0.90329 0.0
N900 N 0.61699 0.6496 0.90303 0.0
C901 C 0.63924 0.65686 0.89817 0.0
C902 C 0.65699 0.63913 0.89831 0.0
C903 C 0.64269 0.65932 0.1111 0.0
C904 C 0.64778 0.68246 0.11822 0.0
C905 C 0.65999 0.64183 0.11104 0.0
C906 C 0.68321 0.64663 0.11808 0.0
H907 H 0.62539 0.6548 0.10455 0.0
H908 H 0.65524 0.62461 0.10444 0.0
S909 S 0.7051 0.70362 0.14116 0.0
N910 N 0.67726 0.70869 0.13471 0.0
N911 N 0.70984 0.67574 0.13458 0.0
C912 C 0.68821 0.66925 0.12681 0.0
C913 C 0.67049 0.68717 0.12688 0.0
C914 C 0.34277 0.68689 0.12385 0.0
C915 C 0.36613 0.68149 0.11769 0.0
C916 C 0.3252 0.66948 0.12393 0.0
C917 C 0.33038 0.64605 0.11784 0.0
H918 H 0.33771 0.70491 0.12735 0.0
H919 H 0.30725 0.67472 0.12749 0.0
S920 S 0.38962 0.622 0.10468 0.0
N921 N 0.39402 0.65041 0.10851 0.0
N922 N 0.36118 0.61786 0.10866 0.0
C923 C 0.354 0.64013 0.11348 0.0
C924 C 0.37183 0.6578 0.1134 0.0
C925 C 0.65911 0.36995 0.11089 0.0
C926 C 0.68232 0.36498 0.11786 0.0
C927 C 0.6417 0.35258 0.11093 0.0
C928 C 0.64664 0.32938 0.11795 0.0
H929 H 0.65447 0.38723 0.10437 0.0
H930 H 0.62442 0.35723 0.10444 0.0
S931 S 0.70388 0.30775 0.14066 0.0
N932 N 0.70879 0.33562 0.13418 0.0
N933 N 0.67598 0.30289 0.13427 0.0
C934 C 0.66935 0.32448 0.12654 0.0
C935 C 0.68719 0.34228 0.12649 0.0
C936 C 0.62389 0.84358 0.826 0.0
C937 C 0.61758 0.8669 0.83144 0.0
C938 C 0.62398 0.82598 0.84336 0.0
C939 C 0.61777 0.83105 0.86678 0.0
H940 H 0.62751 0.83858 0.808 0.0
H941 H 0.62766 0.80806 0.83809 0.0
S942 S 0.60414 0.89013 0.89093 0.0
N943 N 0.60809 0.89464 0.86256 0.0
N944 N 0.60826 0.86171 0.89501 0.0
C945 C 0.61325 0.85463 0.87274 0.0
C946 C 0.61315 0.8725 0.85513 0.0
C947 C 0.15957 0.61155 0.86939 0.0
C948 C 0.18277 0.61868 0.8646 0.0
C949 C 0.14228 0.61157 0.8519 0.0
C950 C 0.14736 0.61872 0.82877 0.0
H951 H 0.15484 0.60492 0.8866 0.0
H952 H 0.12501 0.60494 0.8564 0.0
S953 S 0.20461 0.6419 0.80766 0.0
N954 N 0.20936 0.63532 0.83552 0.0
N955 N 0.17679 0.63535 0.80257 0.0
C956 C 0.17004 0.62748 0.82408 0.0
C957 C 0.18775 0.62746 0.842 0.0
C958 C 0.39963 0.14226 0.85217 0.0
C959 C 0.39252 0.14714 0.82899 0.0
C960 C 0.39959 0.15968 0.86953 0.0
C961 C 0.39242 0.18283 0.86456 0.0
H962 H 0.40629 0.12504 0.85681 0.0
H963 H 0.40621 0.15511 0.88678 0.0
S964 S 0.36924 0.20416 0.80741 0.0
N965 N 0.37585 0.17632 0.80254 0.0
N966 N 0.37576 0.20914 0.83525 0.0
C967 C 0.38366 0.18761 0.8419 0.0
C968 C 0.38371 0.16976 0.82411 0.0
C969 C 0.84229 0.38742 0.82469 0.0
C970 C 0.86566 0.3936 0.83004 0.0
C971 C 0.82477 0.3873 0.84215 0.0
C972 C 0.83 0.39336 0.86557 0.0
H973 H 0.83717 0.38397 0.80668 0.0
H974 H 0.8068 0.38378 0.83695 0.0
S975 S 0.88929 0.40649 0.88948 0.0
N976 N 0.89363 0.40271 0.86106 0.0
N977 N 0.86087 0.40249 0.89369 0.0
C978 C 0.85364 0.3977 0.87143 0.0
C979 C 0.87142 0.39782 0.85372 0.0
C980 C 0.62404 0.18632 0.16773 0.0
C981 C 0.61769 0.18106 0.14439 0.0
C982 C 0.62401 0.16886 0.18524 0.0
C983 C 0.61761 0.14552 0.18004 0.0
H984 H 0.62779 0.20428 0.17283 0.0
H985 H 0.62774 0.17401 0.20318 0.0
S986 S 0.60378 0.12181 0.12083 0.0
N987 N 0.60795 0.15018 0.11648 0.0
N988 N 0.60788 0.11753 0.14922 0.0
C989 C 0.61303 0.13973 0.15643 0.0
C990 C 0.61307 0.15744 0.13866 0.0
C991 C 0.86985 0.61071 0.15969 0.0
C992 C 0.86489 0.61787 0.18284 0.0
C993 C 0.85249 0.61079 0.14226 0.0
C994 C 0.82934 0.61803 0.14713 0.0
H995 H 0.88707 0.60401 0.15512 0.0
H996 H 0.85712 0.60413 0.12503 0.0
S997 S 0.80783 0.64131 0.20417 0.0
N998 N 0.83564 0.63463 0.20916 0.0
N999 N 0.80295 0.63477 0.17632 0.0
C1000 C 0.82449 0.62681 0.16976 0.0
C1001 C 0.84227 0.62673 0.18762 0.0
C1002 C 0.40156 0.85232 0.14239 0.0
C1003 C 0.39442 0.82916 0.14738 0.0
C1004 C 0.40152 0.86977 0.15971 0.0
C1005 C 0.39435 0.86492 0.18289 0.0
H1006 H 0.40819 0.85688 0.12513 0.0
H1007 H 0.40813 0.887 0.15504 0.0
S1008 S 0.37119 0.80787 0.20453 0.0
N1009 N 0.37779 0.80285 0.17672 0.0
N1010 N 0.37773 0.83574 0.20936 0.0
C1011 C 0.38561 0.84228 0.18779 0.0
C1012 C 0.38565 0.8244 0.17004 0.0
C1013 C 0.18626 0.38783 0.1699 0.0
C1014 C 0.18093 0.39408 0.14655 0.0
C1015 C 0.16878 0.38768 0.1874 0.0
C1016 C 0.14536 0.39378 0.18216 0.0
H1017 H 0.20426 0.38432 0.17501 0.0
H1018 H 0.17396 0.38408 0.20536 0.0
S1019 S 0.12152 0.40715 0.12291 0.0
N1020 N 0.14995 0.40334 0.11859 0.0
N1021 N 0.11727 0.40306 0.15131 0.0
C1022 C 0.13953 0.39821 0.15854 0.0
C1023 C 0.15726 0.39836 0.14079 0.0
C1024 C 0.85204 0.61113 0.86926 0.0
C1025 C 0.8289 0.61831 0.86429 0.0
C1026 C 0.86947 0.61108 0.85189 0.0
C1027 C 0.86459 0.6182 0.82871 0.0
H1028 H 0.85661 0.60451 0.88651 0.0
H1029 H 0.88669 0.60442 0.85654 0.0
S1030 S 0.80757 0.64147 0.80714 0.0
N1031 N 0.80259 0.63496 0.83498 0.0
N1032 N 0.83541 0.63485 0.80227 0.0
C1033 C 0.84197 0.62701 0.82384 0.0
C1034 C 0.82412 0.62707 0.84163 0.0
C1035 C 0.40078 0.87033 0.85239 0.0
C1036 C 0.39353 0.86555 0.82924 0.0
C1037 C 0.4008 0.85284 0.86969 0.0
C1038 C 0.39355 0.82973 0.86468 0.0
H1039 H 0.40749 0.88753 0.85708 0.0
H1040 H 0.40751 0.85734 0.88693 0.0
S1041 S 0.37005 0.80864 0.80758 0.0
N1042 N 0.37669 0.83648 0.80277 0.0
N1043 N 0.37671 0.80355 0.83536 0.0
C1044 C 0.38468 0.82504 0.84205 0.0
C1045 C 0.38467 0.84295 0.82432 0.0
C1046 C 0.1864 0.388 0.84298 0.0
C1047 C 0.181 0.39425 0.86632 0.0
C1048 C 0.169 0.38788 0.82542 0.0
C1049 C 0.14557 0.394 0.83058 0.0
H1050 H 0.20442 0.38449 0.83792 0.0
H1051 H 0.17424 0.38429 0.80748 0.0
S1052 S 0.1215 0.40735 0.88976 0.0
N1053 N 0.14991 0.40351 0.89417 0.0
N1054 N 0.11736 0.40329 0.86134 0.0
C1055 C 0.13964 0.39843 0.85418 0.0
C1056 C 0.1573 0.39855 0.872 0.0
C1057 C 0.62379 0.1689 0.82544 0.0
C1058 C 0.6175 0.14554 0.8307 0.0
C1059 C 0.62378 0.1864 0.84291 0.0
C1060 C 0.61746 0.18116 0.86627 0.0
H1061 H 0.62746 0.17403 0.80748 0.0
H1062 H 0.62743 0.20436 0.83777 0.0
S1063 S 0.60383 0.12189 0.88997 0.0
N1064 N 0.60792 0.11758 0.86159 0.0
N1065 N 0.60789 0.15029 0.89426 0.0
C1066 C 0.61297 0.15753 0.87206 0.0
C1067 C 0.61298 0.13978 0.85433 0.0
C1068 C 0.84222 0.38721 0.18651 0.0
C1069 C 0.86562 0.39341 0.1813 0.0
C1070 C 0.82481 0.3871 0.16895 0.0
C1071 C 0.83018 0.39318 0.14557 0.0
H1072 H 0.837 0.38372 0.20448 0.0
H1073 H 0.80681 0.38355 0.17405 0.0
S1074 S 0.88961 0.40639 0.12201 0.0
N1075 N 0.89377 0.40258 0.15045 0.0
N1076 N 0.86122 0.40238 0.11763 0.0
C1077 C 0.85385 0.39755 0.13984 0.0
C1078 C 0.87152 0.39766 0.15766 0.0
C1079 C 0.62414 0.84365 0.18523 0.0
C1080 C 0.61786 0.86699 0.17986 0.0
C1081 C 0.62413 0.82607 0.16784 0.0
C1082 C 0.61784 0.8312 0.14446 0.0
H1083 H 0.62782 0.83861 0.20321 0.0
H1084 H 0.6278 0.80814 0.17306 0.0
S1085 S 0.60425 0.89035 0.12046 0.0
N1086 N 0.60831 0.8948 0.14883 0.0
N1087 N 0.60829 0.86193 0.11632 0.0
C1088 C 0.61334 0.8548 0.13856 0.0
C1089 C 0.61335 0.87264 0.1562 0.0
C1090 C 0.16803 0.62431 0.18691 0.0
C1091 C 0.14467 0.61806 0.18158 0.0
C1092 C 0.18559 0.62422 0.16949 0.0
C1093 C 0.18042 0.61787 0.14614 0.0
H1094 H 0.1731 0.62799 0.20488 0.0
H1095 H 0.20354 0.62784 0.17469 0.0
S1096 S 0.12119 0.60437 0.12225 0.0
N1097 N 0.11678 0.60852 0.15061 0.0
N1098 N 0.14962 0.60834 0.11806 0.0
C1099 C 0.15679 0.61343 0.14027 0.0
C1100 C 0.13897 0.61352 0.15794 0.0
C1101 C 0.40031 0.16038 0.14259 0.0
C1102 C 0.39323 0.18357 0.14751 0.0
C1103 C 0.4005 0.14306 0.16005 0.0
C1104 C 0.39363 0.14808 0.18327 0.0
H1105 H 0.40674 0.1557 0.12529 0.0
H1106 H 0.40707 0.1258 0.15542 0.0
S1107 S 0.37072 0.20527 0.20479 0.0
N1108 N 0.37696 0.21008 0.17685 0.0
N1109 N 0.37732 0.17744 0.20974 0.0
C1110 C 0.38493 0.17075 0.18812 0.0
C1111 C 0.38473 0.1885 0.17024 0.0
C1112 C 0.86964 0.85265 0.6108 0.0
C1113 C 0.86494 0.82943 0.61793 0.0
C1114 C 0.85206 0.86986 0.61077 0.0
C1115 C 0.82893 0.86469 0.61787 0.0
H1116 H 0.88685 0.85746 0.60423 0.0
H1117 H 0.85651 0.88716 0.60417 0.0
S1118 S 0.80799 0.80735 0.64097 0.0
N1119 N 0.83591 0.80273 0.63447 0.0
N1120 N 0.8028 0.83515 0.63441 0.0
C1121 C 0.8243 0.84198 0.62659 0.0
C1122 C 0.84231 0.82435 0.62662 0.0
C1123 C 0.84331 0.1855 0.38721 0.0
C1124 C 0.86667 0.1803 0.39356 0.0
C1125 C 0.82585 0.16798 0.38722 0.0
C1126 C 0.83113 0.14465 0.39358 0.0
H1127 H 0.83815 0.20344 0.38352 0.0
H1128 H 0.80789 0.17308 0.38354 0.0
S1129 S 0.89044 0.12109 0.40731 0.0
N1130 N 0.89469 0.14949 0.4032 0.0
N1131 N 0.86205 0.11673 0.40321 0.0
C1132 C 0.85477 0.13891 0.3981 0.0
C1133 C 0.87249 0.15669 0.39809 0.0
C1134 C 0.85244 0.86993 0.40109 0.0
C1135 C 0.82927 0.86496 0.39398 0.0
C1136 C 0.86988 0.85258 0.40101 0.0
C1137 C 0.865 0.82941 0.39383 0.0
H1138 H 0.85704 0.88717 0.40772 0.0
H1139 H 0.88713 0.85723 0.40759 0.0
S1140 S 0.80789 0.80785 0.37073 0.0
N1141 N 0.80291 0.83567 0.37736 0.0
N1142 N 0.83576 0.80299 0.37722 0.0
C1143 C 0.84233 0.82454 0.38513 0.0
C1144 C 0.82447 0.84231 0.3852 0.0
C1145 C 0.14166 0.85272 0.40095 0.0
C1146 C 0.14658 0.82956 0.3938 0.0
C1147 C 0.15905 0.87012 0.40092 0.0
C1148 C 0.18222 0.86521 0.39375 0.0
H1149 H 0.12442 0.85735 0.40757 0.0
H1150 H 0.15443 0.88738 0.40752 0.0
S1151 S 0.20369 0.8081 0.37059 0.0
N1152 N 0.17585 0.80317 0.37719 0.0
N1153 N 0.20861 0.83595 0.37713 0.0
C1154 C 0.18706 0.84255 0.38502 0.0
C1155 C 0.16924 0.82472 0.38505 0.0
C1156 C 0.18536 0.16878 0.38794 0.0
C1157 C 0.18004 0.14541 0.39417 0.0
C1158 C 0.16791 0.1863 0.38792 0.0
C1159 C 0.14452 0.18108 0.39413 0.0
H1160 H 0.20335 0.17388 0.38433 0.0
H1161 H 0.1731 0.20426 0.38431 0.0
S1162 S 0.12065 0.12184 0.40756 0.0
N1163 N 0.14905 0.11748 0.40357 0.0
N1164 N 0.11643 0.15025 0.40354 0.0
C1165 C 0.13867 0.15746 0.39857 0.0
C1166 C 0.15637 0.13968 0.39859 0.0
C1167 C 0.15935 0.14224 0.61128 0.0
C1168 C 0.18258 0.1471 0.61827 0.0
C1169 C 0.142 0.15968 0.61144 0.0
C1170 C 0.14703 0.18281 0.61861 0.0
H1171 H 0.15465 0.12503 0.60465 0.0
H1172 H 0.1247 0.15512 0.60491 0.0
S1173 S 0.20433 0.20409 0.64147 0.0
N1174 N 0.20915 0.17625 0.63481 0.0
N1175 N 0.17646 0.20909 0.6351 0.0
C1176 C 0.16975 0.18757 0.62723 0.0
C1177 C 0.18753 0.16971 0.62706 0.0
C1178 C 0.82474 0.16904 0.62474 0.0
C1179 C 0.82999 0.14564 0.61863 0.0
C1180 C 0.84226 0.1865 0.62473 0.0
C1181 C 0.86565 0.18117 0.61859 0.0
H1182 H 0.80676 0.17423 0.62823 0.0
H1183 H 0.83713 0.2045 0.6282 0.0
S1184 S 0.88932 0.12175 0.60559 0.0
N1185 N 0.86089 0.11753 0.60951 0.0
N1186 N 0.89365 0.15017 0.60947 0.0
C1187 C 0.87142 0.15749 0.61433 0.0
C1188 C 0.85364 0.13978 0.61435 0.0
C1189 C 0.15963 0.87042 0.6103 0.0
C1190 C 0.18282 0.86548 0.61736 0.0
C1191 C 0.14221 0.85305 0.61037 0.0
C1192 C 0.14713 0.82988 0.6175 0.0
H1193 H 0.155 0.88768 0.60373 0.0
H1194 H 0.12494 0.85769 0.60385 0.0
S1195 S 0.20433 0.80833 0.64038 0.0
N1196 N 0.20925 0.83617 0.63382 0.0
N1197 N 0.17644 0.80344 0.63395 0.0
C1198 C 0.16983 0.82501 0.62612 0.0
C1199 C 0.18767 0.84281 0.62605 0.0
C1200 C 0.11234 0.28198 0.49385 0.0
C1201 C 0.11801 0.26155 0.48106 0.0
C1202 C 0.11248 0.28202 0.51855 0.0
C1203 C 0.1183 0.26165 0.53136 0.0
H1204 H 0.10655 0.29768 0.48479 0.0
H1205 H 0.10678 0.29776 0.52762 0.0
S1206 S 0.1388 0.20502 0.50619 0.0
N1207 N 0.13272 0.22145 0.48308 0.0
N1208 N 0.13299 0.22155 0.52931 0.0
C1209 C 0.12571 0.2417 0.51874 0.0
C1210 C 0.12556 0.24165 0.49366 0.0
C1211 C 0.72996 0.1122 0.51805 0.0
C1212 C 0.75025 0.11808 0.53096 0.0
C1213 C 0.73014 0.11208 0.49334 0.0
C1214 C 0.75061 0.11781 0.48065 0.0
H1215 H 0.71418 0.10648 0.52702 0.0
H1216 H 0.71448 0.10626 0.4842 0.0
S1217 S 0.80698 0.13872 0.50607 0.0
N1218 N 0.79035 0.13286 0.52911 0.0
N1219 N 0.79068 0.1326 0.48288 0.0
C1220 C 0.77044 0.12539 0.49336 0.0
C1221 C 0.77026 0.12553 0.51844 0.0
C1222 C 0.8936 0.77126 0.49356 0.0
C1223 C 0.89667 0.75036 0.48068 0.0
C1224 C 0.89367 0.77132 0.51815 0.0
C1225 C 0.89682 0.75048 0.53111 0.0
H1226 H 0.89179 0.78797 0.48462 0.0
H1227 H 0.89191 0.78807 0.52703 0.0
S1228 S 0.90345 0.69056 0.50601 0.0
N1229 N 0.90127 0.70787 0.48283 0.0
N1230 N 0.90141 0.70798 0.52913 0.0
C1231 C 0.89865 0.72921 0.51853 0.0
C1232 C 0.89858 0.72915 0.49335 0.0
C1233 C 0.24131 0.89313 0.49311 0.0
C1234 C 0.26209 0.89663 0.48012 0.0
C1235 C 0.24138 0.89319 0.5177 0.0
C1236 C 0.26223 0.89676 0.53054 0.0
H1237 H 0.22459 0.891 0.48426 0.0
H1238 H 0.22472 0.89111 0.52667 0.0
S1239 S 0.32187 0.9046 0.50512 0.0
N1240 N 0.30448 0.90207 0.48203 0.0
N1241 N 0.30462 0.9022 0.52833 0.0
C1242 C 0.2834 0.899 0.51785 0.0
C1243 C 0.28333 0.89893 0.49266 0.0
C1244 C 0.11864 0.77119 0.51808 0.0
C1245 C 0.11542 0.75035 0.53104 0.0
C1246 C 0.1186 0.77115 0.49349 0.0
C1247 C 0.11535 0.75027 0.48062 0.0
H1248 H 0.12052 0.78792 0.52696 0.0
H1249 H 0.12046 0.78785 0.48455 0.0
S1250 S 0.10836 0.69049 0.50594 0.0
N1251 N 0.1106 0.70789 0.52905 0.0
N1252 N 0.11054 0.70781 0.48276 0.0
C1253 C 0.1134 0.72906 0.49327 0.0
C1254 C 0.11343 0.7291 0.51846 0.0
C1255 C 0.24062 0.11942 0.49345 0.0
C1256 C 0.2614 0.11602 0.48044 0.0
C1257 C 0.24072 0.11944 0.51804 0.0
C1258 C 0.2616 0.11606 0.53087 0.0
H1259 H 0.22387 0.1214 0.48461 0.0
H1260 H 0.22404 0.12143 0.52702 0.0
S1261 S 0.32127 0.10858 0.50541 0.0
N1262 N 0.30384 0.1109 0.48234 0.0
N1263 N 0.30402 0.11093 0.52863 0.0
C1264 C 0.28277 0.11394 0.51816 0.0
C1265 C 0.28267 0.11392 0.49298 0.0
C1266 C 0.89836 0.28133 0.51809 0.0
C1267 C 0.89265 0.26096 0.53095 0.0
C1268 C 0.89837 0.28127 0.49338 0.0
C1269 C 0.89269 0.26082 0.48064 0.0
H1270 H 0.90406 0.2971 0.52711 0.0
H1271 H 0.90409 0.29698 0.48428 0.0
S1272 S 0.87213 0.20426 0.50593 0.0
N1273 N 0.87802 0.22081 0.529 0.0
N1274 N 0.87807 0.22069 0.48277 0.0
C1275 C 0.88524 0.24091 0.4933 0.0
C1276 C 0.88521 0.24098 0.51838 0.0
C1277 C 0.77004 0.89125 0.49362 0.0
C1278 C 0.74928 0.89475 0.48063 0.0
C1279 C 0.76993 0.89115 0.5182 0.0
C1280 C 0.74905 0.89457 0.53103 0.0
H1281 H 0.78679 0.88929 0.48476 0.0
H1282 H 0.7866 0.88914 0.52718 0.0
S1283 S 0.68939 0.90211 0.50559 0.0
N1284 N 0.70684 0.89986 0.48251 0.0
N1285 N 0.70662 0.89969 0.52881 0.0
C1286 C 0.72788 0.8967 0.51834 0.0
C1287 C 0.728 0.89679 0.49315 0.0
C1288 C 0.49395 0.12077 0.24156 0.0
C1289 C 0.48117 0.11717 0.26244 0.0
C1290 C 0.51855 0.12058 0.24136 0.0
C1291 C 0.5316 0.11678 0.26203 0.0
H1292 H 0.48492 0.12303 0.22496 0.0
H1293 H 0.52735 0.12271 0.22461 0.0
S1294 S 0.50679 0.10877 0.32189 0.0
N1295 N 0.48352 0.1115 0.30478 0.0
N1296 N 0.52983 0.11115 0.3044 0.0
C1297 C 0.51913 0.11452 0.28332 0.0
C1298 C 0.49394 0.11471 0.28353 0.0
C1299 C 0.89112 0.51788 0.24154 0.0
C1300 C 0.89447 0.53078 0.26239 0.0
C1301 C 0.89093 0.49329 0.24155 0.0
C1302 C 0.89409 0.48035 0.2624 0.0
H1303 H 0.88937 0.52681 0.22482 0.0
H1304 H 0.88905 0.48439 0.22482 0.0
S1305 S 0.90112 0.50554 0.32222 0.0
N1306 N 0.89914 0.5287 0.30486 0.0
N1307 N 0.89879 0.4824 0.30487 0.0
C1308 C 0.89606 0.49297 0.28363 0.0
C1309 C 0.89625 0.51815 0.28362 0.0
C1310 C 0.51875 0.89239 0.24078 0.0
C1311 C 0.53183 0.89608 0.26145 0.0
C1312 C 0.49416 0.89232 0.241 0.0
C1313 C 0.48141 0.89595 0.26189 0.0
H1314 H 0.52754 0.89024 0.22403 0.0
H1315 H 0.4851 0.89013 0.2244 0.0
S1316 S 0.5071 0.90417 0.32133 0.0
N1317 N 0.53012 0.90169 0.30383 0.0
N1318 N 0.48381 0.90157 0.30423 0.0
C1319 C 0.4942 0.89832 0.28297 0.0
C1320 C 0.51939 0.89838 0.28275 0.0
C1321 C 0.11171 0.51852 0.28237 0.0
C1322 C 0.1175 0.53125 0.26195 0.0
C1323 C 0.11176 0.49381 0.28248 0.0
C1324 C 0.11763 0.48093 0.26216 0.0
H1325 H 0.10589 0.52764 0.29804 0.0
H1326 H 0.10599 0.4848 0.29823 0.0
S1327 S 0.1384 0.50591 0.20555 0.0
N1328 N 0.13233 0.52908 0.2219 0.0
N1329 N 0.13246 0.48284 0.2221 0.0
C1330 C 0.12514 0.49348 0.24221 0.0
C1331 C 0.12507 0.51857 0.2421 0.0
C1332 C 0.49341 0.89287 0.77109 0.0
C1333 C 0.48061 0.89629 0.7502 0.0
C1334 C 0.51801 0.89275 0.7712 0.0
C1335 C 0.53104 0.89605 0.75043 0.0
H1336 H 0.48441 0.89097 0.78776 0.0
H1337 H 0.52684 0.89077 0.78795 0.0
S1338 S 0.50614 0.90348 0.69054 0.0
N1339 N 0.4829 0.90129 0.70778 0.0
N1340 N 0.5292 0.90107 0.70799 0.0
C1341 C 0.51853 0.89815 0.72915 0.0
C1342 C 0.49334 0.89828 0.72904 0.0
C1343 C 0.11274 0.49364 0.72956 0.0
C1344 C 0.11863 0.48086 0.74993 0.0
C1345 C 0.11274 0.51835 0.72952 0.0
C1346 C 0.11863 0.53118 0.74985 0.0
H1347 H 0.10689 0.48455 0.7139 0.0
H1348 H 0.10689 0.52738 0.71383 0.0
S1349 S 0.13966 0.50611 0.80632 0.0
N1350 N 0.1336 0.48297 0.78992 0.0
N1351 N 0.13361 0.52921 0.78985 0.0
C1352 C 0.12625 0.5186 0.76974 0.0
C1353 C 0.12625 0.49351 0.76978 0.0
C1354 C 0.49299 0.11173 0.73004 0.0
C1355 C 0.48019 0.11778 0.75035 0.0
C1356 C 0.5177 0.11171 0.73002 0.0
C1357 C 0.53053 0.11772 0.75033 0.0
H1358 H 0.4839 0.10582 0.71439 0.0
H1359 H 0.52676 0.10577 0.71437 0.0
S1360 S 0.5054 0.13912 0.80665 0.0
N1361 N 0.48227 0.13297 0.79026 0.0
N1362 N 0.52851 0.13293 0.79024 0.0
C1363 C 0.51792 0.12545 0.77017 0.0
C1364 C 0.49283 0.12547 0.77018 0.0
C1365 C 0.8911 0.51816 0.77003 0.0
C1366 C 0.89463 0.53107 0.74922 0.0
C1367 C 0.89098 0.49357 0.77002 0.0
C1368 C 0.89441 0.48065 0.7492 0.0
H1369 H 0.88915 0.52708 0.78674 0.0
H1370 H 0.88897 0.48465 0.78672 0.0
S1371 S 0.90194 0.50586 0.68944 0.0
N1372 N 0.89971 0.52901 0.70679 0.0
N1373 N 0.89951 0.48271 0.70677 0.0
C1374 C 0.89654 0.49327 0.72798 0.0
C1375 C 0.89666 0.51845 0.728 0.0
C1376 C 0.24123 0.51843 0.12149 0.0
C1377 C 0.26199 0.53136 0.11771 0.0
C1378 C 0.24126 0.49383 0.12154 0.0
C1379 C 0.26205 0.48094 0.11781 0.0
H1380 H 0.22454 0.52733 0.12368 0.0
H1381 H 0.22459 0.4849 0.12376 0.0
S1382 S 0.32169 0.5062 0.10952 0.0
N1383 N 0.30436 0.52934 0.11204 0.0
N1384 N 0.30441 0.48304 0.11213 0.0
C1385 C 0.28323 0.49357 0.11542 0.0
C1386 C 0.2832 0.51876 0.11537 0.0
C1387 C 0.2412 0.51868 0.89171 0.0
C1388 C 0.26203 0.53157 0.89528 0.0
C1389 C 0.24116 0.49409 0.89171 0.0
C1390 C 0.26194 0.48114 0.89529 0.0
H1391 H 0.22452 0.52763 0.88963 0.0
H1392 H 0.22444 0.4852 0.88964 0.0
S1393 S 0.32172 0.50626 0.90306 0.0
N1394 N 0.30443 0.52944 0.90063 0.0
N1395 N 0.30435 0.48314 0.90064 0.0
C1396 C 0.28317 0.49373 0.8975 0.0
C1397 C 0.28322 0.51892 0.89749 0.0
C1398 C 0.49286 0.28192 0.89881 0.0
C1399 C 0.48004 0.26154 0.89302 0.0
C1400 C 0.51758 0.28189 0.89881 0.0
C1401 C 0.53036 0.26149 0.89304 0.0
H1402 H 0.48382 0.29764 0.90457 0.0
H1403 H 0.52666 0.2976 0.90458 0.0
S1404 S 0.50515 0.20497 0.87228 0.0
N1405 N 0.48204 0.22146 0.87825 0.0
N1406 N 0.52828 0.22141 0.87827 0.0
C1407 C 0.51772 0.24159 0.88553 0.0
C1408 C 0.49263 0.24162 0.88551 0.0
C1409 C 0.72953 0.5181 0.89871 0.0
C1410 C 0.74994 0.53088 0.89291 0.0
C1411 C 0.72948 0.4934 0.89865 0.0
C1412 C 0.74983 0.48057 0.89279 0.0
H1413 H 0.71384 0.52718 0.90452 0.0
H1414 H 0.71375 0.48435 0.90443 0.0
S1415 S 0.80641 0.50567 0.872 0.0
N1416 N 0.78999 0.5288 0.87806 0.0
N1417 N 0.7899 0.48257 0.87795 0.0
C1418 C 0.76976 0.49316 0.88526 0.0
C1419 C 0.76981 0.51825 0.88532 0.0
C1420 C 0.49348 0.73002 0.89943 0.0
C1421 C 0.48073 0.75038 0.89345 0.0
C1422 C 0.51819 0.72998 0.89951 0.0
C1423 C 0.53105 0.7503 0.8936 0.0
H1424 H 0.48436 0.71437 0.9053 0.0
H1425 H 0.52722 0.7143 0.90542 0.0
S1426 S 0.50607 0.80673 0.87236 0.0
N1427 N 0.48289 0.79034 0.87838 0.0
N1428 N 0.52914 0.79027 0.87853 0.0
C1429 C 0.5185 0.77018 0.88591 0.0
C1430 C 0.49341 0.77022 0.88582 0.0
C1431 C 0.72999 0.51801 0.11277 0.0
C1432 C 0.75042 0.53075 0.11852 0.0
C1433 C 0.72991 0.4933 0.11277 0.0
C1434 C 0.75027 0.48044 0.11851 0.0
H1435 H 0.71429 0.52712 0.10703 0.0
H1436 H 0.71416 0.48428 0.10702 0.0
S1437 S 0.80694 0.50544 0.13915 0.0
N1438 N 0.79052 0.5286 0.13321 0.0
N1439 N 0.79039 0.48236 0.13321 0.0
C1440 C 0.77024 0.493 0.126 0.0
C1441 C 0.77031 0.51808 0.126 0.0
C1442 C 0.51875 0.77021 0.12038 0.0
C1443 C 0.53169 0.74944 0.11668 0.0
C1444 C 0.49416 0.77017 0.12047 0.0
C1445 C 0.48126 0.74936 0.11685 0.0
H1446 H 0.52766 0.78691 0.12249 0.0
H1447 H 0.48522 0.78684 0.12264 0.0
S1448 S 0.50655 0.6897 0.10875 0.0
N1449 N 0.52968 0.70706 0.11117 0.0
N1450 N 0.48337 0.70698 0.11133 0.0
C1451 C 0.49391 0.72818 0.11452 0.0
C1452 C 0.5191 0.72822 0.11444 0.0
C1453 C 0.51822 0.28215 0.11217 0.0
C1454 C 0.53097 0.2617 0.11786 0.0
C1455 C 0.49351 0.28225 0.11229 0.0
C1456 C 0.48065 0.2619 0.1181 0.0
H1457 H 0.52734 0.29784 0.10639 0.0
H1458 H 0.48448 0.29801 0.10659 0.0
S1459 S 0.50567 0.20522 0.13862 0.0
N1460 N 0.52883 0.22161 0.13256 0.0
N1461 N 0.48259 0.22179 0.13279 0.0
C1462 C 0.49322 0.24193 0.12552 0.0
C1463 C 0.5183 0.24183 0.1254 0.0
C1464 C 0.61239 0.78146 0.0179 0.0
C1465 C 0.61825 0.76112 0.03074 0.0
C1466 C 0.61221 0.78137 0.99319 0.0
C1467 C 0.61788 0.76093 0.98042 0.0
H1468 H 0.60672 0.79722 0.02694 0.0
H1469 H 0.60642 0.79706 0.98411 0.0
S1470 S 0.63869 0.70443 1.00562 0.0
N1471 N 0.63292 0.721 0.02872 0.0
N1472 N 0.63257 0.72083 0.9825 0.0
C1473 C 0.62543 0.74104 0.99306 0.0
C1474 C 0.62562 0.74114 0.01814 0.0
C1475 C 0.26972 0.621 0.99408 0.0
C1476 C 0.24894 0.61736 0.98116 0.0
C1477 C 0.26971 0.62093 0.01867 0.0
C1478 C 0.24892 0.61722 0.03157 0.0
H1479 H 0.28641 0.62318 0.98518 0.0
H1480 H 0.28639 0.62307 0.02759 0.0
S1481 S 0.18923 0.60921 0.00632 0.0
N1482 N 0.20656 0.61179 0.98318 0.0
N1483 N 0.20654 0.61167 0.02948 0.0
C1484 C 0.22772 0.61494 0.01894 0.0
C1485 C 0.22774 0.61501 0.99376 0.0
C1486 C 0.39197 0.27097 0.01809 0.0
C1487 C 0.39528 0.25015 0.03103 0.0
C1488 C 0.39189 0.27093 0.9935 0.0
C1489 C 0.39511 0.25005 0.98062 0.0
H1490 H 0.39013 0.28771 0.02698 0.0
H1491 H 0.39 0.28763 0.98457 0.0
S1492 S 0.40219 0.19028 0.00591 0.0
N1493 N 0.40007 0.20768 0.02904 0.0
N1494 N 0.39992 0.20759 0.98274 0.0
C1495 C 0.3971 0.22884 0.99326 0.0
C1496 C 0.39718 0.22889 0.01845 0.0
C1497 C 0.74054 0.3925 0.01787 0.0
C1498 C 0.76146 0.39562 0.03072 0.0
C1499 C 0.74046 0.39247 0.99329 0.0
C1500 C 0.7613 0.39556 0.9803 0.0
H1501 H 0.72383 0.39076 0.02684 0.0
H1502 H 0.7237 0.39072 0.98443 0.0
S1503 S 0.82126 0.40215 1.00531 0.0
N1504 N 0.80396 0.4001 0.02851 0.0
N1505 N 0.80382 0.40005 0.98222 0.0
C1506 C 0.78259 0.39737 0.99284 0.0
C1507 C 0.78267 0.3974 0.01803 0.0
C1508 C 0.61113 0.23069 0.99292 0.0
C1509 C 0.61674 0.25113 0.98012 0.0
C1510 C 0.6112 0.23067 0.01763 0.0
C1511 C 0.61689 0.25108 0.03044 0.0
H1512 H 0.60549 0.21493 0.98386 0.0
H1513 H 0.60562 0.21489 0.0267 0.0
S1514 S 0.63707 0.30784 1.00528 0.0
N1515 N 0.63116 0.29134 0.98217 0.0
N1516 N 0.6313 0.29129 0.02839 0.0
C1517 C 0.62417 0.27108 0.01782 0.0
C1518 C 0.6241 0.2711 0.99274 0.0
C1519 C 0.74133 0.6191 0.0181 0.0
C1520 C 0.76222 0.61569 0.03092 0.0
C1521 C 0.74123 0.61915 0.99352 0.0
C1522 C 0.76201 0.61579 0.9805 0.0
H1523 H 0.72466 0.62105 0.02709 0.0
H1524 H 0.72448 0.62113 0.98468 0.0
S1525 S 0.82189 0.60836 1.00545 0.0
N1526 N 0.80465 0.61063 0.02867 0.0
N1527 N 0.80446 0.61072 0.98238 0.0
C1528 C 0.78329 0.61369 0.99303 0.0
C1529 C 0.78339 0.61364 0.01821 0.0
C1530 C 0.39175 0.74189 0.9936 0.0
C1531 C 0.39552 0.76268 0.98071 0.0
C1532 C 0.39169 0.74186 0.01818 0.0
C1533 C 0.3954 0.76262 0.03112 0.0
H1534 H 0.38955 0.72523 0.98465 0.0
H1535 H 0.38945 0.72518 0.02707 0.0
S1536 S 0.40379 0.8223 0.00599 0.0
N1537 N 0.40125 0.80502 0.98282 0.0
N1538 N 0.40114 0.80498 0.02912 0.0
C1539 C 0.39783 0.78383 0.01853 0.0
C1540 C 0.39789 0.78385 0.99335 0.0
C1541 C 0.26983 0.3917 0.01875 0.0
C1542 C 0.24902 0.39529 0.03167 0.0
C1543 C 0.26982 0.39169 0.99417 0.0
C1544 C 0.24902 0.39527 0.98126 0.0
H1545 H 0.28652 0.38961 0.02766 0.0
H1546 H 0.28652 0.3896 0.98525 0.0
S1547 S 0.18929 0.40308 0.00649 0.0
N1548 N 0.20662 0.40065 0.02963 0.0
N1549 N 0.20661 0.40064 0.98334 0.0
C1550 C 0.22781 0.3975 0.99388 0.0
C1551 C 0.22781 0.3975 0.01907 0.0
C1552 C 0.01836 0.62019 0.74105 0.0
C1553 C 0.03133 0.61654 0.7618 0.0
C1554 C 0.99377 0.62027 0.74114 0.0
C1555 C 0.9809 0.61669 0.76198 0.0
H1556 H 0.02724 0.62228 0.72434 0.0
H1557 H 0.9848 0.62241 0.72448 0.0
S1558 S 0.00629 0.60866 0.82158 0.0
N1559 N 0.02939 0.61108 0.80418 0.0
N1560 N 0.98309 0.61121 0.80435 0.0
C1561 C 0.99358 0.61438 0.78313 0.0
C1562 C 0.01878 0.61431 0.78304 0.0
C1563 C 0.39889 0.9941 0.78185 0.0
C1564 C 0.39287 0.98124 0.76157 0.0
C1565 C 0.39896 0.01881 0.78176 0.0
C1566 C 0.39301 0.03155 0.7614 0.0
H1567 H 0.40482 0.98507 0.79753 0.0
H1568 H 0.40492 0.02792 0.79738 0.0
S1569 S 0.37156 0.00626 0.70518 0.0
N1570 N 0.37766 0.98318 0.72166 0.0
N1571 N 0.37779 0.02942 0.7215 0.0
C1572 C 0.38524 0.01889 0.74161 0.0
C1573 C 0.38517 0.99381 0.7417 0.0
C1574 C 0.01814 0.3923 0.74092 0.0
C1575 C 0.03103 0.39569 0.76176 0.0
C1576 C 0.99354 0.39209 0.74093 0.0
C1577 C 0.9806 0.39529 0.76178 0.0
H1578 H 0.02707 0.39048 0.7242 0.0
H1579 H 0.98464 0.39015 0.72422 0.0
S1580 S 1.00578 0.40253 0.82158 0.0
N1581 N 0.02895 0.4005 0.80422 0.0
N1582 N 0.98264 0.40013 0.80424 0.0
C1583 C 0.99321 0.39735 0.78301 0.0
C1584 C 0.0184 0.39756 0.78299 0.0
C1585 C 0.61219 0.99405 0.78219 0.0
C1586 C 0.61823 0.98111 0.76197 0.0
C1587 C 0.61199 0.01876 0.78197 0.0
C1588 C 0.61781 0.03142 0.76152 0.0
H1589 H 0.60638 0.98508 0.79795 0.0
H1590 H 0.60605 0.02791 0.79757 0.0
S1591 S 0.63915 0.00595 0.70534 0.0
N1592 N 0.63326 0.98292 0.72198 0.0
N1593 N 0.63287 0.02916 0.72156 0.0
C1594 C 0.62556 0.0187 0.74177 0.0
C1595 C 0.62578 0.99361 0.742 0.0
C1596 C 0.99293 0.39175 0.2712 0.0
C1597 C 0.98014 0.39487 0.25025 0.0
C1598 C 0.01753 0.39193 0.27136 0.0
C1599 C 0.03057 0.39523 0.25059 0.0
H1600 H 0.98392 0.38989 0.28786 0.0
H1601 H 0.02634 0.3902 0.28815 0.0
S1602 S 1.00572 0.40178 0.19058 0.0
N1603 N 0.98247 0.39949 0.20778 0.0
N1604 N 0.02877 0.39982 0.2081 0.0
C1605 C 0.01808 0.39699 0.22927 0.0
C1606 C 0.99289 0.39681 0.2291 0.0
C1607 C 0.61298 0.01878 0.22901 0.0
C1608 C 0.61916 0.03152 0.24931 0.0
C1609 C 0.61303 0.99407 0.22891 0.0
C1610 C 0.61927 0.9812 0.24912 0.0
H1611 H 0.60685 0.02788 0.21345 0.0
H1612 H 0.60695 0.98505 0.21329 0.0
S1613 S 0.64119 0.0062 0.30528 0.0
N1614 N 0.6348 0.02936 0.28904 0.0
N1615 N 0.6349 0.98312 0.28887 0.0
C1616 C 0.62719 0.99376 0.26891 0.0
C1617 C 0.62714 0.01885 0.269 0.0
C1618 C 0.01776 0.61199 0.2308 0.0
C1619 C 0.03053 0.61773 0.25121 0.0
C1620 C 0.99304 0.61204 0.23074 0.0
C1621 C 0.9802 0.61784 0.2511 0.0
H1622 H 0.02685 0.60625 0.21508 0.0
H1623 H 0.98401 0.60633 0.21499 0.0
S1624 S 1.00529 0.63842 0.30773 0.0
N1625 N 0.02843 0.63241 0.29131 0.0
N1626 N 0.98219 0.63253 0.29121 0.0
C1627 C 0.99279 0.62527 0.27106 0.0
C1628 C 0.01788 0.62521 0.27111 0.0
C1629 C 0.39137 0.01878 0.27029 0.0
C1630 C 0.39501 0.03176 0.24954 0.0
C1631 C 0.39141 0.99419 0.27021 0.0
C1632 C 0.39508 0.98135 0.24939 0.0
H1633 H 0.38922 0.02765 0.287 0.0
H1634 H 0.38929 0.98522 0.28687 0.0
S1635 S 0.40307 0.00675 0.18978 0.0
N1636 N 0.40053 0.02984 0.20716 0.0
N1637 N 0.4006 0.98354 0.20702 0.0
C1638 C 0.39735 0.99403 0.22823 0.0
C1639 C 0.39731 0.01922 0.22831 0.0
C1640 C 0.7406 0.018 0.61985 0.0
C1641 C 0.76141 0.03097 0.61649 0.0
C1642 C 0.74068 0.99341 0.61994 0.0
C1643 C 0.76157 0.98055 0.61667 0.0
H1644 H 0.72385 0.02687 0.6217 0.0
H1645 H 0.72399 0.98444 0.62185 0.0
S1646 S 0.82131 0.00593 0.60949 0.0
N1647 N 0.80388 0.02903 0.61164 0.0
N1648 N 0.80403 0.98273 0.6118 0.0
C1649 C 0.78276 0.99323 0.61465 0.0
C1650 C 0.78268 0.01841 0.61457 0.0
C1651 C 0.78167 0.01797 0.39987 0.0
C1652 C 0.76129 0.03077 0.39407 0.0
C1653 C 0.7817 0.99326 0.39976 0.0
C1654 C 0.76135 0.98045 0.39386 0.0
H1655 H 0.79737 0.02703 0.40569 0.0
H1656 H 0.79741 0.98419 0.40552 0.0
S1657 S 0.70481 1.00563 0.37309 0.0
N1658 N 0.72124 0.02875 0.37921 0.0
N1659 N 0.72129 0.98251 0.37901 0.0
C1660 C 0.74143 0.99308 0.38637 0.0
C1661 C 0.7414 0.01816 0.38648 0.0
C1662 C 0.99346 0.78225 0.39816 0.0
C1663 C 0.98068 0.76188 0.39228 0.0
C1664 C 0.01817 0.78227 0.39822 0.0
C1665 C 0.03099 0.76191 0.39239 0.0
H1666 H 0.98437 0.79793 0.40401 0.0
H1667 H 0.02721 0.79796 0.4041 0.0
S1668 S 0.00592 0.70546 0.37129 0.0
N1669 N 0.98277 0.72188 0.3773 0.0
N1670 N 0.02902 0.72191 0.3774 0.0
C1671 C 0.01841 0.74203 0.38473 0.0
C1672 C 0.99332 0.74202 0.38467 0.0
C1673 C 0.22902 0.01846 0.39857 0.0
C1674 C 0.24928 0.03133 0.39251 0.0
C1675 C 0.22908 0.99375 0.39848 0.0
C1676 C 0.24941 0.98103 0.39232 0.0
H1677 H 0.21338 0.02745 0.40465 0.0
H1678 H 0.21349 0.98462 0.40449 0.0
S1679 S 0.30554 0.00641 0.37071 0.0
N1680 N 0.28911 0.02947 0.37705 0.0
N1681 N 0.28923 0.98322 0.37687 0.0
C1682 C 0.26916 0.99372 0.3845 0.0
C1683 C 0.2691 0.0188 0.3846 0.0
C1684 C 0.0179 0.23053 0.40045 0.0
C1685 C 0.03063 0.25104 0.39494 0.0
C1686 C 0.99318 0.23042 0.40041 0.0
C1687 C 0.98029 0.25081 0.39486 0.0
H1688 H 0.02702 0.21476 0.40597 0.0
H1689 H 0.98418 0.21457 0.4059 0.0
S1690 S 1.00525 0.30779 0.37502 0.0
N1691 N 0.02843 0.29134 0.38079 0.0
N1692 N 0.98219 0.29113 0.38072 0.0
C1693 C 0.99284 0.27091 0.3877 0.0
C1694 C 0.01793 0.27102 0.38774 0.0
C1695 C 0.22976 0.01862 0.61276 0.0
C1696 C 0.25004 0.03147 0.6188 0.0
C1697 C 0.22983 0.99391 0.61273 0.0
C1698 C 0.25018 0.98116 0.61874 0.0
H1699 H 0.2141 0.02765 0.60678 0.0
H1700 H 0.21422 0.98481 0.60672 0.0
S1701 S 0.30637 0.00645 0.64029 0.0
N1702 N 0.28992 0.02953 0.63412 0.0
N1703 N 0.29005 0.98329 0.63406 0.0
C1704 C 0.26995 0.99382 0.62655 0.0
C1705 C 0.26988 0.0189 0.62658 0.0
C1706 C 0.99328 0.27073 0.61912 0.0
C1707 C 0.9804 0.24984 0.61593 0.0
C1708 C 0.01787 0.27076 0.61923 0.0
C1709 C 0.03083 0.24991 0.61615 0.0
H1710 H 0.98434 0.28745 0.62086 0.0
H1711 H 0.02676 0.28751 0.62103 0.0
S1712 S 1.00571 0.19002 0.60939 0.0
N1713 N 0.98253 0.20735 0.61139 0.0
N1714 N 0.02884 0.20741 0.61158 0.0
C1715 C 0.01824 0.22865 0.61427 0.0
C1716 C 0.99305 0.22862 0.61416 0.0
C1717 C 0.01856 0.78289 0.61338 0.0
C1718 C 0.03135 0.76258 0.61943 0.0
C1719 C 0.99384 0.7829 0.61338 0.0
C1720 C 0.98104 0.76259 0.61942 0.0
H1721 H 0.02763 0.79851 0.60736 0.0
H1722 H 0.98478 0.79852 0.60736 0.0
S1723 S 0.00617 0.70635 0.64099 0.0
N1724 N 0.0293 0.72272 0.63479 0.0
N1725 N 0.98305 0.72273 0.63478 0.0
C1726 C 0.99364 0.74279 0.62726 0.0
C1727 C 0.01873 0.74279 0.62726 0.0
loop_
_geom_bond_atom_site_label_1
_geom_bond_atom_site_label_2
_geom_bond_distance
_geom_bond_site_symmetry_2
_ccdc_geom_bond_type
O0 Cd1 2.223 . S
O0 C8 1.315 . S
Cd1 O0 2.223 . S
Cd1 O4 2.297 . S
Cd1 O5 2.439 . S
Cd1 O11 2.240 . S
Cd2 O3 2.240 . S
Cd2 O10 2.223 . S
Cd2 O12 2.297 . S
Cd2 O13 2.439 . S
O3 Cd2 2.240 . S
O3 C8 1.279 . S
O4 Cd1 2.297 . S
O4 C6 1.247 . S
O5 Cd1 2.439 . S
O5 C6 1.208 . S
C6 O4 1.247 . S
C6 O5 1.208 . S
C7 O12 1.247 . S
C7 O13 1.208 . S
C8 O0 1.315 . S
C8 O3 1.279 . S
C9 O10 1.315 . S
C9 O11 1.279 . S
O10 Cd2 2.223 . S
O10 C9 1.315 . S
O11 Cd1 2.240 . S
O11 C9 1.279 . S
O12 Cd2 2.297 . S
O12 C7 1.247 . S
O13 Cd2 2.439 . S
O13 C7 1.208 . S
O14 Cd15 2.223 . S
O14 C22 1.315 . S
Cd15 O14 2.223 . S
Cd15 O18 2.297 . S
Cd15 O19 2.439 . S
Cd15 O25 2.240 . S
Cd16 O17 2.240 . S
Cd16 O24 2.223 . S
Cd16 O26 2.297 . S
Cd16 O27 2.439 . S
O17 Cd16 2.240 . S
O17 C22 1.279 . S
O18 Cd15 2.297 . S
O18 C20 1.247 . S
O19 Cd15 2.439 . S
O19 C20 1.208 . S
C20 O18 1.247 . S
C20 O19 1.208 . S
C21 O26 1.247 . S
C21 O27 1.208 . S
C22 O14 1.315 . S
C22 O17 1.279 . S
C23 O24 1.315 . S
C23 O25 1.279 . S
O24 Cd16 2.223 . S
O24 C23 1.315 . S
O25 Cd15 2.240 . S
O25 C23 1.279 . S
O26 Cd16 2.297 . S
O26 C21 1.247 . S
O27 Cd16 2.439 . S
O27 C21 1.208 . S
O28 Cd29 2.223 . S
O28 C36 1.315 . S
Cd29 O28 2.223 . S
Cd29 O32 2.297 . S
Cd29 O33 2.439 . S
Cd29 O39 2.240 . S
Cd30 O31 2.240 . S
Cd30 O38 2.223 . S
Cd30 O40 2.297 . S
Cd30 O41 2.439 . S
O31 Cd30 2.240 . S
O31 C36 1.279 . S
O32 Cd29 2.297 . S
O32 C34 1.247 . S
O33 Cd29 2.439 . S
O33 C34 1.208 . S
C34 O32 1.247 . S
C34 O33 1.208 . S
C35 O40 1.247 . S
C35 O41 1.208 . S
C36 O28 1.315 . S
C36 O31 1.279 . S
C37 O38 1.315 . S
C37 O39 1.279 . S
O38 Cd30 2.223 . S
O38 C37 1.315 . S
O39 Cd29 2.240 . S
O39 C37 1.279 . S
O40 Cd30 2.297 . S
O40 C35 1.247 . S
O41 Cd30 2.439 . S
O41 C35 1.208 . S
O42 Cd43 2.223 . S
O42 C50 1.315 . S
Cd43 O42 2.223 . S
Cd43 O46 2.297 . S
Cd43 O47 2.439 . S
Cd43 O53 2.240 . S
Cd44 O45 2.240 . S
Cd44 O52 2.223 . S
Cd44 O54 2.297 . S
Cd44 O55 2.439 . S
O45 Cd44 2.240 . S
O45 C50 1.279 . S
O46 Cd43 2.297 . S
O46 C48 1.247 . S
O47 Cd43 2.439 . S
O47 C48 1.208 . S
C48 O46 1.247 . S
C48 O47 1.208 . S
C49 O54 1.247 . S
C49 O55 1.208 . S
C50 O42 1.315 . S
C50 O45 1.279 . S
C51 O52 1.315 . S
C51 O53 1.279 . S
O52 Cd44 2.223 . S
O52 C51 1.315 . S
O53 Cd43 2.240 . S
O53 C51 1.279 . S
O54 Cd44 2.297 . S
O54 C49 1.247 . S
O55 Cd44 2.439 . S
O55 C49 1.208 . S
O56 Cd57 2.223 . S
O56 C64 1.315 . S
Cd57 O56 2.223 . S
Cd57 O60 2.297 . S
Cd57 O61 2.439 . S
Cd57 O67 2.240 . S
Cd58 O59 2.240 . S
Cd58 O66 2.223 . S
Cd58 O68 2.297 . S
Cd58 O69 2.439 . S
O59 Cd58 2.240 . S
O59 C64 1.279 . S
O60 Cd57 2.297 . S
O60 C62 1.247 . S
O61 Cd57 2.439 . S
O61 C62 1.208 . S
C62 O60 1.247 . S
C62 O61 1.208 . S
C63 O68 1.247 . S
C63 O69 1.208 . S
C64 O56 1.315 . S
C64 O59 1.279 . S
C65 O66 1.315 . S
C65 O67 1.279 . S
O66 Cd58 2.223 . S
O66 C65 1.315 . S
O67 Cd57 2.240 . S
O67 C65 1.279 . S
O68 Cd58 2.297 . S
O68 C63 1.247 . S
O69 Cd58 2.439 . S
O69 C63 1.208 . S
O70 Cd71 2.223 . S
O70 C78 1.315 . S
Cd71 O70 2.223 . S
Cd71 O74 2.297 . S
Cd71 O75 2.439 . S
Cd71 O81 2.240 . S
Cd72 O73 2.240 . S
Cd72 O80 2.223 . S
Cd72 O82 2.297 . S
Cd72 O83 2.439 . S
O73 Cd72 2.240 . S
O73 C78 1.279 . S
O74 Cd71 2.297 . S
O74 C76 1.247 . S
O75 Cd71 2.439 . S
O75 C76 1.208 . S
C76 O74 1.247 . S
C76 O75 1.208 . S
C77 O82 1.247 . S
C77 O83 1.208 . S
C78 O70 1.315 . S
C78 O73 1.279 . S
C79 O80 1.315 . S
C79 O81 1.279 . S
O80 Cd72 2.223 . S
O80 C79 1.315 . S
O81 Cd71 2.240 . S
O81 C79 1.279 . S
O82 Cd72 2.297 . S
O82 C77 1.247 . S
O83 Cd72 2.439 . S
O83 C77 1.208 . S
O84 Cd85 2.223 . S
O84 C92 1.315 . S
Cd85 O84 2.223 . S
Cd85 O88 2.297 . S
Cd85 O89 2.439 . S
Cd85 O95 2.240 . S
Cd86 O87 2.240 . S
Cd86 O94 2.223 . S
Cd86 O96 2.297 . S
Cd86 O97 2.439 . S
O87 Cd86 2.240 . S
O87 C92 1.279 . S
O88 Cd85 2.297 . S
O88 C90 1.247 . S
O89 Cd85 2.439 . S
O89 C90 1.208 . S
C90 O88 1.247 . S
C90 O89 1.208 . S
C91 O96 1.247 . S
C91 O97 1.208 . S
C92 O84 1.315 . S
C92 O87 1.279 . S
C93 O94 1.315 . S
C93 O95 1.279 . S
O94 Cd86 2.223 . S
O94 C93 1.315 . S
O95 Cd85 2.240 . S
O95 C93 1.279 . S
O96 Cd86 2.297 . S
O96 C91 1.247 . S
O97 Cd86 2.439 . S
O97 C91 1.208 . S
O98 Cd99 2.223 . S
O98 C106 1.315 . S
Cd99 O98 2.223 . S
Cd99 O102 2.297 . S
Cd99 O103 2.439 . S
Cd99 O109 2.240 . S
Cd100 O101 2.240 . S
Cd100 O108 2.223 . S
Cd100 O110 2.297 . S
Cd100 O111 2.439 . S
O101 Cd100 2.240 . S
O101 C106 1.279 . S
O102 Cd99 2.297 . S
O102 C104 1.247 . S
O103 Cd99 2.439 . S
O103 C104 1.208 . S
C104 O102 1.247 . S
C104 O103 1.208 . S
C105 O110 1.247 . S
C105 O111 1.208 . S
C106 O98 1.315 . S
C106 O101 1.279 . S
C107 O108 1.315 . S
C107 O109 1.279 . S
O108 Cd100 2.223 . S
O108 C107 1.315 . S
O109 Cd99 2.240 . S
O109 C107 1.279 . S
O110 Cd100 2.297 . S
O110 C105 1.247 . S
O111 Cd100 2.439 . S
O111 C105 1.208 . S
O112 Cd113 2.223 . S
O112 C120 1.315 . S
Cd113 O112 2.223 . S
Cd113 O116 2.297 . S
Cd113 O117 2.439 . S
Cd113 O123 2.240 . S
Cd114 O115 2.240 . S
Cd114 O122 2.223 . S
Cd114 O124 2.297 . S
Cd114 O125 2.439 . S
O115 Cd114 2.240 . S
O115 C120 1.279 . S
O116 Cd113 2.297 . S
O116 C118 1.247 . S
O117 Cd113 2.439 . S
O117 C118 1.208 . S
C118 O116 1.247 . S
C118 O117 1.208 . S
C119 O124 1.247 . S
C119 O125 1.208 . S
C120 O112 1.315 . S
C120 O115 1.279 . S
C121 O122 1.315 . S
C121 O123 1.279 . S
O122 Cd114 2.223 . S
O122 C121 1.315 . S
O123 Cd113 2.240 . S
O123 C121 1.279 . S
O124 Cd114 2.297 . S
O124 C119 1.247 . S
O125 Cd114 2.439 . S
O125 C119 1.208 . S
O126 Cd127 2.223 . S
O126 C134 1.315 . S
Cd127 O126 2.223 . S
Cd127 O130 2.297 . S
Cd127 O131 2.439 . S
Cd127 O137 2.240 . S
Cd128 O129 2.240 . S
Cd128 O136 2.223 . S
Cd128 O138 2.297 . S
Cd128 O139 2.439 . S
O129 Cd128 2.240 . S
O129 C134 1.279 . S
O130 Cd127 2.297 . S
O130 C132 1.247 . S
O131 Cd127 2.439 . S
O131 C132 1.208 . S
C132 O130 1.247 . S
C132 O131 1.208 . S
C133 O138 1.247 . S
C133 O139 1.208 . S
C134 O126 1.315 . S
C134 O129 1.279 . S
C135 O136 1.315 . S
C135 O137 1.279 . S
O136 Cd128 2.223 . S
O136 C135 1.315 . S
O137 Cd127 2.240 . S
O137 C135 1.279 . S
O138 Cd128 2.297 . S
O138 C133 1.247 . S
O139 Cd128 2.439 . S
O139 C133 1.208 . S
O140 Cd141 2.223 . S
O140 C148 1.315 . S
Cd141 O140 2.223 . S
Cd141 O144 2.297 . S
Cd141 O145 2.439 . S
Cd141 O151 2.240 . S
Cd142 O143 2.240 . S
Cd142 O150 2.223 . S
Cd142 O152 2.297 . S
Cd142 O153 2.439 . S
O143 Cd142 2.240 . S
O143 C148 1.279 . S
O144 Cd141 2.297 . S
O144 C146 1.247 . S
O145 Cd141 2.439 . S
O145 C146 1.208 . S
C146 O144 1.247 . S
C146 O145 1.208 . S
C147 O152 1.247 . S
C147 O153 1.208 . S
C148 O140 1.315 . S
C148 O143 1.279 . S
C149 O150 1.315 . S
C149 O151 1.279 . S
O150 Cd142 2.223 . S
O150 C149 1.315 . S
O151 Cd141 2.240 . S
O151 C149 1.279 . S
O152 Cd142 2.297 . S
O152 C147 1.247 . S
O153 Cd142 2.439 . S
O153 C147 1.208 . S
O154 Cd155 2.223 . S
O154 C162 1.315 . S
Cd155 O154 2.223 . S
Cd155 O158 2.297 . S
Cd155 O159 2.439 . S
Cd155 O165 2.240 . S
Cd156 O157 2.240 . S
Cd156 O164 2.223 . S
Cd156 O166 2.297 . S
Cd156 O167 2.439 . S
O157 Cd156 2.240 . S
O157 C162 1.279 . S
O158 Cd155 2.297 . S
O158 C160 1.247 . S
O159 Cd155 2.439 . S
O159 C160 1.208 . S
C160 O158 1.247 . S
C160 O159 1.208 . S
C161 O166 1.247 . S
C161 O167 1.208 . S
C162 O154 1.315 . S
C162 O157 1.279 . S
C163 O164 1.315 . S
C163 O165 1.279 . S
O164 Cd156 2.223 . S
O164 C163 1.315 . S
O165 Cd155 2.240 . S
O165 C163 1.279 . S
O166 Cd156 2.297 . S
O166 C161 1.247 . S
O167 Cd156 2.439 . S
O167 C161 1.208 . S
O168 Cd169 2.223 . S
O168 C176 1.315 . S
Cd169 O168 2.223 . S
Cd169 O172 2.297 . S
Cd169 O173 2.439 . S
Cd169 O179 2.240 . S
Cd170 O171 2.240 . S
Cd170 O178 2.223 . S
Cd170 O180 2.297 . S
Cd170 O181 2.439 . S
O171 Cd170 2.240 . S
O171 C176 1.279 . S
O172 Cd169 2.297 . S
O172 C174 1.247 . S
O173 Cd169 2.439 . S
O173 C174 1.208 . S
C174 O172 1.247 . S
C174 O173 1.208 . S
C175 O180 1.247 . S
C175 O181 1.208 . S
C176 O168 1.315 . S
C176 O171 1.279 . S
C177 O178 1.315 . S
C177 O179 1.279 . S
O178 Cd170 2.223 . S
O178 C177 1.315 . S
O179 Cd169 2.240 . S
O179 C177 1.279 . S
O180 Cd170 2.297 . S
O180 C175 1.247 . S
O181 Cd170 2.439 . S
O181 C175 1.208 . S
O182 Cd183 2.223 . S
O182 C190 1.315 . S
Cd183 O182 2.223 . S
Cd183 O186 2.297 . S
Cd183 O187 2.439 . S
Cd183 O193 2.240 . S
Cd184 O185 2.240 . S
Cd184 O192 2.223 . S
Cd184 O194 2.297 . S
Cd184 O195 2.439 . S
O185 Cd184 2.240 . S
O185 C190 1.279 . S
O186 Cd183 2.297 . S
O186 C188 1.247 . S
O187 Cd183 2.439 . S
O187 C188 1.208 . S
C188 O186 1.247 . S
C188 O187 1.208 . S
C189 O194 1.247 . S
C189 O195 1.208 . S
C190 O182 1.315 . S
C190 O185 1.279 . S
C191 O192 1.315 . S
C191 O193 1.279 . S
O192 Cd184 2.223 . S
O192 C191 1.315 . S
O193 Cd183 2.240 . S
O193 C191 1.279 . S
O194 Cd184 2.297 . S
O194 C189 1.247 . S
O195 Cd184 2.439 . S
O195 C189 1.208 . S
O196 Cd197 2.223 . S
O196 C204 1.315 . S
Cd197 O196 2.223 . S
Cd197 O200 2.297 . S
Cd197 O201 2.439 . S
Cd197 O207 2.240 . S
Cd198 O199 2.240 . S
Cd198 O206 2.223 . S
Cd198 O208 2.297 . S
Cd198 O209 2.439 . S
O199 Cd198 2.240 . S
O199 C204 1.279 . S
O200 Cd197 2.297 . S
O200 C202 1.247 . S
O201 Cd197 2.439 . S
O201 C202 1.208 . S
C202 O200 1.247 . S
C202 O201 1.208 . S
C203 O208 1.247 . S
C203 O209 1.208 . S
C204 O196 1.315 . S
C204 O199 1.279 . S
C205 O206 1.315 . S
C205 O207 1.279 . S
O206 Cd198 2.223 . S
O206 C205 1.315 . S
O207 Cd197 2.240 . S
O207 C205 1.279 . S
O208 Cd198 2.297 . S
O208 C203 1.247 . S
O209 Cd198 2.439 . S
O209 C203 1.208 . S
O210 Cd211 2.223 . S
O210 C218 1.315 . S
Cd211 O210 2.223 . S
Cd211 O214 2.297 . S
Cd211 O215 2.439 . S
Cd211 O221 2.240 . S
Cd212 O213 2.240 . S
Cd212 O220 2.223 . S
Cd212 O222 2.297 . S
Cd212 O223 2.439 . S
O213 Cd212 2.240 . S
O213 C218 1.279 . S
O214 Cd211 2.297 . S
O214 C216 1.247 . S
O215 Cd211 2.439 . S
O215 C216 1.208 . S
C216 O214 1.247 . S
C216 O215 1.208 . S
C217 O222 1.247 . S
C217 O223 1.208 . S
C218 O210 1.315 . S
C218 O213 1.279 . S
C219 O220 1.315 . S
C219 O221 1.279 . S
O220 Cd212 2.223 . S
O220 C219 1.315 . S
O221 Cd211 2.240 . S
O221 C219 1.279 . S
O222 Cd212 2.297 . S
O222 C217 1.247 . S
O223 Cd212 2.439 . S
O223 C217 1.208 . S
O224 Cd225 2.223 . S
O224 C232 1.315 . S
Cd225 O224 2.223 . S
Cd225 O228 2.297 . S
Cd225 O229 2.439 . S
Cd225 O235 2.240 . S
Cd226 O227 2.240 . S
Cd226 O234 2.223 . S
Cd226 O236 2.297 . S
Cd226 O237 2.439 . S
O227 Cd226 2.240 . S
O227 C232 1.279 . S
O228 Cd225 2.297 . S
O228 C230 1.247 . S
O229 Cd225 2.439 . S
O229 C230 1.208 . S
C230 O228 1.247 . S
C230 O229 1.208 . S
C231 O236 1.247 . S
C231 O237 1.208 . S
C232 O224 1.315 . S
C232 O227 1.279 . S
C233 O234 1.315 . S
C233 O235 1.279 . S
O234 Cd226 2.223 . S
O234 C233 1.315 . S
O235 Cd225 2.240 . S
O235 C233 1.279 . S
O236 Cd226 2.297 . S
O236 C231 1.247 . S
O237 Cd226 2.439 . S
O237 C231 1.208 . S
O238 Cd239 2.223 . S
O238 C246 1.315 . S
Cd239 O238 2.223 . S
Cd239 O242 2.297 . S
Cd239 O243 2.439 . S
Cd239 O249 2.240 . S
Cd240 O241 2.240 . S
Cd240 O248 2.223 . S
Cd240 O250 2.297 . S
Cd240 O251 2.439 . S
O241 Cd240 2.240 . S
O241 C246 1.279 . S
O242 Cd239 2.297 . S
O242 C244 1.247 . S
O243 Cd239 2.439 . S
O243 C244 1.208 . S
C244 O242 1.247 . S
C244 O243 1.208 . S
C245 O250 1.247 . S
C245 O251 1.208 . S
C246 O238 1.315 . S
C246 O241 1.279 . S
C247 O248 1.315 . S
C247 O249 1.279 . S
O248 Cd240 2.223 . S
O248 C247 1.315 . S
O249 Cd239 2.240 . S
O249 C247 1.279 . S
O250 Cd240 2.297 . S
O250 C245 1.247 . S
O251 Cd240 2.439 . S
O251 C245 1.208 . S
O252 Cd253 2.223 . S
O252 C260 1.315 . S
Cd253 O252 2.223 . S
Cd253 O256 2.297 . S
Cd253 O257 2.439 . S
Cd253 O263 2.240 . S
Cd254 O255 2.240 . S
Cd254 O262 2.223 . S
Cd254 O264 2.297 . S
Cd254 O265 2.439 . S
O255 Cd254 2.240 . S
O255 C260 1.279 . S
O256 Cd253 2.297 . S
O256 C258 1.247 . S
O257 Cd253 2.439 . S
O257 C258 1.208 . S
C258 O256 1.247 . S
C258 O257 1.208 . S
C259 O264 1.247 . S
C259 O265 1.208 . S
C260 O252 1.315 . S
C260 O255 1.279 . S
C261 O262 1.315 . S
C261 O263 1.279 . S
O262 Cd254 2.223 . S
O262 C261 1.315 . S
O263 Cd253 2.240 . S
O263 C261 1.279 . S
O264 Cd254 2.297 . S
O264 C259 1.247 . S
O265 Cd254 2.439 . S
O265 C259 1.208 . S
O266 Cd267 2.223 . S
O266 C274 1.315 . S
Cd267 O266 2.223 . S
Cd267 O270 2.297 . S
Cd267 O271 2.439 . S
Cd267 O277 2.240 . S
Cd268 O269 2.240 . S
Cd268 O276 2.223 . S
Cd268 O278 2.297 . S
Cd268 O279 2.439 . S
O269 Cd268 2.240 . S
O269 C274 1.279 . S
O270 Cd267 2.297 . S
O270 C272 1.247 . S
O271 Cd267 2.439 . S
O271 C272 1.208 . S
C272 O270 1.247 . S
C272 O271 1.208 . S
C273 O278 1.247 . S
C273 O279 1.208 . S
C274 O266 1.315 . S
C274 O269 1.279 . S
C275 O276 1.315 . S
C275 O277 1.279 . S
O276 Cd268 2.223 . S
O276 C275 1.315 . S
O277 Cd267 2.240 . S
O277 C275 1.279 . S
O278 Cd268 2.297 . S
O278 C273 1.247 . S
O279 Cd268 2.439 . S
O279 C273 1.208 . S
O280 Cd281 2.223 . S
O280 C288 1.315 . S
Cd281 O280 2.223 . S
Cd281 O284 2.297 . S
Cd281 O285 2.439 . S
Cd281 O291 2.240 . S
Cd282 O283 2.240 . S
Cd282 O290 2.223 . S
Cd282 O292 2.297 . S
Cd282 O293 2.439 . S
O283 Cd282 2.240 . S
O283 C288 1.279 . S
O284 Cd281 2.297 . S
O284 C286 1.247 . S
O285 Cd281 2.439 . S
O285 C286 1.208 . S
C286 O284 1.247 . S
C286 O285 1.208 . S
C287 O292 1.247 . S
C287 O293 1.208 . S
C288 O280 1.315 . S
C288 O283 1.279 . S
C289 O290 1.315 . S
C289 O291 1.279 . S
O290 Cd282 2.223 . S
O290 C289 1.315 . S
O291 Cd281 2.240 . S
O291 C289 1.279 . S
O292 Cd282 2.297 . S
O292 C287 1.247 . S
O293 Cd282 2.439 . S
O293 C287 1.208 . S
O294 Cd295 2.223 . S
O294 C302 1.315 . S
Cd295 O294 2.223 . S
Cd295 O298 2.297 . S
Cd295 O299 2.439 . S
Cd295 O305 2.240 . S
Cd296 O297 2.240 . S
Cd296 O304 2.223 . S
Cd296 O306 2.297 . S
Cd296 O307 2.439 . S
O297 Cd296 2.240 . S
O297 C302 1.279 . S
O298 Cd295 2.297 . S
O298 C300 1.247 . S
O299 Cd295 2.439 . S
O299 C300 1.208 . S
C300 O298 1.247 . S
C300 O299 1.208 . S
C301 O306 1.247 . S
C301 O307 1.208 . S
C302 O294 1.315 . S
C302 O297 1.279 . S
C303 O304 1.315 . S
C303 O305 1.279 . S
O304 Cd296 2.223 . S
O304 C303 1.315 . S
O305 Cd295 2.240 . S
O305 C303 1.279 . S
O306 Cd296 2.297 . S
O306 C301 1.247 . S
O307 Cd296 2.439 . S
O307 C301 1.208 . S
O308 Cd309 2.223 . S
O308 C316 1.315 . S
Cd309 O308 2.223 . S
Cd309 O312 2.297 . S
Cd309 O313 2.439 . S
Cd309 O319 2.240 . S
Cd310 O311 2.240 . S
Cd310 O318 2.223 . S
Cd310 O320 2.297 . S
Cd310 O321 2.439 . S
O311 Cd310 2.240 . S
O311 C316 1.279 . S
O312 Cd309 2.297 . S
O312 C314 1.247 . S
O313 Cd309 2.439 . S
O313 C314 1.208 . S
C314 O312 1.247 . S
C314 O313 1.208 . S
C315 O320 1.247 . S
C315 O321 1.208 . S
C316 O308 1.315 . S
C316 O311 1.279 . S
C317 O318 1.315 . S
C317 O319 1.279 . S
O318 Cd310 2.223 . S
O318 C317 1.315 . S
O319 Cd309 2.240 . S
O319 C317 1.279 . S
O320 Cd310 2.297 . S
O320 C315 1.247 . S
O321 Cd310 2.439 . S
O321 C315 1.208 . S
O322 Cd323 2.223 . S
O322 C330 1.315 . S
Cd323 O322 2.223 . S
Cd323 O326 2.297 . S
Cd323 O327 2.439 . S
Cd323 O333 2.240 . S
Cd324 O325 2.240 . S
Cd324 O332 2.223 . S
Cd324 O334 2.297 . S
Cd324 O335 2.439 . S
O325 Cd324 2.240 . S
O325 C330 1.279 . S
O326 Cd323 2.297 . S
O326 C328 1.247 . S
O327 Cd323 2.439 . S
O327 C328 1.208 . S
C328 O326 1.247 . S
C328 O327 1.208 . S
C329 O334 1.247 . S
C329 O335 1.208 . S
C330 O322 1.315 . S
C330 O325 1.279 . S
C331 O332 1.315 . S
C331 O333 1.279 . S
O332 Cd324 2.223 . S
O332 C331 1.315 . S
O333 Cd323 2.240 . S
O333 C331 1.279 . S
O334 Cd324 2.297 . S
O334 C329 1.247 . S
O335 Cd324 2.439 . S
O335 C329 1.208 . S
O336 Cd337 2.223 . S
O336 C344 1.315 . S
Cd337 O336 2.223 . S
Cd337 O340 2.297 . S
Cd337 O341 2.439 . S
Cd337 O347 2.240 . S
Cd338 O339 2.240 . S
Cd338 O346 2.223 . S
Cd338 O348 2.297 . S
Cd338 O349 2.439 . S
O339 Cd338 2.240 . S
O339 C344 1.279 . S
O340 Cd337 2.297 . S
O340 C342 1.247 . S
O341 Cd337 2.439 . S
O341 C342 1.208 . S
C342 O340 1.247 . S
C342 O341 1.208 . S
C343 O348 1.247 . S
C343 O349 1.208 . S
C344 O336 1.315 . S
C344 O339 1.279 . S
C345 O346 1.315 . S
C345 O347 1.279 . S
O346 Cd338 2.223 . S
O346 C345 1.315 . S
O347 Cd337 2.240 . S
O347 C345 1.279 . S
O348 Cd338 2.297 . S
O348 C343 1.247 . S
O349 Cd338 2.439 . S
O349 C343 1.208 . S
O350 Cd351 2.223 . S
O350 C358 1.315 . S
Cd351 O350 2.223 . S
Cd351 O354 2.297 . S
Cd351 O355 2.439 . S
Cd351 O361 2.240 . S
Cd352 O353 2.240 . S
Cd352 O360 2.223 . S
Cd352 O362 2.297 . S
Cd352 O363 2.439 . S
O353 Cd352 2.240 . S
O353 C358 1.279 . S
O354 Cd351 2.297 . S
O354 C356 1.247 . S
O355 Cd351 2.439 . S
O355 C356 1.208 . S
C356 O354 1.247 . S
C356 O355 1.208 . S
C357 O362 1.247 . S
C357 O363 1.208 . S
C358 O350 1.315 . S
C358 O353 1.279 . S
C359 O360 1.315 . S
C359 O361 1.279 . S
O360 Cd352 2.223 . S
O360 C359 1.315 . S
O361 Cd351 2.240 . S
O361 C359 1.279 . S
O362 Cd352 2.297 . S
O362 C357 1.247 . S
O363 Cd352 2.439 . S
O363 C357 1.208 . S
O364 Cd365 2.223 . S
O364 C372 1.315 . S
Cd365 O364 2.223 . S
Cd365 O368 2.297 . S
Cd365 O369 2.439 . S
Cd365 O375 2.240 . S
Cd366 O367 2.240 . S
Cd366 O374 2.223 . S
Cd366 O376 2.297 . S
Cd366 O377 2.439 . S
O367 Cd366 2.240 . S
O367 C372 1.279 . S
O368 Cd365 2.297 . S
O368 C370 1.247 . S
O369 Cd365 2.439 . S
O369 C370 1.208 . S
C370 O368 1.247 . S
C370 O369 1.208 . S
C371 O376 1.247 . S
C371 O377 1.208 . S
C372 O364 1.315 . S
C372 O367 1.279 . S
C373 O374 1.315 . S
C373 O375 1.279 . S
O374 Cd366 2.223 . S
O374 C373 1.315 . S
O375 Cd365 2.240 . S
O375 C373 1.279 . S
O376 Cd366 2.297 . S
O376 C371 1.247 . S
O377 Cd366 2.439 . S
O377 C371 1.208 . S
O378 Cd379 2.223 . S
O378 C386 1.315 . S
Cd379 O378 2.223 . S
Cd379 O382 2.297 . S
Cd379 O383 2.439 . S
Cd379 O389 2.240 . S
Cd380 O381 2.240 . S
Cd380 O388 2.223 . S
Cd380 O390 2.297 . S
Cd380 O391 2.439 . S
O381 Cd380 2.240 . S
O381 C386 1.279 . S
O382 Cd379 2.297 . S
O382 C384 1.247 . S
O383 Cd379 2.439 . S
O383 C384 1.208 . S
C384 O382 1.247 . S
C384 O383 1.208 . S
C385 O390 1.247 . S
C385 O391 1.208 . S
C386 O378 1.315 . S
C386 O381 1.279 . S
C387 O388 1.315 . S
C387 O389 1.279 . S
O388 Cd380 2.223 . S
O388 C387 1.315 . S
O389 Cd379 2.240 . S
O389 C387 1.279 . S
O390 Cd380 2.297 . S
O390 C385 1.247 . S
O391 Cd380 2.439 . S
O391 C385 1.208 . S
O392 Cd393 2.223 . S
O392 C400 1.315 . S
Cd393 O392 2.223 . S
Cd393 O396 2.297 . S
Cd393 O397 2.439 . S
Cd393 O403 2.240 . S
Cd394 O395 2.240 . S
Cd394 O402 2.223 . S
Cd394 O404 2.297 . S
Cd394 O405 2.439 . S
O395 Cd394 2.240 . S
O395 C400 1.279 . S
O396 Cd393 2.297 . S
O396 C398 1.247 . S
O397 Cd393 2.439 . S
O397 C398 1.208 . S
C398 O396 1.247 . S
C398 O397 1.208 . S
C399 O404 1.247 . S
C399 O405 1.208 . S
C400 O392 1.315 . S
C400 O395 1.279 . S
C401 O402 1.315 . S
C401 O403 1.279 . S
O402 Cd394 2.223 . S
O402 C401 1.315 . S
O403 Cd393 2.240 . S
O403 C401 1.279 . S
O404 Cd394 2.297 . S
O404 C399 1.247 . S
O405 Cd394 2.439 . S
O405 C399 1.208 . S
O406 Cd407 2.223 . S
O406 C414 1.315 . S
Cd407 O406 2.223 . S
Cd407 O410 2.297 . S
Cd407 O411 2.439 . S
Cd407 O417 2.240 . S
Cd408 O409 2.240 . S
Cd408 O416 2.223 . S
Cd408 O418 2.297 . S
Cd408 O419 2.439 . S
O409 Cd408 2.240 . S
O409 C414 1.279 . S
O410 Cd407 2.297 . S
O410 C412 1.247 . S
O411 Cd407 2.439 . S
O411 C412 1.208 . S
C412 O410 1.247 . S
C412 O411 1.208 . S
C413 O418 1.247 . S
C413 O419 1.208 . S
C414 O406 1.315 . S
C414 O409 1.279 . S
C415 O416 1.315 . S
C415 O417 1.279 . S
O416 Cd408 2.223 . S
O416 C415 1.315 . S
O417 Cd407 2.240 . S
O417 C415 1.279 . S
O418 Cd408 2.297 . S
O418 C413 1.247 . S
O419 Cd408 2.439 . S
O419 C413 1.208 . S
O420 Cd421 2.223 . S
O420 C428 1.315 . S
Cd421 O420 2.223 . S
Cd421 O424 2.297 . S
Cd421 O425 2.439 . S
Cd421 O431 2.240 . S
Cd422 O423 2.240 . S
Cd422 O430 2.223 . S
Cd422 O432 2.297 . S
Cd422 O433 2.439 . S
O423 Cd422 2.240 . S
O423 C428 1.279 . S
O424 Cd421 2.297 . S
O424 C426 1.247 . S
O425 Cd421 2.439 . S
O425 C426 1.208 . S
C426 O424 1.247 . S
C426 O425 1.208 . S
C427 O432 1.247 . S
C427 O433 1.208 . S
C428 O420 1.315 . S
C428 O423 1.279 . S
C429 O430 1.315 . S
C429 O431 1.279 . S
O430 Cd422 2.223 . S
O430 C429 1.315 . S
O431 Cd421 2.240 . S
O431 C429 1.279 . S
O432 Cd422 2.297 . S
O432 C427 1.247 . S
O433 Cd422 2.439 . S
O433 C427 1.208 . S
O434 Cd435 2.223 . S
O434 C442 1.315 . S
Cd435 O434 2.223 . S
Cd435 O438 2.297 . S
Cd435 O439 2.439 . S
Cd435 O445 2.240 . S
Cd436 O437 2.240 . S
Cd436 O444 2.223 . S
Cd436 O446 2.297 . S
Cd436 O447 2.439 . S
O437 Cd436 2.240 . S
O437 C442 1.279 . S
O438 Cd435 2.297 . S
O438 C440 1.247 . S
O439 Cd435 2.439 . S
O439 C440 1.208 . S
C440 O438 1.247 . S
C440 O439 1.208 . S
C441 O446 1.247 . S
C441 O447 1.208 . S
C442 O434 1.315 . S
C442 O437 1.279 . S
C443 O444 1.315 . S
C443 O445 1.279 . S
O444 Cd436 2.223 . S
O444 C443 1.315 . S
O445 Cd435 2.240 . S
O445 C443 1.279 . S
O446 Cd436 2.297 . S
O446 C441 1.247 . S
O447 Cd436 2.439 . S
O447 C441 1.208 . S
O448 Cd449 2.223 . S
O448 C456 1.315 . S
Cd449 O448 2.223 . S
Cd449 O452 2.297 . S
Cd449 O453 2.439 . S
Cd449 O459 2.240 . S
Cd450 O451 2.240 . S
Cd450 O458 2.223 . S
Cd450 O460 2.297 . S
Cd450 O461 2.439 . S
O451 Cd450 2.240 . S
O451 C456 1.279 . S
O452 Cd449 2.297 . S
O452 C454 1.247 . S
O453 Cd449 2.439 . S
O453 C454 1.208 . S
C454 O452 1.247 . S
C454 O453 1.208 . S
C455 O460 1.247 . S
C455 O461 1.208 . S
C456 O448 1.315 . S
C456 O451 1.279 . S
C457 O458 1.315 . S
C457 O459 1.279 . S
O458 Cd450 2.223 . S
O458 C457 1.315 . S
O459 Cd449 2.240 . S
O459 C457 1.279 . S
O460 Cd450 2.297 . S
O460 C455 1.247 . S
O461 Cd450 2.439 . S
O461 C455 1.208 . S
O462 Cd463 2.223 . S
O462 C470 1.315 . S
Cd463 O462 2.223 . S
Cd463 O466 2.297 . S
Cd463 O467 2.439 . S
Cd463 O473 2.240 . S
Cd464 O465 2.240 . S
Cd464 O472 2.223 . S
Cd464 O474 2.297 . S
Cd464 O475 2.439 . S
O465 Cd464 2.240 . S
O465 C470 1.279 . S
O466 Cd463 2.297 . S
O466 C468 1.247 . S
O467 Cd463 2.439 . S
O467 C468 1.208 . S
C468 O466 1.247 . S
C468 O467 1.208 . S
C469 O474 1.247 . S
C469 O475 1.208 . S
C470 O462 1.315 . S
C470 O465 1.279 . S
C471 O472 1.315 . S
C471 O473 1.279 . S
O472 Cd464 2.223 . S
O472 C471 1.315 . S
O473 Cd463 2.240 . S
O473 C471 1.279 . S
O474 Cd464 2.297 . S
O474 C469 1.247 . S
O475 Cd464 2.439 . S
O475 C469 1.208 . S
O476 Cd477 2.223 . S
O476 C484 1.315 . S
Cd477 O476 2.223 . S
Cd477 O480 2.297 . S
Cd477 O481 2.439 . S
Cd477 O487 2.240 . S
Cd478 O479 2.240 . S
Cd478 O486 2.223 . S
Cd478 O488 2.297 . S
Cd478 O489 2.439 . S
O479 Cd478 2.240 . S
O479 C484 1.279 . S
O480 Cd477 2.297 . S
O480 C482 1.247 . S
O481 Cd477 2.439 . S
O481 C482 1.208 . S
C482 O480 1.247 . S
C482 O481 1.208 . S
C483 O488 1.247 . S
C483 O489 1.208 . S
C484 O476 1.315 . S
C484 O479 1.279 . S
C485 O486 1.315 . S
C485 O487 1.279 . S
O486 Cd478 2.223 . S
O486 C485 1.315 . S
O487 Cd477 2.240 . S
O487 C485 1.279 . S
O488 Cd478 2.297 . S
O488 C483 1.247 . S
O489 Cd478 2.439 . S
O489 C483 1.208 . S
O490 Cd491 2.223 . S
O490 C498 1.315 . S
Cd491 O490 2.223 . S
Cd491 O494 2.297 . S
Cd491 O495 2.439 . S
Cd491 O501 2.240 . S
Cd492 O493 2.240 . S
Cd492 O500 2.223 . S
Cd492 O502 2.297 . S
Cd492 O503 2.439 . S
O493 Cd492 2.240 . S
O493 C498 1.279 . S
O494 Cd491 2.297 . S
O494 C496 1.247 . S
O495 Cd491 2.439 . S
O495 C496 1.208 . S
C496 O494 1.247 . S
C496 O495 1.208 . S
C497 O502 1.247 . S
C497 O503 1.208 . S
C498 O490 1.315 . S
C498 O493 1.279 . S
C499 O500 1.315 . S
C499 O501 1.279 . S
O500 Cd492 2.223 . S
O500 C499 1.315 . S
O501 Cd491 2.240 . S
O501 C499 1.279 . S
O502 Cd492 2.297 . S
O502 C497 1.247 . S
O503 Cd492 2.439 . S
O503 C497 1.208 . S
O504 Cd505 2.223 . S
O504 C512 1.315 . S
Cd505 O504 2.223 . S
Cd505 O508 2.297 . S
Cd505 O509 2.439 . S
Cd505 O515 2.240 . S
Cd506 O507 2.240 . S
Cd506 O514 2.223 . S
Cd506 O516 2.297 . S
Cd506 O517 2.439 . S
O507 Cd506 2.240 . S
O507 C512 1.279 . S
O508 Cd505 2.297 . S
O508 C510 1.247 . S
O509 Cd505 2.439 . S
O509 C510 1.208 . S
C510 O508 1.247 . S
C510 O509 1.208 . S
C511 O516 1.247 . S
C511 O517 1.208 . S
C512 O504 1.315 . S
C512 O507 1.279 . S
C513 O514 1.315 . S
C513 O515 1.279 . S
O514 Cd506 2.223 . S
O514 C513 1.315 . S
O515 Cd505 2.240 . S
O515 C513 1.279 . S
O516 Cd506 2.297 . S
O516 C511 1.247 . S
O517 Cd506 2.439 . S
O517 C511 1.208 . S
O518 Cd519 2.223 . S
O518 C526 1.315 . S
Cd519 O518 2.223 . S
Cd519 O522 2.297 . S
Cd519 O523 2.439 . S
Cd519 O529 2.240 . S
Cd520 O521 2.240 . S
Cd520 O528 2.223 . S
Cd520 O530 2.297 . S
Cd520 O531 2.439 . S
O521 Cd520 2.240 . S
O521 C526 1.279 . S
O522 Cd519 2.297 . S
O522 C524 1.247 . S
O523 Cd519 2.439 . S
O523 C524 1.208 . S
C524 O522 1.247 . S
C524 O523 1.208 . S
C525 O530 1.247 . S
C525 O531 1.208 . S
C526 O518 1.315 . S
C526 O521 1.279 . S
C527 O528 1.315 . S
C527 O529 1.279 . S
O528 Cd520 2.223 . S
O528 C527 1.315 . S
O529 Cd519 2.240 . S
O529 C527 1.279 . S
O530 Cd520 2.297 . S
O530 C525 1.247 . S
O531 Cd520 2.439 . S
O531 C525 1.208 . S
O532 Cd533 2.223 . S
O532 C540 1.315 . S
Cd533 O532 2.223 . S
Cd533 O536 2.297 . S
Cd533 O537 2.439 . S
Cd533 O543 2.240 . S
Cd534 O535 2.240 . S
Cd534 O542 2.223 . S
Cd534 O544 2.297 . S
Cd534 O545 2.439 . S
O535 Cd534 2.240 . S
O535 C540 1.279 . S
O536 Cd533 2.297 . S
O536 C538 1.247 . S
O537 Cd533 2.439 . S
O537 C538 1.208 . S
C538 O536 1.247 . S
C538 O537 1.208 . S
C539 O544 1.247 . S
C539 O545 1.208 . S
C540 O532 1.315 . S
C540 O535 1.279 . S
C541 O542 1.315 . S
C541 O543 1.279 . S
O542 Cd534 2.223 . S
O542 C541 1.315 . S
O543 Cd533 2.240 . S
O543 C541 1.279 . S
O544 Cd534 2.297 . S
O544 C539 1.247 . S
O545 Cd534 2.439 . S
O545 C539 1.208 . S
O546 Cd547 2.223 . S
O546 C554 1.315 . S
Cd547 O546 2.223 . S
Cd547 O550 2.297 . S
Cd547 O551 2.439 . S
Cd547 O557 2.240 . S
Cd548 O549 2.240 . S
Cd548 O556 2.223 . S
Cd548 O558 2.297 . S
Cd548 O559 2.439 . S
O549 Cd548 2.240 . S
O549 C554 1.279 . S
O550 Cd547 2.297 . S
O550 C552 1.247 . S
O551 Cd547 2.439 . S
O551 C552 1.208 . S
C552 O550 1.247 . S
C552 O551 1.208 . S
C553 O558 1.247 . S
C553 O559 1.208 . S
C554 O546 1.315 . S
C554 O549 1.279 . S
C555 O556 1.315 . S
C555 O557 1.279 . S
O556 Cd548 2.223 . S
O556 C555 1.315 . S
O557 Cd547 2.240 . S
O557 C555 1.279 . S
O558 Cd548 2.297 . S
O558 C553 1.247 . S
O559 Cd548 2.439 . S
O559 C553 1.208 . S
O560 Cd561 2.223 . S
O560 C568 1.315 . S
Cd561 O560 2.223 . S
Cd561 O564 2.297 . S
Cd561 O565 2.439 . S
Cd561 O571 2.240 . S
Cd562 O563 2.240 . S
Cd562 O570 2.223 . S
Cd562 O572 2.297 . S
Cd562 O573 2.439 . S
O563 Cd562 2.240 . S
O563 C568 1.279 . S
O564 Cd561 2.297 . S
O564 C566 1.247 . S
O565 Cd561 2.439 . S
O565 C566 1.208 . S
C566 O564 1.247 . S
C566 O565 1.208 . S
C567 O572 1.247 . S
C567 O573 1.208 . S
C568 O560 1.315 . S
C568 O563 1.279 . S
C569 O570 1.315 . S
C569 O571 1.279 . S
O570 Cd562 2.223 . S
O570 C569 1.315 . S
O571 Cd561 2.240 . S
O571 C569 1.279 . S
O572 Cd562 2.297 . S
O572 C567 1.247 . S
O573 Cd562 2.439 . S
O573 C567 1.208 . S
O574 Cd575 2.223 . S
O574 C582 1.315 . S
Cd575 O574 2.223 . S
Cd575 O578 2.297 . S
Cd575 O579 2.439 . S
Cd575 O585 2.240 . S
Cd576 O577 2.240 . S
Cd576 O584 2.223 . S
Cd576 O586 2.297 . S
Cd576 O587 2.439 . S
O577 Cd576 2.240 . S
O577 C582 1.279 . S
O578 Cd575 2.297 . S
O578 C580 1.247 . S
O579 Cd575 2.439 . S
O579 C580 1.208 . S
C580 O578 1.247 . S
C580 O579 1.208 . S
C581 O586 1.247 . S
C581 O587 1.208 . S
C582 O574 1.315 . S
C582 O577 1.279 . S
C583 O584 1.315 . S
C583 O585 1.279 . S
O584 Cd576 2.223 . S
O584 C583 1.315 . S
O585 Cd575 2.240 . S
O585 C583 1.279 . S
O586 Cd576 2.297 . S
O586 C581 1.247 . S
O587 Cd576 2.439 . S
O587 C581 1.208 . S
O588 Cd589 2.223 . S
O588 C596 1.315 . S
Cd589 O588 2.223 . S
Cd589 O592 2.297 . S
Cd589 O593 2.439 . S
Cd589 O599 2.240 . S
Cd590 O591 2.240 . S
Cd590 O598 2.223 . S
Cd590 O600 2.297 . S
Cd590 O601 2.439 . S
O591 Cd590 2.240 . S
O591 C596 1.279 . S
O592 Cd589 2.297 . S
O592 C594 1.247 . S
O593 Cd589 2.439 . S
O593 C594 1.208 . S
C594 O592 1.247 . S
C594 O593 1.208 . S
C595 O600 1.247 . S
C595 O601 1.208 . S
C596 O588 1.315 . S
C596 O591 1.279 . S
C597 O598 1.315 . S
C597 O599 1.279 . S
O598 Cd590 2.223 . S
O598 C597 1.315 . S
O599 Cd589 2.240 . S
O599 C597 1.279 . S
O600 Cd590 2.297 . S
O600 C595 1.247 . S
O601 Cd590 2.439 . S
O601 C595 1.208 . S
O602 Cd603 2.223 . S
O602 C610 1.315 . S
Cd603 O602 2.223 . S
Cd603 O606 2.297 . S
Cd603 O607 2.439 . S
Cd603 O613 2.240 . S
Cd604 O605 2.240 . S
Cd604 O612 2.223 . S
Cd604 O614 2.297 . S
Cd604 O615 2.439 . S
O605 Cd604 2.240 . S
O605 C610 1.279 . S
O606 Cd603 2.297 . S
O606 C608 1.247 . S
O607 Cd603 2.439 . S
O607 C608 1.208 . S
C608 O606 1.247 . S
C608 O607 1.208 . S
C609 O614 1.247 . S
C609 O615 1.208 . S
C610 O602 1.315 . S
C610 O605 1.279 . S
C611 O612 1.315 . S
C611 O613 1.279 . S
O612 Cd604 2.223 . S
O612 C611 1.315 . S
O613 Cd603 2.240 . S
O613 C611 1.279 . S
O614 Cd604 2.297 . S
O614 C609 1.247 . S
O615 Cd604 2.439 . S
O615 C609 1.208 . S
O616 Cd617 2.223 . S
O616 C624 1.315 . S
Cd617 O616 2.223 . S
Cd617 O620 2.297 . S
Cd617 O621 2.439 . S
Cd617 O627 2.240 . S
Cd618 O619 2.240 . S
Cd618 O626 2.223 . S
Cd618 O628 2.297 . S
Cd618 O629 2.439 . S
O619 Cd618 2.240 . S
O619 C624 1.279 . S
O620 Cd617 2.297 . S
O620 C622 1.247 . S
O621 Cd617 2.439 . S
O621 C622 1.208 . S
C622 O620 1.247 . S
C622 O621 1.208 . S
C623 O628 1.247 . S
C623 O629 1.208 . S
C624 O616 1.315 . S
C624 O619 1.279 . S
C625 O626 1.315 . S
C625 O627 1.279 . S
O626 Cd618 2.223 . S
O626 C625 1.315 . S
O627 Cd617 2.240 . S
O627 C625 1.279 . S
O628 Cd618 2.297 . S
O628 C623 1.247 . S
O629 Cd618 2.439 . S
O629 C623 1.208 . S
O630 Cd631 2.223 . S
O630 C638 1.315 . S
Cd631 O630 2.223 . S
Cd631 O634 2.297 . S
Cd631 O635 2.439 . S
Cd631 O641 2.240 . S
Cd632 O633 2.240 . S
Cd632 O640 2.223 . S
Cd632 O642 2.297 . S
Cd632 O643 2.439 . S
O633 Cd632 2.240 . S
O633 C638 1.279 . S
O634 Cd631 2.297 . S
O634 C636 1.247 . S
O635 Cd631 2.439 . S
O635 C636 1.208 . S
C636 O634 1.247 . S
C636 O635 1.208 . S
C637 O642 1.247 . S
C637 O643 1.208 . S
C638 O630 1.315 . S
C638 O633 1.279 . S
C639 O640 1.315 . S
C639 O641 1.279 . S
O640 Cd632 2.223 . S
O640 C639 1.315 . S
O641 Cd631 2.240 . S
O641 C639 1.279 . S
O642 Cd632 2.297 . S
O642 C637 1.247 . S
O643 Cd632 2.439 . S
O643 C637 1.208 . S
O644 Cd645 2.223 . S
O644 C652 1.315 . S
Cd645 O644 2.223 . S
Cd645 O648 2.297 . S
Cd645 O649 2.439 . S
Cd645 O655 2.240 . S
Cd646 O647 2.240 . S
Cd646 O654 2.223 . S
Cd646 O656 2.297 . S
Cd646 O657 2.439 . S
O647 Cd646 2.240 . S
O647 C652 1.279 . S
O648 Cd645 2.297 . S
O648 C650 1.247 . S
O649 Cd645 2.439 . S
O649 C650 1.208 . S
C650 O648 1.247 . S
C650 O649 1.208 . S
C651 O656 1.247 . S
C651 O657 1.208 . S
C652 O644 1.315 . S
C652 O647 1.279 . S
C653 O654 1.315 . S
C653 O655 1.279 . S
O654 Cd646 2.223 . S
O654 C653 1.315 . S
O655 Cd645 2.240 . S
O655 C653 1.279 . S
O656 Cd646 2.297 . S
O656 C651 1.247 . S
O657 Cd646 2.439 . S
O657 C651 1.208 . S
O658 Cd659 2.223 . S
O658 C666 1.315 . S
Cd659 O658 2.223 . S
Cd659 O662 2.297 . S
Cd659 O663 2.439 . S
Cd659 O669 2.240 . S
Cd660 O661 2.240 . S
Cd660 O668 2.223 . S
Cd660 O670 2.297 . S
Cd660 O671 2.439 . S
O661 Cd660 2.240 . S
O661 C666 1.279 . S
O662 Cd659 2.297 . S
O662 C664 1.247 . S
O663 Cd659 2.439 . S
O663 C664 1.208 . S
C664 O662 1.247 . S
C664 O663 1.208 . S
C665 O670 1.247 . S
C665 O671 1.208 . S
C666 O658 1.315 . S
C666 O661 1.279 . S
C667 O668 1.315 . S
C667 O669 1.279 . S
O668 Cd660 2.223 . S
O668 C667 1.315 . S
O669 Cd659 2.240 . S
O669 C667 1.279 . S
O670 Cd660 2.297 . S
O670 C665 1.247 . S
O671 Cd660 2.439 . S
O671 C665 1.208 . S
C672 C673 1.369 . S
C672 C674 1.419 . S
C672 H676 0.930 . S
C673 C672 1.369 . S
C673 C682 1.429 . S
C674 C672 1.419 . S
C674 C675 1.363 . S
C674 H677 0.929 . S
C675 C674 1.363 . S
C675 C681 1.428 . S
H676 C672 0.930 . S
H677 C674 0.929 . S
S678 N679 1.613 . S
S678 N680 1.610 . S
N679 S678 1.613 . S
N679 C682 1.350 . S
N680 S678 1.610 . S
N680 C681 1.351 . S
C681 C675 1.428 . S
C681 N680 1.351 . S
C681 C682 1.434 . S
C682 C673 1.429 . S
C682 N679 1.350 . S
C682 C681 1.434 . S
C683 C684 1.369 . S
C683 C685 1.419 . S
C683 H687 0.930 . S
C684 C683 1.369 . S
C684 C693 1.429 . S
C685 C683 1.419 . S
C685 C686 1.363 . S
C685 H688 0.929 . S
C686 C685 1.363 . S
C686 C692 1.428 . S
H687 C683 0.930 . S
H688 C685 0.929 . S
S689 N690 1.613 . S
S689 N691 1.610 . S
N690 S689 1.613 . S
N690 C693 1.350 . S
N691 S689 1.610 . S
N691 C692 1.351 . S
C692 C686 1.428 . S
C692 N691 1.351 . S
C692 C693 1.434 . S
C693 C684 1.429 . S
C693 N690 1.350 . S
C693 C692 1.434 . S
C694 C695 1.369 . S
C694 C696 1.419 . S
C694 H698 0.930 . S
C695 C694 1.369 . S
C695 C704 1.429 . S
C696 C694 1.419 . S
C696 C697 1.363 . S
C696 H699 0.929 . S
C697 C696 1.363 . S
C697 C703 1.428 . S
H698 C694 0.930 . S
H699 C696 0.929 . S
S700 N701 1.613 . S
S700 N702 1.610 . S
N701 S700 1.613 . S
N701 C704 1.350 . S
N702 S700 1.610 . S
N702 C703 1.351 . S
C703 C697 1.428 . S
C703 N702 1.351 . S
C703 C704 1.434 . S
C704 C695 1.429 . S
C704 N701 1.350 . S
C704 C703 1.434 . S
C705 C706 1.369 . S
C705 C707 1.419 . S
C705 H709 0.930 . S
C706 C705 1.369 . S
C706 C715 1.429 . S
C707 C705 1.419 . S
C707 C708 1.363 . S
C707 H710 0.929 . S
C708 C707 1.363 . S
C708 C714 1.428 . S
H709 C705 0.930 . S
H710 C707 0.929 . S
S711 N712 1.613 . S
S711 N713 1.610 . S
N712 S711 1.613 . S
N712 C715 1.350 . S
N713 S711 1.610 . S
N713 C714 1.351 . S
C714 C708 1.428 . S
C714 N713 1.351 . S
C714 C715 1.434 . S
C715 C706 1.429 . S
C715 N712 1.350 . S
C715 C714 1.434 . S
C716 C717 1.369 . S
C716 C718 1.419 . S
C716 H720 0.930 . S
C717 C716 1.369 . S
C717 C726 1.429 . S
C718 C716 1.419 . S
C718 C719 1.363 . S
C718 H721 0.929 . S
C719 C718 1.363 . S
C719 C725 1.428 . S
H720 C716 0.930 . S
H721 C718 0.929 . S
S722 N723 1.613 . S
S722 N724 1.610 . S
N723 S722 1.613 . S
N723 C726 1.350 . S
N724 S722 1.610 . S
N724 C725 1.351 . S
C725 C719 1.428 . S
C725 N724 1.351 . S
C725 C726 1.434 . S
C726 C717 1.429 . S
C726 N723 1.350 . S
C726 C725 1.434 . S
C727 C728 1.369 . S
C727 C729 1.419 . S
C727 H731 0.930 . S
C728 C727 1.369 . S
C728 C737 1.429 . S
C729 C727 1.419 . S
C729 C730 1.363 . S
C729 H732 0.929 . S
C730 C729 1.363 . S
C730 C736 1.428 . S
H731 C727 0.930 . S
H732 C729 0.929 . S
S733 N734 1.613 . S
S733 N735 1.610 . S
N734 S733 1.613 . S
N734 C737 1.350 . S
N735 S733 1.610 . S
N735 C736 1.351 . S
C736 C730 1.428 . S
C736 N735 1.351 . S
C736 C737 1.434 . S
C737 C728 1.429 . S
C737 N734 1.350 . S
C737 C736 1.434 . S
C738 C739 1.369 . S
C738 C740 1.419 . S
C738 H742 0.930 . S
C739 C738 1.369 . S
C739 C748 1.429 . S
C740 C738 1.419 . S
C740 C741 1.363 . S
C740 H743 0.929 . S
C741 C740 1.363 . S
C741 C747 1.428 . S
H742 C738 0.930 . S
H743 C740 0.929 . S
S744 N745 1.613 . S
S744 N746 1.610 . S
N745 S744 1.613 . S
N745 C748 1.350 . S
N746 S744 1.610 . S
N746 C747 1.351 . S
C747 C741 1.428 . S
C747 N746 1.351 . S
C747 C748 1.434 . S
C748 C739 1.429 . S
C748 N745 1.350 . S
C748 C747 1.434 . S
C749 C750 1.369 . S
C749 C751 1.419 . S
C749 H753 0.930 . S
C750 C749 1.369 . S
C750 C759 1.429 . S
C751 C749 1.419 . S
C751 C752 1.363 . S
C751 H754 0.929 . S
C752 C751 1.363 . S
C752 C758 1.428 . S
H753 C749 0.930 . S
H754 C751 0.929 . S
S755 N756 1.613 . S
S755 N757 1.610 . S
N756 S755 1.613 . S
N756 C759 1.350 . S
N757 S755 1.610 . S
N757 C758 1.351 . S
C758 C752 1.428 . S
C758 N757 1.351 . S
C758 C759 1.434 . S
C759 C750 1.429 . S
C759 N756 1.350 . S
C759 C758 1.434 . S
C760 C761 1.369 . S
C760 C762 1.419 . S
C760 H764 0.930 . S
C761 C760 1.369 . S
C761 C770 1.429 . S
C762 C760 1.419 . S
C762 C763 1.363 . S
C762 H765 0.929 . S
C763 C762 1.363 . S
C763 C769 1.428 . S
H764 C760 0.930 . S
H765 C762 0.929 . S
S766 N767 1.613 . S
S766 N768 1.610 . S
N767 S766 1.613 . S
N767 C770 1.350 . S
N768 S766 1.610 . S
N768 C769 1.351 . S
C769 C763 1.428 . S
C769 N768 1.351 . S
C769 C770 1.434 . S
C770 C761 1.429 . S
C770 N767 1.350 . S
C770 C769 1.434 . S
C771 C772 1.369 . S
C771 C773 1.419 . S
C771 H775 0.930 . S
C772 C771 1.369 . S
C772 C781 1.429 . S
C773 C771 1.419 . S
C773 C774 1.363 . S
C773 H776 0.929 . S
C774 C773 1.363 . S
C774 C780 1.428 . S
H775 C771 0.930 . S
H776 C773 0.929 . S
S777 N778 1.613 . S
S777 N779 1.610 . S
N778 S777 1.613 . S
N778 C781 1.350 . S
N779 S777 1.610 . S
N779 C780 1.351 . S
C780 C774 1.428 . S
C780 N779 1.351 . S
C780 C781 1.434 . S
C781 C772 1.429 . S
C781 N778 1.350 . S
C781 C780 1.434 . S
C782 C783 1.369 . S
C782 C784 1.419 . S
C782 H786 0.930 . S
C783 C782 1.369 . S
C783 C792 1.429 . S
C784 C782 1.419 . S
C784 C785 1.363 . S
C784 H787 0.929 . S
C785 C784 1.363 . S
C785 C791 1.428 . S
H786 C782 0.930 . S
H787 C784 0.929 . S
S788 N789 1.613 . S
S788 N790 1.610 . S
N789 S788 1.613 . S
N789 C792 1.350 . S
N790 S788 1.610 . S
N790 C791 1.351 . S
C791 C785 1.428 . S
C791 N790 1.351 . S
C791 C792 1.434 . S
C792 C783 1.429 . S
C792 N789 1.350 . S
C792 C791 1.434 . S
C793 C794 1.369 . S
C793 C795 1.419 . S
C793 H797 0.930 . S
C794 C793 1.369 . S
C794 C803 1.429 . S
C795 C793 1.419 . S
C795 C796 1.363 . S
C795 H798 0.929 . S
C796 C795 1.363 . S
C796 C802 1.428 . S
H797 C793 0.930 . S
H798 C795 0.929 . S
S799 N800 1.613 . S
S799 N801 1.610 . S
N800 S799 1.613 . S
N800 C803 1.350 . S
N801 S799 1.610 . S
N801 C802 1.351 . S
C802 C796 1.428 . S
C802 N801 1.351 . S
C802 C803 1.434 . S
C803 C794 1.429 . S
C803 N800 1.350 . S
C803 C802 1.434 . S
C804 C805 1.369 . S
C804 C806 1.419 . S
C804 H808 0.930 . S
C805 C804 1.369 . S
C805 C814 1.429 . S
C806 C804 1.419 . S
C806 C807 1.363 . S
C806 H809 0.929 . S
C807 C806 1.363 . S
C807 C813 1.428 . S
H808 C804 0.930 . S
H809 C806 0.929 . S
S810 N811 1.613 . S
S810 N812 1.610 . S
N811 S810 1.613 . S
N811 C814 1.350 . S
N812 S810 1.610 . S
N812 C813 1.351 . S
C813 C807 1.428 . S
C813 N812 1.351 . S
C813 C814 1.434 . S
C814 C805 1.429 . S
C814 N811 1.350 . S
C814 C813 1.434 . S
C815 C816 1.369 . S
C815 C817 1.419 . S
C815 H819 0.930 . S
C816 C815 1.369 . S
C816 C825 1.429 . S
C817 C815 1.419 . S
C817 C818 1.363 . S
C817 H820 0.929 . S
C818 C817 1.363 . S
C818 C824 1.428 . S
H819 C815 0.930 . S
H820 C817 0.929 . S
S821 N822 1.613 . S
S821 N823 1.610 . S
N822 S821 1.613 . S
N822 C825 1.350 . S
N823 S821 1.610 . S
N823 C824 1.351 . S
C824 C818 1.428 . S
C824 N823 1.351 . S
C824 C825 1.434 . S
C825 C816 1.429 . S
C825 N822 1.350 . S
C825 C824 1.434 . S
C826 C827 1.369 . S
C826 C828 1.419 . S
C826 H830 0.930 . S
C827 C826 1.369 . S
C827 C836 1.429 . S
C828 C826 1.419 . S
C828 C829 1.363 . S
C828 H831 0.929 . S
C829 C828 1.363 . S
C829 C835 1.428 . S
H830 C826 0.930 . S
H831 C828 0.929 . S
S832 N833 1.613 . S
S832 N834 1.610 . S
N833 S832 1.613 . S
N833 C836 1.350 . S
N834 S832 1.610 . S
N834 C835 1.351 . S
C835 C829 1.428 . S
C835 N834 1.351 . S
C835 C836 1.434 . S
C836 C827 1.429 . S
C836 N833 1.350 . S
C836 C835 1.434 . S
C837 C838 1.369 . S
C837 C839 1.419 . S
C837 H841 0.930 . S
C838 C837 1.369 . S
C838 C847 1.429 . S
C839 C837 1.419 . S
C839 C840 1.363 . S
C839 H842 0.929 . S
C840 C839 1.363 . S
C840 C846 1.428 . S
H841 C837 0.930 . S
H842 C839 0.929 . S
S843 N844 1.613 . S
S843 N845 1.610 . S
N844 S843 1.613 . S
N844 C847 1.350 . S
N845 S843 1.610 . S
N845 C846 1.351 . S
C846 C840 1.428 . S
C846 N845 1.351 . S
C846 C847 1.434 . S
C847 C838 1.429 . S
C847 N844 1.350 . S
C847 C846 1.434 . S
C848 C849 1.369 . S
C848 C850 1.419 . S
C848 H852 0.930 . S
C849 C848 1.369 . S
C849 C858 1.429 . S
C850 C848 1.419 . S
C850 C851 1.363 . S
C850 H853 0.929 . S
C851 C850 1.363 . S
C851 C857 1.428 . S
H852 C848 0.930 . S
H853 C850 0.929 . S
S854 N855 1.613 . S
S854 N856 1.610 . S
N855 S854 1.613 . S
N855 C858 1.350 . S
N856 S854 1.610 . S
N856 C857 1.351 . S
C857 C851 1.428 . S
C857 N856 1.351 . S
C857 C858 1.434 . S
C858 C849 1.429 . S
C858 N855 1.350 . S
C858 C857 1.434 . S
C859 C860 1.369 . S
C859 C861 1.419 . S
C859 H863 0.930 . S
C860 C859 1.369 . S
C860 C869 1.429 . S
C861 C859 1.419 . S
C861 C862 1.363 . S
C861 H864 0.929 . S
C862 C861 1.363 . S
C862 C868 1.428 . S
H863 C859 0.930 . S
H864 C861 0.929 . S
S865 N866 1.613 . S
S865 N867 1.610 . S
N866 S865 1.613 . S
N866 C869 1.350 . S
N867 S865 1.610 . S
N867 C868 1.351 . S
C868 C862 1.428 . S
C868 N867 1.351 . S
C868 C869 1.434 . S
C869 C860 1.429 . S
C869 N866 1.350 . S
C869 C868 1.434 . S
C870 C871 1.369 . S
C870 C872 1.419 . S
C870 H874 0.930 . S
C871 C870 1.369 . S
C871 C880 1.429 . S
C872 C870 1.419 . S
C872 C873 1.363 . S
C872 H875 0.929 . S
C873 C872 1.363 . S
C873 C879 1.428 . S
H874 C870 0.930 . S
H875 C872 0.929 . S
S876 N877 1.613 . S
S876 N878 1.610 . S
N877 S876 1.613 . S
N877 C880 1.350 . S
N878 S876 1.610 . S
N878 C879 1.351 . S
C879 C873 1.428 . S
C879 N878 1.351 . S
C879 C880 1.434 . S
C880 C871 1.429 . S
C880 N877 1.350 . S
C880 C879 1.434 . S
C881 C882 1.369 . S
C881 C883 1.419 . S
C881 H885 0.930 . S
C882 C881 1.369 . S
C882 C891 1.429 . S
C883 C881 1.419 . S
C883 C884 1.363 . S
C883 H886 0.929 . S
C884 C883 1.363 . S
C884 C890 1.428 . S
H885 C881 0.930 . S
H886 C883 0.929 . S
S887 N888 1.613 . S
S887 N889 1.610 . S
N888 S887 1.613 . S
N888 C891 1.350 . S
N889 S887 1.610 . S
N889 C890 1.351 . S
C890 C884 1.428 . S
C890 N889 1.351 . S
C890 C891 1.434 . S
C891 C882 1.429 . S
C891 N888 1.350 . S
C891 C890 1.434 . S
C892 C893 1.369 . S
C892 C894 1.419 . S
C892 H896 0.930 . S
C893 C892 1.369 . S
C893 C902 1.429 . S
C894 C892 1.419 . S
C894 C895 1.363 . S
C894 H897 0.929 . S
C895 C894 1.363 . S
C895 C901 1.428 . S
H896 C892 0.930 . S
H897 C894 0.929 . S
S898 N899 1.613 . S
S898 N900 1.610 . S
N899 S898 1.613 . S
N899 C902 1.350 . S
N900 S898 1.610 . S
N900 C901 1.351 . S
C901 C895 1.428 . S
C901 N900 1.351 . S
C901 C902 1.434 . S
C902 C893 1.429 . S
C902 N899 1.350 . S
C902 C901 1.434 . S
C903 C904 1.369 . S
C903 C905 1.419 . S
C903 H907 0.930 . S
C904 C903 1.369 . S
C904 C913 1.429 . S
C905 C903 1.419 . S
C905 C906 1.363 . S
C905 H908 0.929 . S
C906 C905 1.363 . S
C906 C912 1.428 . S
H907 C903 0.930 . S
H908 C905 0.929 . S
S909 N910 1.613 . S
S909 N911 1.610 . S
N910 S909 1.613 . S
N910 C913 1.350 . S
N911 S909 1.610 . S
N911 C912 1.351 . S
C912 C906 1.428 . S
C912 N911 1.351 . S
C912 C913 1.434 . S
C913 C904 1.429 . S
C913 N910 1.350 . S
C913 C912 1.434 . S
C914 C915 1.369 . S
C914 C916 1.419 . S
C914 H918 0.930 . S
C915 C914 1.369 . S
C915 C924 1.429 . S
C916 C914 1.419 . S
C916 C917 1.363 . S
C916 H919 0.929 . S
C917 C916 1.363 . S
C917 C923 1.428 . S
H918 C914 0.930 . S
H919 C916 0.929 . S
S920 N921 1.613 . S
S920 N922 1.610 . S
N921 S920 1.613 . S
N921 C924 1.350 . S
N922 S920 1.610 . S
N922 C923 1.351 . S
C923 C917 1.428 . S
C923 N922 1.351 . S
C923 C924 1.434 . S
C924 C915 1.429 . S
C924 N921 1.350 . S
C924 C923 1.434 . S
C925 C926 1.369 . S
C925 C927 1.419 . S
C925 H929 0.930 . S
C926 C925 1.369 . S
C926 C935 1.429 . S
C927 C925 1.419 . S
C927 C928 1.363 . S
C927 H930 0.929 . S
C928 C927 1.363 . S
C928 C934 1.428 . S
H929 C925 0.930 . S
H930 C927 0.929 . S
S931 N932 1.613 . S
S931 N933 1.610 . S
N932 S931 1.613 . S
N932 C935 1.350 . S
N933 S931 1.610 . S
N933 C934 1.351 . S
C934 C928 1.428 . S
C934 N933 1.351 . S
C934 C935 1.434 . S
C935 C926 1.429 . S
C935 N932 1.350 . S
C935 C934 1.434 . S
C936 C937 1.369 . S
C936 C938 1.419 . S
C936 H940 0.930 . S
C937 C936 1.369 . S
C937 C946 1.429 . S
C938 C936 1.419 . S
C938 C939 1.363 . S
C938 H941 0.929 . S
C939 C938 1.363 . S
C939 C945 1.428 . S
H940 C936 0.930 . S
H941 C938 0.929 . S
S942 N943 1.613 . S
S942 N944 1.610 . S
N943 S942 1.613 . S
N943 C946 1.350 . S
N944 S942 1.610 . S
N944 C945 1.351 . S
C945 C939 1.428 . S
C945 N944 1.351 . S
C945 C946 1.434 . S
C946 C937 1.429 . S
C946 N943 1.350 . S
C946 C945 1.434 . S
C947 C948 1.369 . S
C947 C949 1.419 . S
C947 H951 0.930 . S
C948 C947 1.369 . S
C948 C957 1.429 . S
C949 C947 1.419 . S
C949 C950 1.363 . S
C949 H952 0.929 . S
C950 C949 1.363 . S
C950 C956 1.428 . S
H951 C947 0.930 . S
H952 C949 0.929 . S
S953 N954 1.613 . S
S953 N955 1.610 . S
N954 S953 1.613 . S
N954 C957 1.350 . S
N955 S953 1.610 . S
N955 C956 1.351 . S
C956 C950 1.428 . S
C956 N955 1.351 . S
C956 C957 1.434 . S
C957 C948 1.429 . S
C957 N954 1.350 . S
C957 C956 1.434 . S
C958 C959 1.369 . S
C958 C960 1.419 . S
C958 H962 0.930 . S
C959 C958 1.369 . S
C959 C968 1.429 . S
C960 C958 1.419 . S
C960 C961 1.363 . S
C960 H963 0.929 . S
C961 C960 1.363 . S
C961 C967 1.428 . S
H962 C958 0.930 . S
H963 C960 0.929 . S
S964 N965 1.613 . S
S964 N966 1.610 . S
N965 S964 1.613 . S
N965 C968 1.350 . S
N966 S964 1.610 . S
N966 C967 1.351 . S
C967 C961 1.428 . S
C967 N966 1.351 . S
C967 C968 1.434 . S
C968 C959 1.429 . S
C968 N965 1.350 . S
C968 C967 1.434 . S
C969 C970 1.369 . S
C969 C971 1.419 . S
C969 H973 0.930 . S
C970 C969 1.369 . S
C970 C979 1.429 . S
C971 C969 1.419 . S
C971 C972 1.363 . S
C971 H974 0.929 . S
C972 C971 1.363 . S
C972 C978 1.428 . S
H973 C969 0.930 . S
H974 C971 0.929 . S
S975 N976 1.613 . S
S975 N977 1.610 . S
N976 S975 1.613 . S
N976 C979 1.350 . S
N977 S975 1.610 . S
N977 C978 1.351 . S
C978 C972 1.428 . S
C978 N977 1.351 . S
C978 C979 1.434 . S
C979 C970 1.429 . S
C979 N976 1.350 . S
C979 C978 1.434 . S
C980 C981 1.369 . S
C980 C982 1.419 . S
C980 H984 0.930 . S
C981 C980 1.369 . S
C981 C990 1.429 . S
C982 C980 1.419 . S
C982 C983 1.363 . S
C982 H985 0.929 . S
C983 C982 1.363 . S
C983 C989 1.428 . S
H984 C980 0.930 . S
H985 C982 0.929 . S
S986 N987 1.613 . S
S986 N988 1.610 . S
N987 S986 1.613 . S
N987 C990 1.350 . S
N988 S986 1.610 . S
N988 C989 1.351 . S
C989 C983 1.428 . S
C989 N988 1.351 . S
C989 C990 1.434 . S
C990 C981 1.429 . S
C990 N987 1.350 . S
C990 C989 1.434 . S
C991 C992 1.369 . S
C991 C993 1.419 . S
C991 H995 0.930 . S
C992 C991 1.369 . S
C992 C1001 1.429 . S
C993 C991 1.419 . S
C993 C994 1.363 . S
C993 H996 0.929 . S
C994 C993 1.363 . S
C994 C1000 1.428 . S
H995 C991 0.930 . S
H996 C993 0.929 . S
S997 N998 1.613 . S
S997 N999 1.610 . S
N998 S997 1.613 . S
N998 C1001 1.350 . S
N999 S997 1.610 . S
N999 C1000 1.351 . S
C1000 C994 1.428 . S
C1000 N999 1.351 . S
C1000 C1001 1.434 . S
C1001 C992 1.429 . S
C1001 N998 1.350 . S
C1001 C1000 1.434 . S
C1002 C1003 1.369 . S
C1002 C1004 1.419 . S
C1002 H1006 0.930 . S
C1003 C1002 1.369 . S
C1003 C1012 1.429 . S
C1004 C1002 1.419 . S
C1004 C1005 1.363 . S
C1004 H1007 0.929 . S
C1005 C1004 1.363 . S
C1005 C1011 1.428 . S
H1006 C1002 0.930 . S
H1007 C1004 0.929 . S
S1008 N1009 1.613 . S
S1008 N1010 1.610 . S
N1009 S1008 1.613 . S
N1009 C1012 1.350 . S
N1010 S1008 1.610 . S
N1010 C1011 1.351 . S
C1011 C1005 1.428 . S
C1011 N1010 1.351 . S
C1011 C1012 1.434 . S
C1012 C1003 1.429 . S
C1012 N1009 1.350 . S
C1012 C1011 1.434 . S
C1013 C1014 1.369 . S
C1013 C1015 1.419 . S
C1013 H1017 0.930 . S
C1014 C1013 1.369 . S
C1014 C1023 1.429 . S
C1015 C1013 1.419 . S
C1015 C1016 1.363 . S
C1015 H1018 0.929 . S
C1016 C1015 1.363 . S
C1016 C1022 1.428 . S
H1017 C1013 0.930 . S
H1018 C1015 0.929 . S
S1019 N1020 1.613 . S
S1019 N1021 1.610 . S
N1020 S1019 1.613 . S
N1020 C1023 1.350 . S
N1021 S1019 1.610 . S
N1021 C1022 1.351 . S
C1022 C1016 1.428 . S
C1022 N1021 1.351 . S
C1022 C1023 1.434 . S
C1023 C1014 1.429 . S
C1023 N1020 1.350 . S
C1023 C1022 1.434 . S
C1024 C1025 1.369 . S
C1024 C1026 1.419 . S
C1024 H1028 0.930 . S
C1025 C1024 1.369 . S
C1025 C1034 1.429 . S
C1026 C1024 1.419 . S
C1026 C1027 1.363 . S
C1026 H1029 0.929 . S
C1027 C1026 1.363 . S
C1027 C1033 1.428 . S
H1028 C1024 0.930 . S
H1029 C1026 0.929 . S
S1030 N1031 1.613 . S
S1030 N1032 1.610 . S
N1031 S1030 1.613 . S
N1031 C1034 1.350 . S
N1032 S1030 1.610 . S
N1032 C1033 1.351 . S
C1033 C1027 1.428 . S
C1033 N1032 1.351 . S
C1033 C1034 1.434 . S
C1034 C1025 1.429 . S
C1034 N1031 1.350 . S
C1034 C1033 1.434 . S
C1035 C1036 1.369 . S
C1035 C1037 1.419 . S
C1035 H1039 0.930 . S
C1036 C1035 1.369 . S
C1036 C1045 1.429 . S
C1037 C1035 1.419 . S
C1037 C1038 1.363 . S
C1037 H1040 0.929 . S
C1038 C1037 1.363 . S
C1038 C1044 1.428 . S
H1039 C1035 0.930 . S
H1040 C1037 0.929 . S
S1041 N1042 1.613 . S
S1041 N1043 1.610 . S
N1042 S1041 1.613 . S
N1042 C1045 1.350 . S
N1043 S1041 1.610 . S
N1043 C1044 1.351 . S
C1044 C1038 1.428 . S
C1044 N1043 1.351 . S
C1044 C1045 1.434 . S
C1045 C1036 1.429 . S
C1045 N1042 1.350 . S
C1045 C1044 1.434 . S
C1046 C1047 1.369 . S
C1046 C1048 1.419 . S
C1046 H1050 0.930 . S
C1047 C1046 1.369 . S
C1047 C1056 1.429 . S
C1048 C1046 1.419 . S
C1048 C1049 1.363 . S
C1048 H1051 0.929 . S
C1049 C1048 1.363 . S
C1049 C1055 1.428 . S
H1050 C1046 0.930 . S
H1051 C1048 0.929 . S
S1052 N1053 1.613 . S
S1052 N1054 1.610 . S
N1053 S1052 1.613 . S
N1053 C1056 1.350 . S
N1054 S1052 1.610 . S
N1054 C1055 1.351 . S
C1055 C1049 1.428 . S
C1055 N1054 1.351 . S
C1055 C1056 1.434 . S
C1056 C1047 1.429 . S
C1056 N1053 1.350 . S
C1056 C1055 1.434 . S
C1057 C1058 1.369 . S
C1057 C1059 1.419 . S
C1057 H1061 0.930 . S
C1058 C1057 1.369 . S
C1058 C1067 1.429 . S
C1059 C1057 1.419 . S
C1059 C1060 1.363 . S
C1059 H1062 0.929 . S
C1060 C1059 1.363 . S
C1060 C1066 1.428 . S
H1061 C1057 0.930 . S
H1062 C1059 0.929 . S
S1063 N1064 1.613 . S
S1063 N1065 1.610 . S
N1064 S1063 1.613 . S
N1064 C1067 1.350 . S
N1065 S1063 1.610 . S
N1065 C1066 1.351 . S
C1066 C1060 1.428 . S
C1066 N1065 1.351 . S
C1066 C1067 1.434 . S
C1067 C1058 1.429 . S
C1067 N1064 1.350 . S
C1067 C1066 1.434 . S
C1068 C1069 1.369 . S
C1068 C1070 1.419 . S
C1068 H1072 0.930 . S
C1069 C1068 1.369 . S
C1069 C1078 1.429 . S
C1070 C1068 1.419 . S
C1070 C1071 1.363 . S
C1070 H1073 0.929 . S
C1071 C1070 1.363 . S
C1071 C1077 1.428 . S
H1072 C1068 0.930 . S
H1073 C1070 0.929 . S
S1074 N1075 1.613 . S
S1074 N1076 1.610 . S
N1075 S1074 1.613 . S
N1075 C1078 1.350 . S
N1076 S1074 1.610 . S
N1076 C1077 1.351 . S
C1077 C1071 1.428 . S
C1077 N1076 1.351 . S
C1077 C1078 1.434 . S
C1078 C1069 1.429 . S
C1078 N1075 1.350 . S
C1078 C1077 1.434 . S
C1079 C1080 1.369 . S
C1079 C1081 1.419 . S
C1079 H1083 0.930 . S
C1080 C1079 1.369 . S
C1080 C1089 1.429 . S
C1081 C1079 1.419 . S
C1081 C1082 1.363 . S
C1081 H1084 0.929 . S
C1082 C1081 1.363 . S
C1082 C1088 1.428 . S
H1083 C1079 0.930 . S
H1084 C1081 0.929 . S
S1085 N1086 1.613 . S
S1085 N1087 1.610 . S
N1086 S1085 1.613 . S
N1086 C1089 1.350 . S
N1087 S1085 1.610 . S
N1087 C1088 1.351 . S
C1088 C1082 1.428 . S
C1088 N1087 1.351 . S
C1088 C1089 1.434 . S
C1089 C1080 1.429 . S
C1089 N1086 1.350 . S
C1089 C1088 1.434 . S
C1090 C1091 1.369 . S
C1090 C1092 1.419 . S
C1090 H1094 0.930 . S
C1091 C1090 1.369 . S
C1091 C1100 1.429 . S
C1092 C1090 1.419 . S
C1092 C1093 1.363 . S
C1092 H1095 0.929 . S
C1093 C1092 1.363 . S
C1093 C1099 1.428 . S
H1094 C1090 0.930 . S
H1095 C1092 0.929 . S
S1096 N1097 1.613 . S
S1096 N1098 1.610 . S
N1097 S1096 1.613 . S
N1097 C1100 1.350 . S
N1098 S1096 1.610 . S
N1098 C1099 1.351 . S
C1099 C1093 1.428 . S
C1099 N1098 1.351 . S
C1099 C1100 1.434 . S
C1100 C1091 1.429 . S
C1100 N1097 1.350 . S
C1100 C1099 1.434 . S
C1101 C1102 1.369 . S
C1101 C1103 1.419 . S
C1101 H1105 0.930 . S
C1102 C1101 1.369 . S
C1102 C1111 1.429 . S
C1103 C1101 1.419 . S
C1103 C1104 1.363 . S
C1103 H1106 0.929 . S
C1104 C1103 1.363 . S
C1104 C1110 1.428 . S
H1105 C1101 0.930 . S
H1106 C1103 0.929 . S
S1107 N1108 1.613 . S
S1107 N1109 1.610 . S
N1108 S1107 1.613 . S
N1108 C1111 1.350 . S
N1109 S1107 1.610 . S
N1109 C1110 1.351 . S
C1110 C1104 1.428 . S
C1110 N1109 1.351 . S
C1110 C1111 1.434 . S
C1111 C1102 1.429 . S
C1111 N1108 1.350 . S
C1111 C1110 1.434 . S
C1112 C1113 1.369 . S
C1112 C1114 1.419 . S
C1112 H1116 0.930 . S
C1113 C1112 1.369 . S
C1113 C1122 1.429 . S
C1114 C1112 1.419 . S
C1114 C1115 1.363 . S
C1114 H1117 0.929 . S
C1115 C1114 1.363 . S
C1115 C1121 1.428 . S
H1116 C1112 0.930 . S
H1117 C1114 0.929 . S
S1118 N1119 1.613 . S
S1118 N1120 1.610 . S
N1119 S1118 1.613 . S
N1119 C1122 1.350 . S
N1120 S1118 1.610 . S
N1120 C1121 1.351 . S
C1121 C1115 1.428 . S
C1121 N1120 1.351 . S
C1121 C1122 1.434 . S
C1122 C1113 1.429 . S
C1122 N1119 1.350 . S
C1122 C1121 1.434 . S
C1123 C1124 1.369 . S
C1123 C1125 1.419 . S
C1123 H1127 0.930 . S
C1124 C1123 1.369 . S
C1124 C1133 1.429 . S
C1125 C1123 1.419 . S
C1125 C1126 1.363 . S
C1125 H1128 0.929 . S
C1126 C1125 1.363 . S
C1126 C1132 1.428 . S
H1127 C1123 0.930 . S
H1128 C1125 0.929 . S
S1129 N1130 1.613 . S
S1129 N1131 1.610 . S
N1130 S1129 1.613 . S
N1130 C1133 1.350 . S
N1131 S1129 1.610 . S
N1131 C1132 1.351 . S
C1132 C1126 1.428 . S
C1132 N1131 1.351 . S
C1132 C1133 1.434 . S
C1133 C1124 1.429 . S
C1133 N1130 1.350 . S
C1133 C1132 1.434 . S
C1134 C1135 1.369 . S
C1134 C1136 1.419 . S
C1134 H1138 0.930 . S
C1135 C1134 1.369 . S
C1135 C1144 1.429 . S
C1136 C1134 1.419 . S
C1136 C1137 1.363 . S
C1136 H1139 0.929 . S
C1137 C1136 1.363 . S
C1137 C1143 1.428 . S
H1138 C1134 0.930 . S
H1139 C1136 0.929 . S
S1140 N1141 1.613 . S
S1140 N1142 1.610 . S
N1141 S1140 1.613 . S
N1141 C1144 1.350 . S
N1142 S1140 1.610 . S
N1142 C1143 1.351 . S
C1143 C1137 1.428 . S
C1143 N1142 1.351 . S
C1143 C1144 1.434 . S
C1144 C1135 1.429 . S
C1144 N1141 1.350 . S
C1144 C1143 1.434 . S
C1145 C1146 1.369 . S
C1145 C1147 1.419 . S
C1145 H1149 0.930 . S
C1146 C1145 1.369 . S
C1146 C1155 1.429 . S
C1147 C1145 1.419 . S
C1147 C1148 1.363 . S
C1147 H1150 0.929 . S
C1148 C1147 1.363 . S
C1148 C1154 1.428 . S
H1149 C1145 0.930 . S
H1150 C1147 0.929 . S
S1151 N1152 1.613 . S
S1151 N1153 1.610 . S
N1152 S1151 1.613 . S
N1152 C1155 1.350 . S
N1153 S1151 1.610 . S
N1153 C1154 1.351 . S
C1154 C1148 1.428 . S
C1154 N1153 1.351 . S
C1154 C1155 1.434 . S
C1155 C1146 1.429 . S
C1155 N1152 1.350 . S
C1155 C1154 1.434 . S
C1156 C1157 1.369 . S
C1156 C1158 1.419 . S
C1156 H1160 0.930 . S
C1157 C1156 1.369 . S
C1157 C1166 1.429 . S
C1158 C1156 1.419 . S
C1158 C1159 1.363 . S
C1158 H1161 0.929 . S
C1159 C1158 1.363 . S
C1159 C1165 1.428 . S
H1160 C1156 0.930 . S
H1161 C1158 0.929 . S
S1162 N1163 1.613 . S
S1162 N1164 1.610 . S
N1163 S1162 1.613 . S
N1163 C1166 1.350 . S
N1164 S1162 1.610 . S
N1164 C1165 1.351 . S
C1165 C1159 1.428 . S
C1165 N1164 1.351 . S
C1165 C1166 1.434 . S
C1166 C1157 1.429 . S
C1166 N1163 1.350 . S
C1166 C1165 1.434 . S
C1167 C1168 1.369 . S
C1167 C1169 1.419 . S
C1167 H1171 0.930 . S
C1168 C1167 1.369 . S
C1168 C1177 1.429 . S
C1169 C1167 1.419 . S
C1169 C1170 1.363 . S
C1169 H1172 0.929 . S
C1170 C1169 1.363 . S
C1170 C1176 1.428 . S
H1171 C1167 0.930 . S
H1172 C1169 0.929 . S
S1173 N1174 1.613 . S
S1173 N1175 1.610 . S
N1174 S1173 1.613 . S
N1174 C1177 1.350 . S
N1175 S1173 1.610 . S
N1175 C1176 1.351 . S
C1176 C1170 1.428 . S
C1176 N1175 1.351 . S
C1176 C1177 1.434 . S
C1177 C1168 1.429 . S
C1177 N1174 1.350 . S
C1177 C1176 1.434 . S
C1178 C1179 1.369 . S
C1178 C1180 1.419 . S
C1178 H1182 0.930 . S
C1179 C1178 1.369 . S
C1179 C1188 1.429 . S
C1180 C1178 1.419 . S
C1180 C1181 1.363 . S
C1180 H1183 0.929 . S
C1181 C1180 1.363 . S
C1181 C1187 1.428 . S
H1182 C1178 0.930 . S
H1183 C1180 0.929 . S
S1184 N1185 1.613 . S
S1184 N1186 1.610 . S
N1185 S1184 1.613 . S
N1185 C1188 1.350 . S
N1186 S1184 1.610 . S
N1186 C1187 1.351 . S
C1187 C1181 1.428 . S
C1187 N1186 1.351 . S
C1187 C1188 1.434 . S
C1188 C1179 1.429 . S
C1188 N1185 1.350 . S
C1188 C1187 1.434 . S
C1189 C1190 1.369 . S
C1189 C1191 1.419 . S
C1189 H1193 0.930 . S
C1190 C1189 1.369 . S
C1190 C1199 1.429 . S
C1191 C1189 1.419 . S
C1191 C1192 1.363 . S
C1191 H1194 0.929 . S
C1192 C1191 1.363 . S
C1192 C1198 1.428 . S
H1193 C1189 0.930 . S
H1194 C1191 0.929 . S
S1195 N1196 1.613 . S
S1195 N1197 1.610 . S
N1196 S1195 1.613 . S
N1196 C1199 1.350 . S
N1197 S1195 1.610 . S
N1197 C1198 1.351 . S
C1198 C1192 1.428 . S
C1198 N1197 1.351 . S
C1198 C1199 1.434 . S
C1199 C1190 1.429 . S
C1199 N1196 1.350 . S
C1199 C1198 1.434 . S
C1200 C1201 1.369 . S
C1200 C1202 1.419 . S
C1200 H1204 0.930 . S
C1201 C1200 1.369 . S
C1201 C1210 1.429 . S
C1202 C1200 1.419 . S
C1202 C1203 1.363 . S
C1202 H1205 0.929 . S
C1203 C1202 1.363 . S
C1203 C1209 1.428 . S
H1204 C1200 0.930 . S
H1205 C1202 0.929 . S
S1206 N1207 1.613 . S
S1206 N1208 1.610 . S
N1207 S1206 1.613 . S
N1207 C1210 1.350 . S
N1208 S1206 1.610 . S
N1208 C1209 1.351 . S
C1209 C1203 1.428 . S
C1209 N1208 1.351 . S
C1209 C1210 1.434 . S
C1210 C1201 1.429 . S
C1210 N1207 1.350 . S
C1210 C1209 1.434 . S
C1211 C1212 1.369 . S
C1211 C1213 1.419 . S
C1211 H1215 0.930 . S
C1212 C1211 1.369 . S
C1212 C1221 1.429 . S
C1213 C1211 1.419 . S
C1213 C1214 1.363 . S
C1213 H1216 0.929 . S
C1214 C1213 1.363 . S
C1214 C1220 1.428 . S
H1215 C1211 0.930 . S
H1216 C1213 0.929 . S
S1217 N1218 1.613 . S
S1217 N1219 1.610 . S
N1218 S1217 1.613 . S
N1218 C1221 1.350 . S
N1219 S1217 1.610 . S
N1219 C1220 1.351 . S
C1220 C1214 1.428 . S
C1220 N1219 1.351 . S
C1220 C1221 1.434 . S
C1221 C1212 1.429 . S
C1221 N1218 1.350 . S
C1221 C1220 1.434 . S
C1222 C1223 1.369 . S
C1222 C1224 1.419 . S
C1222 H1226 0.930 . S
C1223 C1222 1.369 . S
C1223 C1232 1.429 . S
C1224 C1222 1.419 . S
C1224 C1225 1.363 . S
C1224 H1227 0.929 . S
C1225 C1224 1.363 . S
C1225 C1231 1.428 . S
H1226 C1222 0.930 . S
H1227 C1224 0.929 . S
S1228 N1229 1.613 . S
S1228 N1230 1.610 . S
N1229 S1228 1.613 . S
N1229 C1232 1.350 . S
N1230 S1228 1.610 . S
N1230 C1231 1.351 . S
C1231 C1225 1.428 . S
C1231 N1230 1.351 . S
C1231 C1232 1.434 . S
C1232 C1223 1.429 . S
C1232 N1229 1.350 . S
C1232 C1231 1.434 . S
C1233 C1234 1.369 . S
C1233 C1235 1.419 . S
C1233 H1237 0.930 . S
C1234 C1233 1.369 . S
C1234 C1243 1.429 . S
C1235 C1233 1.419 . S
C1235 C1236 1.363 . S
C1235 H1238 0.929 . S
C1236 C1235 1.363 . S
C1236 C1242 1.428 . S
H1237 C1233 0.930 . S
H1238 C1235 0.929 . S
S1239 N1240 1.613 . S
S1239 N1241 1.610 . S
N1240 S1239 1.613 . S
N1240 C1243 1.350 . S
N1241 S1239 1.610 . S
N1241 C1242 1.351 . S
C1242 C1236 1.428 . S
C1242 N1241 1.351 . S
C1242 C1243 1.434 . S
C1243 C1234 1.429 . S
C1243 N1240 1.350 . S
C1243 C1242 1.434 . S
C1244 C1245 1.369 . S
C1244 C1246 1.419 . S
C1244 H1248 0.930 . S
C1245 C1244 1.369 . S
C1245 C1254 1.429 . S
C1246 C1244 1.419 . S
C1246 C1247 1.363 . S
C1246 H1249 0.929 . S
C1247 C1246 1.363 . S
C1247 C1253 1.428 . S
H1248 C1244 0.930 . S
H1249 C1246 0.929 . S
S1250 N1251 1.613 . S
S1250 N1252 1.610 . S
N1251 S1250 1.613 . S
N1251 C1254 1.350 . S
N1252 S1250 1.610 . S
N1252 C1253 1.351 . S
C1253 C1247 1.428 . S
C1253 N1252 1.351 . S
C1253 C1254 1.434 . S
C1254 C1245 1.429 . S
C1254 N1251 1.350 . S
C1254 C1253 1.434 . S
C1255 C1256 1.369 . S
C1255 C1257 1.419 . S
C1255 H1259 0.930 . S
C1256 C1255 1.369 . S
C1256 C1265 1.429 . S
C1257 C1255 1.419 . S
C1257 C1258 1.363 . S
C1257 H1260 0.929 . S
C1258 C1257 1.363 . S
C1258 C1264 1.428 . S
H1259 C1255 0.930 . S
H1260 C1257 0.929 . S
S1261 N1262 1.613 . S
S1261 N1263 1.610 . S
N1262 S1261 1.613 . S
N1262 C1265 1.350 . S
N1263 S1261 1.610 . S
N1263 C1264 1.351 . S
C1264 C1258 1.428 . S
C1264 N1263 1.351 . S
C1264 C1265 1.434 . S
C1265 C1256 1.429 . S
C1265 N1262 1.350 . S
C1265 C1264 1.434 . S
C1266 C1267 1.369 . S
C1266 C1268 1.419 . S
C1266 H1270 0.930 . S
C1267 C1266 1.369 . S
C1267 C1276 1.429 . S
C1268 C1266 1.419 . S
C1268 C1269 1.363 . S
C1268 H1271 0.929 . S
C1269 C1268 1.363 . S
C1269 C1275 1.428 . S
H1270 C1266 0.930 . S
H1271 C1268 0.929 . S
S1272 N1273 1.613 . S
S1272 N1274 1.610 . S
N1273 S1272 1.613 . S
N1273 C1276 1.350 . S
N1274 S1272 1.610 . S
N1274 C1275 1.351 . S
C1275 C1269 1.428 . S
C1275 N1274 1.351 . S
C1275 C1276 1.434 . S
C1276 C1267 1.429 . S
C1276 N1273 1.350 . S
C1276 C1275 1.434 . S
C1277 C1278 1.369 . S
C1277 C1279 1.419 . S
C1277 H1281 0.930 . S
C1278 C1277 1.369 . S
C1278 C1287 1.429 . S
C1279 C1277 1.419 . S
C1279 C1280 1.363 . S
C1279 H1282 0.929 . S
C1280 C1279 1.363 . S
C1280 C1286 1.428 . S
H1281 C1277 0.930 . S
H1282 C1279 0.929 . S
S1283 N1284 1.613 . S
S1283 N1285 1.610 . S
N1284 S1283 1.613 . S
N1284 C1287 1.350 . S
N1285 S1283 1.610 . S
N1285 C1286 1.351 . S
C1286 C1280 1.428 . S
C1286 N1285 1.351 . S
C1286 C1287 1.434 . S
C1287 C1278 1.429 . S
C1287 N1284 1.350 . S
C1287 C1286 1.434 . S
C1288 C1289 1.369 . S
C1288 C1290 1.419 . S
C1288 H1292 0.930 . S
C1289 C1288 1.369 . S
C1289 C1298 1.429 . S
C1290 C1288 1.419 . S
C1290 C1291 1.363 . S
C1290 H1293 0.929 . S
C1291 C1290 1.363 . S
C1291 C1297 1.428 . S
H1292 C1288 0.930 . S
H1293 C1290 0.929 . S
S1294 N1295 1.613 . S
S1294 N1296 1.610 . S
N1295 S1294 1.613 . S
N1295 C1298 1.350 . S
N1296 S1294 1.610 . S
N1296 C1297 1.351 . S
C1297 C1291 1.428 . S
C1297 N1296 1.351 . S
C1297 C1298 1.434 . S
C1298 C1289 1.429 . S
C1298 N1295 1.350 . S
C1298 C1297 1.434 . S
C1299 C1300 1.369 . S
C1299 C1301 1.419 . S
C1299 H1303 0.930 . S
C1300 C1299 1.369 . S
C1300 C1309 1.429 . S
C1301 C1299 1.419 . S
C1301 C1302 1.363 . S
C1301 H1304 0.929 . S
C1302 C1301 1.363 . S
C1302 C1308 1.428 . S
H1303 C1299 0.930 . S
H1304 C1301 0.929 . S
S1305 N1306 1.613 . S
S1305 N1307 1.610 . S
N1306 S1305 1.613 . S
N1306 C1309 1.350 . S
N1307 S1305 1.610 . S
N1307 C1308 1.351 . S
C1308 C1302 1.428 . S
C1308 N1307 1.351 . S
C1308 C1309 1.434 . S
C1309 C1300 1.429 . S
C1309 N1306 1.350 . S
C1309 C1308 1.434 . S
C1310 C1311 1.369 . S
C1310 C1312 1.419 . S
C1310 H1314 0.930 . S
C1311 C1310 1.369 . S
C1311 C1320 1.429 . S
C1312 C1310 1.419 . S
C1312 C1313 1.363 . S
C1312 H1315 0.929 . S
C1313 C1312 1.363 . S
C1313 C1319 1.428 . S
H1314 C1310 0.930 . S
H1315 C1312 0.929 . S
S1316 N1317 1.613 . S
S1316 N1318 1.610 . S
N1317 S1316 1.613 . S
N1317 C1320 1.350 . S
N1318 S1316 1.610 . S
N1318 C1319 1.351 . S
C1319 C1313 1.428 . S
C1319 N1318 1.351 . S
C1319 C1320 1.434 . S
C1320 C1311 1.429 . S
C1320 N1317 1.350 . S
C1320 C1319 1.434 . S
C1321 C1322 1.369 . S
C1321 C1323 1.419 . S
C1321 H1325 0.930 . S
C1322 C1321 1.369 . S
C1322 C1331 1.429 . S
C1323 C1321 1.419 . S
C1323 C1324 1.363 . S
C1323 H1326 0.929 . S
C1324 C1323 1.363 . S
C1324 C1330 1.428 . S
H1325 C1321 0.930 . S
H1326 C1323 0.929 . S
S1327 N1328 1.613 . S
S1327 N1329 1.610 . S
N1328 S1327 1.613 . S
N1328 C1331 1.350 . S
N1329 S1327 1.610 . S
N1329 C1330 1.351 . S
C1330 C1324 1.428 . S
C1330 N1329 1.351 . S
C1330 C1331 1.434 . S
C1331 C1322 1.429 . S
C1331 N1328 1.350 . S
C1331 C1330 1.434 . S
C1332 C1333 1.369 . S
C1332 C1334 1.419 . S
C1332 H1336 0.930 . S
C1333 C1332 1.369 . S
C1333 C1342 1.429 . S
C1334 C1332 1.419 . S
C1334 C1335 1.363 . S
C1334 H1337 0.929 . S
C1335 C1334 1.363 . S
C1335 C1341 1.428 . S
H1336 C1332 0.930 . S
H1337 C1334 0.929 . S
S1338 N1339 1.613 . S
S1338 N1340 1.610 . S
N1339 S1338 1.613 . S
N1339 C1342 1.350 . S
N1340 S1338 1.610 . S
N1340 C1341 1.351 . S
C1341 C1335 1.428 . S
C1341 N1340 1.351 . S
C1341 C1342 1.434 . S
C1342 C1333 1.429 . S
C1342 N1339 1.350 . S
C1342 C1341 1.434 . S
C1343 C1344 1.369 . S
C1343 C1345 1.419 . S
C1343 H1347 0.930 . S
C1344 C1343 1.369 . S
C1344 C1353 1.429 . S
C1345 C1343 1.419 . S
C1345 C1346 1.363 . S
C1345 H1348 0.929 . S
C1346 C1345 1.363 . S
C1346 C1352 1.428 . S
H1347 C1343 0.930 . S
H1348 C1345 0.929 . S
S1349 N1350 1.613 . S
S1349 N1351 1.610 . S
N1350 S1349 1.613 . S
N1350 C1353 1.350 . S
N1351 S1349 1.610 . S
N1351 C1352 1.351 . S
C1352 C1346 1.428 . S
C1352 N1351 1.351 . S
C1352 C1353 1.434 . S
C1353 C1344 1.429 . S
C1353 N1350 1.350 . S
C1353 C1352 1.434 . S
C1354 C1355 1.369 . S
C1354 C1356 1.419 . S
C1354 H1358 0.930 . S
C1355 C1354 1.369 . S
C1355 C1364 1.429 . S
C1356 C1354 1.419 . S
C1356 C1357 1.363 . S
C1356 H1359 0.929 . S
C1357 C1356 1.363 . S
C1357 C1363 1.428 . S
H1358 C1354 0.930 . S
H1359 C1356 0.929 . S
S1360 N1361 1.613 . S
S1360 N1362 1.610 . S
N1361 S1360 1.613 . S
N1361 C1364 1.350 . S
N1362 S1360 1.610 . S
N1362 C1363 1.351 . S
C1363 C1357 1.428 . S
C1363 N1362 1.351 . S
C1363 C1364 1.434 . S
C1364 C1355 1.429 . S
C1364 N1361 1.350 . S
C1364 C1363 1.434 . S
C1365 C1366 1.369 . S
C1365 C1367 1.419 . S
C1365 H1369 0.930 . S
C1366 C1365 1.369 . S
C1366 C1375 1.429 . S
C1367 C1365 1.419 . S
C1367 C1368 1.363 . S
C1367 H1370 0.929 . S
C1368 C1367 1.363 . S
C1368 C1374 1.428 . S
H1369 C1365 0.930 . S
H1370 C1367 0.929 . S
S1371 N1372 1.613 . S
S1371 N1373 1.610 . S
N1372 S1371 1.613 . S
N1372 C1375 1.350 . S
N1373 S1371 1.610 . S
N1373 C1374 1.351 . S
C1374 C1368 1.428 . S
C1374 N1373 1.351 . S
C1374 C1375 1.434 . S
C1375 C1366 1.429 . S
C1375 N1372 1.350 . S
C1375 C1374 1.434 . S
C1376 C1377 1.369 . S
C1376 C1378 1.419 . S
C1376 H1380 0.930 . S
C1377 C1376 1.369 . S
C1377 C1386 1.429 . S
C1378 C1376 1.419 . S
C1378 C1379 1.363 . S
C1378 H1381 0.929 . S
C1379 C1378 1.363 . S
C1379 C1385 1.428 . S
H1380 C1376 0.930 . S
H1381 C1378 0.929 . S
S1382 N1383 1.613 . S
S1382 N1384 1.610 . S
N1383 S1382 1.613 . S
N1383 C1386 1.350 . S
N1384 S1382 1.610 . S
N1384 C1385 1.351 . S
C1385 C1379 1.428 . S
C1385 N1384 1.351 . S
C1385 C1386 1.434 . S
C1386 C1377 1.429 . S
C1386 N1383 1.350 . S
C1386 C1385 1.434 . S
C1387 C1388 1.369 . S
C1387 C1389 1.419 . S
C1387 H1391 0.930 . S
C1388 C1387 1.369 . S
C1388 C1397 1.429 . S
C1389 C1387 1.419 . S
C1389 C1390 1.363 . S
C1389 H1392 0.929 . S
C1390 C1389 1.363 . S
C1390 C1396 1.428 . S
H1391 C1387 0.930 . S
H1392 C1389 0.929 . S
S1393 N1394 1.613 . S
S1393 N1395 1.610 . S
N1394 S1393 1.613 . S
N1394 C1397 1.350 . S
N1395 S1393 1.610 . S
N1395 C1396 1.351 . S
C1396 C1390 1.428 . S
C1396 N1395 1.351 . S
C1396 C1397 1.434 . S
C1397 C1388 1.429 . S
C1397 N1394 1.350 . S
C1397 C1396 1.434 . S
C1398 C1399 1.369 . S
C1398 C1400 1.419 . S
C1398 H1402 0.930 . S
C1399 C1398 1.369 . S
C1399 C1408 1.429 . S
C1400 C1398 1.419 . S
C1400 C1401 1.363 . S
C1400 H1403 0.929 . S
C1401 C1400 1.363 . S
C1401 C1407 1.428 . S
H1402 C1398 0.930 . S
H1403 C1400 0.929 . S
S1404 N1405 1.613 . S
S1404 N1406 1.610 . S
N1405 S1404 1.613 . S
N1405 C1408 1.350 . S
N1406 S1404 1.610 . S
N1406 C1407 1.351 . S
C1407 C1401 1.428 . S
C1407 N1406 1.351 . S
C1407 C1408 1.434 . S
C1408 C1399 1.429 . S
C1408 N1405 1.350 . S
C1408 C1407 1.434 . S
C1409 C1410 1.369 . S
C1409 C1411 1.419 . S
C1409 H1413 0.930 . S
C1410 C1409 1.369 . S
C1410 C1419 1.429 . S
C1411 C1409 1.419 . S
C1411 C1412 1.363 . S
C1411 H1414 0.929 . S
C1412 C1411 1.363 . S
C1412 C1418 1.428 . S
H1413 C1409 0.930 . S
H1414 C1411 0.929 . S
S1415 N1416 1.613 . S
S1415 N1417 1.610 . S
N1416 S1415 1.613 . S
N1416 C1419 1.350 . S
N1417 S1415 1.610 . S
N1417 C1418 1.351 . S
C1418 C1412 1.428 . S
C1418 N1417 1.351 . S
C1418 C1419 1.434 . S
C1419 C1410 1.429 . S
C1419 N1416 1.350 . S
C1419 C1418 1.434 . S
C1420 C1421 1.369 . S
C1420 C1422 1.419 . S
C1420 H1424 0.930 . S
C1421 C1420 1.369 . S
C1421 C1430 1.429 . S
C1422 C1420 1.419 . S
C1422 C1423 1.363 . S
C1422 H1425 0.929 . S
C1423 C1422 1.363 . S
C1423 C1429 1.428 . S
H1424 C1420 0.930 . S
H1425 C1422 0.929 . S
S1426 N1427 1.613 . S
S1426 N1428 1.610 . S
N1427 S1426 1.613 . S
N1427 C1430 1.350 . S
N1428 S1426 1.610 . S
N1428 C1429 1.351 . S
C1429 C1423 1.428 . S
C1429 N1428 1.351 . S
C1429 C1430 1.434 . S
C1430 C1421 1.429 . S
C1430 N1427 1.350 . S
C1430 C1429 1.434 . S
C1431 C1432 1.369 . S
C1431 C1433 1.419 . S
C1431 H1435 0.930 . S
C1432 C1431 1.369 . S
C1432 C1441 1.429 . S
C1433 C1431 1.419 . S
C1433 C1434 1.363 . S
C1433 H1436 0.929 . S
C1434 C1433 1.363 . S
C1434 C1440 1.428 . S
H1435 C1431 0.930 . S
H1436 C1433 0.929 . S
S1437 N1438 1.613 . S
S1437 N1439 1.610 . S
N1438 S1437 1.613 . S
N1438 C1441 1.350 . S
N1439 S1437 1.610 . S
N1439 C1440 1.351 . S
C1440 C1434 1.428 . S
C1440 N1439 1.351 . S
C1440 C1441 1.434 . S
C1441 C1432 1.429 . S
C1441 N1438 1.350 . S
C1441 C1440 1.434 . S
C1442 C1443 1.369 . S
C1442 C1444 1.419 . S
C1442 H1446 0.930 . S
C1443 C1442 1.369 . S
C1443 C1452 1.429 . S
C1444 C1442 1.419 . S
C1444 C1445 1.363 . S
C1444 H1447 0.929 . S
C1445 C1444 1.363 . S
C1445 C1451 1.428 . S
H1446 C1442 0.930 . S
H1447 C1444 0.929 . S
S1448 N1449 1.613 . S
S1448 N1450 1.610 . S
N1449 S1448 1.613 . S
N1449 C1452 1.350 . S
N1450 S1448 1.610 . S
N1450 C1451 1.351 . S
C1451 C1445 1.428 . S
C1451 N1450 1.351 . S
C1451 C1452 1.434 . S
C1452 C1443 1.429 . S
C1452 N1449 1.350 . S
C1452 C1451 1.434 . S
C1453 C1454 1.369 . S
C1453 C1455 1.419 . S
C1453 H1457 0.930 . S
C1454 C1453 1.369 . S
C1454 C1463 1.429 . S
C1455 C1453 1.419 . S
C1455 C1456 1.363 . S
C1455 H1458 0.929 . S
C1456 C1455 1.363 . S
C1456 C1462 1.428 . S
H1457 C1453 0.930 . S
H1458 C1455 0.929 . S
S1459 N1460 1.613 . S
S1459 N1461 1.610 . S
N1460 S1459 1.613 . S
N1460 C1463 1.350 . S
N1461 S1459 1.610 . S
N1461 C1462 1.351 . S
C1462 C1456 1.428 . S
C1462 N1461 1.351 . S
C1462 C1463 1.434 . S
C1463 C1454 1.429 . S
C1463 N1460 1.350 . S
C1463 C1462 1.434 . S
C1464 C1465 1.369 . S
C1464 C1466 1.419 1_554 S
C1464 H1468 0.930 . S
C1465 C1464 1.369 . S
C1465 C1474 1.429 . S
C1466 C1464 1.419 1_556 S
C1466 C1467 1.363 . S
C1466 H1469 0.929 . S
C1467 C1466 1.363 . S
C1467 C1473 1.428 . S
H1468 C1464 0.930 . S
H1469 C1466 0.929 . S
S1470 N1471 1.617 1_556 S
S1470 N1472 1.607 . S
N1471 S1470 1.617 1_554 S
N1471 C1474 1.350 . S
N1472 S1470 1.607 . S
N1472 C1473 1.351 . S
C1473 C1467 1.428 . S
C1473 N1472 1.351 . S
C1473 C1474 1.434 1_556 S
C1474 C1465 1.429 . S
C1474 N1471 1.350 . S
C1474 C1473 1.434 1_554 S
C1475 C1476 1.369 . S
C1475 C1477 1.419 1_556 S
C1475 H1479 0.930 . S
C1476 C1475 1.369 . S
C1476 C1485 1.429 . S
C1477 C1475 1.419 1_554 S
C1477 C1478 1.363 . S
C1477 H1480 0.929 . S
C1478 C1477 1.363 . S
C1478 C1484 1.428 . S
H1479 C1475 0.930 . S
H1480 C1477 0.929 . S
S1481 N1482 1.617 1_554 S
S1481 N1483 1.607 . S
N1482 S1481 1.617 1_556 S
N1482 C1485 1.350 . S
N1483 S1481 1.607 . S
N1483 C1484 1.351 . S
C1484 C1478 1.428 . S
C1484 N1483 1.351 . S
C1484 C1485 1.434 1_554 S
C1485 C1476 1.429 . S
C1485 N1482 1.350 . S
C1485 C1484 1.434 1_556 S
C1486 C1487 1.369 . S
C1486 C1488 1.419 1_554 S
C1486 H1490 0.930 . S
C1487 C1486 1.369 . S
C1487 C1496 1.429 . S
C1488 C1486 1.419 1_556 S
C1488 C1489 1.363 . S
C1488 H1491 0.929 . S
C1489 C1488 1.363 . S
C1489 C1495 1.428 . S
H1490 C1486 0.930 . S
H1491 C1488 0.929 . S
S1492 N1493 1.617 1_556 S
S1492 N1494 1.607 . S
N1493 S1492 1.617 1_554 S
N1493 C1496 1.350 . S
N1494 S1492 1.607 . S
N1494 C1495 1.351 . S
C1495 C1489 1.428 . S
C1495 N1494 1.351 . S
C1495 C1496 1.434 1_556 S
C1496 C1487 1.429 . S
C1496 N1493 1.350 . S
C1496 C1495 1.434 1_554 S
C1497 C1498 1.369 . S
C1497 C1499 1.419 1_554 S
C1497 H1501 0.930 . S
C1498 C1497 1.369 . S
C1498 C1507 1.429 . S
C1499 C1497 1.419 1_556 S
C1499 C1500 1.363 . S
C1499 H1502 0.929 . S
C1500 C1499 1.363 . S
C1500 C1506 1.428 . S
H1501 C1497 0.930 . S
H1502 C1499 0.929 . S
S1503 N1504 1.617 1_556 S
S1503 N1505 1.607 . S
N1504 S1503 1.617 1_554 S
N1504 C1507 1.350 . S
N1505 S1503 1.607 . S
N1505 C1506 1.351 . S
C1506 C1500 1.428 . S
C1506 N1505 1.351 . S
C1506 C1507 1.434 1_556 S
C1507 C1498 1.429 . S
C1507 N1504 1.350 . S
C1507 C1506 1.434 1_554 S
C1508 C1509 1.369 . S
C1508 C1510 1.419 1_556 S
C1508 H1512 0.930 . S
C1509 C1508 1.369 . S
C1509 C1518 1.429 . S
C1510 C1508 1.419 1_554 S
C1510 C1511 1.363 . S
C1510 H1513 0.929 . S
C1511 C1510 1.363 . S
C1511 C1517 1.428 . S
H1512 C1508 0.930 . S
H1513 C1510 0.929 . S
S1514 N1515 1.617 1_554 S
S1514 N1516 1.607 . S
N1515 S1514 1.617 1_556 S
N1515 C1518 1.350 . S
N1516 S1514 1.607 . S
N1516 C1517 1.351 . S
C1517 C1511 1.428 . S
C1517 N1516 1.351 . S
C1517 C1518 1.434 1_554 S
C1518 C1509 1.429 . S
C1518 N1515 1.350 . S
C1518 C1517 1.434 1_556 S
C1519 C1520 1.369 . S
C1519 C1521 1.419 1_554 S
C1519 H1523 0.930 . S
C1520 C1519 1.369 . S
C1520 C1529 1.429 . S
C1521 C1519 1.419 1_556 S
C1521 C1522 1.363 . S
C1521 H1524 0.929 . S
C1522 C1521 1.363 . S
C1522 C1528 1.428 . S
H1523 C1519 0.930 . S
H1524 C1521 0.929 . S
S1525 N1526 1.617 1_556 S
S1525 N1527 1.607 . S
N1526 S1525 1.617 1_554 S
N1526 C1529 1.350 . S
N1527 S1525 1.607 . S
N1527 C1528 1.351 . S
C1528 C1522 1.428 . S
C1528 N1527 1.351 . S
C1528 C1529 1.434 1_556 S
C1529 C1520 1.429 . S
C1529 N1526 1.350 . S
C1529 C1528 1.434 1_554 S
C1530 C1531 1.369 . S
C1530 C1532 1.419 1_556 S
C1530 H1534 0.930 . S
C1531 C1530 1.369 . S
C1531 C1540 1.429 . S
C1532 C1530 1.419 1_554 S
C1532 C1533 1.363 . S
C1532 H1535 0.929 . S
C1533 C1532 1.363 . S
C1533 C1539 1.428 . S
H1534 C1530 0.930 . S
H1535 C1532 0.929 . S
S1536 N1537 1.617 1_554 S
S1536 N1538 1.607 . S
N1537 S1536 1.617 1_556 S
N1537 C1540 1.350 . S
N1538 S1536 1.607 . S
N1538 C1539 1.351 . S
C1539 C1533 1.428 . S
C1539 N1538 1.351 . S
C1539 C1540 1.434 1_554 S
C1540 C1531 1.429 . S
C1540 N1537 1.350 . S
C1540 C1539 1.434 1_556 S
C1541 C1542 1.369 . S
C1541 C1543 1.419 1_554 S
C1541 H1545 0.930 . S
C1542 C1541 1.369 . S
C1542 C1551 1.429 . S
C1543 C1541 1.419 1_556 S
C1543 C1544 1.363 . S
C1543 H1546 0.929 . S
C1544 C1543 1.363 . S
C1544 C1550 1.428 . S
H1545 C1541 0.930 . S
H1546 C1543 0.929 . S
S1547 N1548 1.617 1_556 S
S1547 N1549 1.607 . S
N1548 S1547 1.617 1_554 S
N1548 C1551 1.350 . S
N1549 S1547 1.607 . S
N1549 C1550 1.351 . S
C1550 C1544 1.428 . S
C1550 N1549 1.351 . S
C1550 C1551 1.434 1_556 S
C1551 C1542 1.429 . S
C1551 N1548 1.350 . S
C1551 C1550 1.434 1_554 S
C1552 C1553 1.369 . S
C1552 C1554 1.419 1_455 S
C1552 H1556 0.930 . S
C1553 C1552 1.369 . S
C1553 C1562 1.429 . S
C1554 C1552 1.419 1_655 S
C1554 C1555 1.363 . S
C1554 H1557 0.929 . S
C1555 C1554 1.363 . S
C1555 C1561 1.428 . S
H1556 C1552 0.930 . S
H1557 C1554 0.929 . S
S1558 N1559 1.617 1_655 S
S1558 N1560 1.607 . S
N1559 S1558 1.617 1_455 S
N1559 C1562 1.350 . S
N1560 S1558 1.607 . S
N1560 C1561 1.351 . S
C1561 C1555 1.428 . S
C1561 N1560 1.351 . S
C1561 C1562 1.434 1_655 S
C1562 C1553 1.429 . S
C1562 N1559 1.350 . S
C1562 C1561 1.434 1_455 S
C1563 C1564 1.369 . S
C1563 C1565 1.419 1_565 S
C1563 H1567 0.930 . S
C1564 C1563 1.369 . S
C1564 C1573 1.429 . S
C1565 C1563 1.419 1_545 S
C1565 C1566 1.363 . S
C1565 H1568 0.929 . S
C1566 C1565 1.363 . S
C1566 C1572 1.428 . S
H1567 C1563 0.930 . S
H1568 C1565 0.929 . S
S1569 N1570 1.617 1_545 S
S1569 N1571 1.607 . S
N1570 S1569 1.617 1_565 S
N1570 C1573 1.350 . S
N1571 S1569 1.607 . S
N1571 C1572 1.351 . S
C1572 C1566 1.428 . S
C1572 N1571 1.351 . S
C1572 C1573 1.434 1_545 S
C1573 C1564 1.429 . S
C1573 N1570 1.350 . S
C1573 C1572 1.434 1_565 S
C1574 C1575 1.369 . S
C1574 C1576 1.419 1_455 S
C1574 H1578 0.930 . S
C1575 C1574 1.369 . S
C1575 C1584 1.429 . S
C1576 C1574 1.419 1_655 S
C1576 C1577 1.363 . S
C1576 H1579 0.929 . S
C1577 C1576 1.363 . S
C1577 C1583 1.428 . S
H1578 C1574 0.930 . S
H1579 C1576 0.929 . S
S1580 N1581 1.617 1_655 S
S1580 N1582 1.607 . S
N1581 S1580 1.617 1_455 S
N1581 C1584 1.350 . S
N1582 S1580 1.607 . S
N1582 C1583 1.351 . S
C1583 C1577 1.428 . S
C1583 N1582 1.351 . S
C1583 C1584 1.434 1_655 S
C1584 C1575 1.429 . S
C1584 N1581 1.350 . S
C1584 C1583 1.434 1_455 S
C1585 C1586 1.369 . S
C1585 C1587 1.419 1_565 S
C1585 H1589 0.930 . S
C1586 C1585 1.369 . S
C1586 C1595 1.429 . S
C1587 C1585 1.419 1_545 S
C1587 C1588 1.363 . S
C1587 H1590 0.929 . S
C1588 C1587 1.363 . S
C1588 C1594 1.428 . S
H1589 C1585 0.930 . S
H1590 C1587 0.929 . S
S1591 N1592 1.617 1_545 S
S1591 N1593 1.607 . S
N1592 S1591 1.617 1_565 S
N1592 C1595 1.350 . S
N1593 S1591 1.607 . S
N1593 C1594 1.351 . S
C1594 C1588 1.428 . S
C1594 N1593 1.351 . S
C1594 C1595 1.434 1_545 S
C1595 C1586 1.429 . S
C1595 N1592 1.350 . S
C1595 C1594 1.434 1_565 S
C1596 C1597 1.369 . S
C1596 C1598 1.419 1_655 S
C1596 H1600 0.930 . S
C1597 C1596 1.369 . S
C1597 C1606 1.429 . S
C1598 C1596 1.419 1_455 S
C1598 C1599 1.363 . S
C1598 H1601 0.929 . S
C1599 C1598 1.363 . S
C1599 C1605 1.428 . S
H1600 C1596 0.930 . S
H1601 C1598 0.929 . S
S1602 N1603 1.617 1_455 S
S1602 N1604 1.607 . S
N1603 S1602 1.617 1_655 S
N1603 C1606 1.350 . S
N1604 S1602 1.607 . S
N1604 C1605 1.351 . S
C1605 C1599 1.428 . S
C1605 N1604 1.351 . S
C1605 C1606 1.434 1_455 S
C1606 C1597 1.429 . S
C1606 N1603 1.350 . S
C1606 C1605 1.434 1_655 S
C1607 C1608 1.369 . S
C1607 C1609 1.419 1_545 S
C1607 H1611 0.930 . S
C1608 C1607 1.369 . S
C1608 C1617 1.429 . S
C1609 C1607 1.419 1_565 S
C1609 C1610 1.363 . S
C1609 H1612 0.929 . S
C1610 C1609 1.363 . S
C1610 C1616 1.428 . S
H1611 C1607 0.930 . S
H1612 C1609 0.929 . S
S1613 N1614 1.617 1_565 S
S1613 N1615 1.607 . S
N1614 S1613 1.617 1_545 S
N1614 C1617 1.350 . S
N1615 S1613 1.607 . S
N1615 C1616 1.351 . S
C1616 C1610 1.428 . S
C1616 N1615 1.351 . S
C1616 C1617 1.434 1_565 S
C1617 C1608 1.429 . S
C1617 N1614 1.350 . S
C1617 C1616 1.434 1_545 S
C1618 C1619 1.369 . S
C1618 C1620 1.419 1_455 S
C1618 H1622 0.930 . S
C1619 C1618 1.369 . S
C1619 C1628 1.429 . S
C1620 C1618 1.419 1_655 S
C1620 C1621 1.363 . S
C1620 H1623 0.929 . S
C1621 C1620 1.363 . S
C1621 C1627 1.428 . S
H1622 C1618 0.930 . S
H1623 C1620 0.929 . S
S1624 N1625 1.617 1_655 S
S1624 N1626 1.607 . S
N1625 S1624 1.617 1_455 S
N1625 C1628 1.350 . S
N1626 S1624 1.607 . S
N1626 C1627 1.351 . S
C1627 C1621 1.428 . S
C1627 N1626 1.351 . S
C1627 C1628 1.434 1_655 S
C1628 C1619 1.429 . S
C1628 N1625 1.350 . S
C1628 C1627 1.434 1_455 S
C1629 C1630 1.369 . S
C1629 C1631 1.419 1_545 S
C1629 H1633 0.930 . S
C1630 C1629 1.369 . S
C1630 C1639 1.429 . S
C1631 C1629 1.419 1_565 S
C1631 C1632 1.363 . S
C1631 H1634 0.929 . S
C1632 C1631 1.363 . S
C1632 C1638 1.428 . S
H1633 C1629 0.930 . S
H1634 C1631 0.929 . S
S1635 N1636 1.617 1_565 S
S1635 N1637 1.607 . S
N1636 S1635 1.617 1_545 S
N1636 C1639 1.350 . S
N1637 S1635 1.607 . S
N1637 C1638 1.351 . S
C1638 C1632 1.428 . S
C1638 N1637 1.351 . S
C1638 C1639 1.434 1_565 S
C1639 C1630 1.429 . S
C1639 N1636 1.350 . S
C1639 C1638 1.434 1_545 S
C1640 C1641 1.369 . S
C1640 C1642 1.419 1_545 S
C1640 H1644 0.930 . S
C1641 C1640 1.369 . S
C1641 C1650 1.429 . S
C1642 C1640 1.419 1_565 S
C1642 C1643 1.363 . S
C1642 H1645 0.929 . S
C1643 C1642 1.363 . S
C1643 C1649 1.428 . S
H1644 C1640 0.930 . S
H1645 C1642 0.929 . S
S1646 N1647 1.617 1_565 S
S1646 N1648 1.607 . S
N1647 S1646 1.617 1_545 S
N1647 C1650 1.350 . S
N1648 S1646 1.607 . S
N1648 C1649 1.351 . S
C1649 C1643 1.428 . S
C1649 N1648 1.351 . S
C1649 C1650 1.434 1_565 S
C1650 C1641 1.429 . S
C1650 N1647 1.350 . S
C1650 C1649 1.434 1_545 S
C1651 C1652 1.369 . S
C1651 C1653 1.419 1_545 S
C1651 H1655 0.930 . S
C1652 C1651 1.369 . S
C1652 C1661 1.429 . S
C1653 C1651 1.419 1_565 S
C1653 C1654 1.363 . S
C1653 H1656 0.929 . S
C1654 C1653 1.363 . S
C1654 C1660 1.428 . S
H1655 C1651 0.930 . S
H1656 C1653 0.929 . S
S1657 N1658 1.617 1_565 S
S1657 N1659 1.607 . S
N1658 S1657 1.617 1_545 S
N1658 C1661 1.350 . S
N1659 S1657 1.607 . S
N1659 C1660 1.351 . S
C1660 C1654 1.428 . S
C1660 N1659 1.351 . S
C1660 C1661 1.434 1_565 S
C1661 C1652 1.429 . S
C1661 N1658 1.350 . S
C1661 C1660 1.434 1_545 S
C1662 C1663 1.369 . S
C1662 C1664 1.419 1_655 S
C1662 H1666 0.930 . S
C1663 C1662 1.369 . S
C1663 C1672 1.429 . S
C1664 C1662 1.419 1_455 S
C1664 C1665 1.363 . S
C1664 H1667 0.929 . S
C1665 C1664 1.363 . S
C1665 C1671 1.428 . S
H1666 C1662 0.930 . S
H1667 C1664 0.929 . S
S1668 N1669 1.617 1_455 S
S1668 N1670 1.607 . S
N1669 S1668 1.617 1_655 S
N1669 C1672 1.350 . S
N1670 S1668 1.607 . S
N1670 C1671 1.351 . S
C1671 C1665 1.428 . S
C1671 N1670 1.351 . S
C1671 C1672 1.434 1_455 S
C1672 C1663 1.429 . S
C1672 N1669 1.350 . S
C1672 C1671 1.434 1_655 S
C1673 C1674 1.369 . S
C1673 C1675 1.419 1_545 S
C1673 H1677 0.930 . S
C1674 C1673 1.369 . S
C1674 C1683 1.429 . S
C1675 C1673 1.419 1_565 S
C1675 C1676 1.363 . S
C1675 H1678 0.929 . S
C1676 C1675 1.363 . S
C1676 C1682 1.428 . S
H1677 C1673 0.930 . S
H1678 C1675 0.929 . S
S1679 N1680 1.617 1_565 S
S1679 N1681 1.607 . S
N1680 S1679 1.617 1_545 S
N1680 C1683 1.350 . S
N1681 S1679 1.607 . S
N1681 C1682 1.351 . S
C1682 C1676 1.428 . S
C1682 N1681 1.351 . S
C1682 C1683 1.434 1_565 S
C1683 C1674 1.429 . S
C1683 N1680 1.350 . S
C1683 C1682 1.434 1_545 S
C1684 C1685 1.369 . S
C1684 C1686 1.419 1_455 S
C1684 H1688 0.930 . S
C1685 C1684 1.369 . S
C1685 C1694 1.429 . S
C1686 C1684 1.419 1_655 S
C1686 C1687 1.363 . S
C1686 H1689 0.929 . S
C1687 C1686 1.363 . S
C1687 C1693 1.428 . S
H1688 C1684 0.930 . S
H1689 C1686 0.929 . S
S1690 N1691 1.617 1_655 S
S1690 N1692 1.607 . S
N1691 S1690 1.617 1_455 S
N1691 C1694 1.350 . S
N1692 S1690 1.607 . S
N1692 C1693 1.351 . S
C1693 C1687 1.428 . S
C1693 N1692 1.351 . S
C1693 C1694 1.434 1_655 S
C1694 C1685 1.429 . S
C1694 N1691 1.350 . S
C1694 C1693 1.434 1_455 S
C1695 C1696 1.369 . S
C1695 C1697 1.419 1_545 S
C1695 H1699 0.930 . S
C1696 C1695 1.369 . S
C1696 C1705 1.429 . S
C1697 C1695 1.419 1_565 S
C1697 C1698 1.363 . S
C1697 H1700 0.929 . S
C1698 C1697 1.363 . S
C1698 C1704 1.428 . S
H1699 C1695 0.930 . S
H1700 C1697 0.929 . S
S1701 N1702 1.617 1_565 S
S1701 N1703 1.607 . S
N1702 S1701 1.617 1_545 S
N1702 C1705 1.350 . S
N1703 S1701 1.607 . S
N1703 C1704 1.351 . S
C1704 C1698 1.428 . S
C1704 N1703 1.351 . S
C1704 C1705 1.434 1_565 S
C1705 C1696 1.429 . S
C1705 N1702 1.350 . S
C1705 C1704 1.434 1_545 S
C1706 C1707 1.369 . S
C1706 C1708 1.419 1_655 S
C1706 H1710 0.930 . S
C1707 C1706 1.369 . S
C1707 C1716 1.429 . S
C1708 C1706 1.419 1_455 S
C1708 C1709 1.363 . S
C1708 H1711 0.929 . S
C1709 C1708 1.363 . S
C1709 C1715 1.428 . S
H1710 C1706 0.930 . S
H1711 C1708 0.929 . S
S1712 N1713 1.617 1_455 S
S1712 N1714 1.607 . S
N1713 S1712 1.617 1_655 S
N1713 C1716 1.350 . S
N1714 S1712 1.607 . S
N1714 C1715 1.351 . S
C1715 C1709 1.428 . S
C1715 N1714 1.351 . S
C1715 C1716 1.434 1_455 S
C1716 C1707 1.429 . S
C1716 N1713 1.350 . S
C1716 C1715 1.434 1_655 S
C1717 C1718 1.369 . S
C1717 C1719 1.419 1_455 S
C1717 H1721 0.930 . S
C1718 C1717 1.369 . S
C1718 C1727 1.429 . S
C1719 C1717 1.419 1_655 S
C1719 C1720 1.363 . S
C1719 H1722 0.929 . S
C1720 C1719 1.363 . S
C1720 C1726 1.428 . S
H1721 C1717 0.930 . S
H1722 C1719 0.929 . S
S1723 N1724 1.617 1_655 S
S1723 N1725 1.607 . S
N1724 S1723 1.617 1_455 S
N1724 C1727 1.350 . S
N1725 S1723 1.607 . S
N1725 C1726 1.351 . S
C1726 C1720 1.428 . S
C1726 N1725 1.351 . S
C1726 C1727 1.434 1_655 S
C1727 C1718 1.429 . S
C1727 N1724 1.350 . S
C1727 C1726 1.434 1_455 S
C673 C553 1.408 . S
C675 C7 1.409 . S
C684 C20 1.408 . S
C686 C511 1.408 . S
C695 C35 1.407 . S
C697 C525 1.408 . S
C706 C538 1.409 . S
C708 C48 1.410 . S
C717 C468 1.408 . S
C719 C62 1.408 . S
C728 C77 1.414 . S
C730 C483 1.413 . S
C739 C90 1.407 . S
C741 C497 1.408 . S
C750 C105 1.413 . S
C752 C454 1.413 . S
C761 C118 1.411 . S
C763 C441 1.411 . S
C772 C398 1.412 . S
C774 C132 1.412 . S
C783 C413 1.414 . S
C785 C147 1.413 . S
C794 C161 1.413 . S
C796 C426 1.413 . S
C805 C175 1.409 . S
C807 C356 1.409 . S
C816 C189 1.413 . S
C818 C371 1.412 . S
C827 C384 1.406 . S
C829 C202 1.407 . S
C838 C343 1.408 . S
C840 C217 1.408 . S
C849 C230 1.412 . S
C851 C622 1.412 . S
C860 C665 1.412 . S
C862 C245 1.412 . S
C871 C636 1.408 . S
C873 C258 1.408 . S
C882 C651 1.406 . S
C884 C273 1.407 . S
C893 C566 1.410 . S
C895 C286 1.410 . S
C904 C594 1.413 . S
C906 C300 1.413 . S
C915 C315 1.406 . S
C917 C609 1.407 . S
C926 C581 1.411 . S
C928 C329 1.411 . S
C937 C455 1.407 . S
C939 C287 1.408 . S
C948 C244 1.413 . S
C950 C469 1.413 . S
C959 C482 1.411 . S
C961 C259 1.410 . S
C970 C496 1.408 . S
C972 C272 1.408 . S
C981 C328 1.410 . S
C983 C510 1.410 . S
C992 C524 1.414 . S
C994 C301 1.413 . S
C1003 C314 1.414 . S
C1005 C539 1.413 . S
C1014 C231 1.410 . S
C1016 C552 1.410 . S
C1025 C567 1.409 . S
C1027 C216 1.410 . S
C1036 C174 1.408 . S
C1038 C664 1.409 . S
C1047 C637 1.406 . S
C1049 C188 1.407 . S
C1058 C203 1.406 . S
C1060 C650 1.407 . S
C1069 C133 1.407 . S
C1071 C580 1.408 . S
C1080 C146 1.406 . S
C1082 C595 1.407 . S
C1091 C160 1.406 . S
C1093 C608 1.407 . S
C1102 C623 1.414 . S
C1104 C119 1.413 . S
C1113 C342 1.413 . S
C1115 C104 1.412 . S
C1124 C399 1.407 . S
C1126 C21 1.407 . S
C1135 C412 1.414 . S
C1137 C34 1.413 . S
C1146 C427 1.414 . S
C1148 C49 1.413 . S
C1157 C440 1.407 . S
C1159 C6 1.407 . S
C1168 C76 1.412 . S
C1170 C370 1.411 . S
C1179 C385 1.408 . S
C1181 C91 1.408 . S
C1190 C357 1.414 . S
C1192 C63 1.413 . S
C1201 C8 1.507 . S
C1203 C372 1.507 . S
C1212 C387 1.507 . S
C1214 C23 1.508 . S
C1223 C36 1.512 . S
C1225 C344 1.512 . S
C1234 C51 1.513 . S
C1236 C359 1.512 . S
C1245 C65 1.513 . S
C1247 C429 1.512 . S
C1256 C442 1.511 . S
C1258 C78 1.511 . S
C1267 C93 1.507 . S
C1269 C401 1.508 . S
C1278 C414 1.510 . S
C1280 C106 1.510 . S
C1289 C121 1.513 . S
C1291 C512 1.512 . S
C1300 C526 1.513 . S
C1302 C135 1.512 . S
C1311 C148 1.512 . S
C1313 C541 1.512 . S
C1322 C162 1.507 . S
C1324 C554 1.508 . S
C1333 C176 1.511 . S
C1335 C457 1.511 . S
C1344 C190 1.507 . S
C1346 C471 1.507 . S
C1355 C484 1.508 . S
C1357 C205 1.508 . S
C1366 C218 1.513 . S
C1368 C498 1.512 . S
C1377 C610 1.511 . S
C1379 C233 1.511 . S
C1388 C246 1.511 . S
C1390 C639 1.511 . S
C1399 C261 1.507 . S
C1401 C652 1.507 . S
C1410 C569 1.507 . S
C1412 C274 1.508 . S
C1421 C666 1.509 . S
C1423 C289 1.509 . S
C1432 C303 1.510 . S
C1434 C582 1.510 . S
C1443 C597 1.512 . S
C1445 C316 1.512 . S
C1454 C330 1.511 . S
C1456 C625 1.511 . S
C1465 C596 1.507 . S
C1467 C288 1.508 . S
C1476 C247 1.510 . S
C1478 C611 1.510 . S
C1487 C624 1.512 . S
C1489 C260 1.512 . S
C1498 C583 1.510 . S
C1500 C275 1.510 . S
C1509 C653 1.507 . S
C1511 C331 1.508 . S
C1520 C302 1.513 . S
C1522 C568 1.512 . S
C1531 C667 1.513 . S
C1533 C317 1.512 . S
C1542 C232 1.513 . S
C1544 C638 1.512 . S
C1553 C470 1.513 . S
C1555 C219 1.512 . S
C1564 C177 1.508 . S
C1566 C485 1.509 . S
C1575 C191 1.510 . S
C1577 C499 1.510 . S
C1586 C456 1.507 . S
C1588 C204 1.508 . S
C1597 C134 1.509 . S
C1599 C555 1.509 . S
C1608 C513 1.510 . S
C1610 C149 1.510 . S
C1619 C163 1.510 . S
C1621 C527 1.509 . S
C1630 C120 1.513 . S
C1632 C540 1.512 . S
C1641 C386 1.511 . S
C1643 C107 1.511 . S
C1652 C22 1.511 . S
C1654 C415 1.511 . S
C1663 C37 1.511 . S
C1665 C428 1.510 . S
C1674 C443 1.508 . S
C1676 C50 1.509 . S
C1685 C9 1.511 . S
C1687 C400 1.511 . S
C1696 C79 1.507 . S
C1698 C358 1.508 . S
C1707 C92 1.512 . S
C1709 C373 1.511 . S
C1718 C64 1.509 . S
C1720 C345 1.509 . S
