# Generated by pormake.
# Topology uoa, (4)-cn, num edge types: 1
# Building blocks:
#     Node 0, Type 0, BuildingBlock: GALJAG_clean_sbu_0, # of connection points: 4
#     Node 1, Type 0, BuildingBlock: GALJAG_clean_sbu_0, # of connection points: 4
#     Node 2, Type 0, BuildingBlock: GALJAG_clean_sbu_0, # of connection points: 4
#     Node 3, Type 0, BuildingBlock: GALJAG_clean_sbu_0, # of connection points: 4
#     Node 4, Type 0, BuildingBlock: GALJAG_clean_sbu_0, # of connection points: 4
#     Node 5, Type 0, BuildingBlock: GALJAG_clean_sbu_0, # of connection points: 4
#     Node 6, Type 0, BuildingBlock: GALJAG_clean_sbu_0, # of connection points: 4
#     Node 7, Type 0, BuildingBlock: GALJAG_clean_sbu_0, # of connection points: 4
#     Node 8, Type 0, BuildingBlock: GALJAG_clean_sbu_0, # of connection points: 4
#     Node 9, Type 0, BuildingBlock: GALJAG_clean_sbu_0, # of connection points: 4
#     Node 10, Type 0, BuildingBlock: GALJAG_clean_sbu_0, # of connection points: 4
#     Node 11, Type 0, BuildingBlock: GALJAG_clean_sbu_0, # of connection points: 4
#     Node 12, Type 0, BuildingBlock: GALJAG_clean_sbu_0, # of connection points: 4
#     Node 13, Type 0, BuildingBlock: GALJAG_clean_sbu_0, # of connection points: 4
#     Node 14, Type 0, BuildingBlock: GALJAG_clean_sbu_0, # of connection points: 4
#     Node 15, Type 0, BuildingBlock: GALJAG_clean_sbu_0, # of connection points: 4
#     Node 16, Type 0, BuildingBlock: GALJAG_clean_sbu_0, # of connection points: 4
#     Node 17, Type 0, BuildingBlock: GALJAG_clean_sbu_0, # of connection points: 4
#     Node 18, Type 0, BuildingBlock: GALJAG_clean_sbu_0, # of connection points: 4
#     Node 19, Type 0, BuildingBlock: GALJAG_clean_sbu_0, # of connection points: 4
#     Node 20, Type 0, BuildingBlock: GALJAG_clean_sbu_0, # of connection points: 4
#     Node 21, Type 0, BuildingBlock: GALJAG_clean_sbu_0, # of connection points: 4
#     Node 22, Type 0, BuildingBlock: GALJAG_clean_sbu_0, # of connection points: 4
#     Node 23, Type 0, BuildingBlock: GALJAG_clean_sbu_0, # of connection points: 4
#     Node 24, Type 0, BuildingBlock: GALJAG_clean_sbu_0, # of connection points: 4
#     Node 25, Type 0, BuildingBlock: GALJAG_clean_sbu_0, # of connection points: 4
#     Node 26, Type 0, BuildingBlock: GALJAG_clean_sbu_0, # of connection points: 4
#     Node 27, Type 0, BuildingBlock: GALJAG_clean_sbu_0, # of connection points: 4
#     Node 28, Type 0, BuildingBlock: GALJAG_clean_sbu_0, # of connection points: 4
#     Node 29, Type 0, BuildingBlock: GALJAG_clean_sbu_0, # of connection points: 4
#     Node 30, Type 0, BuildingBlock: GALJAG_clean_sbu_0, # of connection points: 4
#     Node 31, Type 0, BuildingBlock: GALJAG_clean_sbu_0, # of connection points: 4
#     Edge 32, Type (0, 0), BuildingBlock: OJICUG_clean_linker_0, # of connection points: 2
#     Edge 33, Type (0, 0), BuildingBlock: OJICUG_clean_linker_0, # of connection points: 2
#     Edge 34, Type (0, 0), BuildingBlock: OJICUG_clean_linker_0, # of connection points: 2
#     Edge 35, Type (0, 0), BuildingBlock: OJICUG_clean_linker_0, # of connection points: 2
#     Edge 36, Type (0, 0), BuildingBlock: OJICUG_clean_linker_0, # of connection points: 2
#     Edge 37, Type (0, 0), BuildingBlock: OJICUG_clean_linker_0, # of connection points: 2
#     Edge 38, Type (0, 0), BuildingBlock: OJICUG_clean_linker_0, # of connection points: 2
#     Edge 39, Type (0, 0), BuildingBlock: OJICUG_clean_linker_0, # of connection points: 2
#     Edge 40, Type (0, 0), BuildingBlock: OJICUG_clean_linker_0, # of connection points: 2
#     Edge 41, Type (0, 0), BuildingBlock: OJICUG_clean_linker_0, # of connection points: 2
#     Edge 42, Type (0, 0), BuildingBlock: OJICUG_clean_linker_0, # of connection points: 2
#     Edge 43, Type (0, 0), BuildingBlock: OJICUG_clean_linker_0, # of connection points: 2
#     Edge 44, Type (0, 0), BuildingBlock: OJICUG_clean_linker_0, # of connection points: 2
#     Edge 45, Type (0, 0), BuildingBlock: OJICUG_clean_linker_0, # of connection points: 2
#     Edge 46, Type (0, 0), BuildingBlock: OJICUG_clean_linker_0, # of connection points: 2
#     Edge 47, Type (0, 0), BuildingBlock: OJICUG_clean_linker_0, # of connection points: 2
#     Edge 48, Type (0, 0), BuildingBlock: OJICUG_clean_linker_0, # of connection points: 2
#     Edge 49, Type (0, 0), BuildingBlock: OJICUG_clean_linker_0, # of connection points: 2
#     Edge 50, Type (0, 0), BuildingBlock: OJICUG_clean_linker_0, # of connection points: 2
#     Edge 51, Type (0, 0), BuildingBlock: OJICUG_clean_linker_0, # of connection points: 2
#     Edge 52, Type (0, 0), BuildingBlock: OJICUG_clean_linker_0, # of connection points: 2
#     Edge 53, Type (0, 0), BuildingBlock: OJICUG_clean_linker_0, # of connection points: 2
#     Edge 54, Type (0, 0), BuildingBlock: OJICUG_clean_linker_0, # of connection points: 2
#     Edge 55, Type (0, 0), BuildingBlock: OJICUG_clean_linker_0, # of connection points: 2
#     Edge 56, Type (0, 0), BuildingBlock: OJICUG_clean_linker_0, # of connection points: 2
#     Edge 57, Type (0, 0), BuildingBlock: OJICUG_clean_linker_0, # of connection points: 2
#     Edge 58, Type (0, 0), BuildingBlock: OJICUG_clean_linker_0, # of connection points: 2
#     Edge 59, Type (0, 0), BuildingBlock: OJICUG_clean_linker_0, # of connection points: 2
#     Edge 60, Type (0, 0), BuildingBlock: OJICUG_clean_linker_0, # of connection points: 2
#     Edge 61, Type (0, 0), BuildingBlock: OJICUG_clean_linker_0, # of connection points: 2
#     Edge 62, Type (0, 0), BuildingBlock: OJICUG_clean_linker_0, # of connection points: 2
#     Edge 63, Type (0, 0), BuildingBlock: OJICUG_clean_linker_0, # of connection points: 2
#     Edge 64, Type (0, 0), BuildingBlock: OJICUG_clean_linker_0, # of connection points: 2
#     Edge 65, Type (0, 0), BuildingBlock: OJICUG_clean_linker_0, # of connection points: 2
#     Edge 66, Type (0, 0), BuildingBlock: OJICUG_clean_linker_0, # of connection points: 2
#     Edge 67, Type (0, 0), BuildingBlock: OJICUG_clean_linker_0, # of connection points: 2
#     Edge 68, Type (0, 0), BuildingBlock: OJICUG_clean_linker_0, # of connection points: 2
#     Edge 69, Type (0, 0), BuildingBlock: OJICUG_clean_linker_0, # of connection points: 2
#     Edge 70, Type (0, 0), BuildingBlock: OJICUG_clean_linker_0, # of connection points: 2
#     Edge 71, Type (0, 0), BuildingBlock: OJICUG_clean_linker_0, # of connection points: 2
#     Edge 72, Type (0, 0), BuildingBlock: OJICUG_clean_linker_0, # of connection points: 2
#     Edge 73, Type (0, 0), BuildingBlock: OJICUG_clean_linker_0, # of connection points: 2
#     Edge 74, Type (0, 0), BuildingBlock: OJICUG_clean_linker_0, # of connection points: 2
#     Edge 75, Type (0, 0), BuildingBlock: OJICUG_clean_linker_0, # of connection points: 2
#     Edge 76, Type (0, 0), BuildingBlock: OJICUG_clean_linker_0, # of connection points: 2
#     Edge 77, Type (0, 0), BuildingBlock: OJICUG_clean_linker_0, # of connection points: 2
#     Edge 78, Type (0, 0), BuildingBlock: OJICUG_clean_linker_0, # of connection points: 2
#     Edge 79, Type (0, 0), BuildingBlock: OJICUG_clean_linker_0, # of connection points: 2
#     Edge 80, Type (0, 0), BuildingBlock: OJICUG_clean_linker_0, # of connection points: 2
#     Edge 81, Type (0, 0), BuildingBlock: OJICUG_clean_linker_0, # of connection points: 2
#     Edge 82, Type (0, 0), BuildingBlock: OJICUG_clean_linker_0, # of connection points: 2
#     Edge 83, Type (0, 0), BuildingBlock: OJICUG_clean_linker_0, # of connection points: 2
#     Edge 84, Type (0, 0), BuildingBlock: OJICUG_clean_linker_0, # of connection points: 2
#     Edge 85, Type (0, 0), BuildingBlock: OJICUG_clean_linker_0, # of connection points: 2
#     Edge 86, Type (0, 0), BuildingBlock: OJICUG_clean_linker_0, # of connection points: 2
#     Edge 87, Type (0, 0), BuildingBlock: OJICUG_clean_linker_0, # of connection points: 2
#     Edge 88, Type (0, 0), BuildingBlock: OJICUG_clean_linker_0, # of connection points: 2
#     Edge 89, Type (0, 0), BuildingBlock: OJICUG_clean_linker_0, # of connection points: 2
#     Edge 90, Type (0, 0), BuildingBlock: OJICUG_clean_linker_0, # of connection points: 2
#     Edge 91, Type (0, 0), BuildingBlock: OJICUG_clean_linker_0, # of connection points: 2
#     Edge 92, Type (0, 0), BuildingBlock: OJICUG_clean_linker_0, # of connection points: 2
#     Edge 93, Type (0, 0), BuildingBlock: OJICUG_clean_linker_0, # of connection points: 2
#     Edge 94, Type (0, 0), BuildingBlock: OJICUG_clean_linker_0, # of connection points: 2
#     Edge 95, Type (0, 0), BuildingBlock: OJICUG_clean_linker_0, # of connection points: 2
# Relax obj value: 0.050
# Max RMSD: 0.160
# Mean RMSD: 0.160
data_MOF--net-uoa--node1-GALJAG_clean_sbu_0--edge1-OJICUG_clean_linker_0
_symmetry_space_group_name_H-M    P1
_symmetry_Int_Tables_number       1
_symmetry_cell_setting            triclinic
loop_
_symmetry_equiv_pos_as_xyz
'x, y, z'
_cell_length_a     55.122048
_cell_length_b     55.153276
_cell_length_c     20.802341
_cell_angle_alpha  90.004453
_cell_angle_beta   89.984321
_cell_angle_gamma 89.714061
loop_
_atom_site_label
_atom_site_type_symbol
_atom_site_fract_x
_atom_site_fract_y
_atom_site_fract_z
_atom_type_partial_charge
In0 In 0.0281 0.0724 0.05328 0.0
O1 O 0.06849 0.07877 0.07179 0.0
O2 O 0.04493 0.10854 0.04742 0.0
C3 C 0.01215 0.02692 0.05004 0.0
C4 C 0.01287 0.08396 0.17051 0.0
C5 C 0.01762 0.08184 0.93145 0.0
O6 O 0.03476 0.03134 0.04712 0.0
O7 O -0.00145 0.04524 0.05592 0.0
O8 O 0.00429 0.08926 0.97718 0.0
O9 O 0.03641 0.07006 0.94769 0.0
C10 C 0.06597 0.10148 0.06307 0.0
O11 O 0.00099 0.09028 0.12099 0.0
O12 O 0.03192 0.07171 0.16024 0.0
In13 In 0.12703 0.74798 0.27215 0.0
O14 O 0.11277 0.71999 0.34528 0.0
O15 O 0.14448 0.74035 0.36779 0.0
C16 C 0.11124 0.73744 0.15248 0.0
C17 C 0.09876 0.78306 0.32142 0.0
C18 C 0.17406 0.7441 0.24151 0.0
O19 O 0.11119 0.72202 0.19764 0.0
O20 O 0.11779 0.75846 0.16899 0.0
O21 O 0.16424 0.76458 0.25235 0.0
O22 O 0.16009 0.72609 0.24624 0.0
C23 C 0.1292 0.72487 0.38585 0.0
O24 O 0.12053 0.78728 0.30542 0.0
O25 O 0.09128 0.7621 0.30778 0.0
In26 In 0.4571 0.90049 0.54866 0.0
O27 O 0.48348 0.87938 0.61417 0.0
O28 O 0.45461 0.89954 0.65685 0.0
C29 C 0.46817 0.88668 0.42831 0.0
C30 C 0.41313 0.88102 0.56144 0.0
C31 C 0.47215 0.94659 0.53826 0.0
O32 O 0.48132 0.88094 0.47592 0.0
O33 O 0.44933 0.89872 0.44192 0.0
O34 O 0.44996 0.94099 0.53541 0.0
O35 O 0.4864 0.9291 0.54848 0.0
C36 C 0.4726 0.88573 0.66511 0.0
O37 O 0.41684 0.90315 0.57416 0.0
O38 O 0.43135 0.86936 0.54088 0.0
In39 In 0.33176 0.2176 0.77645 0.0
O40 O 0.34808 0.24665 0.84166 0.0
O41 O 0.32713 0.21798 0.88318 0.0
C42 C 0.34734 0.22504 0.65656 0.0
C43 C 0.35853 0.17959 0.81171 0.0
C44 C 0.2853 0.23059 0.75813 0.0
O45 O 0.35118 0.24003 0.70151 0.0
O46 O 0.33632 0.20596 0.67287 0.0
O47 O 0.2917 0.20848 0.7614 0.0
O48 O 0.3022 0.24565 0.76563 0.0
C49 C 0.34017 0.23643 0.89206 0.0
O50 O 0.33574 0.17751 0.80468 0.0
O51 O 0.36728 0.19985 0.79576 0.0
In52 In -0.00048 0.87646 0.49806 0.0
O53 O 0.03927 0.86979 0.47102 0.0
O54 O 0.01583 0.83944 0.48434 0.0
C55 C 0.99249 0.92464 0.5082 0.0
C56 C 0.98053 0.86886 0.38143 0.0
C57 C 0.98855 0.86403 0.61976 0.0
O58 O 0.01351 0.91525 0.50984 0.0
O59 O 0.97543 0.90976 0.50091 0.0
O60 O 0.97385 0.86106 0.57366 0.0
O61 O 0.009 0.87236 0.60384 0.0
C62 C 0.03649 0.847 0.46741 0.0
O63 O 0.96902 0.86295 0.43181 0.0
O64 O 0.00063 0.87907 0.39066 0.0
In65 In 0.32552 0.7776 0.71907 0.0
O66 O 0.34601 0.75324 0.64782 0.0
O67 O 0.31091 0.76682 0.62205 0.0
C68 C 0.34375 0.77259 0.83803 0.0
C69 C 0.3455 0.81744 0.67113 0.0
C70 C 0.28174 0.76119 0.7511 0.0
O71 O 0.34785 0.75733 0.79376 0.0
O72 O 0.33173 0.79106 0.82087 0.0
O73 O 0.28496 0.78334 0.73666 0.0
O74 O 0.30046 0.74791 0.74865 0.0
C75 C 0.32942 0.75473 0.60581 0.0
O76 O 0.32363 0.81788 0.69017 0.0
O77 O 0.35687 0.79786 0.68028 0.0
In78 In 0.46269 0.08546 0.95916 0.0
O79 O 0.49154 0.10246 0.89408 0.0
O80 O 0.46152 0.08402 0.85148 0.0
C81 C 0.47337 0.09797 0.08004 0.0
C82 C 0.42371 0.11296 0.93636 0.0
C83 C 0.47386 0.03826 0.97101 0.0
O84 O 0.48765 0.10214 0.03365 0.0
O85 O 0.45348 0.08824 0.06487 0.0
O86 O 0.45205 0.04566 0.97259 0.0
O87 O 0.48944 0.05451 0.96141 0.0
C88 C 0.48056 0.09623 0.84323 0.0
O89 O 0.42254 0.09002 0.9329 0.0
O90 O 0.44385 0.12125 0.95508 0.0
In91 In 0.14819 0.21814 0.19012 0.0
O92 O 0.14827 0.17731 0.1707 0.0
O93 O 0.11482 0.19728 0.16763 0.0
C94 C 0.19451 0.23091 0.20773 0.0
C95 C 0.13899 0.23615 0.07337 0.0
C96 C 0.13153 0.22731 0.30868 0.0
O97 O 0.18811 0.20892 0.20521 0.0
O98 O 0.17765 0.24614 0.19997 0.0
O99 O 0.12824 0.24185 0.26241 0.0
O100 O 0.14234 0.20784 0.29429 0.0
C101 C 0.1257 0.17732 0.15914 0.0
O102 O 0.13045 0.24613 0.1234 0.0
O103 O 0.15276 0.21818 0.08298 0.0
In104 In 0.94597 0.89034 0.9995 0.0
O105 O 0.97033 0.86646 0.93417 0.0
O106 O 0.94356 0.88913 0.8912 0.0
C107 C 0.9522 0.87251 0.1186 0.0
C108 C 0.89906 0.88146 0.97817 0.0
C109 C 0.96768 0.93364 0.01368 0.0
O110 O 0.96476 0.86515 0.07143 0.0
O111 O 0.93632 0.88822 0.10502 0.0
O112 O 0.94499 0.931 0.01724 0.0
O113 O 0.9794 0.91452 0.0017 0.0
C114 C 0.96017 0.87373 0.88306 0.0
O115 O 0.90825 0.90211 0.96828 0.0
O116 O 0.91342 0.86576 0.00128 0.0
In117 In 0.86119 0.2303 0.72654 0.0
O118 O 0.86168 0.19003 0.70101 0.0
O119 O 0.8953 0.20912 0.70755 0.0
C120 C 0.81428 0.24249 0.74168 0.0
C121 C 0.87019 0.2486 0.60931 0.0
C122 C 0.87537 0.23529 0.8501 0.0
O123 O 0.82131 0.22069 0.73656 0.0
O124 O 0.8309 0.25809 0.7379 0.0
O125 O 0.88109 0.25077 0.80763 0.0
O126 O 0.86341 0.2175 0.8293 0.0
C127 C 0.88453 0.18955 0.69415 0.0
O128 O 0.87787 0.25924 0.65944 0.0
O129 O 0.85756 0.23 0.61927 0.0
In130 In 0.52005 0.08863 0.46228 0.0
O131 O 0.49184 0.10384 0.39229 0.0
O132 O 0.52134 0.08239 0.35594 0.0
C133 C 0.51071 0.1037 0.58185 0.0
C134 C 0.55856 0.11504 0.4323 0.0
C135 C 0.50673 0.0427 0.48184 0.0
O136 O 0.49637 0.10799 0.53555 0.0
O137 O 0.53014 0.09284 0.56687 0.0
O138 O 0.52895 0.04856 0.47949 0.0
O139 O 0.49188 0.05981 0.47267 0.0
C140 C 0.50266 0.09493 0.34383 0.0
O141 O 0.56054 0.09229 0.44046 0.0
O142 O 0.53783 0.12398 0.44369 0.0
In143 In 0.67035 0.77649 0.18127 0.0
O144 O 0.66049 0.74617 0.11168 0.0
O145 O 0.67413 0.77959 0.07412 0.0
C146 C 0.658 0.76267 0.29982 0.0
C147 C 0.63517 0.80887 0.15953 0.0
C148 C 0.71859 0.7723 0.19606 0.0
O149 O 0.65633 0.7486 0.25191 0.0
O150 O 0.66542 0.78381 0.28738 0.0
O151 O 0.70832 0.79297 0.19478 0.0
O152 O 0.70456 0.75453 0.18885 0.0
C153 C 0.66587 0.75871 0.06268 0.0
O154 O 0.6572 0.81546 0.16304 0.0
O155 O 0.63143 0.78665 0.17015 0.0
In156 In 0.96946 0.07548 0.5511 0.0
O157 O 0.93101 0.08915 0.57364 0.0
O158 O 0.96014 0.11446 0.56366 0.0
C159 C 0.97461 0.02737 0.5383 0.0
C160 C 0.98734 0.07967 0.66888 0.0
C161 C 0.98184 0.08767 0.43184 0.0
O162 O 0.95373 0.03727 0.53856 0.0
O163 O 0.99215 0.04175 0.54487 0.0
O164 O -0.00364 0.08972 0.47872 0.0
O165 O 0.96091 0.07995 0.44572 0.0
C166 C 0.93809 0.11102 0.57735 0.0
O167 O -1e-05 0.08504 0.62 0.0
O168 O 0.96639 0.07154 0.65758 0.0
In169 In 0.66166 0.21453 0.30856 0.0
O170 O 0.64678 0.24325 0.37742 0.0
O171 O 0.6646 0.21179 0.41574 0.0
C172 C 0.6515 0.22588 0.18683 0.0
C173 C 0.63098 0.17824 0.32693 0.0
C174 C 0.70854 0.22573 0.29943 0.0
O175 O 0.64603 0.23982 0.23316 0.0
O176 O 0.6612 0.2059 0.20249 0.0
O177 O 0.70176 0.20374 0.29865 0.0
O178 O 0.69181 0.24117 0.30647 0.0
C179 C 0.65356 0.23149 0.42674 0.0
O180 O 0.65376 0.17459 0.32867 0.0
O181 O 0.62442 0.19957 0.31252 0.0
In182 In 0.515 0.89312 0.04525 0.0
O183 O 0.48709 0.87784 0.11626 0.0
O184 O 0.51708 0.89814 0.15242 0.0
C185 C 0.50354 0.87801 0.92629 0.0
C186 C 0.55541 0.86778 0.06915 0.0
C187 C 0.50313 0.9399 0.02693 0.0
O188 O 0.48965 0.87456 0.97391 0.0
O189 O 0.52346 0.88802 0.93956 0.0
O190 O 0.52503 0.93279 0.02742 0.0
O191 O 0.48771 0.92358 0.03735 0.0
C192 C 0.49824 0.88611 0.16478 0.0
O193 O 0.55588 0.89065 0.06291 0.0
O194 O 0.53494 0.85809 0.06011 0.0
In195 In 0.85279 0.78506 0.75498 0.0
O196 O 0.88388 0.78608 0.82848 0.0
O197 O 0.86012 0.75596 0.83037 0.0
C198 C 0.87416 0.78564 0.63762 0.0
C199 C 0.84453 0.82683 0.81718 0.0
C200 C 0.81016 0.76437 0.72525 0.0
O201 O 0.87852 0.76932 0.67871 0.0
O202 O 0.86021 0.80218 0.6572 0.0
O203 O 0.81325 0.787 0.72631 0.0
O204 O 0.8286 0.75196 0.73999 0.0
C205 C 0.87732 0.76706 0.85724 0.0
O206 O 0.83351 0.80752 0.83115 0.0
O207 O 0.85842 0.82531 0.76896 0.0
In208 In 0.52067 0.58945 0.56343 0.0
O209 O 0.56143 0.59233 0.58166 0.0
O210 O 0.53945 0.62451 0.57948 0.0
C211 C 0.50914 0.54276 0.54782 0.0
C212 C 0.5031 0.59816 0.6807 0.0
C213 C 0.51056 0.60404 0.44387 0.0
O214 O 0.53102 0.54966 0.54994 0.0
O215 O 0.49353 0.55929 0.55528 0.0
O216 O 0.4961 0.60771 0.4902 0.0
O217 O 0.53035 0.59389 0.45866 0.0
C218 C 0.56013 0.61515 0.58877 0.0
O219 O 0.49224 0.60585 0.63097 0.0
O220 O 0.52189 0.58556 0.67058 0.0
In221 In 0.66659 0.27557 0.80768 0.0
O222 O 0.65828 0.31542 0.831 0.0
O223 O 0.62918 0.29037 0.81759 0.0
C224 C 0.71423 0.26744 0.79212 0.0
C225 C 0.65956 0.25736 0.92522 0.0
C226 C 0.65317 0.26345 0.68845 0.0
O227 O 0.70565 0.28883 0.79258 0.0
O228 O 0.69891 0.2509 0.80107 0.0
O229 O 0.65035 0.24933 0.73585 0.0
O230 O 0.66212 0.2839 0.70178 0.0
C231 C 0.63558 0.31159 0.83259 0.0
O232 O 0.65322 0.24581 0.87536 0.0
O233 O 0.67008 0.27727 0.91514 0.0
In234 In 0.94454 0.4104 0.02998 0.0
O235 O 0.97006 0.38885 0.09708 0.0
O236 O 0.94206 0.41084 0.13788 0.0
C237 C 0.95416 0.39872 0.90757 0.0
C238 C 0.90046 0.39157 0.04464 0.0
C239 C 0.96396 0.45473 0.02421 0.0
O240 O 0.96626 0.38991 0.95397 0.0
O241 O 0.93684 0.41258 0.92343 0.0
O242 O 0.9412 0.45172 0.02159 0.0
O243 O 0.97628 0.43561 0.03098 0.0
C244 C 0.95961 0.39657 0.14748 0.0
O245 O 0.90461 0.41369 0.05666 0.0
O246 O 0.91823 0.37958 0.02272 0.0
In247 In 0.86874 0.74714 0.25298 0.0
O248 O 0.88338 0.77737 0.31931 0.0
O249 O 0.86373 0.74754 0.35938 0.0
C250 C 0.88232 0.75163 0.12897 0.0
C251 C 0.89638 0.70995 0.29147 0.0
C252 C 0.82097 0.75544 0.23808 0.0
O253 O 0.88626 0.76833 0.16962 0.0
O254 O 0.87238 0.73294 0.15178 0.0
O255 O 0.82974 0.73427 0.24357 0.0
O256 O 0.83631 0.77235 0.2408 0.0
C257 C 0.87564 0.76663 0.36931 0.0
O258 O 0.8737 0.70765 0.28341 0.0
O259 O 0.90497 0.73029 0.27523 0.0
In260 In 0.52516 0.4009 0.97796 0.0
O261 O 0.56554 0.39746 0.95277 0.0
O262 O 0.54384 0.36555 0.96277 0.0
C263 C 0.51133 0.44714 0.99483 0.0
C264 C 0.50734 0.39227 0.86126 0.0
C265 C 0.51681 0.38598 0.09798 0.0
O266 O 0.53356 0.44114 0.99259 0.0
O267 O 0.49659 0.42998 0.98702 0.0
O268 O 0.50227 0.38157 0.05232 0.0
O269 O 0.53585 0.39719 0.08233 0.0
C270 C 0.56414 0.37454 0.94799 0.0
O271 O 0.49676 0.38437 0.91113 0.0
O272 O 0.52582 0.40517 0.87108 0.0
In273 In 0.85037 0.27583 0.22364 0.0
O274 O 0.83662 0.30336 0.15052 0.0
O275 O 0.86139 0.31534 0.22235 0.0
C276 C 0.80547 0.25904 0.24771 0.0
C277 C 0.87191 0.25506 0.12003 0.0
C278 C 0.87028 0.27228 0.34251 0.0
O279 O 0.80993 0.28125 0.23984 0.0
O280 O 0.82361 0.24522 0.24263 0.0
O281 O 0.87522 0.25741 0.29809 0.0
O282 O 0.85647 0.28938 0.32581 0.0
C283 C 0.84907 0.32054 0.173 0.0
O284 O 0.88094 0.27315 0.14828 0.0
O285 O 0.8535 0.24637 0.1474 0.0
In286 In 0.98928 0.60965 0.46839 0.0
O287 O 0.95057 0.61979 0.43977 0.0
O288 O 0.97699 0.64787 0.44968 0.0
C289 C 0.99287 0.56127 0.47997 0.0
C290 C 0.00917 0.61435 0.35157 0.0
C291 C -0.00387 0.62118 0.59307 0.0
O292 O 0.97253 0.57199 0.47606 0.0
O293 O 0.01112 0.57499 0.47745 0.0
O294 O 0.0125 0.62476 0.5512 0.0
O295 O 0.97658 0.61266 0.57117 0.0
C296 C 0.95566 0.64208 0.43347 0.0
O297 O 0.02119 0.61976 0.40168 0.0
O298 O 0.98828 0.60592 0.36146 0.0
In299 In 0.66829 0.71412 0.67885 0.0
O300 O 0.65927 0.67411 0.66413 0.0
O301 O 0.63084 0.69999 0.68219 0.0
C302 C 0.71508 0.72586 0.67936 0.0
C303 C 0.65835 0.72979 0.56064 0.0
C304 C 0.6605 0.72661 0.8008 0.0
O305 O 0.70868 0.70384 0.68477 0.0
O306 O 0.698 0.74094 0.67271 0.0
O307 O 0.65402 0.74009 0.75441 0.0
O308 O 0.67029 0.70667 0.78522 0.0
C309 C 0.63666 0.67829 0.66964 0.0
O310 O 0.65248 0.74208 0.60987 0.0
O311 O 0.66919 0.70996 0.57169 0.0
In312 In 0.47 0.39776 0.47748 0.0
O313 O 0.49922 0.38191 0.4111 0.0
O314 O 0.46916 0.40135 0.37053 0.0
C315 C 0.47925 0.38441 0.59828 0.0
C316 C 0.43203 0.37045 0.44863 0.0
C317 C 0.48095 0.44453 0.49271 0.0
O318 O 0.494 0.38019 0.55284 0.0
O319 O 0.45954 0.39445 0.58197 0.0
O320 O 0.45912 0.43739 0.49172 0.0
O321 O 0.49671 0.42819 0.4843 0.0
C322 C 0.48828 0.3892 0.36102 0.0
O323 O 0.43018 0.3934 0.4501 0.0
O324 O 0.45227 0.36191 0.46644 0.0
In325 In 0.325 0.72239 0.21146 0.0
O326 O 0.33233 0.6825 0.18748 0.0
O327 O 0.36192 0.70542 0.21342 0.0
C328 C 0.27687 0.7295 0.20661 0.0
C329 C 0.33788 0.74273 0.09945 0.0
C330 C 0.33114 0.72973 0.33809 0.0
O331 O 0.28629 0.70851 0.20413 0.0
O332 O 0.29181 0.74675 0.21005 0.0
O333 O 0.34154 0.74299 0.29669 0.0
O334 O 0.31821 0.71298 0.3153 0.0
C335 C 0.35505 0.6848 0.19438 0.0
O336 O 0.33947 0.75451 0.1517 0.0
O337 O 0.3293 0.72168 0.1045 0.0
In338 In 0.03409 0.58877 0.96569 0.0
O339 O 0.06081 0.5733 0.89272 0.0
O340 O 0.07432 0.59647 0.9661 0.0
C341 C 0.01172 0.54621 0.98579 0.0
C342 C 0.01563 0.61287 0.86284 0.0
C343 C 0.03289 0.60815 0.08529 0.0
O344 O 0.03434 0.54769 0.97713 0.0
O345 O 0.00048 0.56613 0.98393 0.0
O346 O 0.01951 0.61591 0.04032 0.0
O347 O 0.04729 0.59146 0.06908 0.0
C348 C 0.07877 0.58451 0.91566 0.0
O349 O 0.03457 0.61977 0.89136 0.0
O350 O 0.00504 0.59537 0.88962 0.0
In351 In 0.14046 0.27389 0.68911 0.0
O352 O 0.12555 0.24508 0.62097 0.0
O353 O 0.14462 0.27562 0.58237 0.0
C354 C 0.12848 0.26439 0.81069 0.0
C355 C 0.11063 0.31075 0.66329 0.0
C356 C 0.18735 0.26197 0.70301 0.0
O357 O 0.1239 0.24974 0.76534 0.0
O358 O 0.13809 0.28417 0.79392 0.0
O359 O 0.18052 0.28399 0.70128 0.0
O360 O 0.17068 0.24662 0.69588 0.0
C361 C 0.13293 0.2564 0.57163 0.0
O362 O 0.13344 0.31389 0.66601 0.0
O363 O 0.10343 0.28969 0.67767 0.0
In364 In 0.46437 0.59081 0.06366 0.0
O365 O 0.42389 0.59589 0.08527 0.0
O366 O 0.44712 0.62689 0.07888 0.0
C367 C 0.47762 0.54434 0.04864 0.0
C368 C 0.48165 0.59884 0.1811 0.0
C369 C 0.47385 0.60449 0.9433 0.0
O370 O 0.45542 0.55058 0.05035 0.0
O371 O 0.49251 0.56139 0.05616 0.0
O372 O 0.48827 0.60885 0.98927 0.0
O373 O 0.45431 0.59414 0.95883 0.0
C374 C 0.42625 0.6187 0.09124 0.0
O375 O 0.49262 0.60669 0.13174 0.0
O376 O 0.46295 0.58633 0.17043 0.0
In377 In 0.14566 0.69445 0.78036 0.0
O378 O 0.12173 0.72123 0.83948 0.0
O379 O 0.13493 0.68926 0.88434 0.0
C380 C 0.13692 0.70052 0.65384 0.0
C381 C 0.13826 0.64664 0.78948 0.0
C382 C 0.1886 0.71699 0.78944 0.0
O383 O 0.12098 0.7058 0.69563 0.0
O384 O 0.15656 0.69236 0.67633 0.0
O385 O 0.18662 0.69419 0.79143 0.0
O386 O 0.16882 0.72844 0.78456 0.0
C387 C 0.12298 0.70859 0.89021 0.0
O388 O 0.15738 0.6565 0.81031 0.0
O389 O 0.12346 0.66086 0.76208 0.0
In390 In 0.00555 0.40916 0.52796 0.0
O391 O 0.97446 0.39783 0.5952 0.0
O392 O 0.00711 0.41153 0.63611 0.0
C393 C 0.9919 0.39516 0.40907 0.0
C394 C 0.04199 0.37853 0.55457 0.0
C395 C 0.00262 0.4577 0.51428 0.0
O396 O 0.97776 0.39426 0.45691 0.0
O397 O 0.01302 0.40251 0.42168 0.0
O398 O 0.02275 0.44658 0.51387 0.0
O399 O 0.98437 0.44438 0.52222 0.0
C400 C 0.98634 0.40278 0.64558 0.0
O401 O 0.04561 0.40108 0.54841 0.0
O402 O 0.02054 0.37171 0.54338 0.0
In403 In 0.33919 0.27134 0.27654 0.0
O404 O 0.35408 0.24172 0.34303 0.0
O405 O 0.33421 0.27172 0.38287 0.0
C406 C 0.352 0.26333 0.15482 0.0
C407 C 0.36765 0.30773 0.31014 0.0
C408 C 0.29254 0.26024 0.2612 0.0
O409 O 0.35648 0.24816 0.19913 0.0
O410 O 0.34217 0.28293 0.17287 0.0
O411 O 0.29944 0.28214 0.26385 0.0
O412 O 0.30907 0.24454 0.26775 0.0
C413 C 0.34621 0.25253 0.39277 0.0
O414 O 0.3449 0.31088 0.30467 0.0
O415 O 0.37557 0.28715 0.29306 0.0
C416 C 0.9788 0.0871 0.78396 0.0
C417 C -0.00417 0.08291 0.73499 0.0
H418 H 0.97257 0.09071 0.8849 0.0
C419 C 0.02049 0.08069 0.7504 0.0
H420 H 0.95969 0.08914 0.7729 0.0
C421 C 0.02781 0.08118 0.81466 0.0
C422 C 0.01061 0.0845 0.86381 0.0
H423 H 0.03388 0.07751 0.71318 0.0
H424 H 0.0468 0.07839 0.82599 0.0
C425 C 0.98617 0.08817 0.84786 0.0
C426 C 0.11062 0.69898 0.00249 0.0
C427 C 0.11406 0.71644 0.9541 0.0
H428 H 0.10637 0.69195 0.10302 0.0
C429 C 0.1126 0.7411 0.97044 0.0
H430 H 0.11152 0.67981 0.99122 0.0
C431 C 0.10991 0.74809 0.03496 0.0
C432 C 0.10833 0.73052 0.08396 0.0
H433 H 0.11531 0.75492 0.9342 0.0
H434 H 0.11048 0.7672 0.04678 0.0
C435 C 0.10761 0.70594 0.06662 0.0
C436 C 0.4654 0.88244 0.24713 0.0
C437 C 0.49014 0.88256 0.23151 0.0
H438 H 0.43896 0.88393 0.32276 0.0
C439 C 0.50745 0.88129 0.28097 0.0
H440 H 0.45176 0.88347 0.20972 0.0
C441 C 0.50018 0.88088 0.34525 0.0
C442 C 0.4755 0.88243 0.36112 0.0
H443 H 0.52666 0.88122 0.26992 0.0
H444 H 0.51393 0.88076 0.38246 0.0
C445 C 0.45813 0.88273 0.31161 0.0
C446 C 0.34932 0.21985 0.47561 0.0
C447 C 0.35098 0.24436 0.45859 0.0
H448 H 0.3467 0.19436 0.55315 0.0
C449 C 0.35487 0.26185 0.50642 0.0
H450 H 0.34631 0.20613 0.43923 0.0
C451 C 0.35563 0.25517 0.5709 0.0
C452 C 0.35193 0.23095 0.58868 0.0
H453 H 0.35647 0.28086 0.49402 0.0
H454 H 0.35757 0.26923 0.60689 0.0
C455 C 0.34951 0.21319 0.54054 0.0
C456 C 0.94986 0.86525 0.76908 0.0
C457 C 0.96747 0.86625 0.8178 0.0
H458 H 0.94274 0.86293 0.66815 0.0
C459 C 0.99201 0.86323 0.80161 0.0
H460 H 0.93079 0.86747 0.78052 0.0
C461 C -0.00109 0.86118 0.73696 0.0
C462 C 0.98133 0.86151 0.68789 0.0
H463 H 0.00589 0.8641 0.83836 0.0
H464 H 0.01805 0.86035 0.7252 0.0
C465 C 0.9567 0.86257 0.70481 0.0
C466 C 0.34201 0.78387 0.95485 0.0
C467 C 0.34812 0.76699 0.90656 0.0
H468 H 0.33435 0.78948 0.05518 0.0
C469 C 0.35457 0.7433 0.92449 0.0
H470 H 0.33699 0.80229 0.94239 0.0
C471 C 0.35265 0.73598 0.98842 0.0
C472 C 0.3447 0.7523 0.0359 0.0
H473 H 0.35941 0.72989 0.88859 0.0
H474 H 0.35626 0.71717 1.00026 0.0
C475 C 0.3405 0.7766 0.01932 0.0
C476 C 0.46304 0.10134 0.19678 0.0
C477 C 0.48057 0.1011 0.14764 0.0
H478 H 0.45637 0.10012 0.29852 0.0
C479 C 0.50524 0.10107 0.16398 0.0
H480 H 0.44387 0.10137 0.18524 0.0
C481 C 0.51228 0.09971 0.22822 0.0
C482 C 0.49479 0.09899 0.27724 0.0
H483 H 0.51912 0.10077 0.12708 0.0
H484 H 0.53145 0.0987 0.23955 0.0
C485 C 0.47013 0.10063 0.26135 0.0
C486 C 0.12828 0.22365 0.4896 0.0
C487 C 0.12838 0.24834 0.50553 0.0
H488 H 0.12931 0.19748 0.41338 0.0
C489 C 0.12609 0.26577 0.45672 0.0
H490 H 0.13 0.20995 0.52665 0.0
C491 C 0.12509 0.25872 0.39249 0.0
C492 C 0.12696 0.23414 0.37598 0.0
H493 H 0.12584 0.28494 0.46814 0.0
H494 H 0.12442 0.27262 0.35573 0.0
C495 C 0.12788 0.21658 0.42501 0.0
C496 C 0.98846 0.85905 0.26719 0.0
C497 C 0.97168 0.86476 0.31577 0.0
H498 H -0.00487 0.8562 0.16612 0.0
C499 C 0.94746 0.86946 0.29939 0.0
H500 H 0.00725 0.85524 0.27898 0.0
C501 C 0.94064 0.87053 0.23464 0.0
C502 C 0.95783 0.86629 0.18583 0.0
H503 H 0.93428 0.87398 0.33619 0.0
H504 H 0.92222 0.87578 0.22268 0.0
C505 C 0.98152 0.85948 0.20273 0.0
C506 C 0.88897 0.26472 0.01119 0.0
C507 C 0.87855 0.24786 0.05373 0.0
H508 H 0.89609 0.27407 0.91266 0.0
C509 C 0.87039 0.22565 0.0293 0.0
H510 H 0.89517 0.28213 0.02862 0.0
C511 C 0.87101 0.22103 0.96332 0.0
C512 C 0.87953 0.23864 0.92002 0.0
H513 H 0.86227 0.21233 0.06086 0.0
H514 H 0.86349 0.20413 0.94602 0.0
C515 C 0.88936 0.26018 0.94476 0.0
C516 C 0.47159 0.10578 0.72934 0.0
C517 C 0.48884 0.10249 0.77824 0.0
H518 H 0.46514 0.10967 0.62856 0.0
C519 C 0.5136 0.1032 0.76308 0.0
H520 H 0.45236 0.10557 0.7402 0.0
C521 C 0.52094 0.10514 0.69888 0.0
C522 C 0.50358 0.10701 0.64951 0.0
H523 H 0.52718 0.10074 0.80019 0.0
H524 H 0.5401 0.1041 0.68762 0.0
C525 C 0.4789 0.10832 0.66558 0.0
C526 C 0.65455 0.72152 0.44372 0.0
C527 C 0.65442 0.73829 0.49449 0.0
H528 H 0.6552 0.71615 0.34193 0.0
C529 C 0.65272 0.76315 0.4808 0.0
H530 H 0.65567 0.70222 0.45317 0.0
C531 C 0.65283 0.77114 0.41704 0.0
C532 C 0.65416 0.75436 0.36627 0.0
H533 H 0.65261 0.77641 0.51922 0.0
H534 H 0.65267 0.79046 0.40753 0.0
C535 C 0.65419 0.72947 0.38012 0.0
C536 C 0.97246 0.09186 0.31494 0.0
C537 C 0.98961 0.09111 0.3649 0.0
H538 H 0.96652 0.09068 0.21306 0.0
C539 C 0.01442 0.09099 0.3499 0.0
H540 H 0.9532 0.09208 0.32541 0.0
C541 C 0.02194 0.08974 0.28608 0.0
C542 C 0.00479 0.08913 0.23627 0.0
H543 H 0.02801 0.09044 0.38748 0.0
H544 H 0.04117 0.08845 0.27576 0.0
C545 C 0.98003 0.09113 0.25085 0.0
C546 C 0.64952 0.25835 0.10417 0.0
C547 C 0.64989 0.23357 0.11921 0.0
H548 H 0.65271 0.28521 0.03055 0.0
C549 C 0.65153 0.21646 0.06924 0.0
H550 H 0.64839 0.27192 0.14174 0.0
C551 C 0.65361 0.22408 0.00533 0.0
C552 C 0.65472 0.24889 0.99095 0.0
H553 H 0.65186 0.19722 0.07973 0.0
H554 H 0.65544 0.21064 0.96764 0.0
C555 C 0.6522 0.26594 0.04066 0.0
C556 C 0.46343 0.87766 0.78011 0.0
C557 C 0.48058 0.87891 0.73026 0.0
H558 H 0.45731 0.87549 0.88155 0.0
C559 C 0.5053 0.87627 0.7448 0.0
H560 H 0.44423 0.8795 0.76992 0.0
C561 C 0.51282 0.87444 0.80892 0.0
C562 C 0.49569 0.87461 0.85909 0.0
H563 H 0.51883 0.87723 0.70714 0.0
H564 H 0.53207 0.874 0.81941 0.0
C565 C 0.4709 0.87521 0.84391 0.0
C566 C 0.87492 0.80174 0.52475 0.0
C567 C 0.88057 0.78315 0.56886 0.0
H568 H 0.86942 0.81126 0.42539 0.0
C569 C 0.88858 0.76065 0.54534 0.0
H570 H 0.86871 0.81929 0.54159 0.0
C571 C 0.88858 0.75606 0.47941 0.0
C572 C 0.88113 0.774 0.43566 0.0
H573 H 0.89306 0.74598 0.57793 0.0
H574 H 0.89317 0.73799 0.4627 0.0
C575 C 0.87537 0.79724 0.45836 0.0
C576 C 0.51405 0.60567 0.26292 0.0
C577 C 0.48941 0.60402 0.24708 0.0
H578 H 0.54022 0.60689 0.33908 0.0
C579 C 0.47185 0.60572 0.29577 0.0
H580 H 0.52785 0.60447 0.22593 0.0
C581 C 0.47881 0.60774 0.35989 0.0
C582 C 0.50347 0.6075 0.37638 0.0
H583 H 0.45269 0.60479 0.28437 0.0
H584 H 0.4649 0.60796 0.39668 0.0
C585 C 0.52107 0.60708 0.3274 0.0
C586 C 0.6489 0.22309 0.54322 0.0
C587 C 0.64975 0.24003 0.49291 0.0
H588 H 0.64862 0.21732 0.64483 0.0
C589 C 0.64893 0.26488 0.50717 0.0
H590 H 0.6493 0.20381 0.53327 0.0
C591 C 0.64896 0.27264 0.57121 0.0
C592 C 0.64925 0.25563 0.62158 0.0
H593 H 0.64957 0.27824 0.46906 0.0
H594 H 0.64955 0.29189 0.58129 0.0
C595 C 0.64839 0.23082 0.607 0.0
C596 C 0.95253 0.40125 0.72592 0.0
C597 C 0.97723 0.3986 0.7112 0.0
H598 H 0.9258 0.40358 0.80071 0.0
C599 C 0.99376 0.39334 0.76074 0.0
H600 H 0.93948 0.40531 0.68846 0.0
C601 C 0.9859 0.39165 0.82438 0.0
C602 C 0.96147 0.39587 0.83978 0.0
H603 H 0.01289 0.391 0.75038 0.0
H604 H -0.00082 0.3884 0.86183 0.0
C605 C 0.94475 0.40025 0.78996 0.0
C606 C 0.87972 0.73529 0.01724 0.0
C607 C 0.8862 0.75435 0.05873 0.0
H608 H 0.87222 0.72429 0.92059 0.0
C609 C 0.8937 0.77646 0.03185 0.0
H610 H 0.87402 0.71795 0.03627 0.0
C611 C 0.89301 0.77995 0.96503 0.0
C612 C 0.8846 0.76146 0.92415 0.0
H613 H 0.89881 0.79147 0.06249 0.0
H614 H 0.89733 0.79769 0.94594 0.0
C615 C 0.8788 0.73885 0.9508 0.0
C616 C 0.48596 0.37917 0.18288 0.0
C617 C 0.51039 0.38187 0.16574 0.0
H618 H 0.4599 0.37967 0.25902 0.0
C619 C 0.52803 0.38391 0.21433 0.0
H620 H 0.472 0.3776 0.14648 0.0
C621 C 0.52111 0.38464 0.27903 0.0
C622 C 0.49646 0.38395 0.29541 0.0
H623 H 0.54702 0.38596 0.20219 0.0
H624 H 0.53479 0.38729 0.31569 0.0
C625 C 0.47903 0.3805 0.24716 0.0
C626 C 0.88131 0.24406 0.43149 0.0
C627 C 0.87602 0.26772 0.41094 0.0
H628 H 0.88336 0.21959 0.51121 0.0
C629 C 0.87241 0.28599 0.45741 0.0
H630 H 0.88406 0.2296 0.39698 0.0
C631 C 0.87249 0.28031 0.52316 0.0
C632 C 0.87564 0.25622 0.54299 0.0
H633 H 0.86827 0.3044 0.44283 0.0
H634 H 0.86835 0.29436 0.55794 0.0
C635 C 0.88079 0.23832 0.49684 0.0
C636 C 0.9862 0.61507 0.77208 0.0
C637 C 0.00919 0.6206 0.79684 0.0
H638 H 0.96398 0.61141 0.68859 0.0
C639 C 0.02708 0.62949 0.7548 0.0
H640 H 0.97209 0.60816 0.80326 0.0
C641 C 0.02257 0.63101 0.68848 0.0
C642 C 3e-05 0.6239 0.66332 0.0
H643 H 0.04508 0.63364 0.77244 0.0
H644 H 0.0371 0.63656 0.65672 0.0
C645 C 0.98162 0.61686 0.70621 0.0
C646 C 0.65975 0.76702 0.9465 0.0
C647 C 0.66246 0.7501 0.99648 0.0
H648 H 0.65633 0.77271 0.84519 0.0
C649 C 0.66252 0.72526 0.98221 0.0
H650 H 0.65938 0.7863 0.95649 0.0
C651 C 0.66114 0.7175 0.91835 0.0
C652 C 0.65908 0.73448 0.86823 0.0
H653 H 0.66452 0.71191 0.02006 0.0
H654 H 0.66213 0.69826 0.90809 0.0
C655 C 0.65781 0.75926 0.88295 0.0
C656 C 0.51736 0.38396 0.74751 0.0
C657 C 0.49966 0.38643 0.79561 0.0
H658 H 0.52465 0.38048 0.64706 0.0
C659 C 0.47505 0.38492 0.77932 0.0
H660 H 0.53649 0.38477 0.75932 0.0
C661 C 0.46824 0.38288 0.71477 0.0
C662 C 0.48601 0.38168 0.66628 0.0
H663 H 0.46116 0.38672 0.81588 0.0
H664 H 0.44914 0.3832 0.70259 0.0
C665 C 0.5106 0.3813 0.68343 0.0
C666 C 0.35203 0.74621 0.43612 0.0
C667 C 0.33226 0.73425 0.40796 0.0
H668 H 0.36702 0.76127 0.52276 0.0
C669 C 0.31272 0.72714 0.44694 0.0
H670 H 0.36732 0.75181 0.40706 0.0
C671 C 0.31234 0.73297 0.51217 0.0
C672 C 0.33186 0.74523 0.54016 0.0
H673 H 0.29721 0.71796 0.42644 0.0
H674 H 0.29653 0.72837 0.54057 0.0
C675 C 0.35198 0.75137 0.50215 0.0
C676 C 0.00716 0.62495 0.17334 0.0
C677 C 0.02933 0.61486 0.15348 0.0
H678 H 0.9835 0.63249 0.25253 0.0
C679 C 0.04647 0.60798 0.20039 0.0
H680 H 0.99358 0.63034 0.13845 0.0
C681 C 0.04086 0.60967 0.26601 0.0
C682 C 0.01784 0.61776 0.28526 0.0
H683 H 0.06374 0.60016 0.18631 0.0
H684 H 0.05375 0.60303 0.30121 0.0
C685 C 0.00136 0.62609 0.23859 0.0
C686 C 0.12738 0.23285 0.89572 0.0
C687 C 0.12663 0.25745 0.8788 0.0
H688 H 0.13233 0.20698 0.9712 0.0
C689 C 0.12752 0.27516 0.92743 0.0
H690 H 0.12686 0.21885 0.85922 0.0
C691 C 0.13021 0.26832 0.99184 0.0
C692 C 0.13274 0.24375 0.00784 0.0
H693 H 0.127 0.29427 0.91545 0.0
H694 H 0.13166 0.28219 0.02848 0.0
C695 C 0.13073 0.22608 0.95962 0.0
C696 C 0.5126 0.60579 0.79513 0.0
C697 C 0.49513 0.60359 0.74643 0.0
H698 H 0.51941 0.60871 0.89593 0.0
C699 C 0.47043 0.60489 0.76215 0.0
H700 H 0.53178 0.6051 0.78382 0.0
C701 C 0.46333 0.60651 0.82657 0.0
C702 C 0.48087 0.60751 0.87559 0.0
H703 H 0.45671 0.60326 0.72515 0.0
H704 H 0.44418 0.60607 0.83821 0.0
C705 C 0.50553 0.60805 0.85913 0.0
C706 C 0.10914 0.71322 0.48961 0.0
C707 C 0.13014 0.71499 0.45157 0.0
H708 H 0.09475 0.70778 0.58475 0.0
C709 C 0.15285 0.71065 0.47965 0.0
H710 H 0.09145 0.71691 0.46904 0.0
C711 C 0.15472 0.70519 0.54484 0.0
C712 C 0.13394 0.70455 0.58397 0.0
H713 H 0.1693 0.71209 0.45137 0.0
H714 H 0.17262 0.70236 0.56504 0.0
C715 C 0.11105 0.7083 0.55571 0.0
C716 C 0.95101 0.39194 0.26407 0.0
C717 C 0.96788 0.39126 0.21344 0.0
H718 H 0.9454 0.39305 0.36582 0.0
C719 C 0.99264 0.38878 0.22767 0.0
H720 H 0.93178 0.39377 0.25425 0.0
C721 C 0.00051 0.38887 0.29175 0.0
C722 C 0.98366 0.39091 0.34238 0.0
H723 H 0.00598 0.38838 0.18943 0.0
H724 H 0.0198 0.38831 0.30159 0.0
C725 C 0.9588 0.39149 0.32792 0.0
C726 C 0.35421 0.23251 0.06819 0.0
C727 C 0.35385 0.257 0.0863 0.0
H728 H 0.3497 0.20698 0.99188 0.0
C729 C 0.35158 0.27498 0.03865 0.0
H730 H 0.35585 0.21829 0.10386 0.0
C731 C 0.34844 0.26847 0.97417 0.0
C732 C 0.34687 0.24394 0.95724 0.0
H733 H 0.35126 0.29401 0.05155 0.0
H734 H 0.34586 0.2825 0.93835 0.0
C735 C 0.35044 0.22605 0.0043 0.0
C736 C 0.97629 -7e-05 0.04951 0.0
C737 C 0.00156 0.00255 0.04375 0.0
H738 H 0.94588 0.97622 0.04419 0.0
C739 C 0.01584 0.98217 0.02895 0.0
H740 H 0.96475 0.0153 0.06092 0.0
C741 C 0.00487 0.9596 0.0192 0.0
C742 C 0.97953 0.9572 0.02408 0.0
H743 H 0.03533 0.98372 0.024 0.0
H744 H 0.01619 0.94412 0.00741 0.0
C745 C 0.96541 0.97754 0.03974 0.0
C746 C 0.216 0.76071 0.22721 0.0
C747 C 0.20015 0.74088 0.22756 0.0
H748 H 0.25282 0.77265 0.21985 0.0
C749 C 0.20959 0.71747 0.21703 0.0
H750 H 0.20923 0.77895 0.23507 0.0
C751 C 0.23445 0.71385 0.20837 0.0
C752 C 0.2504 0.73357 0.20995 0.0
H753 H 0.19781 0.7018 0.21677 0.0
H754 H 0.24121 0.69554 0.2018 0.0
C755 C 0.24092 0.75709 0.21845 0.0
C756 C 0.51463 -0.00075 0.51048 0.0
C757 C 0.49821 0.01801 0.49641 0.0
H758 H 0.51916 0.96184 0.53545 0.0
C759 C 0.47317 0.01326 0.49788 0.0
H760 H 0.534 0.00245 0.51002 0.0
C761 C 0.46468 0.99015 0.51261 0.0
C762 C 0.48105 0.97133 0.52626 0.0
H763 H 0.46004 0.02741 0.48749 0.0
H764 H 0.44529 0.987 0.51276 0.0
C765 C 0.50611 0.97608 0.52533 0.0
C766 C 0.25454 0.26346 0.74095 0.0
C767 C 0.26021 0.23857 0.74437 0.0
H768 H 0.22706 0.29046 0.72484 0.0
C769 C 0.24188 0.22158 0.73301 0.0
H770 H 0.26834 0.27701 0.74929 0.0
C771 C 0.21832 0.22932 0.71873 0.0
C772 C 0.2126 0.2542 0.71555 0.0
H773 H 0.24572 0.20232 0.73504 0.0
H774 H 0.20454 0.21573 0.71053 0.0
C775 C 0.23095 0.27121 0.72672 0.0
C776 C 0.96398 0.96009 0.51432 0.0
C777 C 0.98788 0.95093 0.51525 0.0
H778 H 0.94094 0.99149 0.521 0.0
C779 C 0.00718 0.96706 0.52372 0.0
H780 H 0.94871 0.94805 0.5079 0.0
C781 C 0.0027 0.99184 0.53123 0.0
C782 C 0.97883 0.00104 0.53048 0.0
H783 H 0.02575 0.96056 0.52469 0.0
H784 H 0.01804 0.00381 0.53769 0.0
C785 C 0.95949 0.98493 0.52188 0.0
C786 C 0.2337 0.71537 0.79249 0.0
C787 C 0.21235 0.72911 0.78674 0.0
H788 H 0.27232 0.71485 0.78614 0.0
C789 C 0.21397 0.75407 0.77355 0.0
H790 H 0.23302 0.69614 0.80285 0.0
C791 C 0.23659 0.76486 0.76363 0.0
C792 C 0.25786 0.75083 0.7669 0.0
H793 H 0.19774 0.76509 0.76885 0.0
H794 H 0.23736 0.78396 0.75174 0.0
C795 C 0.25621 0.72612 0.78276 0.0
C796 C 0.51308 0.98272 0.99792 0.0
C797 C 0.49573 0.96509 0.0128 0.0
H798 H 0.51968 0.01965 0.97242 0.0
C799 C 0.47099 0.97154 0.01244 0.0
H800 H 0.53224 0.97825 0.99751 0.0
C801 C 0.46375 -0.00477 0.99785 0.0
C802 C 0.48112 0.01289 0.98328 0.0
H803 H 0.45718 0.95828 0.02349 0.0
H804 H 0.44461 -0.00026 0.99849 0.0
C805 C 0.50585 0.00639 0.98328 0.0
C806 C 0.22544 0.26323 0.22446 0.0
C807 C 0.21959 0.23846 0.22092 0.0
H808 H 0.25321 0.28963 0.24038 0.0
C809 C 0.23776 0.22107 0.23158 0.0
H810 H 0.21173 0.27704 0.21662 0.0
C811 C 0.26139 0.22828 0.24539 0.0
C812 C 0.26729 0.25303 0.24877 0.0
H813 H 0.23374 0.20188 0.22938 0.0
H814 H 0.27506 0.21441 0.25314 0.0
C815 C 0.24913 0.27046 0.23826 0.0
C816 C 0.78151 0.27365 0.75765 0.0
C817 C 0.78871 0.24917 0.75355 0.0
H818 H 0.75218 0.29876 0.77319 0.0
C819 C 0.77132 0.23102 0.76251 0.0
H820 H 0.79458 0.28804 0.75103 0.0
C821 C 0.74726 0.23714 0.77555 0.0
C822 C 0.73998 0.26156 0.7797 0.0
H823 H 0.77632 0.21202 0.75982 0.0
H824 H 0.73432 0.22263 0.78217 0.0
C825 C 0.7573 0.2798 0.77048 0.0
C826 C 0.7541 0.74475 0.21094 0.0
C827 C 0.74487 0.76853 0.20662 0.0
H828 H 0.78523 0.72203 0.22454 0.0
C829 C 0.76086 0.7881 0.21324 0.0
H830 H 0.74226 0.72924 0.20624 0.0
C831 C 0.78565 0.7839 0.22371 0.0
C832 C 0.7948 0.76007 0.22797 0.0
H833 H 0.75425 0.80659 0.21026 0.0
H834 H 0.79763 0.7993 0.22843 0.0
C835 C 0.77875 0.74058 0.22158 0.0
C836 C 0.75263 0.21687 0.27862 0.0
C837 C 0.73377 0.23358 0.28915 0.0
H838 H 0.79041 0.21188 0.25716 0.0
C839 C 0.73883 0.25853 0.28702 0.0
H840 H 0.7492 0.19755 0.27983 0.0
C841 C 0.76212 0.26667 0.27363 0.0
C842 C 0.78097 0.25007 0.26241 0.0
H843 H 0.72468 0.27191 0.29487 0.0
H844 H 0.76533 0.28603 0.27189 0.0
C845 C 0.77613 0.22507 0.26551 0.0
C846 C 0.75916 0.71909 0.70542 0.0
C847 C 0.74028 0.73439 0.68484 0.0
H848 H 0.79647 0.71667 0.73462 0.0
C849 C 0.74506 0.75906 0.67404 0.0
H850 H 0.75591 0.70002 0.71421 0.0
C851 C 0.76791 0.76852 0.68607 0.0
C852 C 0.78661 0.75354 0.70888 0.0
H853 H 0.73093 0.77132 0.65775 0.0
H854 H 0.77079 0.78773 0.67848 0.0
C855 C 0.78226 0.72862 0.71728 0.0
C856 C 0.51963 0.4997 0.52268 0.0
C857 C 0.50201 0.51754 0.53472 0.0
H858 H 0.52668 0.46261 0.49939 0.0
C859 C 0.47731 0.51131 0.5321 0.0
H860 H 0.53877 0.50403 0.52409 0.0
C861 C 0.47035 0.48762 0.51774 0.0
C862 C 0.48798 0.46978 0.50571 0.0
H863 H 0.46332 0.52476 0.54099 0.0
H864 H 0.45122 0.48327 0.51633 0.0
C865 C 0.51267 0.47603 0.50827 0.0
C866 C 0.96218 0.49983 0.01003 0.0
C867 C 0.97581 0.47844 0.01682 0.0
H868 H 0.96296 0.53825 0.995 0.0
C869 C 0.00127 0.4796 0.01438 0.0
H870 H 0.94254 0.49943 0.01165 0.0
C871 C 0.01291 0.50164 0.00443 0.0
C872 C -0.00067 0.52301 0.99711 0.0
H873 H 0.01229 0.46339 0.01936 0.0
H874 H 0.03254 0.50191 0.0023 0.0
C875 C 0.97387 0.52199 1.00044 0.0
C876 C 0.51935 0.49078 0.01953 0.0
C877 C 0.50279 0.47208 0.00796 0.0
H878 H 0.5243 0.52825 0.04191 0.0
C879 C 0.47776 0.47721 0.0107 0.0
H880 H 0.53871 0.48735 0.018 0.0
C881 C 0.46946 0.50062 0.02461 0.0
C882 C 0.48603 0.51932 0.03607 0.0
H883 H 0.46453 0.46311 0.00218 0.0
H884 H 0.4501 0.50407 0.02607 0.0
C885 C 0.51105 0.51417 0.03345 0.0
C886 C 0.97717 0.49511 0.50324 0.0
C887 C 0.00028 0.4842 0.5054 0.0
H888 H 0.95669 0.528 0.49322 0.0
C889 C 0.0209 0.4988 0.49859 0.0
H890 H 0.96092 0.48431 0.50822 0.0
C891 C 0.01845 0.52384 0.49006 0.0
C892 C -0.00467 0.53475 0.48799 0.0
H893 H 0.03892 0.4909 0.49997 0.0
H894 H 0.03469 0.53466 0.48517 0.0
C895 C 0.97472 0.52012 0.49453 0.0
C896 C 0.08031 0.14366 0.06073 0.0
C897 C 0.08468 0.11948 0.0783 0.0
H898 H 0.08979 0.18071 0.07351 0.0
C899 C 0.1046 0.11392 0.11798 0.0
H900 H 0.0653 0.1485 0.02954 0.0
C901 C 0.11893 0.13265 0.14305 0.0
C902 C 0.11307 0.1569 0.12927 0.0
H903 H 0.10827 0.09539 0.1323 0.0
H904 H 0.13368 0.12829 0.17551 0.0
C905 C 0.0942 0.16215 0.08635 0.0
C906 C 0.06227 0.79124 0.38801 0.0
C907 C 0.08361 0.79996 0.35952 0.0
H908 H 0.03127 0.79897 0.44581 0.0
C909 C 0.09048 0.82412 0.37072 0.0
H910 H 0.05663 0.77262 0.38129 0.0
C911 C 0.07572 0.83943 0.40812 0.0
C912 C 0.05411 0.83067 0.43549 0.0
H913 H 0.10699 0.83122 0.34992 0.0
H914 H 0.08092 0.85819 0.41442 0.0
C915 C 0.04781 0.80632 0.42572 0.0
C916 C 0.35916 0.86039 0.6576 0.0
C917 C 0.35695 0.83673 0.63376 0.0
H918 H 0.37912 0.8937 0.65202 0.0
C919 C 0.36971 0.8299 0.57831 0.0
H920 H 0.3495 0.86586 0.70062 0.0
C921 C 0.38636 0.84556 0.55068 0.0
C922 C 0.39065 0.8683 0.57832 0.0
H923 H 0.36804 0.81173 0.55892 0.0
H924 H 0.39719 0.83915 0.51059 0.0
C925 C 0.37603 0.87622 0.62981 0.0
C926 C 0.40938 0.15441 0.9114 0.0
C927 C 0.40482 0.12941 0.91108 0.0
H928 H 0.39857 0.18944 0.87944 0.0
C929 C 0.38387 0.12076 0.88009 0.0
H930 H 0.42525 0.16174 0.93501 0.0
C931 C 0.36821 0.13694 0.84816 0.0
C932 C 0.37373 0.16177 0.84592 0.0
H933 H 0.37999 0.10153 0.87895 0.0
H934 H 0.35233 0.13003 0.82377 0.0
C935 C 0.39418 0.1703 0.87885 0.0
C936 C 0.85691 0.86872 0.8444 0.0
C937 C 0.84798 0.8462 0.86462 0.0
H938 H 0.87977 0.89865 0.86746 0.0
C939 C 0.84984 0.8397 0.92975 0.0
H940 H 0.85562 0.87407 0.79439 0.0
C941 C 0.86431 0.85334 0.97103 0.0
C942 C 0.87626 0.87396 0.94797 0.0
H943 H 0.84315 0.82238 0.94655 0.0
H944 H 0.8683 0.84628 0.01852 0.0
C945 C 0.87073 0.88277 0.88633 0.0
C946 C 0.89909 0.12757 0.62366 0.0
C947 C 0.92321 0.13099 0.60383 0.0
H948 H 0.86769 0.14359 0.66839 0.0
C949 C 0.93422 0.15355 0.61445 0.0
H950 H 0.89023 0.1103 0.61649 0.0
C951 C 0.92169 0.17216 0.64509 0.0
C952 C 0.89766 0.16888 0.66527 0.0
H953 H 0.95282 0.1568 0.60011 0.0
H954 H 0.93086 0.18927 0.65236 0.0
C955 C 0.88631 0.14649 0.65381 0.0
C956 C 0.6197 0.13773 0.37403 0.0
C957 C 0.61293 0.16036 0.3483 0.0
H958 H 0.60758 0.10526 0.42143 0.0
C959 C 0.5884 0.16726 0.34891 0.0
H960 H 0.63853 0.13205 0.37439 0.0
C961 C 0.5711 0.15245 0.37677 0.0
C962 C 0.57774 0.13013 0.40401 0.0
H963 H 0.58253 0.18453 0.32935 0.0
H964 H 0.5524 0.15858 0.37682 0.0
C965 C 0.6021 0.12256 0.40135 0.0
C966 C 0.573 0.82874 0.10589 0.0
C967 C 0.57642 0.85328 0.09101 0.0
H968 H 0.58862 0.79586 0.1402 0.0
C969 C 0.59942 0.86364 0.10045 0.0
H970 H 0.55548 0.82023 0.09974 0.0
C971 C 0.61872 0.84946 0.12384 0.0
C972 C 0.61512 0.82487 0.13863 0.0
H973 H 0.60249 0.88259 0.08975 0.0
H974 H 0.63638 0.85766 0.12998 0.0
C975 C 0.59203 0.81477 0.12962 0.0
C976 C 0.60458 0.62214 0.60879 0.0
C977 C 0.58033 0.63 0.6122 0.0
H978 H 0.64195 0.63149 0.62461 0.0
C979 C 0.57495 0.6526 0.63964 0.0
H980 H 0.60909 0.60462 0.58835 0.0
C981 C 0.59338 0.6675 0.6613 0.0
C982 C 0.61774 0.66036 0.6553 0.0
H983 H 0.55639 0.65893 0.64419 0.0
H984 H 0.58846 0.68503 0.68106 0.0
C985 C 0.62328 0.63737 0.62987 0.0
C986 C 0.57696 0.33582 0.89873 0.0
C987 C 0.58322 0.35921 0.9191 0.0
H988 H 0.58825 0.30304 0.85402 0.0
C989 C 0.60689 0.36764 0.90799 0.0
H990 H 0.55879 0.32886 0.90558 0.0
C991 C 0.62414 0.3525 0.87829 0.0
C992 C 0.61769 0.32902 0.85842 0.0
H993 H 0.61207 0.38572 0.9227 0.0
H994 H 0.64246 0.35902 0.8715 0.0
C995 C 0.59386 0.32104 0.86842 0.0
C996 C 0.86096 0.3639 0.16842 0.0
C997 C 0.85388 0.34272 0.13629 0.0
H998 H 0.88059 0.3972 0.16221 0.0
C999 C 0.85697 0.34106 0.06944 0.0
H1000 H 0.85879 0.36545 0.22003 0.0
C1001 C 0.87005 0.35883 0.03679 0.0
C1002 C 0.87932 0.3788 0.07029 0.0
H1003 H 0.85185 0.32477 0.04378 0.0
H1004 H 0.87477 0.35589 0.98681 0.0
C1005 C 0.87327 0.38209 0.13525 0.0
C1006 C 0.94861 0.68236 0.38312 0.0
C1007 C 0.93954 0.65951 0.40028 0.0
H1008 H 0.94237 0.71576 0.3341 0.0
C1009 C 0.91612 0.65299 0.38013 0.0
H1010 H 0.96668 0.68787 0.39728 0.0
C1011 C 0.90204 0.66914 0.34358 0.0
C1012 C 0.91136 0.69187 0.32592 0.0
H1013 H 0.90876 0.63539 0.39217 0.0
H1014 H 0.88394 0.66386 0.32921 0.0
C1015 C 0.93477 0.69826 0.34613 0.0
C1016 C 0.40527 0.3156 0.37043 0.0
C1017 C 0.38351 0.32463 0.34477 0.0
H1018 H 0.43695 0.32269 0.42523 0.0
C1019 C 0.37673 0.34878 0.35709 0.0
H1020 H 0.41078 0.29692 0.36302 0.0
C1021 C 0.39206 0.36385 0.39296 0.0
C1022 C 0.41398 0.35468 0.41789 0.0
H1023 H 0.35983 0.35602 0.3385 0.0
H1024 H 0.38698 0.38264 0.40032 0.0
C1025 C 0.42017 0.33034 0.40698 0.0
C1026 C 0.36563 0.64376 0.14862 0.0
C1027 C 0.37282 0.66644 0.17282 0.0
H1028 H 0.37708 0.61046 0.10352 0.0
C1029 C 0.39742 0.67276 0.1708 0.0
H1030 H 0.34673 0.63851 0.14932 0.0
C1031 C 0.41441 0.65721 0.1435 0.0
C1032 C 0.40736 0.63471 0.11833 0.0
H1033 H 0.4036 0.69009 0.18881 0.0
H1034 H 0.4332 0.66288 0.14244 0.0
C1035 C 0.38289 0.62784 0.12205 0.0
C1036 C 0.09684 0.59435 0.81043 0.0
C1037 C 0.10013 0.59034 0.87654 0.0
H1038 H 0.10691 0.61616 0.72969 0.0
C1039 C 0.121 0.5993 0.90676 0.0
H1040 H 0.08086 0.58766 0.78599 0.0
C1041 C 0.13629 0.61516 0.87391 0.0
C1042 C 0.13035 0.62262 0.8113 0.0
H1043 H 0.12391 0.59636 0.95769 0.0
H1044 H 0.15064 0.62402 0.90046 0.0
C1045 C 0.11169 0.61076 0.77816 0.0
C1046 C 0.05308 0.33807 0.59766 0.0
C1047 C 0.06031 0.36153 0.5804 0.0
H1048 H 0.06306 0.3041 0.63857 0.0
C1049 C 0.08436 0.36869 0.59223 0.0
H1050 H 0.03463 0.33204 0.58984 0.0
C1051 C 0.10091 0.35243 0.62036 0.0
C1052 C 0.09347 0.32898 0.63776 0.0
H1053 H 0.09034 0.38677 0.57983 0.0
H1054 H 0.11944 0.35814 0.62822 0.0
C1055 C 0.06937 0.32208 0.62627 0.0
loop_
_geom_bond_atom_site_label_1
_geom_bond_atom_site_label_2
_geom_bond_distance
_geom_bond_site_symmetry_2
_ccdc_geom_bond_type
In0 O1 2.294 . S
In0 O2 2.326 . S
In0 O6 2.266 . S
In0 O7 2.326 1_455 S
In0 O8 2.266 1_454 S
In0 O9 2.326 1_554 S
In0 O11 2.294 1_455 S
In0 O12 2.326 . S
O1 In0 2.294 . S
O1 C10 1.240 . S
O2 In0 2.326 . S
O2 C10 1.252 . S
C3 O6 1.252 . S
C3 O7 1.260 1_455 S
C4 O11 1.241 1_455 S
C4 O12 1.250 . S
C5 O8 1.241 1_455 S
C5 O9 1.277 . S
O6 In0 2.266 . S
O6 C3 1.252 . S
O7 In0 2.326 1_655 S
O7 C3 1.260 1_655 S
O8 In0 2.266 1_656 S
O8 C5 1.241 1_655 S
O9 In0 2.326 1_556 S
O9 C5 1.277 . S
C10 O1 1.240 . S
C10 O2 1.252 . S
O11 In0 2.294 1_655 S
O11 C4 1.241 1_655 S
O12 In0 2.326 . S
O12 C4 1.250 . S
In13 O14 2.294 . S
In13 O15 2.326 . S
In13 O19 2.266 . S
In13 O20 2.326 . S
In13 O21 2.266 . S
In13 O22 2.326 . S
In13 O24 2.294 . S
In13 O25 2.326 . S
O14 In13 2.294 . S
O14 C23 1.240 . S
O15 In13 2.326 . S
O15 C23 1.252 . S
C16 O19 1.252 . S
C16 O20 1.260 . S
C17 O24 1.240 . S
C17 O25 1.252 . S
C18 O21 1.252 . S
C18 O22 1.260 . S
O19 In13 2.266 . S
O19 C16 1.252 . S
O20 In13 2.326 . S
O20 C16 1.260 . S
O21 In13 2.266 . S
O21 C18 1.252 . S
O22 In13 2.326 . S
O22 C18 1.260 . S
C23 O14 1.240 . S
C23 O15 1.252 . S
O24 In13 2.294 . S
O24 C17 1.240 . S
O25 In13 2.326 . S
O25 C17 1.252 . S
In26 O27 2.294 . S
In26 O28 2.326 . S
In26 O32 2.266 . S
In26 O33 2.326 . S
In26 O34 2.266 . S
In26 O35 2.326 . S
In26 O37 2.294 . S
In26 O38 2.326 . S
O27 In26 2.294 . S
O27 C36 1.240 . S
O28 In26 2.326 . S
O28 C36 1.252 . S
C29 O32 1.252 . S
C29 O33 1.260 . S
C30 O37 1.240 . S
C30 O38 1.252 . S
C31 O34 1.252 . S
C31 O35 1.260 . S
O32 In26 2.266 . S
O32 C29 1.252 . S
O33 In26 2.326 . S
O33 C29 1.260 . S
O34 In26 2.266 . S
O34 C31 1.252 . S
O35 In26 2.326 . S
O35 C31 1.260 . S
C36 O27 1.240 . S
C36 O28 1.252 . S
O37 In26 2.294 . S
O37 C30 1.240 . S
O38 In26 2.326 . S
O38 C30 1.252 . S
In39 O40 2.294 . S
In39 O41 2.326 . S
In39 O45 2.266 . S
In39 O46 2.326 . S
In39 O47 2.266 . S
In39 O48 2.326 . S
In39 O50 2.294 . S
In39 O51 2.326 . S
O40 In39 2.294 . S
O40 C49 1.240 . S
O41 In39 2.326 . S
O41 C49 1.252 . S
C42 O45 1.252 . S
C42 O46 1.260 . S
C43 O50 1.240 . S
C43 O51 1.252 . S
C44 O47 1.252 . S
C44 O48 1.260 . S
O45 In39 2.266 . S
O45 C42 1.252 . S
O46 In39 2.326 . S
O46 C42 1.260 . S
O47 In39 2.266 . S
O47 C44 1.252 . S
O48 In39 2.326 . S
O48 C44 1.260 . S
C49 O40 1.240 . S
C49 O41 1.252 . S
O50 In39 2.294 . S
O50 C43 1.240 . S
O51 In39 2.326 . S
O51 C43 1.252 . S
In52 O53 2.294 . S
In52 O54 2.326 . S
In52 O58 2.266 . S
In52 O59 2.326 1_455 S
In52 O60 2.266 1_455 S
In52 O61 2.326 . S
In52 O63 2.294 1_455 S
In52 O64 2.326 . S
O53 In52 2.294 . S
O53 C62 1.240 . S
O54 In52 2.326 . S
O54 C62 1.252 . S
C55 O58 1.252 . S
C55 O59 1.260 1_455 S
C56 O63 1.241 1_455 S
C56 O64 1.250 . S
C57 O60 1.242 1_455 S
C57 O61 1.277 . S
O58 In52 2.266 . S
O58 C55 1.252 . S
O59 In52 2.326 1_655 S
O59 C55 1.260 1_655 S
O60 In52 2.266 1_655 S
O60 C57 1.242 1_655 S
O61 In52 2.326 . S
O61 C57 1.277 . S
C62 O53 1.240 . S
C62 O54 1.252 . S
O63 In52 2.294 1_655 S
O63 C56 1.241 1_655 S
O64 In52 2.326 . S
O64 C56 1.250 . S
In65 O66 2.294 . S
In65 O67 2.326 . S
In65 O71 2.266 . S
In65 O72 2.326 . S
In65 O73 2.266 . S
In65 O74 2.326 . S
In65 O76 2.294 . S
In65 O77 2.326 . S
O66 In65 2.294 . S
O66 C75 1.240 . S
O67 In65 2.326 . S
O67 C75 1.252 . S
C68 O71 1.252 . S
C68 O72 1.260 . S
C69 O76 1.240 . S
C69 O77 1.252 . S
C70 O73 1.252 . S
C70 O74 1.260 . S
O71 In65 2.266 . S
O71 C68 1.252 . S
O72 In65 2.326 . S
O72 C68 1.260 . S
O73 In65 2.266 . S
O73 C70 1.252 . S
O74 In65 2.326 . S
O74 C70 1.260 . S
C75 O66 1.240 . S
C75 O67 1.252 . S
O76 In65 2.294 . S
O76 C69 1.240 . S
O77 In65 2.326 . S
O77 C69 1.252 . S
In78 O79 2.294 . S
In78 O80 2.326 . S
In78 O84 2.266 1_556 S
In78 O85 2.326 1_556 S
In78 O86 2.266 . S
In78 O87 2.326 . S
In78 O89 2.294 . S
In78 O90 2.326 . S
O79 In78 2.294 . S
O79 C88 1.240 . S
O80 In78 2.326 . S
O80 C88 1.252 . S
C81 O84 1.252 . S
C81 O85 1.260 . S
C82 O89 1.240 . S
C82 O90 1.252 . S
C83 O86 1.252 . S
C83 O87 1.260 . S
O84 In78 2.266 1_554 S
O84 C81 1.252 . S
O85 In78 2.326 1_554 S
O85 C81 1.260 . S
O86 In78 2.266 . S
O86 C83 1.252 . S
O87 In78 2.326 . S
O87 C83 1.260 . S
C88 O79 1.240 . S
C88 O80 1.252 . S
O89 In78 2.294 . S
O89 C82 1.240 . S
O90 In78 2.326 . S
O90 C82 1.252 . S
In91 O92 2.294 . S
In91 O93 2.326 . S
In91 O97 2.266 . S
In91 O98 2.326 . S
In91 O99 2.266 . S
In91 O100 2.326 . S
In91 O102 2.294 . S
In91 O103 2.326 . S
O92 In91 2.294 . S
O92 C101 1.240 . S
O93 In91 2.326 . S
O93 C101 1.252 . S
C94 O97 1.252 . S
C94 O98 1.260 . S
C95 O102 1.240 . S
C95 O103 1.252 . S
C96 O99 1.252 . S
C96 O100 1.260 . S
O97 In91 2.266 . S
O97 C94 1.252 . S
O98 In91 2.326 . S
O98 C94 1.260 . S
O99 In91 2.266 . S
O99 C96 1.252 . S
O100 In91 2.326 . S
O100 C96 1.260 . S
C101 O92 1.240 . S
C101 O93 1.252 . S
O102 In91 2.294 . S
O102 C95 1.240 . S
O103 In91 2.326 . S
O103 C95 1.252 . S
In104 O105 2.294 1_655 S
In104 O106 2.326 . S
In104 O110 2.266 1_656 S
In104 O111 2.326 1_556 S
In104 O112 2.266 . S
In104 O113 2.326 1_655 S
In104 O115 2.294 . S
In104 O116 2.326 . S
O105 In104 2.294 1_455 S
O105 C114 1.241 1_455 S
O106 In104 2.326 . S
O106 C114 1.250 . S
C107 O110 1.241 1_655 S
C107 O111 1.277 . S
C108 O115 1.240 . S
C108 O116 1.252 . S
C109 O112 1.252 . S
C109 O113 1.260 1_655 S
O110 In104 2.266 1_454 S
O110 C107 1.241 1_455 S
O111 In104 2.326 1_554 S
O111 C107 1.277 . S
O112 In104 2.266 . S
O112 C109 1.252 . S
O113 In104 2.326 1_455 S
O113 C109 1.260 1_455 S
C114 O105 1.241 1_655 S
C114 O106 1.250 . S
O115 In104 2.294 . S
O115 C108 1.240 . S
O116 In104 2.326 . S
O116 C108 1.252 . S
In117 O118 2.294 . S
In117 O119 2.326 . S
In117 O123 2.266 . S
In117 O124 2.326 . S
In117 O125 2.266 . S
In117 O126 2.326 . S
In117 O128 2.294 . S
In117 O129 2.326 . S
O118 In117 2.294 . S
O118 C127 1.240 . S
O119 In117 2.326 . S
O119 C127 1.252 . S
C120 O123 1.252 . S
C120 O124 1.260 . S
C121 O128 1.240 . S
C121 O129 1.252 . S
C122 O125 1.252 . S
C122 O126 1.260 . S
O123 In117 2.266 . S
O123 C120 1.252 . S
O124 In117 2.326 . S
O124 C120 1.260 . S
O125 In117 2.266 . S
O125 C122 1.252 . S
O126 In117 2.326 . S
O126 C122 1.260 . S
C127 O118 1.240 . S
C127 O119 1.252 . S
O128 In117 2.294 . S
O128 C121 1.240 . S
O129 In117 2.326 . S
O129 C121 1.252 . S
In130 O131 2.294 . S
In130 O132 2.326 . S
In130 O136 2.266 . S
In130 O137 2.326 . S
In130 O138 2.266 . S
In130 O139 2.326 . S
In130 O141 2.294 . S
In130 O142 2.326 . S
O131 In130 2.294 . S
O131 C140 1.240 . S
O132 In130 2.326 . S
O132 C140 1.252 . S
C133 O136 1.252 . S
C133 O137 1.260 . S
C134 O141 1.240 . S
C134 O142 1.252 . S
C135 O138 1.252 . S
C135 O139 1.260 . S
O136 In130 2.266 . S
O136 C133 1.252 . S
O137 In130 2.326 . S
O137 C133 1.260 . S
O138 In130 2.266 . S
O138 C135 1.252 . S
O139 In130 2.326 . S
O139 C135 1.260 . S
C140 O131 1.240 . S
C140 O132 1.252 . S
O141 In130 2.294 . S
O141 C134 1.240 . S
O142 In130 2.326 . S
O142 C134 1.252 . S
In143 O144 2.294 . S
In143 O145 2.326 . S
In143 O149 2.266 . S
In143 O150 2.326 . S
In143 O151 2.266 . S
In143 O152 2.326 . S
In143 O154 2.294 . S
In143 O155 2.326 . S
O144 In143 2.294 . S
O144 C153 1.240 . S
O145 In143 2.326 . S
O145 C153 1.252 . S
C146 O149 1.252 . S
C146 O150 1.260 . S
C147 O154 1.240 . S
C147 O155 1.252 . S
C148 O151 1.252 . S
C148 O152 1.260 . S
O149 In143 2.266 . S
O149 C146 1.252 . S
O150 In143 2.326 . S
O150 C146 1.260 . S
O151 In143 2.266 . S
O151 C148 1.252 . S
O152 In143 2.326 . S
O152 C148 1.260 . S
C153 O144 1.240 . S
C153 O145 1.252 . S
O154 In143 2.294 . S
O154 C147 1.240 . S
O155 In143 2.326 . S
O155 C147 1.252 . S
In156 O157 2.294 . S
In156 O158 2.326 . S
In156 O162 2.266 . S
In156 O163 2.326 1_655 S
In156 O164 2.266 1_655 S
In156 O165 2.326 . S
In156 O167 2.294 1_655 S
In156 O168 2.326 . S
O157 In156 2.294 . S
O157 C166 1.240 . S
O158 In156 2.326 . S
O158 C166 1.252 . S
C159 O162 1.252 . S
C159 O163 1.260 1_655 S
C160 O167 1.241 1_655 S
C160 O168 1.250 . S
C161 O164 1.242 1_655 S
C161 O165 1.277 . S
O162 In156 2.266 . S
O162 C159 1.252 . S
O163 In156 2.326 1_455 S
O163 C159 1.260 1_455 S
O164 In156 2.266 1_455 S
O164 C161 1.242 1_455 S
O165 In156 2.326 . S
O165 C161 1.277 . S
C166 O157 1.240 . S
C166 O158 1.252 . S
O167 In156 2.294 1_455 S
O167 C160 1.241 1_455 S
O168 In156 2.326 . S
O168 C160 1.250 . S
In169 O170 2.294 . S
In169 O171 2.326 . S
In169 O175 2.266 . S
In169 O176 2.326 . S
In169 O177 2.266 . S
In169 O178 2.326 . S
In169 O180 2.294 . S
In169 O181 2.326 . S
O170 In169 2.294 . S
O170 C179 1.240 . S
O171 In169 2.326 . S
O171 C179 1.252 . S
C172 O175 1.252 . S
C172 O176 1.260 . S
C173 O180 1.240 . S
C173 O181 1.252 . S
C174 O177 1.252 . S
C174 O178 1.260 . S
O175 In169 2.266 . S
O175 C172 1.252 . S
O176 In169 2.326 . S
O176 C172 1.260 . S
O177 In169 2.266 . S
O177 C174 1.252 . S
O178 In169 2.326 . S
O178 C174 1.260 . S
C179 O170 1.240 . S
C179 O171 1.252 . S
O180 In169 2.294 . S
O180 C173 1.240 . S
O181 In169 2.326 . S
O181 C173 1.252 . S
In182 O183 2.294 . S
In182 O184 2.326 . S
In182 O188 2.266 1_554 S
In182 O189 2.326 1_554 S
In182 O190 2.266 . S
In182 O191 2.326 . S
In182 O193 2.294 . S
In182 O194 2.326 . S
O183 In182 2.294 . S
O183 C192 1.240 . S
O184 In182 2.326 . S
O184 C192 1.252 . S
C185 O188 1.252 . S
C185 O189 1.260 . S
C186 O193 1.240 . S
C186 O194 1.252 . S
C187 O190 1.252 . S
C187 O191 1.260 . S
O188 In182 2.266 1_556 S
O188 C185 1.252 . S
O189 In182 2.326 1_556 S
O189 C185 1.260 . S
O190 In182 2.266 . S
O190 C187 1.252 . S
O191 In182 2.326 . S
O191 C187 1.260 . S
C192 O183 1.240 . S
C192 O184 1.252 . S
O193 In182 2.294 . S
O193 C186 1.240 . S
O194 In182 2.326 . S
O194 C186 1.252 . S
In195 O196 2.294 . S
In195 O197 2.326 . S
In195 O201 2.266 . S
In195 O202 2.326 . S
In195 O203 2.266 . S
In195 O204 2.326 . S
In195 O206 2.294 . S
In195 O207 2.326 . S
O196 In195 2.294 . S
O196 C205 1.240 . S
O197 In195 2.326 . S
O197 C205 1.252 . S
C198 O201 1.252 . S
C198 O202 1.260 . S
C199 O206 1.240 . S
C199 O207 1.252 . S
C200 O203 1.252 . S
C200 O204 1.260 . S
O201 In195 2.266 . S
O201 C198 1.252 . S
O202 In195 2.326 . S
O202 C198 1.260 . S
O203 In195 2.266 . S
O203 C200 1.252 . S
O204 In195 2.326 . S
O204 C200 1.260 . S
C205 O196 1.240 . S
C205 O197 1.252 . S
O206 In195 2.294 . S
O206 C199 1.240 . S
O207 In195 2.326 . S
O207 C199 1.252 . S
In208 O209 2.294 . S
In208 O210 2.326 . S
In208 O214 2.266 . S
In208 O215 2.326 . S
In208 O216 2.266 . S
In208 O217 2.326 . S
In208 O219 2.294 . S
In208 O220 2.326 . S
O209 In208 2.294 . S
O209 C218 1.240 . S
O210 In208 2.326 . S
O210 C218 1.252 . S
C211 O214 1.252 . S
C211 O215 1.260 . S
C212 O219 1.240 . S
C212 O220 1.252 . S
C213 O216 1.252 . S
C213 O217 1.260 . S
O214 In208 2.266 . S
O214 C211 1.252 . S
O215 In208 2.326 . S
O215 C211 1.260 . S
O216 In208 2.266 . S
O216 C213 1.252 . S
O217 In208 2.326 . S
O217 C213 1.260 . S
C218 O209 1.240 . S
C218 O210 1.252 . S
O219 In208 2.294 . S
O219 C212 1.240 . S
O220 In208 2.326 . S
O220 C212 1.252 . S
In221 O222 2.294 . S
In221 O223 2.326 . S
In221 O227 2.266 . S
In221 O228 2.326 . S
In221 O229 2.266 . S
In221 O230 2.326 . S
In221 O232 2.294 . S
In221 O233 2.326 . S
O222 In221 2.294 . S
O222 C231 1.240 . S
O223 In221 2.326 . S
O223 C231 1.252 . S
C224 O227 1.252 . S
C224 O228 1.260 . S
C225 O232 1.240 . S
C225 O233 1.252 . S
C226 O229 1.252 . S
C226 O230 1.260 . S
O227 In221 2.266 . S
O227 C224 1.252 . S
O228 In221 2.326 . S
O228 C224 1.260 . S
O229 In221 2.266 . S
O229 C226 1.252 . S
O230 In221 2.326 . S
O230 C226 1.260 . S
C231 O222 1.240 . S
C231 O223 1.252 . S
O232 In221 2.294 . S
O232 C225 1.240 . S
O233 In221 2.326 . S
O233 C225 1.252 . S
In234 O235 2.294 1_655 S
In234 O236 2.326 . S
In234 O240 2.266 1_654 S
In234 O241 2.326 1_554 S
In234 O242 2.266 . S
In234 O243 2.326 1_655 S
In234 O245 2.294 . S
In234 O246 2.326 . S
O235 In234 2.294 1_455 S
O235 C244 1.241 1_455 S
O236 In234 2.326 . S
O236 C244 1.250 . S
C237 O240 1.241 1_655 S
C237 O241 1.277 . S
C238 O245 1.240 . S
C238 O246 1.252 . S
C239 O242 1.252 . S
C239 O243 1.260 1_655 S
O240 In234 2.266 1_456 S
O240 C237 1.241 1_455 S
O241 In234 2.326 1_556 S
O241 C237 1.277 . S
O242 In234 2.266 . S
O242 C239 1.252 . S
O243 In234 2.326 1_455 S
O243 C239 1.260 1_455 S
C244 O235 1.241 1_655 S
C244 O236 1.250 . S
O245 In234 2.294 . S
O245 C238 1.240 . S
O246 In234 2.326 . S
O246 C238 1.252 . S
In247 O248 2.294 . S
In247 O249 2.326 . S
In247 O253 2.266 . S
In247 O254 2.326 . S
In247 O255 2.266 . S
In247 O256 2.326 . S
In247 O258 2.294 . S
In247 O259 2.326 . S
O248 In247 2.294 . S
O248 C257 1.240 . S
O249 In247 2.326 . S
O249 C257 1.252 . S
C250 O253 1.252 . S
C250 O254 1.260 . S
C251 O258 1.240 . S
C251 O259 1.252 . S
C252 O255 1.252 . S
C252 O256 1.260 . S
O253 In247 2.266 . S
O253 C250 1.252 . S
O254 In247 2.326 . S
O254 C250 1.260 . S
O255 In247 2.266 . S
O255 C252 1.252 . S
O256 In247 2.326 . S
O256 C252 1.260 . S
C257 O248 1.240 . S
C257 O249 1.252 . S
O258 In247 2.294 . S
O258 C251 1.240 . S
O259 In247 2.326 . S
O259 C251 1.252 . S
In260 O261 2.294 . S
In260 O262 2.326 . S
In260 O266 2.266 . S
In260 O267 2.326 . S
In260 O268 2.266 1_556 S
In260 O269 2.326 1_556 S
In260 O271 2.294 . S
In260 O272 2.326 . S
O261 In260 2.294 . S
O261 C270 1.240 . S
O262 In260 2.326 . S
O262 C270 1.252 . S
C263 O266 1.252 . S
C263 O267 1.260 . S
C264 O271 1.240 . S
C264 O272 1.252 . S
C265 O268 1.252 . S
C265 O269 1.260 . S
O266 In260 2.266 . S
O266 C263 1.252 . S
O267 In260 2.326 . S
O267 C263 1.260 . S
O268 In260 2.266 1_554 S
O268 C265 1.252 . S
O269 In260 2.326 1_554 S
O269 C265 1.260 . S
C270 O261 1.240 . S
C270 O262 1.252 . S
O271 In260 2.294 . S
O271 C264 1.240 . S
O272 In260 2.326 . S
O272 C264 1.252 . S
In273 O274 2.294 . S
In273 O275 2.326 . S
In273 O279 2.266 . S
In273 O280 2.326 . S
In273 O281 2.266 . S
In273 O282 2.326 . S
In273 O284 2.294 . S
In273 O285 2.326 . S
O274 In273 2.294 . S
O274 C283 1.240 . S
O275 In273 2.326 . S
O275 C283 1.252 . S
C276 O279 1.252 . S
C276 O280 1.260 . S
C277 O284 1.240 . S
C277 O285 1.252 . S
C278 O281 1.252 . S
C278 O282 1.260 . S
O279 In273 2.266 . S
O279 C276 1.252 . S
O280 In273 2.326 . S
O280 C276 1.260 . S
O281 In273 2.266 . S
O281 C278 1.252 . S
O282 In273 2.326 . S
O282 C278 1.260 . S
C283 O274 1.240 . S
C283 O275 1.252 . S
O284 In273 2.294 . S
O284 C277 1.240 . S
O285 In273 2.326 . S
O285 C277 1.252 . S
In286 O287 2.294 . S
In286 O288 2.326 . S
In286 O292 2.266 . S
In286 O293 2.326 1_655 S
In286 O294 2.266 1_655 S
In286 O295 2.326 . S
In286 O297 2.294 1_655 S
In286 O298 2.326 . S
O287 In286 2.294 . S
O287 C296 1.240 . S
O288 In286 2.326 . S
O288 C296 1.252 . S
C289 O292 1.252 . S
C289 O293 1.260 1_655 S
C290 O297 1.241 1_655 S
C290 O298 1.250 . S
C291 O294 1.241 1_655 S
C291 O295 1.277 . S
O292 In286 2.266 . S
O292 C289 1.252 . S
O293 In286 2.326 1_455 S
O293 C289 1.260 1_455 S
O294 In286 2.266 1_455 S
O294 C291 1.241 1_455 S
O295 In286 2.326 . S
O295 C291 1.277 . S
C296 O287 1.240 . S
C296 O288 1.252 . S
O297 In286 2.294 1_455 S
O297 C290 1.241 1_455 S
O298 In286 2.326 . S
O298 C290 1.250 . S
In299 O300 2.294 . S
In299 O301 2.326 . S
In299 O305 2.266 . S
In299 O306 2.326 . S
In299 O307 2.266 . S
In299 O308 2.326 . S
In299 O310 2.294 . S
In299 O311 2.326 . S
O300 In299 2.294 . S
O300 C309 1.240 . S
O301 In299 2.326 . S
O301 C309 1.252 . S
C302 O305 1.252 . S
C302 O306 1.260 . S
C303 O310 1.240 . S
C303 O311 1.252 . S
C304 O307 1.252 . S
C304 O308 1.260 . S
O305 In299 2.266 . S
O305 C302 1.252 . S
O306 In299 2.326 . S
O306 C302 1.260 . S
O307 In299 2.266 . S
O307 C304 1.252 . S
O308 In299 2.326 . S
O308 C304 1.260 . S
C309 O300 1.240 . S
C309 O301 1.252 . S
O310 In299 2.294 . S
O310 C303 1.240 . S
O311 In299 2.326 . S
O311 C303 1.252 . S
In312 O313 2.294 . S
In312 O314 2.326 . S
In312 O318 2.266 . S
In312 O319 2.326 . S
In312 O320 2.266 . S
In312 O321 2.326 . S
In312 O323 2.294 . S
In312 O324 2.326 . S
O313 In312 2.294 . S
O313 C322 1.240 . S
O314 In312 2.326 . S
O314 C322 1.252 . S
C315 O318 1.252 . S
C315 O319 1.260 . S
C316 O323 1.240 . S
C316 O324 1.252 . S
C317 O320 1.252 . S
C317 O321 1.260 . S
O318 In312 2.266 . S
O318 C315 1.252 . S
O319 In312 2.326 . S
O319 C315 1.260 . S
O320 In312 2.266 . S
O320 C317 1.252 . S
O321 In312 2.326 . S
O321 C317 1.260 . S
C322 O313 1.240 . S
C322 O314 1.252 . S
O323 In312 2.294 . S
O323 C316 1.240 . S
O324 In312 2.326 . S
O324 C316 1.252 . S
In325 O326 2.294 . S
In325 O327 2.326 . S
In325 O331 2.266 . S
In325 O332 2.326 . S
In325 O333 2.266 . S
In325 O334 2.326 . S
In325 O336 2.294 . S
In325 O337 2.326 . S
O326 In325 2.294 . S
O326 C335 1.240 . S
O327 In325 2.326 . S
O327 C335 1.252 . S
C328 O331 1.252 . S
C328 O332 1.260 . S
C329 O336 1.240 . S
C329 O337 1.252 . S
C330 O333 1.252 . S
C330 O334 1.260 . S
O331 In325 2.266 . S
O331 C328 1.252 . S
O332 In325 2.326 . S
O332 C328 1.260 . S
O333 In325 2.266 . S
O333 C330 1.252 . S
O334 In325 2.326 . S
O334 C330 1.260 . S
C335 O326 1.240 . S
C335 O327 1.252 . S
O336 In325 2.294 . S
O336 C329 1.240 . S
O337 In325 2.326 . S
O337 C329 1.252 . S
In338 O339 2.294 . S
In338 O340 2.326 . S
In338 O344 2.266 . S
In338 O345 2.326 1_455 S
In338 O346 2.266 1_456 S
In338 O347 2.326 1_556 S
In338 O349 2.294 1_455 S
In338 O350 2.326 . S
O339 In338 2.294 . S
O339 C348 1.240 . S
O340 In338 2.326 . S
O340 C348 1.252 . S
C341 O344 1.252 . S
C341 O345 1.260 1_455 S
C342 O349 1.241 1_455 S
C342 O350 1.250 . S
C343 O346 1.241 1_455 S
C343 O347 1.277 . S
O344 In338 2.266 . S
O344 C341 1.252 . S
O345 In338 2.326 1_655 S
O345 C341 1.260 1_655 S
O346 In338 2.266 1_654 S
O346 C343 1.241 1_655 S
O347 In338 2.326 1_554 S
O347 C343 1.277 . S
C348 O339 1.240 . S
C348 O340 1.252 . S
O349 In338 2.294 1_655 S
O349 C342 1.241 1_655 S
O350 In338 2.326 . S
O350 C342 1.250 . S
In351 O352 2.294 . S
In351 O353 2.326 . S
In351 O357 2.266 . S
In351 O358 2.326 . S
In351 O359 2.266 . S
In351 O360 2.326 . S
In351 O362 2.294 . S
In351 O363 2.326 . S
O352 In351 2.294 . S
O352 C361 1.240 . S
O353 In351 2.326 . S
O353 C361 1.252 . S
C354 O357 1.252 . S
C354 O358 1.260 . S
C355 O362 1.240 . S
C355 O363 1.252 . S
C356 O359 1.252 . S
C356 O360 1.260 . S
O357 In351 2.266 . S
O357 C354 1.252 . S
O358 In351 2.326 . S
O358 C354 1.260 . S
O359 In351 2.266 . S
O359 C356 1.252 . S
O360 In351 2.326 . S
O360 C356 1.260 . S
C361 O352 1.240 . S
C361 O353 1.252 . S
O362 In351 2.294 . S
O362 C355 1.240 . S
O363 In351 2.326 . S
O363 C355 1.252 . S
In364 O365 2.294 . S
In364 O366 2.326 . S
In364 O370 2.266 . S
In364 O371 2.326 . S
In364 O372 2.266 1_554 S
In364 O373 2.326 1_554 S
In364 O375 2.294 . S
In364 O376 2.326 . S
O365 In364 2.294 . S
O365 C374 1.240 . S
O366 In364 2.326 . S
O366 C374 1.252 . S
C367 O370 1.252 . S
C367 O371 1.260 . S
C368 O375 1.240 . S
C368 O376 1.252 . S
C369 O372 1.252 . S
C369 O373 1.260 . S
O370 In364 2.266 . S
O370 C367 1.252 . S
O371 In364 2.326 . S
O371 C367 1.260 . S
O372 In364 2.266 1_556 S
O372 C369 1.252 . S
O373 In364 2.326 1_556 S
O373 C369 1.260 . S
C374 O365 1.240 . S
C374 O366 1.252 . S
O375 In364 2.294 . S
O375 C368 1.240 . S
O376 In364 2.326 . S
O376 C368 1.252 . S
In377 O378 2.294 . S
In377 O379 2.326 . S
In377 O383 2.266 . S
In377 O384 2.326 . S
In377 O385 2.266 . S
In377 O386 2.326 . S
In377 O388 2.294 . S
In377 O389 2.326 . S
O378 In377 2.294 . S
O378 C387 1.240 . S
O379 In377 2.326 . S
O379 C387 1.252 . S
C380 O383 1.252 . S
C380 O384 1.260 . S
C381 O388 1.240 . S
C381 O389 1.252 . S
C382 O385 1.252 . S
C382 O386 1.260 . S
O383 In377 2.266 . S
O383 C380 1.252 . S
O384 In377 2.326 . S
O384 C380 1.260 . S
O385 In377 2.266 . S
O385 C382 1.252 . S
O386 In377 2.326 . S
O386 C382 1.260 . S
C387 O378 1.240 . S
C387 O379 1.252 . S
O388 In377 2.294 . S
O388 C381 1.240 . S
O389 In377 2.326 . S
O389 C381 1.252 . S
In390 O391 2.294 1_455 S
In390 O392 2.326 . S
In390 O396 2.266 1_455 S
In390 O397 2.326 . S
In390 O398 2.266 . S
In390 O399 2.326 1_455 S
In390 O401 2.294 . S
In390 O402 2.326 . S
O391 In390 2.294 1_655 S
O391 C400 1.241 1_655 S
O392 In390 2.326 . S
O392 C400 1.250 . S
C393 O396 1.241 1_455 S
C393 O397 1.277 . S
C394 O401 1.240 . S
C394 O402 1.252 . S
C395 O398 1.252 . S
C395 O399 1.260 1_455 S
O396 In390 2.266 1_655 S
O396 C393 1.241 1_655 S
O397 In390 2.326 . S
O397 C393 1.277 . S
O398 In390 2.266 . S
O398 C395 1.252 . S
O399 In390 2.326 1_655 S
O399 C395 1.260 1_655 S
C400 O391 1.241 1_455 S
C400 O392 1.250 . S
O401 In390 2.294 . S
O401 C394 1.240 . S
O402 In390 2.326 . S
O402 C394 1.252 . S
In403 O404 2.294 . S
In403 O405 2.326 . S
In403 O409 2.266 . S
In403 O410 2.326 . S
In403 O411 2.266 . S
In403 O412 2.326 . S
In403 O414 2.294 . S
In403 O415 2.326 . S
O404 In403 2.294 . S
O404 C413 1.240 . S
O405 In403 2.326 . S
O405 C413 1.252 . S
C406 O409 1.252 . S
C406 O410 1.260 . S
C407 O414 1.240 . S
C407 O415 1.252 . S
C408 O411 1.252 . S
C408 O412 1.260 . S
O409 In403 2.266 . S
O409 C406 1.252 . S
O410 In403 2.326 . S
O410 C406 1.260 . S
O411 In403 2.266 . S
O411 C408 1.252 . S
O412 In403 2.326 . S
O412 C408 1.260 . S
C413 O404 1.240 . S
C413 O405 1.252 . S
O414 In403 2.294 . S
O414 C407 1.240 . S
O415 In403 2.326 . S
O415 C407 1.252 . S
C416 C417 1.387 . S
C416 H420 0.950 . S
C416 C425 1.390 1_455 S
C417 C416 1.387 . S
C417 C419 1.387 . S
H418 C425 0.950 . S
C419 C417 1.387 . S
C419 C421 1.390 1_455 S
C419 H423 0.950 . S
H420 C416 0.950 . S
C421 C419 1.390 1_655 S
C421 C422 1.387 . S
C421 H424 0.950 . S
C422 C421 1.387 . S
C422 C425 1.387 . S
H423 C419 0.950 . S
H424 C421 0.950 . S
C425 C416 1.390 1_655 S
C425 H418 0.950 . S
C425 C422 1.387 . S
C426 C427 1.387 1_554 S
C426 H430 0.950 . S
C426 C435 1.390 . S
C427 C426 1.387 1_556 S
C427 C429 1.387 1_556 S
H428 C435 0.950 . S
C429 C427 1.387 1_554 S
C429 C431 1.390 . S
C429 H433 0.950 . S
H430 C426 0.950 . S
C431 C429 1.390 . S
C431 C432 1.387 . S
C431 H434 0.950 . S
C432 C431 1.387 . S
C432 C435 1.387 . S
H433 C429 0.950 . S
H434 C431 0.950 . S
C435 C426 1.390 . S
C435 H428 0.950 . S
C435 C432 1.387 . S
C436 C437 1.387 . S
C436 H440 0.950 . S
C436 C445 1.390 . S
C437 C436 1.387 . S
C437 C439 1.387 . S
H438 C445 0.950 . S
C439 C437 1.387 . S
C439 C441 1.390 . S
C439 H443 0.950 . S
H440 C436 0.950 . S
C441 C439 1.390 . S
C441 C442 1.387 . S
C441 H444 0.950 . S
C442 C441 1.387 . S
C442 C445 1.387 . S
H443 C439 0.950 . S
H444 C441 0.950 . S
C445 C436 1.390 . S
C445 H438 0.950 . S
C445 C442 1.387 . S
C446 C447 1.387 . S
C446 H450 0.950 . S
C446 C455 1.390 . S
C447 C446 1.387 . S
C447 C449 1.387 . S
H448 C455 0.950 . S
C449 C447 1.387 . S
C449 C451 1.390 . S
C449 H453 0.950 . S
H450 C446 0.950 . S
C451 C449 1.390 . S
C451 C452 1.387 . S
C451 H454 0.950 . S
C452 C451 1.387 . S
C452 C455 1.387 . S
H453 C449 0.950 . S
H454 C451 0.950 . S
C455 C446 1.390 . S
C455 H448 0.950 . S
C455 C452 1.387 . S
C456 C457 1.380 1_655 S
C456 H460 0.954 . S
C456 C465 1.397 . S
C457 C456 1.380 1_455 S
C457 C459 1.387 . S
H458 C465 0.950 . S
C459 C457 1.387 . S
C459 C461 1.390 . S
C459 H463 0.950 . S
H460 C456 0.954 . S
C461 C459 1.390 . S
C461 C462 1.387 1_455 S
C461 H464 0.950 . S
C462 C461 1.387 1_655 S
C462 C465 1.387 . S
H463 C459 0.950 . S
H464 C461 0.950 . S
C465 C456 1.397 . S
C465 H458 0.950 . S
C465 C462 1.387 . S
C466 C467 1.387 . S
C466 H470 0.950 . S
C466 C475 1.390 . S
C467 C466 1.387 . S
C467 C469 1.387 . S
H468 C475 0.950 . S
C469 C467 1.387 . S
C469 C471 1.390 . S
C469 H473 0.950 . S
H470 C466 0.950 . S
C471 C469 1.390 . S
C471 C472 1.387 1_556 S
C471 H474 0.950 . S
C472 C471 1.387 1_554 S
C472 C475 1.387 1_554 S
H473 C469 0.950 . S
H474 C471 0.950 . S
C475 C466 1.390 . S
C475 H468 0.950 . S
C475 C472 1.387 1_556 S
C476 C477 1.387 . S
C476 H480 0.950 . S
C476 C485 1.390 . S
C477 C476 1.387 . S
C477 C479 1.387 . S
H478 C485 0.950 . S
C479 C477 1.387 . S
C479 C481 1.390 . S
C479 H483 0.950 . S
H480 C476 0.950 . S
C481 C479 1.390 . S
C481 C482 1.387 . S
C481 H484 0.950 . S
C482 C481 1.387 . S
C482 C485 1.387 . S
H483 C479 0.950 . S
H484 C481 0.950 . S
C485 C476 1.390 . S
C485 H478 0.950 . S
C485 C482 1.387 . S
C486 C487 1.387 . S
C486 H490 0.950 . S
C486 C495 1.390 . S
C487 C486 1.387 . S
C487 C489 1.387 . S
H488 C495 0.950 . S
C489 C487 1.387 . S
C489 C491 1.390 . S
C489 H493 0.950 . S
H490 C486 0.950 . S
C491 C489 1.390 . S
C491 C492 1.387 . S
C491 H494 0.950 . S
C492 C491 1.387 . S
C492 C495 1.387 . S
H493 C489 0.950 . S
H494 C491 0.950 . S
C495 C486 1.390 . S
C495 H488 0.950 . S
C495 C492 1.387 . S
C496 C497 1.387 1_455 S
C496 H500 0.950 . S
C496 C505 1.390 . S
C497 C496 1.387 1_655 S
C497 C499 1.387 . S
H498 C505 0.950 . S
C499 C497 1.387 . S
C499 C501 1.390 . S
C499 H503 0.950 . S
H500 C496 0.950 . S
C501 C499 1.390 . S
C501 C502 1.387 1_655 S
C501 H504 0.950 . S
C502 C501 1.387 1_455 S
C502 C505 1.387 . S
H503 C499 0.950 . S
H504 C501 0.950 . S
C505 C496 1.390 . S
C505 H498 0.950 . S
C505 C502 1.387 . S
C506 C507 1.387 1_556 S
C506 H510 0.950 1_556 S
C506 C515 1.390 . S
C507 C506 1.387 1_554 S
C507 C509 1.387 1_554 S
H508 C515 0.950 . S
C509 C507 1.387 1_556 S
C509 C511 1.390 . S
C509 H513 0.950 . S
H510 C506 0.950 1_554 S
C511 C509 1.390 . S
C511 C512 1.387 . S
C511 H514 0.950 . S
C512 C511 1.387 . S
C512 C515 1.387 . S
H513 C509 0.950 . S
H514 C511 0.950 . S
C515 C506 1.390 . S
C515 H508 0.950 . S
C515 C512 1.387 . S
C516 C517 1.387 . S
C516 H520 0.950 . S
C516 C525 1.390 . S
C517 C516 1.387 . S
C517 C519 1.387 . S
H518 C525 0.950 . S
C519 C517 1.387 . S
C519 C521 1.390 . S
C519 H523 0.950 . S
H520 C516 0.950 . S
C521 C519 1.390 . S
C521 C522 1.387 . S
C521 H524 0.950 . S
C522 C521 1.387 . S
C522 C525 1.387 . S
H523 C519 0.950 . S
H524 C521 0.950 . S
C525 C516 1.390 . S
C525 H518 0.950 . S
C525 C522 1.387 . S
C526 C527 1.387 . S
C526 H530 0.950 . S
C526 C535 1.390 . S
C527 C526 1.387 . S
C527 C529 1.387 . S
H528 C535 0.950 . S
C529 C527 1.387 . S
C529 C531 1.390 . S
C529 H533 0.950 . S
H530 C526 0.950 . S
C531 C529 1.390 . S
C531 C532 1.387 . S
C531 H534 0.950 . S
C532 C531 1.387 . S
C532 C535 1.387 . S
H533 C529 0.950 . S
H534 C531 0.950 . S
C535 C526 1.390 . S
C535 H528 0.950 . S
C535 C532 1.387 . S
C536 C537 1.387 1_655 S
C536 H540 0.950 . S
C536 C545 1.390 . S
C537 C536 1.387 1_455 S
C537 C539 1.387 . S
H538 C545 0.950 . S
C539 C537 1.387 . S
C539 C541 1.390 . S
C539 H543 0.950 . S
H540 C536 0.950 . S
C541 C539 1.390 . S
C541 C542 1.387 1_455 S
C541 H544 0.950 . S
C542 C541 1.387 1_655 S
C542 C545 1.387 . S
H543 C539 0.950 . S
H544 C541 0.950 . S
C545 C536 1.390 . S
C545 H538 0.950 . S
C545 C542 1.387 . S
C546 C547 1.387 . S
C546 H550 0.950 . S
C546 C555 1.390 . S
C547 C546 1.387 . S
C547 C549 1.387 . S
H548 C555 0.950 1_556 S
C549 C547 1.387 . S
C549 C551 1.390 . S
C549 H553 0.950 . S
H550 C546 0.950 . S
C551 C549 1.390 . S
C551 C552 1.387 1_554 S
C551 H554 0.950 . S
C552 C551 1.387 1_556 S
C552 C555 1.387 1_556 S
H553 C549 0.950 . S
H554 C551 0.950 . S
C555 C546 1.390 . S
C555 H548 0.950 1_554 S
C555 C552 1.387 1_554 S
C556 C557 1.387 . S
C556 H560 0.950 . S
C556 C565 1.390 . S
C557 C556 1.387 . S
C557 C559 1.387 . S
H558 C565 0.950 . S
C559 C557 1.387 . S
C559 C561 1.390 . S
C559 H563 0.950 . S
H560 C556 0.950 . S
C561 C559 1.390 . S
C561 C562 1.387 . S
C561 H564 0.950 . S
C562 C561 1.387 . S
C562 C565 1.387 . S
H563 C559 0.950 . S
H564 C561 0.950 . S
C565 C556 1.390 . S
C565 H558 0.950 . S
C565 C562 1.387 . S
C566 C567 1.387 . S
C566 H570 0.950 . S
C566 C575 1.390 . S
C567 C566 1.387 . S
C567 C569 1.387 . S
H568 C575 0.950 . S
C569 C567 1.387 . S
C569 C571 1.390 . S
C569 H573 0.950 . S
H570 C566 0.950 . S
C571 C569 1.390 . S
C571 C572 1.387 . S
C571 H574 0.950 . S
C572 C571 1.387 . S
C572 C575 1.387 . S
H573 C569 0.950 . S
H574 C571 0.950 . S
C575 C566 1.390 . S
C575 H568 0.950 . S
C575 C572 1.387 . S
C576 C577 1.387 . S
C576 H580 0.950 . S
C576 C585 1.390 . S
C577 C576 1.387 . S
C577 C579 1.387 . S
H578 C585 0.950 . S
C579 C577 1.387 . S
C579 C581 1.390 . S
C579 H583 0.950 . S
H580 C576 0.950 . S
C581 C579 1.390 . S
C581 C582 1.387 . S
C581 H584 0.950 . S
C582 C581 1.387 . S
C582 C585 1.387 . S
H583 C579 0.950 . S
H584 C581 0.950 . S
C585 C576 1.390 . S
C585 H578 0.950 . S
C585 C582 1.387 . S
C586 C587 1.387 . S
C586 H590 0.950 . S
C586 C595 1.390 . S
C587 C586 1.387 . S
C587 C589 1.387 . S
H588 C595 0.950 . S
C589 C587 1.387 . S
C589 C591 1.390 . S
C589 H593 0.950 . S
H590 C586 0.950 . S
C591 C589 1.390 . S
C591 C592 1.387 . S
C591 H594 0.950 . S
C592 C591 1.387 . S
C592 C595 1.387 . S
H593 C589 0.950 . S
H594 C591 0.950 . S
C595 C586 1.390 . S
C595 H588 0.950 . S
C595 C592 1.387 . S
C596 C597 1.387 . S
C596 H600 0.950 . S
C596 C605 1.390 . S
C597 C596 1.387 . S
C597 C599 1.391 . S
H598 C605 0.950 1_455 S
C599 C597 1.391 . S
C599 C601 1.387 1_655 S
C599 H603 0.950 . S
H600 C596 0.950 . S
C601 C599 1.387 1_455 S
C601 C602 1.387 . S
C601 H604 0.950 . S
C602 C601 1.387 . S
C602 C605 1.387 1_455 S
H603 C599 0.950 . S
H604 C601 0.950 . S
C605 C596 1.390 . S
C605 H598 0.950 1_655 S
C605 C602 1.387 1_655 S
C606 C607 1.387 . S
C606 H610 0.950 . S
C606 C615 1.390 . S
C607 C606 1.387 . S
C607 C609 1.387 . S
H608 C615 0.950 . S
C609 C607 1.387 . S
C609 C611 1.390 . S
C609 H613 0.950 . S
H610 C606 0.950 . S
C611 C609 1.390 . S
C611 C612 1.387 1_554 S
C611 H614 0.950 . S
C612 C611 1.387 1_556 S
C612 C615 1.387 1_556 S
H613 C609 0.950 . S
H614 C611 0.950 . S
C615 C606 1.390 . S
C615 H608 0.950 . S
C615 C612 1.387 1_554 S
C616 C617 1.387 . S
C616 H620 0.950 . S
C616 C625 1.390 . S
C617 C616 1.387 . S
C617 C619 1.387 . S
H618 C625 0.950 . S
C619 C617 1.387 . S
C619 C621 1.390 . S
C619 H623 0.950 . S
H620 C616 0.950 . S
C621 C619 1.390 . S
C621 C622 1.387 . S
C621 H624 0.950 . S
C622 C621 1.387 . S
C622 C625 1.387 . S
H623 C619 0.950 . S
H624 C621 0.950 . S
C625 C616 1.390 . S
C625 H618 0.950 . S
C625 C622 1.387 . S
C626 C627 1.387 . S
C626 H630 0.950 . S
C626 C635 1.390 . S
C627 C626 1.387 . S
C627 C629 1.387 . S
H628 C635 0.950 . S
C629 C627 1.387 . S
C629 C631 1.390 . S
C629 H633 0.950 . S
H630 C626 0.950 . S
C631 C629 1.390 . S
C631 C632 1.387 . S
C631 H634 0.950 . S
C632 C631 1.387 . S
C632 C635 1.387 . S
H633 C629 0.950 . S
H634 C631 0.950 . S
C635 C626 1.390 . S
C635 H628 0.950 . S
C635 C632 1.387 . S
C636 C637 1.387 . S
C636 H640 0.950 . S
C636 C645 1.390 . S
C637 C636 1.387 . S
C637 C639 1.387 1_655 S
H638 C645 0.950 . S
C639 C637 1.387 1_455 S
C639 C641 1.390 . S
C639 H643 0.950 . S
H640 C636 0.950 . S
C641 C639 1.390 . S
C641 C642 1.387 . S
C641 H644 0.950 . S
C642 C641 1.387 . S
C642 C645 1.387 1_455 S
H643 C639 0.950 . S
H644 C641 0.950 . S
C645 C636 1.390 . S
C645 H638 0.950 . S
C645 C642 1.387 1_655 S
C646 C647 1.387 1_556 S
C646 H650 0.950 . S
C646 C655 1.390 . S
C647 C646 1.387 1_554 S
C647 C649 1.387 1_554 S
H648 C655 0.950 . S
C649 C647 1.387 1_556 S
C649 C651 1.390 . S
C649 H653 0.950 . S
H650 C646 0.950 . S
C651 C649 1.390 . S
C651 C652 1.387 . S
C651 H654 0.950 . S
C652 C651 1.387 . S
C652 C655 1.387 . S
H653 C649 0.950 . S
H654 C651 0.950 . S
C655 C646 1.390 . S
C655 H648 0.950 . S
C655 C652 1.387 . S
C656 C657 1.387 . S
C656 H660 0.950 . S
C656 C665 1.390 . S
C657 C656 1.387 . S
C657 C659 1.387 . S
H658 C665 0.950 . S
C659 C657 1.387 . S
C659 C661 1.390 . S
C659 H663 0.950 . S
H660 C656 0.950 . S
C661 C659 1.390 . S
C661 C662 1.387 . S
C661 H664 0.950 . S
C662 C661 1.387 . S
C662 C665 1.387 . S
H663 C659 0.950 . S
H664 C661 0.950 . S
C665 C656 1.390 . S
C665 H658 0.950 . S
C665 C662 1.387 . S
C666 C667 1.387 . S
C666 H670 0.950 . S
C666 C675 1.390 . S
C667 C666 1.387 . S
C667 C669 1.387 . S
H668 C675 0.950 . S
C669 C667 1.387 . S
C669 C671 1.390 . S
C669 H673 0.950 . S
H670 C666 0.950 . S
C671 C669 1.390 . S
C671 C672 1.387 . S
C671 H674 0.950 . S
C672 C671 1.387 . S
C672 C675 1.387 . S
H673 C669 0.950 . S
H674 C671 0.950 . S
C675 C666 1.390 . S
C675 H668 0.950 . S
C675 C672 1.387 . S
C676 C677 1.387 . S
C676 H680 0.950 . S
C676 C685 1.390 . S
C677 C676 1.387 . S
C677 C679 1.387 1_655 S
H678 C685 0.950 . S
C679 C677 1.387 1_455 S
C679 C681 1.390 . S
C679 H683 0.950 . S
H680 C676 0.950 . S
C681 C679 1.390 . S
C681 C682 1.387 . S
C681 H684 0.950 . S
C682 C681 1.387 . S
C682 C685 1.387 1_455 S
H683 C679 0.950 . S
H684 C681 0.950 . S
C685 C676 1.390 . S
C685 H678 0.950 . S
C685 C682 1.387 1_655 S
C686 C687 1.387 . S
C686 H690 0.950 . S
C686 C695 1.390 . S
C687 C686 1.387 . S
C687 C689 1.387 . S
H688 C695 0.950 . S
C689 C687 1.387 . S
C689 C691 1.390 . S
C689 H693 0.950 . S
H690 C686 0.950 . S
C691 C689 1.390 . S
C691 C692 1.387 1_556 S
C691 H694 0.950 . S
C692 C691 1.387 1_554 S
C692 C695 1.387 1_554 S
H693 C689 0.950 . S
H694 C691 0.950 . S
C695 C686 1.390 . S
C695 H688 0.950 . S
C695 C692 1.387 1_556 S
C696 C697 1.387 . S
C696 H700 0.950 . S
C696 C705 1.390 . S
C697 C696 1.387 . S
C697 C699 1.387 . S
H698 C705 0.950 . S
C699 C697 1.387 . S
C699 C701 1.390 . S
C699 H703 0.950 . S
H700 C696 0.950 . S
C701 C699 1.390 . S
C701 C702 1.387 . S
C701 H704 0.950 . S
C702 C701 1.387 . S
C702 C705 1.387 . S
H703 C699 0.950 . S
H704 C701 0.950 . S
C705 C696 1.390 . S
C705 H698 0.950 . S
C705 C702 1.387 . S
C706 C707 1.387 . S
C706 H710 0.950 . S
C706 C715 1.390 . S
C707 C706 1.387 . S
C707 C709 1.387 . S
H708 C715 0.950 . S
C709 C707 1.387 . S
C709 C711 1.390 . S
C709 H713 0.950 . S
H710 C706 0.950 . S
C711 C709 1.390 . S
C711 C712 1.387 . S
C711 H714 0.950 . S
C712 C711 1.387 . S
C712 C715 1.387 . S
H713 C709 0.950 . S
H714 C711 0.950 . S
C715 C706 1.390 . S
C715 H708 0.950 . S
C715 C712 1.387 . S
C716 C717 1.387 . S
C716 H720 0.950 . S
C716 C725 1.390 . S
C717 C716 1.387 . S
C717 C719 1.383 1_455 S
H718 C725 0.950 . S
C719 C717 1.383 1_655 S
C719 C721 1.394 . S
C719 H723 0.951 . S
H720 C716 0.950 . S
C721 C719 1.394 . S
C721 C722 1.387 . S
C721 H724 0.950 . S
C722 C721 1.387 . S
C722 C725 1.387 1_655 S
H723 C719 0.951 . S
H724 C721 0.950 . S
C725 C716 1.390 . S
C725 H718 0.950 . S
C725 C722 1.387 1_455 S
C726 C727 1.387 . S
C726 H730 0.950 . S
C726 C735 1.390 . S
C727 C726 1.387 . S
C727 C729 1.387 . S
H728 C735 0.950 . S
C729 C727 1.387 . S
C729 C731 1.390 . S
C729 H733 0.950 . S
H730 C726 0.950 . S
C731 C729 1.390 . S
C731 C732 1.387 1_554 S
C731 H734 0.950 . S
C732 C731 1.387 1_556 S
C732 C735 1.387 1_556 S
H733 C729 0.950 . S
H734 C731 0.950 . S
C735 C726 1.390 . S
C735 H728 0.950 . S
C735 C732 1.387 1_554 S
C736 C737 1.390 . S
C736 H740 0.950 . S
C736 C745 1.388 1_445 S
C737 C736 1.390 . S
C737 C739 1.387 1_554 S
H738 C745 0.950 . S
C739 C737 1.387 1_556 S
C739 C741 1.388 1_445 S
C739 H743 0.950 . S
H740 C736 0.950 . S
C741 C739 1.388 1_665 S
C741 C742 1.390 . S
C741 H744 0.950 . S
C742 C741 1.390 . S
C742 C745 1.387 1_556 S
H743 C739 0.950 . S
H744 C741 0.950 . S
C745 C736 1.388 1_665 S
C745 H738 0.950 . S
C745 C742 1.387 1_554 S
C746 C747 1.387 . S
C746 H750 0.950 . S
C746 C755 1.390 . S
C747 C746 1.387 . S
C747 C749 1.387 . S
H748 C755 0.950 . S
C749 C747 1.387 . S
C749 C751 1.390 . S
C749 H753 0.950 . S
H750 C746 0.950 . S
C751 C749 1.390 . S
C751 C752 1.387 . S
C751 H754 0.950 . S
C752 C751 1.387 . S
C752 C755 1.387 . S
H753 C749 0.950 . S
H754 C751 0.950 . S
C755 C746 1.390 . S
C755 H748 0.950 . S
C755 C752 1.387 . S
C756 C757 1.387 . S
C756 H760 0.950 . S
C756 C765 1.390 1_545 S
C757 C756 1.387 . S
C757 C759 1.387 . S
H758 C765 0.950 . S
C759 C757 1.387 . S
C759 C761 1.390 1_545 S
C759 H763 0.950 . S
H760 C756 0.950 . S
C761 C759 1.390 1_565 S
C761 C762 1.387 . S
C761 H764 0.950 . S
C762 C761 1.387 . S
C762 C765 1.387 . S
H763 C759 0.950 . S
H764 C761 0.950 . S
C765 C756 1.390 1_565 S
C765 H758 0.950 . S
C765 C762 1.387 . S
C766 C767 1.387 . S
C766 H770 0.950 . S
C766 C775 1.390 . S
C767 C766 1.387 . S
C767 C769 1.387 . S
H768 C775 0.950 . S
C769 C767 1.387 . S
C769 C771 1.390 . S
C769 H773 0.950 . S
H770 C766 0.950 . S
C771 C769 1.390 . S
C771 C772 1.387 . S
C771 H774 0.950 . S
C772 C771 1.387 . S
C772 C775 1.387 . S
H773 C769 0.950 . S
H774 C771 0.950 . S
C775 C766 1.390 . S
C775 H768 0.950 . S
C775 C772 1.387 . S
C776 C777 1.387 1_655 S
C776 H780 0.950 . S
C776 C785 1.390 1_565 S
C777 C776 1.387 1_455 S
C777 C779 1.387 . S
H778 C785 0.950 . S
C779 C777 1.387 . S
C779 C781 1.390 1_565 S
C779 H783 0.950 . S
H780 C776 0.950 . S
C781 C779 1.390 1_545 S
C781 C782 1.387 1_455 S
C781 H784 0.950 . S
C782 C781 1.387 1_655 S
C782 C785 1.387 . S
H783 C779 0.950 . S
H784 C781 0.950 . S
C785 C776 1.390 1_545 S
C785 H778 0.950 . S
C785 C782 1.387 . S
C786 C787 1.387 . S
C786 H790 0.950 . S
C786 C795 1.390 . S
C787 C786 1.387 . S
C787 C789 1.387 . S
H788 C795 0.950 . S
C789 C787 1.387 . S
C789 C791 1.390 . S
C789 H793 0.950 . S
H790 C786 0.950 . S
C791 C789 1.390 . S
C791 C792 1.387 . S
C791 H794 0.950 . S
C792 C791 1.387 . S
C792 C795 1.387 . S
H793 C789 0.950 . S
H794 C791 0.950 . S
C795 C786 1.390 . S
C795 H788 0.950 . S
C795 C792 1.387 . S
C796 C797 1.387 1_556 S
C796 H800 0.950 . S
C796 C805 1.390 1_565 S
C797 C796 1.387 1_554 S
C797 C799 1.387 . S
H798 C805 0.950 . S
C799 C797 1.387 . S
C799 C801 1.390 1_565 S
C799 H803 0.950 . S
H800 C796 0.950 . S
C801 C799 1.390 1_545 S
C801 C802 1.387 1_554 S
C801 H804 0.950 . S
C802 C801 1.387 1_556 S
C802 C805 1.387 . S
H803 C799 0.950 . S
H804 C801 0.950 . S
C805 C796 1.390 1_545 S
C805 H798 0.950 . S
C805 C802 1.387 . S
C806 C807 1.387 . S
C806 H810 0.950 . S
C806 C815 1.390 . S
C807 C806 1.387 . S
C807 C809 1.387 . S
H808 C815 0.950 . S
C809 C807 1.387 . S
C809 C811 1.390 . S
C809 H813 0.950 . S
H810 C806 0.950 . S
C811 C809 1.390 . S
C811 C812 1.387 . S
C811 H814 0.950 . S
C812 C811 1.387 . S
C812 C815 1.387 . S
H813 C809 0.950 . S
H814 C811 0.950 . S
C815 C806 1.390 . S
C815 H808 0.950 . S
C815 C812 1.387 . S
C816 C817 1.387 . S
C816 H820 0.950 . S
C816 C825 1.390 . S
C817 C816 1.387 . S
C817 C819 1.387 . S
H818 C825 0.950 . S
C819 C817 1.387 . S
C819 C821 1.390 . S
C819 H823 0.950 . S
H820 C816 0.950 . S
C821 C819 1.390 . S
C821 C822 1.387 . S
C821 H824 0.950 . S
C822 C821 1.387 . S
C822 C825 1.387 . S
H823 C819 0.950 . S
H824 C821 0.950 . S
C825 C816 1.390 . S
C825 H818 0.950 . S
C825 C822 1.387 . S
C826 C827 1.387 . S
C826 H830 0.950 . S
C826 C835 1.390 . S
C827 C826 1.387 . S
C827 C829 1.387 . S
H828 C835 0.950 . S
C829 C827 1.387 . S
C829 C831 1.390 . S
C829 H833 0.950 . S
H830 C826 0.950 . S
C831 C829 1.390 . S
C831 C832 1.387 . S
C831 H834 0.950 . S
C832 C831 1.387 . S
C832 C835 1.387 . S
H833 C829 0.950 . S
H834 C831 0.950 . S
C835 C826 1.390 . S
C835 H828 0.950 . S
C835 C832 1.387 . S
C836 C837 1.387 . S
C836 H840 0.950 . S
C836 C845 1.390 . S
C837 C836 1.387 . S
C837 C839 1.387 . S
H838 C845 0.950 . S
C839 C837 1.387 . S
C839 C841 1.390 . S
C839 H843 0.950 . S
H840 C836 0.950 . S
C841 C839 1.390 . S
C841 C842 1.387 . S
C841 H844 0.950 . S
C842 C841 1.387 . S
C842 C845 1.387 . S
H843 C839 0.950 . S
H844 C841 0.950 . S
C845 C836 1.390 . S
C845 H838 0.950 . S
C845 C842 1.387 . S
C846 C847 1.387 . S
C846 H850 0.950 . S
C846 C855 1.390 . S
C847 C846 1.387 . S
C847 C849 1.387 . S
H848 C855 0.950 . S
C849 C847 1.387 . S
C849 C851 1.390 . S
C849 H853 0.950 . S
H850 C846 0.950 . S
C851 C849 1.390 . S
C851 C852 1.387 . S
C851 H854 0.950 . S
C852 C851 1.387 . S
C852 C855 1.387 . S
H853 C849 0.950 . S
H854 C851 0.950 . S
C855 C846 1.390 . S
C855 H848 0.950 . S
C855 C852 1.387 . S
C856 C857 1.387 . S
C856 H860 0.950 . S
C856 C865 1.390 . S
C857 C856 1.387 . S
C857 C859 1.387 . S
H858 C865 0.950 . S
C859 C857 1.387 . S
C859 C861 1.390 . S
C859 H863 0.950 . S
H860 C856 0.950 . S
C861 C859 1.390 . S
C861 C862 1.387 . S
C861 H864 0.950 . S
C862 C861 1.387 . S
C862 C865 1.387 . S
H863 C859 0.950 . S
H864 C861 0.950 . S
C865 C856 1.390 . S
C865 H858 0.950 . S
C865 C862 1.387 . S
C866 C867 1.387 1_556 S
C866 H870 0.950 . S
C866 C875 1.390 . S
C867 C866 1.387 1_554 S
C867 C869 1.387 1_655 S
H868 C875 0.950 . S
C869 C867 1.387 1_455 S
C869 C871 1.390 . S
C869 H873 0.950 . S
H870 C866 0.950 . S
C871 C869 1.390 . S
C871 C872 1.387 1_554 S
C871 H874 0.950 . S
C872 C871 1.387 1_556 S
C872 C875 1.387 1_455 S
H873 C869 0.950 . S
H874 C871 0.950 . S
C875 C866 1.390 . S
C875 H868 0.950 . S
C875 C872 1.387 1_655 S
C876 C877 1.387 1_554 S
C876 H880 0.950 . S
C876 C885 1.390 . S
C877 C876 1.387 1_556 S
C877 C879 1.387 . S
H878 C885 0.950 . S
C879 C877 1.387 . S
C879 C881 1.390 . S
C879 H883 0.950 . S
H880 C876 0.950 . S
C881 C879 1.390 . S
C881 C882 1.387 1_556 S
C881 H884 0.950 . S
C882 C881 1.387 1_554 S
C882 C885 1.387 . S
H883 C879 0.950 . S
H884 C881 0.950 . S
C885 C876 1.390 . S
C885 H878 0.950 . S
C885 C882 1.387 . S
C886 C887 1.387 . S
C886 H890 0.950 . S
C886 C895 1.390 1_455 S
C887 C886 1.387 . S
C887 C889 1.387 . S
H888 C895 0.950 . S
C889 C887 1.387 . S
C889 C891 1.390 1_455 S
C889 H893 0.950 . S
H890 C886 0.950 . S
C891 C889 1.390 1_655 S
C891 C892 1.387 . S
C891 H894 0.950 . S
C892 C891 1.387 . S
C892 C895 1.387 . S
H893 C889 0.950 . S
H894 C891 0.950 . S
C895 C886 1.390 1_655 S
C895 H888 0.950 . S
C895 C892 1.387 . S
C896 C897 1.387 . S
C896 H900 0.950 . S
C896 C905 1.390 . S
C897 C896 1.387 . S
C897 C899 1.387 . S
H898 C905 0.950 . S
C899 C897 1.387 . S
C899 C901 1.390 . S
C899 H903 0.950 . S
H900 C896 0.950 . S
C901 C899 1.390 . S
C901 C902 1.387 . S
C901 H904 0.950 . S
C902 C901 1.387 . S
C902 C905 1.387 . S
H903 C899 0.950 . S
H904 C901 0.950 . S
C905 C896 1.390 . S
C905 H898 0.950 . S
C905 C902 1.387 . S
C906 C907 1.387 . S
C906 H910 0.950 . S
C906 C915 1.390 . S
C907 C906 1.387 . S
C907 C909 1.387 . S
H908 C915 0.950 . S
C909 C907 1.387 . S
C909 C911 1.390 . S
C909 H913 0.950 . S
H910 C906 0.950 . S
C911 C909 1.390 . S
C911 C912 1.387 . S
C911 H914 0.950 . S
C912 C911 1.387 . S
C912 C915 1.387 . S
H913 C909 0.950 . S
H914 C911 0.950 . S
C915 C906 1.390 . S
C915 H908 0.950 . S
C915 C912 1.387 . S
C916 C917 1.387 . S
C916 H920 0.950 . S
C916 C925 1.390 . S
C917 C916 1.387 . S
C917 C919 1.387 . S
H918 C925 0.950 . S
C919 C917 1.387 . S
C919 C921 1.390 . S
C919 H923 0.950 . S
H920 C916 0.950 . S
C921 C919 1.390 . S
C921 C922 1.387 . S
C921 H924 0.950 . S
C922 C921 1.387 . S
C922 C925 1.387 . S
H923 C919 0.950 . S
H924 C921 0.950 . S
C925 C916 1.390 . S
C925 H918 0.950 . S
C925 C922 1.387 . S
C926 C927 1.387 . S
C926 H930 0.950 . S
C926 C935 1.390 . S
C927 C926 1.387 . S
C927 C929 1.387 . S
H928 C935 0.950 . S
C929 C927 1.387 . S
C929 C931 1.390 . S
C929 H933 0.950 . S
H930 C926 0.950 . S
C931 C929 1.390 . S
C931 C932 1.387 . S
C931 H934 0.950 . S
C932 C931 1.387 . S
C932 C935 1.387 . S
H933 C929 0.950 . S
H934 C931 0.950 . S
C935 C926 1.390 . S
C935 H928 0.950 . S
C935 C932 1.387 . S
C936 C937 1.387 . S
C936 H940 0.950 . S
C936 C945 1.390 . S
C937 C936 1.387 . S
C937 C939 1.387 . S
H938 C945 0.950 . S
C939 C937 1.387 . S
C939 C941 1.390 . S
C939 H943 0.950 . S
H940 C936 0.950 . S
C941 C939 1.390 . S
C941 C942 1.387 . S
C941 H944 0.950 . S
C942 C941 1.387 . S
C942 C945 1.387 . S
H943 C939 0.950 . S
H944 C941 0.950 . S
C945 C936 1.390 . S
C945 H938 0.950 . S
C945 C942 1.387 . S
C946 C947 1.387 . S
C946 H950 0.950 . S
C946 C955 1.390 . S
C947 C946 1.387 . S
C947 C949 1.387 . S
H948 C955 0.950 . S
C949 C947 1.387 . S
C949 C951 1.390 . S
C949 H953 0.950 . S
H950 C946 0.950 . S
C951 C949 1.390 . S
C951 C952 1.387 . S
C951 H954 0.950 . S
C952 C951 1.387 . S
C952 C955 1.387 . S
H953 C949 0.950 . S
H954 C951 0.950 . S
C955 C946 1.390 . S
C955 H948 0.950 . S
C955 C952 1.387 . S
C956 C957 1.387 . S
C956 H960 0.950 . S
C956 C965 1.390 . S
C957 C956 1.387 . S
C957 C959 1.387 . S
H958 C965 0.950 . S
C959 C957 1.387 . S
C959 C961 1.390 . S
C959 H963 0.950 . S
H960 C956 0.950 . S
C961 C959 1.390 . S
C961 C962 1.387 . S
C961 H964 0.950 . S
C962 C961 1.387 . S
C962 C965 1.387 . S
H963 C959 0.950 . S
H964 C961 0.950 . S
C965 C956 1.390 . S
C965 H958 0.950 . S
C965 C962 1.387 . S
C966 C967 1.387 . S
C966 H970 0.950 . S
C966 C975 1.390 . S
C967 C966 1.387 . S
C967 C969 1.387 . S
H968 C975 0.950 . S
C969 C967 1.387 . S
C969 C971 1.390 . S
C969 H973 0.950 . S
H970 C966 0.950 . S
C971 C969 1.390 . S
C971 C972 1.387 . S
C971 H974 0.950 . S
C972 C971 1.387 . S
C972 C975 1.387 . S
H973 C969 0.950 . S
H974 C971 0.950 . S
C975 C966 1.390 . S
C975 H968 0.950 . S
C975 C972 1.387 . S
C976 C977 1.387 . S
C976 H980 0.950 . S
C976 C985 1.390 . S
C977 C976 1.387 . S
C977 C979 1.387 . S
H978 C985 0.950 . S
C979 C977 1.387 . S
C979 C981 1.390 . S
C979 H983 0.950 . S
H980 C976 0.950 . S
C981 C979 1.390 . S
C981 C982 1.387 . S
C981 H984 0.950 . S
C982 C981 1.387 . S
C982 C985 1.387 . S
H983 C979 0.950 . S
H984 C981 0.950 . S
C985 C976 1.390 . S
C985 H978 0.950 . S
C985 C982 1.387 . S
C986 C987 1.387 . S
C986 H990 0.950 . S
C986 C995 1.390 . S
C987 C986 1.387 . S
C987 C989 1.387 . S
H988 C995 0.950 . S
C989 C987 1.387 . S
C989 C991 1.390 . S
C989 H993 0.950 . S
H990 C986 0.950 . S
C991 C989 1.390 . S
C991 C992 1.387 . S
C991 H994 0.950 . S
C992 C991 1.387 . S
C992 C995 1.387 . S
H993 C989 0.950 . S
H994 C991 0.950 . S
C995 C986 1.390 . S
C995 H988 0.950 . S
C995 C992 1.387 . S
C996 C997 1.387 . S
C996 H1000 0.950 . S
C996 C1005 1.390 . S
C997 C996 1.387 . S
C997 C999 1.387 . S
H998 C1005 0.950 . S
C999 C997 1.387 . S
C999 C1001 1.390 . S
C999 H1003 0.950 . S
H1000 C996 0.950 . S
C1001 C999 1.390 . S
C1001 C1002 1.387 . S
C1001 H1004 0.950 . S
C1002 C1001 1.387 . S
C1002 C1005 1.387 . S
H1003 C999 0.950 . S
H1004 C1001 0.950 . S
C1005 C996 1.390 . S
C1005 H998 0.950 . S
C1005 C1002 1.387 . S
C1006 C1007 1.387 . S
C1006 H1010 0.950 . S
C1006 C1015 1.390 . S
C1007 C1006 1.387 . S
C1007 C1009 1.387 . S
H1008 C1015 0.950 . S
C1009 C1007 1.387 . S
C1009 C1011 1.390 . S
C1009 H1013 0.950 . S
H1010 C1006 0.950 . S
C1011 C1009 1.390 . S
C1011 C1012 1.387 . S
C1011 H1014 0.950 . S
C1012 C1011 1.387 . S
C1012 C1015 1.387 . S
H1013 C1009 0.950 . S
H1014 C1011 0.950 . S
C1015 C1006 1.390 . S
C1015 H1008 0.950 . S
C1015 C1012 1.387 . S
C1016 C1017 1.387 . S
C1016 H1020 0.950 . S
C1016 C1025 1.390 . S
C1017 C1016 1.387 . S
C1017 C1019 1.387 . S
H1018 C1025 0.950 . S
C1019 C1017 1.387 . S
C1019 C1021 1.390 . S
C1019 H1023 0.950 . S
H1020 C1016 0.950 . S
C1021 C1019 1.390 . S
C1021 C1022 1.387 . S
C1021 H1024 0.950 . S
C1022 C1021 1.387 . S
C1022 C1025 1.387 . S
H1023 C1019 0.950 . S
H1024 C1021 0.950 . S
C1025 C1016 1.390 . S
C1025 H1018 0.950 . S
C1025 C1022 1.387 . S
C1026 C1027 1.387 . S
C1026 H1030 0.950 . S
C1026 C1035 1.390 . S
C1027 C1026 1.387 . S
C1027 C1029 1.387 . S
H1028 C1035 0.950 . S
C1029 C1027 1.387 . S
C1029 C1031 1.390 . S
C1029 H1033 0.950 . S
H1030 C1026 0.950 . S
C1031 C1029 1.390 . S
C1031 C1032 1.387 . S
C1031 H1034 0.950 . S
C1032 C1031 1.387 . S
C1032 C1035 1.387 . S
H1033 C1029 0.950 . S
H1034 C1031 0.950 . S
C1035 C1026 1.390 . S
C1035 H1028 0.950 . S
C1035 C1032 1.387 . S
C1036 C1037 1.387 . S
C1036 H1040 0.950 . S
C1036 C1045 1.390 . S
C1037 C1036 1.387 . S
C1037 C1039 1.387 . S
H1038 C1045 0.950 . S
C1039 C1037 1.387 . S
C1039 C1041 1.390 . S
C1039 H1043 0.950 . S
H1040 C1036 0.950 . S
C1041 C1039 1.390 . S
C1041 C1042 1.387 . S
C1041 H1044 0.950 . S
C1042 C1041 1.387 . S
C1042 C1045 1.387 . S
H1043 C1039 0.950 . S
H1044 C1041 0.950 . S
C1045 C1036 1.390 . S
C1045 H1038 0.950 . S
C1045 C1042 1.387 . S
C1046 C1047 1.387 . S
C1046 H1050 0.950 . S
C1046 C1055 1.390 . S
C1047 C1046 1.387 . S
C1047 C1049 1.387 . S
H1048 C1055 0.950 . S
C1049 C1047 1.387 . S
C1049 C1051 1.390 . S
C1049 H1053 0.950 . S
H1050 C1046 0.950 . S
C1051 C1049 1.390 . S
C1051 C1052 1.387 . S
C1051 H1054 0.950 . S
C1052 C1051 1.387 . S
C1052 C1055 1.387 . S
H1053 C1049 0.950 . S
H1054 C1051 0.950 . S
C1055 C1046 1.390 . S
C1055 H1048 0.950 . S
C1055 C1052 1.387 . S
C417 C160 1.381 1_455 S
C422 C5 1.372 1_655 S
C427 C387 1.381 . S
C432 C16 1.374 . S
C437 C192 1.384 . S
C442 C29 1.377 . S
C447 C413 1.382 . S
C452 C42 1.376 . S
C457 C114 1.381 1_455 S
C462 C57 1.372 1_655 S
C467 C68 1.378 . S
C472 C329 1.384 . S
C477 C81 1.377 . S
C482 C140 1.384 . S
C487 C361 1.381 . S
C492 C96 1.375 . S
C497 C56 1.385 1_655 S
C502 C107 1.375 1_455 S
C507 C277 1.381 . S
C512 C122 1.375 . S
C517 C88 1.384 . S
C522 C133 1.378 . S
C527 C303 1.381 . S
C532 C146 1.375 . S
C537 C161 1.375 1_455 S
C542 C4 1.384 1_655 S
C547 C172 1.376 . S
C552 C225 1.381 . S
C557 C36 1.384 . S
C562 C185 1.378 . S
C567 C198 1.376 . S
C572 C257 1.384 . S
C577 C368 1.384 . S
C582 C213 1.378 . S
C587 C179 1.382 . S
C592 C226 1.374 . S
C597 C400 1.385 1_655 S
C602 C237 1.375 1_455 S
C607 C250 1.375 . S
C612 C205 1.381 . S
C617 C265 1.374 . S
C622 C322 1.381 . S
C627 C278 1.374 . S
C632 C121 1.382 . S
C637 C342 1.381 1_655 S
C642 C291 1.372 1_455 S
C647 C153 1.382 . S
C652 C304 1.374 . S
C657 C264 1.381 . S
C662 C315 1.375 . S
C667 C330 1.374 . S
C672 C75 1.381 . S
C677 C343 1.375 1_655 S
C682 C290 1.385 1_455 S
C687 C354 1.378 . S
C692 C95 1.384 . S
C697 C212 1.384 . S
C702 C369 1.377 . S
C707 C23 1.381 . S
C712 C380 1.375 . S
C717 C244 1.385 1_455 S
C722 C393 1.375 1_655 S
C727 C406 1.378 . S
C732 C49 1.384 . S
C737 C3 1.450 . S
C742 C109 1.450 . S
C747 C18 1.448 . S
C752 C328 1.448 . S
C757 C135 1.449 . S
C762 C31 1.449 . S
C767 C44 1.450 . S
C772 C356 1.450 . S
C777 C55 1.448 . S
C782 C159 1.448 . S
C787 C382 1.450 . S
C792 C70 1.450 . S
C797 C187 1.450 . S
C802 C83 1.450 . S
C807 C94 1.450 . S
C812 C408 1.450 . S
C817 C120 1.448 . S
C822 C224 1.448 . S
C827 C148 1.448 . S
C832 C252 1.448 . S
C837 C174 1.449 . S
C842 C276 1.449 . S
C847 C302 1.448 . S
C852 C200 1.448 . S
C857 C211 1.449 . S
C862 C317 1.449 . S
C867 C239 1.448 . S
C872 C341 1.448 . S
C877 C263 1.448 . S
C882 C367 1.448 . S
C887 C395 1.450 . S
C892 C289 1.450 . S
C897 C10 1.426 . S
C902 C101 1.425 . S
C907 C17 1.425 . S
C912 C62 1.425 . S
C917 C69 1.425 . S
C922 C30 1.425 . S
C927 C82 1.425 . S
C932 C43 1.425 . S
C937 C199 1.425 . S
C942 C108 1.425 . S
C947 C166 1.425 . S
C952 C127 1.425 . S
C957 C173 1.425 . S
C962 C134 1.425 . S
C967 C186 1.425 . S
C972 C147 1.425 . S
C977 C218 1.425 . S
C982 C309 1.425 . S
C987 C270 1.425 . S
C992 C231 1.425 . S
C997 C283 1.425 . S
C1002 C238 1.425 . S
C1007 C296 1.425 . S
C1012 C251 1.425 . S
C1017 C407 1.425 . S
C1022 C316 1.425 . S
C1027 C335 1.425 . S
C1032 C374 1.425 . S
C1037 C348 1.425 . S
C1042 C381 1.425 . S
C1047 C394 1.425 . S
C1052 C355 1.425 . S
