# Generated by pormake.
# Topology uks, (4)-cn, num edge types: 1
# Building blocks:
#     Node 0, Type 0, BuildingBlock: NAWXER_clean_sbu_0, # of connection points: 4
#     Node 1, Type 0, BuildingBlock: NAWXER_clean_sbu_0, # of connection points: 4
#     Node 2, Type 0, BuildingBlock: NAWXER_clean_sbu_0, # of connection points: 4
#     Node 3, Type 0, BuildingBlock: NAWXER_clean_sbu_0, # of connection points: 4
#     Node 4, Type 0, BuildingBlock: NAWXER_clean_sbu_0, # of connection points: 4
#     Node 5, Type 0, BuildingBlock: NAWXER_clean_sbu_0, # of connection points: 4
#     Node 6, Type 0, BuildingBlock: NAWXER_clean_sbu_0, # of connection points: 4
#     Node 7, Type 0, BuildingBlock: NAWXER_clean_sbu_0, # of connection points: 4
#     Node 8, Type 0, BuildingBlock: NAWXER_clean_sbu_0, # of connection points: 4
#     Node 9, Type 0, BuildingBlock: NAWXER_clean_sbu_0, # of connection points: 4
#     Node 10, Type 0, BuildingBlock: NAWXER_clean_sbu_0, # of connection points: 4
#     Node 11, Type 0, BuildingBlock: NAWXER_clean_sbu_0, # of connection points: 4
#     Node 12, Type 0, BuildingBlock: NAWXER_clean_sbu_0, # of connection points: 4
#     Node 13, Type 0, BuildingBlock: NAWXER_clean_sbu_0, # of connection points: 4
#     Node 14, Type 0, BuildingBlock: NAWXER_clean_sbu_0, # of connection points: 4
#     Node 15, Type 0, BuildingBlock: NAWXER_clean_sbu_0, # of connection points: 4
#     Node 16, Type 0, BuildingBlock: NAWXER_clean_sbu_0, # of connection points: 4
#     Node 17, Type 0, BuildingBlock: NAWXER_clean_sbu_0, # of connection points: 4
#     Node 18, Type 0, BuildingBlock: NAWXER_clean_sbu_0, # of connection points: 4
#     Node 19, Type 0, BuildingBlock: NAWXER_clean_sbu_0, # of connection points: 4
#     Node 20, Type 0, BuildingBlock: NAWXER_clean_sbu_0, # of connection points: 4
#     Node 21, Type 0, BuildingBlock: NAWXER_clean_sbu_0, # of connection points: 4
#     Node 22, Type 0, BuildingBlock: NAWXER_clean_sbu_0, # of connection points: 4
#     Node 23, Type 0, BuildingBlock: NAWXER_clean_sbu_0, # of connection points: 4
#     Edge 24, Type (0, 0), BuildingBlock: EZIPEK_clean_linker_0, # of connection points: 2
#     Edge 25, Type (0, 0), BuildingBlock: EZIPEK_clean_linker_0, # of connection points: 2
#     Edge 26, Type (0, 0), BuildingBlock: EZIPEK_clean_linker_0, # of connection points: 2
#     Edge 27, Type (0, 0), BuildingBlock: EZIPEK_clean_linker_0, # of connection points: 2
#     Edge 28, Type (0, 0), BuildingBlock: EZIPEK_clean_linker_0, # of connection points: 2
#     Edge 29, Type (0, 0), BuildingBlock: EZIPEK_clean_linker_0, # of connection points: 2
#     Edge 30, Type (0, 0), BuildingBlock: EZIPEK_clean_linker_0, # of connection points: 2
#     Edge 31, Type (0, 0), BuildingBlock: EZIPEK_clean_linker_0, # of connection points: 2
#     Edge 32, Type (0, 0), BuildingBlock: EZIPEK_clean_linker_0, # of connection points: 2
#     Edge 33, Type (0, 0), BuildingBlock: EZIPEK_clean_linker_0, # of connection points: 2
#     Edge 34, Type (0, 0), BuildingBlock: EZIPEK_clean_linker_0, # of connection points: 2
#     Edge 35, Type (0, 0), BuildingBlock: EZIPEK_clean_linker_0, # of connection points: 2
#     Edge 36, Type (0, 0), BuildingBlock: EZIPEK_clean_linker_0, # of connection points: 2
#     Edge 37, Type (0, 0), BuildingBlock: EZIPEK_clean_linker_0, # of connection points: 2
#     Edge 38, Type (0, 0), BuildingBlock: EZIPEK_clean_linker_0, # of connection points: 2
#     Edge 39, Type (0, 0), BuildingBlock: EZIPEK_clean_linker_0, # of connection points: 2
#     Edge 40, Type (0, 0), BuildingBlock: EZIPEK_clean_linker_0, # of connection points: 2
#     Edge 41, Type (0, 0), BuildingBlock: EZIPEK_clean_linker_0, # of connection points: 2
#     Edge 42, Type (0, 0), BuildingBlock: EZIPEK_clean_linker_0, # of connection points: 2
#     Edge 43, Type (0, 0), BuildingBlock: EZIPEK_clean_linker_0, # of connection points: 2
#     Edge 44, Type (0, 0), BuildingBlock: EZIPEK_clean_linker_0, # of connection points: 2
#     Edge 45, Type (0, 0), BuildingBlock: EZIPEK_clean_linker_0, # of connection points: 2
#     Edge 46, Type (0, 0), BuildingBlock: EZIPEK_clean_linker_0, # of connection points: 2
#     Edge 47, Type (0, 0), BuildingBlock: EZIPEK_clean_linker_0, # of connection points: 2
#     Edge 48, Type (0, 0), BuildingBlock: EZIPEK_clean_linker_0, # of connection points: 2
#     Edge 49, Type (0, 0), BuildingBlock: EZIPEK_clean_linker_0, # of connection points: 2
#     Edge 50, Type (0, 0), BuildingBlock: EZIPEK_clean_linker_0, # of connection points: 2
#     Edge 51, Type (0, 0), BuildingBlock: EZIPEK_clean_linker_0, # of connection points: 2
#     Edge 52, Type (0, 0), BuildingBlock: EZIPEK_clean_linker_0, # of connection points: 2
#     Edge 53, Type (0, 0), BuildingBlock: EZIPEK_clean_linker_0, # of connection points: 2
#     Edge 54, Type (0, 0), BuildingBlock: EZIPEK_clean_linker_0, # of connection points: 2
#     Edge 55, Type (0, 0), BuildingBlock: EZIPEK_clean_linker_0, # of connection points: 2
#     Edge 56, Type (0, 0), BuildingBlock: EZIPEK_clean_linker_0, # of connection points: 2
#     Edge 57, Type (0, 0), BuildingBlock: EZIPEK_clean_linker_0, # of connection points: 2
#     Edge 58, Type (0, 0), BuildingBlock: EZIPEK_clean_linker_0, # of connection points: 2
#     Edge 59, Type (0, 0), BuildingBlock: EZIPEK_clean_linker_0, # of connection points: 2
#     Edge 60, Type (0, 0), BuildingBlock: EZIPEK_clean_linker_0, # of connection points: 2
#     Edge 61, Type (0, 0), BuildingBlock: EZIPEK_clean_linker_0, # of connection points: 2
#     Edge 62, Type (0, 0), BuildingBlock: EZIPEK_clean_linker_0, # of connection points: 2
#     Edge 63, Type (0, 0), BuildingBlock: EZIPEK_clean_linker_0, # of connection points: 2
#     Edge 64, Type (0, 0), BuildingBlock: EZIPEK_clean_linker_0, # of connection points: 2
#     Edge 65, Type (0, 0), BuildingBlock: EZIPEK_clean_linker_0, # of connection points: 2
#     Edge 66, Type (0, 0), BuildingBlock: EZIPEK_clean_linker_0, # of connection points: 2
#     Edge 67, Type (0, 0), BuildingBlock: EZIPEK_clean_linker_0, # of connection points: 2
#     Edge 68, Type (0, 0), BuildingBlock: EZIPEK_clean_linker_0, # of connection points: 2
#     Edge 69, Type (0, 0), BuildingBlock: EZIPEK_clean_linker_0, # of connection points: 2
#     Edge 70, Type (0, 0), BuildingBlock: EZIPEK_clean_linker_0, # of connection points: 2
#     Edge 71, Type (0, 0), BuildingBlock: EZIPEK_clean_linker_0, # of connection points: 2
# Relax obj value: 0.065
# Max RMSD: 0.064
# Mean RMSD: 0.064
data_MOF--net-uks--node1-NAWXER_clean_sbu_0--edge1-EZIPEK_clean_linker_0
_symmetry_space_group_name_H-M    P1
_symmetry_Int_Tables_number       1
_symmetry_cell_setting            triclinic
loop_
_symmetry_equiv_pos_as_xyz
'x, y, z'
_cell_length_a     38.359636
_cell_length_b     38.655209
_cell_length_c     38.814066
_cell_angle_alpha  89.799519
_cell_angle_beta   90.580118
_cell_angle_gamma 89.646364
loop_
_atom_site_label
_atom_site_type_symbol
_atom_site_fract_x
_atom_site_fract_y
_atom_site_fract_z
_atom_type_partial_charge
C0 C 0.07012 0.37625 0.70969 0.0
C1 C 0.16991 0.42427 0.77552 0.0
O2 O 0.09988 0.37235 0.69552 0.0
Zn3 Zn 0.15308 0.38425 0.70518 0.0
O4 O 0.0681 0.39184 0.73849 0.0
Zn5 Zn 0.11781 0.40184 0.74611 0.0
O6 O 0.12898 0.43907 0.70867 0.0
O7 O 0.1643 0.41923 0.66945 0.0
O8 O 0.13849 0.42584 0.78612 0.0
O9 O 0.17684 0.40938 0.74713 0.0
O10 O 0.17482 0.33791 0.7121 0.0
O11 O 0.13965 0.35254 0.75442 0.0
C12 C 0.14635 0.44434 0.68132 0.0
C13 C 0.161 0.33106 0.74113 0.0
C14 C 0.57714 0.62832 0.25366 0.0
C15 C 0.70435 0.61395 0.2772 0.0
O16 O 0.59038 0.61303 0.27988 0.0
Zn17 Zn 0.6403 0.61756 0.26765 0.0
O18 O 0.59712 0.6401 0.23029 0.0
Zn19 Zn 0.6509 0.64301 0.21883 0.0
O20 O 0.65517 0.61388 0.17787 0.0
O21 O 0.64625 0.58383 0.22525 0.0
O22 O 0.69557 0.62885 0.24887 0.0
O23 O 0.68045 0.60206 0.29652 0.0
O24 O 0.64751 0.67205 0.26999 0.0
O25 O 0.6581 0.69268 0.21774 0.0
C26 C 0.65185 0.58475 0.19281 0.0
C27 C 0.65441 0.69741 0.24999 0.0
C28 C 0.344 0.11434 0.753 0.0
C29 C 0.44003 0.16466 0.68629 0.0
O30 O 0.3341 0.13386 0.72804 0.0
Zn31 Zn 0.35571 0.16472 0.68778 0.0
O32 O 0.37641 0.11036 0.75946 0.0
Zn33 Zn 0.39245 0.13948 0.72154 0.0
O34 O 0.37716 0.18889 0.73917 0.0
O35 O 0.33857 0.21062 0.70293 0.0
O36 O 0.44144 0.14659 0.71368 0.0
O37 O 0.40982 0.17212 0.67362 0.0
O38 O 0.33551 0.13916 0.64836 0.0
O39 O 0.37333 0.10945 0.67921 0.0
C40 C 0.35613 0.21333 0.73083 0.0
C41 C 0.35186 0.11081 0.65368 0.0
C42 C 0.95201 0.90106 0.1786 0.0
C43 C 0.83393 0.89717 0.22158 0.0
O44 O 0.93974 0.91466 0.20561 0.0
Zn45 Zn 0.89262 0.89926 0.19987 0.0
O46 O 0.9316 0.88507 0.15762 0.0
Zn47 Zn 0.87602 0.87416 0.15399 0.0
O48 O 0.85852 0.90241 0.11498 0.0
O49 O 0.87099 0.93244 0.16149 0.0
O50 O 0.83601 0.88408 0.19137 0.0
O51 O 0.86114 0.90812 0.23685 0.0
O52 O 0.89713 0.84383 0.20072 0.0
O53 O 0.87464 0.82333 0.15293 0.0
C54 C 0.85839 0.93115 0.13086 0.0
C55 C 0.88905 0.81772 0.18212 0.0
C56 C 0.17927 0.10911 0.907 0.0
C57 C 0.17541 0.21454 0.83395 0.0
O58 O 0.16603 0.10479 0.87693 0.0
Zn59 Zn 0.15239 0.13487 0.83239 0.0
O60 O 0.1859 0.1396 0.9176 0.0
Zn61 Zn 0.17423 0.16457 0.87475 0.0
O62 O 0.11876 0.16666 0.87229 0.0
O63 O 0.10115 0.13368 0.82935 0.0
O64 O 0.18643 0.21359 0.86507 0.0
O65 O 0.16214 0.1874 0.82061 0.0
O66 O 0.18478 0.11432 0.79856 0.0
O67 O 0.21046 0.13922 0.84253 0.0
C68 C 0.09396 0.15444 0.85375 0.0
C69 C 0.21286 0.12198 0.81471 0.0
C70 C 0.98176 0.63943 0.32054 0.0
C71 C 0.8548 0.62652 0.29907 0.0
O72 O 0.97429 0.62876 0.29022 0.0
Zn73 Zn 0.929 0.61914 0.25969 0.0
O74 O 0.95721 0.64835 0.34053 0.0
Zn75 Zn 0.91726 0.63677 0.31038 0.0
O76 O 0.92382 0.58182 0.30464 0.0
O77 O 0.93626 0.57055 0.25014 0.0
O78 O 0.8689 0.63924 0.32605 0.0
O79 O 0.87446 0.61804 0.27383 0.0
O80 O 0.93128 0.65394 0.22278 0.0
O81 O 0.91483 0.67631 0.27183 0.0
C82 C 0.93079 0.56007 0.28078 0.0
C83 C 0.92079 0.68007 0.23962 0.0
C84 C 0.43751 0.39517 0.84029 0.0
C85 C 0.31157 0.41946 0.81443 0.0
O86 O 0.4156 0.38166 0.86093 0.0
Zn87 Zn 0.36106 0.37968 0.86839 0.0
O88 O 0.42657 0.41442 0.81562 0.0
Zn89 Zn 0.37576 0.41094 0.82315 0.0
O90 O 0.36735 0.43981 0.86848 0.0
O91 O 0.35297 0.40544 0.91164 0.0
O92 O 0.33599 0.43005 0.79484 0.0
O93 O 0.31963 0.40201 0.84118 0.0
O94 O 0.34973 0.33067 0.85769 0.0
O95 O 0.36781 0.35858 0.81186 0.0
C96 C 0.35806 0.43584 0.89975 0.0
C97 C 0.35707 0.33067 0.82563 0.0
C98 C 0.60653 0.88721 0.36999 0.0
C99 C 0.70826 0.90488 0.29835 0.0
O100 O 0.6104 0.90933 0.34609 0.0
Zn101 Zn 0.65826 0.89996 0.33484 0.0
O102 O 0.6332 0.87013 0.38086 0.0
Zn103 Zn 0.68779 0.86768 0.36983 0.0
O104 O 0.71292 0.8913 0.40817 0.0
O105 O 0.68641 0.92685 0.37213 0.0
O106 O 0.71442 0.88609 0.325 0.0
O107 O 0.67845 0.91889 0.29354 0.0
O108 O 0.65992 0.84627 0.32212 0.0
O109 O 0.69259 0.81852 0.36088 0.0
C110 C 0.70618 0.92207 0.3984 0.0
C111 C 0.67414 0.81831 0.33333 0.0
C112 C 0.76079 0.12691 0.32888 0.0
C113 C 0.71496 0.14269 0.44653 0.0
O114 O 0.78282 0.11878 0.35248 0.0
Zn115 Zn 0.78579 0.11816 0.40735 0.0
O116 O 0.73023 0.13625 0.33746 0.0
Zn117 Zn 0.73586 0.13464 0.38798 0.0
O118 O 0.77128 0.17523 0.39695 0.0
O119 O 0.82227 0.15337 0.4121 0.0
O120 O 0.69844 0.14666 0.41812 0.0
O121 O 0.74717 0.13304 0.44616 0.0
O122 O 0.7929 0.06778 0.41565 0.0
O123 O 0.73986 0.08191 0.40037 0.0
C124 C 0.80358 0.17958 0.4038 0.0
C125 C 0.76162 0.05855 0.40963 0.0
C126 C 0.86626 0.17852 0.92141 0.0
C127 C 0.87778 0.25532 0.81982 0.0
O128 O 0.8839 0.206 0.92644 0.0
Zn129 Zn 0.90314 0.24899 0.89866 0.0
O130 O 0.85738 0.16995 0.89083 0.0
Zn131 Zn 0.87627 0.21075 0.86727 0.0
O132 O 0.93067 0.20199 0.86894 0.0
O133 O 0.95447 0.24313 0.90023 0.0
O134 O 0.86684 0.2242 0.81885 0.0
O135 O 0.89175 0.26646 0.84767 0.0
O136 O 0.87554 0.28459 0.92304 0.0
O137 O 0.8444 0.24816 0.89154 0.0
C138 C 0.95784 0.21603 0.88193 0.0
C139 C 0.84599 0.27393 0.91193 0.0
C140 C 0.85875 0.40632 0.43409 0.0
C141 C 0.81481 0.38849 0.31448 0.0
O142 O 0.82886 0.41455 0.42196 0.0
Zn143 Zn 0.83523 0.398 0.37479 0.0
O144 O 0.88104 0.39278 0.41361 0.0
Zn145 Zn 0.88326 0.37368 0.36142 0.0
O146 O 0.92111 0.39969 0.34169 0.0
O147 O 0.87376 0.43105 0.35185 0.0
O148 O 0.84606 0.37767 0.31963 0.0
O149 O 0.79801 0.40122 0.33967 0.0
O150 O 0.83704 0.34401 0.38443 0.0
O151 O 0.88745 0.32351 0.36697 0.0
C152 C 0.90479 0.42841 0.34004 0.0
C153 C 0.85756 0.31833 0.37978 0.0
C154 C 0.66161 0.33488 0.80862 0.0
C155 C 0.66694 0.40525 0.916 0.0
O156 O 0.6481 0.32156 0.83541 0.0
Zn157 Zn 0.64095 0.33172 0.88787 0.0
O158 O 0.6732 0.36576 0.81037 0.0
Zn159 Zn 0.66163 0.3763 0.85896 0.0
O160 O 0.69922 0.34388 0.88116 0.0
O161 O 0.67685 0.29884 0.90748 0.0
O162 O 0.67421 0.4179 0.88649 0.0
O163 O 0.65366 0.37508 0.91794 0.0
O164 O 0.58957 0.32991 0.89072 0.0
O165 O 0.60608 0.37472 0.85958 0.0
C166 C 0.70362 0.31601 0.89822 0.0
C167 C 0.58165 0.35625 0.87221 0.0
C168 C 0.75492 0.38949 0.17554 0.0
C169 C 0.70997 0.40426 0.05625 0.0
O170 O 0.77292 0.39447 0.14859 0.0
Zn171 Zn 0.73465 0.39359 0.11514 0.0
O172 O 0.72187 0.38517 0.17282 0.0
Zn173 Zn 0.68307 0.38431 0.13198 0.0
O174 O 0.66624 0.33659 0.13164 0.0
O175 O 0.72091 0.33998 0.1152 0.0
O176 O 0.68698 0.39858 0.07912 0.0
O177 O 0.74185 0.40261 0.06552 0.0
O178 O 0.70533 0.43859 0.13221 0.0
O179 O 0.65244 0.42122 0.14557 0.0
C180 C 0.69398 0.32178 0.12167 0.0
C181 C 0.67444 0.44558 0.14275 0.0
C182 C 0.65819 0.24774 0.68582 0.0
C183 C 0.65563 0.17892 0.57788 0.0
O184 O 0.64013 0.26091 0.66119 0.0
Zn185 Zn 0.62464 0.24974 0.61007 0.0
O186 O 0.67178 0.21784 0.68184 0.0
Zn187 Zn 0.65542 0.20919 0.63418 0.0
O188 O 0.6841 0.24792 0.60867 0.0
O189 O 0.64882 0.28724 0.5857 0.0
O190 O 0.67 0.16968 0.60622 0.0
O191 O 0.63847 0.20749 0.57736 0.0
O192 O 0.57397 0.24738 0.61564 0.0
O193 O 0.60035 0.20231 0.6386 0.0
C194 C 0.67961 0.27568 0.59124 0.0
C195 C 0.57198 0.21876 0.63182 0.0
C196 C 0.73265 0.17892 0.10964 0.0
C197 C 0.79018 0.06351 0.10911 0.0
O198 O 0.7653 0.17884 0.11672 0.0
Zn199 Zn 0.8078 0.14347 0.12046 0.0
O200 O 0.71746 0.15063 0.10217 0.0
Zn201 Zn 0.75835 0.11982 0.1077 0.0
O202 O 0.76794 0.12524 0.16154 0.0
O203 O 0.82062 0.14597 0.16957 0.0
O204 O 0.75749 0.06853 0.10503 0.0
O205 O 0.80986 0.08965 0.11349 0.0
O206 O 0.83805 0.15831 0.08326 0.0
O207 O 0.78977 0.13356 0.0642 0.0
C208 C 0.79234 0.13453 0.18215 0.0
C209 C 0.81922 0.14783 0.05819 0.0
C210 C 0.86271 0.34182 0.69865 0.0
C211 C 0.87746 0.39349 0.5813 0.0
O212 O 0.87164 0.3212 0.67476 0.0
Zn213 Zn 0.88292 0.32069 0.62221 0.0
O214 O 0.85778 0.37383 0.69167 0.0
Zn215 Zn 0.87013 0.37259 0.64168 0.0
O216 O 0.82772 0.34534 0.62011 0.0
O217 O 0.84327 0.29265 0.60561 0.0
O218 O 0.87117 0.4116 0.60802 0.0
O219 O 0.88266 0.36088 0.58477 0.0
O220 O 0.93263 0.30663 0.62554 0.0
O221 O 0.92334 0.35893 0.64646 0.0
C222 C 0.81951 0.31582 0.608 0.0
C223 C 0.9441 0.33378 0.64036 0.0
C224 C 0.34491 0.7425 0.15861 0.0
C225 C 0.449 0.67861 0.19813 0.0
O226 O 0.37333 0.75548 0.14733 0.0
Zn227 Zn 0.42885 0.74363 0.1498 0.0
O228 O 0.34559 0.7135 0.17432 0.0
Zn229 Zn 0.39587 0.70688 0.17355 0.0
O230 O 0.40956 0.75153 0.20372 0.0
O231 O 0.44364 0.78568 0.17294 0.0
O232 O 0.41748 0.66894 0.19991 0.0
O233 O 0.45646 0.70556 0.1804 0.0
O234 O 0.44218 0.73572 0.10205 0.0
O235 O 0.40489 0.69671 0.12006 0.0
C236 C 0.42711 0.77942 0.20056 0.0
C237 C 0.42342 0.70949 0.09591 0.0
C238 C 0.37847 0.84147 0.45765 0.0
C239 C 0.40525 0.82749 0.33492 0.0
O240 O 0.36542 0.85807 0.43227 0.0
Zn241 Zn 0.38984 0.83458 0.39551 0.0
O242 O 0.40044 0.81697 0.45231 0.0
Zn243 Zn 0.4248 0.79327 0.40858 0.0
O244 O 0.47428 0.80378 0.41572 0.0
O245 O 0.44245 0.8497 0.40383 0.0
O246 O 0.4203 0.80534 0.35478 0.0
O247 O 0.38528 0.85032 0.34791 0.0
O248 O 0.367 0.78384 0.39306 0.0
O249 O 0.40758 0.74581 0.40831 0.0
C250 C 0.47227 0.83628 0.4104 0.0
C251 C 0.37654 0.75236 0.39823 0.0
C252 C 0.25789 0.84808 0.91572 0.0
C253 C 0.22059 0.96972 0.93151 0.0
O254 O 0.27559 0.87201 0.93005 0.0
Zn255 Zn 0.24069 0.90836 0.92497 0.0
O256 O 0.22755 0.85528 0.9034 0.0
Zn257 Zn 0.19286 0.89948 0.8984 0.0
O258 O 0.19103 0.90597 0.84906 0.0
O259 O 0.24382 0.91355 0.87033 0.0
O260 O 0.19814 0.95147 0.91527 0.0
O261 O 0.24828 0.95529 0.9429 0.0
O262 O 0.1999 0.88646 0.95558 0.0
O263 O 0.15264 0.88182 0.92277 0.0
C264 C 0.22321 0.91193 0.84428 0.0
C265 C 0.16808 0.87723 0.9516 0.0
C266 C 0.25375 0.6738 0.37456 0.0
C267 C 0.12825 0.64338 0.35958 0.0
O268 O 0.23157 0.69451 0.38761 0.0
Zn269 Zn 0.17768 0.70034 0.39438 0.0
O270 O 0.24315 0.64615 0.36004 0.0
Zn271 Zn 0.19208 0.65329 0.36726 0.0
O272 O 0.18255 0.69734 0.33619 0.0
O273 O 0.17001 0.7428 0.36834 0.0
O274 O 0.15356 0.62435 0.34966 0.0
O275 O 0.13446 0.67106 0.37642 0.0
O276 O 0.17528 0.69734 0.44394 0.0
O277 O 0.18812 0.64694 0.42121 0.0
C278 C 0.17429 0.7293 0.33872 0.0
C279 C 0.18288 0.66541 0.44784 0.0
C280 C 0.37965 0.65942 0.96113 0.0
C281 C 0.34114 0.6428 0.83952 0.0
O282 O 0.39918 0.66108 0.93477 0.0
Zn283 Zn 0.36386 0.649 0.89935 0.0
O284 O 0.34796 0.6503 0.957 0.0
Zn285 Zn 0.3116 0.64018 0.91674 0.0
O286 O 0.29764 0.59296 0.92788 0.0
O287 O 0.35196 0.59569 0.90995 0.0
O288 O 0.31719 0.63917 0.86195 0.0
O289 O 0.37238 0.64852 0.84937 0.0
O290 O 0.33256 0.69461 0.90248 0.0
O291 O 0.2807 0.68056 0.92187 0.0
C292 C 0.32612 0.57772 0.92052 0.0
C293 C 0.30201 0.70362 0.91187 0.0
C294 C 0.09772 0.86741 0.15971 0.0
C295 C 0.21926 0.82464 0.14849 0.0
O296 O 0.10156 0.83597 0.15055 0.0
Zn297 Zn 0.14049 0.79916 0.14142 0.0
O298 O 0.12456 0.88617 0.16469 0.0
Zn299 Zn 0.16036 0.85089 0.15373 0.0
O300 O 0.15079 0.84146 0.10087 0.0
O301 O 0.13123 0.78822 0.09313 0.0
O302 O 0.21159 0.8561 0.15522 0.0
O303 O 0.19512 0.80285 0.14258 0.0
O304 O 0.13459 0.76776 0.18071 0.0
O305 O 0.15634 0.81803 0.19665 0.0
C306 C 0.14001 0.81751 0.08083 0.0
C307 C 0.14643 0.78758 0.20427 0.0
C308 C 0.27661 0.63946 0.70407 0.0
C309 C 0.21964 0.63986 0.58939 0.0
O310 O 0.24375 0.64592 0.70496 0.0
Zn311 Zn 0.20079 0.64958 0.66869 0.0
O312 O 0.29097 0.63324 0.67533 0.0
Zn313 Zn 0.24976 0.6382 0.64573 0.0
O314 O 0.23782 0.69219 0.64897 0.0
O315 O 0.18539 0.69785 0.67107 0.0
O316 O 0.25213 0.63554 0.59548 0.0
O317 O 0.19907 0.64363 0.61464 0.0
O318 O 0.16988 0.61202 0.68007 0.0
O319 O 0.21904 0.59323 0.65782 0.0
C320 C 0.21223 0.7115 0.65777 0.0
C321 C 0.18866 0.5869 0.66977 0.0
C322 C 0.24532 0.85582 0.63617 0.0
C323 C 0.29457 0.97507 0.62708 0.0
O324 O 0.22851 0.88157 0.62335 0.0
Zn325 Zn 0.26619 0.91685 0.62716 0.0
O326 O 0.27685 0.85979 0.6458 0.0
Zn327 Zn 0.31443 0.89798 0.65217 0.0
O328 O 0.31454 0.89919 0.70335 0.0
O329 O 0.2663 0.92067 0.68092 0.0
O330 O 0.31421 0.95078 0.63877 0.0
O331 O 0.26391 0.96744 0.61658 0.0
O332 O 0.3045 0.89656 0.59288 0.0
O333 O 0.35099 0.87925 0.62278 0.0
C334 C 0.28429 0.91247 0.70742 0.0
C335 C 0.33508 0.88301 0.59396 0.0
C336 C 0.14044 0.25737 0.80033 0.0
C337 C 0.17364 0.247 0.81303 0.0
C338 C 0.20083 0.2908 0.77564 0.0
C339 C 0.16759 0.29841 0.76074 0.0
N340 N 0.10744 0.28249 0.75306 0.0
N341 N 0.23616 0.25195 0.81132 0.0
C342 C 0.13797 0.27961 0.77134 0.0
C343 C 0.20415 0.26319 0.80026 0.0
N344 N 0.11105 0.24704 0.81697 0.0
N345 N 0.22884 0.31072 0.76735 0.0
H346 H 0.23921 0.23392 0.83113 0.0
H347 H 0.2595 0.25946 0.80015 0.0
H348 H 0.2274 0.33078 0.74937 0.0
H349 H 0.25311 0.3086 0.77942 0.0
H350 H 0.08632 0.25684 0.81107 0.0
H351 H 0.11191 0.23177 0.83919 0.0
H352 H 0.08584 0.26699 0.7577 0.0
H353 H 0.1051 0.29771 0.73087 0.0
C354 C 0.75689 0.6158 0.31939 0.0
C355 C 0.74268 0.61153 0.28559 0.0
C356 C 0.80035 0.62284 0.26203 0.0
C357 C 0.81591 0.62208 0.29545 0.0
N358 N 0.80791 0.60662 0.35553 0.0
N359 N 0.75599 0.59686 0.22655 0.0
C360 C 0.79395 0.61521 0.32415 0.0
C361 C 0.76611 0.61027 0.25755 0.0
N362 N 0.73579 0.62197 0.34682 0.0
N363 N 0.81688 0.63758 0.2347 0.0
H364 H 0.73201 0.5847 0.22294 0.0
H365 H 0.77325 0.59392 0.20614 0.0
H366 H 0.83973 0.65182 0.23727 0.0
H367 H 0.80499 0.64006 0.21051 0.0
H368 H 0.74565 0.62846 0.37107 0.0
H369 H 0.70881 0.62407 0.34486 0.0
H370 H 0.7926 0.59887 0.37619 0.0
H371 H 0.8345 0.60284 0.35974 0.0
C372 C 0.34143 0.30454 0.76771 0.0
C373 C 0.35249 0.29971 0.80271 0.0
C374 C 0.35559 0.2375 0.79142 0.0
C375 C 0.352 0.24327 0.75522 0.0
N376 N 0.34907 0.28554 0.70908 0.0
N377 N 0.37786 0.26054 0.84496 0.0
C378 C 0.34682 0.27767 0.74331 0.0
C379 C 0.36167 0.26588 0.81388 0.0
N380 N 0.32494 0.33435 0.75757 0.0
N381 N 0.35192 0.20508 0.80478 0.0
H382 H 0.38495 0.28049 0.8615 0.0
H383 H 0.38791 0.23649 0.85241 0.0
H384 H 0.34348 0.18432 0.78991 0.0
H385 H 0.35258 0.20007 0.83118 0.0
H386 H 0.31375 0.33742 0.73315 0.0
H387 H 0.31863 0.35418 0.77448 0.0
H388 H 0.34866 0.31094 0.69993 0.0
H389 H 0.35551 0.2675 0.69032 0.0
C390 C 0.74409 0.87527 0.25502 0.0
C391 C 0.7355 0.9064 0.27206 0.0
C392 C 0.78771 0.93361 0.24918 0.0
C393 C 0.79945 0.90063 0.23783 0.0
N394 N 0.79015 0.83893 0.23309 0.0
N395 N 0.74909 0.9652 0.28711 0.0
C396 C 0.77784 0.87115 0.24117 0.0
C397 C 0.75709 0.93578 0.26937 0.0
N398 N 0.7198 0.84971 0.25208 0.0
N399 N 0.80504 0.96288 0.23967 0.0
H400 H 0.7262 0.9679 0.30118 0.0
H401 H 0.766 0.98607 0.28942 0.0
H402 H 0.8269 0.96242 0.2239 0.0
H403 H 0.79575 0.98775 0.2445 0.0
H404 H 0.72342 0.82756 0.23728 0.0
H405 H 0.69455 0.85247 0.2615 0.0
H406 H 0.77678 0.81626 0.23871 0.0
H407 H 0.81508 0.83439 0.22367 0.0
C408 C 0.7999 0.156 0.24372 0.0
C409 C 0.78691 0.13095 0.22028 0.0
C410 C 0.75596 0.10312 0.26834 0.0
C411 C 0.77155 0.12646 0.29191 0.0
N412 N 0.81954 0.16587 0.30197 0.0
N413 N 0.76185 0.07384 0.21376 0.0
C414 C 0.79714 0.14989 0.2797 0.0
C415 C 0.76749 0.10251 0.23352 0.0
N416 N 0.81298 0.18666 0.23216 0.0
N417 N 0.73076 0.0809 0.27919 0.0
H418 H 0.77223 0.07076 0.18927 0.0
H419 H 0.7507 0.05129 0.22331 0.0
H420 H 0.72332 0.07883 0.30487 0.0
H421 H 0.71584 0.06609 0.26225 0.0
H422 H 0.81979 0.2067 0.2488 0.0
H423 H 0.81292 0.19387 0.20629 0.0
H424 H 0.84019 0.18105 0.29357 0.0
H425 H 0.82021 0.16082 0.32831 0.0
C426 C 0.83543 0.30344 0.7433 0.0
C427 C 0.86198 0.32714 0.73426 0.0
C428 C 0.89931 0.30344 0.78064 0.0
C429 C 0.87231 0.28012 0.79029 0.0
N430 N 0.81078 0.26702 0.78756 0.0
N431 N 0.91565 0.35535 0.74916 0.0
C432 C 0.83919 0.28274 0.77359 0.0
C433 C 0.89258 0.3292 0.75488 0.0
N434 N 0.8068 0.3001 0.72244 0.0
N435 N 0.93204 0.29976 0.79452 0.0
H436 H 0.91167 0.37406 0.73007 0.0
H437 H 0.93693 0.36046 0.76517 0.0
H438 H 0.93901 0.27997 0.81151 0.0
H439 H 0.9534 0.31429 0.78697 0.0
H440 H 0.78871 0.2803 0.7251 0.0
H441 H 0.80231 0.31616 0.70126 0.0
H442 H 0.78549 0.27068 0.77816 0.0
H443 H 0.81167 0.25363 0.81091 0.0
C444 C 0.78603 0.41982 0.26429 0.0
C445 C 0.79994 0.38862 0.27851 0.0
C446 C 0.78893 0.35948 0.22285 0.0
C447 C 0.77152 0.38953 0.21042 0.0
N448 N 0.7495 0.44712 0.22055 0.0
N449 N 0.81275 0.32762 0.2716 0.0
C450 C 0.76878 0.41928 0.23159 0.0
C451 C 0.80112 0.35819 0.25775 0.0
N452 N 0.79143 0.45056 0.28081 0.0
N453 N 0.79413 0.33218 0.20111 0.0
H454 H 0.8237 0.32546 0.29609 0.0
H455 H 0.80969 0.30376 0.25965 0.0
H456 H 0.78429 0.3316 0.17597 0.0
H457 H 0.81019 0.31113 0.20697 0.0
H458 H 0.78528 0.47451 0.26991 0.0
H459 H 0.80563 0.45262 0.30374 0.0
H460 H 0.74292 0.46775 0.23647 0.0
H461 H 0.73795 0.44855 0.19615 0.0
C462 C 0.66183 0.25446 0.75111 0.0
C463 C 0.66369 0.269 0.71765 0.0
C464 C 0.66213 0.32715 0.74326 0.0
C465 C 0.66455 0.31273 0.77691 0.0
N466 N 0.67879 0.26101 0.81054 0.0
N467 N 0.67818 0.31946 0.68388 0.0
C468 C 0.66814 0.27591 0.78021 0.0
C469 C 0.66782 0.30544 0.71436 0.0
N470 N 0.65236 0.22076 0.75567 0.0
N471 N 0.65242 0.36086 0.73826 0.0
H472 H 0.68568 0.30423 0.6631 0.0
H473 H 0.68362 0.34569 0.68105 0.0
H474 H 0.64486 0.37722 0.7581 0.0
H475 H 0.64755 0.37121 0.71382 0.0
H476 H 0.64737 0.2103 0.77991 0.0
H477 H 0.64569 0.20439 0.73543 0.0
H478 H 0.68454 0.23469 0.81272 0.0
H479 H 0.68617 0.27497 0.83222 0.0
C480 C 0.29845 0.77306 0.12377 0.0
C481 C 0.3124 0.76374 0.15651 0.0
C482 C 0.26745 0.79926 0.18457 0.0
C483 C 0.25513 0.81033 0.15165 0.0
N484 N 0.26168 0.81225 0.09019 0.0
N485 N 0.3127 0.77032 0.21836 0.0
C486 C 0.27173 0.79871 0.12134 0.0
C487 C 0.29757 0.77748 0.18705 0.0
N488 N 0.30919 0.7556 0.09521 0.0
N489 N 0.24947 0.80855 0.21339 0.0
H490 H 0.33491 0.7549 0.22137 0.0
H491 H 0.30475 0.78125 0.24144 0.0
H492 H 0.22859 0.82595 0.21275 0.0
H493 H 0.25386 0.79783 0.23768 0.0
H494 H 0.29789 0.75874 0.0709 0.0
H495 H 0.32704 0.73517 0.09664 0.0
H496 H 0.27466 0.80731 0.06727 0.0
H497 H 0.24212 0.83104 0.08785 0.0
C498 C 0.33591 0.70607 0.41893 0.0
C499 C 0.35111 0.72416 0.39112 0.0
C500 C 0.31012 0.69613 0.35066 0.0
C501 C 0.29134 0.68293 0.37903 0.0
N502 N 0.2864 0.67392 0.44015 0.0
N503 N 0.35479 0.73543 0.33018 0.0
C504 C 0.30476 0.68694 0.41312 0.0
C505 C 0.33909 0.71849 0.35678 0.0
N506 N 0.35082 0.7078 0.45103 0.0
N507 N 0.29986 0.68763 0.31798 0.0
H508 H 0.37737 0.75 0.33352 0.0
H509 H 0.34508 0.73612 0.30506 0.0
H510 H 0.27874 0.67148 0.31302 0.0
H511 H 0.31357 0.69417 0.29594 0.0
H512 H 0.34321 0.69263 0.4718 0.0
H513 H 0.3727 0.72273 0.45651 0.0
H514 H 0.29159 0.67946 0.4659 0.0
H515 H 0.26461 0.65845 0.43648 0.0
C516 C 0.26171 0.7904 0.88487 0.0
C517 C 0.27126 0.81166 0.91344 0.0
C518 C 0.30824 0.76437 0.93462 0.0
C519 C 0.29229 0.74101 0.91123 0.0
N520 N 0.25182 0.7321 0.86417 0.0
N521 N 0.29706 0.81339 0.97083 0.0
C522 C 0.268 0.75404 0.88662 0.0
C523 C 0.29275 0.79722 0.93987 0.0
N524 N 0.24905 0.80498 0.85513 0.0
N525 N 0.33877 0.75615 0.951 0.0
H526 H 0.28343 0.83565 0.97771 0.0
H527 H 0.31069 0.8019 0.99132 0.0
H528 H 0.35267 0.73355 0.94599 0.0
H529 H 0.3522 0.77382 0.96638 0.0
H530 H 0.24427 0.79081 0.83281 0.0
H531 H 0.24791 0.83165 0.85116 0.0
H532 H 0.23137 0.73995 0.84801 0.0
H533 H 0.25736 0.70566 0.86329 0.0
C534 C 0.21771 0.77182 0.68076 0.0
C535 C 0.21472 0.74958 0.65207 0.0
C536 C 0.22123 0.79983 0.61329 0.0
C537 C 0.2297 0.82094 0.6419 0.0
N538 N 0.24442 0.82325 0.70291 0.0
N539 N 0.22078 0.74172 0.59055 0.0
C540 C 0.22995 0.80604 0.67571 0.0
C541 C 0.21821 0.76338 0.61814 0.0
N542 N 0.21052 0.76005 0.71316 0.0
N543 N 0.21749 0.81416 0.58123 0.0
H544 H 0.22014 0.71496 0.59281 0.0
H545 H 0.22712 0.75009 0.56587 0.0
H546 H 0.2212 0.84038 0.57626 0.0
H547 H 0.20784 0.80053 0.56012 0.0
H548 H 0.20845 0.77645 0.73432 0.0
H549 H 0.2039 0.73452 0.71859 0.0
H550 H 0.2489 0.81193 0.72697 0.0
H551 H 0.25542 0.84755 0.70084 0.0
C552 C 0.90163 0.75277 0.17333 0.0
C553 C 0.89665 0.7817 0.19556 0.0
C554 C 0.91703 0.7452 0.24349 0.0
C555 C 0.91471 0.71491 0.223 0.0
N556 N 0.89425 0.69101 0.1686 0.0
N557 N 0.88796 0.79889 0.25519 0.0
C558 C 0.90397 0.71885 0.18789 0.0
C559 C 0.90086 0.77608 0.23168 0.0
N560 N 0.90585 0.75712 0.13872 0.0
N561 N 0.93546 0.74527 0.27376 0.0
H562 H 0.87157 0.81947 0.24854 0.0
H563 H 0.88925 0.79409 0.28165 0.0
H564 H 0.95099 0.72449 0.28182 0.0
H565 H 0.9391 0.76777 0.28811 0.0
H566 H 0.91191 0.73655 0.12247 0.0
H567 H 0.9082 0.78122 0.12699 0.0
H568 H 0.88386 0.69369 0.14379 0.0
H569 H 0.89211 0.6661 0.17853 0.0
C570 C 0.22378 0.45883 0.78463 0.0
C571 C 0.20049 0.43335 0.79693 0.0
C572 C 0.24924 0.39916 0.81855 0.0
C573 C 0.27337 0.425 0.80743 0.0
N574 N 0.28096 0.48473 0.79005 0.0
N575 N 0.19026 0.38706 0.83657 0.0
C576 C 0.25994 0.4566 0.79355 0.0
C577 C 0.21312 0.40674 0.8184 0.0
N578 N 0.2114 0.4844 0.7634 0.0
N579 N 0.26007 0.36628 0.82648 0.0
H580 H 0.16351 0.39212 0.83617 0.0
H581 H 0.19826 0.36865 0.85474 0.0
H582 H 0.2853 0.35725 0.82269 0.0
H583 H 0.24291 0.34638 0.8324 0.0
H584 H 0.22755 0.50144 0.75027 0.0
H585 H 0.1848 0.48728 0.75798 0.0
H586 H 0.27153 0.50902 0.78266 0.0
H587 H 0.30695 0.48487 0.79809 0.0
C588 C 0.69945 0.76972 0.29838 0.0
C589 C 0.66984 0.78672 0.31232 0.0
C590 C 0.63142 0.7512 0.27625 0.0
C591 C 0.66054 0.7313 0.2661 0.0
N592 N 0.72213 0.71878 0.26985 0.0
N593 N 0.6073 0.7903 0.31846 0.0
C594 C 0.69457 0.7398 0.27775 0.0
C595 C 0.63567 0.77665 0.30219 0.0
N596 N 0.73206 0.78304 0.30331 0.0
N597 N 0.59978 0.74595 0.26072 0.0
H598 H 0.60937 0.80801 0.33859 0.0
H599 H 0.58195 0.78157 0.31442 0.0
H600 H 0.59611 0.72745 0.24151 0.0
H601 H 0.57825 0.762 0.26444 0.0
H602 H 0.75401 0.77385 0.29058 0.0
H603 H 0.73687 0.80533 0.31757 0.0
H604 H 0.74671 0.72111 0.28125 0.0
H605 H 0.71989 0.69767 0.25333 0.0
C606 C 0.28758 0.08364 0.76133 0.0
C607 C 0.31649 0.10111 0.77595 0.0
C608 C 0.27872 0.13036 0.81574 0.0
C609 C 0.24877 0.11277 0.8021 0.0
N610 N 0.22969 0.06147 0.7713 0.0
N611 N 0.34059 0.12551 0.82757 0.0
C612 C 0.25455 0.08575 0.77777 0.0
C613 C 0.31234 0.11821 0.80739 0.0
N614 N 0.29162 0.06573 0.73142 0.0
N615 N 0.27592 0.16089 0.83313 0.0
H616 H 0.36556 0.11685 0.8214 0.0
H617 H 0.33822 0.13659 0.85191 0.0
H618 H 0.2536 0.17623 0.83248 0.0
H619 H 0.29744 0.17406 0.84289 0.0
H620 H 0.27074 0.05552 0.71748 0.0
H621 H 0.31604 0.06256 0.72014 0.0
H622 H 0.23403 0.04031 0.75531 0.0
H623 H 0.20681 0.0597 0.78538 0.0
C624 C 0.23434 0.89982 0.74797 0.0
C625 C 0.26755 0.91525 0.742 0.0
C626 C 0.26623 0.93659 0.80152 0.0
C627 C 0.23776 0.91433 0.80886 0.0
N628 N 0.20313 0.86586 0.78911 0.0
N629 N 0.31623 0.94733 0.76547 0.0
C630 C 0.22412 0.89342 0.78218 0.0
C631 C 0.2841 0.93303 0.76963 0.0
N632 N 0.21179 0.89141 0.72187 0.0
N633 N 0.27499 0.96243 0.82386 0.0
H634 H 0.32942 0.94708 0.74216 0.0
H635 H 0.33068 0.95745 0.78593 0.0
H636 H 0.26066 0.96785 0.84589 0.0
H637 H 0.29357 0.98113 0.81826 0.0
H638 H 0.18648 0.88301 0.72669 0.0
H639 H 0.21627 0.89523 0.69585 0.0
H640 H 0.19522 0.84858 0.77001 0.0
H641 H 0.19767 0.85738 0.81395 0.0
C642 C 0.193 0.74266 0.27882 0.0
C643 C 0.16948 0.74898 0.3062 0.0
C644 C 0.13651 0.78781 0.26841 0.0
C645 C 0.15446 0.7746 0.23942 0.0
N646 N 0.20098 0.73881 0.21721 0.0
N647 N 0.11412 0.77319 0.32427 0.0
C648 C 0.18295 0.75156 0.24463 0.0
C649 C 0.13987 0.7704 0.30039 0.0
N650 N 0.22556 0.7297 0.28575 0.0
N651 N 0.11793 0.81792 0.2663 0.0
H652 H 0.11428 0.75964 0.3475 0.0
H653 H 0.09078 0.7863 0.31916 0.0
H654 H 0.11933 0.83426 0.24505 0.0
H655 H 0.10606 0.82917 0.2876 0.0
H656 H 0.24487 0.72745 0.26719 0.0
H657 H 0.23458 0.72524 0.31084 0.0
H658 H 0.21961 0.7192 0.21962 0.0
H659 H 0.19602 0.74636 0.19182 0.0
C660 C 0.31644 0.67377 0.78763 0.0
C661 C 0.33079 0.64306 0.80236 0.0
C662 C 0.31158 0.60997 0.75155 0.0
C663 C 0.29767 0.64082 0.73662 0.0
N664 N 0.29273 0.70298 0.73695 0.0
N665 N 0.34736 0.5833 0.79668 0.0
C666 C 0.3019 0.67301 0.75367 0.0
C667 C 0.33018 0.61161 0.78363 0.0
N668 N 0.31567 0.70348 0.80666 0.0
N669 N 0.30538 0.57891 0.73596 0.0
H670 H 0.36069 0.58372 0.82025 0.0
H671 H 0.3508 0.56033 0.7832 0.0
H672 H 0.29214 0.57677 0.71247 0.0
H673 H 0.31127 0.55506 0.74716 0.0
H674 H 0.30157 0.7255 0.79954 0.0
H675 H 0.32774 0.70557 0.83076 0.0
H676 H 0.29822 0.72756 0.74635 0.0
H677 H 0.28212 0.70341 0.7121 0.0
C678 C 0.4476 0.81833 0.28693 0.0
C679 C 0.41276 0.82585 0.29728 0.0
C680 C 0.3937 0.81971 0.23715 0.0
C681 C 0.4261 0.80409 0.22944 0.0
N682 N 0.48512 0.79 0.24554 0.0
N683 N 0.35182 0.83322 0.2813 0.0
C684 C 0.4537 0.80451 0.25369 0.0
C685 C 0.38561 0.82737 0.272 0.0
N686 N 0.47484 0.8246 0.30888 0.0
N687 N 0.37053 0.82637 0.21098 0.0
H688 H 0.3439 0.83703 0.30653 0.0
H689 H 0.33084 0.83189 0.26417 0.0
H690 H 0.37624 0.82063 0.18536 0.0
H691 H 0.34758 0.8405 0.21409 0.0
H692 H 0.5009 0.82246 0.30192 0.0
H693 H 0.47134 0.83529 0.33314 0.0
H694 H 0.50498 0.78535 0.26348 0.0
H695 H 0.49065 0.78098 0.22087 0.0
C696 C 0.7653 0.31155 0.87799 0.0
C697 C 0.74068 0.305 0.9046 0.0
C698 C 0.78916 0.28483 0.94185 0.0
C699 C 0.81312 0.29363 0.91572 0.0
N700 N 0.825 0.32522 0.86397 0.0
N701 N 0.73107 0.29308 0.96503 0.0
C702 C 0.80135 0.31081 0.88576 0.0
C703 C 0.75308 0.29385 0.93761 0.0
N704 N 0.75451 0.31643 0.84463 0.0
N705 N 0.80087 0.2673 0.9703 0.0
H706 H 0.70492 0.3003 0.96324 0.0
H707 H 0.73944 0.28818 0.9902 0.0
H708 H 0.82728 0.2617 0.9743 0.0
H709 H 0.78447 0.25746 0.98908 0.0
H710 H 0.77163 0.31844 0.82407 0.0
H711 H 0.72867 0.31449 0.83668 0.0
H712 H 0.81788 0.34057 0.84288 0.0
H713 H 0.85172 0.32483 0.86935 0.0
C714 C 0.75426 0.32848 0.61303 0.0
C715 C 0.78225 0.30975 0.59718 0.0
C716 C 0.73875 0.27591 0.56518 0.0
C717 C 0.71164 0.2945 0.58154 0.0
N718 N 0.69437 0.34819 0.60707 0.0
N719 N 0.79906 0.27596 0.54744 0.0
C720 C 0.7198 0.32449 0.60016 0.0
C721 C 0.77397 0.28657 0.56984 0.0
N722 N 0.75936 0.34766 0.64215 0.0
N723 N 0.73077 0.24755 0.54586 0.0
H724 H 0.82433 0.28568 0.54785 0.0
H725 H 0.7936 0.26101 0.52578 0.0
H726 H 0.705 0.24067 0.54041 0.0
H727 H 0.74954 0.23041 0.53665 0.0
H728 H 0.73903 0.3596 0.65525 0.0
H729 H 0.78249 0.34824 0.6562 0.0
H730 H 0.69961 0.37198 0.61853 0.0
H731 H 0.66897 0.34559 0.59766 0.0
C732 C 0.69263 0.26679 0.08704 0.0
C733 C 0.6965 0.2834 0.11945 0.0
C734 C 0.71222 0.22774 0.14626 0.0
C735 C 0.71338 0.21228 0.11318 0.0
N736 N 0.70416 0.21602 0.0519 0.0
N737 N 0.71126 0.28057 0.17989 0.0
C738 C 0.70283 0.23136 0.08353 0.0
C739 C 0.70618 0.264 0.14918 0.0
N740 N 0.67916 0.28503 0.05972 0.0
N741 N 0.71664 0.20743 0.17491 0.0
H742 H 0.70607 0.30686 0.18328 0.0
H743 H 0.72256 0.26889 0.2015 0.0
H744 H 0.72053 0.18073 0.17343 0.0
H745 H 0.71321 0.21622 0.19997 0.0
H746 H 0.67283 0.27411 0.03602 0.0
H747 H 0.67189 0.31097 0.0616 0.0
H748 H 0.70124 0.22932 0.02869 0.0
H749 H 0.70955 0.18974 0.04884 0.0
C750 C 0.8138 0.27139 0.36932 0.0
C751 C 0.84454 0.28273 0.38643 0.0
C752 C 0.84611 0.22793 0.41898 0.0
C753 C 0.81869 0.21476 0.3979 0.0
N754 N 0.78376 0.22295 0.34546 0.0
N755 N 0.89271 0.26966 0.42504 0.0
C756 C 0.80462 0.23613 0.37099 0.0
C757 C 0.86181 0.26018 0.41019 0.0
N758 N 0.79272 0.29386 0.35132 0.0
N759 N 0.85567 0.21112 0.44866 0.0
H760 H 0.90421 0.29362 0.42081 0.0
H761 H 0.90815 0.25269 0.43959 0.0
H762 H 0.84324 0.18897 0.4575 0.0
H763 H 0.87311 0.22138 0.46659 0.0
H764 H 0.76787 0.2871 0.34262 0.0
H765 H 0.79793 0.31985 0.34739 0.0
H766 H 0.77702 0.23693 0.32332 0.0
H767 H 0.7764 0.19728 0.34352 0.0
C768 C 0.18257 0.52792 0.64111 0.0
C769 C 0.17471 0.55072 0.66898 0.0
C770 C 0.1339 0.50754 0.68966 0.0
C771 C 0.14988 0.48142 0.66941 0.0
N772 N 0.18619 0.46889 0.6204 0.0
N773 N 0.14616 0.55758 0.72405 0.0
C774 C 0.17351 0.49213 0.64353 0.0
C775 C 0.15117 0.53933 0.69445 0.0
N776 N 0.19591 0.54076 0.6112 0.0
N777 N 0.10167 0.50268 0.70332 0.0
H778 H 0.1607 0.5793 0.73062 0.0
H779 H 0.13064 0.54831 0.74394 0.0
H780 H 0.08625 0.48152 0.69663 0.0
H781 H 0.08863 0.52204 0.71684 0.0
H782 H 0.19958 0.52584 0.58922 0.0
H783 H 0.19881 0.56713 0.60666 0.0
H784 H 0.20738 0.47416 0.60465 0.0
H785 H 0.17517 0.44463 0.61662 0.0
C786 C 0.49309 0.67985 0.24639 0.0
C787 C 0.47699 0.6613 0.21902 0.0
C788 C 0.5188 0.61376 0.22845 0.0
C789 C 0.53905 0.63545 0.24992 0.0
N790 N 0.54478 0.68809 0.28214 0.0
N791 N 0.47386 0.60994 0.18411 0.0
C792 C 0.52566 0.66803 0.26016 0.0
C793 C 0.48926 0.62773 0.21047 0.0
N794 N 0.47681 0.70839 0.25949 0.0
N795 N 0.52769 0.57968 0.22589 0.0
H796 H 0.45198 0.61922 0.17075 0.0
H797 H 0.48398 0.58705 0.17416 0.0
H798 H 0.54788 0.56905 0.24083 0.0
H799 H 0.51291 0.56155 0.21251 0.0
H800 H 0.48537 0.72134 0.28143 0.0
H801 H 0.45271 0.71722 0.25027 0.0
H802 H 0.53853 0.71363 0.28796 0.0
H803 H 0.56785 0.67928 0.29377 0.0
C804 C 0.29913 0.03919 0.60693 0.0
C805 C 0.30807 1.01157 0.63004 0.0
C806 C 0.35605 0.04657 0.65146 0.0
C807 C 0.34182 0.07702 0.63669 0.0
N808 N 0.30082 0.10112 0.59521 0.0
N809 N 0.33772 0.99783 0.68411 0.0
C810 C 0.31341 0.07314 0.61291 0.0
C811 C 0.33445 1.01777 0.65518 0.0
N812 N 0.27886 0.03303 0.57854 0.0
N813 N 0.38998 0.04485 0.66217 0.0
H814 H 0.31876 0.98006 0.69125 0.0
H815 H 0.35621 1.00308 0.70329 0.0
H816 H 0.4078 0.06426 0.65628 0.0
H817 H 0.40088 0.02216 0.6724 0.0
H818 H 0.27419 0.05145 0.55938 0.0
H819 H 0.26955 1.0086 0.57227 0.0
H820 H 0.27731 0.10084 0.58152 0.0
H821 H 0.31415 0.12448 0.594 0.0
C822 C 0.04653 0.90818 0.14942 0.0
C823 C 0.06159 0.87945 0.16723 0.0
C824 C 1.00495 0.8666 0.19346 0.0
C825 C 0.99015 0.89559 0.17621 0.0
N826 N 0.99693 0.94737 0.14261 0.0
N827 N 0.05593 0.8335 0.20942 0.0
C828 C 1.01103 0.9175 0.1557 0.0
C829 C 0.04097 0.85936 0.19013 0.0
N830 N 0.06538 0.92512 0.12496 0.0
N831 N 0.98415 0.84501 0.21215 0.0
H832 H 0.08106 0.82444 0.20571 0.0
H833 H 0.04412 0.82199 0.23055 0.0
H834 H 0.95861 0.8511 0.21862 0.0
H835 H 0.99153 0.82027 0.22011 0.0
H836 H 0.05485 0.94372 0.10836 0.0
H837 H 0.09117 0.91882 0.11938 0.0
H838 H 1.01137 0.96635 0.13026 0.0
H839 H 0.97097 0.95441 0.14652 0.0
C840 C 0.18185 0.01964 0.9478 0.0
C841 C 0.21426 1.00781 0.93463 0.0
C842 C 0.22815 0.06756 0.91784 0.0
C843 C 0.19332 0.07774 0.92484 0.0
N844 N 0.13676 0.06419 0.94686 0.0
N845 N 0.26763 0.02049 0.90453 0.0
C846 C 0.17023 0.05405 0.9404 0.0
C847 C 0.23766 0.03188 0.91967 0.0
N848 N 0.16239 0.9979 0.96758 0.0
N849 N 0.25192 0.09196 0.90846 0.0
H850 H 0.27583 0.99478 0.90488 0.0
H851 H 0.28319 0.03608 0.88916 0.0
H852 H 0.24568 0.11817 0.90632 0.0
H853 H 0.27847 0.08683 0.90608 0.0
H854 H 0.13988 1.00558 0.9803 0.0
H855 H 0.17064 0.97286 0.9739 0.0
H856 H 0.11719 0.04725 0.95424 0.0
H857 H 0.12832 0.08971 0.94338 0.0
C858 C 0.04327 0.65945 0.31147 0.0
C859 C 1.01922 0.64041 0.33156 0.0
C860 C 0.06754 0.62075 0.36934 0.0
C861 C 0.09169 0.63771 0.3477 0.0
N862 N 0.10344 0.6685 0.29506 0.0
N863 N 1.0092 0.59787 0.37602 0.0
C864 C 0.07976 0.65549 0.31772 0.0
C865 C 0.03153 0.6197 0.3596 0.0
N866 N 0.03115 0.68263 0.28742 0.0
N867 N 0.07893 0.60633 0.39964 0.0
H868 H 0.98279 0.59618 0.36971 0.0
H869 H 1.01735 0.57935 0.39396 0.0
H870 H 0.10525 0.60529 0.4067 0.0
H871 H 0.06223 0.5973 0.4186 0.0
H872 H 0.04705 0.70005 0.27454 0.0
H873 H 1.00467 0.68688 0.28264 0.0
H874 H 0.09667 0.67882 0.27109 0.0
H875 H 0.13031 0.66606 0.29881 0.0
C876 C 0.30605 0.51673 0.90671 0.0
C877 C 0.33013 0.53923 0.9233 0.0
C878 C 0.36967 0.48973 0.93397 0.0
C879 C 0.34558 0.46758 0.91744 0.0
N880 N 0.28684 0.45766 0.89799 0.0
N881 N 0.37981 0.54514 0.96147 0.0
C882 C 0.31224 0.48038 0.9076 0.0
C883 C 0.36034 0.52502 0.93983 0.0
N884 N 0.27897 0.52991 0.88752 0.0
N885 N 0.40197 0.47733 0.94274 0.0
H886 H 0.37302 0.57065 0.96719 0.0
H887 H 0.40048 0.53558 0.97635 0.0
H888 H 0.40865 0.45125 0.94011 0.0
H889 H 0.42234 0.49304 0.95102 0.0
H890 H 0.26326 0.51476 0.87164 0.0
H891 H 0.27406 0.55628 0.8846 0.0
H892 H 0.26111 0.46504 0.893 0.0
H893 H 0.29082 0.43093 0.89864 0.0
C894 C 0.5079 0.87878 0.3764 0.0
C895 C 0.50448 0.85753 0.4061 0.0
C896 C 0.56662 0.86732 0.41803 0.0
C897 C 0.5711 0.87908 0.38348 0.0
N898 N 0.54391 0.88604 0.3269 0.0
N899 N 0.5314 0.83372 0.45739 0.0
C900 C 0.5412 0.88231 0.36179 0.0
C901 C 0.53421 0.85226 0.42758 0.0
N902 N 0.48011 0.89579 0.36186 0.0
N903 N 0.59233 0.8721 0.44211 0.0
H904 H 0.50743 0.82566 0.46692 0.0
H905 H 0.55297 0.82562 0.4719 0.0
H906 H 0.61494 0.88596 0.43702 0.0
H907 H 0.58926 0.86624 0.46812 0.0
H908 H 0.48292 0.91248 0.34089 0.0
H909 H 0.45584 0.89771 0.37339 0.0
H910 H 0.52209 0.88645 0.31062 0.0
H911 H 0.56728 0.88351 0.31373 0.0
C912 C 0.68695 0.13292 0.54103 0.0
C913 C 0.66335 0.16136 0.54396 0.0
C914 C 0.67276 0.17614 0.48347 0.0
C915 C 0.69678 0.14836 0.48005 0.0
N916 N 0.71692 0.09331 0.50271 0.0
N917 N 0.61997 0.19384 0.51153 0.0
C918 C 0.70124 0.12467 0.50807 0.0
C919 C 0.65176 0.17784 0.51314 0.0
N920 N 0.69479 0.11294 0.56912 0.0
N921 N 0.67084 0.20203 0.45949 0.0
H922 H 0.60187 0.19158 0.5313 0.0
H923 H 0.60987 0.20448 0.48878 0.0
H924 H 0.6877 0.20378 0.43868 0.0
H925 H 0.65524 0.22395 0.46282 0.0
H926 H 0.71596 0.09593 0.57008 0.0
H927 H 0.67955 0.1128 0.59117 0.0
H928 H 0.71821 0.07378 0.52122 0.0
H929 H 0.72523 0.08512 0.47858 0.0
C930 C 0.80781 0.16895 0.99763 0.0
C931 C 0.8305 0.15227 0.02176 0.0
C932 C 0.8747 0.14579 0.97674 0.0
C933 C 0.85168 0.16169 0.95253 0.0
N934 N 0.79374 0.18166 0.93778 0.0
N935 N 0.88176 0.11709 0.03209 0.0
C936 C 0.81719 0.17059 0.96225 0.0
C937 C 0.86289 0.13838 1.01068 0.0
N938 N 0.77835 0.1853 1.00894 0.0
N939 N 0.90825 0.13866 0.96747 0.0
H940 H 0.87361 0.11043 0.05678 0.0
H941 H 0.90381 0.10347 0.02431 0.0
H942 H 0.917 0.1418 0.94227 0.0
H943 H 0.92769 0.13126 0.98497 0.0
H944 H 0.76174 0.19989 0.99322 0.0
H945 H 0.77201 0.18714 0.03491 0.0
H946 H 0.76733 0.18544 0.9425 0.0
H947 H 0.79989 0.18405 0.91181 0.0
C948 C 0.85129 0.42868 0.53059 0.0
C949 C 0.87823 0.4076 0.54517 0.0
C950 C 0.89206 0.38619 0.48789 0.0
C951 C 0.86697 0.40885 0.47221 0.0
N952 N 0.83214 0.46075 0.47996 0.0
N953 N 0.93339 0.37999 0.53478 0.0
C954 C 0.84946 0.43305 0.49391 0.0
C955 C 0.90199 0.3916 0.52259 0.0
N956 N 0.82657 0.44337 0.55099 0.0
N957 N 0.9039 0.35719 0.47162 0.0
H958 H 0.94142 0.38492 0.56004 0.0
H959 H 0.9524 0.36955 0.51875 0.0
H960 H 0.89272 0.34756 0.44914 0.0
H961 H 0.92077 0.33951 0.48359 0.0
H962 H 0.80435 0.45552 0.54093 0.0
H963 H 0.82708 0.44166 0.57774 0.0
H964 H 0.82118 0.48023 0.49496 0.0
H965 H 0.83276 0.46665 0.45376 0.0
C966 C 0.6521 0.41703 0.976 0.0
C967 C 0.67658 0.42145 0.94965 0.0
C968 C 0.72123 0.42776 0.99506 0.0
C969 C 0.69853 0.41198 0.01954 0.0
N970 N 0.64243 0.38289 0.02629 0.0
N971 N 0.73671 0.43099 0.9347 0.0
C972 C 0.66368 0.40462 1.00842 0.0
C973 C 0.71187 0.42723 0.95927 0.0
N974 N 0.61756 0.42177 0.96901 0.0
N975 N 0.75066 0.44454 1.00554 0.0
H976 H 0.73075 0.43254 0.9085 0.0
H977 H 0.7633 0.43107 0.94057 0.0
H978 H 0.75649 0.44938 0.03132 0.0
H979 H 0.76649 0.45799 0.98849 0.0
H980 H 0.59852 0.42008 0.98795 0.0
H981 H 0.60925 0.43161 0.94525 0.0
H982 H 0.61765 0.3762 0.01732 0.0
H983 H 0.65101 0.36691 0.04624 0.0
C984 C 0.90525 0.50066 0.27527 0.0
C985 C 0.93077 0.52285 0.28975 0.0
C986 C 0.94457 0.47958 0.33439 0.0
C987 C 0.91875 0.45779 0.32009 0.0
N988 N 0.88325 0.44223 0.27109 0.0
N989 N 0.98099 0.53015 0.32669 0.0
C990 C 0.90204 0.46661 0.2885 0.0
C991 C 0.95258 0.51111 0.31724 0.0
N992 N 0.8824 0.5127 0.2507 0.0
N993 N 0.96013 0.47096 0.36507 0.0
H994 H 0.98771 0.55299 0.31403 0.0
H995 H 0.99956 0.5218 0.34467 0.0
H996 H 0.95543 0.44757 0.37764 0.0
H997 H 0.97618 0.48765 0.37891 0.0
H998 H 0.86056 0.49894 0.24257 0.0
H999 H 0.88353 0.53751 0.24023 0.0
H1000 H 0.87271 0.44624 0.24655 0.0
H1001 H 0.88166 0.4167 0.27962 0.0
C1002 C 0.49839 0.41082 0.85962 0.0
C1003 C 0.47525 0.38626 0.84513 0.0
C1004 C 0.52234 0.34238 0.84639 0.0
C1005 C 0.54446 0.36591 0.86408 0.0
N1006 N 0.55206 0.42132 0.89136 0.0
N1007 N 0.46382 0.32763 0.82735 0.0
C1008 C 0.53212 0.39992 0.87147 0.0
C1009 C 0.48686 0.35172 0.83938 0.0
N1010 N 0.48808 0.44463 0.86218 0.0
N1011 N 0.53571 0.31185 0.8345 0.0
H1012 H 0.43852 0.33385 0.81932 0.0
H1013 H 0.46914 0.30118 0.82703 0.0
H1014 H 0.56157 0.30426 0.83845 0.0
H1015 H 0.52213 0.29535 0.81808 0.0
H1016 H 0.50484 0.46464 0.86887 0.0
H1017 H 0.46322 0.45324 0.85503 0.0
H1018 H 0.54335 0.44486 0.90107 0.0
H1019 H 0.57656 0.41413 0.90073 0.0
C1020 C 0.76869 0.99365 0.427 0.0
C1021 C 0.74875 0.02171 0.41239 0.0
C1022 C 0.6986 0.98327 0.41201 0.0
C1023 C 0.72019 0.95388 0.41518 0.0
N1024 N 0.77846 0.93154 0.42552 0.0
N1025 N 0.6965 0.03403 0.37745 0.0
C1026 C 0.75611 0.959 0.42296 0.0
C1027 C 0.71388 1.01435 0.40145 0.0
N1028 N 0.79848 0.99938 0.44556 0.0
N1029 N 0.66332 0.98051 0.41475 0.0
H1030 H 0.70896 0.05162 0.36143 0.0
H1031 H 0.67142 0.02792 0.36884 0.0
H1032 H 0.65158 0.95732 0.42206 0.0
H1033 H 0.64684 1.00206 0.41302 0.0
H1034 H 0.81202 0.97951 0.45818 0.0
H1035 H 0.8071 0.02383 0.45246 0.0
H1036 H 0.80543 0.93453 0.42709 0.0
H1037 H 0.77023 0.90596 0.42454 0.0
C1038 C 0.03887 0.18511 0.83334 0.0
C1039 C 0.05759 0.16724 0.85984 0.0
C1040 C 1.01239 0.18408 0.90156 0.0
C1041 C 0.99281 0.20034 0.87469 0.0
N1042 N 0.98458 0.21129 0.81381 0.0
N1043 N 0.05899 0.14399 0.91745 0.0
C1044 C 1.00514 0.1991 0.84021 0.0
C1045 C 0.04346 0.16526 0.89353 0.0
N1046 N 0.05408 0.19066 0.80209 0.0
N1047 N 1.00117 0.18637 0.9348 0.0
H1048 H 0.08101 0.12904 0.9121 0.0
H1049 H 0.04839 0.13848 0.94141 0.0
H1050 H 0.97756 0.19788 0.94151 0.0
H1051 H 1.01616 0.17878 0.95604 0.0
H1052 H 0.04371 0.20719 0.78333 0.0
H1053 H 0.07877 0.18147 0.79579 0.0
H1054 H 0.98992 0.20698 0.78792 0.0
H1055 H 0.9608 0.22374 0.81759 0.0
C1056 C 0.79443 0.99902 0.09303 0.0
C1057 C 0.80677 0.02827 0.1117 0.0
C1058 C 0.85886 0.99487 0.12734 0.0
C1059 C 0.84311 0.96385 0.11635 0.0
N1060 N 0.79191 0.93647 0.09155 0.0
N1061 N 0.84644 0.04744 0.15711 0.0
C1062 C 0.80981 0.96576 0.09968 0.0
C1063 C 0.8379 0.02448 0.13175 0.0
N1064 N 0.7692 1.00273 0.06824 0.0
N1065 N 0.89371 0.99585 0.13473 0.0
H1066 H 0.8296 0.06685 0.16541 0.0
H1067 H 0.86801 0.0438 0.17334 0.0
H1068 H 0.91011 0.97467 0.13042 0.0
H1069 H 0.90645 1.01875 0.14115 0.0
H1070 H 0.76167 0.98249 0.05217 0.0
H1071 H 0.75877 0.02662 0.06097 0.0
H1072 H 0.76606 0.93704 0.08298 0.0
H1073 H 0.80164 0.91163 0.09565 0.0
C1074 C 0.03097 0.37457 0.65729 0.0
C1075 C 0.03848 0.36291 0.69141 0.0
C1076 C 0.98732 0.32465 0.68865 0.0
C1077 C 0.98018 0.33643 0.6546 0.0
N1078 N 1.0004 0.36386 0.60329 0.0
N1079 N 0.02781 0.32221 0.73732 0.0
C1080 C 1.00378 0.35864 0.63794 0.0
C1081 C 1.01782 0.33648 0.70646 0.0
N1082 N 0.0486 0.40211 0.64397 0.0
N1083 N 0.96435 0.30279 0.70413 0.0
H1084 H 0.04953 0.33059 0.75124 0.0
H1085 H 1.01616 0.30061 0.74821 0.0
H1086 H 0.94271 0.2927 0.69124 0.0
H1087 H 0.96602 0.29521 0.72979 0.0
H1088 H 0.04191 0.41396 0.62067 0.0
H1089 H 0.06784 0.41536 0.65765 0.0
H1090 H 1.01829 0.37758 0.58866 0.0
H1091 H 0.98173 0.35074 0.58871 0.0
C1092 C 0.68084 0.5102 0.1343 0.0
C1093 C 0.66519 0.48199 0.15201 0.0
C1094 C 0.6318 0.52397 0.18517 0.0
C1095 C 0.65373 0.55112 0.17405 0.0
N1096 N 0.7041 0.56774 0.14065 0.0
N1097 N 0.63107 0.46399 0.20135 0.0
C1098 C 0.67957 0.54381 0.1491 0.0
C1099 C 0.64186 0.48927 0.17929 0.0
N1100 N 0.69581 0.50543 0.10289 0.0
N1101 N 0.60113 0.53129 0.20109 0.0
H1102 H 0.64075 0.43879 0.20117 0.0
H1103 H 0.616 0.46942 0.22292 0.0
H1104 H 0.59195 0.55662 0.20328 0.0
H1105 H 0.58322 0.51224 0.20768 0.0
H1106 H 0.70526 0.52589 0.08818 0.0
H1107 H 0.69454 0.48206 0.08961 0.0
H1108 H 0.72525 0.56184 0.125 0.0
H1109 H 0.70553 0.59215 0.15176 0.0
C1110 C 0.47368 0.20717 0.64754 0.0
C1111 C 0.47315 0.17776 0.67 0.0
C1112 C 0.53688 0.18032 0.67214 0.0
C1113 C 0.53765 0.20481 0.64457 0.0
N1114 N 0.50325 0.23178 0.59878 0.0
N1115 N 0.50767 0.12897 0.69105 0.0
C1116 C 0.50504 0.21529 0.62988 0.0
C1117 C 0.50574 0.16189 0.67833 0.0
N1118 N 0.44562 0.22886 0.64419 0.0
N1119 N 0.56457 0.17579 0.6941 0.0
H1120 H 0.48625 0.11253 0.69174 0.0
H1121 H 0.53151 0.1166 0.6958 0.0
H1122 H 0.58585 0.19238 0.69487 0.0
H1123 H 0.56352 0.15902 0.71519 0.0
H1124 H 0.44655 0.25147 0.62947 0.0
H1125 H 0.42372 0.22756 0.65969 0.0
H1126 H 0.4795 0.23775 0.58676 0.0
H1127 H 0.52472 0.2349 0.58289 0.0
C1128 C 0.3828 0.88168 0.5084 0.0
C1129 C 0.36922 0.85091 0.49358 0.0
C1130 C 0.3363 0.83928 0.54635 0.0
C1131 C 0.35009 0.86989 0.56129 0.0
N1132 N 0.38989 0.91766 0.55937 0.0
N1133 N 0.33744 0.79765 0.49956 0.0
C1134 C 0.37452 0.89025 0.54315 0.0
C1135 C 0.34739 0.8288 0.51299 0.0
N1136 N 0.40321 0.90293 0.48897 0.0
N1137 N 0.31176 0.82078 0.56377 0.0
H1138 H 0.3435 0.78986 0.47462 0.0
H1139 H 0.32494 0.77851 0.51363 0.0
H1140 H 0.30475 0.82627 0.58907 0.0
H1141 H 0.29715 0.80095 0.55289 0.0
H1142 H 0.41093 0.92754 0.49649 0.0
H1143 H 0.41132 0.89664 0.46418 0.0
H1144 H 0.41026 0.9319 0.54914 0.0
H1145 H 0.38381 0.92491 0.58448 0.0
C1146 C 0.11861 0.85512 0.03291 0.0
C1147 C 0.13818 0.82555 0.04352 0.0
C1148 C 0.16566 0.82358 0.98699 0.0
C1149 C 0.15185 0.85693 0.97953 0.0
N1150 N 0.11447 0.90467 0.99434 0.0
N1151 N 0.1814 0.7818 0.03118 0.0
C1152 C 0.12751 0.87252 1.00187 0.0
C1153 C 0.16145 0.80928 0.02044 0.0
N1154 N 0.09176 0.86654 0.05286 0.0
N1155 N 0.18281 0.80571 0.96195 0.0
H1156 H 0.17877 0.77019 0.05527 0.0
H1157 H 0.20206 0.77184 0.01702 0.0
H1158 H 0.18516 0.81528 0.93693 0.0
H1159 H 0.19123 0.78019 0.96483 0.0
H1160 H 0.07473 0.88637 0.04554 0.0
H1161 H 0.08461 0.85385 0.07548 0.0
H1162 H 0.09983 0.9193 1.01147 0.0
H1163 H 0.11983 0.91749 0.9713 0.0
C1164 C 0.17698 0.66362 0.54389 0.0
C1165 C 0.2052 0.64096 0.55348 0.0
C1166 C 0.2131 0.62586 0.49264 0.0
C1167 C 0.18649 0.65031 0.48324 0.0
N1168 N 0.1329 0.67705 0.50077 0.0
N1169 N 0.23813 0.59006 0.53797 0.0
C1170 C 0.16515 0.66417 0.50922 0.0
C1171 C 0.21966 0.61889 0.52815 0.0
N1172 N 0.16218 0.68611 0.56672 0.0
N1173 N 0.23288 0.60961 0.46844 0.0
H1174 H 0.24182 0.58286 0.56365 0.0
H1175 H 0.24607 0.571 0.52078 0.0
H1176 H 0.22742 0.60938 0.44224 0.0
H1177 H 0.25614 0.5968 0.47455 0.0
H1178 H 0.14525 0.7059 0.55892 0.0
H1179 H 0.1682 0.68774 0.59274 0.0
H1180 H 0.11467 0.68447 0.51911 0.0
H1181 H 0.12282 0.67601 0.47571 0.0
C1182 C 0.43337 0.66933 0.0452 0.0
C1183 C 0.41647 0.69844 0.05985 0.0
C1184 C 0.37282 0.69756 1.01384 0.0
C1185 C 0.39182 0.6713 0.99606 0.0
N1186 N 0.4417 0.63283 0.99495 0.0
N1187 N 0.37718 0.74661 0.05171 0.0
C1188 C 0.42287 0.65762 1.01163 0.0
C1189 C 0.38862 0.71458 0.04204 0.0
N1190 N 0.45879 0.65249 0.06369 0.0
N1191 N 0.339 0.70563 1.00561 0.0
H1192 H 0.38785 0.76013 0.07245 0.0
H1193 H 0.35934 0.76098 0.03696 0.0
H1194 H 0.32471 0.69489 0.98558 0.0
H1195 H 0.32377 0.72172 0.02096 0.0
H1196 H 0.46971 0.62896 0.05635 0.0
H1197 H 0.46764 0.66134 0.0876 0.0
H1198 H 0.46639 0.62466 1.00299 0.0
H1199 H 0.43318 0.62122 0.9722 0.0
loop_
_geom_bond_atom_site_label_1
_geom_bond_atom_site_label_2
_geom_bond_distance
_geom_bond_site_symmetry_2
_ccdc_geom_bond_type
C0 O2 1.247 . S
C0 O4 1.258 . S
C1 O8 1.247 . S
C1 O9 1.258 . S
O2 C0 1.247 . S
O2 Zn3 2.028 . S
Zn3 O2 2.028 . S
Zn3 O7 2.035 . S
Zn3 O9 2.035 . S
Zn3 O10 2.028 . S
O4 C0 1.258 . S
O4 Zn5 2.035 . S
Zn5 O4 2.035 . S
Zn5 O6 2.028 . S
Zn5 O8 2.028 . S
Zn5 O11 2.035 . S
O6 Zn5 2.028 . S
O6 C12 1.247 . S
O7 Zn3 2.035 . S
O7 C12 1.258 . S
O8 C1 1.247 . S
O8 Zn5 2.028 . S
O9 C1 1.258 . S
O9 Zn3 2.035 . S
O10 Zn3 2.028 . S
O10 C13 1.247 . S
O11 Zn5 2.035 . S
O11 C13 1.258 . S
C12 O6 1.247 . S
C12 O7 1.258 . S
C13 O10 1.247 . S
C13 O11 1.258 . S
C14 O16 1.247 . S
C14 O18 1.258 . S
C15 O22 1.247 . S
C15 O23 1.258 . S
O16 C14 1.247 . S
O16 Zn17 2.028 . S
Zn17 O16 2.028 . S
Zn17 O21 2.035 . S
Zn17 O23 2.035 . S
Zn17 O24 2.028 . S
O18 C14 1.258 . S
O18 Zn19 2.035 . S
Zn19 O18 2.035 . S
Zn19 O20 2.028 . S
Zn19 O22 2.028 . S
Zn19 O25 2.035 . S
O20 Zn19 2.028 . S
O20 C26 1.247 . S
O21 Zn17 2.035 . S
O21 C26 1.258 . S
O22 C15 1.247 . S
O22 Zn19 2.028 . S
O23 C15 1.258 . S
O23 Zn17 2.035 . S
O24 Zn17 2.028 . S
O24 C27 1.247 . S
O25 Zn19 2.035 . S
O25 C27 1.258 . S
C26 O20 1.247 . S
C26 O21 1.258 . S
C27 O24 1.247 . S
C27 O25 1.258 . S
C28 O30 1.247 . S
C28 O32 1.258 . S
C29 O36 1.247 . S
C29 O37 1.258 . S
O30 C28 1.247 . S
O30 Zn31 2.028 . S
Zn31 O30 2.028 . S
Zn31 O35 2.035 . S
Zn31 O37 2.035 . S
Zn31 O38 2.028 . S
O32 C28 1.258 . S
O32 Zn33 2.035 . S
Zn33 O32 2.035 . S
Zn33 O34 2.028 . S
Zn33 O36 2.028 . S
Zn33 O39 2.035 . S
O34 Zn33 2.028 . S
O34 C40 1.247 . S
O35 Zn31 2.035 . S
O35 C40 1.258 . S
O36 C29 1.247 . S
O36 Zn33 2.028 . S
O37 C29 1.258 . S
O37 Zn31 2.035 . S
O38 Zn31 2.028 . S
O38 C41 1.247 . S
O39 Zn33 2.035 . S
O39 C41 1.258 . S
C40 O34 1.247 . S
C40 O35 1.258 . S
C41 O38 1.247 . S
C41 O39 1.258 . S
C42 O44 1.247 . S
C42 O46 1.258 . S
C43 O50 1.247 . S
C43 O51 1.258 . S
O44 C42 1.247 . S
O44 Zn45 2.028 . S
Zn45 O44 2.028 . S
Zn45 O49 2.035 . S
Zn45 O51 2.035 . S
Zn45 O52 2.028 . S
O46 C42 1.258 . S
O46 Zn47 2.035 . S
Zn47 O46 2.035 . S
Zn47 O48 2.028 . S
Zn47 O50 2.028 . S
Zn47 O53 2.035 . S
O48 Zn47 2.028 . S
O48 C54 1.247 . S
O49 Zn45 2.035 . S
O49 C54 1.258 . S
O50 C43 1.247 . S
O50 Zn47 2.028 . S
O51 C43 1.258 . S
O51 Zn45 2.035 . S
O52 Zn45 2.028 . S
O52 C55 1.247 . S
O53 Zn47 2.035 . S
O53 C55 1.258 . S
C54 O48 1.247 . S
C54 O49 1.258 . S
C55 O52 1.247 . S
C55 O53 1.258 . S
C56 O58 1.247 . S
C56 O60 1.258 . S
C57 O64 1.247 . S
C57 O65 1.258 . S
O58 C56 1.247 . S
O58 Zn59 2.028 . S
Zn59 O58 2.028 . S
Zn59 O63 2.035 . S
Zn59 O65 2.035 . S
Zn59 O66 2.028 . S
O60 C56 1.258 . S
O60 Zn61 2.035 . S
Zn61 O60 2.035 . S
Zn61 O62 2.028 . S
Zn61 O64 2.028 . S
Zn61 O67 2.035 . S
O62 Zn61 2.028 . S
O62 C68 1.247 . S
O63 Zn59 2.035 . S
O63 C68 1.258 . S
O64 C57 1.247 . S
O64 Zn61 2.028 . S
O65 C57 1.258 . S
O65 Zn59 2.035 . S
O66 Zn59 2.028 . S
O66 C69 1.247 . S
O67 Zn61 2.035 . S
O67 C69 1.258 . S
C68 O62 1.247 . S
C68 O63 1.258 . S
C69 O66 1.247 . S
C69 O67 1.258 . S
C70 O72 1.247 . S
C70 O74 1.258 . S
C71 O78 1.247 . S
C71 O79 1.258 . S
O72 C70 1.247 . S
O72 Zn73 2.028 . S
Zn73 O72 2.028 . S
Zn73 O77 2.035 . S
Zn73 O79 2.035 . S
Zn73 O80 2.028 . S
O74 C70 1.258 . S
O74 Zn75 2.035 . S
Zn75 O74 2.035 . S
Zn75 O76 2.028 . S
Zn75 O78 2.028 . S
Zn75 O81 2.035 . S
O76 Zn75 2.028 . S
O76 C82 1.247 . S
O77 Zn73 2.035 . S
O77 C82 1.258 . S
O78 C71 1.247 . S
O78 Zn75 2.028 . S
O79 C71 1.258 . S
O79 Zn73 2.035 . S
O80 Zn73 2.028 . S
O80 C83 1.247 . S
O81 Zn75 2.035 . S
O81 C83 1.258 . S
C82 O76 1.247 . S
C82 O77 1.258 . S
C83 O80 1.247 . S
C83 O81 1.258 . S
C84 O86 1.247 . S
C84 O88 1.258 . S
C85 O92 1.247 . S
C85 O93 1.258 . S
O86 C84 1.247 . S
O86 Zn87 2.028 . S
Zn87 O86 2.028 . S
Zn87 O91 2.035 . S
Zn87 O93 2.035 . S
Zn87 O94 2.028 . S
O88 C84 1.258 . S
O88 Zn89 2.035 . S
Zn89 O88 2.035 . S
Zn89 O90 2.028 . S
Zn89 O92 2.028 . S
Zn89 O95 2.035 . S
O90 Zn89 2.028 . S
O90 C96 1.247 . S
O91 Zn87 2.035 . S
O91 C96 1.258 . S
O92 C85 1.247 . S
O92 Zn89 2.028 . S
O93 C85 1.258 . S
O93 Zn87 2.035 . S
O94 Zn87 2.028 . S
O94 C97 1.247 . S
O95 Zn89 2.035 . S
O95 C97 1.258 . S
C96 O90 1.247 . S
C96 O91 1.258 . S
C97 O94 1.247 . S
C97 O95 1.258 . S
C98 O100 1.247 . S
C98 O102 1.258 . S
C99 O106 1.247 . S
C99 O107 1.258 . S
O100 C98 1.247 . S
O100 Zn101 2.028 . S
Zn101 O100 2.028 . S
Zn101 O105 2.035 . S
Zn101 O107 2.035 . S
Zn101 O108 2.028 . S
O102 C98 1.258 . S
O102 Zn103 2.035 . S
Zn103 O102 2.035 . S
Zn103 O104 2.028 . S
Zn103 O106 2.028 . S
Zn103 O109 2.035 . S
O104 Zn103 2.028 . S
O104 C110 1.247 . S
O105 Zn101 2.035 . S
O105 C110 1.258 . S
O106 C99 1.247 . S
O106 Zn103 2.028 . S
O107 C99 1.258 . S
O107 Zn101 2.035 . S
O108 Zn101 2.028 . S
O108 C111 1.247 . S
O109 Zn103 2.035 . S
O109 C111 1.258 . S
C110 O104 1.247 . S
C110 O105 1.258 . S
C111 O108 1.247 . S
C111 O109 1.258 . S
C112 O114 1.247 . S
C112 O116 1.258 . S
C113 O120 1.247 . S
C113 O121 1.258 . S
O114 C112 1.247 . S
O114 Zn115 2.028 . S
Zn115 O114 2.028 . S
Zn115 O119 2.035 . S
Zn115 O121 2.035 . S
Zn115 O122 2.028 . S
O116 C112 1.258 . S
O116 Zn117 2.035 . S
Zn117 O116 2.035 . S
Zn117 O118 2.028 . S
Zn117 O120 2.028 . S
Zn117 O123 2.035 . S
O118 Zn117 2.028 . S
O118 C124 1.247 . S
O119 Zn115 2.035 . S
O119 C124 1.258 . S
O120 C113 1.247 . S
O120 Zn117 2.028 . S
O121 C113 1.258 . S
O121 Zn115 2.035 . S
O122 Zn115 2.028 . S
O122 C125 1.247 . S
O123 Zn117 2.035 . S
O123 C125 1.258 . S
C124 O118 1.247 . S
C124 O119 1.258 . S
C125 O122 1.247 . S
C125 O123 1.258 . S
C126 O128 1.247 . S
C126 O130 1.258 . S
C127 O134 1.247 . S
C127 O135 1.258 . S
O128 C126 1.247 . S
O128 Zn129 2.028 . S
Zn129 O128 2.028 . S
Zn129 O133 2.035 . S
Zn129 O135 2.035 . S
Zn129 O136 2.028 . S
O130 C126 1.258 . S
O130 Zn131 2.035 . S
Zn131 O130 2.035 . S
Zn131 O132 2.028 . S
Zn131 O134 2.028 . S
Zn131 O137 2.035 . S
O132 Zn131 2.028 . S
O132 C138 1.247 . S
O133 Zn129 2.035 . S
O133 C138 1.258 . S
O134 C127 1.247 . S
O134 Zn131 2.028 . S
O135 C127 1.258 . S
O135 Zn129 2.035 . S
O136 Zn129 2.028 . S
O136 C139 1.247 . S
O137 Zn131 2.035 . S
O137 C139 1.258 . S
C138 O132 1.247 . S
C138 O133 1.258 . S
C139 O136 1.247 . S
C139 O137 1.258 . S
C140 O142 1.247 . S
C140 O144 1.258 . S
C141 O148 1.247 . S
C141 O149 1.258 . S
O142 C140 1.247 . S
O142 Zn143 2.028 . S
Zn143 O142 2.028 . S
Zn143 O147 2.035 . S
Zn143 O149 2.035 . S
Zn143 O150 2.028 . S
O144 C140 1.258 . S
O144 Zn145 2.035 . S
Zn145 O144 2.035 . S
Zn145 O146 2.028 . S
Zn145 O148 2.028 . S
Zn145 O151 2.035 . S
O146 Zn145 2.028 . S
O146 C152 1.247 . S
O147 Zn143 2.035 . S
O147 C152 1.258 . S
O148 C141 1.247 . S
O148 Zn145 2.028 . S
O149 C141 1.258 . S
O149 Zn143 2.035 . S
O150 Zn143 2.028 . S
O150 C153 1.247 . S
O151 Zn145 2.035 . S
O151 C153 1.258 . S
C152 O146 1.247 . S
C152 O147 1.258 . S
C153 O150 1.247 . S
C153 O151 1.258 . S
C154 O156 1.247 . S
C154 O158 1.258 . S
C155 O162 1.247 . S
C155 O163 1.258 . S
O156 C154 1.247 . S
O156 Zn157 2.028 . S
Zn157 O156 2.028 . S
Zn157 O161 2.035 . S
Zn157 O163 2.035 . S
Zn157 O164 2.028 . S
O158 C154 1.258 . S
O158 Zn159 2.035 . S
Zn159 O158 2.035 . S
Zn159 O160 2.028 . S
Zn159 O162 2.028 . S
Zn159 O165 2.035 . S
O160 Zn159 2.028 . S
O160 C166 1.247 . S
O161 Zn157 2.035 . S
O161 C166 1.258 . S
O162 C155 1.247 . S
O162 Zn159 2.028 . S
O163 C155 1.258 . S
O163 Zn157 2.035 . S
O164 Zn157 2.028 . S
O164 C167 1.247 . S
O165 Zn159 2.035 . S
O165 C167 1.258 . S
C166 O160 1.247 . S
C166 O161 1.258 . S
C167 O164 1.247 . S
C167 O165 1.258 . S
C168 O170 1.247 . S
C168 O172 1.258 . S
C169 O176 1.247 . S
C169 O177 1.258 . S
O170 C168 1.247 . S
O170 Zn171 2.028 . S
Zn171 O170 2.028 . S
Zn171 O175 2.035 . S
Zn171 O177 2.035 . S
Zn171 O178 2.028 . S
O172 C168 1.258 . S
O172 Zn173 2.035 . S
Zn173 O172 2.035 . S
Zn173 O174 2.028 . S
Zn173 O176 2.028 . S
Zn173 O179 2.035 . S
O174 Zn173 2.028 . S
O174 C180 1.247 . S
O175 Zn171 2.035 . S
O175 C180 1.258 . S
O176 C169 1.247 . S
O176 Zn173 2.028 . S
O177 C169 1.258 . S
O177 Zn171 2.035 . S
O178 Zn171 2.028 . S
O178 C181 1.247 . S
O179 Zn173 2.035 . S
O179 C181 1.258 . S
C180 O174 1.247 . S
C180 O175 1.258 . S
C181 O178 1.247 . S
C181 O179 1.258 . S
C182 O184 1.247 . S
C182 O186 1.258 . S
C183 O190 1.247 . S
C183 O191 1.258 . S
O184 C182 1.247 . S
O184 Zn185 2.028 . S
Zn185 O184 2.028 . S
Zn185 O189 2.035 . S
Zn185 O191 2.035 . S
Zn185 O192 2.028 . S
O186 C182 1.258 . S
O186 Zn187 2.035 . S
Zn187 O186 2.035 . S
Zn187 O188 2.028 . S
Zn187 O190 2.028 . S
Zn187 O193 2.035 . S
O188 Zn187 2.028 . S
O188 C194 1.247 . S
O189 Zn185 2.035 . S
O189 C194 1.258 . S
O190 C183 1.247 . S
O190 Zn187 2.028 . S
O191 C183 1.258 . S
O191 Zn185 2.035 . S
O192 Zn185 2.028 . S
O192 C195 1.247 . S
O193 Zn187 2.035 . S
O193 C195 1.258 . S
C194 O188 1.247 . S
C194 O189 1.258 . S
C195 O192 1.247 . S
C195 O193 1.258 . S
C196 O198 1.247 . S
C196 O200 1.258 . S
C197 O204 1.247 . S
C197 O205 1.258 . S
O198 C196 1.247 . S
O198 Zn199 2.028 . S
Zn199 O198 2.028 . S
Zn199 O203 2.035 . S
Zn199 O205 2.035 . S
Zn199 O206 2.028 . S
O200 C196 1.258 . S
O200 Zn201 2.035 . S
Zn201 O200 2.035 . S
Zn201 O202 2.028 . S
Zn201 O204 2.028 . S
Zn201 O207 2.035 . S
O202 Zn201 2.028 . S
O202 C208 1.247 . S
O203 Zn199 2.035 . S
O203 C208 1.258 . S
O204 C197 1.247 . S
O204 Zn201 2.028 . S
O205 C197 1.258 . S
O205 Zn199 2.035 . S
O206 Zn199 2.028 . S
O206 C209 1.247 . S
O207 Zn201 2.035 . S
O207 C209 1.258 . S
C208 O202 1.247 . S
C208 O203 1.258 . S
C209 O206 1.247 . S
C209 O207 1.258 . S
C210 O212 1.247 . S
C210 O214 1.258 . S
C211 O218 1.247 . S
C211 O219 1.258 . S
O212 C210 1.247 . S
O212 Zn213 2.028 . S
Zn213 O212 2.028 . S
Zn213 O217 2.035 . S
Zn213 O219 2.035 . S
Zn213 O220 2.028 . S
O214 C210 1.258 . S
O214 Zn215 2.035 . S
Zn215 O214 2.035 . S
Zn215 O216 2.028 . S
Zn215 O218 2.028 . S
Zn215 O221 2.035 . S
O216 Zn215 2.028 . S
O216 C222 1.247 . S
O217 Zn213 2.035 . S
O217 C222 1.258 . S
O218 C211 1.247 . S
O218 Zn215 2.028 . S
O219 C211 1.258 . S
O219 Zn213 2.035 . S
O220 Zn213 2.028 . S
O220 C223 1.247 . S
O221 Zn215 2.035 . S
O221 C223 1.258 . S
C222 O216 1.247 . S
C222 O217 1.258 . S
C223 O220 1.247 . S
C223 O221 1.258 . S
C224 O226 1.247 . S
C224 O228 1.258 . S
C225 O232 1.247 . S
C225 O233 1.258 . S
O226 C224 1.247 . S
O226 Zn227 2.028 . S
Zn227 O226 2.028 . S
Zn227 O231 2.035 . S
Zn227 O233 2.035 . S
Zn227 O234 2.028 . S
O228 C224 1.258 . S
O228 Zn229 2.035 . S
Zn229 O228 2.035 . S
Zn229 O230 2.028 . S
Zn229 O232 2.028 . S
Zn229 O235 2.035 . S
O230 Zn229 2.028 . S
O230 C236 1.247 . S
O231 Zn227 2.035 . S
O231 C236 1.258 . S
O232 C225 1.247 . S
O232 Zn229 2.028 . S
O233 C225 1.258 . S
O233 Zn227 2.035 . S
O234 Zn227 2.028 . S
O234 C237 1.247 . S
O235 Zn229 2.035 . S
O235 C237 1.258 . S
C236 O230 1.247 . S
C236 O231 1.258 . S
C237 O234 1.247 . S
C237 O235 1.258 . S
C238 O240 1.247 . S
C238 O242 1.258 . S
C239 O246 1.247 . S
C239 O247 1.258 . S
O240 C238 1.247 . S
O240 Zn241 2.028 . S
Zn241 O240 2.028 . S
Zn241 O245 2.035 . S
Zn241 O247 2.035 . S
Zn241 O248 2.028 . S
O242 C238 1.258 . S
O242 Zn243 2.035 . S
Zn243 O242 2.035 . S
Zn243 O244 2.028 . S
Zn243 O246 2.028 . S
Zn243 O249 2.035 . S
O244 Zn243 2.028 . S
O244 C250 1.247 . S
O245 Zn241 2.035 . S
O245 C250 1.258 . S
O246 C239 1.247 . S
O246 Zn243 2.028 . S
O247 C239 1.258 . S
O247 Zn241 2.035 . S
O248 Zn241 2.028 . S
O248 C251 1.247 . S
O249 Zn243 2.035 . S
O249 C251 1.258 . S
C250 O244 1.247 . S
C250 O245 1.258 . S
C251 O248 1.247 . S
C251 O249 1.258 . S
C252 O254 1.247 . S
C252 O256 1.258 . S
C253 O260 1.247 . S
C253 O261 1.258 . S
O254 C252 1.247 . S
O254 Zn255 2.028 . S
Zn255 O254 2.028 . S
Zn255 O259 2.035 . S
Zn255 O261 2.035 . S
Zn255 O262 2.028 . S
O256 C252 1.258 . S
O256 Zn257 2.035 . S
Zn257 O256 2.035 . S
Zn257 O258 2.028 . S
Zn257 O260 2.028 . S
Zn257 O263 2.035 . S
O258 Zn257 2.028 . S
O258 C264 1.247 . S
O259 Zn255 2.035 . S
O259 C264 1.258 . S
O260 C253 1.247 . S
O260 Zn257 2.028 . S
O261 C253 1.258 . S
O261 Zn255 2.035 . S
O262 Zn255 2.028 . S
O262 C265 1.247 . S
O263 Zn257 2.035 . S
O263 C265 1.258 . S
C264 O258 1.247 . S
C264 O259 1.258 . S
C265 O262 1.247 . S
C265 O263 1.258 . S
C266 O268 1.247 . S
C266 O270 1.258 . S
C267 O274 1.247 . S
C267 O275 1.258 . S
O268 C266 1.247 . S
O268 Zn269 2.028 . S
Zn269 O268 2.028 . S
Zn269 O273 2.035 . S
Zn269 O275 2.035 . S
Zn269 O276 2.028 . S
O270 C266 1.258 . S
O270 Zn271 2.035 . S
Zn271 O270 2.035 . S
Zn271 O272 2.028 . S
Zn271 O274 2.028 . S
Zn271 O277 2.035 . S
O272 Zn271 2.028 . S
O272 C278 1.247 . S
O273 Zn269 2.035 . S
O273 C278 1.258 . S
O274 C267 1.247 . S
O274 Zn271 2.028 . S
O275 C267 1.258 . S
O275 Zn269 2.035 . S
O276 Zn269 2.028 . S
O276 C279 1.247 . S
O277 Zn271 2.035 . S
O277 C279 1.258 . S
C278 O272 1.247 . S
C278 O273 1.258 . S
C279 O276 1.247 . S
C279 O277 1.258 . S
C280 O282 1.247 . S
C280 O284 1.258 . S
C281 O288 1.247 . S
C281 O289 1.258 . S
O282 C280 1.247 . S
O282 Zn283 2.028 . S
Zn283 O282 2.028 . S
Zn283 O287 2.035 . S
Zn283 O289 2.035 . S
Zn283 O290 2.028 . S
O284 C280 1.258 . S
O284 Zn285 2.035 . S
Zn285 O284 2.035 . S
Zn285 O286 2.028 . S
Zn285 O288 2.028 . S
Zn285 O291 2.035 . S
O286 Zn285 2.028 . S
O286 C292 1.247 . S
O287 Zn283 2.035 . S
O287 C292 1.258 . S
O288 C281 1.247 . S
O288 Zn285 2.028 . S
O289 C281 1.258 . S
O289 Zn283 2.035 . S
O290 Zn283 2.028 . S
O290 C293 1.247 . S
O291 Zn285 2.035 . S
O291 C293 1.258 . S
C292 O286 1.247 . S
C292 O287 1.258 . S
C293 O290 1.247 . S
C293 O291 1.258 . S
C294 O296 1.247 . S
C294 O298 1.258 . S
C295 O302 1.247 . S
C295 O303 1.258 . S
O296 C294 1.247 . S
O296 Zn297 2.028 . S
Zn297 O296 2.028 . S
Zn297 O301 2.035 . S
Zn297 O303 2.035 . S
Zn297 O304 2.028 . S
O298 C294 1.258 . S
O298 Zn299 2.035 . S
Zn299 O298 2.035 . S
Zn299 O300 2.028 . S
Zn299 O302 2.028 . S
Zn299 O305 2.035 . S
O300 Zn299 2.028 . S
O300 C306 1.247 . S
O301 Zn297 2.035 . S
O301 C306 1.258 . S
O302 C295 1.247 . S
O302 Zn299 2.028 . S
O303 C295 1.258 . S
O303 Zn297 2.035 . S
O304 Zn297 2.028 . S
O304 C307 1.247 . S
O305 Zn299 2.035 . S
O305 C307 1.258 . S
C306 O300 1.247 . S
C306 O301 1.258 . S
C307 O304 1.247 . S
C307 O305 1.258 . S
C308 O310 1.247 . S
C308 O312 1.258 . S
C309 O316 1.247 . S
C309 O317 1.258 . S
O310 C308 1.247 . S
O310 Zn311 2.028 . S
Zn311 O310 2.028 . S
Zn311 O315 2.035 . S
Zn311 O317 2.035 . S
Zn311 O318 2.028 . S
O312 C308 1.258 . S
O312 Zn313 2.035 . S
Zn313 O312 2.035 . S
Zn313 O314 2.028 . S
Zn313 O316 2.028 . S
Zn313 O319 2.035 . S
O314 Zn313 2.028 . S
O314 C320 1.247 . S
O315 Zn311 2.035 . S
O315 C320 1.258 . S
O316 C309 1.247 . S
O316 Zn313 2.028 . S
O317 C309 1.258 . S
O317 Zn311 2.035 . S
O318 Zn311 2.028 . S
O318 C321 1.247 . S
O319 Zn313 2.035 . S
O319 C321 1.258 . S
C320 O314 1.247 . S
C320 O315 1.258 . S
C321 O318 1.247 . S
C321 O319 1.258 . S
C322 O324 1.247 . S
C322 O326 1.258 . S
C323 O330 1.247 . S
C323 O331 1.258 . S
O324 C322 1.247 . S
O324 Zn325 2.028 . S
Zn325 O324 2.028 . S
Zn325 O329 2.035 . S
Zn325 O331 2.035 . S
Zn325 O332 2.028 . S
O326 C322 1.258 . S
O326 Zn327 2.035 . S
Zn327 O326 2.035 . S
Zn327 O328 2.028 . S
Zn327 O330 2.028 . S
Zn327 O333 2.035 . S
O328 Zn327 2.028 . S
O328 C334 1.247 . S
O329 Zn325 2.035 . S
O329 C334 1.258 . S
O330 C323 1.247 . S
O330 Zn327 2.028 . S
O331 C323 1.258 . S
O331 Zn325 2.035 . S
O332 Zn325 2.028 . S
O332 C335 1.247 . S
O333 Zn327 2.035 . S
O333 C335 1.258 . S
C334 O328 1.247 . S
C334 O329 1.258 . S
C335 O332 1.247 . S
C335 O333 1.258 . S
C336 C337 1.363 . S
C336 C342 1.379 . S
C336 N344 1.356 . S
C337 C336 1.363 . S
C337 C343 1.363 . S
C338 C339 1.363 . S
C338 C343 1.379 . S
C338 N345 1.356 . S
C339 C338 1.363 . S
C339 C342 1.363 . S
N340 C342 1.356 . S
N340 H352 0.984 . S
N340 H353 0.985 . S
N341 C343 1.356 . S
N341 H346 0.984 . S
N341 H347 0.985 . S
C342 C336 1.379 . S
C342 C339 1.363 . S
C342 N340 1.356 . S
C343 C337 1.363 . S
C343 C338 1.379 . S
C343 N341 1.356 . S
N344 C336 1.356 . S
N344 H350 0.984 . S
N344 H351 0.984 . S
N345 C338 1.356 . S
N345 H348 0.984 . S
N345 H349 0.985 . S
H346 N341 0.984 . S
H347 N341 0.985 . S
H348 N345 0.984 . S
H349 N345 0.985 . S
H350 N344 0.984 . S
H351 N344 0.984 . S
H352 N340 0.984 . S
H353 N340 0.985 . S
C354 C355 1.363 . S
C354 C360 1.379 . S
C354 N362 1.356 . S
C355 C354 1.363 . S
C355 C361 1.363 . S
C356 C357 1.363 . S
C356 C361 1.379 . S
C356 N363 1.356 . S
C357 C356 1.363 . S
C357 C360 1.363 . S
N358 C360 1.356 . S
N358 H370 0.984 . S
N358 H371 0.985 . S
N359 C361 1.356 . S
N359 H364 0.984 . S
N359 H365 0.985 . S
C360 C354 1.379 . S
C360 C357 1.363 . S
C360 N358 1.356 . S
C361 C355 1.363 . S
C361 C356 1.379 . S
C361 N359 1.356 . S
N362 C354 1.356 . S
N362 H368 0.984 . S
N362 H369 0.984 . S
N363 C356 1.356 . S
N363 H366 0.984 . S
N363 H367 0.985 . S
H364 N359 0.984 . S
H365 N359 0.985 . S
H366 N363 0.984 . S
H367 N363 0.985 . S
H368 N362 0.984 . S
H369 N362 0.984 . S
H370 N358 0.984 . S
H371 N358 0.985 . S
C372 C373 1.363 . S
C372 C378 1.379 . S
C372 N380 1.356 . S
C373 C372 1.363 . S
C373 C379 1.363 . S
C374 C375 1.363 . S
C374 C379 1.379 . S
C374 N381 1.356 . S
C375 C374 1.363 . S
C375 C378 1.363 . S
N376 C378 1.356 . S
N376 H388 0.984 . S
N376 H389 0.985 . S
N377 C379 1.356 . S
N377 H382 0.984 . S
N377 H383 0.985 . S
C378 C372 1.379 . S
C378 C375 1.363 . S
C378 N376 1.356 . S
C379 C373 1.363 . S
C379 C374 1.379 . S
C379 N377 1.356 . S
N380 C372 1.356 . S
N380 H386 0.984 . S
N380 H387 0.984 . S
N381 C374 1.356 . S
N381 H384 0.984 . S
N381 H385 0.985 . S
H382 N377 0.984 . S
H383 N377 0.985 . S
H384 N381 0.984 . S
H385 N381 0.985 . S
H386 N380 0.984 . S
H387 N380 0.984 . S
H388 N376 0.984 . S
H389 N376 0.985 . S
C390 C391 1.363 . S
C390 C396 1.379 . S
C390 N398 1.356 . S
C391 C390 1.363 . S
C391 C397 1.363 . S
C392 C393 1.363 . S
C392 C397 1.379 . S
C392 N399 1.356 . S
C393 C392 1.363 . S
C393 C396 1.363 . S
N394 C396 1.356 . S
N394 H406 0.984 . S
N394 H407 0.985 . S
N395 C397 1.356 . S
N395 H400 0.984 . S
N395 H401 0.985 . S
C396 C390 1.379 . S
C396 C393 1.363 . S
C396 N394 1.356 . S
C397 C391 1.363 . S
C397 C392 1.379 . S
C397 N395 1.356 . S
N398 C390 1.356 . S
N398 H404 0.984 . S
N398 H405 0.984 . S
N399 C392 1.356 . S
N399 H402 0.984 . S
N399 H403 0.985 . S
H400 N395 0.984 . S
H401 N395 0.985 . S
H402 N399 0.984 . S
H403 N399 0.985 . S
H404 N398 0.984 . S
H405 N398 0.984 . S
H406 N394 0.984 . S
H407 N394 0.985 . S
C408 C409 1.363 . S
C408 C414 1.379 . S
C408 N416 1.356 . S
C409 C408 1.363 . S
C409 C415 1.363 . S
C410 C411 1.363 . S
C410 C415 1.379 . S
C410 N417 1.356 . S
C411 C410 1.363 . S
C411 C414 1.363 . S
N412 C414 1.356 . S
N412 H424 0.984 . S
N412 H425 0.985 . S
N413 C415 1.356 . S
N413 H418 0.984 . S
N413 H419 0.985 . S
C414 C408 1.379 . S
C414 C411 1.363 . S
C414 N412 1.356 . S
C415 C409 1.363 . S
C415 C410 1.379 . S
C415 N413 1.356 . S
N416 C408 1.356 . S
N416 H422 0.984 . S
N416 H423 0.984 . S
N417 C410 1.356 . S
N417 H420 0.984 . S
N417 H421 0.985 . S
H418 N413 0.984 . S
H419 N413 0.985 . S
H420 N417 0.984 . S
H421 N417 0.985 . S
H422 N416 0.984 . S
H423 N416 0.984 . S
H424 N412 0.984 . S
H425 N412 0.985 . S
C426 C427 1.363 . S
C426 C432 1.379 . S
C426 N434 1.356 . S
C427 C426 1.363 . S
C427 C433 1.363 . S
C428 C429 1.363 . S
C428 C433 1.379 . S
C428 N435 1.356 . S
C429 C428 1.363 . S
C429 C432 1.363 . S
N430 C432 1.356 . S
N430 H442 0.984 . S
N430 H443 0.985 . S
N431 C433 1.356 . S
N431 H436 0.984 . S
N431 H437 0.985 . S
C432 C426 1.379 . S
C432 C429 1.363 . S
C432 N430 1.356 . S
C433 C427 1.363 . S
C433 C428 1.379 . S
C433 N431 1.356 . S
N434 C426 1.356 . S
N434 H440 0.984 . S
N434 H441 0.984 . S
N435 C428 1.356 . S
N435 H438 0.984 . S
N435 H439 0.985 . S
H436 N431 0.984 . S
H437 N431 0.985 . S
H438 N435 0.984 . S
H439 N435 0.985 . S
H440 N434 0.984 . S
H441 N434 0.984 . S
H442 N430 0.984 . S
H443 N430 0.985 . S
C444 C445 1.363 . S
C444 C450 1.379 . S
C444 N452 1.356 . S
C445 C444 1.363 . S
C445 C451 1.363 . S
C446 C447 1.363 . S
C446 C451 1.379 . S
C446 N453 1.356 . S
C447 C446 1.363 . S
C447 C450 1.363 . S
N448 C450 1.356 . S
N448 H460 0.984 . S
N448 H461 0.985 . S
N449 C451 1.356 . S
N449 H454 0.984 . S
N449 H455 0.985 . S
C450 C444 1.379 . S
C450 C447 1.363 . S
C450 N448 1.356 . S
C451 C445 1.363 . S
C451 C446 1.379 . S
C451 N449 1.356 . S
N452 C444 1.356 . S
N452 H458 0.984 . S
N452 H459 0.984 . S
N453 C446 1.356 . S
N453 H456 0.984 . S
N453 H457 0.985 . S
H454 N449 0.984 . S
H455 N449 0.985 . S
H456 N453 0.984 . S
H457 N453 0.985 . S
H458 N452 0.984 . S
H459 N452 0.984 . S
H460 N448 0.984 . S
H461 N448 0.985 . S
C462 C463 1.363 . S
C462 C468 1.379 . S
C462 N470 1.356 . S
C463 C462 1.363 . S
C463 C469 1.363 . S
C464 C465 1.363 . S
C464 C469 1.379 . S
C464 N471 1.356 . S
C465 C464 1.363 . S
C465 C468 1.363 . S
N466 C468 1.356 . S
N466 H478 0.984 . S
N466 H479 0.985 . S
N467 C469 1.356 . S
N467 H472 0.984 . S
N467 H473 0.985 . S
C468 C462 1.379 . S
C468 C465 1.363 . S
C468 N466 1.356 . S
C469 C463 1.363 . S
C469 C464 1.379 . S
C469 N467 1.356 . S
N470 C462 1.356 . S
N470 H476 0.984 . S
N470 H477 0.984 . S
N471 C464 1.356 . S
N471 H474 0.984 . S
N471 H475 0.985 . S
H472 N467 0.984 . S
H473 N467 0.985 . S
H474 N471 0.984 . S
H475 N471 0.985 . S
H476 N470 0.984 . S
H477 N470 0.984 . S
H478 N466 0.984 . S
H479 N466 0.985 . S
C480 C481 1.363 . S
C480 C486 1.379 . S
C480 N488 1.356 . S
C481 C480 1.363 . S
C481 C487 1.363 . S
C482 C483 1.363 . S
C482 C487 1.379 . S
C482 N489 1.356 . S
C483 C482 1.363 . S
C483 C486 1.363 . S
N484 C486 1.356 . S
N484 H496 0.984 . S
N484 H497 0.985 . S
N485 C487 1.356 . S
N485 H490 0.984 . S
N485 H491 0.985 . S
C486 C480 1.379 . S
C486 C483 1.363 . S
C486 N484 1.356 . S
C487 C481 1.363 . S
C487 C482 1.379 . S
C487 N485 1.356 . S
N488 C480 1.356 . S
N488 H494 0.984 . S
N488 H495 0.984 . S
N489 C482 1.356 . S
N489 H492 0.984 . S
N489 H493 0.985 . S
H490 N485 0.984 . S
H491 N485 0.985 . S
H492 N489 0.984 . S
H493 N489 0.985 . S
H494 N488 0.984 . S
H495 N488 0.984 . S
H496 N484 0.984 . S
H497 N484 0.985 . S
C498 C499 1.363 . S
C498 C504 1.379 . S
C498 N506 1.356 . S
C499 C498 1.363 . S
C499 C505 1.363 . S
C500 C501 1.363 . S
C500 C505 1.379 . S
C500 N507 1.356 . S
C501 C500 1.363 . S
C501 C504 1.363 . S
N502 C504 1.356 . S
N502 H514 0.984 . S
N502 H515 0.985 . S
N503 C505 1.356 . S
N503 H508 0.984 . S
N503 H509 0.985 . S
C504 C498 1.379 . S
C504 C501 1.363 . S
C504 N502 1.356 . S
C505 C499 1.363 . S
C505 C500 1.379 . S
C505 N503 1.356 . S
N506 C498 1.356 . S
N506 H512 0.984 . S
N506 H513 0.984 . S
N507 C500 1.356 . S
N507 H510 0.984 . S
N507 H511 0.985 . S
H508 N503 0.984 . S
H509 N503 0.985 . S
H510 N507 0.984 . S
H511 N507 0.985 . S
H512 N506 0.984 . S
H513 N506 0.984 . S
H514 N502 0.984 . S
H515 N502 0.985 . S
C516 C517 1.363 . S
C516 C522 1.379 . S
C516 N524 1.356 . S
C517 C516 1.363 . S
C517 C523 1.363 . S
C518 C519 1.363 . S
C518 C523 1.379 . S
C518 N525 1.356 . S
C519 C518 1.363 . S
C519 C522 1.363 . S
N520 C522 1.356 . S
N520 H532 0.984 . S
N520 H533 0.985 . S
N521 C523 1.356 . S
N521 H526 0.984 . S
N521 H527 0.985 . S
C522 C516 1.379 . S
C522 C519 1.363 . S
C522 N520 1.356 . S
C523 C517 1.363 . S
C523 C518 1.379 . S
C523 N521 1.356 . S
N524 C516 1.356 . S
N524 H530 0.984 . S
N524 H531 0.984 . S
N525 C518 1.356 . S
N525 H528 0.984 . S
N525 H529 0.985 . S
H526 N521 0.984 . S
H527 N521 0.985 . S
H528 N525 0.984 . S
H529 N525 0.985 . S
H530 N524 0.984 . S
H531 N524 0.984 . S
H532 N520 0.984 . S
H533 N520 0.985 . S
C534 C535 1.363 . S
C534 C540 1.379 . S
C534 N542 1.356 . S
C535 C534 1.363 . S
C535 C541 1.363 . S
C536 C537 1.363 . S
C536 C541 1.379 . S
C536 N543 1.356 . S
C537 C536 1.363 . S
C537 C540 1.363 . S
N538 C540 1.356 . S
N538 H550 0.984 . S
N538 H551 0.985 . S
N539 C541 1.356 . S
N539 H544 0.984 . S
N539 H545 0.985 . S
C540 C534 1.379 . S
C540 C537 1.363 . S
C540 N538 1.356 . S
C541 C535 1.363 . S
C541 C536 1.379 . S
C541 N539 1.356 . S
N542 C534 1.356 . S
N542 H548 0.984 . S
N542 H549 0.984 . S
N543 C536 1.356 . S
N543 H546 0.984 . S
N543 H547 0.985 . S
H544 N539 0.984 . S
H545 N539 0.985 . S
H546 N543 0.984 . S
H547 N543 0.985 . S
H548 N542 0.984 . S
H549 N542 0.984 . S
H550 N538 0.984 . S
H551 N538 0.985 . S
C552 C553 1.363 . S
C552 C558 1.379 . S
C552 N560 1.356 . S
C553 C552 1.363 . S
C553 C559 1.363 . S
C554 C555 1.363 . S
C554 C559 1.379 . S
C554 N561 1.356 . S
C555 C554 1.363 . S
C555 C558 1.363 . S
N556 C558 1.356 . S
N556 H568 0.984 . S
N556 H569 0.985 . S
N557 C559 1.356 . S
N557 H562 0.984 . S
N557 H563 0.985 . S
C558 C552 1.379 . S
C558 C555 1.363 . S
C558 N556 1.356 . S
C559 C553 1.363 . S
C559 C554 1.379 . S
C559 N557 1.356 . S
N560 C552 1.356 . S
N560 H566 0.984 . S
N560 H567 0.984 . S
N561 C554 1.356 . S
N561 H564 0.984 . S
N561 H565 0.985 . S
H562 N557 0.984 . S
H563 N557 0.985 . S
H564 N561 0.984 . S
H565 N561 0.985 . S
H566 N560 0.984 . S
H567 N560 0.984 . S
H568 N556 0.984 . S
H569 N556 0.985 . S
C570 C571 1.363 . S
C570 C576 1.379 . S
C570 N578 1.356 . S
C571 C570 1.363 . S
C571 C577 1.363 . S
C572 C573 1.363 . S
C572 C577 1.379 . S
C572 N579 1.356 . S
C573 C572 1.363 . S
C573 C576 1.363 . S
N574 C576 1.356 . S
N574 H586 0.984 . S
N574 H587 0.985 . S
N575 C577 1.356 . S
N575 H580 0.984 . S
N575 H581 0.985 . S
C576 C570 1.379 . S
C576 C573 1.363 . S
C576 N574 1.356 . S
C577 C571 1.363 . S
C577 C572 1.379 . S
C577 N575 1.356 . S
N578 C570 1.356 . S
N578 H584 0.984 . S
N578 H585 0.984 . S
N579 C572 1.356 . S
N579 H582 0.984 . S
N579 H583 0.985 . S
H580 N575 0.984 . S
H581 N575 0.985 . S
H582 N579 0.984 . S
H583 N579 0.985 . S
H584 N578 0.984 . S
H585 N578 0.984 . S
H586 N574 0.984 . S
H587 N574 0.985 . S
C588 C589 1.363 . S
C588 C594 1.379 . S
C588 N596 1.356 . S
C589 C588 1.363 . S
C589 C595 1.363 . S
C590 C591 1.363 . S
C590 C595 1.379 . S
C590 N597 1.356 . S
C591 C590 1.363 . S
C591 C594 1.363 . S
N592 C594 1.356 . S
N592 H604 0.984 . S
N592 H605 0.985 . S
N593 C595 1.356 . S
N593 H598 0.984 . S
N593 H599 0.985 . S
C594 C588 1.379 . S
C594 C591 1.363 . S
C594 N592 1.356 . S
C595 C589 1.363 . S
C595 C590 1.379 . S
C595 N593 1.356 . S
N596 C588 1.356 . S
N596 H602 0.984 . S
N596 H603 0.984 . S
N597 C590 1.356 . S
N597 H600 0.984 . S
N597 H601 0.985 . S
H598 N593 0.984 . S
H599 N593 0.985 . S
H600 N597 0.984 . S
H601 N597 0.985 . S
H602 N596 0.984 . S
H603 N596 0.984 . S
H604 N592 0.984 . S
H605 N592 0.985 . S
C606 C607 1.363 . S
C606 C612 1.379 . S
C606 N614 1.356 . S
C607 C606 1.363 . S
C607 C613 1.363 . S
C608 C609 1.363 . S
C608 C613 1.379 . S
C608 N615 1.356 . S
C609 C608 1.363 . S
C609 C612 1.363 . S
N610 C612 1.356 . S
N610 H622 0.984 . S
N610 H623 0.985 . S
N611 C613 1.356 . S
N611 H616 0.984 . S
N611 H617 0.985 . S
C612 C606 1.379 . S
C612 C609 1.363 . S
C612 N610 1.356 . S
C613 C607 1.363 . S
C613 C608 1.379 . S
C613 N611 1.356 . S
N614 C606 1.356 . S
N614 H620 0.984 . S
N614 H621 0.984 . S
N615 C608 1.356 . S
N615 H618 0.984 . S
N615 H619 0.985 . S
H616 N611 0.984 . S
H617 N611 0.985 . S
H618 N615 0.984 . S
H619 N615 0.985 . S
H620 N614 0.984 . S
H621 N614 0.984 . S
H622 N610 0.984 . S
H623 N610 0.985 . S
C624 C625 1.363 . S
C624 C630 1.379 . S
C624 N632 1.356 . S
C625 C624 1.363 . S
C625 C631 1.363 . S
C626 C627 1.363 . S
C626 C631 1.379 . S
C626 N633 1.356 . S
C627 C626 1.363 . S
C627 C630 1.363 . S
N628 C630 1.356 . S
N628 H640 0.984 . S
N628 H641 0.985 . S
N629 C631 1.356 . S
N629 H634 0.984 . S
N629 H635 0.985 . S
C630 C624 1.379 . S
C630 C627 1.363 . S
C630 N628 1.356 . S
C631 C625 1.363 . S
C631 C626 1.379 . S
C631 N629 1.356 . S
N632 C624 1.356 . S
N632 H638 0.984 . S
N632 H639 0.984 . S
N633 C626 1.356 . S
N633 H636 0.984 . S
N633 H637 0.985 . S
H634 N629 0.984 . S
H635 N629 0.985 . S
H636 N633 0.984 . S
H637 N633 0.985 . S
H638 N632 0.984 . S
H639 N632 0.984 . S
H640 N628 0.984 . S
H641 N628 0.985 . S
C642 C643 1.363 . S
C642 C648 1.379 . S
C642 N650 1.356 . S
C643 C642 1.363 . S
C643 C649 1.363 . S
C644 C645 1.363 . S
C644 C649 1.379 . S
C644 N651 1.356 . S
C645 C644 1.363 . S
C645 C648 1.363 . S
N646 C648 1.356 . S
N646 H658 0.984 . S
N646 H659 0.985 . S
N647 C649 1.356 . S
N647 H652 0.984 . S
N647 H653 0.985 . S
C648 C642 1.379 . S
C648 C645 1.363 . S
C648 N646 1.356 . S
C649 C643 1.363 . S
C649 C644 1.379 . S
C649 N647 1.356 . S
N650 C642 1.356 . S
N650 H656 0.984 . S
N650 H657 0.984 . S
N651 C644 1.356 . S
N651 H654 0.984 . S
N651 H655 0.985 . S
H652 N647 0.984 . S
H653 N647 0.985 . S
H654 N651 0.984 . S
H655 N651 0.985 . S
H656 N650 0.984 . S
H657 N650 0.984 . S
H658 N646 0.984 . S
H659 N646 0.985 . S
C660 C661 1.363 . S
C660 C666 1.379 . S
C660 N668 1.356 . S
C661 C660 1.363 . S
C661 C667 1.363 . S
C662 C663 1.363 . S
C662 C667 1.379 . S
C662 N669 1.356 . S
C663 C662 1.363 . S
C663 C666 1.363 . S
N664 C666 1.356 . S
N664 H676 0.984 . S
N664 H677 0.985 . S
N665 C667 1.356 . S
N665 H670 0.984 . S
N665 H671 0.985 . S
C666 C660 1.379 . S
C666 C663 1.363 . S
C666 N664 1.356 . S
C667 C661 1.363 . S
C667 C662 1.379 . S
C667 N665 1.356 . S
N668 C660 1.356 . S
N668 H674 0.984 . S
N668 H675 0.984 . S
N669 C662 1.356 . S
N669 H672 0.984 . S
N669 H673 0.985 . S
H670 N665 0.984 . S
H671 N665 0.985 . S
H672 N669 0.984 . S
H673 N669 0.985 . S
H674 N668 0.984 . S
H675 N668 0.984 . S
H676 N664 0.984 . S
H677 N664 0.985 . S
C678 C679 1.363 . S
C678 C684 1.379 . S
C678 N686 1.356 . S
C679 C678 1.363 . S
C679 C685 1.363 . S
C680 C681 1.363 . S
C680 C685 1.379 . S
C680 N687 1.356 . S
C681 C680 1.363 . S
C681 C684 1.363 . S
N682 C684 1.356 . S
N682 H694 0.984 . S
N682 H695 0.985 . S
N683 C685 1.356 . S
N683 H688 0.984 . S
N683 H689 0.985 . S
C684 C678 1.379 . S
C684 C681 1.363 . S
C684 N682 1.356 . S
C685 C679 1.363 . S
C685 C680 1.379 . S
C685 N683 1.356 . S
N686 C678 1.356 . S
N686 H692 0.984 . S
N686 H693 0.984 . S
N687 C680 1.356 . S
N687 H690 0.984 . S
N687 H691 0.985 . S
H688 N683 0.984 . S
H689 N683 0.985 . S
H690 N687 0.984 . S
H691 N687 0.985 . S
H692 N686 0.984 . S
H693 N686 0.984 . S
H694 N682 0.984 . S
H695 N682 0.985 . S
C696 C697 1.363 . S
C696 C702 1.379 . S
C696 N704 1.356 . S
C697 C696 1.363 . S
C697 C703 1.363 . S
C698 C699 1.363 . S
C698 C703 1.379 . S
C698 N705 1.356 . S
C699 C698 1.363 . S
C699 C702 1.363 . S
N700 C702 1.356 . S
N700 H712 0.984 . S
N700 H713 0.985 . S
N701 C703 1.356 . S
N701 H706 0.984 . S
N701 H707 0.985 . S
C702 C696 1.379 . S
C702 C699 1.363 . S
C702 N700 1.356 . S
C703 C697 1.363 . S
C703 C698 1.379 . S
C703 N701 1.356 . S
N704 C696 1.356 . S
N704 H710 0.984 . S
N704 H711 0.984 . S
N705 C698 1.356 . S
N705 H708 0.984 . S
N705 H709 0.985 . S
H706 N701 0.984 . S
H707 N701 0.985 . S
H708 N705 0.984 . S
H709 N705 0.985 . S
H710 N704 0.984 . S
H711 N704 0.984 . S
H712 N700 0.984 . S
H713 N700 0.985 . S
C714 C715 1.363 . S
C714 C720 1.379 . S
C714 N722 1.356 . S
C715 C714 1.363 . S
C715 C721 1.363 . S
C716 C717 1.363 . S
C716 C721 1.379 . S
C716 N723 1.356 . S
C717 C716 1.363 . S
C717 C720 1.363 . S
N718 C720 1.356 . S
N718 H730 0.984 . S
N718 H731 0.985 . S
N719 C721 1.356 . S
N719 H724 0.984 . S
N719 H725 0.985 . S
C720 C714 1.379 . S
C720 C717 1.363 . S
C720 N718 1.356 . S
C721 C715 1.363 . S
C721 C716 1.379 . S
C721 N719 1.356 . S
N722 C714 1.356 . S
N722 H728 0.984 . S
N722 H729 0.984 . S
N723 C716 1.356 . S
N723 H726 0.984 . S
N723 H727 0.985 . S
H724 N719 0.984 . S
H725 N719 0.985 . S
H726 N723 0.984 . S
H727 N723 0.985 . S
H728 N722 0.984 . S
H729 N722 0.984 . S
H730 N718 0.984 . S
H731 N718 0.985 . S
C732 C733 1.363 . S
C732 C738 1.379 . S
C732 N740 1.356 . S
C733 C732 1.363 . S
C733 C739 1.363 . S
C734 C735 1.363 . S
C734 C739 1.379 . S
C734 N741 1.356 . S
C735 C734 1.363 . S
C735 C738 1.363 . S
N736 C738 1.356 . S
N736 H748 0.984 . S
N736 H749 0.985 . S
N737 C739 1.356 . S
N737 H742 0.984 . S
N737 H743 0.985 . S
C738 C732 1.379 . S
C738 C735 1.363 . S
C738 N736 1.356 . S
C739 C733 1.363 . S
C739 C734 1.379 . S
C739 N737 1.356 . S
N740 C732 1.356 . S
N740 H746 0.984 . S
N740 H747 0.984 . S
N741 C734 1.356 . S
N741 H744 0.984 . S
N741 H745 0.985 . S
H742 N737 0.984 . S
H743 N737 0.985 . S
H744 N741 0.984 . S
H745 N741 0.985 . S
H746 N740 0.984 . S
H747 N740 0.984 . S
H748 N736 0.984 . S
H749 N736 0.985 . S
C750 C751 1.363 . S
C750 C756 1.379 . S
C750 N758 1.356 . S
C751 C750 1.363 . S
C751 C757 1.363 . S
C752 C753 1.363 . S
C752 C757 1.379 . S
C752 N759 1.356 . S
C753 C752 1.363 . S
C753 C756 1.363 . S
N754 C756 1.356 . S
N754 H766 0.984 . S
N754 H767 0.985 . S
N755 C757 1.356 . S
N755 H760 0.984 . S
N755 H761 0.985 . S
C756 C750 1.379 . S
C756 C753 1.363 . S
C756 N754 1.356 . S
C757 C751 1.363 . S
C757 C752 1.379 . S
C757 N755 1.356 . S
N758 C750 1.356 . S
N758 H764 0.984 . S
N758 H765 0.984 . S
N759 C752 1.356 . S
N759 H762 0.984 . S
N759 H763 0.985 . S
H760 N755 0.984 . S
H761 N755 0.985 . S
H762 N759 0.984 . S
H763 N759 0.985 . S
H764 N758 0.984 . S
H765 N758 0.984 . S
H766 N754 0.984 . S
H767 N754 0.985 . S
C768 C769 1.363 . S
C768 C774 1.379 . S
C768 N776 1.356 . S
C769 C768 1.363 . S
C769 C775 1.363 . S
C770 C771 1.363 . S
C770 C775 1.379 . S
C770 N777 1.356 . S
C771 C770 1.363 . S
C771 C774 1.363 . S
N772 C774 1.356 . S
N772 H784 0.984 . S
N772 H785 0.985 . S
N773 C775 1.356 . S
N773 H778 0.984 . S
N773 H779 0.985 . S
C774 C768 1.379 . S
C774 C771 1.363 . S
C774 N772 1.356 . S
C775 C769 1.363 . S
C775 C770 1.379 . S
C775 N773 1.356 . S
N776 C768 1.356 . S
N776 H782 0.984 . S
N776 H783 0.984 . S
N777 C770 1.356 . S
N777 H780 0.984 . S
N777 H781 0.985 . S
H778 N773 0.984 . S
H779 N773 0.985 . S
H780 N777 0.984 . S
H781 N777 0.985 . S
H782 N776 0.984 . S
H783 N776 0.984 . S
H784 N772 0.984 . S
H785 N772 0.985 . S
C786 C787 1.363 . S
C786 C792 1.379 . S
C786 N794 1.356 . S
C787 C786 1.363 . S
C787 C793 1.363 . S
C788 C789 1.363 . S
C788 C793 1.379 . S
C788 N795 1.356 . S
C789 C788 1.363 . S
C789 C792 1.363 . S
N790 C792 1.356 . S
N790 H802 0.984 . S
N790 H803 0.985 . S
N791 C793 1.356 . S
N791 H796 0.984 . S
N791 H797 0.985 . S
C792 C786 1.379 . S
C792 C789 1.363 . S
C792 N790 1.356 . S
C793 C787 1.363 . S
C793 C788 1.379 . S
C793 N791 1.356 . S
N794 C786 1.356 . S
N794 H800 0.984 . S
N794 H801 0.984 . S
N795 C788 1.356 . S
N795 H798 0.984 . S
N795 H799 0.985 . S
H796 N791 0.984 . S
H797 N791 0.985 . S
H798 N795 0.984 . S
H799 N795 0.985 . S
H800 N794 0.984 . S
H801 N794 0.984 . S
H802 N790 0.984 . S
H803 N790 0.985 . S
C804 C805 1.363 . S
C804 C810 1.379 1_565 S
C804 N812 1.356 . S
C805 C804 1.363 . S
C805 C811 1.363 . S
C806 C807 1.363 . S
C806 C811 1.379 1_545 S
C806 N813 1.356 . S
C807 C806 1.363 . S
C807 C810 1.363 . S
N808 C810 1.356 . S
N808 H820 0.984 . S
N808 H821 0.985 . S
N809 C811 1.356 . S
N809 H814 0.984 . S
N809 H815 0.985 . S
C810 C804 1.379 1_545 S
C810 C807 1.363 . S
C810 N808 1.356 . S
C811 C805 1.363 . S
C811 C806 1.379 1_565 S
C811 N809 1.356 . S
N812 C804 1.356 . S
N812 H818 0.984 . S
N812 H819 0.984 . S
N813 C806 1.356 . S
N813 H816 0.984 . S
N813 H817 0.985 . S
H814 N809 0.984 . S
H815 N809 0.985 . S
H816 N813 0.984 . S
H817 N813 0.985 . S
H818 N812 0.984 . S
H819 N812 0.984 . S
H820 N808 0.984 . S
H821 N808 0.985 . S
C822 C823 1.363 . S
C822 C828 1.379 1_455 S
C822 N830 1.356 . S
C823 C822 1.363 . S
C823 C829 1.363 . S
C824 C825 1.363 . S
C824 C829 1.379 1_655 S
C824 N831 1.356 . S
C825 C824 1.363 . S
C825 C828 1.363 . S
N826 C828 1.356 . S
N826 H838 0.984 . S
N826 H839 0.985 . S
N827 C829 1.356 . S
N827 H832 0.984 . S
N827 H833 0.985 . S
C828 C822 1.379 1_655 S
C828 C825 1.363 . S
C828 N826 1.356 . S
C829 C823 1.363 . S
C829 C824 1.379 1_455 S
C829 N827 1.356 . S
N830 C822 1.356 . S
N830 H836 0.984 . S
N830 H837 0.984 . S
N831 C824 1.356 . S
N831 H834 0.984 . S
N831 H835 0.985 . S
H832 N827 0.984 . S
H833 N827 0.985 . S
H834 N831 0.984 . S
H835 N831 0.985 . S
H836 N830 0.984 . S
H837 N830 0.984 . S
H838 N826 0.984 . S
H839 N826 0.985 . S
C840 C841 1.363 . S
C840 C846 1.379 1_565 S
C840 N848 1.356 . S
C841 C840 1.363 . S
C841 C847 1.363 . S
C842 C843 1.363 . S
C842 C847 1.379 1_545 S
C842 N849 1.356 . S
C843 C842 1.363 . S
C843 C846 1.363 . S
N844 C846 1.356 . S
N844 H856 0.984 . S
N844 H857 0.985 . S
N845 C847 1.356 . S
N845 H850 0.984 . S
N845 H851 0.985 . S
C846 C840 1.379 1_545 S
C846 C843 1.363 . S
C846 N844 1.356 . S
C847 C841 1.363 . S
C847 C842 1.379 1_565 S
C847 N845 1.356 . S
N848 C840 1.356 . S
N848 H854 0.984 . S
N848 H855 0.984 . S
N849 C842 1.356 . S
N849 H852 0.984 . S
N849 H853 0.985 . S
H850 N845 0.984 . S
H851 N845 0.985 . S
H852 N849 0.984 . S
H853 N849 0.985 . S
H854 N848 0.984 . S
H855 N848 0.984 . S
H856 N844 0.984 . S
H857 N844 0.985 . S
C858 C859 1.363 . S
C858 C864 1.379 1_655 S
C858 N866 1.356 . S
C859 C858 1.363 . S
C859 C865 1.363 . S
C860 C861 1.363 . S
C860 C865 1.379 1_455 S
C860 N867 1.356 . S
C861 C860 1.363 . S
C861 C864 1.363 . S
N862 C864 1.356 . S
N862 H874 0.984 . S
N862 H875 0.985 . S
N863 C865 1.356 . S
N863 H868 0.984 . S
N863 H869 0.985 . S
C864 C858 1.379 1_455 S
C864 C861 1.363 . S
C864 N862 1.356 . S
C865 C859 1.363 . S
C865 C860 1.379 1_655 S
C865 N863 1.356 . S
N866 C858 1.356 . S
N866 H872 0.984 . S
N866 H873 0.984 . S
N867 C860 1.356 . S
N867 H870 0.984 . S
N867 H871 0.985 . S
H868 N863 0.984 . S
H869 N863 0.985 . S
H870 N867 0.984 . S
H871 N867 0.985 . S
H872 N866 0.984 . S
H873 N866 0.984 . S
H874 N862 0.984 . S
H875 N862 0.985 . S
C876 C877 1.363 . S
C876 C882 1.379 . S
C876 N884 1.356 . S
C877 C876 1.363 . S
C877 C883 1.363 . S
C878 C879 1.363 . S
C878 C883 1.379 . S
C878 N885 1.356 . S
C879 C878 1.363 . S
C879 C882 1.363 . S
N880 C882 1.356 . S
N880 H892 0.984 . S
N880 H893 0.985 . S
N881 C883 1.356 . S
N881 H886 0.984 . S
N881 H887 0.985 . S
C882 C876 1.379 . S
C882 C879 1.363 . S
C882 N880 1.356 . S
C883 C877 1.363 . S
C883 C878 1.379 . S
C883 N881 1.356 . S
N884 C876 1.356 . S
N884 H890 0.984 . S
N884 H891 0.984 . S
N885 C878 1.356 . S
N885 H888 0.984 . S
N885 H889 0.985 . S
H886 N881 0.984 . S
H887 N881 0.985 . S
H888 N885 0.984 . S
H889 N885 0.985 . S
H890 N884 0.984 . S
H891 N884 0.984 . S
H892 N880 0.984 . S
H893 N880 0.985 . S
C894 C895 1.363 . S
C894 C900 1.379 . S
C894 N902 1.356 . S
C895 C894 1.363 . S
C895 C901 1.363 . S
C896 C897 1.363 . S
C896 C901 1.379 . S
C896 N903 1.356 . S
C897 C896 1.363 . S
C897 C900 1.363 . S
N898 C900 1.356 . S
N898 H910 0.984 . S
N898 H911 0.985 . S
N899 C901 1.356 . S
N899 H904 0.984 . S
N899 H905 0.985 . S
C900 C894 1.379 . S
C900 C897 1.363 . S
C900 N898 1.356 . S
C901 C895 1.363 . S
C901 C896 1.379 . S
C901 N899 1.356 . S
N902 C894 1.356 . S
N902 H908 0.984 . S
N902 H909 0.984 . S
N903 C896 1.356 . S
N903 H906 0.984 . S
N903 H907 0.985 . S
H904 N899 0.984 . S
H905 N899 0.985 . S
H906 N903 0.984 . S
H907 N903 0.985 . S
H908 N902 0.984 . S
H909 N902 0.984 . S
H910 N898 0.984 . S
H911 N898 0.985 . S
C912 C913 1.363 . S
C912 C918 1.379 . S
C912 N920 1.356 . S
C913 C912 1.363 . S
C913 C919 1.363 . S
C914 C915 1.363 . S
C914 C919 1.379 . S
C914 N921 1.356 . S
C915 C914 1.363 . S
C915 C918 1.363 . S
N916 C918 1.356 . S
N916 H928 0.984 . S
N916 H929 0.985 . S
N917 C919 1.356 . S
N917 H922 0.984 . S
N917 H923 0.985 . S
C918 C912 1.379 . S
C918 C915 1.363 . S
C918 N916 1.356 . S
C919 C913 1.363 . S
C919 C914 1.379 . S
C919 N917 1.356 . S
N920 C912 1.356 . S
N920 H926 0.984 . S
N920 H927 0.984 . S
N921 C914 1.356 . S
N921 H924 0.984 . S
N921 H925 0.985 . S
H922 N917 0.984 . S
H923 N917 0.985 . S
H924 N921 0.984 . S
H925 N921 0.985 . S
H926 N920 0.984 . S
H927 N920 0.984 . S
H928 N916 0.984 . S
H929 N916 0.985 . S
C930 C931 1.363 . S
C930 C936 1.379 1_554 S
C930 N938 1.356 . S
C931 C930 1.363 . S
C931 C937 1.363 . S
C932 C933 1.363 . S
C932 C937 1.379 1_556 S
C932 N939 1.356 . S
C933 C932 1.363 . S
C933 C936 1.363 . S
N934 C936 1.356 . S
N934 H946 0.984 . S
N934 H947 0.985 . S
N935 C937 1.356 . S
N935 H940 0.984 . S
N935 H941 0.985 . S
C936 C930 1.379 1_556 S
C936 C933 1.363 . S
C936 N934 1.356 . S
C937 C931 1.363 . S
C937 C932 1.379 1_554 S
C937 N935 1.356 . S
N938 C930 1.356 . S
N938 H944 0.984 . S
N938 H945 0.984 . S
N939 C932 1.356 . S
N939 H942 0.984 . S
N939 H943 0.985 . S
H940 N935 0.984 . S
H941 N935 0.985 . S
H942 N939 0.984 . S
H943 N939 0.985 . S
H944 N938 0.984 . S
H945 N938 0.984 . S
H946 N934 0.984 . S
H947 N934 0.985 . S
C948 C949 1.363 . S
C948 C954 1.379 . S
C948 N956 1.356 . S
C949 C948 1.363 . S
C949 C955 1.363 . S
C950 C951 1.363 . S
C950 C955 1.379 . S
C950 N957 1.356 . S
C951 C950 1.363 . S
C951 C954 1.363 . S
N952 C954 1.356 . S
N952 H964 0.984 . S
N952 H965 0.985 . S
N953 C955 1.356 . S
N953 H958 0.984 . S
N953 H959 0.985 . S
C954 C948 1.379 . S
C954 C951 1.363 . S
C954 N952 1.356 . S
C955 C949 1.363 . S
C955 C950 1.379 . S
C955 N953 1.356 . S
N956 C948 1.356 . S
N956 H962 0.984 . S
N956 H963 0.984 . S
N957 C950 1.356 . S
N957 H960 0.984 . S
N957 H961 0.985 . S
H958 N953 0.984 . S
H959 N953 0.985 . S
H960 N957 0.984 . S
H961 N957 0.985 . S
H962 N956 0.984 . S
H963 N956 0.984 . S
H964 N952 0.984 . S
H965 N952 0.985 . S
C966 C967 1.363 . S
C966 C972 1.379 1_556 S
C966 N974 1.356 . S
C967 C966 1.363 . S
C967 C973 1.363 . S
C968 C969 1.363 . S
C968 C973 1.379 1_554 S
C968 N975 1.356 . S
C969 C968 1.363 . S
C969 C972 1.363 . S
N970 C972 1.356 . S
N970 H982 0.984 . S
N970 H983 0.985 . S
N971 C973 1.356 . S
N971 H976 0.984 . S
N971 H977 0.985 . S
C972 C966 1.379 1_554 S
C972 C969 1.363 . S
C972 N970 1.356 . S
C973 C967 1.363 . S
C973 C968 1.379 1_556 S
C973 N971 1.356 . S
N974 C966 1.356 . S
N974 H980 0.964 1_556 S
N974 H981 0.984 . S
N975 C968 1.356 . S
N975 H978 0.984 . S
N975 H979 0.964 1_554 S
H976 N971 0.984 . S
H977 N971 0.985 . S
H978 N975 0.984 . S
H979 N975 0.964 1_556 S
H980 N974 0.964 1_554 S
H981 N974 0.984 . S
H982 N970 0.984 . S
H983 N970 0.985 . S
C984 C985 1.363 . S
C984 C990 1.379 . S
C984 N992 1.356 . S
C985 C984 1.363 . S
C985 C991 1.363 . S
C986 C987 1.363 . S
C986 C991 1.379 . S
C986 N993 1.356 . S
C987 C986 1.363 . S
C987 C990 1.363 . S
N988 C990 1.356 . S
N988 H1000 0.984 . S
N988 H1001 0.985 . S
N989 C991 1.356 . S
N989 H994 0.984 . S
N989 H995 0.985 . S
C990 C984 1.379 . S
C990 C987 1.363 . S
C990 N988 1.356 . S
C991 C985 1.363 . S
C991 C986 1.379 . S
C991 N989 1.356 . S
N992 C984 1.356 . S
N992 H998 0.984 . S
N992 H999 0.984 . S
N993 C986 1.356 . S
N993 H996 0.984 . S
N993 H997 0.985 . S
H994 N989 0.984 . S
H995 N989 0.985 . S
H996 N993 0.984 . S
H997 N993 0.985 . S
H998 N992 0.984 . S
H999 N992 0.984 . S
H1000 N988 0.984 . S
H1001 N988 0.985 . S
C1002 C1003 1.363 . S
C1002 C1008 1.379 . S
C1002 N1010 1.356 . S
C1003 C1002 1.363 . S
C1003 C1009 1.363 . S
C1004 C1005 1.363 . S
C1004 C1009 1.379 . S
C1004 N1011 1.356 . S
C1005 C1004 1.363 . S
C1005 C1008 1.363 . S
N1006 C1008 1.356 . S
N1006 H1018 0.984 . S
N1006 H1019 0.985 . S
N1007 C1009 1.356 . S
N1007 H1012 0.984 . S
N1007 H1013 0.985 . S
C1008 C1002 1.379 . S
C1008 C1005 1.363 . S
C1008 N1006 1.356 . S
C1009 C1003 1.363 . S
C1009 C1004 1.379 . S
C1009 N1007 1.356 . S
N1010 C1002 1.356 . S
N1010 H1016 0.984 . S
N1010 H1017 0.984 . S
N1011 C1004 1.356 . S
N1011 H1014 0.984 . S
N1011 H1015 0.985 . S
H1012 N1007 0.984 . S
H1013 N1007 0.985 . S
H1014 N1011 0.984 . S
H1015 N1011 0.985 . S
H1016 N1010 0.984 . S
H1017 N1010 0.984 . S
H1018 N1006 0.984 . S
H1019 N1006 0.985 . S
C1020 C1021 1.363 . S
C1020 C1026 1.379 1_545 S
C1020 N1028 1.356 . S
C1021 C1020 1.363 . S
C1021 C1027 1.363 . S
C1022 C1023 1.363 . S
C1022 C1027 1.379 1_565 S
C1022 N1029 1.356 . S
C1023 C1022 1.363 . S
C1023 C1026 1.363 . S
N1024 C1026 1.356 . S
N1024 H1036 0.984 . S
N1024 H1037 0.985 . S
N1025 C1027 1.356 . S
N1025 H1030 0.984 . S
N1025 H1031 0.985 . S
C1026 C1020 1.379 1_565 S
C1026 C1023 1.363 . S
C1026 N1024 1.356 . S
C1027 C1021 1.363 . S
C1027 C1022 1.379 1_545 S
C1027 N1025 1.356 . S
N1028 C1020 1.356 . S
N1028 H1034 0.984 1_545 S
N1028 H1035 0.984 . S
N1029 C1022 1.356 . S
N1029 H1032 0.984 . S
N1029 H1033 0.985 1_565 S
H1030 N1025 0.984 . S
H1031 N1025 0.985 . S
H1032 N1029 0.984 . S
H1033 N1029 0.985 1_545 S
H1034 N1028 0.984 1_565 S
H1035 N1028 0.984 . S
H1036 N1024 0.984 . S
H1037 N1024 0.985 . S
C1038 C1039 1.363 . S
C1038 C1044 1.379 1_455 S
C1038 N1046 1.356 . S
C1039 C1038 1.363 . S
C1039 C1045 1.363 . S
C1040 C1041 1.363 . S
C1040 C1045 1.379 1_655 S
C1040 N1047 1.356 . S
C1041 C1040 1.363 . S
C1041 C1044 1.363 . S
N1042 C1044 1.356 . S
N1042 H1054 0.984 . S
N1042 H1055 0.985 . S
N1043 C1045 1.356 . S
N1043 H1048 0.984 . S
N1043 H1049 0.985 . S
C1044 C1038 1.379 1_655 S
C1044 C1041 1.363 . S
C1044 N1042 1.356 . S
C1045 C1039 1.363 . S
C1045 C1040 1.379 1_455 S
C1045 N1043 1.356 . S
N1046 C1038 1.356 . S
N1046 H1052 0.984 . S
N1046 H1053 0.984 . S
N1047 C1040 1.356 . S
N1047 H1050 0.984 . S
N1047 H1051 0.985 . S
H1048 N1043 0.984 . S
H1049 N1043 0.985 . S
H1050 N1047 0.984 . S
H1051 N1047 0.985 . S
H1052 N1046 0.984 . S
H1053 N1046 0.984 . S
H1054 N1042 0.984 . S
H1055 N1042 0.985 . S
C1056 C1057 1.363 . S
C1056 C1062 1.379 1_545 S
C1056 N1064 1.356 . S
C1057 C1056 1.363 . S
C1057 C1063 1.363 . S
C1058 C1059 1.363 . S
C1058 C1063 1.379 1_565 S
C1058 N1065 1.356 . S
C1059 C1058 1.363 . S
C1059 C1062 1.363 . S
N1060 C1062 1.356 . S
N1060 H1072 0.984 . S
N1060 H1073 0.985 . S
N1061 C1063 1.356 . S
N1061 H1066 0.984 . S
N1061 H1067 0.985 . S
C1062 C1056 1.379 1_565 S
C1062 C1059 1.363 . S
C1062 N1060 1.356 . S
C1063 C1057 1.363 . S
C1063 C1058 1.379 1_545 S
C1063 N1061 1.356 . S
N1064 C1056 1.356 . S
N1064 H1070 0.964 1_545 S
N1064 H1071 0.984 . S
N1065 C1058 1.356 . S
N1065 H1068 0.984 . S
N1065 H1069 0.964 1_565 S
H1066 N1061 0.984 . S
H1067 N1061 0.985 . S
H1068 N1065 0.984 . S
H1069 N1065 0.964 1_545 S
H1070 N1064 0.964 1_565 S
H1071 N1064 0.984 . S
H1072 N1060 0.984 . S
H1073 N1060 0.985 . S
C1074 C1075 1.363 . S
C1074 C1080 1.379 1_455 S
C1074 N1082 1.356 . S
C1075 C1074 1.363 . S
C1075 C1081 1.363 . S
C1076 C1077 1.363 . S
C1076 C1081 1.379 1_655 S
C1076 N1083 1.356 . S
C1077 C1076 1.363 . S
C1077 C1080 1.363 . S
N1078 C1080 1.356 . S
N1078 H1090 0.984 . S
N1078 H1091 0.985 . S
N1079 C1081 1.356 . S
N1079 H1084 0.984 . S
N1079 H1085 0.985 . S
C1080 C1074 1.379 1_655 S
C1080 C1077 1.363 . S
C1080 N1078 1.356 . S
C1081 C1075 1.363 . S
C1081 C1076 1.379 1_455 S
C1081 N1079 1.356 . S
N1082 C1074 1.356 . S
N1082 H1088 0.984 . S
N1082 H1089 0.984 . S
N1083 C1076 1.356 . S
N1083 H1086 0.984 . S
N1083 H1087 0.985 . S
H1084 N1079 0.984 . S
H1085 N1079 0.985 . S
H1086 N1083 0.984 . S
H1087 N1083 0.985 . S
H1088 N1082 0.984 . S
H1089 N1082 0.984 . S
H1090 N1078 0.984 . S
H1091 N1078 0.985 . S
C1092 C1093 1.363 . S
C1092 C1098 1.379 . S
C1092 N1100 1.356 . S
C1093 C1092 1.363 . S
C1093 C1099 1.363 . S
C1094 C1095 1.363 . S
C1094 C1099 1.379 . S
C1094 N1101 1.356 . S
C1095 C1094 1.363 . S
C1095 C1098 1.363 . S
N1096 C1098 1.356 . S
N1096 H1108 0.984 . S
N1096 H1109 0.985 . S
N1097 C1099 1.356 . S
N1097 H1102 0.984 . S
N1097 H1103 0.985 . S
C1098 C1092 1.379 . S
C1098 C1095 1.363 . S
C1098 N1096 1.356 . S
C1099 C1093 1.363 . S
C1099 C1094 1.379 . S
C1099 N1097 1.356 . S
N1100 C1092 1.356 . S
N1100 H1106 0.984 . S
N1100 H1107 0.984 . S
N1101 C1094 1.356 . S
N1101 H1104 0.984 . S
N1101 H1105 0.985 . S
H1102 N1097 0.984 . S
H1103 N1097 0.985 . S
H1104 N1101 0.984 . S
H1105 N1101 0.985 . S
H1106 N1100 0.984 . S
H1107 N1100 0.984 . S
H1108 N1096 0.984 . S
H1109 N1096 0.985 . S
C1110 C1111 1.363 . S
C1110 C1116 1.379 . S
C1110 N1118 1.356 . S
C1111 C1110 1.363 . S
C1111 C1117 1.363 . S
C1112 C1113 1.363 . S
C1112 C1117 1.379 . S
C1112 N1119 1.356 . S
C1113 C1112 1.363 . S
C1113 C1116 1.363 . S
N1114 C1116 1.356 . S
N1114 H1126 0.984 . S
N1114 H1127 0.985 . S
N1115 C1117 1.356 . S
N1115 H1120 0.984 . S
N1115 H1121 0.985 . S
C1116 C1110 1.379 . S
C1116 C1113 1.363 . S
C1116 N1114 1.356 . S
C1117 C1111 1.363 . S
C1117 C1112 1.379 . S
C1117 N1115 1.356 . S
N1118 C1110 1.356 . S
N1118 H1124 0.984 . S
N1118 H1125 0.984 . S
N1119 C1112 1.356 . S
N1119 H1122 0.984 . S
N1119 H1123 0.985 . S
H1120 N1115 0.984 . S
H1121 N1115 0.985 . S
H1122 N1119 0.984 . S
H1123 N1119 0.985 . S
H1124 N1118 0.984 . S
H1125 N1118 0.984 . S
H1126 N1114 0.984 . S
H1127 N1114 0.985 . S
C1128 C1129 1.363 . S
C1128 C1134 1.379 . S
C1128 N1136 1.356 . S
C1129 C1128 1.363 . S
C1129 C1135 1.363 . S
C1130 C1131 1.363 . S
C1130 C1135 1.379 . S
C1130 N1137 1.356 . S
C1131 C1130 1.363 . S
C1131 C1134 1.363 . S
N1132 C1134 1.356 . S
N1132 H1144 0.984 . S
N1132 H1145 0.985 . S
N1133 C1135 1.356 . S
N1133 H1138 0.984 . S
N1133 H1139 0.985 . S
C1134 C1128 1.379 . S
C1134 C1131 1.363 . S
C1134 N1132 1.356 . S
C1135 C1129 1.363 . S
C1135 C1130 1.379 . S
C1135 N1133 1.356 . S
N1136 C1128 1.356 . S
N1136 H1142 0.984 . S
N1136 H1143 0.984 . S
N1137 C1130 1.356 . S
N1137 H1140 0.984 . S
N1137 H1141 0.985 . S
H1138 N1133 0.984 . S
H1139 N1133 0.985 . S
H1140 N1137 0.984 . S
H1141 N1137 0.985 . S
H1142 N1136 0.984 . S
H1143 N1136 0.984 . S
H1144 N1132 0.984 . S
H1145 N1132 0.985 . S
C1146 C1147 1.363 . S
C1146 C1152 1.379 1_554 S
C1146 N1154 1.356 . S
C1147 C1146 1.363 . S
C1147 C1153 1.363 . S
C1148 C1149 1.363 . S
C1148 C1153 1.379 1_556 S
C1148 N1155 1.356 . S
C1149 C1148 1.363 . S
C1149 C1152 1.363 . S
N1150 C1152 1.356 . S
N1150 H1162 0.984 . S
N1150 H1163 0.985 . S
N1151 C1153 1.356 . S
N1151 H1156 0.984 . S
N1151 H1157 0.985 . S
C1152 C1146 1.379 1_556 S
C1152 C1149 1.363 . S
C1152 N1150 1.356 . S
C1153 C1147 1.363 . S
C1153 C1148 1.379 1_554 S
C1153 N1151 1.356 . S
N1154 C1146 1.356 . S
N1154 H1160 0.984 . S
N1154 H1161 0.984 . S
N1155 C1148 1.356 . S
N1155 H1158 0.984 . S
N1155 H1159 0.985 . S
H1156 N1151 0.984 . S
H1157 N1151 0.985 . S
H1158 N1155 0.984 . S
H1159 N1155 0.985 . S
H1160 N1154 0.984 . S
H1161 N1154 0.984 . S
H1162 N1150 0.984 . S
H1163 N1150 0.985 . S
C1164 C1165 1.363 . S
C1164 C1170 1.379 . S
C1164 N1172 1.356 . S
C1165 C1164 1.363 . S
C1165 C1171 1.363 . S
C1166 C1167 1.363 . S
C1166 C1171 1.379 . S
C1166 N1173 1.356 . S
C1167 C1166 1.363 . S
C1167 C1170 1.363 . S
N1168 C1170 1.356 . S
N1168 H1180 0.984 . S
N1168 H1181 0.985 . S
N1169 C1171 1.356 . S
N1169 H1174 0.984 . S
N1169 H1175 0.985 . S
C1170 C1164 1.379 . S
C1170 C1167 1.363 . S
C1170 N1168 1.356 . S
C1171 C1165 1.363 . S
C1171 C1166 1.379 . S
C1171 N1169 1.356 . S
N1172 C1164 1.356 . S
N1172 H1178 0.984 . S
N1172 H1179 0.984 . S
N1173 C1166 1.356 . S
N1173 H1176 0.984 . S
N1173 H1177 0.985 . S
H1174 N1169 0.984 . S
H1175 N1169 0.985 . S
H1176 N1173 0.984 . S
H1177 N1173 0.985 . S
H1178 N1172 0.984 . S
H1179 N1172 0.984 . S
H1180 N1168 0.984 . S
H1181 N1168 0.985 . S
C1182 C1183 1.363 . S
C1182 C1188 1.379 1_554 S
C1182 N1190 1.356 . S
C1183 C1182 1.363 . S
C1183 C1189 1.363 . S
C1184 C1185 1.363 . S
C1184 C1189 1.379 1_556 S
C1184 N1191 1.356 . S
C1185 C1184 1.363 . S
C1185 C1188 1.363 . S
N1186 C1188 1.356 . S
N1186 H1198 0.984 . S
N1186 H1199 0.985 . S
N1187 C1189 1.356 . S
N1187 H1192 0.984 . S
N1187 H1193 0.985 . S
C1188 C1182 1.379 1_556 S
C1188 C1185 1.363 . S
C1188 N1186 1.356 . S
C1189 C1183 1.363 . S
C1189 C1184 1.379 1_554 S
C1189 N1187 1.356 . S
N1190 C1182 1.356 . S
N1190 H1196 0.984 . S
N1190 H1197 0.984 . S
N1191 C1184 1.356 . S
N1191 H1194 0.984 . S
N1191 H1195 0.985 . S
H1192 N1187 0.984 . S
H1193 N1187 0.985 . S
H1194 N1191 0.984 . S
H1195 N1191 0.985 . S
H1196 N1190 0.984 . S
H1197 N1190 0.984 . S
H1198 N1186 0.984 . S
H1199 N1186 0.985 . S
C337 C57 1.484 . S
C339 C13 1.484 . S
C355 C15 1.484 . S
C357 C71 1.484 . S
C373 C97 1.484 . S
C375 C40 1.484 . S
C391 C99 1.484 . S
C393 C43 1.484 . S
C409 C208 1.484 . S
C411 C112 1.484 . S
C427 C210 1.484 . S
C429 C127 1.484 . S
C445 C141 1.484 . S
C447 C168 1.484 . S
C463 C182 1.484 . S
C465 C154 1.484 . S
C481 C224 1.484 . S
C483 C295 1.484 . S
C499 C251 1.484 . S
C501 C266 1.484 . S
C517 C252 1.484 . S
C519 C293 1.484 . S
C535 C320 1.484 . S
C537 C322 1.484 . S
C553 C55 1.484 . S
C555 C83 1.484 . S
C571 C1 1.484 . S
C573 C85 1.484 . S
C589 C111 1.484 . S
C591 C27 1.484 . S
C607 C28 1.484 . S
C609 C69 1.484 . S
C625 C334 1.484 . S
C627 C264 1.484 . S
C643 C278 1.484 . S
C645 C307 1.484 . S
C661 C281 1.484 . S
C663 C308 1.484 . S
C679 C239 1.484 . S
C681 C236 1.484 . S
C697 C166 1.484 . S
C699 C139 1.484 . S
C715 C222 1.484 . S
C717 C194 1.484 . S
C733 C180 1.484 . S
C735 C196 1.484 . S
C751 C153 1.484 . S
C753 C124 1.484 . S
C769 C321 1.506 . S
C771 C12 1.507 . S
C787 C225 1.506 . S
C789 C14 1.506 . S
C805 C323 1.506 . S
C807 C41 1.506 . S
C823 C294 1.506 . S
C825 C42 1.506 . S
C841 C253 1.506 . S
C843 C56 1.506 . S
C859 C70 1.506 . S
C861 C267 1.506 . S
C877 C292 1.506 . S
C879 C96 1.506 . S
C895 C250 1.506 . S
C897 C98 1.506 . S
C913 C183 1.506 . S
C915 C113 1.506 . S
C931 C209 1.506 . S
C933 C126 1.506 . S
C949 C211 1.506 . S
C951 C140 1.506 . S
C967 C155 1.506 . S
C969 C169 1.506 . S
C985 C82 1.506 . S
C987 C152 1.506 . S
C1003 C84 1.506 . S
C1005 C167 1.506 . S
C1021 C125 1.506 . S
C1023 C110 1.506 . S
C1039 C68 1.506 . S
C1041 C138 1.506 . S
C1057 C197 1.506 . S
C1059 C54 1.506 . S
C1075 C0 1.506 . S
C1077 C223 1.506 . S
C1093 C181 1.506 . S
C1095 C26 1.506 . S
C1111 C29 1.506 . S
C1113 C195 1.506 . S
C1129 C238 1.506 . S
C1131 C335 1.506 . S
C1147 C306 1.506 . S
C1149 C265 1.506 . S
C1165 C309 1.506 . S
C1167 C279 1.506 . S
C1183 C237 1.506 . S
C1185 C280 1.506 . S
