# Generated by pormake.
# Topology yfj, (5)-cn, num edge types: 1
# Building blocks:
#     Node 0, Type 0, BuildingBlock: BEQFEK_clean_sbu_0, # of connection points: 5
#     Node 1, Type 0, BuildingBlock: BEQFEK_clean_sbu_0, # of connection points: 5
#     Node 2, Type 0, BuildingBlock: BEQFEK_clean_sbu_0, # of connection points: 5
#     Node 3, Type 0, BuildingBlock: BEQFEK_clean_sbu_0, # of connection points: 5
#     Node 4, Type 0, BuildingBlock: BEQFEK_clean_sbu_0, # of connection points: 5
#     Node 5, Type 0, BuildingBlock: BEQFEK_clean_sbu_0, # of connection points: 5
#     Node 6, Type 0, BuildingBlock: BEQFEK_clean_sbu_0, # of connection points: 5
#     Node 7, Type 0, BuildingBlock: BEQFEK_clean_sbu_0, # of connection points: 5
#     Node 8, Type 0, BuildingBlock: BEQFEK_clean_sbu_0, # of connection points: 5
#     Node 9, Type 0, BuildingBlock: BEQFEK_clean_sbu_0, # of connection points: 5
#     Node 10, Type 0, BuildingBlock: BEQFEK_clean_sbu_0, # of connection points: 5
#     Node 11, Type 0, BuildingBlock: BEQFEK_clean_sbu_0, # of connection points: 5
#     Node 12, Type 0, BuildingBlock: BEQFEK_clean_sbu_0, # of connection points: 5
#     Node 13, Type 0, BuildingBlock: BEQFEK_clean_sbu_0, # of connection points: 5
#     Node 14, Type 0, BuildingBlock: BEQFEK_clean_sbu_0, # of connection points: 5
#     Node 15, Type 0, BuildingBlock: BEQFEK_clean_sbu_0, # of connection points: 5
#     Edge 16, Type (0, 0), BuildingBlock: EZIPEK_clean_linker_0, # of connection points: 2
#     Edge 17, Type (0, 0), BuildingBlock: EZIPEK_clean_linker_0, # of connection points: 2
#     Edge 18, Type (0, 0), BuildingBlock: EZIPEK_clean_linker_0, # of connection points: 2
#     Edge 19, Type (0, 0), BuildingBlock: EZIPEK_clean_linker_0, # of connection points: 2
#     Edge 20, Type (0, 0), BuildingBlock: EZIPEK_clean_linker_0, # of connection points: 2
#     Edge 21, Type (0, 0), BuildingBlock: EZIPEK_clean_linker_0, # of connection points: 2
#     Edge 22, Type (0, 0), BuildingBlock: EZIPEK_clean_linker_0, # of connection points: 2
#     Edge 23, Type (0, 0), BuildingBlock: EZIPEK_clean_linker_0, # of connection points: 2
#     Edge 24, Type (0, 0), BuildingBlock: EZIPEK_clean_linker_0, # of connection points: 2
#     Edge 25, Type (0, 0), BuildingBlock: EZIPEK_clean_linker_0, # of connection points: 2
#     Edge 26, Type (0, 0), BuildingBlock: EZIPEK_clean_linker_0, # of connection points: 2
#     Edge 27, Type (0, 0), BuildingBlock: EZIPEK_clean_linker_0, # of connection points: 2
#     Edge 28, Type (0, 0), BuildingBlock: EZIPEK_clean_linker_0, # of connection points: 2
#     Edge 29, Type (0, 0), BuildingBlock: EZIPEK_clean_linker_0, # of connection points: 2
#     Edge 30, Type (0, 0), BuildingBlock: EZIPEK_clean_linker_0, # of connection points: 2
#     Edge 31, Type (0, 0), BuildingBlock: EZIPEK_clean_linker_0, # of connection points: 2
#     Edge 32, Type (0, 0), BuildingBlock: EZIPEK_clean_linker_0, # of connection points: 2
#     Edge 33, Type (0, 0), BuildingBlock: EZIPEK_clean_linker_0, # of connection points: 2
#     Edge 34, Type (0, 0), BuildingBlock: EZIPEK_clean_linker_0, # of connection points: 2
#     Edge 35, Type (0, 0), BuildingBlock: EZIPEK_clean_linker_0, # of connection points: 2
#     Edge 36, Type (0, 0), BuildingBlock: EZIPEK_clean_linker_0, # of connection points: 2
#     Edge 37, Type (0, 0), BuildingBlock: EZIPEK_clean_linker_0, # of connection points: 2
#     Edge 38, Type (0, 0), BuildingBlock: EZIPEK_clean_linker_0, # of connection points: 2
#     Edge 39, Type (0, 0), BuildingBlock: EZIPEK_clean_linker_0, # of connection points: 2
#     Edge 40, Type (0, 0), BuildingBlock: EZIPEK_clean_linker_0, # of connection points: 2
#     Edge 41, Type (0, 0), BuildingBlock: EZIPEK_clean_linker_0, # of connection points: 2
#     Edge 42, Type (0, 0), BuildingBlock: EZIPEK_clean_linker_0, # of connection points: 2
#     Edge 43, Type (0, 0), BuildingBlock: EZIPEK_clean_linker_0, # of connection points: 2
#     Edge 44, Type (0, 0), BuildingBlock: EZIPEK_clean_linker_0, # of connection points: 2
#     Edge 45, Type (0, 0), BuildingBlock: EZIPEK_clean_linker_0, # of connection points: 2
#     Edge 46, Type (0, 0), BuildingBlock: EZIPEK_clean_linker_0, # of connection points: 2
#     Edge 47, Type (0, 0), BuildingBlock: EZIPEK_clean_linker_0, # of connection points: 2
#     Edge 48, Type (0, 0), BuildingBlock: EZIPEK_clean_linker_0, # of connection points: 2
#     Edge 49, Type (0, 0), BuildingBlock: EZIPEK_clean_linker_0, # of connection points: 2
#     Edge 50, Type (0, 0), BuildingBlock: EZIPEK_clean_linker_0, # of connection points: 2
#     Edge 51, Type (0, 0), BuildingBlock: EZIPEK_clean_linker_0, # of connection points: 2
#     Edge 52, Type (0, 0), BuildingBlock: EZIPEK_clean_linker_0, # of connection points: 2
#     Edge 53, Type (0, 0), BuildingBlock: EZIPEK_clean_linker_0, # of connection points: 2
#     Edge 54, Type (0, 0), BuildingBlock: EZIPEK_clean_linker_0, # of connection points: 2
#     Edge 55, Type (0, 0), BuildingBlock: EZIPEK_clean_linker_0, # of connection points: 2
# Relax obj value: 0.531
# Max RMSD: 0.234
# Mean RMSD: 0.234
data_MOF--net-yfj--node1-BEQFEK_clean_sbu_0--edge1-EZIPEK_clean_linker_0
_symmetry_space_group_name_H-M    P1
_symmetry_Int_Tables_number       1
_symmetry_cell_setting            triclinic
loop_
_symmetry_equiv_pos_as_xyz
'x, y, z'
_cell_length_a     34.939837
_cell_length_b     34.892089
_cell_length_c     38.245808
_cell_angle_alpha  89.934618
_cell_angle_beta   90.013281
_cell_angle_gamma 89.964133
loop_
_atom_site_label
_atom_site_type_symbol
_atom_site_fract_x
_atom_site_fract_y
_atom_site_fract_z
_atom_type_partial_charge
Co0 Co 0.09234 0.12817 0.38226 0.0
Co1 Co 0.12652 0.14641 0.30691 0.0
C2 C 0.1727 0.10888 0.36298 0.0
O3 O 0.14446 0.10875 0.38377 0.0
O4 O 0.1703 0.1228 0.33227 0.0
C5 C 0.08105 0.08257 0.44309 0.0
O6 O 0.1021 0.05785 0.42578 0.0
C7 C 0.16963 0.13592 0.24029 0.0
C8 C 0.13391 0.16792 0.20265 0.0
C9 C 0.16658 0.14551 0.20507 0.0
N10 N 0.14008 0.15175 0.25785 0.0
N11 N 0.11903 0.17104 0.23507 0.0
C12 C 0.20022 0.11216 0.25705 0.0
H13 H 0.21527 0.1296 0.277 0.0
H14 H 0.18691 0.08736 0.27056 0.0
H15 H 0.2214 0.10171 0.23766 0.0
C16 C 0.03977 0.0818 0.34064 0.0
N17 N 0.06706 0.10881 0.34273 0.0
N18 N 0.08195 0.11457 0.31148 0.0
C19 C 0.06474 0.09063 0.28862 0.0
C20 C 0.03772 0.06903 0.30649 0.0
C21 C 0.02021 0.06433 0.37159 0.0
H22 H 0.01375 0.08671 0.39127 0.0
H23 H 0.03945 0.0427 0.38357 0.0
H24 H 0.99329 0.0498 0.36379 0.0
O25 O 0.09751 0.18429 0.38201 0.0
O26 O 0.12002 0.19892 0.32931 0.0
H27 H 0.07155 0.11049 0.23619 0.0
H28 H 0.06261 0.05977 0.23957 0.0
C29 C 0.0776 0.08439 0.25177 0.0
H30 H 0.10889 0.07913 0.25138 0.0
H31 H 0.09406 0.18582 0.24158 0.0
O32 O 0.07002 0.1132 0.42803 0.0
C33 C 0.1098 0.20887 0.36014 0.0
Co34 Co 0.87507 0.59496 0.63597 0.0
Co35 Co 0.85383 0.62796 0.56069 0.0
C36 C 0.88884 0.67605 0.61743 0.0
O37 O 0.89361 0.64756 0.63756 0.0
O38 O 0.87352 0.67272 0.58736 0.0
C39 C 0.92052 0.58467 0.69686 0.0
O40 O 0.94433 0.60678 0.67961 0.0
C41 C 0.86331 0.67207 0.49427 0.0
C42 C 0.83439 0.63444 0.45619 0.0
C43 C 0.85506 0.66823 0.45879 0.0
N44 N 0.84847 0.64185 0.51168 0.0
N45 N 0.83089 0.61976 0.48866 0.0
C46 C 0.88503 0.70387 0.5114 0.0
H47 H 0.86672 0.71745 0.53159 0.0
H48 H 0.91059 0.69188 0.52474 0.0
H49 H 0.89404 0.72603 0.49227 0.0
C50 C 0.9221 0.5435 0.59407 0.0
N51 N 0.89468 0.57037 0.59641 0.0
N52 N 0.88783 0.58481 0.56515 0.0
C53 C 0.91143 0.56761 0.54196 0.0
C54 C 0.93389 0.54116 0.55967 0.0
C55 C 0.94031 0.52428 0.62487 0.0
H56 H 0.96096 0.54432 0.63711 0.0
H57 H 0.95601 0.49802 0.61695 0.0
H58 H 0.91818 0.5167 0.64445 0.0
O59 O 0.81876 0.59897 0.63568 0.0
O60 O 0.80184 0.61869 0.58245 0.0
H61 H 0.94099 0.56522 0.49228 0.0
H62 H 0.91948 0.61088 0.50305 0.0
C63 C 0.91594 0.57937 0.50459 0.0
H64 H 0.88988 0.57123 0.48987 0.0
H65 H 0.81729 0.59406 0.49501 0.0
O66 O 0.89049 0.57245 0.68169 0.0
C67 C 0.79328 0.60935 0.61386 0.0
Co68 Co 0.39894 0.36989 0.88525 0.0
Co69 Co 0.36641 0.35419 0.80945 0.0
C70 C 0.31814 0.38914 0.86218 0.0
O71 O 0.3441 0.38388 0.88498 0.0
O72 O 0.32438 0.38393 0.82985 0.0
C73 C 0.41521 0.41941 0.94471 0.0
O74 O 0.40515 0.44794 0.92425 0.0
C75 C 0.3258 0.36075 0.74115 0.0
C76 C 0.36476 0.33011 0.70542 0.0
C77 C 0.33106 0.3511 0.70621 0.0
N78 N 0.3551 0.34641 0.76014 0.0
N79 N 0.37802 0.32777 0.7385 0.0
C80 C 0.29347 0.38361 0.75608 0.0
H81 H 0.27989 0.36726 0.7776 0.0
H82 H 0.30481 0.41078 0.767 0.0
H83 H 0.2714 0.39026 0.73611 0.0
C84 C 0.45469 0.41522 0.844 0.0
N85 N 0.4258 0.38985 0.84622 0.0
N86 N 0.41188 0.38383 0.81465 0.0
C87 C 0.43055 0.40656 0.79171 0.0
C88 C 0.45803 0.42724 0.80971 0.0
C89 C 0.47668 0.43058 0.87442 0.0
H90 H 0.47648 0.40973 0.8962 0.0
H91 H 0.46375 0.45804 0.88299 0.0
H92 H 0.50672 0.43657 0.86673 0.0
O93 O 0.39927 0.31419 0.88525 0.0
O94 O 0.36678 0.30294 0.83623 0.0
H95 H 0.42626 0.38711 0.73899 0.0
H96 H 0.43329 0.43798 0.7429 0.0
C97 C 0.41869 0.41278 0.75455 0.0
H98 H 0.38728 0.41702 0.75322 0.0
H99 H 0.40334 0.31428 0.74619 0.0
O100 O 0.41767 0.3858 0.93207 0.0
C101 C 0.38149 0.29141 0.86514 0.0
Co102 Co 0.62621 0.9018 0.13165 0.0
Co103 Co 0.64947 0.87125 0.0566 0.0
C104 C 0.61172 0.82175 0.11107 0.0
O105 O 0.60579 0.84979 0.13146 0.0
O106 O 0.62874 0.82585 0.08188 0.0
C107 C 0.57914 0.91354 0.19154 0.0
O108 O 0.55426 0.8935 0.17346 0.0
C109 C 0.63963 0.82884 0.99014 0.0
C110 C 0.67644 0.861 0.95359 0.0
C111 C 0.65182 0.82999 0.95565 0.0
N112 N 0.6558 0.85808 1.00775 0.0
N113 N 0.67764 0.87731 0.98558 0.0
C114 C 0.61344 0.79987 1.00617 0.0
H115 H 0.59128 0.81475 0.02189 0.0
H116 H 0.59944 0.78193 0.98592 0.0
H117 H 0.63014 0.78107 0.02395 0.0
C118 C 0.58078 0.95521 0.0899 0.0
N119 N 0.60828 0.9284 0.09233 0.0
N120 N 0.61584 0.9147 0.06098 0.0
C121 C 0.5926 0.93223 0.03763 0.0
C122 C 0.56946 0.95811 0.05536 0.0
C123 C 0.56183 0.97375 0.12061 0.0
H124 H 0.53966 0.95416 0.13115 0.0
H125 H 0.54766 0.00097 0.11296 0.0
H126 H 0.58321 0.97961 0.14132 0.0
O127 O 0.68238 0.8961 0.13288 0.0
O128 O 0.7011 0.87874 0.07956 0.0
H129 H 0.5662 0.93767 0.98668 0.0
H130 H 0.58239 0.89001 0.99824 0.0
C131 C 0.58901 0.92102 1.00005 0.0
H132 H 0.61662 0.92623 0.9866 0.0
H133 H 0.69369 0.90139 0.99236 0.0
O134 O 0.61064 0.92327 0.17749 0.0
C135 C 0.70855 0.88632 0.11157 0.0
Co136 Co 0.08753 0.36962 0.90315 0.0
Co137 Co 0.11989 0.34857 0.97851 0.0
C138 C 0.16761 0.38661 0.92259 0.0
O139 O 0.13978 0.38907 0.90133 0.0
O140 O 0.16406 0.37129 0.95271 0.0
C141 C 0.07297 0.41046 0.83886 0.0
O142 O 0.10165 0.4317 0.8497 0.0
C143 C 0.162 0.35965 0.04528 0.0
C144 C 0.13389 0.31781 0.08016 0.0
C145 C 0.16265 0.3451 0.0791 0.0
N146 N 0.13405 0.34194 0.02714 0.0
N147 N 0.11726 0.31711 0.04831 0.0
C148 C 0.18845 0.38894 0.0301 0.0
H149 H 0.17195 0.40947 1.01381 0.0
H150 H 0.20411 0.40462 0.05088 0.0
H151 H 0.20951 0.37435 1.01295 0.0
C152 C 0.03688 0.41744 0.94523 0.0
N153 N 0.06275 0.38905 0.943 0.0
N154 N 0.0761 0.38119 0.97443 0.0
C155 C 0.05874 0.40447 0.99775 0.0
C156 C 0.03377 0.42849 0.97986 0.0
C157 C 0.02012 0.43747 0.91414 0.0
H158 H 0.00756 0.41604 0.8961 0.0
H159 H 0.04323 0.45281 0.90001 0.0
H160 H -0.00222 0.45846 0.92173 0.0
O161 O 0.09274 0.31338 0.90309 0.0
O162 O 0.1121 0.29665 0.95628 0.0
H163 H 0.06616 0.37842 0.04791 0.0
H164 H 0.05079 0.42791 0.04959 0.0
C165 C 0.06922 0.40703 0.03559 0.0
H166 H 0.09956 0.41597 0.03802 0.0
H167 H 0.09471 0.29929 0.04089 0.0
O168 O 0.06161 0.38336 0.85849 0.0
C169 C 0.10328 0.2879 0.92486 0.0
Co170 Co 0.62414 0.5866 0.15846 0.0
Co171 Co 0.63764 0.62704 0.22925 0.0
C172 C 0.60852 0.6715 0.17335 0.0
O173 O 0.61582 0.6432 0.1534 0.0
O174 O 0.60998 0.66851 0.20645 0.0
C175 C 0.58013 0.5764 0.09645 0.0
O176 O 0.5567 0.60045 0.11187 0.0
C177 C 0.63304 0.67081 0.2958 0.0
C178 C 0.66611 0.63432 0.33204 0.0
C179 C 0.64425 0.66743 0.33052 0.0
N180 N 0.6473 0.64093 0.27759 0.0
N181 N 0.66722 0.61938 0.29951 0.0
C182 C 0.60895 0.70193 0.28026 0.0
H183 H 0.62474 0.7156 0.25839 0.0
H184 H 0.58231 0.68929 0.26951 0.0
H185 H 0.60148 0.72413 0.29987 0.0
C186 C 0.56977 0.54146 0.19973 0.0
N187 N 0.59819 0.56711 0.19687 0.0
N188 N 0.60472 0.58303 0.22746 0.0
C189 C 0.5796 0.56844 0.2508 0.0
C190 C 0.55671 0.54175 0.23384 0.0
C191 C 0.55264 0.52031 0.16952 0.0
H192 H 0.57548 0.51114 0.15122 0.0
H193 H 0.53283 0.53972 0.15533 0.0
H194 H 0.53624 0.49489 0.17843 0.0
O195 O 0.67879 0.57672 0.16461 0.0
O196 O 0.687 0.6259 0.19942 0.0
H197 H 0.54943 0.56951 0.30019 0.0
H198 H 0.5698 0.61473 0.28617 0.0
C199 C 0.57423 0.58327 0.28712 0.0
H200 H 0.60044 0.57753 0.3026 0.0
H201 H 0.68089 0.59395 0.29242 0.0
O202 O 0.60907 0.56395 0.11305 0.0
C203 C 0.69943 0.60425 0.17493 0.0
Co204 Co 0.39944 0.12555 0.40585 0.0
Co205 Co 0.36724 0.14189 0.48154 0.0
C206 C 0.31961 0.10481 0.42908 0.0
O207 O 0.34526 0.11011 0.40607 0.0
O208 O 0.32594 0.11086 0.46127 0.0
C209 C 0.40683 0.07969 0.34466 0.0
O210 O 0.38336 0.05682 0.36148 0.0
C211 C 0.32706 0.13275 0.54959 0.0
C212 C 0.36103 0.1694 0.58483 0.0
C213 C 0.32994 0.14474 0.58407 0.0
N214 N 0.35523 0.1493 0.53071 0.0
N215 N 0.37535 0.17124 0.55208 0.0
C216 C 0.29751 0.10626 0.53488 0.0
H217 H 0.28093 0.12145 0.51439 0.0
H218 H 0.31191 0.08128 0.52268 0.0
H219 H 0.27739 0.09596 0.55525 0.0
C220 C 0.45387 0.07965 0.44628 0.0
N221 N 0.42626 0.10638 0.44471 0.0
N222 N 0.41354 0.11347 0.47648 0.0
C223 C 0.43249 0.09079 0.49929 0.0
C224 C 0.45838 0.06851 0.48076 0.0
C225 C 0.47119 0.06082 0.4149 0.0
H226 H 0.47859 0.0828 0.39507 0.0
H227 H 0.44996 0.04092 0.4033 0.0
H228 H 0.49722 0.04428 0.42191 0.0
O229 O 0.39799 0.18143 0.40518 0.0
O230 O 0.36566 0.19285 0.45423 0.0
H231 H 0.43912 0.06311 0.54963 0.0
H232 H 0.39103 0.07845 0.53887 0.0
C233 C 0.42182 0.08588 0.5369 0.0
H234 H 0.42655 0.11325 0.55091 0.0
H235 H 0.39912 0.18725 0.54438 0.0
O236 O 0.42007 0.10916 0.35999 0.0
C237 C 0.37964 0.20416 0.42496 0.0
Co238 Co 0.8646 0.90635 0.6567 0.0
Co239 Co 0.84519 0.87503 0.73288 0.0
C240 C 0.88166 0.82623 0.67826 0.0
O241 O 0.88141 0.85307 0.65594 0.0
O242 O 0.86967 0.83108 0.70935 0.0
C243 C 0.91145 0.91517 0.59674 0.0
O244 O 0.93475 0.89339 0.61496 0.0
C245 C 0.85646 0.83322 0.79993 0.0
C246 C 0.81934 0.86516 0.83635 0.0
C247 C 0.84456 0.83454 0.83456 0.0
N248 N 0.83921 0.86174 0.78198 0.0
N249 N 0.81702 0.88066 0.80405 0.0
C250 C 0.88339 0.80478 0.78405 0.0
H251 H 0.86745 0.78662 0.76523 0.0
H252 H 0.90614 0.82017 0.76947 0.0
H253 H 0.89663 0.78604 0.80414 0.0
C254 C 0.91231 0.95864 0.69777 0.0
N255 N 0.88453 0.9321 0.69599 0.0
N256 N 0.87733 0.91897 0.72766 0.0
C257 C 0.90095 0.93657 0.75051 0.0
C258 C 0.92406 0.9619 0.73216 0.0
C259 C 0.93109 0.97649 0.6666 0.0
H260 H 0.90933 0.98331 0.64643 0.0
H261 H 0.95201 0.95596 0.65545 0.0
H262 H 0.94662 0.00305 0.67385 0.0
O263 O 0.80855 0.90361 0.65662 0.0
O264 O 0.79324 0.88099 0.70915 0.0
H265 H 0.92769 0.94281 0.80123 0.0
H266 H 0.91284 0.89473 0.78989 0.0
C267 C 0.90524 0.92553 0.7881 0.0
H268 H 0.87763 0.92991 0.80177 0.0
H269 H 0.80038 0.90432 0.7971 0.0
O270 O 0.88078 0.92731 0.61079 0.0
C271 C 0.78366 0.89165 0.6783 0.0
Co272 Co 0.59899 0.62177 0.88538 0.0
Co273 Co 0.63189 0.64007 0.81015 0.0
C274 C 0.67999 0.60418 0.86368 0.0
O275 O 0.65347 0.60715 0.88624 0.0
O276 O 0.67431 0.61149 0.83155 0.0
C277 C 0.58817 0.57481 0.94591 0.0
O278 O 0.61089 0.55088 0.92947 0.0
C279 C 0.6739 0.63301 0.74282 0.0
C280 C 0.63764 0.66622 0.70653 0.0
C281 C 0.67041 0.64386 0.70802 0.0
N282 N 0.64441 0.6479 0.76113 0.0
N283 N 0.62299 0.6679 0.73916 0.0
C284 C 0.70518 0.60914 0.75836 0.0
H285 H 0.71949 0.62555 0.77947 0.0
H286 H 0.69264 0.58285 0.77 0.0
H287 H 0.72687 0.6009 0.73857 0.0
C288 C 0.54582 0.57568 0.84395 0.0
N289 N 0.57335 0.60242 0.84605 0.0
N290 N 0.58673 0.60966 0.81452 0.0
C291 C 0.56848 0.58686 0.79139 0.0
C292 C 0.54219 0.56458 0.80943 0.0
C293 C 0.52717 0.55725 0.87491 0.0
H294 H 0.54736 0.53637 0.88668 0.0
H295 H 0.50072 0.54177 0.86732 0.0
H296 H 0.5201 0.57927 0.89475 0.0
O297 O 0.59941 0.67761 0.88635 0.0
O298 O 0.63065 0.69104 0.83711 0.0
H299 H 0.56413 0.55825 0.74135 0.0
H300 H 0.61097 0.57704 0.75212 0.0
C301 C 0.57972 0.58229 0.7539 0.0
H302 H 0.57306 0.60909 0.73957 0.0
H303 H 0.598 0.68227 0.74634 0.0
O304 O 0.57732 0.60532 0.93069 0.0
C305 C 0.61664 0.7013 0.86664 0.0
Co306 Co 0.36751 0.08853 0.13192 0.0
Co307 Co 0.34859 0.12282 0.05702 0.0
C308 C 0.38503 0.16957 0.11365 0.0
O309 O 0.38695 0.1408 0.13389 0.0
O310 O 0.37056 0.16723 0.08314 0.0
C311 C 0.4111 0.07575 0.19378 0.0
O312 O 0.43636 0.09721 0.17757 0.0
C313 C 0.35812 0.16632 0.99075 0.0
C314 C 0.32371 0.13233 0.95362 0.0
C315 C 0.34678 0.16447 0.95601 0.0
N316 N 0.34283 0.13645 1.00818 0.0
N317 N 0.32233 0.11623 0.9857 0.0
C318 C 0.38279 0.19634 1.00714 0.0
H319 H 0.36524 0.21364 0.02544 0.0
H320 H 0.40592 0.18239 0.02246 0.0
H321 H 0.39555 0.21557 0.98715 0.0
C322 C 0.41512 0.03706 0.09012 0.0
N323 N 0.38743 0.0637 0.09239 0.0
N324 N 0.38128 0.07872 0.06124 0.0
C325 C 0.40547 0.06212 0.0382 0.0
C326 C 0.42783 0.03551 0.05589 0.0
C327 C 0.43307 0.01771 0.12097 0.0
H328 H 0.41085 0.0104 0.14055 0.0
H329 H 0.45398 0.03751 0.13317 0.0
H330 H 0.44845 0.99127 0.11305 0.0
O331 O 0.31146 0.09384 0.13155 0.0
O332 O 0.29616 0.11545 0.07872 0.0
H333 H 0.38421 0.06934 0.98627 0.0
H334 H 0.43488 0.0597 0.98843 0.0
C335 C 0.41079 0.07499 1.0012 0.0
H336 H 0.41637 0.10627 1.00064 0.0
H337 H 0.30729 0.09143 0.99229 0.0
O338 O 0.38101 0.06536 0.1777 0.0
C339 C 0.28666 0.10572 0.10977 0.0
Co340 Co 0.9033 0.86865 0.38315 0.0
Co341 Co 0.87243 0.84824 0.30705 0.0
C342 C 0.82278 0.88312 0.36237 0.0
O343 O 0.84958 0.88396 0.38469 0.0
O344 O 0.82805 0.87116 0.3313 0.0
C345 C 0.90989 0.91099 0.44599 0.0
O346 O 0.88334 0.93217 0.43125 0.0
C347 C 0.82938 0.85837 0.24052 0.0
C348 C 0.86275 0.82342 0.20337 0.0
C349 C 0.83096 0.84708 0.20571 0.0
N350 N 0.85885 0.84225 0.25802 0.0
N351 N 0.87858 0.82131 0.23553 0.0
C352 C 0.79989 0.88366 0.257 0.0
H353 H 0.78323 0.86674 0.27628 0.0
H354 H 0.81431 0.90734 0.27116 0.0
H355 H 0.77988 0.89576 0.23735 0.0
C356 C 0.95399 0.9177 0.34209 0.0
N357 N 0.92798 0.88944 0.34379 0.0
N358 N 0.91542 0.88166 0.31208 0.0
C359 C 0.93309 0.90524 0.28917 0.0
C360 C 0.95786 0.92889 0.30757 0.0
C361 C 0.97076 0.93709 0.37344 0.0
H362 H 0.94796 0.95351 0.38697 0.0
H363 H 0.99416 0.95705 0.36614 0.0
H364 H 0.98193 0.91523 0.39188 0.0
O365 O 0.90192 0.81246 0.38297 0.0
O366 O 0.8801 0.79628 0.33043 0.0
H367 H 0.93983 0.93139 0.23821 0.0
H368 H 0.89209 0.91483 0.24864 0.0
C369 C 0.92306 0.90849 0.25128 0.0
H370 H 0.92892 0.88079 0.23817 0.0
H371 H 0.90307 0.80574 0.24207 0.0
O372 O 0.92592 0.88449 0.42848 0.0
C373 C 0.89089 0.78711 0.36134 0.0
Co374 Co 0.13083 0.40128 0.6337 0.0
Co375 Co 0.14843 0.3691 0.55707 0.0
C376 C 0.11336 0.3207 0.61222 0.0
O377 O 0.11507 0.34745 0.63457 0.0
O378 O 0.12357 0.3256 0.58062 0.0
C379 C 0.0798 0.41092 0.69044 0.0
O380 O 0.05676 0.39296 0.66882 0.0
C381 C 0.13985 0.32591 0.49018 0.0
C382 C 0.16933 0.36351 0.45242 0.0
C383 C 0.14867 0.3297 0.45487 0.0
N384 N 0.15434 0.35616 0.50778 0.0
N385 N 0.17225 0.37827 0.48493 0.0
C386 C 0.118 0.2939 0.50689 0.0
H387 H 0.09176 0.30557 0.51928 0.0
H388 H 0.10994 0.27154 0.48766 0.0
H389 H 0.13581 0.28062 0.52766 0.0
C390 C 0.08451 0.45516 0.59214 0.0
N391 N 0.11069 0.427 0.59407 0.0
N392 N 0.11657 0.41305 0.56248 0.0
C393 C 0.09313 0.43121 0.53977 0.0
C394 C 0.07198 0.45823 0.55798 0.0
C395 C 0.06913 0.47648 0.62294 0.0
H396 H 0.09232 0.48092 0.64226 0.0
H397 H 0.04581 0.45958 0.63512 0.0
H398 H 0.05723 0.50466 0.61499 0.0
O399 O 0.18699 0.39932 0.63319 0.0
O400 O 0.20046 0.37524 0.58071 0.0
H401 H 0.11305 0.42732 0.48718 0.0
H402 H 0.06214 0.43424 0.49082 0.0
C403 C 0.08729 0.41961 0.50252 0.0
H404 H 0.08322 0.38814 0.50103 0.0
H405 H 0.1858 0.40394 0.49141 0.0
O406 O 0.11277 0.42123 0.67982 0.0
C407 C 0.21109 0.3867 0.61102 0.0
Co408 Co 0.59173 0.86973 0.40453 0.0
Co409 Co 0.62557 0.84929 0.47947 0.0
C410 C 0.67226 0.88594 0.42243 0.0
O411 O 0.64364 0.88992 0.40236 0.0
O412 O 0.66946 0.87044 0.4525 0.0
C413 C 0.57966 0.91271 0.34239 0.0
O414 O 0.60242 0.93736 0.35784 0.0
C415 C 0.66939 0.86044 0.54572 0.0
C416 C 0.63297 0.83016 0.58394 0.0
C417 C 0.66591 0.85211 0.58122 0.0
N418 N 0.63977 0.84442 0.52841 0.0
N419 N 0.6184 0.82606 0.55151 0.0
C420 C 0.70022 0.8834 0.52847 0.0
H421 H 0.71447 0.86558 0.5083 0.0
H422 H 0.68721 0.90845 0.51506 0.0
H423 H 0.72197 0.89337 0.54752 0.0
C424 C 0.54003 0.91616 0.44642 0.0
N425 N 0.56687 0.88872 0.44412 0.0
N426 N 0.58159 0.88219 0.47531 0.0
C427 C 0.56456 0.906 0.49843 0.0
C428 C 0.53799 0.92832 0.48073 0.0
C429 C 0.52111 0.93454 0.41554 0.0
H430 H 0.51259 0.91229 0.39639 0.0
H431 H 0.54169 0.95427 0.40275 0.0
H432 H 0.49551 0.95125 0.42345 0.0
O433 O 0.5974 0.81366 0.40481 0.0
O434 O 0.61781 0.79691 0.45782 0.0
H435 H 0.57027 0.88522 0.55066 0.0
H436 H 0.56249 0.93616 0.54783 0.0
C437 C 0.5771 0.91138 0.53547 0.0
H438 H 0.60846 0.916 0.53621 0.0
H439 H 0.59322 0.81152 0.54525 0.0
O440 O 0.56784 0.88354 0.35921 0.0
C441 C 0.60855 0.78829 0.42642 0.0
Co442 Co 0.12643 0.08967 0.65524 0.0
Co443 Co 0.14643 0.12365 0.73016 0.0
C444 C 0.10997 0.1702 0.67295 0.0
O445 O 0.10535 0.14135 0.6533 0.0
O446 O 0.12592 0.16755 0.70279 0.0
C447 C 0.08185 0.0764 0.59405 0.0
O448 O 0.05624 0.0965 0.61122 0.0
C449 C 0.13501 0.16879 0.79542 0.0
C450 C 0.1653 0.13343 0.83452 0.0
C451 C 0.1435 0.16641 0.83092 0.0
N452 N 0.15085 0.13855 0.77887 0.0
N453 N 0.16918 0.11776 0.80249 0.0
C454 C 0.11219 0.19931 0.77744 0.0
H455 H 0.13032 0.21349 0.75744 0.0
H456 H 0.08756 0.18596 0.76377 0.0
H457 H 0.10166 0.22127 0.79605 0.0
C458 C 0.07977 0.03784 0.69733 0.0
N459 N 0.10734 0.06454 0.6949 0.0
N460 N 0.11355 0.07964 0.72598 0.0
C461 C 0.08938 0.06313 0.74909 0.0
C462 C 0.06706 0.03649 0.73153 0.0
C463 C 0.06178 0.01832 0.66665 0.0
H464 H 0.08372 0.01202 0.64654 0.0
H465 H 0.03975 0.03745 0.65516 0.0
H466 H 0.04761 0.99125 0.67468 0.0
O467 O 0.18256 0.09594 0.65589 0.0
O468 O 0.19888 0.11563 0.7092 0.0
H469 H 0.10966 0.06996 0.80135 0.0
H470 H 0.05885 0.06188 0.79835 0.0
C471 C 0.08361 0.07638 0.78588 0.0
H472 H 0.07885 0.10778 0.78608 0.0
H473 H 0.18371 0.09237 0.79684 0.0
O474 O 0.11281 0.06684 0.60926 0.0
C475 C 0.20773 0.10675 0.67778 0.0
Co476 Co 0.90941 0.63343 0.9094 0.0
Co477 Co 0.87284 0.65313 0.98358 0.0
C478 C 0.82896 0.6137 0.92686 0.0
O479 O 0.85838 0.61071 0.90761 0.0
O480 O 0.8301 0.62983 0.9567 0.0
C481 C 0.92234 0.58939 0.84791 0.0
O482 O 0.90019 0.56468 0.86403 0.0
C483 C 0.82227 0.65308 0.04595 0.0
C484 C 0.86367 0.65708 0.08932 0.0
C485 C 0.82522 0.65079 0.08237 0.0
N486 N 0.85733 0.65883 0.03226 0.0
N487 N 0.88166 0.66267 0.05851 0.0
C488 C 0.78663 0.64998 0.02435 0.0
H489 H 0.78777 0.67091 1.0025 0.0
H490 H 0.78478 0.62089 1.0128 0.0
H491 H 0.76069 0.65535 0.04036 0.0
C492 C 0.961 0.58832 0.95182 0.0
N493 N 0.93443 0.61606 0.94972 0.0
N494 N 0.91736 0.6201 0.98026 0.0
C495 C 0.93183 0.59341 1.00239 0.0
C496 C 0.95994 0.57268 0.98499 0.0
C497 C 0.98169 0.57204 0.92096 0.0
H498 H 0.96282 0.55116 0.90756 0.0
H499 H 0.00811 0.55684 0.92921 0.0
H500 H 0.98928 0.59522 0.90238 0.0
O501 O 0.90086 0.6891 0.90826 0.0
O502 O 0.87877 0.7053 0.96079 0.0
H503 H 0.9203 0.5522 0.04338 0.0
H504 H 0.8831 0.58731 0.0363 0.0
C505 C 0.91447 0.58263 0.03681 0.0
H506 H 0.92744 0.60038 0.05768 0.0
H507 H 0.91099 0.66711 0.05535 0.0
O508 O 0.93375 0.61914 0.86411 0.0
C509 C 0.88793 0.71403 0.92938 0.0
Co510 Co 0.36532 0.39796 0.15437 0.0
Co511 Co 0.34648 0.36763 0.23058 0.0
C512 C 0.38303 0.31769 0.17868 0.0
O513 O 0.37961 0.34324 0.15518 0.0
O514 O 0.37582 0.32494 0.21048 0.0
C515 C 0.4157 0.41527 0.09542 0.0
O516 O 0.44411 0.40574 0.11617 0.0
C517 C 0.3562 0.32912 0.29938 0.0
C518 C 0.3118 0.35654 0.3318 0.0
C519 C 0.34031 0.32892 0.33259 0.0
N520 N 0.33813 0.35566 0.27966 0.0
N521 N 0.3118 0.37216 0.29945 0.0
C522 C 0.38775 0.30372 0.28666 0.0
H523 H 0.40833 0.32066 0.27089 0.0
H524 H 0.40307 0.28996 0.3088 0.0
H525 H 0.37551 0.28093 0.26987 0.0
C526 C 0.40927 0.45471 0.19648 0.0
N527 N 0.38401 0.42572 0.19378 0.0
N528 N 0.37598 0.41304 0.22545 0.0
C529 C 0.39679 0.43289 0.24901 0.0
C530 C 0.41888 0.45953 0.23128 0.0
C531 C 0.4266 0.47569 0.16632 0.0
H532 H 0.40707 0.4751 0.14361 0.0
H533 H 0.45432 0.46219 0.15941 0.0
H534 H 0.43248 0.50593 0.17349 0.0
O535 O 0.30968 0.39697 0.15307 0.0
O536 O 0.29569 0.36856 0.20369 0.0
H537 H 0.37042 0.42549 0.29896 0.0
H538 H 0.41901 0.44308 0.30099 0.0
C539 C 0.39928 0.42337 0.28708 0.0
H540 H 0.40955 0.3935 0.29024 0.0
H541 H 0.29334 0.39364 0.2907 0.0
O542 O 0.38189 0.41675 0.10768 0.0
C543 C 0.28576 0.38124 0.17352 0.0
C544 C 0.06011 0.05091 0.49912 0.0
C545 C 0.08043 0.08056 0.48172 0.0
C546 C 0.09918 0.10824 0.53795 0.0
C547 C 0.08109 0.07726 0.55543 0.0
N548 N 0.0482 0.01674 0.55358 0.0
N549 N 0.12698 0.13176 0.48422 0.0
C550 C 0.06263 0.04782 0.53626 0.0
C551 C 0.10203 0.10773 0.50102 0.0
N552 N 0.03772 0.02644 0.48017 0.0
N553 N 0.11309 0.13864 0.5566 0.0
H554 H 0.13098 0.13182 0.45721 0.0
H555 H 0.14664 0.14902 0.49728 0.0
H556 H 0.11261 0.13988 0.5838 0.0
H557 H 0.12226 0.16408 0.54504 0.0
H558 H 0.01957 0.00623 0.49132 0.0
H559 H 0.03543 0.02799 0.453 0.0
H560 H 0.03804 0.99228 0.54111 0.0
H561 H 0.04876 0.01433 0.58077 0.0
C562 C 0.89961 0.61455 0.79038 0.0
C563 C 0.92353 0.58879 0.80922 0.0
C564 C 0.94682 0.56098 0.75417 0.0
C565 C 0.92157 0.58544 0.73552 0.0
N566 N 0.87242 0.63416 0.7348 0.0
N567 N 0.96736 0.53552 0.81044 0.0
C568 C 0.89762 0.61193 0.75335 0.0
C569 C 0.94645 0.56139 0.79148 0.0
N570 N 0.87886 0.64172 0.80796 0.0
N571 N 0.97145 0.53785 0.73607 0.0
H572 H 0.96888 0.53617 0.83768 0.0
H573 H 0.98177 0.5123 0.79961 0.0
H574 H 0.97152 0.53618 0.70883 0.0
H575 H 0.99311 0.52179 0.74763 0.0
H576 H 0.86498 0.66463 0.79602 0.0
H577 H 0.87663 0.64273 0.83509 0.0
H578 H 0.85061 0.65031 0.74599 0.0
H579 H 0.87181 0.63534 0.70758 0.0
C580 C 0.39955 0.44985 0.03976 0.0
C581 C 0.42171 0.42159 0.05723 0.0
C582 C 0.44915 0.40353 1.00067 0.0
C583 C 0.42037 0.42482 0.98308 0.0
N584 N 0.36249 0.46318 0.98814 0.0
N585 N 0.46293 0.36571 0.05177 0.0
C586 C 0.39421 0.4471 1.00308 0.0
C587 C 0.44574 0.39706 0.03716 0.0
N588 N 0.38364 0.47943 0.05803 0.0
N589 N 0.47981 0.38946 0.98266 0.0
H590 H 0.45897 0.35718 0.07757 0.0
H591 H 0.47761 0.3454 0.03695 0.0
H592 H 0.48405 0.39503 0.95616 0.0
H593 H 0.50302 0.37637 0.99498 0.0
H594 H 0.36979 0.50232 0.04586 0.0
H595 H 0.38837 0.48336 0.08469 0.0
H596 H 0.34112 0.47643 1.00282 0.0
H597 H 0.35489 0.45956 0.96207 0.0
C598 C 0.55927 0.94327 0.28576 0.0
C599 C 0.57748 0.91268 0.30378 0.0
C600 C 0.5923 0.8812 0.24823 0.0
C601 C 0.5768 0.91311 0.23007 0.0
N602 N 0.54828 0.97589 0.2303 0.0
N603 N 0.61931 0.85739 0.30217 0.0
C604 C 0.56103 0.94463 0.24849 0.0
C605 C 0.59599 0.88281 0.28506 0.0
N606 N 0.53978 0.97047 0.30432 0.0
N607 N 0.60335 0.84913 0.2303 0.0
H608 H 0.6243 0.85817 0.32903 0.0
H609 H 0.63695 0.83787 0.28936 0.0
H610 H 0.60248 0.84704 0.20313 0.0
H611 H 0.61043 0.82335 0.24247 0.0
H612 H 0.52373 0.99226 0.29296 0.0
H613 H 0.53781 0.96997 0.33155 0.0
H614 H 0.53992 0.0015 0.24191 0.0
H615 H 0.54797 0.97694 0.20303 0.0
C616 C 0.06853 0.44827 0.74601 0.0
C617 C 0.07032 0.41256 0.72826 0.0
C618 C 0.05204 0.37978 0.78232 0.0
C619 C 0.06029 0.41347 0.80151 0.0
N620 N 0.06633 0.48208 0.80168 0.0
N621 N 0.06791 0.34318 0.73096 0.0
C622 C 0.06525 0.44859 0.78323 0.0
C623 C 0.06275 0.37799 0.74667 0.0
N624 N 0.06912 0.48157 0.7272 0.0
N625 N 0.03276 0.35007 0.79745 0.0
H626 H 0.07768 0.34001 0.70539 0.0
H627 H 0.06641 0.31734 0.74462 0.0
H628 H 0.01978 0.35234 0.82187 0.0
H629 H 0.02422 0.32584 0.78357 0.0
H630 H 0.06557 0.50869 0.73796 0.0
H631 H 0.07049 0.48191 0.70001 0.0
H632 H 0.07414 0.50843 0.79114 0.0
H633 H 0.05902 0.48322 0.82813 0.0
C634 C 0.56018 0.54876 1.00173 0.0
C635 C 0.58625 0.5735 0.98443 0.0
C636 C 0.60528 0.60181 0.04022 0.0
C637 C 0.58127 0.57533 0.05789 0.0
N638 N 0.5388 0.52106 0.05681 0.0
N639 N 0.63938 0.61769 0.98716 0.0
C640 C 0.55949 0.54799 0.03902 0.0
C641 C 0.61047 0.59834 1.00367 0.0
N642 N 0.53559 0.52682 0.98246 0.0
N643 N 0.62224 0.63112 0.0582 0.0
H644 H 0.64437 0.616 0.96032 0.0
H645 H 0.66069 0.63265 1.00043 0.0
H646 H 0.61951 0.63473 0.08512 0.0
H647 H 0.63631 0.65385 0.0461 0.0
H648 H 0.51328 0.51096 0.99321 0.0
H649 H 0.53614 0.52625 0.95519 0.0
H650 H 0.5252 0.49798 0.04489 0.0
H651 H 0.53713 0.52051 0.08405 0.0
C652 C 0.42708 0.04691 0.28901 0.0
C653 C 0.4084 0.07787 0.30606 0.0
C654 C 0.39224 0.10695 0.24963 0.0
C655 C 0.41046 0.07588 0.2324 0.0
N656 N 0.44673 0.01732 0.23404 0.0
N657 N 0.3651 0.13184 0.30315 0.0
C658 C 0.42812 0.0459 0.25166 0.0
C659 C 0.38892 0.10651 0.28654 0.0
N660 N 0.44305 0.01832 0.30871 0.0
N661 N 0.37892 0.13753 0.23072 0.0
H662 H 0.3608 0.13209 0.33012 0.0
H663 H 0.34657 0.15032 0.29008 0.0
H664 H 0.37918 0.13856 0.20349 0.0
H665 H 0.37018 0.16326 0.24194 0.0
H666 H 0.45415 0.99303 0.29861 0.0
H667 H 0.44406 0.01922 0.33596 0.0
H668 H 0.46226 0.99546 0.24586 0.0
H669 H 0.44758 0.01597 0.2068 0.0
C670 C 0.89848 0.87964 0.50383 0.0
C671 C 0.91325 0.91122 0.48454 0.0
C672 C 0.93022 0.94415 0.53914 0.0
C673 C 0.91342 0.91367 0.55822 0.0
N674 N 0.87814 0.85422 0.5598 0.0
N675 N 0.94024 0.97473 0.48272 0.0
C676 C 0.89697 0.88172 0.54086 0.0
C677 C 0.92832 0.94386 0.50191 0.0
N678 N 0.88531 0.84777 0.48676 0.0
N679 N 0.94859 0.97287 0.55673 0.0
H680 H 0.94137 0.97456 0.45546 0.0
H681 H 0.94717 0.00118 0.4935 0.0
H682 H 0.95003 0.97389 0.58397 0.0
H683 H 0.96437 0.99439 0.54464 0.0
H684 H 0.87991 0.82171 0.49906 0.0
H685 H 0.88111 0.84638 0.45984 0.0
H686 H 0.86122 0.83287 0.54883 0.0
H687 H 0.87716 0.85392 0.58702 0.0
C688 C 0.22768 0.08549 0.14263 0.0
C689 C 0.24785 0.11452 0.12423 0.0
C690 C 0.21271 0.16384 0.15698 0.0
C691 C 0.19273 0.13487 0.17563 0.0
N692 N 0.17336 0.0687 0.17921 0.0
N693 N 0.24963 0.18081 0.10575 0.0
C694 C 0.19772 0.0958 0.16619 0.0
C695 C 0.23682 0.15347 0.12848 0.0
N696 N 0.23792 0.04804 0.13811 0.0
N697 N 0.21083 0.20112 0.16786 0.0
H698 H 0.26713 0.17485 0.08446 0.0
H699 H 0.23941 0.20885 0.10575 0.0
H700 H 0.1947 0.21001 0.18928 0.0
H701 H 0.22816 0.22274 0.1578 0.0
H702 H 0.228 0.0258 0.15386 0.0
H703 H 0.25769 0.03953 0.11918 0.0
H704 H 0.17325 0.04027 0.17097 0.0
H705 H 0.15082 0.07542 0.19601 0.0
C706 C 0.90496 0.70183 0.42158 0.0
C707 C 0.86585 0.69404 0.42903 0.0
C708 C 0.84769 0.73239 0.37772 0.0
C709 C 0.88527 0.74758 0.37581 0.0
N710 N 0.95099 0.74464 0.39432 0.0
N711 N 0.79927 0.70611 0.41587 0.0
C712 C 0.91439 0.73129 0.39712 0.0
C713 C 0.83701 0.71003 0.40727 0.0
N714 N 0.93298 0.68051 0.43717 0.0
N715 N 0.82214 0.73887 0.35138 0.0
H716 H 0.78987 0.6915 0.43804 0.0
H717 H 0.77759 0.72096 0.40301 0.0
H718 H 0.82943 0.75309 0.3284 0.0
H719 H 0.79535 0.72579 0.35041 0.0
H720 H 0.96182 0.68254 0.43056 0.0
H721 H 0.927 0.65814 0.45441 0.0
H722 H 0.97264 0.73779 0.41198 0.0
H723 H 0.95916 0.7638 0.37471 0.0
C724 C 0.28927 0.33227 0.65495 0.0
C725 C 0.30633 0.36139 0.67563 0.0
C726 C 0.26902 0.40996 0.64377 0.0
C727 C 0.25108 0.38055 0.62405 0.0
N728 N 0.25762 0.31667 0.60057 0.0
N729 N 0.32161 0.42841 0.68178 0.0
C730 C 0.26573 0.34269 0.6261 0.0
C731 C 0.29919 0.40049 0.66742 0.0
N732 N 0.29329 0.29461 0.66402 0.0
N733 N 0.2565 0.44685 0.64034 0.0
H734 H 0.34444 0.42223 0.69845 0.0
H735 H 0.31996 0.45718 0.67469 0.0
H736 H 0.23671 0.45486 0.62122 0.0
H737 H 0.26471 0.46897 0.65699 0.0
H738 H 0.27764 0.27283 0.65219 0.0
H739 H 0.30914 0.28537 0.68551 0.0
H740 H 0.27026 0.28963 0.59958 0.0
H741 H 0.2426 0.32376 0.57797 0.0
C742 C 0.66947 0.76646 0.93023 0.0
C743 C 0.64634 0.79974 0.92867 0.0
C744 C 0.61025 0.77214 0.87934 0.0
C745 C 0.63013 0.7371 0.88398 0.0
N746 N 0.67712 0.69961 0.91543 0.0
N747 N 0.59413 0.83492 0.90299 0.0
C748 C 0.65962 0.73409 0.90963 0.0
C749 C 0.61679 0.80298 0.90326 0.0
N750 N 0.70108 0.76591 0.95138 0.0
N751 N 0.58511 0.7757 0.85218 0.0
H752 H 0.59883 0.85819 0.91956 0.0
H753 H 0.5696 0.83773 0.88777 0.0
H754 H 0.57978 0.75333 0.83474 0.0
H755 H 0.57177 0.80128 0.84529 0.0
H756 H 0.72122 0.74396 0.95145 0.0
H757 H 0.70903 0.78889 0.96719 0.0
H758 H 0.69478 0.69383 0.93671 0.0
H759 H 0.6722 0.67566 0.89998 0.0
C760 C 0.18939 0.38708 0.12703 0.0
C761 C 0.19134 0.35275 0.10714 0.0
C762 C 0.24804 0.33274 0.14046 0.0
C763 C 0.24907 0.36913 0.15711 0.0
N764 N 0.22217 0.4318 0.16558 0.0
N765 N 0.22506 0.29486 0.09172 0.0
C766 C 0.2199 0.39646 0.1504 0.0
C767 C 0.22108 0.32586 0.11329 0.0
N768 N 0.15819 0.41045 0.12375 0.0
N769 N 0.27342 0.30488 0.15025 0.0
H770 H 0.206 0.28856 0.07156 0.0
H771 H 0.24908 0.2772 0.09169 0.0
H772 H 0.29412 0.30912 0.16941 0.0
H773 H 0.27201 0.27663 0.14162 0.0
H774 H 0.1531 0.43402 0.13974 0.0
H775 H 0.13575 0.40461 0.10655 0.0
H776 H 0.20463 0.45477 0.15883 0.0
H777 H 0.24303 0.43856 0.18412 0.0
C778 C 0.58778 0.72803 0.39588 0.0
C779 C 0.6175 0.7499 0.41138 0.0
C780 C 0.665 0.71579 0.37566 0.0
C781 C 0.63537 0.69378 0.36022 0.0
N782 N 0.56992 0.67213 0.36171 0.0
N783 N 0.68507 0.75695 0.42317 0.0
C784 C 0.59712 0.69771 0.37234 0.0
C785 C 0.65632 0.74093 0.40386 0.0
N786 N 0.55055 0.73709 0.40297 0.0
N787 N 0.70103 0.71488 0.36178 0.0
H788 H 0.68022 0.77599 0.44362 0.0
H789 H 0.71359 0.74862 0.42104 0.0
H790 H 0.70879 0.69728 0.34094 0.0
H791 H 0.72232 0.73426 0.36868 0.0
H792 H 0.52738 0.72573 0.38936 0.0
H793 H 0.54302 0.75742 0.42177 0.0
H794 H 0.54231 0.67126 0.3719 0.0
H795 H 0.576 0.64948 0.34482 0.0
C796 C 0.25329 0.15574 0.65472 0.0
C797 C 0.24595 0.11676 0.66311 0.0
C798 C 0.30073 0.09765 0.62664 0.0
C799 C 0.30341 0.1357 0.6136 0.0
N800 N 0.27865 0.2002 0.61207 0.0
N801 N 0.2621 0.05015 0.657 0.0
C802 C 0.27919 0.16471 0.62721 0.0
C803 C 0.26981 0.08758 0.64928 0.0
N804 N 0.23492 0.18433 0.67245 0.0
N805 N 0.32789 0.0713 0.61754 0.0
H806 H 0.2411 0.04225 0.67505 0.0
H807 H 0.27523 0.0271 0.64458 0.0
H808 H 0.35084 0.07792 0.60115 0.0
H809 H 0.32957 0.044 0.62845 0.0
H810 H 0.24191 0.2132 0.66977 0.0
H811 H 0.21505 0.17924 0.69219 0.0
H812 H 0.25776 0.22053 0.61755 0.0
H813 H 0.29656 0.20822 0.59156 0.0
C814 C 0.83682 0.75638 0.90458 0.0
C815 C 0.87599 0.75131 0.91366 0.0
C816 C 0.89274 0.80677 0.87691 0.0
C817 C 0.85477 0.80765 0.86359 0.0
N818 N 0.7913 0.78049 0.86204 0.0
N819 N 0.94167 0.77081 0.90809 0.0
C820 C 0.8268 0.78208 0.87708 0.0
C821 C 0.90404 0.77654 0.8999 0.0
N822 N 0.80914 0.73602 0.9217 0.0
N823 N 0.9178 0.83519 0.86792 0.0
H824 H 0.95043 0.75046 0.92645 0.0
H825 H 0.96416 0.78492 0.8957 0.0
H826 H 0.91035 0.85772 0.8513 0.0
H827 H 0.94477 0.83829 0.87913 0.0
H828 H 0.78 0.74106 0.91854 0.0
H829 H 0.81502 0.71617 0.94132 0.0
H830 H 0.77118 0.7594 0.86773 0.0
H831 H 0.78285 0.79825 0.84151 0.0
C832 C 0.71915 0.66503 0.66341 0.0
C833 C 0.69715 0.63519 0.67857 0.0
C834 C 0.73293 0.58778 0.64393 0.0
C835 C 0.75464 0.61776 0.62858 0.0
N836 N 0.76076 0.68548 0.6164 0.0
N837 N 0.67662 0.56931 0.67728 0.0
C838 C 0.7449 0.65654 0.63565 0.0
C839 C 0.70194 0.59686 0.66682 0.0
N840 N 0.71774 0.70111 0.67723 0.0
N841 N 0.74273 0.55059 0.63732 0.0
H842 H 0.6536 0.57518 0.6938 0.0
H843 H 0.67641 0.54156 0.66732 0.0
H844 H 0.76365 0.54322 0.61903 0.0
H845 H 0.73139 0.52732 0.65087 0.0
H846 H 0.7372 0.72245 0.67062 0.0
H847 H 0.69981 0.70882 0.69781 0.0
H848 H 0.75183 0.71389 0.6182 0.0
H849 H 0.78032 0.68089 0.59632 0.0
C850 C 0.38607 0.19256 0.90676 0.0
C851 C 0.35292 0.19385 0.92829 0.0
C852 C 0.33532 0.25614 0.90332 0.0
C853 C 0.36842 0.25502 0.88162 0.0
N854 N 0.42172 0.22027 0.85807 0.0
N855 N 0.29225 0.22269 0.94256 0.0
C856 C 0.39261 0.22243 0.88182 0.0
C857 C 0.32626 0.22423 0.92491 0.0
N858 N 0.41183 0.16344 0.91109 0.0
N859 N 0.3138 0.28884 0.9049 0.0
H860 H 0.28496 0.2005 0.95957 0.0
H861 H 0.26998 0.24197 0.93856 0.0
H862 H 0.31887 0.31242 0.88896 0.0
H863 H 0.29253 0.29381 0.92339 0.0
H864 H 0.43848 0.16255 0.89901 0.0
H865 H 0.40727 0.14071 0.92836 0.0
H866 H 0.43889 0.1962 0.85461 0.0
H867 H 0.42676 0.24189 0.83974 0.0
C868 C 0.80016 0.89523 0.165 0.0
C869 C 0.80363 0.85676 0.17687 0.0
C870 C 0.75436 0.83721 0.13459 0.0
C871 C 0.74638 0.87636 0.12722 0.0
N872 N 0.76084 0.94304 0.13581 0.0
N873 N 0.78089 0.79145 0.17567 0.0
C874 C 0.7693 0.90549 0.14237 0.0
C875 C 0.7803 0.82769 0.16201 0.0
N876 N 0.82675 0.92178 0.17494 0.0
N877 N 0.73659 0.80897 0.1159 0.0
H878 H 0.79875 0.78326 0.19619 0.0
H879 H 0.76126 0.77028 0.16888 0.0
H880 H 0.7166 0.81448 0.09634 0.0
H881 H 0.74415 0.78015 0.1176 0.0
H882 H 0.82793 0.94943 0.16475 0.0
H883 H 0.84979 0.91511 0.1912 0.0
H884 H 0.77316 0.96581 0.14929 0.0
H885 H 0.73998 0.95127 0.11774 0.0
C886 C 0.15588 0.26139 0.37664 0.0
C887 C 0.1175 0.24823 0.37415 0.0
C888 C 0.09868 0.29723 0.41724 0.0
C889 C 0.13786 0.30375 0.42526 0.0
N890 N 0.20432 0.28888 0.41423 0.0
N891 N 0.05142 0.25544 0.39049 0.0
C892 C 0.16665 0.28545 0.40505 0.0
C893 C 0.08857 0.26706 0.3938 0.0
N894 N 0.18226 0.25112 0.35207 0.0
N895 N 0.07124 0.32039 0.43143 0.0
H896 H 0.04287 0.23574 0.37151 0.0
H897 H 0.02957 0.26423 0.40716 0.0
H898 H 0.07778 0.34316 0.44802 0.0
H899 H 0.0425 0.31937 0.4243 0.0
H900 H 0.20934 0.26346 0.35083 0.0
H901 H 0.17585 0.23431 0.33043 0.0
H902 H 0.22604 0.27263 0.40287 0.0
H903 H 0.21362 0.30517 0.4354 0.0
C904 C 0.69789 0.9031 0.61837 0.0
C905 C 0.69141 0.86373 0.61088 0.0
C906 C 0.73043 0.84669 0.66203 0.0
C907 C 0.74435 0.88479 0.66394 0.0
N908 N 0.73916 0.95052 0.64558 0.0
N909 N 0.70587 0.79748 0.6238 0.0
C910 C 0.72706 0.91345 0.64275 0.0
C911 C 0.70844 0.83534 0.63251 0.0
N912 N 0.67562 0.93048 0.6029 0.0
N913 N 0.73774 0.82127 0.68833 0.0
H914 H 0.69161 0.78763 0.60163 0.0
H915 H 0.72155 0.77629 0.63654 0.0
H916 H 0.75163 0.829 0.71132 0.0
H917 H 0.72556 0.79403 0.68926 0.0
H918 H 0.6767 0.95939 0.60954 0.0
H919 H 0.65345 0.92378 0.58572 0.0
H920 H 0.73152 0.97203 0.628 0.0
H921 H 0.75809 0.95927 0.66514 0.0
C922 C 0.0826 0.2301 0.89044 0.0
C923 C 0.11129 0.24895 0.91031 0.0
C924 C 0.16084 0.21206 0.87967 0.0
C925 C 0.13225 0.1932 0.85968 0.0
N926 N 0.06573 0.17617 0.85344 0.0
N927 N 0.17623 0.24727 0.93219 0.0
C928 C 0.09298 0.19967 0.86742 0.0
C929 C 0.14984 0.23622 0.90789 0.0
N930 N 0.04544 0.2419 0.89313 0.0
N931 N 0.19853 0.20914 0.87037 0.0
H932 H 0.16988 0.2647 0.95343 0.0
H933 H 0.20347 0.2353 0.93355 0.0
H934 H 0.20798 0.19314 0.84906 0.0
H935 H 0.22008 0.22567 0.88162 0.0
H936 H 0.02385 0.23296 0.87623 0.0
H937 H 0.03662 0.26197 0.91169 0.0
H938 H 0.03696 0.17721 0.86049 0.0
H939 H 0.07245 0.15316 0.83719 0.0
C940 C 0.77149 0.60661 0.09964 0.0
C941 C 0.79548 0.63777 0.10819 0.0
C942 C 0.76307 0.64029 0.16544 0.0
C943 C 0.73365 0.61546 0.15289 0.0
N944 N 0.70545 0.58993 0.09917 0.0
N945 N 0.80916 0.68901 0.14897 0.0
C946 C 0.73651 0.6025 0.11752 0.0
C947 C 0.79001 0.65606 0.14113 0.0
N948 N 0.78179 0.58057 0.0748 0.0
N949 N 0.7665 0.64794 0.20027 0.0
H950 H 0.8276 0.7025 0.13146 0.0
H951 H 0.80347 0.70493 0.17144 0.0
H952 H 0.74992 0.63442 0.21925 0.0
H953 H 0.78916 0.6638 0.2105 0.0
H954 H 0.76506 0.55653 0.06931 0.0
H955 H 0.80876 0.58066 0.0631 0.0
H956 H 0.70738 0.58191 0.07293 0.0
H957 H 0.67746 0.59425 0.10749 0.0
C958 C 0.37729 0.30422 0.3849 0.0
C959 C 0.3468 0.29976 0.36057 0.0
C960 C 0.3337 0.23543 0.38367 0.0
C961 C 0.36463 0.23948 0.40765 0.0
N962 N 0.41185 0.2789 0.43541 0.0
N963 N 0.29252 0.26392 0.33957 0.0
C964 C 0.38508 0.27444 0.40969 0.0
C965 C 0.32377 0.26629 0.36105 0.0
N966 N 0.39951 0.33642 0.38335 0.0
N967 N 0.31496 0.20112 0.38149 0.0
H968 H 0.28502 0.28518 0.32168 0.0
H969 H 0.27257 0.24188 0.34043 0.0
H970 H 0.31983 0.17886 0.39898 0.0
H971 H 0.29582 0.19371 0.3618 0.0
H972 H 0.42448 0.34026 0.39772 0.0
H973 H 0.39378 0.35905 0.36626 0.0
H974 H 0.42618 0.30442 0.44043 0.0
H975 H 0.41777 0.25736 0.4536 0.0
C976 C 0.03888 -0.00207 0.29638 0.0
C977 C 0.01862 0.0332 0.29529 0.0
C978 C 0.9576 -0.00089 0.29314 0.0
C979 C 0.97782 0.96392 0.29553 0.0
N980 N 0.03655 0.92886 0.28893 0.0
N981 N 0.96075 0.06768 0.2825 0.0
C982 C 0.01819 0.9631 0.29331 0.0
C983 C 0.97857 0.03379 0.28996 0.0
N984 N 0.07739 0.99759 0.3027 0.0
N985 N 0.91863 -0.00038 0.29622 0.0
H986 H 0.97577 0.09342 0.28019 0.0
H987 H 0.93204 0.06972 0.27542 0.0
H988 H 0.90218 0.97479 0.29799 0.0
H989 H 0.90272 0.02467 0.29901 0.0
H990 H 0.09281 0.97273 0.30809 0.0
H991 H 0.09376 0.02244 0.30467 0.0
H992 H 0.06579 0.9265 0.28415 0.0
H993 H 0.02173 0.903 0.28673 0.0
C994 C 0.03845 0.51891 0.54297 0.0
C995 C 0.0369 0.47864 0.54683 0.0
C996 C 0.96702 0.48077 0.54359 0.0
C997 C 0.96865 0.521 0.54746 0.0
N998 N 0.00558 0.57933 0.55125 0.0
N999 N -9e-05 0.42036 0.55158 0.0
C1000 C 0.00426 0.54053 0.54648 0.0
C1001 C 0.00125 0.45914 0.54656 0.0
N1002 N 0.07279 0.53629 0.53668 0.0
N1003 N 0.93256 0.46342 0.53779 0.0
H1004 H 0.02429 0.4033 0.55355 0.0
H1005 H 0.97462 0.40533 0.55596 0.0
H1006 H 0.90712 0.47897 0.53566 0.0
H1007 H 0.92971 0.43446 0.53178 0.0
H1008 H 0.07554 0.56528 0.53071 0.0
H1009 H 0.0982 0.52076 0.53417 0.0
H1010 H 0.03089 0.59447 0.55509 0.0
H1011 H 0.98114 0.59629 0.55339 0.0
C1012 C 0.4596 0.49797 0.79774 0.0
C1013 C 0.47874 0.46205 0.7983 0.0
C1014 C 0.54084 0.49406 0.79683 0.0
C1015 C 0.52168 0.52993 0.79747 0.0
N1016 N 0.46443 0.56655 0.78787 0.0
N1017 N 0.53585 0.42531 0.78819 0.0
C1018 C 0.48149 0.53195 0.79399 0.0
C1019 C 0.51889 0.45998 0.79411 0.0
N1020 N 0.42099 0.49986 0.80322 0.0
N1021 N 0.57964 0.49242 0.80115 0.0
H1022 H 0.5201 0.39997 0.78626 0.0
H1023 H 0.56469 0.42215 0.78198 0.0
H1024 H 0.59683 0.51677 0.80258 0.0
H1025 H 0.5946 0.46701 0.80527 0.0
H1026 H 0.40631 0.52543 0.80737 0.0
H1027 H 0.40373 0.4757 0.80588 0.0
H1028 H 0.43545 0.56963 0.78213 0.0
H1029 H 0.48019 0.5918 0.78519 0.0
C1030 C 0.49862 0.03766 0.044 0.0
C1031 C 0.46375 0.01676 0.04428 0.0
C1032 C 0.49894 0.95623 0.04249 0.0
C1033 C 0.5338 0.97711 0.0434 0.0
N1034 N 0.56735 0.03634 0.0345 0.0
N1035 N 0.43016 0.95791 0.03344 0.0
C1036 C 0.53369 0.01748 0.04027 0.0
C1037 C 0.46383 0.97654 0.03974 0.0
N1038 N 0.49846 0.07632 0.04969 0.0
N1039 N 0.49919 0.91732 0.04666 0.0
H1040 H 0.40409 0.9724 0.03146 0.0
H1041 H 0.42855 0.92898 0.02692 0.0
H1042 H 0.52427 0.90125 0.04822 0.0
H1043 H 0.47454 0.90113 0.05061 0.0
H1044 H 0.52317 0.09228 0.05402 0.0
H1045 H 0.47342 0.0923 0.05228 0.0
H1046 H 0.56896 0.06554 0.02904 0.0
H1047 H 0.59335 0.02187 0.03183 0.0
C1048 C 0.03613 0.49807 0.99719 0.0
C1049 C 0.01466 0.46394 0.99223 0.0
C1050 C 0.9553 0.50089 0.98979 0.0
C1051 C 0.97676 0.53505 0.99452 0.0
N1052 N 0.03514 0.56554 1.01259 0.0
N1053 N 0.95403 0.43153 0.99419 0.0
C1054 C 0.01639 0.53328 1.00189 0.0
C1055 C 0.9742 0.46499 0.99237 0.0
N1056 N 0.07515 0.49742 0.99486 0.0
N1057 N 0.91757 0.50269 0.98044 0.0
H1058 H 0.96746 0.40485 0.99597 0.0
H1059 H 0.92444 0.43047 0.99738 0.0
H1060 H 0.90249 0.52835 0.97824 0.0
H1061 H 0.90185 0.47888 0.97253 0.0
H1062 H 0.09189 0.52209 0.99406 0.0
H1063 H 0.09086 0.47236 0.99122 0.0
H1064 H 0.0634 0.56546 0.02127 0.0
H1065 H 0.02113 0.59171 1.01599 0.0
C1066 C 0.45124 0.52106 0.24576 0.0
C1067 C 0.45298 0.48061 0.24393 0.0
C1068 C 0.52238 0.48296 0.2522 0.0
C1069 C 0.52124 0.52286 0.24608 0.0
N1070 N 0.48508 0.581 0.23749 0.0
N1071 N 0.49022 0.42217 0.2447 0.0
C1072 C 0.48575 0.54246 0.2438 0.0
C1073 C 0.48847 0.46116 0.24781 0.0
N1074 N 0.41652 0.53877 0.24865 0.0
N1075 N 0.55621 0.46602 0.26129 0.0
H1076 H 0.46613 0.40496 0.24156 0.0
H1077 H 0.51581 0.40698 0.24298 0.0
H1078 H 0.58138 0.48175 0.26446 0.0
H1079 H 0.55848 0.43746 0.26897 0.0
H1080 H 0.41333 0.56806 0.25294 0.0
H1081 H 0.39093 0.52341 0.24998 0.0
H1082 H 0.46028 0.5961 0.23125 0.0
H1083 H 0.50978 0.59772 0.23673 0.0
C1084 C 0.47886 0.96333 0.49725 0.0
C1085 C 0.51895 0.96393 0.49247 0.0
C1086 C 0.51855 0.03397 0.49515 0.0
C1087 C 0.47823 0.03322 0.49228 0.0
N1088 N 0.4191 0.99743 0.4898 0.0
N1089 N 0.57789 -0.00055 0.48635 0.0
C1090 C 0.45796 -0.002 0.49389 0.0
C1091 C 0.53927 -0.00085 0.49205 0.0
N1092 N 0.46093 0.9294 0.50427 0.0
N1093 N 0.53684 0.06811 0.50016 0.0
H1094 H 0.59424 0.97456 0.48446 0.0
H1095 H 0.59344 0.02433 0.48146 0.0
H1096 H 0.522 0.09398 0.50237 0.0
H1097 H 0.566 0.07036 0.50542 0.0
H1098 H 0.43211 0.92739 0.51097 0.0
H1099 H 0.47592 0.90364 0.50669 0.0
H1100 H 0.40339 0.97236 0.48643 0.0
H1101 H 0.40258 0.02218 0.48759 0.0
C1102 C 0.02993 0.97842 0.74785 0.0
C1103 C 0.03075 0.01858 0.74299 0.0
C1104 C 0.96085 0.02073 0.74638 0.0
C1105 C 0.96008 0.98036 0.74359 0.0
N1106 N 0.99367 0.91988 0.74076 0.0
N1107 N -0.00285 0.07874 0.73647 0.0
C1108 C 0.99453 0.95878 0.74485 0.0
C1109 C 0.99628 0.04017 0.74269 0.0
N1110 N 0.06318 0.95919 0.75465 0.0
N1111 N 0.92752 0.04031 0.75182 0.0
H1112 H 0.02246 0.09424 0.7338 0.0
H1113 H 0.97274 0.09507 0.73171 0.0
H1114 H 0.90122 0.02641 0.75445 0.0
H1115 H 0.92644 0.06957 0.75706 0.0
H1116 H 0.06418 0.93029 0.76142 0.0
H1117 H 0.08948 0.9732 0.7568 0.0
H1118 H 0.0181 0.90326 0.73712 0.0
H1119 H 0.96835 0.90427 0.73882 0.0
C1120 C 0.25508 0.13376 0.42158 0.0
C1121 C 0.27978 0.10175 0.4167 0.0
C1122 C 0.23275 0.07226 0.37723 0.0
C1123 C 0.21052 0.10604 0.37944 0.0
N1124 N 0.20355 0.17177 0.39806 0.0
N1125 N 0.29349 0.041 0.38953 0.0
C1126 C 0.22241 0.13742 0.40021 0.0
C1127 C 0.26894 0.07102 0.3944 0.0
N1128 N 0.26279 0.16136 0.44602 0.0
N1129 N 0.21892 0.04141 0.35926 0.0
H1130 H 0.31877 0.03797 0.40381 0.0
H1131 H 0.28957 0.01986 0.3707 0.0
H1132 H 0.193 0.04223 0.34569 0.0
H1133 H 0.23186 0.01454 0.35928 0.0
H1134 H 0.24253 0.18138 0.45416 0.0
H1135 H 0.28813 0.16362 0.46002 0.0
H1136 H 0.21389 0.19713 0.40884 0.0
H1137 H 0.17945 0.17608 0.38255 0.0
C1138 C 0.85792 0.72384 0.65586 0.0
C1139 C 0.88919 0.71401 0.63395 0.0
C1140 C 0.91925 0.77588 0.64619 0.0
C1141 C 0.88596 0.78692 0.66495 0.0
N1142 N 0.81921 0.77509 0.67821 0.0
N1143 N 0.94789 0.73113 0.60501 0.0
C1144 C 0.85418 0.76187 0.66749 0.0
C1145 C 0.91944 0.74021 0.62806 0.0
N1146 N 0.83137 0.69706 0.66549 0.0
N1147 N 0.95075 0.79906 0.64645 0.0
H1148 H 0.94908 0.70475 0.59221 0.0
H1149 H 0.96877 0.75046 0.5969 0.0
H1150 H 0.95144 0.82502 0.65996 0.0
H1151 H 0.97703 0.79126 0.63578 0.0
H1152 H 0.81124 0.70185 0.68513 0.0
H1153 H 0.83096 0.66916 0.65601 0.0
H1154 H 0.7943 0.75884 0.67657 0.0
H1155 H 0.81379 0.80352 0.68473 0.0
C1156 C 0.21819 0.35798 0.8861 0.0
C1157 C 0.20608 0.389 0.90726 0.0
C1158 C 0.26696 0.42196 0.89735 0.0
C1159 C 0.27821 0.39175 0.8746 0.0
N1160 N 0.26216 0.33297 0.84359 0.0
N1161 N 0.2158 0.45202 0.93085 0.0
C1162 C 0.25296 0.36066 0.86752 0.0
C1163 C 0.22959 0.42151 0.91233 0.0
N1164 N 0.1974 0.32471 0.88539 0.0
N1165 N 0.29219 0.45077 0.90477 0.0
H1166 H 0.18891 0.45177 0.94273 0.0
H1167 H 0.22982 0.47821 0.93292 0.0
H1168 H 0.31865 0.45335 0.89235 0.0
H1169 H 0.2877 0.4713 0.92405 0.0
H1170 H 0.20731 0.29921 0.87455 0.0
H1171 H 0.17149 0.32121 0.89842 0.0
H1172 H 0.24207 0.3142 0.83304 0.0
H1173 H 0.28914 0.32909 0.83276 0.0
C1174 C 0.63729 0.77329 0.15237 0.0
C1175 C 0.6097 0.78319 0.12659 0.0
C1176 C 0.57852 0.72083 0.13393 0.0
C1177 C 0.60771 0.7102 0.15789 0.0
N1178 N 0.66983 0.72294 0.18346 0.0
N1179 N 0.55674 0.76594 0.08961 0.0
C1180 C 0.63832 0.73555 0.16552 0.0
C1181 C 0.58113 0.75673 0.11626 0.0
N1182 N 0.66277 0.79994 0.1645 0.0
N1183 N 0.54781 0.69719 0.12913 0.0
H1184 H 0.55709 0.79264 0.07731 0.0
H1185 H 0.53781 0.74656 0.07829 0.0
H1186 H 0.54495 0.67111 0.14222 0.0
H1187 H 0.52384 0.70455 0.11441 0.0
H1188 H 0.67925 0.79594 0.18693 0.0
H1189 H 0.6661 0.82707 0.15368 0.0
H1190 H 0.69513 0.73856 0.18546 0.0
H1191 H 0.67251 0.69546 0.19363 0.0
C1192 C 0.73153 0.57437 0.90045 0.0
C1193 C 0.71974 0.60339 0.87671 0.0
C1194 C 0.78133 0.63582 0.88329 0.0
C1195 C 0.79164 0.60898 0.90961 0.0
N1196 N 0.77603 0.555 0.9461 0.0
N1197 N 0.73042 0.66685 0.85207 0.0
C1198 C 0.76654 0.57887 0.91911 0.0
C1199 C 0.74395 0.63523 0.86945 0.0
N1200 N 0.70962 0.54222 0.90442 0.0
N1201 N 0.80692 0.66276 0.87185 0.0
H1202 H 0.70282 0.66966 0.84234 0.0
H1203 H 0.74528 0.69266 0.8506 0.0
H1204 H 0.83304 0.66825 0.88384 0.0
H1205 H 0.80304 0.67851 0.84895 0.0
H1206 H 0.71802 0.51848 0.91902 0.0
H1207 H 0.68426 0.53797 0.89054 0.0
H1208 H 0.7573 0.53498 0.9568 0.0
H1209 H 0.80207 0.5569 0.95936 0.0
C1210 C 0.3574 0.21647 0.15472 0.0
C1211 C 0.38691 0.2073 0.13075 0.0
C1212 C 0.41797 0.26884 0.14243 0.0
C1213 C 0.38878 0.27747 0.16727 0.0
N1214 N 0.33617 0.25391 0.20348 0.0
N1215 N 0.44773 0.22126 0.10449 0.0
C1216 C 0.36055 0.2495 0.17574 0.0
C1217 C 0.41804 0.23248 0.12537 0.0
N1218 N 0.32484 0.19469 0.156 0.0
N1219 N 0.44546 0.29557 0.13523 0.0
H1220 H 0.44776 0.19516 0.09116 0.0
H1221 H 0.47312 0.23653 0.10176 0.0
H1222 H 0.44837 0.32079 0.14964 0.0
H1223 H 0.46485 0.29332 0.11469 0.0
H1224 H 0.3002 0.20287 0.16939 0.0
H1225 H 0.32071 0.17033 0.14082 0.0
H1226 H 0.32002 0.23136 0.21356 0.0
H1227 H 0.33326 0.27841 0.21852 0.0
C1228 C 0.77101 0.9195 0.39371 0.0
C1229 C 0.78336 0.88624 0.37556 0.0
C1230 C 0.72119 0.85628 0.38445 0.0
C1231 C 0.71014 0.88752 0.40591 0.0
N1232 N 0.72492 0.94731 0.43411 0.0
N1233 N 0.77384 0.81888 0.36301 0.0
C1234 C 0.7352 0.91878 0.41155 0.0
C1235 C 0.75941 0.85358 0.3732 0.0
N1236 N 0.79308 0.9518 0.39317 0.0
N1237 N 0.69536 0.8288 0.37481 0.0
H1238 H 0.80246 0.81435 0.35673 0.0
H1239 H 0.75842 0.79343 0.36486 0.0
H1240 H 0.66732 0.82782 0.38384 0.0
H1241 H 0.70107 0.80847 0.35554 0.0
H1242 H 0.78428 0.97802 0.40335 0.0
H1243 H 0.81916 0.95312 0.37993 0.0
H1244 H 0.74342 0.969 0.44205 0.0
H1245 H 0.6984 0.94784 0.44666 0.0
C1246 C 0.13825 0.21799 0.63273 0.0
C1247 C 0.10831 0.20802 0.65611 0.0
C1248 C 0.07768 0.27012 0.64585 0.0
C1249 C 0.1098 0.28129 0.62554 0.0
N1250 N 0.1755 0.26935 0.60849 0.0
N1251 N 0.05155 0.22511 0.68817 0.0
C1252 C 0.14128 0.25613 0.62107 0.0
C1253 C 0.07853 0.23428 0.66372 0.0
N1254 N 0.1644 0.19132 0.62191 0.0
N1255 N 0.04622 0.29334 0.64729 0.0
H1256 H 0.05091 0.19854 0.70072 0.0
H1257 H 0.03141 0.24452 0.69759 0.0
H1258 H 0.04476 0.31943 0.634 0.0
H1259 H 0.02063 0.2855 0.65924 0.0
H1260 H 0.18326 0.19612 0.60125 0.0
H1261 H 0.16574 0.16349 0.63154 0.0
H1262 H 0.2004 0.25301 0.60838 0.0
H1263 H 0.18065 0.29785 0.60201 0.0
loop_
_geom_bond_atom_site_label_1
_geom_bond_atom_site_label_2
_geom_bond_distance
_geom_bond_site_symmetry_2
_ccdc_geom_bond_type
Co0 O3 1.970 . S
Co0 N17 1.989 . S
Co0 O25 1.967 . S
Co0 O32 1.920 . S
Co1 O4 1.966 . S
Co1 N10 2.022 . S
Co1 N18 1.993 . S
Co1 O26 1.941 . S
C2 O3 1.258 . S
C2 O4 1.263 . S
O3 Co0 1.970 . S
O3 C2 1.258 . S
O4 Co1 1.966 . S
O4 C2 1.263 . S
C5 O6 1.235 . S
C5 O32 1.289 . S
O6 C5 1.235 . S
C7 C9 1.400 . S
C7 N10 1.351 . S
C7 C12 1.501 . S
C8 C9 1.387 . S
C8 N11 1.341 . S
C9 C7 1.400 . S
C9 C8 1.387 . S
N10 Co1 2.022 . S
N10 C7 1.351 . S
N10 N11 1.365 . S
N11 C8 1.341 . S
N11 N10 1.365 . S
N11 H31 0.862 . S
C12 C7 1.501 . S
C12 H13 0.961 . S
C12 H14 0.961 . S
C12 H15 0.960 . S
H13 C12 0.961 . S
H14 C12 0.961 . S
H15 C12 0.960 . S
C16 N17 1.342 . S
C16 C20 1.401 . S
C16 C21 1.499 . S
N17 Co0 1.989 . S
N17 C16 1.342 . S
N17 N18 1.388 . S
N18 Co1 1.993 . S
N18 N17 1.388 . S
N18 C19 1.346 . S
C19 N18 1.346 . S
C19 C20 1.396 . S
C19 C29 1.510 . S
C20 C16 1.401 . S
C20 C19 1.396 . S
C21 C16 1.499 . S
C21 H22 0.959 . S
C21 H23 0.960 . S
C21 H24 0.961 . S
H22 C21 0.959 . S
H23 C21 0.960 . S
H24 C21 0.961 . S
O25 Co0 1.967 . S
O25 C33 1.258 . S
O26 Co1 1.941 . S
O26 C33 1.266 . S
H27 C29 0.959 . S
H28 C29 0.961 . S
C29 C19 1.510 . S
C29 H27 0.959 . S
C29 H28 0.961 . S
C29 H30 0.960 . S
H30 C29 0.960 . S
H31 N11 0.862 . S
O32 Co0 1.920 . S
O32 C5 1.289 . S
C33 O25 1.258 . S
C33 O26 1.266 . S
Co34 O37 1.970 . S
Co34 N51 1.989 . S
Co34 O59 1.967 . S
Co34 O66 1.920 . S
Co35 O38 1.966 . S
Co35 N44 2.022 . S
Co35 N52 1.993 . S
Co35 O60 1.941 . S
C36 O37 1.258 . S
C36 O38 1.263 . S
O37 Co34 1.970 . S
O37 C36 1.258 . S
O38 Co35 1.966 . S
O38 C36 1.263 . S
C39 O40 1.235 . S
C39 O66 1.289 . S
O40 C39 1.235 . S
C41 C43 1.400 . S
C41 N44 1.351 . S
C41 C46 1.501 . S
C42 C43 1.387 . S
C42 N45 1.341 . S
C43 C41 1.400 . S
C43 C42 1.387 . S
N44 Co35 2.022 . S
N44 C41 1.351 . S
N44 N45 1.365 . S
N45 C42 1.341 . S
N45 N44 1.365 . S
N45 H65 0.862 . S
C46 C41 1.501 . S
C46 H47 0.961 . S
C46 H48 0.961 . S
C46 H49 0.960 . S
H47 C46 0.961 . S
H48 C46 0.961 . S
H49 C46 0.960 . S
C50 N51 1.342 . S
C50 C54 1.401 . S
C50 C55 1.499 . S
N51 Co34 1.989 . S
N51 C50 1.342 . S
N51 N52 1.388 . S
N52 Co35 1.993 . S
N52 N51 1.388 . S
N52 C53 1.346 . S
C53 N52 1.346 . S
C53 C54 1.396 . S
C53 C63 1.510 . S
C54 C50 1.401 . S
C54 C53 1.396 . S
C55 C50 1.499 . S
C55 H56 0.959 . S
C55 H57 0.960 . S
C55 H58 0.961 . S
H56 C55 0.959 . S
H57 C55 0.960 . S
H58 C55 0.961 . S
O59 Co34 1.967 . S
O59 C67 1.258 . S
O60 Co35 1.941 . S
O60 C67 1.266 . S
H61 C63 0.959 . S
H62 C63 0.961 . S
C63 C53 1.510 . S
C63 H61 0.959 . S
C63 H62 0.961 . S
C63 H64 0.960 . S
H64 C63 0.960 . S
H65 N45 0.862 . S
O66 Co34 1.920 . S
O66 C39 1.289 . S
C67 O59 1.258 . S
C67 O60 1.266 . S
Co68 O71 1.970 . S
Co68 N85 1.989 . S
Co68 O93 1.967 . S
Co68 O100 1.920 . S
Co69 O72 1.966 . S
Co69 N78 2.022 . S
Co69 N86 1.993 . S
Co69 O94 1.941 . S
C70 O71 1.258 . S
C70 O72 1.263 . S
O71 Co68 1.970 . S
O71 C70 1.258 . S
O72 Co69 1.966 . S
O72 C70 1.263 . S
C73 O74 1.235 . S
C73 O100 1.289 . S
O74 C73 1.235 . S
C75 C77 1.400 . S
C75 N78 1.351 . S
C75 C80 1.501 . S
C76 C77 1.387 . S
C76 N79 1.341 . S
C77 C75 1.400 . S
C77 C76 1.387 . S
N78 Co69 2.022 . S
N78 C75 1.351 . S
N78 N79 1.365 . S
N79 C76 1.341 . S
N79 N78 1.365 . S
N79 H99 0.862 . S
C80 C75 1.501 . S
C80 H81 0.961 . S
C80 H82 0.961 . S
C80 H83 0.960 . S
H81 C80 0.961 . S
H82 C80 0.961 . S
H83 C80 0.960 . S
C84 N85 1.342 . S
C84 C88 1.401 . S
C84 C89 1.499 . S
N85 Co68 1.989 . S
N85 C84 1.342 . S
N85 N86 1.388 . S
N86 Co69 1.993 . S
N86 N85 1.388 . S
N86 C87 1.346 . S
C87 N86 1.346 . S
C87 C88 1.396 . S
C87 C97 1.510 . S
C88 C84 1.401 . S
C88 C87 1.396 . S
C89 C84 1.499 . S
C89 H90 0.959 . S
C89 H91 0.960 . S
C89 H92 0.961 . S
H90 C89 0.959 . S
H91 C89 0.960 . S
H92 C89 0.961 . S
O93 Co68 1.967 . S
O93 C101 1.258 . S
O94 Co69 1.941 . S
O94 C101 1.266 . S
H95 C97 0.959 . S
H96 C97 0.961 . S
C97 C87 1.510 . S
C97 H95 0.959 . S
C97 H96 0.961 . S
C97 H98 0.960 . S
H98 C97 0.960 . S
H99 N79 0.862 . S
O100 Co68 1.920 . S
O100 C73 1.289 . S
C101 O93 1.258 . S
C101 O94 1.266 . S
Co102 O105 1.970 . S
Co102 N119 1.989 . S
Co102 O127 1.967 . S
Co102 O134 1.920 . S
Co103 O106 1.966 . S
Co103 N112 2.022 . S
Co103 N120 1.993 . S
Co103 O128 1.941 . S
C104 O105 1.258 . S
C104 O106 1.263 . S
O105 Co102 1.970 . S
O105 C104 1.258 . S
O106 Co103 1.966 . S
O106 C104 1.263 . S
C107 O108 1.235 . S
C107 O134 1.289 . S
O108 C107 1.235 . S
C109 C111 1.400 . S
C109 N112 1.351 1_556 S
C109 C114 1.501 . S
C110 C111 1.387 . S
C110 N113 1.341 . S
C111 C109 1.400 . S
C111 C110 1.387 . S
N112 Co103 2.022 . S
N112 C109 1.351 1_554 S
N112 N113 1.365 1_554 S
N113 C110 1.341 . S
N113 N112 1.365 1_556 S
N113 H133 0.862 . S
C114 C109 1.501 . S
C114 H115 0.961 1_556 S
C114 H116 0.961 . S
C114 H117 0.960 . S
H115 C114 0.961 1_554 S
H116 C114 0.961 . S
H117 C114 0.960 . S
C118 N119 1.342 . S
C118 C122 1.401 . S
C118 C123 1.499 . S
N119 Co102 1.989 . S
N119 C118 1.342 . S
N119 N120 1.388 . S
N120 Co103 1.993 . S
N120 N119 1.388 . S
N120 C121 1.346 . S
C121 N120 1.346 . S
C121 C122 1.396 . S
C121 C131 1.510 . S
C122 C118 1.401 . S
C122 C121 1.396 . S
C123 C118 1.499 . S
C123 H124 0.959 . S
C123 H125 0.960 . S
C123 H126 0.961 . S
H124 C123 0.959 . S
H125 C123 0.960 . S
H126 C123 0.961 . S
O127 Co102 1.967 . S
O127 C135 1.258 . S
O128 Co103 1.941 . S
O128 C135 1.266 . S
H129 C131 0.959 1_556 S
H130 C131 0.961 1_556 S
C131 C121 1.510 . S
C131 H129 0.959 1_554 S
C131 H130 0.961 1_554 S
C131 H132 0.960 1_554 S
H132 C131 0.960 1_556 S
H133 N113 0.862 . S
O134 Co102 1.920 . S
O134 C107 1.289 . S
C135 O127 1.258 . S
C135 O128 1.266 . S
Co136 O139 1.970 . S
Co136 N153 1.989 . S
Co136 O161 1.967 . S
Co136 O168 1.920 . S
Co137 O140 1.966 . S
Co137 N146 2.022 . S
Co137 N154 1.993 . S
Co137 O162 1.941 . S
C138 O139 1.258 . S
C138 O140 1.263 . S
O139 Co136 1.970 . S
O139 C138 1.258 . S
O140 Co137 1.966 . S
O140 C138 1.263 . S
C141 O142 1.235 . S
C141 O168 1.289 . S
O142 C141 1.235 . S
C143 C145 1.400 . S
C143 N146 1.351 1_554 S
C143 C148 1.501 . S
C144 C145 1.387 . S
C144 N147 1.341 . S
C145 C143 1.400 . S
C145 C144 1.387 . S
N146 Co137 2.022 . S
N146 C143 1.351 1_556 S
N146 N147 1.365 1_556 S
N147 C144 1.341 . S
N147 N146 1.365 1_554 S
N147 H167 0.862 . S
C148 C143 1.501 . S
C148 H149 0.961 1_554 S
C148 H150 0.961 . S
C148 H151 0.960 . S
H149 C148 0.961 1_556 S
H150 C148 0.961 . S
H151 C148 0.960 . S
C152 N153 1.342 . S
C152 C156 1.401 . S
C152 C157 1.499 . S
N153 Co136 1.989 . S
N153 C152 1.342 . S
N153 N154 1.388 . S
N154 Co137 1.993 . S
N154 N153 1.388 . S
N154 C155 1.346 . S
C155 N154 1.346 . S
C155 C156 1.396 . S
C155 C165 1.510 . S
C156 C152 1.401 . S
C156 C155 1.396 . S
C157 C152 1.499 . S
C157 H158 0.959 . S
C157 H159 0.960 . S
C157 H160 0.961 . S
H158 C157 0.959 . S
H159 C157 0.960 . S
H160 C157 0.961 . S
O161 Co136 1.967 . S
O161 C169 1.258 . S
O162 Co137 1.941 . S
O162 C169 1.266 . S
H163 C165 0.959 1_554 S
H164 C165 0.961 1_554 S
C165 C155 1.510 . S
C165 H163 0.959 1_556 S
C165 H164 0.961 1_556 S
C165 H166 0.960 1_556 S
H166 C165 0.960 1_554 S
H167 N147 0.862 . S
O168 Co136 1.920 . S
O168 C141 1.289 . S
C169 O161 1.258 . S
C169 O162 1.266 . S
Co170 O173 1.970 . S
Co170 N187 1.989 . S
Co170 O195 1.967 . S
Co170 O202 1.920 . S
Co171 O174 1.966 . S
Co171 N180 2.022 . S
Co171 N188 1.993 . S
Co171 O196 1.941 . S
C172 O173 1.258 . S
C172 O174 1.263 . S
O173 Co170 1.970 . S
O173 C172 1.258 . S
O174 Co171 1.966 . S
O174 C172 1.263 . S
C175 O176 1.235 . S
C175 O202 1.289 . S
O176 C175 1.235 . S
C177 C179 1.400 . S
C177 N180 1.351 . S
C177 C182 1.501 . S
C178 C179 1.387 . S
C178 N181 1.341 . S
C179 C177 1.400 . S
C179 C178 1.387 . S
N180 Co171 2.022 . S
N180 C177 1.351 . S
N180 N181 1.365 . S
N181 C178 1.341 . S
N181 N180 1.365 . S
N181 H201 0.862 . S
C182 C177 1.501 . S
C182 H183 0.961 . S
C182 H184 0.961 . S
C182 H185 0.960 . S
H183 C182 0.961 . S
H184 C182 0.961 . S
H185 C182 0.960 . S
C186 N187 1.342 . S
C186 C190 1.401 . S
C186 C191 1.499 . S
N187 Co170 1.989 . S
N187 C186 1.342 . S
N187 N188 1.388 . S
N188 Co171 1.993 . S
N188 N187 1.388 . S
N188 C189 1.346 . S
C189 N188 1.346 . S
C189 C190 1.396 . S
C189 C199 1.510 . S
C190 C186 1.401 . S
C190 C189 1.396 . S
C191 C186 1.499 . S
C191 H192 0.959 . S
C191 H193 0.960 . S
C191 H194 0.961 . S
H192 C191 0.959 . S
H193 C191 0.960 . S
H194 C191 0.961 . S
O195 Co170 1.967 . S
O195 C203 1.258 . S
O196 Co171 1.941 . S
O196 C203 1.266 . S
H197 C199 0.959 . S
H198 C199 0.961 . S
C199 C189 1.510 . S
C199 H197 0.959 . S
C199 H198 0.961 . S
C199 H200 0.960 . S
H200 C199 0.960 . S
H201 N181 0.862 . S
O202 Co170 1.920 . S
O202 C175 1.289 . S
C203 O195 1.258 . S
C203 O196 1.266 . S
Co204 O207 1.970 . S
Co204 N221 1.989 . S
Co204 O229 1.967 . S
Co204 O236 1.920 . S
Co205 O208 1.966 . S
Co205 N214 2.022 . S
Co205 N222 1.993 . S
Co205 O230 1.941 . S
C206 O207 1.258 . S
C206 O208 1.263 . S
O207 Co204 1.970 . S
O207 C206 1.258 . S
O208 Co205 1.966 . S
O208 C206 1.263 . S
C209 O210 1.235 . S
C209 O236 1.289 . S
O210 C209 1.235 . S
C211 C213 1.400 . S
C211 N214 1.351 . S
C211 C216 1.501 . S
C212 C213 1.387 . S
C212 N215 1.341 . S
C213 C211 1.400 . S
C213 C212 1.387 . S
N214 Co205 2.022 . S
N214 C211 1.351 . S
N214 N215 1.365 . S
N215 C212 1.341 . S
N215 N214 1.365 . S
N215 H235 0.862 . S
C216 C211 1.501 . S
C216 H217 0.961 . S
C216 H218 0.961 . S
C216 H219 0.960 . S
H217 C216 0.961 . S
H218 C216 0.961 . S
H219 C216 0.960 . S
C220 N221 1.342 . S
C220 C224 1.401 . S
C220 C225 1.499 . S
N221 Co204 1.989 . S
N221 C220 1.342 . S
N221 N222 1.388 . S
N222 Co205 1.993 . S
N222 N221 1.388 . S
N222 C223 1.346 . S
C223 N222 1.346 . S
C223 C224 1.396 . S
C223 C233 1.510 . S
C224 C220 1.401 . S
C224 C223 1.396 . S
C225 C220 1.499 . S
C225 H226 0.959 . S
C225 H227 0.960 . S
C225 H228 0.961 . S
H226 C225 0.959 . S
H227 C225 0.960 . S
H228 C225 0.961 . S
O229 Co204 1.967 . S
O229 C237 1.258 . S
O230 Co205 1.941 . S
O230 C237 1.266 . S
H231 C233 0.959 . S
H232 C233 0.961 . S
C233 C223 1.510 . S
C233 H231 0.959 . S
C233 H232 0.961 . S
C233 H234 0.960 . S
H234 C233 0.960 . S
H235 N215 0.862 . S
O236 Co204 1.920 . S
O236 C209 1.289 . S
C237 O229 1.258 . S
C237 O230 1.266 . S
Co238 O241 1.970 . S
Co238 N255 1.989 . S
Co238 O263 1.967 . S
Co238 O270 1.920 . S
Co239 O242 1.966 . S
Co239 N248 2.022 . S
Co239 N256 1.993 . S
Co239 O264 1.941 . S
C240 O241 1.258 . S
C240 O242 1.263 . S
O241 Co238 1.970 . S
O241 C240 1.258 . S
O242 Co239 1.966 . S
O242 C240 1.263 . S
C243 O244 1.235 . S
C243 O270 1.289 . S
O244 C243 1.235 . S
C245 C247 1.400 . S
C245 N248 1.351 . S
C245 C250 1.501 . S
C246 C247 1.387 . S
C246 N249 1.341 . S
C247 C245 1.400 . S
C247 C246 1.387 . S
N248 Co239 2.022 . S
N248 C245 1.351 . S
N248 N249 1.365 . S
N249 C246 1.341 . S
N249 N248 1.365 . S
N249 H269 0.862 . S
C250 C245 1.501 . S
C250 H251 0.961 . S
C250 H252 0.961 . S
C250 H253 0.960 . S
H251 C250 0.961 . S
H252 C250 0.961 . S
H253 C250 0.960 . S
C254 N255 1.342 . S
C254 C258 1.401 . S
C254 C259 1.499 . S
N255 Co238 1.989 . S
N255 C254 1.342 . S
N255 N256 1.388 . S
N256 Co239 1.993 . S
N256 N255 1.388 . S
N256 C257 1.346 . S
C257 N256 1.346 . S
C257 C258 1.396 . S
C257 C267 1.510 . S
C258 C254 1.401 . S
C258 C257 1.396 . S
C259 C254 1.499 . S
C259 H260 0.959 . S
C259 H261 0.960 . S
C259 H262 0.961 . S
H260 C259 0.959 . S
H261 C259 0.960 . S
H262 C259 0.961 . S
O263 Co238 1.967 . S
O263 C271 1.258 . S
O264 Co239 1.941 . S
O264 C271 1.266 . S
H265 C267 0.959 . S
H266 C267 0.961 . S
C267 C257 1.510 . S
C267 H265 0.959 . S
C267 H266 0.961 . S
C267 H268 0.960 . S
H268 C267 0.960 . S
H269 N249 0.862 . S
O270 Co238 1.920 . S
O270 C243 1.289 . S
C271 O263 1.258 . S
C271 O264 1.266 . S
Co272 O275 1.970 . S
Co272 N289 1.989 . S
Co272 O297 1.967 . S
Co272 O304 1.920 . S
Co273 O276 1.966 . S
Co273 N282 2.022 . S
Co273 N290 1.993 . S
Co273 O298 1.941 . S
C274 O275 1.258 . S
C274 O276 1.263 . S
O275 Co272 1.970 . S
O275 C274 1.258 . S
O276 Co273 1.966 . S
O276 C274 1.263 . S
C277 O278 1.235 . S
C277 O304 1.289 . S
O278 C277 1.235 . S
C279 C281 1.400 . S
C279 N282 1.351 . S
C279 C284 1.501 . S
C280 C281 1.387 . S
C280 N283 1.341 . S
C281 C279 1.400 . S
C281 C280 1.387 . S
N282 Co273 2.022 . S
N282 C279 1.351 . S
N282 N283 1.365 . S
N283 C280 1.341 . S
N283 N282 1.365 . S
N283 H303 0.862 . S
C284 C279 1.501 . S
C284 H285 0.961 . S
C284 H286 0.961 . S
C284 H287 0.960 . S
H285 C284 0.961 . S
H286 C284 0.961 . S
H287 C284 0.960 . S
C288 N289 1.342 . S
C288 C292 1.401 . S
C288 C293 1.499 . S
N289 Co272 1.989 . S
N289 C288 1.342 . S
N289 N290 1.388 . S
N290 Co273 1.993 . S
N290 N289 1.388 . S
N290 C291 1.346 . S
C291 N290 1.346 . S
C291 C292 1.396 . S
C291 C301 1.510 . S
C292 C288 1.401 . S
C292 C291 1.396 . S
C293 C288 1.499 . S
C293 H294 0.959 . S
C293 H295 0.960 . S
C293 H296 0.961 . S
H294 C293 0.959 . S
H295 C293 0.960 . S
H296 C293 0.961 . S
O297 Co272 1.967 . S
O297 C305 1.258 . S
O298 Co273 1.941 . S
O298 C305 1.266 . S
H299 C301 0.959 . S
H300 C301 0.961 . S
C301 C291 1.510 . S
C301 H299 0.959 . S
C301 H300 0.961 . S
C301 H302 0.960 . S
H302 C301 0.960 . S
H303 N283 0.862 . S
O304 Co272 1.920 . S
O304 C277 1.289 . S
C305 O297 1.258 . S
C305 O298 1.266 . S
Co306 O309 1.970 . S
Co306 N323 1.989 . S
Co306 O331 1.967 . S
Co306 O338 1.920 . S
Co307 O310 1.966 . S
Co307 N316 2.022 . S
Co307 N324 1.993 . S
Co307 O332 1.941 . S
C308 O309 1.258 . S
C308 O310 1.263 . S
O309 Co306 1.970 . S
O309 C308 1.258 . S
O310 Co307 1.966 . S
O310 C308 1.263 . S
C311 O312 1.235 . S
C311 O338 1.289 . S
O312 C311 1.235 . S
C313 C315 1.400 . S
C313 N316 1.351 1_556 S
C313 C318 1.501 . S
C314 C315 1.387 . S
C314 N317 1.341 . S
C315 C313 1.400 . S
C315 C314 1.387 . S
N316 Co307 2.022 . S
N316 C313 1.351 1_554 S
N316 N317 1.365 1_554 S
N317 C314 1.341 . S
N317 N316 1.365 1_556 S
N317 H337 0.862 . S
C318 C313 1.501 . S
C318 H319 0.961 1_556 S
C318 H320 0.961 . S
C318 H321 0.960 . S
H319 C318 0.961 1_554 S
H320 C318 0.961 . S
H321 C318 0.960 . S
C322 N323 1.342 . S
C322 C326 1.401 . S
C322 C327 1.499 . S
N323 Co306 1.989 . S
N323 C322 1.342 . S
N323 N324 1.388 . S
N324 Co307 1.993 . S
N324 N323 1.388 . S
N324 C325 1.346 . S
C325 N324 1.346 . S
C325 C326 1.396 . S
C325 C335 1.510 . S
C326 C322 1.401 . S
C326 C325 1.396 . S
C327 C322 1.499 . S
C327 H328 0.959 . S
C327 H329 0.960 . S
C327 H330 0.961 . S
H328 C327 0.959 . S
H329 C327 0.960 . S
H330 C327 0.961 . S
O331 Co306 1.967 . S
O331 C339 1.258 . S
O332 Co307 1.941 . S
O332 C339 1.266 . S
H333 C335 0.959 1_556 S
H334 C335 0.961 1_556 S
C335 C325 1.510 . S
C335 H333 0.959 1_554 S
C335 H334 0.961 1_554 S
C335 H336 0.960 1_554 S
H336 C335 0.960 1_556 S
H337 N317 0.862 . S
O338 Co306 1.920 . S
O338 C311 1.289 . S
C339 O331 1.258 . S
C339 O332 1.266 . S
Co340 O343 1.970 . S
Co340 N357 1.989 . S
Co340 O365 1.967 . S
Co340 O372 1.920 . S
Co341 O344 1.966 . S
Co341 N350 2.022 . S
Co341 N358 1.993 . S
Co341 O366 1.941 . S
C342 O343 1.258 . S
C342 O344 1.263 . S
O343 Co340 1.970 . S
O343 C342 1.258 . S
O344 Co341 1.966 . S
O344 C342 1.263 . S
C345 O346 1.235 . S
C345 O372 1.289 . S
O346 C345 1.235 . S
C347 C349 1.400 . S
C347 N350 1.351 . S
C347 C352 1.501 . S
C348 C349 1.387 . S
C348 N351 1.341 . S
C349 C347 1.400 . S
C349 C348 1.387 . S
N350 Co341 2.022 . S
N350 C347 1.351 . S
N350 N351 1.365 . S
N351 C348 1.341 . S
N351 N350 1.365 . S
N351 H371 0.862 . S
C352 C347 1.501 . S
C352 H353 0.961 . S
C352 H354 0.961 . S
C352 H355 0.960 . S
H353 C352 0.961 . S
H354 C352 0.961 . S
H355 C352 0.960 . S
C356 N357 1.342 . S
C356 C360 1.401 . S
C356 C361 1.499 . S
N357 Co340 1.989 . S
N357 C356 1.342 . S
N357 N358 1.388 . S
N358 Co341 1.993 . S
N358 N357 1.388 . S
N358 C359 1.346 . S
C359 N358 1.346 . S
C359 C360 1.396 . S
C359 C369 1.510 . S
C360 C356 1.401 . S
C360 C359 1.396 . S
C361 C356 1.499 . S
C361 H362 0.959 . S
C361 H363 0.960 . S
C361 H364 0.961 . S
H362 C361 0.959 . S
H363 C361 0.960 . S
H364 C361 0.961 . S
O365 Co340 1.967 . S
O365 C373 1.258 . S
O366 Co341 1.941 . S
O366 C373 1.266 . S
H367 C369 0.959 . S
H368 C369 0.961 . S
C369 C359 1.510 . S
C369 H367 0.959 . S
C369 H368 0.961 . S
C369 H370 0.960 . S
H370 C369 0.960 . S
H371 N351 0.862 . S
O372 Co340 1.920 . S
O372 C345 1.289 . S
C373 O365 1.258 . S
C373 O366 1.266 . S
Co374 O377 1.970 . S
Co374 N391 1.989 . S
Co374 O399 1.967 . S
Co374 O406 1.920 . S
Co375 O378 1.966 . S
Co375 N384 2.022 . S
Co375 N392 1.993 . S
Co375 O400 1.941 . S
C376 O377 1.258 . S
C376 O378 1.263 . S
O377 Co374 1.970 . S
O377 C376 1.258 . S
O378 Co375 1.966 . S
O378 C376 1.263 . S
C379 O380 1.235 . S
C379 O406 1.289 . S
O380 C379 1.235 . S
C381 C383 1.400 . S
C381 N384 1.351 . S
C381 C386 1.501 . S
C382 C383 1.387 . S
C382 N385 1.341 . S
C383 C381 1.400 . S
C383 C382 1.387 . S
N384 Co375 2.022 . S
N384 C381 1.351 . S
N384 N385 1.365 . S
N385 C382 1.341 . S
N385 N384 1.365 . S
N385 H405 0.862 . S
C386 C381 1.501 . S
C386 H387 0.961 . S
C386 H388 0.961 . S
C386 H389 0.960 . S
H387 C386 0.961 . S
H388 C386 0.961 . S
H389 C386 0.960 . S
C390 N391 1.342 . S
C390 C394 1.401 . S
C390 C395 1.499 . S
N391 Co374 1.989 . S
N391 C390 1.342 . S
N391 N392 1.388 . S
N392 Co375 1.993 . S
N392 N391 1.388 . S
N392 C393 1.346 . S
C393 N392 1.346 . S
C393 C394 1.396 . S
C393 C403 1.510 . S
C394 C390 1.401 . S
C394 C393 1.396 . S
C395 C390 1.499 . S
C395 H396 0.959 . S
C395 H397 0.960 . S
C395 H398 0.961 . S
H396 C395 0.959 . S
H397 C395 0.960 . S
H398 C395 0.961 . S
O399 Co374 1.967 . S
O399 C407 1.258 . S
O400 Co375 1.941 . S
O400 C407 1.266 . S
H401 C403 0.959 . S
H402 C403 0.961 . S
C403 C393 1.510 . S
C403 H401 0.959 . S
C403 H402 0.961 . S
C403 H404 0.960 . S
H404 C403 0.960 . S
H405 N385 0.862 . S
O406 Co374 1.920 . S
O406 C379 1.289 . S
C407 O399 1.258 . S
C407 O400 1.266 . S
Co408 O411 1.970 . S
Co408 N425 1.989 . S
Co408 O433 1.967 . S
Co408 O440 1.920 . S
Co409 O412 1.966 . S
Co409 N418 2.022 . S
Co409 N426 1.993 . S
Co409 O434 1.941 . S
C410 O411 1.258 . S
C410 O412 1.263 . S
O411 Co408 1.970 . S
O411 C410 1.258 . S
O412 Co409 1.966 . S
O412 C410 1.263 . S
C413 O414 1.235 . S
C413 O440 1.289 . S
O414 C413 1.235 . S
C415 C417 1.400 . S
C415 N418 1.351 . S
C415 C420 1.501 . S
C416 C417 1.387 . S
C416 N419 1.341 . S
C417 C415 1.400 . S
C417 C416 1.387 . S
N418 Co409 2.022 . S
N418 C415 1.351 . S
N418 N419 1.365 . S
N419 C416 1.341 . S
N419 N418 1.365 . S
N419 H439 0.862 . S
C420 C415 1.501 . S
C420 H421 0.961 . S
C420 H422 0.961 . S
C420 H423 0.960 . S
H421 C420 0.961 . S
H422 C420 0.961 . S
H423 C420 0.960 . S
C424 N425 1.342 . S
C424 C428 1.401 . S
C424 C429 1.499 . S
N425 Co408 1.989 . S
N425 C424 1.342 . S
N425 N426 1.388 . S
N426 Co409 1.993 . S
N426 N425 1.388 . S
N426 C427 1.346 . S
C427 N426 1.346 . S
C427 C428 1.396 . S
C427 C437 1.510 . S
C428 C424 1.401 . S
C428 C427 1.396 . S
C429 C424 1.499 . S
C429 H430 0.959 . S
C429 H431 0.960 . S
C429 H432 0.961 . S
H430 C429 0.959 . S
H431 C429 0.960 . S
H432 C429 0.961 . S
O433 Co408 1.967 . S
O433 C441 1.258 . S
O434 Co409 1.941 . S
O434 C441 1.266 . S
H435 C437 0.959 . S
H436 C437 0.961 . S
C437 C427 1.510 . S
C437 H435 0.959 . S
C437 H436 0.961 . S
C437 H438 0.960 . S
H438 C437 0.960 . S
H439 N419 0.862 . S
O440 Co408 1.920 . S
O440 C413 1.289 . S
C441 O433 1.258 . S
C441 O434 1.266 . S
Co442 O445 1.970 . S
Co442 N459 1.989 . S
Co442 O467 1.967 . S
Co442 O474 1.920 . S
Co443 O446 1.966 . S
Co443 N452 2.022 . S
Co443 N460 1.993 . S
Co443 O468 1.941 . S
C444 O445 1.258 . S
C444 O446 1.263 . S
O445 Co442 1.970 . S
O445 C444 1.258 . S
O446 Co443 1.966 . S
O446 C444 1.263 . S
C447 O448 1.235 . S
C447 O474 1.289 . S
O448 C447 1.235 . S
C449 C451 1.400 . S
C449 N452 1.351 . S
C449 C454 1.501 . S
C450 C451 1.387 . S
C450 N453 1.341 . S
C451 C449 1.400 . S
C451 C450 1.387 . S
N452 Co443 2.022 . S
N452 C449 1.351 . S
N452 N453 1.365 . S
N453 C450 1.341 . S
N453 N452 1.365 . S
N453 H473 0.862 . S
C454 C449 1.501 . S
C454 H455 0.961 . S
C454 H456 0.961 . S
C454 H457 0.960 . S
H455 C454 0.961 . S
H456 C454 0.961 . S
H457 C454 0.960 . S
C458 N459 1.342 . S
C458 C462 1.401 . S
C458 C463 1.499 . S
N459 Co442 1.989 . S
N459 C458 1.342 . S
N459 N460 1.388 . S
N460 Co443 1.993 . S
N460 N459 1.388 . S
N460 C461 1.346 . S
C461 N460 1.346 . S
C461 C462 1.396 . S
C461 C471 1.510 . S
C462 C458 1.401 . S
C462 C461 1.396 . S
C463 C458 1.499 . S
C463 H464 0.959 . S
C463 H465 0.960 . S
C463 H466 0.961 . S
H464 C463 0.959 . S
H465 C463 0.960 . S
H466 C463 0.961 . S
O467 Co442 1.967 . S
O467 C475 1.258 . S
O468 Co443 1.941 . S
O468 C475 1.266 . S
H469 C471 0.959 . S
H470 C471 0.961 . S
C471 C461 1.510 . S
C471 H469 0.959 . S
C471 H470 0.961 . S
C471 H472 0.960 . S
H472 C471 0.960 . S
H473 N453 0.862 . S
O474 Co442 1.920 . S
O474 C447 1.289 . S
C475 O467 1.258 . S
C475 O468 1.266 . S
Co476 O479 1.970 . S
Co476 N493 1.989 . S
Co476 O501 1.967 . S
Co476 O508 1.920 . S
Co477 O480 1.966 . S
Co477 N486 2.022 . S
Co477 N494 1.993 . S
Co477 O502 1.941 . S
C478 O479 1.258 . S
C478 O480 1.263 . S
O479 Co476 1.970 . S
O479 C478 1.258 . S
O480 Co477 1.966 . S
O480 C478 1.263 . S
C481 O482 1.235 . S
C481 O508 1.289 . S
O482 C481 1.235 . S
C483 C485 1.400 . S
C483 N486 1.351 1_554 S
C483 C488 1.501 . S
C484 C485 1.387 . S
C484 N487 1.341 . S
C485 C483 1.400 . S
C485 C484 1.387 . S
N486 Co477 2.022 . S
N486 C483 1.351 1_556 S
N486 N487 1.365 1_556 S
N487 C484 1.341 . S
N487 N486 1.365 1_554 S
N487 H507 0.862 . S
C488 C483 1.501 . S
C488 H489 0.961 1_554 S
C488 H490 0.961 . S
C488 H491 0.960 . S
H489 C488 0.961 1_556 S
H490 C488 0.961 . S
H491 C488 0.960 . S
C492 N493 1.342 . S
C492 C496 1.401 . S
C492 C497 1.499 . S
N493 Co476 1.989 . S
N493 C492 1.342 . S
N493 N494 1.388 . S
N494 Co477 1.993 . S
N494 N493 1.388 . S
N494 C495 1.346 . S
C495 N494 1.346 . S
C495 C496 1.396 . S
C495 C505 1.510 . S
C496 C492 1.401 . S
C496 C495 1.396 . S
C497 C492 1.499 . S
C497 H498 0.959 . S
C497 H499 0.960 . S
C497 H500 0.961 . S
H498 C497 0.959 . S
H499 C497 0.960 . S
H500 C497 0.961 . S
O501 Co476 1.967 . S
O501 C509 1.258 . S
O502 Co477 1.941 . S
O502 C509 1.266 . S
H503 C505 0.959 1_554 S
H504 C505 0.961 1_554 S
C505 C495 1.510 . S
C505 H503 0.959 1_556 S
C505 H504 0.961 1_556 S
C505 H506 0.960 1_556 S
H506 C505 0.960 1_554 S
H507 N487 0.862 . S
O508 Co476 1.920 . S
O508 C481 1.289 . S
C509 O501 1.258 . S
C509 O502 1.266 . S
Co510 O513 1.970 . S
Co510 N527 1.989 . S
Co510 O535 1.967 . S
Co510 O542 1.920 . S
Co511 O514 1.966 . S
Co511 N520 2.022 . S
Co511 N528 1.993 . S
Co511 O536 1.941 . S
C512 O513 1.258 . S
C512 O514 1.263 . S
O513 Co510 1.970 . S
O513 C512 1.258 . S
O514 Co511 1.966 . S
O514 C512 1.263 . S
C515 O516 1.235 . S
C515 O542 1.289 . S
O516 C515 1.235 . S
C517 C519 1.400 . S
C517 N520 1.351 . S
C517 C522 1.501 . S
C518 C519 1.387 . S
C518 N521 1.341 . S
C519 C517 1.400 . S
C519 C518 1.387 . S
N520 Co511 2.022 . S
N520 C517 1.351 . S
N520 N521 1.365 . S
N521 C518 1.341 . S
N521 N520 1.365 . S
N521 H541 0.862 . S
C522 C517 1.501 . S
C522 H523 0.961 . S
C522 H524 0.961 . S
C522 H525 0.960 . S
H523 C522 0.961 . S
H524 C522 0.961 . S
H525 C522 0.960 . S
C526 N527 1.342 . S
C526 C530 1.401 . S
C526 C531 1.499 . S
N527 Co510 1.989 . S
N527 C526 1.342 . S
N527 N528 1.388 . S
N528 Co511 1.993 . S
N528 N527 1.388 . S
N528 C529 1.346 . S
C529 N528 1.346 . S
C529 C530 1.396 . S
C529 C539 1.510 . S
C530 C526 1.401 . S
C530 C529 1.396 . S
C531 C526 1.499 . S
C531 H532 0.959 . S
C531 H533 0.960 . S
C531 H534 0.961 . S
H532 C531 0.959 . S
H533 C531 0.960 . S
H534 C531 0.961 . S
O535 Co510 1.967 . S
O535 C543 1.258 . S
O536 Co511 1.941 . S
O536 C543 1.266 . S
H537 C539 0.959 . S
H538 C539 0.961 . S
C539 C529 1.510 . S
C539 H537 0.959 . S
C539 H538 0.961 . S
C539 H540 0.960 . S
H540 C539 0.960 . S
H541 N521 0.862 . S
O542 Co510 1.920 . S
O542 C515 1.289 . S
C543 O535 1.258 . S
C543 O536 1.266 . S
C544 C545 1.363 . S
C544 C550 1.379 . S
C544 N552 1.356 . S
C545 C544 1.363 . S
C545 C551 1.363 . S
C546 C547 1.363 . S
C546 C551 1.379 . S
C546 N553 1.356 . S
C547 C546 1.363 . S
C547 C550 1.363 . S
N548 C550 1.356 . S
N548 H560 0.984 . S
N548 H561 0.985 . S
N549 C551 1.356 . S
N549 H554 0.984 . S
N549 H555 0.985 . S
C550 C544 1.379 . S
C550 C547 1.363 . S
C550 N548 1.356 . S
C551 C545 1.363 . S
C551 C546 1.379 . S
C551 N549 1.356 . S
N552 C544 1.356 . S
N552 H558 0.984 . S
N552 H559 0.984 . S
N553 C546 1.356 . S
N553 H556 0.984 . S
N553 H557 0.985 . S
H554 N549 0.984 . S
H555 N549 0.985 . S
H556 N553 0.984 . S
H557 N553 0.985 . S
H558 N552 0.984 . S
H559 N552 0.984 . S
H560 N548 0.984 . S
H561 N548 0.985 . S
C562 C563 1.363 . S
C562 C568 1.379 . S
C562 N570 1.356 . S
C563 C562 1.363 . S
C563 C569 1.363 . S
C564 C565 1.363 . S
C564 C569 1.379 . S
C564 N571 1.356 . S
C565 C564 1.363 . S
C565 C568 1.363 . S
N566 C568 1.356 . S
N566 H578 0.984 . S
N566 H579 0.985 . S
N567 C569 1.356 . S
N567 H572 0.984 . S
N567 H573 0.985 . S
C568 C562 1.379 . S
C568 C565 1.363 . S
C568 N566 1.356 . S
C569 C563 1.363 . S
C569 C564 1.379 . S
C569 N567 1.356 . S
N570 C562 1.356 . S
N570 H576 0.984 . S
N570 H577 0.984 . S
N571 C564 1.356 . S
N571 H574 0.984 . S
N571 H575 0.985 . S
H572 N567 0.984 . S
H573 N567 0.985 . S
H574 N571 0.984 . S
H575 N571 0.985 . S
H576 N570 0.984 . S
H577 N570 0.984 . S
H578 N566 0.984 . S
H579 N566 0.985 . S
C580 C581 1.363 . S
C580 C586 1.379 1_554 S
C580 N588 1.356 . S
C581 C580 1.363 . S
C581 C587 1.363 . S
C582 C583 1.363 . S
C582 C587 1.379 1_556 S
C582 N589 1.356 . S
C583 C582 1.363 . S
C583 C586 1.363 . S
N584 C586 1.356 . S
N584 H596 0.984 . S
N584 H597 0.985 . S
N585 C587 1.356 . S
N585 H590 0.984 . S
N585 H591 0.985 . S
C586 C580 1.379 1_556 S
C586 C583 1.363 . S
C586 N584 1.356 . S
C587 C581 1.363 . S
C587 C582 1.379 1_554 S
C587 N585 1.356 . S
N588 C580 1.356 . S
N588 H594 0.984 . S
N588 H595 0.984 . S
N589 C582 1.356 . S
N589 H592 0.984 . S
N589 H593 0.985 . S
H590 N585 0.984 . S
H591 N585 0.985 . S
H592 N589 0.984 . S
H593 N589 0.985 . S
H594 N588 0.984 . S
H595 N588 0.984 . S
H596 N584 0.984 . S
H597 N584 0.985 . S
C598 C599 1.363 . S
C598 C604 1.379 . S
C598 N606 1.356 . S
C599 C598 1.363 . S
C599 C605 1.363 . S
C600 C601 1.363 . S
C600 C605 1.379 . S
C600 N607 1.356 . S
C601 C600 1.363 . S
C601 C604 1.363 . S
N602 C604 1.356 . S
N602 H614 0.984 . S
N602 H615 0.985 . S
N603 C605 1.356 . S
N603 H608 0.984 . S
N603 H609 0.985 . S
C604 C598 1.379 . S
C604 C601 1.363 . S
C604 N602 1.356 . S
C605 C599 1.363 . S
C605 C600 1.379 . S
C605 N603 1.356 . S
N606 C598 1.356 . S
N606 H612 0.984 . S
N606 H613 0.984 . S
N607 C600 1.356 . S
N607 H610 0.984 . S
N607 H611 0.985 . S
H608 N603 0.984 . S
H609 N603 0.985 . S
H610 N607 0.984 . S
H611 N607 0.985 . S
H612 N606 0.984 . S
H613 N606 0.984 . S
H614 N602 0.984 . S
H615 N602 0.985 . S
C616 C617 1.363 . S
C616 C622 1.379 . S
C616 N624 1.356 . S
C617 C616 1.363 . S
C617 C623 1.363 . S
C618 C619 1.363 . S
C618 C623 1.379 . S
C618 N625 1.356 . S
C619 C618 1.363 . S
C619 C622 1.363 . S
N620 C622 1.356 . S
N620 H632 0.984 . S
N620 H633 0.985 . S
N621 C623 1.356 . S
N621 H626 0.984 . S
N621 H627 0.985 . S
C622 C616 1.379 . S
C622 C619 1.363 . S
C622 N620 1.356 . S
C623 C617 1.363 . S
C623 C618 1.379 . S
C623 N621 1.356 . S
N624 C616 1.356 . S
N624 H630 0.984 . S
N624 H631 0.984 . S
N625 C618 1.356 . S
N625 H628 0.984 . S
N625 H629 0.985 . S
H626 N621 0.984 . S
H627 N621 0.985 . S
H628 N625 0.984 . S
H629 N625 0.985 . S
H630 N624 0.984 . S
H631 N624 0.984 . S
H632 N620 0.984 . S
H633 N620 0.985 . S
C634 C635 1.363 . S
C634 C640 1.379 1_556 S
C634 N642 1.356 . S
C635 C634 1.363 . S
C635 C641 1.363 . S
C636 C637 1.363 . S
C636 C641 1.379 1_554 S
C636 N643 1.356 . S
C637 C636 1.363 . S
C637 C640 1.363 . S
N638 C640 1.356 . S
N638 H650 0.984 . S
N638 H651 0.985 . S
N639 C641 1.356 . S
N639 H644 0.984 . S
N639 H645 0.985 . S
C640 C634 1.379 1_554 S
C640 C637 1.363 . S
C640 N638 1.356 . S
C641 C635 1.363 . S
C641 C636 1.379 1_556 S
C641 N639 1.356 . S
N642 C634 1.356 . S
N642 H648 0.984 . S
N642 H649 0.984 . S
N643 C636 1.356 . S
N643 H646 0.984 . S
N643 H647 0.985 . S
H644 N639 0.984 . S
H645 N639 0.985 . S
H646 N643 0.984 . S
H647 N643 0.985 . S
H648 N642 0.984 . S
H649 N642 0.984 . S
H650 N638 0.984 . S
H651 N638 0.985 . S
C652 C653 1.363 . S
C652 C658 1.379 . S
C652 N660 1.356 . S
C653 C652 1.363 . S
C653 C659 1.363 . S
C654 C655 1.363 . S
C654 C659 1.379 . S
C654 N661 1.356 . S
C655 C654 1.363 . S
C655 C658 1.363 . S
N656 C658 1.356 . S
N656 H668 0.984 . S
N656 H669 0.985 . S
N657 C659 1.356 . S
N657 H662 0.984 . S
N657 H663 0.985 . S
C658 C652 1.379 . S
C658 C655 1.363 . S
C658 N656 1.356 . S
C659 C653 1.363 . S
C659 C654 1.379 . S
C659 N657 1.356 . S
N660 C652 1.356 . S
N660 H666 0.984 . S
N660 H667 0.984 . S
N661 C654 1.356 . S
N661 H664 0.984 . S
N661 H665 0.985 . S
H662 N657 0.984 . S
H663 N657 0.985 . S
H664 N661 0.984 . S
H665 N661 0.985 . S
H666 N660 0.984 . S
H667 N660 0.984 . S
H668 N656 0.984 . S
H669 N656 0.985 . S
C670 C671 1.363 . S
C670 C676 1.379 . S
C670 N678 1.356 . S
C671 C670 1.363 . S
C671 C677 1.363 . S
C672 C673 1.363 . S
C672 C677 1.379 . S
C672 N679 1.356 . S
C673 C672 1.363 . S
C673 C676 1.363 . S
N674 C676 1.356 . S
N674 H686 0.984 . S
N674 H687 0.985 . S
N675 C677 1.356 . S
N675 H680 0.984 . S
N675 H681 0.985 . S
C676 C670 1.379 . S
C676 C673 1.363 . S
C676 N674 1.356 . S
C677 C671 1.363 . S
C677 C672 1.379 . S
C677 N675 1.356 . S
N678 C670 1.356 . S
N678 H684 0.984 . S
N678 H685 0.984 . S
N679 C672 1.356 . S
N679 H682 0.984 . S
N679 H683 0.985 . S
H680 N675 0.984 . S
H681 N675 0.985 . S
H682 N679 0.984 . S
H683 N679 0.985 . S
H684 N678 0.984 . S
H685 N678 0.984 . S
H686 N674 0.984 . S
H687 N674 0.985 . S
C688 C689 1.363 . S
C688 C694 1.379 . S
C688 N696 1.356 . S
C689 C688 1.363 . S
C689 C695 1.363 . S
C690 C691 1.363 . S
C690 C695 1.379 . S
C690 N697 1.356 . S
C691 C690 1.363 . S
C691 C694 1.363 . S
N692 C694 1.356 . S
N692 H704 0.984 . S
N692 H705 0.985 . S
N693 C695 1.356 . S
N693 H698 0.984 . S
N693 H699 0.985 . S
C694 C688 1.379 . S
C694 C691 1.363 . S
C694 N692 1.356 . S
C695 C689 1.363 . S
C695 C690 1.379 . S
C695 N693 1.356 . S
N696 C688 1.356 . S
N696 H702 0.984 . S
N696 H703 0.984 . S
N697 C690 1.356 . S
N697 H700 0.984 . S
N697 H701 0.985 . S
H698 N693 0.984 . S
H699 N693 0.985 . S
H700 N697 0.984 . S
H701 N697 0.985 . S
H702 N696 0.984 . S
H703 N696 0.984 . S
H704 N692 0.984 . S
H705 N692 0.985 . S
C706 C707 1.363 . S
C706 C712 1.379 . S
C706 N714 1.356 . S
C707 C706 1.363 . S
C707 C713 1.363 . S
C708 C709 1.363 . S
C708 C713 1.379 . S
C708 N715 1.356 . S
C709 C708 1.363 . S
C709 C712 1.363 . S
N710 C712 1.356 . S
N710 H722 0.984 . S
N710 H723 0.985 . S
N711 C713 1.356 . S
N711 H716 0.984 . S
N711 H717 0.985 . S
C712 C706 1.379 . S
C712 C709 1.363 . S
C712 N710 1.356 . S
C713 C707 1.363 . S
C713 C708 1.379 . S
C713 N711 1.356 . S
N714 C706 1.356 . S
N714 H720 0.984 . S
N714 H721 0.984 . S
N715 C708 1.356 . S
N715 H718 0.984 . S
N715 H719 0.985 . S
H716 N711 0.984 . S
H717 N711 0.985 . S
H718 N715 0.984 . S
H719 N715 0.985 . S
H720 N714 0.984 . S
H721 N714 0.984 . S
H722 N710 0.984 . S
H723 N710 0.985 . S
C724 C725 1.363 . S
C724 C730 1.379 . S
C724 N732 1.356 . S
C725 C724 1.363 . S
C725 C731 1.363 . S
C726 C727 1.363 . S
C726 C731 1.379 . S
C726 N733 1.356 . S
C727 C726 1.363 . S
C727 C730 1.363 . S
N728 C730 1.356 . S
N728 H740 0.984 . S
N728 H741 0.985 . S
N729 C731 1.356 . S
N729 H734 0.984 . S
N729 H735 0.985 . S
C730 C724 1.379 . S
C730 C727 1.363 . S
C730 N728 1.356 . S
C731 C725 1.363 . S
C731 C726 1.379 . S
C731 N729 1.356 . S
N732 C724 1.356 . S
N732 H738 0.984 . S
N732 H739 0.984 . S
N733 C726 1.356 . S
N733 H736 0.984 . S
N733 H737 0.985 . S
H734 N729 0.984 . S
H735 N729 0.985 . S
H736 N733 0.984 . S
H737 N733 0.985 . S
H738 N732 0.984 . S
H739 N732 0.984 . S
H740 N728 0.984 . S
H741 N728 0.985 . S
C742 C743 1.363 . S
C742 C748 1.379 . S
C742 N750 1.356 . S
C743 C742 1.363 . S
C743 C749 1.363 . S
C744 C745 1.363 . S
C744 C749 1.379 . S
C744 N751 1.356 . S
C745 C744 1.363 . S
C745 C748 1.363 . S
N746 C748 1.356 . S
N746 H758 0.984 . S
N746 H759 0.985 . S
N747 C749 1.356 . S
N747 H752 0.984 . S
N747 H753 0.985 . S
C748 C742 1.379 . S
C748 C745 1.363 . S
C748 N746 1.356 . S
C749 C743 1.363 . S
C749 C744 1.379 . S
C749 N747 1.356 . S
N750 C742 1.356 . S
N750 H756 0.984 . S
N750 H757 0.984 . S
N751 C744 1.356 . S
N751 H754 0.984 . S
N751 H755 0.985 . S
H752 N747 0.984 . S
H753 N747 0.985 . S
H754 N751 0.984 . S
H755 N751 0.985 . S
H756 N750 0.984 . S
H757 N750 0.984 . S
H758 N746 0.984 . S
H759 N746 0.985 . S
C760 C761 1.363 . S
C760 C766 1.379 . S
C760 N768 1.356 . S
C761 C760 1.363 . S
C761 C767 1.363 . S
C762 C763 1.363 . S
C762 C767 1.379 . S
C762 N769 1.356 . S
C763 C762 1.363 . S
C763 C766 1.363 . S
N764 C766 1.356 . S
N764 H776 0.984 . S
N764 H777 0.985 . S
N765 C767 1.356 . S
N765 H770 0.984 . S
N765 H771 0.985 . S
C766 C760 1.379 . S
C766 C763 1.363 . S
C766 N764 1.356 . S
C767 C761 1.363 . S
C767 C762 1.379 . S
C767 N765 1.356 . S
N768 C760 1.356 . S
N768 H774 0.984 . S
N768 H775 0.984 . S
N769 C762 1.356 . S
N769 H772 0.984 . S
N769 H773 0.985 . S
H770 N765 0.984 . S
H771 N765 0.985 . S
H772 N769 0.984 . S
H773 N769 0.985 . S
H774 N768 0.984 . S
H775 N768 0.984 . S
H776 N764 0.984 . S
H777 N764 0.985 . S
C778 C779 1.363 . S
C778 C784 1.379 . S
C778 N786 1.356 . S
C779 C778 1.363 . S
C779 C785 1.363 . S
C780 C781 1.363 . S
C780 C785 1.379 . S
C780 N787 1.356 . S
C781 C780 1.363 . S
C781 C784 1.363 . S
N782 C784 1.356 . S
N782 H794 0.984 . S
N782 H795 0.985 . S
N783 C785 1.356 . S
N783 H788 0.984 . S
N783 H789 0.985 . S
C784 C778 1.379 . S
C784 C781 1.363 . S
C784 N782 1.356 . S
C785 C779 1.363 . S
C785 C780 1.379 . S
C785 N783 1.356 . S
N786 C778 1.356 . S
N786 H792 0.984 . S
N786 H793 0.984 . S
N787 C780 1.356 . S
N787 H790 0.984 . S
N787 H791 0.985 . S
H788 N783 0.984 . S
H789 N783 0.985 . S
H790 N787 0.984 . S
H791 N787 0.985 . S
H792 N786 0.984 . S
H793 N786 0.984 . S
H794 N782 0.984 . S
H795 N782 0.985 . S
C796 C797 1.363 . S
C796 C802 1.379 . S
C796 N804 1.356 . S
C797 C796 1.363 . S
C797 C803 1.363 . S
C798 C799 1.363 . S
C798 C803 1.379 . S
C798 N805 1.356 . S
C799 C798 1.363 . S
C799 C802 1.363 . S
N800 C802 1.356 . S
N800 H812 0.984 . S
N800 H813 0.985 . S
N801 C803 1.356 . S
N801 H806 0.984 . S
N801 H807 0.985 . S
C802 C796 1.379 . S
C802 C799 1.363 . S
C802 N800 1.356 . S
C803 C797 1.363 . S
C803 C798 1.379 . S
C803 N801 1.356 . S
N804 C796 1.356 . S
N804 H810 0.984 . S
N804 H811 0.984 . S
N805 C798 1.356 . S
N805 H808 0.984 . S
N805 H809 0.985 . S
H806 N801 0.984 . S
H807 N801 0.985 . S
H808 N805 0.984 . S
H809 N805 0.985 . S
H810 N804 0.984 . S
H811 N804 0.984 . S
H812 N800 0.984 . S
H813 N800 0.985 . S
C814 C815 1.363 . S
C814 C820 1.379 . S
C814 N822 1.356 . S
C815 C814 1.363 . S
C815 C821 1.363 . S
C816 C817 1.363 . S
C816 C821 1.379 . S
C816 N823 1.356 . S
C817 C816 1.363 . S
C817 C820 1.363 . S
N818 C820 1.356 . S
N818 H830 0.984 . S
N818 H831 0.985 . S
N819 C821 1.356 . S
N819 H824 0.984 . S
N819 H825 0.985 . S
C820 C814 1.379 . S
C820 C817 1.363 . S
C820 N818 1.356 . S
C821 C815 1.363 . S
C821 C816 1.379 . S
C821 N819 1.356 . S
N822 C814 1.356 . S
N822 H828 0.984 . S
N822 H829 0.984 . S
N823 C816 1.356 . S
N823 H826 0.984 . S
N823 H827 0.985 . S
H824 N819 0.984 . S
H825 N819 0.985 . S
H826 N823 0.984 . S
H827 N823 0.985 . S
H828 N822 0.984 . S
H829 N822 0.984 . S
H830 N818 0.984 . S
H831 N818 0.985 . S
C832 C833 1.363 . S
C832 C838 1.379 . S
C832 N840 1.356 . S
C833 C832 1.363 . S
C833 C839 1.363 . S
C834 C835 1.363 . S
C834 C839 1.379 . S
C834 N841 1.356 . S
C835 C834 1.363 . S
C835 C838 1.363 . S
N836 C838 1.356 . S
N836 H848 0.984 . S
N836 H849 0.985 . S
N837 C839 1.356 . S
N837 H842 0.984 . S
N837 H843 0.985 . S
C838 C832 1.379 . S
C838 C835 1.363 . S
C838 N836 1.356 . S
C839 C833 1.363 . S
C839 C834 1.379 . S
C839 N837 1.356 . S
N840 C832 1.356 . S
N840 H846 0.984 . S
N840 H847 0.984 . S
N841 C834 1.356 . S
N841 H844 0.984 . S
N841 H845 0.985 . S
H842 N837 0.984 . S
H843 N837 0.985 . S
H844 N841 0.984 . S
H845 N841 0.985 . S
H846 N840 0.984 . S
H847 N840 0.984 . S
H848 N836 0.984 . S
H849 N836 0.985 . S
C850 C851 1.363 . S
C850 C856 1.379 . S
C850 N858 1.356 . S
C851 C850 1.363 . S
C851 C857 1.363 . S
C852 C853 1.363 . S
C852 C857 1.379 . S
C852 N859 1.356 . S
C853 C852 1.363 . S
C853 C856 1.363 . S
N854 C856 1.356 . S
N854 H866 0.984 . S
N854 H867 0.985 . S
N855 C857 1.356 . S
N855 H860 0.984 . S
N855 H861 0.985 . S
C856 C850 1.379 . S
C856 C853 1.363 . S
C856 N854 1.356 . S
C857 C851 1.363 . S
C857 C852 1.379 . S
C857 N855 1.356 . S
N858 C850 1.356 . S
N858 H864 0.984 . S
N858 H865 0.984 . S
N859 C852 1.356 . S
N859 H862 0.984 . S
N859 H863 0.985 . S
H860 N855 0.984 . S
H861 N855 0.985 . S
H862 N859 0.984 . S
H863 N859 0.985 . S
H864 N858 0.984 . S
H865 N858 0.984 . S
H866 N854 0.984 . S
H867 N854 0.985 . S
C868 C869 1.363 . S
C868 C874 1.379 . S
C868 N876 1.356 . S
C869 C868 1.363 . S
C869 C875 1.363 . S
C870 C871 1.363 . S
C870 C875 1.379 . S
C870 N877 1.356 . S
C871 C870 1.363 . S
C871 C874 1.363 . S
N872 C874 1.356 . S
N872 H884 0.984 . S
N872 H885 0.985 . S
N873 C875 1.356 . S
N873 H878 0.984 . S
N873 H879 0.985 . S
C874 C868 1.379 . S
C874 C871 1.363 . S
C874 N872 1.356 . S
C875 C869 1.363 . S
C875 C870 1.379 . S
C875 N873 1.356 . S
N876 C868 1.356 . S
N876 H882 0.984 . S
N876 H883 0.984 . S
N877 C870 1.356 . S
N877 H880 0.984 . S
N877 H881 0.985 . S
H878 N873 0.984 . S
H879 N873 0.985 . S
H880 N877 0.984 . S
H881 N877 0.985 . S
H882 N876 0.984 . S
H883 N876 0.984 . S
H884 N872 0.984 . S
H885 N872 0.985 . S
C886 C887 1.363 . S
C886 C892 1.379 . S
C886 N894 1.356 . S
C887 C886 1.363 . S
C887 C893 1.363 . S
C888 C889 1.363 . S
C888 C893 1.379 . S
C888 N895 1.356 . S
C889 C888 1.363 . S
C889 C892 1.363 . S
N890 C892 1.356 . S
N890 H902 0.984 . S
N890 H903 0.985 . S
N891 C893 1.356 . S
N891 H896 0.984 . S
N891 H897 0.985 . S
C892 C886 1.379 . S
C892 C889 1.363 . S
C892 N890 1.356 . S
C893 C887 1.363 . S
C893 C888 1.379 . S
C893 N891 1.356 . S
N894 C886 1.356 . S
N894 H900 0.984 . S
N894 H901 0.984 . S
N895 C888 1.356 . S
N895 H898 0.984 . S
N895 H899 0.985 . S
H896 N891 0.984 . S
H897 N891 0.985 . S
H898 N895 0.984 . S
H899 N895 0.985 . S
H900 N894 0.984 . S
H901 N894 0.984 . S
H902 N890 0.984 . S
H903 N890 0.985 . S
C904 C905 1.363 . S
C904 C910 1.379 . S
C904 N912 1.356 . S
C905 C904 1.363 . S
C905 C911 1.363 . S
C906 C907 1.363 . S
C906 C911 1.379 . S
C906 N913 1.356 . S
C907 C906 1.363 . S
C907 C910 1.363 . S
N908 C910 1.356 . S
N908 H920 0.984 . S
N908 H921 0.985 . S
N909 C911 1.356 . S
N909 H914 0.984 . S
N909 H915 0.985 . S
C910 C904 1.379 . S
C910 C907 1.363 . S
C910 N908 1.356 . S
C911 C905 1.363 . S
C911 C906 1.379 . S
C911 N909 1.356 . S
N912 C904 1.356 . S
N912 H918 0.984 . S
N912 H919 0.984 . S
N913 C906 1.356 . S
N913 H916 0.984 . S
N913 H917 0.985 . S
H914 N909 0.984 . S
H915 N909 0.985 . S
H916 N913 0.984 . S
H917 N913 0.985 . S
H918 N912 0.984 . S
H919 N912 0.984 . S
H920 N908 0.984 . S
H921 N908 0.985 . S
C922 C923 1.363 . S
C922 C928 1.379 . S
C922 N930 1.356 . S
C923 C922 1.363 . S
C923 C929 1.363 . S
C924 C925 1.363 . S
C924 C929 1.379 . S
C924 N931 1.356 . S
C925 C924 1.363 . S
C925 C928 1.363 . S
N926 C928 1.356 . S
N926 H938 0.984 . S
N926 H939 0.985 . S
N927 C929 1.356 . S
N927 H932 0.984 . S
N927 H933 0.985 . S
C928 C922 1.379 . S
C928 C925 1.363 . S
C928 N926 1.356 . S
C929 C923 1.363 . S
C929 C924 1.379 . S
C929 N927 1.356 . S
N930 C922 1.356 . S
N930 H936 0.984 . S
N930 H937 0.984 . S
N931 C924 1.356 . S
N931 H934 0.984 . S
N931 H935 0.985 . S
H932 N927 0.984 . S
H933 N927 0.985 . S
H934 N931 0.984 . S
H935 N931 0.985 . S
H936 N930 0.984 . S
H937 N930 0.984 . S
H938 N926 0.984 . S
H939 N926 0.985 . S
C940 C941 1.363 . S
C940 C946 1.379 . S
C940 N948 1.356 . S
C941 C940 1.363 . S
C941 C947 1.363 . S
C942 C943 1.363 . S
C942 C947 1.379 . S
C942 N949 1.356 . S
C943 C942 1.363 . S
C943 C946 1.363 . S
N944 C946 1.356 . S
N944 H956 0.984 . S
N944 H957 0.985 . S
N945 C947 1.356 . S
N945 H950 0.984 . S
N945 H951 0.985 . S
C946 C940 1.379 . S
C946 C943 1.363 . S
C946 N944 1.356 . S
C947 C941 1.363 . S
C947 C942 1.379 . S
C947 N945 1.356 . S
N948 C940 1.356 . S
N948 H954 0.984 . S
N948 H955 0.984 . S
N949 C942 1.356 . S
N949 H952 0.984 . S
N949 H953 0.985 . S
H950 N945 0.984 . S
H951 N945 0.985 . S
H952 N949 0.984 . S
H953 N949 0.985 . S
H954 N948 0.984 . S
H955 N948 0.984 . S
H956 N944 0.984 . S
H957 N944 0.985 . S
C958 C959 1.363 . S
C958 C964 1.379 . S
C958 N966 1.356 . S
C959 C958 1.363 . S
C959 C965 1.363 . S
C960 C961 1.363 . S
C960 C965 1.379 . S
C960 N967 1.356 . S
C961 C960 1.363 . S
C961 C964 1.363 . S
N962 C964 1.356 . S
N962 H974 0.984 . S
N962 H975 0.985 . S
N963 C965 1.356 . S
N963 H968 0.984 . S
N963 H969 0.985 . S
C964 C958 1.379 . S
C964 C961 1.363 . S
C964 N962 1.356 . S
C965 C959 1.363 . S
C965 C960 1.379 . S
C965 N963 1.356 . S
N966 C958 1.356 . S
N966 H972 0.984 . S
N966 H973 0.984 . S
N967 C960 1.356 . S
N967 H970 0.984 . S
N967 H971 0.985 . S
H968 N963 0.984 . S
H969 N963 0.985 . S
H970 N967 0.984 . S
H971 N967 0.985 . S
H972 N966 0.984 . S
H973 N966 0.984 . S
H974 N962 0.984 . S
H975 N962 0.985 . S
C976 C977 1.363 . S
C976 C982 1.379 1_545 S
C976 N984 1.356 . S
C977 C976 1.363 . S
C977 C983 1.363 1_455 S
C978 C979 1.363 . S
C978 C983 1.379 1_565 S
C978 N985 1.356 . S
C979 C978 1.363 . S
C979 C982 1.363 1_655 S
N980 C982 1.356 . S
N980 H992 0.984 . S
N980 H993 0.985 . S
N981 C983 1.356 . S
N981 H986 0.984 . S
N981 H987 0.985 . S
C982 C976 1.379 1_565 S
C982 C979 1.363 1_455 S
C982 N980 1.356 . S
C983 C977 1.363 1_655 S
C983 C978 1.379 1_545 S
C983 N981 1.356 . S
N984 C976 1.356 . S
N984 H990 0.984 . S
N984 H991 0.984 . S
N985 C978 1.356 . S
N985 H988 0.984 . S
N985 H989 0.985 . S
H986 N981 0.984 . S
H987 N981 0.985 . S
H988 N985 0.984 . S
H989 N985 0.985 . S
H990 N984 0.984 . S
H991 N984 0.984 . S
H992 N980 0.984 . S
H993 N980 0.985 . S
C994 C995 1.363 . S
C994 C1000 1.379 1_455 S
C994 N1002 1.356 . S
C995 C994 1.363 . S
C995 C1001 1.363 . S
C996 C997 1.363 . S
C996 C1001 1.379 1_655 S
C996 N1003 1.356 . S
C997 C996 1.363 . S
C997 C1000 1.363 . S
N998 C1000 1.356 . S
N998 H1010 0.984 . S
N998 H1011 0.985 . S
N999 C1001 1.356 . S
N999 H1004 0.984 . S
N999 H1005 0.985 . S
C1000 C994 1.379 1_655 S
C1000 C997 1.363 . S
C1000 N998 1.356 . S
C1001 C995 1.363 . S
C1001 C996 1.379 1_455 S
C1001 N999 1.356 . S
N1002 C994 1.356 . S
N1002 H1008 0.984 . S
N1002 H1009 0.984 . S
N1003 C996 1.356 . S
N1003 H1006 0.984 . S
N1003 H1007 0.985 . S
H1004 N999 0.984 . S
H1005 N999 0.985 . S
H1006 N1003 0.984 . S
H1007 N1003 0.985 . S
H1008 N1002 0.984 . S
H1009 N1002 0.984 . S
H1010 N998 0.984 . S
H1011 N998 0.985 . S
C1012 C1013 1.363 . S
C1012 C1018 1.379 . S
C1012 N1020 1.356 . S
C1013 C1012 1.363 . S
C1013 C1019 1.363 . S
C1014 C1015 1.363 . S
C1014 C1019 1.379 . S
C1014 N1021 1.356 . S
C1015 C1014 1.363 . S
C1015 C1018 1.363 . S
N1016 C1018 1.356 . S
N1016 H1028 0.984 . S
N1016 H1029 0.985 . S
N1017 C1019 1.356 . S
N1017 H1022 0.984 . S
N1017 H1023 0.985 . S
C1018 C1012 1.379 . S
C1018 C1015 1.363 . S
C1018 N1016 1.356 . S
C1019 C1013 1.363 . S
C1019 C1014 1.379 . S
C1019 N1017 1.356 . S
N1020 C1012 1.356 . S
N1020 H1026 0.984 . S
N1020 H1027 0.984 . S
N1021 C1014 1.356 . S
N1021 H1024 0.984 . S
N1021 H1025 0.985 . S
H1022 N1017 0.984 . S
H1023 N1017 0.985 . S
H1024 N1021 0.984 . S
H1025 N1021 0.985 . S
H1026 N1020 0.984 . S
H1027 N1020 0.984 . S
H1028 N1016 0.984 . S
H1029 N1016 0.985 . S
C1030 C1031 1.363 . S
C1030 C1036 1.379 . S
C1030 N1038 1.356 . S
C1031 C1030 1.363 . S
C1031 C1037 1.363 1_545 S
C1032 C1033 1.363 . S
C1032 C1037 1.379 . S
C1032 N1039 1.356 . S
C1033 C1032 1.363 . S
C1033 C1036 1.363 1_565 S
N1034 C1036 1.356 . S
N1034 H1046 0.984 . S
N1034 H1047 0.985 . S
N1035 C1037 1.356 . S
N1035 H1040 0.984 . S
N1035 H1041 0.985 1_554 S
C1036 C1030 1.379 . S
C1036 C1033 1.363 1_545 S
C1036 N1034 1.356 . S
C1037 C1031 1.363 1_565 S
C1037 C1032 1.379 . S
C1037 N1035 1.356 . S
N1038 C1030 1.356 . S
N1038 H1044 0.984 . S
N1038 H1045 0.984 . S
N1039 C1032 1.356 . S
N1039 H1042 0.984 . S
N1039 H1043 0.985 1_554 S
H1040 N1035 0.984 . S
H1041 N1035 0.985 1_556 S
H1042 N1039 0.984 . S
H1043 N1039 0.985 1_556 S
H1044 N1038 0.984 . S
H1045 N1038 0.984 . S
H1046 N1034 0.984 . S
H1047 N1034 0.985 . S
C1048 C1049 1.363 . S
C1048 C1054 1.379 . S
C1048 N1056 1.356 . S
C1049 C1048 1.363 . S
C1049 C1055 1.363 1_455 S
C1050 C1051 1.363 . S
C1050 C1055 1.379 . S
C1050 N1057 1.356 . S
C1051 C1050 1.363 . S
C1051 C1054 1.363 1_655 S
N1052 C1054 1.356 . S
N1052 H1064 0.984 . S
N1052 H1065 0.985 . S
N1053 C1055 1.356 . S
N1053 H1058 0.984 . S
N1053 H1059 0.985 1_556 S
C1054 C1048 1.379 . S
C1054 C1051 1.363 1_455 S
C1054 N1052 1.356 . S
C1055 C1049 1.363 1_655 S
C1055 C1050 1.379 . S
C1055 N1053 1.356 . S
N1056 C1048 1.356 . S
N1056 H1062 0.984 . S
N1056 H1063 0.984 . S
N1057 C1050 1.356 . S
N1057 H1060 0.984 . S
N1057 H1061 0.985 1_556 S
H1058 N1053 0.984 . S
H1059 N1053 0.985 1_554 S
H1060 N1057 0.984 . S
H1061 N1057 0.985 1_554 S
H1062 N1056 0.984 . S
H1063 N1056 0.984 . S
H1064 N1052 0.984 . S
H1065 N1052 0.985 . S
C1066 C1067 1.363 . S
C1066 C1072 1.379 . S
C1066 N1074 1.356 . S
C1067 C1066 1.363 . S
C1067 C1073 1.363 . S
C1068 C1069 1.363 . S
C1068 C1073 1.379 . S
C1068 N1075 1.356 . S
C1069 C1068 1.363 . S
C1069 C1072 1.363 . S
N1070 C1072 1.356 . S
N1070 H1082 0.984 . S
N1070 H1083 0.985 . S
N1071 C1073 1.356 . S
N1071 H1076 0.984 . S
N1071 H1077 0.985 . S
C1072 C1066 1.379 . S
C1072 C1069 1.363 . S
C1072 N1070 1.356 . S
C1073 C1067 1.363 . S
C1073 C1068 1.379 . S
C1073 N1071 1.356 . S
N1074 C1066 1.356 . S
N1074 H1080 0.984 . S
N1074 H1081 0.984 . S
N1075 C1068 1.356 . S
N1075 H1078 0.984 . S
N1075 H1079 0.985 . S
H1076 N1071 0.984 . S
H1077 N1071 0.985 . S
H1078 N1075 0.984 . S
H1079 N1075 0.985 . S
H1080 N1074 0.984 . S
H1081 N1074 0.984 . S
H1082 N1070 0.984 . S
H1083 N1070 0.985 . S
C1084 C1085 1.363 . S
C1084 C1090 1.379 1_565 S
C1084 N1092 1.356 . S
C1085 C1084 1.363 . S
C1085 C1091 1.363 . S
C1086 C1087 1.363 . S
C1086 C1091 1.379 1_545 S
C1086 N1093 1.356 . S
C1087 C1086 1.363 . S
C1087 C1090 1.363 . S
N1088 C1090 1.356 . S
N1088 H1100 0.984 . S
N1088 H1101 0.985 . S
N1089 C1091 1.356 . S
N1089 H1094 0.984 . S
N1089 H1095 0.985 . S
C1090 C1084 1.379 1_545 S
C1090 C1087 1.363 . S
C1090 N1088 1.356 . S
C1091 C1085 1.363 . S
C1091 C1086 1.379 1_565 S
C1091 N1089 1.356 . S
N1092 C1084 1.356 . S
N1092 H1098 0.984 . S
N1092 H1099 0.984 . S
N1093 C1086 1.356 . S
N1093 H1096 0.984 . S
N1093 H1097 0.985 . S
H1094 N1089 0.984 . S
H1095 N1089 0.985 . S
H1096 N1093 0.984 . S
H1097 N1093 0.985 . S
H1098 N1092 0.984 . S
H1099 N1092 0.984 . S
H1100 N1088 0.984 . S
H1101 N1088 0.985 . S
C1102 C1103 1.363 1_565 S
C1102 C1108 1.379 1_455 S
C1102 N1110 1.356 . S
C1103 C1102 1.363 1_545 S
C1103 C1109 1.363 . S
C1104 C1105 1.363 1_545 S
C1104 C1109 1.379 1_655 S
C1104 N1111 1.356 . S
C1105 C1104 1.363 1_565 S
C1105 C1108 1.363 . S
N1106 C1108 1.356 . S
N1106 H1118 0.984 . S
N1106 H1119 0.985 . S
N1107 C1109 1.356 . S
N1107 H1112 0.984 . S
N1107 H1113 0.985 . S
C1108 C1102 1.379 1_655 S
C1108 C1105 1.363 . S
C1108 N1106 1.356 . S
C1109 C1103 1.363 . S
C1109 C1104 1.379 1_455 S
C1109 N1107 1.356 . S
N1110 C1102 1.356 . S
N1110 H1116 0.984 . S
N1110 H1117 0.984 . S
N1111 C1104 1.356 . S
N1111 H1114 0.984 . S
N1111 H1115 0.985 . S
H1112 N1107 0.984 . S
H1113 N1107 0.985 . S
H1114 N1111 0.984 . S
H1115 N1111 0.985 . S
H1116 N1110 0.984 . S
H1117 N1110 0.984 . S
H1118 N1106 0.984 . S
H1119 N1106 0.985 . S
C1120 C1121 1.363 . S
C1120 C1126 1.379 . S
C1120 N1128 1.356 . S
C1121 C1120 1.363 . S
C1121 C1127 1.363 . S
C1122 C1123 1.363 . S
C1122 C1127 1.379 . S
C1122 N1129 1.356 . S
C1123 C1122 1.363 . S
C1123 C1126 1.363 . S
N1124 C1126 1.356 . S
N1124 H1136 0.984 . S
N1124 H1137 0.985 . S
N1125 C1127 1.356 . S
N1125 H1130 0.984 . S
N1125 H1131 0.985 . S
C1126 C1120 1.379 . S
C1126 C1123 1.363 . S
C1126 N1124 1.356 . S
C1127 C1121 1.363 . S
C1127 C1122 1.379 . S
C1127 N1125 1.356 . S
N1128 C1120 1.356 . S
N1128 H1134 0.984 . S
N1128 H1135 0.984 . S
N1129 C1122 1.356 . S
N1129 H1132 0.984 . S
N1129 H1133 0.985 . S
H1130 N1125 0.984 . S
H1131 N1125 0.985 . S
H1132 N1129 0.984 . S
H1133 N1129 0.985 . S
H1134 N1128 0.984 . S
H1135 N1128 0.984 . S
H1136 N1124 0.984 . S
H1137 N1124 0.985 . S
C1138 C1139 1.363 . S
C1138 C1144 1.379 . S
C1138 N1146 1.356 . S
C1139 C1138 1.363 . S
C1139 C1145 1.363 . S
C1140 C1141 1.363 . S
C1140 C1145 1.379 . S
C1140 N1147 1.356 . S
C1141 C1140 1.363 . S
C1141 C1144 1.363 . S
N1142 C1144 1.356 . S
N1142 H1154 0.984 . S
N1142 H1155 0.985 . S
N1143 C1145 1.356 . S
N1143 H1148 0.984 . S
N1143 H1149 0.985 . S
C1144 C1138 1.379 . S
C1144 C1141 1.363 . S
C1144 N1142 1.356 . S
C1145 C1139 1.363 . S
C1145 C1140 1.379 . S
C1145 N1143 1.356 . S
N1146 C1138 1.356 . S
N1146 H1152 0.984 . S
N1146 H1153 0.984 . S
N1147 C1140 1.356 . S
N1147 H1150 0.984 . S
N1147 H1151 0.985 . S
H1148 N1143 0.984 . S
H1149 N1143 0.985 . S
H1150 N1147 0.984 . S
H1151 N1147 0.985 . S
H1152 N1146 0.984 . S
H1153 N1146 0.984 . S
H1154 N1142 0.984 . S
H1155 N1142 0.985 . S
C1156 C1157 1.363 . S
C1156 C1162 1.379 . S
C1156 N1164 1.356 . S
C1157 C1156 1.363 . S
C1157 C1163 1.363 . S
C1158 C1159 1.363 . S
C1158 C1163 1.379 . S
C1158 N1165 1.356 . S
C1159 C1158 1.363 . S
C1159 C1162 1.363 . S
N1160 C1162 1.356 . S
N1160 H1172 0.984 . S
N1160 H1173 0.985 . S
N1161 C1163 1.356 . S
N1161 H1166 0.984 . S
N1161 H1167 0.985 . S
C1162 C1156 1.379 . S
C1162 C1159 1.363 . S
C1162 N1160 1.356 . S
C1163 C1157 1.363 . S
C1163 C1158 1.379 . S
C1163 N1161 1.356 . S
N1164 C1156 1.356 . S
N1164 H1170 0.984 . S
N1164 H1171 0.984 . S
N1165 C1158 1.356 . S
N1165 H1168 0.984 . S
N1165 H1169 0.985 . S
H1166 N1161 0.984 . S
H1167 N1161 0.985 . S
H1168 N1165 0.984 . S
H1169 N1165 0.985 . S
H1170 N1164 0.984 . S
H1171 N1164 0.984 . S
H1172 N1160 0.984 . S
H1173 N1160 0.985 . S
C1174 C1175 1.363 . S
C1174 C1180 1.379 . S
C1174 N1182 1.356 . S
C1175 C1174 1.363 . S
C1175 C1181 1.363 . S
C1176 C1177 1.363 . S
C1176 C1181 1.379 . S
C1176 N1183 1.356 . S
C1177 C1176 1.363 . S
C1177 C1180 1.363 . S
N1178 C1180 1.356 . S
N1178 H1190 0.984 . S
N1178 H1191 0.985 . S
N1179 C1181 1.356 . S
N1179 H1184 0.984 . S
N1179 H1185 0.985 . S
C1180 C1174 1.379 . S
C1180 C1177 1.363 . S
C1180 N1178 1.356 . S
C1181 C1175 1.363 . S
C1181 C1176 1.379 . S
C1181 N1179 1.356 . S
N1182 C1174 1.356 . S
N1182 H1188 0.984 . S
N1182 H1189 0.984 . S
N1183 C1176 1.356 . S
N1183 H1186 0.984 . S
N1183 H1187 0.985 . S
H1184 N1179 0.984 . S
H1185 N1179 0.985 . S
H1186 N1183 0.984 . S
H1187 N1183 0.985 . S
H1188 N1182 0.984 . S
H1189 N1182 0.984 . S
H1190 N1178 0.984 . S
H1191 N1178 0.985 . S
C1192 C1193 1.363 . S
C1192 C1198 1.379 . S
C1192 N1200 1.356 . S
C1193 C1192 1.363 . S
C1193 C1199 1.363 . S
C1194 C1195 1.363 . S
C1194 C1199 1.379 . S
C1194 N1201 1.356 . S
C1195 C1194 1.363 . S
C1195 C1198 1.363 . S
N1196 C1198 1.356 . S
N1196 H1208 0.984 . S
N1196 H1209 0.985 . S
N1197 C1199 1.356 . S
N1197 H1202 0.984 . S
N1197 H1203 0.985 . S
C1198 C1192 1.379 . S
C1198 C1195 1.363 . S
C1198 N1196 1.356 . S
C1199 C1193 1.363 . S
C1199 C1194 1.379 . S
C1199 N1197 1.356 . S
N1200 C1192 1.356 . S
N1200 H1206 0.984 . S
N1200 H1207 0.984 . S
N1201 C1194 1.356 . S
N1201 H1204 0.984 . S
N1201 H1205 0.985 . S
H1202 N1197 0.984 . S
H1203 N1197 0.985 . S
H1204 N1201 0.984 . S
H1205 N1201 0.985 . S
H1206 N1200 0.984 . S
H1207 N1200 0.984 . S
H1208 N1196 0.984 . S
H1209 N1196 0.985 . S
C1210 C1211 1.363 . S
C1210 C1216 1.379 . S
C1210 N1218 1.356 . S
C1211 C1210 1.363 . S
C1211 C1217 1.363 . S
C1212 C1213 1.363 . S
C1212 C1217 1.379 . S
C1212 N1219 1.356 . S
C1213 C1212 1.363 . S
C1213 C1216 1.363 . S
N1214 C1216 1.356 . S
N1214 H1226 0.984 . S
N1214 H1227 0.985 . S
N1215 C1217 1.356 . S
N1215 H1220 0.984 . S
N1215 H1221 0.985 . S
C1216 C1210 1.379 . S
C1216 C1213 1.363 . S
C1216 N1214 1.356 . S
C1217 C1211 1.363 . S
C1217 C1212 1.379 . S
C1217 N1215 1.356 . S
N1218 C1210 1.356 . S
N1218 H1224 0.984 . S
N1218 H1225 0.984 . S
N1219 C1212 1.356 . S
N1219 H1222 0.984 . S
N1219 H1223 0.985 . S
H1220 N1215 0.984 . S
H1221 N1215 0.985 . S
H1222 N1219 0.984 . S
H1223 N1219 0.985 . S
H1224 N1218 0.984 . S
H1225 N1218 0.984 . S
H1226 N1214 0.984 . S
H1227 N1214 0.985 . S
C1228 C1229 1.363 . S
C1228 C1234 1.379 . S
C1228 N1236 1.356 . S
C1229 C1228 1.363 . S
C1229 C1235 1.363 . S
C1230 C1231 1.363 . S
C1230 C1235 1.379 . S
C1230 N1237 1.356 . S
C1231 C1230 1.363 . S
C1231 C1234 1.363 . S
N1232 C1234 1.356 . S
N1232 H1244 0.984 . S
N1232 H1245 0.985 . S
N1233 C1235 1.356 . S
N1233 H1238 0.984 . S
N1233 H1239 0.985 . S
C1234 C1228 1.379 . S
C1234 C1231 1.363 . S
C1234 N1232 1.356 . S
C1235 C1229 1.363 . S
C1235 C1230 1.379 . S
C1235 N1233 1.356 . S
N1236 C1228 1.356 . S
N1236 H1242 0.984 . S
N1236 H1243 0.984 . S
N1237 C1230 1.356 . S
N1237 H1240 0.984 . S
N1237 H1241 0.985 . S
H1238 N1233 0.984 . S
H1239 N1233 0.985 . S
H1240 N1237 0.984 . S
H1241 N1237 0.985 . S
H1242 N1236 0.984 . S
H1243 N1236 0.984 . S
H1244 N1232 0.984 . S
H1245 N1232 0.985 . S
C1246 C1247 1.363 . S
C1246 C1252 1.379 . S
C1246 N1254 1.356 . S
C1247 C1246 1.363 . S
C1247 C1253 1.363 . S
C1248 C1249 1.363 . S
C1248 C1253 1.379 . S
C1248 N1255 1.356 . S
C1249 C1248 1.363 . S
C1249 C1252 1.363 . S
N1250 C1252 1.356 . S
N1250 H1262 0.984 . S
N1250 H1263 0.985 . S
N1251 C1253 1.356 . S
N1251 H1256 0.984 . S
N1251 H1257 0.985 . S
C1252 C1246 1.379 . S
C1252 C1249 1.363 . S
C1252 N1250 1.356 . S
C1253 C1247 1.363 . S
C1253 C1248 1.379 . S
C1253 N1251 1.356 . S
N1254 C1246 1.356 . S
N1254 H1260 0.984 . S
N1254 H1261 0.984 . S
N1255 C1248 1.356 . S
N1255 H1258 0.984 . S
N1255 H1259 0.985 . S
H1256 N1251 0.984 . S
H1257 N1251 0.985 . S
H1258 N1255 0.984 . S
H1259 N1255 0.985 . S
H1260 N1254 0.984 . S
H1261 N1254 0.984 . S
H1262 N1250 0.984 . S
H1263 N1250 0.985 . S
C545 C5 1.007 . S
C547 C447 1.007 . S
C563 C481 1.007 . S
C565 C39 1.007 . S
C581 C515 1.007 . S
C583 C73 1.007 . S
C599 C413 1.007 . S
C601 C107 1.007 . S
C617 C379 1.007 . S
C619 C141 1.007 . S
C635 C277 1.007 . S
C637 C175 1.007 . S
C653 C209 1.007 . S
C655 C311 1.007 . S
C671 C345 1.007 . S
C673 C243 1.007 . S
C689 C339 1.850 . S
C691 C9 1.960 . S
C707 C43 1.960 . S
C709 C373 1.850 . S
C725 C77 1.960 . S
C727 C407 1.850 . S
C743 C111 1.960 . S
C745 C305 1.850 . S
C761 C145 1.960 . S
C763 C543 1.850 . S
C779 C441 1.850 . S
C781 C179 1.960 . S
C797 C475 1.850 . S
C799 C213 1.960 . S
C815 C509 1.850 . S
C817 C247 1.960 . S
C833 C281 1.960 . S
C835 C67 1.850 . S
C851 C315 1.960 . S
C853 C101 1.850 . S
C869 C349 1.960 . S
C871 C135 1.850 . S
C887 C33 1.850 . S
C889 C383 1.960 . S
C905 C417 1.960 . S
C907 C271 1.850 . S
C923 C169 1.850 . S
C925 C451 1.960 . S
C941 C485 1.960 . S
C943 C203 1.850 . S
C959 C519 1.960 . S
C961 C237 1.850 . S
C977 C20 1.770 . S
C979 C360 1.770 . S
C995 C394 1.770 . S
C997 C54 1.770 . S
C1013 C88 1.770 . S
C1015 C292 1.770 . S
C1031 C326 1.770 . S
C1033 C122 1.770 . S
C1049 C156 1.770 . S
C1051 C496 1.770 . S
C1067 C530 1.770 . S
C1069 C190 1.770 . S
C1085 C428 1.770 . S
C1087 C224 1.770 . S
C1103 C462 1.770 . S
C1105 C258 1.770 . S
C1121 C206 1.178 . S
C1123 C2 1.178 . S
C1139 C36 1.178 . S
C1141 C240 1.178 . S
C1157 C138 1.178 . S
C1159 C70 1.178 . S
C1175 C104 1.178 . S
C1177 C172 1.178 . S
C1193 C274 1.178 . S
C1195 C478 1.178 . S
C1211 C308 1.178 . S
C1213 C512 1.178 . S
C1229 C342 1.178 . S
C1231 C410 1.178 . S
C1247 C444 1.178 . S
C1249 C376 1.178 . S
