# Generated by pormake.
# Topology unw, (4)-cn, num edge types: 1
# Building blocks:
#     Node 0, Type 0, BuildingBlock: MUDLON_clean_sbu_0, # of connection points: 4
#     Node 1, Type 0, BuildingBlock: MUDLON_clean_sbu_0, # of connection points: 4
#     Node 2, Type 0, BuildingBlock: MUDLON_clean_sbu_0, # of connection points: 4
#     Node 3, Type 0, BuildingBlock: MUDLON_clean_sbu_0, # of connection points: 4
#     Node 4, Type 0, BuildingBlock: MUDLON_clean_sbu_0, # of connection points: 4
#     Node 5, Type 0, BuildingBlock: MUDLON_clean_sbu_0, # of connection points: 4
#     Node 6, Type 0, BuildingBlock: MUDLON_clean_sbu_0, # of connection points: 4
#     Node 7, Type 0, BuildingBlock: MUDLON_clean_sbu_0, # of connection points: 4
#     Node 8, Type 0, BuildingBlock: MUDLON_clean_sbu_0, # of connection points: 4
#     Node 9, Type 0, BuildingBlock: MUDLON_clean_sbu_0, # of connection points: 4
#     Node 10, Type 0, BuildingBlock: MUDLON_clean_sbu_0, # of connection points: 4
#     Node 11, Type 0, BuildingBlock: MUDLON_clean_sbu_0, # of connection points: 4
#     Node 12, Type 0, BuildingBlock: MUDLON_clean_sbu_0, # of connection points: 4
#     Node 13, Type 0, BuildingBlock: MUDLON_clean_sbu_0, # of connection points: 4
#     Node 14, Type 0, BuildingBlock: MUDLON_clean_sbu_0, # of connection points: 4
#     Node 15, Type 0, BuildingBlock: MUDLON_clean_sbu_0, # of connection points: 4
#     Node 16, Type 0, BuildingBlock: MUDLON_clean_sbu_0, # of connection points: 4
#     Node 17, Type 0, BuildingBlock: MUDLON_clean_sbu_0, # of connection points: 4
#     Node 18, Type 0, BuildingBlock: MUDLON_clean_sbu_0, # of connection points: 4
#     Node 19, Type 0, BuildingBlock: MUDLON_clean_sbu_0, # of connection points: 4
#     Node 20, Type 0, BuildingBlock: MUDLON_clean_sbu_0, # of connection points: 4
#     Node 21, Type 0, BuildingBlock: MUDLON_clean_sbu_0, # of connection points: 4
#     Node 22, Type 0, BuildingBlock: MUDLON_clean_sbu_0, # of connection points: 4
#     Node 23, Type 0, BuildingBlock: MUDLON_clean_sbu_0, # of connection points: 4
#     Edge 24, Type (0, 0), BuildingBlock: ZUJKAS_clean_linker_0, # of connection points: 2
#     Edge 25, Type (0, 0), BuildingBlock: ZUJKAS_clean_linker_0, # of connection points: 2
#     Edge 26, Type (0, 0), BuildingBlock: ZUJKAS_clean_linker_0, # of connection points: 2
#     Edge 27, Type (0, 0), BuildingBlock: ZUJKAS_clean_linker_0, # of connection points: 2
#     Edge 28, Type (0, 0), BuildingBlock: ZUJKAS_clean_linker_0, # of connection points: 2
#     Edge 29, Type (0, 0), BuildingBlock: ZUJKAS_clean_linker_0, # of connection points: 2
#     Edge 30, Type (0, 0), BuildingBlock: ZUJKAS_clean_linker_0, # of connection points: 2
#     Edge 31, Type (0, 0), BuildingBlock: ZUJKAS_clean_linker_0, # of connection points: 2
#     Edge 32, Type (0, 0), BuildingBlock: ZUJKAS_clean_linker_0, # of connection points: 2
#     Edge 33, Type (0, 0), BuildingBlock: ZUJKAS_clean_linker_0, # of connection points: 2
#     Edge 34, Type (0, 0), BuildingBlock: ZUJKAS_clean_linker_0, # of connection points: 2
#     Edge 35, Type (0, 0), BuildingBlock: ZUJKAS_clean_linker_0, # of connection points: 2
#     Edge 36, Type (0, 0), BuildingBlock: ZUJKAS_clean_linker_0, # of connection points: 2
#     Edge 37, Type (0, 0), BuildingBlock: ZUJKAS_clean_linker_0, # of connection points: 2
#     Edge 38, Type (0, 0), BuildingBlock: ZUJKAS_clean_linker_0, # of connection points: 2
#     Edge 39, Type (0, 0), BuildingBlock: ZUJKAS_clean_linker_0, # of connection points: 2
#     Edge 40, Type (0, 0), BuildingBlock: ZUJKAS_clean_linker_0, # of connection points: 2
#     Edge 41, Type (0, 0), BuildingBlock: ZUJKAS_clean_linker_0, # of connection points: 2
#     Edge 42, Type (0, 0), BuildingBlock: ZUJKAS_clean_linker_0, # of connection points: 2
#     Edge 43, Type (0, 0), BuildingBlock: ZUJKAS_clean_linker_0, # of connection points: 2
#     Edge 44, Type (0, 0), BuildingBlock: ZUJKAS_clean_linker_0, # of connection points: 2
#     Edge 45, Type (0, 0), BuildingBlock: ZUJKAS_clean_linker_0, # of connection points: 2
#     Edge 46, Type (0, 0), BuildingBlock: ZUJKAS_clean_linker_0, # of connection points: 2
#     Edge 47, Type (0, 0), BuildingBlock: ZUJKAS_clean_linker_0, # of connection points: 2
#     Edge 48, Type (0, 0), BuildingBlock: ZUJKAS_clean_linker_0, # of connection points: 2
#     Edge 49, Type (0, 0), BuildingBlock: ZUJKAS_clean_linker_0, # of connection points: 2
#     Edge 50, Type (0, 0), BuildingBlock: ZUJKAS_clean_linker_0, # of connection points: 2
#     Edge 51, Type (0, 0), BuildingBlock: ZUJKAS_clean_linker_0, # of connection points: 2
#     Edge 52, Type (0, 0), BuildingBlock: ZUJKAS_clean_linker_0, # of connection points: 2
#     Edge 53, Type (0, 0), BuildingBlock: ZUJKAS_clean_linker_0, # of connection points: 2
#     Edge 54, Type (0, 0), BuildingBlock: ZUJKAS_clean_linker_0, # of connection points: 2
#     Edge 55, Type (0, 0), BuildingBlock: ZUJKAS_clean_linker_0, # of connection points: 2
#     Edge 56, Type (0, 0), BuildingBlock: ZUJKAS_clean_linker_0, # of connection points: 2
#     Edge 57, Type (0, 0), BuildingBlock: ZUJKAS_clean_linker_0, # of connection points: 2
#     Edge 58, Type (0, 0), BuildingBlock: ZUJKAS_clean_linker_0, # of connection points: 2
#     Edge 59, Type (0, 0), BuildingBlock: ZUJKAS_clean_linker_0, # of connection points: 2
#     Edge 60, Type (0, 0), BuildingBlock: ZUJKAS_clean_linker_0, # of connection points: 2
#     Edge 61, Type (0, 0), BuildingBlock: ZUJKAS_clean_linker_0, # of connection points: 2
#     Edge 62, Type (0, 0), BuildingBlock: ZUJKAS_clean_linker_0, # of connection points: 2
#     Edge 63, Type (0, 0), BuildingBlock: ZUJKAS_clean_linker_0, # of connection points: 2
#     Edge 64, Type (0, 0), BuildingBlock: ZUJKAS_clean_linker_0, # of connection points: 2
#     Edge 65, Type (0, 0), BuildingBlock: ZUJKAS_clean_linker_0, # of connection points: 2
#     Edge 66, Type (0, 0), BuildingBlock: ZUJKAS_clean_linker_0, # of connection points: 2
#     Edge 67, Type (0, 0), BuildingBlock: ZUJKAS_clean_linker_0, # of connection points: 2
#     Edge 68, Type (0, 0), BuildingBlock: ZUJKAS_clean_linker_0, # of connection points: 2
#     Edge 69, Type (0, 0), BuildingBlock: ZUJKAS_clean_linker_0, # of connection points: 2
#     Edge 70, Type (0, 0), BuildingBlock: ZUJKAS_clean_linker_0, # of connection points: 2
#     Edge 71, Type (0, 0), BuildingBlock: ZUJKAS_clean_linker_0, # of connection points: 2
# Relax obj value: 0.473
# Max RMSD: 0.264
# Mean RMSD: 0.264
data_MOF--net-unw--node1-MUDLON_clean_sbu_0--edge1-ZUJKAS_clean_linker_0
_symmetry_space_group_name_H-M    P1
_symmetry_Int_Tables_number       1
_symmetry_cell_setting            triclinic
loop_
_symmetry_equiv_pos_as_xyz
'x, y, z'
_cell_length_a     64.888985
_cell_length_b     64.097988
_cell_length_c     64.056838
_cell_angle_alpha  89.987003
_cell_angle_beta   89.92416
_cell_angle_gamma 90.120836
loop_
_atom_site_label
_atom_site_type_symbol
_atom_site_fract_x
_atom_site_fract_y
_atom_site_fract_z
_atom_type_partial_charge
Mg0 Mg 0.12377 0.38484 0.25517 0.0
C1 C 0.12946 0.36094 0.29586 0.0
O2 O 0.10928 0.36188 0.29619 0.0
C3 C 0.13308 0.42371 0.23054 0.0
O4 O 0.12629 0.41111 0.21589 0.0
C5 C 0.0796 0.38582 0.27165 0.0
O6 O 0.08727 0.40135 0.28258 0.0
O7 O 0.09088 0.37729 0.25781 0.0
O8 O 0.1393 0.37106 0.28194 0.0
O9 O 0.13847 0.36662 0.23084 0.0
C10 C 0.15751 0.37083 0.22855 0.0
O11 O 0.16544 0.38633 0.23932 0.0
O12 O 0.1326 0.41745 0.24943 0.0
Mg13 Mg 0.619 0.12762 0.25661 0.0
C14 C 0.62249 0.16003 0.22499 0.0
O15 O 0.60674 0.16543 0.23666 0.0
C16 C 0.64042 0.08433 0.25334 0.0
O17 O 0.64918 0.09231 0.23663 0.0
C18 C 0.57633 0.12813 0.23985 0.0
O19 O 0.58625 0.11624 0.2265 0.0
O20 O 0.58584 0.13426 0.25613 0.0
O21 O 0.6313 0.14265 0.2286 0.0
O22 O 0.637 0.14419 0.27996 0.0
C23 C 0.65603 0.1407 0.27656 0.0
O24 O 0.66098 0.12833 0.26101 0.0
O25 O 0.62663 0.09481 0.26282 0.0
Mg26 Mg 0.87295 0.6323 0.25674 0.0
C27 C 0.86745 0.65562 0.29751 0.0
O28 O 0.8876 0.65403 0.29776 0.0
C29 C 0.84784 0.59419 0.25097 0.0
O30 O 0.83421 0.60857 0.25574 0.0
C31 C 0.91831 0.63436 0.26992 0.0
O32 O 0.91338 0.61668 0.27904 0.0
O33 O 0.90506 0.64313 0.2582 0.0
O34 O 0.85734 0.64549 0.28385 0.0
O35 O 0.85579 0.64655 0.2314 0.0
C36 C 0.84671 0.66384 0.23449 0.0
O37 O 0.85107 0.6745 0.25143 0.0
O38 O 0.86689 0.59907 0.25158 0.0
Mg39 Mg 0.37409 0.88671 0.25352 0.0
C40 C 0.36576 0.86678 0.21138 0.0
O41 O 0.38565 0.86978 0.20902 0.0
C42 C 0.35784 0.93145 0.25137 0.0
O43 O 0.34618 0.92305 0.23687 0.0
C44 C 0.41911 0.88136 0.23934 0.0
O45 O 0.41607 0.90006 0.23152 0.0
O46 O 0.40497 0.87309 0.25041 0.0
O47 O 0.35671 0.87498 0.22697 0.0
O48 O 0.35666 0.87191 0.27863 0.0
C49 C 0.33993 0.88096 0.28366 0.0
O50 O 0.33562 0.89901 0.27507 0.0
O51 O 0.37209 0.92044 0.25945 0.0
Mg52 Mg 0.11969 0.62457 0.75341 0.0
C53 C 0.12718 0.65209 0.71574 0.0
O54 O 0.10701 0.6533 0.71649 0.0
C55 C 0.14826 0.5895 0.75972 0.0
O56 O 0.16033 0.60544 0.7555 0.0
C57 C 0.07656 0.62428 0.73472 0.0
O58 O 0.08508 0.60968 0.7232 0.0
O59 O 0.0869 0.63196 0.74977 0.0
O60 O 0.1364 0.63953 0.72793 0.0
O61 O 0.13348 0.64025 0.77986 0.0
C62 C 0.13883 0.65924 0.77806 0.0
O63 O 0.13227 0.66993 0.76189 0.0
O64 O 0.12882 0.59213 0.75861 0.0
Mg65 Mg 0.37184 0.12819 0.7569 0.0
C66 C 0.36572 0.14881 0.7992 0.0
O67 O 0.3854 0.14453 0.80104 0.0
C68 C 0.35135 0.08562 0.75994 0.0
O69 O 0.33935 0.0962 0.77262 0.0
C70 C 0.41703 0.13074 0.77063 0.0
O71 O 0.41236 0.11264 0.77906 0.0
O72 O 0.40368 0.1397 0.75917 0.0
O73 O 0.35585 0.14152 0.78367 0.0
O74 O 0.35502 0.14322 0.73162 0.0
C75 C 0.34341 0.13256 0.71966 0.0
O76 O 0.34403 0.11212 0.72072 0.0
O77 O 0.36735 0.09452 0.75256 0.0
Mg78 Mg 0.87143 0.37189 0.75929 0.0
C79 C 0.83922 0.3471 0.73606 0.0
O80 O 0.82925 0.34973 0.75372 0.0
C81 C 0.84406 0.40947 0.76112 0.0
O82 O 0.83143 0.39506 0.75409 0.0
C83 C 0.9097 0.36597 0.7345 0.0
O84 O 0.89689 0.37454 0.72116 0.0
O85 O 0.90393 0.36411 0.75346 0.0
O86 O 0.85619 0.35667 0.73325 0.0
O87 O 0.85743 0.35596 0.7858 0.0
C88 C 0.84959 0.36635 0.80075 0.0
O89 O 0.85442 0.38616 0.80269 0.0
O90 O 0.86306 0.40487 0.76316 0.0
Mg91 Mg 0.62151 0.87632 0.75188 0.0
C92 C 0.65511 0.85444 0.77576 0.0
O93 O 0.66556 0.85917 0.75881 0.0
C94 C 0.64554 0.91678 0.7546 0.0
O95 O 0.65718 0.90479 0.76629 0.0
C96 C 0.58308 0.8687 0.77573 0.0
O97 O 0.59536 0.87745 0.7895 0.0
O98 O 0.58927 0.86734 0.7569 0.0
O99 O 0.63702 0.86167 0.77802 0.0
O100 O 0.63615 0.86069 0.72562 0.0
C101 C 0.64656 0.87124 0.71247 0.0
O102 O 0.64482 0.89164 0.71243 0.0
O103 O 0.62838 0.90962 0.74811 0.0
Mg104 Mg 0.25842 0.14981 0.37139 0.0
C105 C 0.2817 0.1825 0.34668 0.0
O106 O 0.26503 0.19335 0.35077 0.0
C107 C 0.2545 0.1764 0.41014 0.0
O108 O 0.26086 0.1903 0.3965 0.0
C109 C 0.28091 0.10966 0.36487 0.0
O110 O 0.29494 0.1213 0.374 0.0
O111 O 0.26274 0.11694 0.36294 0.0
O112 O 0.2842 0.165 0.35572 0.0
O113 O 0.23235 0.16391 0.35573 0.0
C114 C 0.21645 0.16963 0.36582 0.0
O115 O 0.21402 0.16324 0.38515 0.0
O116 O 0.25368 0.15731 0.4046 0.0
Mg117 Mg 0.86899 0.26418 0.37616 0.0
C118 C 0.86365 0.30789 0.35918 0.0
O119 O 0.88386 0.30778 0.35937 0.0
C120 C 0.85579 0.25928 0.42259 0.0
O121 O 0.84901 0.27851 0.42095 0.0
C122 C 0.91397 0.27617 0.37263 0.0
O123 O 0.90977 0.28317 0.39145 0.0
O124 O 0.90018 0.26578 0.36303 0.0
O125 O 0.85401 0.29371 0.36911 0.0
O126 O 0.84818 0.24365 0.35931 0.0
C127 C 0.82986 0.24644 0.36591 0.0
O128 O 0.82685 0.26017 0.38084 0.0
O129 O 0.86592 0.25128 0.40758 0.0
Mg130 Mg 0.74533 0.87182 0.37747 0.0
C131 C 0.77172 0.84869 0.34636 0.0
O132 O 0.75513 0.85107 0.33488 0.0
C133 C 0.74322 0.91044 0.35109 0.0
O134 O 0.75145 0.89699 0.33807 0.0
C135 C 0.76593 0.86614 0.41851 0.0
O136 O 0.77961 0.87682 0.40775 0.0
O137 O 0.74831 0.86286 0.41036 0.0
O138 O 0.77277 0.85799 0.36386 0.0
O139 O 0.72071 0.85565 0.36118 0.0
C140 C 0.70525 0.86559 0.35418 0.0
O141 O 0.70209 0.8848 0.36054 0.0
O142 O 0.74049 0.9049 0.37001 0.0
Mg143 Mg 0.13016 0.74648 0.37826 0.0
C144 C 0.12886 0.70303 0.35893 0.0
O145 O 0.10902 0.70495 0.36236 0.0
C146 C 0.15245 0.74992 0.41943 0.0
O147 O 0.16553 0.73861 0.40864 0.0
C148 C 0.0834 0.74022 0.37547 0.0
O149 O 0.08612 0.733 0.39447 0.0
O150 O 0.09861 0.74867 0.36613 0.0
O151 O 0.14113 0.71628 0.36698 0.0
O152 O 0.15096 0.76834 0.36272 0.0
C153 C 0.16916 0.76163 0.35954 0.0
O154 O 0.17353 0.74231 0.36467 0.0
O155 O 0.13494 0.75398 0.41139 0.0
Mg156 Mg 0.25626 0.87052 0.63331 0.0
C157 C 0.23058 0.83384 0.63801 0.0
O158 O 0.24299 0.8298 0.62232 0.0
C159 C 0.25687 0.9064 0.66325 0.0
O160 O 0.253 0.89062 0.67578 0.0
C161 C 0.23429 0.86797 0.59259 0.0
O162 O 0.22065 0.87691 0.60482 0.0
O163 O 0.25243 0.86507 0.59965 0.0
O164 O 0.23195 0.8515 0.64702 0.0
O165 O 0.28338 0.85691 0.64776 0.0
C166 C 0.29781 0.86868 0.65429 0.0
O167 O 0.29852 0.88811 0.6478 0.0
O168 O 0.2572 0.9031 0.64363 0.0
Mg169 Mg 0.13 0.26316 0.6309 0.0
C170 C 0.13008 0.30477 0.6539 0.0
O171 O 0.11012 0.30314 0.65111 0.0
C172 C 0.15092 0.26622 0.58811 0.0
O173 O 0.16128 0.28099 0.59772 0.0
C174 C 0.0836 0.27111 0.63248 0.0
O175 O 0.0878 0.28002 0.61448 0.0
O176 O 0.09787 0.26114 0.64176 0.0
O177 O 0.14195 0.292 0.6446 0.0
O178 O 0.15012 0.24 0.6452 0.0
C179 C 0.16889 0.24586 0.64539 0.0
O180 O 0.17348 0.26437 0.63791 0.0
O181 O 0.13571 0.25775 0.59748 0.0
Mg182 Mg 0.75043 0.12821 0.62797 0.0
C183 C 0.78114 0.16073 0.63241 0.0
O184 O 0.76866 0.167 0.61756 0.0
C185 C 0.74991 0.08822 0.65397 0.0
O186 O 0.76272 0.09908 0.66554 0.0
C187 C 0.77126 0.13112 0.58739 0.0
O188 O 0.7845 0.12153 0.59956 0.0
O189 O 0.75311 0.13426 0.59434 0.0
O190 O 0.77841 0.14268 0.64027 0.0
O191 O 0.72698 0.14607 0.64471 0.0
C192 C 0.73258 0.1496 0.66344 0.0
O193 O 0.75026 0.14217 0.66993 0.0
O194 O 0.74392 0.09582 0.63665 0.0
Mg195 Mg 0.86573 0.74536 0.63461 0.0
C196 C 0.86462 0.71716 0.67027 0.0
O197 O 0.87992 0.73005 0.67402 0.0
C198 C 0.86169 0.76418 0.59289 0.0
O199 O 0.87372 0.77715 0.60311 0.0
C200 C 0.9079 0.72844 0.63401 0.0
O201 O 0.89733 0.71538 0.62236 0.0
O202 O 0.89908 0.74516 0.63998 0.0
O203 O 0.85474 0.71897 0.65318 0.0
O204 O 0.84736 0.77055 0.64759 0.0
C205 C 0.82863 0.76651 0.64319 0.0
O206 O 0.82459 0.74928 0.63283 0.0
O207 O 0.85679 0.74703 0.60166 0.0
Mg208 Mg 0.35838 0.23288 0.12884 0.0
C209 C 0.34123 0.18676 0.13292 0.0
O210 O 0.33641 0.16889 0.12413 0.0
C211 C 0.34789 0.24434 0.08411 0.0
O212 O 0.34337 0.22436 0.08383 0.0
C213 C 0.40052 0.21639 0.1379 0.0
O214 O 0.3945 0.20467 0.12221 0.0
O215 O 0.38893 0.23136 0.14363 0.0
O216 O 0.34936 0.20089 0.12153 0.0
O217 O 0.33455 0.24584 0.14876 0.0
C218 C 0.31631 0.24286 0.14212 0.0
O219 O 0.31371 0.23178 0.12506 0.0
O220 O 0.35602 0.25204 0.10049 0.0
Mg221 Mg 0.36427 0.7603 0.87481 0.0
C222 C 0.36545 0.80351 0.85521 0.0
O223 O 0.38521 0.80181 0.85914 0.0
C224 C 0.34729 0.76185 0.91975 0.0
O225 O 0.33729 0.77814 0.91258 0.0
C226 C 0.41061 0.766 0.87209 0.0
O227 O 0.40738 0.77302 0.89108 0.0
O228 O 0.39561 0.75774 0.8623 0.0
O229 O 0.3531 0.7902 0.86309 0.0
O230 O 0.34228 0.73912 0.86029 0.0
C231 C 0.32389 0.7451 0.86374 0.0
O232 O 0.32109 0.76217 0.87469 0.0
O233 O 0.36072 0.75315 0.90815 0.0
Mg234 Mg 0.24959 0.37086 0.87237 0.0
C235 C 0.20769 0.3686 0.85153 0.0
O236 O 0.20686 0.38803 0.8579 0.0
C237 C 0.24914 0.34803 0.9134 0.0
O238 O 0.24086 0.33399 0.90103 0.0
C239 C 0.2397 0.41734 0.87073 0.0
O240 O 0.23178 0.41305 0.88914 0.0
O241 O 0.24979 0.40319 0.86126 0.0
O242 O 0.22245 0.35713 0.85773 0.0
O243 O 0.27397 0.35192 0.85887 0.0
C244 C 0.28841 0.34467 0.87014 0.0
O245 O 0.29052 0.35154 0.88933 0.0
O246 O 0.2527 0.36618 0.90611 0.0
Mg247 Mg 0.6265 0.25849 0.87509 0.0
C248 C 0.65897 0.23378 0.85259 0.0
O249 O 0.66999 0.25028 0.8575 0.0
C250 C 0.65075 0.25683 0.91556 0.0
O251 O 0.66308 0.24596 0.90349 0.0
C252 C 0.58732 0.23539 0.86963 0.0
O253 O 0.59917 0.22217 0.87966 0.0
O254 O 0.59409 0.25381 0.86648 0.0
O255 O 0.64104 0.23182 0.86038 0.0
O256 O 0.64208 0.28413 0.85926 0.0
C257 C 0.65059 0.29864 0.86974 0.0
O258 O 0.64604 0.30054 0.88963 0.0
O259 O 0.63337 0.26257 0.90839 0.0
Mg260 Mg 0.74652 0.62696 0.88027 0.0
C261 C 0.78904 0.62939 0.86029 0.0
O262 O 0.78801 0.609 0.86174 0.0
C263 C 0.74846 0.64257 0.92561 0.0
O264 O 0.76571 0.65114 0.91906 0.0
C265 C 0.75508 0.5805 0.87595 0.0
O266 O 0.76273 0.58364 0.89467 0.0
O267 O 0.74559 0.59542 0.86703 0.0
O268 O 0.77559 0.64038 0.86964 0.0
O269 O 0.72549 0.64882 0.86544 0.0
C270 C 0.73015 0.66738 0.87077 0.0
O271 O 0.74549 0.67009 0.88384 0.0
O272 O 0.73879 0.63025 0.91347 0.0
Mg273 Mg 0.62596 0.75144 0.13757 0.0
C274 C 0.63232 0.79434 0.1571 0.0
O275 O 0.61259 0.79629 0.15312 0.0
C276 C 0.65167 0.74666 0.09924 0.0
O277 O 0.66471 0.75484 0.11265 0.0
C278 C 0.58096 0.7663 0.13773 0.0
O279 O 0.58634 0.77404 0.11952 0.0
O280 O 0.59374 0.75482 0.14747 0.0
O281 O 0.64194 0.77862 0.14992 0.0
O282 O 0.6421 0.7276 0.15521 0.0
C283 C 0.6504 0.71186 0.14657 0.0
O284 O 0.64585 0.70752 0.12707 0.0
O285 O 0.63288 0.74466 0.10473 0.0
Mg286 Mg 0.24571 0.64632 0.1383 0.0
C287 C 0.28601 0.67003 0.14511 0.0
O288 O 0.29009 0.66315 0.12626 0.0
C289 C 0.2441 0.60728 0.16369 0.0
O290 O 0.24743 0.62162 0.17797 0.0
C291 C 0.26089 0.64748 0.09317 0.0
O292 O 0.27055 0.63062 0.09945 0.0
O293 O 0.24813 0.65615 0.10555 0.0
O294 O 0.26991 0.66351 0.15442 0.0
O295 O 0.21856 0.65804 0.15437 0.0
C296 C 0.20383 0.64584 0.15928 0.0
O297 O 0.20309 0.62717 0.15086 0.0
O298 O 0.24458 0.6127 0.14455 0.0
Mg299 Mg 0.74913 0.37211 0.13633 0.0
C300 C 0.77424 0.34128 0.16098 0.0
O301 O 0.7574 0.33012 0.15866 0.0
C302 C 0.74815 0.34687 0.09656 0.0
O303 O 0.75646 0.33332 0.10941 0.0
C304 C 0.77127 0.41196 0.14343 0.0
O305 O 0.7852 0.4 0.13461 0.0
O306 O 0.75291 0.405 0.14507 0.0
O307 O 0.77611 0.35814 0.15069 0.0
O308 O 0.72395 0.35616 0.15226 0.0
C309 C 0.70945 0.34763 0.14197 0.0
O310 O 0.70742 0.35211 0.12208 0.0
O311 O 0.74491 0.36537 0.10305 0.0
H312 H 0.24212 0.59111 0.20309 0.0
H313 H 0.22455 0.55936 0.21452 0.0
H314 H 0.20879 0.54522 0.1507 0.0
H315 H 0.22666 0.57685 0.13907 0.0
H316 H 0.18377 0.55056 0.21023 0.0
H317 H 0.22983 0.48932 0.17088 0.0
H318 H 0.23874 0.5159 0.17332 0.0
H319 H 0.22044 0.50899 0.15339 0.0
C320 C 0.23526 0.58107 0.1914 0.0
C321 C 0.23591 0.58654 0.17012 0.0
C322 C 0.22513 0.56293 0.198 0.0
C323 C 0.21545 0.54974 0.18351 0.0
C324 C 0.21648 0.55487 0.16218 0.0
H325 H 0.13662 0.44063 0.19157 0.0
H326 H 0.15604 0.47156 0.18103 0.0
C327 C 0.2267 0.57301 0.15554 0.0
C328 C 0.20325 0.53141 0.1909 0.0
H329 H 0.19805 0.47854 0.18605 0.0
C330 C 0.187 0.53479 0.20505 0.0
C331 C 0.20739 0.51081 0.18414 0.0
C332 C 0.22517 0.50595 0.16975 0.0
C333 C 0.17456 0.51827 0.21224 0.0
C334 C 0.17861 0.4977 0.20537 0.0
C335 C 0.19491 0.4943 0.1913 0.0
C336 C 0.16596 0.47951 0.21225 0.0
C337 C 0.15682 0.52307 0.22671 0.0
C338 C 0.16491 0.47367 0.23339 0.0
C339 C 0.1537 0.45594 0.23953 0.0
C340 C 0.14341 0.44362 0.22462 0.0
C341 C 0.14428 0.44973 0.20352 0.0
C342 C 0.15546 0.4674 0.19742 0.0
H343 H 0.15266 0.53987 0.22635 0.0
H344 H 0.143 0.51371 0.22256 0.0
H345 H 0.16127 0.51905 0.24294 0.0
H346 H 0.17316 0.48253 0.2451 0.0
H347 H 0.15352 0.45161 0.25587 0.0
H348 H 0.55194 0.11658 0.20722 0.0
H349 H 0.52098 0.13382 0.19439 0.0
H350 H 0.52347 0.17715 0.24579 0.0
H351 H 0.55484 0.16009 0.25867 0.0
H352 H 0.48266 0.14083 0.21249 0.0
H353 H 0.52242 0.21579 0.19474 0.0
H354 H 0.53635 0.19215 0.20052 0.0
H355 H 0.52437 0.20667 0.22119 0.0
C356 C 0.54586 0.12966 0.21596 0.0
C357 C 0.55599 0.137 0.23394 0.0
C358 C 0.52812 0.13952 0.20857 0.0
C359 C 0.52008 0.15703 0.21887 0.0
C360 C 0.52962 0.16393 0.23732 0.0
H361 H 0.41494 0.23306 0.17484 0.0
H362 H 0.44348 0.21996 0.19638 0.0
C363 C 0.54744 0.15402 0.24479 0.0
C364 C 0.50196 0.16805 0.20984 0.0
H365 H 0.48722 0.21348 0.18609 0.0
C366 C 0.48362 0.15678 0.2069 0.0
C367 C 0.50317 0.18891 0.20256 0.0
C368 C 0.52265 0.20162 0.20472 0.0
C369 C 0.46667 0.16558 0.19652 0.0
C370 C 0.46814 0.18612 0.18855 0.0
C371 C 0.48615 0.19773 0.19218 0.0
C372 C 0.45169 0.19509 0.17513 0.0
C373 C 0.44734 0.15271 0.19396 0.0
C374 C 0.44727 0.18589 0.15579 0.0
C375 C 0.43114 0.19336 0.14346 0.0
C376 C 0.41902 0.21028 0.15014 0.0
C377 C 0.42395 0.22002 0.1692 0.0
C378 C 0.44022 0.21253 0.18156 0.0
H379 H 0.44654 0.13986 0.20558 0.0
H380 H 0.43335 0.16254 0.19557 0.0
H381 H 0.44723 0.14564 0.17815 0.0
H382 H 0.45616 0.17268 0.15033 0.0
H383 H 0.42792 0.18552 0.12884 0.0
H384 H 0.80945 0.42978 0.14261 0.0
H385 H 0.82157 0.46031 0.16167 0.0
H386 H 0.76038 0.47017 0.186 0.0
H387 H 0.74812 0.43916 0.16721 0.0
H388 H 0.81085 0.50114 0.16013 0.0
H389 H 0.7945 0.4694 0.23909 0.0
H390 H 0.79369 0.45343 0.21591 0.0
H391 H 0.77247 0.47031 0.22218 0.0
C392 C 0.79847 0.43843 0.15193 0.0
C393 C 0.77779 0.43187 0.15345 0.0
C394 C 0.80547 0.45594 0.16285 0.0
C395 C 0.79203 0.46735 0.17564 0.0
C396 C 0.77119 0.46133 0.17665 0.0
H397 H 0.80871 0.57855 0.25121 0.0
H398 H 0.79579 0.54744 0.23348 0.0
C399 C 0.76414 0.44371 0.16572 0.0
C400 C 0.80006 0.48548 0.18781 0.0
H401 H 0.8063 0.50438 0.23737 0.0
C402 C 0.80989 0.5018 0.17703 0.0
C403 C 0.79892 0.48635 0.20989 0.0
C404 C 0.78951 0.46887 0.22251 0.0
C405 C 0.81832 0.51904 0.18763 0.0
C406 C 0.81717 0.5199 0.20967 0.0
C407 C 0.80725 0.50366 0.22048 0.0
C408 C 0.82555 0.5379 0.22169 0.0
C409 C 0.82801 0.53643 0.1751 0.0
C410 C 0.84673 0.5426 0.22154 0.0
C411 C 0.85424 0.5604 0.2318 0.0
C412 C 0.84068 0.57387 0.24237 0.0
C413 C 0.8196 0.56862 0.24315 0.0
C414 C 0.81216 0.5508 0.23301 0.0
H415 H 0.82369 0.53561 0.15834 0.0
H416 H 0.82338 0.55189 0.18134 0.0
H417 H 0.84504 0.53525 0.17619 0.0
H418 H 0.85742 0.53266 0.21319 0.0
H419 H 0.87054 0.56396 0.23088 0.0
H420 H 0.55053 0.79118 0.12176 0.0
H421 H 0.52279 0.8086 0.14088 0.0
H422 H 0.54162 0.77786 0.19755 0.0
H423 H 0.56947 0.76038 0.1786 0.0
H424 H 0.48939 0.79266 0.16602 0.0
H425 H 0.54439 0.84117 0.21161 0.0
H426 H 0.55193 0.82717 0.18837 0.0
H427 H 0.54862 0.81347 0.2126 0.0
C428 C 0.54864 0.78788 0.13824 0.0
C429 C 0.56235 0.77443 0.14863 0.0
C430 C 0.53276 0.79789 0.14916 0.0
C431 C 0.53034 0.79482 0.17072 0.0
C432 C 0.54341 0.78073 0.18098 0.0
H433 H 0.42609 0.83957 0.24561 0.0
H434 H 0.45326 0.81807 0.23011 0.0
C435 C 0.55924 0.77061 0.17006 0.0
C436 C 0.5146 0.80694 0.18251 0.0
H437 H 0.50904 0.84497 0.21956 0.0
C438 C 0.49367 0.80402 0.1778 0.0
C439 C 0.52022 0.82195 0.1977 0.0
C440 C 0.5425 0.82634 0.20283 0.0
C441 C 0.47821 0.81562 0.18793 0.0
C442 C 0.48382 0.83046 0.2033 0.0
C443 C 0.50476 0.83345 0.20793 0.0
C444 C 0.46819 0.84365 0.21403 0.0
C445 C 0.45602 0.81231 0.18173 0.0
C446 C 0.46796 0.86532 0.21079 0.0
C447 C 0.45248 0.87768 0.21967 0.0
C448 C 0.43696 0.86867 0.23215 0.0
C449 C 0.43776 0.84707 0.2361 0.0
C450 C 0.4532 0.8347 0.22711 0.0
H451 H 0.45464 0.80355 0.16683 0.0
H452 H 0.44804 0.80324 0.1941 0.0
H453 H 0.44795 0.82748 0.18006 0.0
H454 H 0.47944 0.87259 0.20086 0.0
H455 H 0.45239 0.89424 0.2163 0.0
H456 H 0.21615 0.44953 0.88547 0.0
H457 H 0.20101 0.47814 0.86549 0.0
H458 H 0.23245 0.45692 0.81014 0.0
H459 H 0.2475 0.42806 0.82994 0.0
H460 H 0.21815 0.51049 0.8428 0.0
H461 H 0.17217 0.45861 0.79137 0.0
H462 H 0.18459 0.44939 0.81481 0.0
H463 H 0.19932 0.45322 0.79133 0.0
C464 C 0.22005 0.45103 0.8691 0.0
C465 C 0.23298 0.43637 0.85932 0.0
C466 C 0.21131 0.4674 0.85767 0.0
C467 C 0.2152 0.46943 0.8362 0.0
C468 C 0.22882 0.45539 0.82657 0.0
H469 H 0.18891 0.57901 0.7612 0.0
H470 H 0.20466 0.54941 0.77898 0.0
C471 C 0.2376 0.43901 0.83799 0.0
C472 C 0.20487 0.48616 0.82395 0.0
H473 H 0.17207 0.49473 0.78305 0.0
C474 C 0.20808 0.50704 0.82974 0.0
C475 C 0.19142 0.48165 0.80712 0.0
C476 C 0.18646 0.45951 0.80086 0.0
C477 C 0.19854 0.5235 0.81897 0.0
C478 C 0.18565 0.51904 0.8017 0.0
C479 C 0.18211 0.49816 0.79614 0.0
C480 C 0.1758 0.53594 0.78927 0.0
C481 C 0.20209 0.54555 0.82644 0.0
C482 C 0.15423 0.53772 0.78824 0.0
C483 C 0.14509 0.55464 0.77788 0.0
C484 C 0.15739 0.57004 0.76831 0.0
C485 C 0.17894 0.56759 0.76855 0.0
C486 C 0.18802 0.55071 0.77883 0.0
H487 H 0.20767 0.54595 0.84282 0.0
H488 H 0.21397 0.55307 0.81647 0.0
H489 H 0.18775 0.55491 0.82537 0.0
H490 H 0.14449 0.52641 0.79605 0.0
H491 H 0.12846 0.55603 0.77799 0.0
H492 H 0.56855 0.19785 0.87585 0.0
H493 H 0.53887 0.18335 0.85759 0.0
H494 H 0.53192 0.24078 0.8233 0.0
H495 H 0.56201 0.25542 0.84141 0.0
H496 H 0.49829 0.1962 0.85521 0.0
H497 H 0.53497 0.19711 0.77669 0.0
H498 H 0.5495 0.2011 0.80037 0.0
H499 H 0.53398 0.22179 0.78994 0.0
C500 C 0.56069 0.20752 0.86453 0.0
C501 C 0.5678 0.2278 0.86004 0.0
C502 C 0.54368 0.19916 0.85407 0.0
C503 C 0.53335 0.21078 0.83877 0.0
C504 C 0.5399 0.23133 0.83472 0.0
H505 H 0.42921 0.1706 0.76034 0.0
H506 H 0.45718 0.19102 0.77606 0.0
C507 C 0.55698 0.23976 0.84525 0.0
C508 C 0.51591 0.20105 0.82712 0.0
H509 H 0.50105 0.18397 0.77878 0.0
C510 C 0.49888 0.19363 0.83848 0.0
C511 C 0.51661 0.1977 0.80526 0.0
C512 C 0.53479 0.20467 0.79229 0.0
C513 C 0.48269 0.18281 0.82868 0.0
C514 C 0.48366 0.17894 0.80695 0.0
C515 C 0.50037 0.18686 0.79544 0.0
C516 C 0.46774 0.16613 0.79613 0.0
C517 C 0.46462 0.17564 0.8417 0.0
C518 C 0.46483 0.14512 0.80163 0.0
C519 C 0.44896 0.13338 0.79262 0.0
C520 C 0.43561 0.14236 0.77785 0.0
C521 C 0.43916 0.16316 0.77166 0.0
C522 C 0.45512 0.17489 0.78067 0.0
H523 H 0.46353 0.18442 0.85662 0.0
H524 H 0.44992 0.17748 0.83305 0.0
H525 H 0.46653 0.15887 0.84553 0.0
H526 H 0.47464 0.13789 0.81322 0.0
H527 H 0.44679 0.11741 0.79772 0.0
H528 H 0.7764 0.54646 0.88989 0.0
H529 H 0.791 0.51812 0.86909 0.0
H530 H 0.76313 0.54369 0.81369 0.0
H531 H 0.74861 0.57227 0.83434 0.0
H532 H 0.77309 0.48783 0.84377 0.0
H533 H 0.82432 0.53991 0.79768 0.0
H534 H 0.81132 0.54844 0.8211 0.0
H535 H 0.7975 0.54675 0.79687 0.0
C536 C 0.77316 0.54598 0.87332 0.0
C537 C 0.76139 0.56176 0.86381 0.0
C538 C 0.78158 0.52976 0.86143 0.0
C539 C 0.77855 0.529 0.83975 0.0
C540 C 0.76607 0.5442 0.83032 0.0
H541 H 0.80423 0.42292 0.75941 0.0
H542 H 0.78881 0.45239 0.77777 0.0
C543 C 0.75759 0.56043 0.84221 0.0
C544 C 0.78865 0.5124 0.82709 0.0
H545 H 0.82339 0.50428 0.78767 0.0
C546 C 0.78407 0.49144 0.83149 0.0
C547 C 0.80325 0.51708 0.81128 0.0
C548 C 0.80959 0.53924 0.80652 0.0
C549 C 0.7934 0.47508 0.82034 0.0
C550 C 0.80754 0.47978 0.80414 0.0
C551 C 0.81241 0.50071 0.79995 0.0
C552 C 0.81738 0.46305 0.79147 0.0
C553 C 0.78828 0.45286 0.82622 0.0
C554 C 0.83877 0.45974 0.79232 0.0
C555 C 0.84773 0.44287 0.78171 0.0
C556 C 0.83544 0.42907 0.76997 0.0
C557 C 0.81418 0.43311 0.76838 0.0
C558 C 0.80528 0.44991 0.77898 0.0
H559 H 0.78121 0.45184 0.84199 0.0
H560 H 0.77712 0.44641 0.81479 0.0
H561 H 0.80229 0.44294 0.82589 0.0
H562 H 0.84844 0.46979 0.80176 0.0
H563 H 0.86413 0.44023 0.7833 0.0
H564 H 0.5667 0.86914 0.81493 0.0
H565 H 0.53751 0.84912 0.8282 0.0
H566 H 0.52656 0.8242 0.76672 0.0
H567 H 0.55598 0.84433 0.75314 0.0
H568 H 0.48982 0.83778 0.78991 0.0
H569 H 0.5396 0.7847 0.83594 0.0
H570 H 0.54459 0.81195 0.8402 0.0
H571 H 0.54943 0.80073 0.81496 0.0
C572 C 0.55806 0.85955 0.8041 0.0
C573 C 0.56384 0.85826 0.78295 0.0
C574 C 0.54141 0.84801 0.81178 0.0
C575 C 0.53011 0.83485 0.79856 0.0
C576 C 0.5352 0.83414 0.77724 0.0
H577 H 0.41998 0.76017 0.83059 0.0
H578 H 0.44925 0.77479 0.81126 0.0
C579 C 0.55198 0.84569 0.7695 0.0
C580 C 0.51325 0.82171 0.8073 0.0
H581 H 0.50369 0.78381 0.84362 0.0
C582 C 0.49282 0.82577 0.80144 0.0
C583 C 0.51721 0.80606 0.82235 0.0
C584 C 0.5389 0.80041 0.82864 0.0
C585 C 0.47618 0.81528 0.81095 0.0
C586 C 0.48013 0.79998 0.82643 0.0
C587 C 0.50063 0.79552 0.8318 0.0
C588 C 0.46324 0.78942 0.8382 0.0
C589 C 0.4545 0.82135 0.80504 0.0
C590 C 0.46188 0.79185 0.85994 0.0
C591 C 0.44532 0.78331 0.87107 0.0
C592 C 0.42973 0.77207 0.86073 0.0
C593 C 0.43166 0.76878 0.83908 0.0
C594 C 0.44828 0.77732 0.82794 0.0
H595 H 0.45406 0.83647 0.79656 0.0
H596 H 0.44789 0.80921 0.79466 0.0
H597 H 0.44453 0.82255 0.81909 0.0
H598 H 0.47331 0.80097 0.86824 0.0
H599 H 0.44441 0.78615 0.88772 0.0
H600 H 0.18104 0.28228 0.56285 0.0
H601 H 0.19745 0.26578 0.53275 0.0
H602 H 0.15678 0.21285 0.53899 0.0
H603 H 0.13991 0.22953 0.56881 0.0
H604 H 0.21873 0.2301 0.53205 0.0
H605 H 0.15307 0.22284 0.47722 0.0
H606 H 0.15187 0.23885 0.50035 0.0
H607 H 0.14823 0.21106 0.50216 0.0
C608 C 0.1753 0.2673 0.55761 0.0
C609 C 0.15905 0.25731 0.56825 0.0
C610 C 0.18478 0.25782 0.5404 0.0
C611 C 0.1783 0.2381 0.53337 0.0
C612 C 0.16181 0.22825 0.54372 0.0
H613 H 0.22902 0.15483 0.43698 0.0
H614 H 0.21101 0.16853 0.46781 0.0
C615 C 0.15219 0.23781 0.56086 0.0
C616 C 0.18965 0.22748 0.51605 0.0
H617 H 0.1839 0.20523 0.46781 0.0
C618 C 0.21107 0.22474 0.518 0.0
C619 C 0.17974 0.22031 0.49768 0.0
C620 C 0.157 0.22356 0.49408 0.0
C621 C 0.22277 0.21511 0.50221 0.0
C622 C 0.21288 0.2081 0.48383 0.0
C623 C 0.19145 0.2105 0.48196 0.0
C624 C 0.22469 0.19928 0.46592 0.0
C625 C 0.24564 0.2124 0.50534 0.0
C626 C 0.23846 0.21193 0.45468 0.0
C627 C 0.24869 0.20419 0.43707 0.0
C628 C 0.24547 0.18355 0.43029 0.0
C629 C 0.23204 0.17071 0.44188 0.0
C630 C 0.22163 0.17856 0.45943 0.0
H631 H 0.25003 0.21388 0.52204 0.0
H632 H 0.25079 0.19695 0.49951 0.0
H633 H 0.25399 0.22462 0.49641 0.0
H634 H 0.24089 0.22803 0.45922 0.0
H635 H 0.25882 0.21457 0.42849 0.0
H636 H 0.74917 0.14658 0.55401 0.0
H637 H 0.76267 0.16664 0.52423 0.0
H638 H 0.82391 0.16259 0.55004 0.0
H639 H 0.81084 0.14173 0.57878 0.0
H640 H 0.77993 0.20266 0.52126 0.0
H641 H 0.8373 0.1463 0.49257 0.0
H642 H 0.81845 0.13934 0.51205 0.0
H643 H 0.84223 0.15198 0.51945 0.0
C644 C 0.76556 0.14964 0.55302 0.0
C645 C 0.77896 0.14218 0.56854 0.0
C646 C 0.77328 0.16119 0.53606 0.0
C647 C 0.79448 0.16575 0.53448 0.0
C648 C 0.80769 0.15863 0.55027 0.0
H649 H 0.84518 0.27024 0.46259 0.0
H650 H 0.83042 0.24769 0.48971 0.0
C651 C 0.80011 0.14674 0.56685 0.0
C652 C 0.80281 0.17873 0.517 0.0
H653 H 0.84269 0.18201 0.48227 0.0
C654 C 0.7935 0.19799 0.51253 0.0
C655 C 0.8203 0.17262 0.50522 0.0
C656 C 0.82996 0.15132 0.50742 0.0
C657 C 0.80145 0.21147 0.49712 0.0
C658 C 0.81986 0.20603 0.48647 0.0
C659 C 0.82884 0.18652 0.4906 0.0
C660 C 0.82975 0.21985 0.47048 0.0
C661 C 0.78963 0.23111 0.49216 0.0
C662 C 0.83554 0.21163 0.451 0.0
C663 C 0.84479 0.22429 0.43586 0.0
C664 C 0.84815 0.24564 0.43965 0.0
C665 C 0.84267 0.25388 0.4592 0.0
C666 C 0.83394 0.24103 0.4746 0.0
H667 H 0.77303 0.2294 0.49614 0.0
H668 H 0.79584 0.24418 0.50162 0.0
H669 H 0.79089 0.23526 0.47538 0.0
H670 H 0.8326 0.1954 0.4473 0.0
H671 H 0.84861 0.21749 0.42087 0.0
H672 H 0.80022 0.87412 0.4417 0.0
H673 H 0.81314 0.8547 0.47173 0.0
H674 H 0.75948 0.81499 0.47011 0.0
H675 H 0.74636 0.83442 0.43986 0.0
H676 H 0.79427 0.84682 0.51174 0.0
H677 H 0.80933 0.77395 0.46701 0.0
H678 H 0.80535 0.79879 0.45433 0.0
H679 H 0.78386 0.78486 0.4652 0.0
C680 C 0.79102 0.86139 0.4478 0.0
C681 C 0.77226 0.85581 0.43828 0.0
C682 C 0.79846 0.85027 0.46498 0.0
C683 C 0.78747 0.83317 0.47298 0.0
C684 C 0.76839 0.82793 0.464 0.0
H685 H 0.82752 0.74778 0.57321 0.0
H686 H 0.80821 0.76339 0.54415 0.0
C687 C 0.76082 0.83917 0.44683 0.0
C688 C 0.79631 0.82089 0.49054 0.0
H689 H 0.8185 0.77401 0.50256 0.0
C690 C 0.79943 0.83085 0.50978 0.0
C691 C 0.80296 0.80001 0.488 0.0
C692 C 0.80038 0.7887 0.46752 0.0
C693 C 0.80925 0.82065 0.52644 0.0
C694 C 0.81666 0.80005 0.52367 0.0
C695 C 0.81294 0.78982 0.50465 0.0
C696 C 0.82912 0.78941 0.54004 0.0
C697 C 0.81158 0.83207 0.54691 0.0
C698 C 0.84771 0.79833 0.54681 0.0
C699 C 0.85872 0.78949 0.56332 0.0
C700 C 0.85154 0.77135 0.57336 0.0
C701 C 0.83351 0.76172 0.5658 0.0
C702 C 0.82241 0.77068 0.54926 0.0
H703 H 0.79995 0.84467 0.54855 0.0
H704 H 0.81003 0.82124 0.56036 0.0
H705 H 0.82708 0.83938 0.54756 0.0
H706 H 0.85352 0.81246 0.53959 0.0
H707 H 0.87263 0.79724 0.56857 0.0
H708 H 0.13248 0.77997 0.4426 0.0
H709 H 0.14652 0.80023 0.47184 0.0
H710 H 0.20247 0.76419 0.46939 0.0
H711 H 0.18872 0.74405 0.4402 0.0
H712 H 0.16169 0.78834 0.51159 0.0
H713 H 0.22342 0.82432 0.46346 0.0
H714 H 0.20173 0.81078 0.45212 0.0
H715 H 0.22297 0.79631 0.46276 0.0
C716 C 0.14767 0.77619 0.44843 0.0
C717 C 0.1595 0.76045 0.43889 0.0
C718 C 0.15572 0.78784 0.46511 0.0
C719 C 0.17576 0.78408 0.4725 0.0
C720 C 0.18719 0.76775 0.46364 0.0
H721 H 0.25464 0.83911 0.56831 0.0
H722 H 0.24051 0.81911 0.53893 0.0
C723 C 0.1792 0.75613 0.44701 0.0
C724 C 0.18487 0.79731 0.48929 0.0
H725 H 0.22495 0.83042 0.49995 0.0
C726 C 0.17545 0.79763 0.50902 0.0
C727 C 0.2029 0.8094 0.48596 0.0
C728 C 0.21328 0.8104 0.46489 0.0
C729 C 0.18376 0.80933 0.5256 0.0
C730 C 0.20177 0.82146 0.52227 0.0
C731 C 0.21119 0.82114 0.50253 0.0
C732 C 0.21093 0.83465 0.53907 0.0
C733 C 0.17345 0.80816 0.5467 0.0
C734 C 0.19935 0.8506 0.54842 0.0
C735 C 0.20738 0.86203 0.56516 0.0
C736 C 0.22728 0.85796 0.57285 0.0
C737 C 0.23929 0.84272 0.56277 0.0
C738 C 0.23119 0.8312 0.54602 0.0
H739 H 0.16358 0.79405 0.54817 0.0
H740 H 0.18502 0.80801 0.55946 0.0
H741 H 0.16347 0.82204 0.54883 0.0
H742 H 0.18392 0.85398 0.54299 0.0
H743 H 0.19773 0.87375 0.57242 0.0
H744 H 0.63064 0.94044 0.7222 0.0
H745 H 0.64803 0.96947 0.70454 0.0
H746 H 0.69747 0.96654 0.74933 0.0
H747 H 0.68045 0.93731 0.76679 0.0
H748 H 0.66104 0.00848 0.71682 0.0
H749 H 0.72829 0.96012 0.6946 0.0
H750 H 0.70481 0.94898 0.70486 0.0
H751 H 0.72352 0.96036 0.7222 0.0
C752 C 0.64508 0.94614 0.72847 0.0
C753 C 0.65422 0.93639 0.74583 0.0
C754 C 0.65505 0.9627 0.71829 0.0
C755 C 0.67434 0.96984 0.72525 0.0
C756 C 0.68291 0.96092 0.74328 0.0
H757 H 0.76035 0.06688 0.68942 0.0
H758 H 0.74182 0.03782 0.70571 0.0
C759 C 0.67303 0.94431 0.75337 0.0
C760 C 0.68571 0.98632 0.71351 0.0
H761 H 0.73143 0.99669 0.6889 0.0
C762 C 0.67636 0.00585 0.71058 0.0
C763 C 0.70569 0.98287 0.70524 0.0
C764 C 0.71611 0.96189 0.70667 0.0
C765 C 0.68668 0.02217 0.70018 0.0
C766 C 0.70679 0.01881 0.6923 0.0
C767 C 0.71605 0.99925 0.69502 0.0
C768 C 0.71862 0.03559 0.6816 0.0
C769 C 0.67622 0.04306 0.69815 0.0
C770 C 0.71209 0.04358 0.66231 0.0
C771 C 0.72276 0.06011 0.65284 0.0
C772 C 0.74014 0.06902 0.66254 0.0
C773 C 0.74702 0.06046 0.68152 0.0
C774 C 0.73643 0.04386 0.69089 0.0
H775 H 0.66253 0.04434 0.70851 0.0
H776 H 0.6871 0.0559 0.70195 0.0
H777 H 0.67105 0.04523 0.68179 0.0
H778 H 0.69857 0.03721 0.65471 0.0
H779 H 0.717 0.06629 0.63824 0.0
H780 H 0.92875 0.74527 0.66748 0.0
H781 H 0.95755 0.72952 0.68657 0.0
H782 H 0.95977 0.67938 0.64179 0.0
H783 H 0.93103 0.69484 0.62279 0.0
H784 H 0.95704 0.66583 0.68335 0.0
H785 H 0.01956 0.72451 0.67365 0.0
H786 H 0.99534 0.73436 0.68304 0.0
H787 H 0.99707 0.72397 0.65707 0.0
C788 C 0.9357 0.73117 0.66141 0.0
C789 C 0.92755 0.72133 0.64358 0.0
C790 C 0.95218 0.72216 0.67236 0.0
C791 C 0.96089 0.70327 0.66559 0.0
C792 C 0.9533 0.69393 0.64734 0.0
H793 H 0.05157 0.61261 0.70242 0.0
H794 H 0.0227 0.6319 0.68757 0.0
C795 C 0.93688 0.70286 0.63644 0.0
C796 C 0.97686 0.69231 0.67814 0.0
H797 H 0.02657 0.69566 0.69546 0.0
C798 C 0.97224 0.67238 0.68602 0.0
C799 C 0.99662 0.70092 0.68182 0.0
C800 C 0.00261 0.72205 0.67336 0.0
C801 C 0.98683 0.66076 0.69727 0.0
C802 C 0.0068 0.66909 0.70043 0.0
C803 C 0.01128 0.68925 0.69302 0.0
C804 C 0.02354 0.65674 0.71043 0.0
C805 C 0.98065 0.63972 0.70581 0.0
C806 C 0.03379 0.66427 0.72821 0.0
C807 C 0.0504 0.65324 0.73677 0.0
C808 C 0.05726 0.63454 0.72757 0.0
C809 C 0.04666 0.62685 0.71002 0.0
C810 C 0.03006 0.63785 0.70153 0.0
H811 H 0.96368 0.63846 0.70776 0.0
H812 H 0.98555 0.6274 0.69471 0.0
H813 H 0.9881 0.63665 0.7211 0.0
H814 H 0.0291 0.67885 0.73532 0.0
H815 H 0.05828 0.65973 0.75018 0.0
H816 H 0.32116 0.06013 0.77544 0.0
H817 H 0.30609 0.02926 0.759 0.0
H818 H 0.34881 0.03523 0.7077 0.0
H819 H 0.36441 0.06566 0.72442 0.0
H820 H 0.28618 0.02709 0.72323 0.0
H821 H 0.35328 0.97407 0.71824 0.0
H822 H 0.35366 0.99753 0.73379 0.0
H823 H 0.35812 0.99879 0.70606 0.0
C824 C 0.32765 0.05462 0.76087 0.0
C825 C 0.3441 0.06533 0.75134 0.0
C826 C 0.31894 0.03699 0.75142 0.0
C827 C 0.32638 0.02967 0.73215 0.0
C828 C 0.34308 0.04013 0.72279 0.0
H829 H 0.27809 0.93785 0.64342 0.0
H830 H 0.29439 0.96847 0.65953 0.0
C831 C 0.35197 0.05763 0.73237 0.0
C832 C 0.31578 0.012 0.72134 0.0
H833 H 0.32358 0.96433 0.69858 0.0
C834 C 0.29439 0.01334 0.71797 0.0
C835 C 0.32641 0.99398 0.71438 0.0
C836 C 0.34909 0.99087 0.71848 0.0
C837 C 0.28346 0.99734 0.70779 0.0
C838 C 0.29414 0.97952 0.70069 0.0
C839 C 0.31548 0.97814 0.70389 0.0
C840 C 0.28323 0.96176 0.69064 0.0
C841 C 0.26056 0.99956 0.70454 0.0
C842 C 0.27139 0.948 0.70276 0.0
C843 C 0.26216 0.93047 0.69365 0.0
C844 C 0.26444 0.92641 0.67218 0.0
C845 C 0.27583 0.9406 0.65995 0.0
C846 C 0.28526 0.95804 0.66914 0.0
H847 H 0.25504 0.01553 0.70827 0.0
H848 H 0.25648 0.99582 0.68813 0.0
H849 H 0.25232 0.9883 0.71476 0.0
H850 H 0.26972 0.95054 0.7194 0.0
H851 H 0.25359 0.91984 0.70356 0.0
H852 H 0.073 0.26255 0.67322 0.0
H853 H 0.04319 0.27577 0.69266 0.0
H854 H 0.02114 0.30628 0.63705 0.0
H855 H 0.05061 0.29295 0.6175 0.0
H856 H 0.0331 0.31701 0.69958 0.0
H857 H 0.96929 0.27769 0.65791 0.0
H858 H 0.99578 0.26954 0.65528 0.0
H859 H 0.98628 0.2914 0.64054 0.0
C860 C 0.06158 0.27169 0.665 0.0
C861 C 0.0642 0.27657 0.64371 0.0
C862 C 0.04459 0.27936 0.67619 0.0
C863 C 0.02974 0.29187 0.66632 0.0
C864 C 0.0321 0.29633 0.64497 0.0
H865 H 0.92583 0.36886 0.69531 0.0
H866 H 0.95542 0.35048 0.68083 0.0
C867 C 0.04906 0.28872 0.6338 0.0
C868 C 0.01246 0.30133 0.67846 0.0
H869 H 0.96009 0.30707 0.67901 0.0
C870 C 0.01711 0.31462 0.69528 0.0
C871 C 0.99157 0.29821 0.6729 0.0
C872 C 0.98539 0.28327 0.65581 0.0
C873 C 0.00155 0.32556 0.70603 0.0
C874 C 0.98073 0.32295 0.7 0.0
C875 C 0.97605 0.30919 0.68358 0.0
C876 C 0.96359 0.33507 0.70968 0.0
C877 C 0.00758 0.34047 0.72319 0.0
C878 C 0.95837 0.33279 0.73088 0.0
C879 C 0.94134 0.34341 0.73932 0.0
C880 C 0.92916 0.35643 0.72666 0.0
C881 C 0.93479 0.35899 0.70557 0.0
C882 C 0.95172 0.34842 0.69721 0.0
H883 H 0.02437 0.34391 0.72308 0.0
H884 H -0.00099 0.35538 0.72173 0.0
H885 H 0.00362 0.33346 0.73852 0.0
H886 H 0.9671 0.32235 0.74078 0.0
H887 H 0.93737 0.34093 0.75556 0.0
H888 H 0.71611 0.93729 0.37036 0.0
H889 H 0.69777 0.9667 0.35442 0.0
H890 H 0.7314 0.95732 0.29711 0.0
H891 H 0.74946 0.92783 0.31272 0.0
H892 H 0.71042 1.00388 0.33642 0.0
H893 H 0.67213 0.95423 0.27719 0.0
H894 H 0.68552 0.94347 0.29938 0.0
H895 H 0.69968 0.95203 0.27676 0.0
C896 C 0.71978 0.94164 0.35444 0.0
C897 C 0.73416 0.93006 0.34278 0.0
C898 C 0.70921 0.95842 0.34531 0.0
C899 C 0.71279 0.9639 0.32436 0.0
C900 C 0.72791 0.95304 0.31308 0.0
H901 H 0.67014 0.05823 0.23773 0.0
H902 H 0.68673 0.02886 0.2554 0.0
C903 C 0.73837 0.93625 0.32212 0.0
C904 C 0.70064 0.98078 0.31415 0.0
H905 H 0.66946 0.99098 0.27233 0.0
C906 C 0.70133 1.00103 0.32252 0.0
C907 C 0.68868 0.97707 0.29601 0.0
C908 C 0.68625 0.95549 0.28691 0.0
C909 C 0.69094 0.01773 0.3129 0.0
C910 C 0.67933 0.01406 0.29455 0.0
C911 C 0.67843 0.99379 0.28633 0.0
C912 C 0.66832 0.03116 0.28347 0.0
C913 C 0.69295 0.03929 0.32211 0.0
C914 C 0.65202 0.04185 0.2931 0.0
C915 C 0.64238 0.05858 0.28299 0.0
C916 C 0.64887 0.06501 0.26299 0.0
C917 C 0.66474 0.05377 0.25311 0.0
C918 C 0.67429 0.03698 0.2632 0.0
H919 H 0.70586 0.04032 0.33344 0.0
H920 H 0.69543 0.05108 0.30965 0.0
H921 H 0.67848 0.04331 0.33044 0.0
H922 H 0.64689 0.0374 0.30858 0.0
H923 H 0.63021 0.06682 0.29109 0.0
H924 H 0.94961 0.62043 0.29489 0.0
H925 H 0.97758 0.64091 0.31026 0.0
H926 H 0.95731 0.69521 0.27638 0.0
H927 H 0.92916 0.67488 0.261 0.0
H928 H 0.0102 0.66458 0.29241 0.0
H929 H 0.95631 0.71413 0.33809 0.0
H930 H 0.94832 0.69011 0.32578 0.0
H931 H 0.95173 0.71332 0.31044 0.0
C932 C 0.95121 0.63666 0.29048 0.0
C933 C 0.93701 0.64599 0.27677 0.0
C934 C 0.96723 0.64837 0.29931 0.0
C935 C 0.96934 0.6697 0.29479 0.0
C936 C 0.95577 0.67887 0.28041 0.0
H937 H 0.07623 0.74466 0.33343 0.0
H938 H 0.04818 0.72921 0.31306 0.0
C939 C 0.93978 0.66715 0.27148 0.0
C940 C 0.98534 0.68236 0.30566 0.0
H941 H 0.99177 0.72206 0.34078 0.0
C942 C 0.00619 0.67723 0.30288 0.0
C943 C 0.98008 0.6987 0.31956 0.0
C944 C 0.95791 0.70436 0.32386 0.0
C945 C 0.0219 0.68798 0.31358 0.0
C946 C 0.01664 0.70447 0.3273 0.0
C947 C 0.99579 0.70959 0.3301 0.0
C948 C 0.03254 0.71577 0.33973 0.0
C949 C 0.04396 0.68117 0.31059 0.0
C950 C 0.0326 0.7142 0.36159 0.0
C951 C 0.04856 0.72311 0.37331 0.0
C952 C 0.06477 0.73393 0.36343 0.0
C953 C 0.06404 0.73644 0.34159 0.0
C954 C 0.0481 0.72745 0.32988 0.0
H955 H 0.045 0.66558 0.30311 0.0
H956 H 0.05202 0.69258 0.30041 0.0
H957 H 0.05219 0.68064 0.32577 0.0
H958 H 0.02069 0.70538 0.36955 0.0
H959 H 0.04856 0.72088 0.39007 0.0
H960 H 0.37663 0.95243 0.28364 0.0
H961 H 0.36353 0.98275 0.30269 0.0
H962 H 0.31124 0.98564 0.26135 0.0
H963 H 0.32445 0.95572 0.24192 0.0
H964 H 0.32584 0.02423 0.27001 0.0
H965 H 0.31637 0.98005 0.34383 0.0
H966 H 0.34228 0.97972 0.334 0.0
H967 H 0.32199 0.96744 0.3193 0.0
C968 C 0.36247 0.95966 0.27843 0.0
C969 C 0.35155 0.95148 0.2613 0.0
C970 C 0.35487 0.97688 0.2895 0.0
C971 C 0.33607 0.98617 0.28385 0.0
C972 C 0.32566 0.97865 0.26617 0.0
H973 H 0.25943 0.08627 0.33611 0.0
H974 H 0.27193 0.05587 0.31654 0.0
C975 C 0.33329 0.96152 0.25503 0.0
C976 C 0.32708 1.00352 0.29645 0.0
H977 H 0.3111 0.01669 0.34566 0.0
C978 C 0.32252 0.02252 0.28652 0.0
C979 C 0.32257 1.00131 0.318 0.0
C980 C 0.32585 0.98098 0.32939 0.0
C981 C 0.31409 0.03944 0.29761 0.0
C982 C 0.30989 0.0373 0.31919 0.0
C983 C 0.31433 0.01831 0.32911 0.0
C984 C 0.3016 0.05486 0.33187 0.0
C985 C 0.3102 0.05968 0.28628 0.0
C986 C 0.31383 0.06396 0.34745 0.0
C987 C 0.30676 0.08129 0.35864 0.0
C988 C 0.28716 0.0898 0.35465 0.0
C989 C 0.27457 0.08012 0.33961 0.0
C990 C 0.28176 0.06284 0.32829 0.0
H991 H 0.31784 0.0601 0.27075 0.0
H992 H 0.29337 0.06162 0.28389 0.0
H993 H 0.31576 0.07313 0.29566 0.0
H994 H 0.32914 0.058 0.35058 0.0
H995 H 0.31686 0.08827 0.37014 0.0
H996 H 0.06017 0.35184 0.25431 0.0
H997 H 0.03071 0.33246 0.26845 0.0
H998 H 0.02645 0.37623 0.31938 0.0
H999 H 0.05538 0.39592 0.30511 0.0
H1000 H 0.02811 0.31249 0.30514 0.0
H1001 H 0.96712 0.37252 0.30269 0.0
H1002 H 0.99125 0.37555 0.28898 0.0
H1003 H 0.98946 0.38166 0.31637 0.0
C1004 C 0.05268 0.35761 0.26827 0.0
C1005 C 0.06013 0.37555 0.27849 0.0
C1006 C 0.03588 0.34643 0.2764 0.0
C1007 C 0.02612 0.35298 0.29487 0.0
C1008 C 0.0333 0.3711 0.30484 0.0
H1009 H 0.94302 0.30361 0.38687 0.0
H1010 H 0.9704 0.32064 0.3669 0.0
C1011 C 0.04998 0.38234 0.29668 0.0
C1012 C 0.00937 0.34021 0.3045 0.0
H1013 H 0.9609 0.34325 0.32531 0.0
C1014 C 0.01331 0.31916 0.30927 0.0
C1015 C 0.98997 0.34881 0.30987 0.0
C1016 C 0.98411 0.37081 0.30401 0.0
C1017 C -0.00127 0.3068 0.31992 0.0
C1018 C 0.97975 0.3157 0.32597 0.0
C1019 C 0.97557 0.33653 0.3208 0.0
C1020 C 0.96423 0.30388 0.33831 0.0
C1021 C 0.00388 0.28451 0.32526 0.0
C1022 C 0.95186 0.28854 0.32892 0.0
C1023 C 0.93607 0.27877 0.34029 0.0
C1024 C 0.9324 0.28416 0.36129 0.0
C1025 C 0.94538 0.299 0.37078 0.0
C1026 C 0.96102 0.30884 0.35937 0.0
H1027 H 0.02003 0.28047 0.32117 0.0
H1028 H 0.00148 0.28172 0.3422 0.0
H1029 H 0.99338 0.27388 0.31665 0.0
H1030 H 0.95404 0.28458 0.31262 0.0
H1031 H 0.92634 0.26749 0.33244 0.0
H1032 H 0.76457 0.66923 0.95476 0.0
H1033 H 0.74689 0.68515 0.98443 0.0
H1034 H 0.69217 0.64961 0.97041 0.0
H1035 H 0.7097 0.63367 0.94053 0.0
H1036 H 0.68474 0.69246 0.97601 0.0
H1037 H 0.73111 0.66092 0.04138 0.0
H1038 H 0.74628 0.67297 0.02124 0.0
H1039 H 0.73171 0.64978 0.0155 0.0
C1040 C 0.74889 0.66449 0.95815 0.0
C1041 C 0.73862 0.65008 0.94523 0.0
C1042 C 0.7388 0.6736 0.9752 0.0
C1043 C 0.71824 0.66847 0.9798 0.0
C1044 C 0.70805 0.65377 0.96722 0.0
H1045 H 0.6315 0.72046 0.07195 0.0
H1046 H 0.64644 0.70136 0.04244 0.0
C1047 C 0.71816 0.64458 0.95019 0.0
C1048 C 0.7071 0.67931 0.99701 0.0
H1049 H 0.7088 0.68927 0.04939 0.0
C1050 C 0.68986 0.69161 0.9921 0.0
C1051 C 0.71379 0.67825 0.018 0.0
C1052 C 0.73162 0.66462 0.02444 0.0
C1053 C 0.6796 0.70342 0.00746 0.0
C1054 C 0.68652 0.70261 0.0284 0.0
C1055 C 0.70353 0.69 0.03334 0.0
C1056 C 0.6768 0.71512 0.04539 0.0
C1057 C 0.66193 0.71722 1.00097 0.0
C1058 C 0.68882 0.72918 0.05698 0.0
C1059 C 0.68036 0.74 0.07389 0.0
C1060 C 0.65964 0.73702 0.07971 0.0
C1061 C 0.64744 0.72332 0.06778 0.0
C1062 C 0.65597 0.7124 0.05086 0.0
H1063 H 0.66194 0.72016 0.98388 0.0
H1064 H 0.64717 0.70944 1.00506 0.0
H1065 H 0.66252 0.73244 0.00922 0.0
H1066 H 0.70492 0.73157 0.05311 0.0
H1067 H 0.69026 0.75039 0.0827 0.0
H1068 H 0.24798 0.68533 0.07783 0.0
H1069 H 0.26221 0.70472 0.04816 0.0
H1070 H 0.30413 0.65416 0.03555 0.0
H1071 H 0.28981 0.63457 0.06488 0.0
H1072 H 0.30229 0.71817 0.04322 0.0
H1073 H 0.28111 0.66568 0.97791 0.0
H1074 H 0.26975 0.66337 1.00355 0.0
H1075 H 0.29488 0.65273 0.99842 0.0
C1076 C 0.25996 0.67815 0.06852 0.0
C1077 C 0.26765 0.6583 0.07374 0.0
C1078 C 0.26816 0.68932 0.0516 0.0
C1079 C 0.28412 0.68085 0.03943 0.0
C1080 C 0.29155 0.66089 0.04438 0.0
H1081 H 0.36066 0.72484 0.93654 0.0
H1082 H 0.34616 0.70601 0.96642 0.0
C1083 C 0.28336 0.64971 0.06126 0.0
C1084 C 0.29378 0.6933 0.02233 0.0
H1085 H 0.30529 0.69258 0.97022 0.0
C1086 C 0.30281 0.71264 0.02723 0.0
C1087 C 0.29458 0.68607 1.00145 0.0
C1088 C 0.2844 0.66592 0.99493 0.0
C1089 C 0.31293 0.72471 0.01197 0.0
C1090 C 0.31381 0.71743 0.99112 0.0
C1091 C 0.30474 0.69813 0.98621 0.0
C1092 C 0.3237 0.72972 0.97406 0.0
C1093 C 0.32301 0.74494 0.0184 0.0
C1094 C 0.31608 0.74944 0.96849 0.0
C1095 C 0.32438 0.76028 0.95143 0.0
C1096 C 0.34044 0.75161 0.93946 0.0
C1097 C 0.3484 0.73208 0.94543 0.0
C1098 C 0.34005 0.72122 0.96247 0.0
H1099 H 0.3258 0.74554 0.0355 0.0
H1100 H 0.33791 0.74722 0.01015 0.0
H1101 H 0.31273 0.75812 0.01426 0.0
H1102 H 0.30325 0.75618 0.97692 0.0
H1103 H 0.31775 0.7752 0.94725 0.0
H1104 H 0.2781 0.3682 0.93736 0.0
H1105 H 0.29617 0.35438 0.96802 0.0
H1106 H 0.25854 0.29896 0.96597 0.0
H1107 H 0.24054 0.31249 0.93527 0.0
H1108 H 0.26678 0.32059 0.00885 0.0
H1109 H 0.33543 0.30004 0.96075 0.0
H1110 H 0.32425 0.32559 0.95776 0.0
H1111 H 0.31015 0.30305 0.94937 0.0
C1112 C 0.27339 0.35325 0.94366 0.0
C1113 C 0.25788 0.34143 0.93381 0.0
C1114 C 0.28382 0.34534 0.96111 0.0
C1115 C 0.27879 0.32559 0.96914 0.0
C1116 C 0.26268 0.31422 0.95998 0.0
H1117 H 0.33494 0.23223 0.04544 0.0
H1118 H 0.31962 0.25385 0.01814 0.0
C1119 C 0.2524 0.322 0.94244 0.0
C1120 C 0.29098 0.31615 0.98634 0.0
H1121 H 0.33619 0.29071 0.99626 0.0
C1122 C 0.28205 0.31428 0.00621 0.0
C1123 C 0.31081 0.30775 0.98274 0.0
C1124 C 0.32083 0.30904 0.96152 0.0
C1125 C 0.29238 0.30401 0.02256 0.0
C1126 C 0.31214 0.2954 0.01892 0.0
C1127 C 0.32113 0.29747 0.99907 0.0
C1128 C 0.32296 0.28284 0.03505 0.0
C1129 C 0.28181 0.30176 0.04344 0.0
C1130 C 0.33047 0.29203 0.05345 0.0
C1131 C 0.33944 0.2797 0.06909 0.0
C1132 C 0.34093 0.25792 0.06666 0.0
C1133 C 0.334 0.24892 0.04789 0.0
C1134 C 0.32522 0.26126 0.03224 0.0
H1135 H 0.26538 0.30657 0.04282 0.0
H1136 H 0.28263 0.28535 0.04893 0.0
H1137 H 0.28981 0.31167 0.05511 0.0
H1138 H 0.32908 0.3087 0.05585 0.0
H1139 H 0.34456 0.28714 0.08336 0.0
H1140 H 0.75641 0.3104 0.07622 0.0
H1141 H 0.73938 0.29634 0.04526 0.0
H1142 H 0.70228 0.35193 0.0409 0.0
H1143 H 0.71974 0.36636 0.07153 0.0
H1144 H 0.69984 0.28646 0.0408 0.0
H1145 H 0.71979 0.34593 0.98122 0.0
H1146 H 0.73233 0.34488 0.00632 0.0
H1147 H 0.70736 0.35677 1.00375 0.0
C1148 C 0.7449 0.31983 0.06845 0.0
C1149 C 0.73955 0.33958 0.07631 0.0
C1150 C 0.7351 0.31172 0.05077 0.0
C1151 C 0.71963 0.3231 0.04052 0.0
C1152 C 0.71448 0.343 0.04814 0.0
H1153 H 0.63531 0.28907 0.93906 0.0
H1154 H 0.65084 0.30498 0.97016 0.0
C1155 C 0.72446 0.35123 0.06573 0.0
C1156 C 0.70819 0.31355 0.0227 0.0
H1157 H 0.69454 0.32076 0.97161 0.0
C1158 C 0.69878 0.29397 0.02566 0.0
C1159 C 0.70667 0.3233 1.0029 0.0
C1160 C 0.71724 0.34378 0.99824 0.0
C1161 C 0.68795 0.28397 0.0095 0.0
C1162 C 0.68647 0.29372 0.98978 0.0
C1163 C 0.6956 0.31338 0.98681 0.0
C1164 C 0.6763 0.28333 0.97176 0.0
C1165 C 0.67804 0.26306 0.01362 0.0
C1166 C 0.68537 0.26579 0.96245 0.0
C1167 C 0.67661 0.25673 0.94465 0.0
C1168 C 0.65851 0.26496 0.93583 0.0
C1169 C 0.64913 0.28221 0.94555 0.0
C1170 C 0.65805 0.29141 0.96325 0.0
H1171 H 0.67697 0.2596 0.03058 0.0
H1172 H 0.66233 0.26245 0.00677 0.0
H1173 H 0.68738 0.25065 0.00613 0.0
H1174 H 0.69955 0.25942 0.96864 0.0
H1175 H 0.68429 0.24353 0.93754 0.0
H1176 H 0.11408 0.33862 0.32868 0.0
H1177 H 0.12856 0.30689 0.34388 0.0
H1178 H 0.18222 0.31325 0.30454 0.0
H1179 H 0.16817 0.34524 0.28974 0.0
H1180 H 0.13557 0.27201 0.32229 0.0
H1181 H 0.20867 0.29744 0.35876 0.0
H1182 H 0.18901 0.31569 0.35092 0.0
H1183 H 0.20698 0.30556 0.33204 0.0
C1184 C 0.12924 0.33358 0.32369 0.0
C1185 C 0.13997 0.34445 0.30799 0.0
C1186 C 0.13745 0.31539 0.33234 0.0
C1187 C 0.15653 0.30772 0.32545 0.0
C1188 C 0.1677 0.31908 0.31047 0.0
H1189 H 0.22224 0.19171 0.32974 0.0
H1190 H 0.20589 0.22461 0.32004 0.0
C1191 C 0.1596 0.33739 0.30196 0.0
C1192 C 0.16373 0.28686 0.3323 0.0
H1193 H 0.20528 0.26075 0.35182 0.0
C1194 C 0.15071 0.2696 0.32902 0.0
C1195 C 0.1835 0.28369 0.34104 0.0
C1196 C 0.19775 0.30162 0.3461 0.0
C1197 C 0.15717 0.24924 0.33368 0.0
C1198 C 0.17712 0.24609 0.34177 0.0
C1199 C 0.19003 0.26329 0.34541 0.0
C1200 C 0.18507 0.22503 0.34641 0.0
C1201 C 0.14291 0.23112 0.32944 0.0
C1202 C 0.17835 0.21419 0.36417 0.0
C1203 C 0.1877 0.19538 0.36984 0.0
C1204 C 0.2039 0.18714 0.35779 0.0
C1205 C 0.20979 0.19756 0.33937 0.0
C1206 C 0.20054 0.21641 0.33382 0.0
H1207 H 0.12879 0.23597 0.32096 0.0
H1208 H 0.15101 0.21903 0.32013 0.0
H1209 H 0.13825 0.22387 0.34447 0.0
H1210 H 0.16647 0.2207 0.3741 0.0
H1211 H 0.18282 0.18779 0.38413 0.0
H1212 H 0.78949 0.25256 0.37522 0.0
H1213 H 0.75964 0.23391 0.36172 0.0
H1214 H 0.79937 0.1958 0.3236 0.0
H1215 H 0.82965 0.21448 0.33716 0.0
H1216 H 0.74741 0.23017 0.319 0.0
H1217 H 0.76264 0.15355 0.3566 0.0
H1218 H 0.77484 0.17742 0.36514 0.0
H1219 H 0.78365 0.16455 0.3419 0.0
C1220 C 0.792 0.24018 0.36401 0.0
C1221 C 0.812 0.23494 0.35731 0.0
C1222 C 0.77486 0.22956 0.3563 0.0
C1223 C 0.77732 0.21337 0.34187 0.0
C1224 C 0.79722 0.2081 0.33499 0.0
H1225 H 0.69693 0.13259 0.27404 0.0
H1226 H 0.7251 0.15059 0.29138 0.0
C1227 C 0.81446 0.21882 0.34265 0.0
C1228 C 0.75889 0.2024 0.33381 0.0
H1229 H 0.73456 0.15517 0.33312 0.0
C1230 C 0.74451 0.21379 0.32212 0.0
C1231 C 0.75517 0.1811 0.33809 0.0
C1232 C 0.76977 0.1684 0.35126 0.0
C1233 C 0.72674 0.20427 0.31403 0.0
C1234 C 0.72308 0.1829 0.31816 0.0
C1235 C 0.73736 0.17159 0.3301 0.0
C1236 C 0.70547 0.17156 0.30877 0.0
C1237 C 0.71243 0.21697 0.30053 0.0
C1238 C 0.68495 0.1771 0.31313 0.0
C1239 C 0.66863 0.16682 0.30311 0.0
C1240 C 0.67267 0.15083 0.28867 0.0
C1241 C 0.69322 0.14495 0.28495 0.0
C1242 C 0.70941 0.15517 0.2949 0.0
H1243 H 0.71967 0.2318 0.29529 0.0
H1244 H 0.70762 0.20796 0.28654 0.0
H1245 H 0.69838 0.22089 0.30959 0.0
H1246 H 0.68158 0.18948 0.32411 0.0
H1247 H 0.65296 0.17163 0.30636 0.0
H1248 H 0.82695 0.6677 0.29602 0.0
H1249 H 0.8128 0.70104 0.30785 0.0
H1250 H 0.87134 0.71715 0.33522 0.0
H1251 H 0.88566 0.68388 0.3236 0.0
H1252 H 0.81303 0.72278 0.35044 0.0
H1253 H 0.85797 0.7616 0.28718 0.0
H1254 H 0.85224 0.73401 0.28685 0.0
H1255 H 0.87161 0.744 0.30413 0.0
C1256 C 0.83668 0.67806 0.30503 0.0
C1257 C 0.85752 0.6732 0.30866 0.0
C1258 C 0.82858 0.69713 0.31172 0.0
C1259 C 0.84116 0.71161 0.32208 0.0
C1260 C 0.86149 0.70622 0.32704 0.0
H1261 H 0.80175 0.83233 0.37154 0.0
H1262 H 0.82065 0.79977 0.36605 0.0
C1263 C 0.86959 0.68714 0.32045 0.0
C1264 C 0.83355 0.73296 0.32608 0.0
H1265 H 0.83744 0.78314 0.30848 0.0
C1266 C 0.81845 0.73603 0.34142 0.0
C1267 C 0.84056 0.7501 0.31408 0.0
C1268 C 0.8564 0.7474 0.29702 0.0
C1269 C 0.8101 0.7559 0.34507 0.0
C1270 C 0.81714 0.77306 0.33308 0.0
C1271 C 0.83227 0.76997 0.31776 0.0
C1272 C 0.80795 0.79404 0.33539 0.0
C1273 C 0.79339 0.75835 0.36128 0.0
C1274 C 0.79534 0.80202 0.31953 0.0
C1275 C 0.78454 0.82061 0.32257 0.0
C1276 C 0.78627 0.8316 0.34149 0.0
C1277 C 0.80003 0.82425 0.35679 0.0
C1278 C 0.81074 0.80558 0.35376 0.0
H1279 H 0.78737 0.74306 0.36676 0.0
H1280 H 0.79968 0.76687 0.37495 0.0
H1281 H 0.78039 0.76762 0.35493 0.0
H1282 H 0.79313 0.79337 0.30517 0.0
H1283 H 0.77414 0.82586 0.31046 0.0
H1284 H 0.304 0.89739 0.29805 0.0
H1285 H 0.2751 0.87882 0.31388 0.0
H1286 H 0.31012 0.82174 0.31296 0.0
H1287 H 0.33931 0.84026 0.29713 0.0
H1288 H 0.25508 0.84549 0.29405 0.0
H1289 H 0.28469 0.82253 0.372 0.0
H1290 H 0.29645 0.84289 0.35651 0.0
H1291 H 0.30134 0.81596 0.35056 0.0
C1292 C 0.30576 0.88095 0.30154 0.0
C1293 C 0.32395 0.87026 0.29624 0.0
C1294 C 0.28918 0.87038 0.31058 0.0
C1295 C 0.2905 0.84896 0.31465 0.0
C1296 C 0.30892 0.83836 0.31021 0.0
H1297 H 0.20832 0.75042 0.34962 0.0
H1298 H 0.23671 0.77286 0.3388 0.0
C1299 C 0.32557 0.84895 0.30114 0.0
C1300 C 0.27199 0.83744 0.32181 0.0
H1301 H 0.25337 0.80661 0.36097 0.0
C1302 C 0.2546 0.83713 0.30877 0.0
C1303 C 0.27146 0.82659 0.341 0.0
C1304 C 0.2894 0.8271 0.35595 0.0
C1305 C 0.2369 0.82569 0.31411 0.0
C1306 C 0.23649 0.81458 0.33316 0.0
C1307 C 0.25375 0.81517 0.34637 0.0
C1308 C 0.21878 0.80125 0.33917 0.0
C1309 C 0.21909 0.82498 0.299 0.0
C1310 C 0.19918 0.80979 0.34287 0.0
C1311 C 0.18277 0.79693 0.34902 0.0
C1312 C 0.1858 0.77538 0.35168 0.0
C1313 C 0.20542 0.76695 0.34775 0.0
C1314 C 0.22172 0.77975 0.34161 0.0
H1315 H 0.22356 0.83068 0.28324 0.0
H1316 H 0.213 0.80885 0.29752 0.0
H1317 H 0.20648 0.83504 0.30491 0.0
H1318 H 0.19667 0.82642 0.34135 0.0
H1319 H 0.16788 0.80391 0.35207 0.0
H1320 H 0.1673 0.66381 0.72185 0.0
H1321 H 0.18421 0.6952 0.70841 0.0
H1322 H 0.13046 0.70915 0.67144 0.0
H1323 H 0.11324 0.67809 0.68521 0.0
H1324 H 0.19456 0.70915 0.67009 0.0
H1325 H 0.13675 0.76202 0.70541 0.0
H1326 H 0.13797 0.73459 0.71157 0.0
H1327 H 0.12553 0.74324 0.68802 0.0
C1328 C 0.1592 0.67335 0.71058 0.0
C1329 C 0.13886 0.66857 0.7047 0.0
C1330 C 0.16885 0.69136 0.70302 0.0
C1331 C 0.15836 0.70482 0.6894 0.0
C1332 C 0.13858 0.69933 0.68245 0.0
H1333 H 0.21492 0.80182 0.61553 0.0
H1334 H 0.19644 0.77128 0.62853 0.0
C1335 C 0.12886 0.68145 0.69015 0.0
C1336 C 0.16799 0.72475 0.68275 0.0
H1337 H 0.16071 0.77754 0.68178 0.0
C1338 C 0.1872 0.7241 0.67271 0.0
C1339 C 0.15858 0.7443 0.68661 0.0
C1340 C 0.13868 0.74616 0.69869 0.0
C1341 C 0.19701 0.74241 0.66594 0.0
C1342 C 0.18707 0.76187 0.66878 0.0
C1343 C 0.16814 0.76259 0.67933 0.0
C1344 C 0.19611 0.78155 0.66071 0.0
C1345 C 0.21809 0.74072 0.65609 0.0
C1346 C 0.20084 0.79812 0.67427 0.0
C1347 C 0.21108 0.81588 0.66677 0.0
C1348 C 0.21681 0.81717 0.64566 0.0
C1349 C 0.21098 0.80109 0.63196 0.0
C1350 C 0.20055 0.78356 0.63938 0.0
H1351 H 0.226 0.72611 0.66081 0.0
H1352 H 0.21646 0.7405 0.63885 0.0
H1353 H 0.228 0.75418 0.66043 0.0
H1354 H 0.19731 0.79697 0.69076 0.0
H1355 H 0.21541 0.82807 0.67764 0.0
H1356 H 0.33614 0.17446 0.71531 0.0
H1357 H 0.30566 0.19091 0.69996 0.0
H1358 H 0.28213 0.13053 0.68234 0.0
H1359 H 0.31254 0.11388 0.69745 0.0
H1360 H 0.28577 0.18048 0.65348 0.0
H1361 H 0.23971 0.16479 0.72541 0.0
H1362 H 0.26731 0.16842 0.72659 0.0
H1363 H 0.25689 0.14512 0.7153 0.0
C1364 C 0.32468 0.16468 0.70785 0.0
C1365 C 0.32675 0.14284 0.70771 0.0
C1366 C 0.30728 0.17411 0.69914 0.0
C1367 C 0.29167 0.16186 0.69025 0.0
C1368 C 0.29404 0.14018 0.68925 0.0
H1369 H 0.16736 0.204 0.65523 0.0
H1370 H 0.19653 0.18158 0.66505 0.0
C1371 C 0.31147 0.13073 0.69784 0.0
C1372 C 0.27244 0.17172 0.68296 0.0
H1373 H 0.22371 0.18409 0.69876 0.0
C1374 C 0.27213 0.18118 0.66327 0.0
C1375 C 0.25468 0.17229 0.69573 0.0
C1376 C 0.25446 0.16218 0.71699 0.0
C1377 C 0.25453 0.19167 0.65613 0.0
C1378 C 0.23703 0.19313 0.6693 0.0
C1379 C 0.23714 0.18301 0.68873 0.0
C1380 C 0.21917 0.20642 0.66383 0.0
C1381 C 0.25486 0.20112 0.63456 0.0
C1382 C 0.22215 0.22782 0.66056 0.0
C1383 C 0.20567 0.24053 0.65498 0.0
C1384 C 0.18573 0.23219 0.65276 0.0
C1385 C 0.18255 0.21085 0.65678 0.0
C1386 C 0.19918 0.19805 0.66231 0.0
H1387 H 0.26614 0.19309 0.62427 0.0
H1388 H 0.23942 0.20037 0.62714 0.0
H1389 H 0.25955 0.21774 0.63569 0.0
H1390 H 0.23731 0.23472 0.66226 0.0
H1391 H 0.20866 0.25695 0.65227 0.0
H1392 H 0.79117 0.16458 0.67372 0.0
H1393 H 0.80479 0.19622 0.69041 0.0
H1394 H 0.81435 0.22407 0.62987 0.0
H1395 H 0.80051 0.19275 0.61318 0.0
H1396 H 0.84184 0.22256 0.68612 0.0
H1397 H 0.76963 0.26048 0.65918 0.0
H1398 H 0.77305 0.23254 0.65914 0.0
H1399 H 0.78456 0.24822 0.63898 0.0
C1400 C 0.79689 0.17716 0.664 0.0
C1401 C 0.79467 0.17637 0.6422 0.0
C1402 C 0.80453 0.19525 0.67353 0.0
C1403 C 0.81011 0.21258 0.66133 0.0
C1404 C 0.80977 0.21097 0.63952 0.0
H1405 H 0.86087 0.33154 0.70279 0.0
H1406 H 0.85389 0.2992 0.68376 0.0
C1407 C 0.80198 0.19305 0.63003 0.0
C1408 C 0.81403 0.23305 0.67123 0.0
H1409 H 0.7942 0.28217 0.67565 0.0
C1410 C 0.83149 0.23563 0.68384 0.0
C1411 C 0.80026 0.24992 0.66844 0.0
C1412 C 0.78071 0.2477 0.65586 0.0
C1413 C 0.83572 0.25484 0.69351 0.0
C1414 C 0.82222 0.27185 0.69024 0.0
C1415 C 0.80463 0.26916 0.67787 0.0
C1416 C 0.8256 0.29234 0.70032 0.0
C1417 C 0.85432 0.25667 0.7075 0.0
C1418 C 0.81146 0.29967 0.71516 0.0
C1419 C 0.81531 0.31819 0.72597 0.0
C1420 C 0.83333 0.32977 0.72202 0.0
C1421 C 0.84687 0.32299 0.70624 0.0
C1422 C 0.84302 0.3044 0.6955 0.0
H1423 H 0.86055 0.24115 0.71188 0.0
H1424 H 0.86662 0.26543 0.69921 0.0
H1425 H 0.85044 0.26536 0.72198 0.0
H1426 H 0.7978 0.29066 0.71893 0.0
H1427 H 0.80453 0.323 0.73796 0.0
H1428 H 0.82955 0.80236 0.66717 0.0
H1429 H 0.79985 0.82384 0.67761 0.0
H1430 H 0.75923 0.78285 0.64355 0.0
H1431 H 0.78841 0.76173 0.63294 0.0
H1432 H 0.7511 0.82484 0.63662 0.0
H1433 H 0.75645 0.80613 0.72133 0.0
H1434 H 0.77912 0.81711 0.70941 0.0
H1435 H 0.77041 0.79164 0.70174 0.0
C1436 C 0.81428 0.79802 0.66189 0.0
C1437 C 0.81135 0.78026 0.64935 0.0
C1438 C 0.79735 0.81023 0.66792 0.0
C1439 C 0.77732 0.80479 0.66151 0.0
C1440 C 0.77452 0.78733 0.64868 0.0
H1441 H 0.6577 0.83004 0.71252 0.0
H1442 H 0.68955 0.81504 0.69876 0.0
C1443 C 0.79129 0.77522 0.6427 0.0
C1444 C 0.75895 0.81674 0.66825 0.0
H1445 H 0.7288 0.82721 0.71066 0.0
C1446 C 0.74629 0.82557 0.65283 0.0
C1447 C 0.75261 0.81736 0.68936 0.0
C1448 C 0.76522 0.80745 0.70647 0.0
C1449 C 0.72726 0.83464 0.65791 0.0
C1450 C 0.72088 0.83517 0.67901 0.0
C1451 C 0.73373 0.82673 0.69448 0.0
C1452 C 0.70073 0.84397 0.68545 0.0
C1453 C 0.71381 0.84284 0.64055 0.0
C1454 C 0.69624 0.8651 0.68213 0.0
C1455 C 0.67795 0.87369 0.6898 0.0
C1456 C 0.6639 0.86134 0.70115 0.0
C1457 C 0.66811 0.83998 0.70378 0.0
C1458 C 0.68638 0.83141 0.69605 0.0
H1459 H 0.71851 0.83659 0.62509 0.0
H1460 H 0.69738 0.83879 0.64331 0.0
H1461 H 0.71514 0.86009 0.63996 0.0
H1462 H 0.70723 0.87516 0.67429 0.0
H1463 H 0.67529 0.89022 0.68762 0.0
H1464 H 0.28253 0.21926 0.32498 0.0
H1465 H 0.29658 0.22493 0.28996 0.0
H1466 H 0.32152 0.16262 0.29008 0.0
H1467 H 0.30823 0.1571 0.32531 0.0
H1468 H 0.3467 0.18916 0.26964 0.0
H1469 H 0.26638 0.19912 0.24153 0.0
H1470 H 0.27417 0.21804 0.26059 0.0
H1471 H 0.27222 0.19096 0.26778 0.0
C1472 C 0.29144 0.20694 0.31775 0.0
C1473 C 0.294 0.18763 0.32784 0.0
C1474 C 0.29929 0.21014 0.29764 0.0
C1475 C 0.3095 0.19395 0.2871 0.0
C1476 C 0.31351 0.17527 0.2978 0.0
H1477 H 0.31261 0.16636 0.15628 0.0
H1478 H 0.30598 0.16964 0.19365 0.0
C1479 C 0.30592 0.17216 0.318 0.0
C1480 C 0.31458 0.19569 0.26452 0.0
H1481 H 0.29272 0.20191 0.21642 0.0
C1482 C 0.33494 0.19207 0.25799 0.0
C1483 C 0.29913 0.19916 0.24929 0.0
C1484 C 0.27672 0.20185 0.25507 0.0
C1485 C 0.34022 0.19153 0.2367 0.0
C1486 C 0.3248 0.19523 0.22151 0.0
C1487 C 0.30454 0.19922 0.22807 0.0
C1488 C 0.32893 0.19366 0.19873 0.0
C1489 C 0.36207 0.18613 0.23069 0.0
C1490 C 0.3439 0.20619 0.18902 0.0
C1491 C 0.3479 0.2041 0.16764 0.0
C1492 C 0.33671 0.18985 0.15543 0.0
C1493 C 0.32152 0.17756 0.16517 0.0
C1494 C 0.31765 0.17947 0.18655 0.0
H1495 H 0.37048 0.17856 0.24374 0.0
H1496 H 0.36238 0.17553 0.21699 0.0
H1497 H 0.37047 0.20064 0.2265 0.0
H1498 H 0.35258 0.21752 0.19797 0.0
H1499 H 0.35999 0.21336 0.16086 0.0
H1500 H 0.87956 0.3376 0.33306 0.0
H1501 H 0.86519 0.34869 0.29961 0.0
H1502 H 0.80991 0.31341 0.31231 0.0
H1503 H 0.82387 0.30268 0.34588 0.0
H1504 H 0.85726 0.32133 0.26905 0.0
H1505 H 0.78586 0.36487 0.28648 0.0
H1506 H 0.80517 0.35982 0.30609 0.0
H1507 H 0.78627 0.34022 0.29969 0.0
C1508 C 0.86405 0.33278 0.32907 0.0
C1509 C 0.85295 0.31911 0.34211 0.0
C1510 C 0.8559 0.33906 0.30987 0.0
C1511 C 0.83647 0.3319 0.30341 0.0
C1512 C 0.82477 0.31947 0.31707 0.0
H1513 H 0.7705 0.31063 0.19038 0.0
H1514 H 0.7878 0.30899 0.22419 0.0
C1515 C 0.83283 0.3133 0.33631 0.0
C1516 C 0.82956 0.33509 0.28155 0.0
H1517 H 0.7883 0.34979 0.25201 0.0
C1518 C 0.84233 0.32792 0.26531 0.0
C1519 C 0.81008 0.34364 0.27664 0.0
C1520 C 0.79617 0.35277 0.29316 0.0
C1521 C 0.83577 0.32828 0.24444 0.0
C1522 C 0.81597 0.33596 0.23973 0.0
C1523 C 0.80343 0.34371 0.25579 0.0
C1524 C 0.80763 0.33548 0.21828 0.0
C1525 C 0.84965 0.31981 0.22757 0.0
C1526 C 0.81357 0.35055 0.20359 0.0
C1527 C 0.80371 0.35158 0.1842 0.0
C1528 C 0.78771 0.33754 0.17927 0.0
C1529 C 0.78272 0.32169 0.19362 0.0
C1530 C 0.79251 0.32077 0.21301 0.0
H1531 H 0.86413 0.31318 0.23396 0.0
H1532 H 0.84144 0.3075 0.21862 0.0
H1533 H 0.85365 0.33249 0.21647 0.0
H1534 H 0.82522 0.36205 0.20746 0.0
H1535 H 0.80791 0.364 0.17354 0.0
H1536 H 0.61578 0.82798 0.17731 0.0
H1537 H 0.62799 0.84376 0.20977 0.0
H1538 H 0.68144 0.80389 0.20857 0.0
H1539 H 0.66969 0.78847 0.17593 0.0
H1540 H 0.63205 0.82267 0.24562 0.0
H1541 H 0.70724 0.85818 0.2255 0.0
H1542 H 0.68893 0.85024 0.20585 0.0
H1543 H 0.70591 0.83139 0.21759 0.0
C1544 C 0.63044 0.82299 0.18362 0.0
C1545 C 0.64172 0.8069 0.17403 0.0
C1546 C 0.63735 0.83197 0.20224 0.0
C1547 C 0.65568 0.8251 0.21159 0.0
C1548 C 0.66748 0.80979 0.20148 0.0
H1549 H 0.71322 0.82996 0.33209 0.0
H1550 H 0.69946 0.82041 0.2979 0.0
C1551 C 0.66068 0.80091 0.18279 0.0
C1552 C 0.66135 0.83224 0.23287 0.0
H1553 H 0.70118 0.85145 0.26195 0.0
C1554 C 0.64706 0.82926 0.24913 0.0
C1555 C 0.68095 0.84079 0.23748 0.0
C1556 C 0.69654 0.84554 0.22063 0.0
C1557 C 0.65209 0.83395 0.26992 0.0
C1558 C 0.6719 0.8418 0.27453 0.0
C1559 C 0.68605 0.8452 0.25831 0.0
C1560 C 0.67839 0.84642 0.29616 0.0
C1561 C 0.6365 0.82992 0.28694 0.0
C1562 C 0.6707 0.86396 0.30665 0.0
C1563 C 0.67856 0.86953 0.3262 0.0
C1564 C 0.69423 0.85762 0.33556 0.0
C1565 C 0.70113 0.83946 0.32539 0.0
C1566 C 0.69337 0.83401 0.3058 0.0
H1567 H 0.62282 0.82125 0.28112 0.0
H1568 H 0.64364 0.82089 0.29983 0.0
H1569 H 0.63124 0.84503 0.29349 0.0
H1570 H 0.6592 0.87378 0.29936 0.0
H1571 H 0.67295 0.88364 0.33356 0.0
H1572 H 0.17865 0.61924 0.1809 0.0
H1573 H 0.16255 0.62534 0.21489 0.0
H1574 H 0.18462 0.68882 0.21427 0.0
H1575 H 0.20079 0.68291 0.18028 0.0
H1576 H 0.18564 0.6377 0.25109 0.0
H1577 H 0.1233 0.69375 0.23213 0.0
H1578 H 0.13521 0.67731 0.21266 0.0
H1579 H 0.14812 0.70047 0.22158 0.0
C1580 C 0.17967 0.63466 0.18772 0.0
C1581 C 0.19101 0.65061 0.17784 0.0
C1582 C 0.17056 0.63806 0.20722 0.0
C1583 C 0.17234 0.65753 0.21705 0.0
C1584 C 0.18285 0.67375 0.20683 0.0
H1585 H 0.16823 0.69879 0.34391 0.0
H1586 H 0.17831 0.6842 0.31018 0.0
C1587 C 0.1921 0.67033 0.1874 0.0
C1588 C 0.16462 0.66048 0.23862 0.0
H1589 H 0.13195 0.69 0.26807 0.0
C1590 C 0.17374 0.64897 0.25481 0.0
C1591 C 0.14901 0.67506 0.24339 0.0
C1592 C 0.13817 0.68725 0.22653 0.0
C1593 C 0.16815 0.6522 0.27576 0.0
C1594 C 0.15315 0.66741 0.28059 0.0
C1595 C 0.14352 0.67839 0.26433 0.0
C1596 C 0.1478 0.67298 0.30239 0.0
C1597 C 0.17839 0.63942 0.29255 0.0
C1598 C 0.1274 0.67107 0.30943 0.0
C1599 C 0.12159 0.67935 0.32875 0.0
C1600 C 0.13602 0.68996 0.34126 0.0
C1601 C 0.15673 0.69069 0.33472 0.0
C1602 C 0.16253 0.68232 0.31543 0.0
H1603 H 0.18526 0.62491 0.28613 0.0
H1604 H 0.19094 0.64874 0.29974 0.0
H1605 H 0.16723 0.63518 0.30502 0.0
H1606 H 0.1158 0.66393 0.2996 0.0
H1607 H 0.10551 0.67849 0.33325 0.0
H1608 H 0.32663 0.80652 0.83856 0.0
H1609 H 0.31754 0.821 0.80447 0.0
H1610 H 0.37971 0.84352 0.79664 0.0
H1611 H 0.38903 0.82907 0.83064 0.0
H1612 H 0.32145 0.86207 0.78526 0.0
H1613 H 0.37025 0.80135 0.7478 0.0
H1614 H 0.36241 0.79991 0.77481 0.0
H1615 H 0.38273 0.81734 0.7671 0.0
C1616 C 0.33827 0.81498 0.82985 0.0
C1617 C 0.35864 0.81638 0.83725 0.0
C1618 C 0.33305 0.8232 0.81033 0.0
C1619 C 0.34807 0.8329 0.79788 0.0
C1620 C 0.36799 0.83574 0.80588 0.0
H1621 H 0.32367 0.89289 0.6778 0.0
H1622 H 0.33775 0.88463 0.7122 0.0
C1623 C 0.37323 0.82758 0.8254 0.0
C1624 C 0.34328 0.83862 0.77599 0.0
H1625 H 0.35364 0.82519 0.72542 0.0
C1626 C 0.32857 0.85414 0.77216 0.0
C1627 C 0.35241 0.82799 0.75897 0.0
C1628 C 0.36772 0.81059 0.76225 0.0
C1629 C 0.32277 0.85937 0.75169 0.0
C1630 C 0.33205 0.84888 0.73466 0.0
C1631 C 0.34673 0.83333 0.73851 0.0
C1632 C 0.32584 0.8531 0.71281 0.0
C1633 C 0.30632 0.87566 0.74843 0.0
C1634 C 0.31538 0.83775 0.70133 0.0
C1635 C 0.30738 0.84236 0.6816 0.0
C1636 C 0.30979 0.8624 0.67296 0.0
C1637 C 0.32147 0.87731 0.68396 0.0
C1638 C 0.3294 0.87269 0.70372 0.0
H1639 H 0.29793 0.87929 0.76311 0.0
H1640 H 0.31359 0.89026 0.74267 0.0
H1641 H 0.29502 0.8704 0.73653 0.0
H1642 H 0.31262 0.82247 0.70802 0.0
H1643 H 0.29851 0.8305 0.67355 0.0
H1644 H 0.18043 0.39213 0.8292 0.0
H1645 H 0.16462 0.38335 0.79574 0.0
H1646 H 0.19077 0.32168 0.79897 0.0
H1647 H 0.20674 0.33028 0.83249 0.0
H1648 H 0.18913 0.37081 0.76008 0.0
H1649 H 0.12949 0.31221 0.78152 0.0
H1650 H 0.14017 0.3304 0.80016 0.0
H1651 H 0.15466 0.30786 0.7924 0.0
C1652 C 0.18246 0.37652 0.82309 0.0
C1653 C 0.19493 0.36192 0.83353 0.0
C1654 C 0.17348 0.37159 0.80389 0.0
C1655 C 0.17653 0.35189 0.79491 0.0
C1656 C 0.18807 0.33691 0.80576 0.0
H1657 H 0.16987 0.30767 0.66811 0.0
H1658 H 0.18114 0.3218 0.70169 0.0
C1659 C 0.19719 0.34186 0.82491 0.0
C1660 C 0.16906 0.34758 0.7735 0.0
H1661 H 0.13694 0.31612 0.74541 0.0
C1662 C 0.17762 0.35895 0.75685 0.0
C1663 C 0.15398 0.3322 0.7694 0.0
C1664 C 0.14387 0.32004 0.78679 0.0
C1665 C 0.17182 0.35498 0.73611 0.0
C1666 C 0.15716 0.3392 0.73197 0.0
C1667 C 0.14825 0.32818 0.74866 0.0
C1668 C 0.15109 0.33348 0.71043 0.0
C1669 C 0.18135 0.36769 0.71877 0.0
C1670 C 0.13058 0.33582 0.70401 0.0
C1671 C 0.1241 0.32787 0.6848 0.0
C1672 C 0.13797 0.31716 0.67174 0.0
C1673 C 0.1588 0.31587 0.67772 0.0
C1674 C 0.16528 0.32394 0.69693 0.0
H1675 H 0.18873 0.38216 0.72475 0.0
H1676 H 0.19335 0.35824 0.71085 0.0
H1677 H 0.16958 0.37199 0.70697 0.0
H1678 H 0.11941 0.34315 0.71422 0.0
H1679 H 0.10796 0.32917 0.68072 0.0
H1680 H 0.69074 0.1476 0.66978 0.0
H1681 H 0.67192 0.16226 0.69989 0.0
H1682 H 0.72779 0.19207 0.72097 0.0
H1683 H 0.74647 0.17742 0.69139 0.0
H1684 H 0.68518 0.15321 0.74288 0.0
H1685 H 0.68306 0.238 0.72641 0.0
H1686 H 0.68599 0.21862 0.70612 0.0
H1687 H 0.70779 0.22642 0.72159 0.0
C1688 C 0.69873 0.15781 0.68055 0.0
C1689 C 0.71997 0.16148 0.67835 0.0
C1690 C 0.68806 0.16603 0.69775 0.0
C1691 C 0.69847 0.17835 0.71253 0.0
C1692 C 0.71941 0.18286 0.70961 0.0
H1693 H 0.69576 0.23408 0.83195 0.0
H1694 H 0.70327 0.2185 0.79801 0.0
C1695 C 0.73007 0.17445 0.69274 0.0
C1696 C 0.68849 0.18489 0.73224 0.0
H1697 H 0.68042 0.22791 0.76243 0.0
C1698 C 0.68365 0.16952 0.74709 0.0
C1699 C 0.68668 0.20617 0.73763 0.0
C1700 C 0.69097 0.22327 0.72204 0.0
C1701 C 0.6783 0.17491 0.76766 0.0
C1702 C 0.6775 0.19622 0.77332 0.0
C1703 C 0.68129 0.21157 0.75813 0.0
C1704 C 0.67369 0.20313 0.79507 0.0
C1705 C 0.67467 0.1578 0.78343 0.0
C1706 C 0.6548 0.19911 0.80498 0.0
C1707 C 0.65053 0.20784 0.82453 0.0
C1708 C 0.665 0.22097 0.83436 0.0
C1709 C 0.68428 0.22408 0.82483 0.0
C1710 C 0.68856 0.21527 0.80537 0.0
H1711 H 0.6802 0.14243 0.77772 0.0
H1712 H 0.68252 0.16143 0.79839 0.0
H1713 H 0.65791 0.15647 0.7866 0.0
H1714 H 0.643 0.19003 0.7972 0.0
H1715 H 0.63546 0.20523 0.83136 0.0
H1716 H 0.8255 0.70322 0.67901 0.0
H1717 H 0.81419 0.6863 0.71153 0.0
H1718 H 0.87736 0.68254 0.73202 0.0
H1719 H 0.88863 0.69983 0.70001 0.0
H1720 H 0.8229 0.6493 0.73251 0.0
H1721 H 0.85069 0.71766 0.7775 0.0
H1722 H 0.8487 0.71782 0.74942 0.0
H1723 H 0.87042 0.70573 0.76194 0.0
C1724 C 0.83696 0.69834 0.69027 0.0
C1725 C 0.85789 0.70304 0.68716 0.0
C1726 C 0.8305 0.68879 0.70887 0.0
C1727 C 0.84491 0.68374 0.72444 0.0
C1728 C 0.86594 0.68687 0.7205 0.0
H1729 H 0.81868 0.61067 0.83638 0.0
H1730 H 0.83365 0.62397 0.80394 0.0
C1731 C 0.87236 0.6966 0.70213 0.0
C1732 C 0.83801 0.67634 0.74526 0.0
H1733 H 0.83996 0.68823 0.79722 0.0
C1734 C 0.82659 0.6578 0.74667 0.0
C1735 C 0.84254 0.68767 0.76369 0.0
C1736 C 0.85358 0.70843 0.76311 0.0
C1737 C 0.81984 0.65009 0.76606 0.0
C1738 C 0.82509 0.66101 0.78456 0.0
C1739 C 0.83625 0.67971 0.78308 0.0
C1740 C 0.81824 0.65383 0.80549 0.0
C1741 C 0.8067 0.63064 0.76647 0.0
C1742 C 0.80578 0.66675 0.81788 0.0
C1743 C 0.79751 0.65937 0.83664 0.0
C1744 C 0.80149 0.63885 0.84332 0.0
C1745 C 0.81515 0.62648 0.8316 0.0
C1746 C 0.82354 0.63396 0.81292 0.0
H1747 H 0.79963 0.62743 0.75101 0.0
H1748 H 0.81646 0.61707 0.77064 0.0
H1749 H 0.79421 0.63195 0.77826 0.0
H1750 H 0.80169 0.68225 0.81258 0.0
H1751 H 0.78707 0.66934 0.84526 0.0
H1752 H 0.14984 0.33119 0.2143 0.0
H1753 H 0.17474 0.30718 0.19832 0.0
H1754 H 0.22116 0.35538 0.19974 0.0
H1755 H 0.19654 0.37937 0.21567 0.0
H1756 H 0.2181 0.33103 0.16094 0.0
H1757 H 0.2247 0.28316 0.23321 0.0
H1758 H 0.19917 0.28803 0.22339 0.0
H1759 H 0.21426 0.30926 0.23337 0.0
C1760 C 0.16526 0.33675 0.2109 0.0
C1761 C 0.17129 0.35712 0.21635 0.0
C1762 C 0.17947 0.32299 0.20193 0.0
C1763 C 0.19982 0.32948 0.19816 0.0
C1764 C 0.20555 0.35008 0.20266 0.0
H1765 H 0.31586 0.26779 0.17695 0.0
H1766 H 0.28656 0.28758 0.1908 0.0
C1767 C 0.19146 0.36374 0.21176 0.0
C1768 C 0.21549 0.31477 0.1902 0.0
H1769 H 0.24525 0.27326 0.20451 0.0
C1770 C 0.22393 0.31828 0.17035 0.0
C1771 C 0.22321 0.29837 0.20272 0.0
C1772 C 0.21504 0.29444 0.22443 0.0
C1773 C 0.23998 0.30581 0.16266 0.0
C1774 C 0.24766 0.28937 0.17514 0.0
C1775 C 0.23921 0.28582 0.19498 0.0
C1776 C 0.26484 0.27606 0.16792 0.0
C1777 C 0.24898 0.31063 0.14145 0.0
C1778 C 0.26212 0.26264 0.15089 0.0
C1779 C 0.27874 0.25133 0.14298 0.0
C1780 C 0.29843 0.25325 0.15197 0.0
C1781 C 0.30093 0.26607 0.1696 0.0
C1782 C 0.28422 0.27736 0.17754 0.0
H1783 H 0.24408 0.32616 0.13561 0.0
H1784 H 0.26608 0.31019 0.14199 0.0
H1785 H 0.24376 0.29865 0.13012 0.0
H1786 H 0.24719 0.26124 0.14345 0.0
H1787 H 0.27623 0.24148 0.12948 0.0
H1788 H 0.32269 0.70847 0.84112 0.0
H1789 H 0.29181 0.6903 0.82822 0.0
H1790 H 0.25339 0.73791 0.85547 0.0
H1791 H 0.28375 0.7558 0.86857 0.0
H1792 H 0.23918 0.69795 0.86347 0.0
H1793 H 0.2561 0.70987 0.77908 0.0
H1794 H 0.27572 0.69691 0.794 0.0
H1795 H 0.26975 0.72372 0.79934 0.0
C1796 C 0.30765 0.71501 0.84434 0.0
C1797 C 0.3057 0.73362 0.85578 0.0
C1798 C 0.29004 0.70467 0.83691 0.0
C1799 C 0.27032 0.71289 0.84074 0.0
C1800 C 0.26843 0.73129 0.85236 0.0
H1801 H 0.15517 0.69853 0.77731 0.0
H1802 H 0.18688 0.71041 0.79409 0.0
C1803 C 0.28588 0.74154 0.85978 0.0
C1804 C 0.25142 0.70279 0.83258 0.0
H1805 H 0.22517 0.69265 0.78758 0.0
C1806 C 0.23615 0.6966 0.84688 0.0
C1807 C 0.24747 0.7013 0.81093 0.0
C1808 C 0.26301 0.70842 0.79488 0.0
C1809 C 0.21684 0.68938 0.84011 0.0
C1810 C 0.21285 0.68801 0.81846 0.0
C1811 C 0.22829 0.69376 0.80417 0.0
C1812 C 0.19257 0.68131 0.81018 0.0
C1813 C 0.20063 0.68404 0.85617 0.0
C1814 C 0.185 0.66116 0.81406 0.0
C1815 C 0.16675 0.65437 0.80465 0.0
C1816 C 0.15588 0.66755 0.79098 0.0
C1817 C 0.16312 0.68799 0.78777 0.0
C1818 C 0.18131 0.69478 0.79725 0.0
H1819 H 0.20437 0.6907 0.87173 0.0
H1820 H 0.18526 0.68986 0.85129 0.0
H1821 H 0.19964 0.66684 0.85783 0.0
H1822 H 0.19361 0.6504 0.82372 0.0
H1823 H 0.16172 0.63847 0.80732 0.0
H1824 H 0.28839 0.32651 0.83144 0.0
H1825 H 0.30278 0.29255 0.82188 0.0
H1826 H 0.32786 0.28587 0.88379 0.0
H1827 H 0.31361 0.3198 0.89354 0.0
H1828 H 0.34565 0.27668 0.82512 0.0
H1829 H 0.28851 0.23405 0.87414 0.0
H1830 H 0.28478 0.26076 0.866 0.0
H1831 H 0.30257 0.25484 0.88656 0.0
C1832 C 0.29723 0.31799 0.84294 0.0
C1833 C 0.29975 0.32584 0.86329 0.0
C1834 C 0.3054 0.29857 0.83746 0.0
C1835 C 0.31605 0.28662 0.85225 0.0
C1836 C 0.31942 0.29478 0.87226 0.0
H1837 H 0.38477 0.17261 0.82889 0.0
H1838 H 0.3724 0.20541 0.84372 0.0
C1839 C 0.31139 0.31425 0.87773 0.0
C1840 C 0.32302 0.26531 0.84691 0.0
H1841 H 0.31347 0.21374 0.85662 0.0
C1842 C 0.33871 0.26291 0.83206 0.0
C1843 C 0.31372 0.24743 0.85587 0.0
C1844 C 0.29635 0.24924 0.87144 0.0
C1845 C 0.34548 0.24303 0.826 0.0
C1846 C 0.33633 0.22515 0.8351 0.0
C1847 C 0.32054 0.22752 0.84986 0.0
C1848 C 0.34259 0.20389 0.82877 0.0
C1849 C 0.36209 0.24122 0.80959 0.0
C1850 C 0.32951 0.19175 0.81627 0.0
C1851 C 0.3365 0.17297 0.80773 0.0
C1852 C 0.35669 0.16601 0.81165 0.0
C1853 C 0.36918 0.17752 0.82545 0.0
C1854 C 0.36219 0.19633 0.83388 0.0
H1855 H 0.36513 0.25634 0.80166 0.0
H1856 H 0.3766 0.23594 0.81704 0.0
H1857 H 0.35772 0.22946 0.79765 0.0
H1858 H 0.31426 0.19732 0.81227 0.0
H1859 H 0.32646 0.16447 0.79724 0.0
H1860 H 0.67091 0.29072 0.83306 0.0
H1861 H 0.70491 0.30354 0.82279 0.0
H1862 H 0.70622 0.34374 0.87675 0.0
H1863 H 0.67242 0.33058 0.88748 0.0
H1864 H 0.72149 0.34148 0.81372 0.0
H1865 H 0.75779 0.30935 0.88524 0.0
H1866 H 0.73166 0.30323 0.87785 0.0
H1867 H 0.73751 0.32764 0.8904 0.0
C1868 C 0.67825 0.30254 0.8426 0.0
C1869 C 0.66902 0.30944 0.86126 0.0
C1870 C 0.69775 0.3098 0.83673 0.0
C1871 C 0.70838 0.32415 0.84932 0.0
C1872 C 0.69858 0.33219 0.86713 0.0
H1873 H 0.82676 0.38548 0.83116 0.0
H1874 H 0.79287 0.37472 0.84421 0.0
C1875 C 0.67915 0.32481 0.87313 0.0
C1876 C 0.72995 0.33008 0.84414 0.0
H1877 H 0.7793 0.32938 0.86291 0.0
C1878 C 0.73411 0.33882 0.82448 0.0
C1879 C 0.74647 0.32643 0.85814 0.0
C1880 C 0.74323 0.31597 0.87901 0.0
C1881 C 0.75427 0.34419 0.81854 0.0
C1882 C 0.77067 0.34071 0.83259 0.0
C1883 C 0.7666 0.33207 0.85226 0.0
C1884 C 0.79217 0.34583 0.82685 0.0
C1885 C 0.75803 0.35363 0.79729 0.0
C1886 C 0.80323 0.33271 0.8134 0.0
C1887 C 0.82267 0.33868 0.80605 0.0
C1888 C 0.8313 0.35799 0.8119 0.0
C1889 C 0.8206 0.37052 0.82633 0.0
C1890 C 0.80121 0.36446 0.83376 0.0
H1891 H 0.74344 0.35733 0.78904 0.0
H1892 H 0.7673 0.36813 0.79878 0.0
H1893 H 0.76699 0.34252 0.78759 0.0
H1894 H 0.79649 0.31821 0.80801 0.0
H1895 H 0.83044 0.32863 0.79497 0.0
H1896 H 0.69686 0.66892 0.84401 0.0
H1897 H 0.6807 0.70038 0.82942 0.0
H1898 H 0.72395 0.73885 0.86313 0.0
H1899 H 0.73966 0.70793 0.87803 0.0
H1900 H 0.68526 0.7541 0.86578 0.0
H1901 H 0.7054 0.73615 0.78331 0.0
H1902 H 0.69013 0.71668 0.79633 0.0
H1903 H 0.716 0.72177 0.80497 0.0
C1904 C 0.70283 0.68411 0.84833 0.0
C1905 C 0.7196 0.6859 0.86209 0.0
C1906 C 0.69367 0.70205 0.83991 0.0
C1907 C 0.70132 0.72196 0.84499 0.0
C1908 C 0.71779 0.72368 0.85899 0.0
H1909 H 0.69348 0.83711 0.77692 0.0
H1910 H 0.70386 0.80543 0.79532 0.0
C1911 C 0.7268 0.70591 0.86745 0.0
C1912 C 0.69268 0.74122 0.83565 0.0
H1913 H 0.68732 0.76733 0.78955 0.0
C1914 C 0.68558 0.75697 0.84909 0.0
C1915 C 0.69341 0.74503 0.81391 0.0
C1916 C 0.70179 0.72912 0.79875 0.0
C1917 C 0.67955 0.77656 0.84145 0.0
C1918 C 0.68016 0.78031 0.8197 0.0
C1919 C 0.68688 0.76442 0.80622 0.0
C1920 C 0.67439 0.80072 0.81049 0.0
C1921 C 0.67334 0.79325 0.85682 0.0
C1922 C 0.65453 0.80889 0.8133 0.0
C1923 C 0.64865 0.82719 0.80305 0.0
C1924 C 0.66243 0.83744 0.78949 0.0
C1925 C 0.68252 0.82961 0.78726 0.0
C1926 C 0.68844 0.81144 0.79768 0.0
H1927 H 0.67921 0.78989 0.87276 0.0
H1928 H 0.67915 0.8088 0.8519 0.0
H1929 H 0.65628 0.79396 0.85769 0.0
H1930 H 0.64329 0.80069 0.82277 0.0
H1931 H 0.63298 0.83268 0.80495 0.0
H1932 H 0.66744 0.72108 0.1845 0.0
H1933 H 0.70088 0.70983 0.19765 0.0
H1934 H 0.70802 0.669 0.14465 0.0
H1935 H 0.67471 0.68054 0.13105 0.0
H1936 H 0.71793 0.67218 0.20836 0.0
H1937 H 0.75859 0.70637 0.13992 0.0
H1938 H 0.73173 0.7113 0.14523 0.0
H1939 H 0.73954 0.68703 0.13364 0.0
C1940 C 0.67594 0.70947 0.17576 0.0
C1941 C 0.66849 0.70193 0.15656 0.0
C1942 C 0.6951 0.70307 0.1833 0.0
C1943 C 0.70719 0.68901 0.17184 0.0
C1944 C 0.69919 0.68032 0.15344 0.0
H1945 H 0.83127 0.64363 0.20011 0.0
H1946 H 0.79771 0.64934 0.18355 0.0
C1947 C 0.68004 0.68678 0.14581 0.0
C1948 C 0.72846 0.68427 0.17884 0.0
H1949 H 0.77919 0.68955 0.16518 0.0
C1950 C 0.73131 0.6759 0.19888 0.0
C1951 C 0.74593 0.68922 0.16646 0.0
C1952 C 0.7439 0.69914 0.14519 0.0
C1953 C 0.75112 0.67246 0.20691 0.0
C1954 C 0.76851 0.67768 0.19466 0.0
C1955 C 0.76575 0.68559 0.17447 0.0
C1956 C 0.78966 0.67565 0.203 0.0
C1957 C 0.75338 0.66337 0.22851 0.0
C1958 C 0.79646 0.68908 0.21883 0.0
C1959 C 0.81564 0.68601 0.2282 0.0
C1960 C 0.82833 0.66935 0.22196 0.0
C1961 C 0.82188 0.65659 0.2053 0.0
C1962 C 0.80271 0.65977 0.19586 0.0
H1963 H 0.7387 0.65653 0.23432 0.0
H1964 H 0.76545 0.65111 0.22867 0.0
H1965 H 0.7582 0.67586 0.23947 0.0
H1966 H 0.78665 0.70158 0.22435 0.0
H1967 H 0.8201 0.69616 0.24094 0.0
H1968 H 0.38096 0.84451 0.17837 0.0
H1969 H 0.36733 0.81182 0.16434 0.0
H1970 H 0.31459 0.81672 0.20507 0.0
H1971 H 0.32778 0.84959 0.21878 0.0
H1972 H 0.36213 0.77705 0.18725 0.0
H1973 H 0.28743 0.79856 0.15176 0.0
H1974 H 0.30666 0.81777 0.15856 0.0
H1975 H 0.28954 0.8075 0.17819 0.0
C1976 C 0.36616 0.83896 0.18392 0.0
C1977 C 0.3555 0.84968 0.19975 0.0
C1978 C 0.35844 0.8202 0.17594 0.0
C1979 C 0.33989 0.81182 0.18357 0.0
C1980 C 0.32871 0.82303 0.19861 0.0
H1981 H 0.27663 0.69342 0.17959 0.0
H1982 H 0.29127 0.72724 0.18925 0.0
C1983 C 0.33634 0.84186 0.2065 0.0
C1984 C 0.3333 0.79049 0.17742 0.0
H1985 H 0.29241 0.76225 0.15921 0.0
C1986 C 0.34697 0.77385 0.18087 0.0
C1987 C 0.3135 0.7863 0.16917 0.0
C1988 C 0.29852 0.80351 0.164 0.0
C1989 C 0.34117 0.75312 0.17684 0.0
C1990 C 0.32123 0.74894 0.16909 0.0
C1991 C 0.30765 0.76554 0.16536 0.0
C1992 C 0.31409 0.72745 0.16462 0.0
C1993 C 0.35617 0.73576 0.18137 0.0
C1994 C 0.32241 0.71619 0.14785 0.0
C1995 C 0.31406 0.69685 0.14225 0.0
C1996 C 0.29722 0.68845 0.15331 0.0
C1997 C 0.28961 0.69936 0.17075 0.0
C1998 C 0.29788 0.71875 0.17625 0.0
H1999 H 0.36949 0.74122 0.1908 0.0
H2000 H 0.34836 0.72283 0.18981 0.0
H2001 H 0.36214 0.72942 0.16642 0.0
H2002 H 0.33481 0.72273 0.13859 0.0
H2003 H 0.32027 0.6889 0.12872 0.0
H2004 H 0.71489 0.32944 0.18029 0.0
H2005 H 0.70047 0.29634 0.19247 0.0
H2006 H 0.66444 0.29149 0.13616 0.0
H2007 H 0.67904 0.32439 0.12365 0.0
H2008 H 0.66102 0.28328 0.20004 0.0
H2009 H 0.69583 0.23642 0.13638 0.0
H2010 H 0.7033 0.26306 0.14156 0.0
H2011 H 0.6801 0.25753 0.12724 0.0
C2012 C 0.70371 0.32149 0.17058 0.0
C2013 C 0.69824 0.32952 0.15091 0.0
C2014 C 0.69555 0.3025 0.17754 0.0
C2015 C 0.6818 0.29117 0.16497 0.0
C2016 C 0.67548 0.29968 0.14584 0.0
H2017 H 0.60236 0.19166 0.206 0.0
H2018 H 0.61757 0.22252 0.18975 0.0
C2019 C 0.68367 0.31862 0.13883 0.0
C2020 C 0.67409 0.27049 0.17194 0.0
H2021 H 0.67153 0.21896 0.15823 0.0
C2022 C 0.66338 0.26923 0.19092 0.0
C2023 C 0.67751 0.25206 0.16021 0.0
C2024 C 0.68999 0.25222 0.14032 0.0
C2025 C 0.65554 0.25017 0.19825 0.0
C2026 C 0.65814 0.23193 0.18608 0.0
C2027 C 0.66933 0.23303 0.16737 0.0
C2028 C 0.649 0.21173 0.19259 0.0
C2029 C 0.64465 0.2497 0.21909 0.0
C2030 C 0.66157 0.19485 0.19833 0.0
C2031 C 0.65285 0.17698 0.20744 0.0
C2032 C 0.63149 0.17589 0.21092 0.0
C2033 C 0.61889 0.19216 0.20367 0.0
C2034 C 0.62756 0.20985 0.1945 0.0
H2035 H 0.6486 0.26351 0.22878 0.0
H2036 H 0.62775 0.24975 0.2165 0.0
H2037 H 0.64863 0.23537 0.22795 0.0
H2038 H 0.67816 0.19598 0.19683 0.0
H2039 H 0.66292 0.16473 0.21299 0.0
loop_
_geom_bond_atom_site_label_1
_geom_bond_atom_site_label_2
_geom_bond_distance
_geom_bond_site_symmetry_2
_ccdc_geom_bond_type
Mg0 O7 2.141 . S
Mg0 O8 2.048 . S
Mg0 O9 2.048 . S
Mg0 O12 2.141 . S
C1 O2 1.313 . S
C1 O8 1.195 . S
O2 C1 1.313 . S
C3 O4 1.245 . S
C3 O12 1.289 . S
O4 C3 1.245 . S
C5 O6 1.245 . S
C5 O7 1.289 . S
O6 C5 1.245 . S
O7 Mg0 2.141 . S
O7 C5 1.289 . S
O8 Mg0 2.048 . S
O8 C1 1.195 . S
O9 Mg0 2.048 . S
O9 C10 1.195 . S
C10 O9 1.195 . S
C10 O11 1.313 . S
O11 C10 1.313 . S
O12 Mg0 2.141 . S
O12 C3 1.289 . S
Mg13 O20 2.141 . S
Mg13 O21 2.048 . S
Mg13 O22 2.048 . S
Mg13 O25 2.141 . S
C14 O15 1.313 . S
C14 O21 1.195 . S
O15 C14 1.313 . S
C16 O17 1.245 . S
C16 O25 1.289 . S
O17 C16 1.245 . S
C18 O19 1.245 . S
C18 O20 1.289 . S
O19 C18 1.245 . S
O20 Mg13 2.141 . S
O20 C18 1.289 . S
O21 Mg13 2.048 . S
O21 C14 1.195 . S
O22 Mg13 2.048 . S
O22 C23 1.195 . S
C23 O22 1.195 . S
C23 O24 1.313 . S
O24 C23 1.313 . S
O25 Mg13 2.141 . S
O25 C16 1.289 . S
Mg26 O33 2.141 . S
Mg26 O34 2.048 . S
Mg26 O35 2.048 . S
Mg26 O38 2.141 . S
C27 O28 1.313 . S
C27 O34 1.195 . S
O28 C27 1.313 . S
C29 O30 1.245 . S
C29 O38 1.289 . S
O30 C29 1.245 . S
C31 O32 1.245 . S
C31 O33 1.289 . S
O32 C31 1.245 . S
O33 Mg26 2.141 . S
O33 C31 1.289 . S
O34 Mg26 2.048 . S
O34 C27 1.195 . S
O35 Mg26 2.048 . S
O35 C36 1.195 . S
C36 O35 1.195 . S
C36 O37 1.313 . S
O37 C36 1.313 . S
O38 Mg26 2.141 . S
O38 C29 1.289 . S
Mg39 O46 2.141 . S
Mg39 O47 2.048 . S
Mg39 O48 2.048 . S
Mg39 O51 2.141 . S
C40 O41 1.313 . S
C40 O47 1.195 . S
O41 C40 1.313 . S
C42 O43 1.245 . S
C42 O51 1.289 . S
O43 C42 1.245 . S
C44 O45 1.245 . S
C44 O46 1.289 . S
O45 C44 1.245 . S
O46 Mg39 2.141 . S
O46 C44 1.289 . S
O47 Mg39 2.048 . S
O47 C40 1.195 . S
O48 Mg39 2.048 . S
O48 C49 1.195 . S
C49 O48 1.195 . S
C49 O50 1.313 . S
O50 C49 1.313 . S
O51 Mg39 2.141 . S
O51 C42 1.289 . S
Mg52 O59 2.141 . S
Mg52 O60 2.048 . S
Mg52 O61 2.048 . S
Mg52 O64 2.141 . S
C53 O54 1.313 . S
C53 O60 1.195 . S
O54 C53 1.313 . S
C55 O56 1.245 . S
C55 O64 1.289 . S
O56 C55 1.245 . S
C57 O58 1.245 . S
C57 O59 1.289 . S
O58 C57 1.245 . S
O59 Mg52 2.141 . S
O59 C57 1.289 . S
O60 Mg52 2.048 . S
O60 C53 1.195 . S
O61 Mg52 2.048 . S
O61 C62 1.195 . S
C62 O61 1.195 . S
C62 O63 1.313 . S
O63 C62 1.313 . S
O64 Mg52 2.141 . S
O64 C55 1.289 . S
Mg65 O72 2.141 . S
Mg65 O73 2.048 . S
Mg65 O74 2.048 . S
Mg65 O77 2.141 . S
C66 O67 1.313 . S
C66 O73 1.195 . S
O67 C66 1.313 . S
C68 O69 1.245 . S
C68 O77 1.289 . S
O69 C68 1.245 . S
C70 O71 1.245 . S
C70 O72 1.289 . S
O71 C70 1.245 . S
O72 Mg65 2.141 . S
O72 C70 1.289 . S
O73 Mg65 2.048 . S
O73 C66 1.195 . S
O74 Mg65 2.048 . S
O74 C75 1.195 . S
C75 O74 1.195 . S
C75 O76 1.313 . S
O76 C75 1.313 . S
O77 Mg65 2.141 . S
O77 C68 1.289 . S
Mg78 O85 2.141 . S
Mg78 O86 2.048 . S
Mg78 O87 2.048 . S
Mg78 O90 2.141 . S
C79 O80 1.313 . S
C79 O86 1.195 . S
O80 C79 1.313 . S
C81 O82 1.245 . S
C81 O90 1.289 . S
O82 C81 1.245 . S
C83 O84 1.245 . S
C83 O85 1.289 . S
O84 C83 1.245 . S
O85 Mg78 2.141 . S
O85 C83 1.289 . S
O86 Mg78 2.048 . S
O86 C79 1.195 . S
O87 Mg78 2.048 . S
O87 C88 1.195 . S
C88 O87 1.195 . S
C88 O89 1.313 . S
O89 C88 1.313 . S
O90 Mg78 2.141 . S
O90 C81 1.289 . S
Mg91 O98 2.141 . S
Mg91 O99 2.048 . S
Mg91 O100 2.048 . S
Mg91 O103 2.141 . S
C92 O93 1.313 . S
C92 O99 1.195 . S
O93 C92 1.313 . S
C94 O95 1.245 . S
C94 O103 1.289 . S
O95 C94 1.245 . S
C96 O97 1.245 . S
C96 O98 1.289 . S
O97 C96 1.245 . S
O98 Mg91 2.141 . S
O98 C96 1.289 . S
O99 Mg91 2.048 . S
O99 C92 1.195 . S
O100 Mg91 2.048 . S
O100 C101 1.195 . S
C101 O100 1.195 . S
C101 O102 1.313 . S
O102 C101 1.313 . S
O103 Mg91 2.141 . S
O103 C94 1.289 . S
Mg104 O111 2.141 . S
Mg104 O112 2.048 . S
Mg104 O113 2.048 . S
Mg104 O116 2.141 . S
C105 O106 1.313 . S
C105 O112 1.195 . S
O106 C105 1.313 . S
C107 O108 1.245 . S
C107 O116 1.289 . S
O108 C107 1.245 . S
C109 O110 1.245 . S
C109 O111 1.289 . S
O110 C109 1.245 . S
O111 Mg104 2.141 . S
O111 C109 1.289 . S
O112 Mg104 2.048 . S
O112 C105 1.195 . S
O113 Mg104 2.048 . S
O113 C114 1.195 . S
C114 O113 1.195 . S
C114 O115 1.313 . S
O115 C114 1.313 . S
O116 Mg104 2.141 . S
O116 C107 1.289 . S
Mg117 O124 2.141 . S
Mg117 O125 2.048 . S
Mg117 O126 2.048 . S
Mg117 O129 2.141 . S
C118 O119 1.313 . S
C118 O125 1.195 . S
O119 C118 1.313 . S
C120 O121 1.245 . S
C120 O129 1.289 . S
O121 C120 1.245 . S
C122 O123 1.245 . S
C122 O124 1.289 . S
O123 C122 1.245 . S
O124 Mg117 2.141 . S
O124 C122 1.289 . S
O125 Mg117 2.048 . S
O125 C118 1.195 . S
O126 Mg117 2.048 . S
O126 C127 1.195 . S
C127 O126 1.195 . S
C127 O128 1.313 . S
O128 C127 1.313 . S
O129 Mg117 2.141 . S
O129 C120 1.289 . S
Mg130 O137 2.141 . S
Mg130 O138 2.048 . S
Mg130 O139 2.048 . S
Mg130 O142 2.141 . S
C131 O132 1.313 . S
C131 O138 1.195 . S
O132 C131 1.313 . S
C133 O134 1.245 . S
C133 O142 1.289 . S
O134 C133 1.245 . S
C135 O136 1.245 . S
C135 O137 1.289 . S
O136 C135 1.245 . S
O137 Mg130 2.141 . S
O137 C135 1.289 . S
O138 Mg130 2.048 . S
O138 C131 1.195 . S
O139 Mg130 2.048 . S
O139 C140 1.195 . S
C140 O139 1.195 . S
C140 O141 1.313 . S
O141 C140 1.313 . S
O142 Mg130 2.141 . S
O142 C133 1.289 . S
Mg143 O150 2.141 . S
Mg143 O151 2.048 . S
Mg143 O152 2.048 . S
Mg143 O155 2.141 . S
C144 O145 1.313 . S
C144 O151 1.195 . S
O145 C144 1.313 . S
C146 O147 1.245 . S
C146 O155 1.289 . S
O147 C146 1.245 . S
C148 O149 1.245 . S
C148 O150 1.289 . S
O149 C148 1.245 . S
O150 Mg143 2.141 . S
O150 C148 1.289 . S
O151 Mg143 2.048 . S
O151 C144 1.195 . S
O152 Mg143 2.048 . S
O152 C153 1.195 . S
C153 O152 1.195 . S
C153 O154 1.313 . S
O154 C153 1.313 . S
O155 Mg143 2.141 . S
O155 C146 1.289 . S
Mg156 O163 2.141 . S
Mg156 O164 2.048 . S
Mg156 O165 2.048 . S
Mg156 O168 2.141 . S
C157 O158 1.313 . S
C157 O164 1.195 . S
O158 C157 1.313 . S
C159 O160 1.245 . S
C159 O168 1.289 . S
O160 C159 1.245 . S
C161 O162 1.245 . S
C161 O163 1.289 . S
O162 C161 1.245 . S
O163 Mg156 2.141 . S
O163 C161 1.289 . S
O164 Mg156 2.048 . S
O164 C157 1.195 . S
O165 Mg156 2.048 . S
O165 C166 1.195 . S
C166 O165 1.195 . S
C166 O167 1.313 . S
O167 C166 1.313 . S
O168 Mg156 2.141 . S
O168 C159 1.289 . S
Mg169 O176 2.141 . S
Mg169 O177 2.048 . S
Mg169 O178 2.048 . S
Mg169 O181 2.141 . S
C170 O171 1.313 . S
C170 O177 1.195 . S
O171 C170 1.313 . S
C172 O173 1.245 . S
C172 O181 1.289 . S
O173 C172 1.245 . S
C174 O175 1.245 . S
C174 O176 1.289 . S
O175 C174 1.245 . S
O176 Mg169 2.141 . S
O176 C174 1.289 . S
O177 Mg169 2.048 . S
O177 C170 1.195 . S
O178 Mg169 2.048 . S
O178 C179 1.195 . S
C179 O178 1.195 . S
C179 O180 1.313 . S
O180 C179 1.313 . S
O181 Mg169 2.141 . S
O181 C172 1.289 . S
Mg182 O189 2.141 . S
Mg182 O190 2.048 . S
Mg182 O191 2.048 . S
Mg182 O194 2.141 . S
C183 O184 1.313 . S
C183 O190 1.195 . S
O184 C183 1.313 . S
C185 O186 1.245 . S
C185 O194 1.289 . S
O186 C185 1.245 . S
C187 O188 1.245 . S
C187 O189 1.289 . S
O188 C187 1.245 . S
O189 Mg182 2.141 . S
O189 C187 1.289 . S
O190 Mg182 2.048 . S
O190 C183 1.195 . S
O191 Mg182 2.048 . S
O191 C192 1.195 . S
C192 O191 1.195 . S
C192 O193 1.313 . S
O193 C192 1.313 . S
O194 Mg182 2.141 . S
O194 C185 1.289 . S
Mg195 O202 2.141 . S
Mg195 O203 2.048 . S
Mg195 O204 2.048 . S
Mg195 O207 2.141 . S
C196 O197 1.313 . S
C196 O203 1.195 . S
O197 C196 1.313 . S
C198 O199 1.245 . S
C198 O207 1.289 . S
O199 C198 1.245 . S
C200 O201 1.245 . S
C200 O202 1.289 . S
O201 C200 1.245 . S
O202 Mg195 2.141 . S
O202 C200 1.289 . S
O203 Mg195 2.048 . S
O203 C196 1.195 . S
O204 Mg195 2.048 . S
O204 C205 1.195 . S
C205 O204 1.195 . S
C205 O206 1.313 . S
O206 C205 1.313 . S
O207 Mg195 2.141 . S
O207 C198 1.289 . S
Mg208 O215 2.141 . S
Mg208 O216 2.048 . S
Mg208 O217 2.048 . S
Mg208 O220 2.141 . S
C209 O210 1.313 . S
C209 O216 1.195 . S
O210 C209 1.313 . S
C211 O212 1.245 . S
C211 O220 1.289 . S
O212 C211 1.245 . S
C213 O214 1.245 . S
C213 O215 1.289 . S
O214 C213 1.245 . S
O215 Mg208 2.141 . S
O215 C213 1.289 . S
O216 Mg208 2.048 . S
O216 C209 1.195 . S
O217 Mg208 2.048 . S
O217 C218 1.195 . S
C218 O217 1.195 . S
C218 O219 1.313 . S
O219 C218 1.313 . S
O220 Mg208 2.141 . S
O220 C211 1.289 . S
Mg221 O228 2.141 . S
Mg221 O229 2.048 . S
Mg221 O230 2.048 . S
Mg221 O233 2.141 . S
C222 O223 1.313 . S
C222 O229 1.195 . S
O223 C222 1.313 . S
C224 O225 1.245 . S
C224 O233 1.289 . S
O225 C224 1.245 . S
C226 O227 1.245 . S
C226 O228 1.289 . S
O227 C226 1.245 . S
O228 Mg221 2.141 . S
O228 C226 1.289 . S
O229 Mg221 2.048 . S
O229 C222 1.195 . S
O230 Mg221 2.048 . S
O230 C231 1.195 . S
C231 O230 1.195 . S
C231 O232 1.313 . S
O232 C231 1.313 . S
O233 Mg221 2.141 . S
O233 C224 1.289 . S
Mg234 O241 2.141 . S
Mg234 O242 2.048 . S
Mg234 O243 2.048 . S
Mg234 O246 2.141 . S
C235 O236 1.313 . S
C235 O242 1.195 . S
O236 C235 1.313 . S
C237 O238 1.245 . S
C237 O246 1.289 . S
O238 C237 1.245 . S
C239 O240 1.245 . S
C239 O241 1.289 . S
O240 C239 1.245 . S
O241 Mg234 2.141 . S
O241 C239 1.289 . S
O242 Mg234 2.048 . S
O242 C235 1.195 . S
O243 Mg234 2.048 . S
O243 C244 1.195 . S
C244 O243 1.195 . S
C244 O245 1.313 . S
O245 C244 1.313 . S
O246 Mg234 2.141 . S
O246 C237 1.289 . S
Mg247 O254 2.141 . S
Mg247 O255 2.048 . S
Mg247 O256 2.048 . S
Mg247 O259 2.141 . S
C248 O249 1.313 . S
C248 O255 1.195 . S
O249 C248 1.313 . S
C250 O251 1.245 . S
C250 O259 1.289 . S
O251 C250 1.245 . S
C252 O253 1.245 . S
C252 O254 1.289 . S
O253 C252 1.245 . S
O254 Mg247 2.141 . S
O254 C252 1.289 . S
O255 Mg247 2.048 . S
O255 C248 1.195 . S
O256 Mg247 2.048 . S
O256 C257 1.195 . S
C257 O256 1.195 . S
C257 O258 1.313 . S
O258 C257 1.313 . S
O259 Mg247 2.141 . S
O259 C250 1.289 . S
Mg260 O267 2.141 . S
Mg260 O268 2.048 . S
Mg260 O269 2.048 . S
Mg260 O272 2.141 . S
C261 O262 1.313 . S
C261 O268 1.195 . S
O262 C261 1.313 . S
C263 O264 1.245 . S
C263 O272 1.289 . S
O264 C263 1.245 . S
C265 O266 1.245 . S
C265 O267 1.289 . S
O266 C265 1.245 . S
O267 Mg260 2.141 . S
O267 C265 1.289 . S
O268 Mg260 2.048 . S
O268 C261 1.195 . S
O269 Mg260 2.048 . S
O269 C270 1.195 . S
C270 O269 1.195 . S
C270 O271 1.313 . S
O271 C270 1.313 . S
O272 Mg260 2.141 . S
O272 C263 1.289 . S
Mg273 O280 2.141 . S
Mg273 O281 2.048 . S
Mg273 O282 2.048 . S
Mg273 O285 2.141 . S
C274 O275 1.313 . S
C274 O281 1.195 . S
O275 C274 1.313 . S
C276 O277 1.245 . S
C276 O285 1.289 . S
O277 C276 1.245 . S
C278 O279 1.245 . S
C278 O280 1.289 . S
O279 C278 1.245 . S
O280 Mg273 2.141 . S
O280 C278 1.289 . S
O281 Mg273 2.048 . S
O281 C274 1.195 . S
O282 Mg273 2.048 . S
O282 C283 1.195 . S
C283 O282 1.195 . S
C283 O284 1.313 . S
O284 C283 1.313 . S
O285 Mg273 2.141 . S
O285 C276 1.289 . S
Mg286 O293 2.141 . S
Mg286 O294 2.048 . S
Mg286 O295 2.048 . S
Mg286 O298 2.141 . S
C287 O288 1.313 . S
C287 O294 1.195 . S
O288 C287 1.313 . S
C289 O290 1.245 . S
C289 O298 1.289 . S
O290 C289 1.245 . S
C291 O292 1.245 . S
C291 O293 1.289 . S
O292 C291 1.245 . S
O293 Mg286 2.141 . S
O293 C291 1.289 . S
O294 Mg286 2.048 . S
O294 C287 1.195 . S
O295 Mg286 2.048 . S
O295 C296 1.195 . S
C296 O295 1.195 . S
C296 O297 1.313 . S
O297 C296 1.313 . S
O298 Mg286 2.141 . S
O298 C289 1.289 . S
Mg299 O306 2.141 . S
Mg299 O307 2.048 . S
Mg299 O308 2.048 . S
Mg299 O311 2.141 . S
C300 O301 1.313 . S
C300 O307 1.195 . S
O301 C300 1.313 . S
C302 O303 1.245 . S
C302 O311 1.289 . S
O303 C302 1.245 . S
C304 O305 1.245 . S
C304 O306 1.289 . S
O305 C304 1.245 . S
O306 Mg299 2.141 . S
O306 C304 1.289 . S
O307 Mg299 2.048 . S
O307 C300 1.195 . S
O308 Mg299 2.048 . S
O308 C309 1.195 . S
C309 O308 1.195 . S
C309 O310 1.313 . S
O310 C309 1.313 . S
O311 Mg299 2.141 . S
O311 C302 1.289 . S
H312 C320 0.929 . S
H313 C322 0.930 . S
H314 C324 0.930 . S
H315 C327 0.929 . S
H316 C330 0.930 . S
H317 C332 0.960 . S
H318 C332 0.960 . S
H319 C332 0.960 . S
C320 H312 0.929 . S
C320 C321 1.377 . S
C320 C322 1.384 . S
C321 C320 1.377 . S
C321 C327 1.390 . S
C322 H313 0.930 . S
C322 C320 1.384 . S
C322 C323 1.372 . S
C323 C322 1.372 . S
C323 C324 1.400 . S
C323 C328 1.490 . S
C324 H314 0.930 . S
C324 C323 1.400 . S
C324 C327 1.386 . S
H325 C341 0.930 . S
H326 C342 0.931 . S
C327 H315 0.929 . S
C327 C321 1.390 . S
C327 C324 1.386 . S
C328 C323 1.490 . S
C328 C330 1.395 . S
C328 C331 1.403 . S
H329 C335 0.930 . S
C330 H316 0.930 . S
C330 C328 1.395 . S
C330 C333 1.403 . S
C331 C328 1.403 . S
C331 C332 1.524 . S
C331 C335 1.400 . S
C332 H317 0.960 . S
C332 H318 0.960 . S
C332 H319 0.960 . S
C332 C331 1.524 . S
C333 C330 1.403 . S
C333 C334 1.392 . S
C333 C337 1.495 . S
C334 C333 1.392 . S
C334 C335 1.385 . S
C334 C336 1.478 . S
C335 H329 0.930 . S
C335 C331 1.400 . S
C335 C334 1.385 . S
C336 C334 1.478 . S
C336 C338 1.381 . S
C336 C342 1.383 . S
C337 C333 1.495 . S
C337 H343 0.959 . S
C337 H344 0.961 . S
C337 H345 0.960 . S
C338 C336 1.381 . S
C338 C339 1.394 . S
C338 H346 0.930 . S
C339 C338 1.394 . S
C339 C340 1.383 . S
C339 H347 0.929 . S
C340 C339 1.383 . S
C340 C341 1.377 . S
C341 H325 0.930 . S
C341 C340 1.377 . S
C341 C342 1.379 . S
C342 H326 0.931 . S
C342 C336 1.383 . S
C342 C341 1.379 . S
H343 C337 0.959 . S
H344 C337 0.961 . S
H345 C337 0.960 . S
H346 C338 0.930 . S
H347 C339 0.929 . S
H348 C356 0.929 . S
H349 C358 0.930 . S
H350 C360 0.930 . S
H351 C363 0.929 . S
H352 C366 0.930 . S
H353 C368 0.960 . S
H354 C368 0.960 . S
H355 C368 0.960 . S
C356 H348 0.929 . S
C356 C357 1.377 . S
C356 C358 1.384 . S
C357 C356 1.377 . S
C357 C363 1.390 . S
C358 H349 0.930 . S
C358 C356 1.384 . S
C358 C359 1.372 . S
C359 C358 1.372 . S
C359 C360 1.400 . S
C359 C364 1.490 . S
C360 H350 0.930 . S
C360 C359 1.400 . S
C360 C363 1.386 . S
H361 C377 0.930 . S
H362 C378 0.931 . S
C363 H351 0.929 . S
C363 C357 1.390 . S
C363 C360 1.386 . S
C364 C359 1.490 . S
C364 C366 1.395 . S
C364 C367 1.403 . S
H365 C371 0.930 . S
C366 H352 0.930 . S
C366 C364 1.395 . S
C366 C369 1.403 . S
C367 C364 1.403 . S
C367 C368 1.524 . S
C367 C371 1.400 . S
C368 H353 0.960 . S
C368 H354 0.960 . S
C368 H355 0.960 . S
C368 C367 1.524 . S
C369 C366 1.403 . S
C369 C370 1.392 . S
C369 C373 1.495 . S
C370 C369 1.392 . S
C370 C371 1.385 . S
C370 C372 1.478 . S
C371 H365 0.930 . S
C371 C367 1.400 . S
C371 C370 1.385 . S
C372 C370 1.478 . S
C372 C374 1.381 . S
C372 C378 1.383 . S
C373 C369 1.495 . S
C373 H379 0.959 . S
C373 H380 0.961 . S
C373 H381 0.960 . S
C374 C372 1.381 . S
C374 C375 1.394 . S
C374 H382 0.930 . S
C375 C374 1.394 . S
C375 C376 1.383 . S
C375 H383 0.929 . S
C376 C375 1.383 . S
C376 C377 1.377 . S
C377 H361 0.930 . S
C377 C376 1.377 . S
C377 C378 1.379 . S
C378 H362 0.931 . S
C378 C372 1.383 . S
C378 C377 1.379 . S
H379 C373 0.959 . S
H380 C373 0.961 . S
H381 C373 0.960 . S
H382 C374 0.930 . S
H383 C375 0.929 . S
H384 C392 0.929 . S
H385 C394 0.930 . S
H386 C396 0.930 . S
H387 C399 0.929 . S
H388 C402 0.930 . S
H389 C404 0.960 . S
H390 C404 0.960 . S
H391 C404 0.960 . S
C392 H384 0.929 . S
C392 C393 1.377 . S
C392 C394 1.384 . S
C393 C392 1.377 . S
C393 C399 1.390 . S
C394 H385 0.930 . S
C394 C392 1.384 . S
C394 C395 1.372 . S
C395 C394 1.372 . S
C395 C396 1.400 . S
C395 C400 1.490 . S
C396 H386 0.930 . S
C396 C395 1.400 . S
C396 C399 1.386 . S
H397 C413 0.930 . S
H398 C414 0.931 . S
C399 H387 0.929 . S
C399 C393 1.390 . S
C399 C396 1.386 . S
C400 C395 1.490 . S
C400 C402 1.395 . S
C400 C403 1.403 . S
H401 C407 0.930 . S
C402 H388 0.930 . S
C402 C400 1.395 . S
C402 C405 1.403 . S
C403 C400 1.403 . S
C403 C404 1.524 . S
C403 C407 1.400 . S
C404 H389 0.960 . S
C404 H390 0.960 . S
C404 H391 0.960 . S
C404 C403 1.524 . S
C405 C402 1.403 . S
C405 C406 1.392 . S
C405 C409 1.495 . S
C406 C405 1.392 . S
C406 C407 1.385 . S
C406 C408 1.478 . S
C407 H401 0.930 . S
C407 C403 1.400 . S
C407 C406 1.385 . S
C408 C406 1.478 . S
C408 C410 1.381 . S
C408 C414 1.383 . S
C409 C405 1.495 . S
C409 H415 0.959 . S
C409 H416 0.961 . S
C409 H417 0.960 . S
C410 C408 1.381 . S
C410 C411 1.394 . S
C410 H418 0.930 . S
C411 C410 1.394 . S
C411 C412 1.383 . S
C411 H419 0.929 . S
C412 C411 1.383 . S
C412 C413 1.377 . S
C413 H397 0.930 . S
C413 C412 1.377 . S
C413 C414 1.379 . S
C414 H398 0.931 . S
C414 C408 1.383 . S
C414 C413 1.379 . S
H415 C409 0.959 . S
H416 C409 0.961 . S
H417 C409 0.960 . S
H418 C410 0.930 . S
H419 C411 0.929 . S
H420 C428 0.929 . S
H421 C430 0.930 . S
H422 C432 0.930 . S
H423 C435 0.929 . S
H424 C438 0.930 . S
H425 C440 0.960 . S
H426 C440 0.960 . S
H427 C440 0.960 . S
C428 H420 0.929 . S
C428 C429 1.377 . S
C428 C430 1.384 . S
C429 C428 1.377 . S
C429 C435 1.390 . S
C430 H421 0.930 . S
C430 C428 1.384 . S
C430 C431 1.372 . S
C431 C430 1.372 . S
C431 C432 1.400 . S
C431 C436 1.490 . S
C432 H422 0.930 . S
C432 C431 1.400 . S
C432 C435 1.386 . S
H433 C449 0.930 . S
H434 C450 0.931 . S
C435 H423 0.929 . S
C435 C429 1.390 . S
C435 C432 1.386 . S
C436 C431 1.490 . S
C436 C438 1.395 . S
C436 C439 1.403 . S
H437 C443 0.930 . S
C438 H424 0.930 . S
C438 C436 1.395 . S
C438 C441 1.403 . S
C439 C436 1.403 . S
C439 C440 1.524 . S
C439 C443 1.400 . S
C440 H425 0.960 . S
C440 H426 0.960 . S
C440 H427 0.960 . S
C440 C439 1.524 . S
C441 C438 1.403 . S
C441 C442 1.392 . S
C441 C445 1.495 . S
C442 C441 1.392 . S
C442 C443 1.385 . S
C442 C444 1.478 . S
C443 H437 0.930 . S
C443 C439 1.400 . S
C443 C442 1.385 . S
C444 C442 1.478 . S
C444 C446 1.381 . S
C444 C450 1.383 . S
C445 C441 1.495 . S
C445 H451 0.959 . S
C445 H452 0.961 . S
C445 H453 0.960 . S
C446 C444 1.381 . S
C446 C447 1.394 . S
C446 H454 0.930 . S
C447 C446 1.394 . S
C447 C448 1.383 . S
C447 H455 0.929 . S
C448 C447 1.383 . S
C448 C449 1.377 . S
C449 H433 0.930 . S
C449 C448 1.377 . S
C449 C450 1.379 . S
C450 H434 0.931 . S
C450 C444 1.383 . S
C450 C449 1.379 . S
H451 C445 0.959 . S
H452 C445 0.961 . S
H453 C445 0.960 . S
H454 C446 0.930 . S
H455 C447 0.929 . S
H456 C464 0.929 . S
H457 C466 0.930 . S
H458 C468 0.930 . S
H459 C471 0.929 . S
H460 C474 0.930 . S
H461 C476 0.960 . S
H462 C476 0.960 . S
H463 C476 0.960 . S
C464 H456 0.929 . S
C464 C465 1.377 . S
C464 C466 1.384 . S
C465 C464 1.377 . S
C465 C471 1.390 . S
C466 H457 0.930 . S
C466 C464 1.384 . S
C466 C467 1.372 . S
C467 C466 1.372 . S
C467 C468 1.400 . S
C467 C472 1.490 . S
C468 H458 0.930 . S
C468 C467 1.400 . S
C468 C471 1.386 . S
H469 C485 0.930 . S
H470 C486 0.931 . S
C471 H459 0.929 . S
C471 C465 1.390 . S
C471 C468 1.386 . S
C472 C467 1.490 . S
C472 C474 1.395 . S
C472 C475 1.403 . S
H473 C479 0.930 . S
C474 H460 0.930 . S
C474 C472 1.395 . S
C474 C477 1.403 . S
C475 C472 1.403 . S
C475 C476 1.524 . S
C475 C479 1.400 . S
C476 H461 0.960 . S
C476 H462 0.960 . S
C476 H463 0.960 . S
C476 C475 1.524 . S
C477 C474 1.403 . S
C477 C478 1.392 . S
C477 C481 1.495 . S
C478 C477 1.392 . S
C478 C479 1.385 . S
C478 C480 1.478 . S
C479 H473 0.930 . S
C479 C475 1.400 . S
C479 C478 1.385 . S
C480 C478 1.478 . S
C480 C482 1.381 . S
C480 C486 1.383 . S
C481 C477 1.495 . S
C481 H487 0.959 . S
C481 H488 0.961 . S
C481 H489 0.960 . S
C482 C480 1.381 . S
C482 C483 1.394 . S
C482 H490 0.930 . S
C483 C482 1.394 . S
C483 C484 1.383 . S
C483 H491 0.929 . S
C484 C483 1.383 . S
C484 C485 1.377 . S
C485 H469 0.930 . S
C485 C484 1.377 . S
C485 C486 1.379 . S
C486 H470 0.931 . S
C486 C480 1.383 . S
C486 C485 1.379 . S
H487 C481 0.959 . S
H488 C481 0.961 . S
H489 C481 0.960 . S
H490 C482 0.930 . S
H491 C483 0.929 . S
H492 C500 0.929 . S
H493 C502 0.930 . S
H494 C504 0.930 . S
H495 C507 0.929 . S
H496 C510 0.930 . S
H497 C512 0.960 . S
H498 C512 0.960 . S
H499 C512 0.960 . S
C500 H492 0.929 . S
C500 C501 1.377 . S
C500 C502 1.384 . S
C501 C500 1.377 . S
C501 C507 1.390 . S
C502 H493 0.930 . S
C502 C500 1.384 . S
C502 C503 1.372 . S
C503 C502 1.372 . S
C503 C504 1.400 . S
C503 C508 1.490 . S
C504 H494 0.930 . S
C504 C503 1.400 . S
C504 C507 1.386 . S
H505 C521 0.930 . S
H506 C522 0.931 . S
C507 H495 0.929 . S
C507 C501 1.390 . S
C507 C504 1.386 . S
C508 C503 1.490 . S
C508 C510 1.395 . S
C508 C511 1.403 . S
H509 C515 0.930 . S
C510 H496 0.930 . S
C510 C508 1.395 . S
C510 C513 1.403 . S
C511 C508 1.403 . S
C511 C512 1.524 . S
C511 C515 1.400 . S
C512 H497 0.960 . S
C512 H498 0.960 . S
C512 H499 0.960 . S
C512 C511 1.524 . S
C513 C510 1.403 . S
C513 C514 1.392 . S
C513 C517 1.495 . S
C514 C513 1.392 . S
C514 C515 1.385 . S
C514 C516 1.478 . S
C515 H509 0.930 . S
C515 C511 1.400 . S
C515 C514 1.385 . S
C516 C514 1.478 . S
C516 C518 1.381 . S
C516 C522 1.383 . S
C517 C513 1.495 . S
C517 H523 0.959 . S
C517 H524 0.961 . S
C517 H525 0.960 . S
C518 C516 1.381 . S
C518 C519 1.394 . S
C518 H526 0.930 . S
C519 C518 1.394 . S
C519 C520 1.383 . S
C519 H527 0.929 . S
C520 C519 1.383 . S
C520 C521 1.377 . S
C521 H505 0.930 . S
C521 C520 1.377 . S
C521 C522 1.379 . S
C522 H506 0.931 . S
C522 C516 1.383 . S
C522 C521 1.379 . S
H523 C517 0.959 . S
H524 C517 0.961 . S
H525 C517 0.960 . S
H526 C518 0.930 . S
H527 C519 0.929 . S
H528 C536 0.929 . S
H529 C538 0.930 . S
H530 C540 0.930 . S
H531 C543 0.929 . S
H532 C546 0.930 . S
H533 C548 0.960 . S
H534 C548 0.960 . S
H535 C548 0.960 . S
C536 H528 0.929 . S
C536 C537 1.377 . S
C536 C538 1.384 . S
C537 C536 1.377 . S
C537 C543 1.390 . S
C538 H529 0.930 . S
C538 C536 1.384 . S
C538 C539 1.372 . S
C539 C538 1.372 . S
C539 C540 1.400 . S
C539 C544 1.490 . S
C540 H530 0.930 . S
C540 C539 1.400 . S
C540 C543 1.386 . S
H541 C557 0.930 . S
H542 C558 0.931 . S
C543 H531 0.929 . S
C543 C537 1.390 . S
C543 C540 1.386 . S
C544 C539 1.490 . S
C544 C546 1.395 . S
C544 C547 1.403 . S
H545 C551 0.930 . S
C546 H532 0.930 . S
C546 C544 1.395 . S
C546 C549 1.403 . S
C547 C544 1.403 . S
C547 C548 1.524 . S
C547 C551 1.400 . S
C548 H533 0.960 . S
C548 H534 0.960 . S
C548 H535 0.960 . S
C548 C547 1.524 . S
C549 C546 1.403 . S
C549 C550 1.392 . S
C549 C553 1.495 . S
C550 C549 1.392 . S
C550 C551 1.385 . S
C550 C552 1.478 . S
C551 H545 0.930 . S
C551 C547 1.400 . S
C551 C550 1.385 . S
C552 C550 1.478 . S
C552 C554 1.381 . S
C552 C558 1.383 . S
C553 C549 1.495 . S
C553 H559 0.959 . S
C553 H560 0.961 . S
C553 H561 0.960 . S
C554 C552 1.381 . S
C554 C555 1.394 . S
C554 H562 0.930 . S
C555 C554 1.394 . S
C555 C556 1.383 . S
C555 H563 0.929 . S
C556 C555 1.383 . S
C556 C557 1.377 . S
C557 H541 0.930 . S
C557 C556 1.377 . S
C557 C558 1.379 . S
C558 H542 0.931 . S
C558 C552 1.383 . S
C558 C557 1.379 . S
H559 C553 0.959 . S
H560 C553 0.961 . S
H561 C553 0.960 . S
H562 C554 0.930 . S
H563 C555 0.929 . S
H564 C572 0.929 . S
H565 C574 0.930 . S
H566 C576 0.930 . S
H567 C579 0.929 . S
H568 C582 0.930 . S
H569 C584 0.960 . S
H570 C584 0.960 . S
H571 C584 0.960 . S
C572 H564 0.929 . S
C572 C573 1.377 . S
C572 C574 1.384 . S
C573 C572 1.377 . S
C573 C579 1.390 . S
C574 H565 0.930 . S
C574 C572 1.384 . S
C574 C575 1.372 . S
C575 C574 1.372 . S
C575 C576 1.400 . S
C575 C580 1.490 . S
C576 H566 0.930 . S
C576 C575 1.400 . S
C576 C579 1.386 . S
H577 C593 0.930 . S
H578 C594 0.931 . S
C579 H567 0.929 . S
C579 C573 1.390 . S
C579 C576 1.386 . S
C580 C575 1.490 . S
C580 C582 1.395 . S
C580 C583 1.403 . S
H581 C587 0.930 . S
C582 H568 0.930 . S
C582 C580 1.395 . S
C582 C585 1.403 . S
C583 C580 1.403 . S
C583 C584 1.524 . S
C583 C587 1.400 . S
C584 H569 0.960 . S
C584 H570 0.960 . S
C584 H571 0.960 . S
C584 C583 1.524 . S
C585 C582 1.403 . S
C585 C586 1.392 . S
C585 C589 1.495 . S
C586 C585 1.392 . S
C586 C587 1.385 . S
C586 C588 1.478 . S
C587 H581 0.930 . S
C587 C583 1.400 . S
C587 C586 1.385 . S
C588 C586 1.478 . S
C588 C590 1.381 . S
C588 C594 1.383 . S
C589 C585 1.495 . S
C589 H595 0.959 . S
C589 H596 0.961 . S
C589 H597 0.960 . S
C590 C588 1.381 . S
C590 C591 1.394 . S
C590 H598 0.930 . S
C591 C590 1.394 . S
C591 C592 1.383 . S
C591 H599 0.929 . S
C592 C591 1.383 . S
C592 C593 1.377 . S
C593 H577 0.930 . S
C593 C592 1.377 . S
C593 C594 1.379 . S
C594 H578 0.931 . S
C594 C588 1.383 . S
C594 C593 1.379 . S
H595 C589 0.959 . S
H596 C589 0.961 . S
H597 C589 0.960 . S
H598 C590 0.930 . S
H599 C591 0.929 . S
H600 C608 0.929 . S
H601 C610 0.930 . S
H602 C612 0.930 . S
H603 C615 0.929 . S
H604 C618 0.930 . S
H605 C620 0.960 . S
H606 C620 0.960 . S
H607 C620 0.960 . S
C608 H600 0.929 . S
C608 C609 1.377 . S
C608 C610 1.384 . S
C609 C608 1.377 . S
C609 C615 1.390 . S
C610 H601 0.930 . S
C610 C608 1.384 . S
C610 C611 1.372 . S
C611 C610 1.372 . S
C611 C612 1.400 . S
C611 C616 1.490 . S
C612 H602 0.930 . S
C612 C611 1.400 . S
C612 C615 1.386 . S
H613 C629 0.930 . S
H614 C630 0.931 . S
C615 H603 0.929 . S
C615 C609 1.390 . S
C615 C612 1.386 . S
C616 C611 1.490 . S
C616 C618 1.395 . S
C616 C619 1.403 . S
H617 C623 0.930 . S
C618 H604 0.930 . S
C618 C616 1.395 . S
C618 C621 1.403 . S
C619 C616 1.403 . S
C619 C620 1.524 . S
C619 C623 1.400 . S
C620 H605 0.960 . S
C620 H606 0.960 . S
C620 H607 0.960 . S
C620 C619 1.524 . S
C621 C618 1.403 . S
C621 C622 1.392 . S
C621 C625 1.495 . S
C622 C621 1.392 . S
C622 C623 1.385 . S
C622 C624 1.478 . S
C623 H617 0.930 . S
C623 C619 1.400 . S
C623 C622 1.385 . S
C624 C622 1.478 . S
C624 C626 1.381 . S
C624 C630 1.383 . S
C625 C621 1.495 . S
C625 H631 0.959 . S
C625 H632 0.961 . S
C625 H633 0.960 . S
C626 C624 1.381 . S
C626 C627 1.394 . S
C626 H634 0.930 . S
C627 C626 1.394 . S
C627 C628 1.383 . S
C627 H635 0.929 . S
C628 C627 1.383 . S
C628 C629 1.377 . S
C629 H613 0.930 . S
C629 C628 1.377 . S
C629 C630 1.379 . S
C630 H614 0.931 . S
C630 C624 1.383 . S
C630 C629 1.379 . S
H631 C625 0.959 . S
H632 C625 0.961 . S
H633 C625 0.960 . S
H634 C626 0.930 . S
H635 C627 0.929 . S
H636 C644 0.929 . S
H637 C646 0.930 . S
H638 C648 0.930 . S
H639 C651 0.929 . S
H640 C654 0.930 . S
H641 C656 0.960 . S
H642 C656 0.960 . S
H643 C656 0.960 . S
C644 H636 0.929 . S
C644 C645 1.377 . S
C644 C646 1.384 . S
C645 C644 1.377 . S
C645 C651 1.390 . S
C646 H637 0.930 . S
C646 C644 1.384 . S
C646 C647 1.372 . S
C647 C646 1.372 . S
C647 C648 1.400 . S
C647 C652 1.490 . S
C648 H638 0.930 . S
C648 C647 1.400 . S
C648 C651 1.386 . S
H649 C665 0.930 . S
H650 C666 0.931 . S
C651 H639 0.929 . S
C651 C645 1.390 . S
C651 C648 1.386 . S
C652 C647 1.490 . S
C652 C654 1.395 . S
C652 C655 1.403 . S
H653 C659 0.930 . S
C654 H640 0.930 . S
C654 C652 1.395 . S
C654 C657 1.403 . S
C655 C652 1.403 . S
C655 C656 1.524 . S
C655 C659 1.400 . S
C656 H641 0.960 . S
C656 H642 0.960 . S
C656 H643 0.960 . S
C656 C655 1.524 . S
C657 C654 1.403 . S
C657 C658 1.392 . S
C657 C661 1.495 . S
C658 C657 1.392 . S
C658 C659 1.385 . S
C658 C660 1.478 . S
C659 H653 0.930 . S
C659 C655 1.400 . S
C659 C658 1.385 . S
C660 C658 1.478 . S
C660 C662 1.381 . S
C660 C666 1.383 . S
C661 C657 1.495 . S
C661 H667 0.959 . S
C661 H668 0.961 . S
C661 H669 0.960 . S
C662 C660 1.381 . S
C662 C663 1.394 . S
C662 H670 0.930 . S
C663 C662 1.394 . S
C663 C664 1.383 . S
C663 H671 0.929 . S
C664 C663 1.383 . S
C664 C665 1.377 . S
C665 H649 0.930 . S
C665 C664 1.377 . S
C665 C666 1.379 . S
C666 H650 0.931 . S
C666 C660 1.383 . S
C666 C665 1.379 . S
H667 C661 0.959 . S
H668 C661 0.961 . S
H669 C661 0.960 . S
H670 C662 0.930 . S
H671 C663 0.929 . S
H672 C680 0.929 . S
H673 C682 0.930 . S
H674 C684 0.930 . S
H675 C687 0.929 . S
H676 C690 0.930 . S
H677 C692 0.960 . S
H678 C692 0.960 . S
H679 C692 0.960 . S
C680 H672 0.929 . S
C680 C681 1.377 . S
C680 C682 1.384 . S
C681 C680 1.377 . S
C681 C687 1.390 . S
C682 H673 0.930 . S
C682 C680 1.384 . S
C682 C683 1.372 . S
C683 C682 1.372 . S
C683 C684 1.400 . S
C683 C688 1.490 . S
C684 H674 0.930 . S
C684 C683 1.400 . S
C684 C687 1.386 . S
H685 C701 0.930 . S
H686 C702 0.931 . S
C687 H675 0.929 . S
C687 C681 1.390 . S
C687 C684 1.386 . S
C688 C683 1.490 . S
C688 C690 1.395 . S
C688 C691 1.403 . S
H689 C695 0.930 . S
C690 H676 0.930 . S
C690 C688 1.395 . S
C690 C693 1.403 . S
C691 C688 1.403 . S
C691 C692 1.524 . S
C691 C695 1.400 . S
C692 H677 0.960 . S
C692 H678 0.960 . S
C692 H679 0.960 . S
C692 C691 1.524 . S
C693 C690 1.403 . S
C693 C694 1.392 . S
C693 C697 1.495 . S
C694 C693 1.392 . S
C694 C695 1.385 . S
C694 C696 1.478 . S
C695 H689 0.930 . S
C695 C691 1.400 . S
C695 C694 1.385 . S
C696 C694 1.478 . S
C696 C698 1.381 . S
C696 C702 1.383 . S
C697 C693 1.495 . S
C697 H703 0.959 . S
C697 H704 0.961 . S
C697 H705 0.960 . S
C698 C696 1.381 . S
C698 C699 1.394 . S
C698 H706 0.930 . S
C699 C698 1.394 . S
C699 C700 1.383 . S
C699 H707 0.929 . S
C700 C699 1.383 . S
C700 C701 1.377 . S
C701 H685 0.930 . S
C701 C700 1.377 . S
C701 C702 1.379 . S
C702 H686 0.931 . S
C702 C696 1.383 . S
C702 C701 1.379 . S
H703 C697 0.959 . S
H704 C697 0.961 . S
H705 C697 0.960 . S
H706 C698 0.930 . S
H707 C699 0.929 . S
H708 C716 0.929 . S
H709 C718 0.930 . S
H710 C720 0.930 . S
H711 C723 0.929 . S
H712 C726 0.930 . S
H713 C728 0.960 . S
H714 C728 0.960 . S
H715 C728 0.960 . S
C716 H708 0.929 . S
C716 C717 1.377 . S
C716 C718 1.384 . S
C717 C716 1.377 . S
C717 C723 1.390 . S
C718 H709 0.930 . S
C718 C716 1.384 . S
C718 C719 1.372 . S
C719 C718 1.372 . S
C719 C720 1.400 . S
C719 C724 1.490 . S
C720 H710 0.930 . S
C720 C719 1.400 . S
C720 C723 1.386 . S
H721 C737 0.930 . S
H722 C738 0.931 . S
C723 H711 0.929 . S
C723 C717 1.390 . S
C723 C720 1.386 . S
C724 C719 1.490 . S
C724 C726 1.395 . S
C724 C727 1.403 . S
H725 C731 0.930 . S
C726 H712 0.930 . S
C726 C724 1.395 . S
C726 C729 1.403 . S
C727 C724 1.403 . S
C727 C728 1.524 . S
C727 C731 1.400 . S
C728 H713 0.960 . S
C728 H714 0.960 . S
C728 H715 0.960 . S
C728 C727 1.524 . S
C729 C726 1.403 . S
C729 C730 1.392 . S
C729 C733 1.495 . S
C730 C729 1.392 . S
C730 C731 1.385 . S
C730 C732 1.478 . S
C731 H725 0.930 . S
C731 C727 1.400 . S
C731 C730 1.385 . S
C732 C730 1.478 . S
C732 C734 1.381 . S
C732 C738 1.383 . S
C733 C729 1.495 . S
C733 H739 0.959 . S
C733 H740 0.961 . S
C733 H741 0.960 . S
C734 C732 1.381 . S
C734 C735 1.394 . S
C734 H742 0.930 . S
C735 C734 1.394 . S
C735 C736 1.383 . S
C735 H743 0.929 . S
C736 C735 1.383 . S
C736 C737 1.377 . S
C737 H721 0.930 . S
C737 C736 1.377 . S
C737 C738 1.379 . S
C738 H722 0.931 . S
C738 C732 1.383 . S
C738 C737 1.379 . S
H739 C733 0.959 . S
H740 C733 0.961 . S
H741 C733 0.960 . S
H742 C734 0.930 . S
H743 C735 0.929 . S
H744 C752 0.929 . S
H745 C754 0.930 . S
H746 C756 0.930 . S
H747 C759 0.929 . S
H748 C762 0.930 . S
H749 C764 0.960 . S
H750 C764 0.960 . S
H751 C764 0.960 . S
C752 H744 0.929 . S
C752 C753 1.377 . S
C752 C754 1.384 . S
C753 C752 1.377 . S
C753 C759 1.390 . S
C754 H745 0.930 . S
C754 C752 1.384 . S
C754 C755 1.372 . S
C755 C754 1.372 . S
C755 C756 1.400 . S
C755 C760 1.490 . S
C756 H746 0.930 . S
C756 C755 1.400 . S
C756 C759 1.386 . S
H757 C773 0.930 . S
H758 C774 0.931 . S
C759 H747 0.929 . S
C759 C753 1.390 . S
C759 C756 1.386 . S
C760 C755 1.490 . S
C760 C762 1.395 1_565 S
C760 C763 1.403 . S
H761 C767 0.930 . S
C762 H748 0.930 . S
C762 C760 1.395 1_545 S
C762 C765 1.403 . S
C763 C760 1.403 . S
C763 C764 1.524 . S
C763 C767 1.400 1_565 S
C764 H749 0.960 . S
C764 H750 0.960 . S
C764 H751 0.960 . S
C764 C763 1.524 . S
C765 C762 1.403 . S
C765 C766 1.392 . S
C765 C769 1.495 . S
C766 C765 1.392 . S
C766 C767 1.385 . S
C766 C768 1.478 . S
C767 H761 0.930 . S
C767 C763 1.400 1_545 S
C767 C766 1.385 . S
C768 C766 1.478 . S
C768 C770 1.381 . S
C768 C774 1.383 . S
C769 C765 1.495 . S
C769 H775 0.959 . S
C769 H776 0.961 . S
C769 H777 0.960 . S
C770 C768 1.381 . S
C770 C771 1.394 . S
C770 H778 0.930 . S
C771 C770 1.394 . S
C771 C772 1.383 . S
C771 H779 0.929 . S
C772 C771 1.383 . S
C772 C773 1.377 . S
C773 H757 0.930 . S
C773 C772 1.377 . S
C773 C774 1.379 . S
C774 H758 0.931 . S
C774 C768 1.383 . S
C774 C773 1.379 . S
H775 C769 0.959 . S
H776 C769 0.961 . S
H777 C769 0.960 . S
H778 C770 0.930 . S
H779 C771 0.929 . S
H780 C788 0.929 . S
H781 C790 0.930 . S
H782 C792 0.930 . S
H783 C795 0.929 . S
H784 C798 0.930 . S
H785 C800 0.960 . S
H786 C800 0.960 1_655 S
H787 C800 0.960 . S
C788 H780 0.929 . S
C788 C789 1.377 . S
C788 C790 1.384 . S
C789 C788 1.377 . S
C789 C795 1.390 . S
C790 H781 0.930 . S
C790 C788 1.384 . S
C790 C791 1.372 . S
C791 C790 1.372 . S
C791 C792 1.400 . S
C791 C796 1.490 . S
C792 H782 0.930 . S
C792 C791 1.400 . S
C792 C795 1.386 . S
H793 C809 0.930 . S
H794 C810 0.931 . S
C795 H783 0.929 . S
C795 C789 1.390 . S
C795 C792 1.386 . S
C796 C791 1.490 . S
C796 C798 1.395 . S
C796 C799 1.403 1_655 S
H797 C803 0.930 . S
C798 H784 0.930 . S
C798 C796 1.395 . S
C798 C801 1.403 . S
C799 C796 1.403 1_455 S
C799 C800 1.524 . S
C799 C803 1.400 . S
C800 H785 0.960 . S
C800 H786 0.960 1_455 S
C800 H787 0.960 . S
C800 C799 1.524 . S
C801 C798 1.403 . S
C801 C802 1.392 1_655 S
C801 C805 1.495 . S
C802 C801 1.392 1_455 S
C802 C803 1.385 . S
C802 C804 1.478 . S
C803 H797 0.930 . S
C803 C799 1.400 . S
C803 C802 1.385 . S
C804 C802 1.478 . S
C804 C806 1.381 . S
C804 C810 1.383 . S
C805 C801 1.495 . S
C805 H811 0.959 . S
C805 H812 0.988 . S
C805 H813 0.960 . S
C806 C804 1.381 . S
C806 C807 1.394 . S
C806 H814 0.930 . S
C807 C806 1.394 . S
C807 C808 1.383 . S
C807 H815 0.929 . S
C808 C807 1.383 . S
C808 C809 1.377 . S
C809 H793 0.930 . S
C809 C808 1.377 . S
C809 C810 1.379 . S
C810 H794 0.931 . S
C810 C804 1.383 . S
C810 C809 1.379 . S
H811 C805 0.959 . S
H812 C805 0.988 . S
H813 C805 0.960 . S
H814 C806 0.930 . S
H815 C807 0.929 . S
H816 C824 0.929 . S
H817 C826 0.930 . S
H818 C828 0.930 . S
H819 C831 0.929 . S
H820 C834 0.930 . S
H821 C836 0.960 . S
H822 C836 0.960 . S
H823 C836 0.960 1_545 S
C824 H816 0.929 . S
C824 C825 1.377 . S
C824 C826 1.384 . S
C825 C824 1.377 . S
C825 C831 1.390 . S
C826 H817 0.930 . S
C826 C824 1.384 . S
C826 C827 1.372 . S
C827 C826 1.372 . S
C827 C828 1.400 . S
C827 C832 1.490 . S
C828 H818 0.930 . S
C828 C827 1.400 . S
C828 C831 1.386 . S
H829 C845 0.930 . S
H830 C846 0.931 . S
C831 H819 0.929 . S
C831 C825 1.390 . S
C831 C828 1.386 . S
C832 C827 1.490 . S
C832 C834 1.395 . S
C832 C835 1.364 1_545 S
H833 C839 0.930 . S
C834 H820 0.930 . S
C834 C832 1.395 . S
C834 C837 1.403 . S
C835 C832 1.364 1_565 S
C835 C836 1.530 . S
C835 C839 1.435 . S
C836 H821 0.960 . S
C836 H822 0.960 . S
C836 H823 0.960 1_565 S
C836 C835 1.530 . S
C837 C834 1.403 . S
C837 C838 1.392 1_545 S
C837 C841 1.495 . S
C838 C837 1.392 1_565 S
C838 C839 1.385 . S
C838 C840 1.478 . S
C839 H833 0.930 . S
C839 C835 1.435 . S
C839 C838 1.385 . S
C840 C838 1.478 . S
C840 C842 1.381 . S
C840 C846 1.383 . S
C841 C837 1.495 . S
C841 H847 0.959 . S
C841 H848 0.961 . S
C841 H849 0.960 1_545 S
C842 C840 1.381 . S
C842 C843 1.394 . S
C842 H850 0.930 . S
C843 C842 1.394 . S
C843 C844 1.383 . S
C843 H851 0.929 . S
C844 C843 1.383 . S
C844 C845 1.377 . S
C845 H829 0.930 . S
C845 C844 1.377 . S
C845 C846 1.379 . S
C846 H830 0.931 . S
C846 C840 1.383 . S
C846 C845 1.379 . S
H847 C841 0.959 . S
H848 C841 0.961 . S
H849 C841 0.960 1_565 S
H850 C842 0.930 . S
H851 C843 0.929 . S
H852 C860 0.929 . S
H853 C862 0.930 . S
H854 C864 0.930 . S
H855 C867 0.929 . S
H856 C870 0.930 . S
H857 C872 0.960 . S
H858 C872 0.969 . S
H859 C872 0.960 . S
C860 H852 0.929 . S
C860 C861 1.377 . S
C860 C862 1.384 . S
C861 C860 1.377 . S
C861 C867 1.390 . S
C862 H853 0.930 . S
C862 C860 1.384 . S
C862 C863 1.372 . S
C863 C862 1.372 . S
C863 C864 1.400 . S
C863 C868 1.490 . S
C864 H854 0.930 . S
C864 C863 1.400 . S
C864 C867 1.386 . S
H865 C881 0.930 . S
H866 C882 0.931 . S
C867 H855 0.929 . S
C867 C861 1.390 . S
C867 C864 1.386 . S
C868 C863 1.490 . S
C868 C870 1.395 . S
C868 C871 1.403 1_455 S
H869 C875 0.930 . S
C870 H856 0.930 . S
C870 C868 1.395 . S
C870 C873 1.403 . S
C871 C868 1.403 1_655 S
C871 C872 1.524 . S
C871 C875 1.400 . S
C872 H857 0.960 . S
C872 H858 0.969 . S
C872 H859 0.960 . S
C872 C871 1.524 . S
C873 C870 1.403 . S
C873 C874 1.392 1_455 S
C873 C877 1.495 . S
C874 C873 1.392 1_655 S
C874 C875 1.385 . S
C874 C876 1.478 . S
C875 H869 0.930 . S
C875 C871 1.400 . S
C875 C874 1.385 . S
C876 C874 1.478 . S
C876 C878 1.381 . S
C876 C882 1.383 . S
C877 C873 1.495 . S
C877 H883 0.959 . S
C877 H884 0.961 . S
C877 H885 0.960 . S
C878 C876 1.381 . S
C878 C879 1.394 . S
C878 H886 0.930 . S
C879 C878 1.394 . S
C879 C880 1.383 . S
C879 H887 0.929 . S
C880 C879 1.383 . S
C880 C881 1.377 . S
C881 H865 0.930 . S
C881 C880 1.377 . S
C881 C882 1.379 . S
C882 H866 0.931 . S
C882 C876 1.383 . S
C882 C881 1.379 . S
H883 C877 0.959 . S
H884 C877 0.961 . S
H885 C877 0.960 . S
H886 C878 0.930 . S
H887 C879 0.929 . S
H888 C896 0.929 . S
H889 C898 0.930 . S
H890 C900 0.930 . S
H891 C903 0.929 . S
H892 C906 0.930 . S
H893 C908 0.960 . S
H894 C908 0.960 . S
H895 C908 0.960 . S
C896 H888 0.929 . S
C896 C897 1.377 . S
C896 C898 1.384 . S
C897 C896 1.377 . S
C897 C903 1.390 . S
C898 H889 0.930 . S
C898 C896 1.384 . S
C898 C899 1.372 . S
C899 C898 1.372 . S
C899 C900 1.400 . S
C899 C904 1.490 . S
C900 H890 0.930 . S
C900 C899 1.400 . S
C900 C903 1.386 . S
H901 C917 0.930 . S
H902 C918 0.931 . S
C903 H891 0.929 . S
C903 C897 1.390 . S
C903 C900 1.386 . S
C904 C899 1.490 . S
C904 C906 1.395 1_565 S
C904 C907 1.403 . S
H905 C911 0.928 1_565 S
C906 H892 0.930 . S
C906 C904 1.395 1_545 S
C906 C909 1.403 . S
C907 C904 1.403 . S
C907 C908 1.524 . S
C907 C911 1.395 1_565 S
C908 H893 0.960 . S
C908 H894 0.960 . S
C908 H895 0.960 . S
C908 C907 1.524 . S
C909 C906 1.403 . S
C909 C910 1.392 . S
C909 C913 1.495 . S
C910 C909 1.392 . S
C910 C911 1.390 . S
C910 C912 1.478 . S
C911 H905 0.928 1_545 S
C911 C907 1.395 1_545 S
C911 C910 1.390 . S
C912 C910 1.478 . S
C912 C914 1.381 . S
C912 C918 1.383 . S
C913 C909 1.495 . S
C913 H919 0.959 . S
C913 H920 0.961 . S
C913 H921 0.960 . S
C914 C912 1.381 . S
C914 C915 1.394 . S
C914 H922 0.930 . S
C915 C914 1.394 . S
C915 C916 1.383 . S
C915 H923 0.929 . S
C916 C915 1.383 . S
C916 C917 1.377 . S
C917 H901 0.930 . S
C917 C916 1.377 . S
C917 C918 1.379 . S
C918 H902 0.931 . S
C918 C912 1.383 . S
C918 C917 1.379 . S
H919 C913 0.959 . S
H920 C913 0.961 . S
H921 C913 0.960 . S
H922 C914 0.930 . S
H923 C915 0.929 . S
H924 C932 0.929 . S
H925 C934 0.930 . S
H926 C936 0.930 . S
H927 C939 0.929 . S
H928 C942 0.930 . S
H929 C944 0.960 . S
H930 C944 0.960 . S
H931 C944 0.960 . S
C932 H924 0.929 . S
C932 C933 1.377 . S
C932 C934 1.384 . S
C933 C932 1.377 . S
C933 C939 1.390 . S
C934 H925 0.930 . S
C934 C932 1.384 . S
C934 C935 1.372 . S
C935 C934 1.372 . S
C935 C936 1.400 . S
C935 C940 1.490 . S
C936 H926 0.930 . S
C936 C935 1.400 . S
C936 C939 1.386 . S
H937 C953 0.930 . S
H938 C954 0.931 . S
C939 H927 0.929 . S
C939 C933 1.390 . S
C939 C936 1.386 . S
C940 C935 1.490 . S
C940 C942 1.395 1_655 S
C940 C943 1.403 . S
H941 C947 0.928 1_655 S
C942 H928 0.930 . S
C942 C940 1.395 1_455 S
C942 C945 1.403 . S
C943 C940 1.403 . S
C943 C944 1.524 . S
C943 C947 1.395 1_655 S
C944 H929 0.960 . S
C944 H930 0.960 . S
C944 H931 0.960 . S
C944 C943 1.524 . S
C945 C942 1.403 . S
C945 C946 1.392 . S
C945 C949 1.495 . S
C946 C945 1.392 . S
C946 C947 1.390 . S
C946 C948 1.478 . S
C947 H941 0.928 1_455 S
C947 C943 1.395 1_455 S
C947 C946 1.390 . S
C948 C946 1.478 . S
C948 C950 1.381 . S
C948 C954 1.383 . S
C949 C945 1.495 . S
C949 H955 0.959 . S
C949 H956 0.961 . S
C949 H957 0.960 . S
C950 C948 1.381 . S
C950 C951 1.394 . S
C950 H958 0.930 . S
C951 C950 1.394 . S
C951 C952 1.383 . S
C951 H959 0.929 . S
C952 C951 1.383 . S
C952 C953 1.377 . S
C953 H937 0.930 . S
C953 C952 1.377 . S
C953 C954 1.379 . S
C954 H938 0.931 . S
C954 C948 1.383 . S
C954 C953 1.379 . S
H955 C949 0.959 . S
H956 C949 0.961 . S
H957 C949 0.960 . S
H958 C950 0.930 . S
H959 C951 0.929 . S
H960 C968 0.929 . S
H961 C970 0.930 . S
H962 C972 0.930 . S
H963 C975 0.929 . S
H964 C978 0.933 . S
H965 C980 0.960 . S
H966 C980 0.960 . S
H967 C980 0.960 . S
C968 H960 0.929 . S
C968 C969 1.377 . S
C968 C970 1.384 . S
C969 C968 1.377 . S
C969 C975 1.390 . S
C970 H961 0.930 . S
C970 C968 1.384 . S
C970 C971 1.372 . S
C971 C970 1.372 . S
C971 C972 1.400 . S
C971 C976 1.490 . S
C972 H962 0.930 . S
C972 C971 1.400 . S
C972 C975 1.386 . S
H973 C989 0.930 . S
H974 C990 0.931 . S
C975 H963 0.929 . S
C975 C969 1.390 . S
C975 C972 1.386 . S
C976 C971 1.490 . S
C976 C978 1.395 1_565 S
C976 C979 1.403 . S
H977 C983 0.930 . S
C978 H964 0.933 . S
C978 C976 1.395 1_545 S
C978 C981 1.403 . S
C979 C976 1.403 . S
C979 C980 1.524 . S
C979 C983 1.400 1_565 S
C980 H965 0.960 . S
C980 H966 0.960 . S
C980 H967 0.960 . S
C980 C979 1.524 . S
C981 C978 1.403 . S
C981 C982 1.392 . S
C981 C985 1.495 . S
C982 C981 1.392 . S
C982 C983 1.385 . S
C982 C984 1.478 . S
C983 H977 0.930 . S
C983 C979 1.400 1_545 S
C983 C982 1.385 . S
C984 C982 1.478 . S
C984 C986 1.381 . S
C984 C990 1.383 . S
C985 C981 1.495 . S
C985 H991 0.959 . S
C985 H992 0.961 . S
C985 H993 0.960 . S
C986 C984 1.381 . S
C986 C987 1.394 . S
C986 H994 0.930 . S
C987 C986 1.394 . S
C987 C988 1.383 . S
C987 H995 0.929 . S
C988 C987 1.383 . S
C988 C989 1.377 . S
C989 H973 0.930 . S
C989 C988 1.377 . S
C989 C990 1.379 . S
C990 H974 0.931 . S
C990 C984 1.383 . S
C990 C989 1.379 . S
H991 C985 0.959 . S
H992 C985 0.961 . S
H993 C985 0.960 . S
H994 C986 0.930 . S
H995 C987 0.929 . S
H996 C1004 0.929 . S
H997 C1006 0.930 . S
H998 C1008 0.930 . S
H999 C1011 0.929 . S
H1000 C1014 0.930 . S
H1001 C1016 0.960 . S
H1002 C1016 0.960 . S
H1003 C1016 0.953 1_455 S
C1004 H996 0.929 . S
C1004 C1005 1.377 . S
C1004 C1006 1.384 . S
C1005 C1004 1.377 . S
C1005 C1011 1.390 . S
C1006 H997 0.930 . S
C1006 C1004 1.384 . S
C1006 C1007 1.372 . S
C1007 C1006 1.372 . S
C1007 C1008 1.400 . S
C1007 C1012 1.490 . S
C1008 H998 0.930 . S
C1008 C1007 1.400 . S
C1008 C1011 1.386 . S
H1009 C1025 0.930 . S
H1010 C1026 0.931 . S
C1011 H999 0.929 . S
C1011 C1005 1.390 . S
C1011 C1008 1.386 . S
C1012 C1007 1.490 . S
C1012 C1014 1.395 . S
C1012 C1015 1.403 1_455 S
H1013 C1019 0.930 . S
C1014 H1000 0.930 . S
C1014 C1012 1.395 . S
C1014 C1017 1.403 . S
C1015 C1012 1.403 1_655 S
C1015 C1016 1.524 . S
C1015 C1019 1.400 . S
C1016 H1001 0.960 . S
C1016 H1002 0.960 . S
C1016 H1003 0.953 1_655 S
C1016 C1015 1.524 . S
C1017 C1014 1.403 . S
C1017 C1018 1.392 1_455 S
C1017 C1021 1.495 . S
C1018 C1017 1.392 1_655 S
C1018 C1019 1.385 . S
C1018 C1020 1.478 . S
C1019 H1013 0.930 . S
C1019 C1015 1.400 . S
C1019 C1018 1.385 . S
C1020 C1018 1.478 . S
C1020 C1022 1.381 . S
C1020 C1026 1.383 . S
C1021 C1017 1.495 . S
C1021 H1027 0.959 . S
C1021 H1028 0.961 . S
C1021 H1029 0.960 . S
C1022 C1020 1.381 . S
C1022 C1023 1.394 . S
C1022 H1030 0.930 . S
C1023 C1022 1.394 . S
C1023 C1024 1.383 . S
C1023 H1031 0.929 . S
C1024 C1023 1.383 . S
C1024 C1025 1.377 . S
C1025 H1009 0.930 . S
C1025 C1024 1.377 . S
C1025 C1026 1.379 . S
C1026 H1010 0.931 . S
C1026 C1020 1.383 . S
C1026 C1025 1.379 . S
H1027 C1021 0.959 . S
H1028 C1021 0.961 . S
H1029 C1021 0.960 . S
H1030 C1022 0.930 . S
H1031 C1023 0.929 . S
H1032 C1040 0.929 . S
H1033 C1042 0.930 . S
H1034 C1044 0.930 . S
H1035 C1047 0.929 . S
H1036 C1050 0.930 . S
H1037 C1052 0.960 . S
H1038 C1052 0.934 1_556 S
H1039 C1052 0.960 . S
C1040 H1032 0.929 . S
C1040 C1041 1.377 . S
C1040 C1042 1.384 . S
C1041 C1040 1.377 . S
C1041 C1047 1.390 . S
C1042 H1033 0.930 . S
C1042 C1040 1.384 . S
C1042 C1043 1.372 . S
C1043 C1042 1.372 . S
C1043 C1044 1.400 . S
C1043 C1048 1.490 . S
C1044 H1034 0.930 . S
C1044 C1043 1.400 . S
C1044 C1047 1.386 . S
H1045 C1061 0.930 . S
H1046 C1062 0.931 . S
C1047 H1035 0.929 . S
C1047 C1041 1.390 . S
C1047 C1044 1.386 . S
C1048 C1043 1.490 . S
C1048 C1050 1.395 . S
C1048 C1051 1.403 1_556 S
H1049 C1055 0.930 . S
C1050 H1036 0.930 . S
C1050 C1048 1.395 . S
C1050 C1053 1.403 . S
C1051 C1048 1.403 1_554 S
C1051 C1052 1.524 . S
C1051 C1055 1.400 . S
C1052 H1037 0.960 . S
C1052 H1038 0.934 1_554 S
C1052 H1039 0.960 . S
C1052 C1051 1.524 . S
C1053 C1050 1.403 . S
C1053 C1054 1.392 1_556 S
C1053 C1057 1.495 . S
C1054 C1053 1.392 1_554 S
C1054 C1055 1.385 . S
C1054 C1056 1.478 . S
C1055 H1049 0.930 . S
C1055 C1051 1.400 . S
C1055 C1054 1.385 . S
C1056 C1054 1.478 . S
C1056 C1058 1.381 . S
C1056 C1062 1.383 . S
C1057 C1053 1.495 . S
C1057 H1063 0.959 . S
C1057 H1064 0.961 . S
C1057 H1065 0.960 . S
C1058 C1056 1.381 . S
C1058 C1059 1.394 . S
C1058 H1066 0.930 . S
C1059 C1058 1.394 . S
C1059 C1060 1.383 . S
C1059 H1067 0.929 . S
C1060 C1059 1.383 . S
C1060 C1061 1.377 . S
C1061 H1045 0.930 . S
C1061 C1060 1.377 . S
C1061 C1062 1.379 . S
C1062 H1046 0.931 . S
C1062 C1056 1.383 . S
C1062 C1061 1.379 . S
H1063 C1057 0.959 . S
H1064 C1057 0.961 . S
H1065 C1057 0.960 . S
H1066 C1058 0.930 . S
H1067 C1059 0.929 . S
H1068 C1076 0.929 . S
H1069 C1078 0.930 . S
H1070 C1080 0.930 . S
H1071 C1083 0.929 . S
H1072 C1086 0.930 . S
H1073 C1088 0.960 1_556 S
H1074 C1088 0.960 . S
H1075 C1088 0.960 . S
C1076 H1068 0.929 . S
C1076 C1077 1.377 . S
C1076 C1078 1.384 . S
C1077 C1076 1.377 . S
C1077 C1083 1.390 . S
C1078 H1069 0.930 . S
C1078 C1076 1.384 . S
C1078 C1079 1.372 . S
C1079 C1078 1.372 . S
C1079 C1080 1.400 . S
C1079 C1084 1.490 . S
C1080 H1070 0.930 . S
C1080 C1079 1.400 . S
C1080 C1083 1.386 . S
H1081 C1097 0.930 . S
H1082 C1098 0.931 . S
C1083 H1071 0.929 . S
C1083 C1077 1.390 . S
C1083 C1080 1.386 . S
C1084 C1079 1.490 . S
C1084 C1086 1.395 . S
C1084 C1087 1.403 . S
H1085 C1091 0.930 . S
C1086 H1072 0.930 . S
C1086 C1084 1.395 . S
C1086 C1089 1.403 1_554 S
C1087 C1084 1.403 . S
C1087 C1088 1.524 . S
C1087 C1091 1.400 1_554 S
C1088 H1073 0.960 1_554 S
C1088 H1074 0.960 . S
C1088 H1075 0.960 . S
C1088 C1087 1.524 . S
C1089 C1086 1.403 1_556 S
C1089 C1090 1.392 . S
C1089 C1093 1.495 . S
C1090 C1089 1.392 . S
C1090 C1091 1.385 . S
C1090 C1092 1.478 . S
C1091 H1085 0.930 . S
C1091 C1087 1.400 1_556 S
C1091 C1090 1.385 . S
C1092 C1090 1.478 . S
C1092 C1094 1.381 . S
C1092 C1098 1.383 . S
C1093 C1089 1.495 . S
C1093 H1099 0.959 1_556 S
C1093 H1100 0.961 . S
C1093 H1101 0.960 . S
C1094 C1092 1.381 . S
C1094 C1095 1.394 . S
C1094 H1102 0.930 . S
C1095 C1094 1.394 . S
C1095 C1096 1.383 . S
C1095 H1103 0.929 . S
C1096 C1095 1.383 . S
C1096 C1097 1.377 . S
C1097 H1081 0.930 . S
C1097 C1096 1.377 . S
C1097 C1098 1.379 . S
C1098 H1082 0.931 . S
C1098 C1092 1.383 . S
C1098 C1097 1.379 . S
H1099 C1093 0.959 1_554 S
H1100 C1093 0.961 . S
H1101 C1093 0.960 . S
H1102 C1094 0.930 . S
H1103 C1095 0.929 . S
H1104 C1112 0.929 . S
H1105 C1114 0.930 . S
H1106 C1116 0.930 . S
H1107 C1119 0.929 . S
H1108 C1122 0.930 . S
H1109 C1124 0.960 . S
H1110 C1124 0.960 . S
H1111 C1124 0.960 . S
C1112 H1104 0.929 . S
C1112 C1113 1.377 . S
C1112 C1114 1.384 . S
C1113 C1112 1.377 . S
C1113 C1119 1.390 . S
C1114 H1105 0.930 . S
C1114 C1112 1.384 . S
C1114 C1115 1.372 . S
C1115 C1114 1.372 . S
C1115 C1116 1.400 . S
C1115 C1120 1.490 . S
C1116 H1106 0.930 . S
C1116 C1115 1.400 . S
C1116 C1119 1.386 . S
H1117 C1133 0.930 . S
H1118 C1134 0.931 . S
C1119 H1107 0.929 . S
C1119 C1113 1.390 . S
C1119 C1116 1.386 . S
C1120 C1115 1.490 . S
C1120 C1122 1.395 1_556 S
C1120 C1123 1.403 . S
H1121 C1127 0.930 . S
C1122 H1108 0.930 . S
C1122 C1120 1.395 1_554 S
C1122 C1125 1.403 . S
C1123 C1120 1.403 . S
C1123 C1124 1.524 . S
C1123 C1127 1.400 1_556 S
C1124 H1109 0.960 . S
C1124 H1110 0.960 . S
C1124 H1111 0.960 . S
C1124 C1123 1.524 . S
C1125 C1122 1.403 . S
C1125 C1126 1.392 . S
C1125 C1129 1.495 . S
C1126 C1125 1.392 . S
C1126 C1127 1.385 . S
C1126 C1128 1.478 . S
C1127 H1121 0.930 . S
C1127 C1123 1.400 1_554 S
C1127 C1126 1.385 . S
C1128 C1126 1.478 . S
C1128 C1130 1.381 . S
C1128 C1134 1.383 . S
C1129 C1125 1.495 . S
C1129 H1135 0.959 . S
C1129 H1136 0.961 . S
C1129 H1137 0.960 . S
C1130 C1128 1.381 . S
C1130 C1131 1.394 . S
C1130 H1138 0.930 . S
C1131 C1130 1.394 . S
C1131 C1132 1.383 . S
C1131 H1139 0.929 . S
C1132 C1131 1.383 . S
C1132 C1133 1.377 . S
C1133 H1117 0.930 . S
C1133 C1132 1.377 . S
C1133 C1134 1.379 . S
C1134 H1118 0.931 . S
C1134 C1128 1.383 . S
C1134 C1133 1.379 . S
H1135 C1129 0.959 . S
H1136 C1129 0.961 . S
H1137 C1129 0.960 . S
H1138 C1130 0.930 . S
H1139 C1131 0.929 . S
H1140 C1148 0.929 . S
H1141 C1150 0.930 . S
H1142 C1152 0.930 . S
H1143 C1155 0.929 . S
H1144 C1158 0.930 . S
H1145 C1160 0.960 . S
H1146 C1160 0.960 . S
H1147 C1160 0.960 . S
C1148 H1140 0.929 . S
C1148 C1149 1.377 . S
C1148 C1150 1.384 . S
C1149 C1148 1.377 . S
C1149 C1155 1.390 . S
C1150 H1141 0.930 . S
C1150 C1148 1.384 . S
C1150 C1151 1.372 . S
C1151 C1150 1.372 . S
C1151 C1152 1.400 . S
C1151 C1156 1.490 . S
C1152 H1142 0.930 . S
C1152 C1151 1.400 . S
C1152 C1155 1.386 . S
H1153 C1169 0.930 . S
H1154 C1170 0.931 . S
C1155 H1143 0.929 . S
C1155 C1149 1.390 . S
C1155 C1152 1.386 . S
C1156 C1151 1.490 . S
C1156 C1158 1.395 . S
C1156 C1159 1.403 . S
H1157 C1163 0.930 . S
C1158 H1144 0.930 . S
C1158 C1156 1.395 . S
C1158 C1161 1.403 1_554 S
C1159 C1156 1.403 . S
C1159 C1160 1.524 . S
C1159 C1163 1.400 1_554 S
C1160 H1145 0.960 . S
C1160 H1146 0.960 . S
C1160 H1147 0.960 . S
C1160 C1159 1.524 . S
C1161 C1158 1.403 1_556 S
C1161 C1162 1.392 . S
C1161 C1165 1.495 . S
C1162 C1161 1.392 . S
C1162 C1163 1.385 . S
C1162 C1164 1.478 . S
C1163 H1157 0.930 . S
C1163 C1159 1.400 1_556 S
C1163 C1162 1.385 . S
C1164 C1162 1.478 . S
C1164 C1166 1.381 . S
C1164 C1170 1.383 . S
C1165 C1161 1.495 . S
C1165 H1171 0.959 . S
C1165 H1172 0.961 . S
C1165 H1173 0.960 . S
C1166 C1164 1.381 . S
C1166 C1167 1.394 . S
C1166 H1174 0.930 . S
C1167 C1166 1.394 . S
C1167 C1168 1.383 . S
C1167 H1175 0.929 . S
C1168 C1167 1.383 . S
C1168 C1169 1.377 . S
C1169 H1153 0.930 . S
C1169 C1168 1.377 . S
C1169 C1170 1.379 . S
C1170 H1154 0.931 . S
C1170 C1164 1.383 . S
C1170 C1169 1.379 . S
H1171 C1165 0.959 . S
H1172 C1165 0.961 . S
H1173 C1165 0.960 . S
H1174 C1166 0.930 . S
H1175 C1167 0.929 . S
H1176 C1184 0.929 . S
H1177 C1186 0.930 . S
H1178 C1188 0.930 . S
H1179 C1191 0.929 . S
H1180 C1194 0.930 . S
H1181 C1196 0.960 . S
H1182 C1196 0.960 . S
H1183 C1196 0.960 . S
C1184 H1176 0.929 . S
C1184 C1185 1.377 . S
C1184 C1186 1.384 . S
C1185 C1184 1.377 . S
C1185 C1191 1.390 . S
C1186 H1177 0.930 . S
C1186 C1184 1.384 . S
C1186 C1187 1.372 . S
C1187 C1186 1.372 . S
C1187 C1188 1.400 . S
C1187 C1192 1.490 . S
C1188 H1178 0.930 . S
C1188 C1187 1.400 . S
C1188 C1191 1.386 . S
H1189 C1205 0.930 . S
H1190 C1206 0.931 . S
C1191 H1179 0.929 . S
C1191 C1185 1.390 . S
C1191 C1188 1.386 . S
C1192 C1187 1.490 . S
C1192 C1194 1.395 . S
C1192 C1195 1.403 . S
H1193 C1199 0.930 . S
C1194 H1180 0.930 . S
C1194 C1192 1.395 . S
C1194 C1197 1.403 . S
C1195 C1192 1.403 . S
C1195 C1196 1.524 . S
C1195 C1199 1.400 . S
C1196 H1181 0.960 . S
C1196 H1182 0.960 . S
C1196 H1183 0.960 . S
C1196 C1195 1.524 . S
C1197 C1194 1.403 . S
C1197 C1198 1.392 . S
C1197 C1201 1.495 . S
C1198 C1197 1.392 . S
C1198 C1199 1.385 . S
C1198 C1200 1.478 . S
C1199 H1193 0.930 . S
C1199 C1195 1.400 . S
C1199 C1198 1.385 . S
C1200 C1198 1.478 . S
C1200 C1202 1.381 . S
C1200 C1206 1.383 . S
C1201 C1197 1.495 . S
C1201 H1207 0.959 . S
C1201 H1208 0.961 . S
C1201 H1209 0.960 . S
C1202 C1200 1.381 . S
C1202 C1203 1.394 . S
C1202 H1210 0.930 . S
C1203 C1202 1.394 . S
C1203 C1204 1.383 . S
C1203 H1211 0.929 . S
C1204 C1203 1.383 . S
C1204 C1205 1.377 . S
C1205 H1189 0.930 . S
C1205 C1204 1.377 . S
C1205 C1206 1.379 . S
C1206 H1190 0.931 . S
C1206 C1200 1.383 . S
C1206 C1205 1.379 . S
H1207 C1201 0.959 . S
H1208 C1201 0.961 . S
H1209 C1201 0.960 . S
H1210 C1202 0.930 . S
H1211 C1203 0.929 . S
H1212 C1220 0.929 . S
H1213 C1222 0.930 . S
H1214 C1224 0.930 . S
H1215 C1227 0.929 . S
H1216 C1230 0.930 . S
H1217 C1232 0.960 . S
H1218 C1232 0.960 . S
H1219 C1232 0.960 . S
C1220 H1212 0.929 . S
C1220 C1221 1.377 . S
C1220 C1222 1.384 . S
C1221 C1220 1.377 . S
C1221 C1227 1.390 . S
C1222 H1213 0.930 . S
C1222 C1220 1.384 . S
C1222 C1223 1.372 . S
C1223 C1222 1.372 . S
C1223 C1224 1.400 . S
C1223 C1228 1.490 . S
C1224 H1214 0.930 . S
C1224 C1223 1.400 . S
C1224 C1227 1.386 . S
H1225 C1241 0.930 . S
H1226 C1242 0.931 . S
C1227 H1215 0.929 . S
C1227 C1221 1.390 . S
C1227 C1224 1.386 . S
C1228 C1223 1.490 . S
C1228 C1230 1.395 . S
C1228 C1231 1.403 . S
H1229 C1235 0.930 . S
C1230 H1216 0.930 . S
C1230 C1228 1.395 . S
C1230 C1233 1.403 . S
C1231 C1228 1.403 . S
C1231 C1232 1.524 . S
C1231 C1235 1.400 . S
C1232 H1217 0.960 . S
C1232 H1218 0.960 . S
C1232 H1219 0.960 . S
C1232 C1231 1.524 . S
C1233 C1230 1.403 . S
C1233 C1234 1.392 . S
C1233 C1237 1.495 . S
C1234 C1233 1.392 . S
C1234 C1235 1.385 . S
C1234 C1236 1.478 . S
C1235 H1229 0.930 . S
C1235 C1231 1.400 . S
C1235 C1234 1.385 . S
C1236 C1234 1.478 . S
C1236 C1238 1.381 . S
C1236 C1242 1.383 . S
C1237 C1233 1.495 . S
C1237 H1243 0.959 . S
C1237 H1244 0.961 . S
C1237 H1245 0.960 . S
C1238 C1236 1.381 . S
C1238 C1239 1.394 . S
C1238 H1246 0.930 . S
C1239 C1238 1.394 . S
C1239 C1240 1.383 . S
C1239 H1247 0.929 . S
C1240 C1239 1.383 . S
C1240 C1241 1.377 . S
C1241 H1225 0.930 . S
C1241 C1240 1.377 . S
C1241 C1242 1.379 . S
C1242 H1226 0.931 . S
C1242 C1236 1.383 . S
C1242 C1241 1.379 . S
H1243 C1237 0.959 . S
H1244 C1237 0.961 . S
H1245 C1237 0.960 . S
H1246 C1238 0.930 . S
H1247 C1239 0.929 . S
H1248 C1256 0.929 . S
H1249 C1258 0.930 . S
H1250 C1260 0.930 . S
H1251 C1263 0.929 . S
H1252 C1266 0.930 . S
H1253 C1268 0.960 . S
H1254 C1268 0.960 . S
H1255 C1268 0.960 . S
C1256 H1248 0.929 . S
C1256 C1257 1.377 . S
C1256 C1258 1.384 . S
C1257 C1256 1.377 . S
C1257 C1263 1.390 . S
C1258 H1249 0.930 . S
C1258 C1256 1.384 . S
C1258 C1259 1.372 . S
C1259 C1258 1.372 . S
C1259 C1260 1.400 . S
C1259 C1264 1.490 . S
C1260 H1250 0.930 . S
C1260 C1259 1.400 . S
C1260 C1263 1.386 . S
H1261 C1277 0.930 . S
H1262 C1278 0.931 . S
C1263 H1251 0.929 . S
C1263 C1257 1.390 . S
C1263 C1260 1.386 . S
C1264 C1259 1.490 . S
C1264 C1266 1.395 . S
C1264 C1267 1.403 . S
H1265 C1271 0.930 . S
C1266 H1252 0.930 . S
C1266 C1264 1.395 . S
C1266 C1269 1.403 . S
C1267 C1264 1.403 . S
C1267 C1268 1.524 . S
C1267 C1271 1.400 . S
C1268 H1253 0.960 . S
C1268 H1254 0.960 . S
C1268 H1255 0.960 . S
C1268 C1267 1.524 . S
C1269 C1266 1.403 . S
C1269 C1270 1.392 . S
C1269 C1273 1.495 . S
C1270 C1269 1.392 . S
C1270 C1271 1.385 . S
C1270 C1272 1.478 . S
C1271 H1265 0.930 . S
C1271 C1267 1.400 . S
C1271 C1270 1.385 . S
C1272 C1270 1.478 . S
C1272 C1274 1.381 . S
C1272 C1278 1.383 . S
C1273 C1269 1.495 . S
C1273 H1279 0.959 . S
C1273 H1280 0.961 . S
C1273 H1281 0.960 . S
C1274 C1272 1.381 . S
C1274 C1275 1.394 . S
C1274 H1282 0.930 . S
C1275 C1274 1.394 . S
C1275 C1276 1.383 . S
C1275 H1283 0.929 . S
C1276 C1275 1.383 . S
C1276 C1277 1.377 . S
C1277 H1261 0.930 . S
C1277 C1276 1.377 . S
C1277 C1278 1.379 . S
C1278 H1262 0.931 . S
C1278 C1272 1.383 . S
C1278 C1277 1.379 . S
H1279 C1273 0.959 . S
H1280 C1273 0.961 . S
H1281 C1273 0.960 . S
H1282 C1274 0.930 . S
H1283 C1275 0.929 . S
H1284 C1292 0.929 . S
H1285 C1294 0.930 . S
H1286 C1296 0.930 . S
H1287 C1299 0.929 . S
H1288 C1302 0.930 . S
H1289 C1304 0.960 . S
H1290 C1304 0.960 . S
H1291 C1304 0.960 . S
C1292 H1284 0.929 . S
C1292 C1293 1.377 . S
C1292 C1294 1.384 . S
C1293 C1292 1.377 . S
C1293 C1299 1.390 . S
C1294 H1285 0.930 . S
C1294 C1292 1.384 . S
C1294 C1295 1.372 . S
C1295 C1294 1.372 . S
C1295 C1296 1.400 . S
C1295 C1300 1.490 . S
C1296 H1286 0.930 . S
C1296 C1295 1.400 . S
C1296 C1299 1.386 . S
H1297 C1313 0.930 . S
H1298 C1314 0.931 . S
C1299 H1287 0.929 . S
C1299 C1293 1.390 . S
C1299 C1296 1.386 . S
C1300 C1295 1.490 . S
C1300 C1302 1.395 . S
C1300 C1303 1.403 . S
H1301 C1307 0.930 . S
C1302 H1288 0.930 . S
C1302 C1300 1.395 . S
C1302 C1305 1.403 . S
C1303 C1300 1.403 . S
C1303 C1304 1.524 . S
C1303 C1307 1.400 . S
C1304 H1289 0.960 . S
C1304 H1290 0.960 . S
C1304 H1291 0.960 . S
C1304 C1303 1.524 . S
C1305 C1302 1.403 . S
C1305 C1306 1.392 . S
C1305 C1309 1.495 . S
C1306 C1305 1.392 . S
C1306 C1307 1.385 . S
C1306 C1308 1.478 . S
C1307 H1301 0.930 . S
C1307 C1303 1.400 . S
C1307 C1306 1.385 . S
C1308 C1306 1.478 . S
C1308 C1310 1.381 . S
C1308 C1314 1.383 . S
C1309 C1305 1.495 . S
C1309 H1315 0.959 . S
C1309 H1316 0.961 . S
C1309 H1317 0.960 . S
C1310 C1308 1.381 . S
C1310 C1311 1.394 . S
C1310 H1318 0.930 . S
C1311 C1310 1.394 . S
C1311 C1312 1.383 . S
C1311 H1319 0.929 . S
C1312 C1311 1.383 . S
C1312 C1313 1.377 . S
C1313 H1297 0.930 . S
C1313 C1312 1.377 . S
C1313 C1314 1.379 . S
C1314 H1298 0.931 . S
C1314 C1308 1.383 . S
C1314 C1313 1.379 . S
H1315 C1309 0.959 . S
H1316 C1309 0.961 . S
H1317 C1309 0.960 . S
H1318 C1310 0.930 . S
H1319 C1311 0.929 . S
H1320 C1328 0.929 . S
H1321 C1330 0.930 . S
H1322 C1332 0.930 . S
H1323 C1335 0.929 . S
H1324 C1338 0.930 . S
H1325 C1340 0.960 . S
H1326 C1340 0.960 . S
H1327 C1340 0.960 . S
C1328 H1320 0.929 . S
C1328 C1329 1.377 . S
C1328 C1330 1.384 . S
C1329 C1328 1.377 . S
C1329 C1335 1.390 . S
C1330 H1321 0.930 . S
C1330 C1328 1.384 . S
C1330 C1331 1.372 . S
C1331 C1330 1.372 . S
C1331 C1332 1.400 . S
C1331 C1336 1.490 . S
C1332 H1322 0.930 . S
C1332 C1331 1.400 . S
C1332 C1335 1.386 . S
H1333 C1349 0.930 . S
H1334 C1350 0.931 . S
C1335 H1323 0.929 . S
C1335 C1329 1.390 . S
C1335 C1332 1.386 . S
C1336 C1331 1.490 . S
C1336 C1338 1.395 . S
C1336 C1339 1.403 . S
H1337 C1343 0.930 . S
C1338 H1324 0.930 . S
C1338 C1336 1.395 . S
C1338 C1341 1.403 . S
C1339 C1336 1.403 . S
C1339 C1340 1.524 . S
C1339 C1343 1.400 . S
C1340 H1325 0.960 . S
C1340 H1326 0.960 . S
C1340 H1327 0.960 . S
C1340 C1339 1.524 . S
C1341 C1338 1.403 . S
C1341 C1342 1.392 . S
C1341 C1345 1.495 . S
C1342 C1341 1.392 . S
C1342 C1343 1.385 . S
C1342 C1344 1.478 . S
C1343 H1337 0.930 . S
C1343 C1339 1.400 . S
C1343 C1342 1.385 . S
C1344 C1342 1.478 . S
C1344 C1346 1.381 . S
C1344 C1350 1.383 . S
C1345 C1341 1.495 . S
C1345 H1351 0.959 . S
C1345 H1352 0.961 . S
C1345 H1353 0.960 . S
C1346 C1344 1.381 . S
C1346 C1347 1.394 . S
C1346 H1354 0.930 . S
C1347 C1346 1.394 . S
C1347 C1348 1.383 . S
C1347 H1355 0.929 . S
C1348 C1347 1.383 . S
C1348 C1349 1.377 . S
C1349 H1333 0.930 . S
C1349 C1348 1.377 . S
C1349 C1350 1.379 . S
C1350 H1334 0.931 . S
C1350 C1344 1.383 . S
C1350 C1349 1.379 . S
H1351 C1345 0.959 . S
H1352 C1345 0.961 . S
H1353 C1345 0.960 . S
H1354 C1346 0.930 . S
H1355 C1347 0.929 . S
H1356 C1364 0.929 . S
H1357 C1366 0.930 . S
H1358 C1368 0.930 . S
H1359 C1371 0.929 . S
H1360 C1374 0.930 . S
H1361 C1376 0.960 . S
H1362 C1376 0.960 . S
H1363 C1376 0.960 . S
C1364 H1356 0.929 . S
C1364 C1365 1.377 . S
C1364 C1366 1.384 . S
C1365 C1364 1.377 . S
C1365 C1371 1.390 . S
C1366 H1357 0.930 . S
C1366 C1364 1.384 . S
C1366 C1367 1.372 . S
C1367 C1366 1.372 . S
C1367 C1368 1.400 . S
C1367 C1372 1.490 . S
C1368 H1358 0.930 . S
C1368 C1367 1.400 . S
C1368 C1371 1.386 . S
H1369 C1385 0.930 . S
H1370 C1386 0.931 . S
C1371 H1359 0.929 . S
C1371 C1365 1.390 . S
C1371 C1368 1.386 . S
C1372 C1367 1.490 . S
C1372 C1374 1.395 . S
C1372 C1375 1.403 . S
H1373 C1379 0.930 . S
C1374 H1360 0.930 . S
C1374 C1372 1.395 . S
C1374 C1377 1.403 . S
C1375 C1372 1.403 . S
C1375 C1376 1.524 . S
C1375 C1379 1.400 . S
C1376 H1361 0.960 . S
C1376 H1362 0.960 . S
C1376 H1363 0.960 . S
C1376 C1375 1.524 . S
C1377 C1374 1.403 . S
C1377 C1378 1.392 . S
C1377 C1381 1.495 . S
C1378 C1377 1.392 . S
C1378 C1379 1.385 . S
C1378 C1380 1.478 . S
C1379 H1373 0.930 . S
C1379 C1375 1.400 . S
C1379 C1378 1.385 . S
C1380 C1378 1.478 . S
C1380 C1382 1.381 . S
C1380 C1386 1.383 . S
C1381 C1377 1.495 . S
C1381 H1387 0.959 . S
C1381 H1388 0.961 . S
C1381 H1389 0.960 . S
C1382 C1380 1.381 . S
C1382 C1383 1.394 . S
C1382 H1390 0.930 . S
C1383 C1382 1.394 . S
C1383 C1384 1.383 . S
C1383 H1391 0.929 . S
C1384 C1383 1.383 . S
C1384 C1385 1.377 . S
C1385 H1369 0.930 . S
C1385 C1384 1.377 . S
C1385 C1386 1.379 . S
C1386 H1370 0.931 . S
C1386 C1380 1.383 . S
C1386 C1385 1.379 . S
H1387 C1381 0.959 . S
H1388 C1381 0.961 . S
H1389 C1381 0.960 . S
H1390 C1382 0.930 . S
H1391 C1383 0.929 . S
H1392 C1400 0.929 . S
H1393 C1402 0.930 . S
H1394 C1404 0.930 . S
H1395 C1407 0.929 . S
H1396 C1410 0.930 . S
H1397 C1412 0.960 . S
H1398 C1412 0.960 . S
H1399 C1412 0.960 . S
C1400 H1392 0.929 . S
C1400 C1401 1.377 . S
C1400 C1402 1.384 . S
C1401 C1400 1.377 . S
C1401 C1407 1.390 . S
C1402 H1393 0.930 . S
C1402 C1400 1.384 . S
C1402 C1403 1.372 . S
C1403 C1402 1.372 . S
C1403 C1404 1.400 . S
C1403 C1408 1.490 . S
C1404 H1394 0.930 . S
C1404 C1403 1.400 . S
C1404 C1407 1.386 . S
H1405 C1421 0.930 . S
H1406 C1422 0.931 . S
C1407 H1395 0.929 . S
C1407 C1401 1.390 . S
C1407 C1404 1.386 . S
C1408 C1403 1.490 . S
C1408 C1410 1.395 . S
C1408 C1411 1.403 . S
H1409 C1415 0.930 . S
C1410 H1396 0.930 . S
C1410 C1408 1.395 . S
C1410 C1413 1.403 . S
C1411 C1408 1.403 . S
C1411 C1412 1.524 . S
C1411 C1415 1.400 . S
C1412 H1397 0.960 . S
C1412 H1398 0.960 . S
C1412 H1399 0.960 . S
C1412 C1411 1.524 . S
C1413 C1410 1.403 . S
C1413 C1414 1.392 . S
C1413 C1417 1.495 . S
C1414 C1413 1.392 . S
C1414 C1415 1.385 . S
C1414 C1416 1.478 . S
C1415 H1409 0.930 . S
C1415 C1411 1.400 . S
C1415 C1414 1.385 . S
C1416 C1414 1.478 . S
C1416 C1418 1.381 . S
C1416 C1422 1.383 . S
C1417 C1413 1.495 . S
C1417 H1423 0.959 . S
C1417 H1424 0.961 . S
C1417 H1425 0.960 . S
C1418 C1416 1.381 . S
C1418 C1419 1.394 . S
C1418 H1426 0.930 . S
C1419 C1418 1.394 . S
C1419 C1420 1.383 . S
C1419 H1427 0.929 . S
C1420 C1419 1.383 . S
C1420 C1421 1.377 . S
C1421 H1405 0.930 . S
C1421 C1420 1.377 . S
C1421 C1422 1.379 . S
C1422 H1406 0.931 . S
C1422 C1416 1.383 . S
C1422 C1421 1.379 . S
H1423 C1417 0.959 . S
H1424 C1417 0.961 . S
H1425 C1417 0.960 . S
H1426 C1418 0.930 . S
H1427 C1419 0.929 . S
H1428 C1436 0.929 . S
H1429 C1438 0.930 . S
H1430 C1440 0.930 . S
H1431 C1443 0.929 . S
H1432 C1446 0.930 . S
H1433 C1448 0.960 . S
H1434 C1448 0.960 . S
H1435 C1448 0.960 . S
C1436 H1428 0.929 . S
C1436 C1437 1.377 . S
C1436 C1438 1.384 . S
C1437 C1436 1.377 . S
C1437 C1443 1.390 . S
C1438 H1429 0.930 . S
C1438 C1436 1.384 . S
C1438 C1439 1.372 . S
C1439 C1438 1.372 . S
C1439 C1440 1.400 . S
C1439 C1444 1.490 . S
C1440 H1430 0.930 . S
C1440 C1439 1.400 . S
C1440 C1443 1.386 . S
H1441 C1457 0.930 . S
H1442 C1458 0.931 . S
C1443 H1431 0.929 . S
C1443 C1437 1.390 . S
C1443 C1440 1.386 . S
C1444 C1439 1.490 . S
C1444 C1446 1.395 . S
C1444 C1447 1.403 . S
H1445 C1451 0.930 . S
C1446 H1432 0.930 . S
C1446 C1444 1.395 . S
C1446 C1449 1.403 . S
C1447 C1444 1.403 . S
C1447 C1448 1.524 . S
C1447 C1451 1.400 . S
C1448 H1433 0.960 . S
C1448 H1434 0.960 . S
C1448 H1435 0.960 . S
C1448 C1447 1.524 . S
C1449 C1446 1.403 . S
C1449 C1450 1.392 . S
C1449 C1453 1.495 . S
C1450 C1449 1.392 . S
C1450 C1451 1.385 . S
C1450 C1452 1.478 . S
C1451 H1445 0.930 . S
C1451 C1447 1.400 . S
C1451 C1450 1.385 . S
C1452 C1450 1.478 . S
C1452 C1454 1.381 . S
C1452 C1458 1.383 . S
C1453 C1449 1.495 . S
C1453 H1459 0.959 . S
C1453 H1460 0.961 . S
C1453 H1461 0.960 . S
C1454 C1452 1.381 . S
C1454 C1455 1.394 . S
C1454 H1462 0.930 . S
C1455 C1454 1.394 . S
C1455 C1456 1.383 . S
C1455 H1463 0.929 . S
C1456 C1455 1.383 . S
C1456 C1457 1.377 . S
C1457 H1441 0.930 . S
C1457 C1456 1.377 . S
C1457 C1458 1.379 . S
C1458 H1442 0.931 . S
C1458 C1452 1.383 . S
C1458 C1457 1.379 . S
H1459 C1453 0.959 . S
H1460 C1453 0.961 . S
H1461 C1453 0.960 . S
H1462 C1454 0.930 . S
H1463 C1455 0.929 . S
H1464 C1472 0.929 . S
H1465 C1474 0.930 . S
H1466 C1476 0.930 . S
H1467 C1479 0.929 . S
H1468 C1482 0.930 . S
H1469 C1484 0.960 . S
H1470 C1484 0.960 . S
H1471 C1484 0.960 . S
C1472 H1464 0.929 . S
C1472 C1473 1.377 . S
C1472 C1474 1.384 . S
C1473 C1472 1.377 . S
C1473 C1479 1.390 . S
C1474 H1465 0.930 . S
C1474 C1472 1.384 . S
C1474 C1475 1.372 . S
C1475 C1474 1.372 . S
C1475 C1476 1.400 . S
C1475 C1480 1.490 . S
C1476 H1466 0.930 . S
C1476 C1475 1.400 . S
C1476 C1479 1.386 . S
H1477 C1493 0.930 . S
H1478 C1494 0.931 . S
C1479 H1467 0.929 . S
C1479 C1473 1.390 . S
C1479 C1476 1.386 . S
C1480 C1475 1.490 . S
C1480 C1482 1.395 . S
C1480 C1483 1.403 . S
H1481 C1487 0.930 . S
C1482 H1468 0.930 . S
C1482 C1480 1.395 . S
C1482 C1485 1.403 . S
C1483 C1480 1.403 . S
C1483 C1484 1.524 . S
C1483 C1487 1.400 . S
C1484 H1469 0.960 . S
C1484 H1470 0.960 . S
C1484 H1471 0.960 . S
C1484 C1483 1.524 . S
C1485 C1482 1.403 . S
C1485 C1486 1.392 . S
C1485 C1489 1.495 . S
C1486 C1485 1.392 . S
C1486 C1487 1.385 . S
C1486 C1488 1.478 . S
C1487 H1481 0.930 . S
C1487 C1483 1.400 . S
C1487 C1486 1.385 . S
C1488 C1486 1.478 . S
C1488 C1490 1.381 . S
C1488 C1494 1.383 . S
C1489 C1485 1.495 . S
C1489 H1495 0.959 . S
C1489 H1496 0.961 . S
C1489 H1497 0.960 . S
C1490 C1488 1.381 . S
C1490 C1491 1.394 . S
C1490 H1498 0.930 . S
C1491 C1490 1.394 . S
C1491 C1492 1.383 . S
C1491 H1499 0.929 . S
C1492 C1491 1.383 . S
C1492 C1493 1.377 . S
C1493 H1477 0.930 . S
C1493 C1492 1.377 . S
C1493 C1494 1.379 . S
C1494 H1478 0.931 . S
C1494 C1488 1.383 . S
C1494 C1493 1.379 . S
H1495 C1489 0.959 . S
H1496 C1489 0.961 . S
H1497 C1489 0.960 . S
H1498 C1490 0.930 . S
H1499 C1491 0.929 . S
H1500 C1508 0.929 . S
H1501 C1510 0.930 . S
H1502 C1512 0.930 . S
H1503 C1515 0.929 . S
H1504 C1518 0.930 . S
H1505 C1520 0.960 . S
H1506 C1520 0.960 . S
H1507 C1520 0.960 . S
C1508 H1500 0.929 . S
C1508 C1509 1.377 . S
C1508 C1510 1.384 . S
C1509 C1508 1.377 . S
C1509 C1515 1.390 . S
C1510 H1501 0.930 . S
C1510 C1508 1.384 . S
C1510 C1511 1.372 . S
C1511 C1510 1.372 . S
C1511 C1512 1.400 . S
C1511 C1516 1.490 . S
C1512 H1502 0.930 . S
C1512 C1511 1.400 . S
C1512 C1515 1.386 . S
H1513 C1529 0.930 . S
H1514 C1530 0.931 . S
C1515 H1503 0.929 . S
C1515 C1509 1.390 . S
C1515 C1512 1.386 . S
C1516 C1511 1.490 . S
C1516 C1518 1.395 . S
C1516 C1519 1.403 . S
H1517 C1523 0.930 . S
C1518 H1504 0.930 . S
C1518 C1516 1.395 . S
C1518 C1521 1.403 . S
C1519 C1516 1.403 . S
C1519 C1520 1.524 . S
C1519 C1523 1.400 . S
C1520 H1505 0.960 . S
C1520 H1506 0.960 . S
C1520 H1507 0.960 . S
C1520 C1519 1.524 . S
C1521 C1518 1.403 . S
C1521 C1522 1.392 . S
C1521 C1525 1.495 . S
C1522 C1521 1.392 . S
C1522 C1523 1.385 . S
C1522 C1524 1.478 . S
C1523 H1517 0.930 . S
C1523 C1519 1.400 . S
C1523 C1522 1.385 . S
C1524 C1522 1.478 . S
C1524 C1526 1.381 . S
C1524 C1530 1.383 . S
C1525 C1521 1.495 . S
C1525 H1531 0.959 . S
C1525 H1532 0.961 . S
C1525 H1533 0.960 . S
C1526 C1524 1.381 . S
C1526 C1527 1.394 . S
C1526 H1534 0.930 . S
C1527 C1526 1.394 . S
C1527 C1528 1.383 . S
C1527 H1535 0.929 . S
C1528 C1527 1.383 . S
C1528 C1529 1.377 . S
C1529 H1513 0.930 . S
C1529 C1528 1.377 . S
C1529 C1530 1.379 . S
C1530 H1514 0.931 . S
C1530 C1524 1.383 . S
C1530 C1529 1.379 . S
H1531 C1525 0.959 . S
H1532 C1525 0.961 . S
H1533 C1525 0.960 . S
H1534 C1526 0.930 . S
H1535 C1527 0.929 . S
H1536 C1544 0.929 . S
H1537 C1546 0.930 . S
H1538 C1548 0.930 . S
H1539 C1551 0.929 . S
H1540 C1554 0.930 . S
H1541 C1556 0.960 . S
H1542 C1556 0.960 . S
H1543 C1556 0.960 . S
C1544 H1536 0.929 . S
C1544 C1545 1.377 . S
C1544 C1546 1.384 . S
C1545 C1544 1.377 . S
C1545 C1551 1.390 . S
C1546 H1537 0.930 . S
C1546 C1544 1.384 . S
C1546 C1547 1.372 . S
C1547 C1546 1.372 . S
C1547 C1548 1.400 . S
C1547 C1552 1.490 . S
C1548 H1538 0.930 . S
C1548 C1547 1.400 . S
C1548 C1551 1.386 . S
H1549 C1565 0.930 . S
H1550 C1566 0.931 . S
C1551 H1539 0.929 . S
C1551 C1545 1.390 . S
C1551 C1548 1.386 . S
C1552 C1547 1.490 . S
C1552 C1554 1.395 . S
C1552 C1555 1.403 . S
H1553 C1559 0.930 . S
C1554 H1540 0.930 . S
C1554 C1552 1.395 . S
C1554 C1557 1.403 . S
C1555 C1552 1.403 . S
C1555 C1556 1.524 . S
C1555 C1559 1.400 . S
C1556 H1541 0.960 . S
C1556 H1542 0.960 . S
C1556 H1543 0.960 . S
C1556 C1555 1.524 . S
C1557 C1554 1.403 . S
C1557 C1558 1.392 . S
C1557 C1561 1.495 . S
C1558 C1557 1.392 . S
C1558 C1559 1.385 . S
C1558 C1560 1.478 . S
C1559 H1553 0.930 . S
C1559 C1555 1.400 . S
C1559 C1558 1.385 . S
C1560 C1558 1.478 . S
C1560 C1562 1.381 . S
C1560 C1566 1.383 . S
C1561 C1557 1.495 . S
C1561 H1567 0.959 . S
C1561 H1568 0.961 . S
C1561 H1569 0.960 . S
C1562 C1560 1.381 . S
C1562 C1563 1.394 . S
C1562 H1570 0.930 . S
C1563 C1562 1.394 . S
C1563 C1564 1.383 . S
C1563 H1571 0.929 . S
C1564 C1563 1.383 . S
C1564 C1565 1.377 . S
C1565 H1549 0.930 . S
C1565 C1564 1.377 . S
C1565 C1566 1.379 . S
C1566 H1550 0.931 . S
C1566 C1560 1.383 . S
C1566 C1565 1.379 . S
H1567 C1561 0.959 . S
H1568 C1561 0.961 . S
H1569 C1561 0.960 . S
H1570 C1562 0.930 . S
H1571 C1563 0.929 . S
H1572 C1580 0.929 . S
H1573 C1582 0.930 . S
H1574 C1584 0.930 . S
H1575 C1587 0.929 . S
H1576 C1590 0.930 . S
H1577 C1592 0.960 . S
H1578 C1592 0.960 . S
H1579 C1592 0.960 . S
C1580 H1572 0.929 . S
C1580 C1581 1.377 . S
C1580 C1582 1.384 . S
C1581 C1580 1.377 . S
C1581 C1587 1.390 . S
C1582 H1573 0.930 . S
C1582 C1580 1.384 . S
C1582 C1583 1.372 . S
C1583 C1582 1.372 . S
C1583 C1584 1.400 . S
C1583 C1588 1.490 . S
C1584 H1574 0.930 . S
C1584 C1583 1.400 . S
C1584 C1587 1.386 . S
H1585 C1601 0.930 . S
H1586 C1602 0.931 . S
C1587 H1575 0.929 . S
C1587 C1581 1.390 . S
C1587 C1584 1.386 . S
C1588 C1583 1.490 . S
C1588 C1590 1.395 . S
C1588 C1591 1.403 . S
H1589 C1595 0.930 . S
C1590 H1576 0.930 . S
C1590 C1588 1.395 . S
C1590 C1593 1.403 . S
C1591 C1588 1.403 . S
C1591 C1592 1.524 . S
C1591 C1595 1.400 . S
C1592 H1577 0.960 . S
C1592 H1578 0.960 . S
C1592 H1579 0.960 . S
C1592 C1591 1.524 . S
C1593 C1590 1.403 . S
C1593 C1594 1.392 . S
C1593 C1597 1.495 . S
C1594 C1593 1.392 . S
C1594 C1595 1.385 . S
C1594 C1596 1.478 . S
C1595 H1589 0.930 . S
C1595 C1591 1.400 . S
C1595 C1594 1.385 . S
C1596 C1594 1.478 . S
C1596 C1598 1.381 . S
C1596 C1602 1.383 . S
C1597 C1593 1.495 . S
C1597 H1603 0.959 . S
C1597 H1604 0.961 . S
C1597 H1605 0.960 . S
C1598 C1596 1.381 . S
C1598 C1599 1.394 . S
C1598 H1606 0.930 . S
C1599 C1598 1.394 . S
C1599 C1600 1.383 . S
C1599 H1607 0.929 . S
C1600 C1599 1.383 . S
C1600 C1601 1.377 . S
C1601 H1585 0.930 . S
C1601 C1600 1.377 . S
C1601 C1602 1.379 . S
C1602 H1586 0.931 . S
C1602 C1596 1.383 . S
C1602 C1601 1.379 . S
H1603 C1597 0.959 . S
H1604 C1597 0.961 . S
H1605 C1597 0.960 . S
H1606 C1598 0.930 . S
H1607 C1599 0.929 . S
H1608 C1616 0.929 . S
H1609 C1618 0.930 . S
H1610 C1620 0.930 . S
H1611 C1623 0.929 . S
H1612 C1626 0.930 . S
H1613 C1628 0.960 . S
H1614 C1628 0.960 . S
H1615 C1628 0.960 . S
C1616 H1608 0.929 . S
C1616 C1617 1.377 . S
C1616 C1618 1.384 . S
C1617 C1616 1.377 . S
C1617 C1623 1.390 . S
C1618 H1609 0.930 . S
C1618 C1616 1.384 . S
C1618 C1619 1.372 . S
C1619 C1618 1.372 . S
C1619 C1620 1.400 . S
C1619 C1624 1.490 . S
C1620 H1610 0.930 . S
C1620 C1619 1.400 . S
C1620 C1623 1.386 . S
H1621 C1637 0.930 . S
H1622 C1638 0.931 . S
C1623 H1611 0.929 . S
C1623 C1617 1.390 . S
C1623 C1620 1.386 . S
C1624 C1619 1.490 . S
C1624 C1626 1.395 . S
C1624 C1627 1.403 . S
H1625 C1631 0.930 . S
C1626 H1612 0.930 . S
C1626 C1624 1.395 . S
C1626 C1629 1.403 . S
C1627 C1624 1.403 . S
C1627 C1628 1.524 . S
C1627 C1631 1.400 . S
C1628 H1613 0.960 . S
C1628 H1614 0.960 . S
C1628 H1615 0.960 . S
C1628 C1627 1.524 . S
C1629 C1626 1.403 . S
C1629 C1630 1.392 . S
C1629 C1633 1.495 . S
C1630 C1629 1.392 . S
C1630 C1631 1.385 . S
C1630 C1632 1.478 . S
C1631 H1625 0.930 . S
C1631 C1627 1.400 . S
C1631 C1630 1.385 . S
C1632 C1630 1.478 . S
C1632 C1634 1.381 . S
C1632 C1638 1.383 . S
C1633 C1629 1.495 . S
C1633 H1639 0.959 . S
C1633 H1640 0.961 . S
C1633 H1641 0.960 . S
C1634 C1632 1.381 . S
C1634 C1635 1.394 . S
C1634 H1642 0.930 . S
C1635 C1634 1.394 . S
C1635 C1636 1.383 . S
C1635 H1643 0.929 . S
C1636 C1635 1.383 . S
C1636 C1637 1.377 . S
C1637 H1621 0.930 . S
C1637 C1636 1.377 . S
C1637 C1638 1.379 . S
C1638 H1622 0.931 . S
C1638 C1632 1.383 . S
C1638 C1637 1.379 . S
H1639 C1633 0.959 . S
H1640 C1633 0.961 . S
H1641 C1633 0.960 . S
H1642 C1634 0.930 . S
H1643 C1635 0.929 . S
H1644 C1652 0.929 . S
H1645 C1654 0.930 . S
H1646 C1656 0.930 . S
H1647 C1659 0.929 . S
H1648 C1662 0.930 . S
H1649 C1664 0.960 . S
H1650 C1664 0.960 . S
H1651 C1664 0.960 . S
C1652 H1644 0.929 . S
C1652 C1653 1.377 . S
C1652 C1654 1.384 . S
C1653 C1652 1.377 . S
C1653 C1659 1.390 . S
C1654 H1645 0.930 . S
C1654 C1652 1.384 . S
C1654 C1655 1.372 . S
C1655 C1654 1.372 . S
C1655 C1656 1.400 . S
C1655 C1660 1.490 . S
C1656 H1646 0.930 . S
C1656 C1655 1.400 . S
C1656 C1659 1.386 . S
H1657 C1673 0.930 . S
H1658 C1674 0.931 . S
C1659 H1647 0.929 . S
C1659 C1653 1.390 . S
C1659 C1656 1.386 . S
C1660 C1655 1.490 . S
C1660 C1662 1.395 . S
C1660 C1663 1.403 . S
H1661 C1667 0.930 . S
C1662 H1648 0.930 . S
C1662 C1660 1.395 . S
C1662 C1665 1.403 . S
C1663 C1660 1.403 . S
C1663 C1664 1.524 . S
C1663 C1667 1.400 . S
C1664 H1649 0.960 . S
C1664 H1650 0.960 . S
C1664 H1651 0.960 . S
C1664 C1663 1.524 . S
C1665 C1662 1.403 . S
C1665 C1666 1.392 . S
C1665 C1669 1.495 . S
C1666 C1665 1.392 . S
C1666 C1667 1.385 . S
C1666 C1668 1.478 . S
C1667 H1661 0.930 . S
C1667 C1663 1.400 . S
C1667 C1666 1.385 . S
C1668 C1666 1.478 . S
C1668 C1670 1.381 . S
C1668 C1674 1.383 . S
C1669 C1665 1.495 . S
C1669 H1675 0.959 . S
C1669 H1676 0.961 . S
C1669 H1677 0.960 . S
C1670 C1668 1.381 . S
C1670 C1671 1.394 . S
C1670 H1678 0.930 . S
C1671 C1670 1.394 . S
C1671 C1672 1.383 . S
C1671 H1679 0.929 . S
C1672 C1671 1.383 . S
C1672 C1673 1.377 . S
C1673 H1657 0.930 . S
C1673 C1672 1.377 . S
C1673 C1674 1.379 . S
C1674 H1658 0.931 . S
C1674 C1668 1.383 . S
C1674 C1673 1.379 . S
H1675 C1669 0.959 . S
H1676 C1669 0.961 . S
H1677 C1669 0.960 . S
H1678 C1670 0.930 . S
H1679 C1671 0.929 . S
H1680 C1688 0.929 . S
H1681 C1690 0.930 . S
H1682 C1692 0.930 . S
H1683 C1695 0.929 . S
H1684 C1698 0.930 . S
H1685 C1700 0.960 . S
H1686 C1700 0.960 . S
H1687 C1700 0.960 . S
C1688 H1680 0.929 . S
C1688 C1689 1.377 . S
C1688 C1690 1.384 . S
C1689 C1688 1.377 . S
C1689 C1695 1.390 . S
C1690 H1681 0.930 . S
C1690 C1688 1.384 . S
C1690 C1691 1.372 . S
C1691 C1690 1.372 . S
C1691 C1692 1.400 . S
C1691 C1696 1.490 . S
C1692 H1682 0.930 . S
C1692 C1691 1.400 . S
C1692 C1695 1.386 . S
H1693 C1709 0.930 . S
H1694 C1710 0.931 . S
C1695 H1683 0.929 . S
C1695 C1689 1.390 . S
C1695 C1692 1.386 . S
C1696 C1691 1.490 . S
C1696 C1698 1.395 . S
C1696 C1699 1.403 . S
H1697 C1703 0.930 . S
C1698 H1684 0.930 . S
C1698 C1696 1.395 . S
C1698 C1701 1.403 . S
C1699 C1696 1.403 . S
C1699 C1700 1.524 . S
C1699 C1703 1.400 . S
C1700 H1685 0.960 . S
C1700 H1686 0.960 . S
C1700 H1687 0.960 . S
C1700 C1699 1.524 . S
C1701 C1698 1.403 . S
C1701 C1702 1.392 . S
C1701 C1705 1.495 . S
C1702 C1701 1.392 . S
C1702 C1703 1.385 . S
C1702 C1704 1.478 . S
C1703 H1697 0.930 . S
C1703 C1699 1.400 . S
C1703 C1702 1.385 . S
C1704 C1702 1.478 . S
C1704 C1706 1.381 . S
C1704 C1710 1.383 . S
C1705 C1701 1.495 . S
C1705 H1711 0.959 . S
C1705 H1712 0.961 . S
C1705 H1713 0.960 . S
C1706 C1704 1.381 . S
C1706 C1707 1.394 . S
C1706 H1714 0.930 . S
C1707 C1706 1.394 . S
C1707 C1708 1.383 . S
C1707 H1715 0.929 . S
C1708 C1707 1.383 . S
C1708 C1709 1.377 . S
C1709 H1693 0.930 . S
C1709 C1708 1.377 . S
C1709 C1710 1.379 . S
C1710 H1694 0.931 . S
C1710 C1704 1.383 . S
C1710 C1709 1.379 . S
H1711 C1705 0.959 . S
H1712 C1705 0.961 . S
H1713 C1705 0.960 . S
H1714 C1706 0.930 . S
H1715 C1707 0.929 . S
H1716 C1724 0.929 . S
H1717 C1726 0.930 . S
H1718 C1728 0.930 . S
H1719 C1731 0.929 . S
H1720 C1734 0.930 . S
H1721 C1736 0.960 . S
H1722 C1736 0.960 . S
H1723 C1736 0.960 . S
C1724 H1716 0.929 . S
C1724 C1725 1.377 . S
C1724 C1726 1.384 . S
C1725 C1724 1.377 . S
C1725 C1731 1.390 . S
C1726 H1717 0.930 . S
C1726 C1724 1.384 . S
C1726 C1727 1.372 . S
C1727 C1726 1.372 . S
C1727 C1728 1.400 . S
C1727 C1732 1.490 . S
C1728 H1718 0.930 . S
C1728 C1727 1.400 . S
C1728 C1731 1.386 . S
H1729 C1745 0.930 . S
H1730 C1746 0.931 . S
C1731 H1719 0.929 . S
C1731 C1725 1.390 . S
C1731 C1728 1.386 . S
C1732 C1727 1.490 . S
C1732 C1734 1.395 . S
C1732 C1735 1.403 . S
H1733 C1739 0.930 . S
C1734 H1720 0.930 . S
C1734 C1732 1.395 . S
C1734 C1737 1.403 . S
C1735 C1732 1.403 . S
C1735 C1736 1.524 . S
C1735 C1739 1.400 . S
C1736 H1721 0.960 . S
C1736 H1722 0.960 . S
C1736 H1723 0.960 . S
C1736 C1735 1.524 . S
C1737 C1734 1.403 . S
C1737 C1738 1.392 . S
C1737 C1741 1.495 . S
C1738 C1737 1.392 . S
C1738 C1739 1.385 . S
C1738 C1740 1.478 . S
C1739 H1733 0.930 . S
C1739 C1735 1.400 . S
C1739 C1738 1.385 . S
C1740 C1738 1.478 . S
C1740 C1742 1.381 . S
C1740 C1746 1.383 . S
C1741 C1737 1.495 . S
C1741 H1747 0.959 . S
C1741 H1748 0.961 . S
C1741 H1749 0.960 . S
C1742 C1740 1.381 . S
C1742 C1743 1.394 . S
C1742 H1750 0.930 . S
C1743 C1742 1.394 . S
C1743 C1744 1.383 . S
C1743 H1751 0.929 . S
C1744 C1743 1.383 . S
C1744 C1745 1.377 . S
C1745 H1729 0.930 . S
C1745 C1744 1.377 . S
C1745 C1746 1.379 . S
C1746 H1730 0.931 . S
C1746 C1740 1.383 . S
C1746 C1745 1.379 . S
H1747 C1741 0.959 . S
H1748 C1741 0.961 . S
H1749 C1741 0.960 . S
H1750 C1742 0.930 . S
H1751 C1743 0.929 . S
H1752 C1760 0.929 . S
H1753 C1762 0.930 . S
H1754 C1764 0.930 . S
H1755 C1767 0.929 . S
H1756 C1770 0.930 . S
H1757 C1772 0.960 . S
H1758 C1772 0.960 . S
H1759 C1772 0.960 . S
C1760 H1752 0.929 . S
C1760 C1761 1.377 . S
C1760 C1762 1.384 . S
C1761 C1760 1.377 . S
C1761 C1767 1.390 . S
C1762 H1753 0.930 . S
C1762 C1760 1.384 . S
C1762 C1763 1.372 . S
C1763 C1762 1.372 . S
C1763 C1764 1.400 . S
C1763 C1768 1.490 . S
C1764 H1754 0.930 . S
C1764 C1763 1.400 . S
C1764 C1767 1.386 . S
H1765 C1781 0.930 . S
H1766 C1782 0.931 . S
C1767 H1755 0.929 . S
C1767 C1761 1.390 . S
C1767 C1764 1.386 . S
C1768 C1763 1.490 . S
C1768 C1770 1.395 . S
C1768 C1771 1.403 . S
H1769 C1775 0.930 . S
C1770 H1756 0.930 . S
C1770 C1768 1.395 . S
C1770 C1773 1.403 . S
C1771 C1768 1.403 . S
C1771 C1772 1.524 . S
C1771 C1775 1.400 . S
C1772 H1757 0.960 . S
C1772 H1758 0.960 . S
C1772 H1759 0.960 . S
C1772 C1771 1.524 . S
C1773 C1770 1.403 . S
C1773 C1774 1.392 . S
C1773 C1777 1.495 . S
C1774 C1773 1.392 . S
C1774 C1775 1.385 . S
C1774 C1776 1.478 . S
C1775 H1769 0.930 . S
C1775 C1771 1.400 . S
C1775 C1774 1.385 . S
C1776 C1774 1.478 . S
C1776 C1778 1.381 . S
C1776 C1782 1.383 . S
C1777 C1773 1.495 . S
C1777 H1783 0.959 . S
C1777 H1784 0.961 . S
C1777 H1785 0.960 . S
C1778 C1776 1.381 . S
C1778 C1779 1.394 . S
C1778 H1786 0.930 . S
C1779 C1778 1.394 . S
C1779 C1780 1.383 . S
C1779 H1787 0.929 . S
C1780 C1779 1.383 . S
C1780 C1781 1.377 . S
C1781 H1765 0.930 . S
C1781 C1780 1.377 . S
C1781 C1782 1.379 . S
C1782 H1766 0.931 . S
C1782 C1776 1.383 . S
C1782 C1781 1.379 . S
H1783 C1777 0.959 . S
H1784 C1777 0.961 . S
H1785 C1777 0.960 . S
H1786 C1778 0.930 . S
H1787 C1779 0.929 . S
H1788 C1796 0.929 . S
H1789 C1798 0.930 . S
H1790 C1800 0.930 . S
H1791 C1803 0.929 . S
H1792 C1806 0.930 . S
H1793 C1808 0.960 . S
H1794 C1808 0.960 . S
H1795 C1808 0.960 . S
C1796 H1788 0.929 . S
C1796 C1797 1.377 . S
C1796 C1798 1.384 . S
C1797 C1796 1.377 . S
C1797 C1803 1.390 . S
C1798 H1789 0.930 . S
C1798 C1796 1.384 . S
C1798 C1799 1.372 . S
C1799 C1798 1.372 . S
C1799 C1800 1.400 . S
C1799 C1804 1.490 . S
C1800 H1790 0.930 . S
C1800 C1799 1.400 . S
C1800 C1803 1.386 . S
H1801 C1817 0.930 . S
H1802 C1818 0.931 . S
C1803 H1791 0.929 . S
C1803 C1797 1.390 . S
C1803 C1800 1.386 . S
C1804 C1799 1.490 . S
C1804 C1806 1.395 . S
C1804 C1807 1.403 . S
H1805 C1811 0.930 . S
C1806 H1792 0.930 . S
C1806 C1804 1.395 . S
C1806 C1809 1.403 . S
C1807 C1804 1.403 . S
C1807 C1808 1.524 . S
C1807 C1811 1.400 . S
C1808 H1793 0.960 . S
C1808 H1794 0.960 . S
C1808 H1795 0.960 . S
C1808 C1807 1.524 . S
C1809 C1806 1.403 . S
C1809 C1810 1.392 . S
C1809 C1813 1.495 . S
C1810 C1809 1.392 . S
C1810 C1811 1.385 . S
C1810 C1812 1.478 . S
C1811 H1805 0.930 . S
C1811 C1807 1.400 . S
C1811 C1810 1.385 . S
C1812 C1810 1.478 . S
C1812 C1814 1.381 . S
C1812 C1818 1.383 . S
C1813 C1809 1.495 . S
C1813 H1819 0.959 . S
C1813 H1820 0.961 . S
C1813 H1821 0.960 . S
C1814 C1812 1.381 . S
C1814 C1815 1.394 . S
C1814 H1822 0.930 . S
C1815 C1814 1.394 . S
C1815 C1816 1.383 . S
C1815 H1823 0.929 . S
C1816 C1815 1.383 . S
C1816 C1817 1.377 . S
C1817 H1801 0.930 . S
C1817 C1816 1.377 . S
C1817 C1818 1.379 . S
C1818 H1802 0.931 . S
C1818 C1812 1.383 . S
C1818 C1817 1.379 . S
H1819 C1813 0.959 . S
H1820 C1813 0.961 . S
H1821 C1813 0.960 . S
H1822 C1814 0.930 . S
H1823 C1815 0.929 . S
H1824 C1832 0.929 . S
H1825 C1834 0.930 . S
H1826 C1836 0.930 . S
H1827 C1839 0.929 . S
H1828 C1842 0.930 . S
H1829 C1844 0.960 . S
H1830 C1844 0.960 . S
H1831 C1844 0.960 . S
C1832 H1824 0.929 . S
C1832 C1833 1.377 . S
C1832 C1834 1.384 . S
C1833 C1832 1.377 . S
C1833 C1839 1.390 . S
C1834 H1825 0.930 . S
C1834 C1832 1.384 . S
C1834 C1835 1.372 . S
C1835 C1834 1.372 . S
C1835 C1836 1.400 . S
C1835 C1840 1.490 . S
C1836 H1826 0.930 . S
C1836 C1835 1.400 . S
C1836 C1839 1.386 . S
H1837 C1853 0.930 . S
H1838 C1854 0.931 . S
C1839 H1827 0.929 . S
C1839 C1833 1.390 . S
C1839 C1836 1.386 . S
C1840 C1835 1.490 . S
C1840 C1842 1.395 . S
C1840 C1843 1.403 . S
H1841 C1847 0.930 . S
C1842 H1828 0.930 . S
C1842 C1840 1.395 . S
C1842 C1845 1.403 . S
C1843 C1840 1.403 . S
C1843 C1844 1.524 . S
C1843 C1847 1.400 . S
C1844 H1829 0.960 . S
C1844 H1830 0.960 . S
C1844 H1831 0.960 . S
C1844 C1843 1.524 . S
C1845 C1842 1.403 . S
C1845 C1846 1.392 . S
C1845 C1849 1.495 . S
C1846 C1845 1.392 . S
C1846 C1847 1.385 . S
C1846 C1848 1.478 . S
C1847 H1841 0.930 . S
C1847 C1843 1.400 . S
C1847 C1846 1.385 . S
C1848 C1846 1.478 . S
C1848 C1850 1.381 . S
C1848 C1854 1.383 . S
C1849 C1845 1.495 . S
C1849 H1855 0.959 . S
C1849 H1856 0.961 . S
C1849 H1857 0.960 . S
C1850 C1848 1.381 . S
C1850 C1851 1.394 . S
C1850 H1858 0.930 . S
C1851 C1850 1.394 . S
C1851 C1852 1.383 . S
C1851 H1859 0.929 . S
C1852 C1851 1.383 . S
C1852 C1853 1.377 . S
C1853 H1837 0.930 . S
C1853 C1852 1.377 . S
C1853 C1854 1.379 . S
C1854 H1838 0.931 . S
C1854 C1848 1.383 . S
C1854 C1853 1.379 . S
H1855 C1849 0.959 . S
H1856 C1849 0.961 . S
H1857 C1849 0.960 . S
H1858 C1850 0.930 . S
H1859 C1851 0.929 . S
H1860 C1868 0.929 . S
H1861 C1870 0.930 . S
H1862 C1872 0.930 . S
H1863 C1875 0.929 . S
H1864 C1878 0.930 . S
H1865 C1880 0.960 . S
H1866 C1880 0.960 . S
H1867 C1880 0.960 . S
C1868 H1860 0.929 . S
C1868 C1869 1.377 . S
C1868 C1870 1.384 . S
C1869 C1868 1.377 . S
C1869 C1875 1.390 . S
C1870 H1861 0.930 . S
C1870 C1868 1.384 . S
C1870 C1871 1.372 . S
C1871 C1870 1.372 . S
C1871 C1872 1.400 . S
C1871 C1876 1.490 . S
C1872 H1862 0.930 . S
C1872 C1871 1.400 . S
C1872 C1875 1.386 . S
H1873 C1889 0.930 . S
H1874 C1890 0.931 . S
C1875 H1863 0.929 . S
C1875 C1869 1.390 . S
C1875 C1872 1.386 . S
C1876 C1871 1.490 . S
C1876 C1878 1.395 . S
C1876 C1879 1.403 . S
H1877 C1883 0.930 . S
C1878 H1864 0.930 . S
C1878 C1876 1.395 . S
C1878 C1881 1.403 . S
C1879 C1876 1.403 . S
C1879 C1880 1.524 . S
C1879 C1883 1.400 . S
C1880 H1865 0.960 . S
C1880 H1866 0.960 . S
C1880 H1867 0.960 . S
C1880 C1879 1.524 . S
C1881 C1878 1.403 . S
C1881 C1882 1.392 . S
C1881 C1885 1.495 . S
C1882 C1881 1.392 . S
C1882 C1883 1.385 . S
C1882 C1884 1.478 . S
C1883 H1877 0.930 . S
C1883 C1879 1.400 . S
C1883 C1882 1.385 . S
C1884 C1882 1.478 . S
C1884 C1886 1.381 . S
C1884 C1890 1.383 . S
C1885 C1881 1.495 . S
C1885 H1891 0.959 . S
C1885 H1892 0.961 . S
C1885 H1893 0.960 . S
C1886 C1884 1.381 . S
C1886 C1887 1.394 . S
C1886 H1894 0.930 . S
C1887 C1886 1.394 . S
C1887 C1888 1.383 . S
C1887 H1895 0.929 . S
C1888 C1887 1.383 . S
C1888 C1889 1.377 . S
C1889 H1873 0.930 . S
C1889 C1888 1.377 . S
C1889 C1890 1.379 . S
C1890 H1874 0.931 . S
C1890 C1884 1.383 . S
C1890 C1889 1.379 . S
H1891 C1885 0.959 . S
H1892 C1885 0.961 . S
H1893 C1885 0.960 . S
H1894 C1886 0.930 . S
H1895 C1887 0.929 . S
H1896 C1904 0.929 . S
H1897 C1906 0.930 . S
H1898 C1908 0.930 . S
H1899 C1911 0.929 . S
H1900 C1914 0.930 . S
H1901 C1916 0.960 . S
H1902 C1916 0.960 . S
H1903 C1916 0.960 . S
C1904 H1896 0.929 . S
C1904 C1905 1.377 . S
C1904 C1906 1.384 . S
C1905 C1904 1.377 . S
C1905 C1911 1.390 . S
C1906 H1897 0.930 . S
C1906 C1904 1.384 . S
C1906 C1907 1.372 . S
C1907 C1906 1.372 . S
C1907 C1908 1.400 . S
C1907 C1912 1.490 . S
C1908 H1898 0.930 . S
C1908 C1907 1.400 . S
C1908 C1911 1.386 . S
H1909 C1925 0.930 . S
H1910 C1926 0.931 . S
C1911 H1899 0.929 . S
C1911 C1905 1.390 . S
C1911 C1908 1.386 . S
C1912 C1907 1.490 . S
C1912 C1914 1.395 . S
C1912 C1915 1.403 . S
H1913 C1919 0.930 . S
C1914 H1900 0.930 . S
C1914 C1912 1.395 . S
C1914 C1917 1.403 . S
C1915 C1912 1.403 . S
C1915 C1916 1.524 . S
C1915 C1919 1.400 . S
C1916 H1901 0.960 . S
C1916 H1902 0.960 . S
C1916 H1903 0.960 . S
C1916 C1915 1.524 . S
C1917 C1914 1.403 . S
C1917 C1918 1.392 . S
C1917 C1921 1.495 . S
C1918 C1917 1.392 . S
C1918 C1919 1.385 . S
C1918 C1920 1.478 . S
C1919 H1913 0.930 . S
C1919 C1915 1.400 . S
C1919 C1918 1.385 . S
C1920 C1918 1.478 . S
C1920 C1922 1.381 . S
C1920 C1926 1.383 . S
C1921 C1917 1.495 . S
C1921 H1927 0.959 . S
C1921 H1928 0.961 . S
C1921 H1929 0.960 . S
C1922 C1920 1.381 . S
C1922 C1923 1.394 . S
C1922 H1930 0.930 . S
C1923 C1922 1.394 . S
C1923 C1924 1.383 . S
C1923 H1931 0.929 . S
C1924 C1923 1.383 . S
C1924 C1925 1.377 . S
C1925 H1909 0.930 . S
C1925 C1924 1.377 . S
C1925 C1926 1.379 . S
C1926 H1910 0.931 . S
C1926 C1920 1.383 . S
C1926 C1925 1.379 . S
H1927 C1921 0.959 . S
H1928 C1921 0.961 . S
H1929 C1921 0.960 . S
H1930 C1922 0.930 . S
H1931 C1923 0.929 . S
H1932 C1940 0.929 . S
H1933 C1942 0.930 . S
H1934 C1944 0.930 . S
H1935 C1947 0.929 . S
H1936 C1950 0.930 . S
H1937 C1952 0.960 . S
H1938 C1952 0.960 . S
H1939 C1952 0.960 . S
C1940 H1932 0.929 . S
C1940 C1941 1.377 . S
C1940 C1942 1.384 . S
C1941 C1940 1.377 . S
C1941 C1947 1.390 . S
C1942 H1933 0.930 . S
C1942 C1940 1.384 . S
C1942 C1943 1.372 . S
C1943 C1942 1.372 . S
C1943 C1944 1.400 . S
C1943 C1948 1.490 . S
C1944 H1934 0.930 . S
C1944 C1943 1.400 . S
C1944 C1947 1.386 . S
H1945 C1961 0.930 . S
H1946 C1962 0.931 . S
C1947 H1935 0.929 . S
C1947 C1941 1.390 . S
C1947 C1944 1.386 . S
C1948 C1943 1.490 . S
C1948 C1950 1.395 . S
C1948 C1951 1.403 . S
H1949 C1955 0.930 . S
C1950 H1936 0.930 . S
C1950 C1948 1.395 . S
C1950 C1953 1.403 . S
C1951 C1948 1.403 . S
C1951 C1952 1.524 . S
C1951 C1955 1.400 . S
C1952 H1937 0.960 . S
C1952 H1938 0.960 . S
C1952 H1939 0.960 . S
C1952 C1951 1.524 . S
C1953 C1950 1.403 . S
C1953 C1954 1.392 . S
C1953 C1957 1.495 . S
C1954 C1953 1.392 . S
C1954 C1955 1.385 . S
C1954 C1956 1.478 . S
C1955 H1949 0.930 . S
C1955 C1951 1.400 . S
C1955 C1954 1.385 . S
C1956 C1954 1.478 . S
C1956 C1958 1.381 . S
C1956 C1962 1.383 . S
C1957 C1953 1.495 . S
C1957 H1963 0.959 . S
C1957 H1964 0.961 . S
C1957 H1965 0.960 . S
C1958 C1956 1.381 . S
C1958 C1959 1.394 . S
C1958 H1966 0.930 . S
C1959 C1958 1.394 . S
C1959 C1960 1.383 . S
C1959 H1967 0.929 . S
C1960 C1959 1.383 . S
C1960 C1961 1.377 . S
C1961 H1945 0.930 . S
C1961 C1960 1.377 . S
C1961 C1962 1.379 . S
C1962 H1946 0.931 . S
C1962 C1956 1.383 . S
C1962 C1961 1.379 . S
H1963 C1957 0.959 . S
H1964 C1957 0.961 . S
H1965 C1957 0.960 . S
H1966 C1958 0.930 . S
H1967 C1959 0.929 . S
H1968 C1976 0.929 . S
H1969 C1978 0.930 . S
H1970 C1980 0.930 . S
H1971 C1983 0.929 . S
H1972 C1986 0.930 . S
H1973 C1988 0.960 . S
H1974 C1988 0.960 . S
H1975 C1988 0.960 . S
C1976 H1968 0.929 . S
C1976 C1977 1.377 . S
C1976 C1978 1.384 . S
C1977 C1976 1.377 . S
C1977 C1983 1.390 . S
C1978 H1969 0.930 . S
C1978 C1976 1.384 . S
C1978 C1979 1.372 . S
C1979 C1978 1.372 . S
C1979 C1980 1.400 . S
C1979 C1984 1.490 . S
C1980 H1970 0.930 . S
C1980 C1979 1.400 . S
C1980 C1983 1.386 . S
H1981 C1997 0.930 . S
H1982 C1998 0.931 . S
C1983 H1971 0.929 . S
C1983 C1977 1.390 . S
C1983 C1980 1.386 . S
C1984 C1979 1.490 . S
C1984 C1986 1.395 . S
C1984 C1987 1.403 . S
H1985 C1991 0.930 . S
C1986 H1972 0.930 . S
C1986 C1984 1.395 . S
C1986 C1989 1.403 . S
C1987 C1984 1.403 . S
C1987 C1988 1.524 . S
C1987 C1991 1.400 . S
C1988 H1973 0.960 . S
C1988 H1974 0.960 . S
C1988 H1975 0.960 . S
C1988 C1987 1.524 . S
C1989 C1986 1.403 . S
C1989 C1990 1.392 . S
C1989 C1993 1.495 . S
C1990 C1989 1.392 . S
C1990 C1991 1.385 . S
C1990 C1992 1.478 . S
C1991 H1985 0.930 . S
C1991 C1987 1.400 . S
C1991 C1990 1.385 . S
C1992 C1990 1.478 . S
C1992 C1994 1.381 . S
C1992 C1998 1.383 . S
C1993 C1989 1.495 . S
C1993 H1999 0.959 . S
C1993 H2000 0.961 . S
C1993 H2001 0.960 . S
C1994 C1992 1.381 . S
C1994 C1995 1.394 . S
C1994 H2002 0.930 . S
C1995 C1994 1.394 . S
C1995 C1996 1.383 . S
C1995 H2003 0.929 . S
C1996 C1995 1.383 . S
C1996 C1997 1.377 . S
C1997 H1981 0.930 . S
C1997 C1996 1.377 . S
C1997 C1998 1.379 . S
C1998 H1982 0.931 . S
C1998 C1992 1.383 . S
C1998 C1997 1.379 . S
H1999 C1993 0.959 . S
H2000 C1993 0.961 . S
H2001 C1993 0.960 . S
H2002 C1994 0.930 . S
H2003 C1995 0.929 . S
H2004 C2012 0.929 . S
H2005 C2014 0.930 . S
H2006 C2016 0.930 . S
H2007 C2019 0.929 . S
H2008 C2022 0.930 . S
H2009 C2024 0.960 . S
H2010 C2024 0.960 . S
H2011 C2024 0.960 . S
C2012 H2004 0.929 . S
C2012 C2013 1.377 . S
C2012 C2014 1.384 . S
C2013 C2012 1.377 . S
C2013 C2019 1.390 . S
C2014 H2005 0.930 . S
C2014 C2012 1.384 . S
C2014 C2015 1.372 . S
C2015 C2014 1.372 . S
C2015 C2016 1.400 . S
C2015 C2020 1.490 . S
C2016 H2006 0.930 . S
C2016 C2015 1.400 . S
C2016 C2019 1.386 . S
H2017 C2033 0.930 . S
H2018 C2034 0.931 . S
C2019 H2007 0.929 . S
C2019 C2013 1.390 . S
C2019 C2016 1.386 . S
C2020 C2015 1.490 . S
C2020 C2022 1.395 . S
C2020 C2023 1.403 . S
H2021 C2027 0.930 . S
C2022 H2008 0.930 . S
C2022 C2020 1.395 . S
C2022 C2025 1.403 . S
C2023 C2020 1.403 . S
C2023 C2024 1.524 . S
C2023 C2027 1.400 . S
C2024 H2009 0.960 . S
C2024 H2010 0.960 . S
C2024 H2011 0.960 . S
C2024 C2023 1.524 . S
C2025 C2022 1.403 . S
C2025 C2026 1.392 . S
C2025 C2029 1.495 . S
C2026 C2025 1.392 . S
C2026 C2027 1.385 . S
C2026 C2028 1.478 . S
C2027 H2021 0.930 . S
C2027 C2023 1.400 . S
C2027 C2026 1.385 . S
C2028 C2026 1.478 . S
C2028 C2030 1.381 . S
C2028 C2034 1.383 . S
C2029 C2025 1.495 . S
C2029 H2035 0.959 . S
C2029 H2036 0.961 . S
C2029 H2037 0.960 . S
C2030 C2028 1.381 . S
C2030 C2031 1.394 . S
C2030 H2038 0.930 . S
C2031 C2030 1.394 . S
C2031 C2032 1.383 . S
C2031 H2039 0.929 . S
C2032 C2031 1.383 . S
C2032 C2033 1.377 . S
C2033 H2017 0.930 . S
C2033 C2032 1.377 . S
C2033 C2034 1.379 . S
C2034 H2018 0.931 . S
C2034 C2028 1.383 . S
C2034 C2033 1.379 . S
H2035 C2029 0.959 . S
H2036 C2029 0.961 . S
H2037 C2029 0.960 . S
H2038 C2030 0.930 . S
H2039 C2031 0.929 . S
C321 C289 1.907 . S
C340 C3 1.877 . S
C357 C18 1.933 . S
C376 C213 1.933 . S
C393 C304 1.933 . S
C412 C29 1.918 . S
C429 C278 1.937 . S
C448 C44 1.915 . S
C465 C239 1.937 . S
C484 C55 1.888 . S
C501 C252 1.933 . S
C520 C70 1.927 . S
C537 C265 1.937 . S
C556 C81 1.884 . S
C573 C96 1.938 . S
C592 C226 1.916 . S
C609 C172 1.906 . S
C628 C107 1.878 . S
C645 C187 1.940 . S
C664 C120 1.876 . S
C681 C135 1.934 . S
C700 C198 1.921 . S
C717 C146 1.907 . S
C736 C161 1.915 . S
C753 C94 1.904 . S
C772 C185 1.900 . S
C789 C200 1.936 . S
C808 C57 1.950 . S
C825 C68 1.903 . S
C844 C159 1.893 . S
C861 C174 1.936 . S
C880 C83 1.951 . S
C897 C133 1.906 . S
C916 C16 1.890 . S
C933 C31 1.936 . S
C952 C148 1.916 . S
C969 C42 1.907 . S
C988 C109 1.917 . S
C1005 C5 1.939 . S
C1024 C122 1.948 . S
C1041 C263 1.898 . S
C1060 C276 1.916 . S
C1077 C291 1.941 . S
C1096 C224 1.884 . S
C1113 C237 1.907 . S
C1132 C211 1.878 . S
C1149 C302 1.906 . S
C1168 C250 1.879 . S
C1185 C1 0.765 . S
C1204 C114 0.813 . S
C1221 C127 0.786 . S
C1240 C23 0.753 . S
C1257 C27 0.788 . S
C1276 C131 0.784 . S
C1293 C49 0.788 . S
C1312 C153 0.744 . S
C1329 C53 0.779 . S
C1348 C157 0.825 . S
C1365 C75 0.774 . S
C1384 C179 0.809 . S
C1401 C183 0.789 . S
C1420 C79 0.765 . S
C1437 C205 0.772 . S
C1456 C101 0.818 . S
C1473 C105 0.767 . S
C1492 C209 0.819 . S
C1509 C118 0.766 . S
C1528 C300 0.779 . S
C1545 C274 0.772 . S
C1564 C140 0.774 . S
C1581 C296 0.786 . S
C1600 C144 0.720 . S
C1617 C222 0.785 . S
C1636 C166 0.775 . S
C1653 C235 0.775 . S
C1672 C170 0.726 . S
C1689 C192 0.776 . S
C1708 C248 0.774 . S
C1725 C196 0.781 . S
C1744 C261 0.821 . S
C1761 C10 0.774 . S
C1780 C218 0.811 . S
C1797 C231 0.781 . S
C1816 C62 0.776 . S
C1833 C244 0.773 . S
C1852 C66 0.830 . S
C1869 C257 0.776 . S
C1888 C88 0.804 . S
C1905 C270 0.773 . S
C1924 C92 0.807 . S
C1941 C283 0.776 . S
C1960 C36 0.799 . S
C1977 C40 0.772 . S
C1996 C287 0.736 . S
C2013 C309 0.776 . S
C2032 C14 0.828 . S
