# Generated by pormake.
# Topology sma, (6)-cn, num edge types: 1
# Building blocks:
#     Node 0, Type 0, BuildingBlock: BETGAK_clean_sbu_0, # of connection points: 6
#     Node 1, Type 0, BuildingBlock: BETGAK_clean_sbu_0, # of connection points: 6
#     Node 2, Type 0, BuildingBlock: BETGAK_clean_sbu_0, # of connection points: 6
#     Edge 3, Type (0, 0), BuildingBlock: KIFKEQ_clean_linker_1, # of connection points: 2
#     Edge 4, Type (0, 0), BuildingBlock: KIFKEQ_clean_linker_1, # of connection points: 2
#     Edge 5, Type (0, 0), BuildingBlock: KIFKEQ_clean_linker_1, # of connection points: 2
#     Edge 6, Type (0, 0), BuildingBlock: KIFKEQ_clean_linker_1, # of connection points: 2
#     Edge 7, Type (0, 0), BuildingBlock: KIFKEQ_clean_linker_1, # of connection points: 2
#     Edge 8, Type (0, 0), BuildingBlock: KIFKEQ_clean_linker_1, # of connection points: 2
#     Edge 9, Type (0, 0), BuildingBlock: KIFKEQ_clean_linker_1, # of connection points: 2
#     Edge 10, Type (0, 0), BuildingBlock: KIFKEQ_clean_linker_1, # of connection points: 2
#     Edge 11, Type (0, 0), BuildingBlock: KIFKEQ_clean_linker_1, # of connection points: 2
# Relax obj value: 0.132
# Max RMSD: 0.255
# Mean RMSD: 0.203
data_MOF--net-sma--node1-BETGAK_clean_sbu_0--edge1-KIFKEQ_clean_linker_1
_symmetry_space_group_name_H-M    P1
_symmetry_Int_Tables_number       1
_symmetry_cell_setting            triclinic
loop_
_symmetry_equiv_pos_as_xyz
'x, y, z'
_cell_length_a     40.208525
_cell_length_b     47.086953
_cell_length_c     14.382566
_cell_angle_alpha  93.470062
_cell_angle_beta   89.963989
_cell_angle_gamma 139.82866
loop_
_atom_site_label
_atom_site_type_symbol
_atom_site_fract_x
_atom_site_fract_y
_atom_site_fract_z
_atom_type_partial_charge
La0 La 0.15907 0.65661 0.16266 0.0
La1 La 1.10365 0.67635 0.19967 0.0
C2 C 0.18819 0.62934 0.08535 0.0
C3 C 0.23404 0.64239 0.06177 0.0
C4 C 0.27432 0.66331 0.12893 0.0
C5 C 0.3136 0.66971 0.10735 0.0
C6 C 0.3134 0.65537 0.01826 0.0
C7 C 0.27396 0.63591 0.95043 0.0
C8 C 0.23474 0.62946 -0.02792 0.0
C9 C 0.16118 0.67501 0.33968 0.0
C10 C 0.22659 0.75422 0.2115 0.0
C11 C 1.0716 0.70485 0.2439 0.0
C12 C 1.03842 0.70424 0.19687 0.0
C13 C 1.03038 0.6979 0.09913 0.0
C14 C 1.00003 0.69865 0.05511 0.0
C15 C 0.977 0.70571 0.1079 0.0
C16 C 0.98507 0.71185 0.20596 0.0
C17 C 1.01548 0.71113 0.24988 0.0
C18 C 1.10507 0.65864 0.0232 0.0
C19 C 1.03798 0.57845 0.19564 0.0
O20 O 0.17873 0.62657 0.17353 0.0
O21 O 0.17837 0.64589 0.04025 0.0
O22 O 0.19666 0.68239 0.30338 0.0
O23 O 0.12447 0.65438 0.27928 0.0
O24 O 0.22518 0.72819 0.16447 0.0
O25 O 0.18459 0.73849 0.24481 0.0
O26 O 0.11573 0.72838 0.208 0.0
O27 O 1.04907 0.66681 0.26525 0.0
O28 O 1.06717 0.64793 0.05677 0.0
O29 O 0.1406 0.68067 0.08599 0.0
O30 O 1.04284 0.60812 0.23103 0.0
O31 O 1.07631 0.59049 0.15371 0.0
H32 H 0.27479 0.67368 0.19874 0.0
H33 H 0.34381 0.68542 0.16081 0.0
H34 H 0.27215 0.62399 0.88152 0.0
H35 H 0.20383 0.6129 0.91943 0.0
H36 H 1.04796 0.69278 0.0567 0.0
H37 H 0.99524 0.69431 -0.02043 0.0
H38 H 0.96732 0.71665 0.249 0.0
H39 H 1.02118 0.71605 0.32538 0.0
La40 La 0.67345 0.16787 0.38394 0.0
La41 La 0.60996 0.17968 0.35591 0.0
C42 C 0.72926 0.16592 0.4534 0.0
C43 C 0.72388 0.13246 0.47708 0.0
C44 C 0.76021 0.13617 0.44714 0.0
C45 C 0.7569 0.1056 0.46939 0.0
C46 C 0.71727 1.07066 0.52269 0.0
C47 C 0.68074 1.06689 0.55258 0.0
C48 C 0.68386 0.09737 0.52969 0.0
C49 C 0.6453 0.15733 0.20921 0.0
C50 C 0.55557 0.08357 0.33932 0.0
C51 C 0.55027 0.18184 0.32383 0.0
C52 C 0.54752 0.20918 0.368 0.0
C53 C 0.56066 0.22298 0.464 0.0
C54 C 0.55876 0.24928 0.50559 0.0
C55 C 0.54379 0.2626 0.45228 0.0
C56 C 0.53042 0.24858 0.35611 0.0
C57 C 0.53239 0.2222 0.31441 0.0
C58 C 0.64014 0.18906 0.52902 0.0
C59 C 0.7295 0.26455 0.36274 0.0
O60 O 0.72547 0.1681 0.36442 0.0
O61 O 0.70553 0.16993 0.50332 0.0
O62 O 0.65294 0.13749 0.24231 0.0
O63 O 0.65768 0.18466 0.27144 0.0
O64 O 0.59652 0.09958 0.38488 0.0
O65 O 0.55593 0.10984 0.3089 0.0
O66 O 0.53949 0.15415 0.37632 0.0
O67 O 0.59091 0.2026 0.27707 0.0
O68 O 0.63755 0.21251 0.49822 0.0
O69 O 0.62409 0.16094 0.46525 0.0
O70 O 0.68448 0.24632 0.33661 0.0
O71 O 0.7334 0.24078 0.39148 0.0
H72 H 0.7915 0.16302 0.40682 0.0
H73 H 0.78606 0.10986 0.44629 0.0
H74 H 0.64945 1.04012 0.59295 0.0
H75 H 0.65508 0.09352 0.55331 0.0
H76 H 0.57229 0.21334 0.50728 0.0
H77 H 0.5685 0.25878 0.57998 0.0
H78 H 0.51925 0.25859 0.31275 0.0
H79 H 0.52232 0.21213 0.24021 0.0
La80 La 0.68229 0.72202 0.84483 0.0
La81 La 0.60515 0.62459 0.86352 0.0
C82 C 0.74364 0.79654 0.78233 0.0
C83 C 0.73873 0.8226 0.75134 0.0
C84 C 0.78119 0.86887 0.76499 0.0
C85 C 0.7767 0.89414 0.73991 0.0
C86 C 0.72959 0.87361 0.70038 0.0
C87 C 0.68715 0.82713 0.68611 0.0
C88 C 0.6916 0.80185 0.71175 0.0
C89 C 0.65877 0.7004 0.01638 0.0
C90 C 0.5687 0.66523 0.87196 0.0
C91 C 0.53862 0.54402 0.88792 0.0
C92 C 0.53542 0.51139 0.85581 0.0
C93 C 0.49329 0.4739 0.79607 0.0
C94 C 0.49262 0.44559 0.75585 0.0
C95 C 0.53405 0.45402 0.77473 0.0
C96 C 0.57538 0.49079 0.83723 0.0
C97 C 0.57619 0.51921 0.87693 0.0
C98 C 0.63199 0.6502 0.69445 0.0
C99 C 0.72165 0.68338 0.86752 0.0
O100 O 0.73919 0.79094 0.8714 0.0
O101 O 0.71841 0.7601 0.7303 0.0
O102 O 0.67185 0.73301 -0.01468 0.0
O103 O 0.66348 0.6837 0.95455 0.0
O104 O 0.61098 0.69944 0.83158 0.0
O105 O 0.56165 0.63482 0.90143 0.0
O106 O 0.53349 0.55854 0.82164 0.0
O107 O 0.57602 0.57604 0.95061 0.0
O108 O 0.62447 0.62052 0.72485 0.0
O109 O 0.62297 0.6631 0.75637 0.0
O110 O 0.67453 0.64512 0.88584 0.0
O111 O 0.73263 0.71676 0.84466 0.0
H112 H 0.81781 0.88549 0.79574 0.0
H113 H 0.81028 0.92984 0.75086 0.0
H114 H 0.65018 0.81025 0.65685 0.0
H115 H 0.65809 0.76612 0.70145 0.0
H116 H 0.46157 0.46728 0.77804 0.0
H117 H 0.4604 0.41798 0.70737 0.0
H118 H 0.6075 0.49794 0.855 0.0
H119 H 0.60941 0.54787 0.92243 0.0
H120 H 0.36296 0.67799 0.85696 0.0
H121 H 0.35202 0.63957 0.1311 0.0
H122 H 0.42275 0.67877 0.81906 0.0
H123 H 0.41333 0.64199 0.09447 0.0
H124 H 0.47956 0.60348 -0.03723 0.0
H125 H 0.41844 0.60155 -0.00288 0.0
H126 H 0.51 0.71994 0.85728 0.0
H127 H 0.57044 0.72144 0.82132 0.0
C128 C 0.37343 0.66986 0.90931 0.0
C129 C 0.35255 0.65867 -0.00292 0.0
C130 C 0.40813 0.6707 0.88787 0.0
C131 C 0.42282 0.6603 0.95357 0.0
C132 C 0.40238 0.6496 0.04171 0.0
C133 C 0.36775 0.64883 0.06321 0.0
C134 C 0.48648 0.62893 0.93876 0.0
C135 C 0.52996 0.66257 0.88917 0.0
C136 C 0.45163 0.62804 -0.04084 0.0
C137 C 0.45934 0.66071 0.93036 0.0
C138 C 0.50247 0.69397 0.87968 0.0
C139 C 0.53732 0.69491 0.8594 0.0
H140 H 0.73411 0.32281 0.31896 0.0
H141 H 0.83108 0.31323 0.37048 0.0
H142 H 0.80804 0.39728 0.27601 0.0
H143 H 0.90627 0.38923 0.32984 0.0
H144 H 1.01533 0.50734 0.14789 0.0
H145 H 0.94231 0.43215 0.19373 0.0
H146 H 0.88551 0.47015 0.34075 0.0
H147 H 0.95691 0.54425 0.293 0.0
C148 C 0.77142 0.33679 0.32245 0.0
C149 C 0.77652 0.31185 0.34814 0.0
C150 C 0.81403 0.37979 0.29811 0.0
C151 C 0.86321 0.39937 0.29927 0.0
C152 C 0.86877 0.37491 0.327 0.0
C153 C 0.82583 0.33156 0.35137 0.0
C154 C 0.98689 0.49944 0.18907 0.0
C155 C 0.99188 0.53183 0.21609 0.0
C156 C 0.94538 0.45648 0.21631 0.0
C157 C 0.90805 0.44506 0.27116 0.0
C158 C 0.91304 0.47749 0.29744 0.0
C159 C 0.9542 0.52016 0.27002 0.0
H160 H 0.69799 1.03789 0.69174 0.0
H161 H 0.73132 1.03166 0.41092 0.0
H162 H 0.69769 0.98826 0.73466 0.0
H163 H 0.73215 0.98287 0.45431 0.0
H164 H 0.68142 0.86266 0.54229 0.0
H165 H 0.67473 0.90771 0.49987 0.0
H166 H 0.76115 0.9913 0.75753 0.0
H167 H 0.76685 0.94574 0.80082 0.0
C168 C 0.70486 1.02567 0.63898 0.0
C169 C 0.71482 1.03887 0.54795 0.0
C170 C 0.70521 0.99758 0.66382 0.0
C171 C 0.7151 0.98171 0.59804 0.0
C172 C 0.724 0.99419 0.50652 0.0
C173 C 0.72403 1.02251 0.48189 0.0
C174 C 0.69856 0.8904 0.59027 0.0
C175 C 0.7248 0.90064 0.67485 0.0
C176 C 0.69513 0.91646 0.56558 0.0
C177 C 0.71746 0.95318 0.62522 0.0
C178 C 0.7431 0.96304 0.71034 0.0
C179 C 0.74686 0.9372 0.73469 0.0
H180 H 0.71084 0.61918 0.87695 0.0
H181 H 0.82665 0.76118 0.89673 0.0
H182 H 0.7758 0.62749 0.92575 0.0
H183 H 0.89256 0.7696 0.94429 0.0
H184 H 0.97212 0.75998 0.15331 0.0
H185 H 0.91438 0.75716 0.0828 0.0
H186 H 0.85111 0.65055 0.88331 0.0
H187 H 0.9072 0.6521 0.95611 0.0
C188 C 0.75044 0.6523 0.89031 0.0
C189 C 0.76342 0.68954 0.88349 0.0
C190 C 0.78789 0.65706 0.91779 0.0
C191 C 0.83951 0.69922 0.93946 0.0
C192 C 0.85302 0.73662 0.92923 0.0
C193 C 0.81539 0.73183 0.90109 0.0
C194 C 0.94574 0.73579 0.09465 0.0
C195 C 0.94409 0.70598 0.06112 0.0
C196 C 0.91313 0.73462 0.05329 0.0
C197 C 0.87791 0.70355 -0.02258 0.0
C198 C 0.8773 0.67459 0.94228 0.0
C199 C 0.90989 0.67577 -0.01644 0.0
H200 H 0.54216 1.01859 0.37282 0.0
H201 H 0.46248 1.03875 0.2588 0.0
H202 H 0.46373 0.93864 0.3402 0.0
H203 H 0.38475 0.95926 0.2258 0.0
H204 H 0.24098 0.81727 0.29059 0.0
H205 H 0.32127 0.89613 0.32048 0.0
H206 H 0.40542 0.87975 0.20467 0.0
H207 H 0.32448 0.79999 0.17499 0.0
C208 C 0.50805 1.00606 0.3407 0.0
C209 C 0.50854 1.03511 0.31896 0.0
C210 C 0.46329 0.96029 0.32146 0.0
C211 C 0.41806 0.9427 0.28084 0.0
C212 C 0.41881 0.9718 0.25828 0.0
C213 C 0.46349 1.01742 0.27692 0.0
C214 C 0.27647 0.83023 0.27148 0.0
C215 C 0.27619 0.8022 0.23012 0.0
C216 C 0.32251 0.87558 0.28819 0.0
C217 C 0.3696 0.89419 0.26436 0.0
C218 C 0.36968 0.86625 0.22419 0.0
C219 C 0.32334 0.82066 0.20679 0.0
H220 H 0.61739 0.47987 0.70817 0.0
H221 H 0.4531 0.36372 0.73179 0.0
H222 H 0.61948 0.43405 0.62965 0.0
H223 H 0.45522 0.31793 0.65193 0.0
H224 H 0.47113 0.25679 0.4226 0.0
H225 H 0.4687 0.30299 0.49865 0.0
H226 H 0.61013 0.37818 0.66229 0.0
H227 H 0.61346 0.33308 0.58435 0.0
C228 C 0.58175 0.44451 0.69764 0.0
C229 C 0.53511 0.42561 0.72709 0.0
C230 C 0.58296 0.4182 0.65222 0.0
C231 C 0.53754 0.37224 0.63446 0.0
C232 C 0.49082 0.35328 0.66333 0.0
C233 C 0.48963 0.3796 0.7092 0.0
C234 C 0.50199 0.28348 0.47409 0.0
C235 C 0.54245 0.29111 0.49733 0.0
C236 C 0.50028 0.30965 0.51849 0.0
C237 C 0.53916 0.34429 0.58682 0.0
C238 C 0.57979 0.3521 0.60943 0.0
C239 C 0.58139 0.32588 0.56538 0.0
H240 H 0.19609 0.70934 0.94519 0.0
H241 H 1.03212 0.6105 0.87756 0.0
H242 H 0.21111 0.71574 0.78027 0.0
H243 H 1.04656 0.61495 0.71131 0.0
H244 H 1.09363 0.66579 0.4254 0.0
H245 H 1.08033 0.66202 0.59179 0.0
H246 H 0.20142 0.67959 0.64457 0.0
H247 H 0.21631 0.68579 0.47921 0.0
C248 C 0.16314 0.6884 0.89464 0.0
C249 C 1.11294 0.65942 0.9235 0.0
C250 C 0.17169 0.6919 0.80004 0.0
C251 C 0.13008 0.66591 0.73229 0.0
C252 C 1.07961 0.63612 0.76159 0.0
C253 C 1.07118 0.63317 0.85654 0.0
C254 C 0.11769 0.66936 0.47316 0.0
C255 C 0.15598 0.67614 0.44018 0.0
C256 C 1.10975 0.66671 0.56818 0.0
C257 C 0.13948 0.67009 0.63162 0.0
C258 C 0.17831 0.67749 0.59809 0.0
C259 C 0.1868 0.68091 0.50333 0.0
H260 H 0.6578 0.12625 0.06711 0.0
H261 H 0.62526 0.19388 0.12741 0.0
H262 H 0.66015 0.13609 0.90244 0.0
H263 H 0.62428 0.20146 -0.03845 0.0
H264 H 0.67866 0.24899 0.6749 0.0
H265 H 0.68026 0.24108 0.84053 0.0
H266 H 0.60846 0.11204 0.76928 0.0
H267 H 0.60989 0.12138 0.60467 0.0
C268 C 0.65016 0.1425 0.04459 0.0
C269 C 0.6414 0.15939 0.10934 0.0
C270 C 0.65129 0.14801 0.95021 0.0
C271 C 0.64256 0.1697 0.91865 0.0
C272 C 0.6323 0.18547 -0.01633 0.0
C273 C 0.6322 0.18069 0.0784 0.0
C274 C 0.66388 0.21928 0.69528 0.0
C275 C 0.64425 0.18584 0.62786 0.0
C276 C 0.66422 0.21446 0.78986 0.0
C277 C 0.64408 0.17574 0.81831 0.0
C278 C 0.62502 0.14258 0.75005 0.0
C279 C 0.62559 0.14779 0.6557 0.0
H280 H 0.66694 0.63606 0.56149 0.0
H281 H 0.6131 0.68696 0.60917 0.0
H282 H 0.67558 0.65005 0.39766 0.0
H283 H 0.61831 0.69836 0.44467 0.0
H284 H 0.67557 0.75023 0.16235 0.0
H285 H 0.67316 0.74093 0.32756 0.0
H286 H 0.62632 0.62295 0.25817 0.0
H287 H 0.63275 0.63457 0.09348 0.0
C288 C 0.65675 0.65006 0.5364 0.0
C289 C 0.63934 0.66042 0.59713 0.0
C290 C 0.66116 0.65769 0.44251 0.0
C291 C 0.64716 0.67495 0.40738 0.0
C292 C 0.63024 0.68571 0.46919 0.0
C293 C 0.6269 0.67893 0.56338 0.0
C294 C 0.66477 0.72234 0.18272 0.0
C295 C 0.65406 0.69293 0.1155 0.0
C296 C 0.66304 0.71679 0.2774 0.0
C297 C 0.64948 0.68113 0.30661 0.0
C298 C 0.63792 0.6513 0.23864 0.0
C299 C 0.64079 0.65748 0.14407 0.0
loop_
_geom_bond_atom_site_label_1
_geom_bond_atom_site_label_2
_geom_bond_distance
_geom_bond_site_symmetry_2
_ccdc_geom_bond_type
La0 C2 2.928 . S
La0 O20 2.521 . S
La0 O21 2.628 . S
La0 O22 2.554 . S
La0 O23 2.757 . S
La0 O24 2.470 . S
La0 O29 2.482 . S
La0 O31 2.503 1_455 S
La1 C11 2.928 . S
La1 O23 2.482 1_655 S
La1 O25 2.503 1_655 S
La1 O26 2.521 . S
La1 O27 2.628 . S
La1 O28 2.554 1_554 S
La1 O29 2.757 1_655 S
La1 O30 2.470 . S
C2 La0 2.928 . S
C2 C3 1.503 . S
C2 O20 1.261 . S
C2 O21 1.243 . S
C3 C2 1.503 . S
C3 C4 1.394 . S
C3 C8 1.373 . S
C4 C3 1.394 . S
C4 C5 1.380 . S
C4 H32 0.930 . S
C5 C4 1.380 . S
C5 C6 1.376 . S
C5 H33 0.930 . S
C6 C5 1.376 . S
C6 C7 1.370 . S
C7 C6 1.370 . S
C7 C8 1.396 . S
C7 H34 0.929 . S
C8 C3 1.373 . S
C8 C7 1.396 . S
C8 H35 0.929 . S
C9 O22 1.240 . S
C9 O23 1.289 . S
C10 O24 1.258 . S
C10 O25 1.256 . S
C11 La1 2.928 . S
C11 C12 1.503 . S
C11 O26 1.261 . S
C11 O27 1.243 . S
C12 C11 1.503 . S
C12 C13 1.394 . S
C12 C17 1.373 . S
C13 C12 1.394 . S
C13 C14 1.380 . S
C13 H36 0.930 . S
C14 C13 1.380 . S
C14 C15 1.376 . S
C14 H37 0.930 . S
C15 C14 1.376 . S
C15 C16 1.370 . S
C16 C15 1.370 . S
C16 C17 1.396 . S
C16 H38 0.929 . S
C17 C12 1.373 . S
C17 C16 1.396 . S
C17 H39 0.929 . S
C18 O28 1.240 1_455 S
C18 O29 1.289 1_556 S
C19 O30 1.258 . S
C19 O31 1.256 . S
O20 La0 2.521 . S
O20 C2 1.261 . S
O21 La0 2.628 . S
O21 C2 1.243 . S
O22 La0 2.554 . S
O22 C9 1.240 . S
O23 La0 2.757 . S
O23 La1 2.482 1_455 S
O23 C9 1.289 . S
O24 La0 2.470 . S
O24 C10 1.258 . S
O25 La1 2.503 1_455 S
O25 C10 1.256 . S
O26 La1 2.521 . S
O26 C11 1.261 . S
O27 La1 2.628 . S
O27 C11 1.243 . S
O28 La1 2.554 1_556 S
O28 C18 1.240 1_655 S
O29 La0 2.482 . S
O29 La1 2.757 1_455 S
O29 C18 1.289 1_554 S
O30 La1 2.470 . S
O30 C19 1.258 . S
O31 La0 2.503 1_655 S
O31 C19 1.256 . S
H32 C4 0.930 . S
H33 C5 0.930 . S
H34 C7 0.929 . S
H35 C8 0.929 . S
H36 C13 0.930 . S
H37 C14 0.930 . S
H38 C16 0.929 . S
H39 C17 0.929 . S
La40 C42 2.928 . S
La40 O60 2.521 . S
La40 O61 2.628 . S
La40 O62 2.554 . S
La40 O63 2.757 . S
La40 O64 2.470 . S
La40 O69 2.482 . S
La40 O71 2.503 . S
La41 C51 2.928 . S
La41 O63 2.482 . S
La41 O65 2.503 . S
La41 O66 2.521 . S
La41 O67 2.628 . S
La41 O68 2.554 . S
La41 O69 2.757 . S
La41 O70 2.470 . S
C42 La40 2.928 . S
C42 C43 1.503 1_545 S
C42 O60 1.261 . S
C42 O61 1.243 . S
C43 C42 1.503 1_565 S
C43 C44 1.394 . S
C43 C48 1.373 . S
C44 C43 1.394 . S
C44 C45 1.380 . S
C44 H72 0.930 . S
C45 C44 1.380 . S
C45 C46 1.376 . S
C45 H73 0.930 . S
C46 C45 1.376 . S
C46 C47 1.370 . S
C47 C46 1.370 . S
C47 C48 1.396 . S
C47 H74 0.929 . S
C48 C43 1.373 . S
C48 C47 1.396 . S
C48 H75 0.929 . S
C49 O62 1.240 . S
C49 O63 1.289 . S
C50 O64 1.258 . S
C50 O65 1.256 . S
C51 La41 2.928 . S
C51 C52 1.503 . S
C51 O66 1.261 . S
C51 O67 1.243 . S
C52 C51 1.503 . S
C52 C53 1.394 . S
C52 C57 1.373 . S
C53 C52 1.394 . S
C53 C54 1.380 . S
C53 H76 0.930 . S
C54 C53 1.380 . S
C54 C55 1.376 . S
C54 H77 0.930 . S
C55 C54 1.376 . S
C55 C56 1.370 . S
C56 C55 1.370 . S
C56 C57 1.396 . S
C56 H78 0.929 . S
C57 C52 1.373 . S
C57 C56 1.396 . S
C57 H79 0.929 . S
C58 O68 1.240 . S
C58 O69 1.289 . S
C59 O70 1.258 . S
C59 O71 1.256 . S
O60 La40 2.521 . S
O60 C42 1.261 . S
O61 La40 2.628 . S
O61 C42 1.243 . S
O62 La40 2.554 . S
O62 C49 1.240 . S
O63 La40 2.757 . S
O63 La41 2.482 . S
O63 C49 1.289 . S
O64 La40 2.470 . S
O64 C50 1.258 . S
O65 La41 2.503 . S
O65 C50 1.256 . S
O66 La41 2.521 . S
O66 C51 1.261 . S
O67 La41 2.628 . S
O67 C51 1.243 . S
O68 La41 2.554 . S
O68 C58 1.240 . S
O69 La40 2.482 . S
O69 La41 2.757 . S
O69 C58 1.289 . S
O70 La41 2.470 . S
O70 C59 1.258 . S
O71 La40 2.503 . S
O71 C59 1.256 . S
H72 C44 0.930 . S
H73 C45 0.930 . S
H74 C47 0.929 . S
H75 C48 0.929 . S
H76 C53 0.930 . S
H77 C54 0.930 . S
H78 C56 0.929 . S
H79 C57 0.929 . S
La80 C82 2.928 . S
La80 O100 2.521 . S
La80 O101 2.628 . S
La80 O102 2.554 1_556 S
La80 O103 2.757 . S
La80 O104 2.470 . S
La80 O109 2.482 . S
La80 O111 2.503 . S
La81 C91 2.928 . S
La81 O103 2.482 . S
La81 O105 2.503 . S
La81 O106 2.521 . S
La81 O107 2.628 . S
La81 O108 2.554 . S
La81 O109 2.757 . S
La81 O110 2.470 . S
C82 La80 2.928 . S
C82 C83 1.503 . S
C82 O100 1.261 . S
C82 O101 1.243 . S
C83 C82 1.503 . S
C83 C84 1.394 . S
C83 C88 1.373 . S
C84 C83 1.394 . S
C84 C85 1.380 . S
C84 H112 0.939 . S
C85 C84 1.380 . S
C85 C86 1.376 . S
C85 H113 0.930 . S
C86 C85 1.376 . S
C86 C87 1.370 . S
C87 C86 1.370 . S
C87 C88 1.396 . S
C87 H114 0.929 . S
C88 C83 1.373 . S
C88 C87 1.396 . S
C88 H115 0.929 . S
C89 O102 1.240 . S
C89 O103 1.289 1_554 S
C90 O104 1.258 . S
C90 O105 1.256 . S
C91 La81 2.928 . S
C91 C92 1.503 . S
C91 O106 1.261 . S
C91 O107 1.243 . S
C92 C91 1.503 . S
C92 C93 1.394 . S
C92 C97 1.373 . S
C93 C92 1.394 . S
C93 C94 1.380 . S
C93 H116 0.930 . S
C94 C93 1.380 . S
C94 C95 1.376 . S
C94 H117 0.930 . S
C95 C94 1.376 . S
C95 C96 1.370 . S
C96 C95 1.370 . S
C96 C97 1.396 . S
C96 H118 0.929 . S
C97 C92 1.373 . S
C97 C96 1.396 . S
C97 H119 0.929 . S
C98 O108 1.240 . S
C98 O109 1.289 . S
C99 O110 1.258 . S
C99 O111 1.256 . S
O100 La80 2.521 . S
O100 C82 1.261 . S
O101 La80 2.628 . S
O101 C82 1.243 . S
O102 La80 2.554 1_554 S
O102 C89 1.240 . S
O103 La80 2.757 . S
O103 La81 2.482 . S
O103 C89 1.289 1_556 S
O104 La80 2.470 . S
O104 C90 1.258 . S
O105 La81 2.503 . S
O105 C90 1.256 . S
O106 La81 2.521 . S
O106 C91 1.261 . S
O107 La81 2.628 . S
O107 C91 1.243 . S
O108 La81 2.554 . S
O108 C98 1.240 . S
O109 La80 2.482 . S
O109 La81 2.757 . S
O109 C98 1.289 . S
O110 La81 2.470 . S
O110 C99 1.258 . S
O111 La80 2.503 . S
O111 C99 1.256 . S
H112 C84 0.939 . S
H113 C85 0.930 . S
H114 C87 0.929 . S
H115 C88 0.929 . S
H116 C93 0.930 . S
H117 C94 0.930 . S
H118 C96 0.929 . S
H119 C97 0.929 . S
H120 C128 0.950 . S
H121 C133 0.950 . S
H122 C130 0.950 . S
H123 C132 0.950 . S
H124 C134 0.950 1_554 S
H125 C136 0.950 . S
H126 C138 0.950 . S
H127 C139 0.950 . S
C128 H120 0.950 . S
C128 C129 1.386 1_556 S
C128 C130 1.391 . S
C129 C128 1.386 1_554 S
C129 C133 1.393 . S
C130 H122 0.950 . S
C130 C128 1.391 . S
C130 C131 1.400 1_556 S
C131 C130 1.400 1_554 S
C131 C132 1.398 . S
C131 C137 1.491 1_554 S
C132 H123 0.950 . S
C132 C131 1.398 . S
C132 C133 1.391 . S
C133 H121 0.950 . S
C133 C129 1.393 . S
C133 C132 1.391 . S
C134 H124 0.950 1_556 S
C134 C135 1.386 . S
C134 C136 1.391 1_556 S
C135 C134 1.386 . S
C135 C139 1.393 . S
C136 H125 0.950 . S
C136 C134 1.391 1_554 S
C136 C137 1.400 1_554 S
C137 C131 1.491 1_556 S
C137 C136 1.400 1_556 S
C137 C138 1.398 . S
C138 H126 0.950 . S
C138 C137 1.398 . S
C138 C139 1.391 . S
C139 H127 0.950 . S
C139 C135 1.393 . S
C139 C138 1.391 . S
H140 C148 0.950 . S
H141 C153 0.950 . S
H142 C150 0.950 . S
H143 C152 0.950 . S
H144 C154 0.950 . S
H145 C156 0.950 . S
H146 C158 0.950 . S
H147 C159 0.950 . S
C148 H140 0.950 . S
C148 C149 1.386 . S
C148 C150 1.391 . S
C149 C148 1.386 . S
C149 C153 1.393 . S
C150 H142 0.950 . S
C150 C148 1.391 . S
C150 C151 1.400 . S
C151 C150 1.400 . S
C151 C152 1.398 . S
C151 C157 1.491 . S
C152 H143 0.950 . S
C152 C151 1.398 . S
C152 C153 1.391 . S
C153 H141 0.950 . S
C153 C149 1.393 . S
C153 C152 1.391 . S
C154 H144 0.950 . S
C154 C155 1.386 . S
C154 C156 1.391 . S
C155 C154 1.386 . S
C155 C159 1.393 . S
C156 H145 0.950 . S
C156 C154 1.391 . S
C156 C157 1.400 . S
C157 C151 1.491 . S
C157 C156 1.400 . S
C157 C158 1.398 . S
C158 H146 0.950 . S
C158 C157 1.398 . S
C158 C159 1.391 . S
C159 H147 0.950 . S
C159 C155 1.393 . S
C159 C158 1.391 . S
H160 C168 0.950 . S
H161 C173 0.950 . S
H162 C170 0.950 . S
H163 C172 0.950 . S
H164 C174 0.950 . S
H165 C176 0.950 . S
H166 C178 0.950 . S
H167 C179 0.950 . S
C168 H160 0.950 . S
C168 C169 1.386 . S
C168 C170 1.391 . S
C169 C168 1.386 . S
C169 C173 1.393 . S
C170 H162 0.950 . S
C170 C168 1.391 . S
C170 C171 1.400 . S
C171 C170 1.400 . S
C171 C172 1.398 . S
C171 C177 1.491 . S
C172 H163 0.950 . S
C172 C171 1.398 . S
C172 C173 1.391 . S
C173 H161 0.950 . S
C173 C169 1.393 . S
C173 C172 1.391 . S
C174 H164 0.950 . S
C174 C175 1.386 . S
C174 C176 1.391 . S
C175 C174 1.386 . S
C175 C179 1.393 . S
C176 H165 0.950 . S
C176 C174 1.391 . S
C176 C177 1.400 . S
C177 C171 1.491 . S
C177 C176 1.400 . S
C177 C178 1.398 . S
C178 H166 0.950 . S
C178 C177 1.398 . S
C178 C179 1.391 . S
C179 H167 0.950 . S
C179 C175 1.393 . S
C179 C178 1.391 . S
H180 C188 0.950 . S
H181 C193 0.950 . S
H182 C190 0.950 . S
H183 C192 0.950 . S
H184 C194 0.950 . S
H185 C196 0.950 . S
H186 C198 0.950 1_556 S
H187 C199 0.950 . S
C188 H180 0.950 . S
C188 C189 1.386 . S
C188 C190 1.391 . S
C189 C188 1.386 . S
C189 C193 1.393 1_556 S
C190 H182 0.950 . S
C190 C188 1.391 . S
C190 C191 1.400 1_556 S
C191 C190 1.400 1_554 S
C191 C192 1.398 . S
C191 C197 1.491 . S
C192 H183 0.950 . S
C192 C191 1.398 . S
C192 C193 1.391 . S
C193 H181 0.950 . S
C193 C189 1.393 1_554 S
C193 C192 1.391 . S
C194 H184 0.950 . S
C194 C195 1.386 . S
C194 C196 1.391 . S
C195 C194 1.386 . S
C195 C199 1.393 . S
C196 H185 0.950 . S
C196 C194 1.391 . S
C196 C197 1.400 . S
C197 C191 1.491 . S
C197 C196 1.400 . S
C197 C198 1.398 . S
C198 H186 0.950 1_554 S
C198 C197 1.398 . S
C198 C199 1.391 . S
C199 H187 0.950 . S
C199 C195 1.393 . S
C199 C198 1.391 . S
H200 C208 0.950 . S
H201 C213 0.950 . S
H202 C210 0.950 . S
H203 C212 0.950 . S
H204 C214 0.950 . S
H205 C216 0.950 . S
H206 C218 0.950 . S
H207 C219 0.950 . S
C208 H200 0.950 . S
C208 C209 1.386 . S
C208 C210 1.391 . S
C209 C208 1.386 . S
C209 C213 1.393 . S
C210 H202 0.950 . S
C210 C208 1.391 . S
C210 C211 1.400 . S
C211 C210 1.400 . S
C211 C212 1.398 . S
C211 C217 1.491 . S
C212 H203 0.950 . S
C212 C211 1.398 . S
C212 C213 1.391 . S
C213 H201 0.950 . S
C213 C209 1.393 . S
C213 C212 1.391 . S
C214 H204 0.950 . S
C214 C215 1.386 . S
C214 C216 1.391 . S
C215 C214 1.386 . S
C215 C219 1.393 . S
C216 H205 0.950 . S
C216 C214 1.391 . S
C216 C217 1.400 . S
C217 C211 1.491 . S
C217 C216 1.400 . S
C217 C218 1.398 . S
C218 H206 0.950 . S
C218 C217 1.398 . S
C218 C219 1.391 . S
C219 H207 0.950 . S
C219 C215 1.393 . S
C219 C218 1.391 . S
H220 C228 0.950 . S
H221 C233 0.950 . S
H222 C230 0.950 . S
H223 C232 0.950 . S
H224 C234 0.950 . S
H225 C236 0.950 . S
H226 C238 0.950 . S
H227 C239 0.950 . S
C228 H220 0.950 . S
C228 C229 1.386 . S
C228 C230 1.391 . S
C229 C228 1.386 . S
C229 C233 1.393 . S
C230 H222 0.950 . S
C230 C228 1.391 . S
C230 C231 1.400 . S
C231 C230 1.400 . S
C231 C232 1.398 . S
C231 C237 1.491 . S
C232 H223 0.950 . S
C232 C231 1.398 . S
C232 C233 1.391 . S
C233 H221 0.950 . S
C233 C229 1.393 . S
C233 C232 1.391 . S
C234 H224 0.950 . S
C234 C235 1.386 . S
C234 C236 1.391 . S
C235 C234 1.386 . S
C235 C239 1.393 . S
C236 H225 0.950 . S
C236 C234 1.391 . S
C236 C237 1.400 . S
C237 C231 1.491 . S
C237 C236 1.400 . S
C237 C238 1.398 . S
C238 H226 0.950 . S
C238 C237 1.398 . S
C238 C239 1.391 . S
C239 H227 0.950 . S
C239 C235 1.393 . S
C239 C238 1.391 . S
H240 C248 0.950 1_655 S
H241 C253 0.950 . S
H242 C250 0.950 1_655 S
H243 C252 0.950 . S
H244 C254 0.950 . S
H245 C256 0.950 . S
H246 C258 0.950 . S
H247 C259 0.950 . S
C248 H240 0.950 1_455 S
C248 C249 1.386 . S
C248 C250 1.391 . S
C249 C248 1.386 . S
C249 C253 1.393 . S
C250 H242 0.950 1_455 S
C250 C248 1.391 . S
C250 C251 1.400 . S
C251 C250 1.400 . S
C251 C252 1.398 . S
C251 C257 1.491 . S
C252 H243 0.950 . S
C252 C251 1.398 . S
C252 C253 1.391 . S
C253 H241 0.950 . S
C253 C249 1.393 . S
C253 C252 1.391 . S
C254 H244 0.950 . S
C254 C255 1.386 . S
C254 C256 1.391 . S
C255 C254 1.386 . S
C255 C259 1.393 1_455 S
C256 H245 0.950 . S
C256 C254 1.391 . S
C256 C257 1.400 . S
C257 C251 1.491 . S
C257 C256 1.400 . S
C257 C258 1.398 1_455 S
C258 H246 0.950 . S
C258 C257 1.398 1_655 S
C258 C259 1.391 . S
C259 H247 0.950 . S
C259 C255 1.393 1_655 S
C259 C258 1.391 . S
H260 C268 0.950 . S
H261 C273 0.950 . S
H262 C270 0.950 . S
H263 C272 0.950 . S
H264 C274 0.950 . S
H265 C276 0.950 . S
H266 C278 0.950 . S
H267 C279 0.950 . S
C268 H260 0.950 . S
C268 C269 1.386 . S
C268 C270 1.391 . S
C269 C268 1.386 . S
C269 C273 1.393 . S
C270 H262 0.950 . S
C270 C268 1.391 . S
C270 C271 1.400 . S
C271 C270 1.400 . S
C271 C272 1.398 . S
C271 C277 1.491 1_554 S
C272 H263 0.950 . S
C272 C271 1.398 . S
C272 C273 1.391 . S
C273 H261 0.950 . S
C273 C269 1.393 . S
C273 C272 1.391 . S
C274 H264 0.950 . S
C274 C275 1.386 . S
C274 C276 1.391 . S
C275 C274 1.386 . S
C275 C279 1.393 . S
C276 H265 0.950 . S
C276 C274 1.391 . S
C276 C277 1.400 . S
C277 C271 1.491 1_556 S
C277 C276 1.400 . S
C277 C278 1.398 . S
C278 H266 0.950 . S
C278 C277 1.398 . S
C278 C279 1.391 . S
C279 H267 0.950 . S
C279 C275 1.393 . S
C279 C278 1.391 . S
H280 C288 0.950 . S
H281 C293 0.950 . S
H282 C290 0.950 . S
H283 C292 0.950 . S
H284 C294 0.950 . S
H285 C296 0.950 . S
H286 C298 0.950 . S
H287 C299 0.950 . S
C288 H280 0.950 . S
C288 C289 1.386 . S
C288 C290 1.391 . S
C289 C288 1.386 . S
C289 C293 1.393 . S
C290 H282 0.950 . S
C290 C288 1.391 . S
C290 C291 1.400 . S
C291 C290 1.400 . S
C291 C292 1.398 . S
C291 C297 1.491 . S
C292 H283 0.950 . S
C292 C291 1.398 . S
C292 C293 1.391 . S
C293 H281 0.950 . S
C293 C289 1.393 . S
C293 C292 1.391 . S
C294 H284 0.950 . S
C294 C295 1.386 . S
C294 C296 1.391 . S
C295 C294 1.386 . S
C295 C299 1.393 . S
C296 H285 0.950 . S
C296 C294 1.391 . S
C296 C297 1.400 . S
C297 C291 1.491 . S
C297 C296 1.400 . S
C297 C298 1.398 . S
C298 H286 0.950 . S
C298 C297 1.398 . S
C298 C299 1.391 . S
C299 H287 0.950 . S
C299 C295 1.393 . S
C299 C298 1.391 . S
C129 C6 2.212 . S
C135 C90 2.176 . S
C149 C59 3.022 . S
C155 C19 2.967 . S
C169 C46 1.564 . S
C175 C86 1.561 . S
C189 C99 2.584 . S
C195 C15 2.457 . S
C209 C50 2.680 1_565 S
C215 C10 2.646 . S
C229 C95 1.536 . S
C235 C55 1.532 . S
C249 C18 0.551 . S
C255 C9 0.551 . S
C269 C49 0.550 . S
C275 C58 0.550 . S
C289 C98 0.509 . S
C295 C89 0.509 . S
