# Generated by pormake.
# Topology ecc, (8)-cn, num edge types: 1
# Building blocks:
#     Node 0, Type 0, BuildingBlock: LIZSOE_clean_sbu_0, # of connection points: 8
#     Node 1, Type 0, BuildingBlock: LIZSOE_clean_sbu_0, # of connection points: 8
#     Node 2, Type 0, BuildingBlock: LIZSOE_clean_sbu_0, # of connection points: 8
#     Node 3, Type 0, BuildingBlock: LIZSOE_clean_sbu_0, # of connection points: 8
#     Node 4, Type 0, BuildingBlock: LIZSOE_clean_sbu_0, # of connection points: 8
#     Node 5, Type 0, BuildingBlock: LIZSOE_clean_sbu_0, # of connection points: 8
#     Node 6, Type 0, BuildingBlock: LIZSOE_clean_sbu_0, # of connection points: 8
#     Node 7, Type 0, BuildingBlock: LIZSOE_clean_sbu_0, # of connection points: 8
#     Node 8, Type 0, BuildingBlock: LIZSOE_clean_sbu_0, # of connection points: 8
#     Node 9, Type 0, BuildingBlock: LIZSOE_clean_sbu_0, # of connection points: 8
#     Node 10, Type 0, BuildingBlock: LIZSOE_clean_sbu_0, # of connection points: 8
#     Node 11, Type 0, BuildingBlock: LIZSOE_clean_sbu_0, # of connection points: 8
#     Node 12, Type 0, BuildingBlock: LIZSOE_clean_sbu_0, # of connection points: 8
#     Node 13, Type 0, BuildingBlock: LIZSOE_clean_sbu_0, # of connection points: 8
#     Node 14, Type 0, BuildingBlock: LIZSOE_clean_sbu_0, # of connection points: 8
#     Node 15, Type 0, BuildingBlock: LIZSOE_clean_sbu_0, # of connection points: 8
#     Node 16, Type 0, BuildingBlock: LIZSOE_clean_sbu_0, # of connection points: 8
#     Node 17, Type 0, BuildingBlock: LIZSOE_clean_sbu_0, # of connection points: 8
#     Edge 18, Type (0, 0), None
#     Edge 19, Type (0, 0), None
#     Edge 20, Type (0, 0), None
#     Edge 21, Type (0, 0), None
#     Edge 22, Type (0, 0), None
#     Edge 23, Type (0, 0), None
#     Edge 24, Type (0, 0), None
#     Edge 25, Type (0, 0), None
#     Edge 26, Type (0, 0), None
#     Edge 27, Type (0, 0), None
#     Edge 28, Type (0, 0), None
#     Edge 29, Type (0, 0), None
#     Edge 30, Type (0, 0), None
#     Edge 31, Type (0, 0), None
#     Edge 32, Type (0, 0), None
#     Edge 33, Type (0, 0), None
#     Edge 34, Type (0, 0), None
#     Edge 35, Type (0, 0), None
#     Edge 36, Type (0, 0), None
#     Edge 37, Type (0, 0), None
#     Edge 38, Type (0, 0), None
#     Edge 39, Type (0, 0), None
#     Edge 40, Type (0, 0), None
#     Edge 41, Type (0, 0), None
#     Edge 42, Type (0, 0), None
#     Edge 43, Type (0, 0), None
#     Edge 44, Type (0, 0), None
#     Edge 45, Type (0, 0), None
#     Edge 46, Type (0, 0), None
#     Edge 47, Type (0, 0), None
#     Edge 48, Type (0, 0), None
#     Edge 49, Type (0, 0), None
#     Edge 50, Type (0, 0), None
#     Edge 51, Type (0, 0), None
#     Edge 52, Type (0, 0), None
#     Edge 53, Type (0, 0), None
#     Edge 54, Type (0, 0), None
#     Edge 55, Type (0, 0), None
#     Edge 56, Type (0, 0), None
#     Edge 57, Type (0, 0), None
#     Edge 58, Type (0, 0), None
#     Edge 59, Type (0, 0), None
#     Edge 60, Type (0, 0), None
#     Edge 61, Type (0, 0), None
#     Edge 62, Type (0, 0), None
#     Edge 63, Type (0, 0), None
#     Edge 64, Type (0, 0), None
#     Edge 65, Type (0, 0), None
#     Edge 66, Type (0, 0), None
#     Edge 67, Type (0, 0), None
#     Edge 68, Type (0, 0), None
#     Edge 69, Type (0, 0), None
#     Edge 70, Type (0, 0), None
#     Edge 71, Type (0, 0), None
#     Edge 72, Type (0, 0), None
#     Edge 73, Type (0, 0), None
#     Edge 74, Type (0, 0), None
#     Edge 75, Type (0, 0), None
#     Edge 76, Type (0, 0), None
#     Edge 77, Type (0, 0), None
#     Edge 78, Type (0, 0), None
#     Edge 79, Type (0, 0), None
#     Edge 80, Type (0, 0), None
#     Edge 81, Type (0, 0), None
#     Edge 82, Type (0, 0), None
#     Edge 83, Type (0, 0), None
#     Edge 84, Type (0, 0), None
#     Edge 85, Type (0, 0), None
#     Edge 86, Type (0, 0), None
#     Edge 87, Type (0, 0), None
#     Edge 88, Type (0, 0), None
#     Edge 89, Type (0, 0), None
# Relax obj value: 0.424
# Max RMSD: 0.299
# Mean RMSD: 0.299
data_MOF--net-ecc--node1-LIZSOE_clean_sbu_0--edge1-none
_symmetry_space_group_name_H-M    P1
_symmetry_Int_Tables_number       1
_symmetry_cell_setting            triclinic
loop_
_symmetry_equiv_pos_as_xyz
'x, y, z'
_cell_length_a     22.986362
_cell_length_b     22.987039
_cell_length_c     17.480178
_cell_angle_alpha  89.999712
_cell_angle_beta   90.000527
_cell_angle_gamma 120.00299
loop_
_atom_site_label
_atom_site_type_symbol
_atom_site_fract_x
_atom_site_fract_y
_atom_site_fract_z
_atom_type_partial_charge
Co0 Co 0.19055 0.08244 0.95553 0.0
N1 N 0.23411 0.13889 1.03336 0.0
C2 C 0.27689 0.20423 1.03146 0.0
N3 N 0.24195 0.17449 0.15212 0.0
C4 C 0.23397 0.12355 0.1091 0.0
C5 C 0.2892 0.22447 0.1061 0.0
Co6 Co 0.11012 0.92159 0.64285 0.0
N7 N 0.09722 0.8652 0.56497 0.0
N8 N 0.06943 0.82962 0.44628 0.0
C9 C 0.0666 0.77959 0.49228 0.0
C10 C 0.0746 0.79986 0.5669 0.0
C11 C 0.11247 0.88055 0.48925 0.0
Co12 Co 0.20213 0.00193 0.79923 0.0
C13 C 0.17981 0.01435 0.65194 0.0
H14 H 0.05387 0.76995 0.61687 0.0
O15 O 0.15584 0.01406 0.88483 0.0
O16 O 0.25546 0.9723 0.7144 0.0
O17 O 0.28507 0.03153 0.88412 0.0
O18 O 0.17992 0.08689 0.78506 0.0
O19 O 0.17981 0.14313 0.89133 0.0
O20 O 0.16445 0.88727 0.67727 0.0
O21 O 0.14379 0.98991 0.71359 0.0
O22 O 0.0386 0.86092 0.70699 0.0
O23 O 0.27921 0.11664 0.92119 0.0
O24 O 0.1884 0.02569 1.00666 0.0
O25 O 0.09498 0.91689 0.81338 0.0
O26 O 0.16482 0.97828 0.59178 0.0
C27 C 0.30645 0.0819 0.93257 0.0
C28 C 0.18366 0.91428 0.46004 0.0
H29 H 0.21938 0.95056 0.4998 0.0
H30 H 0.19859 0.87587 0.44951 0.0
H31 H 0.18785 0.93792 0.40397 0.0
C32 C 0.22645 0.92195 0.66595 0.0
C33 C 0.16756 0.13215 0.81976 0.0
H34 H 0.2862 0.23419 0.98148 0.0
H35 H 0.25165 0.0659 0.1943 0.0
H36 H 0.32461 0.128 0.14904 0.0
H37 H 0.27076 0.05347 0.09849 0.0
C38 C 0.27127 0.08967 0.13832 0.0
C39 C 0.16729 0.98958 0.94653 0.0
C40 C 0.03734 0.87172 0.77861 0.0
H41 H 0.32207 0.27599 0.12255 0.0
H42 H 0.04797 0.72808 0.4758 0.0
Co43 Co 0.08132 0.19134 0.64281 0.0
N44 N 0.13775 0.23483 0.56494 0.0
C45 C 0.20307 0.27764 0.5669 0.0
N46 N 0.17344 0.24275 0.44623 0.0
C47 C 0.12245 0.23473 0.4892 0.0
C48 C 0.22337 0.29001 0.49229 0.0
Co49 Co 0.92056 0.11101 0.95553 0.0
N50 N 0.86417 0.09815 1.0334 0.0
N51 N 0.82864 0.07041 0.15211 0.0
C52 C 0.77858 0.06756 0.10614 0.0
C53 C 0.79882 0.07555 1.0315 0.0
C54 C 0.87955 0.11342 0.10912 0.0
Co55 Co 0.00095 0.20302 0.79917 0.0
C56 C 0.01339 0.18063 0.94647 0.0
H57 H 0.76888 0.05489 0.98152 0.0
O58 O 0.01298 0.15669 0.71354 0.0
O59 O 0.97137 0.25637 0.88405 0.0
O60 O 0.03054 0.28596 0.71431 0.0
O61 O 0.08598 0.18091 0.81335 0.0
O62 O 0.142 0.18055 0.70698 0.0
O63 O 0.88629 0.16538 0.92113 0.0
O64 O 0.98891 0.14466 0.88479 0.0
O65 O 0.85987 0.03951 0.89139 0.0
O66 O 0.11559 0.28001 0.67718 0.0
O67 O 0.02461 0.18928 0.59171 0.0
O68 O 0.91596 0.09586 0.78505 0.0
O69 O 0.97729 0.16566 1.0066 0.0
C70 C 0.08089 0.30729 0.66584 0.0
C71 C 0.91334 0.1846 0.13831 0.0
H72 H 0.94956 0.22029 0.0985 0.0
H73 H 0.87495 0.19955 0.14894 0.0
H74 H 0.93707 0.18879 0.19433 0.0
C75 C 0.921 0.22737 0.93249 0.0
C76 C 0.13116 0.16846 0.77859 0.0
H77 H 0.23297 0.28683 0.61688 0.0
H78 H 0.06497 0.25262 0.40394 0.0
H79 H 0.127 0.32546 0.4494 0.0
H80 H 0.05238 0.27156 0.49976 0.0
C81 C 0.08864 0.27211 0.45999 0.0
C82 C 0.98851 0.1682 0.65185 0.0
C83 C 0.87075 0.03824 0.81979 0.0
H84 H 0.27491 0.32287 0.4759 0.0
H85 H 0.72708 0.04895 0.12266 0.0
Co86 Co 0.81145 0.89281 0.64285 0.0
N87 N 0.76795 0.90575 0.56501 0.0
C88 C 0.72519 0.92832 0.56696 0.0
N89 N 0.76008 0.93354 0.44629 0.0
C90 C 0.76806 0.89056 0.48927 0.0
C91 C 0.71284 0.93626 0.49234 0.0
Co92 Co 0.89186 0.81228 0.95551 0.0
N93 N 0.90471 0.76872 1.03335 0.0
N94 N 0.93248 0.76102 0.15209 0.0
C95 C 0.93537 0.71382 0.10613 0.0
C96 C 0.92736 0.72602 1.03148 0.0
C97 C 0.88946 0.76887 0.10907 0.0
Co98 Co 0.79982 0.80073 0.79919 0.0
C99 C 0.82224 0.83548 0.94646 0.0
H100 H 0.94802 0.7167 0.98152 0.0
O101 O 0.84611 0.85912 0.71356 0.0
O102 O 0.74648 0.71776 0.88405 0.0
O103 O 0.71684 0.74742 0.71435 0.0
O104 O 0.82197 0.90789 0.81337 0.0
O105 O 0.82225 0.96426 0.70704 0.0
O106 O 0.83746 0.72363 0.92112 0.0
O107 O 0.85822 0.847 0.88479 0.0
O108 O 0.96333 0.82307 0.89134 0.0
O109 O 0.72279 0.83842 0.67724 0.0
O110 O 0.8135 0.83816 0.59173 0.0
O111 O 0.907 0.82295 0.78505 0.0
O112 O 0.83721 0.81437 1.00661 0.0
C113 C 0.6955 0.77643 0.66589 0.0
C114 C 0.81829 0.73151 0.1383 0.0
H115 H 0.78258 0.73205 0.09852 0.0
H116 H 0.80331 0.67817 0.14895 0.0
H117 H 0.81414 0.75108 0.19432 0.0
C118 C 0.77547 0.69638 0.93249 0.0
C119 C 0.8344 0.96552 0.77863 0.0
H120 H 0.71598 0.94902 0.61694 0.0
H121 H 0.75022 0.81523 0.40399 0.0
H122 H 0.67735 0.80438 0.44942 0.0
H123 H 0.73124 0.78365 0.49978 0.0
C124 C 0.7307 0.81937 0.46003 0.0
C125 C 0.83456 0.82314 0.65189 0.0
C126 C 0.96462 0.83531 0.81977 0.0
H127 H 0.67998 0.95492 0.47594 0.0
H128 H 0.95395 0.68092 0.1227 0.0
Co129 Co 0.8919 0.08234 0.45552 0.0
N130 N 0.90478 0.13876 0.53336 0.0
C131 C 0.92736 0.20412 0.5314 0.0
N132 N 0.93252 0.17439 0.65201 0.0
C133 C 0.88958 0.12338 0.60909 0.0
C134 C 0.9354 0.22444 0.60602 0.0
Co135 Co 0.81149 0.92154 0.14286 0.0
N136 N 0.76801 0.86519 0.06497 0.0
N137 N 0.76019 0.8296 0.94637 0.0
C138 C 0.71304 0.77949 0.99231 0.0
C139 C 0.72528 0.79982 0.06693 0.0
C140 C 0.76818 0.88059 0.98925 0.0
Co141 Co 0.79984 0.00191 0.29923 0.0
C142 C 0.83466 0.01433 0.15196 0.0
H143 H 0.71606 0.76993 0.11693 0.0
O144 O 0.85824 0.01399 0.38481 0.0
O145 O 0.7169 0.97233 0.21435 0.0
O146 O 0.74648 0.0315 0.3841 0.0
O147 O 0.90699 0.0869 0.28503 0.0
O148 O 0.96335 0.14304 0.39134 0.0
O149 O 0.72282 0.88728 0.17722 0.0
O150 O 0.84616 0.98985 0.21363 0.0
O151 O 0.82226 0.86083 0.207 0.0
O152 O 0.83746 0.11657 0.4212 0.0
O153 O 0.83727 0.02557 0.50663 0.0
O154 O 0.82197 0.9169 0.31334 0.0
O155 O 0.81358 0.97828 0.09179 0.0
C156 C 0.77548 0.08185 0.43257 0.0
C157 C 0.7307 0.91428 0.96005 0.0
H158 H 0.73121 0.95051 0.99984 0.0
H159 H 0.67736 0.87585 0.94948 0.0
H160 H 0.75016 0.93797 0.904 0.0
C161 C 0.69554 0.92199 0.16588 0.0
C162 C 0.96462 0.13213 0.31975 0.0
H163 H 0.94797 0.23403 0.48138 0.0
H164 H 0.81421 0.06585 0.6943 0.0
H165 H 0.80344 0.12796 0.64895 0.0
H166 H 0.7827 0.05338 0.59847 0.0
C167 C 0.8184 0.08959 0.6383 0.0
C168 C 0.8223 0.98949 0.44649 0.0
C169 C 0.83438 0.87169 0.2786 0.0
H170 H 0.95405 0.27596 0.62246 0.0
H171 H 0.68019 0.72798 0.97582 0.0
Co172 Co 0.0813 0.89282 0.14286 0.0
N173 N 0.13771 0.90578 0.06502 0.0
C174 C 0.20307 0.92838 0.06703 0.0
N175 N 0.17344 0.93356 0.9464 0.0
C176 C 0.12239 0.89059 0.98927 0.0
C177 C 0.22345 0.93641 0.99244 0.0
Co178 Co 0.92051 0.81237 0.4555 0.0
N179 N 0.86413 0.76883 0.53336 0.0
N180 N 0.8286 0.76106 0.65199 0.0
C181 C 0.77845 0.71392 0.60606 0.0
C182 C 0.79876 0.72612 0.53143 0.0
C183 C 0.87956 0.76903 0.60908 0.0
Co184 Co 0.00095 0.80077 0.29919 0.0
C185 C 0.01333 0.83561 0.44643 0.0
H186 H 0.76883 0.71682 0.48143 0.0
O187 O 0.01299 0.85913 0.21359 0.0
O188 O 0.97137 0.71783 0.38408 0.0
O189 O 0.03057 0.74743 0.21436 0.0
O190 O 0.08599 0.9079 0.31341 0.0
O191 O 0.14198 0.96428 0.20704 0.0
O192 O 0.88627 0.7237 0.42116 0.0
O193 O 0.98883 0.84707 0.38476 0.0
O194 O 0.85978 0.8231 0.39135 0.0
O195 O 0.11559 0.83843 0.1772 0.0
O196 O 0.02458 0.83816 0.09175 0.0
O197 O 0.91597 0.82295 0.28505 0.0
O198 O 0.97728 0.81451 0.5066 0.0
C199 C 0.0809 0.77643 0.16588 0.0
C200 C 0.9133 0.7316 0.63829 0.0
H201 H 0.94951 0.73211 0.59847 0.0
H202 H 0.8749 0.67827 0.64894 0.0
H203 H 0.93705 0.75115 0.6943 0.0
C204 C 0.92101 0.69645 0.43253 0.0
C205 C 0.13116 0.96554 0.27865 0.0
H206 H 0.23293 0.94908 0.11705 0.0
H207 H 0.065 0.8152 0.90401 0.0
H208 H 0.12707 0.80448 0.94951 0.0
H209 H 0.05241 0.78367 0.99983 0.0
C210 C 0.08866 0.81941 0.96007 0.0
C211 C 0.98853 0.82315 0.15193 0.0
C212 C 0.87072 0.83531 0.31977 0.0
H213 H 0.27499 0.95512 0.97607 0.0
H214 H 0.72696 0.68105 0.62259 0.0
Co215 Co 0.11008 0.19135 0.14283 0.0
N216 N 0.09718 0.23484 0.06495 0.0
C217 C 0.07462 0.27763 0.06694 0.0
N218 N 0.06943 0.24279 0.94632 0.0
C219 C 0.11238 0.2347 0.98922 0.0
C220 C 0.06659 0.28997 0.99234 0.0
Co221 Co 0.19053 0.11101 0.45552 0.0
N222 N 0.2341 0.09821 0.53341 0.0
N223 N 0.24188 0.07049 0.65205 0.0
C224 C 0.28903 0.06749 0.60615 0.0
C225 C 0.27685 0.07559 0.53151 0.0
C226 C 0.2339 0.11346 0.60912 0.0
Co227 Co 0.20212 0.20304 0.29919 0.0
C228 C 0.16723 0.18056 0.44644 0.0
H229 H 0.28619 0.05498 0.48151 0.0
O230 O 0.14375 0.1567 0.21357 0.0
O231 O 0.28506 0.25641 0.38409 0.0
O232 O 0.25547 0.286 0.21434 0.0
O233 O 0.09497 0.18092 0.31334 0.0
O234 O 0.03859 0.18055 0.20698 0.0
O235 O 0.27919 0.16544 0.42118 0.0
O236 O 0.15581 0.14461 0.38476 0.0
O237 O 0.1798 0.03954 0.39139 0.0
O238 O 0.16446 0.28002 0.17719 0.0
O239 O 0.16475 0.18928 0.09175 0.0
O240 O 0.17991 0.09586 0.2851 0.0
O241 O 0.18839 0.16564 0.50658 0.0
C242 C 0.22646 0.30732 0.16586 0.0
C243 C 0.27132 0.18463 0.6383 0.0
H244 H 0.27081 0.22031 0.59846 0.0
H245 H 0.32466 0.19957 0.64894 0.0
H246 H 0.25178 0.18885 0.69431 0.0
C247 C 0.30644 0.22743 0.43254 0.0
C248 C 0.03734 0.16846 0.27859 0.0
H249 H 0.05395 0.28684 0.11696 0.0
H250 H 0.18779 0.25268 0.90399 0.0
H251 H 0.19851 0.32549 0.94947 0.0
H252 H 0.21928 0.27163 0.99984 0.0
C253 C 0.18357 0.27215 0.96003 0.0
C254 C 0.17972 0.16818 0.1519 0.0
C255 C 0.16756 0.03825 0.31982 0.0
H256 H 0.04786 0.32278 0.97595 0.0
H257 H 0.32189 0.04886 0.6227 0.0
Co258 Co 0.77675 0.255 0.97617 0.0
N259 N 0.76369 0.19853 0.89834 0.0
C260 C 0.7412 0.13322 0.90036 0.0
N261 N 0.7359 0.16276 0.77966 0.0
C262 C 0.77889 0.21378 0.82259 0.0
C263 C 0.73325 0.11286 0.82577 0.0
Co264 Co 0.85736 0.41586 0.28884 0.0
N265 N 0.90099 0.47223 0.36672 0.0
N266 N 0.90864 0.50764 0.48548 0.0
C267 C 0.95585 0.55776 0.43957 0.0
C268 C 0.94366 0.53759 0.3649 0.0
C269 C 0.9008 0.45679 0.44243 0.0
Co270 Co 0.86881 0.33528 0.13248 0.0
C271 C 0.83403 0.32301 0.27979 0.0
H272 H 0.95284 0.56759 0.315 0.0
O273 O 0.81052 0.32335 1.04685 0.0
O274 O 0.9517 0.36478 0.21742 0.0
O275 O 0.9221 0.30556 1.04771 0.0
O276 O 0.76175 0.25013 0.14687 0.0
O277 O 0.70529 0.1944 1.04039 0.0
O278 O 0.94596 0.45 0.25436 0.0
O279 O 0.82256 0.3475 0.21809 0.0
O280 O 0.84662 0.47661 0.22472 0.0
O281 O 0.83108 0.22062 1.01045 0.0
O282 O 0.83146 0.31169 0.92503 0.0
O283 O 0.8464 0.42013 0.11854 0.0
O284 O 0.8552 0.35911 0.33991 0.0
C285 C 0.89309 0.25527 0.99918 0.0
C286 C 0.93804 0.42287 0.47168 0.0
H287 H 0.93751 0.38665 0.43186 0.0
H288 H 0.99138 0.46119 0.48244 0.0
H289 H 0.91835 0.39908 0.52763 0.0
C290 C 0.97316 0.41523 0.26577 0.0
C291 C 0.70409 0.20507 0.11206 0.0
H292 H 0.72063 0.10335 0.95041 0.0
H293 H 0.85434 0.2711 0.73732 0.0
H294 H 0.86501 0.20904 0.7829 0.0
H295 H 0.88583 0.28373 0.83317 0.0
C296 C 0.8501 0.24747 0.79341 0.0
C297 C 0.84652 0.34778 0.98519 0.0
C298 C 0.83419 0.4655 0.1532 0.0
H299 H 0.71461 0.06132 0.80943 0.0
H300 H 0.98867 0.60925 0.45615 0.0
Co301 Co 0.58693 0.44428 0.2889 0.0
N302 N 0.53053 0.43155 0.36676 0.0
C303 C 0.46518 0.4089 0.36495 0.0
N304 N 0.49506 0.4038 0.48557 0.0
C305 C 0.54595 0.44677 0.44248 0.0
C306 C 0.44501 0.40099 0.43961 0.0
Co307 Co 0.74774 0.52448 0.97619 0.0
N308 N 0.80417 0.56784 0.89835 0.0
N309 N 0.8399 0.57579 0.77972 0.0
C310 C 0.88988 0.62298 0.82581 0.0
C311 C 0.8695 0.61063 0.9004 0.0
C312 C 0.78891 0.56784 0.82261 0.0
Co313 Co 0.66755 0.53632 0.13254 0.0
C314 C 0.65499 0.50151 0.98527 0.0
H315 H 0.89935 0.61993 0.95046 0.0
O316 O 0.65531 0.47785 0.21817 0.0
O317 O 0.6973 0.61934 1.04775 0.0
O318 O 0.63803 0.58971 0.21745 0.0
O319 O 0.5827 0.42906 0.1186 0.0
O320 O 0.52619 0.3728 0.22477 0.0
O321 O 0.78219 0.6132 1.01047 0.0
O322 O 0.67943 0.48994 1.04691 0.0
O323 O 0.80834 0.51358 1.04037 0.0
O324 O 0.55281 0.49875 0.25438 0.0
O325 O 0.6437 0.49889 0.33998 0.0
O326 O 0.75268 0.51438 0.14688 0.0
O327 O 0.69106 0.52254 0.92509 0.0
C328 C 0.58759 0.56072 0.2658 0.0
C329 C 0.75533 0.60545 0.79343 0.0
H330 H 0.71904 0.60488 0.83316 0.0
H331 H 0.79382 0.65879 0.78304 0.0
H332 H 0.73177 0.58616 0.73729 0.0
C333 C 0.74757 0.64059 0.9992 0.0
C334 C 0.53732 0.37147 0.15326 0.0
H335 H 0.43517 0.38806 0.31506 0.0
H336 H 0.60373 0.522 0.52769 0.0
H337 H 0.54168 0.53301 0.48254 0.0
H338 H 0.61618 0.55362 0.43193 0.0
C339 C 0.57995 0.51793 0.47174 0.0
C340 C 0.67979 0.51382 0.27986 0.0
C341 C 0.79771 0.50174 0.11204 0.0
H342 H 0.3935 0.3823 0.45613 0.0
H343 H 0.9414 0.65592 0.80942 0.0
Co344 Co 0.55861 0.14539 0.28889 0.0
N345 N 0.57132 0.10171 0.36676 0.0
C346 C 0.59395 0.05899 0.365 0.0
N347 N 0.59908 0.09406 0.48559 0.0
C348 C 0.55612 0.10196 0.44248 0.0
C349 C 0.60186 0.04678 0.43968 0.0
Co350 Co 0.4784 0.22608 0.97623 0.0
N351 N 0.43505 0.23916 0.89838 0.0
N352 N 0.42708 0.26693 0.77976 0.0
C353 C 0.37988 0.2697 0.82585 0.0
C354 C 0.39225 0.26168 0.90044 0.0
C355 C 0.43505 0.2239 0.82264 0.0
Co356 Co 0.46654 0.13403 0.13257 0.0
C357 C 0.50135 0.1563 0.98529 0.0
H358 H 0.38297 0.28223 0.9505 0.0
O359 O 0.52505 0.18024 0.21818 0.0
O360 O 0.38352 0.08076 1.04778 0.0
O361 O 0.41312 0.05115 0.21751 0.0
O362 O 0.57379 0.15644 0.11861 0.0
O363 O 0.63004 0.15607 0.22473 0.0
O364 O 0.38966 0.1718 1.01051 0.0
O365 O 0.51293 0.1923 1.04695 0.0
O366 O 0.48929 0.29756 1.04042 0.0
O367 O 0.50406 0.05681 0.25443 0.0
O368 O 0.50406 0.14763 0.34 0.0
O369 O 0.48844 0.24109 0.14693 0.0
O370 O 0.48033 0.17137 0.92514 0.0
C371 C 0.44209 0.02966 0.26586 0.0
C372 C 0.39744 0.1527 0.79348 0.0
H373 H 0.39795 0.11697 0.83324 0.0
H374 H 0.34411 0.13785 0.78302 0.0
H375 H 0.41678 0.14842 0.73738 0.0
C376 C 0.36227 0.10979 0.99925 0.0
C377 C 0.63137 0.16859 0.15323 0.0
H378 H 0.61476 0.04976 0.31513 0.0
H379 H 0.48089 0.08462 0.52766 0.0
H380 H 0.46985 0.01149 0.48261 0.0
H381 H 0.44926 0.06534 0.4319 0.0
C382 C 0.48495 0.06483 0.47175 0.0
C383 C 0.48912 0.16879 0.27989 0.0
C384 C 0.50109 0.29876 0.1121 0.0
H385 H 0.62053 0.01396 0.45625 0.0
H386 H 0.34696 0.2883 0.80947 0.0
Co387 Co 0.55861 0.41597 0.78888 0.0
N388 N 0.57131 0.47234 0.86675 0.0
C389 C 0.59398 0.53771 0.86493 0.0
N390 N 0.59904 0.50779 0.98548 0.0
C391 C 0.55611 0.45686 0.94247 0.0
C392 C 0.60198 0.55792 0.93959 0.0
Co393 Co 0.47845 0.25518 0.47623 0.0
N394 N 0.43511 0.19877 0.39837 0.0
N395 N 0.4271 0.163 0.27985 0.0
C396 C 0.37997 0.11297 0.32591 0.0
C397 C 0.3923 0.13342 0.40047 0.0
C398 C 0.43517 0.21406 0.32263 0.0
Co399 Co 0.46655 0.33533 0.63256 0.0
C400 C 0.50144 0.34792 0.48532 0.0
H401 H 0.383 0.10362 0.45058 0.0
O402 O 0.52507 0.3476 0.71814 0.0
O403 O 0.38355 0.30562 0.54775 0.0
O404 O 0.41313 0.36476 0.71751 0.0
O405 O 0.57379 0.42019 0.61859 0.0
O406 O 0.63005 0.47675 0.72473 0.0
O407 O 0.38969 0.22074 0.51044 0.0
O408 O 0.51296 0.32346 0.54697 0.0
O409 O 0.48929 0.19455 0.54041 0.0
O410 O 0.50407 0.45002 0.75443 0.0
O411 O 0.50405 0.35917 0.83997 0.0
O412 O 0.48847 0.25018 0.64692 0.0
O413 O 0.48043 0.31188 0.42513 0.0
C414 C 0.44209 0.41521 0.76586 0.0
C415 C 0.39748 0.24757 0.29349 0.0
H416 H 0.39799 0.28381 0.33325 0.0
H417 H 0.34415 0.20905 0.28309 0.0
H418 H 0.41675 0.27117 0.23736 0.0
C419 C 0.36231 0.25536 0.49918 0.0
C420 C 0.63138 0.4656 0.65322 0.0
H421 H 0.61477 0.56771 0.81503 0.0
H422 H 0.48085 0.39903 1.02763 0.0
H423 H 0.4699 0.46117 0.98256 0.0
H424 H 0.44926 0.38671 0.93185 0.0
C425 C 0.48494 0.42288 0.97172 0.0
C426 C 0.48914 0.32308 0.77985 0.0
C427 C 0.50111 0.20516 0.61209 0.0
H428 H 0.62068 0.60942 0.95614 0.0
H429 H 0.34705 0.06144 0.30953 0.0
Co430 Co 0.58702 0.14557 0.78889 0.0
N431 N 0.53064 0.10192 0.86676 0.0
C432 C 0.46527 0.05921 0.86488 0.0
N433 N 0.4951 0.0941 0.98546 0.0
C434 C 0.54607 0.10214 0.94249 0.0
C435 C 0.445 0.04694 0.93952 0.0
Co436 Co 0.74773 0.22605 0.47616 0.0
N437 N 0.80412 0.23906 0.39828 0.0
N438 N 0.83984 0.26681 0.27974 0.0
C439 C 0.88989 0.26972 0.32577 0.0
C440 C 0.86947 0.26161 0.40035 0.0
C441 C 0.78879 0.2238 0.32255 0.0
Co442 Co 0.66758 0.13407 0.63255 0.0
C443 C 0.65497 0.15631 0.4853 0.0
H444 H 0.89929 0.28214 0.45042 0.0
O445 O 0.65538 0.18036 0.71814 0.0
O446 O 0.69729 0.08076 0.54777 0.0
O447 O 0.63809 0.05119 0.71749 0.0
O448 O 0.58272 0.15646 0.61859 0.0
O449 O 0.52626 0.15627 0.72477 0.0
O450 O 0.78218 0.17178 0.51046 0.0
O451 O 0.67945 0.19234 0.54692 0.0
O452 O 0.80837 0.29758 0.5403 0.0
O453 O 0.5529 0.05696 0.75444 0.0
O454 O 0.64382 0.14777 0.83996 0.0
O455 O 0.75273 0.24115 0.64682 0.0
O456 O 0.69101 0.1713 0.42511 0.0
C457 C 0.58767 0.02976 0.76586 0.0
C458 C 0.75527 0.15261 0.29342 0.0
H459 H 0.71901 0.11689 0.33319 0.0
H460 H 0.79378 0.13778 0.28306 0.0
H461 H 0.73169 0.14828 0.23728 0.0
C462 C 0.74755 0.10977 0.49921 0.0
C463 C 0.53736 0.16869 0.65325 0.0
H464 H 0.43531 0.05004 0.81494 0.0
H465 H 0.60379 0.08458 1.02767 0.0
H466 H 0.54169 0.01156 0.98247 0.0
H467 H 0.61619 0.06542 0.93187 0.0
C468 C 0.57999 0.0649 0.97172 0.0
C469 C 0.67991 0.16896 0.77984 0.0
C470 C 0.79776 0.2988 0.61198 0.0
H471 H 0.39347 0.01417 0.956 0.0
H472 H 0.94142 0.28836 0.30936 0.0
Co473 Co 0.85736 0.44424 0.78882 0.0
N474 N 0.90098 0.43148 0.86667 0.0
C475 C 0.94368 0.4088 0.86481 0.0
N476 N 0.90874 0.40373 0.98538 0.0
C477 C 0.90072 0.44667 0.94239 0.0
C478 C 0.95591 0.40079 0.93945 0.0
Co479 Co 0.77679 0.52455 0.4762 0.0
N480 N 0.76377 0.56794 0.39834 0.0
N481 N 0.73599 0.57585 0.27978 0.0
C482 C 0.73308 0.623 0.32579 0.0
C483 C 0.74121 0.61072 0.40038 0.0
C484 C 0.779 0.56783 0.3226 0.0
Co485 Co 0.86881 0.53634 0.63253 0.0
C486 C 0.84651 0.50154 0.48529 0.0
H487 H 0.72068 0.62003 0.45045 0.0
O488 O 0.82256 0.47782 0.71809 0.0
O489 O 0.92212 0.61936 0.54774 0.0
O490 O 0.95169 0.58974 0.71748 0.0
O491 O 0.84643 0.42911 0.61851 0.0
O492 O 0.84671 0.37284 0.72465 0.0
O493 O 0.8311 0.61327 0.51049 0.0
O494 O 0.8105 0.48998 0.54693 0.0
O495 O 0.7053 0.5137 0.54038 0.0
O496 O 0.94598 0.4988 0.75443 0.0
O497 O 0.85511 0.49879 0.83994 0.0
O498 O 0.76175 0.51443 0.64686 0.0
O499 O 0.8315 0.52257 0.4251 0.0
C500 C 0.97315 0.56077 0.76586 0.0
C501 C 0.85019 0.60545 0.29343 0.0
H502 H 0.88593 0.60496 0.3332 0.0
H503 H 0.86503 0.65878 0.28296 0.0
H504 H 0.85448 0.5861 0.23733 0.0
C505 C 0.8931 0.64063 0.49921 0.0
C506 C 0.83424 0.37152 0.65314 0.0
H507 H 0.95289 0.38804 0.81487 0.0
H508 H 0.91821 0.52192 1.02759 0.0
H509 H 0.99127 0.53287 0.98246 0.0
H510 H 0.93744 0.55353 0.93182 0.0
C511 C 0.93794 0.51783 0.97166 0.0
C512 C 0.83397 0.51373 0.7798 0.0
C513 C 0.70409 0.50183 0.61205 0.0
H514 H 0.98871 0.38209 0.95596 0.0
H515 H 0.71445 0.65589 0.30937 0.0
Co516 Co 0.44339 0.58824 0.30951 0.0
N517 N 0.43041 0.5318 0.23166 0.0
C518 C 0.40785 0.46648 0.23365 0.0
N519 N 0.40262 0.49608 0.11296 0.0
C520 C 0.44562 0.54708 0.15591 0.0
C521 C 0.39992 0.44615 0.15905 0.0
Co522 Co 0.52389 0.74907 0.62218 0.0
N523 N 0.56746 0.80546 0.70004 0.0
N524 N 0.57519 0.84096 0.81876 0.0
C525 C 0.62238 0.89104 0.7728 0.0
C526 C 0.61015 0.87081 0.69816 0.0
C527 C 0.56732 0.79007 0.77576 0.0
Co528 Co 0.53543 0.66858 0.46584 0.0
C529 C 0.50066 0.65626 0.61312 0.0
H530 H 0.61933 0.90077 0.64821 0.0
O531 O 0.4771 0.65657 0.38021 0.0
O532 O 0.61835 0.69815 0.55073 0.0
O533 O 0.58875 0.63892 0.38105 0.0
O534 O 0.42832 0.5835 0.4801 0.0
O535 O 0.37191 0.52761 0.37369 0.0
O536 O 0.61252 0.78329 0.58773 0.0
O537 O 0.48915 0.68073 0.55144 0.0
O538 O 0.51311 0.80978 0.55804 0.0
O539 O 0.49773 0.55391 0.3439 0.0
O540 O 0.49808 0.64492 0.25839 0.0
O541 O 0.51314 0.7535 0.45178 0.0
O542 O 0.52179 0.69234 0.67326 0.0
C543 C 0.55973 0.58858 0.33259 0.0
C544 C 0.60465 0.75624 0.805 0.0
H545 H 0.60412 0.72001 0.76519 0.0
H546 H 0.65799 0.79459 0.8157 0.0
H547 H 0.58503 0.73248 0.86099 0.0
C548 C 0.63977 0.74856 0.59911 0.0
C549 C 0.37068 0.53838 0.44533 0.0
H550 H 0.38713 0.4366 0.28364 0.0
H551 H 0.521 0.6045 0.07064 0.0
H552 H 0.53176 0.54245 0.11612 0.0
H553 H 0.55254 0.6171 0.16646 0.0
C554 C 0.51681 0.58084 0.1267 0.0
C555 C 0.51311 0.68099 0.31856 0.0
C556 C 0.50082 0.79878 0.48648 0.0
H557 H 0.38124 0.39461 0.14269 0.0
H558 H 0.65523 0.94254 0.78933 0.0
Co559 Co 0.25371 0.77763 0.62226 0.0
N560 N 0.1973 0.76484 0.70011 0.0
C561 C 0.13196 0.74226 0.69825 0.0
N562 N 0.16175 0.73709 0.81889 0.0
C563 C 0.21267 0.78005 0.77584 0.0
C564 C 0.11174 0.73434 0.7729 0.0
Co565 Co 0.41442 0.85786 0.30952 0.0
N566 N 0.47082 0.90129 0.23165 0.0
N567 N 0.50653 0.90922 0.11301 0.0
C568 C 0.55652 0.95641 0.15908 0.0
C569 C 0.53615 0.94405 0.23368 0.0
C570 C 0.45554 0.90126 0.15592 0.0
Co571 Co 0.33422 0.86966 0.46592 0.0
C572 C 0.32167 0.83484 0.31861 0.0
H573 H 0.56599 0.95319 0.28369 0.0
O574 O 0.3221 0.81124 0.55154 0.0
O575 O 0.36386 0.95262 0.38109 0.0
O576 O 0.30473 0.92305 0.55082 0.0
O577 O 0.2493 0.76246 0.45184 0.0
O578 O 0.193 0.70616 0.55809 0.0
O579 O 0.44882 0.94655 0.34392 0.0
O580 O 0.34611 0.82327 0.38027 0.0
O581 O 0.47506 0.84697 0.37367 0.0
O582 O 0.21956 0.83209 0.5878 0.0
O583 O 0.31048 0.83225 0.67335 0.0
O584 O 0.41931 0.84764 0.48015 0.0
O585 O 0.35776 0.85591 0.25846 0.0
C586 C 0.25431 0.89407 0.5992 0.0
C587 C 0.42189 0.9388 0.12674 0.0
H588 H 0.38563 0.93826 0.1665 0.0
H589 H 0.46034 0.99214 0.11625 0.0
H590 H 0.39827 0.91943 0.07064 0.0
C591 C 0.41419 0.97392 0.33261 0.0
C592 C 0.20401 0.70486 0.48654 0.0
H593 H 0.10198 0.7215 0.64833 0.0
H594 H 0.27038 0.85535 0.86104 0.0
H595 H 0.2083 0.86627 0.81582 0.0
H596 H 0.28281 0.88691 0.76525 0.0
C597 C 0.2466 0.85123 0.80508 0.0
C598 C 0.34659 0.8472 0.61323 0.0
C599 C 0.46438 0.83506 0.44532 0.0
H600 H 0.06022 0.71565 0.78938 0.0
H601 H 0.60805 0.98928 0.14269 0.0
Co602 Co 0.14492 0.55948 0.30952 0.0
N603 N 0.10147 0.57248 0.23167 0.0
C604 C 0.05866 0.59498 0.23368 0.0
N605 N 0.0935 0.60026 0.11299 0.0
C606 C 0.10154 0.55728 0.15592 0.0
C607 C 0.04625 0.60292 0.15908 0.0
Co608 Co 0.22517 0.47889 0.62219 0.0
N609 N 0.23794 0.43529 0.70007 0.0
N610 N 0.2657 0.42761 0.81882 0.0
C611 C 0.26858 0.38039 0.77289 0.0
C612 C 0.26059 0.39259 0.69824 0.0
C613 C 0.22268 0.43546 0.77578 0.0
Co614 Co 0.13317 0.4674 0.46583 0.0
C615 C 0.15562 0.50216 0.61313 0.0
H616 H 0.28137 0.3834 0.64832 0.0
O617 O 0.17953 0.52574 0.38022 0.0
O618 O 0.07977 0.38448 0.55073 0.0
O619 O 0.05022 0.41408 0.38099 0.0
O620 O 0.1552 0.5745 0.48014 0.0
O621 O 0.15573 0.63092 0.37373 0.0
O622 O 0.17074 0.39028 0.58771 0.0
O623 O 0.19159 0.51367 0.55145 0.0
O624 O 0.29666 0.48967 0.55805 0.0
O625 O 0.05623 0.50509 0.34385 0.0
O626 O 0.14695 0.50483 0.25839 0.0
O627 O 0.24036 0.48965 0.45178 0.0
O628 O 0.17055 0.481 0.67325 0.0
C629 C 0.0289 0.44309 0.33252 0.0
C630 C 0.15151 0.39816 0.80501 0.0
H631 H 0.11581 0.39866 0.76518 0.0
H632 H 0.13652 0.34483 0.81576 0.0
H633 H 0.14737 0.41782 0.86097 0.0
C634 C 0.10876 0.36304 0.59909 0.0
C635 C 0.16772 0.63215 0.44536 0.0
H636 H 0.04946 0.61565 0.2837 0.0
H637 H 0.08359 0.48189 0.07067 0.0
H638 H 0.01077 0.47114 0.11611 0.0
H639 H 0.06462 0.45037 0.16649 0.0
C640 C 0.06411 0.48609 0.12671 0.0
C641 C 0.168 0.48978 0.31853 0.0
C642 C 0.29796 0.50196 0.48649 0.0
H643 H 0.0134 0.62162 0.14275 0.0
H644 H 0.28723 0.34755 0.78946 0.0
Co645 Co 0.22522 0.74911 0.12223 0.0
N646 N 0.23797 0.8055 0.2001 0.0
C647 C 0.26059 0.87086 0.19821 0.0
N648 N 0.2657 0.84106 0.31879 0.0
C649 C 0.22277 0.79007 0.27583 0.0
C650 C 0.2686 0.89114 0.27284 0.0
Co651 Co 0.14499 0.58842 0.80951 0.0
N652 N 0.10156 0.53205 0.73162 0.0
N653 N 0.0936 0.49634 0.61307 0.0
C654 C 0.04646 0.44628 0.65908 0.0
C655 C 0.05878 0.4667 0.73367 0.0
C656 C 0.10165 0.54738 0.65589 0.0
Co657 Co 0.13319 0.66862 0.9659 0.0
C658 C 0.16807 0.68118 0.81864 0.0
H659 H 0.04959 0.43688 0.78372 0.0
O660 O 0.19164 0.68076 0.05149 0.0
O661 O 0.05023 0.63899 0.88106 0.0
O662 O 0.07979 0.69813 0.05079 0.0
O663 O 0.24038 0.75356 0.95184 0.0
O664 O 0.29669 0.80985 0.0581 0.0
O665 O 0.05629 0.55404 0.84387 0.0
O666 O 0.17958 0.65669 0.88029 0.0
O667 O 0.15583 0.52774 0.87363 0.0
O668 O 0.17076 0.78327 0.08778 0.0
O669 O 0.1706 0.69234 0.1733 0.0
O670 O 0.15523 0.58355 0.98008 0.0
O671 O 0.14698 0.64512 0.75847 0.0
C672 C 0.10878 0.74853 0.09917 0.0
C673 C 0.06407 0.58098 0.62672 0.0
H674 H 0.0646 0.61722 0.66651 0.0
H675 H 0.01073 0.54251 0.61626 0.0
H676 H 0.08342 0.60462 0.57063 0.0
C677 C 0.02893 0.58868 0.83257 0.0
C678 C 0.29799 0.79886 0.98654 0.0
H679 H 0.28132 0.90079 0.14825 0.0
H680 H 0.14743 0.73239 0.361 0.0
H681 H 0.13659 0.79453 0.31579 0.0
H682 H 0.11591 0.72002 0.26518 0.0
C683 C 0.15159 0.7562 0.30505 0.0
C684 C 0.15569 0.65625 0.11317 0.0
C685 C 0.16777 0.53845 0.94528 0.0
H686 H 0.28734 0.94267 0.28931 0.0
H687 H 0.01363 0.39474 0.64269 0.0
Co688 Co 0.25381 0.47904 0.12217 0.0
N689 N 0.1974 0.43547 0.20001 0.0
C690 C 0.13204 0.39274 0.19806 0.0
N691 N 0.16177 0.42757 0.31867 0.0
C692 C 0.21278 0.43564 0.27575 0.0
C693 C 0.11171 0.38043 0.27267 0.0
Co694 Co 0.41451 0.55941 0.8095 0.0
N695 N 0.47087 0.57232 0.73161 0.0
N696 N 0.50652 0.60008 0.61304 0.0
C697 C 0.55661 0.60303 0.65902 0.0
C698 C 0.53623 0.59493 0.73362 0.0
C699 C 0.45551 0.55708 0.65588 0.0
Co700 Co 0.33427 0.46743 0.96587 0.0
C701 C 0.32176 0.48973 0.81862 0.0
H702 H 0.56607 0.61562 0.78364 0.0
O703 O 0.32216 0.51376 0.05145 0.0
O704 O 0.36387 0.41408 0.88106 0.0
O705 O 0.30474 0.38453 0.05077 0.0
O706 O 0.24933 0.48968 0.95174 0.0
O707 O 0.19309 0.48976 0.05801 0.0
O708 O 0.44886 0.50508 0.84389 0.0
O709 O 0.34623 0.52575 0.88026 0.0
O710 O 0.47519 0.63094 0.87363 0.0
O711 O 0.21962 0.39038 0.08781 0.0
O712 O 0.31057 0.4812 0.17328 0.0
O713 O 0.41935 0.57454 0.98007 0.0
O714 O 0.3578 0.50469 0.75844 0.0
C715 C 0.25436 0.36313 0.09918 0.0
C716 C 0.42189 0.48589 0.62671 0.0
H717 H 0.38567 0.45017 0.6665 0.0
H718 H 0.46036 0.47103 0.6162 0.0
H719 H 0.39822 0.48162 0.57064 0.0
C720 C 0.4142 0.44308 0.83259 0.0
C721 C 0.20407 0.50203 0.98644 0.0
H722 H 0.10213 0.38355 0.14806 0.0
H723 H 0.27038 0.4179 0.36094 0.0
H724 H 0.20824 0.34497 0.31567 0.0
H725 H 0.28278 0.39879 0.26511 0.0
C726 C 0.2466 0.3983 0.30496 0.0
C727 C 0.34667 0.50233 0.11314 0.0
C728 C 0.46446 0.63218 0.94527 0.0
H729 H 0.06017 0.3476 0.28909 0.0
H730 H 0.60814 0.62172 0.64259 0.0
Co731 Co 0.44339 0.85795 0.80955 0.0
N732 N 0.43041 0.90138 0.73169 0.0
C733 C 0.40786 0.94417 0.73373 0.0
N734 N 0.40264 0.90936 0.6131 0.0
C735 C 0.4456 0.90126 0.65595 0.0
C736 C 0.39982 0.95654 0.65914 0.0
Co737 Co 0.5239 0.77764 0.12216 0.0
N738 N 0.56748 0.76486 0.20003 0.0
N739 N 0.5752 0.7371 0.31868 0.0
C740 C 0.62234 0.73407 0.27277 0.0
C741 C 0.61016 0.74217 0.19814 0.0
C742 C 0.56726 0.78009 0.27574 0.0
Co743 Co 0.53544 0.86969 0.96586 0.0
C744 C 0.50059 0.84716 0.11311 0.0
H745 H 0.61938 0.72144 0.14818 0.0
O746 O 0.47708 0.82334 0.88027 0.0
O747 O 0.61833 0.92308 0.05079 0.0
O748 O 0.58878 0.95266 0.88105 0.0
O749 O 0.42834 0.84767 0.98014 0.0
O750 O 0.37193 0.84715 0.87373 0.0
O751 O 0.61254 0.83212 0.08777 0.0
O752 O 0.48914 0.81122 0.05142 0.0
O753 O 0.51319 0.70619 0.058 0.0
O754 O 0.49777 0.94665 0.84387 0.0
O755 O 0.49805 0.85591 0.75843 0.0
O756 O 0.51318 0.7625 0.95176 0.0
O757 O 0.52172 0.83222 0.17325 0.0
C758 C 0.55977 0.97398 0.83257 0.0
C759 C 0.60461 0.85125 0.30498 0.0
H760 H 0.60414 0.88695 0.26513 0.0
H761 H 0.65793 0.8662 0.31574 0.0
H762 H 0.58495 0.85541 0.36093 0.0
C763 C 0.63976 0.8941 0.09917 0.0
C764 C 0.37069 0.83515 0.94537 0.0
H765 H 0.38721 0.95336 0.78376 0.0
H766 H 0.52103 0.91929 0.57071 0.0
H767 H 0.53169 0.99208 0.61617 0.0
H768 H 0.55252 0.93828 0.66655 0.0
C769 C 0.51679 0.93875 0.62675 0.0
C770 C 0.51306 0.83488 0.81861 0.0
C771 C 0.50089 0.7049 0.98644 0.0
H772 H 0.38112 0.98938 0.64279 0.0
H773 H 0.65517 0.71541 0.28933 0.0
loop_
_geom_bond_atom_site_label_1
_geom_bond_atom_site_label_2
_geom_bond_distance
_geom_bond_site_symmetry_2
_ccdc_geom_bond_type
Co0 N1 2.034 1_556 S
Co0 O15 2.262 1_545 S
Co0 O19 1.958 . S
Co0 O23 1.950 . S
Co0 O24 2.057 1_545 S
N1 Co0 2.034 1_554 S
N1 C2 1.366 . S
N1 C4 1.332 . S
C2 N1 1.366 . S
C2 C5 1.377 . S
C2 H34 0.931 . S
N3 C4 1.346 . S
N3 C5 1.337 . S
C4 N1 1.332 . S
C4 N3 1.346 . S
C4 C38 1.361 . S
C5 C2 1.377 . S
C5 N3 1.337 . S
C5 H41 0.930 . S
Co6 N7 2.034 . S
Co6 O20 1.950 . S
Co6 O21 2.262 1_565 S
Co6 O22 1.958 . S
Co6 O26 2.057 1_565 S
N7 Co6 2.034 . S
N7 C10 1.366 . S
N7 C11 1.332 . S
N8 C9 1.337 . S
N8 C11 1.346 . S
C9 N8 1.337 . S
C9 C10 1.377 . S
C9 H42 0.930 . S
C10 N7 1.366 . S
C10 C9 1.377 . S
C10 H14 0.931 . S
C11 N7 1.332 . S
C11 N8 1.346 . S
C11 C28 1.361 . S
Co12 O15 2.097 1_545 S
Co12 O16 2.065 1_545 S
Co12 O17 2.065 . S
Co12 O18 2.042 . S
Co12 O21 2.097 . S
Co12 O25 2.042 1_545 S
C13 O21 1.253 . S
C13 O26 1.263 . S
H14 C10 0.931 . S
O15 Co0 2.262 1_565 S
O15 Co12 2.097 1_565 S
O15 C39 1.253 . S
O16 Co12 2.065 1_565 S
O16 C32 1.221 . S
O17 Co12 2.065 . S
O17 C27 1.221 . S
O18 Co12 2.042 . S
O18 C33 1.237 . S
O19 Co0 1.958 . S
O19 C33 1.278 . S
O20 Co6 1.950 . S
O20 C32 1.277 . S
O21 Co6 2.262 1_545 S
O21 Co12 2.097 . S
O21 C13 1.253 . S
O22 Co6 1.958 . S
O22 C40 1.278 . S
O23 Co0 1.950 . S
O23 C27 1.277 . S
O24 Co0 2.057 1_565 S
O24 C39 1.263 . S
O25 Co12 2.042 1_565 S
O25 C40 1.237 . S
O26 Co6 2.057 1_545 S
O26 C13 1.263 . S
C27 O17 1.221 . S
C27 O23 1.277 . S
C28 C11 1.361 . S
C28 H29 0.960 . S
C28 H30 0.961 . S
C28 H31 0.961 . S
H29 C28 0.960 . S
H30 C28 0.961 . S
H31 C28 0.961 . S
C32 O16 1.221 . S
C32 O20 1.277 . S
C33 O18 1.237 . S
C33 O19 1.278 . S
H34 C2 0.931 . S
H35 C38 0.961 . S
H36 C38 0.961 . S
H37 C38 0.960 . S
C38 C4 1.361 . S
C38 H35 0.961 . S
C38 H36 0.961 . S
C38 H37 0.960 . S
C39 O15 1.253 . S
C39 O24 1.263 . S
C40 O22 1.278 . S
C40 O25 1.237 . S
H41 C5 0.930 . S
H42 C9 0.930 . S
Co43 N44 2.034 . S
Co43 O58 2.262 1_455 S
Co43 O62 1.958 . S
Co43 O66 1.950 . S
Co43 O67 2.057 1_455 S
N44 Co43 2.034 . S
N44 C45 1.366 . S
N44 C47 1.332 . S
C45 N44 1.366 . S
C45 C48 1.377 . S
C45 H77 0.931 . S
N46 C47 1.346 . S
N46 C48 1.337 . S
C47 N44 1.332 . S
C47 N46 1.346 . S
C47 C81 1.361 . S
C48 C45 1.377 . S
C48 N46 1.337 . S
C48 H84 0.930 . S
Co49 N50 2.034 1_556 S
Co49 O63 1.950 . S
Co49 O64 2.262 1_655 S
Co49 O65 1.958 . S
Co49 O69 2.057 1_655 S
N50 Co49 2.034 1_554 S
N50 C53 1.366 . S
N50 C54 1.332 . S
N51 C52 1.337 . S
N51 C54 1.346 . S
C52 N51 1.337 . S
C52 C53 1.377 . S
C52 H85 0.930 . S
C53 N50 1.366 . S
C53 C52 1.377 . S
C53 H57 0.931 . S
C54 N50 1.332 . S
C54 N51 1.346 . S
C54 C71 1.361 . S
Co55 O58 2.097 1_455 S
Co55 O59 2.065 1_455 S
Co55 O60 2.065 . S
Co55 O61 2.042 . S
Co55 O64 2.097 . S
Co55 O68 2.042 1_455 S
C56 O64 1.253 . S
C56 O69 1.263 . S
H57 C53 0.931 . S
O58 Co43 2.262 1_655 S
O58 Co55 2.097 1_655 S
O58 C82 1.253 . S
O59 Co55 2.065 1_655 S
O59 C75 1.221 . S
O60 Co55 2.065 . S
O60 C70 1.221 . S
O61 Co55 2.042 . S
O61 C76 1.237 . S
O62 Co43 1.958 . S
O62 C76 1.278 . S
O63 Co49 1.950 . S
O63 C75 1.277 . S
O64 Co49 2.262 1_455 S
O64 Co55 2.097 . S
O64 C56 1.253 . S
O65 Co49 1.958 . S
O65 C83 1.278 . S
O66 Co43 1.950 . S
O66 C70 1.277 . S
O67 Co43 2.057 1_655 S
O67 C82 1.263 . S
O68 Co55 2.042 1_655 S
O68 C83 1.237 . S
O69 Co49 2.057 1_455 S
O69 C56 1.263 . S
C70 O60 1.221 . S
C70 O66 1.277 . S
C71 C54 1.361 . S
C71 H72 0.960 . S
C71 H73 0.961 . S
C71 H74 0.961 . S
H72 C71 0.960 . S
H73 C71 0.961 . S
H74 C71 0.961 . S
C75 O59 1.221 . S
C75 O63 1.277 . S
C76 O61 1.237 . S
C76 O62 1.278 . S
H77 C45 0.931 . S
H78 C81 0.961 . S
H79 C81 0.961 . S
H80 C81 0.960 . S
C81 C47 1.361 . S
C81 H78 0.961 . S
C81 H79 0.961 . S
C81 H80 0.960 . S
C82 O58 1.253 . S
C82 O67 1.263 . S
C83 O65 1.278 . S
C83 O68 1.237 . S
H84 C48 0.930 . S
H85 C52 0.930 . S
Co86 N87 2.034 . S
Co86 O101 2.262 . S
Co86 O105 1.958 . S
Co86 O109 1.950 . S
Co86 O110 2.057 . S
N87 Co86 2.034 . S
N87 C88 1.366 . S
N87 C90 1.332 . S
C88 N87 1.366 . S
C88 C91 1.377 . S
C88 H120 0.931 . S
N89 C90 1.346 . S
N89 C91 1.337 . S
C90 N87 1.332 . S
C90 N89 1.346 . S
C90 C124 1.361 . S
C91 C88 1.377 . S
C91 N89 1.337 . S
C91 H127 0.930 . S
Co92 N93 2.034 1_556 S
Co92 O106 1.950 . S
Co92 O107 2.262 . S
Co92 O108 1.958 . S
Co92 O112 2.057 . S
N93 Co92 2.034 1_554 S
N93 C96 1.366 . S
N93 C97 1.332 . S
N94 C95 1.337 . S
N94 C97 1.346 . S
C95 N94 1.337 . S
C95 C96 1.377 . S
C95 H128 0.930 . S
C96 N93 1.366 . S
C96 C95 1.377 . S
C96 H100 0.931 . S
C97 N93 1.332 . S
C97 N94 1.346 . S
C97 C114 1.361 . S
Co98 O101 2.097 . S
Co98 O102 2.065 . S
Co98 O103 2.065 . S
Co98 O104 2.042 . S
Co98 O107 2.097 . S
Co98 O111 2.042 . S
C99 O107 1.253 . S
C99 O112 1.263 . S
H100 C96 0.931 . S
O101 Co86 2.262 . S
O101 Co98 2.097 . S
O101 C125 1.253 . S
O102 Co98 2.065 . S
O102 C118 1.221 . S
O103 Co98 2.065 . S
O103 C113 1.221 . S
O104 Co98 2.042 . S
O104 C119 1.237 . S
O105 Co86 1.958 . S
O105 C119 1.278 . S
O106 Co92 1.950 . S
O106 C118 1.277 . S
O107 Co92 2.262 . S
O107 Co98 2.097 . S
O107 C99 1.253 . S
O108 Co92 1.958 . S
O108 C126 1.278 . S
O109 Co86 1.950 . S
O109 C113 1.277 . S
O110 Co86 2.057 . S
O110 C125 1.263 . S
O111 Co98 2.042 . S
O111 C126 1.237 . S
O112 Co92 2.057 . S
O112 C99 1.263 . S
C113 O103 1.221 . S
C113 O109 1.277 . S
C114 C97 1.361 . S
C114 H115 0.960 . S
C114 H116 0.961 . S
C114 H117 0.961 . S
H115 C114 0.960 . S
H116 C114 0.961 . S
H117 C114 0.961 . S
C118 O102 1.221 . S
C118 O106 1.277 . S
C119 O104 1.237 . S
C119 O105 1.278 . S
H120 C88 0.931 . S
H121 C124 0.961 . S
H122 C124 0.961 . S
H123 C124 0.960 . S
C124 C90 1.361 . S
C124 H121 0.961 . S
C124 H122 0.961 . S
C124 H123 0.960 . S
C125 O101 1.253 . S
C125 O110 1.263 . S
C126 O108 1.278 . S
C126 O111 1.237 . S
H127 C91 0.930 . S
H128 C95 0.930 . S
Co129 N130 2.034 . S
Co129 O144 2.262 1_545 S
Co129 O148 1.958 . S
Co129 O152 1.950 . S
Co129 O153 2.057 1_545 S
N130 Co129 2.034 . S
N130 C131 1.366 . S
N130 C133 1.332 . S
C131 N130 1.366 . S
C131 C134 1.377 . S
C131 H163 0.931 . S
N132 C133 1.346 . S
N132 C134 1.337 . S
C133 N130 1.332 . S
C133 N132 1.346 . S
C133 C167 1.361 . S
C134 C131 1.377 . S
C134 N132 1.337 . S
C134 H170 0.930 . S
Co135 N136 2.034 1_554 S
Co135 O149 1.950 . S
Co135 O150 2.262 1_565 S
Co135 O151 1.958 . S
Co135 O155 2.057 1_565 S
N136 Co135 2.034 1_556 S
N136 C139 1.366 . S
N136 C140 1.332 . S
N137 C138 1.337 . S
N137 C140 1.346 . S
C138 N137 1.337 . S
C138 C139 1.377 . S
C138 H171 0.930 . S
C139 N136 1.366 . S
C139 C138 1.377 . S
C139 H143 0.931 . S
C140 N136 1.332 . S
C140 N137 1.346 . S
C140 C157 1.361 . S
Co141 O144 2.097 1_545 S
Co141 O145 2.065 1_545 S
Co141 O146 2.065 . S
Co141 O147 2.042 . S
Co141 O150 2.097 . S
Co141 O154 2.042 1_545 S
C142 O150 1.253 . S
C142 O155 1.263 . S
H143 C139 0.931 . S
O144 Co129 2.262 1_565 S
O144 Co141 2.097 1_565 S
O144 C168 1.253 . S
O145 Co141 2.065 1_565 S
O145 C161 1.221 . S
O146 Co141 2.065 . S
O146 C156 1.221 . S
O147 Co141 2.042 . S
O147 C162 1.237 . S
O148 Co129 1.958 . S
O148 C162 1.278 . S
O149 Co135 1.950 . S
O149 C161 1.277 . S
O150 Co135 2.262 1_545 S
O150 Co141 2.097 . S
O150 C142 1.253 . S
O151 Co135 1.958 . S
O151 C169 1.278 . S
O152 Co129 1.950 . S
O152 C156 1.277 . S
O153 Co129 2.057 1_565 S
O153 C168 1.263 . S
O154 Co141 2.042 1_565 S
O154 C169 1.237 . S
O155 Co135 2.057 1_545 S
O155 C142 1.263 . S
C156 O146 1.221 . S
C156 O152 1.277 . S
C157 C140 1.361 . S
C157 H158 0.960 . S
C157 H159 0.961 . S
C157 H160 0.961 . S
H158 C157 0.960 . S
H159 C157 0.961 . S
H160 C157 0.961 . S
C161 O145 1.221 . S
C161 O149 1.277 . S
C162 O147 1.237 . S
C162 O148 1.278 . S
H163 C131 0.931 . S
H164 C167 0.961 . S
H165 C167 0.961 . S
H166 C167 0.960 . S
C167 C133 1.361 . S
C167 H164 0.961 . S
C167 H165 0.961 . S
C167 H166 0.960 . S
C168 O144 1.253 . S
C168 O153 1.263 . S
C169 O151 1.278 . S
C169 O154 1.237 . S
H170 C134 0.930 . S
H171 C138 0.930 . S
Co172 N173 2.034 1_554 S
Co172 O187 2.262 1_455 S
Co172 O191 1.958 . S
Co172 O195 1.950 . S
Co172 O196 2.057 1_455 S
N173 Co172 2.034 1_556 S
N173 C174 1.366 . S
N173 C176 1.332 . S
C174 N173 1.366 . S
C174 C177 1.377 . S
C174 H206 0.931 . S
N175 C176 1.346 . S
N175 C177 1.337 . S
C176 N173 1.332 . S
C176 N175 1.346 . S
C176 C210 1.361 . S
C177 C174 1.377 . S
C177 N175 1.337 . S
C177 H213 0.930 . S
Co178 N179 2.034 . S
Co178 O192 1.950 . S
Co178 O193 2.262 1_655 S
Co178 O194 1.958 . S
Co178 O198 2.057 1_655 S
N179 Co178 2.034 . S
N179 C182 1.366 . S
N179 C183 1.332 . S
N180 C181 1.337 . S
N180 C183 1.346 . S
C181 N180 1.337 . S
C181 C182 1.377 . S
C181 H214 0.930 . S
C182 N179 1.366 . S
C182 C181 1.377 . S
C182 H186 0.931 . S
C183 N179 1.332 . S
C183 N180 1.346 . S
C183 C200 1.361 . S
Co184 O187 2.097 1_455 S
Co184 O188 2.065 1_455 S
Co184 O189 2.065 . S
Co184 O190 2.042 . S
Co184 O193 2.097 . S
Co184 O197 2.042 1_455 S
C185 O193 1.253 . S
C185 O198 1.263 . S
H186 C182 0.931 . S
O187 Co172 2.262 1_655 S
O187 Co184 2.097 1_655 S
O187 C211 1.253 . S
O188 Co184 2.065 1_655 S
O188 C204 1.221 . S
O189 Co184 2.065 . S
O189 C199 1.221 . S
O190 Co184 2.042 . S
O190 C205 1.237 . S
O191 Co172 1.958 . S
O191 C205 1.278 . S
O192 Co178 1.950 . S
O192 C204 1.277 . S
O193 Co178 2.262 1_455 S
O193 Co184 2.097 . S
O193 C185 1.253 . S
O194 Co178 1.958 . S
O194 C212 1.278 . S
O195 Co172 1.950 . S
O195 C199 1.277 . S
O196 Co172 2.057 1_655 S
O196 C211 1.263 . S
O197 Co184 2.042 1_655 S
O197 C212 1.237 . S
O198 Co178 2.057 1_455 S
O198 C185 1.263 . S
C199 O189 1.221 . S
C199 O195 1.277 . S
C200 C183 1.361 . S
C200 H201 0.960 . S
C200 H202 0.961 . S
C200 H203 0.961 . S
H201 C200 0.960 . S
H202 C200 0.961 . S
H203 C200 0.961 . S
C204 O188 1.221 . S
C204 O192 1.277 . S
C205 O190 1.237 . S
C205 O191 1.278 . S
H206 C174 0.931 . S
H207 C210 0.961 . S
H208 C210 0.961 . S
H209 C210 0.960 . S
C210 C176 1.361 . S
C210 H207 0.961 . S
C210 H208 0.961 . S
C210 H209 0.960 . S
C211 O187 1.253 . S
C211 O196 1.263 . S
C212 O194 1.278 . S
C212 O197 1.237 . S
H213 C177 0.930 . S
H214 C181 0.930 . S
Co215 N216 2.034 1_554 S
Co215 O230 2.262 . S
Co215 O234 1.958 . S
Co215 O238 1.950 . S
Co215 O239 2.057 . S
N216 Co215 2.034 1_556 S
N216 C217 1.366 . S
N216 C219 1.332 . S
C217 N216 1.366 . S
C217 C220 1.377 . S
C217 H249 0.931 . S
N218 C219 1.346 . S
N218 C220 1.337 . S
C219 N216 1.332 . S
C219 N218 1.346 . S
C219 C253 1.361 . S
C220 C217 1.377 . S
C220 N218 1.337 . S
C220 H256 0.930 . S
Co221 N222 2.034 . S
Co221 O235 1.950 . S
Co221 O236 2.262 . S
Co221 O237 1.958 . S
Co221 O241 2.057 . S
N222 Co221 2.034 . S
N222 C225 1.366 . S
N222 C226 1.332 . S
N223 C224 1.337 . S
N223 C226 1.346 . S
C224 N223 1.337 . S
C224 C225 1.377 . S
C224 H257 0.930 . S
C225 N222 1.366 . S
C225 C224 1.377 . S
C225 H229 0.931 . S
C226 N222 1.332 . S
C226 N223 1.346 . S
C226 C243 1.361 . S
Co227 O230 2.097 . S
Co227 O231 2.065 . S
Co227 O232 2.065 . S
Co227 O233 2.042 . S
Co227 O236 2.097 . S
Co227 O240 2.042 . S
C228 O236 1.253 . S
C228 O241 1.263 . S
H229 C225 0.931 . S
O230 Co215 2.262 . S
O230 Co227 2.097 . S
O230 C254 1.253 . S
O231 Co227 2.065 . S
O231 C247 1.221 . S
O232 Co227 2.065 . S
O232 C242 1.221 . S
O233 Co227 2.042 . S
O233 C248 1.237 . S
O234 Co215 1.958 . S
O234 C248 1.278 . S
O235 Co221 1.950 . S
O235 C247 1.277 . S
O236 Co221 2.262 . S
O236 Co227 2.097 . S
O236 C228 1.253 . S
O237 Co221 1.958 . S
O237 C255 1.278 . S
O238 Co215 1.950 . S
O238 C242 1.277 . S
O239 Co215 2.057 . S
O239 C254 1.263 . S
O240 Co227 2.042 . S
O240 C255 1.237 . S
O241 Co221 2.057 . S
O241 C228 1.263 . S
C242 O232 1.221 . S
C242 O238 1.277 . S
C243 C226 1.361 . S
C243 H244 0.960 . S
C243 H245 0.961 . S
C243 H246 0.961 . S
H244 C243 0.960 . S
H245 C243 0.961 . S
H246 C243 0.961 . S
C247 O231 1.221 . S
C247 O235 1.277 . S
C248 O233 1.237 . S
C248 O234 1.278 . S
H249 C217 0.931 . S
H250 C253 0.961 . S
H251 C253 0.961 . S
H252 C253 0.960 . S
C253 C219 1.361 . S
C253 H250 0.961 . S
C253 H251 0.961 . S
C253 H252 0.960 . S
C254 O230 1.253 . S
C254 O239 1.263 . S
C255 O237 1.278 . S
C255 O240 1.237 . S
H256 C220 0.930 . S
H257 C224 0.930 . S
Co258 N259 2.034 . S
Co258 O273 2.262 . S
Co258 O277 1.958 . S
Co258 O281 1.950 . S
Co258 O282 2.057 . S
N259 Co258 2.034 . S
N259 C260 1.366 . S
N259 C262 1.332 . S
C260 N259 1.366 . S
C260 C263 1.377 . S
C260 H292 0.931 . S
N261 C262 1.346 . S
N261 C263 1.337 . S
C262 N259 1.332 . S
C262 N261 1.346 . S
C262 C296 1.361 . S
C263 C260 1.377 . S
C263 N261 1.337 . S
C263 H299 0.930 . S
Co264 N265 2.034 . S
Co264 O278 1.950 . S
Co264 O279 2.262 . S
Co264 O280 1.958 . S
Co264 O284 2.057 . S
N265 Co264 2.034 . S
N265 C268 1.366 . S
N265 C269 1.332 . S
N266 C267 1.337 . S
N266 C269 1.346 . S
C267 N266 1.337 . S
C267 C268 1.377 . S
C267 H300 0.930 . S
C268 N265 1.366 . S
C268 C267 1.377 . S
C268 H272 0.931 . S
C269 N265 1.332 . S
C269 N266 1.346 . S
C269 C286 1.361 1_655 S
Co270 O273 2.097 1_554 S
Co270 O274 2.065 . S
Co270 O275 2.065 . S
Co270 O276 2.042 . S
Co270 O279 2.097 . S
Co270 O283 2.042 . S
C271 O279 1.253 . S
C271 O284 1.263 . S
H272 C268 0.931 . S
O273 Co258 2.262 . S
O273 Co270 2.097 1_556 S
O273 C297 1.253 . S
O274 Co270 2.065 . S
O274 C290 1.221 1_655 S
O275 Co270 2.065 . S
O275 C285 1.221 . S
O276 Co270 2.042 . S
O276 C291 1.237 . S
O277 Co258 1.958 . S
O277 C291 1.278 1_556 S
O278 Co264 1.950 . S
O278 C290 1.277 1_655 S
O279 Co264 2.262 . S
O279 Co270 2.097 . S
O279 C271 1.253 . S
O280 Co264 1.958 . S
O280 C298 1.278 . S
O281 Co258 1.950 . S
O281 C285 1.277 1_556 S
O282 Co258 2.057 . S
O282 C297 1.263 . S
O283 Co270 2.042 . S
O283 C298 1.237 . S
O284 Co264 2.057 . S
O284 C271 1.263 . S
C285 O275 1.221 . S
C285 O281 1.277 1_554 S
C286 C269 1.361 1_455 S
C286 H287 0.962 1_455 S
C286 H288 0.961 . S
C286 H289 0.961 1_455 S
H287 C286 0.962 1_655 S
H288 C286 0.961 . S
H289 C286 0.961 1_655 S
C290 O274 1.221 1_455 S
C290 O278 1.277 1_455 S
C291 O276 1.237 . S
C291 O277 1.278 1_554 S
H292 C260 0.931 . S
H293 C296 0.961 . S
H294 C296 0.961 . S
H295 C296 0.960 . S
C296 C262 1.361 . S
C296 H293 0.961 . S
C296 H294 0.961 . S
C296 H295 0.960 . S
C297 O273 1.253 . S
C297 O282 1.263 . S
C298 O280 1.278 . S
C298 O283 1.237 . S
H299 C263 0.930 . S
H300 C267 0.930 . S
Co301 N302 2.034 . S
Co301 O316 2.262 . S
Co301 O320 1.958 . S
Co301 O324 1.950 . S
Co301 O325 2.057 . S
N302 Co301 2.034 . S
N302 C303 1.366 . S
N302 C305 1.332 . S
C303 N302 1.366 . S
C303 C306 1.377 . S
C303 H335 0.931 . S
N304 C305 1.346 . S
N304 C306 1.337 . S
C305 N302 1.332 . S
C305 N304 1.346 . S
C305 C339 1.361 . S
C306 C303 1.377 . S
C306 N304 1.337 . S
C306 H342 0.930 . S
Co307 N308 2.034 . S
Co307 O321 1.950 . S
Co307 O322 2.262 . S
Co307 O323 1.958 . S
Co307 O327 2.057 . S
N308 Co307 2.034 . S
N308 C311 1.366 . S
N308 C312 1.332 . S
N309 C310 1.337 . S
N309 C312 1.346 . S
C310 N309 1.337 . S
C310 C311 1.377 . S
C310 H343 0.930 . S
C311 N308 1.366 . S
C311 C310 1.377 . S
C311 H315 0.931 . S
C312 N308 1.332 . S
C312 N309 1.346 . S
C312 C329 1.361 . S
Co313 O316 2.097 . S
Co313 O317 2.065 . S
Co313 O318 2.065 . S
Co313 O319 2.042 . S
Co313 O322 2.097 1_554 S
Co313 O326 2.042 . S
C314 O322 1.253 . S
C314 O327 1.263 . S
H315 C311 0.931 . S
O316 Co301 2.262 . S
O316 Co313 2.097 . S
O316 C340 1.253 . S
O317 Co313 2.065 . S
O317 C333 1.221 . S
O318 Co313 2.065 . S
O318 C328 1.221 . S
O319 Co313 2.042 . S
O319 C334 1.237 . S
O320 Co301 1.958 . S
O320 C334 1.278 . S
O321 Co307 1.950 . S
O321 C333 1.277 1_556 S
O322 Co307 2.262 . S
O322 Co313 2.097 1_556 S
O322 C314 1.253 . S
O323 Co307 1.958 . S
O323 C341 1.278 1_556 S
O324 Co301 1.950 . S
O324 C328 1.277 . S
O325 Co301 2.057 . S
O325 C340 1.263 . S
O326 Co313 2.042 . S
O326 C341 1.237 . S
O327 Co307 2.057 . S
O327 C314 1.263 . S
C328 O318 1.221 . S
C328 O324 1.277 . S
C329 C312 1.361 . S
C329 H330 0.960 . S
C329 H331 0.961 . S
C329 H332 0.961 . S
H330 C329 0.960 . S
H331 C329 0.961 . S
H332 C329 0.961 . S
C333 O317 1.221 . S
C333 O321 1.277 1_554 S
C334 O319 1.237 . S
C334 O320 1.278 . S
H335 C303 0.931 . S
H336 C339 0.961 . S
H337 C339 0.961 . S
H338 C339 0.960 . S
C339 C305 1.361 . S
C339 H336 0.961 . S
C339 H337 0.961 . S
C339 H338 0.960 . S
C340 O316 1.253 . S
C340 O325 1.263 . S
C341 O323 1.278 1_554 S
C341 O326 1.237 . S
H342 C306 0.930 . S
H343 C310 0.930 . S
Co344 N345 2.034 . S
Co344 O359 2.262 . S
Co344 O363 1.958 . S
Co344 O367 1.950 . S
Co344 O368 2.057 . S
N345 Co344 2.034 . S
N345 C346 1.366 . S
N345 C348 1.332 . S
C346 N345 1.366 . S
C346 C349 1.377 . S
C346 H378 0.931 . S
N347 C348 1.346 . S
N347 C349 1.337 . S
C348 N345 1.332 . S
C348 N347 1.346 . S
C348 C382 1.361 . S
C349 C346 1.377 . S
C349 N347 1.337 . S
C349 H385 0.930 . S
Co350 N351 2.034 . S
Co350 O364 1.950 . S
Co350 O365 2.262 . S
Co350 O366 1.958 . S
Co350 O370 2.057 . S
N351 Co350 2.034 . S
N351 C354 1.366 . S
N351 C355 1.332 . S
N352 C353 1.337 . S
N352 C355 1.346 . S
C353 N352 1.337 . S
C353 C354 1.377 . S
C353 H386 0.930 . S
C354 N351 1.366 . S
C354 C353 1.377 . S
C354 H358 0.931 . S
C355 N351 1.332 . S
C355 N352 1.346 . S
C355 C372 1.361 . S
Co356 O359 2.097 . S
Co356 O360 2.065 . S
Co356 O361 2.065 . S
Co356 O362 2.042 . S
Co356 O365 2.097 1_554 S
Co356 O369 2.042 . S
C357 O365 1.253 . S
C357 O370 1.263 . S
H358 C354 0.931 . S
O359 Co344 2.262 . S
O359 Co356 2.097 . S
O359 C383 1.253 . S
O360 Co356 2.065 . S
O360 C376 1.221 . S
O361 Co356 2.065 . S
O361 C371 1.215 1_545 S
O362 Co356 2.042 . S
O362 C377 1.237 . S
O363 Co344 1.958 . S
O363 C377 1.278 . S
O364 Co350 1.950 . S
O364 C376 1.277 1_556 S
O365 Co350 2.262 . S
O365 Co356 2.097 1_556 S
O365 C357 1.253 . S
O366 Co350 1.958 . S
O366 C384 1.278 1_556 S
O367 Co344 1.950 . S
O367 C371 1.276 1_545 S
O368 Co344 2.057 . S
O368 C383 1.263 . S
O369 Co356 2.042 . S
O369 C384 1.237 . S
O370 Co350 2.057 . S
O370 C357 1.263 . S
C371 O361 1.215 1_565 S
C371 O367 1.276 1_565 S
C372 C355 1.361 . S
C372 H373 0.960 . S
C372 H374 0.961 . S
C372 H375 0.961 . S
H373 C372 0.960 . S
H374 C372 0.961 . S
H375 C372 0.961 . S
C376 O360 1.221 . S
C376 O364 1.277 1_554 S
C377 O362 1.237 . S
C377 O363 1.278 . S
H378 C346 0.931 . S
H379 C382 0.961 . S
H380 C382 0.961 1_565 S
H381 C382 0.960 . S
C382 C348 1.361 . S
C382 H379 0.961 . S
C382 H380 0.961 1_545 S
C382 H381 0.960 . S
C383 O359 1.253 . S
C383 O368 1.263 . S
C384 O366 1.278 1_554 S
C384 O369 1.237 . S
H385 C349 0.930 . S
H386 C353 0.930 . S
Co387 N388 2.034 . S
Co387 O402 2.262 . S
Co387 O406 1.958 . S
Co387 O410 1.950 . S
Co387 O411 2.057 . S
N388 Co387 2.034 . S
N388 C389 1.366 . S
N388 C391 1.332 . S
C389 N388 1.366 . S
C389 C392 1.377 . S
C389 H421 0.931 . S
N390 C391 1.346 . S
N390 C392 1.337 . S
C391 N388 1.332 . S
C391 N390 1.346 . S
C391 C425 1.361 . S
C392 C389 1.377 . S
C392 N390 1.337 . S
C392 H428 0.930 . S
Co393 N394 2.034 . S
Co393 O407 1.950 . S
Co393 O408 2.262 . S
Co393 O409 1.958 . S
Co393 O413 2.057 . S
N394 Co393 2.034 . S
N394 C397 1.366 . S
N394 C398 1.332 . S
N395 C396 1.337 . S
N395 C398 1.346 . S
C396 N395 1.337 . S
C396 C397 1.377 . S
C396 H429 0.930 . S
C397 N394 1.366 . S
C397 C396 1.377 . S
C397 H401 0.931 . S
C398 N394 1.332 . S
C398 N395 1.346 . S
C398 C415 1.361 . S
Co399 O402 2.097 . S
Co399 O403 2.065 . S
Co399 O404 2.065 . S
Co399 O405 2.042 . S
Co399 O408 2.097 . S
Co399 O412 2.042 . S
C400 O408 1.253 . S
C400 O413 1.263 . S
H401 C397 0.931 . S
O402 Co387 2.262 . S
O402 Co399 2.097 . S
O402 C426 1.253 . S
O403 Co399 2.065 . S
O403 C419 1.221 . S
O404 Co399 2.065 . S
O404 C414 1.221 . S
O405 Co399 2.042 . S
O405 C420 1.237 . S
O406 Co387 1.958 . S
O406 C420 1.278 . S
O407 Co393 1.950 . S
O407 C419 1.277 . S
O408 Co393 2.262 . S
O408 Co399 2.097 . S
O408 C400 1.253 . S
O409 Co393 1.958 . S
O409 C427 1.278 . S
O410 Co387 1.950 . S
O410 C414 1.277 . S
O411 Co387 2.057 . S
O411 C426 1.263 . S
O412 Co399 2.042 . S
O412 C427 1.237 . S
O413 Co393 2.057 . S
O413 C400 1.263 . S
C414 O404 1.221 . S
C414 O410 1.277 . S
C415 C398 1.361 . S
C415 H416 0.960 . S
C415 H417 0.961 . S
C415 H418 0.961 . S
H416 C415 0.960 . S
H417 C415 0.961 . S
H418 C415 0.961 . S
C419 O403 1.221 . S
C419 O407 1.277 . S
C420 O405 1.237 . S
C420 O406 1.278 . S
H421 C389 0.931 . S
H422 C425 0.961 . S
H423 C425 0.961 . S
H424 C425 0.960 . S
C425 C391 1.361 . S
C425 H422 0.961 . S
C425 H423 0.961 . S
C425 H424 0.960 . S
C426 O402 1.253 . S
C426 O411 1.263 . S
C427 O409 1.278 . S
C427 O412 1.237 . S
H428 C392 0.930 . S
H429 C396 0.930 . S
Co430 N431 2.034 . S
Co430 O445 2.262 . S
Co430 O449 1.958 . S
Co430 O453 1.950 . S
Co430 O454 2.057 . S
N431 Co430 2.034 . S
N431 C432 1.366 . S
N431 C434 1.332 . S
C432 N431 1.366 . S
C432 C435 1.377 . S
C432 H464 0.931 . S
N433 C434 1.346 . S
N433 C435 1.337 . S
C434 N431 1.332 . S
C434 N433 1.346 . S
C434 C468 1.361 . S
C435 C432 1.377 . S
C435 N433 1.337 . S
C435 H471 0.930 . S
Co436 N437 2.034 . S
Co436 O450 1.950 . S
Co436 O451 2.262 . S
Co436 O452 1.958 . S
Co436 O456 2.057 . S
N437 Co436 2.034 . S
N437 C440 1.366 . S
N437 C441 1.332 . S
N438 C439 1.337 . S
N438 C441 1.346 . S
C439 N438 1.337 . S
C439 C440 1.377 . S
C439 H472 0.930 . S
C440 N437 1.366 . S
C440 C439 1.377 . S
C440 H444 0.931 . S
C441 N437 1.332 . S
C441 N438 1.346 . S
C441 C458 1.361 . S
Co442 O445 2.097 . S
Co442 O446 2.065 . S
Co442 O447 2.065 . S
Co442 O448 2.042 . S
Co442 O451 2.097 . S
Co442 O455 2.042 . S
C443 O451 1.253 . S
C443 O456 1.263 . S
H444 C440 0.931 . S
O445 Co430 2.262 . S
O445 Co442 2.097 . S
O445 C469 1.253 . S
O446 Co442 2.065 . S
O446 C462 1.221 . S
O447 Co442 2.065 . S
O447 C457 1.217 1_545 S
O448 Co442 2.042 . S
O448 C463 1.237 . S
O449 Co430 1.958 . S
O449 C463 1.278 . S
O450 Co436 1.950 . S
O450 C462 1.277 . S
O451 Co436 2.262 . S
O451 Co442 2.097 . S
O451 C443 1.253 . S
O452 Co436 1.958 . S
O452 C470 1.278 . S
O453 Co430 1.950 . S
O453 C457 1.274 1_545 S
O454 Co430 2.057 . S
O454 C469 1.263 . S
O455 Co442 2.042 . S
O455 C470 1.237 . S
O456 Co436 2.057 . S
O456 C443 1.263 . S
C457 O447 1.217 1_565 S
C457 O453 1.274 1_565 S
C458 C441 1.361 . S
C458 H459 0.960 . S
C458 H460 0.961 . S
C458 H461 0.961 . S
H459 C458 0.960 . S
H460 C458 0.961 . S
H461 C458 0.961 . S
C462 O446 1.221 . S
C462 O450 1.277 . S
C463 O448 1.237 . S
C463 O449 1.278 . S
H464 C432 0.931 . S
H465 C468 0.961 . S
H466 C468 0.961 1_565 S
H467 C468 0.960 . S
C468 C434 1.361 . S
C468 H465 0.961 . S
C468 H466 0.961 1_545 S
C468 H467 0.960 . S
C469 O445 1.253 . S
C469 O454 1.263 . S
C470 O452 1.278 . S
C470 O455 1.237 . S
H471 C435 0.930 . S
H472 C439 0.930 . S
Co473 N474 2.034 . S
Co473 O488 2.262 . S
Co473 O492 1.958 . S
Co473 O496 1.950 . S
Co473 O497 2.057 . S
N474 Co473 2.034 . S
N474 C475 1.366 . S
N474 C477 1.332 . S
C475 N474 1.366 . S
C475 C478 1.377 . S
C475 H507 0.931 . S
N476 C477 1.346 . S
N476 C478 1.337 . S
C477 N474 1.332 . S
C477 N476 1.346 . S
C477 C511 1.361 1_655 S
C478 C475 1.377 . S
C478 N476 1.337 . S
C478 H514 0.930 . S
Co479 N480 2.034 . S
Co479 O493 1.950 . S
Co479 O494 2.262 . S
Co479 O495 1.958 . S
Co479 O499 2.057 . S
N480 Co479 2.034 . S
N480 C483 1.366 . S
N480 C484 1.332 . S
N481 C482 1.337 . S
N481 C484 1.346 . S
C482 N481 1.337 . S
C482 C483 1.377 . S
C482 H515 0.930 . S
C483 N480 1.366 . S
C483 C482 1.377 . S
C483 H487 0.931 . S
C484 N480 1.332 . S
C484 N481 1.346 . S
C484 C501 1.361 . S
Co485 O488 2.097 . S
Co485 O489 2.065 . S
Co485 O490 2.065 . S
Co485 O491 2.042 . S
Co485 O494 2.097 . S
Co485 O498 2.042 . S
C486 O494 1.253 . S
C486 O499 1.263 . S
H487 C483 0.931 . S
O488 Co473 2.262 . S
O488 Co485 2.097 . S
O488 C512 1.253 . S
O489 Co485 2.065 . S
O489 C505 1.221 . S
O490 Co485 2.065 . S
O490 C500 1.221 1_655 S
O491 Co485 2.042 . S
O491 C506 1.237 . S
O492 Co473 1.958 . S
O492 C506 1.278 . S
O493 Co479 1.950 . S
O493 C505 1.277 . S
O494 Co479 2.262 . S
O494 Co485 2.097 . S
O494 C486 1.253 . S
O495 Co479 1.958 . S
O495 C513 1.278 . S
O496 Co473 1.950 . S
O496 C500 1.277 1_655 S
O497 Co473 2.057 . S
O497 C512 1.263 . S
O498 Co485 2.042 . S
O498 C513 1.237 . S
O499 Co479 2.057 . S
O499 C486 1.263 . S
C500 O490 1.221 1_455 S
C500 O496 1.277 1_455 S
C501 C484 1.361 . S
C501 H502 0.960 . S
C501 H503 0.961 . S
C501 H504 0.961 . S
H502 C501 0.960 . S
H503 C501 0.961 . S
H504 C501 0.961 . S
C505 O489 1.221 . S
C505 O493 1.277 . S
C506 O491 1.237 . S
C506 O492 1.278 . S
H507 C475 0.931 . S
H508 C511 0.961 1_655 S
H509 C511 0.961 . S
H510 C511 0.955 1_655 S
C511 C477 1.361 1_455 S
C511 H508 0.961 1_455 S
C511 H509 0.961 . S
C511 H510 0.955 1_455 S
C512 O488 1.253 . S
C512 O497 1.263 . S
C513 O495 1.278 . S
C513 O498 1.237 . S
H514 C478 0.930 . S
H515 C482 0.930 . S
Co516 N517 2.034 . S
Co516 O531 2.262 . S
Co516 O535 1.958 . S
Co516 O539 1.950 . S
Co516 O540 2.057 . S
N517 Co516 2.034 . S
N517 C518 1.366 . S
N517 C520 1.332 . S
C518 N517 1.366 . S
C518 C521 1.377 . S
C518 H550 0.931 . S
N519 C520 1.346 . S
N519 C521 1.337 . S
C520 N517 1.332 . S
C520 N519 1.346 . S
C520 C554 1.361 . S
C521 C518 1.377 . S
C521 N519 1.337 . S
C521 H557 0.930 . S
Co522 N523 2.034 . S
Co522 O536 1.950 . S
Co522 O537 2.262 . S
Co522 O538 1.958 . S
Co522 O542 2.057 . S
N523 Co522 2.034 . S
N523 C526 1.366 . S
N523 C527 1.332 . S
N524 C525 1.337 . S
N524 C527 1.346 . S
C525 N524 1.337 . S
C525 C526 1.377 . S
C525 H558 0.930 . S
C526 N523 1.366 . S
C526 C525 1.377 . S
C526 H530 0.931 . S
C527 N523 1.332 . S
C527 N524 1.346 . S
C527 C544 1.361 . S
Co528 O531 2.097 . S
Co528 O532 2.065 . S
Co528 O533 2.065 . S
Co528 O534 2.042 . S
Co528 O537 2.097 . S
Co528 O541 2.042 . S
C529 O537 1.253 . S
C529 O542 1.263 . S
H530 C526 0.931 . S
O531 Co516 2.262 . S
O531 Co528 2.097 . S
O531 C555 1.253 . S
O532 Co528 2.065 . S
O532 C548 1.221 . S
O533 Co528 2.065 . S
O533 C543 1.221 . S
O534 Co528 2.042 . S
O534 C549 1.237 . S
O535 Co516 1.958 . S
O535 C549 1.278 . S
O536 Co522 1.950 . S
O536 C548 1.277 . S
O537 Co522 2.262 . S
O537 Co528 2.097 . S
O537 C529 1.253 . S
O538 Co522 1.958 . S
O538 C556 1.278 . S
O539 Co516 1.950 . S
O539 C543 1.277 . S
O540 Co516 2.057 . S
O540 C555 1.263 . S
O541 Co528 2.042 . S
O541 C556 1.237 . S
O542 Co522 2.057 . S
O542 C529 1.263 . S
C543 O533 1.221 . S
C543 O539 1.277 . S
C544 C527 1.361 . S
C544 H545 0.960 . S
C544 H546 0.961 . S
C544 H547 0.961 . S
H545 C544 0.960 . S
H546 C544 0.961 . S
H547 C544 0.961 . S
C548 O532 1.221 . S
C548 O536 1.277 . S
C549 O534 1.237 . S
C549 O535 1.278 . S
H550 C518 0.931 . S
H551 C554 0.961 . S
H552 C554 0.961 . S
H553 C554 0.960 . S
C554 C520 1.361 . S
C554 H551 0.961 . S
C554 H552 0.961 . S
C554 H553 0.960 . S
C555 O531 1.253 . S
C555 O540 1.263 . S
C556 O538 1.278 . S
C556 O541 1.237 . S
H557 C521 0.930 . S
H558 C525 0.930 . S
Co559 N560 2.034 . S
Co559 O574 2.262 . S
Co559 O578 1.958 . S
Co559 O582 1.950 . S
Co559 O583 2.057 . S
N560 Co559 2.034 . S
N560 C561 1.366 . S
N560 C563 1.332 . S
C561 N560 1.366 . S
C561 C564 1.377 . S
C561 H593 0.931 . S
N562 C563 1.346 . S
N562 C564 1.337 . S
C563 N560 1.332 . S
C563 N562 1.346 . S
C563 C597 1.361 . S
C564 C561 1.377 . S
C564 N562 1.337 . S
C564 H600 0.930 . S
Co565 N566 2.034 . S
Co565 O579 1.950 . S
Co565 O580 2.262 . S
Co565 O581 1.958 . S
Co565 O585 2.057 . S
N566 Co565 2.034 . S
N566 C569 1.366 . S
N566 C570 1.332 . S
N567 C568 1.337 . S
N567 C570 1.346 . S
C568 N567 1.337 . S
C568 C569 1.377 . S
C568 H601 0.930 . S
C569 N566 1.366 . S
C569 C568 1.377 . S
C569 H573 0.931 . S
C570 N566 1.332 . S
C570 N567 1.346 . S
C570 C587 1.361 1_565 S
Co571 O574 2.097 . S
Co571 O575 2.065 . S
Co571 O576 2.065 . S
Co571 O577 2.042 . S
Co571 O580 2.097 . S
Co571 O584 2.042 . S
C572 O580 1.253 . S
C572 O585 1.263 . S
H573 C569 0.931 . S
O574 Co559 2.262 . S
O574 Co571 2.097 . S
O574 C598 1.253 . S
O575 Co571 2.065 . S
O575 C591 1.221 1_565 S
O576 Co571 2.065 . S
O576 C586 1.221 . S
O577 Co571 2.042 . S
O577 C592 1.237 . S
O578 Co559 1.958 . S
O578 C592 1.278 . S
O579 Co565 1.950 . S
O579 C591 1.277 1_565 S
O580 Co565 2.262 . S
O580 Co571 2.097 . S
O580 C572 1.253 . S
O581 Co565 1.958 . S
O581 C599 1.278 . S
O582 Co559 1.950 . S
O582 C586 1.277 . S
O583 Co559 2.057 . S
O583 C598 1.263 . S
O584 Co571 2.042 . S
O584 C599 1.237 . S
O585 Co565 2.057 . S
O585 C572 1.263 . S
C586 O576 1.221 . S
C586 O582 1.277 . S
C587 C570 1.361 1_545 S
C587 H588 0.962 1_545 S
C587 H589 0.961 . S
C587 H590 0.961 1_545 S
H588 C587 0.962 1_565 S
H589 C587 0.961 . S
H590 C587 0.961 1_565 S
C591 O575 1.221 1_545 S
C591 O579 1.277 1_545 S
C592 O577 1.237 . S
C592 O578 1.278 . S
H593 C561 0.931 . S
H594 C597 0.961 . S
H595 C597 0.961 . S
H596 C597 0.960 . S
C597 C563 1.361 . S
C597 H594 0.961 . S
C597 H595 0.961 . S
C597 H596 0.960 . S
C598 O574 1.253 . S
C598 O583 1.263 . S
C599 O581 1.278 . S
C599 O584 1.237 . S
H600 C564 0.930 . S
H601 C568 0.930 . S
Co602 N603 2.034 . S
Co602 O617 2.262 . S
Co602 O621 1.958 . S
Co602 O625 1.950 . S
Co602 O626 2.057 . S
N603 Co602 2.034 . S
N603 C604 1.366 . S
N603 C606 1.332 . S
C604 N603 1.366 . S
C604 C607 1.377 . S
C604 H636 0.931 . S
N605 C606 1.346 . S
N605 C607 1.337 . S
C606 N603 1.332 . S
C606 N605 1.346 . S
C606 C640 1.361 . S
C607 C604 1.377 . S
C607 N605 1.337 . S
C607 H643 0.930 . S
Co608 N609 2.034 . S
Co608 O622 1.950 . S
Co608 O623 2.262 . S
Co608 O624 1.958 . S
Co608 O628 2.057 . S
N609 Co608 2.034 . S
N609 C612 1.366 . S
N609 C613 1.332 . S
N610 C611 1.337 . S
N610 C613 1.346 . S
C611 N610 1.337 . S
C611 C612 1.377 . S
C611 H644 0.930 . S
C612 N609 1.366 . S
C612 C611 1.377 . S
C612 H616 0.931 . S
C613 N609 1.332 . S
C613 N610 1.346 . S
C613 C630 1.361 . S
Co614 O617 2.097 . S
Co614 O618 2.065 . S
Co614 O619 2.065 . S
Co614 O620 2.042 . S
Co614 O623 2.097 . S
Co614 O627 2.042 . S
C615 O623 1.253 . S
C615 O628 1.263 . S
H616 C612 0.931 . S
O617 Co602 2.262 . S
O617 Co614 2.097 . S
O617 C641 1.253 . S
O618 Co614 2.065 . S
O618 C634 1.221 . S
O619 Co614 2.065 . S
O619 C629 1.215 1_455 S
O620 Co614 2.042 . S
O620 C635 1.237 . S
O621 Co602 1.958 . S
O621 C635 1.278 . S
O622 Co608 1.950 . S
O622 C634 1.277 . S
O623 Co608 2.262 . S
O623 Co614 2.097 . S
O623 C615 1.253 . S
O624 Co608 1.958 . S
O624 C642 1.278 . S
O625 Co602 1.950 . S
O625 C629 1.276 1_455 S
O626 Co602 2.057 . S
O626 C641 1.263 . S
O627 Co614 2.042 . S
O627 C642 1.237 . S
O628 Co608 2.057 . S
O628 C615 1.263 . S
C629 O619 1.215 1_655 S
C629 O625 1.276 1_655 S
C630 C613 1.361 . S
C630 H631 0.960 . S
C630 H632 0.961 . S
C630 H633 0.961 . S
H631 C630 0.960 . S
H632 C630 0.961 . S
H633 C630 0.961 . S
C634 O618 1.221 . S
C634 O622 1.277 . S
C635 O620 1.237 . S
C635 O621 1.278 . S
H636 C604 0.931 . S
H637 C640 0.961 . S
H638 C640 0.961 1_655 S
H639 C640 0.960 . S
C640 C606 1.361 . S
C640 H637 0.961 . S
C640 H638 0.961 1_455 S
C640 H639 0.960 . S
C641 O617 1.253 . S
C641 O626 1.263 . S
C642 O624 1.278 . S
C642 O627 1.237 . S
H643 C607 0.930 . S
H644 C611 0.930 . S
Co645 N646 2.034 . S
Co645 O660 2.262 . S
Co645 O664 1.958 . S
Co645 O668 1.950 . S
Co645 O669 2.057 . S
N646 Co645 2.034 . S
N646 C647 1.366 . S
N646 C649 1.332 . S
C647 N646 1.366 . S
C647 C650 1.377 . S
C647 H679 0.931 . S
N648 C649 1.346 . S
N648 C650 1.337 . S
C649 N646 1.332 . S
C649 N648 1.346 . S
C649 C683 1.361 . S
C650 C647 1.377 . S
C650 N648 1.337 . S
C650 H686 0.930 . S
Co651 N652 2.034 . S
Co651 O665 1.950 . S
Co651 O666 2.262 . S
Co651 O667 1.958 . S
Co651 O671 2.057 . S
N652 Co651 2.034 . S
N652 C655 1.366 . S
N652 C656 1.332 . S
N653 C654 1.337 . S
N653 C656 1.346 . S
C654 N653 1.337 . S
C654 C655 1.377 . S
C654 H687 0.930 . S
C655 N652 1.366 . S
C655 C654 1.377 . S
C655 H659 0.931 . S
C656 N652 1.332 . S
C656 N653 1.346 . S
C656 C673 1.361 . S
Co657 O660 2.097 1_556 S
Co657 O661 2.065 . S
Co657 O662 2.065 . S
Co657 O663 2.042 . S
Co657 O666 2.097 . S
Co657 O670 2.042 . S
C658 O666 1.253 . S
C658 O671 1.263 . S
H659 C655 0.931 . S
O660 Co645 2.262 . S
O660 Co657 2.097 1_554 S
O660 C684 1.253 . S
O661 Co657 2.065 . S
O661 C677 1.217 1_455 S
O662 Co657 2.065 . S
O662 C672 1.221 . S
O663 Co657 2.042 . S
O663 C678 1.237 . S
O664 Co645 1.958 . S
O664 C678 1.278 1_554 S
O665 Co651 1.950 . S
O665 C677 1.274 1_455 S
O666 Co651 2.262 . S
O666 Co657 2.097 . S
O666 C658 1.253 . S
O667 Co651 1.958 . S
O667 C685 1.278 . S
O668 Co645 1.950 . S
O668 C672 1.277 1_554 S
O669 Co645 2.057 . S
O669 C684 1.263 . S
O670 Co657 2.042 . S
O670 C685 1.237 . S
O671 Co651 2.057 . S
O671 C658 1.263 . S
C672 O662 1.221 . S
C672 O668 1.277 1_556 S
C673 C656 1.361 . S
C673 H674 0.960 . S
C673 H675 0.961 1_455 S
C673 H676 0.961 . S
H674 C673 0.960 . S
H675 C673 0.961 1_655 S
H676 C673 0.961 . S
C677 O661 1.217 1_655 S
C677 O665 1.274 1_655 S
C678 O663 1.237 . S
C678 O664 1.278 1_556 S
H679 C647 0.931 . S
H680 C683 0.961 . S
H681 C683 0.961 . S
H682 C683 0.960 . S
C683 C649 1.361 . S
C683 H680 0.961 . S
C683 H681 0.961 . S
C683 H682 0.960 . S
C684 O660 1.253 . S
C684 O669 1.263 . S
C685 O667 1.278 . S
C685 O670 1.237 . S
H686 C650 0.930 . S
H687 C654 0.930 . S
Co688 N689 2.034 . S
Co688 O703 2.262 . S
Co688 O707 1.958 . S
Co688 O711 1.950 . S
Co688 O712 2.057 . S
N689 Co688 2.034 . S
N689 C690 1.366 . S
N689 C692 1.332 . S
C690 N689 1.366 . S
C690 C693 1.377 . S
C690 H722 0.931 . S
N691 C692 1.346 . S
N691 C693 1.337 . S
C692 N689 1.332 . S
C692 N691 1.346 . S
C692 C726 1.361 . S
C693 C690 1.377 . S
C693 N691 1.337 . S
C693 H729 0.930 . S
Co694 N695 2.034 . S
Co694 O708 1.950 . S
Co694 O709 2.262 . S
Co694 O710 1.958 . S
Co694 O714 2.057 . S
N695 Co694 2.034 . S
N695 C698 1.366 . S
N695 C699 1.332 . S
N696 C697 1.337 . S
N696 C699 1.346 . S
C697 N696 1.337 . S
C697 C698 1.377 . S
C697 H730 0.930 . S
C698 N695 1.366 . S
C698 C697 1.377 . S
C698 H702 0.931 . S
C699 N695 1.332 . S
C699 N696 1.346 . S
C699 C716 1.361 . S
Co700 O703 2.097 1_556 S
Co700 O704 2.065 . S
Co700 O705 2.065 . S
Co700 O706 2.042 . S
Co700 O709 2.097 . S
Co700 O713 2.042 . S
C701 O709 1.253 . S
C701 O714 1.263 . S
H702 C698 0.931 . S
O703 Co688 2.262 . S
O703 Co700 2.097 1_554 S
O703 C727 1.253 . S
O704 Co700 2.065 . S
O704 C720 1.221 . S
O705 Co700 2.065 . S
O705 C715 1.221 . S
O706 Co700 2.042 . S
O706 C721 1.237 . S
O707 Co688 1.958 . S
O707 C721 1.278 1_554 S
O708 Co694 1.950 . S
O708 C720 1.277 . S
O709 Co694 2.262 . S
O709 Co700 2.097 . S
O709 C701 1.253 . S
O710 Co694 1.958 . S
O710 C728 1.278 . S
O711 Co688 1.950 . S
O711 C715 1.277 1_554 S
O712 Co688 2.057 . S
O712 C727 1.263 . S
O713 Co700 2.042 . S
O713 C728 1.237 . S
O714 Co694 2.057 . S
O714 C701 1.263 . S
C715 O705 1.221 . S
C715 O711 1.277 1_556 S
C716 C699 1.361 . S
C716 H717 0.960 . S
C716 H718 0.961 . S
C716 H719 0.961 . S
H717 C716 0.960 . S
H718 C716 0.961 . S
H719 C716 0.961 . S
C720 O704 1.221 . S
C720 O708 1.277 . S
C721 O706 1.237 . S
C721 O707 1.278 1_556 S
H722 C690 0.931 . S
H723 C726 0.961 . S
H724 C726 0.961 . S
H725 C726 0.960 . S
C726 C692 1.361 . S
C726 H723 0.961 . S
C726 H724 0.961 . S
C726 H725 0.960 . S
C727 O703 1.253 . S
C727 O712 1.263 . S
C728 O710 1.278 . S
C728 O713 1.237 . S
H729 C693 0.930 . S
H730 C697 0.930 . S
Co731 N732 2.034 . S
Co731 O746 2.262 . S
Co731 O750 1.958 . S
Co731 O754 1.950 . S
Co731 O755 2.057 . S
N732 Co731 2.034 . S
N732 C733 1.366 . S
N732 C735 1.332 . S
C733 N732 1.366 . S
C733 C736 1.377 . S
C733 H765 0.931 . S
N734 C735 1.346 . S
N734 C736 1.337 . S
C735 N732 1.332 . S
C735 N734 1.346 . S
C735 C769 1.361 1_565 S
C736 C733 1.377 . S
C736 N734 1.337 . S
C736 H772 0.930 . S
Co737 N738 2.034 . S
Co737 O751 1.950 . S
Co737 O752 2.262 . S
Co737 O753 1.958 . S
Co737 O757 2.057 . S
N738 Co737 2.034 . S
N738 C741 1.366 . S
N738 C742 1.332 . S
N739 C740 1.337 . S
N739 C742 1.346 . S
C740 N739 1.337 . S
C740 C741 1.377 . S
C740 H773 0.930 . S
C741 N738 1.366 . S
C741 C740 1.377 . S
C741 H745 0.931 . S
C742 N738 1.332 . S
C742 N739 1.346 . S
C742 C759 1.361 . S
Co743 O746 2.097 . S
Co743 O747 2.065 . S
Co743 O748 2.065 . S
Co743 O749 2.042 . S
Co743 O752 2.097 1_556 S
Co743 O756 2.042 . S
C744 O752 1.253 . S
C744 O757 1.263 . S
H745 C741 0.931 . S
O746 Co731 2.262 . S
O746 Co743 2.097 . S
O746 C770 1.253 . S
O747 Co743 2.065 . S
O747 C763 1.221 . S
O748 Co743 2.065 . S
O748 C758 1.221 1_565 S
O749 Co743 2.042 . S
O749 C764 1.237 . S
O750 Co731 1.958 . S
O750 C764 1.278 . S
O751 Co737 1.950 . S
O751 C763 1.277 1_554 S
O752 Co737 2.262 . S
O752 Co743 2.097 1_554 S
O752 C744 1.253 . S
O753 Co737 1.958 . S
O753 C771 1.278 1_554 S
O754 Co731 1.950 . S
O754 C758 1.277 1_565 S
O755 Co731 2.057 . S
O755 C770 1.263 . S
O756 Co743 2.042 . S
O756 C771 1.237 . S
O757 Co737 2.057 . S
O757 C744 1.263 . S
C758 O748 1.221 1_545 S
C758 O754 1.277 1_545 S
C759 C742 1.361 . S
C759 H760 0.960 . S
C759 H761 0.961 . S
C759 H762 0.961 . S
H760 C759 0.960 . S
H761 C759 0.961 . S
H762 C759 0.961 . S
C763 O747 1.221 . S
C763 O751 1.277 1_556 S
C764 O749 1.237 . S
C764 O750 1.278 . S
H765 C733 0.931 . S
H766 C769 0.961 1_565 S
H767 C769 0.961 . S
H768 C769 0.955 1_565 S
C769 C735 1.361 1_545 S
C769 H766 0.961 1_545 S
C769 H767 0.961 . S
C769 H768 0.955 1_545 S
C770 O746 1.253 . S
C770 O755 1.263 . S
C771 O753 1.278 1_556 S
C771 O756 1.237 . S
H772 C736 0.930 . S
H773 C740 0.930 . S
C76 C33 3.483 . S
C83 C119 3.483 1_545 S
C126 C40 3.483 1_655 S
C212 C169 3.483 . S
C255 C205 3.483 1_545 S
C248 C162 3.483 1_455 S
C298 C341 3.483 . S
C334 C384 3.483 . S
C291 C377 3.483 . S
C427 C463 3.483 . S
C506 C470 3.483 . S
C513 C420 3.483 . S
C556 C599 3.483 . S
C592 C635 3.483 . S
C642 C549 3.483 . S
C721 C685 3.483 . S
C728 C771 3.483 . S
C764 C678 3.483 . S
C13 N223 1.698 . S
C82 N132 1.698 . S
C125 N180 1.698 . S
C56 N218 1.698 . S
N137 C99 1.698 . S
C39 N175 1.698 . S
N89 C168 1.698 . S
C185 N8 1.698 . S
C228 N46 1.698 . S
C211 N94 1.698 . S
C254 N3 1.698 . S
N51 C142 1.698 . S
C297 N476 1.698 . S
N390 C314 1.698 . S
N433 C357 1.698 . S
C340 N481 1.698 . S
N395 C383 1.698 . S
N438 C271 1.698 . S
C426 N352 1.698 . S
N261 C469 1.698 . S
N309 C512 1.698 . S
N347 C443 1.698 . S
C486 N266 1.698 . S
C400 N304 1.698 . S
C555 N739 1.698 . S
C572 N648 1.698 . S
N691 C641 1.698 . S
C598 N734 1.698 . S
C615 N653 1.698 . S
N696 C529 1.698 . S
C684 N605 1.698 . S
C727 N519 1.698 . S
C744 N567 1.698 . S
C701 N610 1.698 . S
C770 N524 1.698 . S
C658 N562 1.698 . S
C32 C586 3.774 . S
C70 C634 3.774 . S
C548 C113 3.774 . S
C285 C75 3.774 1_554 S
C333 C118 3.774 1_554 S
C27 C376 3.774 1_556 S
C156 C462 3.774 . S
C204 C505 3.775 . S
C419 C247 3.774 . S
C199 C672 3.774 1_554 S
C715 C242 3.774 1_556 S
C763 C161 3.775 1_556 S
C328 C543 3.774 . S
C371 C591 3.774 1_565 S
C629 C290 3.774 1_655 S
C414 C720 3.775 . S
C457 C758 3.774 1_565 S
C500 C677 3.774 1_455 S
