# Generated by pormake.
# Topology bcs, (6)-cn, num edge types: 1
# Building blocks:
#     Node 0, Type 0, BuildingBlock: GEDQOX_clean_sbu_0, # of connection points: 6
#     Node 1, Type 0, BuildingBlock: GEDQOX_clean_sbu_0, # of connection points: 6
#     Node 2, Type 0, BuildingBlock: GEDQOX_clean_sbu_0, # of connection points: 6
#     Node 3, Type 0, BuildingBlock: GEDQOX_clean_sbu_0, # of connection points: 6
#     Node 4, Type 0, BuildingBlock: GEDQOX_clean_sbu_0, # of connection points: 6
#     Node 5, Type 0, BuildingBlock: GEDQOX_clean_sbu_0, # of connection points: 6
#     Node 6, Type 0, BuildingBlock: GEDQOX_clean_sbu_0, # of connection points: 6
#     Node 7, Type 0, BuildingBlock: GEDQOX_clean_sbu_0, # of connection points: 6
#     Node 8, Type 0, BuildingBlock: GEDQOX_clean_sbu_0, # of connection points: 6
#     Node 9, Type 0, BuildingBlock: GEDQOX_clean_sbu_0, # of connection points: 6
#     Node 10, Type 0, BuildingBlock: GEDQOX_clean_sbu_0, # of connection points: 6
#     Node 11, Type 0, BuildingBlock: GEDQOX_clean_sbu_0, # of connection points: 6
#     Node 12, Type 0, BuildingBlock: GEDQOX_clean_sbu_0, # of connection points: 6
#     Node 13, Type 0, BuildingBlock: GEDQOX_clean_sbu_0, # of connection points: 6
#     Node 14, Type 0, BuildingBlock: GEDQOX_clean_sbu_0, # of connection points: 6
#     Node 15, Type 0, BuildingBlock: GEDQOX_clean_sbu_0, # of connection points: 6
#     Edge 16, Type (0, 0), BuildingBlock: KIFKEQ_clean_linker_1, # of connection points: 2
#     Edge 17, Type (0, 0), BuildingBlock: KIFKEQ_clean_linker_1, # of connection points: 2
#     Edge 18, Type (0, 0), BuildingBlock: KIFKEQ_clean_linker_1, # of connection points: 2
#     Edge 19, Type (0, 0), BuildingBlock: KIFKEQ_clean_linker_1, # of connection points: 2
#     Edge 20, Type (0, 0), BuildingBlock: KIFKEQ_clean_linker_1, # of connection points: 2
#     Edge 21, Type (0, 0), BuildingBlock: KIFKEQ_clean_linker_1, # of connection points: 2
#     Edge 22, Type (0, 0), BuildingBlock: KIFKEQ_clean_linker_1, # of connection points: 2
#     Edge 23, Type (0, 0), BuildingBlock: KIFKEQ_clean_linker_1, # of connection points: 2
#     Edge 24, Type (0, 0), BuildingBlock: KIFKEQ_clean_linker_1, # of connection points: 2
#     Edge 25, Type (0, 0), BuildingBlock: KIFKEQ_clean_linker_1, # of connection points: 2
#     Edge 26, Type (0, 0), BuildingBlock: KIFKEQ_clean_linker_1, # of connection points: 2
#     Edge 27, Type (0, 0), BuildingBlock: KIFKEQ_clean_linker_1, # of connection points: 2
#     Edge 28, Type (0, 0), BuildingBlock: KIFKEQ_clean_linker_1, # of connection points: 2
#     Edge 29, Type (0, 0), BuildingBlock: KIFKEQ_clean_linker_1, # of connection points: 2
#     Edge 30, Type (0, 0), BuildingBlock: KIFKEQ_clean_linker_1, # of connection points: 2
#     Edge 31, Type (0, 0), BuildingBlock: KIFKEQ_clean_linker_1, # of connection points: 2
#     Edge 32, Type (0, 0), BuildingBlock: KIFKEQ_clean_linker_1, # of connection points: 2
#     Edge 33, Type (0, 0), BuildingBlock: KIFKEQ_clean_linker_1, # of connection points: 2
#     Edge 34, Type (0, 0), BuildingBlock: KIFKEQ_clean_linker_1, # of connection points: 2
#     Edge 35, Type (0, 0), BuildingBlock: KIFKEQ_clean_linker_1, # of connection points: 2
#     Edge 36, Type (0, 0), BuildingBlock: KIFKEQ_clean_linker_1, # of connection points: 2
#     Edge 37, Type (0, 0), BuildingBlock: KIFKEQ_clean_linker_1, # of connection points: 2
#     Edge 38, Type (0, 0), BuildingBlock: KIFKEQ_clean_linker_1, # of connection points: 2
#     Edge 39, Type (0, 0), BuildingBlock: KIFKEQ_clean_linker_1, # of connection points: 2
#     Edge 40, Type (0, 0), BuildingBlock: KIFKEQ_clean_linker_1, # of connection points: 2
#     Edge 41, Type (0, 0), BuildingBlock: KIFKEQ_clean_linker_1, # of connection points: 2
#     Edge 42, Type (0, 0), BuildingBlock: KIFKEQ_clean_linker_1, # of connection points: 2
#     Edge 43, Type (0, 0), BuildingBlock: KIFKEQ_clean_linker_1, # of connection points: 2
#     Edge 44, Type (0, 0), BuildingBlock: KIFKEQ_clean_linker_1, # of connection points: 2
#     Edge 45, Type (0, 0), BuildingBlock: KIFKEQ_clean_linker_1, # of connection points: 2
#     Edge 46, Type (0, 0), BuildingBlock: KIFKEQ_clean_linker_1, # of connection points: 2
#     Edge 47, Type (0, 0), BuildingBlock: KIFKEQ_clean_linker_1, # of connection points: 2
#     Edge 48, Type (0, 0), BuildingBlock: KIFKEQ_clean_linker_1, # of connection points: 2
#     Edge 49, Type (0, 0), BuildingBlock: KIFKEQ_clean_linker_1, # of connection points: 2
#     Edge 50, Type (0, 0), BuildingBlock: KIFKEQ_clean_linker_1, # of connection points: 2
#     Edge 51, Type (0, 0), BuildingBlock: KIFKEQ_clean_linker_1, # of connection points: 2
#     Edge 52, Type (0, 0), BuildingBlock: KIFKEQ_clean_linker_1, # of connection points: 2
#     Edge 53, Type (0, 0), BuildingBlock: KIFKEQ_clean_linker_1, # of connection points: 2
#     Edge 54, Type (0, 0), BuildingBlock: KIFKEQ_clean_linker_1, # of connection points: 2
#     Edge 55, Type (0, 0), BuildingBlock: KIFKEQ_clean_linker_1, # of connection points: 2
#     Edge 56, Type (0, 0), BuildingBlock: KIFKEQ_clean_linker_1, # of connection points: 2
#     Edge 57, Type (0, 0), BuildingBlock: KIFKEQ_clean_linker_1, # of connection points: 2
#     Edge 58, Type (0, 0), BuildingBlock: KIFKEQ_clean_linker_1, # of connection points: 2
#     Edge 59, Type (0, 0), BuildingBlock: KIFKEQ_clean_linker_1, # of connection points: 2
#     Edge 60, Type (0, 0), BuildingBlock: KIFKEQ_clean_linker_1, # of connection points: 2
#     Edge 61, Type (0, 0), BuildingBlock: KIFKEQ_clean_linker_1, # of connection points: 2
#     Edge 62, Type (0, 0), BuildingBlock: KIFKEQ_clean_linker_1, # of connection points: 2
#     Edge 63, Type (0, 0), BuildingBlock: KIFKEQ_clean_linker_1, # of connection points: 2
# Relax obj value: 0.391
# Max RMSD: 0.318
# Mean RMSD: 0.228
data_MOF--net-bcs--node1-GEDQOX_clean_sbu_0--edge1-KIFKEQ_clean_linker_1
_symmetry_space_group_name_H-M    P1
_symmetry_Int_Tables_number       1
_symmetry_cell_setting            triclinic
loop_
_symmetry_equiv_pos_as_xyz
'x, y, z'
_cell_length_a     42.452163
_cell_length_b     43.593418
_cell_length_c     41.838242
_cell_angle_alpha  119.08047
_cell_angle_beta   92.675404
_cell_angle_gamma 94.892786
loop_
_atom_site_label
_atom_site_type_symbol
_atom_site_fract_x
_atom_site_fract_y
_atom_site_fract_z
_atom_type_partial_charge
Nd0 Nd 0.04886 1.02395 0.03893 0.0
Nd1 Nd 1.00952 0.02543 0.98053 0.0
C2 C 0.08606 0.02487 0.09374 0.0
C3 C 0.10167 1.00133 0.10545 0.0
C4 C 0.11043 0.96808 0.08033 0.0
C5 C 0.12542 0.94719 0.09264 0.0
C6 C 0.13227 0.95869 0.13059 0.0
C7 C 0.12339 0.99211 0.15544 0.0
C8 C 0.10843 1.01282 0.14314 0.0
C9 C 0.99604 0.97246 0.0143 0.0
C10 C 0.06437 0.97009 0.95617 0.0
C11 C 0.9716 0.025 0.92659 0.0
C12 C 0.95433 0.04847 0.91622 0.0
C13 C 0.937 0.07508 0.94059 0.0
C14 C 0.9204 0.09566 0.92923 0.0
C15 C 0.92042 0.09046 0.89302 0.0
C16 C 0.93789 0.0637 0.8689 0.0
C17 C 0.95444 0.0433 0.88027 0.0
C18 C 0.06167 0.07752 0.00568 0.0
C19 C 0.99435 0.07894 0.06301 0.0
O20 O 0.09689 0.02914 0.06725 0.0
O21 O 0.05521 1.02381 0.09247 0.0
O22 O 1.02524 0.96691 0.01687 0.0
O23 O 0.99588 1.00363 0.01927 0.0
O24 O 0.07607 0.98903 0.99086 0.0
O25 O 0.03608 0.97534 0.94568 0.0
O26 O 0.96125 1.01797 0.95154 0.0
O27 O 1.00255 0.02841 0.92863 0.0
O28 O 0.03229 0.08274 1.00352 0.0
O29 O 0.06243 0.04627 1.00047 0.0
O30 O 0.98159 0.05824 0.02898 0.0
O31 O 1.02364 0.07542 0.0727 0.0
H32 H 0.10565 0.95812 0.05107 0.0
H33 H 0.13123 0.92171 0.07217 0.0
H34 H 0.12845 1.00288 0.18477 0.0
H35 H 0.10231 0.03828 0.16341 0.0
H36 H 0.93625 0.08005 0.96853 0.0
H37 H 0.90781 0.116 0.94916 0.0
H38 H 0.9384 0.05782 0.84066 0.0
H39 H 0.9672 1.02295 0.86053 0.0
Nd40 Nd 0.26144 0.79549 0.29612 0.0
Nd41 Nd 0.28416 0.74867 0.22172 0.0
C42 C 0.25613 0.83937 0.36597 0.0
C43 C 0.26962 0.84358 0.40092 0.0
C44 C 0.29658 0.8276 0.40238 0.0
C45 C 0.30366 0.82237 0.4322 0.0
C46 C 0.2835 0.83247 0.46053 0.0
C47 C 0.25888 0.85234 0.46085 0.0
C48 C 0.25198 0.85773 0.43118 0.0
C49 C 0.21633 0.74294 0.24552 0.0
C50 C 0.30241 0.73054 0.2887 0.0
C51 C 0.29478 0.69936 0.15581 0.0
C52 C 0.2997 0.69905 0.12104 0.0
C53 C 0.277 0.70992 0.10434 0.0
C54 C 0.28448 0.7159 0.07555 0.0
C55 C 0.3149 0.71159 0.06327 0.0
C56 C 0.33656 0.69791 0.07805 0.0
C57 C 0.32895 0.69157 0.10656 0.0
C58 C 0.32227 0.81165 0.26537 0.0
C59 C 0.244 0.81338 0.2299 0.0
O60 O 0.27563 0.84701 0.34676 0.0
O61 O 0.23693 0.81009 0.34598 0.0
O62 O 0.20999 0.77456 0.26805 0.0
O63 O 0.24495 0.73994 0.25116 0.0
O64 O 0.28779 0.758 0.3106 0.0
O65 O 0.30345 0.72125 0.25345 0.0
O66 O 0.26629 0.7041 0.16674 0.0
O67 O 0.31746 0.71745 0.18263 0.0
O68 O 0.31649 0.79841 0.23006 0.0
O69 O 0.30911 0.79126 0.27532 0.0
O70 O 0.25037 0.78085 0.20715 0.0
O71 O 0.25113 0.82729 0.26591 0.0
H72 H 0.31059 0.81664 0.37922 0.0
H73 H 0.32315 0.8076 0.43142 0.0
H74 H 0.24263 0.86042 0.4819 0.0
H75 H 0.23109 0.87013 0.43042 0.0
H76 H 0.25405 0.71559 0.11467 0.0
H77 H 0.26704 0.72574 0.06426 0.0
H78 H 0.36033 0.69456 0.06961 0.0
H79 H 0.34672 0.68296 0.11885 0.0
Nd80 Nd 0.54081 0.05061 0.49303 0.0
Nd81 Nd 0.51102 0.99308 0.50604 0.0
C82 C 0.56788 0.11067 0.49992 0.0
C83 C 0.55666 0.14261 0.50276 0.0
C84 C 0.57838 0.17222 0.51139 0.0
C85 C 0.56794 0.20162 0.51105 0.0
C86 C 0.53563 0.20164 0.50184 0.0
C87 C 0.51384 0.17226 0.49466 0.0
C88 C 0.52427 0.14308 0.49528 0.0
C89 C 0.49273 1.00534 0.44026 0.0
C90 C 0.47846 0.06557 0.5424 0.0
C91 C 0.48409 0.9337 0.50094 0.0
C92 C 0.49574 0.90497 0.50486 0.0
C93 C 0.47448 0.87634 0.50017 0.0
C94 C 0.48492 0.85155 0.50905 0.0
C95 C 0.51661 0.85556 0.5231 0.0
C96 C 0.53813 0.88333 0.52598 0.0
C97 C 0.52779 0.90781 0.5168 0.0
C98 C 0.5577 0.03941 0.55981 0.0
C99 C 0.57378 0.9783 0.45692 0.0
O100 O 0.56409 0.10561 0.52792 0.0
O101 O 0.56021 0.08189 0.46822 0.0
O102 O 0.51816 1.01813 0.43259 0.0
O103 O 0.49271 1.01793 0.47436 0.0
O104 O 0.50432 0.07958 0.53516 0.0
O105 O 0.47287 0.03092 0.52862 0.0
O106 O 0.49194 0.93627 0.47237 0.0
O107 O 0.48744 0.96423 0.53122 0.0
O108 O 0.5324 0.02564 0.56659 0.0
O109 O 0.55872 0.02654 0.52575 0.0
O110 O 0.54812 0.96433 0.46457 0.0
O111 O 0.57882 1.0128 0.46958 0.0
H112 H 0.60347 0.17225 0.51753 0.0
H113 H 0.58525 0.22399 0.51721 0.0
H114 H 0.48889 0.17101 0.48685 0.0
H115 H 0.50719 0.12037 0.4887 0.0
H116 H 0.44964 0.87393 0.49104 0.0
H117 H 0.46794 0.83039 0.50674 0.0
H118 H 0.56276 0.88669 0.5364 0.0
H119 H 0.54448 0.92979 0.52047 0.0
Nd120 Nd 0.28707 0.29807 0.74121 0.0
Nd121 Nd 0.27105 0.2467 0.77143 0.0
C122 C 0.29752 0.33086 0.70172 0.0
C123 C 0.31848 0.34416 0.68169 0.0
C124 C 0.33765 0.32284 0.65485 0.0
C125 C 0.35506 0.3359 0.63492 0.0
C126 C 0.35374 0.37067 0.64088 0.0
C127 C 0.33448 0.39175 0.66794 0.0
C128 C 0.31736 0.37879 0.68789 0.0
C129 C 0.3269 0.31009 0.8014 0.0
C130 C 0.32123 0.2234 0.70891 0.0
C131 C 0.2591 0.21431 0.81114 0.0
C132 C 0.23773 0.2055 0.83434 0.0
C133 C 0.25046 0.20905 0.86787 0.0
C134 C 0.23232 0.19715 0.88812 0.0
C135 C 0.20054 0.18114 0.87573 0.0
C136 C 0.18759 0.1783 0.84245 0.0
C137 C 0.20585 0.19006 0.82208 0.0
C138 C 0.23259 0.2345 0.71043 0.0
C139 C 0.23587 0.32038 0.80235 0.0
O140 O 0.28769 0.29702 0.68715 0.0
O141 O 0.30108 0.347 0.73767 0.0
O142 O 0.31696 0.33465 0.79598 0.0
O143 O 0.31622 0.2802 0.77482 0.0
O144 O 0.31187 0.24883 0.70318 0.0
O145 O 0.31195 0.21972 0.73693 0.0
O146 O 0.27517 0.24584 0.8249 0.0
O147 O 0.25083 0.20012 0.77585 0.0
O148 O 0.24236 0.2098 0.71576 0.0
O149 O 0.24231 0.26434 0.73752 0.0
O150 O 0.24604 0.29592 0.80915 0.0
O151 O 0.24484 0.32326 0.77383 0.0
H152 H 0.33909 0.29596 0.64906 0.0
H153 H 0.36972 0.31861 0.61494 0.0
H154 H 0.33185 0.41826 0.67333 0.0
H155 H 0.30252 0.39587 0.70787 0.0
H156 H 0.27494 0.22042 0.87815 0.0
H157 H 0.2434 0.20058 0.91366 0.0
H158 H 0.16349 0.16593 0.83136 0.0
H159 H 0.19511 0.18636 0.79626 0.0
Nd160 Nd 1.00396 1.02333 0.52401 0.0
Nd161 Nd 0.05745 0.02968 0.48279 0.0
C162 C 0.96467 1.01709 0.56971 0.0
C163 C 0.95223 0.99425 0.58538 0.0
C164 C 0.94613 1.01003 0.62251 0.0
C165 C 0.93137 0.98995 0.63712 0.0
C166 C 0.92209 0.95317 0.61513 0.0
C167 C 0.92884 0.93731 0.578 0.0
C168 C 0.94354 0.95747 0.56338 0.0
C169 C 0.99905 0.96985 0.45197 0.0
C170 C 0.06974 0.98741 0.5268 0.0
C171 C 0.09694 0.03655 0.43736 0.0
C172 C 0.11152 0.06027 0.42335 0.0
C173 C 0.09868 0.05873 0.39079 0.0
C174 C 0.11439 0.07803 0.37571 0.0
C175 C 0.14376 0.09956 0.39242 0.0
C176 C 0.15636 0.10116 0.42518 0.0
C177 C 0.14066 0.08194 0.44021 0.0
C178 C 0.06154 0.08302 0.5551 0.0
C179 C 0.99154 0.06541 0.47995 0.0
O180 O 0.99354 0.03384 0.58054 0.0
O181 O 0.95671 1.00622 0.53501 0.0
O182 O 0.97623 0.9872 0.4685 0.0
O183 O 1.02445 0.98157 0.47334 0.0
O184 O 0.04505 1.00221 0.54375 0.0
O185 O 0.07708 0.98921 0.4972 0.0
O186 O 0.06718 1.02251 0.42724 0.0
O187 O 0.10559 0.04406 0.471 0.0
O188 O 0.0848 0.06659 0.53864 0.0
O189 O 0.03658 0.07128 0.5332 0.0
O190 O 1.01625 0.05067 0.46298 0.0
O191 O 0.98418 0.06357 0.5095 0.0
H192 H 0.95225 0.03827 0.64026 0.0
H193 H 0.92729 1.00343 0.66587 0.0
H194 H 0.92194 0.9093 0.55973 0.0
H195 H 0.94751 0.94429 0.53457 0.0
H196 H 0.0766 0.04208 0.37648 0.0
H197 H 0.10332 0.07603 0.35083 0.0
H198 H 0.17903 0.11656 0.43894 0.0
H199 H 0.15192 0.08348 0.4648 0.0
Nd200 Nd 0.27098 0.78462 0.72434 0.0
Nd201 Nd 0.28543 0.76541 0.78547 0.0
C202 C 0.25844 0.81505 0.68341 0.0
C203 C 0.23596 0.8324 0.66993 0.0
C204 C 0.23469 0.86922 0.68924 0.0
C205 C 0.21659 0.88582 0.67424 0.0
C206 C 0.19923 0.8663 0.63917 0.0
C207 C 0.20015 0.82938 0.62021 0.0
C208 C 0.21824 0.81281 0.63516 0.0
C209 C 0.24301 0.72036 0.71166 0.0
C210 C 0.22635 0.81207 0.79597 0.0
C211 C 0.29768 0.73386 0.82517 0.0
C212 C 0.32033 0.71602 0.83749 0.0
C213 C 0.33042 0.68334 0.813 0.0
C214 C 0.34887 0.66545 0.82603 0.0
C215 C 0.35761 0.67944 0.86401 0.0
C216 C 0.34794 0.71248 0.88829 0.0
C217 C 0.32965 0.73035 0.87526 0.0
C218 C 0.31509 0.82922 0.79749 0.0
C219 C 0.33047 0.73801 0.7146 0.0
O220 O 0.2724 0.83241 0.71712 0.0
O221 O 0.25271 0.78107 0.67155 0.0
O222 O 0.2541 0.72591 0.68632 0.0
O223 O 0.2448 0.74856 0.74193 0.0
O224 O 0.23666 0.81618 0.76851 0.0
O225 O 0.23877 0.79001 0.80503 0.0
O226 O 0.2839 0.7171 0.7914 0.0
O227 O 0.30338 0.76801 0.83797 0.0
O228 O 0.30381 0.82405 0.82301 0.0
O229 O 0.31201 0.80073 0.76738 0.0
O230 O 0.3197 0.73376 0.74173 0.0
O231 O 0.31825 0.7602 0.70545 0.0
H232 H 0.24837 0.88551 0.71571 0.0
H233 H 0.21703 0.91426 0.68983 0.0
H234 H 0.18675 0.81308 0.59363 0.0
H235 H 0.21881 0.78454 0.61899 0.0
H236 H 0.32354 0.67119 0.78376 0.0
H237 H 0.35548 0.64006 0.8063 0.0
H238 H 0.35449 0.72472 0.9176 0.0
H239 H 0.32218 0.75527 0.89502 0.0
Nd240 Nd 0.5456 0.05428 0.99425 0.0
Nd241 Nd 0.53384 0.99995 0.01028 0.0
C242 C 0.56308 0.09941 0.97126 0.0
C243 C 0.5894 0.12816 0.98546 0.0
C244 C 0.59048 0.15337 0.97392 0.0
C245 C 0.61545 0.18094 0.98786 0.0
C246 C 0.63971 0.1837 0.01363 0.0
C247 C 0.63832 0.15843 0.02535 0.0
C248 C 0.61329 0.13095 0.01146 0.0
C249 C 0.57674 0.07025 0.06099 0.0
C250 C 0.58812 0.98843 0.95815 0.0
C251 C 0.52235 0.95631 0.03662 0.0
C252 C 0.49665 0.92922 0.03112 0.0
C253 C 0.49764 0.91338 0.05318 0.0
C254 C 0.47482 0.88536 0.04621 0.0
C255 C 0.45077 0.87261 0.01685 0.0
C256 C 0.44937 0.88928 0.99538 0.0
C257 C 0.47223 0.91743 1.00248 0.0
C258 C 0.50059 0.98448 0.94458 0.0
C259 C 0.48857 0.06488 0.04391 0.0
O260 O 0.57124 0.06755 0.95671 0.0
O261 O 0.54088 0.10403 0.99305 0.0
O262 O 0.56174 0.09183 0.05529 0.0
O263 O 0.57598 0.0414 0.03179 0.0
O264 O 0.57166 1.00882 0.95035 0.0
O265 O 0.58241 0.98667 0.98789 0.0
O266 O 0.51612 0.989 0.05335 0.0
O267 O 0.53793 0.94891 0.00817 0.0
O268 O 0.51524 0.96228 0.94973 0.0
O269 O 0.50283 1.0135 0.97383 0.0
O270 O 0.50208 0.04155 0.0499 0.0
O271 O 0.49775 0.07038 0.01723 0.0
H272 H 0.57216 0.15163 0.95399 0.0
H273 H 0.61616 0.19962 0.97778 0.0
H274 H 0.65654 0.15995 0.04525 0.0
H275 H 0.6126 0.11176 0.0209 0.0
H276 H 0.51636 0.92231 0.07542 0.0
H277 H 0.47606 0.87363 0.0638 0.0
H278 H 0.43116 0.88 0.9726 0.0
H279 H 0.47129 0.9295 0.98516 0.0
Nd280 Nd 0.30191 0.28968 0.27206 0.0
Nd281 Nd 0.25989 0.2465 0.21447 0.0
C282 C 0.35124 0.32973 0.32023 0.0
C283 C 0.37667 0.32515 0.34187 0.0
C284 C 0.38931 0.35367 0.37606 0.0
C285 C 0.41224 0.34907 0.39794 0.0
C286 C 0.42291 0.31588 0.38573 0.0
C287 C 0.41043 0.28751 0.35117 0.0
C288 C 0.38741 0.29207 0.32949 0.0
C289 C 0.26393 0.24442 0.28916 0.0
C290 C 0.3263 0.21747 0.20769 0.0
C291 C 0.21051 0.20698 0.16578 0.0
C292 C 0.19057 0.20907 0.13753 0.0
C293 C 0.1965 0.23774 0.13132 0.0
C294 C 0.17694 0.24028 0.10518 0.0
C295 C 0.1511 0.21418 0.08481 0.0
C296 C 0.1457 0.18503 0.09059 0.0
C297 C 0.16536 0.18252 0.11679 0.0
C298 C 0.2975 0.29221 0.19786 0.0
C299 C 0.23626 0.31908 0.27902 0.0
O300 O 0.35226 0.31363 0.2847 0.0
O301 O 0.32267 0.3269 0.32931 0.0
O302 O 0.27143 0.27805 0.31013 0.0
O303 O 0.27648 0.23463 0.25924 0.0
O304 O 0.3349 0.25113 0.23182 0.0
O305 O 0.29578 0.20589 0.20112 0.0
O306 O 0.20786 0.23043 0.19972 0.0
O307 O 0.23998 0.20272 0.15953 0.0
O308 O 0.28999 0.2587 0.17648 0.0
O309 O 0.2848 0.30156 0.22755 0.0
O310 O 0.2275 0.285 0.25639 0.0
O311 O 0.26671 0.33047 0.28422 0.0
H312 H 0.3811 0.37934 0.38605 0.0
H313 H 0.42152 0.37136 0.42442 0.0
H314 H 0.41775 0.26146 0.34136 0.0
H315 H 0.3776 0.26962 0.30335 0.0
H316 H 0.21594 0.25844 0.14713 0.0
H317 H 0.18141 0.26337 0.10188 0.0
H318 H 0.12614 0.16441 0.07511 0.0
H319 H 0.16066 0.16009 0.12117 0.0
Nd320 Nd 0.50602 0.5149 0.01377 0.0
Nd321 Nd 0.55939 0.52724 0.97399 0.0
C322 C 0.46545 0.50451 0.05632 0.0
C323 C 0.45155 0.48045 0.07014 0.0
C324 C 0.46326 0.48354 0.10384 0.0
C325 C 0.44767 0.46371 0.11841 0.0
C326 C 0.41958 0.44018 0.09999 0.0
C327 C 0.40814 0.4371 0.06616 0.0
C328 C 0.42374 0.45676 0.05162 0.0
C329 C 0.50269 0.46583 0.9398 0.0
C330 C 0.57318 0.48335 0.01879 0.0
C331 C 0.60451 0.53239 0.93343 0.0
C332 C 0.6186 0.55478 0.91788 0.0
C333 C 0.62512 0.53871 0.88085 0.0
C334 C 0.64048 0.55846 0.86618 0.0
C335 C 0.65001 0.59522 0.88799 0.0
C336 C 0.64304 0.61135 0.92506 0.0
C337 C 0.62771 0.59153 0.93972 0.0
C338 C 0.55103 0.58686 0.03933 0.0
C339 C 0.49191 0.55589 0.96867 0.0
O340 O 0.49402 0.52176 0.06871 0.0
O341 O 0.45858 0.49523 0.02189 0.0
O342 O 0.47933 0.48153 0.95684 0.0
O343 O 0.52769 0.47733 0.96174 0.0
O344 O 0.54309 0.48505 0.02576 0.0
O345 O 0.58539 0.4974 0.99936 0.0
O346 O 0.57643 0.51408 0.91927 0.0
O347 O 0.60894 0.54469 0.96899 0.0
O348 O 0.55521 0.58637 0.00868 0.0
O349 O 0.54967 0.5557 0.03407 0.0
O350 O 0.51525 0.53968 0.94971 0.0
O351 O 0.48696 0.55613 0.99995 0.0
H352 H 0.48426 0.50178 0.11938 0.0
H353 H 0.4578 0.46691 0.14422 0.0
H354 H 0.38641 0.42018 0.05108 0.0
H355 H 0.41334 0.454 0.02609 0.0
H356 H 0.61866 0.51051 0.86315 0.0
H357 H 0.6447 0.54473 0.83749 0.0
H358 H 0.65012 0.63933 0.94325 0.0
H359 H 0.62339 0.605 0.96842 0.0
Nd360 Nd 0.77643 0.29148 0.22694 0.0
Nd361 Nd 0.78931 0.27054 0.28722 0.0
C362 C 0.76512 0.3226 0.18645 0.0
C363 C 0.7428 0.33938 0.17218 0.0
C364 C 0.75101 0.37426 0.17924 0.0
C365 C 0.73267 0.38915 0.16253 0.0
C366 C 0.70533 0.36971 0.13792 0.0
C367 C 0.69675 0.33499 0.1316 0.0
C368 C 0.71523 0.32003 0.14814 0.0
C369 C 0.74831 0.22634 0.21159 0.0
C370 C 0.73002 0.31689 0.29706 0.0
C371 C 0.80163 0.23963 0.32764 0.0
C372 C 0.82343 0.22039 0.33914 0.0
C373 C 0.812 0.18763 0.33595 0.0
C374 C 0.83035 0.17111 0.35071 0.0
C375 C 0.86092 0.18676 0.36936 0.0
C376 C 0.87261 0.21927 0.37182 0.0
C377 C 0.85418 0.23584 0.35712 0.0
C378 C 0.81837 0.33538 0.30164 0.0
C379 C 0.83433 0.24334 0.21669 0.0
O380 O 0.77788 0.33999 0.22067 0.0
O381 O 0.75996 0.28851 0.17411 0.0
O382 O 0.76003 0.23313 0.18731 0.0
O383 O 0.74974 0.25398 0.24243 0.0
O384 O 0.7409 0.32169 0.27021 0.0
O385 O 0.74226 0.29463 0.30598 0.0
O386 O 0.78523 0.223 0.29525 0.0
O387 O 0.80992 0.27306 0.33846 0.0
O388 O 0.80614 0.32926 0.32614 0.0
O389 O 0.81635 0.30737 0.2711 0.0
O390 O 0.82207 0.23777 0.24236 0.0
O391 O 0.82408 0.26748 0.20926 0.0
H392 H 0.7722 0.38992 0.19719 0.0
H393 H 0.7401 0.41609 0.16906 0.0
H394 H 0.67619 0.31871 0.11289 0.0
H395 H 0.70821 0.29292 0.14139 0.0
H396 H 0.78836 0.17506 0.32271 0.0
H397 H 0.82042 0.14594 0.34748 0.0
H398 H 0.89574 0.23264 0.38618 0.0
H399 H 0.86381 0.26124 0.36066 0.0
Nd400 Nd 0.04773 0.55467 0.48828 0.0
Nd401 Nd 1.02993 0.49906 0.50356 0.0
C402 C 0.06013 0.60947 0.47808 0.0
C403 C 0.08972 0.632 0.48309 0.0
C404 C 0.09113 0.65466 0.46824 0.0
C405 C 0.11848 0.67831 0.47588 0.0
C406 C 0.14476 0.67966 0.49859 0.0
C407 C 0.14344 0.65631 0.51273 0.0
C408 C 0.11614 0.63275 0.50508 0.0
C409 C 0.09052 0.55268 0.53866 0.0
C410 C 0.0836 0.48438 0.44703 0.0
C411 C 1.01634 0.45473 0.52823 0.0
C412 C 0.99631 0.45017 0.55353 0.0
C413 C 1.00758 0.43385 0.57271 0.0
C414 C 0.98633 0.41963 0.58792 0.0
C415 C 0.95348 0.42079 0.58317 0.0
C416 C 0.94297 0.44117 0.56803 0.0
C417 C 0.96431 0.45602 0.55357 0.0
C418 C 1.00233 0.4866 0.43666 0.0
C419 C 0.98947 0.56682 0.54164 0.0
O420 O 0.05735 0.57676 0.45109 0.0
O421 O 0.05096 0.61195 0.5085 0.0
O422 O 0.09828 0.55583 0.51093 0.0
O423 O 0.06091 0.55024 0.53903 0.0
O424 O 0.07146 0.50904 0.44209 0.0
O425 O 0.07535 0.4799 0.47474 0.0
O426 O 0.04106 0.47892 0.54213 0.0
O427 O 1.00126 0.45276 0.49925 0.0
O428 O 1.01643 0.46389 0.44165 0.0
O429 O 1.00381 0.51541 0.46632 0.0
O430 O 0.99546 0.53709 0.54056 0.0
O431 O 1.0048 0.57781 0.52152 0.0
H432 H 0.07094 0.65449 0.45131 0.0
H433 H 0.11903 0.69556 0.46403 0.0
H434 H 0.16314 0.65691 0.53052 0.0
H435 H 0.11539 0.61583 0.51727 0.0
H436 H 0.03234 0.42965 0.57344 0.0
H437 H 0.99534 0.40527 0.60072 0.0
H438 H 0.91794 0.44288 0.564 0.0
H439 H 0.95523 0.46922 0.53947 0.0
Nd440 Nd 0.7876 0.79398 0.23702 0.0
Nd441 Nd 0.77426 0.7495 0.2754 0.0
C442 C 0.79337 0.83067 0.20099 0.0
C443 C 0.81485 0.84381 0.18122 0.0
C444 C 0.83835 0.82462 0.15997 0.0
C445 C 0.85718 0.83757 0.14091 0.0
C446 C 0.85318 0.87016 0.14229 0.0
C447 C 0.82953 0.8891 0.16373 0.0
C448 C 0.8109 0.87623 0.18277 0.0
C449 C 0.83786 0.79785 0.28327 0.0
C450 C 0.82046 0.72111 0.20927 0.0
C451 C 0.76232 0.71815 0.31615 0.0
C452 C 0.74336 0.71153 0.34241 0.0
C453 C 0.75898 0.70708 0.37008 0.0
C454 C 0.74192 0.69519 0.39107 0.0
C455 C 0.70845 0.68714 0.3852 0.0
C456 C 0.69283 0.69256 0.35805 0.0
C457 C 0.70991 0.70439 0.33704 0.0
C458 C 0.73816 0.72619 0.20957 0.0
C459 C 0.73697 0.82053 0.30152 0.0
O460 O 0.78259 0.79688 0.18513 0.0
O461 O 0.79893 0.84496 0.23676 0.0
O462 O 0.84025 0.79725 0.25236 0.0
O463 O 0.80923 0.79813 0.2905 0.0
O464 O 0.80597 0.74072 0.19823 0.0
O465 O 0.81602 0.72371 0.24175 0.0
O466 O 0.78344 0.74602 0.3274 0.0
O467 O 0.7487 0.70757 0.28331 0.0
O468 O 0.75241 0.70611 0.21879 0.0
O469 O 0.74441 0.75818 0.23428 0.0
O470 O 0.74208 0.79308 0.30571 0.0
O471 O 0.75141 0.82656 0.27718 0.0
H472 H 0.84218 0.79955 0.15804 0.0
H473 H 0.87517 0.82205 0.12537 0.0
H474 H 0.8248 0.9138 0.16538 0.0
H475 H 0.7929 0.89164 0.19854 0.0
H476 H 0.78467 0.71178 0.3748 0.0
H477 H 0.75518 0.69212 0.41186 0.0
H478 H 0.66728 0.68645 0.35192 0.0
H479 H 0.69688 0.7069 0.31572 0.0
Nd480 Nd 0.75646 0.29489 0.80293 0.0
Nd481 Nd 0.77912 0.24776 0.72866 0.0
C482 C 0.74973 0.33815 0.87262 0.0
C483 C 0.76178 0.34272 0.90823 0.0
C484 C 0.78825 0.32682 0.91134 0.0
C485 C 0.79424 0.32289 0.94223 0.0
C486 C 0.77345 0.33424 0.97 0.0
C487 C 0.74909 0.35363 0.96836 0.0
C488 C 0.74332 0.35774 0.93766 0.0
C489 C 0.71138 0.24248 0.75205 0.0
C490 C 0.79852 0.23042 0.79555 0.0
C491 C 0.78765 0.19864 0.66201 0.0
C492 C 0.78956 0.20165 0.62864 0.0
C493 C 0.76718 0.21907 0.61977 0.0
C494 C 0.7749 0.23444 0.59833 0.0
C495 C 0.80507 0.23274 0.58573 0.0
C496 C 0.82532 0.21068 0.58976 0.0
C497 C 0.81758 0.19522 0.61122 0.0
C498 C 0.81764 0.31047 0.77222 0.0
C499 C 0.74053 0.31355 0.73687 0.0
O500 O 0.77008 0.34599 0.85429 0.0
O501 O 0.73092 0.30873 0.85195 0.0
O502 O 0.70519 0.27433 0.77396 0.0
O503 O 0.73985 0.2394 0.75817 0.0
O504 O 0.7834 0.25751 0.81735 0.0
O505 O 0.79962 0.22115 0.76035 0.0
O506 O 0.75991 0.20194 0.67499 0.0
O507 O 0.81124 0.21669 0.68769 0.0
O508 O 0.81199 0.2971 0.73686 0.0
O509 O 0.80419 0.2903 0.78228 0.0
O510 O 0.74635 0.28078 0.71419 0.0
O511 O 0.74734 0.32728 0.77292 0.0
H512 H 0.80288 0.3152 0.88883 0.0
H513 H 0.81356 0.30846 0.94291 0.0
H514 H 0.73235 0.36256 0.98886 0.0
H515 H 0.72276 0.37006 0.9356 0.0
H516 H 0.74515 0.22416 0.63248 0.0
H517 H 0.75876 0.25093 0.59509 0.0
H518 H 0.84876 0.20891 0.58027 0.0
H519 H 0.83504 0.1817 0.61754 0.0
Nd520 Nd 0.80962 0.79391 0.77988 0.0
Nd521 Nd 0.76374 0.75329 0.72194 0.0
C522 C 0.86068 0.83255 0.82559 0.0
C523 C 0.88777 0.82768 0.84492 0.0
C524 C 0.90274 0.85649 0.87761 0.0
C525 C 0.92657 0.85162 0.89832 0.0
C526 C 0.93577 0.81783 0.88646 0.0
C527 C 0.9212 0.78921 0.8531 0.0
C528 C 0.89732 0.79408 0.83255 0.0
C529 C 0.77166 0.74736 0.79459 0.0
C530 C 0.83042 0.72157 0.70975 0.0
C531 C 0.71216 0.71473 0.6772 0.0
C532 C 0.68214 0.72058 0.66361 0.0
C533 C 0.66535 0.69346 0.63102 0.0
C534 C 0.63865 0.69991 0.61544 0.0
C535 C 0.6284 0.73362 0.63238 0.0
C536 C 0.64467 0.76031 0.66586 0.0
C537 C 0.6714 0.75387 0.68128 0.0
C538 C 0.80202 0.79959 0.70739 0.0
C539 C 0.74372 0.82695 0.79049 0.0
O540 O 0.8599 0.81781 0.78988 0.0
O541 O 0.83308 0.82855 0.83631 0.0
O542 O 0.78119 0.78019 0.81769 0.0
O543 O 0.78276 0.73902 0.76407 0.0
O544 O 0.84063 0.75271 0.73874 0.0
O545 O 0.79963 0.71258 0.70018 0.0
O546 O 0.71575 0.7238 0.71195 0.0
O547 O 0.73758 0.72424 0.66632 0.0
O548 O 0.79278 0.76663 0.6843 0.0
O549 O 0.79062 0.80804 0.73778 0.0
O550 O 0.73312 0.79521 0.76274 0.0
O551 O 0.77461 0.83569 0.7992 0.0
H552 H 0.89545 0.88258 0.88757 0.0
H553 H 0.93747 0.87414 0.92381 0.0
H554 H 0.92736 0.76274 0.84358 0.0
H555 H 0.88571 0.77147 0.80756 0.0
H556 H 0.67348 0.66762 0.61703 0.0
H557 H 0.6265 0.67883 0.58973 0.0
H558 H 0.63773 0.78673 0.67923 0.0
H559 H 0.68432 0.7752 0.70626 0.0
Nd560 Nd 0.55239 0.52526 0.5424 0.0
Nd561 Nd 0.50871 0.52554 0.47702 0.0
C562 C 0.59836 0.52512 0.58896 0.0
C563 C 0.6102 0.50162 0.60341 0.0
C564 C 0.6176 0.46715 0.57986 0.0
C565 C 0.63088 0.44672 0.59387 0.0
C566 C 0.6375 0.45977 0.63214 0.0
C567 C 0.6297 0.49421 0.65557 0.0
C568 C 0.61644 0.51459 0.64153 0.0
C569 C 0.49834 0.47694 0.5249 0.0
C570 C 0.56454 0.47152 0.45475 0.0
C571 C 0.46175 0.52444 0.43083 0.0
C572 C 0.44778 0.5481 0.41792 0.0
C573 C 0.43328 0.578 0.44159 0.0
C574 C 0.41828 0.59819 0.42847 0.0
C575 C 0.417 0.58941 0.39105 0.0
C576 C 0.43182 0.55961 0.36756 0.0
C577 C 0.44677 0.53943 0.38068 0.0
C578 C 0.56254 0.57417 0.49462 0.0
C579 C 0.49763 0.58107 0.56423 0.0
O580 O 0.60145 0.51626 0.55466 0.0
O581 O 0.57199 0.53911 0.59948 0.0
O582 O 0.52211 0.48258 0.54805 0.0
O583 O 0.5044 0.49522 0.50905 0.0
O584 O 0.57505 0.48842 0.49011 0.0
O585 O 0.53727 0.47766 0.44282 0.0
O586 O 0.45839 0.53083 0.46439 0.0
O587 O 0.48924 0.51342 0.42057 0.0
O588 O 0.53873 0.56834 0.47137 0.0
O589 O 0.55677 0.55579 0.51047 0.0
O590 O 0.48726 0.56436 0.5289 0.0
O591 O 0.52423 0.5739 0.57643 0.0
H592 H 0.61337 0.4559 0.55035 0.0
H593 H 0.63575 0.4204 0.57441 0.0
H594 H 0.63457 0.50607 0.68506 0.0
H595 H 0.61157 0.54104 0.66073 0.0
H596 H 0.43323 0.58579 0.47042 0.0
H597 H 0.40783 0.62096 0.44801 0.0
H598 H 0.43128 0.5511 0.33853 0.0
H599 H 0.45715 0.51646 0.36132 0.0
Nd600 Nd 0.03991 0.54738 0.99584 0.0
Nd601 Nd 1.01175 0.48992 0.01083 0.0
C602 C 0.0672 0.60691 1.00166 0.0
C603 C 0.05759 0.6395 1.00448 0.0
C604 C 0.08071 0.66785 0.01263 0.0
C605 C 0.07214 0.69775 0.01189 0.0
C606 C 0.04028 0.69957 1.0028 0.0
C607 C 1.01702 0.67156 0.99624 0.0
C608 C 1.02562 0.64181 0.99718 0.0
C609 C 0.99139 0.50135 0.94473 0.0
C610 C 0.97889 0.56247 0.04757 0.0
C611 C 0.98571 0.43022 0.00577 0.0
C612 C 0.99636 0.39675 0.99933 0.0
C613 C 0.97598 0.37246 1.00385 0.0
C614 C 0.987 0.34223 1.00159 0.0
C615 C 1.0186 0.3359 0.99476 0.0
C616 C 0.0385 0.35962 0.98861 0.0
C617 C 1.02749 0.3899 0.99103 0.0
C618 C 0.05889 0.53758 0.06272 0.0
C619 C 0.07317 0.47515 0.95996 0.0
O620 O 0.06343 0.60239 0.03002 0.0
O621 O 0.05857 0.57814 0.97019 0.0
O622 O 1.016 0.51453 0.93613 0.0
O623 O 0.99222 0.51417 0.97898 0.0
O624 O 1.00333 0.57615 0.03782 0.0
O625 O 0.97443 0.52816 0.03631 0.0
O626 O 0.98539 0.43617 0.97796 0.0
O627 O 0.99725 0.45804 0.03691 0.0
O628 O 0.03398 0.52445 0.07092 0.0
O629 O 0.05903 0.52383 0.02844 0.0
O630 O 0.04827 0.46122 0.96876 0.0
O631 O 0.07768 0.50949 0.97169 0.0
H632 H 0.1055 0.66646 0.01859 0.0
H633 H 0.09053 0.71906 0.01758 0.0
H634 H 0.99235 0.67178 0.98861 0.0
H635 H 1.00748 0.62008 0.99095 0.0
H636 H 0.95185 0.37741 0.01023 0.0
H637 H 0.97108 0.32428 0.00618 0.0
H638 H 0.06308 0.35578 0.98383 0.0
H639 H 0.04359 0.40858 0.98773 0.0
H640 H 0.13588 0.1798 0.88409 0.0
H641 H 0.22105 0.15013 0.91631 0.0
H642 H 0.10512 0.15635 0.91682 0.0
H643 H 0.19043 0.12775 0.95023 0.0
H644 H 0.11932 0.05723 0.97732 0.0
H645 H 0.15313 0.08248 0.94772 0.0
H646 H 0.09172 0.16362 0.97324 0.0
H647 H 0.05829 0.1385 1.00254 0.0
C648 C 0.14825 0.16829 0.89807 0.0
C649 C 0.18135 0.16712 0.89701 0.0
C650 C 0.13048 0.15507 0.9175 0.0
C651 C 0.14487 0.13987 0.93675 0.0
C652 C 0.17799 0.13873 0.93573 0.0
C653 C 0.19581 0.15212 0.91642 0.0
C654 C 0.11338 0.08088 0.97727 0.0
C655 C 0.08583 0.09563 0.99264 0.0
C656 C 0.13285 0.09549 0.9601 0.0
C657 C 0.12539 0.12526 0.95734 0.0
C658 C 0.09836 0.14048 0.97383 0.0
C659 C 0.07915 0.12612 0.99115 0.0
H660 H 0.12574 0.95524 0.19492 0.0
H661 H 0.17614 0.91052 0.09818 0.0
H662 H 0.15213 0.92132 0.21772 0.0
H663 H 0.20246 0.87628 0.121 0.0
H664 H 0.22663 0.79516 0.15731 0.0
H665 H 0.20018 0.82866 0.13343 0.0
H666 H 0.19878 0.9139 0.2442 0.0
H667 H 0.22469 0.88012 0.26793 0.0
C668 C 0.14268 0.93855 0.17842 0.0
C669 C 0.14848 0.93643 0.14438 0.0
C670 C 0.15804 0.91876 0.19172 0.0
C671 C 0.18001 0.89562 0.1717 0.0
C672 C 0.1856 0.89315 0.13747 0.0
C673 C 0.17026 0.91305 0.12417 0.0
C674 C 0.22074 0.82107 0.17672 0.0
C675 C 0.22807 0.83451 0.21485 0.0
C676 C 0.20556 0.84061 0.16287 0.0
C677 C 0.19683 0.87451 0.1865 0.0
C678 C 0.20432 0.88791 0.22465 0.0
C679 C 0.21959 0.86843 0.23845 0.0
H680 H 0.49196 0.96655 0.3653 0.0
H681 H 0.43476 0.98671 0.45452 0.0
H682 H 0.44984 0.92124 0.32185 0.0
H683 H 0.39238 0.94287 0.41142 0.0
H684 H 0.34228 0.83303 0.33613 0.0
H685 H 0.38275 0.88089 0.37672 0.0
H686 H 0.39662 0.908 0.29131 0.0
H687 H 0.3563 0.85866 0.24988 0.0
C688 C 0.4702 0.96161 0.37549 0.0
C689 C 0.46671 0.97987 0.41327 0.0
C690 C 0.44599 0.93582 0.35062 0.0
C691 C 0.41776 0.92803 0.36309 0.0
C692 C 0.41402 0.94744 0.40083 0.0
C693 C 0.43826 0.9728 0.42558 0.0
C694 C 0.3538 0.84927 0.32598 0.0
C695 C 0.34606 0.84215 0.28983 0.0
C696 C 0.37695 0.87697 0.34941 0.0
C697 C 0.39289 0.89868 0.33754 0.0
C698 C 0.38504 0.89166 0.3013 0.0
C699 C 0.36183 0.8636 0.27764 0.0
H700 H 0.35042 0.22787 0.65355 0.0
H701 H 0.34439 0.16556 0.7081 0.0
H702 H 0.38761 0.19058 0.61389 0.0
H703 H 0.38194 0.12837 0.66859 0.0
H704 H 0.42557 0.0465 0.5675 0.0
H705 H 0.38825 0.08383 0.60687 0.0
H706 H 0.44102 0.17537 0.61176 0.0
H707 H 0.47826 0.13783 0.57195 0.0
C708 C 0.35696 0.20622 0.65721 0.0
C709 C 0.34404 0.19995 0.68429 0.0
C710 C 0.37865 0.18484 0.63446 0.0
C711 C 0.38815 0.15614 0.63767 0.0
C712 C 0.37512 0.1498 0.66469 0.0
C713 C 0.35357 0.17136 0.68765 0.0
C714 C 0.42929 0.07458 0.57681 0.0
C715 C 0.45518 0.08887 0.56621 0.0
C716 C 0.40786 0.09619 0.5998 0.0
C717 C 0.41131 0.13297 0.61296 0.0
C718 C 0.43711 0.14724 0.6021 0.0
C719 C 0.4587 0.12563 0.57927 0.0
H720 H 0.12452 0.95545 0.50329 0.0
H721 H 0.05903 0.97704 0.58535 0.0
H722 H 0.1559 0.92712 0.52982 0.0
H723 H 0.08966 0.94826 0.61121 0.0
H724 H 0.16559 0.92391 0.67342 0.0
H725 H 0.13616 0.95275 0.64642 0.0
H726 H 0.15998 0.87789 0.53889 0.0
H727 H 0.19063 0.85014 0.56624 0.0
C728 C 0.11662 0.95405 0.52684 0.0
C729 C 0.08904 0.96885 0.54199 0.0
C730 C 0.13463 0.93753 0.5421 0.0
C731 C 0.12577 0.93523 0.57314 0.0
C732 C 0.098 0.94984 0.58794 0.0
C733 C 0.0801 0.96628 0.57275 0.0
C734 C 0.16492 0.91367 0.64404 0.0
C735 C 0.18067 0.88422 0.62229 0.0
C736 C 0.14752 0.93008 0.6283 0.0
C737 C 0.14511 0.91784 0.59007 0.0
C738 C 0.16116 0.8886 0.56836 0.0
C739 C 0.17852 0.87217 0.58412 0.0
H740 H 0.31192 0.89963 0.83739 0.0
H741 H 0.37518 0.8228 0.77939 0.0
H742 H 0.35678 0.94632 0.86402 0.0
H743 H 0.42035 0.86785 0.80854 0.0
H744 H 0.50146 0.94485 0.87087 0.0
H745 H 0.45545 0.91554 0.8252 0.0
H746 H 0.39362 0.96423 0.91149 0.0
H747 H 0.43961 0.99585 0.95541 0.0
C748 C 0.33554 0.89302 0.83007 0.0
C749 C 0.34043 0.85794 0.80682 0.0
C750 C 0.36137 0.91956 0.84566 0.0
C751 C 0.39267 0.91104 0.83975 0.0
C752 C 0.39694 0.87605 0.81391 0.0
C753 C 0.37099 0.84989 0.79723 0.0
C754 C 0.47786 0.94993 0.87941 0.0
C755 C 0.47375 0.97215 0.91635 0.0
C756 C 0.45142 0.93288 0.85346 0.0
C757 C 0.42041 0.93639 0.86445 0.0
C758 C 0.41674 0.9608 0.90132 0.0
C759 C 0.44318 0.97885 0.92685 0.0
H760 H 0.4691 0.12692 0.05259 0.0
H761 H 0.45239 0.05153 0.09045 0.0
H762 H 0.43098 0.16255 0.09255 0.0
H763 H 0.41355 0.08695 0.13 0.0
H764 H 0.32042 0.14429 0.16516 0.0
H765 H 0.35893 0.1072 0.12675 0.0
H766 H 0.42532 0.20045 0.16015 0.0
H767 H 0.38725 0.23733 0.19903 0.0
C768 C 0.45719 0.11771 0.06924 0.0
C769 C 0.46412 0.08605 0.06796 0.0
C770 C 0.43532 0.1384 0.09247 0.0
C771 C 0.41892 0.12797 0.11489 0.0
C772 C 0.42541 0.09597 0.11317 0.0
C773 C 0.44787 0.07562 0.09047 0.0
C774 C 0.34334 0.15693 0.16465 0.0
C775 C 0.35048 0.19407 0.18561 0.0
C776 C 0.36556 0.13555 0.14257 0.0
C777 C 0.39548 0.15056 0.1399 0.0
C778 C 0.40259 0.18769 0.16099 0.0
C779 C 0.38069 0.20895 0.18364 0.0
H780 H 0.14552 0.08219 0.31882 0.0
H781 H 0.18255 0.16396 0.42813 0.0
H782 H 0.17347 0.11524 0.29314 0.0
H783 H 0.2116 0.19583 0.40252 0.0
H784 H 0.23685 0.26596 0.35323 0.0
H785 H 0.20813 0.23144 0.37624 0.0
H786 H 0.22176 0.13526 0.2783 0.0
H787 H 0.25011 0.17057 0.25471 0.0
C788 C 0.15949 0.1072 0.33762 0.0
C789 C 0.16127 0.11995 0.37598 0.0
C790 C 0.17606 0.12612 0.32266 0.0
C791 C 0.19513 0.15876 0.34535 0.0
C792 C 0.197 0.17132 0.38364 0.0
C793 C 0.18046 0.15249 0.39855 0.0
C794 C 0.23389 0.23742 0.33643 0.0
C795 C 0.24624 0.22135 0.30203 0.0
C796 C 0.21742 0.21733 0.34991 0.0
C797 C 0.21252 0.18001 0.32974 0.0
C798 C 0.22458 0.16379 0.29493 0.0
C799 C 0.24114 0.18409 0.28133 0.0
H800 H 0.84643 0.17904 0.2081 0.0
H801 H 0.88014 0.25627 0.17739 0.0
H802 H 0.88608 0.14159 0.17402 0.0
H803 H 0.92074 0.21881 0.14382 0.0
H804 H 1.0093 0.1501 0.11729 0.0
H805 H 0.97226 0.19127 0.15468 0.0
H806 H 0.89526 0.10613 0.10578 0.0
H807 H 0.93163 0.06581 0.06808 0.0
C808 C 0.86242 0.18832 0.19432 0.0
C809 C 0.85964 0.22099 0.19571 0.0
C810 C 0.88529 0.16661 0.17458 0.0
C811 C 0.90698 0.17689 0.15599 0.0
C812 C 0.90476 0.20992 0.15791 0.0
C813 C 0.88124 0.23138 0.17703 0.0
C814 C 0.98455 0.14013 0.11488 0.0
C815 C 0.97371 0.10432 0.08971 0.0
C816 C 0.96316 0.16385 0.13607 0.0
C817 C 0.93047 0.15228 0.13348 0.0
C818 C 0.92007 0.11628 0.10894 0.0
C819 C 0.9411 0.09301 0.08722 0.0
H820 H 0.14669 0.74887 0.51674 0.0
H821 H 0.20738 0.66897 0.50108 0.0
H822 H 0.19273 0.7889 0.52275 0.0
H823 H 0.25396 0.71004 0.50899 0.0
H824 H 0.2929 0.76438 0.43978 0.0
H825 H 0.26807 0.72969 0.46436 0.0
H826 H 0.24453 0.82461 0.55711 0.0
H827 H 0.27005 0.86001 0.53261 0.0
C828 C 0.16997 0.74012 0.51531 0.0
C829 C 0.17333 0.70552 0.50759 0.0
C830 C 0.1965 0.7634 0.51965 0.0
C831 C 0.22707 0.75281 0.51681 0.0
C832 C 0.2307 0.71896 0.5115 0.0
C833 C 0.20404 0.6955 0.50697 0.0
C834 C 0.28414 0.77837 0.46647 0.0
C835 C 0.28228 0.81497 0.48343 0.0
C836 C 0.26975 0.75823 0.48062 0.0
C837 C 0.25326 0.77436 0.51187 0.0
C838 C 0.25628 0.81148 0.53229 0.0
C839 C 0.27086 0.83171 0.51823 0.0
H840 H 0.50988 0.78311 0.48921 0.0
H841 H 0.546 0.87755 0.5906 0.0
H842 H 0.52966 0.7467 0.51405 0.0
H843 H 0.56553 0.84163 0.61527 0.0
H844 H 0.57992 0.77268 0.66256 0.0
H845 H 0.5459 0.79729 0.63435 0.0
H846 H 0.58621 0.73923 0.53167 0.0
H847 H 0.62062 0.7152 0.56004 0.0
C848 C 0.52174 0.79595 0.51686 0.0
C849 C 0.52681 0.83301 0.53793 0.0
C850 C 0.53303 0.77523 0.531 0.0
C851 C 0.54888 0.79139 0.56665 0.0
C852 C 0.55296 0.82843 0.58795 0.0
C853 C 0.54216 0.84901 0.57369 0.0
C854 C 0.58108 0.76471 0.6338 0.0
C855 C 0.60316 0.74236 0.61359 0.0
C856 C 0.56159 0.77869 0.61766 0.0
C857 C 0.56376 0.77046 0.581 0.0
C858 C 0.58389 0.74579 0.5599 0.0
C859 C 0.60353 0.73196 0.57612 0.0
H860 H 0.48645 0.44064 0.86747 0.0
H861 H 0.49759 0.40946 0.95018 0.0
H862 H 0.44969 0.38696 0.82931 0.0
H863 H 0.4597 0.35649 0.91276 0.0
H864 H 0.34447 0.35119 0.87422 0.0
H865 H 0.39885 0.37545 0.90313 0.0
H866 H 0.43518 0.31205 0.7991 0.0
H867 H 0.38069 0.28648 0.77055 0.0
C868 C 0.48256 0.42116 0.87635 0.0
C869 C 0.49493 0.42878 0.91139 0.0
C870 C 0.46141 0.39057 0.85468 0.0
C871 C 0.45182 0.36791 0.86839 0.0
C872 C 0.467 0.3735 0.90161 0.0
C873 C 0.48881 0.40361 0.92281 0.0
C874 C 0.36418 0.34123 0.85808 0.0
C875 C 0.35867 0.31689 0.82047 0.0
C876 C 0.39522 0.35497 0.87451 0.0
C877 C 0.42104 0.34535 0.85323 0.0
C878 C 0.41562 0.3194 0.81603 0.0
C879 C 0.38457 0.30483 0.79984 0.0
H880 H 0.89766 0.78655 0.26658 0.0
H881 H 0.842 0.83306 0.35877 0.0
H882 H 0.94627 0.81765 0.30722 0.0
H883 H 0.89086 0.86425 0.39967 0.0
H884 H 0.99288 0.93956 0.37794 0.0
H885 H 0.95848 0.88492 0.33664 0.0
H886 H 0.94701 0.8635 0.42624 0.0
H887 H 0.98212 0.91793 0.46726 0.0
C888 C 0.89596 0.8026 0.29581 0.0
C889 C 0.86617 0.80813 0.30958 0.0
C890 C 0.92377 0.82032 0.31897 0.0
C891 C 0.92226 0.84372 0.35637 0.0
C892 C 0.89269 0.8462 0.37088 0.0
C893 C 0.86471 0.82846 0.34756 0.0
C894 C 0.9845 0.92206 0.38813 0.0
C895 C 0.99036 0.9324 0.42536 0.0
C896 C 0.96465 0.89091 0.36466 0.0
C897 C 0.94987 0.87019 0.37843 0.0
C898 C 0.95805 0.87904 0.41503 0.0
C899 C 0.97838 0.90987 0.4383 0.0
H900 H 0.4519 0.61148 0.5452 0.0
H901 H 0.49484 0.61161 0.64073 0.0
H902 H 0.41415 0.64917 0.58165 0.0
H903 H 0.45685 0.65075 0.67816 0.0
H904 H 0.36131 0.68998 0.7258 0.0
H905 H 0.40294 0.6554 0.69269 0.0
H906 H 0.40303 0.70486 0.62495 0.0
H907 H 0.36092 0.73879 0.65757 0.0
C908 C 0.4537 0.61984 0.57427 0.0
C909 C 0.47695 0.60798 0.58958 0.0
C910 C 0.43182 0.64204 0.59553 0.0
C911 C 0.43184 0.6537 0.63342 0.0
C912 C 0.45544 0.64237 0.64912 0.0
C913 C 0.47766 0.62007 0.62765 0.0
C914 C 0.37016 0.69364 0.70387 0.0
C915 C 0.35715 0.71743 0.69456 0.0
C916 C 0.39447 0.67377 0.68485 0.0
C917 C 0.40688 0.67665 0.65554 0.0
C918 C 0.39414 0.70092 0.64667 0.0
C919 C 0.36985 0.7208 0.6657 0.0
H920 H 0.63874 0.2534 0.03435 0.0
H921 H 0.70281 0.17721 0.02141 0.0
H922 H 0.68344 0.2954 0.04107 0.0
H923 H 0.74792 0.21994 0.02967 0.0
H924 H 0.78357 0.26759 0.95446 0.0
H925 H 0.76014 0.23597 0.98295 0.0
H926 H 0.73422 0.33325 0.07018 0.0
H927 H 0.75842 0.36557 0.04179 0.0
C928 C 0.6625 0.24599 0.03391 0.0
C929 C 0.66718 0.21169 0.0263 0.0
C930 C 0.68825 0.27029 0.03839 0.0
C931 C 0.7193 0.26089 0.03556 0.0
C932 C 0.72426 0.22783 0.0317 0.0
C933 C 0.69841 0.20341 0.02707 0.0
C934 C 0.77453 0.28285 0.98077 0.0
C935 C 0.77182 0.31904 0.99503 0.0
C936 C 0.76093 0.2645 0.99723 0.0
C937 C 0.74429 0.28193 0.02818 0.0
C938 C 0.74611 0.31899 0.04575 0.0
C939 C 0.75992 0.33746 0.02939 0.0
H940 H 1.0098 0.31794 0.04773 0.0
H941 H 0.05813 0.28978 0.95041 0.0
H942 H 0.03816 0.27847 0.06027 0.0
H943 H 0.08628 0.24919 0.96243 0.0
H944 H 0.16497 0.23709 0.03613 0.0
H945 H 0.12848 0.25745 0.00607 0.0
H946 H 0.04941 0.2214 0.046 0.0
H947 H 0.08622 0.20294 0.07782 0.0
C948 C 1.02576 0.30238 0.02831 0.0
C949 C 0.03191 0.30718 0.99825 0.0
C950 C 0.04204 0.27955 0.03542 0.0
C951 C 0.06475 0.26072 0.01251 0.0
C952 C 0.0694 0.26379 0.98104 0.0
C953 C 0.05325 0.28694 0.97409 0.0
C954 C 0.13975 0.23327 0.0382 0.0
C955 C 0.12856 0.21925 0.0601 0.0
C956 C 0.11872 0.24451 0.02054 0.0
C957 C 0.08597 0.24177 0.02422 0.0
C958 C 0.07456 0.2248 0.04342 0.0
C959 C 0.09564 0.21383 0.06133 0.0
H960 H 0.6929 0.57443 0.83485 0.0
H961 H 0.64656 0.66478 0.90494 0.0
H962 H 0.72107 0.60891 0.8109 0.0
H963 H 0.67457 0.69909 0.88105 0.0
H964 H 0.75223 0.76494 0.86179 0.0
H965 H 0.72365 0.72838 0.88255 0.0
H966 H 0.72075 0.6376 0.77428 0.0
H967 H 0.75042 0.67474 0.75362 0.0
C968 C 0.68831 0.60152 0.84505 0.0
C969 C 0.66722 0.61645 0.87236 0.0
C970 C 0.70465 0.62149 0.83113 0.0
C971 C 0.70069 0.65732 0.84392 0.0
C972 C 0.67922 0.67202 0.8708 0.0
C973 C 0.66294 0.65211 0.8847 0.0
C974 C 0.74562 0.73716 0.84219 0.0
C975 C 0.75391 0.72307 0.80587 0.0
C976 C 0.72877 0.716 0.85415 0.0
C977 C 0.71921 0.67961 0.83033 0.0
C978 C 0.72769 0.6653 0.79385 0.0
C979 C 0.74468 0.68668 0.7818 0.0
H980 H 0.64063 0.35693 0.11525 0.0
H981 H 0.72639 0.41792 0.1156 0.0
H982 H 0.61042 0.38155 0.08442 0.0
H983 H 0.69576 0.44437 0.08686 0.0
H984 H 0.63593 0.46901 0.00908 0.0
H985 H 0.66756 0.44067 0.03538 0.0
H986 H 0.58789 0.43035 0.09145 0.0
H987 H 0.55637 0.4572 0.06432 0.0
C988 C 0.65327 0.37561 0.1089 0.0
C989 C 0.68634 0.3853 0.11865 0.0
C990 C 0.63564 0.39035 0.09148 0.0
C991 C 0.65014 0.41569 0.08314 0.0
C992 C 0.68331 0.42497 0.09234 0.0
C993 C 0.701 0.41005 0.1096 0.0
C994 C 0.6251 0.46048 0.02683 0.0
C995 C 0.59328 0.46547 0.03414 0.0
C996 C 0.64342 0.44433 0.0423 0.0
C997 C 0.63066 0.4327 0.06583 0.0
C998 C 0.59883 0.4379 0.07304 0.0
C999 C 0.58058 0.45375 0.05749 0.0
H1000 H 0.99753 0.42679 0.37085 0.0
H1001 H 0.95159 0.51997 0.43322 0.0
H1002 H 0.95002 0.39877 0.32804 0.0
H1003 H 0.90377 0.49204 0.38985 0.0
H1004 H 0.82436 0.39738 0.3655 0.0
H1005 H 0.86883 0.44392 0.38864 0.0
H1006 H 0.90696 0.39214 0.28353 0.0
H1007 H 0.86225 0.34503 0.26049 0.0
C1008 C 0.97758 0.44174 0.37458 0.0
C1009 C 0.97777 0.47502 0.40579 0.0
C1010 C 0.95038 0.42584 0.34982 0.0
C1011 C 0.92285 0.44293 0.35599 0.0
C1012 C 0.92447 0.47804 0.38479 0.0
C1013 C 0.95183 0.49404 0.40954 0.0
C1014 C 0.84177 0.39648 0.34702 0.0
C1015 C 0.84047 0.36724 0.31165 0.0
C1016 C 0.86712 0.4234 0.36011 0.0
C1017 C 0.89173 0.42145 0.33808 0.0
C1018 C 0.88856 0.39406 0.30128 0.0
C1019 C 0.86302 0.36714 0.28811 0.0
H1020 H 0.61821 0.55007 0.46635 0.0
H1021 H 0.57188 0.64414 0.51664 0.0
H1022 H 0.65523 0.57828 0.44237 0.0
H1023 H 0.60879 0.6727 0.49343 0.0
H1024 H 0.64775 0.69748 0.40752 0.0
H1025 H 0.61759 0.67258 0.43923 0.0
H1026 H 0.69702 0.61941 0.44521 0.0
H1027 H 0.72676 0.64311 0.41183 0.0
C1028 C 0.61705 0.57753 0.47416 0.0
C1029 C 0.59255 0.5951 0.49473 0.0
C1030 C 0.63808 0.59373 0.4598 0.0
C1031 C 0.63514 0.628 0.46512 0.0
C1032 C 0.61188 0.64622 0.48779 0.0
C1033 C 0.59099 0.63006 0.50206 0.0
C1034 C 0.65893 0.68028 0.4152 0.0
C1035 C 0.69008 0.6726 0.40654 0.0
C1036 C 0.64159 0.66623 0.43416 0.0
C1037 C 0.65452 0.6438 0.44552 0.0
C1038 C 0.68574 0.63621 0.43703 0.0
C1039 C 0.70313 0.65033 0.41805 0.0
H1040 H 0.85223 0.35708 0.75664 0.0
H1041 H 0.83781 0.33151 0.84289 0.0
H1042 H 0.89322 0.40566 0.79777 0.0
H1043 H 0.87909 0.37847 0.88311 0.0
H1044 H 0.98906 0.46268 0.86974 0.0
H1045 H 0.94619 0.41807 0.82715 0.0
H1046 H 0.89072 0.43985 0.91834 0.0
H1047 H 0.93399 0.48292 0.96061 0.0
C1048 C 0.85784 0.36186 0.78433 0.0
C1049 C 0.84178 0.34061 0.79659 0.0
C1050 C 0.88145 0.38949 0.80784 0.0
C1051 C 0.88949 0.39624 0.84396 0.0
C1052 C 0.87321 0.37479 0.85591 0.0
C1053 C 0.84959 0.34757 0.83267 0.0
C1054 C 0.9676 0.45788 0.88049 0.0
C1055 C 0.96492 0.476 0.91845 0.0
C1056 C 0.94293 0.4325 0.8561 0.0
C1057 C 0.91498 0.42499 0.86922 0.0
C1058 C 0.9121 0.44417 0.9072 0.0
C1059 C 0.93684 0.4691 0.93149 0.0
H1060 H 0.87979 0.83317 0.07614 0.0
H1061 H 0.87269 0.94 0.1608 0.0
H1062 H 0.91116 0.85606 0.04321 0.0
H1063 H 0.90363 0.96274 0.12765 0.0
H1064 H 0.94119 0.99698 0.04712 0.0
H1065 H 0.90614 0.97212 0.07601 0.0
H1066 H 0.96105 0.88452 0.04249 0.0
H1067 H 0.99528 0.90877 0.01285 0.0
C1068 C 0.88497 0.86156 0.08813 0.0
C1069 C 0.87315 0.88435 0.12162 0.0
C1070 C 0.90311 0.87484 0.06896 0.0
C1071 C 0.91024 0.91158 0.08227 0.0
C1072 C 0.89841 0.93436 0.11569 0.0
C1073 C 0.88041 0.9211 0.13493 0.0
C1074 C 0.94539 0.972 0.04517 0.0
C1075 C 0.97122 0.95498 0.02722 0.0
C1076 C 0.92543 0.95783 0.0623 0.0
C1077 C 0.93044 0.92601 0.06207 0.0
C1078 C 0.95572 0.90858 0.04306 0.0
C1079 C 0.97562 0.92271 0.02603 0.0
H1080 H 0.8031 0.23986 0.86663 0.0
H1081 H 0.83325 0.17453 0.75949 0.0
H1082 H 0.83183 0.20775 0.89072 0.0
H1083 H 0.86142 0.14227 0.78321 0.0
H1084 H 0.93522 0.1107 0.84121 0.0
H1085 H 0.90627 0.14365 0.81923 0.0
H1086 H 0.8355 0.15449 0.8935 0.0
H1087 H 0.86442 0.12107 0.91541 0.0
C1088 C 0.81567 0.21857 0.84802 0.0
C1089 C 0.81554 0.21017 0.81084 0.0
C1090 C 0.8322 0.19985 0.8619 0.0
C1091 C 0.84952 0.17205 0.83929 0.0
C1092 C 0.84914 0.16367 0.80209 0.0
C1093 C 0.83257 0.18222 0.78824 0.0
C1094 C 0.91331 0.11955 0.85278 0.0
C1095 C 0.90251 0.11236 0.88023 0.0
C1096 C 0.89647 0.13877 0.84 0.0
C1097 C 0.86796 0.152 0.85402 0.0
C1098 C 0.85736 0.14539 0.88193 0.0
C1099 C 0.87419 0.126 0.89467 0.0
H1100 H 0.72214 0.17487 0.70632 0.0
H1101 H 0.64842 0.24353 0.73553 0.0
H1102 H 0.68486 0.12632 0.65913 0.0
H1103 H 0.61068 0.19431 0.68889 0.0
H1104 H 0.54976 0.08178 0.63192 0.0
H1105 H 0.58639 0.13201 0.67854 0.0
H1106 H 0.65295 0.11395 0.59806 0.0
H1107 H 0.61606 0.06411 0.55124 0.0
C1108 C 0.698 0.17964 0.70249 0.0
C1109 C 0.68828 0.21312 0.72424 0.0
C1110 C 0.67668 0.15182 0.67552 0.0
C1111 C 0.64498 0.15664 0.67027 0.0
C1112 C 0.63502 0.18993 0.69248 0.0
C1113 C 0.65657 0.21803 0.71906 0.0
C1114 C 0.57225 0.08853 0.62426 0.0
C1115 C 0.58022 0.06899 0.58809 0.0
C1116 C 0.59305 0.11738 0.65082 0.0
C1117 C 0.62244 0.12681 0.64185 0.0
C1118 C 0.63049 0.10709 0.60572 0.0
C1119 C 0.60943 0.07864 0.57898 0.0
H1120 H 0.57359 0.90591 0.42677 0.0
H1121 H 0.62855 0.99769 0.43473 0.0
H1122 H 0.61202 0.86866 0.38928 0.0
H1123 H 0.66726 0.9607 0.39792 0.0
H1124 H 0.71755 0.88016 0.30225 0.0
H1125 H 0.67845 0.91734 0.33858 0.0
H1126 H 0.66378 0.8524 0.38951 0.0
H1127 H 0.70219 0.8151 0.35289 0.0
C1128 C 0.59391 0.91829 0.42072 0.0
C1129 C 0.59766 0.95509 0.43411 0.0
C1130 C 0.61625 0.89683 0.39924 0.0
C1131 C 0.64321 0.91128 0.39018 0.0
C1132 C 0.64683 0.94812 0.40355 0.0
C1133 C 0.62456 0.96956 0.42509 0.0
C1134 C 0.70604 0.87377 0.3212 0.0
C1135 C 0.71338 0.84432 0.3243 0.0
C1136 C 0.68355 0.89534 0.34235 0.0
C1137 C 0.66746 0.88823 0.36734 0.0
C1138 C 0.67495 0.85878 0.37038 0.0
C1139 C 0.6974 0.83734 0.34937 0.0
H1140 H 0.92614 0.18569 0.37524 0.0
H1141 H 0.83981 0.14863 0.4031 0.0
H1142 H 0.95695 0.15854 0.40312 0.0
H1143 H 0.87053 0.12026 0.42971 0.0
H1144 H 0.93743 0.09815 0.50454 0.0
H1145 H 0.90652 0.12785 0.47931 0.0
H1146 H 0.97059 0.10415 0.3954 0.0
H1147 H 1.00159 0.07531 0.42096 0.0
C1148 C 0.91356 0.17184 0.38731 0.0
C1149 C 0.88015 0.16958 0.38651 0.0
C1150 C 0.93136 0.15574 0.40307 0.0
C1151 C 0.91655 0.13674 0.41882 0.0
C1152 C 0.88315 0.13475 0.41833 0.0
C1153 C 0.86534 0.15076 0.40246 0.0
C1154 C 0.94501 0.09936 0.48078 0.0
C1155 C 0.97226 0.08416 0.46505 0.0
C1156 C 0.92706 0.11629 0.46603 0.0
C1157 C 0.93576 0.11877 0.43505 0.0
C1158 C 0.9631 0.10358 0.41951 0.0
C1159 C 0.98093 0.08665 0.43416 0.0
H1160 H 0.70245 0.21418 0.24934 0.0
H1161 H 0.74911 0.16381 0.1501 0.0
H1162 H 0.66008 0.16433 0.2229 0.0
H1163 H 0.70707 0.11464 0.12358 0.0
H1164 H 0.6265 0.03779 0.06911 0.0
H1165 H 0.67068 0.06558 0.11783 0.0
H1166 H 0.62134 0.15745 0.17433 0.0
H1167 H 0.57754 0.12959 0.12629 0.0
C1168 C 0.70417 0.19189 0.22242 0.0
C1169 C 0.72827 0.19312 0.20111 0.0
C1170 C 0.68 0.16339 0.20731 0.0
C1171 C 0.67982 0.13595 0.17084 0.0
C1172 C 0.70636 0.13522 0.15171 0.0
C1173 C 0.73032 0.16367 0.16671 0.0
C1174 C 0.6248 0.06341 0.09264 0.0
C1175 C 0.59928 0.08217 0.09361 0.0
C1176 C 0.64998 0.07926 0.12052 0.0
C1177 C 0.64979 0.11396 0.14957 0.0
C1178 C 0.62232 0.13068 0.15252 0.0
C1179 C 0.59735 0.11494 0.12469 0.0
H1180 H 0.75614 0.88499 0.85983 0.0
H1181 H 0.67924 0.82602 0.77441 0.0
H1182 H 0.71938 0.92376 0.89912 0.0
H1183 H 0.64246 0.86547 0.81361 0.0
H1184 H 0.59311 0.96771 0.88472 0.0
H1185 H 0.62976 0.92955 0.84377 0.0
H1186 H 0.67321 0.9205 0.93353 0.0
H1187 H 0.63624 0.95786 0.9741 0.0
C1188 C 0.73145 0.8804 0.84912 0.0
C1189 C 0.72099 0.85209 0.81356 0.0
C1190 C 0.71019 0.90265 0.87193 0.0
C1191 C 0.67764 0.89804 0.85992 0.0
C1192 C 0.66726 0.87023 0.824 0.0
C1193 C 0.68845 0.84743 0.80143 0.0
C1194 C 0.61053 0.9577 0.89582 0.0
C1195 C 0.61151 0.96622 0.93304 0.0
C1196 C 0.63152 0.93552 0.87216 0.0
C1197 C 0.65477 0.92166 0.88502 0.0
C1198 C 0.65598 0.93067 0.92239 0.0
C1199 C 0.63458 0.95215 0.94578 0.0
H1200 H 0.92669 0.8839 0.59831 0.0
H1201 H 0.87881 0.97315 0.66766 0.0
H1202 H 0.8991 0.84913 0.62198 0.0
H1203 H 0.85099 0.93821 0.6913 0.0
H1204 H 0.82232 0.87227 0.74836 0.0
H1205 H 0.85172 0.90976 0.72797 0.0
H1206 H 0.85035 0.81901 0.61993 0.0
H1207 H 0.82206 0.78209 0.64047 0.0
C1208 C 0.91007 0.89621 0.61836 0.0
C1209 C 0.90522 0.93169 0.6306 0.0
C1210 C 0.89403 0.87605 0.6321 0.0
C1211 C 0.87223 0.89033 0.65866 0.0
C1212 C 0.86769 0.92599 0.67133 0.0
C1213 C 0.88381 0.94621 0.6576 0.0
C1214 C 0.82836 0.86041 0.72029 0.0
C1215 C 0.81965 0.82394 0.69622 0.0
C1216 C 0.84518 0.88199 0.7084 0.0
C1217 C 0.85397 0.86778 0.67207 0.0
C1218 C 0.84495 0.8313 0.64823 0.0
C1219 C 0.82828 0.80994 0.66005 0.0
H1220 H 0.19262 0.85847 0.7846 0.0
H1221 H 0.20032 0.81362 0.85611 0.0
H1222 H 0.15215 0.89366 0.82037 0.0
H1223 H 0.15973 0.84826 0.89146 0.0
H1224 H 0.11485 0.94421 0.97369 0.0
H1225 H 0.15138 0.90617 0.93467 0.0
H1226 H 0.09842 0.89682 0.83916 0.0
H1227 H 0.0615 0.93593 0.87899 0.0
C1228 C 0.18566 0.85583 0.8078 0.0
C1229 C 0.20029 0.83295 0.81721 0.0
C1230 C 0.16209 0.87603 0.82836 0.0
C1231 C 0.15227 0.87445 0.85941 0.0
C1232 C 0.16664 0.85111 0.86837 0.0
C1233 C 0.19004 0.83083 0.84775 0.0
C1234 C 0.11057 0.93403 0.94434 0.0
C1235 C 0.08474 0.94355 0.92992 0.0
C1236 C 0.13172 0.91171 0.92165 0.0
C1237 C 0.12836 0.89777 0.88323 0.0
C1238 C 0.10232 0.90697 0.86851 0.0
C1239 C 0.08079 0.92927 0.89141 0.0
H1240 H 0.96021 0.35339 0.56742 0.0
H1241 H 0.89351 0.43061 0.60601 0.0
H1242 H 0.9202 0.30919 0.56463 0.0
H1243 H 0.8524 0.38516 0.60014 0.0
H1244 H 0.80236 0.30287 0.62688 0.0
H1245 H 0.8364 0.34998 0.6263 0.0
H1246 H 0.87351 0.27327 0.52798 0.0
H1247 H 0.84012 0.22567 0.52968 0.0
C1248 C 0.93714 0.3612 0.57584 0.0
C1249 C 0.9302 0.39575 0.58707 0.0
C1250 C 0.91385 0.33543 0.5732 0.0
C1251 C 0.88282 0.34331 0.58112 0.0
C1252 C 0.87605 0.37814 0.59364 0.0
C1253 C 0.89958 0.40417 0.59685 0.0
C1254 C 0.81697 0.29612 0.60437 0.0
C1255 C 0.81873 0.26062 0.57832 0.0
C1256 C 0.83662 0.32321 0.60413 0.0
C1257 C 0.85818 0.31536 0.57758 0.0
C1258 C 0.85782 0.28006 0.5495 0.0
C1259 C 0.83847 0.25284 0.55009 0.0
H1260 H 0.48007 0.23114 0.51916 0.0
H1261 H 0.56667 0.23662 0.47076 0.0
H1262 H 0.45748 0.26725 0.49675 0.0
H1263 H 0.54493 0.27493 0.45067 0.0
H1264 H 0.47441 0.27992 0.36582 0.0
H1265 H 0.50628 0.26153 0.40172 0.0
H1266 H 0.45506 0.32044 0.49554 0.0
H1267 H 0.42238 0.33795 0.45901 0.0
C1268 C 0.49457 0.24072 0.50445 0.0
C1269 C 0.52486 0.23022 0.49598 0.0
C1270 C 0.48178 0.26193 0.49204 0.0
C1271 C 0.49918 0.27352 0.47128 0.0
C1272 C 0.5306 0.26574 0.46581 0.0
C1273 C 0.54324 0.24415 0.47782 0.0
C1274 C 0.47025 0.2893 0.39427 0.0
C1275 C 0.44567 0.30995 0.40947 0.0
C1276 C 0.4888 0.27916 0.41508 0.0
C1277 C 0.48323 0.28951 0.45163 0.0
C1278 C 0.45983 0.3119 0.46745 0.0
C1279 C 0.44127 0.32211 0.44661 0.0
H1280 H 0.56815 0.58818 0.10364 0.0
H1281 H 0.57077 0.65353 0.05225 0.0
H1282 H 0.61097 0.62879 0.1495 0.0
H1283 H 0.61382 0.69401 0.09814 0.0
H1284 H 0.69 0.76183 0.20289 0.0
H1285 H 0.63726 0.735 0.16853 0.0
H1286 H 0.66709 0.63124 0.12724 0.0
H1287 H 0.71928 0.6576 0.16061 0.0
C1288 C 0.57697 0.61191 0.10298 0.0
C1289 C 0.56684 0.61714 0.07376 0.0
C1290 C 0.60161 0.63502 0.12908 0.0
C1291 C 0.61621 0.66382 0.12652 0.0
C1292 C 0.6031 0.6718 0.10046 0.0
C1293 C 0.57847 0.64859 0.07422 0.0
C1294 C 0.68532 0.73334 0.18591 0.0
C1295 C 0.70857 0.71172 0.18459 0.0
C1296 C 0.65517 0.71808 0.16663 0.0
C1297 C 0.64794 0.6811 0.1463 0.0
C1298 C 0.67176 0.65979 0.14368 0.0
C1299 C 0.70175 0.67491 0.16243 0.0
H1300 H 0.17745 0.26065 0.73441 0.0
H1301 H 0.22006 0.19109 0.63733 0.0
H1302 H 0.12444 0.23681 0.70032 0.0
H1303 H 0.16743 0.16861 0.60288 0.0
H1304 H 0.07385 0.13856 0.54432 0.0
H1305 H 0.11096 0.19098 0.58561 0.0
H1306 H 0.10591 0.16185 0.67029 0.0
H1307 H 0.06979 0.10876 0.62847 0.0
C1308 C 0.17547 0.24147 0.70535 0.0
C1309 C 0.20252 0.22755 0.68817 0.0
C1310 C 0.14529 0.22795 0.68601 0.0
C1311 C 0.1421 0.20129 0.64907 0.0
C1312 C 0.16944 0.18966 0.63122 0.0
C1313 C 0.19945 0.20233 0.65082 0.0
C1314 C 0.07915 0.14464 0.57254 0.0
C1315 C 0.06908 0.12 0.58354 0.0
C1316 C 0.10044 0.17447 0.59601 0.0
C1317 C 0.11123 0.18014 0.63087 0.0
C1318 C 0.09755 0.15814 0.64362 0.0
C1319 C 0.07684 0.12786 0.61982 0.0
H1320 H 0.69724 0.36441 0.28658 0.0
H1321 H 0.70209 0.31641 0.35539 0.0
H1322 H 0.65621 0.39897 0.32174 0.0
H1323 H 0.66088 0.35036 0.39006 0.0
H1324 H 0.61387 0.44409 0.47248 0.0
H1325 H 0.65129 0.40707 0.43415 0.0
H1326 H 0.60231 0.40225 0.33883 0.0
H1327 H 0.56456 0.44041 0.37798 0.0
C1328 C 0.68952 0.36093 0.30905 0.0
C1329 C 0.70356 0.33736 0.31788 0.0
C1330 C 0.66562 0.38079 0.32926 0.0
C1331 C 0.65479 0.37814 0.35939 0.0
C1332 C 0.66856 0.35409 0.36775 0.0
C1333 C 0.69232 0.33419 0.34749 0.0
C1334 C 0.61065 0.43515 0.44331 0.0
C1335 C 0.58564 0.44568 0.42878 0.0
C1336 C 0.63233 0.41339 0.42098 0.0
C1337 C 0.63036 0.40098 0.38281 0.0
C1338 C 0.60518 0.4112 0.36799 0.0
C1339 C 0.58315 0.43297 0.3905 0.0
H1340 H 0.38639 0.8637 0.99896 0.0
H1341 H 0.46248 0.81221 0.01674 0.0
H1342 H 0.3476 0.81683 0.99476 0.0
H1343 H 0.42409 0.76687 0.01477 0.0
H1344 H 0.35477 0.68526 0.00868 0.0
H1345 H 0.38434 0.71863 0.98462 0.0
H1346 H 0.32973 0.80552 0.04165 0.0
H1347 H 0.30107 0.77298 0.0665 0.0
C1348 C 0.39484 0.8421 1.00138 0.0
C1349 C 0.4274 0.84202 0.00908 0.0
C1350 C 0.37264 0.81541 0.99925 0.0
C1351 C 0.38264 0.78835 1.00497 0.0
C1352 C 0.41538 0.78703 0.00991 0.0
C1353 C 0.43747 0.81345 0.01175 0.0
C1354 C 0.34863 0.71117 0.01539 0.0
C1355 C 0.326 0.72667 0.04011 0.0
C1356 C 0.36543 0.73019 1.00142 0.0
C1357 C 0.35962 0.76481 0.01138 0.0
C1358 C 0.33466 0.77878 0.03297 0.0
C1359 C 0.3181 0.75996 0.04727 0.0
H1360 H 0.98708 0.73356 0.021 0.0
H1361 H 0.07356 0.73085 0.96959 0.0
H1362 H 0.96765 0.77122 0.99862 0.0
H1363 H 0.05493 0.77023 0.94907 0.0
H1364 H 0.98428 0.77719 0.86485 0.0
H1365 H 1.0151 0.75791 0.90071 0.0
H1366 H 0.97043 0.82553 0.99716 0.0
H1367 H 0.93862 0.84388 0.96077 0.0
C1368 C 1.00225 0.74165 0.00563 0.0
C1369 C 1.03156 0.72856 0.99642 0.0
C1370 C 0.99131 0.76369 0.99321 0.0
C1371 C 1.00956 0.77332 0.97154 0.0
C1372 C 0.04004 0.76272 0.96508 0.0
C1373 C 0.05088 0.74045 0.97726 0.0
C1374 C 0.98135 0.78828 0.89383 0.0
C1375 C 0.95868 0.81155 0.90983 0.0
C1376 C 0.99932 0.77761 0.91457 0.0
C1377 C 0.99508 0.79005 0.95184 0.0
C1378 C 0.97398 0.81524 0.96845 0.0
C1379 C 0.95596 0.82594 0.94767 0.0
H1380 H 0.38424 0.37379 0.06296 0.0
H1381 H 0.41438 0.45827 0.17329 0.0
H1382 H 0.35466 0.34116 0.08728 0.0
H1383 H 0.38615 0.42437 0.19785 0.0
H1384 H 0.30895 0.36608 0.23212 0.0
H1385 H 0.33786 0.40214 0.20979 0.0
H1386 H 0.35742 0.30672 0.11456 0.0
H1387 H 0.32791 0.27144 0.13615 0.0
C1388 C 0.38471 0.38568 0.09251 0.0
C1389 C 0.40206 0.41924 0.11576 0.0
C1390 C 0.36791 0.36641 0.1067 0.0
C1391 C 0.36778 0.37948 0.14493 0.0
C1392 C 0.38511 0.41308 0.16831 0.0
C1393 C 0.40188 0.4325 0.15405 0.0
C1394 C 0.31936 0.35291 0.20636 0.0
C1395 C 0.31564 0.31565 0.18589 0.0
C1396 C 0.33623 0.37364 0.1935 0.0
C1397 C 0.3501 0.35781 0.1598 0.0
C1398 C 0.34667 0.32049 0.13997 0.0
C1399 C 0.32976 0.29998 0.15263 0.0
H1400 H 0.43102 0.57361 0.9833 0.0
H1401 H 0.5068 0.57963 0.92083 0.0
H1402 H 0.39796 0.60066 0.95712 0.0
H1403 H 0.47503 0.60866 0.89645 0.0
H1404 H 0.40591 0.63814 0.83365 0.0
H1405 H 0.43608 0.60743 0.85752 0.0
H1406 H 0.38321 0.6469 0.95269 0.0
H1407 H 0.3512 0.6746 0.92675 0.0
C1408 C 0.44083 0.58113 0.96431 0.0
C1409 C 0.47167 0.57413 0.9542 0.0
C1410 C 0.42184 0.59703 0.94926 0.0
C1411 C 0.43322 0.60723 0.92405 0.0
C1412 C 0.46445 0.60067 0.91469 0.0
C1413 C 0.48308 0.58416 0.92911 0.0
C1414 C 0.40039 0.63994 0.85946 0.0
C1415 C 0.37626 0.65976 0.87846 0.0
C1416 C 0.41824 0.62263 0.87372 0.0
C1417 C 0.41304 0.62471 0.90788 0.0
C1418 C 0.38839 0.64403 0.9264 0.0
C1419 C 0.37023 0.6608 0.9118 0.0
H1420 H 0.07864 0.5718 0.60941 0.0
H1421 H 0.15407 0.55602 0.53929 0.0
H1422 H 0.11765 0.60217 0.66362 0.0
H1423 H 0.19257 0.58686 0.5924 0.0
H1424 H 0.25947 0.65429 0.6783 0.0
H1425 H 0.22269 0.59982 0.64604 0.0
H1426 H 0.14417 0.66015 0.68934 0.0
H1427 H 0.18142 0.71368 0.72376 0.0
C1428 C 0.10364 0.57402 0.60564 0.0
C1429 C 0.11345 0.56262 0.57045 0.0
C1430 C 0.12596 0.59148 0.6366 0.0
C1431 C 0.15826 0.59776 0.63262 0.0
C1432 C 0.16809 0.58255 0.59696 0.0
C1433 C 0.14591 0.56516 0.56627 0.0
C1434 C 0.23443 0.65533 0.68212 0.0
C1435 C 0.22291 0.6878 0.70267 0.0
C1436 C 0.21333 0.6243 0.66355 0.0
C1437 C 0.18033 0.62575 0.66375 0.0
C1438 C 0.16933 0.65782 0.68828 0.0
C1439 C 0.19061 0.68868 0.70788 0.0
H1440 H 0.37887 0.43989 0.66254 0.0
H1441 H 0.37059 0.33452 0.56911 0.0
H1442 H 0.40709 0.46292 0.62794 0.0
H1443 H 0.39953 0.35768 0.53479 0.0
H1444 H 0.48776 0.40764 0.50501 0.0
H1445 H 0.45112 0.38179 0.53108 0.0
H1446 H 0.40572 0.47689 0.57875 0.0
H1447 H 0.44335 0.50316 0.55329 0.0
C1448 C 0.38256 0.42143 0.63448 0.0
C1449 C 0.3719 0.38495 0.61914 0.0
C1450 C 0.39896 0.43487 0.61441 0.0
C1451 C 0.40577 0.4125 0.5781 0.0
C1452 C 0.39522 0.37603 0.56268 0.0
C1453 C 0.37858 0.36259 0.58267 0.0
C1454 C 0.46887 0.4224 0.51935 0.0
C1455 C 0.46798 0.45714 0.52564 0.0
C1456 C 0.44786 0.40756 0.53473 0.0
C1457 C 0.42514 0.4269 0.55739 0.0
C1458 C 0.42294 0.46098 0.56189 0.0
C1459 C 0.44403 0.47585 0.54636 0.0
H1460 H 0.15236 0.74274 0.2335 0.0
H1461 H 0.22738 0.67599 0.19753 0.0
H1462 H 0.11382 0.69295 0.18926 0.0
H1463 H 0.18914 0.62672 0.15295 0.0
H1464 H 0.05381 0.58096 0.13555 0.0
H1465 H 0.09147 0.63158 0.17979 0.0
H1466 H 0.15355 0.61216 0.09479 0.0
H1467 H 0.11576 0.56184 0.05049 0.0
C1468 C 0.16061 0.71752 0.21605 0.0
C1469 C 0.19288 0.7133 0.21874 0.0
C1470 C 0.13858 0.68905 0.19087 0.0
C1471 C 0.14854 0.65604 0.16759 0.0
C1472 C 0.18085 0.65196 0.17023 0.0
C1473 C 0.20273 0.68019 0.19575 0.0
C1474 C 0.07555 0.58749 0.12641 0.0
C1475 C 0.082 0.56742 0.0897 0.0
C1476 C 0.09695 0.61657 0.15162 0.0
C1477 C 0.12541 0.62577 0.1407 0.0
C1478 C 0.1319 0.6055 0.10401 0.0
C1479 C 0.11029 0.57677 0.07869 0.0
H1480 H 0.72444 0.29534 0.66411 0.0
H1481 H 0.7227 0.38125 0.77423 0.0
H1482 H 0.70002 0.32923 0.63944 0.0
H1483 H 0.69892 0.41558 0.7497 0.0
H1484 H 0.63031 0.45984 0.69832 0.0
H1485 H 0.65453 0.42583 0.72269 0.0
H1486 H 0.70391 0.37534 0.62572 0.0
H1487 H 0.6797 0.40937 0.60135 0.0
C1488 C 0.71901 0.32156 0.68326 0.0
C1489 C 0.72578 0.33509 0.72149 0.0
C1490 C 0.70503 0.34138 0.66895 0.0
C1491 C 0.69702 0.37577 0.69213 0.0
C1492 C 0.70393 0.38926 0.73042 0.0
C1493 C 0.71797 0.36945 0.74471 0.0
C1494 C 0.64654 0.44182 0.68208 0.0
C1495 C 0.6526 0.438 0.6474 0.0
C1496 C 0.66067 0.422 0.69629 0.0
C1497 C 0.68165 0.39722 0.67665 0.0
C1498 C 0.68766 0.39335 0.64194 0.0
C1499 C 0.67354 0.41318 0.62773 0.0
H1500 H 0.85053 0.6711 0.21737 0.0
H1501 H 0.84262 0.71689 0.14664 0.0
H1502 H 0.88848 0.63352 0.17899 0.0
H1503 H 0.88038 0.67935 0.10832 0.0
H1504 H 0.97412 0.63259 0.06893 0.0
H1505 H 0.93636 0.67025 0.10759 0.0
H1506 H 0.89287 0.58316 0.1186 0.0
H1507 H 0.93059 0.54563 0.08015 0.0
C1508 C 0.85672 0.67313 0.19359 0.0
C1509 C 0.84318 0.69715 0.18528 0.0
C1510 C 0.8785 0.65138 0.17137 0.0
C1511 C 0.8878 0.65317 0.14029 0.0
C1512 C 0.87428 0.6773 0.13211 0.0
C1513 C 0.85229 0.69875 0.15407 0.0
C1514 C 0.95652 0.62139 0.07955 0.0
C1515 C 0.95562 0.58583 0.07114 0.0
C1516 C 0.93464 0.64303 0.10167 0.0
C1517 C 0.9113 0.63001 0.11651 0.0
C1518 C 0.91056 0.59449 0.10821 0.0
C1519 C 0.9322 0.57277 0.08581 0.0
H1520 H 0.97111 0.57051 0.60587 0.0
H1521 H 0.95354 0.61326 0.53391 0.0
H1522 H 0.93389 0.60754 0.64697 0.0
H1523 H 0.91536 0.64911 0.57421 0.0
H1524 H 0.82128 0.67225 0.63613 0.0
H1525 H 0.85918 0.63567 0.59628 0.0
H1526 H 0.93027 0.67887 0.68904 0.0
H1527 H 0.89268 0.71674 0.72883 0.0
C1528 C 0.95915 0.58753 0.59854 0.0
C1529 C 0.96558 0.58861 0.56625 0.0
C1530 C 0.93785 0.60899 0.62232 0.0
C1531 C 0.9214 0.63153 0.61415 0.0
C1532 C 0.92739 0.63213 0.58154 0.0
C1533 C 0.94942 0.61151 0.55836 0.0
C1534 C 0.84493 0.67398 0.64825 0.0
C1535 C 0.8536 0.69761 0.68604 0.0
C1536 C 0.86681 0.65303 0.6252 0.0
C1537 C 0.89799 0.65405 0.63918 0.0
C1538 C 0.90653 0.6771 0.67714 0.0
C1539 C 0.8849 0.69892 0.70004 0.0
H1540 H 0.43108 0.60251 0.33395 0.0
H1541 H 0.36409 0.62567 0.41474 0.0
H1542 H 0.40415 0.63568 0.31047 0.0
H1543 H 0.33708 0.65886 0.3912 0.0
H1544 H 0.30811 0.74188 0.36034 0.0
H1545 H 0.33527 0.70941 0.38495 0.0
H1546 H 0.36065 0.63883 0.27664 0.0
H1547 H 0.33417 0.67181 0.25243 0.0
C1548 C 0.41042 0.61427 0.34669 0.0
C1549 C 0.40019 0.61076 0.37659 0.0
C1550 C 0.39472 0.63357 0.33301 0.0
C1551 C 0.36788 0.65042 0.34843 0.0
C1552 C 0.35775 0.6471 0.37848 0.0
C1553 C 0.37348 0.62779 0.39219 0.0
C1554 C 0.31943 0.71942 0.34164 0.0
C1555 C 0.31863 0.70987 0.3041 0.0
C1556 C 0.33506 0.70042 0.35585 0.0
C1557 C 0.3507 0.67097 0.3332 0.0
C1558 C 0.34969 0.66145 0.29561 0.0
C1559 C 0.33408 0.68041 0.28145 0.0
H1560 H 0.2105 0.37522 0.79919 0.0
H1561 H 0.20714 0.31764 0.85887 0.0
H1562 H 0.17146 0.41149 0.83642 0.0
H1563 H 0.1684 0.35416 0.89638 0.0
H1564 H 0.07543 0.4036 0.93371 0.0
H1565 H 0.11407 0.36666 0.89614 0.0
H1566 H 0.16396 0.45748 0.89674 0.0
H1567 H 0.12527 0.49417 0.93383 0.0
C1568 C 0.2016 0.37031 0.82034 0.0
C1569 C 0.2123 0.34332 0.82582 0.0
C1570 C 0.17919 0.39135 0.84196 0.0
C1571 C 0.16646 0.38607 0.86975 0.0
C1572 C 0.17713 0.35898 0.87512 0.0
C1573 C 0.19969 0.33808 0.85365 0.0
C1574 C 0.09463 0.41577 0.92589 0.0
C1575 C 0.09697 0.45212 0.93707 0.0
C1576 C 0.11703 0.39451 0.90438 0.0
C1577 C 0.14244 0.40878 0.89304 0.0
C1578 C 0.14467 0.44514 0.90425 0.0
C1579 C 0.12243 0.46638 0.9259 0.0
H1580 H 0.17547 0.30195 0.29106 0.0
H1581 H 0.24368 0.39217 0.31782 0.0
H1582 H 0.13889 0.34148 0.3301 0.0
H1583 H 0.20688 0.43176 0.35642 0.0
H1584 H 0.1181 0.4932 0.39659 0.0
H1585 H 0.15403 0.45415 0.35522 0.0
H1586 H 0.1347 0.38198 0.39671 0.0
H1587 H 0.09941 0.42106 0.43823 0.0
C1588 C 0.18262 0.33023 0.30491 0.0
C1589 C 0.21277 0.34358 0.30096 0.0
C1590 C 0.16162 0.35303 0.32764 0.0
C1591 C 0.16967 0.39014 0.34681 0.0
C1592 C 0.19951 0.40352 0.34209 0.0
C1593 C 0.22077 0.38067 0.31992 0.0
C1594 C 0.1215 0.46902 0.39694 0.0
C1595 C 0.10564 0.46061 0.4211 0.0
C1596 C 0.1423 0.44658 0.37322 0.0
C1597 C 0.14747 0.41452 0.37222 0.0
C1598 C 0.13131 0.40605 0.39615 0.0
C1599 C 0.11107 0.42875 0.42029 0.0
loop_
_geom_bond_atom_site_label_1
_geom_bond_atom_site_label_2
_geom_bond_distance
_geom_bond_site_symmetry_2
_ccdc_geom_bond_type
Nd0 C2 2.836 1_545 S
Nd0 O20 2.500 . S
Nd0 O21 2.492 1_545 S
Nd0 O22 2.487 1_445 S
Nd0 O23 2.682 1_445 S
Nd0 O24 2.410 1_544 S
Nd0 O29 2.414 1_554 S
Nd0 O31 2.424 1_455 S
Nd1 C11 2.836 1_565 S
Nd1 O23 2.414 1_556 S
Nd1 O25 2.424 1_655 S
Nd1 O26 2.500 . S
Nd1 O27 2.492 1_565 S
Nd1 O28 2.487 1_665 S
Nd1 O29 2.682 1_665 S
Nd1 O30 2.410 1_566 S
C2 Nd0 2.836 1_565 S
C2 C3 1.498 . S
C2 O20 1.258 1_565 S
C2 O21 1.239 . S
C3 C2 1.498 . S
C3 C4 1.366 . S
C3 C8 1.407 . S
C4 C3 1.366 . S
C4 C5 1.392 . S
C4 H32 0.930 . S
C5 C4 1.392 . S
C5 C6 1.398 . S
C5 H33 0.929 . S
C6 C5 1.398 . S
C6 C7 1.352 . S
C7 C6 1.352 . S
C7 C8 1.384 . S
C7 H34 0.930 . S
C8 C3 1.407 . S
C8 C7 1.384 . S
C8 H35 0.929 . S
C9 O22 1.241 . S
C9 O23 1.273 . S
C10 O24 1.251 . S
C10 O25 1.268 . S
C11 Nd1 2.836 1_545 S
C11 C12 1.498 . S
C11 O26 1.258 1_545 S
C11 O27 1.239 . S
C12 C11 1.498 . S
C12 C13 1.366 . S
C12 C17 1.407 . S
C13 C12 1.366 . S
C13 C14 1.392 . S
C13 H36 0.930 . S
C14 C13 1.392 . S
C14 C15 1.398 . S
C14 H37 0.929 . S
C15 C14 1.398 . S
C15 C16 1.352 . S
C16 C15 1.352 . S
C16 C17 1.384 . S
C16 H38 0.930 . S
C17 C12 1.407 . S
C17 C16 1.384 . S
C17 H39 0.929 . S
C18 O28 1.241 . S
C18 O29 1.273 . S
C19 O30 1.251 . S
C19 O31 1.268 . S
O20 Nd0 2.500 . S
O20 C2 1.258 1_545 S
O21 Nd0 2.492 1_565 S
O21 C2 1.239 . S
O22 Nd0 2.487 1_665 S
O22 C9 1.241 . S
O23 Nd0 2.682 1_665 S
O23 Nd1 2.414 1_554 S
O23 C9 1.273 . S
O24 Nd0 2.410 1_566 S
O24 C10 1.251 . S
O25 Nd1 2.424 1_455 S
O25 C10 1.268 . S
O26 Nd1 2.500 . S
O26 C11 1.258 1_565 S
O27 Nd1 2.492 1_545 S
O27 C11 1.239 . S
O28 Nd1 2.487 1_445 S
O28 C18 1.241 . S
O29 Nd0 2.414 1_556 S
O29 Nd1 2.682 1_445 S
O29 C18 1.273 . S
O30 Nd1 2.410 1_544 S
O30 C19 1.251 . S
O31 Nd0 2.424 1_655 S
O31 C19 1.268 . S
H32 C4 0.930 . S
H33 C5 0.929 . S
H34 C7 0.930 . S
H35 C8 0.929 . S
H36 C13 0.930 . S
H37 C14 0.929 . S
H38 C16 0.930 . S
H39 C17 0.929 . S
Nd40 C42 2.836 . S
Nd40 O60 2.500 . S
Nd40 O61 2.492 . S
Nd40 O62 2.487 . S
Nd40 O63 2.682 . S
Nd40 O64 2.410 . S
Nd40 O69 2.414 . S
Nd40 O71 2.424 . S
Nd41 C51 2.836 . S
Nd41 O63 2.414 . S
Nd41 O65 2.424 . S
Nd41 O66 2.500 . S
Nd41 O67 2.492 . S
Nd41 O68 2.487 . S
Nd41 O69 2.682 . S
Nd41 O70 2.410 . S
C42 Nd40 2.836 . S
C42 C43 1.498 . S
C42 O60 1.258 . S
C42 O61 1.239 . S
C43 C42 1.498 . S
C43 C44 1.366 . S
C43 C48 1.407 . S
C44 C43 1.366 . S
C44 C45 1.392 . S
C44 H72 0.930 . S
C45 C44 1.392 . S
C45 C46 1.398 . S
C45 H73 0.929 . S
C46 C45 1.398 . S
C46 C47 1.352 . S
C47 C46 1.352 . S
C47 C48 1.384 . S
C47 H74 0.930 . S
C48 C43 1.407 . S
C48 C47 1.384 . S
C48 H75 0.929 . S
C49 O62 1.241 . S
C49 O63 1.273 . S
C50 O64 1.251 . S
C50 O65 1.268 . S
C51 Nd41 2.836 . S
C51 C52 1.498 . S
C51 O66 1.258 . S
C51 O67 1.239 . S
C52 C51 1.498 . S
C52 C53 1.366 . S
C52 C57 1.407 . S
C53 C52 1.366 . S
C53 C54 1.392 . S
C53 H76 0.930 . S
C54 C53 1.392 . S
C54 C55 1.398 . S
C54 H77 0.929 . S
C55 C54 1.398 . S
C55 C56 1.352 . S
C56 C55 1.352 . S
C56 C57 1.384 . S
C56 H78 0.930 . S
C57 C52 1.407 . S
C57 C56 1.384 . S
C57 H79 0.929 . S
C58 O68 1.241 . S
C58 O69 1.273 . S
C59 O70 1.251 . S
C59 O71 1.268 . S
O60 Nd40 2.500 . S
O60 C42 1.258 . S
O61 Nd40 2.492 . S
O61 C42 1.239 . S
O62 Nd40 2.487 . S
O62 C49 1.241 . S
O63 Nd40 2.682 . S
O63 Nd41 2.414 . S
O63 C49 1.273 . S
O64 Nd40 2.410 . S
O64 C50 1.251 . S
O65 Nd41 2.424 . S
O65 C50 1.268 . S
O66 Nd41 2.500 . S
O66 C51 1.258 . S
O67 Nd41 2.492 . S
O67 C51 1.239 . S
O68 Nd41 2.487 . S
O68 C58 1.241 . S
O69 Nd40 2.414 . S
O69 Nd41 2.682 . S
O69 C58 1.273 . S
O70 Nd41 2.410 . S
O70 C59 1.251 . S
O71 Nd40 2.424 . S
O71 C59 1.268 . S
H72 C44 0.930 . S
H73 C45 0.929 . S
H74 C47 0.930 . S
H75 C48 0.929 . S
H76 C53 0.930 . S
H77 C54 0.929 . S
H78 C56 0.930 . S
H79 C57 0.929 . S
Nd80 C82 2.836 . S
Nd80 O100 2.500 . S
Nd80 O101 2.492 . S
Nd80 O102 2.487 1_545 S
Nd80 O103 2.682 1_545 S
Nd80 O104 2.410 . S
Nd80 O109 2.414 . S
Nd80 O111 2.424 1_545 S
Nd81 C91 2.836 . S
Nd81 O103 2.414 . S
Nd81 O105 2.424 1_565 S
Nd81 O106 2.500 . S
Nd81 O107 2.492 . S
Nd81 O108 2.487 1_565 S
Nd81 O109 2.682 1_565 S
Nd81 O110 2.410 . S
C82 Nd80 2.836 . S
C82 C83 1.498 . S
C82 O100 1.258 . S
C82 O101 1.239 . S
C83 C82 1.498 . S
C83 C84 1.366 . S
C83 C88 1.407 . S
C84 C83 1.366 . S
C84 C85 1.392 . S
C84 H112 0.930 . S
C85 C84 1.392 . S
C85 C86 1.398 . S
C85 H113 0.929 . S
C86 C85 1.398 . S
C86 C87 1.352 . S
C87 C86 1.352 . S
C87 C88 1.384 . S
C87 H114 0.930 . S
C88 C83 1.407 . S
C88 C87 1.384 . S
C88 H115 0.929 . S
C89 O102 1.241 . S
C89 O103 1.273 . S
C90 O104 1.251 . S
C90 O105 1.268 . S
C91 Nd81 2.836 . S
C91 C92 1.498 . S
C91 O106 1.258 . S
C91 O107 1.239 . S
C92 C91 1.498 . S
C92 C93 1.366 . S
C92 C97 1.407 . S
C93 C92 1.366 . S
C93 C94 1.392 . S
C93 H116 0.930 . S
C94 C93 1.392 . S
C94 C95 1.398 . S
C94 H117 0.929 . S
C95 C94 1.398 . S
C95 C96 1.352 . S
C96 C95 1.352 . S
C96 C97 1.384 . S
C96 H118 0.930 . S
C97 C92 1.407 . S
C97 C96 1.384 . S
C97 H119 0.929 . S
C98 O108 1.241 . S
C98 O109 1.273 . S
C99 O110 1.251 . S
C99 O111 1.268 . S
O100 Nd80 2.500 . S
O100 C82 1.258 . S
O101 Nd80 2.492 . S
O101 C82 1.239 . S
O102 Nd80 2.487 1_565 S
O102 C89 1.241 . S
O103 Nd80 2.682 1_565 S
O103 Nd81 2.414 . S
O103 C89 1.273 . S
O104 Nd80 2.410 . S
O104 C90 1.251 . S
O105 Nd81 2.424 1_545 S
O105 C90 1.268 . S
O106 Nd81 2.500 . S
O106 C91 1.258 . S
O107 Nd81 2.492 . S
O107 C91 1.239 . S
O108 Nd81 2.487 1_545 S
O108 C98 1.241 . S
O109 Nd80 2.414 . S
O109 Nd81 2.682 1_545 S
O109 C98 1.273 . S
O110 Nd81 2.410 . S
O110 C99 1.251 . S
O111 Nd80 2.424 1_565 S
O111 C99 1.268 . S
H112 C84 0.930 . S
H113 C85 0.929 . S
H114 C87 0.930 . S
H115 C88 0.929 . S
H116 C93 0.930 . S
H117 C94 0.929 . S
H118 C96 0.930 . S
H119 C97 0.929 . S
Nd120 C122 2.836 . S
Nd120 O140 2.500 . S
Nd120 O141 2.492 . S
Nd120 O142 2.487 . S
Nd120 O143 2.682 . S
Nd120 O144 2.410 . S
Nd120 O149 2.414 . S
Nd120 O151 2.424 . S
Nd121 C131 2.836 . S
Nd121 O143 2.414 . S
Nd121 O145 2.424 . S
Nd121 O146 2.500 . S
Nd121 O147 2.492 . S
Nd121 O148 2.487 . S
Nd121 O149 2.682 . S
Nd121 O150 2.410 . S
C122 Nd120 2.836 . S
C122 C123 1.498 . S
C122 O140 1.258 . S
C122 O141 1.239 . S
C123 C122 1.498 . S
C123 C124 1.366 . S
C123 C128 1.407 . S
C124 C123 1.366 . S
C124 C125 1.392 . S
C124 H152 0.930 . S
C125 C124 1.392 . S
C125 C126 1.398 . S
C125 H153 0.929 . S
C126 C125 1.398 . S
C126 C127 1.352 . S
C127 C126 1.352 . S
C127 C128 1.384 . S
C127 H154 0.930 . S
C128 C123 1.407 . S
C128 C127 1.384 . S
C128 H155 0.929 . S
C129 O142 1.241 . S
C129 O143 1.273 . S
C130 O144 1.251 . S
C130 O145 1.268 . S
C131 Nd121 2.836 . S
C131 C132 1.498 . S
C131 O146 1.258 . S
C131 O147 1.239 . S
C132 C131 1.498 . S
C132 C133 1.366 . S
C132 C137 1.407 . S
C133 C132 1.366 . S
C133 C134 1.392 . S
C133 H156 0.930 . S
C134 C133 1.392 . S
C134 C135 1.398 . S
C134 H157 0.929 . S
C135 C134 1.398 . S
C135 C136 1.352 . S
C136 C135 1.352 . S
C136 C137 1.384 . S
C136 H158 0.930 . S
C137 C132 1.407 . S
C137 C136 1.384 . S
C137 H159 0.929 . S
C138 O148 1.241 . S
C138 O149 1.273 . S
C139 O150 1.251 . S
C139 O151 1.268 . S
O140 Nd120 2.500 . S
O140 C122 1.258 . S
O141 Nd120 2.492 . S
O141 C122 1.239 . S
O142 Nd120 2.487 . S
O142 C129 1.241 . S
O143 Nd120 2.682 . S
O143 Nd121 2.414 . S
O143 C129 1.273 . S
O144 Nd120 2.410 . S
O144 C130 1.251 . S
O145 Nd121 2.424 . S
O145 C130 1.268 . S
O146 Nd121 2.500 . S
O146 C131 1.258 . S
O147 Nd121 2.492 . S
O147 C131 1.239 . S
O148 Nd121 2.487 . S
O148 C138 1.241 . S
O149 Nd120 2.414 . S
O149 Nd121 2.682 . S
O149 C138 1.273 . S
O150 Nd121 2.410 . S
O150 C139 1.251 . S
O151 Nd120 2.424 . S
O151 C139 1.268 . S
H152 C124 0.930 . S
H153 C125 0.929 . S
H154 C127 0.930 . S
H155 C128 0.929 . S
H156 C133 0.930 . S
H157 C134 0.929 . S
H158 C136 0.930 . S
H159 C137 0.929 . S
Nd160 C162 2.831 1_545 S
Nd160 O180 2.496 . S
Nd160 O181 2.486 1_545 S
Nd160 O182 2.484 1_545 S
Nd160 O183 2.682 1_545 S
Nd160 O184 2.404 1_545 S
Nd160 O189 2.416 1_655 S
Nd160 O191 2.431 . S
Nd161 C171 2.837 1_565 S
Nd161 O183 2.414 1_455 S
Nd161 O185 2.422 . S
Nd161 O186 2.501 . S
Nd161 O187 2.493 1_565 S
Nd161 O188 2.488 1_565 S
Nd161 O189 2.682 1_565 S
Nd161 O190 2.411 1_565 S
C162 Nd160 2.831 1_565 S
C162 C163 1.498 . S
C162 O180 1.258 1_565 S
C162 O181 1.239 . S
C163 C162 1.498 . S
C163 C164 1.366 . S
C163 C168 1.407 . S
C164 C163 1.366 . S
C164 C165 1.392 . S
C164 H192 0.930 . S
C165 C164 1.392 . S
C165 C166 1.398 . S
C165 H193 0.929 . S
C166 C165 1.398 . S
C166 C167 1.352 . S
C167 C166 1.352 . S
C167 C168 1.384 . S
C167 H194 0.930 . S
C168 C163 1.407 . S
C168 C167 1.384 . S
C168 H195 0.929 . S
C169 O182 1.241 . S
C169 O183 1.273 . S
C170 O184 1.251 1_455 S
C170 O185 1.268 . S
C171 Nd161 2.837 1_545 S
C171 C172 1.498 . S
C171 O186 1.258 1_545 S
C171 O187 1.239 . S
C172 C171 1.498 . S
C172 C173 1.366 . S
C172 C177 1.407 . S
C173 C172 1.366 . S
C173 C174 1.392 . S
C173 H196 0.930 . S
C174 C173 1.392 . S
C174 C175 1.398 . S
C174 H197 0.929 . S
C175 C174 1.398 . S
C175 C176 1.352 . S
C176 C175 1.352 . S
C176 C177 1.384 . S
C176 H198 0.930 . S
C177 C172 1.407 . S
C177 C176 1.384 . S
C177 H199 0.929 . S
C178 O188 1.241 . S
C178 O189 1.273 . S
C179 O190 1.251 1_655 S
C179 O191 1.268 . S
O180 Nd160 2.496 . S
O180 C162 1.258 1_545 S
O181 Nd160 2.486 1_565 S
O181 C162 1.239 . S
O182 Nd160 2.484 1_565 S
O182 C169 1.241 . S
O183 Nd160 2.682 1_565 S
O183 Nd161 2.414 1_655 S
O183 C169 1.273 . S
O184 Nd160 2.404 1_565 S
O184 C170 1.251 1_655 S
O185 Nd161 2.422 . S
O185 C170 1.268 . S
O186 Nd161 2.501 . S
O186 C171 1.258 1_565 S
O187 Nd161 2.493 1_545 S
O187 C171 1.239 . S
O188 Nd161 2.488 1_545 S
O188 C178 1.241 . S
O189 Nd160 2.416 1_455 S
O189 Nd161 2.682 1_545 S
O189 C178 1.273 . S
O190 Nd161 2.411 1_545 S
O190 C179 1.251 1_455 S
O191 Nd160 2.431 . S
O191 C179 1.268 . S
H192 C164 0.930 . S
H193 C165 0.929 . S
H194 C167 0.930 . S
H195 C168 0.929 . S
H196 C173 0.930 . S
H197 C174 0.929 . S
H198 C176 0.930 . S
H199 C177 0.929 . S
Nd200 C202 2.836 . S
Nd200 O220 2.500 . S
Nd200 O221 2.492 . S
Nd200 O222 2.487 . S
Nd200 O223 2.682 . S
Nd200 O224 2.410 . S
Nd200 O229 2.414 . S
Nd200 O231 2.424 . S
Nd201 C211 2.836 . S
Nd201 O223 2.414 . S
Nd201 O225 2.424 . S
Nd201 O226 2.500 . S
Nd201 O227 2.492 . S
Nd201 O228 2.487 . S
Nd201 O229 2.682 . S
Nd201 O230 2.410 . S
C202 Nd200 2.836 . S
C202 C203 1.498 . S
C202 O220 1.258 . S
C202 O221 1.239 . S
C203 C202 1.498 . S
C203 C204 1.366 . S
C203 C208 1.407 . S
C204 C203 1.366 . S
C204 C205 1.392 . S
C204 H232 0.930 . S
C205 C204 1.392 . S
C205 C206 1.398 . S
C205 H233 0.929 . S
C206 C205 1.398 . S
C206 C207 1.352 . S
C207 C206 1.352 . S
C207 C208 1.384 . S
C207 H234 0.930 . S
C208 C203 1.407 . S
C208 C207 1.384 . S
C208 H235 0.929 . S
C209 O222 1.241 . S
C209 O223 1.273 . S
C210 O224 1.251 . S
C210 O225 1.268 . S
C211 Nd201 2.836 . S
C211 C212 1.498 . S
C211 O226 1.258 . S
C211 O227 1.239 . S
C212 C211 1.498 . S
C212 C213 1.366 . S
C212 C217 1.407 . S
C213 C212 1.366 . S
C213 C214 1.392 . S
C213 H236 0.930 . S
C214 C213 1.392 . S
C214 C215 1.398 . S
C214 H237 0.929 . S
C215 C214 1.398 . S
C215 C216 1.352 . S
C216 C215 1.352 . S
C216 C217 1.384 . S
C216 H238 0.930 . S
C217 C212 1.407 . S
C217 C216 1.384 . S
C217 H239 0.929 . S
C218 O228 1.241 . S
C218 O229 1.273 . S
C219 O230 1.251 . S
C219 O231 1.268 . S
O220 Nd200 2.500 . S
O220 C202 1.258 . S
O221 Nd200 2.492 . S
O221 C202 1.239 . S
O222 Nd200 2.487 . S
O222 C209 1.241 . S
O223 Nd200 2.682 . S
O223 Nd201 2.414 . S
O223 C209 1.273 . S
O224 Nd200 2.410 . S
O224 C210 1.251 . S
O225 Nd201 2.424 . S
O225 C210 1.268 . S
O226 Nd201 2.500 . S
O226 C211 1.258 . S
O227 Nd201 2.492 . S
O227 C211 1.239 . S
O228 Nd201 2.487 . S
O228 C218 1.241 . S
O229 Nd200 2.414 . S
O229 Nd201 2.682 . S
O229 C218 1.273 . S
O230 Nd201 2.410 . S
O230 C219 1.251 . S
O231 Nd200 2.424 . S
O231 C219 1.268 . S
H232 C204 0.930 . S
H233 C205 0.929 . S
H234 C207 0.930 . S
H235 C208 0.929 . S
H236 C213 0.930 . S
H237 C214 0.929 . S
H238 C216 0.930 . S
H239 C217 0.929 . S
Nd240 C242 2.836 . S
Nd240 O260 2.500 . S
Nd240 O261 2.492 . S
Nd240 O262 2.487 1_556 S
Nd240 O263 2.682 1_556 S
Nd240 O264 2.410 1_545 S
Nd240 O269 2.414 1_545 S
Nd240 O271 2.424 1_556 S
Nd241 C251 2.836 . S
Nd241 O263 2.414 1_565 S
Nd241 O265 2.424 1_554 S
Nd241 O266 2.500 . S
Nd241 O267 2.492 . S
Nd241 O268 2.487 1_554 S
Nd241 O269 2.682 1_554 S
Nd241 O270 2.410 1_565 S
C242 Nd240 2.836 . S
C242 C243 1.498 . S
C242 O260 1.258 . S
C242 O261 1.239 . S
C243 C242 1.498 . S
C243 C244 1.366 . S
C243 C248 1.407 . S
C244 C243 1.366 . S
C244 C245 1.392 . S
C244 H272 0.930 1_545 S
C245 C244 1.392 . S
C245 C246 1.398 . S
C245 H273 0.927 1_545 S
C246 C245 1.398 . S
C246 C247 1.352 . S
C247 C246 1.352 . S
C247 C248 1.384 . S
C247 H274 0.930 . S
C248 C243 1.407 . S
C248 C247 1.384 . S
C248 H275 0.929 . S
C249 O262 1.241 . S
C249 O263 1.273 . S
C250 O264 1.251 . S
C250 O265 1.268 . S
C251 Nd241 2.836 . S
C251 C252 1.498 . S
C251 O266 1.258 . S
C251 O267 1.239 . S
C252 C251 1.498 . S
C252 C253 1.366 . S
C252 C257 1.407 . S
C253 C252 1.366 . S
C253 C254 1.392 . S
C253 H276 0.930 1_565 S
C254 C253 1.392 . S
C254 C255 1.398 . S
C254 H277 0.924 1_565 S
C255 C254 1.398 . S
C255 C256 1.352 . S
C256 C255 1.352 . S
C256 C257 1.384 . S
C256 H278 0.930 . S
C257 C252 1.407 . S
C257 C256 1.384 . S
C257 H279 0.929 . S
C258 O268 1.241 . S
C258 O269 1.273 . S
C259 O270 1.251 . S
C259 O271 1.268 . S
O260 Nd240 2.500 . S
O260 C242 1.258 . S
O261 Nd240 2.492 . S
O261 C242 1.239 . S
O262 Nd240 2.487 1_554 S
O262 C249 1.241 . S
O263 Nd240 2.682 1_554 S
O263 Nd241 2.414 1_545 S
O263 C249 1.273 . S
O264 Nd240 2.410 1_565 S
O264 C250 1.251 . S
O265 Nd241 2.424 1_556 S
O265 C250 1.268 . S
O266 Nd241 2.500 . S
O266 C251 1.258 . S
O267 Nd241 2.492 . S
O267 C251 1.239 . S
O268 Nd241 2.487 1_556 S
O268 C258 1.241 . S
O269 Nd240 2.414 1_565 S
O269 Nd241 2.682 1_556 S
O269 C258 1.273 . S
O270 Nd241 2.410 1_545 S
O270 C259 1.251 . S
O271 Nd240 2.424 1_554 S
O271 C259 1.268 . S
H272 C244 0.930 1_565 S
H273 C245 0.927 1_565 S
H274 C247 0.930 . S
H275 C248 0.929 . S
H276 C253 0.930 1_545 S
H277 C254 0.924 1_545 S
H278 C256 0.930 . S
H279 C257 0.929 . S
Nd280 C282 2.836 . S
Nd280 O300 2.500 . S
Nd280 O301 2.492 . S
Nd280 O302 2.487 . S
Nd280 O303 2.682 . S
Nd280 O304 2.410 . S
Nd280 O309 2.414 . S
Nd280 O311 2.424 . S
Nd281 C291 2.836 . S
Nd281 O303 2.414 . S
Nd281 O305 2.424 . S
Nd281 O306 2.500 . S
Nd281 O307 2.492 . S
Nd281 O308 2.487 . S
Nd281 O309 2.682 . S
Nd281 O310 2.410 . S
C282 Nd280 2.836 . S
C282 C283 1.498 . S
C282 O300 1.258 . S
C282 O301 1.239 . S
C283 C282 1.498 . S
C283 C284 1.366 . S
C283 C288 1.407 . S
C284 C283 1.366 . S
C284 C285 1.392 . S
C284 H312 0.930 . S
C285 C284 1.392 . S
C285 C286 1.398 . S
C285 H313 0.929 . S
C286 C285 1.398 . S
C286 C287 1.352 . S
C287 C286 1.352 . S
C287 C288 1.384 . S
C287 H314 0.930 . S
C288 C283 1.407 . S
C288 C287 1.384 . S
C288 H315 0.929 . S
C289 O302 1.241 . S
C289 O303 1.273 . S
C290 O304 1.251 . S
C290 O305 1.268 . S
C291 Nd281 2.836 . S
C291 C292 1.498 . S
C291 O306 1.258 . S
C291 O307 1.239 . S
C292 C291 1.498 . S
C292 C293 1.366 . S
C292 C297 1.407 . S
C293 C292 1.366 . S
C293 C294 1.392 . S
C293 H316 0.930 . S
C294 C293 1.392 . S
C294 C295 1.398 . S
C294 H317 0.929 . S
C295 C294 1.398 . S
C295 C296 1.352 . S
C296 C295 1.352 . S
C296 C297 1.384 . S
C296 H318 0.930 . S
C297 C292 1.407 . S
C297 C296 1.384 . S
C297 H319 0.929 . S
C298 O308 1.241 . S
C298 O309 1.273 . S
C299 O310 1.251 . S
C299 O311 1.268 . S
O300 Nd280 2.500 . S
O300 C282 1.258 . S
O301 Nd280 2.492 . S
O301 C282 1.239 . S
O302 Nd280 2.487 . S
O302 C289 1.241 . S
O303 Nd280 2.682 . S
O303 Nd281 2.414 . S
O303 C289 1.273 . S
O304 Nd280 2.410 . S
O304 C290 1.251 . S
O305 Nd281 2.424 . S
O305 C290 1.268 . S
O306 Nd281 2.500 . S
O306 C291 1.258 . S
O307 Nd281 2.492 . S
O307 C291 1.239 . S
O308 Nd281 2.487 . S
O308 C298 1.241 . S
O309 Nd280 2.414 . S
O309 Nd281 2.682 . S
O309 C298 1.273 . S
O310 Nd281 2.410 . S
O310 C299 1.251 . S
O311 Nd280 2.424 . S
O311 C299 1.268 . S
H312 C284 0.930 . S
H313 C285 0.929 . S
H314 C287 0.930 . S
H315 C288 0.929 . S
H316 C293 0.930 . S
H317 C294 0.929 . S
H318 C296 0.930 . S
H319 C297 0.929 . S
Nd320 C322 2.836 . S
Nd320 O340 2.500 . S
Nd320 O341 2.492 . S
Nd320 O342 2.487 1_554 S
Nd320 O343 2.682 1_554 S
Nd320 O344 2.410 . S
Nd320 O349 2.414 . S
Nd320 O351 2.424 . S
Nd321 C331 2.836 . S
Nd321 O343 2.414 . S
Nd321 O345 2.415 1_556 S
Nd321 O346 2.500 . S
Nd321 O347 2.492 . S
Nd321 O348 2.487 1_556 S
Nd321 O349 2.682 1_556 S
Nd321 O350 2.410 . S
C322 Nd320 2.836 . S
C322 C323 1.498 . S
C322 O340 1.258 . S
C322 O341 1.239 . S
C323 C322 1.498 . S
C323 C324 1.366 . S
C323 C328 1.407 . S
C324 C323 1.366 . S
C324 C325 1.392 . S
C324 H352 0.930 . S
C325 C324 1.392 . S
C325 C326 1.398 . S
C325 H353 0.929 . S
C326 C325 1.398 . S
C326 C327 1.352 . S
C327 C326 1.352 . S
C327 C328 1.384 . S
C327 H354 0.930 . S
C328 C323 1.407 . S
C328 C327 1.384 . S
C328 H355 0.929 . S
C329 O342 1.241 . S
C329 O343 1.273 . S
C330 O344 1.251 . S
C330 O345 1.278 . S
C331 Nd321 2.836 . S
C331 C332 1.498 . S
C331 O346 1.258 . S
C331 O347 1.239 . S
C332 C331 1.498 . S
C332 C333 1.366 . S
C332 C337 1.407 . S
C333 C332 1.366 . S
C333 C334 1.392 . S
C333 H356 0.930 . S
C334 C333 1.392 . S
C334 C335 1.398 . S
C334 H357 0.929 . S
C335 C334 1.398 . S
C335 C336 1.352 . S
C336 C335 1.352 . S
C336 C337 1.384 . S
C336 H358 0.930 . S
C337 C332 1.407 . S
C337 C336 1.384 . S
C337 H359 0.929 . S
C338 O348 1.241 . S
C338 O349 1.273 . S
C339 O350 1.251 . S
C339 O351 1.268 1_556 S
O340 Nd320 2.500 . S
O340 C322 1.258 . S
O341 Nd320 2.492 . S
O341 C322 1.239 . S
O342 Nd320 2.487 1_556 S
O342 C329 1.241 . S
O343 Nd320 2.682 1_556 S
O343 Nd321 2.414 . S
O343 C329 1.273 . S
O344 Nd320 2.410 . S
O344 C330 1.251 . S
O345 Nd321 2.415 1_554 S
O345 C330 1.278 . S
O346 Nd321 2.500 . S
O346 C331 1.258 . S
O347 Nd321 2.492 . S
O347 C331 1.239 . S
O348 Nd321 2.487 1_554 S
O348 C338 1.241 . S
O349 Nd320 2.414 . S
O349 Nd321 2.682 1_554 S
O349 C338 1.273 . S
O350 Nd321 2.410 . S
O350 C339 1.251 . S
O351 Nd320 2.424 . S
O351 C339 1.268 1_554 S
H352 C324 0.930 . S
H353 C325 0.929 . S
H354 C327 0.930 . S
H355 C328 0.929 . S
H356 C333 0.930 . S
H357 C334 0.929 . S
H358 C336 0.930 . S
H359 C337 0.929 . S
Nd360 C362 2.836 . S
Nd360 O380 2.500 . S
Nd360 O381 2.492 . S
Nd360 O382 2.487 . S
Nd360 O383 2.682 . S
Nd360 O384 2.410 . S
Nd360 O389 2.414 . S
Nd360 O391 2.424 . S
Nd361 C371 2.836 . S
Nd361 O383 2.414 . S
Nd361 O385 2.424 . S
Nd361 O386 2.500 . S
Nd361 O387 2.492 . S
Nd361 O388 2.487 . S
Nd361 O389 2.682 . S
Nd361 O390 2.410 . S
C362 Nd360 2.836 . S
C362 C363 1.498 . S
C362 O380 1.258 . S
C362 O381 1.239 . S
C363 C362 1.498 . S
C363 C364 1.366 . S
C363 C368 1.407 . S
C364 C363 1.366 . S
C364 C365 1.392 . S
C364 H392 0.930 . S
C365 C364 1.392 . S
C365 C366 1.398 . S
C365 H393 0.929 . S
C366 C365 1.398 . S
C366 C367 1.352 . S
C367 C366 1.352 . S
C367 C368 1.384 . S
C367 H394 0.930 . S
C368 C363 1.407 . S
C368 C367 1.384 . S
C368 H395 0.929 . S
C369 O382 1.241 . S
C369 O383 1.273 . S
C370 O384 1.251 . S
C370 O385 1.268 . S
C371 Nd361 2.836 . S
C371 C372 1.498 . S
C371 O386 1.258 . S
C371 O387 1.239 . S
C372 C371 1.498 . S
C372 C373 1.366 . S
C372 C377 1.407 . S
C373 C372 1.366 . S
C373 C374 1.392 . S
C373 H396 0.930 . S
C374 C373 1.392 . S
C374 C375 1.398 . S
C374 H397 0.929 . S
C375 C374 1.398 . S
C375 C376 1.352 . S
C376 C375 1.352 . S
C376 C377 1.384 . S
C376 H398 0.930 . S
C377 C372 1.407 . S
C377 C376 1.384 . S
C377 H399 0.929 . S
C378 O388 1.241 . S
C378 O389 1.273 . S
C379 O390 1.251 . S
C379 O391 1.268 . S
O380 Nd360 2.500 . S
O380 C362 1.258 . S
O381 Nd360 2.492 . S
O381 C362 1.239 . S
O382 Nd360 2.487 . S
O382 C369 1.241 . S
O383 Nd360 2.682 . S
O383 Nd361 2.414 . S
O383 C369 1.273 . S
O384 Nd360 2.410 . S
O384 C370 1.251 . S
O385 Nd361 2.424 . S
O385 C370 1.268 . S
O386 Nd361 2.500 . S
O386 C371 1.258 . S
O387 Nd361 2.492 . S
O387 C371 1.239 . S
O388 Nd361 2.487 . S
O388 C378 1.241 . S
O389 Nd360 2.414 . S
O389 Nd361 2.682 . S
O389 C378 1.273 . S
O390 Nd361 2.410 . S
O390 C379 1.251 . S
O391 Nd360 2.424 . S
O391 C379 1.268 . S
H392 C364 0.930 . S
H393 C365 0.929 . S
H394 C367 0.930 . S
H395 C368 0.929 . S
H396 C373 0.930 . S
H397 C374 0.929 . S
H398 C376 0.930 . S
H399 C377 0.929 . S
Nd400 C402 2.836 . S
Nd400 O420 2.500 . S
Nd400 O421 2.492 . S
Nd400 O422 2.487 . S
Nd400 O423 2.682 . S
Nd400 O424 2.410 . S
Nd400 O429 2.414 1_455 S
Nd400 O431 2.424 1_455 S
Nd401 C411 2.836 . S
Nd401 O423 2.414 1_655 S
Nd401 O425 2.424 1_655 S
Nd401 O426 2.500 . S
Nd401 O427 2.492 . S
Nd401 O428 2.487 . S
Nd401 O429 2.682 . S
Nd401 O430 2.410 . S
C402 Nd400 2.836 . S
C402 C403 1.498 . S
C402 O420 1.258 . S
C402 O421 1.239 . S
C403 C402 1.498 . S
C403 C404 1.366 . S
C403 C408 1.407 . S
C404 C403 1.366 . S
C404 C405 1.392 . S
C404 H432 0.930 . S
C405 C404 1.392 . S
C405 C406 1.398 . S
C405 H433 0.929 . S
C406 C405 1.398 . S
C406 C407 1.352 . S
C407 C406 1.352 . S
C407 C408 1.384 . S
C407 H434 0.930 . S
C408 C403 1.407 . S
C408 C407 1.384 . S
C408 H435 0.929 . S
C409 O422 1.241 . S
C409 O423 1.273 . S
C410 O424 1.251 . S
C410 O425 1.268 . S
C411 Nd401 2.836 . S
C411 C412 1.498 . S
C411 O426 1.258 . S
C411 O427 1.239 . S
C412 C411 1.498 . S
C412 C413 1.366 . S
C412 C417 1.407 . S
C413 C412 1.366 . S
C413 C414 1.392 . S
C413 H436 0.930 . S
C414 C413 1.392 . S
C414 C415 1.398 . S
C414 H437 0.929 . S
C415 C414 1.398 . S
C415 C416 1.352 . S
C416 C415 1.352 . S
C416 C417 1.384 . S
C416 H438 0.930 . S
C417 C412 1.407 . S
C417 C416 1.384 . S
C417 H439 0.929 . S
C418 O428 1.241 . S
C418 O429 1.273 . S
C419 O430 1.251 . S
C419 O431 1.268 . S
O420 Nd400 2.500 . S
O420 C402 1.258 . S
O421 Nd400 2.492 . S
O421 C402 1.239 . S
O422 Nd400 2.487 . S
O422 C409 1.241 . S
O423 Nd400 2.682 . S
O423 Nd401 2.414 1_455 S
O423 C409 1.273 . S
O424 Nd400 2.410 . S
O424 C410 1.251 . S
O425 Nd401 2.424 1_455 S
O425 C410 1.268 . S
O426 Nd401 2.500 . S
O426 C411 1.258 . S
O427 Nd401 2.492 . S
O427 C411 1.239 . S
O428 Nd401 2.487 . S
O428 C418 1.241 . S
O429 Nd400 2.414 1_655 S
O429 Nd401 2.682 . S
O429 C418 1.273 . S
O430 Nd401 2.410 . S
O430 C419 1.251 . S
O431 Nd400 2.424 1_655 S
O431 C419 1.268 . S
H432 C404 0.930 . S
H433 C405 0.929 . S
H434 C407 0.930 . S
H435 C408 0.929 . S
H436 C413 0.930 . S
H437 C414 0.929 . S
H438 C416 0.930 . S
H439 C417 0.929 . S
Nd440 C442 2.836 . S
Nd440 O460 2.500 . S
Nd440 O461 2.492 . S
Nd440 O462 2.487 . S
Nd440 O463 2.682 . S
Nd440 O464 2.410 . S
Nd440 O469 2.414 . S
Nd440 O471 2.424 . S
Nd441 C451 2.836 . S
Nd441 O463 2.414 . S
Nd441 O465 2.424 . S
Nd441 O466 2.500 . S
Nd441 O467 2.492 . S
Nd441 O468 2.487 . S
Nd441 O469 2.682 . S
Nd441 O470 2.410 . S
C442 Nd440 2.836 . S
C442 C443 1.498 . S
C442 O460 1.258 . S
C442 O461 1.239 . S
C443 C442 1.498 . S
C443 C444 1.366 . S
C443 C448 1.407 . S
C444 C443 1.366 . S
C444 C445 1.392 . S
C444 H472 0.930 . S
C445 C444 1.392 . S
C445 C446 1.398 . S
C445 H473 0.929 . S
C446 C445 1.398 . S
C446 C447 1.352 . S
C447 C446 1.352 . S
C447 C448 1.384 . S
C447 H474 0.930 . S
C448 C443 1.407 . S
C448 C447 1.384 . S
C448 H475 0.929 . S
C449 O462 1.241 . S
C449 O463 1.273 . S
C450 O464 1.251 . S
C450 O465 1.268 . S
C451 Nd441 2.836 . S
C451 C452 1.498 . S
C451 O466 1.258 . S
C451 O467 1.239 . S
C452 C451 1.498 . S
C452 C453 1.366 . S
C452 C457 1.407 . S
C453 C452 1.366 . S
C453 C454 1.392 . S
C453 H476 0.930 . S
C454 C453 1.392 . S
C454 C455 1.398 . S
C454 H477 0.929 . S
C455 C454 1.398 . S
C455 C456 1.352 . S
C456 C455 1.352 . S
C456 C457 1.384 . S
C456 H478 0.930 . S
C457 C452 1.407 . S
C457 C456 1.384 . S
C457 H479 0.929 . S
C458 O468 1.241 . S
C458 O469 1.273 . S
C459 O470 1.251 . S
C459 O471 1.268 . S
O460 Nd440 2.500 . S
O460 C442 1.258 . S
O461 Nd440 2.492 . S
O461 C442 1.239 . S
O462 Nd440 2.487 . S
O462 C449 1.241 . S
O463 Nd440 2.682 . S
O463 Nd441 2.414 . S
O463 C449 1.273 . S
O464 Nd440 2.410 . S
O464 C450 1.251 . S
O465 Nd441 2.424 . S
O465 C450 1.268 . S
O466 Nd441 2.500 . S
O466 C451 1.258 . S
O467 Nd441 2.492 . S
O467 C451 1.239 . S
O468 Nd441 2.487 . S
O468 C458 1.241 . S
O469 Nd440 2.414 . S
O469 Nd441 2.682 . S
O469 C458 1.273 . S
O470 Nd441 2.410 . S
O470 C459 1.251 . S
O471 Nd440 2.424 . S
O471 C459 1.268 . S
H472 C444 0.930 . S
H473 C445 0.929 . S
H474 C447 0.930 . S
H475 C448 0.929 . S
H476 C453 0.930 . S
H477 C454 0.929 . S
H478 C456 0.930 . S
H479 C457 0.929 . S
Nd480 C482 2.836 . S
Nd480 O500 2.500 . S
Nd480 O501 2.492 . S
Nd480 O502 2.487 . S
Nd480 O503 2.682 . S
Nd480 O504 2.410 . S
Nd480 O509 2.414 . S
Nd480 O511 2.424 . S
Nd481 C491 2.836 . S
Nd481 O503 2.414 . S
Nd481 O505 2.424 . S
Nd481 O506 2.500 . S
Nd481 O507 2.492 . S
Nd481 O508 2.487 . S
Nd481 O509 2.682 . S
Nd481 O510 2.410 . S
C482 Nd480 2.836 . S
C482 C483 1.498 . S
C482 O500 1.258 . S
C482 O501 1.239 . S
C483 C482 1.498 . S
C483 C484 1.366 . S
C483 C488 1.407 . S
C484 C483 1.366 . S
C484 C485 1.392 . S
C484 H512 0.930 . S
C485 C484 1.392 . S
C485 C486 1.398 . S
C485 H513 0.929 . S
C486 C485 1.398 . S
C486 C487 1.352 . S
C487 C486 1.352 . S
C487 C488 1.384 . S
C487 H514 0.930 . S
C488 C483 1.407 . S
C488 C487 1.384 . S
C488 H515 0.929 . S
C489 O502 1.241 . S
C489 O503 1.273 . S
C490 O504 1.251 . S
C490 O505 1.268 . S
C491 Nd481 2.836 . S
C491 C492 1.498 . S
C491 O506 1.258 . S
C491 O507 1.239 . S
C492 C491 1.498 . S
C492 C493 1.366 . S
C492 C497 1.407 . S
C493 C492 1.366 . S
C493 C494 1.392 . S
C493 H516 0.930 . S
C494 C493 1.392 . S
C494 C495 1.398 . S
C494 H517 0.929 . S
C495 C494 1.398 . S
C495 C496 1.352 . S
C496 C495 1.352 . S
C496 C497 1.384 . S
C496 H518 0.930 . S
C497 C492 1.407 . S
C497 C496 1.384 . S
C497 H519 0.929 . S
C498 O508 1.241 . S
C498 O509 1.273 . S
C499 O510 1.251 . S
C499 O511 1.268 . S
O500 Nd480 2.500 . S
O500 C482 1.258 . S
O501 Nd480 2.492 . S
O501 C482 1.239 . S
O502 Nd480 2.487 . S
O502 C489 1.241 . S
O503 Nd480 2.682 . S
O503 Nd481 2.414 . S
O503 C489 1.273 . S
O504 Nd480 2.410 . S
O504 C490 1.251 . S
O505 Nd481 2.424 . S
O505 C490 1.268 . S
O506 Nd481 2.500 . S
O506 C491 1.258 . S
O507 Nd481 2.492 . S
O507 C491 1.239 . S
O508 Nd481 2.487 . S
O508 C498 1.241 . S
O509 Nd480 2.414 . S
O509 Nd481 2.682 . S
O509 C498 1.273 . S
O510 Nd481 2.410 . S
O510 C499 1.251 . S
O511 Nd480 2.424 . S
O511 C499 1.268 . S
H512 C484 0.930 . S
H513 C485 0.929 . S
H514 C487 0.930 . S
H515 C488 0.929 . S
H516 C493 0.930 . S
H517 C494 0.929 . S
H518 C496 0.930 . S
H519 C497 0.929 . S
Nd520 C522 2.836 . S
Nd520 O540 2.500 . S
Nd520 O541 2.492 . S
Nd520 O542 2.487 . S
Nd520 O543 2.682 . S
Nd520 O544 2.410 . S
Nd520 O549 2.414 . S
Nd520 O551 2.424 . S
Nd521 C531 2.836 . S
Nd521 O543 2.414 . S
Nd521 O545 2.424 . S
Nd521 O546 2.500 . S
Nd521 O547 2.492 . S
Nd521 O548 2.487 . S
Nd521 O549 2.682 . S
Nd521 O550 2.410 . S
C522 Nd520 2.836 . S
C522 C523 1.498 . S
C522 O540 1.258 . S
C522 O541 1.239 . S
C523 C522 1.498 . S
C523 C524 1.366 . S
C523 C528 1.407 . S
C524 C523 1.366 . S
C524 C525 1.392 . S
C524 H552 0.930 . S
C525 C524 1.392 . S
C525 C526 1.398 . S
C525 H553 0.929 . S
C526 C525 1.398 . S
C526 C527 1.352 . S
C527 C526 1.352 . S
C527 C528 1.384 . S
C527 H554 0.930 . S
C528 C523 1.407 . S
C528 C527 1.384 . S
C528 H555 0.929 . S
C529 O542 1.241 . S
C529 O543 1.273 . S
C530 O544 1.251 . S
C530 O545 1.268 . S
C531 Nd521 2.836 . S
C531 C532 1.498 . S
C531 O546 1.258 . S
C531 O547 1.239 . S
C532 C531 1.498 . S
C532 C533 1.366 . S
C532 C537 1.407 . S
C533 C532 1.366 . S
C533 C534 1.392 . S
C533 H556 0.930 . S
C534 C533 1.392 . S
C534 C535 1.398 . S
C534 H557 0.929 . S
C535 C534 1.398 . S
C535 C536 1.352 . S
C536 C535 1.352 . S
C536 C537 1.384 . S
C536 H558 0.930 . S
C537 C532 1.407 . S
C537 C536 1.384 . S
C537 H559 0.929 . S
C538 O548 1.241 . S
C538 O549 1.273 . S
C539 O550 1.251 . S
C539 O551 1.268 . S
O540 Nd520 2.500 . S
O540 C522 1.258 . S
O541 Nd520 2.492 . S
O541 C522 1.239 . S
O542 Nd520 2.487 . S
O542 C529 1.241 . S
O543 Nd520 2.682 . S
O543 Nd521 2.414 . S
O543 C529 1.273 . S
O544 Nd520 2.410 . S
O544 C530 1.251 . S
O545 Nd521 2.424 . S
O545 C530 1.268 . S
O546 Nd521 2.500 . S
O546 C531 1.258 . S
O547 Nd521 2.492 . S
O547 C531 1.239 . S
O548 Nd521 2.487 . S
O548 C538 1.241 . S
O549 Nd520 2.414 . S
O549 Nd521 2.682 . S
O549 C538 1.273 . S
O550 Nd521 2.410 . S
O550 C539 1.251 . S
O551 Nd520 2.424 . S
O551 C539 1.268 . S
H552 C524 0.930 . S
H553 C525 0.929 . S
H554 C527 0.930 . S
H555 C528 0.929 . S
H556 C533 0.930 . S
H557 C534 0.929 . S
H558 C536 0.930 . S
H559 C537 0.929 . S
Nd560 C562 2.836 . S
Nd560 O580 2.500 . S
Nd560 O581 2.492 . S
Nd560 O582 2.487 . S
Nd560 O583 2.682 . S
Nd560 O584 2.410 . S
Nd560 O589 2.414 . S
Nd560 O591 2.424 . S
Nd561 C571 2.836 . S
Nd561 O583 2.414 . S
Nd561 O585 2.424 . S
Nd561 O586 2.500 . S
Nd561 O587 2.492 . S
Nd561 O588 2.487 . S
Nd561 O589 2.682 . S
Nd561 O590 2.410 . S
C562 Nd560 2.836 . S
C562 C563 1.498 . S
C562 O580 1.258 . S
C562 O581 1.239 . S
C563 C562 1.498 . S
C563 C564 1.366 . S
C563 C568 1.407 . S
C564 C563 1.366 . S
C564 C565 1.392 . S
C564 H592 0.930 . S
C565 C564 1.392 . S
C565 C566 1.398 . S
C565 H593 0.929 . S
C566 C565 1.398 . S
C566 C567 1.352 . S
C567 C566 1.352 . S
C567 C568 1.384 . S
C567 H594 0.930 . S
C568 C563 1.407 . S
C568 C567 1.384 . S
C568 H595 0.929 . S
C569 O582 1.241 . S
C569 O583 1.273 . S
C570 O584 1.251 . S
C570 O585 1.268 . S
C571 Nd561 2.836 . S
C571 C572 1.498 . S
C571 O586 1.258 . S
C571 O587 1.239 . S
C572 C571 1.498 . S
C572 C573 1.366 . S
C572 C577 1.407 . S
C573 C572 1.366 . S
C573 C574 1.392 . S
C573 H596 0.930 . S
C574 C573 1.392 . S
C574 C575 1.398 . S
C574 H597 0.929 . S
C575 C574 1.398 . S
C575 C576 1.352 . S
C576 C575 1.352 . S
C576 C577 1.384 . S
C576 H598 0.930 . S
C577 C572 1.407 . S
C577 C576 1.384 . S
C577 H599 0.929 . S
C578 O588 1.241 . S
C578 O589 1.273 . S
C579 O590 1.251 . S
C579 O591 1.268 . S
O580 Nd560 2.500 . S
O580 C562 1.258 . S
O581 Nd560 2.492 . S
O581 C562 1.239 . S
O582 Nd560 2.487 . S
O582 C569 1.241 . S
O583 Nd560 2.682 . S
O583 Nd561 2.414 . S
O583 C569 1.273 . S
O584 Nd560 2.410 . S
O584 C570 1.251 . S
O585 Nd561 2.424 . S
O585 C570 1.268 . S
O586 Nd561 2.500 . S
O586 C571 1.258 . S
O587 Nd561 2.492 . S
O587 C571 1.239 . S
O588 Nd561 2.487 . S
O588 C578 1.241 . S
O589 Nd560 2.414 . S
O589 Nd561 2.682 . S
O589 C578 1.273 . S
O590 Nd561 2.410 . S
O590 C579 1.251 . S
O591 Nd560 2.424 . S
O591 C579 1.268 . S
H592 C564 0.930 . S
H593 C565 0.929 . S
H594 C567 0.930 . S
H595 C568 0.929 . S
H596 C573 0.930 . S
H597 C574 0.929 . S
H598 C576 0.930 . S
H599 C577 0.929 . S
Nd600 C602 2.836 . S
Nd600 O620 2.500 . S
Nd600 O621 2.492 . S
Nd600 O622 2.487 . S
Nd600 O623 2.682 . S
Nd600 O624 2.410 1_556 S
Nd600 O629 2.414 1_656 S
Nd600 O631 2.424 1_655 S
Nd601 C611 2.836 . S
Nd601 O623 2.414 1_454 S
Nd601 O625 2.424 1_455 S
Nd601 O626 2.500 . S
Nd601 O627 2.492 . S
Nd601 O628 2.487 . S
Nd601 O629 2.682 . S
Nd601 O630 2.410 1_554 S
C602 Nd600 2.836 . S
C602 C603 1.498 . S
C602 O620 1.258 . S
C602 O621 1.239 . S
C603 C602 1.498 . S
C603 C604 1.366 . S
C603 C608 1.407 . S
C604 C603 1.366 . S
C604 C605 1.392 . S
C604 H632 0.930 1_556 S
C605 C604 1.392 . S
C605 C606 1.398 . S
C605 H633 0.929 . S
C606 C605 1.398 . S
C606 C607 1.352 . S
C607 C606 1.352 . S
C607 C608 1.384 . S
C607 H634 0.930 . S
C608 C603 1.407 . S
C608 C607 1.384 . S
C608 H635 0.929 . S
C609 O622 1.241 . S
C609 O623 1.273 . S
C610 O624 1.251 . S
C610 O625 1.268 . S
C611 Nd601 2.836 . S
C611 C612 1.498 . S
C611 O626 1.258 . S
C611 O627 1.239 . S
C612 C611 1.498 . S
C612 C613 1.366 . S
C612 C617 1.407 . S
C613 C612 1.366 . S
C613 C614 1.392 . S
C613 H636 0.930 1_554 S
C614 C613 1.392 . S
C614 C615 1.398 . S
C614 H637 0.929 . S
C615 C614 1.398 . S
C615 C616 1.352 . S
C616 C615 1.352 . S
C616 C617 1.384 . S
C616 H638 0.930 . S
C617 C612 1.407 . S
C617 C616 1.384 . S
C617 H639 0.929 . S
C618 O628 1.241 . S
C618 O629 1.273 . S
C619 O630 1.251 . S
C619 O631 1.268 . S
O620 Nd600 2.500 . S
O620 C602 1.258 . S
O621 Nd600 2.492 . S
O621 C602 1.239 . S
O622 Nd600 2.487 . S
O622 C609 1.241 . S
O623 Nd600 2.682 . S
O623 Nd601 2.414 1_656 S
O623 C609 1.273 . S
O624 Nd600 2.410 1_554 S
O624 C610 1.251 . S
O625 Nd601 2.424 1_655 S
O625 C610 1.268 . S
O626 Nd601 2.500 . S
O626 C611 1.258 . S
O627 Nd601 2.492 . S
O627 C611 1.239 . S
O628 Nd601 2.487 . S
O628 C618 1.241 . S
O629 Nd600 2.414 1_454 S
O629 Nd601 2.682 . S
O629 C618 1.273 . S
O630 Nd601 2.410 1_556 S
O630 C619 1.251 . S
O631 Nd600 2.424 1_455 S
O631 C619 1.268 . S
H632 C604 0.930 1_554 S
H633 C605 0.929 . S
H634 C607 0.930 . S
H635 C608 0.929 . S
H636 C613 0.930 1_556 S
H637 C614 0.929 . S
H638 C616 0.930 . S
H639 C617 0.929 . S
H640 C648 0.950 . S
H641 C653 0.950 . S
H642 C650 0.950 . S
H643 C652 0.950 . S
H644 C654 0.950 1_554 S
H645 C656 0.950 . S
H646 C658 0.950 . S
H647 C659 0.950 . S
C648 H640 0.950 . S
C648 C649 1.386 . S
C648 C650 1.391 . S
C649 C648 1.386 . S
C649 C653 1.393 . S
C650 H642 0.950 . S
C650 C648 1.391 . S
C650 C651 1.400 . S
C651 C650 1.400 . S
C651 C652 1.398 . S
C651 C657 1.491 . S
C652 H643 0.950 . S
C652 C651 1.398 . S
C652 C653 1.391 . S
C653 H641 0.950 . S
C653 C649 1.393 . S
C653 C652 1.391 . S
C654 H644 0.950 1_556 S
C654 C655 1.386 . S
C654 C656 1.391 . S
C655 C654 1.386 . S
C655 C659 1.393 . S
C656 H645 0.950 . S
C656 C654 1.391 . S
C656 C657 1.400 . S
C657 C651 1.491 . S
C657 C656 1.400 . S
C657 C658 1.398 . S
C658 H646 0.950 . S
C658 C657 1.398 . S
C658 C659 1.391 . S
C659 H647 0.950 . S
C659 C655 1.393 . S
C659 C658 1.391 . S
H660 C668 0.950 . S
H661 C673 0.950 . S
H662 C670 0.950 . S
H663 C672 0.950 . S
H664 C674 0.950 . S
H665 C676 0.950 . S
H666 C678 0.950 . S
H667 C679 0.950 . S
C668 H660 0.950 . S
C668 C669 1.386 . S
C668 C670 1.391 . S
C669 C668 1.386 . S
C669 C673 1.393 . S
C670 H662 0.950 . S
C670 C668 1.391 . S
C670 C671 1.400 . S
C671 C670 1.400 . S
C671 C672 1.398 . S
C671 C677 1.491 . S
C672 H663 0.950 . S
C672 C671 1.398 . S
C672 C673 1.391 . S
C673 H661 0.950 . S
C673 C669 1.393 . S
C673 C672 1.391 . S
C674 H664 0.950 . S
C674 C675 1.386 . S
C674 C676 1.391 . S
C675 C674 1.386 . S
C675 C679 1.393 . S
C676 H665 0.950 . S
C676 C674 1.391 . S
C676 C677 1.400 . S
C677 C671 1.491 . S
C677 C676 1.400 . S
C677 C678 1.398 . S
C678 H666 0.950 . S
C678 C677 1.398 . S
C678 C679 1.391 . S
C679 H667 0.950 . S
C679 C675 1.393 . S
C679 C678 1.391 . S
H680 C688 0.950 . S
H681 C693 0.950 . S
H682 C690 0.950 . S
H683 C692 0.950 . S
H684 C694 0.950 . S
H685 C696 0.950 . S
H686 C698 0.950 . S
H687 C699 0.950 . S
C688 H680 0.950 . S
C688 C689 1.386 . S
C688 C690 1.391 . S
C689 C688 1.386 . S
C689 C693 1.393 . S
C690 H682 0.950 . S
C690 C688 1.391 . S
C690 C691 1.400 . S
C691 C690 1.400 . S
C691 C692 1.398 . S
C691 C697 1.491 . S
C692 H683 0.950 . S
C692 C691 1.398 . S
C692 C693 1.391 . S
C693 H681 0.950 . S
C693 C689 1.393 . S
C693 C692 1.391 . S
C694 H684 0.950 . S
C694 C695 1.386 . S
C694 C696 1.391 . S
C695 C694 1.386 . S
C695 C699 1.393 . S
C696 H685 0.950 . S
C696 C694 1.391 . S
C696 C697 1.400 . S
C697 C691 1.491 . S
C697 C696 1.400 . S
C697 C698 1.398 . S
C698 H686 0.950 . S
C698 C697 1.398 . S
C698 C699 1.391 . S
C699 H687 0.950 . S
C699 C695 1.393 . S
C699 C698 1.391 . S
H700 C708 0.950 . S
H701 C713 0.950 . S
H702 C710 0.950 . S
H703 C712 0.950 . S
H704 C714 0.950 . S
H705 C716 0.950 . S
H706 C718 0.950 . S
H707 C719 0.950 . S
C708 H700 0.950 . S
C708 C709 1.386 . S
C708 C710 1.391 . S
C709 C708 1.386 . S
C709 C713 1.393 . S
C710 H702 0.950 . S
C710 C708 1.391 . S
C710 C711 1.400 . S
C711 C710 1.400 . S
C711 C712 1.398 . S
C711 C717 1.491 . S
C712 H703 0.950 . S
C712 C711 1.398 . S
C712 C713 1.391 . S
C713 H701 0.950 . S
C713 C709 1.393 . S
C713 C712 1.391 . S
C714 H704 0.950 . S
C714 C715 1.386 . S
C714 C716 1.391 . S
C715 C714 1.386 . S
C715 C719 1.393 . S
C716 H705 0.950 . S
C716 C714 1.391 . S
C716 C717 1.400 . S
C717 C711 1.491 . S
C717 C716 1.400 . S
C717 C718 1.398 . S
C718 H706 0.950 . S
C718 C717 1.398 . S
C718 C719 1.391 . S
C719 H707 0.950 . S
C719 C715 1.393 . S
C719 C718 1.391 . S
H720 C728 0.950 . S
H721 C733 0.950 . S
H722 C730 0.950 . S
H723 C732 0.950 . S
H724 C734 0.950 . S
H725 C736 0.950 . S
H726 C738 0.950 . S
H727 C739 0.950 . S
C728 H720 0.950 . S
C728 C729 1.386 . S
C728 C730 1.391 . S
C729 C728 1.386 . S
C729 C733 1.393 . S
C730 H722 0.950 . S
C730 C728 1.391 . S
C730 C731 1.400 . S
C731 C730 1.400 . S
C731 C732 1.398 . S
C731 C737 1.491 . S
C732 H723 0.950 . S
C732 C731 1.398 . S
C732 C733 1.391 . S
C733 H721 0.950 . S
C733 C729 1.393 . S
C733 C732 1.391 . S
C734 H724 0.950 . S
C734 C735 1.386 . S
C734 C736 1.391 . S
C735 C734 1.386 . S
C735 C739 1.393 . S
C736 H725 0.950 . S
C736 C734 1.391 . S
C736 C737 1.400 . S
C737 C731 1.491 . S
C737 C736 1.400 . S
C737 C738 1.398 . S
C738 H726 0.950 . S
C738 C737 1.398 . S
C738 C739 1.391 . S
C739 H727 0.950 . S
C739 C735 1.393 . S
C739 C738 1.391 . S
H740 C748 0.950 . S
H741 C753 0.950 . S
H742 C750 0.950 . S
H743 C752 0.950 . S
H744 C754 0.950 . S
H745 C756 0.950 . S
H746 C758 0.950 . S
H747 C759 0.950 . S
C748 H740 0.950 . S
C748 C749 1.386 . S
C748 C750 1.391 . S
C749 C748 1.386 . S
C749 C753 1.393 . S
C750 H742 0.950 . S
C750 C748 1.391 . S
C750 C751 1.400 . S
C751 C750 1.400 . S
C751 C752 1.398 . S
C751 C757 1.491 . S
C752 H743 0.950 . S
C752 C751 1.398 . S
C752 C753 1.391 . S
C753 H741 0.950 . S
C753 C749 1.393 . S
C753 C752 1.391 . S
C754 H744 0.950 . S
C754 C755 1.386 . S
C754 C756 1.391 . S
C755 C754 1.386 . S
C755 C759 1.393 . S
C756 H745 0.950 . S
C756 C754 1.391 . S
C756 C757 1.400 . S
C757 C751 1.491 . S
C757 C756 1.400 . S
C757 C758 1.398 . S
C758 H746 0.950 . S
C758 C757 1.398 . S
C758 C759 1.391 . S
C759 H747 0.950 . S
C759 C755 1.393 . S
C759 C758 1.391 . S
H760 C768 0.950 . S
H761 C773 0.950 . S
H762 C770 0.950 . S
H763 C772 0.950 . S
H764 C774 0.950 . S
H765 C776 0.950 . S
H766 C778 0.950 . S
H767 C779 0.950 . S
C768 H760 0.950 . S
C768 C769 1.386 . S
C768 C770 1.391 . S
C769 C768 1.386 . S
C769 C773 1.393 . S
C770 H762 0.950 . S
C770 C768 1.391 . S
C770 C771 1.400 . S
C771 C770 1.400 . S
C771 C772 1.398 . S
C771 C777 1.491 . S
C772 H763 0.950 . S
C772 C771 1.398 . S
C772 C773 1.391 . S
C773 H761 0.950 . S
C773 C769 1.393 . S
C773 C772 1.391 . S
C774 H764 0.950 . S
C774 C775 1.386 . S
C774 C776 1.391 . S
C775 C774 1.386 . S
C775 C779 1.393 . S
C776 H765 0.950 . S
C776 C774 1.391 . S
C776 C777 1.400 . S
C777 C771 1.491 . S
C777 C776 1.400 . S
C777 C778 1.398 . S
C778 H766 0.950 . S
C778 C777 1.398 . S
C778 C779 1.391 . S
C779 H767 0.950 . S
C779 C775 1.393 . S
C779 C778 1.391 . S
H780 C788 0.950 . S
H781 C793 0.950 . S
H782 C790 0.950 . S
H783 C792 0.950 . S
H784 C794 0.950 . S
H785 C796 0.950 . S
H786 C798 0.950 . S
H787 C799 0.950 . S
C788 H780 0.950 . S
C788 C789 1.386 . S
C788 C790 1.391 . S
C789 C788 1.386 . S
C789 C793 1.393 . S
C790 H782 0.950 . S
C790 C788 1.391 . S
C790 C791 1.400 . S
C791 C790 1.400 . S
C791 C792 1.398 . S
C791 C797 1.491 . S
C792 H783 0.950 . S
C792 C791 1.398 . S
C792 C793 1.391 . S
C793 H781 0.950 . S
C793 C789 1.393 . S
C793 C792 1.391 . S
C794 H784 0.950 . S
C794 C795 1.386 . S
C794 C796 1.391 . S
C795 C794 1.386 . S
C795 C799 1.393 . S
C796 H785 0.950 . S
C796 C794 1.391 . S
C796 C797 1.400 . S
C797 C791 1.491 . S
C797 C796 1.400 . S
C797 C798 1.398 . S
C798 H786 0.950 . S
C798 C797 1.398 . S
C798 C799 1.391 . S
C799 H787 0.950 . S
C799 C795 1.393 . S
C799 C798 1.391 . S
H800 C808 0.950 . S
H801 C813 0.950 . S
H802 C810 0.950 . S
H803 C812 0.950 . S
H804 C814 0.950 . S
H805 C816 0.950 . S
H806 C818 0.950 . S
H807 C819 0.950 . S
C808 H800 0.950 . S
C808 C809 1.386 . S
C808 C810 1.391 . S
C809 C808 1.386 . S
C809 C813 1.393 . S
C810 H802 0.950 . S
C810 C808 1.391 . S
C810 C811 1.400 . S
C811 C810 1.400 . S
C811 C812 1.398 . S
C811 C817 1.491 . S
C812 H803 0.950 . S
C812 C811 1.398 . S
C812 C813 1.391 . S
C813 H801 0.950 . S
C813 C809 1.393 . S
C813 C812 1.391 . S
C814 H804 0.950 . S
C814 C815 1.386 . S
C814 C816 1.391 . S
C815 C814 1.386 . S
C815 C819 1.393 . S
C816 H805 0.950 . S
C816 C814 1.391 . S
C816 C817 1.400 . S
C817 C811 1.491 . S
C817 C816 1.400 . S
C817 C818 1.398 . S
C818 H806 0.950 . S
C818 C817 1.398 . S
C818 C819 1.391 . S
C819 H807 0.950 . S
C819 C815 1.393 . S
C819 C818 1.391 . S
H820 C828 0.950 . S
H821 C833 0.950 . S
H822 C830 0.950 . S
H823 C832 0.950 . S
H824 C834 0.950 . S
H825 C836 0.950 . S
H826 C838 0.950 . S
H827 C839 0.950 . S
C828 H820 0.950 . S
C828 C829 1.386 . S
C828 C830 1.391 . S
C829 C828 1.386 . S
C829 C833 1.393 . S
C830 H822 0.950 . S
C830 C828 1.391 . S
C830 C831 1.400 . S
C831 C830 1.400 . S
C831 C832 1.398 . S
C831 C837 1.491 . S
C832 H823 0.950 . S
C832 C831 1.398 . S
C832 C833 1.391 . S
C833 H821 0.950 . S
C833 C829 1.393 . S
C833 C832 1.391 . S
C834 H824 0.950 . S
C834 C835 1.386 . S
C834 C836 1.391 . S
C835 C834 1.386 . S
C835 C839 1.393 . S
C836 H825 0.950 . S
C836 C834 1.391 . S
C836 C837 1.400 . S
C837 C831 1.491 . S
C837 C836 1.400 . S
C837 C838 1.398 . S
C838 H826 0.950 . S
C838 C837 1.398 . S
C838 C839 1.391 . S
C839 H827 0.950 . S
C839 C835 1.393 . S
C839 C838 1.391 . S
H840 C848 0.950 . S
H841 C853 0.950 . S
H842 C850 0.950 . S
H843 C852 0.950 . S
H844 C854 0.950 . S
H845 C856 0.950 . S
H846 C858 0.950 . S
H847 C859 0.950 . S
C848 H840 0.950 . S
C848 C849 1.386 . S
C848 C850 1.391 . S
C849 C848 1.386 . S
C849 C853 1.393 . S
C850 H842 0.950 . S
C850 C848 1.391 . S
C850 C851 1.400 . S
C851 C850 1.400 . S
C851 C852 1.398 . S
C851 C857 1.491 . S
C852 H843 0.950 . S
C852 C851 1.398 . S
C852 C853 1.391 . S
C853 H841 0.950 . S
C853 C849 1.393 . S
C853 C852 1.391 . S
C854 H844 0.950 . S
C854 C855 1.386 . S
C854 C856 1.391 . S
C855 C854 1.386 . S
C855 C859 1.393 . S
C856 H845 0.950 . S
C856 C854 1.391 . S
C856 C857 1.400 . S
C857 C851 1.491 . S
C857 C856 1.400 . S
C857 C858 1.398 . S
C858 H846 0.950 . S
C858 C857 1.398 . S
C858 C859 1.391 . S
C859 H847 0.950 . S
C859 C855 1.393 . S
C859 C858 1.391 . S
H860 C868 0.950 . S
H861 C873 0.950 . S
H862 C870 0.950 . S
H863 C872 0.950 . S
H864 C874 0.950 . S
H865 C876 0.950 . S
H866 C878 0.950 . S
H867 C879 0.950 . S
C868 H860 0.950 . S
C868 C869 1.386 . S
C868 C870 1.391 . S
C869 C868 1.386 . S
C869 C873 1.393 . S
C870 H862 0.950 . S
C870 C868 1.391 . S
C870 C871 1.400 . S
C871 C870 1.400 . S
C871 C872 1.398 . S
C871 C877 1.491 . S
C872 H863 0.950 . S
C872 C871 1.398 . S
C872 C873 1.391 . S
C873 H861 0.950 . S
C873 C869 1.393 . S
C873 C872 1.391 . S
C874 H864 0.950 . S
C874 C875 1.386 . S
C874 C876 1.391 . S
C875 C874 1.386 . S
C875 C879 1.393 . S
C876 H865 0.950 . S
C876 C874 1.391 . S
C876 C877 1.400 . S
C877 C871 1.491 . S
C877 C876 1.400 . S
C877 C878 1.398 . S
C878 H866 0.950 . S
C878 C877 1.398 . S
C878 C879 1.391 . S
C879 H867 0.950 . S
C879 C875 1.393 . S
C879 C878 1.391 . S
H880 C888 0.950 . S
H881 C893 0.950 . S
H882 C890 0.950 . S
H883 C892 0.950 . S
H884 C894 0.950 . S
H885 C896 0.950 . S
H886 C898 0.950 . S
H887 C899 0.950 . S
C888 H880 0.950 . S
C888 C889 1.386 . S
C888 C890 1.391 . S
C889 C888 1.386 . S
C889 C893 1.393 . S
C890 H882 0.950 . S
C890 C888 1.391 . S
C890 C891 1.400 . S
C891 C890 1.400 . S
C891 C892 1.398 . S
C891 C897 1.491 . S
C892 H883 0.950 . S
C892 C891 1.398 . S
C892 C893 1.391 . S
C893 H881 0.950 . S
C893 C889 1.393 . S
C893 C892 1.391 . S
C894 H884 0.950 . S
C894 C895 1.386 . S
C894 C896 1.391 . S
C895 C894 1.386 . S
C895 C899 1.393 . S
C896 H885 0.950 . S
C896 C894 1.391 . S
C896 C897 1.400 . S
C897 C891 1.491 . S
C897 C896 1.400 . S
C897 C898 1.398 . S
C898 H886 0.950 . S
C898 C897 1.398 . S
C898 C899 1.391 . S
C899 H887 0.950 . S
C899 C895 1.393 . S
C899 C898 1.391 . S
H900 C908 0.950 . S
H901 C913 0.950 . S
H902 C910 0.950 . S
H903 C912 0.950 . S
H904 C914 0.950 . S
H905 C916 0.950 . S
H906 C918 0.950 . S
H907 C919 0.950 . S
C908 H900 0.950 . S
C908 C909 1.386 . S
C908 C910 1.391 . S
C909 C908 1.386 . S
C909 C913 1.393 . S
C910 H902 0.950 . S
C910 C908 1.391 . S
C910 C911 1.400 . S
C911 C910 1.400 . S
C911 C912 1.398 . S
C911 C917 1.491 . S
C912 H903 0.950 . S
C912 C911 1.398 . S
C912 C913 1.391 . S
C913 H901 0.950 . S
C913 C909 1.393 . S
C913 C912 1.391 . S
C914 H904 0.950 . S
C914 C915 1.386 . S
C914 C916 1.391 . S
C915 C914 1.386 . S
C915 C919 1.393 . S
C916 H905 0.950 . S
C916 C914 1.391 . S
C916 C917 1.400 . S
C917 C911 1.491 . S
C917 C916 1.400 . S
C917 C918 1.398 . S
C918 H906 0.950 . S
C918 C917 1.398 . S
C918 C919 1.391 . S
C919 H907 0.950 . S
C919 C915 1.393 . S
C919 C918 1.391 . S
H920 C928 0.950 . S
H921 C933 0.950 . S
H922 C930 0.950 . S
H923 C932 0.950 . S
H924 C934 0.950 . S
H925 C936 0.950 . S
H926 C938 0.950 . S
H927 C939 0.950 . S
C928 H920 0.950 . S
C928 C929 1.386 . S
C928 C930 1.391 . S
C929 C928 1.386 . S
C929 C933 1.393 . S
C930 H922 0.950 . S
C930 C928 1.391 . S
C930 C931 1.400 . S
C931 C930 1.400 . S
C931 C932 1.398 . S
C931 C937 1.491 . S
C932 H923 0.950 . S
C932 C931 1.398 . S
C932 C933 1.391 . S
C933 H921 0.950 . S
C933 C929 1.393 . S
C933 C932 1.391 . S
C934 H924 0.950 . S
C934 C935 1.386 . S
C934 C936 1.391 . S
C935 C934 1.386 . S
C935 C939 1.393 . S
C936 H925 0.950 . S
C936 C934 1.391 . S
C936 C937 1.400 . S
C937 C931 1.491 . S
C937 C936 1.400 . S
C937 C938 1.398 . S
C938 H926 0.950 . S
C938 C937 1.398 . S
C938 C939 1.391 . S
C939 H927 0.950 . S
C939 C935 1.393 . S
C939 C938 1.391 . S
H940 C948 0.950 . S
H941 C953 0.950 . S
H942 C950 0.950 . S
H943 C952 0.950 . S
H944 C954 0.950 . S
H945 C956 0.950 . S
H946 C958 0.950 . S
H947 C959 0.950 . S
C948 H940 0.950 . S
C948 C949 1.386 . S
C948 C950 1.391 . S
C949 C948 1.386 . S
C949 C953 1.393 . S
C950 H942 0.950 . S
C950 C948 1.391 . S
C950 C951 1.400 . S
C951 C950 1.400 . S
C951 C952 1.398 . S
C951 C957 1.491 . S
C952 H943 0.950 . S
C952 C951 1.398 . S
C952 C953 1.391 . S
C953 H941 0.950 . S
C953 C949 1.393 . S
C953 C952 1.391 . S
C954 H944 0.950 . S
C954 C955 1.386 . S
C954 C956 1.391 . S
C955 C954 1.386 . S
C955 C959 1.393 . S
C956 H945 0.950 . S
C956 C954 1.391 . S
C956 C957 1.400 . S
C957 C951 1.491 . S
C957 C956 1.400 . S
C957 C958 1.398 . S
C958 H946 0.950 . S
C958 C957 1.398 . S
C958 C959 1.391 . S
C959 H947 0.950 . S
C959 C955 1.393 . S
C959 C958 1.391 . S
H960 C968 0.950 . S
H961 C973 0.950 . S
H962 C970 0.950 . S
H963 C972 0.950 . S
H964 C974 0.950 . S
H965 C976 0.950 . S
H966 C978 0.950 . S
H967 C979 0.950 . S
C968 H960 0.950 . S
C968 C969 1.386 . S
C968 C970 1.391 . S
C969 C968 1.386 . S
C969 C973 1.393 . S
C970 H962 0.950 . S
C970 C968 1.391 . S
C970 C971 1.400 . S
C971 C970 1.400 . S
C971 C972 1.398 . S
C971 C977 1.491 . S
C972 H963 0.950 . S
C972 C971 1.398 . S
C972 C973 1.391 . S
C973 H961 0.950 . S
C973 C969 1.393 . S
C973 C972 1.391 . S
C974 H964 0.950 . S
C974 C975 1.386 . S
C974 C976 1.391 . S
C975 C974 1.386 . S
C975 C979 1.393 . S
C976 H965 0.950 . S
C976 C974 1.391 . S
C976 C977 1.400 . S
C977 C971 1.491 . S
C977 C976 1.400 . S
C977 C978 1.398 . S
C978 H966 0.950 . S
C978 C977 1.398 . S
C978 C979 1.391 . S
C979 H967 0.950 . S
C979 C975 1.393 . S
C979 C978 1.391 . S
H980 C988 0.950 . S
H981 C993 0.950 . S
H982 C990 0.950 . S
H983 C992 0.950 . S
H984 C994 0.950 . S
H985 C996 0.950 . S
H986 C998 0.950 . S
H987 C999 0.950 . S
C988 H980 0.950 . S
C988 C989 1.386 . S
C988 C990 1.391 . S
C989 C988 1.386 . S
C989 C993 1.393 . S
C990 H982 0.950 . S
C990 C988 1.391 . S
C990 C991 1.400 . S
C991 C990 1.400 . S
C991 C992 1.398 . S
C991 C997 1.491 . S
C992 H983 0.950 . S
C992 C991 1.398 . S
C992 C993 1.391 . S
C993 H981 0.950 . S
C993 C989 1.393 . S
C993 C992 1.391 . S
C994 H984 0.950 . S
C994 C995 1.386 . S
C994 C996 1.391 . S
C995 C994 1.386 . S
C995 C999 1.393 . S
C996 H985 0.950 . S
C996 C994 1.391 . S
C996 C997 1.400 . S
C997 C991 1.491 . S
C997 C996 1.400 . S
C997 C998 1.398 . S
C998 H986 0.950 . S
C998 C997 1.398 . S
C998 C999 1.391 . S
C999 H987 0.950 . S
C999 C995 1.393 . S
C999 C998 1.391 . S
H1000 C1008 0.950 . S
H1001 C1013 0.950 . S
H1002 C1010 0.950 . S
H1003 C1012 0.950 . S
H1004 C1014 0.950 . S
H1005 C1016 0.950 . S
H1006 C1018 0.950 . S
H1007 C1019 0.950 . S
C1008 H1000 0.950 . S
C1008 C1009 1.386 . S
C1008 C1010 1.391 . S
C1009 C1008 1.386 . S
C1009 C1013 1.393 . S
C1010 H1002 0.950 . S
C1010 C1008 1.391 . S
C1010 C1011 1.400 . S
C1011 C1010 1.400 . S
C1011 C1012 1.398 . S
C1011 C1017 1.491 . S
C1012 H1003 0.950 . S
C1012 C1011 1.398 . S
C1012 C1013 1.391 . S
C1013 H1001 0.950 . S
C1013 C1009 1.393 . S
C1013 C1012 1.391 . S
C1014 H1004 0.950 . S
C1014 C1015 1.386 . S
C1014 C1016 1.391 . S
C1015 C1014 1.386 . S
C1015 C1019 1.393 . S
C1016 H1005 0.950 . S
C1016 C1014 1.391 . S
C1016 C1017 1.400 . S
C1017 C1011 1.491 . S
C1017 C1016 1.400 . S
C1017 C1018 1.398 . S
C1018 H1006 0.950 . S
C1018 C1017 1.398 . S
C1018 C1019 1.391 . S
C1019 H1007 0.950 . S
C1019 C1015 1.393 . S
C1019 C1018 1.391 . S
H1020 C1028 0.950 . S
H1021 C1033 0.950 . S
H1022 C1030 0.950 . S
H1023 C1032 0.950 . S
H1024 C1034 0.950 . S
H1025 C1036 0.950 . S
H1026 C1038 0.950 . S
H1027 C1039 0.950 . S
C1028 H1020 0.950 . S
C1028 C1029 1.386 . S
C1028 C1030 1.391 . S
C1029 C1028 1.386 . S
C1029 C1033 1.393 . S
C1030 H1022 0.950 . S
C1030 C1028 1.391 . S
C1030 C1031 1.400 . S
C1031 C1030 1.400 . S
C1031 C1032 1.398 . S
C1031 C1037 1.491 . S
C1032 H1023 0.950 . S
C1032 C1031 1.398 . S
C1032 C1033 1.391 . S
C1033 H1021 0.950 . S
C1033 C1029 1.393 . S
C1033 C1032 1.391 . S
C1034 H1024 0.950 . S
C1034 C1035 1.386 . S
C1034 C1036 1.391 . S
C1035 C1034 1.386 . S
C1035 C1039 1.393 . S
C1036 H1025 0.950 . S
C1036 C1034 1.391 . S
C1036 C1037 1.400 . S
C1037 C1031 1.491 . S
C1037 C1036 1.400 . S
C1037 C1038 1.398 . S
C1038 H1026 0.950 . S
C1038 C1037 1.398 . S
C1038 C1039 1.391 . S
C1039 H1027 0.950 . S
C1039 C1035 1.393 . S
C1039 C1038 1.391 . S
H1040 C1048 0.950 . S
H1041 C1053 0.950 . S
H1042 C1050 0.950 . S
H1043 C1052 0.950 . S
H1044 C1054 0.950 . S
H1045 C1056 0.950 . S
H1046 C1058 0.950 . S
H1047 C1059 0.950 . S
C1048 H1040 0.950 . S
C1048 C1049 1.386 . S
C1048 C1050 1.391 . S
C1049 C1048 1.386 . S
C1049 C1053 1.393 . S
C1050 H1042 0.950 . S
C1050 C1048 1.391 . S
C1050 C1051 1.400 . S
C1051 C1050 1.400 . S
C1051 C1052 1.398 . S
C1051 C1057 1.491 . S
C1052 H1043 0.950 . S
C1052 C1051 1.398 . S
C1052 C1053 1.391 . S
C1053 H1041 0.950 . S
C1053 C1049 1.393 . S
C1053 C1052 1.391 . S
C1054 H1044 0.950 . S
C1054 C1055 1.386 . S
C1054 C1056 1.391 . S
C1055 C1054 1.386 . S
C1055 C1059 1.393 . S
C1056 H1045 0.950 . S
C1056 C1054 1.391 . S
C1056 C1057 1.400 . S
C1057 C1051 1.491 . S
C1057 C1056 1.400 . S
C1057 C1058 1.398 . S
C1058 H1046 0.950 . S
C1058 C1057 1.398 . S
C1058 C1059 1.391 . S
C1059 H1047 0.950 . S
C1059 C1055 1.393 . S
C1059 C1058 1.391 . S
H1060 C1068 0.950 . S
H1061 C1073 0.950 . S
H1062 C1070 0.950 . S
H1063 C1072 0.950 . S
H1064 C1074 0.950 . S
H1065 C1076 0.950 . S
H1066 C1078 0.950 . S
H1067 C1079 0.950 1_556 S
C1068 H1060 0.950 . S
C1068 C1069 1.386 . S
C1068 C1070 1.391 . S
C1069 C1068 1.386 . S
C1069 C1073 1.393 . S
C1070 H1062 0.950 . S
C1070 C1068 1.391 . S
C1070 C1071 1.400 . S
C1071 C1070 1.400 . S
C1071 C1072 1.398 . S
C1071 C1077 1.491 . S
C1072 H1063 0.950 . S
C1072 C1071 1.398 . S
C1072 C1073 1.391 . S
C1073 H1061 0.950 . S
C1073 C1069 1.393 . S
C1073 C1072 1.391 . S
C1074 H1064 0.950 . S
C1074 C1075 1.386 . S
C1074 C1076 1.391 . S
C1075 C1074 1.386 . S
C1075 C1079 1.393 . S
C1076 H1065 0.950 . S
C1076 C1074 1.391 . S
C1076 C1077 1.400 . S
C1077 C1071 1.491 . S
C1077 C1076 1.400 . S
C1077 C1078 1.398 . S
C1078 H1066 0.950 . S
C1078 C1077 1.398 . S
C1078 C1079 1.391 . S
C1079 H1067 0.950 1_554 S
C1079 C1075 1.393 . S
C1079 C1078 1.391 . S
H1080 C1088 0.950 . S
H1081 C1093 0.950 . S
H1082 C1090 0.950 . S
H1083 C1092 0.950 . S
H1084 C1094 0.950 . S
H1085 C1096 0.950 . S
H1086 C1098 0.950 . S
H1087 C1099 0.950 . S
C1088 H1080 0.950 . S
C1088 C1089 1.386 . S
C1088 C1090 1.391 . S
C1089 C1088 1.386 . S
C1089 C1093 1.393 . S
C1090 H1082 0.950 . S
C1090 C1088 1.391 . S
C1090 C1091 1.400 . S
C1091 C1090 1.400 . S
C1091 C1092 1.398 . S
C1091 C1097 1.491 . S
C1092 H1083 0.950 . S
C1092 C1091 1.398 . S
C1092 C1093 1.391 . S
C1093 H1081 0.950 . S
C1093 C1089 1.393 . S
C1093 C1092 1.391 . S
C1094 H1084 0.950 . S
C1094 C1095 1.386 . S
C1094 C1096 1.391 . S
C1095 C1094 1.386 . S
C1095 C1099 1.393 . S
C1096 H1085 0.950 . S
C1096 C1094 1.391 . S
C1096 C1097 1.400 . S
C1097 C1091 1.491 . S
C1097 C1096 1.400 . S
C1097 C1098 1.398 . S
C1098 H1086 0.950 . S
C1098 C1097 1.398 . S
C1098 C1099 1.391 . S
C1099 H1087 0.950 . S
C1099 C1095 1.393 . S
C1099 C1098 1.391 . S
H1100 C1108 0.950 . S
H1101 C1113 0.950 . S
H1102 C1110 0.950 . S
H1103 C1112 0.950 . S
H1104 C1114 0.950 . S
H1105 C1116 0.950 . S
H1106 C1118 0.950 . S
H1107 C1119 0.950 . S
C1108 H1100 0.950 . S
C1108 C1109 1.386 . S
C1108 C1110 1.391 . S
C1109 C1108 1.386 . S
C1109 C1113 1.393 . S
C1110 H1102 0.950 . S
C1110 C1108 1.391 . S
C1110 C1111 1.400 . S
C1111 C1110 1.400 . S
C1111 C1112 1.398 . S
C1111 C1117 1.491 . S
C1112 H1103 0.950 . S
C1112 C1111 1.398 . S
C1112 C1113 1.391 . S
C1113 H1101 0.950 . S
C1113 C1109 1.393 . S
C1113 C1112 1.391 . S
C1114 H1104 0.950 . S
C1114 C1115 1.386 . S
C1114 C1116 1.391 . S
C1115 C1114 1.386 . S
C1115 C1119 1.393 . S
C1116 H1105 0.950 . S
C1116 C1114 1.391 . S
C1116 C1117 1.400 . S
C1117 C1111 1.491 . S
C1117 C1116 1.400 . S
C1117 C1118 1.398 . S
C1118 H1106 0.950 . S
C1118 C1117 1.398 . S
C1118 C1119 1.391 . S
C1119 H1107 0.950 . S
C1119 C1115 1.393 . S
C1119 C1118 1.391 . S
H1120 C1128 0.950 . S
H1121 C1133 0.950 . S
H1122 C1130 0.950 . S
H1123 C1132 0.950 . S
H1124 C1134 0.950 . S
H1125 C1136 0.950 . S
H1126 C1138 0.950 . S
H1127 C1139 0.950 . S
C1128 H1120 0.950 . S
C1128 C1129 1.386 . S
C1128 C1130 1.391 . S
C1129 C1128 1.386 . S
C1129 C1133 1.393 . S
C1130 H1122 0.950 . S
C1130 C1128 1.391 . S
C1130 C1131 1.400 . S
C1131 C1130 1.400 . S
C1131 C1132 1.398 . S
C1131 C1137 1.491 . S
C1132 H1123 0.950 . S
C1132 C1131 1.398 . S
C1132 C1133 1.391 . S
C1133 H1121 0.950 . S
C1133 C1129 1.393 . S
C1133 C1132 1.391 . S
C1134 H1124 0.950 . S
C1134 C1135 1.386 . S
C1134 C1136 1.391 . S
C1135 C1134 1.386 . S
C1135 C1139 1.393 . S
C1136 H1125 0.950 . S
C1136 C1134 1.391 . S
C1136 C1137 1.400 . S
C1137 C1131 1.491 . S
C1137 C1136 1.400 . S
C1137 C1138 1.398 . S
C1138 H1126 0.950 . S
C1138 C1137 1.398 . S
C1138 C1139 1.391 . S
C1139 H1127 0.950 . S
C1139 C1135 1.393 . S
C1139 C1138 1.391 . S
H1140 C1148 0.950 . S
H1141 C1153 0.950 . S
H1142 C1150 0.950 . S
H1143 C1152 0.950 . S
H1144 C1154 0.950 . S
H1145 C1156 0.950 . S
H1146 C1158 0.950 . S
H1147 C1159 0.950 . S
C1148 H1140 0.950 . S
C1148 C1149 1.386 . S
C1148 C1150 1.391 . S
C1149 C1148 1.386 . S
C1149 C1153 1.393 . S
C1150 H1142 0.950 . S
C1150 C1148 1.391 . S
C1150 C1151 1.400 . S
C1151 C1150 1.400 . S
C1151 C1152 1.398 . S
C1151 C1157 1.491 . S
C1152 H1143 0.950 . S
C1152 C1151 1.398 . S
C1152 C1153 1.391 . S
C1153 H1141 0.950 . S
C1153 C1149 1.393 . S
C1153 C1152 1.391 . S
C1154 H1144 0.950 . S
C1154 C1155 1.386 . S
C1154 C1156 1.391 . S
C1155 C1154 1.386 . S
C1155 C1159 1.393 . S
C1156 H1145 0.950 . S
C1156 C1154 1.391 . S
C1156 C1157 1.400 . S
C1157 C1151 1.491 . S
C1157 C1156 1.400 . S
C1157 C1158 1.398 . S
C1158 H1146 0.950 . S
C1158 C1157 1.398 . S
C1158 C1159 1.391 . S
C1159 H1147 0.950 . S
C1159 C1155 1.393 . S
C1159 C1158 1.391 . S
H1160 C1168 0.950 . S
H1161 C1173 0.950 . S
H1162 C1170 0.950 . S
H1163 C1172 0.950 . S
H1164 C1174 0.950 . S
H1165 C1176 0.950 . S
H1166 C1178 0.950 . S
H1167 C1179 0.950 . S
C1168 H1160 0.950 . S
C1168 C1169 1.386 . S
C1168 C1170 1.391 . S
C1169 C1168 1.386 . S
C1169 C1173 1.393 . S
C1170 H1162 0.950 . S
C1170 C1168 1.391 . S
C1170 C1171 1.400 . S
C1171 C1170 1.400 . S
C1171 C1172 1.398 . S
C1171 C1177 1.491 . S
C1172 H1163 0.950 . S
C1172 C1171 1.398 . S
C1172 C1173 1.391 . S
C1173 H1161 0.950 . S
C1173 C1169 1.393 . S
C1173 C1172 1.391 . S
C1174 H1164 0.950 . S
C1174 C1175 1.386 . S
C1174 C1176 1.391 . S
C1175 C1174 1.386 . S
C1175 C1179 1.393 . S
C1176 H1165 0.950 . S
C1176 C1174 1.391 . S
C1176 C1177 1.400 . S
C1177 C1171 1.491 . S
C1177 C1176 1.400 . S
C1177 C1178 1.398 . S
C1178 H1166 0.950 . S
C1178 C1177 1.398 . S
C1178 C1179 1.391 . S
C1179 H1167 0.950 . S
C1179 C1175 1.393 . S
C1179 C1178 1.391 . S
H1180 C1188 0.950 . S
H1181 C1193 0.950 . S
H1182 C1190 0.950 . S
H1183 C1192 0.950 . S
H1184 C1194 0.950 . S
H1185 C1196 0.950 . S
H1186 C1198 0.950 . S
H1187 C1199 0.950 . S
C1188 H1180 0.950 . S
C1188 C1189 1.386 . S
C1188 C1190 1.391 . S
C1189 C1188 1.386 . S
C1189 C1193 1.393 . S
C1190 H1182 0.950 . S
C1190 C1188 1.391 . S
C1190 C1191 1.400 . S
C1191 C1190 1.400 . S
C1191 C1192 1.398 . S
C1191 C1197 1.491 . S
C1192 H1183 0.950 . S
C1192 C1191 1.398 . S
C1192 C1193 1.391 . S
C1193 H1181 0.950 . S
C1193 C1189 1.393 . S
C1193 C1192 1.391 . S
C1194 H1184 0.950 . S
C1194 C1195 1.386 . S
C1194 C1196 1.391 . S
C1195 C1194 1.386 . S
C1195 C1199 1.393 . S
C1196 H1185 0.950 . S
C1196 C1194 1.391 . S
C1196 C1197 1.400 . S
C1197 C1191 1.491 . S
C1197 C1196 1.400 . S
C1197 C1198 1.398 . S
C1198 H1186 0.950 . S
C1198 C1197 1.398 . S
C1198 C1199 1.391 . S
C1199 H1187 0.950 . S
C1199 C1195 1.393 . S
C1199 C1198 1.391 . S
H1200 C1208 0.950 . S
H1201 C1213 0.950 . S
H1202 C1210 0.950 . S
H1203 C1212 0.950 . S
H1204 C1214 0.950 . S
H1205 C1216 0.950 . S
H1206 C1218 0.950 . S
H1207 C1219 0.950 . S
C1208 H1200 0.950 . S
C1208 C1209 1.386 . S
C1208 C1210 1.391 . S
C1209 C1208 1.386 . S
C1209 C1213 1.393 . S
C1210 H1202 0.950 . S
C1210 C1208 1.391 . S
C1210 C1211 1.400 . S
C1211 C1210 1.400 . S
C1211 C1212 1.398 . S
C1211 C1217 1.491 . S
C1212 H1203 0.950 . S
C1212 C1211 1.398 . S
C1212 C1213 1.391 . S
C1213 H1201 0.950 . S
C1213 C1209 1.393 . S
C1213 C1212 1.391 . S
C1214 H1204 0.950 . S
C1214 C1215 1.386 . S
C1214 C1216 1.391 . S
C1215 C1214 1.386 . S
C1215 C1219 1.393 . S
C1216 H1205 0.950 . S
C1216 C1214 1.391 . S
C1216 C1217 1.400 . S
C1217 C1211 1.491 . S
C1217 C1216 1.400 . S
C1217 C1218 1.398 . S
C1218 H1206 0.950 . S
C1218 C1217 1.398 . S
C1218 C1219 1.391 . S
C1219 H1207 0.950 . S
C1219 C1215 1.393 . S
C1219 C1218 1.391 . S
H1220 C1228 0.950 . S
H1221 C1233 0.950 . S
H1222 C1230 0.950 . S
H1223 C1232 0.950 . S
H1224 C1234 0.950 . S
H1225 C1236 0.950 . S
H1226 C1238 0.950 . S
H1227 C1239 0.950 . S
C1228 H1220 0.950 . S
C1228 C1229 1.386 . S
C1228 C1230 1.391 . S
C1229 C1228 1.386 . S
C1229 C1233 1.393 . S
C1230 H1222 0.950 . S
C1230 C1228 1.391 . S
C1230 C1231 1.400 . S
C1231 C1230 1.400 . S
C1231 C1232 1.398 . S
C1231 C1237 1.491 . S
C1232 H1223 0.950 . S
C1232 C1231 1.398 . S
C1232 C1233 1.391 . S
C1233 H1221 0.950 . S
C1233 C1229 1.393 . S
C1233 C1232 1.391 . S
C1234 H1224 0.950 . S
C1234 C1235 1.386 . S
C1234 C1236 1.391 . S
C1235 C1234 1.386 . S
C1235 C1239 1.393 . S
C1236 H1225 0.950 . S
C1236 C1234 1.391 . S
C1236 C1237 1.400 . S
C1237 C1231 1.491 . S
C1237 C1236 1.400 . S
C1237 C1238 1.398 . S
C1238 H1226 0.950 . S
C1238 C1237 1.398 . S
C1238 C1239 1.391 . S
C1239 H1227 0.950 . S
C1239 C1235 1.393 . S
C1239 C1238 1.391 . S
H1240 C1248 0.950 . S
H1241 C1253 0.950 . S
H1242 C1250 0.950 . S
H1243 C1252 0.950 . S
H1244 C1254 0.950 . S
H1245 C1256 0.950 . S
H1246 C1258 0.950 . S
H1247 C1259 0.950 . S
C1248 H1240 0.950 . S
C1248 C1249 1.386 . S
C1248 C1250 1.391 . S
C1249 C1248 1.386 . S
C1249 C1253 1.393 . S
C1250 H1242 0.950 . S
C1250 C1248 1.391 . S
C1250 C1251 1.400 . S
C1251 C1250 1.400 . S
C1251 C1252 1.398 . S
C1251 C1257 1.491 . S
C1252 H1243 0.950 . S
C1252 C1251 1.398 . S
C1252 C1253 1.391 . S
C1253 H1241 0.950 . S
C1253 C1249 1.393 . S
C1253 C1252 1.391 . S
C1254 H1244 0.950 . S
C1254 C1255 1.386 . S
C1254 C1256 1.391 . S
C1255 C1254 1.386 . S
C1255 C1259 1.393 . S
C1256 H1245 0.950 . S
C1256 C1254 1.391 . S
C1256 C1257 1.400 . S
C1257 C1251 1.491 . S
C1257 C1256 1.400 . S
C1257 C1258 1.398 . S
C1258 H1246 0.950 . S
C1258 C1257 1.398 . S
C1258 C1259 1.391 . S
C1259 H1247 0.950 . S
C1259 C1255 1.393 . S
C1259 C1258 1.391 . S
H1260 C1268 0.950 . S
H1261 C1273 0.950 . S
H1262 C1270 0.950 . S
H1263 C1272 0.950 . S
H1264 C1274 0.950 . S
H1265 C1276 0.950 . S
H1266 C1278 0.950 . S
H1267 C1279 0.950 . S
C1268 H1260 0.950 . S
C1268 C1269 1.386 . S
C1268 C1270 1.391 . S
C1269 C1268 1.386 . S
C1269 C1273 1.393 . S
C1270 H1262 0.950 . S
C1270 C1268 1.391 . S
C1270 C1271 1.400 . S
C1271 C1270 1.400 . S
C1271 C1272 1.398 . S
C1271 C1277 1.491 . S
C1272 H1263 0.950 . S
C1272 C1271 1.398 . S
C1272 C1273 1.391 . S
C1273 H1261 0.950 . S
C1273 C1269 1.393 . S
C1273 C1272 1.391 . S
C1274 H1264 0.950 . S
C1274 C1275 1.386 . S
C1274 C1276 1.391 . S
C1275 C1274 1.386 . S
C1275 C1279 1.393 . S
C1276 H1265 0.950 . S
C1276 C1274 1.391 . S
C1276 C1277 1.400 . S
C1277 C1271 1.491 . S
C1277 C1276 1.400 . S
C1277 C1278 1.398 . S
C1278 H1266 0.950 . S
C1278 C1277 1.398 . S
C1278 C1279 1.391 . S
C1279 H1267 0.950 . S
C1279 C1275 1.393 . S
C1279 C1278 1.391 . S
H1280 C1288 0.950 . S
H1281 C1293 0.950 . S
H1282 C1290 0.950 . S
H1283 C1292 0.950 . S
H1284 C1294 0.950 . S
H1285 C1296 0.950 . S
H1286 C1298 0.950 . S
H1287 C1299 0.950 . S
C1288 H1280 0.950 . S
C1288 C1289 1.386 . S
C1288 C1290 1.391 . S
C1289 C1288 1.386 . S
C1289 C1293 1.393 . S
C1290 H1282 0.950 . S
C1290 C1288 1.391 . S
C1290 C1291 1.400 . S
C1291 C1290 1.400 . S
C1291 C1292 1.398 . S
C1291 C1297 1.491 . S
C1292 H1283 0.950 . S
C1292 C1291 1.398 . S
C1292 C1293 1.391 . S
C1293 H1281 0.950 . S
C1293 C1289 1.393 . S
C1293 C1292 1.391 . S
C1294 H1284 0.950 . S
C1294 C1295 1.386 . S
C1294 C1296 1.391 . S
C1295 C1294 1.386 . S
C1295 C1299 1.393 . S
C1296 H1285 0.950 . S
C1296 C1294 1.391 . S
C1296 C1297 1.400 . S
C1297 C1291 1.491 . S
C1297 C1296 1.400 . S
C1297 C1298 1.398 . S
C1298 H1286 0.950 . S
C1298 C1297 1.398 . S
C1298 C1299 1.391 . S
C1299 H1287 0.950 . S
C1299 C1295 1.393 . S
C1299 C1298 1.391 . S
H1300 C1308 0.950 . S
H1301 C1313 0.950 . S
H1302 C1310 0.950 . S
H1303 C1312 0.950 . S
H1304 C1314 0.950 . S
H1305 C1316 0.950 . S
H1306 C1318 0.950 . S
H1307 C1319 0.950 . S
C1308 H1300 0.950 . S
C1308 C1309 1.386 . S
C1308 C1310 1.391 . S
C1309 C1308 1.386 . S
C1309 C1313 1.393 . S
C1310 H1302 0.950 . S
C1310 C1308 1.391 . S
C1310 C1311 1.400 . S
C1311 C1310 1.400 . S
C1311 C1312 1.398 . S
C1311 C1317 1.491 . S
C1312 H1303 0.950 . S
C1312 C1311 1.398 . S
C1312 C1313 1.391 . S
C1313 H1301 0.950 . S
C1313 C1309 1.393 . S
C1313 C1312 1.391 . S
C1314 H1304 0.950 . S
C1314 C1315 1.386 . S
C1314 C1316 1.391 . S
C1315 C1314 1.386 . S
C1315 C1319 1.393 . S
C1316 H1305 0.950 . S
C1316 C1314 1.391 . S
C1316 C1317 1.400 . S
C1317 C1311 1.491 . S
C1317 C1316 1.400 . S
C1317 C1318 1.398 . S
C1318 H1306 0.950 . S
C1318 C1317 1.398 . S
C1318 C1319 1.391 . S
C1319 H1307 0.950 . S
C1319 C1315 1.393 . S
C1319 C1318 1.391 . S
H1320 C1328 0.950 . S
H1321 C1333 0.950 . S
H1322 C1330 0.950 . S
H1323 C1332 0.950 . S
H1324 C1334 0.950 . S
H1325 C1336 0.950 . S
H1326 C1338 0.950 . S
H1327 C1339 0.950 . S
C1328 H1320 0.950 . S
C1328 C1329 1.386 . S
C1328 C1330 1.391 . S
C1329 C1328 1.386 . S
C1329 C1333 1.393 . S
C1330 H1322 0.950 . S
C1330 C1328 1.391 . S
C1330 C1331 1.400 . S
C1331 C1330 1.400 . S
C1331 C1332 1.398 . S
C1331 C1337 1.491 . S
C1332 H1323 0.950 . S
C1332 C1331 1.398 . S
C1332 C1333 1.391 . S
C1333 H1321 0.950 . S
C1333 C1329 1.393 . S
C1333 C1332 1.391 . S
C1334 H1324 0.950 . S
C1334 C1335 1.386 . S
C1334 C1336 1.391 . S
C1335 C1334 1.386 . S
C1335 C1339 1.393 . S
C1336 H1325 0.950 . S
C1336 C1334 1.391 . S
C1336 C1337 1.400 . S
C1337 C1331 1.491 . S
C1337 C1336 1.400 . S
C1337 C1338 1.398 . S
C1338 H1326 0.950 . S
C1338 C1337 1.398 . S
C1338 C1339 1.391 . S
C1339 H1327 0.950 . S
C1339 C1335 1.393 . S
C1339 C1338 1.391 . S
H1340 C1348 0.950 . S
H1341 C1353 0.950 . S
H1342 C1350 0.950 . S
H1343 C1352 0.950 . S
H1344 C1354 0.950 . S
H1345 C1356 0.950 . S
H1346 C1358 0.950 . S
H1347 C1359 0.950 . S
C1348 H1340 0.950 . S
C1348 C1349 1.386 . S
C1348 C1350 1.391 . S
C1349 C1348 1.386 . S
C1349 C1353 1.393 . S
C1350 H1342 0.950 . S
C1350 C1348 1.391 . S
C1350 C1351 1.400 . S
C1351 C1350 1.400 . S
C1351 C1352 1.398 . S
C1351 C1357 1.491 . S
C1352 H1343 0.950 . S
C1352 C1351 1.398 . S
C1352 C1353 1.391 . S
C1353 H1341 0.950 . S
C1353 C1349 1.393 . S
C1353 C1352 1.391 . S
C1354 H1344 0.950 . S
C1354 C1355 1.386 . S
C1354 C1356 1.391 . S
C1355 C1354 1.386 . S
C1355 C1359 1.393 . S
C1356 H1345 0.950 . S
C1356 C1354 1.391 . S
C1356 C1357 1.400 . S
C1357 C1351 1.491 . S
C1357 C1356 1.400 . S
C1357 C1358 1.398 . S
C1358 H1346 0.950 . S
C1358 C1357 1.398 . S
C1358 C1359 1.391 . S
C1359 H1347 0.950 . S
C1359 C1355 1.393 . S
C1359 C1358 1.391 . S
H1360 C1368 0.950 . S
H1361 C1373 0.950 . S
H1362 C1370 0.950 . S
H1363 C1372 0.950 . S
H1364 C1374 0.950 . S
H1365 C1376 0.950 . S
H1366 C1378 0.950 . S
H1367 C1379 0.950 . S
C1368 H1360 0.950 . S
C1368 C1369 1.386 . S
C1368 C1370 1.391 . S
C1369 C1368 1.386 . S
C1369 C1373 1.393 . S
C1370 H1362 0.950 . S
C1370 C1368 1.391 . S
C1370 C1371 1.400 . S
C1371 C1370 1.400 . S
C1371 C1372 1.398 . S
C1371 C1377 1.491 . S
C1372 H1363 0.950 . S
C1372 C1371 1.398 . S
C1372 C1373 1.391 . S
C1373 H1361 0.950 . S
C1373 C1369 1.393 . S
C1373 C1372 1.391 . S
C1374 H1364 0.950 . S
C1374 C1375 1.386 . S
C1374 C1376 1.391 . S
C1375 C1374 1.386 . S
C1375 C1379 1.393 . S
C1376 H1365 0.950 . S
C1376 C1374 1.391 . S
C1376 C1377 1.400 . S
C1377 C1371 1.491 . S
C1377 C1376 1.400 . S
C1377 C1378 1.398 . S
C1378 H1366 0.950 . S
C1378 C1377 1.398 . S
C1378 C1379 1.391 . S
C1379 H1367 0.950 . S
C1379 C1375 1.393 . S
C1379 C1378 1.391 . S
H1380 C1388 0.950 . S
H1381 C1393 0.950 . S
H1382 C1390 0.950 . S
H1383 C1392 0.950 . S
H1384 C1394 0.950 . S
H1385 C1396 0.950 . S
H1386 C1398 0.950 . S
H1387 C1399 0.950 . S
C1388 H1380 0.950 . S
C1388 C1389 1.386 . S
C1388 C1390 1.391 . S
C1389 C1388 1.386 . S
C1389 C1393 1.393 . S
C1390 H1382 0.950 . S
C1390 C1388 1.391 . S
C1390 C1391 1.400 . S
C1391 C1390 1.400 . S
C1391 C1392 1.398 . S
C1391 C1397 1.491 . S
C1392 H1383 0.950 . S
C1392 C1391 1.398 . S
C1392 C1393 1.391 . S
C1393 H1381 0.950 . S
C1393 C1389 1.393 . S
C1393 C1392 1.391 . S
C1394 H1384 0.950 . S
C1394 C1395 1.386 . S
C1394 C1396 1.391 . S
C1395 C1394 1.386 . S
C1395 C1399 1.393 . S
C1396 H1385 0.950 . S
C1396 C1394 1.391 . S
C1396 C1397 1.400 . S
C1397 C1391 1.491 . S
C1397 C1396 1.400 . S
C1397 C1398 1.398 . S
C1398 H1386 0.950 . S
C1398 C1397 1.398 . S
C1398 C1399 1.391 . S
C1399 H1387 0.950 . S
C1399 C1395 1.393 . S
C1399 C1398 1.391 . S
H1400 C1408 0.950 . S
H1401 C1413 0.950 . S
H1402 C1410 0.950 . S
H1403 C1412 0.950 . S
H1404 C1414 0.950 . S
H1405 C1416 0.950 . S
H1406 C1418 0.950 . S
H1407 C1419 0.950 . S
C1408 H1400 0.950 . S
C1408 C1409 1.386 . S
C1408 C1410 1.391 . S
C1409 C1408 1.386 . S
C1409 C1413 1.393 . S
C1410 H1402 0.950 . S
C1410 C1408 1.391 . S
C1410 C1411 1.400 . S
C1411 C1410 1.400 . S
C1411 C1412 1.398 . S
C1411 C1417 1.491 . S
C1412 H1403 0.950 . S
C1412 C1411 1.398 . S
C1412 C1413 1.391 . S
C1413 H1401 0.950 . S
C1413 C1409 1.393 . S
C1413 C1412 1.391 . S
C1414 H1404 0.950 . S
C1414 C1415 1.386 . S
C1414 C1416 1.391 . S
C1415 C1414 1.386 . S
C1415 C1419 1.393 . S
C1416 H1405 0.950 . S
C1416 C1414 1.391 . S
C1416 C1417 1.400 . S
C1417 C1411 1.491 . S
C1417 C1416 1.400 . S
C1417 C1418 1.398 . S
C1418 H1406 0.950 . S
C1418 C1417 1.398 . S
C1418 C1419 1.391 . S
C1419 H1407 0.950 . S
C1419 C1415 1.393 . S
C1419 C1418 1.391 . S
H1420 C1428 0.950 . S
H1421 C1433 0.950 . S
H1422 C1430 0.950 . S
H1423 C1432 0.950 . S
H1424 C1434 0.950 . S
H1425 C1436 0.950 . S
H1426 C1438 0.950 . S
H1427 C1439 0.950 . S
C1428 H1420 0.950 . S
C1428 C1429 1.386 . S
C1428 C1430 1.391 . S
C1429 C1428 1.386 . S
C1429 C1433 1.393 . S
C1430 H1422 0.950 . S
C1430 C1428 1.391 . S
C1430 C1431 1.400 . S
C1431 C1430 1.400 . S
C1431 C1432 1.398 . S
C1431 C1437 1.491 . S
C1432 H1423 0.950 . S
C1432 C1431 1.398 . S
C1432 C1433 1.391 . S
C1433 H1421 0.950 . S
C1433 C1429 1.393 . S
C1433 C1432 1.391 . S
C1434 H1424 0.950 . S
C1434 C1435 1.386 . S
C1434 C1436 1.391 . S
C1435 C1434 1.386 . S
C1435 C1439 1.393 . S
C1436 H1425 0.950 . S
C1436 C1434 1.391 . S
C1436 C1437 1.400 . S
C1437 C1431 1.491 . S
C1437 C1436 1.400 . S
C1437 C1438 1.398 . S
C1438 H1426 0.950 . S
C1438 C1437 1.398 . S
C1438 C1439 1.391 . S
C1439 H1427 0.950 . S
C1439 C1435 1.393 . S
C1439 C1438 1.391 . S
H1440 C1448 0.950 . S
H1441 C1453 0.950 . S
H1442 C1450 0.950 . S
H1443 C1452 0.950 . S
H1444 C1454 0.950 . S
H1445 C1456 0.950 . S
H1446 C1458 0.950 . S
H1447 C1459 0.950 . S
C1448 H1440 0.950 . S
C1448 C1449 1.386 . S
C1448 C1450 1.391 . S
C1449 C1448 1.386 . S
C1449 C1453 1.393 . S
C1450 H1442 0.950 . S
C1450 C1448 1.391 . S
C1450 C1451 1.400 . S
C1451 C1450 1.400 . S
C1451 C1452 1.398 . S
C1451 C1457 1.491 . S
C1452 H1443 0.950 . S
C1452 C1451 1.398 . S
C1452 C1453 1.391 . S
C1453 H1441 0.950 . S
C1453 C1449 1.393 . S
C1453 C1452 1.391 . S
C1454 H1444 0.950 . S
C1454 C1455 1.386 . S
C1454 C1456 1.391 . S
C1455 C1454 1.386 . S
C1455 C1459 1.393 . S
C1456 H1445 0.950 . S
C1456 C1454 1.391 . S
C1456 C1457 1.400 . S
C1457 C1451 1.491 . S
C1457 C1456 1.400 . S
C1457 C1458 1.398 . S
C1458 H1446 0.950 . S
C1458 C1457 1.398 . S
C1458 C1459 1.391 . S
C1459 H1447 0.950 . S
C1459 C1455 1.393 . S
C1459 C1458 1.391 . S
H1460 C1468 0.950 . S
H1461 C1473 0.950 . S
H1462 C1470 0.950 . S
H1463 C1472 0.950 . S
H1464 C1474 0.950 . S
H1465 C1476 0.950 . S
H1466 C1478 0.950 . S
H1467 C1479 0.950 . S
C1468 H1460 0.950 . S
C1468 C1469 1.386 . S
C1468 C1470 1.391 . S
C1469 C1468 1.386 . S
C1469 C1473 1.393 . S
C1470 H1462 0.950 . S
C1470 C1468 1.391 . S
C1470 C1471 1.400 . S
C1471 C1470 1.400 . S
C1471 C1472 1.398 . S
C1471 C1477 1.491 . S
C1472 H1463 0.950 . S
C1472 C1471 1.398 . S
C1472 C1473 1.391 . S
C1473 H1461 0.950 . S
C1473 C1469 1.393 . S
C1473 C1472 1.391 . S
C1474 H1464 0.950 . S
C1474 C1475 1.386 . S
C1474 C1476 1.391 . S
C1475 C1474 1.386 . S
C1475 C1479 1.393 . S
C1476 H1465 0.950 . S
C1476 C1474 1.391 . S
C1476 C1477 1.400 . S
C1477 C1471 1.491 . S
C1477 C1476 1.400 . S
C1477 C1478 1.398 . S
C1478 H1466 0.950 . S
C1478 C1477 1.398 . S
C1478 C1479 1.391 . S
C1479 H1467 0.950 . S
C1479 C1475 1.393 . S
C1479 C1478 1.391 . S
H1480 C1488 0.950 . S
H1481 C1493 0.950 . S
H1482 C1490 0.950 . S
H1483 C1492 0.950 . S
H1484 C1494 0.950 . S
H1485 C1496 0.950 . S
H1486 C1498 0.950 . S
H1487 C1499 0.950 . S
C1488 H1480 0.950 . S
C1488 C1489 1.386 . S
C1488 C1490 1.391 . S
C1489 C1488 1.386 . S
C1489 C1493 1.393 . S
C1490 H1482 0.950 . S
C1490 C1488 1.391 . S
C1490 C1491 1.400 . S
C1491 C1490 1.400 . S
C1491 C1492 1.398 . S
C1491 C1497 1.491 . S
C1492 H1483 0.950 . S
C1492 C1491 1.398 . S
C1492 C1493 1.391 . S
C1493 H1481 0.950 . S
C1493 C1489 1.393 . S
C1493 C1492 1.391 . S
C1494 H1484 0.950 . S
C1494 C1495 1.386 . S
C1494 C1496 1.391 . S
C1495 C1494 1.386 . S
C1495 C1499 1.393 . S
C1496 H1485 0.950 . S
C1496 C1494 1.391 . S
C1496 C1497 1.400 . S
C1497 C1491 1.491 . S
C1497 C1496 1.400 . S
C1497 C1498 1.398 . S
C1498 H1486 0.950 . S
C1498 C1497 1.398 . S
C1498 C1499 1.391 . S
C1499 H1487 0.950 . S
C1499 C1495 1.393 . S
C1499 C1498 1.391 . S
H1500 C1508 0.950 . S
H1501 C1513 0.950 . S
H1502 C1510 0.950 . S
H1503 C1512 0.950 . S
H1504 C1514 0.950 . S
H1505 C1516 0.950 . S
H1506 C1518 0.950 . S
H1507 C1519 0.950 . S
C1508 H1500 0.950 . S
C1508 C1509 1.386 . S
C1508 C1510 1.391 . S
C1509 C1508 1.386 . S
C1509 C1513 1.393 . S
C1510 H1502 0.950 . S
C1510 C1508 1.391 . S
C1510 C1511 1.400 . S
C1511 C1510 1.400 . S
C1511 C1512 1.398 . S
C1511 C1517 1.491 . S
C1512 H1503 0.950 . S
C1512 C1511 1.398 . S
C1512 C1513 1.391 . S
C1513 H1501 0.950 . S
C1513 C1509 1.393 . S
C1513 C1512 1.391 . S
C1514 H1504 0.950 . S
C1514 C1515 1.386 . S
C1514 C1516 1.391 . S
C1515 C1514 1.386 . S
C1515 C1519 1.393 . S
C1516 H1505 0.950 . S
C1516 C1514 1.391 . S
C1516 C1517 1.400 . S
C1517 C1511 1.491 . S
C1517 C1516 1.400 . S
C1517 C1518 1.398 . S
C1518 H1506 0.950 . S
C1518 C1517 1.398 . S
C1518 C1519 1.391 . S
C1519 H1507 0.950 . S
C1519 C1515 1.393 . S
C1519 C1518 1.391 . S
H1520 C1528 0.950 . S
H1521 C1533 0.950 . S
H1522 C1530 0.950 . S
H1523 C1532 0.950 . S
H1524 C1534 0.950 . S
H1525 C1536 0.950 . S
H1526 C1538 0.950 . S
H1527 C1539 0.950 . S
C1528 H1520 0.950 . S
C1528 C1529 1.386 . S
C1528 C1530 1.391 . S
C1529 C1528 1.386 . S
C1529 C1533 1.393 . S
C1530 H1522 0.950 . S
C1530 C1528 1.391 . S
C1530 C1531 1.400 . S
C1531 C1530 1.400 . S
C1531 C1532 1.398 . S
C1531 C1537 1.491 . S
C1532 H1523 0.950 . S
C1532 C1531 1.398 . S
C1532 C1533 1.391 . S
C1533 H1521 0.950 . S
C1533 C1529 1.393 . S
C1533 C1532 1.391 . S
C1534 H1524 0.950 . S
C1534 C1535 1.386 . S
C1534 C1536 1.391 . S
C1535 C1534 1.386 . S
C1535 C1539 1.393 . S
C1536 H1525 0.950 . S
C1536 C1534 1.391 . S
C1536 C1537 1.400 . S
C1537 C1531 1.491 . S
C1537 C1536 1.400 . S
C1537 C1538 1.398 . S
C1538 H1526 0.950 . S
C1538 C1537 1.398 . S
C1538 C1539 1.391 . S
C1539 H1527 0.950 . S
C1539 C1535 1.393 . S
C1539 C1538 1.391 . S
H1540 C1548 0.950 . S
H1541 C1553 0.950 . S
H1542 C1550 0.950 . S
H1543 C1552 0.950 . S
H1544 C1554 0.950 . S
H1545 C1556 0.950 . S
H1546 C1558 0.950 . S
H1547 C1559 0.950 . S
C1548 H1540 0.950 . S
C1548 C1549 1.386 . S
C1548 C1550 1.391 . S
C1549 C1548 1.386 . S
C1549 C1553 1.393 . S
C1550 H1542 0.950 . S
C1550 C1548 1.391 . S
C1550 C1551 1.400 . S
C1551 C1550 1.400 . S
C1551 C1552 1.398 . S
C1551 C1557 1.491 . S
C1552 H1543 0.950 . S
C1552 C1551 1.398 . S
C1552 C1553 1.391 . S
C1553 H1541 0.950 . S
C1553 C1549 1.393 . S
C1553 C1552 1.391 . S
C1554 H1544 0.950 . S
C1554 C1555 1.386 . S
C1554 C1556 1.391 . S
C1555 C1554 1.386 . S
C1555 C1559 1.393 . S
C1556 H1545 0.950 . S
C1556 C1554 1.391 . S
C1556 C1557 1.400 . S
C1557 C1551 1.491 . S
C1557 C1556 1.400 . S
C1557 C1558 1.398 . S
C1558 H1546 0.950 . S
C1558 C1557 1.398 . S
C1558 C1559 1.391 . S
C1559 H1547 0.950 . S
C1559 C1555 1.393 . S
C1559 C1558 1.391 . S
H1560 C1568 0.950 . S
H1561 C1573 0.950 . S
H1562 C1570 0.950 . S
H1563 C1572 0.950 . S
H1564 C1574 0.950 . S
H1565 C1576 0.950 . S
H1566 C1578 0.950 . S
H1567 C1579 0.950 . S
C1568 H1560 0.950 . S
C1568 C1569 1.386 . S
C1568 C1570 1.391 . S
C1569 C1568 1.386 . S
C1569 C1573 1.393 . S
C1570 H1562 0.950 . S
C1570 C1568 1.391 . S
C1570 C1571 1.400 . S
C1571 C1570 1.400 . S
C1571 C1572 1.398 . S
C1571 C1577 1.491 . S
C1572 H1563 0.950 . S
C1572 C1571 1.398 . S
C1572 C1573 1.391 . S
C1573 H1561 0.950 . S
C1573 C1569 1.393 . S
C1573 C1572 1.391 . S
C1574 H1564 0.950 . S
C1574 C1575 1.386 . S
C1574 C1576 1.391 . S
C1575 C1574 1.386 . S
C1575 C1579 1.393 . S
C1576 H1565 0.950 . S
C1576 C1574 1.391 . S
C1576 C1577 1.400 . S
C1577 C1571 1.491 . S
C1577 C1576 1.400 . S
C1577 C1578 1.398 . S
C1578 H1566 0.950 . S
C1578 C1577 1.398 . S
C1578 C1579 1.391 . S
C1579 H1567 0.950 . S
C1579 C1575 1.393 . S
C1579 C1578 1.391 . S
H1580 C1588 0.950 . S
H1581 C1593 0.950 . S
H1582 C1590 0.950 . S
H1583 C1592 0.950 . S
H1584 C1594 0.950 . S
H1585 C1596 0.950 . S
H1586 C1598 0.950 . S
H1587 C1599 0.950 . S
C1588 H1580 0.950 . S
C1588 C1589 1.386 . S
C1588 C1590 1.391 . S
C1589 C1588 1.386 . S
C1589 C1593 1.393 . S
C1590 H1582 0.950 . S
C1590 C1588 1.391 . S
C1590 C1591 1.400 . S
C1591 C1590 1.400 . S
C1591 C1592 1.398 . S
C1591 C1597 1.491 . S
C1592 H1583 0.950 . S
C1592 C1591 1.398 . S
C1592 C1593 1.391 . S
C1593 H1581 0.950 . S
C1593 C1589 1.393 . S
C1593 C1592 1.391 . S
C1594 H1584 0.950 . S
C1594 C1595 1.386 . S
C1594 C1596 1.391 . S
C1595 C1594 1.386 . S
C1595 C1599 1.393 . S
C1596 H1585 0.950 . S
C1596 C1594 1.391 . S
C1596 C1597 1.400 . S
C1597 C1591 1.491 . S
C1597 C1596 1.400 . S
C1597 C1598 1.398 . S
C1598 H1586 0.950 . S
C1598 C1597 1.398 . S
C1598 C1599 1.391 . S
C1599 H1587 0.950 . S
C1599 C1595 1.393 . S
C1599 C1598 1.391 . S
C649 C135 2.049 . S
C655 C18 1.973 . S
C669 C6 2.676 . S
C675 C59 2.799 . S
C689 C89 0.829 . S
C695 C58 0.798 . S
C709 C130 2.575 . S
C715 C90 2.592 . S
C729 C170 2.463 . S
C735 C206 2.404 . S
C749 C218 0.767 . S
C755 C258 0.818 . S
C769 C259 2.626 . S
C775 C290 2.655 . S
C789 C175 2.063 . S
C795 C289 1.985 . S
C809 C379 2.629 . S
C815 C19 2.656 . S
C829 C406 0.731 . S
C835 C46 0.705 . S
C849 C95 0.515 . S
C855 C535 0.687 . S
C869 C329 0.830 . S
C875 C129 0.811 . S
C889 C449 0.787 . S
C895 C169 0.779 . S
C909 C579 2.657 . S
C915 C219 2.629 . S
C929 C246 0.736 . S
C935 C486 0.708 . S
C949 C615 0.527 . S
C955 C295 0.656 . S
C969 C335 2.060 . S
C975 C529 1.991 . S
C989 C366 2.418 . S
C995 C330 2.469 . S
C1009 C418 0.761 . S
C1015 C378 0.819 . S
C1029 C578 1.970 . S
C1035 C455 2.066 . S
C1049 C498 0.816 . S
C1055 C609 0.772 . S
C1069 C446 2.048 . S
C1075 C9 1.979 . S
C1089 C490 2.800 . S
C1095 C15 2.678 . S
C1109 C489 0.762 . S
C1115 C98 0.801 . S
C1129 C99 2.593 . S
C1135 C459 2.577 . S
C1149 C375 2.408 . S
C1155 C179 2.468 . S
C1169 C369 0.759 . S
C1175 C249 0.816 . S
C1189 C539 2.656 . S
C1195 C250 2.628 . S
C1209 C166 2.067 . S
C1215 C538 1.987 . S
C1229 C210 2.628 . S
C1235 C10 2.654 . S
C1249 C415 0.797 . S
C1255 C495 0.787 . S
C1269 C86 0.490 . S
C1275 C286 0.618 . S
C1289 C338 0.798 . S
C1295 C458 0.787 . S
C1309 C138 0.823 . S
C1315 C178 0.796 . S
C1329 C370 2.627 . S
C1335 C570 2.655 . S
C1349 C255 0.753 . S
C1355 C55 0.722 . S
C1369 C606 0.480 . S
C1375 C526 0.612 . S
C1389 C326 2.065 . S
C1395 C298 1.985 . S
C1409 C339 2.470 . S
C1415 C215 2.416 . S
C1429 C409 0.808 . S
C1435 C209 0.784 . S
C1449 C126 2.062 . S
C1455 C569 1.985 . S
C1469 C49 0.826 . S
C1475 C618 0.807 . S
C1489 C499 2.797 . S
C1495 C566 2.665 . S
C1509 C450 2.581 . S
C1515 C610 2.594 . S
C1529 C419 2.631 . S
C1535 C530 2.657 . S
C1549 C575 2.666 . S
C1555 C50 2.798 . S
C1569 C139 2.583 . S
C1575 C619 2.586 . S
C1589 C299 2.654 . S
C1595 C410 2.632 . S
