# Generated by pormake.
# Topology smu, (6)-cn, num edge types: 1
# Building blocks:
#     Node 0, Type 0, BuildingBlock: BETGAK_clean_sbu_0, # of connection points: 6
#     Node 1, Type 0, BuildingBlock: BETGAK_clean_sbu_0, # of connection points: 6
#     Node 2, Type 0, BuildingBlock: BETGAK_clean_sbu_0, # of connection points: 6
#     Node 3, Type 0, BuildingBlock: BETGAK_clean_sbu_0, # of connection points: 6
#     Node 4, Type 0, BuildingBlock: BETGAK_clean_sbu_0, # of connection points: 6
#     Node 5, Type 0, BuildingBlock: BETGAK_clean_sbu_0, # of connection points: 6
#     Edge 6, Type (0, 0), BuildingBlock: MIFKUJ_clean_linker_0, # of connection points: 2
#     Edge 7, Type (0, 0), BuildingBlock: MIFKUJ_clean_linker_0, # of connection points: 2
#     Edge 8, Type (0, 0), BuildingBlock: MIFKUJ_clean_linker_0, # of connection points: 2
#     Edge 9, Type (0, 0), BuildingBlock: MIFKUJ_clean_linker_0, # of connection points: 2
#     Edge 10, Type (0, 0), BuildingBlock: MIFKUJ_clean_linker_0, # of connection points: 2
#     Edge 11, Type (0, 0), BuildingBlock: MIFKUJ_clean_linker_0, # of connection points: 2
#     Edge 12, Type (0, 0), BuildingBlock: MIFKUJ_clean_linker_0, # of connection points: 2
#     Edge 13, Type (0, 0), BuildingBlock: MIFKUJ_clean_linker_0, # of connection points: 2
#     Edge 14, Type (0, 0), BuildingBlock: MIFKUJ_clean_linker_0, # of connection points: 2
#     Edge 15, Type (0, 0), BuildingBlock: MIFKUJ_clean_linker_0, # of connection points: 2
#     Edge 16, Type (0, 0), BuildingBlock: MIFKUJ_clean_linker_0, # of connection points: 2
#     Edge 17, Type (0, 0), BuildingBlock: MIFKUJ_clean_linker_0, # of connection points: 2
#     Edge 18, Type (0, 0), BuildingBlock: MIFKUJ_clean_linker_0, # of connection points: 2
#     Edge 19, Type (0, 0), BuildingBlock: MIFKUJ_clean_linker_0, # of connection points: 2
#     Edge 20, Type (0, 0), BuildingBlock: MIFKUJ_clean_linker_0, # of connection points: 2
#     Edge 21, Type (0, 0), BuildingBlock: MIFKUJ_clean_linker_0, # of connection points: 2
#     Edge 22, Type (0, 0), BuildingBlock: MIFKUJ_clean_linker_0, # of connection points: 2
#     Edge 23, Type (0, 0), BuildingBlock: MIFKUJ_clean_linker_0, # of connection points: 2
# Relax obj value: 0.209
# Max RMSD: 0.297
# Mean RMSD: 0.297
data_MOF--net-smu--node1-BETGAK_clean_sbu_0--edge1-MIFKUJ_clean_linker_0
_symmetry_space_group_name_H-M    P1
_symmetry_Int_Tables_number       1
_symmetry_cell_setting            triclinic
loop_
_symmetry_equiv_pos_as_xyz
'x, y, z'
_cell_length_a     47.402705
_cell_length_b     47.491788
_cell_length_c     34.835205
_cell_angle_alpha  89.599241
_cell_angle_beta   89.904725
_cell_angle_gamma 120.13722
loop_
_atom_site_label
_atom_site_type_symbol
_atom_site_fract_x
_atom_site_fract_y
_atom_site_fract_z
_atom_type_partial_charge
La0 La 0.39054 0.09649 0.28532 0.0
La1 La 0.34472 0.12034 0.30356 0.0
C2 C 0.43509 0.08844 0.25631 0.0
C3 C 0.47131 0.1051 0.25799 0.0
C4 C 0.48608 0.08664 0.26689 0.0
C5 C 0.52004 0.10134 0.26948 0.0
C6 C 0.54042 0.13502 0.26291 0.0
C7 C 0.52553 0.15359 0.25406 0.0
C8 C 0.49138 0.13882 0.2517 0.0
C9 C 0.37274 0.08784 0.35809 0.0
C10 C 0.42068 0.17166 0.29911 0.0
C11 C 0.31394 0.14753 0.32775 0.0
C12 C 0.28485 0.15038 0.31917 0.0
C13 C 0.27676 0.15366 0.28119 0.0
C14 C 0.25342 0.16285 0.27378 0.0
C15 C 0.23743 0.16867 0.30414 0.0
C16 C 0.24424 0.16353 0.34203 0.0
C17 C 0.26781 0.15464 0.34943 0.0
C18 C 0.34018 0.10015 0.23175 0.0
C19 C 0.31666 0.04601 0.29664 0.0
O20 O 0.41964 0.07463 0.28813 0.0
O21 O 0.42175 0.10318 0.23856 0.0
O22 O 0.37949 0.06911 0.33813 0.0
O23 O 0.37816 0.11269 0.33804 0.0
O24 O 0.42665 0.14741 0.29691 0.0
O25 O 0.39063 0.16635 0.30083 0.0
O26 O 0.33728 0.16004 0.30209 0.0
O27 O 0.30985 0.12011 0.34204 0.0
O28 O 0.31641 0.09876 0.25143 0.0
O29 O 0.36588 0.11511 0.25141 0.0
O30 O 0.31541 0.06882 0.31694 0.0
O31 O 0.34269 0.05274 0.27533 0.0
H32 H 0.47123 0.06068 0.27218 0.0
H33 H 0.53025 0.08619 0.27723 0.0
H34 H 0.54022 0.1795 0.24848 0.0
H35 H 0.48075 0.15381 0.24498 0.0
H36 H 0.28946 0.1505 0.25722 0.0
H37 H 0.24842 0.16612 0.24427 0.0
H38 H 0.23256 0.16799 0.36609 0.0
H39 H 0.27381 0.15257 0.37893 0.0
La40 La 0.75551 0.67005 0.28702 0.0
La41 La 0.82305 0.72046 0.30848 0.0
C42 C 0.70664 0.62172 0.25676 0.0
C43 C 0.68812 0.58567 0.26229 0.0
C44 C 0.65568 0.57033 0.27545 0.0
C45 C 0.63733 0.5364 0.27972 0.0
C46 C 0.65077 0.51667 0.27066 0.0
C47 C 0.68341 0.53209 0.25778 0.0
C48 C 0.70182 0.56612 0.25358 0.0
C49 C 0.76021 0.68576 0.36036 0.0
C50 C 0.80839 0.6489 0.29779 0.0
C51 C 0.87768 0.75491 0.34086 0.0
C52 C 0.91248 0.77436 0.32969 0.0
C53 C 0.92597 0.76441 0.30048 0.0
C54 C 0.95926 0.78313 0.2912 0.0
C55 C 0.97961 0.81229 0.31073 0.0
C56 C 0.96581 0.82218 0.33973 0.0
C57 C 0.93267 0.80341 0.34909 0.0
C58 C 0.81058 0.724 0.23473 0.0
C59 C 0.77181 0.74116 0.29677 0.0
O60 O 0.70451 0.63917 0.28416 0.0
O61 O 0.73638 0.63498 0.24332 0.0
O62 O 0.73458 0.67623 0.3394 0.0
O63 O 0.78201 0.68391 0.34101 0.0
O64 O 0.77706 0.6397 0.30063 0.0
O65 O 0.83092 0.68004 0.29573 0.0
O66 O 0.86347 0.72339 0.33711 0.0
O67 O 0.85885 0.76602 0.32963 0.0
O68 O 0.83268 0.7479 0.25427 0.0
O69 O 0.79975 0.69861 0.25532 0.0
O70 O 0.79389 0.74287 0.32119 0.0
O71 O 0.75641 0.71585 0.27355 0.0
H72 H 0.64438 0.58464 0.28233 0.0
H73 H 0.61255 0.52566 0.29039 0.0
H74 H 0.6946 0.51785 0.25012 0.0
H75 H 0.72668 0.57702 0.24312 0.0
H76 H 0.91085 0.74215 0.28491 0.0
H77 H 0.96899 0.77495 0.26849 0.0
H78 H 0.98078 0.84418 0.35577 0.0
H79 H 0.92281 0.8115 0.37177 0.0
La80 La 0.96226 0.30564 0.28145 0.0
La81 La 0.94347 0.23691 0.30285 0.0
C82 C 0.96495 0.35566 0.25089 0.0
C83 C 0.94982 0.37634 0.25709 0.0
C84 C 0.96332 0.40221 0.28333 0.0
C85 C 0.95026 0.42277 0.28765 0.0
C86 C 0.92338 0.41825 0.26574 0.0
C87 C 0.9097 0.3922 0.23969 0.0
C88 C 0.92281 0.37164 0.23532 0.0
C89 C 0.97326 0.29931 0.35458 0.0
C90 C 0.88763 0.25381 0.2931 0.0
C91 C 0.92311 0.1826 0.33692 0.0
C92 C 0.90787 0.14761 0.3282 0.0
C93 C 0.89569 0.13529 0.29163 0.0
C94 C 0.88072 0.1017 0.28472 0.0
C95 C 0.87764 0.07988 0.31431 0.0
C96 C 0.89044 0.09266 0.35066 0.0
C97 C 0.90531 0.12608 0.35748 0.0
C98 C 0.95825 0.25011 0.22878 0.0
C99 C 1.01583 0.28711 0.28962 0.0
O100 O 0.98516 0.35664 0.27696 0.0
O101 O 0.94621 0.32601 0.23861 0.0
O102 O 0.98939 0.32536 0.3339 0.0
O103 O 0.94936 0.27813 0.33519 0.0
O104 O 0.91031 0.28497 0.29556 0.0
O105 O 0.8955 0.23077 0.29134 0.0
O106 O 0.90546 0.19626 0.3313 0.0
O107 O 0.95309 0.2013 0.32521 0.0
O108 O 0.95891 0.22674 0.24729 0.0
O109 O 0.94522 0.26153 0.25051 0.0
O110 O 0.99543 0.26505 0.31437 0.0
O111 O 1.00621 0.30327 0.26702 0.0
H112 H 0.98426 0.40685 0.30043 0.0
H113 H 0.96125 0.4422 0.30838 0.0
H114 H 0.88929 0.38813 0.2219 0.0
H115 H 0.91205 0.35229 0.21444 0.0
H116 H 0.89753 0.15158 0.26859 0.0
H117 H 0.87104 0.09278 0.25645 0.0
H118 H 0.88923 0.07683 0.37393 0.0
H119 H 0.91478 0.13513 0.38582 0.0
La120 La 0.13446 0.3348 0.80092 0.0
La121 La 0.11205 0.38099 0.77747 0.0
C122 C 0.1598 0.30417 0.83104 0.0
C123 C 0.1619 0.27448 0.82557 0.0
C124 C 0.15751 0.26017 0.78928 0.0
C125 C 0.16601 0.23623 0.78292 0.0
C126 C 0.17917 0.22622 0.8127 0.0
C127 C 0.18185 0.23948 0.84948 0.0
C128 C 0.17332 0.26333 0.85578 0.0
C129 C 0.11743 0.32968 0.72774 0.0
C130 C 0.06056 0.30776 0.78829 0.0
C131 C 0.10729 0.42634 0.74521 0.0
C132 C 0.1247 0.46231 0.74954 0.0
C133 C 0.12875 0.47666 0.78583 0.0
C134 C 0.14407 0.51054 0.78941 0.0
C135 C 0.15605 0.53102 0.75688 0.0
C136 C 0.1528 0.51669 0.7207 0.0
C137 C 0.13716 0.48271 0.71708 0.0
C138 C 0.10033 0.36351 0.85036 0.0
C139 C 0.18651 0.41032 0.79573 0.0
O140 O 0.17344 0.32622 0.80401 0.0
O141 O 0.13217 0.3012 0.84292 0.0
O142 O 0.11504 0.30602 0.74872 0.0
O143 O 0.13157 0.35553 0.74711 0.0
O144 O 0.08228 0.30621 0.81067 0.0
O145 O 0.0685 0.3335 0.76582 0.0
O146 O 0.08918 0.40902 0.77413 0.0
O147 O 0.12401 0.41383 0.73083 0.0
O148 O 0.08263 0.37062 0.82866 0.0
O149 O 0.12585 0.36884 0.83199 0.0
O150 O 0.16242 0.41654 0.79254 0.0
O151 O 0.18091 0.38023 0.79786 0.0
H152 H 0.14879 0.26846 0.76547 0.0
H153 H 0.16304 0.22618 0.75443 0.0
H154 H 0.19218 0.23272 0.87306 0.0
H155 H 0.17723 0.27428 0.88389 0.0
H156 H 0.11985 0.46171 0.81154 0.0
H157 H 0.14663 0.52073 0.81777 0.0
H158 H 0.16158 0.53169 0.69503 0.0
H159 H 0.13449 0.47232 0.68881 0.0
La160 La 0.24699 0.92379 0.806 0.0
La161 La 0.31712 0.95078 0.78546 0.0
C162 C 0.18928 0.89534 0.83163 0.0
C163 C 0.15724 0.89248 0.82479 0.0
C164 C 0.14823 0.89771 0.78817 0.0
C165 C 0.11583 0.88918 0.78076 0.0
C166 C 0.09189 0.87532 0.80984 0.0
C167 C 0.10149 0.87149 0.84685 0.0
C168 C 0.13379 0.87996 0.85417 0.0
C169 C 0.26108 0.94179 0.73279 0.0
C170 C 0.29037 0.99855 0.79507 0.0
C171 C 0.37175 0.96095 0.76061 0.0
C172 C 0.38668 0.94025 0.75483 0.0
C173 C 0.37743 0.91253 0.77801 0.0
C174 C 0.39444 0.89551 0.7762 0.0
C175 C 0.4214 0.90588 0.7514 0.0
C176 C 0.42996 0.93304 0.72731 0.0
C177 C 0.41279 0.95 0.72903 0.0
C178 C 0.30763 0.95991 0.85799 0.0
C179 C 0.27286 0.87445 0.80013 0.0
O180 O 0.19975 0.88392 0.80448 0.0
O181 O 0.21273 0.92253 0.84599 0.0
O182 O 0.23861 0.94293 0.75248 0.0
O183 O 0.27304 0.92842 0.75338 0.0
O184 O 0.26699 0.97524 0.81627 0.0
O185 O 0.31081 0.99317 0.77421 0.0
O186 O 0.3656 0.96415 0.79631 0.0
O187 O 0.34783 0.95666 0.73805 0.0
O188 O 0.3317 0.98008 0.83654 0.0
O189 O 0.28951 0.93414 0.83914 0.0
O190 O 0.3013 0.89875 0.78865 0.0
O191 O 0.24906 0.87931 0.81088 0.0
H192 H 0.16594 0.90723 0.76497 0.0
H193 H 0.10942 0.89289 0.75209 0.0
H194 H 0.08374 0.86051 0.86984 0.0
H195 H 0.14013 0.87535 0.88248 0.0
H196 H 0.35785 0.90471 0.79876 0.0
H197 H 0.38729 0.87506 0.79556 0.0
H198 H 0.45027 0.9415 0.70745 0.0
H199 H 0.42056 0.97137 0.71102 0.0
La200 La 0.72313 0.81513 0.80419 0.0
La201 La 0.67977 0.74433 0.78804 0.0
C202 C 0.75165 0.87236 0.82992 0.0
C203 C 0.78162 0.90424 0.82571 0.0
C204 C 0.80024 0.91326 0.79175 0.0
C205 C 0.8251 0.94559 0.78583 0.0
C206 C 0.8317 0.96944 0.81374 0.0
C207 C 0.8138 0.95978 0.84835 0.0
C208 C 0.78906 0.92755 0.85422 0.0
C209 C 0.72677 0.79918 0.73229 0.0
C210 C 0.75503 0.77213 0.79471 0.0
C211 C 0.63657 0.6884 0.76591 0.0
C212 C 0.60083 0.67063 0.76003 0.0
C213 C 0.58339 0.63701 0.76722 0.0
C214 C 0.54927 0.6198 0.76705 0.0
C215 C 0.53154 0.63576 0.75966 0.0
C216 C 0.54916 0.6695 0.75164 0.0
C217 C 0.58347 0.68675 0.75179 0.0
C218 C 0.70039 0.75697 0.85955 0.0
C219 C 0.64755 0.78886 0.79636 0.0
O220 O 0.73223 0.86282 0.80027 0.0
O221 O 0.75361 0.8484 0.84617 0.0
O222 O 0.75048 0.82258 0.75083 0.0
O223 O 0.70133 0.78734 0.75308 0.0
O224 O 0.75588 0.79646 0.81399 0.0
O225 O 0.72837 0.75056 0.77614 0.0
O226 O 0.64546 0.6959 0.80151 0.0
O227 O 0.65512 0.71229 0.74231 0.0
O228 O 0.69709 0.73258 0.83981 0.0
O229 O 0.69155 0.77366 0.83948 0.0
O230 O 0.64266 0.75914 0.79166 0.0
O231 O 0.67684 0.81376 0.80244 0.0
H232 H 0.79477 0.89562 0.76927 0.0
H233 H 0.83871 0.95202 0.7591 0.0
H234 H 0.8178 0.97743 0.8703 0.0
H235 H 0.7747 0.92115 0.88042 0.0
H236 H 0.59621 0.62413 0.77423 0.0
H237 H 0.53681 0.59408 0.77411 0.0
H238 H 0.53647 0.68262 0.74545 0.0
H239 H 0.59636 0.71272 0.74627 0.0
H240 H 0.35777 1.00373 0.90004 0.0
H241 H 0.35823 1.01953 0.96611 0.0
H242 H 0.25627 0.94758 0.97768 0.0
H243 H 0.25568 0.93125 0.91017 0.0
H244 H 0.27196 1.00922 1.00643 0.0
H245 H 0.31087 0.93522 1.02386 0.0
H246 H 0.34449 0.91021 1.01039 0.0
H247 H 0.43138 1.0007 1.03464 0.0
H248 H 0.39833 0.02642 0.04771 0.0
H249 H 0.28316 0.05214 0.20335 0.0
H250 H 0.27362 1.02176 0.14402 0.0
H251 H 0.37658 0.07667 0.11789 0.0
H252 H 0.38628 0.10651 0.17839 0.0
H253 H 0.35435 1.01607 0.09935 0.0
H254 H 0.31636 0.09142 0.07499 0.0
H255 H 0.28347 0.11762 0.08619 0.0
H256 H 0.19547 0.02558 0.07321 0.0
H257 H 0.22783 0.99872 0.06261 0.0
C258 C 0.33535 0.99083 0.91653 0.0
C259 C 0.30666 0.96606 0.89971 0.0
C260 C 0.33575 0.99991 0.95459 0.0
C261 C 0.30745 0.98463 0.97728 0.0
C262 C 0.27853 0.95965 0.96083 0.0
C263 C 0.2782 0.95018 0.92238 0.0
C264 C 0.30865 0.99627 1.01743 0.0
C265 C 0.2894 1.01 1.02713 0.0
C266 C 0.33207 0.99821 0.04418 0.0
C267 C 0.35209 0.98281 1.03656 0.0
C268 C 0.33716 0.94987 1.02606 0.0
C269 C 0.35612 0.93555 1.01854 0.0
C270 C 0.39005 0.95387 1.0216 0.0
C271 C 0.40509 0.98654 1.03228 0.0
C272 C 0.38625 1.00099 1.03981 0.0
C273 C 0.30382 0.05783 0.18494 0.0
C274 C 0.3355 0.08191 0.1955 0.0
C275 C 0.29828 0.04046 0.15081 0.0
C276 C 0.3242 0.04723 0.12568 0.0
C277 C 0.35605 0.07095 0.13654 0.0
C278 C 0.36165 0.08806 0.17114 0.0
C279 C 0.3181 0.02966 0.0882 0.0
C280 C 0.33653 1.01491 0.07896 0.0
C281 C 0.29399 0.0269 0.06182 0.0
C282 C 0.27453 0.04301 0.0684 0.0
C283 C 0.28999 0.07672 0.07485 0.0
C284 C 0.27145 0.09169 0.08104 0.0
C285 C 0.23741 0.07327 0.08046 0.0
C286 C 0.22184 0.03983 0.07361 0.0
C287 C 0.24027 0.02471 0.06757 0.0
H288 H 0.22309 0.0849 0.08527 0.0
H289 H 0.40469 0.94273 1.01576 0.0
H290 H 0.7842 0.81204 0.69998 0.0
H291 H 0.7935 0.79149 0.64012 0.0
H292 H 0.68969 0.73615 0.62113 0.0
H293 H 0.68027 0.7562 0.68201 0.0
H294 H 0.716 0.70075 0.60208 0.0
H295 H 0.74304 0.81084 0.57312 0.0
H296 H 0.77178 0.8704 0.58128 0.0
H297 H 0.86377 0.8753 0.56313 0.0
H298 H 0.83561 0.81567 0.55557 0.0
H299 H 0.70874 0.67543 0.40367 0.0
H300 H 0.70772 0.69317 0.46858 0.0
H301 H 0.81217 0.73634 0.47546 0.0
H302 H 0.81333 0.71838 0.40924 0.0
H303 H 0.79087 0.77741 0.50279 0.0
H304 H 0.7635 0.66787 0.52637 0.0
H305 H 0.73464 0.60847 0.51694 0.0
H306 H 0.64348 0.60257 0.54448 0.0
H307 H 0.67173 0.66203 0.55353 0.0
C308 C 0.76328 0.79555 0.68304 0.0
C309 C 0.73144 0.78591 0.6957 0.0
C310 C 0.76868 0.78388 0.6486 0.0
C311 C 0.74242 0.7627 0.62534 0.0
C312 C 0.71048 0.75255 0.6383 0.0
C313 C 0.70504 0.76401 0.67313 0.0
C314 C 0.7483 0.75119 0.58767 0.0
C315 C 0.7321 0.71762 0.58027 0.0
C316 C 0.77026 0.77292 0.55942 0.0
C317 C 0.78722 0.80875 0.56414 0.0
C318 C 0.76941 0.82459 0.5712 0.0
C319 C 0.7856 0.85836 0.57568 0.0
C320 C 0.81958 0.87662 0.57281 0.0
C321 C 0.83745 0.86113 0.56535 0.0
C322 C 0.82139 0.82735 0.561 0.0
C323 C 0.73161 0.68842 0.41894 0.0
C324 C 0.76113 0.69524 0.40125 0.0
C325 C 0.73092 0.69848 0.45632 0.0
C326 C 0.75975 0.71578 0.47742 0.0
C327 C 0.78951 0.72283 0.45993 0.0
C328 C 0.79018 0.71242 0.42222 0.0
C329 C 0.75813 0.72708 0.51705 0.0
C330 C 0.77506 0.76057 0.5248 0.0
C331 C 0.73687 0.7053 0.54566 0.0
C332 C 0.71974 0.66948 0.54037 0.0
C333 C 0.73727 0.65396 0.53014 0.0
C334 C 0.72102 0.62026 0.52491 0.0
C335 C 0.68724 0.60177 0.53004 0.0
C336 C 0.66965 0.61693 0.5405 0.0
C337 C 0.68577 0.65063 0.54573 0.0
H338 H 0.6747 0.57568 0.52598 0.0
H339 H 0.83207 0.90277 0.57628 0.0
H340 H 0.98807 0.31278 0.20018 0.0
H341 H 1.01781 0.33288 0.13977 0.0
H342 H 0.98929 0.2344 0.10785 0.0
H343 H 0.96332 0.21508 0.17065 0.0
H344 H 0.04242 0.26586 0.0795 0.0
H345 H 0.95271 0.28619 0.07276 0.0
H346 H 0.91801 0.30816 0.09439 0.0
H347 H 1.00025 0.40529 0.089 0.0
H348 H 1.0355 0.38385 0.06771 0.0
H349 H 0.03915 0.33648 0.87749 0.0
H350 H 1.01868 0.3174 0.94181 0.0
H351 H 0.1147 0.3395 0.97763 0.0
H352 H 0.13553 0.35846 0.91176 0.0
H353 H 1.03118 0.34871 1.00456 0.0
H354 H 0.10437 0.28737 0.05555 0.0
H355 H 0.12987 0.25791 1.02735 0.0
H356 H 0.06391 0.22918 0.93218 0.0
H357 H 0.03769 0.25793 0.96011 0.0
C358 C 0.98816 0.29544 0.1803 0.0
C359 C 0.97308 0.26227 0.19016 0.0
C360 C 1.00498 0.30692 0.14528 0.0
C361 C 1.0053 0.28528 0.11792 0.0
C362 C 0.9898 0.25197 0.12789 0.0
C363 C 0.97447 0.24077 0.16374 0.0
C364 C 1.02137 0.29703 0.07906 0.0
C365 C 0.03981 0.28399 0.06331 0.0
C366 C 1.01804 0.32043 0.05688 0.0
C367 C 0.99677 0.33339 0.06902 0.0
C368 C 0.96339 0.31222 0.07631 0.0
C369 C 0.94364 0.32457 0.08852 0.0
C370 C 0.95694 0.35808 0.09318 0.0
C371 C 0.98999 0.37933 0.08544 0.0
C372 C 1.00986 0.36711 0.07327 0.0
C373 C 0.0561 0.33725 0.89887 0.0
C374 C 0.08914 0.34939 0.8895 0.0
C375 C 0.04426 0.32636 0.93589 0.0
C376 C 0.06502 0.32727 0.96507 0.0
C377 C 0.09804 0.33845 0.95571 0.0
C378 C 0.10999 0.34928 0.9181 0.0
C379 C 0.05155 0.31714 1.00502 0.0
C380 C 1.0338 0.33067 1.02099 0.0
C381 C 0.05407 0.29301 1.02634 0.0
C382 C 0.06942 0.27524 1.00969 0.0
C383 C 0.09527 0.27469 1.02867 0.0
C384 C 0.10983 0.2581 1.01273 0.0
C385 C 0.09862 0.24182 0.97791 0.0
C386 C 0.07268 0.24192 0.95906 0.0
C387 C 0.05799 0.25839 0.97492 0.0
H388 H 0.10997 0.22905 0.96559 0.0
H389 H 0.94163 0.36759 0.10271 0.0
H390 H 0.39062 0.05462 0.40505 0.0
H391 H 0.37136 0.03429 0.46953 0.0
H392 H 0.31623 0.08397 0.47067 0.0
H393 H 0.33622 0.10515 0.40511 0.0
H394 H 0.34499 0.08562 0.54255 0.0
H395 H 0.27592 1.00371 0.45383 0.0
H396 H 0.26233 0.96757 0.39804 0.0
H397 H 0.31397 0.92369 0.44776 0.0
H398 H 0.32787 0.95954 0.50395 0.0
H399 H 0.24823 0.98625 0.70028 0.0
H400 H 0.26792 1.0152 0.63913 0.0
H401 H 0.32285 0.96666 0.61967 0.0
H402 H 0.30277 0.93722 0.68111 0.0
H403 H 0.29017 0.96542 0.55632 0.0
H404 H 0.36091 0.04878 0.64377 0.0
H405 H 0.3759 0.08595 0.69875 0.0
H406 H 0.32091 0.12719 0.65147 0.0
H407 H 0.30536 0.09006 0.59631 0.0
C408 C 0.37477 0.06175 0.41905 0.0
C409 C 0.36482 0.08141 0.39974 0.0
C410 C 0.36359 0.04987 0.45602 0.0
C411 C 0.34164 0.0568 0.47482 0.0
C412 C 0.33296 0.07802 0.45666 0.0
C413 C 0.34448 0.09026 0.41929 0.0
C414 C 0.32724 0.04044 0.51255 0.0
C415 C 0.33239 0.05932 0.54545 0.0
C416 C 0.31139 1.00608 0.51673 0.0
C417 C 0.30312 0.98448 0.48298 0.0
C418 C 0.28456 0.9865 0.45276 0.0
C419 C 0.27677 0.96605 0.42108 0.0
C420 C 0.28743 0.9435 0.41923 0.0
C421 C 0.30576 0.94121 0.44919 0.0
C422 C 0.31351 0.96151 0.48104 0.0
C423 C 0.26456 0.98172 0.68304 0.0
C424 C 0.27401 0.95943 0.69564 0.0
C425 C 0.27602 0.99855 0.64812 0.0
C426 C 0.29722 0.99353 0.6247 0.0
C427 C 0.30664 0.97115 0.63719 0.0
C428 C 0.29531 0.95442 0.6724 0.0
C429 C 0.30839 1.01057 0.58659 0.0
C430 C 0.30252 0.99173 0.55351 0.0
C431 C 0.3234 0.0449 0.58235 0.0
C432 C 0.33185 0.06654 0.61602 0.0
C433 C 0.3518 0.0656 0.64525 0.0
C434 C 0.36052 0.08676 0.67634 0.0
C435 C 0.34957 0.10907 0.67843 0.0
C436 C 0.32957 0.11004 0.64965 0.0
C437 C 0.32081 0.08897 0.61846 0.0
H438 H 0.35644 0.1255 0.70247 0.0
H439 H 0.28138 0.92772 0.39464 0.0
H440 H 0.68017 0.77383 0.92585 0.0
H441 H 0.69756 0.77088 0.99168 0.0
H442 H 0.77087 0.75161 0.946 0.0
H443 H 0.752 0.75223 0.88137 0.0
H444 H 0.74255 0.71065 0.9972 0.0
H445 H 0.78653 0.82692 0.99409 0.0
H446 H 0.78414 0.87733 0.98586 0.0
H447 H 0.71296 0.84696 0.07643 0.0
H448 H 0.71484 0.7963 0.08513 0.0
H449 H 0.83674 0.77823 0.18955 0.0
H450 H 0.81708 0.78658 0.12813 0.0
H451 H 0.7364 0.6879 0.13304 0.0
H452 H 0.7568 0.67929 0.19395 0.0
H453 H 0.76575 0.78735 0.10423 0.0
H454 H 0.7135 0.65753 0.04425 0.0
H455 H 0.72263 0.61085 0.04948 0.0
H456 H 0.82272 0.67538 0.07924 0.0
H457 H 0.81428 0.72244 0.07374 0.0
C458 C 0.70057 0.7699 0.93005 0.0
C459 C 0.71508 0.76378 0.89841 0.0
C460 C 0.71051 0.76809 0.96774 0.0
C461 C 0.73567 0.7609 0.97433 0.0
C462 C 0.75122 0.75678 0.94227 0.0
C463 C 0.74075 0.75768 0.90507 0.0
C464 C 0.74471 0.75534 1.01395 0.0
C465 C 0.74756 0.72756 1.02047 0.0
C466 C 0.75145 0.77713 0.04481 0.0
C467 C 0.75057 0.80769 1.03996 0.0
C468 C 0.77025 0.83094 1.01212 0.0
C469 C 0.76904 0.85957 1.00743 0.0
C470 C 0.74836 0.8653 1.03057 0.0
C471 C 0.72894 0.84246 0.05852 0.0
C472 C 0.73013 0.81383 0.06341 0.0
C473 C 0.81494 0.75816 0.1774 0.0
C474 C 0.79853 0.72789 0.19662 0.0
C475 C 0.80351 0.76309 0.14233 0.0
C476 C 0.77529 0.73789 0.12538 0.0
C477 C 0.75855 0.7077 0.14488 0.0
C478 C 0.7702 0.7027 0.17988 0.0
C479 C 0.76414 0.74306 0.08695 0.0
C480 C 0.76064 0.77052 0.08084 0.0
C481 C 0.75772 0.72152 0.05598 0.0
C482 C 0.76313 0.69342 0.05902 0.0
C483 C 0.73747 0.66174 0.05181 0.0
C484 C 0.74252 0.63522 0.05484 0.0
C485 C 0.7732 0.64013 0.06483 0.0
C486 C 0.79894 0.67159 0.07166 0.0
C487 C 0.79402 0.69818 0.06863 0.0
H488 H 0.77705 0.61958 0.06719 0.0
H489 H 0.74743 0.88747 1.02687 0.0
H490 H 1.01789 0.34906 0.39638 0.0
H491 H 0.03768 0.3485 0.46027 0.0
H492 H 0.97051 0.24525 0.46973 0.0
H493 H 0.94996 0.24572 0.40449 0.0
H494 H 0.9758 0.27767 0.53934 0.0
H495 H 0.04881 0.26691 0.45768 0.0
H496 H 0.08425 0.27598 0.40193 0.0
H497 H 0.1441 0.3766 0.43218 0.0
H498 H 0.10909 0.36783 0.48883 0.0
H499 H 0.07316 0.27233 0.69582 0.0
H500 H 0.04457 0.26322 0.63476 0.0
H501 H 0.09575 0.36667 0.61278 0.0
H502 H 0.12425 0.37597 0.67445 0.0
H503 H 0.09592 0.32732 0.55008 0.0
H504 H 1.01843 0.33073 0.63862 0.0
H505 H 0.98384 0.31266 0.69678 0.0
H506 H 0.93168 0.21508 0.65384 0.0
H507 H 0.96624 0.23248 0.59557 0.0
C508 C 1.007 0.32609 0.41188 0.0
C509 C 0.98236 0.29737 0.39508 0.0
C510 C 1.01852 0.32584 0.4486 0.0
C511 C 1.0061 0.29681 0.46987 0.0
C512 C 0.98062 0.26801 0.4539 0.0
C513 C 0.96888 0.26825 0.41666 0.0
C514 C 1.0211 0.29745 0.50797 0.0
C515 C 1.00197 0.288 0.54161 0.0
C516 C 0.05528 0.3109 0.51138 0.0
C517 C 0.07619 0.31679 0.47719 0.0
C518 C 0.06939 0.29103 0.45227 0.0
C519 C 0.08949 0.29611 0.42058 0.0
C520 C 0.11632 0.32696 0.4132 0.0
C521 C 0.12326 0.35274 0.43784 0.0
C522 C 0.10341 0.34768 0.46991 0.0
C523 C 0.07833 0.29321 0.67805 0.0
C524 C 0.10085 0.32495 0.69014 0.0
C525 C 0.06179 0.28793 0.6432 0.0
C526 C 0.0677 0.31424 0.61923 0.0
C527 C 0.0906 0.34598 0.6309 0.0
C528 C 0.10681 0.35132 0.66619 0.0
C529 C 0.05083 0.30848 0.58147 0.0
C530 C 0.06972 0.31696 0.54784 0.0
C531 C 1.01639 0.29314 0.57829 0.0
C532 C 0.99506 0.28288 0.61283 0.0
C533 C 0.99967 0.30539 0.64163 0.0
C534 C 0.98003 0.29528 0.67459 0.0
C535 C 0.95556 0.26276 0.67897 0.0
C536 C 0.95061 0.24028 0.65035 0.0
C537 C 0.97018 0.25027 0.61733 0.0
H538 H 0.94048 0.25494 0.70459 0.0
H539 H 0.1318 0.33087 0.38851 0.0
H540 H 0.58559 0.19585 0.29019 0.0
H541 H 0.64464 0.21927 0.29651 0.0
H542 H 0.63714 0.13236 0.2486 0.0
H543 H 0.57848 0.10911 0.2413 0.0
H544 H 0.67414 0.15095 0.31359 0.0
H545 H 0.66742 0.20275 0.1963 0.0
H546 H 0.64998 0.23552 0.15876 0.0
H547 H 0.70397 0.31663 0.23353 0.0
H548 H 0.72135 0.28415 0.27189 0.0
H549 H 0.83598 0.19439 0.2744 0.0
H550 H 0.77854 0.17811 0.27032 0.0
H551 H 0.80105 0.27435 0.30419 0.0
H552 H 0.8592 0.29129 0.30682 0.0
H553 H 0.75645 0.25443 0.2516 0.0
H554 H 0.76523 0.20623 0.36766 0.0
H555 H 0.78103 0.17456 0.40979 0.0
H556 H 0.72213 0.08873 0.3437 0.0
H557 H 0.70631 0.11999 0.30083 0.0
C558 C 0.59646 0.18182 0.28046 0.0
C559 C 0.57686 0.15032 0.26548 0.0
C560 C 0.63034 0.19526 0.28426 0.0
C561 C 0.64551 0.17762 0.27308 0.0
C562 C 0.6261 0.14641 0.25777 0.0
C563 C 0.59237 0.13305 0.25379 0.0
C564 C 0.68144 0.19114 0.27772 0.0
C565 C 0.69212 0.1734 0.29968 0.0
C566 C 0.70507 0.22111 0.26089 0.0
C567 C 0.69545 0.24093 0.23716 0.0
C568 C 0.67545 0.22753 0.20484 0.0
C569 C 0.66558 0.24605 0.18341 0.0
C570 C 0.6758 0.27811 0.1938 0.0
C571 C 0.69605 0.29178 0.22554 0.0
C572 C 0.70595 0.27334 0.24711 0.0
C573 C 0.82886 0.21219 0.28116 0.0
C574 C 0.85239 0.24413 0.29138 0.0
C575 C 0.79578 0.20274 0.27897 0.0
C576 C 0.78499 0.22467 0.28779 0.0
C577 C 0.80849 0.2568 0.29742 0.0
C578 C 0.84181 0.26644 0.29911 0.0
C579 C 0.74926 0.2138 0.28684 0.0
C580 C 0.73857 0.23205 0.26571 0.0
C581 C 0.72551 0.18451 0.305 0.0
C582 C 0.73479 0.16553 0.33084 0.0
C583 C 0.75581 0.18065 0.36196 0.0
C584 C 0.76475 0.16277 0.38599 0.0
C585 C 0.75265 0.12968 0.37937 0.0
C586 C 0.7315 0.11438 0.34877 0.0
C587 C 0.72251 0.13215 0.32462 0.0
H588 H 0.75961 0.11588 0.39801 0.0
H589 H 0.66805 0.29237 0.17725 0.0
H590 H 0.58588 0.47732 0.25387 0.0
H591 H 0.55218 0.41852 0.26211 0.0
H592 H 0.6356 0.41376 0.30247 0.0
H593 H 0.66963 0.473 0.2949 0.0
H594 H 0.59787 0.36279 0.25383 0.0
H595 H 0.58092 0.40863 0.36627 0.0
H596 H 0.56924 0.44534 0.40406 0.0
H597 H 0.47455 0.40416 0.35269 0.0
H598 H 0.48585 0.36752 0.31411 0.0
H599 H 0.48654 0.19567 0.31162 0.0
H600 H 0.53034 0.25294 0.31107 0.0
H601 H 0.46021 0.28238 0.28288 0.0
H602 H 0.41667 0.22597 0.28525 0.0
H603 H 0.49774 0.32085 0.33356 0.0
H604 H 0.51871 0.27807 0.216 0.0
H605 H 0.53137 0.24067 0.18109 0.0
H606 H 0.6196 0.27511 0.24566 0.0
H607 H 0.60729 0.3125 0.2812 0.0
C608 C 0.59717 0.46398 0.26488 0.0
C609 C 0.63055 0.48027 0.27419 0.0
C610 C 0.5778 0.43018 0.26938 0.0
C611 C 0.59115 0.41159 0.28341 0.0
C612 C 0.62466 0.42749 0.29162 0.0
C613 C 0.64412 0.46144 0.28719 0.0
C614 C 0.56963 0.37582 0.29046 0.0
C615 C 0.57617 0.35358 0.27165 0.0
C616 C 0.54134 0.3636 0.31381 0.0
C617 C 0.53435 0.3855 0.33707 0.0
C618 C 0.5577 0.40756 0.36281 0.0
C619 C 0.55114 0.42834 0.3844 0.0
C620 C 0.5212 0.42713 0.38072 0.0
C621 C 0.49774 0.40509 0.35548 0.0
C622 C 0.5042 0.38429 0.33377 0.0
C623 C 0.48053 0.21443 0.30545 0.0
C624 C 0.44797 0.20611 0.29874 0.0
C625 C 0.50567 0.24723 0.30484 0.0
C626 C 0.49888 0.27233 0.2965 0.0
C627 C 0.46635 0.26379 0.28961 0.0
C628 C 0.44132 0.2313 0.29093 0.0
C629 C 0.52491 0.30759 0.29537 0.0
C630 C 0.51941 0.32989 0.31571 0.0
C631 C 0.55416 0.31969 0.27362 0.0
C632 C 0.56192 0.29784 0.2515 0.0
C633 C 0.54076 0.27759 0.22282 0.0
C634 C 0.54787 0.2564 0.20292 0.0
C635 C 0.57624 0.25547 0.21121 0.0
C636 C 0.59763 0.27585 0.23928 0.0
C637 C 0.59061 0.29706 0.25927 0.0
H638 H 0.58166 0.23899 0.19586 0.0
H639 H 0.51616 0.44323 0.39748 0.0
H640 H 0.85922 0.40363 0.26496 0.0
H641 H 0.83803 0.44093 0.27129 0.0
H642 H 0.93614 0.52173 0.2817 0.0
H643 H 0.95748 0.48465 0.27534 0.0
H644 H 0.89838 0.52739 0.333 0.0
H645 H 0.89069 0.50644 0.19763 0.0
H646 H 0.87397 0.47246 0.13963 0.0
H647 H 0.77322 0.4329 0.17051 0.0
H648 H 0.78937 0.46635 0.229 0.0
H649 H 0.87058 0.65879 0.29769 0.0
H650 H 0.88768 0.61822 0.29367 0.0
H651 H 0.78706 0.5416 0.29022 0.0
H652 H 0.76965 0.58217 0.29413 0.0
H653 H 0.8235 0.53192 0.23707 0.0
H654 H 0.83156 0.55483 0.37133 0.0
H655 H 0.84868 0.58947 0.42876 0.0
H656 H 0.94924 0.62592 0.39943 0.0
H657 H 0.93272 0.59181 0.34149 0.0
C658 C 0.87636 0.42937 0.26824 0.0
C659 C 0.91016 0.44097 0.2696 0.0
C660 C 0.86416 0.45075 0.2719 0.0
C661 C 0.88541 0.48437 0.27662 0.0
C662 C 0.91912 0.49596 0.27823 0.0
C663 C 0.93132 0.47462 0.27469 0.0
C664 C 0.87271 0.5075 0.28016 0.0
C665 C 0.88232 0.52859 0.31172 0.0
C666 C 0.85101 0.50871 0.25306 0.0
C667 C 0.84125 0.48863 0.2179 0.0
C668 C 0.86497 0.4903 0.19221 0.0
C669 C 0.8556 0.47117 0.15922 0.0
C670 C 0.82256 0.45046 0.15145 0.0
C671 C 0.79881 0.44891 0.1766 0.0
C672 C 0.80806 0.46796 0.20966 0.0
C673 C 0.85197 0.63332 0.29622 0.0
C674 C 0.81865 0.62387 0.29635 0.0
C675 C 0.86185 0.61006 0.29404 0.0
C676 C 0.83872 0.57668 0.29199 0.0
C677 C 0.80543 0.56714 0.29182 0.0
C678 C 0.79549 0.59042 0.29421 0.0
C679 C 0.84945 0.55195 0.28968 0.0
C680 C 0.83945 0.53059 0.2584 0.0
C681 C 0.87086 0.55053 0.31697 0.0
C682 C 0.88089 0.57098 0.35187 0.0
C683 C 0.85733 0.57041 0.37696 0.0
C684 C 0.86692 0.58992 0.40964 0.0
C685 C 0.90003 0.60994 0.41769 0.0
C686 C 0.92361 0.61042 0.39313 0.0
C687 C 0.91414 0.59099 0.36039 0.0
H688 H 0.90741 0.62502 0.44301 0.0
H689 H 0.81535 0.43568 0.12589 0.0
H690 H 0.21107 0.57969 0.72133 0.0
H691 H 0.2349 0.63875 0.72765 0.0
H692 H 0.15852 0.62292 0.8074 0.0
H693 H 0.13453 0.56406 0.80093 0.0
H694 H 0.16855 0.66881 0.7526 0.0
H695 H 0.23481 0.64566 0.83849 0.0
H696 H 0.27083 0.62357 0.85346 0.0
H697 H 0.34073 0.68835 0.77034 0.0
H698 H 0.30489 0.71053 0.75448 0.0
H699 H 0.2222 0.82058 0.83363 0.0
H700 H 0.20719 0.76383 0.82578 0.0
H701 H 0.29254 0.79328 0.75528 0.0
H702 H 0.30822 0.85061 0.76373 0.0
H703 H 0.28099 0.7416 0.79948 0.0
H704 H 0.21833 0.76638 0.71405 0.0
H705 H 0.1828 0.78785 0.69409 0.0
H706 H 0.1071 0.71981 0.76957 0.0
H707 H 0.14238 0.69825 0.79045 0.0
C708 C 0.19934 0.58881 0.74013 0.0
C709 C 0.17097 0.56706 0.76075 0.0
C710 C 0.2131 0.6226 0.74392 0.0
C711 C 0.19867 0.63539 0.76825 0.0
C712 C 0.17019 0.61372 0.78855 0.0
C713 C 0.15662 0.58001 0.78503 0.0
C714 C 0.21271 0.67126 0.77232 0.0
C715 C 0.193 0.68463 0.76328 0.0
C716 C 0.24509 0.69223 0.78478 0.0
C717 C 0.26703 0.67954 0.79505 0.0
C718 C 0.25779 0.65508 0.82326 0.0
C719 C 0.27818 0.64255 0.83192 0.0
C720 C 0.30802 0.6545 0.8128 0.0
C721 C 0.3176 0.67911 0.78511 0.0
C722 C 0.29727 0.69169 0.7763 0.0
C723 C 0.23807 0.81516 0.81676 0.0
C724 C 0.26629 0.8403 0.799 0.0
C725 C 0.22934 0.78256 0.81215 0.0
C726 C 0.24824 0.77404 0.78914 0.0
C727 C 0.27738 0.79911 0.77296 0.0
C728 C 0.28634 0.83193 0.77784 0.0
C729 C 0.23645 0.73901 0.78075 0.0
C730 C 0.25657 0.72581 0.78872 0.0
C731 C 0.20455 0.71816 0.76668 0.0
C732 C 0.18312 0.73089 0.75406 0.0
C733 C 0.19419 0.75615 0.72661 0.0
C734 C 0.17409 0.76832 0.7151 0.0
C735 C 0.14274 0.75526 0.73062 0.0
C736 C 0.13141 0.72993 0.75761 0.0
C737 C 0.15144 0.7177 0.76927 0.0
H738 H 0.12721 0.76471 0.72167 0.0
H739 H 0.32373 0.64471 0.81947 0.0
H740 H 0.48802 0.93439 0.74724 0.0
H741 H 0.5211 0.90843 0.75193 0.0
H742 H 0.43399 0.81447 0.76358 0.0
H743 H 0.40058 0.84038 0.75887 0.0
H744 H 0.47784 0.81868 0.81366 0.0
H745 H 0.47927 0.83718 0.67968 0.0
H746 H 0.48536 0.86773 0.61978 0.0
H747 H 0.58604 0.93361 0.6456 0.0
H748 H 0.58046 0.90374 0.70597 0.0
H749 H 0.58091 0.74548 0.79145 0.0
H750 H 0.53748 0.75882 0.78148 0.0
H751 H 0.60919 0.86112 0.78204 0.0
H752 H 0.65218 0.8483 0.79206 0.0
H753 H 0.56691 0.84423 0.72044 0.0
H754 H 0.56157 0.82664 0.85863 0.0
H755 H 0.55403 0.79385 0.917 0.0
H756 H 0.45824 0.72237 0.87963 0.0
H757 H 0.4654 0.75459 0.82076 0.0
C758 C 0.47575 0.90814 0.75013 0.0
C759 C 0.44149 0.88956 0.75237 0.0
C760 C 0.49479 0.89326 0.75293 0.0
C761 C 0.48016 0.85932 0.75765 0.0
C762 C 0.44596 0.84066 0.75997 0.0
C763 C 0.42686 0.85556 0.75729 0.0
C764 C 0.50079 0.84372 0.76082 0.0
C765 C 0.4969 0.82381 0.79283 0.0
C766 C 0.52581 0.85026 0.73383 0.0
C767 C 0.52936 0.86834 0.69753 0.0
C768 C 0.50266 0.85833 0.67274 0.0
C769 C 0.50602 0.8755 0.63868 0.0
C770 C 0.53605 0.90263 0.62893 0.0
C771 C 0.56279 0.9126 0.6532 0.0
C772 C 0.55955 0.89553 0.68733 0.0
C773 C 0.58737 0.77079 0.78962 0.0
C774 C 0.62019 0.79573 0.79258 0.0
C775 C 0.5625 0.77839 0.78398 0.0
C776 C 0.57006 0.81104 0.78088 0.0
C777 C 0.6027 0.83579 0.78412 0.0
C778 C 0.62732 0.8283 0.7901 0.0
C779 C 0.54456 0.82013 0.77377 0.0
C780 C 0.54752 0.83878 0.74093 0.0
C781 C 0.5185 0.81206 0.79969 0.0
C782 C 0.51417 0.79281 0.8351 0.0
C783 C 0.53901 0.80379 0.86271 0.0
C784 C 0.53479 0.78535 0.89591 0.0
C785 C 0.50571 0.75599 0.90196 0.0
C786 C 0.48077 0.74508 0.87487 0.0
C787 C 0.48489 0.76343 0.84159 0.0
H788 H 0.50249 0.74175 0.92769 0.0
H789 H 0.53861 0.91589 0.60253 0.0
H790 H 0.21113 0.47598 0.80895 0.0
H791 H 0.26858 0.5195 0.80714 0.0
H792 H 0.29692 0.44912 0.77695 0.0
H793 H 0.2404 0.40587 0.78075 0.0
H794 H 0.33729 0.48632 0.82518 0.0
H795 H 0.29198 0.50782 0.71049 0.0
H796 H 0.25438 0.52058 0.67576 0.0
H797 H 0.28861 0.60803 0.74109 0.0
H798 H 0.32629 0.59566 0.77641 0.0
H799 H 0.4897 0.57346 0.73553 0.0
H800 H 0.43082 0.54102 0.74515 0.0
H801 H 0.43074 0.62304 0.79712 0.0
H802 H 0.4901 0.65569 0.78852 0.0
H803 H 0.37672 0.58681 0.74664 0.0
H804 H 0.42715 0.56794 0.85481 0.0
H805 H 0.46549 0.55522 0.88769 0.0
H806 H 0.42104 0.46181 0.83343 0.0
H807 H 0.38273 0.47417 0.79974 0.0
C808 C 0.22971 0.46987 0.80216 0.0
C809 C 0.22108 0.43734 0.79527 0.0
C810 C 0.2626 0.49484 0.80079 0.0
C811 C 0.28743 0.48791 0.79144 0.0
C812 C 0.27857 0.45538 0.7845 0.0
C813 C 0.24602 0.43052 0.78665 0.0
C814 C 0.32273 0.51382 0.78907 0.0
C815 C 0.34573 0.50808 0.80765 0.0
C816 C 0.33418 0.54312 0.76757 0.0
C817 C 0.31171 0.55066 0.74628 0.0
C818 C 0.29136 0.52968 0.71756 0.0
C819 C 0.27007 0.53686 0.69776 0.0
C820 C 0.2691 0.56507 0.70624 0.0
C821 C 0.28941 0.58619 0.73456 0.0
C822 C 0.31077 0.57913 0.75444 0.0
C823 C 0.47733 0.58473 0.74915 0.0
C824 C 0.49498 0.61719 0.76174 0.0
C825 C 0.44353 0.56613 0.75443 0.0
C826 C 0.42632 0.57941 0.77232 0.0
C827 C 0.44346 0.61223 0.78327 0.0
C828 C 0.47745 0.63091 0.77819 0.0
C829 C 0.39085 0.55822 0.78118 0.0
C830 C 0.36804 0.56506 0.76426 0.0
C831 C 0.37942 0.52976 0.80404 0.0
C832 C 0.40222 0.5221 0.82454 0.0
C833 C 0.4257 0.54478 0.84968 0.0
C834 C 0.44741 0.53762 0.86849 0.0
C835 C 0.44574 0.50775 0.8626 0.0
C836 C 0.42231 0.48495 0.83795 0.0
C837 C 0.40057 0.492 0.81902 0.0
H838 H 0.46257 0.50226 0.87719 0.0
H839 H 0.25271 0.57063 0.69073 0.0
H840 H 0.2473 0.21756 0.2541 0.0
H841 H 0.21318 0.24222 0.24463 0.0
H842 H 0.14407 0.17556 0.32784 0.0
H843 H 0.17804 0.15063 0.33733 0.0
H844 H 0.11357 0.18384 0.26376 0.0
H845 H 0.19687 0.25 0.35475 0.0
H846 H 0.25334 0.2834 0.37768 0.0
H847 H 0.27491 0.35048 0.2839 0.0
H848 H 0.21864 0.31719 0.2601 0.0
H849 H 0.05929 0.2945 0.34437 0.0
H850 H 0.10305 0.28141 0.33841 0.0
H851 H 0.08489 0.26642 0.21711 0.0
H852 H 0.04182 0.28064 0.22271 0.0
H853 H 0.16034 0.30063 0.29558 0.0
H854 H 0.07959 0.19207 0.20064 0.0
H855 H 1.02157 0.15899 0.18278 0.0
H856 H 0.9929 0.17582 0.29336 0.0
H857 H 0.0507 0.20864 0.31198 0.0
C858 C 0.22459 0.20779 0.26997 0.0
C859 C 0.21543 0.18209 0.29652 0.0
C860 C 0.20521 0.22207 0.26469 0.0
C861 C 0.17612 0.2109 0.28567 0.0
C862 C 0.16638 0.1846 0.31131 0.0
C863 C 0.18593 0.17051 0.3169 0.0
C864 C 0.15659 0.22748 0.28218 0.0
C865 C 0.12395 0.20944 0.27035 0.0
C866 C 0.16989 0.26085 0.29111 0.0
C867 C 0.20368 0.2809 0.3054 0.0
C868 C 0.21374 0.27171 0.33883 0.0
C869 C 0.24569 0.29065 0.35202 0.0
C870 C 0.26773 0.31899 0.33219 0.0
C871 C 0.25783 0.32849 0.29919 0.0
C872 C 0.22591 0.3096 0.28584 0.0
C873 C 0.06563 0.28975 0.31622 0.0
C874 C 0.0475 0.28885 0.28397 0.0
C875 C 0.09046 0.28216 0.31289 0.0
C876 C 0.09688 0.27249 0.27756 0.0
C877 C 0.08029 0.27373 0.24472 0.0
C878 C 0.05589 0.28211 0.24786 0.0
C879 C 0.11758 0.25712 0.27664 0.0
C880 C 0.1503 0.27526 0.28801 0.0
C881 C 0.10425 0.22376 0.26782 0.0
C882 C 0.06944 0.20303 0.2575 0.0
C883 C 0.06088 0.18854 0.22118 0.0
C884 C 1.02804 0.16989 0.21092 0.0
C885 C 1.00357 0.16542 0.23687 0.0
C886 C 1.01187 0.17941 0.27323 0.0
C887 C 0.04466 0.19804 0.28364 0.0
H888 H 0.97818 0.15106 0.22883 0.0
H889 H 0.29245 0.33363 0.34246 0.0
H890 H 1.02285 0.79105 0.29608 0.0
H891 H 0.08189 0.82413 0.28573 0.0
H892 H 0.07605 0.91155 0.29531 0.0
H893 H 1.01705 0.8787 0.30469 0.0
H894 H 0.11896 0.91864 0.23957 0.0
H895 H 0.09727 0.88158 0.37179 0.0
H896 H 0.0745 0.84038 0.42367 0.0
H897 H 0.12998 0.79765 0.3829 0.0
H898 H 0.15276 0.83838 0.33044 0.0
H899 H 0.27197 1.01812 0.3535 0.0
H900 H 0.21737 0.9709 0.34919 0.0
H901 H 0.23797 0.95373 0.23379 0.0
H902 H 0.2932 1.00146 0.23805 0.0
H903 H 0.18919 0.90624 0.33575 0.0
H904 H 0.16947 0.93388 0.18183 0.0
H905 H 0.19405 0.97971 0.13544 0.0
H906 H 0.22165 0.04777 0.22786 0.0
H907 H 0.197 1.00237 0.27467 0.0
C908 C 1.03404 0.81731 0.29532 0.0
C909 C 1.01518 0.83219 0.3016 0.0
C910 C 0.06786 0.83621 0.28961 0.0
C911 C 0.08355 0.87039 0.2901 0.0
C912 C 0.06459 0.88526 0.29482 0.0
C913 C 1.03085 0.86641 0.3006 0.0
C914 C 0.11981 0.8908 0.28827 0.0
C915 C 0.1343 0.91558 0.26028 0.0
C916 C 0.14003 0.88719 0.31544 0.0
C917 C 0.12638 0.86273 0.34694 0.0
C918 C 0.10439 0.86322 0.37371 0.0
C919 C 0.09153 0.83999 0.40325 0.0
C920 C 0.1007 0.81634 0.4065 0.0
C921 C 0.12284 0.81593 0.38029 0.0
C922 C 0.13574 0.83908 0.35065 0.0
C923 C 0.26517 1.00391 0.32744 0.0
C924 C 0.28675 1.01362 0.29599 0.0
C925 C 0.23394 0.9768 0.32508 0.0
C926 C 0.22337 0.95893 0.29106 0.0
C927 C 0.24555 0.9673 0.26028 0.0
C928 C 0.27713 0.99443 0.26279 0.0
C929 C 0.18823 0.93401 0.28718 0.0
C930 C 0.17392 0.90855 0.31425 0.0
C931 C 0.16814 0.93741 0.25969 0.0
C932 C 0.18163 0.96476 0.23167 0.0
C933 C 0.18059 0.95863 0.19216 0.0
C934 C 0.19458 0.98452 0.16582 0.0
C935 C 0.20944 1.01662 0.17872 0.0
C936 C 0.21015 1.0229 0.21793 0.0
C937 C 0.1962 0.99711 0.24435 0.0
H938 H 0.22046 0.03665 0.15839 0.0
H939 H 0.09073 0.79838 0.4294 0.0
H940 H 0.83639 0.03062 0.363 0.0
H941 H 0.81289 0.97208 0.35491 0.0
H942 H 0.85713 0.98853 0.24267 0.0
H943 H 0.88127 0.04747 0.25075 0.0
H944 H 0.7937 0.93486 0.24443 0.0
H945 H 0.89278 0.97426 0.31565 0.0
H946 H 0.93152 1.00372 0.36767 0.0
H947 H 0.86018 0.94217 0.45155 0.0
H948 H 0.82081 0.91266 0.40003 0.0
H949 H 0.78107 0.77747 0.2322 0.0
H950 H 0.79369 0.83415 0.23018 0.0
H951 H 0.76944 0.82817 0.35068 0.0
H952 H 0.7594 0.77242 0.35304 0.0
H953 H 0.82381 0.8778 0.34148 0.0
H954 H 0.72387 0.83794 0.26957 0.0
H955 H 0.68597 0.80829 0.21687 0.0
H956 H 0.7587 0.86961 0.13412 0.0
H957 H 0.79708 0.89939 0.18627 0.0
C958 C 0.84132 1.02192 0.3366 0.0
C959 C 0.86121 0.04396 0.30778 0.0
C960 C 0.82766 0.98834 0.33193 0.0
C961 C 0.83355 0.97584 0.29838 0.0
C962 C 0.85222 0.99757 0.26882 0.0
C963 C 0.86599 0.0313 0.27349 0.0
C964 C 0.8216 0.94028 0.29533 0.0
C965 C 0.80044 0.92234 0.26543 0.0
C966 C 0.83006 0.92382 0.32295 0.0
C967 C 0.85374 0.94146 0.35399 0.0
C968 C 0.88526 0.96718 0.3452 0.0
C969 C 0.90734 0.98386 0.3746 0.0
C970 C 0.89829 0.97488 0.4129 0.0
C971 C 0.86715 0.94914 0.42187 0.0
C972 C 0.84494 0.93242 0.39259 0.0
C973 C 0.7774 0.78801 0.25784 0.0
C974 C 0.76893 0.77055 0.29267 0.0
C975 C 0.78463 0.82052 0.25675 0.0
C976 C 0.78249 0.83581 0.29028 0.0
C977 C 0.77159 0.81729 0.32441 0.0
C978 C 0.7654 0.78524 0.32572 0.0
C979 C 0.79481 0.8717 0.29121 0.0
C980 C 0.81653 0.88996 0.3206 0.0
C981 C 0.78674 0.88828 0.26315 0.0
C982 C 0.76342 0.87073 0.23182 0.0
C983 C 0.7318 0.845 0.24012 0.0
C984 C 0.71023 0.82817 0.21033 0.0
C985 C 0.71993 0.83699 0.17215 0.0
C986 C 0.75118 0.86275 0.16367 0.0
C987 C 0.77284 0.87966 0.19334 0.0
H988 H 0.7032 0.82389 0.14915 0.0
H989 H 0.91543 0.98781 0.43561 0.0
H990 H 0.17521 0.17729 0.85907 0.0
H991 H 0.2015 0.14486 0.84974 0.0
H992 H 0.23885 0.19153 0.74 0.0
H993 H 0.21305 0.22457 0.74935 0.0
H994 H 0.21705 0.12534 0.73766 0.0
H995 H 0.28887 0.21616 0.81403 0.0
H996 H 0.30441 0.25486 0.86747 0.0
H997 H 0.27624 0.17671 0.94874 0.0
H998 H 0.26004 0.13744 0.89579 0.0
H999 H 0.30906 0.04356 0.73594 0.0
H1000 H 0.29919 0.08976 0.73268 0.0
H1001 H 0.2619 0.06912 0.84867 0.0
H1002 H 0.27254 0.02425 0.85245 0.0
H1003 H 0.29299 0.13102 0.8392 0.0
H1004 H 0.21145 0.0398 0.76238 0.0
H1005 H 0.19737 1.00091 0.70927 0.0
H1006 H 0.24592 0.08032 0.62906 0.0
H1007 H 0.26046 0.11965 0.6818 0.0
C1008 C 0.18902 0.18075 0.83293 0.0
C1009 C 0.19218 0.20385 0.80517 0.0
C1010 C 0.204 0.1621 0.82758 0.0
C1011 C 0.22261 0.1661 0.79441 0.0
C1012 C 0.22468 0.18805 0.76584 0.0
C1013 C 0.20974 0.20682 0.77121 0.0
C1014 C 0.24076 0.14814 0.79056 0.0
C1015 C 0.23404 0.12696 0.75955 0.0
C1016 C 0.26308 0.15025 0.81895 0.0
C1017 C 0.27303 0.17382 0.85092 0.0
C1018 C 0.28577 0.20719 0.8433 0.0
C1019 C 0.29472 0.22924 0.87351 0.0
C1020 C 0.29126 0.21825 0.91147 0.0
C1021 C 0.2789 0.18519 0.91931 0.0
C1022 C 0.26986 0.16303 0.88921 0.0
C1023 C 0.29976 0.04966 0.76104 0.0
C1024 C 0.29139 0.03021 0.79436 0.0
C1025 C 0.29378 0.0758 0.75902 0.0
C1026 C 0.27922 0.08267 0.79015 0.0
C1027 C 0.27301 0.06446 0.82416 0.0
C1028 C 0.27902 0.03863 0.82623 0.0
C1029 C 0.26811 0.10701 0.78734 0.0
C1030 C 0.27631 0.12965 0.81703 0.0
C1031 C 0.24716 0.10616 0.75779 0.0
C1032 C 0.2371 0.0826 0.72596 0.0
C1033 C 0.21901 0.04892 0.73338 0.0
C1034 C 0.21101 0.02682 0.70337 0.0
C1035 C 0.22074 0.03814 0.66581 0.0
C1036 C 0.23835 0.07159 0.65815 0.0
C1037 C 0.24642 0.0938 0.68806 0.0
H1038 H 0.21462 1.021 0.64264 0.0
H1039 H 0.29821 0.23536 0.93482 0.0
H1040 H 0.04688 0.87976 0.855 0.0
H1041 H 0.98822 0.85449 0.84473 0.0
H1042 H 0.99817 0.81811 0.73553 0.0
H1043 H 0.05703 0.84293 0.74585 0.0
H1044 H 0.95386 0.8417 0.73368 0.0
H1045 H 0.97174 0.76694 0.80754 0.0
H1046 H 0.9949 0.75006 0.86016 0.0
H1047 H 0.94594 0.7773 0.94302 0.0
H1048 H 0.92288 0.79483 0.8909 0.0
H1049 H 0.77814 0.7492 0.73723 0.0
H1050 H 0.83367 0.75736 0.73218 0.0
H1051 H 0.85636 0.80205 0.8438 0.0
H1052 H 0.80183 0.7942 0.84883 0.0
H1053 H 0.88291 0.76384 0.83462 0.0
H1054 H 0.87511 0.84834 0.76276 0.0
H1055 H 0.85041 0.86544 0.71209 0.0
H1056 H 0.87908 0.81959 0.62694 0.0
H1057 H 0.90366 0.80188 0.67728 0.0
C1058 C 0.03669 0.86641 0.82877 0.0
C1059 C 0.05674 0.86312 0.80149 0.0
C1060 C 1.00312 0.85205 0.82287 0.0
C1061 C 0.98871 0.83397 0.78962 0.0
C1062 C 1.00875 0.83189 0.76142 0.0
C1063 C 0.04244 0.84623 0.76735 0.0
C1064 C 0.95259 0.81613 0.78562 0.0
C1065 C 0.93831 0.82414 0.75527 0.0
C1066 C 0.93222 0.79325 0.81381 0.0
C1067 C 0.94572 0.78237 0.84528 0.0
C1068 C 0.96607 0.76952 0.83698 0.0
C1069 C 0.97917 0.75982 0.86673 0.0
C1070 C 0.97193 0.76265 0.90491 0.0
C1071 C 0.95152 0.77513 0.91343 0.0
C1072 C 0.9384 0.78491 0.88379 0.0
C1073 C 0.7948 0.75995 0.761 0.0
C1074 C 0.78565 0.77103 0.79342 0.0
C1075 C 0.82654 0.76483 0.758 0.0
C1076 C 0.84928 0.78058 0.78753 0.0
C1077 C 0.83932 0.78978 0.82072 0.0
C1078 C 0.80804 0.78529 0.82351 0.0
C1079 C 0.88425 0.79025 0.78355 0.0
C1080 C 0.8984 0.78073 0.81245 0.0
C1081 C 0.90441 0.8118 0.75419 0.0
C1082 C 0.89097 0.82359 0.72375 0.0
C1083 C 0.87612 0.84189 0.73322 0.0
C1084 C 0.86213 0.85167 0.7046 0.0
C1085 C 0.86315 0.84357 0.66635 0.0
C1086 C 0.87832 0.82583 0.65661 0.0
C1087 C 0.89231 0.81594 0.68516 0.0
H1088 H 0.85218 0.85105 0.6443 0.0
H1089 H 0.98211 0.75513 0.9279 0.0
H1090 H 1.02638 0.27014 0.84843 0.0
H1091 H 0.98272 0.21348 0.84595 0.0
H1092 H 0.97925 0.22056 0.72273 0.0
H1093 H 1.02268 0.27808 0.72528 0.0
H1094 H 0.91624 0.17674 0.76068 0.0
H1095 H 1.02596 0.19604 0.75342 0.0
H1096 H 0.08322 0.22196 0.77432 0.0
H1097 H 0.0522 0.17659 0.88531 0.0
H1098 H 0.99467 0.15084 0.86528 0.0
H1099 H 0.84281 1.00402 0.74636 0.0
H1100 H 0.87934 0.06234 0.73557 0.0
H1101 H 0.9101 0.07304 0.85365 0.0
H1102 H 0.87487 1.01462 0.86415 0.0
H1103 H 0.96063 0.10841 0.80966 0.0
H1104 H 0.85216 0.09262 0.82037 0.0
H1105 H 0.79425 0.06926 0.80314 0.0
H1106 H 0.82198 0.10894 0.68914 0.0
H1107 H 0.88007 0.13218 0.70556 0.0
C1108 C 1.01547 0.25999 0.82093 0.0
C1109 C 1.02812 0.27823 0.78697 0.0
C1110 C 0.99063 0.22759 0.81953 0.0
C1111 C 0.97836 0.21264 0.7841 0.0
C1112 C 0.98856 0.23167 0.75035 0.0
C1113 C 1.0133 0.26448 0.75181 0.0
C1114 C 0.95855 0.1766 0.78259 0.0
C1115 C 0.926 0.16167 0.77068 0.0
C1116 C 0.9713 0.15708 0.79619 0.0
C1117 C 1.00596 0.17161 0.80788 0.0
C1118 C 1.03133 0.19167 0.78233 0.0
C1119 C 0.06385 0.20636 0.79403 0.0
C1120 C 0.07135 0.20093 0.83113 0.0
C1121 C 0.04635 0.18075 0.85657 0.0
C1122 C 1.01378 0.16606 0.84504 0.0
C1123 C 0.85779 1.01865 0.76987 0.0
C1124 C 0.8557 1.00453 0.80623 0.0
C1125 C 0.87838 0.05213 0.76376 0.0
C1126 C 0.89709 0.0723 0.79396 0.0
C1127 C 0.8958 0.0581 0.82991 0.0
C1128 C 0.8754 0.02466 0.83598 0.0
C1129 C 0.91781 0.10821 0.78856 0.0
C1130 C 0.95077 0.12324 0.79914 0.0
C1131 C 0.90531 0.12773 0.77394 0.0
C1132 C 0.87043 0.11378 0.76404 0.0
C1133 C 0.84589 0.09612 0.79153 0.0
C1134 C 0.81304 0.08295 0.78193 0.0
C1135 C 0.80444 0.08752 0.74503 0.0
C1136 C 0.82867 0.10536 0.71768 0.0
C1137 C 0.86156 0.11854 0.72712 0.0
H1138 H 0.77899 0.07731 0.73765 0.0
H1139 H 0.09652 0.2123 0.84018 0.0
loop_
_geom_bond_atom_site_label_1
_geom_bond_atom_site_label_2
_geom_bond_distance
_geom_bond_site_symmetry_2
_ccdc_geom_bond_type
La0 C2 2.928 . S
La0 O20 2.521 . S
La0 O21 2.628 . S
La0 O22 2.554 . S
La0 O23 2.757 . S
La0 O24 2.470 . S
La0 O29 2.482 . S
La0 O31 2.503 . S
La1 C11 2.928 . S
La1 O23 2.482 . S
La1 O25 2.503 . S
La1 O26 2.521 . S
La1 O27 2.628 . S
La1 O28 2.554 . S
La1 O29 2.757 . S
La1 O30 2.470 . S
C2 La0 2.928 . S
C2 C3 1.503 . S
C2 O20 1.261 . S
C2 O21 1.243 . S
C3 C2 1.503 . S
C3 C4 1.394 . S
C3 C8 1.373 . S
C4 C3 1.394 . S
C4 C5 1.380 . S
C4 H32 0.930 . S
C5 C4 1.380 . S
C5 C6 1.376 . S
C5 H33 0.930 . S
C6 C5 1.376 . S
C6 C7 1.370 . S
C7 C6 1.370 . S
C7 C8 1.396 . S
C7 H34 0.929 . S
C8 C3 1.373 . S
C8 C7 1.396 . S
C8 H35 0.929 . S
C9 O22 1.240 . S
C9 O23 1.289 . S
C10 O24 1.258 . S
C10 O25 1.256 . S
C11 La1 2.928 . S
C11 C12 1.503 . S
C11 O26 1.261 . S
C11 O27 1.243 . S
C12 C11 1.503 . S
C12 C13 1.394 . S
C12 C17 1.373 . S
C13 C12 1.394 . S
C13 C14 1.380 . S
C13 H36 0.930 . S
C14 C13 1.380 . S
C14 C15 1.376 . S
C14 H37 0.930 . S
C15 C14 1.376 . S
C15 C16 1.370 . S
C16 C15 1.370 . S
C16 C17 1.396 . S
C16 H38 0.929 . S
C17 C12 1.373 . S
C17 C16 1.396 . S
C17 H39 0.929 . S
C18 O28 1.240 . S
C18 O29 1.289 . S
C19 O30 1.258 . S
C19 O31 1.256 . S
O20 La0 2.521 . S
O20 C2 1.261 . S
O21 La0 2.628 . S
O21 C2 1.243 . S
O22 La0 2.554 . S
O22 C9 1.240 . S
O23 La0 2.757 . S
O23 La1 2.482 . S
O23 C9 1.289 . S
O24 La0 2.470 . S
O24 C10 1.258 . S
O25 La1 2.503 . S
O25 C10 1.256 . S
O26 La1 2.521 . S
O26 C11 1.261 . S
O27 La1 2.628 . S
O27 C11 1.243 . S
O28 La1 2.554 . S
O28 C18 1.240 . S
O29 La0 2.482 . S
O29 La1 2.757 . S
O29 C18 1.289 . S
O30 La1 2.470 . S
O30 C19 1.258 . S
O31 La0 2.503 . S
O31 C19 1.256 . S
H32 C4 0.930 . S
H33 C5 0.930 . S
H34 C7 0.929 . S
H35 C8 0.929 . S
H36 C13 0.930 . S
H37 C14 0.930 . S
H38 C16 0.929 . S
H39 C17 0.929 . S
La40 C42 2.928 . S
La40 O60 2.521 . S
La40 O61 2.628 . S
La40 O62 2.554 . S
La40 O63 2.757 . S
La40 O64 2.470 . S
La40 O69 2.482 . S
La40 O71 2.503 . S
La41 C51 2.928 . S
La41 O63 2.482 . S
La41 O65 2.503 . S
La41 O66 2.521 . S
La41 O67 2.628 . S
La41 O68 2.554 . S
La41 O69 2.757 . S
La41 O70 2.470 . S
C42 La40 2.928 . S
C42 C43 1.503 . S
C42 O60 1.261 . S
C42 O61 1.243 . S
C43 C42 1.503 . S
C43 C44 1.394 . S
C43 C48 1.373 . S
C44 C43 1.394 . S
C44 C45 1.380 . S
C44 H72 0.930 . S
C45 C44 1.380 . S
C45 C46 1.376 . S
C45 H73 0.930 . S
C46 C45 1.376 . S
C46 C47 1.370 . S
C47 C46 1.370 . S
C47 C48 1.396 . S
C47 H74 0.929 . S
C48 C43 1.373 . S
C48 C47 1.396 . S
C48 H75 0.929 . S
C49 O62 1.240 . S
C49 O63 1.289 . S
C50 O64 1.258 . S
C50 O65 1.256 . S
C51 La41 2.928 . S
C51 C52 1.503 . S
C51 O66 1.261 . S
C51 O67 1.243 . S
C52 C51 1.503 . S
C52 C53 1.394 . S
C52 C57 1.373 . S
C53 C52 1.394 . S
C53 C54 1.380 . S
C53 H76 0.930 . S
C54 C53 1.380 . S
C54 C55 1.376 . S
C54 H77 0.930 . S
C55 C54 1.376 . S
C55 C56 1.370 . S
C56 C55 1.370 . S
C56 C57 1.396 . S
C56 H78 0.929 . S
C57 C52 1.373 . S
C57 C56 1.396 . S
C57 H79 0.929 . S
C58 O68 1.240 . S
C58 O69 1.289 . S
C59 O70 1.258 . S
C59 O71 1.256 . S
O60 La40 2.521 . S
O60 C42 1.261 . S
O61 La40 2.628 . S
O61 C42 1.243 . S
O62 La40 2.554 . S
O62 C49 1.240 . S
O63 La40 2.757 . S
O63 La41 2.482 . S
O63 C49 1.289 . S
O64 La40 2.470 . S
O64 C50 1.258 . S
O65 La41 2.503 . S
O65 C50 1.256 . S
O66 La41 2.521 . S
O66 C51 1.261 . S
O67 La41 2.628 . S
O67 C51 1.243 . S
O68 La41 2.554 . S
O68 C58 1.240 . S
O69 La40 2.482 . S
O69 La41 2.757 . S
O69 C58 1.289 . S
O70 La41 2.470 . S
O70 C59 1.258 . S
O71 La40 2.503 . S
O71 C59 1.256 . S
H72 C44 0.930 . S
H73 C45 0.930 . S
H74 C47 0.929 . S
H75 C48 0.929 . S
H76 C53 0.930 . S
H77 C54 0.930 . S
H78 C56 0.929 . S
H79 C57 0.929 . S
La80 C82 2.928 . S
La80 O100 2.521 . S
La80 O101 2.628 . S
La80 O102 2.554 . S
La80 O103 2.757 . S
La80 O104 2.470 . S
La80 O109 2.482 . S
La80 O111 2.503 . S
La81 C91 2.928 . S
La81 O103 2.482 . S
La81 O105 2.503 . S
La81 O106 2.521 . S
La81 O107 2.628 . S
La81 O108 2.554 . S
La81 O109 2.757 . S
La81 O110 2.470 . S
C82 La80 2.928 . S
C82 C83 1.503 . S
C82 O100 1.261 . S
C82 O101 1.243 . S
C83 C82 1.503 . S
C83 C84 1.394 . S
C83 C88 1.373 . S
C84 C83 1.394 . S
C84 C85 1.380 . S
C84 H112 0.930 . S
C85 C84 1.380 . S
C85 C86 1.376 . S
C85 H113 0.930 . S
C86 C85 1.376 . S
C86 C87 1.370 . S
C87 C86 1.370 . S
C87 C88 1.396 . S
C87 H114 0.929 . S
C88 C83 1.373 . S
C88 C87 1.396 . S
C88 H115 0.929 . S
C89 O102 1.240 . S
C89 O103 1.289 . S
C90 O104 1.258 . S
C90 O105 1.256 . S
C91 La81 2.928 . S
C91 C92 1.503 . S
C91 O106 1.261 . S
C91 O107 1.243 . S
C92 C91 1.503 . S
C92 C93 1.394 . S
C92 C97 1.373 . S
C93 C92 1.394 . S
C93 C94 1.380 . S
C93 H116 0.930 . S
C94 C93 1.380 . S
C94 C95 1.376 . S
C94 H117 0.930 . S
C95 C94 1.376 . S
C95 C96 1.370 . S
C96 C95 1.370 . S
C96 C97 1.396 . S
C96 H118 0.929 . S
C97 C92 1.373 . S
C97 C96 1.396 . S
C97 H119 0.929 . S
C98 O108 1.240 . S
C98 O109 1.289 . S
C99 O110 1.258 . S
C99 O111 1.256 . S
O100 La80 2.521 . S
O100 C82 1.261 . S
O101 La80 2.628 . S
O101 C82 1.243 . S
O102 La80 2.554 . S
O102 C89 1.240 . S
O103 La80 2.757 . S
O103 La81 2.482 . S
O103 C89 1.289 . S
O104 La80 2.470 . S
O104 C90 1.258 . S
O105 La81 2.503 . S
O105 C90 1.256 . S
O106 La81 2.521 . S
O106 C91 1.261 . S
O107 La81 2.628 . S
O107 C91 1.243 . S
O108 La81 2.554 . S
O108 C98 1.240 . S
O109 La80 2.482 . S
O109 La81 2.757 . S
O109 C98 1.289 . S
O110 La81 2.470 . S
O110 C99 1.258 . S
O111 La80 2.503 . S
O111 C99 1.256 . S
H112 C84 0.930 . S
H113 C85 0.930 . S
H114 C87 0.929 . S
H115 C88 0.929 . S
H116 C93 0.930 . S
H117 C94 0.930 . S
H118 C96 0.929 . S
H119 C97 0.929 . S
La120 C122 2.928 . S
La120 O140 2.521 . S
La120 O141 2.628 . S
La120 O142 2.554 . S
La120 O143 2.757 . S
La120 O144 2.470 . S
La120 O149 2.482 . S
La120 O151 2.503 . S
La121 C131 2.928 . S
La121 O143 2.482 . S
La121 O145 2.503 . S
La121 O146 2.521 . S
La121 O147 2.628 . S
La121 O148 2.554 . S
La121 O149 2.757 . S
La121 O150 2.470 . S
C122 La120 2.928 . S
C122 C123 1.503 . S
C122 O140 1.261 . S
C122 O141 1.243 . S
C123 C122 1.503 . S
C123 C124 1.394 . S
C123 C128 1.373 . S
C124 C123 1.394 . S
C124 C125 1.380 . S
C124 H152 0.930 . S
C125 C124 1.380 . S
C125 C126 1.376 . S
C125 H153 0.930 . S
C126 C125 1.376 . S
C126 C127 1.370 . S
C127 C126 1.370 . S
C127 C128 1.396 . S
C127 H154 0.929 . S
C128 C123 1.373 . S
C128 C127 1.396 . S
C128 H155 0.929 . S
C129 O142 1.240 . S
C129 O143 1.289 . S
C130 O144 1.258 . S
C130 O145 1.256 . S
C131 La121 2.928 . S
C131 C132 1.503 . S
C131 O146 1.261 . S
C131 O147 1.243 . S
C132 C131 1.503 . S
C132 C133 1.394 . S
C132 C137 1.373 . S
C133 C132 1.394 . S
C133 C134 1.380 . S
C133 H156 0.930 . S
C134 C133 1.380 . S
C134 C135 1.376 . S
C134 H157 0.930 . S
C135 C134 1.376 . S
C135 C136 1.370 . S
C136 C135 1.370 . S
C136 C137 1.396 . S
C136 H158 0.929 . S
C137 C132 1.373 . S
C137 C136 1.396 . S
C137 H159 0.929 . S
C138 O148 1.240 . S
C138 O149 1.289 . S
C139 O150 1.258 . S
C139 O151 1.256 . S
O140 La120 2.521 . S
O140 C122 1.261 . S
O141 La120 2.628 . S
O141 C122 1.243 . S
O142 La120 2.554 . S
O142 C129 1.240 . S
O143 La120 2.757 . S
O143 La121 2.482 . S
O143 C129 1.289 . S
O144 La120 2.470 . S
O144 C130 1.258 . S
O145 La121 2.503 . S
O145 C130 1.256 . S
O146 La121 2.521 . S
O146 C131 1.261 . S
O147 La121 2.628 . S
O147 C131 1.243 . S
O148 La121 2.554 . S
O148 C138 1.240 . S
O149 La120 2.482 . S
O149 La121 2.757 . S
O149 C138 1.289 . S
O150 La121 2.470 . S
O150 C139 1.258 . S
O151 La120 2.503 . S
O151 C139 1.256 . S
H152 C124 0.930 . S
H153 C125 0.930 . S
H154 C127 0.929 . S
H155 C128 0.929 . S
H156 C133 0.930 . S
H157 C134 0.930 . S
H158 C136 0.929 . S
H159 C137 0.929 . S
La160 C162 2.928 . S
La160 O180 2.521 . S
La160 O181 2.628 . S
La160 O182 2.554 . S
La160 O183 2.757 . S
La160 O184 2.470 . S
La160 O189 2.482 . S
La160 O191 2.503 . S
La161 C171 2.928 . S
La161 O183 2.482 . S
La161 O185 2.503 . S
La161 O186 2.521 . S
La161 O187 2.628 . S
La161 O188 2.554 . S
La161 O189 2.757 . S
La161 O190 2.470 . S
C162 La160 2.928 . S
C162 C163 1.503 . S
C162 O180 1.261 . S
C162 O181 1.243 . S
C163 C162 1.503 . S
C163 C164 1.394 . S
C163 C168 1.373 . S
C164 C163 1.394 . S
C164 C165 1.380 . S
C164 H192 0.930 . S
C165 C164 1.380 . S
C165 C166 1.376 . S
C165 H193 0.930 . S
C166 C165 1.376 . S
C166 C167 1.370 . S
C167 C166 1.370 . S
C167 C168 1.396 . S
C167 H194 0.929 . S
C168 C163 1.373 . S
C168 C167 1.396 . S
C168 H195 0.929 . S
C169 O182 1.240 . S
C169 O183 1.289 . S
C170 O184 1.258 . S
C170 O185 1.256 . S
C171 La161 2.928 . S
C171 C172 1.503 . S
C171 O186 1.261 . S
C171 O187 1.243 . S
C172 C171 1.503 . S
C172 C173 1.394 . S
C172 C177 1.373 . S
C173 C172 1.394 . S
C173 C174 1.380 . S
C173 H196 0.930 . S
C174 C173 1.380 . S
C174 C175 1.376 . S
C174 H197 0.930 . S
C175 C174 1.376 . S
C175 C176 1.370 . S
C176 C175 1.370 . S
C176 C177 1.396 . S
C176 H198 0.929 . S
C177 C172 1.373 . S
C177 C176 1.396 . S
C177 H199 0.929 . S
C178 O188 1.240 . S
C178 O189 1.289 . S
C179 O190 1.258 . S
C179 O191 1.256 . S
O180 La160 2.521 . S
O180 C162 1.261 . S
O181 La160 2.628 . S
O181 C162 1.243 . S
O182 La160 2.554 . S
O182 C169 1.240 . S
O183 La160 2.757 . S
O183 La161 2.482 . S
O183 C169 1.289 . S
O184 La160 2.470 . S
O184 C170 1.258 . S
O185 La161 2.503 . S
O185 C170 1.256 . S
O186 La161 2.521 . S
O186 C171 1.261 . S
O187 La161 2.628 . S
O187 C171 1.243 . S
O188 La161 2.554 . S
O188 C178 1.240 . S
O189 La160 2.482 . S
O189 La161 2.757 . S
O189 C178 1.289 . S
O190 La161 2.470 . S
O190 C179 1.258 . S
O191 La160 2.503 . S
O191 C179 1.256 . S
H192 C164 0.930 . S
H193 C165 0.930 . S
H194 C167 0.929 . S
H195 C168 0.929 . S
H196 C173 0.930 . S
H197 C174 0.930 . S
H198 C176 0.929 . S
H199 C177 0.929 . S
La200 C202 2.928 . S
La200 O220 2.521 . S
La200 O221 2.628 . S
La200 O222 2.554 . S
La200 O223 2.757 . S
La200 O224 2.470 . S
La200 O229 2.482 . S
La200 O231 2.503 . S
La201 C211 2.928 . S
La201 O223 2.482 . S
La201 O225 2.503 . S
La201 O226 2.521 . S
La201 O227 2.628 . S
La201 O228 2.554 . S
La201 O229 2.757 . S
La201 O230 2.470 . S
C202 La200 2.928 . S
C202 C203 1.503 . S
C202 O220 1.261 . S
C202 O221 1.243 . S
C203 C202 1.503 . S
C203 C204 1.394 . S
C203 C208 1.373 . S
C204 C203 1.394 . S
C204 C205 1.380 . S
C204 H232 0.930 . S
C205 C204 1.380 . S
C205 C206 1.376 . S
C205 H233 0.930 . S
C206 C205 1.376 . S
C206 C207 1.370 . S
C207 C206 1.370 . S
C207 C208 1.396 . S
C207 H234 0.929 . S
C208 C203 1.373 . S
C208 C207 1.396 . S
C208 H235 0.929 . S
C209 O222 1.240 . S
C209 O223 1.289 . S
C210 O224 1.258 . S
C210 O225 1.256 . S
C211 La201 2.928 . S
C211 C212 1.503 . S
C211 O226 1.261 . S
C211 O227 1.243 . S
C212 C211 1.503 . S
C212 C213 1.394 . S
C212 C217 1.373 . S
C213 C212 1.394 . S
C213 C214 1.380 . S
C213 H236 0.930 . S
C214 C213 1.380 . S
C214 C215 1.376 . S
C214 H237 0.930 . S
C215 C214 1.376 . S
C215 C216 1.370 . S
C216 C215 1.370 . S
C216 C217 1.396 . S
C216 H238 0.929 . S
C217 C212 1.373 . S
C217 C216 1.396 . S
C217 H239 0.929 . S
C218 O228 1.240 . S
C218 O229 1.289 . S
C219 O230 1.258 . S
C219 O231 1.256 . S
O220 La200 2.521 . S
O220 C202 1.261 . S
O221 La200 2.628 . S
O221 C202 1.243 . S
O222 La200 2.554 . S
O222 C209 1.240 . S
O223 La200 2.757 . S
O223 La201 2.482 . S
O223 C209 1.289 . S
O224 La200 2.470 . S
O224 C210 1.258 . S
O225 La201 2.503 . S
O225 C210 1.256 . S
O226 La201 2.521 . S
O226 C211 1.261 . S
O227 La201 2.628 . S
O227 C211 1.243 . S
O228 La201 2.554 . S
O228 C218 1.240 . S
O229 La200 2.482 . S
O229 La201 2.757 . S
O229 C218 1.289 . S
O230 La201 2.470 . S
O230 C219 1.258 . S
O231 La200 2.503 . S
O231 C219 1.256 . S
H232 C204 0.930 . S
H233 C205 0.930 . S
H234 C207 0.929 . S
H235 C208 0.929 . S
H236 C213 0.930 . S
H237 C214 0.930 . S
H238 C216 0.929 . S
H239 C217 0.929 . S
H240 C258 0.951 . S
H241 C260 0.951 . S
H242 C262 0.950 . S
H243 C263 0.950 . S
H244 C265 0.950 . S
H245 C268 0.950 . S
H246 C269 0.950 . S
H247 C271 0.950 . S
H248 C272 0.950 . S
H249 C273 0.951 . S
H250 C275 0.951 . S
H251 C277 0.950 . S
H252 C278 0.950 . S
H253 C280 0.950 . S
H254 C283 0.950 . S
H255 C284 0.950 . S
H256 C286 0.950 . S
H257 C287 0.950 . S
C258 H240 0.951 . S
C258 C259 1.366 . S
C258 C260 1.388 . S
C259 C258 1.366 . S
C259 C263 1.385 . S
C260 H241 0.951 . S
C260 C258 1.388 . S
C260 C261 1.366 . S
C261 C260 1.366 . S
C261 C262 1.414 . S
C261 C264 1.499 . S
C262 H242 0.950 . S
C262 C261 1.414 . S
C262 C263 1.374 . S
C263 H243 0.950 . S
C263 C259 1.385 . S
C263 C262 1.374 . S
C264 C261 1.499 . S
C264 C265 1.373 . S
C264 C266 1.389 . S
C265 H244 0.950 . S
C265 C264 1.373 . S
C265 C281 1.377 1_566 S
C266 C264 1.389 . S
C266 C267 1.524 . S
C266 C280 1.377 1_566 S
C267 C266 1.524 . S
C267 C268 1.397 . S
C267 C272 1.363 1_565 S
C268 H245 0.950 . S
C268 C267 1.397 . S
C268 C269 1.334 . S
C269 H246 0.950 . S
C269 C268 1.334 . S
C269 C270 1.287 . S
C270 C269 1.287 . S
C270 C271 1.524 1_565 S
C270 H289 0.913 . S
C271 H247 0.950 . S
C271 C270 1.524 1_545 S
C271 C272 1.415 . S
C272 H248 0.950 . S
C272 C267 1.363 1_545 S
C272 C271 1.415 . S
C273 H249 0.951 . S
C273 C274 1.366 . S
C273 C275 1.388 . S
C274 C273 1.366 . S
C274 C278 1.385 . S
C275 H250 0.951 . S
C275 C273 1.388 . S
C275 C276 1.366 . S
C276 C275 1.366 . S
C276 C277 1.414 . S
C276 C279 1.499 . S
C277 H251 0.950 . S
C277 C276 1.414 . S
C277 C278 1.374 . S
C278 H252 0.950 . S
C278 C274 1.385 . S
C278 C277 1.374 . S
C279 C276 1.499 . S
C279 C280 1.373 . S
C279 C281 1.389 . S
C280 H253 0.950 . S
C280 C266 1.377 1_544 S
C280 C279 1.373 . S
C281 C265 1.377 1_544 S
C281 C279 1.389 . S
C281 C282 1.524 . S
C282 C281 1.524 . S
C282 C283 1.397 . S
C282 C287 1.363 1_545 S
C283 H254 0.950 . S
C283 C282 1.397 . S
C283 C284 1.334 . S
C284 H255 0.950 . S
C284 C283 1.334 . S
C284 C285 1.287 . S
C285 C284 1.287 . S
C285 C286 1.524 1_545 S
C285 H288 0.999 . S
C286 H256 0.950 . S
C286 C285 1.524 1_565 S
C286 C287 1.415 . S
C287 H257 0.950 . S
C287 C282 1.363 1_565 S
C287 C286 1.415 . S
H288 C285 0.999 . S
H289 C270 0.913 . S
H290 C308 0.951 . S
H291 C310 0.951 . S
H292 C312 0.950 . S
H293 C313 0.950 . S
H294 C315 0.950 . S
H295 C318 0.950 . S
H296 C319 0.950 . S
H297 C321 0.950 . S
H298 C322 0.950 . S
H299 C323 0.951 . S
H300 C325 0.951 . S
H301 C327 0.950 . S
H302 C328 0.950 . S
H303 C330 0.950 . S
H304 C333 0.950 . S
H305 C334 0.950 . S
H306 C336 0.950 . S
H307 C337 0.950 . S
C308 H290 0.951 . S
C308 C309 1.366 . S
C308 C310 1.388 . S
C309 C308 1.366 . S
C309 C313 1.385 . S
C310 H291 0.951 . S
C310 C308 1.388 . S
C310 C311 1.366 . S
C311 C310 1.366 . S
C311 C312 1.414 . S
C311 C314 1.499 . S
C312 H292 0.950 . S
C312 C311 1.414 . S
C312 C313 1.374 . S
C313 H293 0.950 . S
C313 C309 1.385 . S
C313 C312 1.374 . S
C314 C311 1.499 . S
C314 C315 1.373 . S
C314 C316 1.389 . S
C315 H294 0.950 . S
C315 C314 1.373 . S
C315 C331 1.377 . S
C316 C314 1.389 . S
C316 C317 1.524 . S
C316 C330 1.377 . S
C317 C316 1.524 . S
C317 C318 1.397 . S
C317 C322 1.363 . S
C318 H295 0.950 . S
C318 C317 1.397 . S
C318 C319 1.334 . S
C319 H296 0.950 . S
C319 C318 1.334 . S
C319 C320 1.287 . S
C320 C319 1.287 . S
C320 C321 1.524 . S
C320 H339 0.913 . S
C321 H297 0.950 . S
C321 C320 1.524 . S
C321 C322 1.415 . S
C322 H298 0.950 . S
C322 C317 1.363 . S
C322 C321 1.415 . S
C323 H299 0.951 . S
C323 C324 1.366 . S
C323 C325 1.388 . S
C324 C323 1.366 . S
C324 C328 1.385 . S
C325 H300 0.951 . S
C325 C323 1.388 . S
C325 C326 1.366 . S
C326 C325 1.366 . S
C326 C327 1.414 . S
C326 C329 1.499 . S
C327 H301 0.950 . S
C327 C326 1.414 . S
C327 C328 1.374 . S
C328 H302 0.950 . S
C328 C324 1.385 . S
C328 C327 1.374 . S
C329 C326 1.499 . S
C329 C330 1.373 . S
C329 C331 1.389 . S
C330 H303 0.950 . S
C330 C316 1.377 . S
C330 C329 1.373 . S
C331 C315 1.377 . S
C331 C329 1.389 . S
C331 C332 1.524 . S
C332 C331 1.524 . S
C332 C333 1.397 . S
C332 C337 1.363 . S
C333 H304 0.950 . S
C333 C332 1.397 . S
C333 C334 1.334 . S
C334 H305 0.950 . S
C334 C333 1.334 . S
C334 C335 1.287 . S
C335 C334 1.287 . S
C335 C336 1.524 . S
C335 H338 0.999 . S
C336 H306 0.950 . S
C336 C335 1.524 . S
C336 C337 1.415 . S
C337 H307 0.950 . S
C337 C332 1.363 . S
C337 C336 1.415 . S
H338 C335 0.999 . S
H339 C320 0.913 . S
H340 C358 0.951 . S
H341 C360 0.951 . S
H342 C362 0.950 . S
H343 C363 0.950 . S
H344 C365 0.950 . S
H345 C368 0.950 1_655 S
H346 C369 0.950 . S
H347 C371 0.950 . S
H348 C372 0.950 . S
H349 C373 0.951 . S
H350 C375 0.951 . S
H351 C377 0.950 . S
H352 C378 0.950 . S
H353 C380 0.950 . S
H354 C383 0.950 1_455 S
H355 C384 0.950 . S
H356 C386 0.950 . S
H357 C387 0.950 . S
C358 H340 0.951 . S
C358 C359 1.366 . S
C358 C360 1.388 . S
C359 C358 1.366 . S
C359 C363 1.385 . S
C360 H341 0.951 . S
C360 C358 1.388 . S
C360 C361 1.366 . S
C361 C360 1.366 . S
C361 C362 1.414 . S
C361 C364 1.499 . S
C362 H342 0.950 . S
C362 C361 1.414 . S
C362 C363 1.374 . S
C363 H343 0.950 . S
C363 C359 1.385 . S
C363 C362 1.374 . S
C364 C361 1.499 . S
C364 C365 1.369 1_554 S
C364 C366 1.389 1_655 S
C365 H344 0.950 . S
C365 C364 1.369 1_556 S
C365 C381 1.380 . S
C366 C364 1.389 1_455 S
C366 C367 1.524 . S
C366 C380 1.380 . S
C367 C366 1.524 . S
C367 C368 1.397 . S
C367 C372 1.363 . S
C368 H345 0.950 1_455 S
C368 C367 1.397 . S
C368 C369 1.334 . S
C369 H346 0.950 . S
C369 C368 1.334 . S
C369 C370 1.287 . S
C370 C369 1.287 . S
C370 C371 1.524 . S
C370 H389 0.913 . S
C371 H347 0.950 . S
C371 C370 1.524 . S
C371 C372 1.415 . S
C372 H348 0.950 . S
C372 C367 1.363 . S
C372 C371 1.415 . S
C373 H349 0.951 . S
C373 C374 1.366 . S
C373 C375 1.388 . S
C374 C373 1.366 . S
C374 C378 1.385 . S
C375 H350 0.951 . S
C375 C373 1.388 . S
C375 C376 1.366 . S
C376 C375 1.366 . S
C376 C377 1.414 . S
C376 C379 1.499 . S
C377 H351 0.950 . S
C377 C376 1.414 . S
C377 C378 1.374 . S
C378 H352 0.950 . S
C378 C374 1.385 . S
C378 C377 1.374 . S
C379 C376 1.499 . S
C379 C380 1.369 1_556 S
C379 C381 1.389 1_455 S
C380 H353 0.950 . S
C380 C366 1.380 . S
C380 C379 1.369 1_554 S
C381 C365 1.380 . S
C381 C379 1.389 1_655 S
C381 C382 1.524 . S
C382 C381 1.524 . S
C382 C383 1.397 . S
C382 C387 1.363 . S
C383 H354 0.950 1_655 S
C383 C382 1.397 . S
C383 C384 1.334 . S
C384 H355 0.950 . S
C384 C383 1.334 . S
C384 C385 1.287 . S
C385 C384 1.287 . S
C385 C386 1.524 . S
C385 H388 0.999 . S
C386 H356 0.950 . S
C386 C385 1.524 . S
C386 C387 1.415 . S
C387 H357 0.950 . S
C387 C382 1.363 . S
C387 C386 1.415 . S
H388 C385 0.999 . S
H389 C370 0.913 . S
H390 C408 0.951 . S
H391 C410 0.951 . S
H392 C412 0.950 . S
H393 C413 0.950 . S
H394 C415 0.950 . S
H395 C418 0.950 . S
H396 C419 0.950 . S
H397 C421 0.950 . S
H398 C422 0.950 . S
H399 C423 0.951 . S
H400 C425 0.951 . S
H401 C427 0.950 . S
H402 C428 0.950 . S
H403 C430 0.950 . S
H404 C433 0.950 . S
H405 C434 0.950 . S
H406 C436 0.950 . S
H407 C437 0.950 . S
C408 H390 0.951 . S
C408 C409 1.366 . S
C408 C410 1.388 . S
C409 C408 1.366 . S
C409 C413 1.385 . S
C410 H391 0.951 . S
C410 C408 1.388 . S
C410 C411 1.366 . S
C411 C410 1.366 . S
C411 C412 1.414 . S
C411 C414 1.499 . S
C412 H392 0.950 . S
C412 C411 1.414 . S
C412 C413 1.374 . S
C413 H393 0.950 . S
C413 C409 1.385 . S
C413 C412 1.374 . S
C414 C411 1.499 . S
C414 C415 1.373 . S
C414 C416 1.389 1_545 S
C415 H394 0.950 . S
C415 C414 1.373 . S
C415 C431 1.377 . S
C416 C414 1.389 1_565 S
C416 C417 1.524 . S
C416 C430 1.377 . S
C417 C416 1.524 . S
C417 C418 1.397 . S
C417 C422 1.363 . S
C418 H395 0.950 . S
C418 C417 1.397 . S
C418 C419 1.334 . S
C419 H396 0.950 . S
C419 C418 1.334 . S
C419 C420 1.287 . S
C420 C419 1.287 . S
C420 C421 1.524 . S
C420 H439 0.913 . S
C421 H397 0.950 . S
C421 C420 1.524 . S
C421 C422 1.415 . S
C422 H398 0.950 . S
C422 C417 1.363 . S
C422 C421 1.415 . S
C423 H399 0.951 . S
C423 C424 1.366 . S
C423 C425 1.388 . S
C424 C423 1.366 . S
C424 C428 1.385 . S
C425 H400 0.951 . S
C425 C423 1.388 . S
C425 C426 1.366 . S
C426 C425 1.366 . S
C426 C427 1.414 . S
C426 C429 1.499 . S
C427 H401 0.950 . S
C427 C426 1.414 . S
C427 C428 1.374 . S
C428 H402 0.950 . S
C428 C424 1.385 . S
C428 C427 1.374 . S
C429 C426 1.499 . S
C429 C430 1.373 . S
C429 C431 1.389 1_565 S
C430 H403 0.950 . S
C430 C416 1.377 . S
C430 C429 1.373 . S
C431 C415 1.377 . S
C431 C429 1.389 1_545 S
C431 C432 1.524 . S
C432 C431 1.524 . S
C432 C433 1.397 . S
C432 C437 1.363 . S
C433 H404 0.950 . S
C433 C432 1.397 . S
C433 C434 1.334 . S
C434 H405 0.950 . S
C434 C433 1.334 . S
C434 C435 1.287 . S
C435 C434 1.287 . S
C435 C436 1.524 . S
C435 H438 0.999 . S
C436 H406 0.950 . S
C436 C435 1.524 . S
C436 C437 1.415 . S
C437 H407 0.950 . S
C437 C432 1.363 . S
C437 C436 1.415 . S
H438 C435 0.999 . S
H439 C420 0.913 . S
H440 C458 0.951 . S
H441 C460 0.951 . S
H442 C462 0.950 . S
H443 C463 0.950 . S
H444 C465 0.950 . S
H445 C468 0.950 . S
H446 C469 0.950 . S
H447 C471 0.950 . S
H448 C472 0.950 . S
H449 C473 0.951 . S
H450 C475 0.951 . S
H451 C477 0.950 . S
H452 C478 0.950 . S
H453 C480 0.950 . S
H454 C483 0.950 . S
H455 C484 0.950 . S
H456 C486 0.950 . S
H457 C487 0.950 . S
C458 H440 0.951 . S
C458 C459 1.366 . S
C458 C460 1.388 . S
C459 C458 1.366 . S
C459 C463 1.385 . S
C460 H441 0.951 . S
C460 C458 1.388 . S
C460 C461 1.366 . S
C461 C460 1.366 . S
C461 C462 1.414 . S
C461 C464 1.499 . S
C462 H442 0.950 . S
C462 C461 1.414 . S
C462 C463 1.374 . S
C463 H443 0.950 . S
C463 C459 1.385 . S
C463 C462 1.374 . S
C464 C461 1.499 . S
C464 C465 1.373 . S
C464 C466 1.389 1_556 S
C465 H444 0.950 . S
C465 C464 1.373 . S
C465 C481 1.377 . S
C466 C464 1.389 1_554 S
C466 C467 1.524 . S
C466 C480 1.377 . S
C467 C466 1.524 . S
C467 C468 1.397 1_554 S
C467 C472 1.363 . S
C468 H445 0.950 . S
C468 C467 1.397 1_556 S
C468 C469 1.334 . S
C469 H446 0.950 . S
C469 C468 1.334 . S
C469 C470 1.287 1_556 S
C470 C469 1.287 1_554 S
C470 C471 1.524 . S
C470 H489 0.913 . S
C471 H447 0.950 . S
C471 C470 1.524 . S
C471 C472 1.415 . S
C472 H448 0.950 . S
C472 C467 1.363 . S
C472 C471 1.415 . S
C473 H449 0.951 . S
C473 C474 1.366 . S
C473 C475 1.388 . S
C474 C473 1.366 . S
C474 C478 1.385 . S
C475 H450 0.951 . S
C475 C473 1.388 . S
C475 C476 1.366 . S
C476 C475 1.366 . S
C476 C477 1.414 . S
C476 C479 1.499 . S
C477 H451 0.950 . S
C477 C476 1.414 . S
C477 C478 1.374 . S
C478 H452 0.950 . S
C478 C474 1.385 . S
C478 C477 1.374 . S
C479 C476 1.499 . S
C479 C480 1.373 . S
C479 C481 1.389 1_554 S
C480 H453 0.950 . S
C480 C466 1.377 . S
C480 C479 1.373 . S
C481 C465 1.377 . S
C481 C479 1.389 1_556 S
C481 C482 1.524 . S
C482 C481 1.524 . S
C482 C483 1.397 1_556 S
C482 C487 1.363 . S
C483 H454 0.950 . S
C483 C482 1.397 1_554 S
C483 C484 1.334 . S
C484 H455 0.950 . S
C484 C483 1.334 . S
C484 C485 1.287 1_554 S
C485 C484 1.287 1_556 S
C485 C486 1.524 . S
C485 H488 0.999 . S
C486 H456 0.950 . S
C486 C485 1.524 . S
C486 C487 1.415 . S
C487 H457 0.950 . S
C487 C482 1.363 . S
C487 C486 1.415 . S
H488 C485 0.999 . S
H489 C470 0.913 . S
H490 C508 0.951 . S
H491 C510 0.951 . S
H492 C512 0.950 . S
H493 C513 0.950 . S
H494 C515 0.950 . S
H495 C518 0.933 1_655 S
H496 C519 0.950 . S
H497 C521 0.950 . S
H498 C522 0.950 . S
H499 C523 0.951 . S
H500 C525 0.951 . S
H501 C527 0.950 . S
H502 C528 0.950 . S
H503 C530 0.950 . S
H504 C533 0.950 1_455 S
H505 C534 0.950 . S
H506 C536 0.950 . S
H507 C537 0.950 . S
C508 H490 0.951 . S
C508 C509 1.366 . S
C508 C510 1.388 . S
C509 C508 1.366 . S
C509 C513 1.385 . S
C510 H491 0.951 . S
C510 C508 1.388 . S
C510 C511 1.366 . S
C511 C510 1.366 . S
C511 C512 1.414 . S
C511 C514 1.499 . S
C512 H492 0.950 . S
C512 C511 1.414 . S
C512 C513 1.374 . S
C513 H493 0.950 . S
C513 C509 1.385 . S
C513 C512 1.374 . S
C514 C511 1.499 . S
C514 C515 1.373 . S
C514 C516 1.389 1_655 S
C515 H494 0.950 . S
C515 C514 1.373 . S
C515 C531 1.377 . S
C516 C514 1.389 1_455 S
C516 C517 1.524 . S
C516 C530 1.377 . S
C517 C516 1.524 . S
C517 C518 1.397 . S
C517 C522 1.363 . S
C518 H495 0.933 1_455 S
C518 C517 1.397 . S
C518 C519 1.334 . S
C519 H496 0.950 . S
C519 C518 1.334 . S
C519 C520 1.287 . S
C520 C519 1.287 . S
C520 C521 1.524 . S
C520 H539 0.913 . S
C521 H497 0.950 . S
C521 C520 1.524 . S
C521 C522 1.415 . S
C522 H498 0.950 . S
C522 C517 1.363 . S
C522 C521 1.415 . S
C523 H499 0.951 . S
C523 C524 1.366 . S
C523 C525 1.388 . S
C524 C523 1.366 . S
C524 C528 1.385 . S
C525 H500 0.951 . S
C525 C523 1.388 . S
C525 C526 1.366 . S
C526 C525 1.366 . S
C526 C527 1.414 . S
C526 C529 1.499 . S
C527 H501 0.950 . S
C527 C526 1.414 . S
C527 C528 1.374 . S
C528 H502 0.950 . S
C528 C524 1.385 . S
C528 C527 1.374 . S
C529 C526 1.499 . S
C529 C530 1.373 . S
C529 C531 1.389 1_455 S
C530 H503 0.950 . S
C530 C516 1.377 . S
C530 C529 1.373 . S
C531 C515 1.377 . S
C531 C529 1.389 1_655 S
C531 C532 1.524 . S
C532 C531 1.524 . S
C532 C533 1.397 . S
C532 C537 1.363 . S
C533 H504 0.950 1_655 S
C533 C532 1.397 . S
C533 C534 1.334 . S
C534 H505 0.950 . S
C534 C533 1.334 . S
C534 C535 1.287 . S
C535 C534 1.287 . S
C535 C536 1.524 . S
C535 H538 0.999 . S
C536 H506 0.950 . S
C536 C535 1.524 . S
C536 C537 1.415 . S
C537 H507 0.950 . S
C537 C532 1.363 . S
C537 C536 1.415 . S
H538 C535 0.999 . S
H539 C520 0.913 . S
H540 C558 0.951 . S
H541 C560 0.951 . S
H542 C562 0.950 . S
H543 C563 0.950 . S
H544 C565 0.950 . S
H545 C568 0.950 . S
H546 C569 0.950 . S
H547 C571 0.950 . S
H548 C572 0.950 . S
H549 C573 0.951 . S
H550 C575 0.951 . S
H551 C577 0.950 . S
H552 C578 0.950 . S
H553 C580 0.950 . S
H554 C583 0.950 . S
H555 C584 0.950 . S
H556 C586 0.950 . S
H557 C587 0.950 . S
C558 H540 0.951 . S
C558 C559 1.366 . S
C558 C560 1.388 . S
C559 C558 1.366 . S
C559 C563 1.385 . S
C560 H541 0.951 . S
C560 C558 1.388 . S
C560 C561 1.366 . S
C561 C560 1.366 . S
C561 C562 1.414 . S
C561 C564 1.499 . S
C562 H542 0.950 . S
C562 C561 1.414 . S
C562 C563 1.374 . S
C563 H543 0.950 . S
C563 C559 1.385 . S
C563 C562 1.374 . S
C564 C561 1.499 . S
C564 C565 1.373 . S
C564 C566 1.389 . S
C565 H544 0.950 . S
C565 C564 1.373 . S
C565 C581 1.377 . S
C566 C564 1.389 . S
C566 C567 1.524 . S
C566 C580 1.377 . S
C567 C566 1.524 . S
C567 C568 1.397 . S
C567 C572 1.363 . S
C568 H545 0.950 . S
C568 C567 1.397 . S
C568 C569 1.334 . S
C569 H546 0.950 . S
C569 C568 1.334 . S
C569 C570 1.287 . S
C570 C569 1.287 . S
C570 C571 1.524 . S
C570 H589 0.913 . S
C571 H547 0.950 . S
C571 C570 1.524 . S
C571 C572 1.415 . S
C572 H548 0.950 . S
C572 C567 1.363 . S
C572 C571 1.415 . S
C573 H549 0.951 . S
C573 C574 1.366 . S
C573 C575 1.388 . S
C574 C573 1.366 . S
C574 C578 1.385 . S
C575 H550 0.951 . S
C575 C573 1.388 . S
C575 C576 1.366 . S
C576 C575 1.366 . S
C576 C577 1.414 . S
C576 C579 1.499 . S
C577 H551 0.950 . S
C577 C576 1.414 . S
C577 C578 1.374 . S
C578 H552 0.950 . S
C578 C574 1.385 . S
C578 C577 1.374 . S
C579 C576 1.499 . S
C579 C580 1.373 . S
C579 C581 1.389 . S
C580 H553 0.950 . S
C580 C566 1.377 . S
C580 C579 1.373 . S
C581 C565 1.377 . S
C581 C579 1.389 . S
C581 C582 1.524 . S
C582 C581 1.524 . S
C582 C583 1.397 . S
C582 C587 1.363 . S
C583 H554 0.950 . S
C583 C582 1.397 . S
C583 C584 1.334 . S
C584 H555 0.950 . S
C584 C583 1.334 . S
C584 C585 1.287 . S
C585 C584 1.287 . S
C585 C586 1.524 . S
C585 H588 0.999 . S
C586 H556 0.950 . S
C586 C585 1.524 . S
C586 C587 1.415 . S
C587 H557 0.950 . S
C587 C582 1.363 . S
C587 C586 1.415 . S
H588 C585 0.999 . S
H589 C570 0.913 . S
H590 C608 0.951 . S
H591 C610 0.951 . S
H592 C612 0.950 . S
H593 C613 0.950 . S
H594 C615 0.950 . S
H595 C618 0.950 . S
H596 C619 0.950 . S
H597 C621 0.950 . S
H598 C622 0.950 . S
H599 C623 0.951 . S
H600 C625 0.951 . S
H601 C627 0.950 . S
H602 C628 0.950 . S
H603 C630 0.950 . S
H604 C633 0.950 . S
H605 C634 0.950 . S
H606 C636 0.950 . S
H607 C637 0.950 . S
C608 H590 0.951 . S
C608 C609 1.366 . S
C608 C610 1.388 . S
C609 C608 1.366 . S
C609 C613 1.385 . S
C610 H591 0.951 . S
C610 C608 1.388 . S
C610 C611 1.366 . S
C611 C610 1.366 . S
C611 C612 1.414 . S
C611 C614 1.499 . S
C612 H592 0.950 . S
C612 C611 1.414 . S
C612 C613 1.374 . S
C613 H593 0.950 . S
C613 C609 1.385 . S
C613 C612 1.374 . S
C614 C611 1.499 . S
C614 C615 1.373 . S
C614 C616 1.389 . S
C615 H594 0.950 . S
C615 C614 1.373 . S
C615 C631 1.377 . S
C616 C614 1.389 . S
C616 C617 1.524 . S
C616 C630 1.377 . S
C617 C616 1.524 . S
C617 C618 1.397 . S
C617 C622 1.363 . S
C618 H595 0.950 . S
C618 C617 1.397 . S
C618 C619 1.334 . S
C619 H596 0.950 . S
C619 C618 1.334 . S
C619 C620 1.287 . S
C620 C619 1.287 . S
C620 C621 1.524 . S
C620 H639 0.913 . S
C621 H597 0.950 . S
C621 C620 1.524 . S
C621 C622 1.415 . S
C622 H598 0.950 . S
C622 C617 1.363 . S
C622 C621 1.415 . S
C623 H599 0.951 . S
C623 C624 1.366 . S
C623 C625 1.388 . S
C624 C623 1.366 . S
C624 C628 1.385 . S
C625 H600 0.951 . S
C625 C623 1.388 . S
C625 C626 1.366 . S
C626 C625 1.366 . S
C626 C627 1.414 . S
C626 C629 1.499 . S
C627 H601 0.950 . S
C627 C626 1.414 . S
C627 C628 1.374 . S
C628 H602 0.950 . S
C628 C624 1.385 . S
C628 C627 1.374 . S
C629 C626 1.499 . S
C629 C630 1.373 . S
C629 C631 1.389 . S
C630 H603 0.950 . S
C630 C616 1.377 . S
C630 C629 1.373 . S
C631 C615 1.377 . S
C631 C629 1.389 . S
C631 C632 1.524 . S
C632 C631 1.524 . S
C632 C633 1.397 . S
C632 C637 1.363 . S
C633 H604 0.950 . S
C633 C632 1.397 . S
C633 C634 1.334 . S
C634 H605 0.950 . S
C634 C633 1.334 . S
C634 C635 1.287 . S
C635 C634 1.287 . S
C635 C636 1.524 . S
C635 H638 0.999 . S
C636 H606 0.950 . S
C636 C635 1.524 . S
C636 C637 1.415 . S
C637 H607 0.950 . S
C637 C632 1.363 . S
C637 C636 1.415 . S
H638 C635 0.999 . S
H639 C620 0.913 . S
H640 C658 0.951 . S
H641 C660 0.951 . S
H642 C662 0.950 . S
H643 C663 0.950 . S
H644 C665 0.950 . S
H645 C668 0.950 . S
H646 C669 0.950 . S
H647 C671 0.950 . S
H648 C672 0.950 . S
H649 C673 0.951 . S
H650 C675 0.951 . S
H651 C677 0.950 . S
H652 C678 0.950 . S
H653 C680 0.950 . S
H654 C683 0.950 . S
H655 C684 0.950 . S
H656 C686 0.950 . S
H657 C687 0.950 . S
C658 H640 0.951 . S
C658 C659 1.366 . S
C658 C660 1.388 . S
C659 C658 1.366 . S
C659 C663 1.385 . S
C660 H641 0.951 . S
C660 C658 1.388 . S
C660 C661 1.366 . S
C661 C660 1.366 . S
C661 C662 1.414 . S
C661 C664 1.499 . S
C662 H642 0.950 . S
C662 C661 1.414 . S
C662 C663 1.374 . S
C663 H643 0.950 . S
C663 C659 1.385 . S
C663 C662 1.374 . S
C664 C661 1.499 . S
C664 C665 1.373 . S
C664 C666 1.389 . S
C665 H644 0.950 . S
C665 C664 1.373 . S
C665 C681 1.377 . S
C666 C664 1.389 . S
C666 C667 1.524 . S
C666 C680 1.377 . S
C667 C666 1.524 . S
C667 C668 1.397 . S
C667 C672 1.363 . S
C668 H645 0.950 . S
C668 C667 1.397 . S
C668 C669 1.334 . S
C669 H646 0.950 . S
C669 C668 1.334 . S
C669 C670 1.287 . S
C670 C669 1.287 . S
C670 C671 1.524 . S
C670 H689 0.913 . S
C671 H647 0.950 . S
C671 C670 1.524 . S
C671 C672 1.415 . S
C672 H648 0.950 . S
C672 C667 1.363 . S
C672 C671 1.415 . S
C673 H649 0.951 . S
C673 C674 1.366 . S
C673 C675 1.388 . S
C674 C673 1.366 . S
C674 C678 1.385 . S
C675 H650 0.951 . S
C675 C673 1.388 . S
C675 C676 1.366 . S
C676 C675 1.366 . S
C676 C677 1.414 . S
C676 C679 1.499 . S
C677 H651 0.950 . S
C677 C676 1.414 . S
C677 C678 1.374 . S
C678 H652 0.950 . S
C678 C674 1.385 . S
C678 C677 1.374 . S
C679 C676 1.499 . S
C679 C680 1.373 . S
C679 C681 1.389 . S
C680 H653 0.950 . S
C680 C666 1.377 . S
C680 C679 1.373 . S
C681 C665 1.377 . S
C681 C679 1.389 . S
C681 C682 1.524 . S
C682 C681 1.524 . S
C682 C683 1.397 . S
C682 C687 1.363 . S
C683 H654 0.950 . S
C683 C682 1.397 . S
C683 C684 1.334 . S
C684 H655 0.950 . S
C684 C683 1.334 . S
C684 C685 1.287 . S
C685 C684 1.287 . S
C685 C686 1.524 . S
C685 H688 0.999 . S
C686 H656 0.950 . S
C686 C685 1.524 . S
C686 C687 1.415 . S
C687 H657 0.950 . S
C687 C682 1.363 . S
C687 C686 1.415 . S
H688 C685 0.999 . S
H689 C670 0.913 . S
H690 C708 0.951 . S
H691 C710 0.951 . S
H692 C712 0.950 . S
H693 C713 0.950 . S
H694 C715 0.950 . S
H695 C718 0.950 . S
H696 C719 0.950 . S
H697 C721 0.950 . S
H698 C722 0.950 . S
H699 C723 0.951 . S
H700 C725 0.951 . S
H701 C727 0.950 . S
H702 C728 0.950 . S
H703 C730 0.950 . S
H704 C733 0.950 . S
H705 C734 0.950 . S
H706 C736 0.950 . S
H707 C737 0.950 . S
C708 H690 0.951 . S
C708 C709 1.366 . S
C708 C710 1.388 . S
C709 C708 1.366 . S
C709 C713 1.385 . S
C710 H691 0.951 . S
C710 C708 1.388 . S
C710 C711 1.366 . S
C711 C710 1.366 . S
C711 C712 1.414 . S
C711 C714 1.499 . S
C712 H692 0.950 . S
C712 C711 1.414 . S
C712 C713 1.374 . S
C713 H693 0.950 . S
C713 C709 1.385 . S
C713 C712 1.374 . S
C714 C711 1.499 . S
C714 C715 1.373 . S
C714 C716 1.389 . S
C715 H694 0.950 . S
C715 C714 1.373 . S
C715 C731 1.377 . S
C716 C714 1.389 . S
C716 C717 1.524 . S
C716 C730 1.377 . S
C717 C716 1.524 . S
C717 C718 1.397 . S
C717 C722 1.363 . S
C718 H695 0.950 . S
C718 C717 1.397 . S
C718 C719 1.334 . S
C719 H696 0.950 . S
C719 C718 1.334 . S
C719 C720 1.287 . S
C720 C719 1.287 . S
C720 C721 1.524 . S
C720 H739 0.913 . S
C721 H697 0.950 . S
C721 C720 1.524 . S
C721 C722 1.415 . S
C722 H698 0.950 . S
C722 C717 1.363 . S
C722 C721 1.415 . S
C723 H699 0.951 . S
C723 C724 1.366 . S
C723 C725 1.388 . S
C724 C723 1.366 . S
C724 C728 1.385 . S
C725 H700 0.951 . S
C725 C723 1.388 . S
C725 C726 1.366 . S
C726 C725 1.366 . S
C726 C727 1.414 . S
C726 C729 1.499 . S
C727 H701 0.950 . S
C727 C726 1.414 . S
C727 C728 1.374 . S
C728 H702 0.950 . S
C728 C724 1.385 . S
C728 C727 1.374 . S
C729 C726 1.499 . S
C729 C730 1.373 . S
C729 C731 1.389 . S
C730 H703 0.950 . S
C730 C716 1.377 . S
C730 C729 1.373 . S
C731 C715 1.377 . S
C731 C729 1.389 . S
C731 C732 1.524 . S
C732 C731 1.524 . S
C732 C733 1.397 . S
C732 C737 1.363 . S
C733 H704 0.950 . S
C733 C732 1.397 . S
C733 C734 1.334 . S
C734 H705 0.950 . S
C734 C733 1.334 . S
C734 C735 1.287 . S
C735 C734 1.287 . S
C735 C736 1.524 . S
C735 H738 0.999 . S
C736 H706 0.950 . S
C736 C735 1.524 . S
C736 C737 1.415 . S
C737 H707 0.950 . S
C737 C732 1.363 . S
C737 C736 1.415 . S
H738 C735 0.999 . S
H739 C720 0.913 . S
H740 C758 0.951 . S
H741 C760 0.951 . S
H742 C762 0.950 . S
H743 C763 0.950 . S
H744 C765 0.950 . S
H745 C768 0.950 . S
H746 C769 0.950 . S
H747 C771 0.950 . S
H748 C772 0.950 . S
H749 C773 0.951 . S
H750 C775 0.951 . S
H751 C777 0.950 . S
H752 C778 0.950 . S
H753 C780 0.950 . S
H754 C783 0.950 . S
H755 C784 0.950 . S
H756 C786 0.950 . S
H757 C787 0.950 . S
C758 H740 0.951 . S
C758 C759 1.366 . S
C758 C760 1.388 . S
C759 C758 1.366 . S
C759 C763 1.385 . S
C760 H741 0.951 . S
C760 C758 1.388 . S
C760 C761 1.366 . S
C761 C760 1.366 . S
C761 C762 1.414 . S
C761 C764 1.499 . S
C762 H742 0.950 . S
C762 C761 1.414 . S
C762 C763 1.374 . S
C763 H743 0.950 . S
C763 C759 1.385 . S
C763 C762 1.374 . S
C764 C761 1.499 . S
C764 C765 1.373 . S
C764 C766 1.389 . S
C765 H744 0.950 . S
C765 C764 1.373 . S
C765 C781 1.377 . S
C766 C764 1.389 . S
C766 C767 1.524 . S
C766 C780 1.377 . S
C767 C766 1.524 . S
C767 C768 1.397 . S
C767 C772 1.363 . S
C768 H745 0.950 . S
C768 C767 1.397 . S
C768 C769 1.334 . S
C769 H746 0.950 . S
C769 C768 1.334 . S
C769 C770 1.287 . S
C770 C769 1.287 . S
C770 C771 1.524 . S
C770 H789 0.913 . S
C771 H747 0.950 . S
C771 C770 1.524 . S
C771 C772 1.415 . S
C772 H748 0.950 . S
C772 C767 1.363 . S
C772 C771 1.415 . S
C773 H749 0.951 . S
C773 C774 1.366 . S
C773 C775 1.388 . S
C774 C773 1.366 . S
C774 C778 1.385 . S
C775 H750 0.951 . S
C775 C773 1.388 . S
C775 C776 1.366 . S
C776 C775 1.366 . S
C776 C777 1.414 . S
C776 C779 1.499 . S
C777 H751 0.950 . S
C777 C776 1.414 . S
C777 C778 1.374 . S
C778 H752 0.950 . S
C778 C774 1.385 . S
C778 C777 1.374 . S
C779 C776 1.499 . S
C779 C780 1.373 . S
C779 C781 1.389 . S
C780 H753 0.950 . S
C780 C766 1.377 . S
C780 C779 1.373 . S
C781 C765 1.377 . S
C781 C779 1.389 . S
C781 C782 1.524 . S
C782 C781 1.524 . S
C782 C783 1.397 . S
C782 C787 1.363 . S
C783 H754 0.950 . S
C783 C782 1.397 . S
C783 C784 1.334 . S
C784 H755 0.950 . S
C784 C783 1.334 . S
C784 C785 1.287 . S
C785 C784 1.287 . S
C785 C786 1.524 . S
C785 H788 0.999 . S
C786 H756 0.950 . S
C786 C785 1.524 . S
C786 C787 1.415 . S
C787 H757 0.950 . S
C787 C782 1.363 . S
C787 C786 1.415 . S
H788 C785 0.999 . S
H789 C770 0.913 . S
H790 C808 0.951 . S
H791 C810 0.951 . S
H792 C812 0.950 . S
H793 C813 0.950 . S
H794 C815 0.950 . S
H795 C818 0.950 . S
H796 C819 0.950 . S
H797 C821 0.950 . S
H798 C822 0.950 . S
H799 C823 0.951 . S
H800 C825 0.951 . S
H801 C827 0.950 . S
H802 C828 0.950 . S
H803 C830 0.950 . S
H804 C833 0.950 . S
H805 C834 0.950 . S
H806 C836 0.950 . S
H807 C837 0.950 . S
C808 H790 0.951 . S
C808 C809 1.366 . S
C808 C810 1.388 . S
C809 C808 1.366 . S
C809 C813 1.385 . S
C810 H791 0.951 . S
C810 C808 1.388 . S
C810 C811 1.366 . S
C811 C810 1.366 . S
C811 C812 1.414 . S
C811 C814 1.499 . S
C812 H792 0.950 . S
C812 C811 1.414 . S
C812 C813 1.374 . S
C813 H793 0.950 . S
C813 C809 1.385 . S
C813 C812 1.374 . S
C814 C811 1.499 . S
C814 C815 1.373 . S
C814 C816 1.389 . S
C815 H794 0.950 . S
C815 C814 1.373 . S
C815 C831 1.377 . S
C816 C814 1.389 . S
C816 C817 1.524 . S
C816 C830 1.377 . S
C817 C816 1.524 . S
C817 C818 1.397 . S
C817 C822 1.363 . S
C818 H795 0.950 . S
C818 C817 1.397 . S
C818 C819 1.334 . S
C819 H796 0.950 . S
C819 C818 1.334 . S
C819 C820 1.287 . S
C820 C819 1.287 . S
C820 C821 1.524 . S
C820 H839 0.913 . S
C821 H797 0.950 . S
C821 C820 1.524 . S
C821 C822 1.415 . S
C822 H798 0.950 . S
C822 C817 1.363 . S
C822 C821 1.415 . S
C823 H799 0.951 . S
C823 C824 1.366 . S
C823 C825 1.388 . S
C824 C823 1.366 . S
C824 C828 1.385 . S
C825 H800 0.951 . S
C825 C823 1.388 . S
C825 C826 1.366 . S
C826 C825 1.366 . S
C826 C827 1.414 . S
C826 C829 1.499 . S
C827 H801 0.950 . S
C827 C826 1.414 . S
C827 C828 1.374 . S
C828 H802 0.950 . S
C828 C824 1.385 . S
C828 C827 1.374 . S
C829 C826 1.499 . S
C829 C830 1.373 . S
C829 C831 1.389 . S
C830 H803 0.950 . S
C830 C816 1.377 . S
C830 C829 1.373 . S
C831 C815 1.377 . S
C831 C829 1.389 . S
C831 C832 1.524 . S
C832 C831 1.524 . S
C832 C833 1.397 . S
C832 C837 1.363 . S
C833 H804 0.950 . S
C833 C832 1.397 . S
C833 C834 1.334 . S
C834 H805 0.950 . S
C834 C833 1.334 . S
C834 C835 1.287 . S
C835 C834 1.287 . S
C835 C836 1.524 . S
C835 H838 0.999 . S
C836 H806 0.950 . S
C836 C835 1.524 . S
C836 C837 1.415 . S
C837 H807 0.950 . S
C837 C832 1.363 . S
C837 C836 1.415 . S
H838 C835 0.999 . S
H839 C820 0.913 . S
H840 C858 0.951 . S
H841 C860 0.951 . S
H842 C862 0.950 . S
H843 C863 0.950 . S
H844 C865 0.950 . S
H845 C868 0.950 . S
H846 C869 0.950 . S
H847 C871 0.950 . S
H848 C872 0.950 . S
H849 C873 0.951 . S
H850 C875 0.951 . S
H851 C877 0.950 . S
H852 C878 0.947 . S
H853 C880 0.950 . S
H854 C883 0.939 1_455 S
H855 C884 0.950 . S
H856 C886 0.950 . S
H857 C887 0.950 . S
C858 H840 0.951 . S
C858 C859 1.366 . S
C858 C860 1.388 . S
C859 C858 1.366 . S
C859 C863 1.385 . S
C860 H841 0.951 . S
C860 C858 1.388 . S
C860 C861 1.366 . S
C861 C860 1.366 . S
C861 C862 1.414 . S
C861 C864 1.499 . S
C862 H842 0.950 . S
C862 C861 1.414 . S
C862 C863 1.374 . S
C863 H843 0.950 . S
C863 C859 1.385 . S
C863 C862 1.374 . S
C864 C861 1.499 . S
C864 C865 1.373 . S
C864 C866 1.389 . S
C865 H844 0.950 . S
C865 C864 1.373 . S
C865 C881 1.377 . S
C866 C864 1.389 . S
C866 C867 1.524 . S
C866 C880 1.377 . S
C867 C866 1.524 . S
C867 C868 1.397 . S
C867 C872 1.363 . S
C868 H845 0.950 . S
C868 C867 1.397 . S
C868 C869 1.334 . S
C869 H846 0.950 . S
C869 C868 1.334 . S
C869 C870 1.287 . S
C870 C869 1.287 . S
C870 C871 1.524 . S
C870 H889 0.913 . S
C871 H847 0.950 . S
C871 C870 1.524 . S
C871 C872 1.415 . S
C872 H848 0.950 . S
C872 C867 1.363 . S
C872 C871 1.415 . S
C873 H849 0.951 . S
C873 C874 1.366 . S
C873 C875 1.388 . S
C874 C873 1.366 . S
C874 C878 1.352 1_655 S
C875 H850 0.951 . S
C875 C873 1.388 . S
C875 C876 1.366 1_655 S
C876 C875 1.366 1_455 S
C876 C877 1.414 . S
C876 C879 1.499 . S
C877 H851 0.950 . S
C877 C876 1.414 . S
C877 C878 1.411 . S
C878 H852 0.947 . S
C878 C874 1.352 1_455 S
C878 C877 1.411 . S
C879 C876 1.499 . S
C879 C880 1.373 . S
C879 C881 1.389 . S
C880 H853 0.950 . S
C880 C866 1.377 . S
C880 C879 1.373 . S
C881 C865 1.377 . S
C881 C879 1.389 . S
C881 C882 1.524 1_455 S
C882 C881 1.524 1_655 S
C882 C883 1.397 . S
C882 C887 1.363 . S
C883 H854 0.939 1_655 S
C883 C882 1.397 . S
C883 C884 1.334 . S
C884 H855 0.950 . S
C884 C883 1.334 . S
C884 C885 1.287 . S
C885 C884 1.287 . S
C885 C886 1.524 . S
C885 H888 0.999 . S
C886 H856 0.950 . S
C886 C885 1.524 . S
C886 C887 1.415 . S
C887 H857 0.950 . S
C887 C882 1.363 . S
C887 C886 1.415 . S
H888 C885 0.999 . S
H889 C870 0.913 . S
H890 C908 0.951 . S
H891 C910 0.951 . S
H892 C912 0.950 . S
H893 C913 0.950 . S
H894 C915 0.950 . S
H895 C918 0.950 . S
H896 C919 0.950 . S
H897 C921 0.950 . S
H898 C922 0.950 . S
H899 C923 0.951 . S
H900 C925 0.951 . S
H901 C927 0.950 . S
H902 C928 0.950 . S
H903 C930 0.950 . S
H904 C933 0.950 1_565 S
H905 C934 0.950 . S
H906 C936 0.950 . S
H907 C937 0.950 . S
C908 H890 0.951 . S
C908 C909 1.366 . S
C908 C910 1.388 1_655 S
C909 C908 1.366 . S
C909 C913 1.385 . S
C910 H891 0.951 . S
C910 C908 1.388 1_455 S
C910 C911 1.366 . S
C911 C910 1.366 . S
C911 C912 1.414 . S
C911 C914 1.499 . S
C912 H892 0.950 . S
C912 C911 1.414 . S
C912 C913 1.374 1_455 S
C913 H893 0.950 . S
C913 C909 1.385 . S
C913 C912 1.374 1_655 S
C914 C911 1.499 . S
C914 C915 1.373 . S
C914 C916 1.389 . S
C915 H894 0.950 . S
C915 C914 1.373 . S
C915 C931 1.377 . S
C916 C914 1.389 . S
C916 C917 1.524 . S
C916 C930 1.377 . S
C917 C916 1.524 . S
C917 C918 1.397 . S
C917 C922 1.363 . S
C918 H895 0.950 . S
C918 C917 1.397 . S
C918 C919 1.334 . S
C919 H896 0.950 . S
C919 C918 1.334 . S
C919 C920 1.287 . S
C920 C919 1.287 . S
C920 C921 1.524 . S
C920 H939 0.913 . S
C921 H897 0.950 . S
C921 C920 1.524 . S
C921 C922 1.415 . S
C922 H898 0.950 . S
C922 C917 1.363 . S
C922 C921 1.415 . S
C923 H899 0.951 . S
C923 C924 1.366 . S
C923 C925 1.388 . S
C924 C923 1.366 . S
C924 C928 1.385 1_545 S
C925 H900 0.951 . S
C925 C923 1.388 . S
C925 C926 1.366 1_545 S
C926 C925 1.366 1_565 S
C926 C927 1.414 . S
C926 C929 1.499 . S
C927 H901 0.950 . S
C927 C926 1.414 . S
C927 C928 1.374 . S
C928 H902 0.950 . S
C928 C924 1.385 1_565 S
C928 C927 1.374 . S
C929 C926 1.499 . S
C929 C930 1.373 . S
C929 C931 1.389 . S
C930 H903 0.950 . S
C930 C916 1.377 . S
C930 C929 1.373 . S
C931 C915 1.377 . S
C931 C929 1.389 . S
C931 C932 1.524 1_565 S
C932 C931 1.524 1_545 S
C932 C933 1.397 . S
C932 C937 1.363 . S
C933 H904 0.950 1_545 S
C933 C932 1.397 . S
C933 C934 1.334 . S
C934 H905 0.950 . S
C934 C933 1.334 . S
C934 C935 1.287 . S
C935 C934 1.287 . S
C935 C936 1.524 . S
C935 H938 0.999 . S
C936 H906 0.950 . S
C936 C935 1.524 . S
C936 C937 1.415 . S
C937 H907 0.950 . S
C937 C932 1.363 . S
C937 C936 1.415 . S
H938 C935 0.999 . S
H939 C920 0.913 . S
H940 C958 0.951 . S
H941 C960 0.951 . S
H942 C962 0.950 . S
H943 C963 0.950 . S
H944 C965 0.950 . S
H945 C968 0.950 . S
H946 C969 0.950 . S
H947 C971 0.950 . S
H948 C972 0.950 . S
H949 C973 0.951 . S
H950 C975 0.951 . S
H951 C977 0.950 . S
H952 C978 0.950 . S
H953 C980 0.950 . S
H954 C983 0.950 . S
H955 C984 0.950 . S
H956 C986 0.950 . S
H957 C987 0.950 . S
C958 H940 0.951 . S
C958 C959 1.366 . S
C958 C960 1.388 1_545 S
C959 C958 1.366 . S
C959 C963 1.385 . S
C960 H941 0.951 . S
C960 C958 1.388 1_565 S
C960 C961 1.366 . S
C961 C960 1.366 . S
C961 C962 1.414 . S
C961 C964 1.499 . S
C962 H942 0.950 . S
C962 C961 1.414 . S
C962 C963 1.374 1_565 S
C963 H943 0.950 . S
C963 C959 1.385 . S
C963 C962 1.374 1_545 S
C964 C961 1.499 . S
C964 C965 1.373 . S
C964 C966 1.389 . S
C965 H944 0.950 . S
C965 C964 1.373 . S
C965 C981 1.377 . S
C966 C964 1.389 . S
C966 C967 1.524 . S
C966 C980 1.377 . S
C967 C966 1.524 . S
C967 C968 1.397 . S
C967 C972 1.363 . S
C968 H945 0.950 . S
C968 C967 1.397 . S
C968 C969 1.334 . S
C969 H946 0.950 . S
C969 C968 1.334 . S
C969 C970 1.287 . S
C970 C969 1.287 . S
C970 C971 1.524 . S
C970 H989 0.913 . S
C971 H947 0.950 . S
C971 C970 1.524 . S
C971 C972 1.415 . S
C972 H948 0.950 . S
C972 C967 1.363 . S
C972 C971 1.415 . S
C973 H949 0.951 . S
C973 C974 1.366 . S
C973 C975 1.388 . S
C974 C973 1.366 . S
C974 C978 1.385 . S
C975 H950 0.951 . S
C975 C973 1.388 . S
C975 C976 1.366 . S
C976 C975 1.366 . S
C976 C977 1.414 . S
C976 C979 1.499 . S
C977 H951 0.950 . S
C977 C976 1.414 . S
C977 C978 1.374 . S
C978 H952 0.950 . S
C978 C974 1.385 . S
C978 C977 1.374 . S
C979 C976 1.499 . S
C979 C980 1.373 . S
C979 C981 1.389 . S
C980 H953 0.950 . S
C980 C966 1.377 . S
C980 C979 1.373 . S
C981 C965 1.377 . S
C981 C979 1.389 . S
C981 C982 1.524 . S
C982 C981 1.524 . S
C982 C983 1.397 . S
C982 C987 1.363 . S
C983 H954 0.950 . S
C983 C982 1.397 . S
C983 C984 1.334 . S
C984 H955 0.950 . S
C984 C983 1.334 . S
C984 C985 1.287 . S
C985 C984 1.287 . S
C985 C986 1.524 . S
C985 H988 0.999 . S
C986 H956 0.950 . S
C986 C985 1.524 . S
C986 C987 1.415 . S
C987 H957 0.950 . S
C987 C982 1.363 . S
C987 C986 1.415 . S
H988 C985 0.999 . S
H989 C970 0.913 . S
H990 C1008 0.951 . S
H991 C1010 0.951 . S
H992 C1012 0.950 . S
H993 C1013 0.950 . S
H994 C1015 0.950 . S
H995 C1018 0.950 . S
H996 C1019 0.950 . S
H997 C1021 0.950 . S
H998 C1022 0.950 . S
H999 C1023 0.951 . S
H1000 C1025 0.951 . S
H1001 C1027 0.950 . S
H1002 C1028 0.950 . S
H1003 C1030 0.950 . S
H1004 C1033 0.950 1_565 S
H1005 C1034 0.950 1_565 S
H1006 C1036 0.950 . S
H1007 C1037 0.950 . S
C1008 H990 0.951 . S
C1008 C1009 1.366 . S
C1008 C1010 1.388 . S
C1009 C1008 1.366 . S
C1009 C1013 1.385 . S
C1010 H991 0.951 . S
C1010 C1008 1.388 . S
C1010 C1011 1.366 . S
C1011 C1010 1.366 . S
C1011 C1012 1.414 . S
C1011 C1014 1.499 . S
C1012 H992 0.950 . S
C1012 C1011 1.414 . S
C1012 C1013 1.374 . S
C1013 H993 0.950 . S
C1013 C1009 1.385 . S
C1013 C1012 1.374 . S
C1014 C1011 1.499 . S
C1014 C1015 1.373 . S
C1014 C1016 1.389 . S
C1015 H994 0.950 . S
C1015 C1014 1.373 . S
C1015 C1031 1.377 . S
C1016 C1014 1.389 . S
C1016 C1017 1.524 . S
C1016 C1030 1.377 . S
C1017 C1016 1.524 . S
C1017 C1018 1.397 . S
C1017 C1022 1.363 . S
C1018 H995 0.950 . S
C1018 C1017 1.397 . S
C1018 C1019 1.334 . S
C1019 H996 0.950 . S
C1019 C1018 1.334 . S
C1019 C1020 1.287 . S
C1020 C1019 1.287 . S
C1020 C1021 1.524 . S
C1020 H1039 0.913 . S
C1021 H997 0.950 . S
C1021 C1020 1.524 . S
C1021 C1022 1.415 . S
C1022 H998 0.950 . S
C1022 C1017 1.363 . S
C1022 C1021 1.415 . S
C1023 H999 0.951 . S
C1023 C1024 1.363 1_545 S
C1023 C1025 1.391 . S
C1024 C1023 1.363 1_565 S
C1024 C1028 1.385 . S
C1025 H1000 0.951 . S
C1025 C1023 1.391 . S
C1025 C1026 1.366 . S
C1026 C1025 1.366 . S
C1026 C1027 1.414 1_545 S
C1026 C1029 1.499 . S
C1027 H1001 0.950 . S
C1027 C1026 1.414 1_565 S
C1027 C1028 1.374 . S
C1028 H1002 0.950 . S
C1028 C1024 1.385 . S
C1028 C1027 1.374 . S
C1029 C1026 1.499 . S
C1029 C1030 1.373 . S
C1029 C1031 1.389 . S
C1030 H1003 0.950 . S
C1030 C1016 1.377 . S
C1030 C1029 1.373 . S
C1031 C1015 1.377 . S
C1031 C1029 1.389 . S
C1031 C1032 1.524 . S
C1032 C1031 1.524 . S
C1032 C1033 1.397 . S
C1032 C1037 1.363 . S
C1033 H1004 0.950 1_545 S
C1033 C1032 1.397 . S
C1033 C1034 1.334 . S
C1034 H1005 0.950 1_545 S
C1034 C1033 1.334 . S
C1034 C1035 1.287 . S
C1035 C1034 1.287 . S
C1035 C1036 1.524 . S
C1035 H1038 0.999 . S
C1036 H1006 0.950 . S
C1036 C1035 1.524 . S
C1036 C1037 1.415 . S
C1037 H1007 0.950 . S
C1037 C1032 1.363 . S
C1037 C1036 1.415 . S
H1038 C1035 0.999 . S
H1039 C1020 0.913 . S
H1040 C1058 0.951 . S
H1041 C1060 0.951 . S
H1042 C1062 0.950 . S
H1043 C1063 0.950 . S
H1044 C1065 0.950 . S
H1045 C1068 0.950 . S
H1046 C1069 0.950 . S
H1047 C1071 0.950 . S
H1048 C1072 0.950 . S
H1049 C1073 0.951 . S
H1050 C1075 0.951 . S
H1051 C1077 0.950 . S
H1052 C1078 0.950 . S
H1053 C1080 0.950 . S
H1054 C1083 0.950 . S
H1055 C1084 0.950 . S
H1056 C1086 0.950 . S
H1057 C1087 0.950 . S
C1058 H1040 0.951 . S
C1058 C1059 1.366 . S
C1058 C1060 1.388 1_455 S
C1059 C1058 1.366 . S
C1059 C1063 1.385 . S
C1060 H1041 0.951 . S
C1060 C1058 1.388 1_655 S
C1060 C1061 1.366 . S
C1061 C1060 1.366 . S
C1061 C1062 1.414 . S
C1061 C1064 1.499 . S
C1062 H1042 0.950 . S
C1062 C1061 1.414 . S
C1062 C1063 1.374 1_655 S
C1063 H1043 0.950 . S
C1063 C1059 1.385 . S
C1063 C1062 1.374 1_455 S
C1064 C1061 1.499 . S
C1064 C1065 1.373 . S
C1064 C1066 1.389 . S
C1065 H1044 0.950 . S
C1065 C1064 1.373 . S
C1065 C1081 1.377 . S
C1066 C1064 1.389 . S
C1066 C1067 1.524 . S
C1066 C1080 1.377 . S
C1067 C1066 1.524 . S
C1067 C1068 1.397 . S
C1067 C1072 1.363 . S
C1068 H1045 0.950 . S
C1068 C1067 1.397 . S
C1068 C1069 1.334 . S
C1069 H1046 0.950 . S
C1069 C1068 1.334 . S
C1069 C1070 1.287 . S
C1070 C1069 1.287 . S
C1070 C1071 1.524 . S
C1070 H1089 0.913 . S
C1071 H1047 0.950 . S
C1071 C1070 1.524 . S
C1071 C1072 1.415 . S
C1072 H1048 0.950 . S
C1072 C1067 1.363 . S
C1072 C1071 1.415 . S
C1073 H1049 0.951 . S
C1073 C1074 1.366 . S
C1073 C1075 1.388 . S
C1074 C1073 1.366 . S
C1074 C1078 1.385 . S
C1075 H1050 0.951 . S
C1075 C1073 1.388 . S
C1075 C1076 1.366 . S
C1076 C1075 1.366 . S
C1076 C1077 1.414 . S
C1076 C1079 1.499 . S
C1077 H1051 0.950 . S
C1077 C1076 1.414 . S
C1077 C1078 1.374 . S
C1078 H1052 0.950 . S
C1078 C1074 1.385 . S
C1078 C1077 1.374 . S
C1079 C1076 1.499 . S
C1079 C1080 1.373 . S
C1079 C1081 1.389 . S
C1080 H1053 0.950 . S
C1080 C1066 1.377 . S
C1080 C1079 1.373 . S
C1081 C1065 1.377 . S
C1081 C1079 1.389 . S
C1081 C1082 1.524 . S
C1082 C1081 1.524 . S
C1082 C1083 1.397 . S
C1082 C1087 1.363 . S
C1083 H1054 0.950 . S
C1083 C1082 1.397 . S
C1083 C1084 1.334 . S
C1084 H1055 0.950 . S
C1084 C1083 1.334 . S
C1084 C1085 1.287 . S
C1085 C1084 1.287 . S
C1085 C1086 1.524 . S
C1085 H1088 0.999 . S
C1086 H1056 0.950 . S
C1086 C1085 1.524 . S
C1086 C1087 1.415 . S
C1087 H1057 0.950 . S
C1087 C1082 1.363 . S
C1087 C1086 1.415 . S
H1088 C1085 0.999 . S
H1089 C1070 0.913 . S
H1090 C1108 0.951 . S
H1091 C1110 0.951 . S
H1092 C1112 0.950 . S
H1093 C1113 0.950 . S
H1094 C1115 0.950 . S
H1095 C1118 0.950 . S
H1096 C1119 0.950 . S
H1097 C1121 0.950 . S
H1098 C1122 0.950 . S
H1099 C1123 0.951 . S
H1100 C1125 0.951 . S
H1101 C1127 0.950 . S
H1102 C1128 0.950 . S
H1103 C1130 0.950 . S
H1104 C1133 0.950 . S
H1105 C1134 0.950 . S
H1106 C1136 0.950 . S
H1107 C1137 0.950 . S
C1108 H1090 0.951 . S
C1108 C1109 1.366 . S
C1108 C1110 1.388 . S
C1109 C1108 1.366 . S
C1109 C1113 1.385 . S
C1110 H1091 0.951 . S
C1110 C1108 1.388 . S
C1110 C1111 1.366 1_455 S
C1111 C1110 1.366 1_655 S
C1111 C1112 1.414 . S
C1111 C1114 1.499 . S
C1112 H1092 0.950 . S
C1112 C1111 1.414 . S
C1112 C1113 1.374 1_655 S
C1113 H1093 0.950 . S
C1113 C1109 1.385 . S
C1113 C1112 1.374 1_455 S
C1114 C1111 1.499 . S
C1114 C1115 1.373 . S
C1114 C1116 1.389 . S
C1115 H1094 0.950 . S
C1115 C1114 1.373 . S
C1115 C1131 1.377 . S
C1116 C1114 1.389 . S
C1116 C1117 1.524 1_655 S
C1116 C1130 1.377 . S
C1117 C1116 1.524 1_455 S
C1117 C1118 1.397 . S
C1117 C1122 1.363 . S
C1118 H1095 0.950 . S
C1118 C1117 1.397 . S
C1118 C1119 1.334 . S
C1119 H1096 0.950 . S
C1119 C1118 1.334 . S
C1119 C1120 1.287 . S
C1120 C1119 1.287 . S
C1120 C1121 1.524 . S
C1120 H1139 0.913 . S
C1121 H1097 0.950 . S
C1121 C1120 1.524 . S
C1121 C1122 1.415 . S
C1122 H1098 0.950 . S
C1122 C1117 1.363 . S
C1122 C1121 1.415 . S
C1123 H1099 0.951 . S
C1123 C1124 1.366 . S
C1123 C1125 1.388 1_565 S
C1124 C1123 1.366 . S
C1124 C1128 1.385 . S
C1125 H1100 0.951 . S
C1125 C1123 1.388 1_545 S
C1125 C1126 1.366 . S
C1126 C1125 1.366 . S
C1126 C1127 1.414 . S
C1126 C1129 1.499 . S
C1127 H1101 0.950 . S
C1127 C1126 1.414 . S
C1127 C1128 1.374 1_545 S
C1128 H1102 0.950 . S
C1128 C1124 1.385 . S
C1128 C1127 1.374 1_565 S
C1129 C1126 1.499 . S
C1129 C1130 1.373 . S
C1129 C1131 1.389 . S
C1130 H1103 0.950 . S
C1130 C1116 1.377 . S
C1130 C1129 1.373 . S
C1131 C1115 1.377 . S
C1131 C1129 1.389 . S
C1131 C1132 1.524 . S
C1132 C1131 1.524 . S
C1132 C1133 1.397 . S
C1132 C1137 1.363 . S
C1133 H1104 0.950 . S
C1133 C1132 1.397 . S
C1133 C1134 1.334 . S
C1134 H1105 0.950 . S
C1134 C1133 1.334 . S
C1134 C1135 1.287 . S
C1135 C1134 1.287 . S
C1135 C1136 1.524 . S
C1135 H1138 0.999 . S
C1136 H1106 0.950 . S
C1136 C1135 1.524 . S
C1136 C1137 1.415 . S
C1137 H1107 0.950 . S
C1137 C1132 1.363 . S
C1137 C1136 1.415 . S
H1138 C1135 0.999 . S
H1139 C1120 0.913 . S
C259 C178 2.325 . S
C274 C18 2.497 . S
C309 C209 2.496 . S
C324 C49 2.324 . S
C359 C98 2.496 . S
C374 C138 2.325 . S
C409 C9 2.325 . S
C424 C169 2.497 . S
C459 C218 2.324 . S
C474 C58 2.496 . S
C509 C89 2.325 . S
C524 C129 2.496 . S
C559 C6 1.893 . S
C574 C90 1.831 . S
C609 C46 1.893 . S
C624 C10 1.830 . S
C659 C86 1.893 . S
C674 C50 1.830 . S
C709 C135 1.893 . S
C724 C179 1.831 . S
C759 C175 1.893 . S
C774 C219 1.831 . S
C809 C139 1.830 . S
C824 C215 1.893 . S
C859 C15 1.001 . S
C874 C99 1.016 . S
C909 C55 1.000 . S
C924 C19 1.016 . S
C959 C95 1.000 . S
C974 C59 1.016 . S
C1009 C126 1.000 . S
C1024 C170 1.016 . S
C1059 C166 1.000 . S
C1074 C210 1.016 . S
C1109 C130 1.016 . S
C1124 C206 1.001 . S
