# Generated by pormake.
# Topology ecn, (8)-cn, num edge types: 1
# Building blocks:
#     Node 0, Type 0, BuildingBlock: EBIMEJ_clean_sbu_0, # of connection points: 8
#     Node 1, Type 0, BuildingBlock: EBIMEJ_clean_sbu_0, # of connection points: 8
#     Node 2, Type 0, BuildingBlock: EBIMEJ_clean_sbu_0, # of connection points: 8
#     Node 3, Type 0, BuildingBlock: EBIMEJ_clean_sbu_0, # of connection points: 8
#     Node 4, Type 0, BuildingBlock: EBIMEJ_clean_sbu_0, # of connection points: 8
#     Node 5, Type 0, BuildingBlock: EBIMEJ_clean_sbu_0, # of connection points: 8
#     Node 6, Type 0, BuildingBlock: EBIMEJ_clean_sbu_0, # of connection points: 8
#     Node 7, Type 0, BuildingBlock: EBIMEJ_clean_sbu_0, # of connection points: 8
#     Node 8, Type 0, BuildingBlock: EBIMEJ_clean_sbu_0, # of connection points: 8
#     Edge 9, Type (0, 0), BuildingBlock: KIFKEQ_clean_linker_1, # of connection points: 2
#     Edge 10, Type (0, 0), BuildingBlock: KIFKEQ_clean_linker_1, # of connection points: 2
#     Edge 11, Type (0, 0), BuildingBlock: KIFKEQ_clean_linker_1, # of connection points: 2
#     Edge 12, Type (0, 0), BuildingBlock: KIFKEQ_clean_linker_1, # of connection points: 2
#     Edge 13, Type (0, 0), BuildingBlock: KIFKEQ_clean_linker_1, # of connection points: 2
#     Edge 14, Type (0, 0), BuildingBlock: KIFKEQ_clean_linker_1, # of connection points: 2
#     Edge 15, Type (0, 0), BuildingBlock: KIFKEQ_clean_linker_1, # of connection points: 2
#     Edge 16, Type (0, 0), BuildingBlock: KIFKEQ_clean_linker_1, # of connection points: 2
#     Edge 17, Type (0, 0), BuildingBlock: KIFKEQ_clean_linker_1, # of connection points: 2
#     Edge 18, Type (0, 0), BuildingBlock: KIFKEQ_clean_linker_1, # of connection points: 2
#     Edge 19, Type (0, 0), BuildingBlock: KIFKEQ_clean_linker_1, # of connection points: 2
#     Edge 20, Type (0, 0), BuildingBlock: KIFKEQ_clean_linker_1, # of connection points: 2
#     Edge 21, Type (0, 0), BuildingBlock: KIFKEQ_clean_linker_1, # of connection points: 2
#     Edge 22, Type (0, 0), BuildingBlock: KIFKEQ_clean_linker_1, # of connection points: 2
#     Edge 23, Type (0, 0), BuildingBlock: KIFKEQ_clean_linker_1, # of connection points: 2
#     Edge 24, Type (0, 0), BuildingBlock: KIFKEQ_clean_linker_1, # of connection points: 2
#     Edge 25, Type (0, 0), BuildingBlock: KIFKEQ_clean_linker_1, # of connection points: 2
#     Edge 26, Type (0, 0), BuildingBlock: KIFKEQ_clean_linker_1, # of connection points: 2
#     Edge 27, Type (0, 0), BuildingBlock: KIFKEQ_clean_linker_1, # of connection points: 2
#     Edge 28, Type (0, 0), BuildingBlock: KIFKEQ_clean_linker_1, # of connection points: 2
#     Edge 29, Type (0, 0), BuildingBlock: KIFKEQ_clean_linker_1, # of connection points: 2
#     Edge 30, Type (0, 0), BuildingBlock: KIFKEQ_clean_linker_1, # of connection points: 2
#     Edge 31, Type (0, 0), BuildingBlock: KIFKEQ_clean_linker_1, # of connection points: 2
#     Edge 32, Type (0, 0), BuildingBlock: KIFKEQ_clean_linker_1, # of connection points: 2
#     Edge 33, Type (0, 0), BuildingBlock: KIFKEQ_clean_linker_1, # of connection points: 2
#     Edge 34, Type (0, 0), BuildingBlock: KIFKEQ_clean_linker_1, # of connection points: 2
#     Edge 35, Type (0, 0), BuildingBlock: KIFKEQ_clean_linker_1, # of connection points: 2
#     Edge 36, Type (0, 0), BuildingBlock: KIFKEQ_clean_linker_1, # of connection points: 2
#     Edge 37, Type (0, 0), BuildingBlock: KIFKEQ_clean_linker_1, # of connection points: 2
#     Edge 38, Type (0, 0), BuildingBlock: KIFKEQ_clean_linker_1, # of connection points: 2
#     Edge 39, Type (0, 0), BuildingBlock: KIFKEQ_clean_linker_1, # of connection points: 2
#     Edge 40, Type (0, 0), BuildingBlock: KIFKEQ_clean_linker_1, # of connection points: 2
#     Edge 41, Type (0, 0), BuildingBlock: KIFKEQ_clean_linker_1, # of connection points: 2
#     Edge 42, Type (0, 0), BuildingBlock: KIFKEQ_clean_linker_1, # of connection points: 2
#     Edge 43, Type (0, 0), BuildingBlock: KIFKEQ_clean_linker_1, # of connection points: 2
#     Edge 44, Type (0, 0), BuildingBlock: KIFKEQ_clean_linker_1, # of connection points: 2
# Relax obj value: 0.176
# Max RMSD: 0.239
# Mean RMSD: 0.239
data_MOF--net-ecn--node1-EBIMEJ_clean_sbu_0--edge1-KIFKEQ_clean_linker_1
_symmetry_space_group_name_H-M    P1
_symmetry_Int_Tables_number       1
_symmetry_cell_setting            triclinic
loop_
_symmetry_equiv_pos_as_xyz
'x, y, z'
_cell_length_a     54.452335
_cell_length_b     54.447524
_cell_length_c     15.838882
_cell_angle_alpha  89.9138
_cell_angle_beta   90.04741
_cell_angle_gamma 119.97878
loop_
_atom_site_label
_atom_site_type_symbol
_atom_site_fract_x
_atom_site_fract_y
_atom_site_fract_z
_atom_type_partial_charge
Co0 Co 0.18503 0.30116 0.95307 0.0
Co1 Co 0.14903 0.23699 0.02733 0.0
Co2 Co 0.11729 0.26777 0.99115 0.0
H3 H 0.15121 0.28092 0.99054 0.0
O4 O 0.15599 0.27594 0.03655 0.0
H5 H 0.11603 0.22328 0.02101 0.0
O6 O 0.11091 0.22898 0.97746 0.0
Co7 Co 0.08287 0.19982 0.05427 0.0
O8 O 0.09685 0.17123 0.05668 0.0
O9 O 0.14197 0.19775 0.01674 0.0
O10 O 0.05889 0.21837 0.0686 0.0
O11 O 0.07576 0.25519 0.97799 0.0
O12 O 0.22405 0.31247 0.90087 0.0
O13 O 0.21416 0.34349 0.93203 0.0
O14 O 0.09538 0.22365 0.15846 0.0
O15 O 0.13964 0.23214 0.15148 0.0
C16 C 0.14705 0.32878 0.95407 0.0
C17 C 0.21147 0.27048 0.05131 0.0
C18 C 0.039 0.15278 0.04034 0.0
C19 C 0.14273 0.27154 0.81898 0.0
C20 C 0.12068 0.17387 0.03582 0.0
C21 C 0.05633 0.23723 0.02775 0.0
C22 C 0.23253 0.33857 0.90118 0.0
C23 C 0.11912 0.23132 0.1929 0.0
O24 O 0.16944 0.32817 0.93235 0.0
O25 O 0.12624 0.30807 0.99236 0.0
O26 O 0.18771 0.24808 0.06197 0.0
O27 O 0.21392 0.29231 0.01243 0.0
O28 O 0.04229 0.17123 0.09355 0.0
O29 O 0.06064 0.16101 0.99504 0.0
O30 O 0.1671 0.27866 0.84844 0.0
O31 O 0.1228 0.27024 0.86494 0.0
Co32 Co 0.74237 0.89386 0.95033 0.0
Co33 Co 0.80532 0.92073 0.03035 0.0
Co34 Co 0.77392 0.85832 0.99468 0.0
H35 H 0.76142 0.87957 0.99188 0.0
O36 O 0.76611 0.88926 0.03789 0.0
H37 H 0.81885 0.90124 0.02473 0.0
O38 O 0.81304 0.89028 0.98156 0.0
Co39 Co 0.84248 0.89166 0.05797 0.0
O40 O 0.87141 0.93407 0.0569 0.0
O41 O 0.84468 0.95275 0.0209 0.0
O42 O 0.82386 0.84903 0.06893 0.0
O43 O 0.78586 0.82885 0.98255 0.0
O44 O 0.70522 0.88065 0.88236 0.0
O45 O 0.72525 0.92007 0.93935 0.0
O46 O 0.81981 0.8813 0.164 0.0
O47 O 0.80917 0.91565 0.15494 0.0
C48 C 0.71406 0.82813 0.94918 0.0
C49 C 0.77306 0.95098 0.04866 0.0
C50 C 0.89013 0.89578 0.05232 0.0
C51 C 0.77497 0.88273 0.82523 0.0
C52 C 0.86867 0.95527 0.03741 0.0
C53 C 0.80437 0.82751 0.03012 0.0
C54 C 0.70469 0.90315 0.89478 0.0
C55 C 0.81131 0.89683 0.19744 0.0
O56 O 0.71603 0.85144 0.92331 0.0
O57 O 0.7333 0.82771 0.99504 0.0
O58 O 0.79466 0.94859 0.06369 0.0
O59 O 0.7515 0.93209 0.00752 0.0
O60 O 0.88232 0.90677 0.10811 0.0
O61 O 0.87095 0.88268 -0.00137 0.0
O62 O 0.77018 0.90139 0.85671 0.0
O63 O 0.77186 0.86153 0.86852 0.0
Co64 Co 0.14833 0.8569 0.94748 0.0
Co65 Co 0.12165 0.89379 0.02244 0.0
Co66 Co 0.18424 0.92457 0.98669 0.0
H67 H 0.16283 0.89074 0.98564 0.0
O68 O 0.1531 0.88602 0.03166 0.0
H69 H 0.1414 0.92668 0.01706 0.0
O70 O 0.15236 0.93187 0.97385 0.0
Co71 Co 0.15143 0.9598 0.05129 0.0
O72 O 0.10893 0.946 0.05851 0.0
O73 O 0.09001 0.90164 0.01147 0.0
O74 O 0.19405 0.9837 0.06281 0.0
O75 O 0.21381 0.96602 0.97432 0.0
O76 O 0.13574 0.82597 0.85541 0.0
O77 O 0.14656 0.81888 0.97476 0.0
O78 O 0.16285 0.94655 0.15376 0.0
O79 O 0.12617 0.90284 0.14678 0.0
C80 C 0.21394 0.89423 0.94166 0.0
C81 C 0.09091 0.83109 0.04247 0.0
C82 C 0.14813 1.00363 0.03766 0.0
C83 C 0.16143 0.8998 0.81494 0.0
C84 C 0.08762 0.92269 0.03478 0.0
C85 C 0.2154 0.98579 0.0228 0.0
C86 C 0.13845 0.80881 0.90202 0.0
C87 C 0.14632 0.92293 0.18814 0.0
O88 O 0.19033 0.8727 0.91938 0.0
O89 O 0.21499 0.91453 0.98564 0.0
O90 O 0.09334 0.85519 0.0559 0.0
O91 O 0.10988 0.8282 0.00307 0.0
O92 O 0.16376 1.00054 0.0897 0.0
O93 O 0.13436 0.98184 0.99331 0.0
O94 O 0.14368 0.87564 0.84471 0.0
O95 O 0.18067 0.91937 0.86043 0.0
Co96 Co 0.85232 0.63301 0.28475 0.0
Co97 Co 0.81559 0.56956 0.36085 0.0
Co98 Co 0.7848 0.60136 0.32494 0.0
H99 H 0.8186 0.61376 0.32381 0.0
O100 O 0.82337 0.60879 0.36986 0.0
H101 H 0.78269 0.55648 0.35601 0.0
O102 O 0.77743 0.56215 0.31269 0.0
Co103 Co 0.74969 0.5336 0.3916 0.0
O104 O 0.76326 0.50469 0.39575 0.0
O105 O 0.80773 0.5301 0.34958 0.0
O106 O 0.72561 0.55218 0.40118 0.0
O107 O 0.7434 0.58956 0.3122 0.0
O108 O 0.87767 0.6727 0.23171 0.0
O109 O 0.89453 0.64694 0.25893 0.0
O110 O 0.76339 0.55917 0.49197 0.0
O111 O 0.80656 0.56486 0.48525 0.0
C112 C 0.81501 0.66137 0.27964 0.0
C113 C 0.87807 0.60224 0.38525 0.0
C114 C 0.70611 0.48597 0.38668 0.0
C115 C 0.80943 0.60248 0.15403 0.0
C116 C 0.78649 0.50661 0.37168 0.0
C117 C 0.72357 0.57142 0.36067 0.0
C118 C 0.89943 0.67032 0.22908 0.0
C119 C 0.78684 0.56567 0.52649 0.0
O120 O 0.83657 0.65935 0.25714 0.0
O121 O 0.79478 0.6421 0.32377 0.0
O122 O 0.85418 0.57989 0.39449 0.0
O123 O 0.88086 0.62429 0.34678 0.0
O124 O 0.72439 0.49421 0.44423 0.0
O125 O 0.71273 0.5047 0.33101 0.0
O126 O 0.83328 0.60824 0.18472 0.0
O127 O 0.79014 0.60305 0.19868 0.0
Co128 Co 0.40943 0.22802 0.28032 0.0
Co129 Co 0.47218 0.25446 0.35957 0.0
Co130 Co 0.44041 0.19185 0.32408 0.0
H131 H 0.42817 0.21332 0.32156 0.0
O132 O 0.4329 0.22306 0.36751 0.0
H133 H 0.48538 0.23471 0.35539 0.0
O134 O 0.47968 0.22367 0.31239 0.0
Co135 Co 0.50867 0.22492 0.39019 0.0
O136 O 0.53744 0.26735 0.39467 0.0
O137 O 0.51172 0.28619 0.34945 0.0
O138 O 0.49005 0.18222 0.39933 0.0
O139 O 0.45221 0.16223 0.31222 0.0
O140 O 0.39082 0.24035 0.18799 0.0
O141 O 0.37251 0.22858 0.3065 0.0
O142 O 0.4849 0.21434 0.49384 0.0
O143 O 0.476 0.24985 0.48455 0.0
C144 C 0.3808 0.16234 0.27527 0.0
C145 C 0.44072 0.28583 0.37238 0.0
C146 C 0.55633 0.22909 0.38439 0.0
C147 C 0.44211 0.2169 0.15516 0.0
C148 C 0.53531 0.2886 0.37118 0.0
C149 C 0.47063 0.16079 0.36003 0.0
C150 C 0.37062 0.23699 0.23408 0.0
C151 C 0.47719 0.23052 0.52716 0.0
O152 O 0.38326 0.186 0.25126 0.0
O153 O 0.3996 0.16124 0.32163 0.0
O154 O 0.46182 0.28291 0.39077 0.0
O155 O 0.41921 0.26701 0.33146 0.0
O156 O 0.54832 0.23956 0.44121 0.0
O157 O 0.53734 0.21646 0.32984 0.0
O158 O 0.43728 0.2355 0.18688 0.0
O159 O 0.439 0.19561 0.19805 0.0
Co160 Co 0.81483 0.19019 0.28515 0.0
Co161 Co 0.78772 0.22655 0.35988 0.0
Co162 Co 0.85034 0.25775 0.32392 0.0
H163 H 0.82913 0.22395 0.32333 0.0
O164 O 0.81941 0.21917 0.36939 0.0
H165 H 0.80735 0.25945 0.35485 0.0
O166 O 0.81827 0.2648 0.31155 0.0
Co167 Co 0.81731 0.29241 0.39035 0.0
O168 O 0.77477 0.2786 0.39377 0.0
O169 O 0.7559 0.2341 0.34821 0.0
O170 O 0.85995 0.31671 0.39995 0.0
O171 O 0.87969 0.29919 0.31089 0.0
O172 O 0.79551 0.15667 0.2015 0.0
O173 O 0.81916 0.15488 0.30151 0.0
O174 O 0.82944 0.27879 0.49048 0.0
O175 O 0.79199 0.23563 0.48419 0.0
C176 C 0.88033 0.22771 0.27854 0.0
C177 C 0.75822 0.16399 0.38375 0.0
C178 C 0.81289 0.33576 0.38566 0.0
C179 C 0.82731 0.23281 0.15255 0.0
C180 C 0.75353 0.2553 0.36984 0.0
C181 C 0.88126 0.31893 0.35939 0.0
C182 C 0.80454 0.14221 0.23777 0.0
C183 C 0.81257 0.25536 0.52522 0.0
O184 O 0.85678 0.20611 0.25637 0.0
O185 O 0.88129 0.24797 0.32253 0.0
O186 O 0.75964 0.18782 0.39365 0.0
O187 O 0.77753 0.16141 0.34549 0.0
O188 O 0.80262 0.31722 0.44253 0.0
O189 O 0.82543 0.32952 0.33056 0.0
O190 O 0.80966 0.20869 0.18271 0.0
O191 O 0.84663 0.25242 0.19771 0.0
Co192 Co 0.51839 0.96596 0.61288 0.0
Co193 Co 0.48176 0.90235 0.68802 0.0
Co194 Co 0.4507 0.93386 0.6521 0.0
H195 H 0.48456 0.94646 0.65102 0.0
O196 O 0.48929 0.94147 0.69711 0.0
H197 H 0.44884 0.88898 0.68242 0.0
O198 O 0.44366 0.89478 0.63921 0.0
Co199 Co 0.41575 0.86557 0.71622 0.0
O200 O 0.42966 0.83688 0.72128 0.0
O201 O 0.47429 0.86304 0.67707 0.0
O202 O 0.39192 0.88436 0.72864 0.0
O203 O 0.40924 0.92176 0.6398 0.0
O204 O 0.54945 0.98474 0.52126 0.0
O205 O 0.55632 1.0021 0.64122 0.0
O206 O 0.42859 0.88982 0.81944 0.0
O207 O 0.47262 0.89768 0.81234 0.0
C208 C 0.48076 0.99397 0.60755 0.0
C209 C 0.5444 0.93423 0.70653 0.0
C210 C 0.37207 0.81832 0.70313 0.0
C211 C 0.4756 0.93626 0.48007 0.0
C212 C 0.45327 0.83934 0.69865 0.0
C213 C 0.38964 0.90357 0.68877 0.0
C214 C 0.56651 1.0044 0.56848 0.0
C215 C 0.4523 0.89725 0.85377 0.0
O216 O 0.5024 0.99209 0.58525 0.0
O217 O 0.46046 0.97455 0.65122 0.0
O218 O 0.52032 0.91278 0.72158 0.0
O219 O 0.54724 0.95601 0.66665 0.0
O220 O 0.37527 0.83684 0.75596 0.0
O221 O 0.3937 0.82662 0.65769 0.0
O222 O 0.49984 0.94291 0.5096 0.0
O223 O 0.45592 0.93563 0.5258 0.0
Co224 Co 0.07637 0.56072 0.61615 0.0
Co225 Co 0.13878 0.58657 0.69659 0.0
Co226 Co 0.10702 0.52428 0.65821 0.0
H227 H 0.09492 0.54581 0.6568 0.0
O228 O 0.09954 0.55524 0.70329 0.0
H229 H 0.15219 0.56683 0.69035 0.0
O230 O 0.14632 0.5561 0.64671 0.0
Co231 Co 0.17559 0.55662 0.72229 0.0
O232 O 0.20473 0.59909 0.7195 0.0
O233 O 0.17817 0.61838 0.68783 0.0
O234 O 0.15731 0.51368 0.72759 0.0
O235 O 0.1185 0.4947 0.64392 0.0
O236 O 0.05849 0.57424 0.52492 0.0
O237 O 0.03902 0.56047 0.64139 0.0
O238 O 0.15329 0.54674 0.82917 0.0
O239 O 0.14262 0.58112 0.82053 0.0
C240 C 0.04741 0.49507 0.61004 0.0
C241 C 0.10673 0.61724 0.71534 0.0
C242 C 0.22327 0.5607 0.71963 0.0
C243 C 0.10861 0.54956 0.48967 0.0
C244 C 0.20213 0.62053 0.7021 0.0
C245 C 0.13706 0.49266 0.68913 0.0
C246 C 0.03774 0.5699 0.57002 0.0
C247 C 0.14486 0.56233 0.86275 0.0
O248 O 0.05 0.51881 0.5864 0.0
O249 O 0.0662 0.49379 0.65591 0.0
O250 O 0.12816 0.61458 0.73137 0.0
O251 O 0.08558 0.59888 0.67212 0.0
O252 O 0.21555 0.57263 0.77254 0.0
O253 O 0.20395 0.54658 0.66725 0.0
O254 O 0.10377 0.56816 0.52129 0.0
O255 O 0.10547 0.52828 0.53254 0.0
Co256 Co 0.48165 0.52373 0.61813 0.0
Co257 Co 0.45555 0.55955 0.70278 0.0
Co258 Co 0.5177 0.59065 0.66258 0.0
H259 H 0.49646 0.55695 0.66008 0.0
O260 O 0.48715 0.55187 0.70683 0.0
H261 H 0.47497 0.59264 0.69516 0.0
O262 O 0.48549 0.59746 0.65107 0.0
Co263 Co 0.48522 0.62629 0.726 0.0
O264 O 0.44281 0.61304 0.72575 0.0
O265 O 0.4235 0.56698 0.69674 0.0
O266 O 0.52743 0.64647 0.75209 0.0
O267 O 0.54664 0.63217 0.65152 0.0
O268 O 0.48923 0.49998 0.53065 0.0
O269 O 0.46145 0.48011 0.62971 0.0
O270 O 0.49453 0.61483 0.83526 0.0
O271 O 0.46192 0.56909 0.82626 0.0
C272 C 0.54747 0.56092 0.61363 0.0
C273 C 0.42533 0.49709 0.72002 0.0
C274 C 0.48283 0.67041 0.70518 0.0
C275 C 0.49264 0.5678 0.49442 0.0
C276 C 0.4213 0.58881 0.71042 0.0
C277 C 0.54883 0.64968 0.70966 0.0
C278 C 0.4726 0.47665 0.56488 0.0
C279 C 0.47987 0.59058 0.86852 0.0
O280 O 0.52379 0.53966 0.59015 0.0
O281 O 0.54863 0.58092 0.65948 0.0
O282 O 0.42809 0.52098 0.73937 0.0
O283 O 0.44328 0.49465 0.6734 0.0
O284 O 0.4992 0.66809 0.75619 0.0
O285 O 0.46802 0.64776 0.66536 0.0
O286 O 0.47391 0.54441 0.52606 0.0
O287 O 0.51408 0.58566 0.53702 0.0
H288 H 0.26849 0.30621 0.01461 0.0
H289 H 0.21175 0.23209 0.16044 0.0
H290 H 0.30857 0.3006 0.06061 0.0
H291 H 0.25096 0.22619 0.20344 0.0
H292 H 0.32778 0.23391 0.33054 0.0
H293 H 0.29185 0.24595 0.29077 0.0
H294 H 0.32789 0.26857 0.04047 0.0
H295 H 0.3644 0.2571 0.08143 0.0
C296 C 0.26456 0.28897 0.05693 0.0
C297 C 0.2368 0.26968 0.08367 0.0
C298 C 0.28747 0.28557 0.08265 0.0
C299 C 0.28308 0.26295 0.13609 0.0
C300 C 0.25539 0.24415 0.16371 0.0
C301 C 0.23273 0.24748 0.13824 0.0
C302 C 0.32808 0.24149 0.26707 0.0
C303 C 0.34876 0.24428 0.20894 0.0
C304 C 0.30742 0.24836 0.24406 0.0
C305 C 0.30676 0.2581 0.16206 0.0
C306 C 0.32785 0.26142 0.10432 0.0
C307 C 0.34861 0.25457 0.12752 0.0
H308 H 0.82039 0.1076 0.31485 0.0
H309 H 0.77217 0.11112 0.10348 0.0
H310 H 0.80947 0.06022 0.27266 0.0
H311 H 0.76171 0.0637 0.05957 0.0
H312 H 0.73163 0.96679 0.04698 0.0
H313 H 0.73686 1.01218 0.09449 0.0
H314 H 0.82414 0.04134 0.16022 0.0
H315 H 0.81904 0.9969 0.11521 0.0
C316 C 0.80748 0.09824 0.25918 0.0
C317 C 0.7974 0.11321 0.21205 0.0
C318 C 0.80125 0.07107 0.23473 0.0
C319 C 0.7849 0.05815 0.1621 0.0
C320 C 0.77417 0.07287 0.11609 0.0
C321 C 0.78038 0.10013 0.1408 0.0
C322 C 0.75184 0.9829 0.07184 0.0
C323 C 0.77473 0.97785 0.07766 0.0
C324 C 0.75489 1.00895 0.09882 0.0
C325 C 0.78085 0.03034 0.13234 0.0
C326 C 0.80363 0.02522 0.13703 0.0
C327 C 0.80063 0.99951 0.11053 0.0
H328 H 0.04784 0.83143 0.12867 0.0
H329 H 0.0723 0.77369 0.02211 0.0
H330 H 1.00259 0.79202 0.16942 0.0
H331 H 0.02597 0.7336 0.063 0.0
H332 H 0.94953 0.66997 0.2317 0.0
H333 H 0.99624 0.70747 0.18542 0.0
H334 H 0.95913 0.75759 0.10464 0.0
H335 H 0.91275 0.72052 0.15336 0.0
C336 C 0.04368 0.81027 0.11382 0.0
C337 C 0.06397 0.80593 0.07148 0.0
C338 C 1.01739 0.78755 0.13678 0.0
C339 C 1.0103 0.75956 0.11844 0.0
C340 C 0.03073 0.75492 0.07815 0.0
C341 C 0.05728 0.77788 0.05462 0.0
C342 C 0.9514 0.68902 0.20404 0.0
C343 C 0.92751 0.69245 0.19718 0.0
C344 C 0.97814 0.71042 0.17683 0.0
C345 C 0.9816 0.73571 0.14185 0.0
C346 C 0.95744 0.73868 0.13284 0.0
C347 C 0.93078 0.71738 0.16043 0.0
H348 H 0.84955 0.82106 0.05902 0.0
H349 H 0.75819 0.773 0.04692 0.0
H350 H 0.85054 0.78105 0.12019 0.0
H351 H 0.75914 0.73151 0.10557 0.0
H352 H 0.77303 0.6755 0.30528 0.0
H353 H 0.76843 0.71332 0.23549 0.0
H354 H 0.84501 0.73703 0.09457 0.0
H355 H 0.85033 0.70093 0.16607 0.0
C356 C 0.82957 0.80153 0.06724 0.0
C357 C 0.80379 0.80031 0.04752 0.0
C358 C 0.83014 0.77833 0.10235 0.0
C359 C 0.80494 0.75271 0.11817 0.0
C360 C 0.779 0.75095 0.0953 0.0
C361 C 0.77843 0.77452 0.06014 0.0
C362 C 0.78908 0.68912 0.26031 0.0
C363 C 0.81234 0.68529 0.24291 0.0
C364 C 0.78623 0.71058 0.21928 0.0
C365 C 0.80644 0.72858 0.15937 0.0
C366 C 0.82932 0.72428 0.14153 0.0
C367 C 0.83235 0.7033 0.18293 0.0
H368 H 0.22218 0.03773 0.04737 0.0
H369 H 0.26967 0.99376 0.04339 0.0
H370 H 0.26193 0.07869 0.10933 0.0
H371 H 0.31095 0.03613 0.10273 0.0
H372 H 0.36621 0.10611 0.30214 0.0
H373 H 0.32865 0.06382 0.23158 0.0
H374 H 0.30615 0.11701 0.08684 0.0
H375 H 0.34199 0.15833 0.15923 0.0
C376 C 0.24157 0.03713 0.05747 0.0
C377 C 0.24266 1.01239 0.03975 0.0
C378 C 0.26462 0.06087 0.09306 0.0
C379 C 0.29002 0.06111 0.11145 0.0
C380 C 0.2917 0.03674 0.0905 0.0
C381 C 0.26825 1.01262 0.05487 0.0
C382 C 0.3529 0.10864 0.25614 0.0
C383 C 0.35702 0.1358 0.23788 0.0
C384 C 0.33158 0.08439 0.21466 0.0
C385 C 0.31399 0.08669 0.15339 0.0
C386 C 0.31856 0.11396 0.13478 0.0
C387 C 0.3394 0.13792 0.17663 0.0
H388 H 1.0049 0.19221 0.05961 0.0
H389 H 0.04796 0.28346 0.04222 0.0
H390 H 0.96416 0.19152 0.1213 0.0
H391 H 1.00576 0.28282 0.10134 0.0
H392 H 0.9365 0.27002 0.3018 0.0
H393 H 0.97872 0.2743 0.23183 0.0
H394 H 0.92553 0.19681 0.09541 0.0
H395 H 0.88434 0.19181 0.16724 0.0
C396 C 1.00535 0.21222 0.06686 0.0
C397 C 0.02978 0.23788 0.04545 0.0
C398 C 0.98174 0.21183 0.10223 0.0
C399 C 0.98131 0.2371 0.11665 0.0
C400 C 1.00534 0.26291 0.09217 0.0
C401 C 0.02935 0.2633 0.05673 0.0
C402 C 0.93397 0.25372 0.2578 0.0
C403 C 0.90686 0.23032 0.2417 0.0
C404 C 0.95817 0.25637 0.21665 0.0
C405 C 0.95581 0.23581 0.15795 0.0
C406 C 0.9286 0.21278 0.14142 0.0
C407 C 0.90472 0.20994 0.18295 0.0
H408 H 0.93533 0.63948 0.35721 0.0
H409 H 0.87776 0.56192 0.48761 0.0
H410 H 0.97535 0.63393 0.40356 0.0
H411 H 0.91706 0.55625 0.53172 0.0
H412 H 0.99344 0.56429 0.66439 0.0
H413 H 0.95705 0.57568 0.62441 0.0
H414 H 0.99565 0.60277 0.37848 0.0
H415 H 0.03255 0.59187 0.41958 0.0
C416 C 0.93117 0.62144 0.396 0.0
C417 C 0.90321 0.60118 0.41816 0.0
C418 C 0.95408 0.61812 0.4221 0.0
C419 C 0.94949 0.59464 0.47161 0.0
C420 C 0.92158 0.57484 0.49494 0.0
C421 C 0.89889 0.57806 0.46888 0.0
C422 C 0.9942 0.57272 0.60184 0.0
C423 C 1.01572 0.57694 0.54493 0.0
C424 C 0.97329 0.57922 0.57874 0.0
C425 C 0.97325 0.59003 0.49792 0.0
C426 C 0.99515 0.59477 0.44146 0.0
C427 C 1.01614 0.58827 0.46471 0.0
H428 H 0.43217 0.42439 0.62108 0.0
H429 H 0.49824 0.46536 0.43447 0.0
H430 H 0.42197 0.37792 0.56876 0.0
H431 H 0.48814 0.41896 0.38244 0.0
H432 H 0.48905 0.33527 0.40348 0.0
H433 H 0.49474 0.38056 0.44508 0.0
H434 H 0.40401 0.34528 0.43769 0.0
H435 H 0.39809 0.29912 0.39478 0.0
C436 C 0.44441 0.42346 0.5686 0.0
C437 C 0.46613 0.44854 0.53213 0.0
C438 C 0.4384 0.39684 0.53824 0.0
C439 C 0.45422 0.39473 0.47146 0.0
C440 C 0.47568 0.41986 0.43436 0.0
C441 C 0.48148 0.44644 0.46408 0.0
C442 C 0.47014 0.33692 0.41059 0.0
C443 C 0.44302 0.31335 0.3962 0.0
C444 C 0.47351 0.3631 0.43382 0.0
C445 C 0.44989 0.36662 0.44431 0.0
C446 C 0.42263 0.34316 0.43024 0.0
C447 C 0.41923 0.3168 0.40542 0.0
H448 H 0.59238 1.01138 0.41502 0.0
H449 H 0.60666 0.0465 0.66622 0.0
H450 H 0.6402 0.04807 0.37393 0.0
H451 H 0.6545 0.08271 0.62609 0.0
H452 H 0.72001 0.16363 0.49476 0.0
H453 H 0.67515 0.12419 0.53921 0.0
H454 H 0.69159 0.06693 0.39352 0.0
H455 H 0.73697 0.10714 0.3466 0.0
C456 C 0.6058 0.02686 0.46156 0.0
C457 C 0.59565 0.02625 0.54362 0.0
C458 C 0.63331 0.04773 0.43825 0.0
C459 C 0.65126 0.06848 0.49649 0.0
C460 C 0.64118 0.06737 0.5791 0.0
C461 C 0.61374 0.04657 0.60228 0.0
C462 C 0.71436 0.14267 0.47229 0.0
C463 C 0.73225 0.13869 0.41669 0.0
C464 C 0.68854 0.1199 0.49853 0.0
C465 C 0.67965 0.09226 0.47038 0.0
C466 C 0.69768 0.088 0.41595 0.0
C467 C 0.7238 0.11098 0.38966 0.0
H468 H 0.42447 0.10612 0.37478 0.0
H469 H 0.51576 0.15435 0.39046 0.0
H470 H 0.42531 0.06451 0.43297 0.0
H471 H 0.51662 0.11424 0.45129 0.0
H472 H 0.51663 0.03419 0.4966 0.0
H473 H 0.51151 0.07049 0.42546 0.0
H474 H 0.43398 0.04571 0.56242 0.0
H475 H 0.43838 1.00769 0.63161 0.0
C476 C 0.44468 0.10767 0.3887 0.0
C477 C 0.47004 0.13355 0.37719 0.0
C478 C 0.44518 0.08402 0.42362 0.0
C479 C 0.47105 0.08578 0.44739 0.0
C480 C 0.49627 0.1115 0.43272 0.0
C481 C 0.49577 0.13476 0.39781 0.0
C482 C 0.49847 0.03636 0.51257 0.0
C483 C 0.47812 0.01798 0.57122 0.0
C484 C 0.49556 0.05746 0.47145 0.0
C485 C 0.47246 0.06154 0.4883 0.0
C486 C 0.45194 0.04318 0.54695 0.0
C487 C 0.45468 0.02159 0.58767 0.0
H488 H 1.00807 0.49132 0.49641 0.0
H489 H 0.03296 0.43883 0.635 0.0
H490 H 0.97193 0.45012 0.42418 0.0
H491 H 0.99517 0.39669 0.56457 0.0
H492 H 0.93574 0.3272 0.37588 0.0
H493 H 0.9772 0.36954 0.43459 0.0
H494 H 0.92779 0.41158 0.44835 0.0
H495 H 0.88777 0.37061 0.38725 0.0
C496 C 1.00559 0.47088 0.51285 0.0
C497 C 1.02347 0.46863 0.57283 0.0
C498 C 0.98459 0.447 0.4711 0.0
C499 C 0.98016 0.41973 0.48854 0.0
C500 C 0.99801 0.41729 0.54856 0.0
C501 C 1.01946 0.44145 0.58998 0.0
C502 C 0.93425 0.34594 0.38883 0.0
C503 C 0.90849 0.34557 0.37602 0.0
C504 C 0.95781 0.37004 0.42407 0.0
C505 C 0.95607 0.39422 0.44685 0.0
C506 C 0.9305 0.39388 0.43065 0.0
C507 C 0.90731 0.37015 0.39552 0.0
H508 H 0.55126 0.52607 0.49748 0.0
H509 H 0.60376 0.6024 0.63979 0.0
H510 H 0.59244 0.53142 0.4246 0.0
H511 H 0.64593 0.607 0.56867 0.0
H512 H 0.7157 0.61778 0.37992 0.0
H513 H 0.67339 0.61687 0.43914 0.0
H514 H 0.6307 0.52532 0.44732 0.0
H515 H 0.67165 0.52636 0.3857 0.0
C516 C 0.5717 0.54385 0.51466 0.0
C517 C 0.57394 0.56359 0.57592 0.0
C518 C 0.59558 0.54689 0.47249 0.0
C519 C 0.62288 0.5695 0.49078 0.0
C520 C 0.62532 0.58942 0.55201 0.0
C521 C 0.60114 0.58657 0.59381 0.0
C522 C 0.69682 0.59755 0.3917 0.0
C523 C 0.697 0.57215 0.37717 0.0
C524 C 0.67274 0.59698 0.42726 0.0
C525 C 0.64837 0.571 0.44867 0.0
C526 C 0.64853 0.54578 0.43071 0.0
C527 C 0.67225 0.54636 0.39525 0.0
H528 H 0.54409 0.88825 0.77524 0.0
H529 H 0.60172 0.97482 0.69927 0.0
H530 H 0.58358 0.88245 0.81549 0.0
H531 H 0.64193 0.96866 0.74016 0.0
H532 H 0.70148 0.95123 0.9169 0.0
H533 H 0.66434 0.96064 0.86807 0.0
H534 H 0.62154 0.87847 0.74811 0.0
H535 H 0.6584 0.86892 0.79829 0.0
C536 C 0.56523 0.90623 0.76713 0.0
C537 C 0.56955 0.93213 0.73373 0.0
C538 C 0.588 0.9027 0.78971 0.0
C539 C 0.61598 0.92491 0.78015 0.0
C540 C 0.62057 0.9511 0.74833 0.0
C541 C 0.59757 0.95463 0.7248 0.0
C542 C 0.68416 0.93521 0.87991 0.0
C543 C 0.6827 0.90919 0.86215 0.0
C544 C 0.66301 0.94073 0.85132 0.0
C545 C 0.63988 0.9203 0.80449 0.0
C546 C 0.63885 0.89454 0.78509 0.0
C547 C 0.65999 0.88905 0.8136 0.0
H548 H 0.14499 0.65585 0.825 0.0
H549 H 0.07141 0.63885 0.67698 0.0
H550 H 0.15037 0.70064 0.86937 0.0
H551 H 0.07656 0.68419 0.72394 0.0
H552 H 0.11938 0.78326 0.74823 0.0
H553 H 0.10858 0.73565 0.70579 0.0
H554 H 0.12952 0.72092 0.95695 0.0
H555 H 0.14084 0.76854 -0.00164 0.0
C556 C 0.12965 0.66146 0.80245 0.0
C557 C 0.10772 0.64352 0.74701 0.0
C558 C 0.13268 0.68726 0.82869 0.0
C559 C 0.11386 0.69613 0.80081 0.0
C560 C 0.09159 0.67813 0.7462 0.0
C561 C 0.08848 0.65203 0.71981 0.0
C562 C 0.12164 0.76978 0.79425 0.0
C563 C 0.13126 0.77976 0.8764 0.0
C564 C 0.1152 0.7424 0.77017 0.0
C565 C 0.11829 0.72439 0.8277 0.0
C566 C 0.12732 0.73429 0.91043 0.0
C567 C 0.13375 0.7616 0.93438 0.0
H568 H 0.25323 0.39559 0.89122 0.0
H569 H 0.27637 0.33155 0.84733 0.0
H570 H 0.30044 0.43222 0.8476 0.0
H571 H 0.32403 0.36832 0.80541 0.0
H572 H 0.3978 0.44279 0.65453 0.0
H573 H 0.35137 0.40346 0.69713 0.0
H574 H 0.34793 0.45487 0.89918 0.0
H575 H 0.39355 0.49387 0.85608 0.0
C576 C 0.26847 0.38936 0.87246 0.0
C577 C 0.2611 0.36071 0.87295 0.0
C578 C 0.29565 0.41038 0.84792 0.0
C579 C 0.31628 0.40333 0.82366 0.0
C580 C 0.30871 0.37455 0.82301 0.0
C581 C 0.28143 0.35349 0.84742 0.0
C582 C 0.38728 0.44544 0.70881 0.0
C583 C 0.39933 0.47157 0.75134 0.0
C584 C 0.36063 0.42294 0.7332 0.0
C585 C 0.34556 0.42613 0.80071 0.0
C586 C 0.35841 0.45183 0.84545 0.0
C587 C 0.38478 0.47419 0.82102 0.0
H588 H 0.18886 0.38307 0.91991 0.0
H589 H 0.09806 0.32864 0.91265 0.0
H590 H 0.18437 0.42048 0.85078 0.0
H591 H 0.09343 0.36529 0.83816 0.0
H592 H 0.09281 0.44713 0.76514 0.0
H593 H 0.09421 0.40768 0.8338 0.0
H594 H 0.17715 0.43619 0.72581 0.0
H595 H 0.17622 0.47656 0.66328 0.0
C596 C 0.16786 0.37913 0.90373 0.0
C597 C 0.14384 0.35287 0.92254 0.0
C598 C 0.16523 0.4005 0.86243 0.0
C599 C 0.13851 0.39609 0.8363 0.0
C600 C 0.11439 0.36995 0.85733 0.0
C601 C 0.11701 0.34878 0.90044 0.0
C602 C 0.11091 0.44435 0.75425 0.0
C603 C 0.1342 0.46464 0.70768 0.0
C604 C 0.11189 0.42175 0.79417 0.0
C605 C 0.13608 0.41864 0.78751 0.0
C606 C 0.15851 0.43807 0.73565 0.0
C607 C 0.15777 0.46097 0.69773 0.0
H608 H 0.67788 0.8208 0.81875 0.0
H609 H 0.69705 0.77343 0.00022 0.0
H610 H 0.64141 0.77662 0.75626 0.0
H611 H 0.66026 0.72911 0.93758 0.0
H612 H 0.56671 0.66114 0.87071 0.0
H613 H 0.60775 0.7032 0.92694 0.0
H614 H 0.63482 0.73404 0.67339 0.0
H615 H 0.59328 0.6913 0.61668 0.0
C616 C 0.67422 0.80099 0.84598 0.0
C617 C 0.69038 0.80086 0.91547 0.0
C618 C 0.65349 0.77559 0.80915 0.0
C619 C 0.64797 0.74923 0.84124 0.0
C620 C 0.66389 0.74902 0.91122 0.0
C621 C 0.68495 0.77446 0.94739 0.0
C622 C 0.58178 0.67657 0.8267 0.0
C623 C 0.57685 0.67279 0.73915 0.0
C624 C 0.60536 0.70072 0.85907 0.0
C625 C 0.62461 0.72216 0.80496 0.0
C626 C 0.62027 0.71802 0.71694 0.0
C627 C 0.59672 0.69343 0.68427 0.0
H628 H 0.38151 0.94991 0.705 0.0
H629 H 0.33808 0.85859 0.71974 0.0
H630 H 0.33939 0.94928 0.76474 0.0
H631 H 0.29746 0.85791 0.78219 0.0
H632 H 0.21781 0.85836 0.8299 0.0
H633 H 0.25892 0.86333 0.75768 0.0
H634 H 0.31231 0.94059 0.89487 0.0
H635 H 0.27016 0.93635 0.96519 0.0
C636 C 0.36283 0.92975 0.71905 0.0
C637 C 0.36314 0.90431 0.70681 0.0
C638 C 0.33887 0.92936 0.75487 0.0
C639 C 0.31477 0.90353 0.77885 0.0
C640 C 0.31508 0.87824 0.76351 0.0
C641 C 0.33864 0.87863 0.72768 0.0
C642 C 0.23821 0.87643 0.84571 0.0
C643 C 0.24043 0.89675 0.90476 0.0
C644 C 0.26206 0.87925 0.80396 0.0
C645 C 0.28931 0.90222 0.82054 0.0
C646 C 0.29173 0.92272 0.87961 0.0
C647 C 0.26757 0.92008 0.92096 0.0
H648 H 0.10801 1.00935 0.95068 0.0
H649 H 0.1794 0.05408 0.11847 0.0
H650 H 0.10074 0.05021 0.9493 0.0
H651 H 0.17206 0.09483 0.11761 0.0
H652 H 0.1699 0.17257 0.01919 0.0
H653 H 0.17618 0.13142 0.01739 0.0
H654 H 0.0859 0.07638 0.04736 0.0
H655 H 0.07942 0.11772 0.04847 0.0
C656 C 0.12221 0.02798 0.98694 0.0
C657 C 0.14435 0.02864 0.03441 0.0
C658 C 0.1179 0.05125 0.98672 0.0
C659 C 0.13582 0.07573 0.03334 0.0
C660 C 0.15807 0.07639 0.08034 0.0
C661 C 0.16223 0.05305 0.0811 0.0
C662 C 0.1513 0.15173 0.02516 0.0
C663 C 0.12412 0.1485 0.03404 0.0
C664 C 0.15497 0.12814 0.02468 0.0
C665 C 0.13158 0.10066 0.0326 0.0
C666 C 0.10433 0.0973 0.04054 0.0
C667 C 0.10064 0.12099 0.04166 0.0
H668 H 0.98896 0.13319 0.12411 0.0
H669 H 0.03264 0.10752 0.94899 0.0
H670 H 0.94813 0.08519 0.12238 0.0
H671 H 0.9917 0.05947 0.94691 0.0
H672 H 0.92489 0.97014 0.04626 0.0
H673 H 0.96618 0.01797 0.045 0.0
H674 H 0.91096 0.05328 0.02191 0.0
H675 H 0.86984 1.00583 0.02368 0.0
C676 C 0.98975 0.1173 0.08496 0.0
C677 C 1.0139 0.12407 0.03655 0.0
C678 C 0.96636 0.08985 0.08372 0.0
C679 C 0.96671 0.06854 0.03454 0.0
C680 C 0.99092 0.07536 0.98606 0.0
C681 C 1.01423 0.1029 0.98674 0.0
C682 C 0.92157 0.98811 0.04086 0.0
C683 C 0.89401 0.98408 0.03516 0.0
C684 C 0.94523 1.01549 0.03967 0.0
C685 C 0.9418 0.03939 0.03363 0.0
C686 C 0.91428 0.03532 0.02763 0.0
C687 C 0.89071 1.00805 0.02811 0.0
H688 H 0.9347 0.92804 0.15559 0.0
H689 H 0.91089 0.87322 0.93785 0.0
H690 H 0.98261 0.9353 0.14859 0.0
H691 H 0.95907 0.88091 0.92957 0.0
H692 H 0.03704 0.87459 0.00496 0.0
H693 H 0.98981 0.86872 0.00699 0.0
H694 H 1.02554 0.95771 0.06395 0.0
H695 H 0.07305 0.96358 0.06362 0.0
C696 C 0.93976 0.91757 0.10609 0.0
C697 C 0.91905 0.89993 0.04752 0.0
C698 C 0.96729 0.92195 0.1016 0.0
C699 C 0.97474 0.90874 0.03847 0.0
C700 C 0.95397 0.89115 0.97961 0.0
C701 C 0.92641 0.88682 0.98406 0.0
C702 C 0.03495 0.89301 0.01761 0.0
C703 C 0.05894 0.91959 0.03427 0.0
C704 C 1.00779 0.88963 0.01828 0.0
C705 C 1.00384 0.91272 0.03547 0.0
C706 C 0.02781 0.93939 0.05152 0.0
C707 C 0.05506 0.94278 0.051 0.0
H708 H 0.83385 0.37827 0.26847 0.0
H709 H 0.782 0.34872 0.49277 0.0
H710 H 0.82612 0.41874 0.26099 0.0
H711 H 0.77471 0.38939 0.48651 0.0
H712 H 0.74572 0.4514 0.40453 0.0
H713 H 0.75133 0.40961 0.4042 0.0
H714 H 0.83961 0.46211 0.33736 0.0
H715 H 0.83399 0.50361 0.33601 0.0
C716 C 0.8209 0.38052 0.31629 0.0
C717 C 0.80864 0.36047 0.38138 0.0
C718 C 0.81654 0.40373 0.31228 0.0
C719 C 0.79981 0.40733 0.37324 0.0
C720 C 0.78741 0.38709 0.43797 0.0
C721 C 0.7918 0.36393 0.44201 0.0
C722 C 0.7663 0.45401 0.38952 0.0
C723 C 0.78938 0.48092 0.37033 0.0
C724 C 0.76955 0.43007 0.3897 0.0
C725 C 0.79593 0.43251 0.37072 0.0
C726 C 0.81889 0.45938 0.35097 0.0
C727 C 0.81567 0.48324 0.35071 0.0
H728 H 0.66412 0.46441 0.26781 0.0
H729 H 0.69228 0.44227 0.49556 0.0
H730 H 0.62355 0.41628 0.26022 0.0
H731 H 0.65153 0.39441 0.48911 0.0
H732 H 0.59042 0.30338 0.40707 0.0
H733 H 0.63202 0.35084 0.40738 0.0
H734 H 0.5796 0.3862 0.33463 0.0
H735 H 0.53823 0.33897 0.33273 0.0
C736 C 0.66155 0.44927 0.31638 0.0
C737 C 0.68126 0.45708 0.3824 0.0
C738 C 0.63827 0.42174 0.31229 0.0
C739 C 0.63427 0.40145 0.37409 0.0
C740 C 0.65415 0.40935 0.43988 0.0
C741 C 0.67736 0.43686 0.44401 0.0
C742 C 0.58777 0.32126 0.3909 0.0
C743 C 0.56091 0.31727 0.37 0.0
C744 C 0.61161 0.3485 0.39146 0.0
C745 C 0.60916 0.37236 0.37111 0.0
C746 C 0.58235 0.3683 0.34948 0.0
C747 C 0.55856 0.34114 0.3489 0.0
H748 H 0.6005 0.26027 0.4901 0.0
H749 H 0.57743 0.20747 0.26792 0.0
H750 H 0.64836 0.26738 0.48351 0.0
H751 H 0.62556 0.21501 0.2601 0.0
H752 H 0.70303 0.20762 0.33525 0.0
H753 H 0.65587 0.20194 0.33646 0.0
H754 H 0.69161 0.29042 0.40042 0.0
H755 H 0.73901 0.2961 0.40091 0.0
C756 C 0.60571 0.25022 0.43971 0.0
C757 C 0.58523 0.23318 0.37976 0.0
C758 C 0.63321 0.25451 0.43548 0.0
C759 C 0.64085 0.24181 0.37122 0.0
C760 C 0.62031 0.22484 0.31099 0.0
C761 C 0.59278 0.22059 0.31519 0.0
C762 C 0.70095 0.22597 0.34927 0.0
C763 C 0.72491 0.25233 0.3682 0.0
C764 C 0.67384 0.2227 0.34946 0.0
C765 C 0.66991 0.2457 0.36844 0.0
C766 C 0.69385 0.27217 0.38658 0.0
C767 C 0.72105 0.27545 0.3865 0.0
H768 H 0.50256 0.83844 0.67909 0.0
H769 H 0.41248 0.7831 0.71583 0.0
H770 H 0.50936 0.79766 0.67785 0.0
H771 H 0.41952 0.74206 0.71533 0.0
H772 H 0.44183 0.67504 0.61955 0.0
H773 H 0.43395 0.71551 0.61717 0.0
H774 H 0.50669 0.76207 0.77909 0.0
H775 H 0.51464 0.72173 0.78096 0.0
C776 C 0.48414 0.81756 0.68684 0.0
C777 C 0.45692 0.8141 0.69761 0.0
C778 C 0.48813 0.79417 0.68667 0.0
C779 C 0.46503 0.76665 0.69685 0.0
C780 C 0.43772 0.76303 0.70675 0.0
C781 C 0.43372 0.78653 0.70753 0.0
C782 C 0.45624 0.69403 0.65407 0.0
C783 C 0.47896 0.69535 0.70006 0.0
C784 C 0.45156 0.71707 0.65333 0.0
C785 C 0.46967 0.74197 0.69798 0.0
C786 C 0.49254 0.7433 0.74333 0.0
C787 C 0.49707 0.7202 0.74457 0.0
H788 H 0.20352 0.67118 0.68917 0.0
H789 H 0.25838 0.63522 0.71014 0.0
H790 H 0.24465 0.71852 0.68737 0.0
H791 H 0.29977 0.68305 0.70903 0.0
H792 H 0.3661 0.77297 0.61304 0.0
H793 H 0.32544 0.72474 0.61197 0.0
H794 H 0.28166 0.75031 0.78716 0.0
H795 H 0.32218 0.79848 0.78773 0.0
C796 C 0.22436 0.67331 0.69329 0.0
C797 C 0.22758 0.64928 0.69986 0.0
C798 C 0.24795 0.70054 0.69282 0.0
C799 C 0.27545 0.70455 0.6985 0.0
C800 C 0.27883 0.6806 0.70402 0.0
C801 C 0.25512 0.65323 0.7051 0.0
C802 C 0.3477 0.76826 0.65093 0.0
C803 C 0.3472 0.78946 0.70019 0.0
C804 C 0.32455 0.74062 0.65087 0.0
C805 C 0.30035 0.73372 0.69946 0.0
C806 C 0.29987 0.75503 0.74836 0.0
C807 C 0.32309 0.78258 0.74893 0.0
H808 H 0.37071 0.53996 0.68834 0.0
H809 H 0.40651 0.63005 0.72789 0.0
H810 H 0.3234 0.53383 0.68808 0.0
H811 H 0.35888 0.62385 0.72596 0.0
H812 H 0.26824 0.59543 0.8184 0.0
H813 H 0.3163 0.60304 0.81295 0.0
H814 H 0.29214 0.54405 0.6052 0.0
H815 H 0.24383 0.53607 0.6119 0.0
C816 C 0.36856 0.55855 0.69637 0.0
C817 C 0.39254 0.58553 0.70835 0.0
C818 C 0.34134 0.55501 0.69566 0.0
C819 C 0.33729 0.57833 0.70683 0.0
C820 C 0.36124 0.60538 0.71817 0.0
C821 C 0.38856 0.60895 0.71892 0.0
C822 C 0.2732 0.58402 0.77174 0.0
C823 C 0.25227 0.56501 0.71591 0.0
C824 C 0.30081 0.58859 0.76808 0.0
C825 C 0.30812 0.57419 0.70861 0.0
C826 C 0.28715 0.55524 0.65244 0.0
C827 C 0.25951 0.55073 0.656 0.0
H828 H 0.09247 0.24065 0.73344 0.0
H829 H 0.18313 0.29012 0.69717 0.0
H830 H 0.08625 0.23043 0.58207 0.0
H831 H 0.17696 0.28104 0.5468 0.0
H832 H 0.16105 0.23579 0.29764 0.0
H833 H 0.16549 0.24454 0.44883 0.0
H834 H 0.08928 0.25061 0.44624 0.0
H835 H 0.08423 0.24068 0.29537 0.0
C836 C 0.111 0.24952 0.69306 0.0
C837 C 0.13827 0.26591 0.72733 0.0
C838 C 0.10748 0.24381 0.6063 0.0
C839 C 0.13115 0.2547 0.55208 0.0
C840 C 0.1583 0.27164 0.58661 0.0
C841 C 0.16183 0.277 0.67303 0.0
C842 C 0.14527 0.23905 0.32927 0.0
C843 C 0.12233 0.23759 0.2844 0.0
C844 C 0.14786 0.24421 0.41605 0.0
C845 C 0.12781 0.24844 0.45997 0.0
C846 C 0.10489 0.24705 0.41489 0.0
C847 C 0.10212 0.24157 0.32819 0.0
H848 H 0.82474 0.86806 0.31262 0.0
H849 H 0.78512 0.91957 0.29026 0.0
H850 H 0.81715 0.86495 0.46428 0.0
H851 H 0.77659 0.91559 0.44204 0.0
H852 H 0.77326 0.84154 0.72207 0.0
H853 H 0.78135 0.84436 0.57003 0.0
H854 H 0.80162 0.93193 0.57198 0.0
H855 H 0.79267 0.92882 0.7229 0.0
C856 C 0.81411 0.87848 0.33994 0.0
C857 C 0.80557 0.89413 0.28927 0.0
C858 C 0.80964 0.87656 0.42702 0.0
C859 C 0.7963 0.89003 0.46557 0.0
C860 C 0.78741 0.90537 0.41469 0.0
C861 C 0.79212 0.90751 0.32757 0.0
C862 C 0.77964 0.86143 0.69004 0.0
C863 C 0.78219 0.8849 0.73451 0.0
C864 C 0.78433 0.86309 0.60289 0.0
C865 C 0.79191 0.88832 0.55852 0.0
C866 C 0.79518 0.91197 0.60364 0.0
C867 C 0.79027 0.91025 0.69043 0.0
H868 H 0.13939 0.85921 0.6941 0.0
H869 H 0.18145 0.94999 0.72846 0.0
H870 H 0.13691 0.86517 0.5434 0.0
H871 H 0.17788 0.95602 0.5766 0.0
H872 H 0.19078 0.95723 0.29066 0.0
H873 H 0.19529 0.95227 0.44183 0.0
H874 H 0.11234 0.877 0.44421 0.0
H875 H 0.10836 0.88134 0.29273 0.0
C876 C 0.14782 0.8805 0.66945 0.0
C877 C 0.16039 0.90415 0.72326 0.0
C878 C 0.14626 0.8839 0.58285 0.0
C879 C 0.15685 0.91104 0.5477 0.0
C880 C 0.16974 0.93481 0.60142 0.0
C881 C 0.17167 0.9314 0.6884 0.0
C882 C 0.17356 0.93955 0.32348 0.0
C883 C 0.14925 0.91959 0.27961 0.0
C884 C 0.17606 0.93684 0.41033 0.0
C885 C 0.15421 0.91424 0.45541 0.0
C886 C 0.12984 0.89439 0.41138 0.0
C887 C 0.12748 0.89692 0.32446 0.0
H888 H 0.82692 0.56645 0.63191 0.0
H889 H 0.75403 0.57811 0.62831 0.0
H890 H 0.83107 0.57414 0.7836 0.0
H891 H 0.75888 0.58703 0.77973 0.0
H892 H 0.7593 0.57463 0.06608 0.0
H893 H 0.7534 0.56527 0.91419 0.0
H894 H 0.84452 0.61029 0.88382 0.0
H895 H 0.85027 0.61844 0.03456 0.0
C896 C 0.81199 0.57102 0.66337 0.0
C897 C 0.7902 0.57172 0.61803 0.0
C898 C 0.81441 0.57555 0.75044 0.0
C899 C 0.79536 0.58132 0.79415 0.0
C900 C 0.77365 0.5822 0.74853 0.0
C901 C 0.77102 0.57733 0.66154 0.0
C902 C 0.77798 0.5824 0.02667 0.0
C903 C 0.8052 0.59695 0.06236 0.0
C904 C 0.77465 0.5772 0.93963 0.0
C905 C 0.79851 0.58683 0.88662 0.0
C906 C 0.82566 0.60188 0.92265 0.0
C907 C 0.82896 0.60668 0.00931 0.0
H908 H 0.43992 0.17567 0.05142 0.0
H909 H 0.45998 0.26316 0.05345 0.0
H910 H 0.44762 0.17851 0.89931 0.0
H911 H 0.46862 0.2663 0.90229 0.0
H912 H 0.45176 0.25403 0.62022 0.0
H913 H 0.44355 0.25031 0.77229 0.0
H914 H 0.48325 0.19883 0.79373 0.0
H915 H 0.49043 0.20164 0.64207 0.0
C916 C 0.44639 0.19562 0.01962 0.0
C917 C 0.44924 0.21914 0.06444 0.0
C918 C 0.45086 0.19729 0.93241 0.0
C919 C 0.45854 0.2226 0.88834 0.0
C920 C 0.4621 0.2463 0.93377 0.0
C921 C 0.45739 0.24456 0.02067 0.0
C922 C 0.45861 0.24184 0.65748 0.0
C923 C 0.47165 0.22808 0.61901 0.0
C924 C 0.45409 0.23985 0.74471 0.0
C925 C 0.46281 0.22431 0.79539 0.0
C926 C 0.47582 0.21056 0.75664 0.0
C927 C 0.48006 0.2123 0.66953 0.0
H928 H 0.77396 0.21456 0.63038 0.0
H929 H 0.8575 0.28893 0.62723 0.0
H930 H 0.77775 0.2104 0.78202 0.0
H931 H 0.86179 0.28411 0.77862 0.0
H932 H 0.84828 0.28295 0.06506 0.0
H933 H 0.84478 0.28883 0.91309 0.0
H934 H 0.80154 0.19779 0.88175 0.0
H935 H 0.80398 0.192 0.03253 0.0
C936 C 0.79328 0.22983 0.66192 0.0
C937 C 0.81542 0.25204 0.61673 0.0
C938 C 0.79553 0.2274 0.74894 0.0
C939 C 0.82014 0.24688 0.79272 0.0
C940 C 0.84237 0.269 0.74729 0.0
C941 C 0.83999 0.27161 0.66033 0.0
C942 C 0.838 0.26428 0.02542 0.0
C943 C 0.82612 0.23705 0.06083 0.0
C944 C 0.83611 0.2676 0.93836 0.0
C945 C 0.82265 0.24375 0.88511 0.0
C946 C 0.81138 0.21661 0.92083 0.0
C947 C 0.81291 0.2133 0.00749 0.0
H948 H 0.51607 0.95511 0.35867 0.0
H949 H 0.42538 0.9056 0.39425 0.0
H950 H 0.51003 0.94643 0.20813 0.0
H951 H 0.41928 0.89578 0.2426 0.0
H952 H 0.41758 0.90682 0.9563 0.0
H953 H 0.42256 0.91649 0.10729 0.0
H954 H 0.49855 0.91003 0.10965 0.0
H955 H 0.49418 0.90152 0.95834 0.0
C956 C 0.49479 0.94204 0.33432 0.0
C957 C 0.47118 0.93081 0.38844 0.0
C958 C 0.49133 0.93694 0.24782 0.0
C959 C 0.46421 0.9201 0.21305 0.0
C960 C 0.44048 0.90908 0.26708 0.0
C961 C 0.44394 0.91455 0.35396 0.0
C962 C 0.43542 0.90758 0.98908 0.0
C963 C 0.45557 0.90354 0.94522 0.0
C964 C 0.43814 0.91291 0.07584 0.0
C965 C 0.46096 0.91408 0.12087 0.0
C966 C 0.48099 0.90983 0.07687 0.0
C967 C 0.47844 0.90482 0.99003 0.0
H968 H 0.12577 0.59541 0.3865 0.0
H969 H 0.10758 0.50851 0.38781 0.0
H970 H 0.13496 0.5983 0.23564 0.0
H971 H 0.11583 0.51109 0.23608 0.0
H972 H 0.15911 0.53444 0.97877 0.0
H973 H 0.15175 0.53185 0.13061 0.0
H974 H 0.10979 0.58112 0.10611 0.0
H975 H 0.11809 0.5846 0.95436 0.0
C976 C 0.1237 0.57689 0.35453 0.0
C977 C 0.11589 0.5517 0.39911 0.0
C978 C 0.12874 0.57848 0.26785 0.0
C979 C 0.12586 0.55485 0.22349 0.0
C980 C 0.11854 0.52979 0.26839 0.0
C981 C 0.11373 0.52828 0.35537 0.0
C982 C 0.14822 0.54465 0.0057 0.0
C983 C 0.13922 0.55978 0.9545 0.0
C984 C 0.1439 0.54305 0.09281 0.0
C985 C 0.13023 0.55632 0.13069 0.0
C986 C 0.12087 0.57111 0.07924 0.0
C987 C 0.12544 0.57294 0.99215 0.0
H988 H 0.53398 0.60736 0.39239 0.0
H989 H 0.44652 0.53986 0.39231 0.0
H990 H 0.53146 0.61295 0.24055 0.0
H991 H 0.44375 0.54605 0.24128 0.0
H992 H 0.50794 0.63295 0.98325 0.0
H993 H 0.51056 0.62845 0.13516 0.0
H994 H 0.46134 0.53719 0.11289 0.0
H995 H 0.45785 0.54169 0.961 0.0
C996 C 0.51411 0.59402 0.36019 0.0
C997 C 0.4905 0.57308 0.40417 0.0
C998 C 0.51264 0.59725 0.27323 0.0
C999 C 0.48747 0.57977 0.22878 0.0
C1000 C 0.46364 0.55942 0.27336 0.0
C1001 C 0.46517 0.55603 0.36004 0.0
C1002 C 0.49773 0.6119 0.01066 0.0
C1003 C 0.48258 0.58766 0.96012 0.0
C1004 C 0.49936 0.60934 0.09775 0.0
C1005 C 0.48608 0.58249 0.13612 0.0
C1006 C 0.47134 0.55822 0.08539 0.0
C1007 C 0.4695 0.56078 -0.0017 0.0
loop_
_geom_bond_atom_site_label_1
_geom_bond_atom_site_label_2
_geom_bond_distance
_geom_bond_site_symmetry_2
_ccdc_geom_bond_type
Co0 H3 2.400 1_556 S
Co0 O4 2.009 1_556 S
Co0 O12 2.115 . S
Co0 O13 2.315 1_556 S
Co0 O24 2.053 . S
Co0 O27 2.094 . S
Co0 O30 2.122 . S
Co1 O4 2.126 . S
Co1 H5 2.388 1_554 S
Co1 O6 2.053 1_554 S
Co1 O9 2.047 . S
Co1 O15 2.113 . S
Co1 O26 2.063 . S
Co2 H3 2.388 1_556 S
Co2 O4 2.053 1_556 S
Co2 O6 2.126 . S
Co2 O11 2.063 . S
Co2 O25 2.047 . S
Co2 O31 2.113 . S
H3 Co0 2.400 1_554 S
H3 Co2 2.388 1_554 S
H3 O4 0.760 . S
O4 Co0 2.009 1_554 S
O4 Co1 2.126 . S
O4 Co2 2.053 1_554 S
O4 H3 0.760 . S
H5 Co1 2.388 1_556 S
H5 O6 0.760 . S
H5 Co7 2.400 1_556 S
O6 Co1 2.053 1_556 S
O6 Co2 2.126 . S
O6 H5 0.760 . S
O6 Co7 2.009 1_556 S
Co7 H5 2.400 1_554 S
Co7 O6 2.009 1_554 S
Co7 O8 2.053 . S
Co7 O10 2.094 . S
Co7 O14 2.122 . S
Co7 O28 2.115 . S
Co7 O29 2.315 1_554 S
O8 Co7 2.053 . S
O8 C20 1.259 . S
O9 Co1 2.047 . S
O9 C20 1.257 . S
O10 Co7 2.094 . S
O10 C21 1.253 . S
O11 Co2 2.063 . S
O11 C21 1.268 1_556 S
O12 Co0 2.115 . S
O12 C22 1.281 . S
O13 Co0 2.315 1_554 S
O13 C22 1.252 1_554 S
O14 Co7 2.122 . S
O14 C23 1.272 . S
O15 Co1 2.113 . S
O15 C23 1.245 . S
C16 O24 1.259 . S
C16 O25 1.257 . S
C17 O26 1.268 1_556 S
C17 O27 1.253 . S
C18 O28 1.281 . S
C18 O29 1.252 1_554 S
C19 O30 1.272 . S
C19 O31 1.245 . S
C20 O8 1.259 . S
C20 O9 1.257 . S
C21 O10 1.253 . S
C21 O11 1.268 1_554 S
C22 O12 1.281 . S
C22 O13 1.252 1_556 S
C23 O14 1.272 . S
C23 O15 1.245 . S
O24 Co0 2.053 . S
O24 C16 1.259 . S
O25 Co2 2.047 . S
O25 C16 1.257 . S
O26 Co1 2.063 . S
O26 C17 1.268 1_554 S
O27 Co0 2.094 . S
O27 C17 1.253 . S
O28 Co7 2.115 . S
O28 C18 1.281 . S
O29 Co7 2.315 1_556 S
O29 C18 1.252 1_556 S
O30 Co0 2.122 . S
O30 C19 1.272 . S
O31 Co2 2.113 . S
O31 C19 1.245 . S
Co32 H35 2.400 1_556 S
Co32 O36 2.009 1_556 S
Co32 O44 2.115 . S
Co32 O45 2.315 1_556 S
Co32 O56 2.053 . S
Co32 O59 2.094 . S
Co32 O62 2.122 . S
Co33 O36 2.126 . S
Co33 H37 2.388 1_554 S
Co33 O38 2.053 1_554 S
Co33 O41 2.047 . S
Co33 O47 2.113 . S
Co33 O58 2.063 . S
Co34 H35 2.388 1_556 S
Co34 O36 2.053 1_556 S
Co34 O38 2.126 . S
Co34 O43 2.063 . S
Co34 O57 2.047 . S
Co34 O63 2.113 . S
H35 Co32 2.400 1_554 S
H35 Co34 2.388 1_554 S
H35 O36 0.760 . S
O36 Co32 2.009 1_554 S
O36 Co33 2.126 . S
O36 Co34 2.053 1_554 S
O36 H35 0.760 . S
H37 Co33 2.388 1_556 S
H37 O38 0.760 . S
H37 Co39 2.400 1_556 S
O38 Co33 2.053 1_556 S
O38 Co34 2.126 . S
O38 H37 0.760 . S
O38 Co39 2.009 1_556 S
Co39 H37 2.400 1_554 S
Co39 O38 2.009 1_554 S
Co39 O40 2.053 . S
Co39 O42 2.094 . S
Co39 O46 2.122 . S
Co39 O60 2.115 . S
Co39 O61 2.315 1_554 S
O40 Co39 2.053 . S
O40 C52 1.259 . S
O41 Co33 2.047 . S
O41 C52 1.257 . S
O42 Co39 2.094 . S
O42 C53 1.253 . S
O43 Co34 2.063 . S
O43 C53 1.268 1_556 S
O44 Co32 2.115 . S
O44 C54 1.281 . S
O45 Co32 2.315 1_554 S
O45 C54 1.252 1_554 S
O46 Co39 2.122 . S
O46 C55 1.272 . S
O47 Co33 2.113 . S
O47 C55 1.245 . S
C48 O56 1.259 . S
C48 O57 1.257 . S
C49 O58 1.268 1_556 S
C49 O59 1.253 . S
C50 O60 1.281 . S
C50 O61 1.252 1_554 S
C51 O62 1.272 . S
C51 O63 1.245 . S
C52 O40 1.259 . S
C52 O41 1.257 . S
C53 O42 1.253 . S
C53 O43 1.268 1_554 S
C54 O44 1.281 . S
C54 O45 1.252 1_556 S
C55 O46 1.272 . S
C55 O47 1.245 . S
O56 Co32 2.053 . S
O56 C48 1.259 . S
O57 Co34 2.047 . S
O57 C48 1.257 . S
O58 Co33 2.063 . S
O58 C49 1.268 1_554 S
O59 Co32 2.094 . S
O59 C49 1.253 . S
O60 Co39 2.115 . S
O60 C50 1.281 . S
O61 Co39 2.315 1_556 S
O61 C50 1.252 1_556 S
O62 Co32 2.122 . S
O62 C51 1.272 . S
O63 Co34 2.113 . S
O63 C51 1.245 . S
Co64 H67 2.400 1_556 S
Co64 O68 2.009 1_556 S
Co64 O76 2.115 . S
Co64 O77 2.315 1_556 S
Co64 O88 2.053 . S
Co64 O91 2.094 . S
Co64 O94 2.122 . S
Co65 O68 2.126 . S
Co65 H69 2.388 1_554 S
Co65 O70 2.053 1_554 S
Co65 O73 2.047 . S
Co65 O79 2.113 . S
Co65 O90 2.063 . S
Co66 H67 2.388 1_556 S
Co66 O68 2.053 1_556 S
Co66 O70 2.126 . S
Co66 O75 2.063 . S
Co66 O89 2.047 . S
Co66 O95 2.113 . S
H67 Co64 2.400 1_554 S
H67 Co66 2.388 1_554 S
H67 O68 0.760 . S
O68 Co64 2.009 1_554 S
O68 Co65 2.126 . S
O68 Co66 2.053 1_554 S
O68 H67 0.760 . S
H69 Co65 2.388 1_556 S
H69 O70 0.760 . S
H69 Co71 2.400 1_556 S
O70 Co65 2.053 1_556 S
O70 Co66 2.126 . S
O70 H69 0.760 . S
O70 Co71 2.009 1_556 S
Co71 H69 2.400 1_554 S
Co71 O70 2.009 1_554 S
Co71 O72 2.053 . S
Co71 O74 2.094 . S
Co71 O78 2.122 . S
Co71 O92 2.115 . S
Co71 O93 2.315 1_554 S
O72 Co71 2.053 . S
O72 C84 1.259 . S
O73 Co65 2.047 . S
O73 C84 1.257 . S
O74 Co71 2.094 . S
O74 C85 1.253 . S
O75 Co66 2.063 . S
O75 C85 1.268 1_556 S
O76 Co64 2.115 . S
O76 C86 1.281 . S
O77 Co64 2.315 1_554 S
O77 C86 1.252 1_554 S
O78 Co71 2.122 . S
O78 C87 1.272 . S
O79 Co65 2.113 . S
O79 C87 1.245 . S
C80 O88 1.259 . S
C80 O89 1.257 . S
C81 O90 1.268 1_556 S
C81 O91 1.253 . S
C82 O92 1.281 . S
C82 O93 1.252 1_554 S
C83 O94 1.272 . S
C83 O95 1.245 . S
C84 O72 1.259 . S
C84 O73 1.257 . S
C85 O74 1.253 . S
C85 O75 1.268 1_554 S
C86 O76 1.281 . S
C86 O77 1.252 1_556 S
C87 O78 1.272 . S
C87 O79 1.245 . S
O88 Co64 2.053 . S
O88 C80 1.259 . S
O89 Co66 2.047 . S
O89 C80 1.257 . S
O90 Co65 2.063 . S
O90 C81 1.268 1_554 S
O91 Co64 2.094 . S
O91 C81 1.253 . S
O92 Co71 2.115 . S
O92 C82 1.281 . S
O93 Co71 2.315 1_556 S
O93 C82 1.252 1_556 S
O94 Co64 2.122 . S
O94 C83 1.272 . S
O95 Co66 2.113 . S
O95 C83 1.245 . S
Co96 H99 2.400 . S
Co96 O100 2.009 . S
Co96 O108 2.115 . S
Co96 O109 2.315 . S
Co96 O120 2.053 . S
Co96 O123 2.094 . S
Co96 O126 2.122 . S
Co97 O100 2.126 . S
Co97 H101 2.388 . S
Co97 O102 2.053 . S
Co97 O105 2.047 . S
Co97 O111 2.113 . S
Co97 O122 2.063 . S
Co98 H99 2.388 . S
Co98 O100 2.053 . S
Co98 O102 2.126 . S
Co98 O107 2.063 . S
Co98 O121 2.047 . S
Co98 O127 2.113 . S
H99 Co96 2.400 . S
H99 Co98 2.388 . S
H99 O100 0.760 . S
O100 Co96 2.009 . S
O100 Co97 2.126 . S
O100 Co98 2.053 . S
O100 H99 0.760 . S
H101 Co97 2.388 . S
H101 O102 0.760 . S
H101 Co103 2.400 . S
O102 Co97 2.053 . S
O102 Co98 2.126 . S
O102 H101 0.760 . S
O102 Co103 2.009 . S
Co103 H101 2.400 . S
Co103 O102 2.009 . S
Co103 O104 2.053 . S
Co103 O106 2.094 . S
Co103 O110 2.122 . S
Co103 O124 2.115 . S
Co103 O125 2.315 . S
O104 Co103 2.053 . S
O104 C116 1.259 . S
O105 Co97 2.047 . S
O105 C116 1.257 . S
O106 Co103 2.094 . S
O106 C117 1.253 . S
O107 Co98 2.063 . S
O107 C117 1.268 . S
O108 Co96 2.115 . S
O108 C118 1.281 . S
O109 Co96 2.315 . S
O109 C118 1.252 . S
O110 Co103 2.122 . S
O110 C119 1.272 . S
O111 Co97 2.113 . S
O111 C119 1.245 . S
C112 O120 1.259 . S
C112 O121 1.257 . S
C113 O122 1.268 . S
C113 O123 1.253 . S
C114 O124 1.281 . S
C114 O125 1.252 . S
C115 O126 1.272 . S
C115 O127 1.245 . S
C116 O104 1.259 . S
C116 O105 1.257 . S
C117 O106 1.253 . S
C117 O107 1.268 . S
C118 O108 1.281 . S
C118 O109 1.252 . S
C119 O110 1.272 . S
C119 O111 1.245 . S
O120 Co96 2.053 . S
O120 C112 1.259 . S
O121 Co98 2.047 . S
O121 C112 1.257 . S
O122 Co97 2.063 . S
O122 C113 1.268 . S
O123 Co96 2.094 . S
O123 C113 1.253 . S
O124 Co103 2.115 . S
O124 C114 1.281 . S
O125 Co103 2.315 . S
O125 C114 1.252 . S
O126 Co96 2.122 . S
O126 C115 1.272 . S
O127 Co98 2.113 . S
O127 C115 1.245 . S
Co128 H131 2.400 . S
Co128 O132 2.009 . S
Co128 O140 2.115 . S
Co128 O141 2.315 . S
Co128 O152 2.053 . S
Co128 O155 2.094 . S
Co128 O158 2.122 . S
Co129 O132 2.126 . S
Co129 H133 2.388 . S
Co129 O134 2.053 . S
Co129 O137 2.047 . S
Co129 O143 2.113 . S
Co129 O154 2.063 . S
Co130 H131 2.388 . S
Co130 O132 2.053 . S
Co130 O134 2.126 . S
Co130 O139 2.063 . S
Co130 O153 2.047 . S
Co130 O159 2.113 . S
H131 Co128 2.400 . S
H131 Co130 2.388 . S
H131 O132 0.760 . S
O132 Co128 2.009 . S
O132 Co129 2.126 . S
O132 Co130 2.053 . S
O132 H131 0.760 . S
H133 Co129 2.388 . S
H133 O134 0.760 . S
H133 Co135 2.400 . S
O134 Co129 2.053 . S
O134 Co130 2.126 . S
O134 H133 0.760 . S
O134 Co135 2.009 . S
Co135 H133 2.400 . S
Co135 O134 2.009 . S
Co135 O136 2.053 . S
Co135 O138 2.094 . S
Co135 O142 2.122 . S
Co135 O156 2.115 . S
Co135 O157 2.315 . S
O136 Co135 2.053 . S
O136 C148 1.259 . S
O137 Co129 2.047 . S
O137 C148 1.257 . S
O138 Co135 2.094 . S
O138 C149 1.253 . S
O139 Co130 2.063 . S
O139 C149 1.268 . S
O140 Co128 2.115 . S
O140 C150 1.281 . S
O141 Co128 2.315 . S
O141 C150 1.252 . S
O142 Co135 2.122 . S
O142 C151 1.272 . S
O143 Co129 2.113 . S
O143 C151 1.245 . S
C144 O152 1.259 . S
C144 O153 1.257 . S
C145 O154 1.268 . S
C145 O155 1.253 . S
C146 O156 1.281 . S
C146 O157 1.252 . S
C147 O158 1.272 . S
C147 O159 1.245 . S
C148 O136 1.259 . S
C148 O137 1.257 . S
C149 O138 1.253 . S
C149 O139 1.268 . S
C150 O140 1.281 . S
C150 O141 1.252 . S
C151 O142 1.272 . S
C151 O143 1.245 . S
O152 Co128 2.053 . S
O152 C144 1.259 . S
O153 Co130 2.047 . S
O153 C144 1.257 . S
O154 Co129 2.063 . S
O154 C145 1.268 . S
O155 Co128 2.094 . S
O155 C145 1.253 . S
O156 Co135 2.115 . S
O156 C146 1.281 . S
O157 Co135 2.315 . S
O157 C146 1.252 . S
O158 Co128 2.122 . S
O158 C147 1.272 . S
O159 Co130 2.113 . S
O159 C147 1.245 . S
Co160 H163 2.400 . S
Co160 O164 2.009 . S
Co160 O172 2.115 . S
Co160 O173 2.315 . S
Co160 O184 2.053 . S
Co160 O187 2.094 . S
Co160 O190 2.122 . S
Co161 O164 2.126 . S
Co161 H165 2.388 . S
Co161 O166 2.053 . S
Co161 O169 2.047 . S
Co161 O175 2.113 . S
Co161 O186 2.063 . S
Co162 H163 2.388 . S
Co162 O164 2.053 . S
Co162 O166 2.126 . S
Co162 O171 2.063 . S
Co162 O185 2.047 . S
Co162 O191 2.113 . S
H163 Co160 2.400 . S
H163 Co162 2.388 . S
H163 O164 0.760 . S
O164 Co160 2.009 . S
O164 Co161 2.126 . S
O164 Co162 2.053 . S
O164 H163 0.760 . S
H165 Co161 2.388 . S
H165 O166 0.760 . S
H165 Co167 2.400 . S
O166 Co161 2.053 . S
O166 Co162 2.126 . S
O166 H165 0.760 . S
O166 Co167 2.009 . S
Co167 H165 2.400 . S
Co167 O166 2.009 . S
Co167 O168 2.053 . S
Co167 O170 2.094 . S
Co167 O174 2.122 . S
Co167 O188 2.115 . S
Co167 O189 2.315 . S
O168 Co167 2.053 . S
O168 C180 1.259 . S
O169 Co161 2.047 . S
O169 C180 1.257 . S
O170 Co167 2.094 . S
O170 C181 1.253 . S
O171 Co162 2.063 . S
O171 C181 1.268 . S
O172 Co160 2.115 . S
O172 C182 1.281 . S
O173 Co160 2.315 . S
O173 C182 1.252 . S
O174 Co167 2.122 . S
O174 C183 1.272 . S
O175 Co161 2.113 . S
O175 C183 1.245 . S
C176 O184 1.259 . S
C176 O185 1.257 . S
C177 O186 1.268 . S
C177 O187 1.253 . S
C178 O188 1.281 . S
C178 O189 1.252 . S
C179 O190 1.272 . S
C179 O191 1.245 . S
C180 O168 1.259 . S
C180 O169 1.257 . S
C181 O170 1.253 . S
C181 O171 1.268 . S
C182 O172 1.281 . S
C182 O173 1.252 . S
C183 O174 1.272 . S
C183 O175 1.245 . S
O184 Co160 2.053 . S
O184 C176 1.259 . S
O185 Co162 2.047 . S
O185 C176 1.257 . S
O186 Co161 2.063 . S
O186 C177 1.268 . S
O187 Co160 2.094 . S
O187 C177 1.253 . S
O188 Co167 2.115 . S
O188 C178 1.281 . S
O189 Co167 2.315 . S
O189 C178 1.252 . S
O190 Co160 2.122 . S
O190 C179 1.272 . S
O191 Co162 2.113 . S
O191 C179 1.245 . S
Co192 H195 2.400 . S
Co192 O196 2.009 . S
Co192 O204 2.115 . S
Co192 O205 2.315 . S
Co192 O216 2.053 . S
Co192 O219 2.094 . S
Co192 O222 2.122 . S
Co193 O196 2.126 . S
Co193 H197 2.388 . S
Co193 O198 2.053 . S
Co193 O201 2.047 . S
Co193 O207 2.113 . S
Co193 O218 2.063 . S
Co194 H195 2.388 . S
Co194 O196 2.053 . S
Co194 O198 2.126 . S
Co194 O203 2.063 . S
Co194 O217 2.047 . S
Co194 O223 2.113 . S
H195 Co192 2.400 . S
H195 Co194 2.388 . S
H195 O196 0.760 . S
O196 Co192 2.009 . S
O196 Co193 2.126 . S
O196 Co194 2.053 . S
O196 H195 0.760 . S
H197 Co193 2.388 . S
H197 O198 0.760 . S
H197 Co199 2.400 . S
O198 Co193 2.053 . S
O198 Co194 2.126 . S
O198 H197 0.760 . S
O198 Co199 2.009 . S
Co199 H197 2.400 . S
Co199 O198 2.009 . S
Co199 O200 2.053 . S
Co199 O202 2.094 . S
Co199 O206 2.122 . S
Co199 O220 2.115 . S
Co199 O221 2.315 . S
O200 Co199 2.053 . S
O200 C212 1.259 . S
O201 Co193 2.047 . S
O201 C212 1.257 . S
O202 Co199 2.094 . S
O202 C213 1.253 . S
O203 Co194 2.063 . S
O203 C213 1.268 . S
O204 Co192 2.115 . S
O204 C214 1.281 . S
O205 Co192 2.315 . S
O205 C214 1.252 . S
O206 Co199 2.122 . S
O206 C215 1.272 . S
O207 Co193 2.113 . S
O207 C215 1.245 . S
C208 O216 1.259 . S
C208 O217 1.257 . S
C209 O218 1.268 . S
C209 O219 1.253 . S
C210 O220 1.281 . S
C210 O221 1.252 . S
C211 O222 1.272 . S
C211 O223 1.245 . S
C212 O200 1.259 . S
C212 O201 1.257 . S
C213 O202 1.253 . S
C213 O203 1.268 . S
C214 O204 1.281 . S
C214 O205 1.252 . S
C215 O206 1.272 . S
C215 O207 1.245 . S
O216 Co192 2.053 . S
O216 C208 1.259 . S
O217 Co194 2.047 . S
O217 C208 1.257 . S
O218 Co193 2.063 . S
O218 C209 1.268 . S
O219 Co192 2.094 . S
O219 C209 1.253 . S
O220 Co199 2.115 . S
O220 C210 1.281 . S
O221 Co199 2.315 . S
O221 C210 1.252 . S
O222 Co192 2.122 . S
O222 C211 1.272 . S
O223 Co194 2.113 . S
O223 C211 1.245 . S
Co224 H227 2.400 . S
Co224 O228 2.009 . S
Co224 O236 2.115 . S
Co224 O237 2.315 . S
Co224 O248 2.053 . S
Co224 O251 2.094 . S
Co224 O254 2.122 . S
Co225 O228 2.126 . S
Co225 H229 2.388 . S
Co225 O230 2.053 . S
Co225 O233 2.047 . S
Co225 O239 2.113 . S
Co225 O250 2.063 . S
Co226 H227 2.388 . S
Co226 O228 2.053 . S
Co226 O230 2.126 . S
Co226 O235 2.063 . S
Co226 O249 2.047 . S
Co226 O255 2.113 . S
H227 Co224 2.400 . S
H227 Co226 2.388 . S
H227 O228 0.760 . S
O228 Co224 2.009 . S
O228 Co225 2.126 . S
O228 Co226 2.053 . S
O228 H227 0.760 . S
H229 Co225 2.388 . S
H229 O230 0.760 . S
H229 Co231 2.400 . S
O230 Co225 2.053 . S
O230 Co226 2.126 . S
O230 H229 0.760 . S
O230 Co231 2.009 . S
Co231 H229 2.400 . S
Co231 O230 2.009 . S
Co231 O232 2.053 . S
Co231 O234 2.094 . S
Co231 O238 2.122 . S
Co231 O252 2.115 . S
Co231 O253 2.315 . S
O232 Co231 2.053 . S
O232 C244 1.259 . S
O233 Co225 2.047 . S
O233 C244 1.257 . S
O234 Co231 2.094 . S
O234 C245 1.253 . S
O235 Co226 2.063 . S
O235 C245 1.268 . S
O236 Co224 2.115 . S
O236 C246 1.281 . S
O237 Co224 2.315 . S
O237 C246 1.252 . S
O238 Co231 2.122 . S
O238 C247 1.272 . S
O239 Co225 2.113 . S
O239 C247 1.245 . S
C240 O248 1.259 . S
C240 O249 1.257 . S
C241 O250 1.268 . S
C241 O251 1.253 . S
C242 O252 1.281 . S
C242 O253 1.252 . S
C243 O254 1.272 . S
C243 O255 1.245 . S
C244 O232 1.259 . S
C244 O233 1.257 . S
C245 O234 1.253 . S
C245 O235 1.268 . S
C246 O236 1.281 . S
C246 O237 1.252 . S
C247 O238 1.272 . S
C247 O239 1.245 . S
O248 Co224 2.053 . S
O248 C240 1.259 . S
O249 Co226 2.047 . S
O249 C240 1.257 . S
O250 Co225 2.063 . S
O250 C241 1.268 . S
O251 Co224 2.094 . S
O251 C241 1.253 . S
O252 Co231 2.115 . S
O252 C242 1.281 . S
O253 Co231 2.315 . S
O253 C242 1.252 . S
O254 Co224 2.122 . S
O254 C243 1.272 . S
O255 Co226 2.113 . S
O255 C243 1.245 . S
Co256 H259 2.400 . S
Co256 O260 2.009 . S
Co256 O268 2.115 . S
Co256 O269 2.315 . S
Co256 O280 2.053 . S
Co256 O283 2.094 . S
Co256 O286 2.122 . S
Co257 O260 2.126 . S
Co257 H261 2.388 . S
Co257 O262 2.053 . S
Co257 O265 2.047 . S
Co257 O271 2.113 . S
Co257 O282 2.063 . S
Co258 H259 2.388 . S
Co258 O260 2.053 . S
Co258 O262 2.126 . S
Co258 O267 2.063 . S
Co258 O281 2.047 . S
Co258 O287 2.113 . S
H259 Co256 2.400 . S
H259 Co258 2.388 . S
H259 O260 0.760 . S
O260 Co256 2.009 . S
O260 Co257 2.126 . S
O260 Co258 2.053 . S
O260 H259 0.760 . S
H261 Co257 2.388 . S
H261 O262 0.760 . S
H261 Co263 2.400 . S
O262 Co257 2.053 . S
O262 Co258 2.126 . S
O262 H261 0.760 . S
O262 Co263 2.009 . S
Co263 H261 2.400 . S
Co263 O262 2.009 . S
Co263 O264 2.053 . S
Co263 O266 2.094 . S
Co263 O270 2.122 . S
Co263 O284 2.115 . S
Co263 O285 2.315 . S
O264 Co263 2.053 . S
O264 C276 1.259 . S
O265 Co257 2.047 . S
O265 C276 1.257 . S
O266 Co263 2.094 . S
O266 C277 1.253 . S
O267 Co258 2.063 . S
O267 C277 1.268 . S
O268 Co256 2.115 . S
O268 C278 1.281 . S
O269 Co256 2.315 . S
O269 C278 1.252 . S
O270 Co263 2.122 . S
O270 C279 1.272 . S
O271 Co257 2.113 . S
O271 C279 1.245 . S
C272 O280 1.259 . S
C272 O281 1.257 . S
C273 O282 1.268 . S
C273 O283 1.253 . S
C274 O284 1.281 . S
C274 O285 1.252 . S
C275 O286 1.272 . S
C275 O287 1.245 . S
C276 O264 1.259 . S
C276 O265 1.257 . S
C277 O266 1.253 . S
C277 O267 1.268 . S
C278 O268 1.281 . S
C278 O269 1.252 . S
C279 O270 1.272 . S
C279 O271 1.245 . S
O280 Co256 2.053 . S
O280 C272 1.259 . S
O281 Co258 2.047 . S
O281 C272 1.257 . S
O282 Co257 2.063 . S
O282 C273 1.268 . S
O283 Co256 2.094 . S
O283 C273 1.253 . S
O284 Co263 2.115 . S
O284 C274 1.281 . S
O285 Co263 2.315 . S
O285 C274 1.252 . S
O286 Co256 2.122 . S
O286 C275 1.272 . S
O287 Co258 2.113 . S
O287 C275 1.245 . S
H288 C296 0.950 . S
H289 C301 0.950 . S
H290 C298 0.950 . S
H291 C300 0.950 . S
H292 C302 0.950 . S
H293 C304 0.950 . S
H294 C306 0.950 . S
H295 C307 0.950 . S
C296 H288 0.950 . S
C296 C297 1.386 1_556 S
C296 C298 1.391 1_556 S
C297 C296 1.386 1_554 S
C297 C301 1.393 . S
C298 H290 0.950 . S
C298 C296 1.391 1_554 S
C298 C299 1.400 . S
C299 C298 1.400 . S
C299 C300 1.398 . S
C299 C305 1.491 . S
C300 H291 0.950 . S
C300 C299 1.398 . S
C300 C301 1.391 . S
C301 H289 0.950 . S
C301 C297 1.393 . S
C301 C300 1.391 . S
C302 H292 0.950 . S
C302 C303 1.386 . S
C302 C304 1.391 . S
C303 C302 1.386 . S
C303 C307 1.393 . S
C304 H293 0.950 . S
C304 C302 1.391 . S
C304 C305 1.400 . S
C305 C299 1.491 . S
C305 C304 1.400 . S
C305 C306 1.398 . S
C306 H294 0.950 . S
C306 C305 1.398 . S
C306 C307 1.391 . S
C307 H295 0.950 . S
C307 C303 1.393 . S
C307 C306 1.391 . S
H308 C316 0.950 . S
H309 C321 0.950 . S
H310 C318 0.950 . S
H311 C320 0.950 . S
H312 C322 0.950 . S
H313 C324 0.950 . S
H314 C326 0.950 . S
H315 C327 0.950 . S
C316 H308 0.950 . S
C316 C317 1.386 . S
C316 C318 1.391 . S
C317 C316 1.386 . S
C317 C321 1.393 . S
C318 H310 0.950 . S
C318 C316 1.391 . S
C318 C319 1.400 . S
C319 C318 1.400 . S
C319 C320 1.398 . S
C319 C325 1.491 . S
C320 H311 0.950 . S
C320 C319 1.398 . S
C320 C321 1.391 . S
C321 H309 0.950 . S
C321 C317 1.393 . S
C321 C320 1.391 . S
C322 H312 0.950 . S
C322 C323 1.386 . S
C322 C324 1.391 . S
C323 C322 1.386 . S
C323 C327 1.393 . S
C324 H313 0.950 . S
C324 C322 1.391 . S
C324 C325 1.400 1_565 S
C325 C319 1.491 . S
C325 C324 1.400 1_545 S
C325 C326 1.398 . S
C326 H314 0.950 . S
C326 C325 1.398 . S
C326 C327 1.391 1_545 S
C327 H315 0.950 . S
C327 C323 1.393 . S
C327 C326 1.391 1_565 S
H328 C336 0.950 1_556 S
H329 C341 0.950 . S
H330 C338 0.950 . S
H331 C340 0.950 . S
H332 C342 0.950 . S
H333 C344 0.950 . S
H334 C346 0.950 . S
H335 C347 0.950 . S
C336 H328 0.950 1_554 S
C336 C337 1.386 1_655 S
C336 C338 1.391 . S
C337 C336 1.386 1_455 S
C337 C341 1.393 . S
C338 H330 0.950 . S
C338 C336 1.391 . S
C338 C339 1.400 . S
C339 C338 1.400 . S
C339 C340 1.398 1_655 S
C339 C345 1.491 . S
C340 H331 0.950 . S
C340 C339 1.398 1_455 S
C340 C341 1.391 . S
C341 H329 0.950 . S
C341 C337 1.393 . S
C341 C340 1.391 . S
C342 H332 0.950 . S
C342 C343 1.386 . S
C342 C344 1.391 . S
C343 C342 1.386 . S
C343 C347 1.393 . S
C344 H333 0.950 . S
C344 C342 1.391 . S
C344 C345 1.400 . S
C345 C339 1.491 . S
C345 C344 1.400 . S
C345 C346 1.398 . S
C346 H334 0.950 . S
C346 C345 1.398 . S
C346 C347 1.391 . S
C347 H335 0.950 . S
C347 C343 1.393 . S
C347 C346 1.391 . S
H348 C356 0.950 . S
H349 C361 0.950 . S
H350 C358 0.950 . S
H351 C360 0.950 . S
H352 C362 0.950 . S
H353 C364 0.950 . S
H354 C366 0.950 . S
H355 C367 0.950 . S
C356 H348 0.950 . S
C356 C357 1.386 . S
C356 C358 1.391 . S
C357 C356 1.386 . S
C357 C361 1.393 . S
C358 H350 0.950 . S
C358 C356 1.391 . S
C358 C359 1.400 . S
C359 C358 1.400 . S
C359 C360 1.398 . S
C359 C365 1.491 . S
C360 H351 0.950 . S
C360 C359 1.398 . S
C360 C361 1.391 . S
C361 H349 0.950 . S
C361 C357 1.393 . S
C361 C360 1.391 . S
C362 H352 0.950 . S
C362 C363 1.386 . S
C362 C364 1.391 . S
C363 C362 1.386 . S
C363 C367 1.393 . S
C364 H353 0.950 . S
C364 C362 1.391 . S
C364 C365 1.400 . S
C365 C359 1.491 . S
C365 C364 1.400 . S
C365 C366 1.398 . S
C366 H354 0.950 . S
C366 C365 1.398 . S
C366 C367 1.391 . S
C367 H355 0.950 . S
C367 C363 1.393 . S
C367 C366 1.391 . S
H368 C376 0.950 . S
H369 C381 0.949 1_565 S
H370 C378 0.950 . S
H371 C380 0.950 . S
H372 C382 0.950 . S
H373 C384 0.950 . S
H374 C386 0.950 . S
H375 C387 0.950 . S
C376 H368 0.950 . S
C376 C377 1.433 . S
C376 C378 1.391 . S
C377 C376 1.433 . S
C377 C381 1.369 . S
C378 H370 0.950 . S
C378 C376 1.391 . S
C378 C379 1.400 . S
C379 C378 1.400 . S
C379 C380 1.398 . S
C379 C385 1.491 . S
C380 H371 0.950 . S
C380 C379 1.398 . S
C380 C381 1.391 . S
C381 H369 0.949 1_545 S
C381 C377 1.369 . S
C381 C380 1.391 . S
C382 H372 0.950 . S
C382 C383 1.386 . S
C382 C384 1.391 . S
C383 C382 1.386 . S
C383 C387 1.393 . S
C384 H373 0.950 . S
C384 C382 1.391 . S
C384 C385 1.400 . S
C385 C379 1.491 . S
C385 C384 1.400 . S
C385 C386 1.398 . S
C386 H374 0.950 . S
C386 C385 1.398 . S
C386 C387 1.391 . S
C387 H375 0.950 . S
C387 C383 1.393 . S
C387 C386 1.391 . S
H388 C396 0.950 1_556 S
H389 C401 0.976 . S
H390 C398 0.950 . S
H391 C400 0.950 . S
H392 C402 0.950 . S
H393 C404 0.950 . S
H394 C406 0.950 . S
H395 C407 0.950 . S
C396 H388 0.950 1_554 S
C396 C397 1.386 . S
C396 C398 1.391 . S
C397 C396 1.386 . S
C397 C401 1.402 1_655 S
C398 H390 0.950 . S
C398 C396 1.391 . S
C398 C399 1.400 . S
C399 C398 1.400 . S
C399 C400 1.398 . S
C399 C405 1.491 . S
C400 H391 0.950 . S
C400 C399 1.398 . S
C400 C401 1.356 1_655 S
C401 H389 0.976 . S
C401 C397 1.402 1_455 S
C401 C400 1.356 1_455 S
C402 H392 0.950 . S
C402 C403 1.386 . S
C402 C404 1.391 . S
C403 C402 1.386 . S
C403 C407 1.393 . S
C404 H393 0.950 . S
C404 C402 1.391 . S
C404 C405 1.400 . S
C405 C399 1.491 . S
C405 C404 1.400 . S
C405 C406 1.398 . S
C406 H394 0.950 . S
C406 C405 1.398 . S
C406 C407 1.391 . S
C407 H395 0.950 . S
C407 C403 1.393 . S
C407 C406 1.391 . S
H408 C416 0.950 . S
H409 C421 0.950 . S
H410 C418 0.950 . S
H411 C420 0.950 . S
H412 C422 0.950 . S
H413 C424 0.950 . S
H414 C426 0.950 . S
H415 C427 0.950 1_455 S
C416 H408 0.950 . S
C416 C417 1.386 . S
C416 C418 1.391 . S
C417 C416 1.386 . S
C417 C421 1.393 . S
C418 H410 0.950 . S
C418 C416 1.391 . S
C418 C419 1.400 . S
C419 C418 1.400 . S
C419 C420 1.398 . S
C419 C425 1.491 . S
C420 H411 0.950 . S
C420 C419 1.398 . S
C420 C421 1.391 . S
C421 H409 0.950 . S
C421 C417 1.393 . S
C421 C420 1.391 . S
C422 H412 0.950 . S
C422 C423 1.386 . S
C422 C424 1.391 . S
C423 C422 1.386 . S
C423 C427 1.393 . S
C424 H413 0.950 . S
C424 C422 1.391 . S
C424 C425 1.400 . S
C425 C419 1.491 . S
C425 C424 1.400 . S
C425 C426 1.398 . S
C426 H414 0.950 . S
C426 C425 1.398 . S
C426 C427 1.391 . S
C427 H415 0.950 1_655 S
C427 C423 1.393 . S
C427 C426 1.391 . S
H428 C436 0.950 . S
H429 C441 0.950 . S
H430 C438 0.950 . S
H431 C440 0.950 . S
H432 C442 0.950 . S
H433 C444 0.950 . S
H434 C446 0.950 . S
H435 C447 0.950 . S
C436 H428 0.950 . S
C436 C437 1.386 . S
C436 C438 1.391 . S
C437 C436 1.386 . S
C437 C441 1.393 . S
C438 H430 0.950 . S
C438 C436 1.391 . S
C438 C439 1.400 . S
C439 C438 1.400 . S
C439 C440 1.398 . S
C439 C445 1.491 . S
C440 H431 0.950 . S
C440 C439 1.398 . S
C440 C441 1.391 . S
C441 H429 0.950 . S
C441 C437 1.393 . S
C441 C440 1.391 . S
C442 H432 0.950 . S
C442 C443 1.386 . S
C442 C444 1.391 . S
C443 C442 1.386 . S
C443 C447 1.393 . S
C444 H433 0.950 . S
C444 C442 1.391 . S
C444 C445 1.400 . S
C445 C439 1.491 . S
C445 C444 1.400 . S
C445 C446 1.398 . S
C446 H434 0.950 . S
C446 C445 1.398 . S
C446 C447 1.391 . S
C447 H435 0.950 . S
C447 C443 1.393 . S
C447 C446 1.391 . S
H448 C456 0.950 1_565 S
H449 C461 0.950 . S
H450 C458 0.950 . S
H451 C460 0.950 . S
H452 C462 0.950 . S
H453 C464 0.950 . S
H454 C466 0.950 . S
H455 C467 0.950 . S
C456 H448 0.950 1_545 S
C456 C457 1.386 . S
C456 C458 1.391 . S
C457 C456 1.386 . S
C457 C461 1.393 . S
C458 H450 0.950 . S
C458 C456 1.391 . S
C458 C459 1.400 . S
C459 C458 1.400 . S
C459 C460 1.398 . S
C459 C465 1.491 . S
C460 H451 0.950 . S
C460 C459 1.398 . S
C460 C461 1.391 . S
C461 H449 0.950 . S
C461 C457 1.393 . S
C461 C460 1.391 . S
C462 H452 0.950 . S
C462 C463 1.386 . S
C462 C464 1.391 . S
C463 C462 1.386 . S
C463 C467 1.393 . S
C464 H453 0.950 . S
C464 C462 1.391 . S
C464 C465 1.400 . S
C465 C459 1.491 . S
C465 C464 1.400 . S
C465 C466 1.398 . S
C466 H454 0.950 . S
C466 C465 1.398 . S
C466 C467 1.391 . S
C467 H455 0.950 . S
C467 C463 1.393 . S
C467 C466 1.391 . S
H468 C476 0.950 . S
H469 C481 0.950 . S
H470 C478 0.950 . S
H471 C480 0.950 . S
H472 C482 0.950 . S
H473 C484 0.950 . S
H474 C486 0.950 . S
H475 C487 0.950 1_565 S
C476 H468 0.950 . S
C476 C477 1.386 . S
C476 C478 1.391 . S
C477 C476 1.386 . S
C477 C481 1.393 . S
C478 H470 0.950 . S
C478 C476 1.391 . S
C478 C479 1.400 . S
C479 C478 1.400 . S
C479 C480 1.398 . S
C479 C485 1.491 . S
C480 H471 0.950 . S
C480 C479 1.398 . S
C480 C481 1.391 . S
C481 H469 0.950 . S
C481 C477 1.393 . S
C481 C480 1.391 . S
C482 H472 0.950 . S
C482 C483 1.386 . S
C482 C484 1.391 . S
C483 C482 1.386 . S
C483 C487 1.393 . S
C484 H473 0.950 . S
C484 C482 1.391 . S
C484 C485 1.400 . S
C485 C479 1.491 . S
C485 C484 1.400 . S
C485 C486 1.398 . S
C486 H474 0.950 . S
C486 C485 1.398 . S
C486 C487 1.391 . S
C487 H475 0.950 1_545 S
C487 C483 1.393 . S
C487 C486 1.391 . S
H488 C496 0.950 . S
H489 C501 0.950 1_455 S
H490 C498 0.950 . S
H491 C500 0.950 . S
H492 C502 0.950 . S
H493 C504 0.950 . S
H494 C506 0.950 . S
H495 C507 0.950 . S
C496 H488 0.950 . S
C496 C497 1.386 . S
C496 C498 1.391 . S
C497 C496 1.386 . S
C497 C501 1.393 . S
C498 H490 0.950 . S
C498 C496 1.391 . S
C498 C499 1.400 . S
C499 C498 1.400 . S
C499 C500 1.398 . S
C499 C505 1.491 . S
C500 H491 0.950 . S
C500 C499 1.398 . S
C500 C501 1.391 . S
C501 H489 0.950 1_655 S
C501 C497 1.393 . S
C501 C500 1.391 . S
C502 H492 0.950 . S
C502 C503 1.386 . S
C502 C504 1.391 . S
C503 C502 1.386 . S
C503 C507 1.393 . S
C504 H493 0.950 . S
C504 C502 1.391 . S
C504 C505 1.400 . S
C505 C499 1.491 . S
C505 C504 1.400 . S
C505 C506 1.398 . S
C506 H494 0.950 . S
C506 C505 1.398 . S
C506 C507 1.391 . S
C507 H495 0.950 . S
C507 C503 1.393 . S
C507 C506 1.391 . S
H508 C516 0.950 . S
H509 C521 0.950 . S
H510 C518 0.950 . S
H511 C520 0.950 . S
H512 C522 0.950 . S
H513 C524 0.950 . S
H514 C526 0.950 . S
H515 C527 0.950 . S
C516 H508 0.950 . S
C516 C517 1.386 . S
C516 C518 1.391 . S
C517 C516 1.386 . S
C517 C521 1.393 . S
C518 H510 0.950 . S
C518 C516 1.391 . S
C518 C519 1.400 . S
C519 C518 1.400 . S
C519 C520 1.398 . S
C519 C525 1.491 . S
C520 H511 0.950 . S
C520 C519 1.398 . S
C520 C521 1.391 . S
C521 H509 0.950 . S
C521 C517 1.393 . S
C521 C520 1.391 . S
C522 H512 0.950 . S
C522 C523 1.386 . S
C522 C524 1.391 . S
C523 C522 1.386 . S
C523 C527 1.393 . S
C524 H513 0.950 . S
C524 C522 1.391 . S
C524 C525 1.400 . S
C525 C519 1.491 . S
C525 C524 1.400 . S
C525 C526 1.398 . S
C526 H514 0.950 . S
C526 C525 1.398 . S
C526 C527 1.391 . S
C527 H515 0.950 . S
C527 C523 1.393 . S
C527 C526 1.391 . S
H528 C536 0.950 . S
H529 C541 0.950 . S
H530 C538 0.950 . S
H531 C540 0.950 . S
H532 C542 0.941 1_554 S
H533 C544 0.950 . S
H534 C546 0.950 . S
H535 C547 0.950 . S
C536 H528 0.950 . S
C536 C537 1.386 . S
C536 C538 1.391 . S
C537 C536 1.386 . S
C537 C541 1.393 . S
C538 H530 0.950 . S
C538 C536 1.391 . S
C538 C539 1.400 . S
C539 C538 1.400 . S
C539 C540 1.398 . S
C539 C545 1.491 . S
C540 H531 0.950 . S
C540 C539 1.398 . S
C540 C541 1.391 . S
C541 H529 0.950 . S
C541 C537 1.393 . S
C541 C540 1.391 . S
C542 H532 0.941 1_556 S
C542 C543 1.386 . S
C542 C544 1.391 . S
C543 C542 1.386 . S
C543 C547 1.393 . S
C544 H533 0.950 . S
C544 C542 1.391 . S
C544 C545 1.400 . S
C545 C539 1.491 . S
C545 C544 1.400 . S
C545 C546 1.398 . S
C546 H534 0.950 . S
C546 C545 1.398 . S
C546 C547 1.391 . S
C547 H535 0.950 . S
C547 C543 1.393 . S
C547 C546 1.391 . S
H548 C556 0.950 . S
H549 C561 0.950 . S
H550 C558 0.950 . S
H551 C560 0.950 . S
H552 C562 0.950 . S
H553 C564 0.950 . S
H554 C566 0.950 . S
H555 C567 0.950 1_554 S
C556 H548 0.950 . S
C556 C557 1.386 . S
C556 C558 1.391 . S
C557 C556 1.386 . S
C557 C561 1.393 . S
C558 H550 0.950 . S
C558 C556 1.391 . S
C558 C559 1.400 . S
C559 C558 1.400 . S
C559 C560 1.398 . S
C559 C565 1.491 . S
C560 H551 0.950 . S
C560 C559 1.398 . S
C560 C561 1.391 . S
C561 H549 0.950 . S
C561 C557 1.393 . S
C561 C560 1.391 . S
C562 H552 0.950 . S
C562 C563 1.386 . S
C562 C564 1.391 . S
C563 C562 1.386 . S
C563 C567 1.393 . S
C564 H553 0.950 . S
C564 C562 1.391 . S
C564 C565 1.400 . S
C565 C559 1.491 . S
C565 C564 1.400 . S
C565 C566 1.398 . S
C566 H554 0.950 . S
C566 C565 1.398 . S
C566 C567 1.391 . S
C567 H555 0.950 1_556 S
C567 C563 1.393 . S
C567 C566 1.391 . S
H568 C576 0.950 1_554 S
H569 C581 0.950 . S
H570 C578 0.950 . S
H571 C580 0.950 . S
H572 C582 0.950 . S
H573 C584 0.950 . S
H574 C586 0.950 . S
H575 C587 0.950 . S
C576 H568 0.950 1_556 S
C576 C577 1.386 . S
C576 C578 1.391 . S
C577 C576 1.386 . S
C577 C581 1.393 . S
C578 H570 0.950 . S
C578 C576 1.391 . S
C578 C579 1.400 . S
C579 C578 1.400 . S
C579 C580 1.398 . S
C579 C585 1.491 . S
C580 H571 0.950 . S
C580 C579 1.398 . S
C580 C581 1.391 . S
C581 H569 0.950 . S
C581 C577 1.393 . S
C581 C580 1.391 . S
C582 H572 0.950 . S
C582 C583 1.386 . S
C582 C584 1.391 . S
C583 C582 1.386 . S
C583 C587 1.393 . S
C584 H573 0.950 . S
C584 C582 1.391 . S
C584 C585 1.400 . S
C585 C579 1.491 . S
C585 C584 1.400 . S
C585 C586 1.398 . S
C586 H574 0.950 . S
C586 C585 1.398 . S
C586 C587 1.391 . S
C587 H575 0.950 . S
C587 C583 1.393 . S
C587 C586 1.391 . S
H588 C596 0.950 . S
H589 C601 0.950 . S
H590 C598 0.950 . S
H591 C600 0.950 . S
H592 C602 0.950 . S
H593 C604 0.950 . S
H594 C606 0.950 . S
H595 C607 0.950 . S
C596 H588 0.950 . S
C596 C597 1.386 . S
C596 C598 1.391 . S
C597 C596 1.386 . S
C597 C601 1.393 . S
C598 H590 0.950 . S
C598 C596 1.391 . S
C598 C599 1.400 . S
C599 C598 1.400 . S
C599 C600 1.398 . S
C599 C605 1.491 . S
C600 H591 0.950 . S
C600 C599 1.398 . S
C600 C601 1.391 . S
C601 H589 0.950 . S
C601 C597 1.393 . S
C601 C600 1.391 . S
C602 H592 0.950 . S
C602 C603 1.386 . S
C602 C604 1.391 . S
C603 C602 1.386 . S
C603 C607 1.393 . S
C604 H593 0.950 . S
C604 C602 1.391 . S
C604 C605 1.400 . S
C605 C599 1.491 . S
C605 C604 1.400 . S
C605 C606 1.398 . S
C606 H594 0.950 . S
C606 C605 1.398 . S
C606 C607 1.391 . S
C607 H595 0.950 . S
C607 C603 1.393 . S
C607 C606 1.391 . S
H608 C616 0.950 . S
H609 C621 0.950 . S
H610 C618 0.950 . S
H611 C620 0.950 . S
H612 C622 0.950 . S
H613 C624 0.950 . S
H614 C626 0.950 . S
H615 C627 0.950 . S
C616 H608 0.950 . S
C616 C617 1.386 . S
C616 C618 1.391 . S
C617 C616 1.386 . S
C617 C621 1.393 . S
C618 H610 0.950 . S
C618 C616 1.391 . S
C618 C619 1.400 . S
C619 C618 1.400 . S
C619 C620 1.398 . S
C619 C625 1.491 . S
C620 H611 0.950 . S
C620 C619 1.398 . S
C620 C621 1.391 . S
C621 H609 0.950 . S
C621 C617 1.393 . S
C621 C620 1.391 . S
C622 H612 0.950 . S
C622 C623 1.386 . S
C622 C624 1.391 . S
C623 C622 1.386 . S
C623 C627 1.393 . S
C624 H613 0.950 . S
C624 C622 1.391 . S
C624 C625 1.400 . S
C625 C619 1.491 . S
C625 C624 1.400 . S
C625 C626 1.398 . S
C626 H614 0.950 . S
C626 C625 1.398 . S
C626 C627 1.391 . S
C627 H615 0.950 . S
C627 C623 1.393 . S
C627 C626 1.391 . S
H628 C636 0.950 . S
H629 C641 0.950 . S
H630 C638 0.950 . S
H631 C640 0.950 . S
H632 C642 0.950 . S
H633 C644 0.950 . S
H634 C646 0.950 . S
H635 C647 0.950 . S
C636 H628 0.950 . S
C636 C637 1.386 . S
C636 C638 1.391 . S
C637 C636 1.386 . S
C637 C641 1.393 . S
C638 H630 0.950 . S
C638 C636 1.391 . S
C638 C639 1.400 . S
C639 C638 1.400 . S
C639 C640 1.398 . S
C639 C645 1.491 . S
C640 H631 0.950 . S
C640 C639 1.398 . S
C640 C641 1.391 . S
C641 H629 0.950 . S
C641 C637 1.393 . S
C641 C640 1.391 . S
C642 H632 0.950 . S
C642 C643 1.386 . S
C642 C644 1.391 . S
C643 C642 1.386 . S
C643 C647 1.393 . S
C644 H633 0.950 . S
C644 C642 1.391 . S
C644 C645 1.400 . S
C645 C639 1.491 . S
C645 C644 1.400 . S
C645 C646 1.398 . S
C646 H634 0.950 . S
C646 C645 1.398 . S
C646 C647 1.391 . S
C647 H635 0.950 . S
C647 C643 1.393 . S
C647 C646 1.391 . S
H648 C656 0.950 1_565 S
H649 C661 0.950 . S
H650 C658 0.950 . S
H651 C660 0.950 . S
H652 C662 0.950 . S
H653 C664 0.950 . S
H654 C666 0.950 . S
H655 C667 0.950 . S
C656 H648 0.950 1_545 S
C656 C657 1.386 . S
C656 C658 1.391 . S
C657 C656 1.386 . S
C657 C661 1.393 . S
C658 H650 0.950 . S
C658 C656 1.391 . S
C658 C659 1.400 . S
C659 C658 1.400 . S
C659 C660 1.398 . S
C659 C665 1.491 . S
C660 H651 0.950 . S
C660 C659 1.398 . S
C660 C661 1.391 . S
C661 H649 0.950 . S
C661 C657 1.393 . S
C661 C660 1.391 . S
C662 H652 0.950 . S
C662 C663 1.386 . S
C662 C664 1.391 . S
C663 C662 1.386 . S
C663 C667 1.393 . S
C664 H653 0.950 . S
C664 C662 1.391 . S
C664 C665 1.400 . S
C665 C659 1.491 . S
C665 C664 1.400 . S
C665 C666 1.398 . S
C666 H654 0.950 . S
C666 C665 1.398 . S
C666 C667 1.391 . S
C667 H655 0.950 . S
C667 C663 1.393 . S
C667 C666 1.391 . S
H668 C676 0.950 . S
H669 C681 0.940 1_556 S
H670 C678 0.950 . S
H671 C680 0.950 1_556 S
H672 C682 0.950 1_556 S
H673 C684 0.950 1_556 S
H674 C686 0.950 . S
H675 C687 0.950 . S
C676 H668 0.950 . S
C676 C677 1.386 . S
C676 C678 1.391 . S
C677 C676 1.386 . S
C677 C681 1.402 . S
C678 H670 0.950 . S
C678 C676 1.391 . S
C678 C679 1.400 . S
C679 C678 1.400 . S
C679 C680 1.398 . S
C679 C685 1.491 . S
C680 H671 0.950 1_554 S
C680 C679 1.398 . S
C680 C681 1.391 . S
C681 H669 0.940 1_554 S
C681 C677 1.402 . S
C681 C680 1.391 . S
C682 H672 0.950 1_554 S
C682 C683 1.386 . S
C682 C684 1.391 1_565 S
C683 C682 1.386 . S
C683 C687 1.393 . S
C684 H673 0.950 1_554 S
C684 C682 1.391 1_545 S
C684 C685 1.400 . S
C685 C679 1.491 . S
C685 C684 1.400 . S
C685 C686 1.398 . S
C686 H674 0.950 . S
C686 C685 1.398 . S
C686 C687 1.391 1_545 S
C687 H675 0.950 . S
C687 C683 1.393 . S
C687 C686 1.391 1_565 S
H688 C696 0.950 . S
H689 C701 0.950 . S
H690 C698 0.950 . S
H691 C700 0.950 . S
H692 C702 0.938 1_455 S
H693 C704 0.950 . S
H694 C706 0.950 . S
H695 C707 0.950 . S
C696 H688 0.950 . S
C696 C697 1.386 . S
C696 C698 1.391 . S
C697 C696 1.386 . S
C697 C701 1.393 . S
C698 H690 0.950 . S
C698 C696 1.391 . S
C698 C699 1.400 . S
C699 C698 1.400 . S
C699 C700 1.398 . S
C699 C705 1.491 . S
C700 H691 0.950 . S
C700 C699 1.398 . S
C700 C701 1.391 . S
C701 H689 0.950 . S
C701 C697 1.393 . S
C701 C700 1.391 . S
C702 H692 0.938 1_655 S
C702 C703 1.386 1_655 S
C702 C704 1.391 . S
C703 C702 1.386 1_455 S
C703 C707 1.393 . S
C704 H693 0.950 . S
C704 C702 1.391 . S
C704 C705 1.400 . S
C705 C699 1.491 . S
C705 C704 1.400 . S
C705 C706 1.398 . S
C706 H694 0.950 . S
C706 C705 1.398 . S
C706 C707 1.391 1_655 S
C707 H695 0.950 . S
C707 C703 1.393 . S
C707 C706 1.391 1_455 S
H708 C716 0.950 . S
H709 C721 0.950 . S
H710 C718 0.950 . S
H711 C720 0.950 . S
H712 C722 0.950 . S
H713 C724 0.950 . S
H714 C726 0.950 . S
H715 C727 0.950 . S
C716 H708 0.950 . S
C716 C717 1.386 . S
C716 C718 1.391 . S
C717 C716 1.386 . S
C717 C721 1.393 . S
C718 H710 0.950 . S
C718 C716 1.391 . S
C718 C719 1.400 . S
C719 C718 1.400 . S
C719 C720 1.398 . S
C719 C725 1.491 . S
C720 H711 0.950 . S
C720 C719 1.398 . S
C720 C721 1.391 . S
C721 H709 0.950 . S
C721 C717 1.393 . S
C721 C720 1.391 . S
C722 H712 0.950 . S
C722 C723 1.386 . S
C722 C724 1.391 . S
C723 C722 1.386 . S
C723 C727 1.393 . S
C724 H713 0.950 . S
C724 C722 1.391 . S
C724 C725 1.400 . S
C725 C719 1.491 . S
C725 C724 1.400 . S
C725 C726 1.398 . S
C726 H714 0.950 . S
C726 C725 1.398 . S
C726 C727 1.391 . S
C727 H715 0.950 . S
C727 C723 1.393 . S
C727 C726 1.391 . S
H728 C736 0.950 . S
H729 C741 0.950 . S
H730 C738 0.950 . S
H731 C740 0.950 . S
H732 C742 0.950 . S
H733 C744 0.950 . S
H734 C746 0.950 . S
H735 C747 0.950 . S
C736 H728 0.950 . S
C736 C737 1.386 . S
C736 C738 1.391 . S
C737 C736 1.386 . S
C737 C741 1.393 . S
C738 H730 0.950 . S
C738 C736 1.391 . S
C738 C739 1.400 . S
C739 C738 1.400 . S
C739 C740 1.398 . S
C739 C745 1.491 . S
C740 H731 0.950 . S
C740 C739 1.398 . S
C740 C741 1.391 . S
C741 H729 0.950 . S
C741 C737 1.393 . S
C741 C740 1.391 . S
C742 H732 0.950 . S
C742 C743 1.386 . S
C742 C744 1.391 . S
C743 C742 1.386 . S
C743 C747 1.393 . S
C744 H733 0.950 . S
C744 C742 1.391 . S
C744 C745 1.400 . S
C745 C739 1.491 . S
C745 C744 1.400 . S
C745 C746 1.398 . S
C746 H734 0.950 . S
C746 C745 1.398 . S
C746 C747 1.391 . S
C747 H735 0.950 . S
C747 C743 1.393 . S
C747 C746 1.391 . S
H748 C756 0.950 . S
H749 C761 0.950 . S
H750 C758 0.950 . S
H751 C760 0.950 . S
H752 C762 0.950 . S
H753 C764 0.950 . S
H754 C766 0.950 . S
H755 C767 0.950 . S
C756 H748 0.950 . S
C756 C757 1.386 . S
C756 C758 1.391 . S
C757 C756 1.386 . S
C757 C761 1.393 . S
C758 H750 0.950 . S
C758 C756 1.391 . S
C758 C759 1.400 . S
C759 C758 1.400 . S
C759 C760 1.398 . S
C759 C765 1.491 . S
C760 H751 0.950 . S
C760 C759 1.398 . S
C760 C761 1.391 . S
C761 H749 0.950 . S
C761 C757 1.393 . S
C761 C760 1.391 . S
C762 H752 0.950 . S
C762 C763 1.386 . S
C762 C764 1.391 . S
C763 C762 1.386 . S
C763 C767 1.393 . S
C764 H753 0.950 . S
C764 C762 1.391 . S
C764 C765 1.400 . S
C765 C759 1.491 . S
C765 C764 1.400 . S
C765 C766 1.398 . S
C766 H754 0.950 . S
C766 C765 1.398 . S
C766 C767 1.391 . S
C767 H755 0.950 . S
C767 C763 1.393 . S
C767 C766 1.391 . S
H768 C776 0.950 . S
H769 C781 0.950 . S
H770 C778 0.950 . S
H771 C780 0.950 . S
H772 C782 0.950 . S
H773 C784 0.950 . S
H774 C786 0.950 . S
H775 C787 0.950 . S
C776 H768 0.950 . S
C776 C777 1.386 . S
C776 C778 1.391 . S
C777 C776 1.386 . S
C777 C781 1.393 . S
C778 H770 0.950 . S
C778 C776 1.391 . S
C778 C779 1.400 . S
C779 C778 1.400 . S
C779 C780 1.398 . S
C779 C785 1.491 . S
C780 H771 0.950 . S
C780 C779 1.398 . S
C780 C781 1.391 . S
C781 H769 0.950 . S
C781 C777 1.393 . S
C781 C780 1.391 . S
C782 H772 0.950 . S
C782 C783 1.386 . S
C782 C784 1.391 . S
C783 C782 1.386 . S
C783 C787 1.393 . S
C784 H773 0.950 . S
C784 C782 1.391 . S
C784 C785 1.400 . S
C785 C779 1.491 . S
C785 C784 1.400 . S
C785 C786 1.398 . S
C786 H774 0.950 . S
C786 C785 1.398 . S
C786 C787 1.391 . S
C787 H775 0.950 . S
C787 C783 1.393 . S
C787 C786 1.391 . S
H788 C796 0.950 . S
H789 C801 0.950 . S
H790 C798 0.950 . S
H791 C800 0.950 . S
H792 C802 0.950 . S
H793 C804 0.950 . S
H794 C806 0.950 . S
H795 C807 0.950 . S
C796 H788 0.950 . S
C796 C797 1.386 . S
C796 C798 1.391 . S
C797 C796 1.386 . S
C797 C801 1.393 . S
C798 H790 0.950 . S
C798 C796 1.391 . S
C798 C799 1.400 . S
C799 C798 1.400 . S
C799 C800 1.398 . S
C799 C805 1.491 . S
C800 H791 0.950 . S
C800 C799 1.398 . S
C800 C801 1.391 . S
C801 H789 0.950 . S
C801 C797 1.393 . S
C801 C800 1.391 . S
C802 H792 0.950 . S
C802 C803 1.386 . S
C802 C804 1.391 . S
C803 C802 1.386 . S
C803 C807 1.393 . S
C804 H793 0.950 . S
C804 C802 1.391 . S
C804 C805 1.400 . S
C805 C799 1.491 . S
C805 C804 1.400 . S
C805 C806 1.398 . S
C806 H794 0.950 . S
C806 C805 1.398 . S
C806 C807 1.391 . S
C807 H795 0.950 . S
C807 C803 1.393 . S
C807 C806 1.391 . S
H808 C816 0.950 . S
H809 C821 0.950 . S
H810 C818 0.950 . S
H811 C820 0.950 . S
H812 C822 0.950 . S
H813 C824 0.950 . S
H814 C826 0.950 . S
H815 C827 0.950 . S
C816 H808 0.950 . S
C816 C817 1.386 . S
C816 C818 1.391 . S
C817 C816 1.386 . S
C817 C821 1.393 . S
C818 H810 0.950 . S
C818 C816 1.391 . S
C818 C819 1.400 . S
C819 C818 1.400 . S
C819 C820 1.398 . S
C819 C825 1.491 . S
C820 H811 0.950 . S
C820 C819 1.398 . S
C820 C821 1.391 . S
C821 H809 0.950 . S
C821 C817 1.393 . S
C821 C820 1.391 . S
C822 H812 0.950 . S
C822 C823 1.386 . S
C822 C824 1.391 . S
C823 C822 1.386 . S
C823 C827 1.393 . S
C824 H813 0.950 . S
C824 C822 1.391 . S
C824 C825 1.400 . S
C825 C819 1.491 . S
C825 C824 1.400 . S
C825 C826 1.398 . S
C826 H814 0.950 . S
C826 C825 1.398 . S
C826 C827 1.391 . S
C827 H815 0.950 . S
C827 C823 1.393 . S
C827 C826 1.391 . S
H828 C836 0.950 . S
H829 C841 0.950 . S
H830 C838 0.950 . S
H831 C840 0.950 . S
H832 C842 0.950 . S
H833 C844 0.950 . S
H834 C846 0.950 . S
H835 C847 0.950 . S
C836 H828 0.950 . S
C836 C837 1.386 . S
C836 C838 1.391 . S
C837 C836 1.386 . S
C837 C841 1.393 . S
C838 H830 0.950 . S
C838 C836 1.391 . S
C838 C839 1.400 . S
C839 C838 1.400 . S
C839 C840 1.398 . S
C839 C845 1.491 . S
C840 H831 0.950 . S
C840 C839 1.398 . S
C840 C841 1.391 . S
C841 H829 0.950 . S
C841 C837 1.393 . S
C841 C840 1.391 . S
C842 H832 0.950 . S
C842 C843 1.386 . S
C842 C844 1.391 . S
C843 C842 1.386 . S
C843 C847 1.393 . S
C844 H833 0.950 . S
C844 C842 1.391 . S
C844 C845 1.400 . S
C845 C839 1.491 . S
C845 C844 1.400 . S
C845 C846 1.398 . S
C846 H834 0.950 . S
C846 C845 1.398 . S
C846 C847 1.391 . S
C847 H835 0.950 . S
C847 C843 1.393 . S
C847 C846 1.391 . S
H848 C856 0.950 . S
H849 C861 0.950 . S
H850 C858 0.950 . S
H851 C860 0.950 . S
H852 C862 0.950 . S
H853 C864 0.950 . S
H854 C866 0.950 . S
H855 C867 0.950 . S
C856 H848 0.950 . S
C856 C857 1.386 . S
C856 C858 1.391 . S
C857 C856 1.386 . S
C857 C861 1.393 . S
C858 H850 0.950 . S
C858 C856 1.391 . S
C858 C859 1.400 . S
C859 C858 1.400 . S
C859 C860 1.398 . S
C859 C865 1.491 . S
C860 H851 0.950 . S
C860 C859 1.398 . S
C860 C861 1.391 . S
C861 H849 0.950 . S
C861 C857 1.393 . S
C861 C860 1.391 . S
C862 H852 0.950 . S
C862 C863 1.386 . S
C862 C864 1.391 . S
C863 C862 1.386 . S
C863 C867 1.393 . S
C864 H853 0.950 . S
C864 C862 1.391 . S
C864 C865 1.400 . S
C865 C859 1.491 . S
C865 C864 1.400 . S
C865 C866 1.398 . S
C866 H854 0.950 . S
C866 C865 1.398 . S
C866 C867 1.391 . S
C867 H855 0.950 . S
C867 C863 1.393 . S
C867 C866 1.391 . S
H868 C876 0.950 . S
H869 C881 0.950 . S
H870 C878 0.950 . S
H871 C880 0.950 . S
H872 C882 0.950 . S
H873 C884 0.950 . S
H874 C886 0.950 . S
H875 C887 0.950 . S
C876 H868 0.950 . S
C876 C877 1.386 . S
C876 C878 1.391 . S
C877 C876 1.386 . S
C877 C881 1.393 . S
C878 H870 0.950 . S
C878 C876 1.391 . S
C878 C879 1.400 . S
C879 C878 1.400 . S
C879 C880 1.398 . S
C879 C885 1.491 . S
C880 H871 0.950 . S
C880 C879 1.398 . S
C880 C881 1.391 . S
C881 H869 0.950 . S
C881 C877 1.393 . S
C881 C880 1.391 . S
C882 H872 0.950 . S
C882 C883 1.386 . S
C882 C884 1.391 . S
C883 C882 1.386 . S
C883 C887 1.393 . S
C884 H873 0.950 . S
C884 C882 1.391 . S
C884 C885 1.400 . S
C885 C879 1.491 . S
C885 C884 1.400 . S
C885 C886 1.398 . S
C886 H874 0.950 . S
C886 C885 1.398 . S
C886 C887 1.391 . S
C887 H875 0.950 . S
C887 C883 1.393 . S
C887 C886 1.391 . S
H888 C896 0.950 . S
H889 C901 0.950 . S
H890 C898 0.950 . S
H891 C900 0.950 . S
H892 C902 0.950 . S
H893 C904 0.950 . S
H894 C906 0.950 . S
H895 C907 0.950 . S
C896 H888 0.950 . S
C896 C897 1.386 . S
C896 C898 1.391 . S
C897 C896 1.386 . S
C897 C901 1.393 . S
C898 H890 0.950 . S
C898 C896 1.391 . S
C898 C899 1.400 . S
C899 C898 1.400 . S
C899 C900 1.398 . S
C899 C905 1.491 . S
C900 H891 0.950 . S
C900 C899 1.398 . S
C900 C901 1.391 . S
C901 H889 0.950 . S
C901 C897 1.393 . S
C901 C900 1.391 . S
C902 H892 0.950 . S
C902 C903 1.386 . S
C902 C904 1.391 1_554 S
C903 C902 1.386 . S
C903 C907 1.393 . S
C904 H893 0.950 . S
C904 C902 1.391 1_556 S
C904 C905 1.400 . S
C905 C899 1.491 . S
C905 C904 1.400 . S
C905 C906 1.398 . S
C906 H894 0.950 . S
C906 C905 1.398 . S
C906 C907 1.391 1_556 S
C907 H895 0.950 . S
C907 C903 1.393 . S
C907 C906 1.391 1_554 S
H908 C916 0.950 . S
H909 C921 0.950 . S
H910 C918 0.950 . S
H911 C920 0.950 . S
H912 C922 0.950 . S
H913 C924 0.950 . S
H914 C926 0.950 . S
H915 C927 0.950 . S
C916 H908 0.950 . S
C916 C917 1.386 . S
C916 C918 1.391 1_554 S
C917 C916 1.386 . S
C917 C921 1.393 . S
C918 H910 0.950 . S
C918 C916 1.391 1_556 S
C918 C919 1.400 . S
C919 C918 1.400 . S
C919 C920 1.398 . S
C919 C925 1.491 . S
C920 H911 0.950 . S
C920 C919 1.398 . S
C920 C921 1.391 1_556 S
C921 H909 0.950 . S
C921 C917 1.393 . S
C921 C920 1.391 1_554 S
C922 H912 0.950 . S
C922 C923 1.386 . S
C922 C924 1.391 . S
C923 C922 1.386 . S
C923 C927 1.393 . S
C924 H913 0.950 . S
C924 C922 1.391 . S
C924 C925 1.400 . S
C925 C919 1.491 . S
C925 C924 1.400 . S
C925 C926 1.398 . S
C926 H914 0.950 . S
C926 C925 1.398 . S
C926 C927 1.391 . S
C927 H915 0.950 . S
C927 C923 1.393 . S
C927 C926 1.391 . S
H928 C936 0.950 . S
H929 C941 0.950 . S
H930 C938 0.950 . S
H931 C940 0.950 . S
H932 C942 0.950 . S
H933 C944 0.950 . S
H934 C946 0.950 . S
H935 C947 0.950 . S
C936 H928 0.950 . S
C936 C937 1.386 . S
C936 C938 1.391 . S
C937 C936 1.386 . S
C937 C941 1.393 . S
C938 H930 0.950 . S
C938 C936 1.391 . S
C938 C939 1.400 . S
C939 C938 1.400 . S
C939 C940 1.398 . S
C939 C945 1.491 . S
C940 H931 0.950 . S
C940 C939 1.398 . S
C940 C941 1.391 . S
C941 H929 0.950 . S
C941 C937 1.393 . S
C941 C940 1.391 . S
C942 H932 0.950 . S
C942 C943 1.386 . S
C942 C944 1.391 1_554 S
C943 C942 1.386 . S
C943 C947 1.393 . S
C944 H933 0.950 . S
C944 C942 1.391 1_556 S
C944 C945 1.400 . S
C945 C939 1.491 . S
C945 C944 1.400 . S
C945 C946 1.398 . S
C946 H934 0.950 . S
C946 C945 1.398 . S
C946 C947 1.391 1_556 S
C947 H935 0.950 . S
C947 C943 1.393 . S
C947 C946 1.391 1_554 S
H948 C956 0.950 . S
H949 C961 0.950 . S
H950 C958 0.950 . S
H951 C960 0.950 . S
H952 C962 0.950 . S
H953 C964 0.950 . S
H954 C966 0.950 . S
H955 C967 0.950 . S
C956 H948 0.950 . S
C956 C957 1.386 . S
C956 C958 1.391 . S
C957 C956 1.386 . S
C957 C961 1.393 . S
C958 H950 0.950 . S
C958 C956 1.391 . S
C958 C959 1.400 . S
C959 C958 1.400 . S
C959 C960 1.398 . S
C959 C965 1.491 . S
C960 H951 0.950 . S
C960 C959 1.398 . S
C960 C961 1.391 . S
C961 H949 0.950 . S
C961 C957 1.393 . S
C961 C960 1.391 . S
C962 H952 0.950 . S
C962 C963 1.386 . S
C962 C964 1.391 1_556 S
C963 C962 1.386 . S
C963 C967 1.393 . S
C964 H953 0.950 . S
C964 C962 1.391 1_554 S
C964 C965 1.400 . S
C965 C959 1.491 . S
C965 C964 1.400 . S
C965 C966 1.398 . S
C966 H954 0.950 . S
C966 C965 1.398 . S
C966 C967 1.391 1_554 S
C967 H955 0.950 . S
C967 C963 1.393 . S
C967 C966 1.391 1_556 S
H968 C976 0.950 . S
H969 C981 0.950 . S
H970 C978 0.950 . S
H971 C980 0.950 . S
H972 C982 0.950 . S
H973 C984 0.950 . S
H974 C986 0.950 . S
H975 C987 0.950 . S
C976 H968 0.950 . S
C976 C977 1.386 . S
C976 C978 1.391 . S
C977 C976 1.386 . S
C977 C981 1.393 . S
C978 H970 0.950 . S
C978 C976 1.391 . S
C978 C979 1.400 . S
C979 C978 1.400 . S
C979 C980 1.398 . S
C979 C985 1.491 . S
C980 H971 0.950 . S
C980 C979 1.398 . S
C980 C981 1.391 . S
C981 H969 0.950 . S
C981 C977 1.393 . S
C981 C980 1.391 . S
C982 H972 0.950 . S
C982 C983 1.386 . S
C982 C984 1.391 1_556 S
C983 C982 1.386 . S
C983 C987 1.393 . S
C984 H973 0.950 . S
C984 C982 1.391 1_554 S
C984 C985 1.400 . S
C985 C979 1.491 . S
C985 C984 1.400 . S
C985 C986 1.398 . S
C986 H974 0.950 . S
C986 C985 1.398 . S
C986 C987 1.391 1_554 S
C987 H975 0.950 . S
C987 C983 1.393 . S
C987 C986 1.391 1_556 S
H988 C996 0.950 . S
H989 C1001 0.950 . S
H990 C998 0.950 . S
H991 C1000 0.950 . S
H992 C1002 0.950 1_556 S
H993 C1004 0.950 . S
H994 C1006 0.950 . S
H995 C1007 0.950 . S
C996 H988 0.950 . S
C996 C997 1.386 . S
C996 C998 1.391 . S
C997 C996 1.386 . S
C997 C1001 1.393 . S
C998 H990 0.950 . S
C998 C996 1.391 . S
C998 C999 1.400 . S
C999 C998 1.400 . S
C999 C1000 1.398 . S
C999 C1005 1.491 . S
C1000 H991 0.950 . S
C1000 C999 1.398 . S
C1000 C1001 1.391 . S
C1001 H989 0.950 . S
C1001 C997 1.393 . S
C1001 C1000 1.391 . S
C1002 H992 0.950 1_554 S
C1002 C1003 1.386 1_554 S
C1002 C1004 1.391 . S
C1003 C1002 1.386 1_556 S
C1003 C1007 1.393 . S
C1004 H993 0.950 . S
C1004 C1002 1.391 . S
C1004 C1005 1.400 . S
C1005 C999 1.491 . S
C1005 C1004 1.400 . S
C1005 C1006 1.398 . S
C1006 H994 0.950 . S
C1006 C1005 1.398 . S
C1006 C1007 1.391 1_554 S
C1007 H995 0.950 . S
C1007 C1003 1.393 . S
C1007 C1006 1.391 1_556 S
C297 C17 1.601 1_554 S
C303 C150 1.567 . S
C317 C182 1.591 . S
C323 C49 1.613 1_554 S
C337 C81 1.614 1_554 S
C343 C118 1.583 . S
C357 C53 2.311 . S
C363 C112 2.368 . S
C377 C85 2.287 1_545 S
C383 C144 2.368 . S
C397 C21 2.314 1_655 S
C403 C176 2.369 . S
C417 C113 1.604 . S
C423 C246 1.569 1_655 S
C437 C278 1.581 . S
C443 C145 1.598 . S
C457 C214 1.572 1_545 S
C463 C177 1.607 . S
C477 C149 2.324 . S
C483 C208 2.372 1_545 S
C497 C240 2.368 1_655 S
C503 C181 2.312 . S
C517 C272 2.370 . S
C523 C117 2.315 . S
C537 C209 1.612 . S
C543 C54 1.580 . S
C557 C241 1.607 . S
C563 C86 1.590 . S
C577 C22 1.582 . S
C583 C273 1.599 . S
C597 C16 2.370 . S
C603 C245 2.317 . S
C617 C48 2.371 . S
C623 C277 2.320 . S
C637 C213 2.324 . S
C643 C80 2.370 . S
C657 C82 1.426 1_545 S
C663 C20 1.429 . S
C677 C18 1.437 1_655 S
C683 C52 1.442 . S
C697 C50 1.429 . S
C703 C84 1.429 . S
C717 C178 1.420 . S
C723 C116 1.442 . S
C737 C114 1.418 . S
C743 C148 1.437 . S
C757 C146 1.433 . S
C763 C180 1.431 . S
C777 C212 1.440 . S
C783 C274 1.438 . S
C797 C244 1.442 . S
C803 C210 1.437 . S
C817 C276 1.445 . S
C823 C242 1.427 . S
C837 C19 1.110 . S
C843 C23 1.110 . S
C857 C55 1.125 . S
C863 C51 1.125 . S
C877 C83 1.115 . S
C883 C87 1.115 . S
C897 C119 1.121 . S
C903 C115 1.121 . S
C917 C147 1.121 . S
C923 C151 1.121 . S
C937 C183 1.116 . S
C943 C179 1.116 . S
C957 C211 1.118 . S
C963 C215 1.118 . S
C977 C243 1.110 . S
C983 C247 1.110 . S
C997 C275 1.104 . S
C1003 C279 1.104 . S
