# Generated by pormake.
# Topology uke, (4)-cn, num edge types: 1
# Building blocks:
#     Node 0, Type 0, BuildingBlock: QUQFOY_clean_sbu_1, # of connection points: 4
#     Node 1, Type 0, BuildingBlock: QUQFOY_clean_sbu_1, # of connection points: 4
#     Node 2, Type 0, BuildingBlock: QUQFOY_clean_sbu_1, # of connection points: 4
#     Node 3, Type 0, BuildingBlock: QUQFOY_clean_sbu_1, # of connection points: 4
#     Node 4, Type 0, BuildingBlock: QUQFOY_clean_sbu_1, # of connection points: 4
#     Node 5, Type 0, BuildingBlock: QUQFOY_clean_sbu_1, # of connection points: 4
#     Node 6, Type 0, BuildingBlock: QUQFOY_clean_sbu_1, # of connection points: 4
#     Node 7, Type 0, BuildingBlock: QUQFOY_clean_sbu_1, # of connection points: 4
#     Node 8, Type 0, BuildingBlock: QUQFOY_clean_sbu_1, # of connection points: 4
#     Node 9, Type 0, BuildingBlock: QUQFOY_clean_sbu_1, # of connection points: 4
#     Node 10, Type 0, BuildingBlock: QUQFOY_clean_sbu_1, # of connection points: 4
#     Node 11, Type 0, BuildingBlock: QUQFOY_clean_sbu_1, # of connection points: 4
#     Node 12, Type 0, BuildingBlock: QUQFOY_clean_sbu_1, # of connection points: 4
#     Node 13, Type 0, BuildingBlock: QUQFOY_clean_sbu_1, # of connection points: 4
#     Node 14, Type 0, BuildingBlock: QUQFOY_clean_sbu_1, # of connection points: 4
#     Node 15, Type 0, BuildingBlock: QUQFOY_clean_sbu_1, # of connection points: 4
#     Node 16, Type 0, BuildingBlock: QUQFOY_clean_sbu_1, # of connection points: 4
#     Node 17, Type 0, BuildingBlock: QUQFOY_clean_sbu_1, # of connection points: 4
#     Node 18, Type 0, BuildingBlock: QUQFOY_clean_sbu_1, # of connection points: 4
#     Node 19, Type 0, BuildingBlock: QUQFOY_clean_sbu_1, # of connection points: 4
#     Node 20, Type 0, BuildingBlock: QUQFOY_clean_sbu_1, # of connection points: 4
#     Node 21, Type 0, BuildingBlock: QUQFOY_clean_sbu_1, # of connection points: 4
#     Node 22, Type 0, BuildingBlock: QUQFOY_clean_sbu_1, # of connection points: 4
#     Node 23, Type 0, BuildingBlock: QUQFOY_clean_sbu_1, # of connection points: 4
#     Node 24, Type 0, BuildingBlock: QUQFOY_clean_sbu_1, # of connection points: 4
#     Node 25, Type 0, BuildingBlock: QUQFOY_clean_sbu_1, # of connection points: 4
#     Node 26, Type 0, BuildingBlock: QUQFOY_clean_sbu_1, # of connection points: 4
#     Node 27, Type 0, BuildingBlock: QUQFOY_clean_sbu_1, # of connection points: 4
#     Node 28, Type 0, BuildingBlock: QUQFOY_clean_sbu_1, # of connection points: 4
#     Node 29, Type 0, BuildingBlock: QUQFOY_clean_sbu_1, # of connection points: 4
#     Node 30, Type 0, BuildingBlock: QUQFOY_clean_sbu_1, # of connection points: 4
#     Node 31, Type 0, BuildingBlock: QUQFOY_clean_sbu_1, # of connection points: 4
#     Edge 32, Type (0, 0), BuildingBlock: XIVTED_clean_linker_0, # of connection points: 2
#     Edge 33, Type (0, 0), BuildingBlock: XIVTED_clean_linker_0, # of connection points: 2
#     Edge 34, Type (0, 0), BuildingBlock: XIVTED_clean_linker_0, # of connection points: 2
#     Edge 35, Type (0, 0), BuildingBlock: XIVTED_clean_linker_0, # of connection points: 2
#     Edge 36, Type (0, 0), BuildingBlock: XIVTED_clean_linker_0, # of connection points: 2
#     Edge 37, Type (0, 0), BuildingBlock: XIVTED_clean_linker_0, # of connection points: 2
#     Edge 38, Type (0, 0), BuildingBlock: XIVTED_clean_linker_0, # of connection points: 2
#     Edge 39, Type (0, 0), BuildingBlock: XIVTED_clean_linker_0, # of connection points: 2
#     Edge 40, Type (0, 0), BuildingBlock: XIVTED_clean_linker_0, # of connection points: 2
#     Edge 41, Type (0, 0), BuildingBlock: XIVTED_clean_linker_0, # of connection points: 2
#     Edge 42, Type (0, 0), BuildingBlock: XIVTED_clean_linker_0, # of connection points: 2
#     Edge 43, Type (0, 0), BuildingBlock: XIVTED_clean_linker_0, # of connection points: 2
#     Edge 44, Type (0, 0), BuildingBlock: XIVTED_clean_linker_0, # of connection points: 2
#     Edge 45, Type (0, 0), BuildingBlock: XIVTED_clean_linker_0, # of connection points: 2
#     Edge 46, Type (0, 0), BuildingBlock: XIVTED_clean_linker_0, # of connection points: 2
#     Edge 47, Type (0, 0), BuildingBlock: XIVTED_clean_linker_0, # of connection points: 2
#     Edge 48, Type (0, 0), BuildingBlock: XIVTED_clean_linker_0, # of connection points: 2
#     Edge 49, Type (0, 0), BuildingBlock: XIVTED_clean_linker_0, # of connection points: 2
#     Edge 50, Type (0, 0), BuildingBlock: XIVTED_clean_linker_0, # of connection points: 2
#     Edge 51, Type (0, 0), BuildingBlock: XIVTED_clean_linker_0, # of connection points: 2
#     Edge 52, Type (0, 0), BuildingBlock: XIVTED_clean_linker_0, # of connection points: 2
#     Edge 53, Type (0, 0), BuildingBlock: XIVTED_clean_linker_0, # of connection points: 2
#     Edge 54, Type (0, 0), BuildingBlock: XIVTED_clean_linker_0, # of connection points: 2
#     Edge 55, Type (0, 0), BuildingBlock: XIVTED_clean_linker_0, # of connection points: 2
#     Edge 56, Type (0, 0), BuildingBlock: XIVTED_clean_linker_0, # of connection points: 2
#     Edge 57, Type (0, 0), BuildingBlock: XIVTED_clean_linker_0, # of connection points: 2
#     Edge 58, Type (0, 0), BuildingBlock: XIVTED_clean_linker_0, # of connection points: 2
#     Edge 59, Type (0, 0), BuildingBlock: XIVTED_clean_linker_0, # of connection points: 2
#     Edge 60, Type (0, 0), BuildingBlock: XIVTED_clean_linker_0, # of connection points: 2
#     Edge 61, Type (0, 0), BuildingBlock: XIVTED_clean_linker_0, # of connection points: 2
#     Edge 62, Type (0, 0), BuildingBlock: XIVTED_clean_linker_0, # of connection points: 2
#     Edge 63, Type (0, 0), BuildingBlock: XIVTED_clean_linker_0, # of connection points: 2
#     Edge 64, Type (0, 0), BuildingBlock: XIVTED_clean_linker_0, # of connection points: 2
#     Edge 65, Type (0, 0), BuildingBlock: XIVTED_clean_linker_0, # of connection points: 2
#     Edge 66, Type (0, 0), BuildingBlock: XIVTED_clean_linker_0, # of connection points: 2
#     Edge 67, Type (0, 0), BuildingBlock: XIVTED_clean_linker_0, # of connection points: 2
#     Edge 68, Type (0, 0), BuildingBlock: XIVTED_clean_linker_0, # of connection points: 2
#     Edge 69, Type (0, 0), BuildingBlock: XIVTED_clean_linker_0, # of connection points: 2
#     Edge 70, Type (0, 0), BuildingBlock: XIVTED_clean_linker_0, # of connection points: 2
#     Edge 71, Type (0, 0), BuildingBlock: XIVTED_clean_linker_0, # of connection points: 2
#     Edge 72, Type (0, 0), BuildingBlock: XIVTED_clean_linker_0, # of connection points: 2
#     Edge 73, Type (0, 0), BuildingBlock: XIVTED_clean_linker_0, # of connection points: 2
#     Edge 74, Type (0, 0), BuildingBlock: XIVTED_clean_linker_0, # of connection points: 2
#     Edge 75, Type (0, 0), BuildingBlock: XIVTED_clean_linker_0, # of connection points: 2
#     Edge 76, Type (0, 0), BuildingBlock: XIVTED_clean_linker_0, # of connection points: 2
#     Edge 77, Type (0, 0), BuildingBlock: XIVTED_clean_linker_0, # of connection points: 2
#     Edge 78, Type (0, 0), BuildingBlock: XIVTED_clean_linker_0, # of connection points: 2
#     Edge 79, Type (0, 0), BuildingBlock: XIVTED_clean_linker_0, # of connection points: 2
#     Edge 80, Type (0, 0), BuildingBlock: XIVTED_clean_linker_0, # of connection points: 2
#     Edge 81, Type (0, 0), BuildingBlock: XIVTED_clean_linker_0, # of connection points: 2
#     Edge 82, Type (0, 0), BuildingBlock: XIVTED_clean_linker_0, # of connection points: 2
#     Edge 83, Type (0, 0), BuildingBlock: XIVTED_clean_linker_0, # of connection points: 2
#     Edge 84, Type (0, 0), BuildingBlock: XIVTED_clean_linker_0, # of connection points: 2
#     Edge 85, Type (0, 0), BuildingBlock: XIVTED_clean_linker_0, # of connection points: 2
#     Edge 86, Type (0, 0), BuildingBlock: XIVTED_clean_linker_0, # of connection points: 2
#     Edge 87, Type (0, 0), BuildingBlock: XIVTED_clean_linker_0, # of connection points: 2
#     Edge 88, Type (0, 0), BuildingBlock: XIVTED_clean_linker_0, # of connection points: 2
#     Edge 89, Type (0, 0), BuildingBlock: XIVTED_clean_linker_0, # of connection points: 2
#     Edge 90, Type (0, 0), BuildingBlock: XIVTED_clean_linker_0, # of connection points: 2
#     Edge 91, Type (0, 0), BuildingBlock: XIVTED_clean_linker_0, # of connection points: 2
#     Edge 92, Type (0, 0), BuildingBlock: XIVTED_clean_linker_0, # of connection points: 2
#     Edge 93, Type (0, 0), BuildingBlock: XIVTED_clean_linker_0, # of connection points: 2
#     Edge 94, Type (0, 0), BuildingBlock: XIVTED_clean_linker_0, # of connection points: 2
#     Edge 95, Type (0, 0), BuildingBlock: XIVTED_clean_linker_0, # of connection points: 2
# Relax obj value: 0.022
# Max RMSD: 0.085
# Mean RMSD: 0.085
data_MOF--net-uke--node1-QUQFOY_clean_sbu_1--edge1-XIVTED_clean_linker_0
_symmetry_space_group_name_H-M    P1
_symmetry_Int_Tables_number       1
_symmetry_cell_setting            triclinic
loop_
_symmetry_equiv_pos_as_xyz
'x, y, z'
_cell_length_a     25.107333
_cell_length_b     112.43651
_cell_length_c     52.574399
_cell_angle_alpha  89.99796
_cell_angle_beta   89.92319
_cell_angle_gamma 90.020295
loop_
_atom_site_label
_atom_site_type_symbol
_atom_site_fract_x
_atom_site_fract_y
_atom_site_fract_z
_atom_type_partial_charge
O0 O 0.08155 0.09242 0.28456 0.0
Cd1 Cd 0.06154 0.0753 0.27407 0.0
Cd2 Cd 0.16481 0.07332 0.27589 0.0
O3 O 0.16265 0.0885 0.29829 0.0
O4 O 0.9859 0.07272 0.28517 0.0
O5 O 0.05491 0.06402 0.30353 0.0
C6 C 1.00435 0.06613 0.30326 0.0
C7 C 0.20063 0.05456 0.28228 0.0
C8 C 0.1237 0.09569 0.29601 0.0
C9 C 0.11758 0.07308 0.22481 0.0
O10 O 0.15771 0.0762 0.23782 0.0
O11 O 0.07371 0.07066 0.23593 0.0
O12 O 0.23124 0.06366 0.27872 0.0
O13 O 0.15029 0.05645 0.28554 0.0
O14 O 0.19804 0.18646 0.28477 0.0
Cd15 Cd 0.21894 0.20353 0.27432 0.0
Cd16 Cd 0.11549 0.20561 0.27524 0.0
O17 O 0.11631 0.19043 0.29763 0.0
O18 O 0.29391 0.20598 0.28643 0.0
O19 O 0.22418 0.21497 0.30355 0.0
C20 C 0.27461 0.21271 0.3041 0.0
C21 C 0.07813 0.22425 0.28132 0.0
C22 C 0.15529 0.18321 0.2958 0.0
C23 C 0.16534 0.20577 0.22453 0.0
O24 O 0.12451 0.20276 0.23722 0.0
O25 O 0.20884 0.2081 0.23601 0.0
O26 O 0.04834 0.21506 0.27739 0.0
O27 O 0.12842 0.22253 0.28506 0.0
O28 O 0.08363 0.18661 0.97497 0.0
Cd29 Cd 0.06462 0.20378 0.98544 0.0
Cd30 Cd 0.16798 0.20536 0.98406 0.0
O31 O 0.16531 0.19023 0.96156 0.0
O32 O 0.98893 0.20638 0.97461 0.0
O33 O 0.05778 0.21502 0.95588 0.0
C34 C 1.00721 0.21291 0.95635 0.0
C35 C 0.2047 0.22404 0.97777 0.0
C36 C 0.12575 0.18319 0.96364 0.0
C37 C 0.11992 0.20579 0.03493 0.0
O38 O 0.16005 0.20246 0.02211 0.0
O39 O 0.0766 0.20841 0.0236 0.0
O40 O 0.23486 0.21487 0.98128 0.0
O41 O 0.15428 0.22227 0.97451 0.0
O42 O 0.19853 0.09226 0.97512 0.0
Cd43 Cd 0.21711 0.0751 0.98581 0.0
Cd44 Cd 0.11369 0.07357 0.98392 0.0
O45 O 0.11717 0.08867 0.96134 0.0
O46 O 0.29295 0.07237 0.97523 0.0
O47 O 0.22418 0.06378 0.9564 0.0
C48 C 0.27481 0.06582 0.95701 0.0
C49 C 0.07715 0.05487 0.97771 0.0
C50 C 0.15675 0.09569 0.96358 0.0
C51 C 0.1604 0.0732 0.03502 0.0
O52 O 0.12069 0.07653 0.02196 0.0
O53 O 0.20402 0.07053 0.02394 0.0
O54 O 0.04687 0.06405 0.98097 0.0
O55 O 0.12764 0.05665 0.97462 0.0
O56 O 0.94608 0.93551 0.72502 0.0
Cd57 Cd 0.96588 0.95261 0.7358 0.0
Cd58 Cd 0.86278 0.95445 0.73417 0.0
O59 O 0.86495 0.93942 0.71137 0.0
O60 O 0.042 0.95501 0.72538 0.0
O61 O 0.97429 0.96394 0.70644 0.0
C62 C 0.02471 0.96168 0.70716 0.0
C63 C 0.827 0.97322 0.72817 0.0
C64 C 0.904 0.93225 0.71349 0.0
C65 C 0.90985 0.95454 0.7852 0.0
O66 O 0.86982 0.95136 0.77219 0.0
O67 O 0.95349 0.95712 0.77403 0.0
O68 O 0.79639 0.9641 0.73142 0.0
O69 O 0.8774 0.97137 0.725 0.0
O70 O 0.83276 0.84152 0.72503 0.0
Cd71 Cd 0.81292 0.82442 0.73569 0.0
Cd72 Cd 0.91627 0.82256 0.73415 0.0
O73 O 0.91414 0.83765 0.71154 0.0
O74 O 0.73752 0.82176 0.72441 0.0
O75 O 0.80698 0.81306 0.70634 0.0
C76 C 0.75639 0.81515 0.70643 0.0
C77 C 0.95262 0.80384 0.72793 0.0
C78 C 0.875 0.8448 0.71361 0.0
C79 C 0.86818 0.82237 0.78513 0.0
O80 O 0.90847 0.82551 0.77219 0.0
O81 O 0.82458 0.81987 0.7739 0.0
O82 O 0.98297 0.81298 0.73154 0.0
O83 O 0.90229 0.80566 0.72459 0.0
O84 O 0.95166 0.84224 0.03448 0.0
Cd85 Cd 0.97162 0.82512 0.02399 0.0
Cd86 Cd 0.86836 0.82321 0.02548 0.0
O87 O 0.87039 0.83831 0.04805 0.0
O88 O 0.04711 0.82252 0.03515 0.0
O89 O 0.97788 0.81383 0.05346 0.0
C90 C 0.02846 0.81593 0.05323 0.0
C91 C 0.83203 0.80448 0.03174 0.0
C92 C 0.90941 0.8455 0.04591 0.0
C93 C 0.91641 0.82294 0.97455 0.0
O94 O 0.87615 0.82613 0.98743 0.0
O95 O 0.95995 0.82045 0.98583 0.0
O96 O 0.80168 0.81361 0.02812 0.0
O97 O 0.88237 0.80632 0.03508 0.0
O98 O 0.83459 0.9361 0.03549 0.0
Cd99 Cd 0.81381 0.95313 0.02469 0.0
Cd100 Cd 0.91685 0.95532 0.02628 0.0
O101 O 0.91572 0.94021 0.04889 0.0
O102 O 0.73768 0.95534 0.03526 0.0
O103 O 0.80509 0.96449 0.05397 0.0
C104 C 0.75478 0.96209 0.05337 0.0
C105 C 0.95266 0.9741 0.03235 0.0
C106 C 0.877 0.93294 0.04685 0.0
C107 C 0.86939 0.95522 0.97522 0.0
O108 O 0.90978 0.95228 0.98824 0.0
O109 O 0.8255 0.95758 0.98638 0.0
O110 O 0.98321 0.96498 0.02894 0.0
O111 O 0.90229 0.97223 0.03563 0.0
O112 O 0.08141 0.59181 0.7857 0.0
Cd113 Cd 0.06181 0.57468 0.77522 0.0
Cd114 Cd 0.16526 0.57286 0.77687 0.0
O115 O 0.16278 0.58803 0.79924 0.0
O116 O 0.98648 0.57197 0.78672 0.0
O117 O 0.05622 0.56342 0.80475 0.0
C118 C 1.0056 0.56545 0.80477 0.0
C119 C 0.2018 0.55418 0.78333 0.0
C120 C 0.12354 0.59515 0.79709 0.0
C121 C 0.11763 0.57254 0.72583 0.0
O122 O 0.15776 0.57569 0.73881 0.0
O123 O 0.07385 0.57007 0.737 0.0
O124 O 0.23207 0.56333 0.77963 0.0
O125 O 0.15143 0.55598 0.78665 0.0
O126 O 0.2019 0.68584 0.78554 0.0
Cd127 Cd 0.22204 0.70292 0.77482 0.0
Cd128 Cd 0.11842 0.70476 0.77614 0.0
O129 O 0.12021 0.68966 0.7987 0.0
O130 O 0.29712 0.70554 0.78673 0.0
O131 O 0.22722 0.71439 0.804 0.0
C132 C 0.27773 0.71223 0.80445 0.0
C133 C 0.08161 0.72345 0.78225 0.0
C134 C 0.1595 0.68253 0.79679 0.0
C135 C 0.16715 0.70495 0.72524 0.0
O136 O 0.1268 0.70183 0.73814 0.0
O137 O 0.21074 0.70744 0.73651 0.0
O138 O 0.0515 0.71428 0.7785 0.0
O139 O 0.13191 0.72166 0.7858 0.0
O140 O 0.08292 0.6863 0.47555 0.0
Cd141 Cd 0.06245 0.70335 0.48631 0.0
Cd142 Cd 0.16586 0.70538 0.48478 0.0
O143 O 0.16428 0.69028 0.46216 0.0
O144 O 0.98725 0.70587 0.47453 0.0
O145 O 0.05681 0.71483 0.45717 0.0
C146 C 1.00635 0.7126 0.4568 0.0
C147 C 0.20289 0.72406 0.47872 0.0
C148 C 0.1253 0.68308 0.46418 0.0
C149 C 0.11755 0.70541 0.5358 0.0
O150 O 0.15793 0.70239 0.5228 0.0
O151 O 0.07378 0.70782 0.52462 0.0
O152 O 0.23287 0.71486 0.4823 0.0
O153 O 0.15251 0.72232 0.47531 0.0
O154 O 0.19681 0.59234 0.47623 0.0
Cd155 Cd 0.21627 0.5752 0.48668 0.0
Cd156 Cd 0.11306 0.57338 0.48491 0.0
O157 O 0.11586 0.58846 0.46227 0.0
O158 O 0.29167 0.57246 0.47533 0.0
O159 O 0.222 0.56396 0.45711 0.0
C160 C 0.27265 0.56597 0.45721 0.0
C161 C 0.07651 0.55467 0.47873 0.0
C162 C 0.1549 0.59563 0.46459 0.0
C163 C 0.1601 0.57308 0.53596 0.0
O164 O 0.1202 0.57634 0.52295 0.0
O165 O 0.20378 0.57052 0.52482 0.0
O166 O 0.04624 0.56384 0.48208 0.0
O167 O 0.12696 0.55645 0.47558 0.0
O168 O 0.94804 0.43673 0.22539 0.0
Cd169 Cd 0.96796 0.45382 0.23613 0.0
Cd170 Cd 0.86436 0.45565 0.23444 0.0
O171 O 0.86658 0.4405 0.21196 0.0
O172 O 0.04336 0.45638 0.22457 0.0
O173 O 0.97402 0.46525 0.20692 0.0
C174 C 0.02451 0.46306 0.20672 0.0
C175 C 0.82813 0.47438 0.22828 0.0
C176 C 0.90589 0.4334 0.21403 0.0
C177 C 0.912 0.45588 0.2855 0.0
O178 O 0.87193 0.45273 0.27247 0.0
O179 O 0.95584 0.45835 0.27439 0.0
O180 O 0.7977 0.46525 0.23186 0.0
O181 O 0.87845 0.47253 0.22486 0.0
O182 O 0.83123 0.34249 0.22543 0.0
Cd183 Cd 0.81251 0.3253 0.23596 0.0
Cd184 Cd 0.91593 0.32378 0.23442 0.0
O185 O 0.91285 0.33891 0.21191 0.0
O186 O 0.73693 0.32254 0.22507 0.0
O187 O 0.80617 0.31402 0.20646 0.0
C188 C 0.75553 0.31602 0.20688 0.0
C189 C 0.95272 0.30512 0.22807 0.0
C190 C 0.87324 0.34593 0.21404 0.0
C191 C 0.86822 0.32334 0.28537 0.0
O192 O 0.90823 0.32668 0.27247 0.0
O193 O 0.82483 0.32069 0.27411 0.0
O194 O 0.98286 0.3143 0.23155 0.0
O195 O 0.90227 0.30687 0.2249 0.0
O196 O 0.94881 0.34227 0.53538 0.0
Cd197 Cd 0.96935 0.32522 0.52464 0.0
Cd198 Cd 0.86564 0.32328 0.52564 0.0
O199 O 0.86679 0.33844 0.54806 0.0
O200 O 0.0445 0.32275 0.53651 0.0
O201 O 0.97498 0.31371 0.55375 0.0
C202 C 0.02541 0.31598 0.55418 0.0
C203 C 0.8288 0.30459 0.53174 0.0
C204 C 0.90612 0.34557 0.54636 0.0
C205 C 0.91531 0.32313 0.47488 0.0
O206 O 0.87461 0.32615 0.48764 0.0
O207 O 0.95884 0.32075 0.48629 0.0
O208 O 0.79873 0.31373 0.52779 0.0
O209 O 0.87903 0.30639 0.5355 0.0
O210 O 0.82987 0.43641 0.53472 0.0
Cd211 Cd 0.81112 0.45361 0.52444 0.0
Cd212 Cd 0.91448 0.45523 0.52636 0.0
O213 O 0.91095 0.44008 0.54878 0.0
O214 O 0.73589 0.45649 0.53592 0.0
O215 O 0.80608 0.46477 0.55416 0.0
C216 C 0.75534 0.46287 0.55412 0.0
C217 C 0.95137 0.47389 0.53275 0.0
C218 C 0.87159 0.43301 0.54634 0.0
C219 C 0.86768 0.45573 0.47525 0.0
O220 O 0.90737 0.45237 0.48829 0.0
O221 O 0.82399 0.45834 0.48635 0.0
O222 O 0.98149 0.46469 0.52936 0.0
O223 O 0.90088 0.47215 0.53584 0.0
O224 O 0.58421 0.09181 0.78585 0.0
Cd225 Cd 0.56409 0.07469 0.77538 0.0
Cd226 Cd 0.66728 0.07277 0.77667 0.0
O227 O 0.66559 0.0879 0.79918 0.0
O228 O 0.48832 0.07225 0.78632 0.0
O229 O 0.55679 0.0634 0.80483 0.0
C230 C 0.50631 0.06561 0.80444 0.0
C231 C 0.70357 0.05405 0.78283 0.0
C232 C 0.62658 0.09508 0.79712 0.0
C233 C 0.61914 0.07255 0.72582 0.0
O234 O 0.65952 0.0757 0.73863 0.0
O235 O 0.57561 0.07007 0.73718 0.0
O236 O 0.73392 0.06319 0.77926 0.0
O237 O 0.65321 0.05587 0.78622 0.0
O238 O 0.6999 0.18586 0.78505 0.0
Cd239 Cd 0.72001 0.20296 0.77442 0.0
Cd240 Cd 0.61666 0.20486 0.77582 0.0
O241 O 0.61845 0.18976 0.79841 0.0
O242 O 0.7957 0.20549 0.78537 0.0
O243 O 0.72696 0.21431 0.80378 0.0
C244 C 0.77748 0.21214 0.80342 0.0
C245 C 0.58049 0.2236 0.78201 0.0
C246 C 0.65753 0.18259 0.79638 0.0
C247 C 0.66488 0.20507 0.72492 0.0
O248 O 0.62455 0.20191 0.73779 0.0
O249 O 0.70842 0.20755 0.73621 0.0
O250 O 0.55007 0.21447 0.77838 0.0
O251 O 0.6308 0.22175 0.78542 0.0
O252 O 0.5813 0.18633 0.47531 0.0
Cd253 Cd 0.5615 0.20343 0.48602 0.0
Cd254 Cd 0.66481 0.20526 0.48442 0.0
O255 O 0.66294 0.1901 0.46204 0.0
O256 O 0.48542 0.2058 0.47562 0.0
O257 O 0.55316 0.21476 0.45668 0.0
C258 C 0.50275 0.21248 0.45742 0.0
C259 C 0.7005 0.22402 0.47794 0.0
C260 C 0.62362 0.18299 0.46406 0.0
C261 C 0.61708 0.2055 0.53544 0.0
O262 O 0.65737 0.20238 0.5225 0.0
O263 O 0.57343 0.20796 0.52423 0.0
O264 O 0.73115 0.21494 0.48157 0.0
O265 O 0.65018 0.22211 0.47469 0.0
O266 O 0.70103 0.09217 0.47625 0.0
Cd267 Cd 0.72044 0.07501 0.48664 0.0
Cd268 Cd 0.61704 0.07332 0.4855 0.0
O269 O 0.61934 0.08846 0.46306 0.0
O270 O 0.79593 0.07238 0.47542 0.0
O271 O 0.72666 0.06376 0.45709 0.0
C272 C 0.77725 0.06585 0.45729 0.0
C273 C 0.58063 0.05461 0.4792 0.0
C274 C 0.65877 0.09555 0.46503 0.0
C275 C 0.66554 0.07289 0.53626 0.0
O276 O 0.62526 0.07617 0.52354 0.0
O277 O 0.70889 0.07034 0.52482 0.0
O278 O 0.55031 0.06374 0.48296 0.0
O279 O 0.63095 0.05645 0.47572 0.0
O280 O 0.44802 0.9363 0.22543 0.0
Cd281 Cd 0.46812 0.95339 0.23609 0.0
Cd282 Cd 0.36449 0.95526 0.23437 0.0
O283 O 0.3666 0.94009 0.21196 0.0
O284 O 0.54354 0.9559 0.22445 0.0
O285 O 0.47422 0.96478 0.20681 0.0
C286 C 0.52469 0.96256 0.20656 0.0
C287 C 0.32829 0.974 0.22811 0.0
C288 C 0.40584 0.93298 0.21407 0.0
C289 C 0.41211 0.95548 0.28546 0.0
O290 O 0.37203 0.95237 0.2724 0.0
O291 O 0.456 0.95793 0.27436 0.0
O292 O 0.29785 0.96487 0.23175 0.0
O293 O 0.37861 0.97214 0.22471 0.0
O294 O 0.33058 0.84208 0.226 0.0
Cd295 Cd 0.31156 0.8249 0.23645 0.0
Cd296 Cd 0.41501 0.82334 0.23506 0.0
O297 O 0.41223 0.83847 0.21255 0.0
O298 O 0.23608 0.82219 0.22538 0.0
O299 O 0.30546 0.81366 0.2069 0.0
C300 C 0.25483 0.81568 0.2072 0.0
C301 C 0.45139 0.80463 0.22885 0.0
C302 C 0.37267 0.8455 0.21465 0.0
C303 C 0.36684 0.82289 0.28592 0.0
O304 O 0.40693 0.82623 0.27309 0.0
O305 O 0.3235 0.82025 0.2746 0.0
O306 O 0.48175 0.81377 0.23243 0.0
O307 O 0.40106 0.80645 0.22548 0.0
O308 O 0.45122 0.84212 0.53526 0.0
Cd309 Cd 0.46998 0.82493 0.5248 0.0
Cd310 Cd 0.36648 0.82338 0.5262 0.0
O311 O 0.36951 0.83852 0.54866 0.0
O312 O 0.54514 0.82204 0.53617 0.0
O313 O 0.47501 0.81363 0.55427 0.0
C314 C 0.52574 0.81553 0.55419 0.0
C315 C 0.32904 0.80478 0.53251 0.0
C316 C 0.40911 0.84555 0.54658 0.0
C317 C 0.41474 0.8229 0.47532 0.0
O318 O 0.37461 0.82623 0.48815 0.0
O319 O 0.4581 0.8203 0.48664 0.0
O320 O 0.29922 0.814 0.52891 0.0
O321 O 0.37949 0.80646 0.53582 0.0
O322 O 0.33228 0.93626 0.53536 0.0
Cd323 Cd 0.31187 0.95331 0.52465 0.0
Cd324 Cd 0.41545 0.95533 0.52643 0.0
O325 O 0.41364 0.94015 0.5488 0.0
O326 O 0.23641 0.95575 0.53627 0.0
O327 O 0.30553 0.96473 0.55389 0.0
C328 C 0.25511 0.96244 0.55413 0.0
C329 C 0.45172 0.97405 0.53282 0.0
C330 C 0.37454 0.93299 0.54671 0.0
C331 C 0.36786 0.95549 0.4753 0.0
O332 O 0.40804 0.95247 0.48837 0.0
O333 O 0.32386 0.95786 0.48637 0.0
O334 O 0.4821 0.96493 0.52911 0.0
O335 O 0.40139 0.9722 0.5362 0.0
O336 O 0.58035 0.59236 0.28599 0.0
Cd337 Cd 0.56114 0.5752 0.27545 0.0
Cd338 Cd 0.66456 0.5735 0.27738 0.0
O339 O 0.66151 0.58862 0.29989 0.0
O340 O 0.48561 0.57245 0.28662 0.0
O341 O 0.55512 0.56395 0.30498 0.0
C342 C 0.50447 0.56595 0.30478 0.0
C343 C 0.70055 0.55475 0.28365 0.0
C344 C 0.62221 0.59572 0.29757 0.0
C345 C 0.61785 0.57313 0.22626 0.0
O346 O 0.6576 0.57642 0.23934 0.0
O347 O 0.57407 0.57055 0.23731 0.0
O348 O 0.73112 0.56388 0.28026 0.0
O349 O 0.65017 0.55661 0.28682 0.0
O350 O 0.69831 0.68646 0.28606 0.0
Cd351 Cd 0.71802 0.70356 0.27526 0.0
Cd352 Cd 0.61477 0.70538 0.27716 0.0
O353 O 0.61698 0.69027 0.2997 0.0
O354 O 0.79419 0.70595 0.28552 0.0
O355 O 0.72658 0.71487 0.30462 0.0
C356 C 0.77699 0.7126 0.3038 0.0
C357 C 0.5794 0.72418 0.28349 0.0
C358 C 0.65621 0.68315 0.29755 0.0
C359 C 0.66169 0.70557 0.226 0.0
O360 O 0.62167 0.70242 0.23909 0.0
O361 O 0.70547 0.70809 0.23706 0.0
O362 O 0.54858 0.7151 0.28011 0.0
O363 O 0.62974 0.72225 0.28661 0.0
O364 O 0.583 0.6863 0.97624 0.0
Cd365 Cd 0.5635 0.70342 0.98687 0.0
Cd366 Cd 0.6668 0.70521 0.98497 0.0
O367 O 0.66442 0.69004 0.96261 0.0
O368 O 0.48746 0.70585 0.97644 0.0
O369 O 0.55543 0.71469 0.95741 0.0
C370 C 0.50498 0.71245 0.95814 0.0
C371 C 0.70267 0.72395 0.97836 0.0
C372 C 0.6251 0.68294 0.9648 0.0
C373 C 0.6197 0.70554 0.03614 0.0
O374 O 0.65976 0.70237 0.02308 0.0
O375 O 0.57591 0.70801 0.02505 0.0
O376 O 0.73325 0.71485 0.98192 0.0
O377 O 0.65229 0.72206 0.97524 0.0
O378 O 0.70038 0.59215 0.97671 0.0
Cd379 Cd 0.71953 0.57501 0.98729 0.0
Cd380 Cd 0.61601 0.57331 0.98546 0.0
O381 O 0.61913 0.58842 0.96291 0.0
O382 O 0.79491 0.57219 0.97594 0.0
O383 O 0.72506 0.56373 0.95779 0.0
C384 C 0.77574 0.5657 0.95786 0.0
C385 C 0.57989 0.55457 0.97926 0.0
C386 C 0.65849 0.59551 0.96516 0.0
C387 C 0.66303 0.57298 0.03655 0.0
O388 O 0.62323 0.57626 0.02349 0.0
O389 O 0.70677 0.57039 0.02547 0.0
O390 O 0.54937 0.5637 0.98268 0.0
O391 O 0.63026 0.55642 0.97604 0.0
O392 O 0.45113 0.43596 0.72678 0.0
Cd393 Cd 0.47114 0.45308 0.73731 0.0
Cd394 Cd 0.36782 0.45504 0.73565 0.0
O395 O 0.37008 0.43993 0.71306 0.0
O396 O 0.54635 0.45582 0.72565 0.0
O397 O 0.47637 0.46438 0.70784 0.0
C398 C 0.52701 0.46236 0.7077 0.0
C399 C 0.33133 0.47375 0.72944 0.0
C400 C 0.409 0.43273 0.71526 0.0
C401 C 0.41539 0.45524 0.78667 0.0
O402 O 0.37527 0.4521 0.77368 0.0
O403 O 0.45918 0.45771 0.77552 0.0
O404 O 0.30104 0.4646 0.73303 0.0
O405 O 0.38169 0.47194 0.72609 0.0
O406 O 0.33432 0.34207 0.72516 0.0
Cd407 Cd 0.31354 0.32501 0.73584 0.0
Cd408 Cd 0.41669 0.3229 0.73438 0.0
O409 O 0.41574 0.33805 0.71193 0.0
O410 O 0.23745 0.32282 0.72533 0.0
O411 O 0.30488 0.31368 0.70652 0.0
C412 C 0.25457 0.31607 0.70719 0.0
C413 C 0.45228 0.30412 0.72803 0.0
C414 C 0.37688 0.34528 0.71393 0.0
C415 C 0.36856 0.32282 0.78534 0.0
O416 O 0.40912 0.32581 0.77244 0.0
O417 O 0.32484 0.32048 0.77408 0.0
O418 O 0.48294 0.3132 0.73171 0.0
O419 O 0.402 0.30605 0.72465 0.0
O420 O 0.45129 0.34226 0.03512 0.0
Cd421 Cd 0.4704 0.32512 0.02443 0.0
Cd422 Cd 0.36706 0.32351 0.02573 0.0
O423 O 0.36966 0.33855 0.04848 0.0
O424 O 0.54597 0.32245 0.03538 0.0
O425 O 0.47684 0.31379 0.05383 0.0
C426 C 0.52744 0.31587 0.05349 0.0
C427 C 0.33025 0.30481 0.03171 0.0
C428 C 0.40915 0.34562 0.04651 0.0
C429 C 0.41528 0.32324 0.97488 0.0
O430 O 0.37514 0.32654 0.98773 0.0
O431 O 0.45857 0.32058 0.98621 0.0
O432 O 0.30014 0.314 0.02829 0.0
O433 O 0.38067 0.30657 0.03503 0.0
O434 O 0.33396 0.4364 0.03647 0.0
Cd435 Cd 0.3147 0.45351 0.02565 0.0
Cd436 Cd 0.41795 0.45526 0.02774 0.0
O437 O 0.41521 0.44013 0.05023 0.0
O438 O 0.23842 0.45597 0.03577 0.0
O439 O 0.30598 0.46482 0.055 0.0
C440 C 0.25554 0.46261 0.05407 0.0
C441 C 0.45296 0.47407 0.03421 0.0
C442 C 0.37588 0.43304 0.04799 0.0
C443 C 0.37183 0.4555 0.9765 0.0
O444 O 0.41163 0.45231 0.98966 0.0
O445 O 0.32793 0.45804 0.98748 0.0
O446 O 0.48397 0.46502 0.03091 0.0
O447 O 0.4026 0.4721 0.03718 0.0
H448 H 0.06807 0.07422 0.06223 0.0
H449 H 0.20997 0.07329 0.1976 0.0
H450 H 0.23787 0.07003 0.07157 0.0
H451 H 0.03954 0.07067 0.18824 0.0
H452 H 0.22081 0.07243 0.15165 0.0
H453 H 0.05702 0.07328 0.10817 0.0
C454 C 0.10318 0.0731 0.07394 0.0
C455 C 0.15415 0.07229 0.06297 0.0
C456 C 0.18104 0.072 0.15959 0.0
C457 C 0.14149 0.0712 0.11584 0.0
C458 C 0.17468 0.07253 0.18588 0.0
C459 C 0.12361 0.07215 0.19685 0.0
C460 C 0.13603 0.07116 0.14396 0.0
C461 C 0.07959 0.07103 0.18063 0.0
C462 C 0.09669 0.07252 0.10023 0.0
C463 C 0.19791 0.07073 0.07918 0.0
N464 N 0.0868 0.07067 0.15497 0.0
N465 N 0.1906 0.07032 0.10483 0.0
H466 H 0.04135 0.20922 0.07089 0.0
H467 H 0.24488 0.20826 0.18864 0.0
H468 H 0.21125 0.20458 0.06278 0.0
H469 H 0.0741 0.20554 0.19658 0.0
H470 H 0.23373 0.20918 0.14229 0.0
H471 H 0.05292 0.21015 0.11718 0.0
C472 C 0.081 0.20843 0.0788 0.0
C473 C 0.12525 0.20672 0.06293 0.0
C474 C 0.19876 0.2084 0.15425 0.0
C475 C 0.13889 0.20783 0.11574 0.0
C476 C 0.20514 0.20789 0.18068 0.0
C477 C 0.16047 0.20672 0.19652 0.0
C478 C 0.14733 0.20782 0.14367 0.0
C479 C 0.10981 0.20632 0.18515 0.0
C480 C 0.08762 0.20894 0.1052 0.0
C481 C 0.17583 0.20579 0.07425 0.0
N482 N 0.10466 0.20687 0.15949 0.0
N483 N 0.18123 0.20635 0.09991 0.0
H484 H 0.96147 0.95493 0.94775 0.0
H485 H 0.8179 0.95341 0.81272 0.0
H486 H 0.79089 0.9573 0.93879 0.0
H487 H 0.98777 0.95772 0.82154 0.0
H488 H 0.80744 0.95439 0.85869 0.0
H489 H 0.97175 0.95554 0.90174 0.0
C490 C 0.92603 0.95558 0.93611 0.0
C491 C 0.87508 0.95598 0.94722 0.0
C492 C 0.847 0.95517 0.85063 0.0
C493 C 0.88685 0.95668 0.89425 0.0
C494 C 0.85315 0.95456 0.82432 0.0
C495 C 0.90397 0.95541 0.81319 0.0
C496 C 0.89197 0.95654 0.86611 0.0
C497 C 0.94792 0.957 0.82927 0.0
C498 C 0.93206 0.95597 0.90978 0.0
C499 C 0.83085 0.95694 0.93108 0.0
N500 N 0.94093 0.95744 0.85495 0.0
N501 N 0.83775 0.95718 0.90539 0.0
H502 H 0.9949 0.81979 0.93841 0.0
H503 H 0.78961 0.81957 0.82136 0.0
H504 H 0.82472 0.82372 0.94694 0.0
H505 H 0.95994 0.82309 0.81269 0.0
H506 H 0.80164 0.8188 0.86765 0.0
H507 H 0.98285 0.81872 0.89215 0.0
C508 C 0.95509 0.82039 0.9306 0.0
C509 C 0.91088 0.82195 0.94658 0.0
C510 C 0.83633 0.81973 0.85555 0.0
C511 C 0.89671 0.82067 0.89381 0.0
C512 C 0.82944 0.82014 0.82915 0.0
C513 C 0.8737 0.8215 0.81312 0.0
C514 C 0.88786 0.82057 0.86592 0.0
C515 C 0.92452 0.82216 0.82428 0.0
C516 C 0.9482 0.8198 0.90422 0.0
C517 C 0.86011 0.82264 0.93538 0.0
N518 N 0.93017 0.82169 0.84993 0.0
N519 N 0.85445 0.822 0.90976 0.0
H520 H 0.20994 0.57282 0.69857 0.0
H521 H 0.0678 0.57391 0.56324 0.0
H522 H 0.03952 0.57015 0.68926 0.0
H523 H 0.23773 0.56995 0.57248 0.0
H524 H 0.05684 0.57285 0.60917 0.0
H525 H 0.22072 0.57206 0.65261 0.0
C526 C 0.17464 0.57207 0.68686 0.0
C527 C 0.12358 0.57164 0.69786 0.0
C528 C 0.09652 0.57217 0.60121 0.0
C529 C 0.13594 0.57077 0.64494 0.0
C530 C 0.10296 0.57282 0.57493 0.0
C531 C 0.15395 0.57211 0.56392 0.0
C532 C 0.14137 0.57089 0.6168 0.0
C533 C 0.19777 0.57058 0.58011 0.0
C534 C 0.18096 0.57159 0.66056 0.0
C535 C 0.07956 0.57054 0.68164 0.0
N536 N 0.1905 0.5701 0.60577 0.0
N537 N 0.08673 0.57023 0.65596 0.0
H538 H 0.2455 0.708 0.68892 0.0
H539 H 0.03916 0.70804 0.57222 0.0
H540 H 0.07535 0.70414 0.69775 0.0
H541 H 0.20951 0.70477 0.56321 0.0
H542 H 0.05159 0.70879 0.61849 0.0
H543 H 0.23311 0.70899 0.64266 0.0
C544 C 0.20564 0.70739 0.68118 0.0
C545 C 0.16154 0.70588 0.69725 0.0
C546 C 0.08619 0.70792 0.60632 0.0
C547 C 0.14696 0.70707 0.64448 0.0
C548 C 0.07907 0.70752 0.57993 0.0
C549 C 0.12323 0.70624 0.5638 0.0
C550 C 0.13784 0.70715 0.61659 0.0
C551 C 0.17416 0.70564 0.57487 0.0
C552 C 0.19855 0.70794 0.65479 0.0
C553 C 0.11068 0.70518 0.68613 0.0
N554 N 0.18003 0.7061 0.60051 0.0
N555 N 0.10483 0.70578 0.66051 0.0
H556 H 0.96026 0.45506 0.44822 0.0
H557 H 0.81946 0.4555 0.31258 0.0
H558 H 0.79031 0.45873 0.43854 0.0
H559 H 0.98971 0.45846 0.32222 0.0
H560 H 0.80821 0.4564 0.35849 0.0
H561 H 0.97167 0.45603 0.40231 0.0
C562 C 0.92519 0.45607 0.43644 0.0
C563 C 0.87407 0.45672 0.44731 0.0
C564 C 0.84804 0.4569 0.35063 0.0
C565 C 0.88716 0.45783 0.39445 0.0
C566 C 0.85464 0.45634 0.32435 0.0
C567 C 0.90579 0.45681 0.31346 0.0
C568 C 0.89287 0.45785 0.36633 0.0
C569 C 0.94962 0.45803 0.32976 0.0
C570 C 0.93189 0.45667 0.41017 0.0
C571 C 0.83038 0.45816 0.43101 0.0
N572 N 0.94218 0.45842 0.35541 0.0
N573 N 0.8379 0.45858 0.40537 0.0
H574 H 0.78998 0.31986 0.32148 0.0
H575 H 0.99456 0.32071 0.43881 0.0
H576 H 0.95978 0.32458 0.31304 0.0
H577 H 0.82386 0.32341 0.44711 0.0
H578 H 0.98301 0.31987 0.39248 0.0
H579 H 0.80198 0.31889 0.36773 0.0
C580 C 0.8297 0.32066 0.32931 0.0
C581 C 0.8738 0.3224 0.31335 0.0
C582 C 0.94815 0.32063 0.40452 0.0
C583 C 0.88793 0.32124 0.36613 0.0
C584 C 0.95476 0.32108 0.43094 0.0
C585 C 0.91023 0.32223 0.44687 0.0
C586 C 0.89663 0.32121 0.39404 0.0
C587 C 0.85948 0.32264 0.4356 0.0
C588 C 0.83656 0.32013 0.35569 0.0
C589 C 0.92447 0.32334 0.32458 0.0
N590 N 0.8541 0.32214 0.40995 0.0
N591 N 0.93012 0.32276 0.35021 0.0
H592 H 0.54025 0.06971 0.68988 0.0
H593 H 0.74436 0.06968 0.57212 0.0
H594 H 0.71068 0.0732 0.69795 0.0
H595 H 0.57415 0.07372 0.56419 0.0
H596 H 0.73277 0.06866 0.61842 0.0
H597 H 0.55185 0.06886 0.64357 0.0
C598 C 0.58002 0.07026 0.68196 0.0
C599 C 0.62443 0.07163 0.69783 0.0
C600 C 0.69802 0.06975 0.60648 0.0
C601 C 0.63809 0.07061 0.64499 0.0
C602 C 0.70464 0.07032 0.58007 0.0
C603 C 0.66029 0.0719 0.56425 0.0
C604 C 0.64665 0.07066 0.61707 0.0
C605 C 0.60964 0.07263 0.57562 0.0
C606 C 0.58665 0.06979 0.65554 0.0
C607 C 0.67515 0.07226 0.68649 0.0
N608 N 0.60424 0.07201 0.60127 0.0
N609 N 0.68055 0.07175 0.66083 0.0
H610 H 0.7435 0.20815 0.6888 0.0
H611 H 0.53847 0.20828 0.57165 0.0
H612 H 0.57328 0.20425 0.69724 0.0
H613 H 0.70882 0.20479 0.56304 0.0
H614 H 0.55043 0.20906 0.61794 0.0
H615 H 0.73159 0.20916 0.64253 0.0
C616 C 0.70372 0.20754 0.68097 0.0
C617 C 0.65945 0.20601 0.69693 0.0
C618 C 0.58514 0.20814 0.60585 0.0
C619 C 0.64544 0.20723 0.64415 0.0
C620 C 0.57829 0.20772 0.57945 0.0
C621 C 0.62258 0.20637 0.56344 0.0
C622 C 0.63665 0.20731 0.61624 0.0
C623 C 0.67338 0.20572 0.57462 0.0
C624 C 0.69691 0.2081 0.65458 0.0
C625 C 0.60871 0.20531 0.68571 0.0
N626 N 0.67898 0.20619 0.60027 0.0
N627 N 0.60313 0.20592 0.66007 0.0
H628 H 0.46044 0.95512 0.44823 0.0
H629 H 0.31958 0.95488 0.31254 0.0
H630 H 0.29018 0.958 0.43853 0.0
H631 H 0.48969 0.9582 0.32221 0.0
H632 H 0.30825 0.95576 0.35845 0.0
H633 H 0.47174 0.95599 0.40232 0.0
C634 C 0.42527 0.95593 0.43645 0.0
C635 C 0.3741 0.9564 0.44733 0.0
C636 C 0.34806 0.95634 0.35059 0.0
C637 C 0.38709 0.9574 0.39444 0.0
C638 C 0.35472 0.95579 0.32432 0.0
C639 C 0.40585 0.95638 0.31343 0.0
C640 C 0.39283 0.95739 0.36631 0.0
C641 C 0.44962 0.95768 0.32974 0.0
C642 C 0.4319 0.95648 0.41017 0.0
C643 C 0.33029 0.95758 0.43101 0.0
N644 N 0.44212 0.95806 0.3554 0.0
N645 N 0.33777 0.95796 0.40535 0.0
H646 H 0.49332 0.81983 0.4392 0.0
H647 H 0.28833 0.81971 0.32204 0.0
H648 H 0.32308 0.82363 0.4477 0.0
H649 H 0.45848 0.82372 0.31355 0.0
H650 H 0.3003 0.81875 0.36832 0.0
H651 H 0.48136 0.81886 0.39292 0.0
C652 C 0.45352 0.82042 0.43138 0.0
C653 C 0.40926 0.82192 0.44735 0.0
C654 C 0.33496 0.81982 0.35626 0.0
C655 C 0.3952 0.82075 0.39457 0.0
C656 C 0.32811 0.82035 0.32987 0.0
C657 C 0.37233 0.82191 0.3139 0.0
C658 C 0.38642 0.82075 0.36667 0.0
C659 C 0.42308 0.82264 0.3251 0.0
C660 C 0.44668 0.81989 0.40499 0.0
C661 C 0.3585 0.82259 0.43615 0.0
N662 N 0.4287 0.82206 0.35074 0.0
N663 N 0.35289 0.82201 0.41051 0.0
H664 H 0.57037 0.5735 0.06352 0.0
H665 H 0.71055 0.57376 0.1993 0.0
H666 H 0.74045 0.57025 0.07334 0.0
H667 H 0.54057 0.57022 0.18947 0.0
H668 H 0.72212 0.57278 0.1534 0.0
H669 H 0.55887 0.5726 0.10943 0.0
C670 C 0.60545 0.5726 0.07533 0.0
C671 C 0.65663 0.57204 0.0645 0.0
C672 C 0.68229 0.57217 0.16122 0.0
C673 C 0.64344 0.57102 0.11736 0.0
C674 C 0.6755 0.57278 0.18749 0.0
C675 C 0.62433 0.57216 0.19832 0.0
C676 C 0.6376 0.57104 0.14547 0.0
C677 C 0.58067 0.57076 0.18198 0.0
C678 C 0.59871 0.57204 0.1016 0.0
C679 C 0.70035 0.57074 0.08084 0.0
N680 N 0.58829 0.57034 0.15634 0.0
N681 N 0.69277 0.57036 0.10649 0.0
H682 H 0.56943 0.70484 0.1988 0.0
H683 H 0.71197 0.70504 0.06334 0.0
H684 H 0.73957 0.70838 0.18938 0.0
H685 H 0.54169 0.70818 0.07275 0.0
H686 H 0.72269 0.70592 0.10928 0.0
H687 H 0.55866 0.70571 0.15285 0.0
C688 C 0.60468 0.7058 0.18707 0.0
C689 C 0.65565 0.70645 0.19803 0.0
C690 C 0.68298 0.70646 0.10136 0.0
C691 C 0.64331 0.70745 0.14513 0.0
C692 C 0.67669 0.70592 0.07506 0.0
C693 C 0.62569 0.70645 0.0641 0.0
C694 C 0.63797 0.70745 0.117 0.0
C695 C 0.58168 0.70771 0.08034 0.0
C696 C 0.59835 0.70634 0.16078 0.0
C697 C 0.6996 0.70781 0.18179 0.0
N698 N 0.58882 0.70808 0.10601 0.0
N699 N 0.69243 0.70818 0.15612 0.0
H700 H 0.32302 0.45485 0.81388 0.0
H701 H 0.46441 0.45472 0.94942 0.0
H702 H 0.49331 0.45786 0.82328 0.0
H703 H 0.29443 0.45834 0.93978 0.0
H704 H 0.47568 0.45554 0.90347 0.0
H705 H 0.31203 0.45579 0.8598 0.0
C706 C 0.35826 0.45571 0.8256 0.0
C707 C 0.40933 0.45619 0.81464 0.0
C708 C 0.43592 0.4562 0.91135 0.0
C709 C 0.39673 0.45727 0.86753 0.0
C710 C 0.42931 0.45569 0.93764 0.0
C711 C 0.37822 0.45637 0.94854 0.0
C712 C 0.39114 0.45731 0.89566 0.0
C713 C 0.33448 0.45774 0.93224 0.0
C714 C 0.35181 0.4563 0.85188 0.0
C715 C 0.45326 0.45743 0.83088 0.0
N716 N 0.34192 0.45809 0.90659 0.0
N717 N 0.44597 0.45785 0.85654 0.0
H718 H 0.28951 0.32041 0.82145 0.0
H719 H 0.49379 0.31979 0.93888 0.0
H720 H 0.46017 0.3232 0.81306 0.0
H721 H 0.32394 0.3245 0.94708 0.0
H722 H 0.48205 0.3188 0.8926 0.0
H723 H 0.30111 0.31965 0.86776 0.0
C724 C 0.32932 0.32082 0.82931 0.0
C725 C 0.37382 0.32197 0.81335 0.0
C726 C 0.44741 0.32004 0.90459 0.0
C727 C 0.38747 0.32105 0.86618 0.0
C728 C 0.45412 0.32059 0.93099 0.0
C729 C 0.40992 0.32233 0.94689 0.0
C730 C 0.3961 0.32113 0.89409 0.0
C731 C 0.35932 0.32326 0.93559 0.0
C732 C 0.33596 0.32041 0.85572 0.0
C733 C 0.42459 0.32243 0.8246 0.0
N734 N 0.35383 0.32266 0.90995 0.0
N735 N 0.42999 0.32198 0.85026 0.0
H736 H 0.38359 0.99499 0.22564 0.0
H737 H 0.14503 0.0336 0.28459 0.0
H738 H 0.22713 0.98084 0.24132 0.0
H739 H 0.30182 0.04766 0.26933 0.0
H740 H 0.17492 1.01411 0.26976 0.0
H741 H 0.35364 0.01447 0.24051 0.0
C742 C 0.34264 0.99601 0.23177 0.0
C743 C 0.30786 0.98623 0.2322 0.0
C744 C 0.20294 0.02143 0.26985 0.0
C745 C 0.2736 1.0085 0.24985 0.0
C746 C 0.18604 0.03255 0.27857 0.0
C747 C 0.22094 0.04232 0.27824 0.0
C748 C 0.25512 0.02004 0.26062 0.0
C749 C 0.27351 0.04041 0.27001 0.0
C750 C 0.3257 1.00713 0.24051 0.0
C751 C 0.25535 0.98811 0.24055 0.0
N752 N 0.28886 0.02953 0.26137 0.0
N753 N 0.23996 0.99899 0.2492 0.0
H754 H 0.0551 0.29846 0.23926 0.0
H755 H 0.9759 0.23085 0.2697 0.0
H756 H 0.89771 0.28405 0.22744 0.0
H757 H 0.13291 0.24535 0.28217 0.0
H758 H 0.94607 0.25036 0.25501 0.0
H759 H 0.08494 0.27894 0.25387 0.0
C760 C 0.027 0.29115 0.23928 0.0
C761 C 0.97375 0.29293 0.23208 0.0
C762 C 0.98694 0.24931 0.26116 0.0
C763 C 1.00746 0.27057 0.2494 0.0
C764 C 1.00391 0.23818 0.2698 0.0
C765 C 0.05705 0.23643 0.27721 0.0
C766 C 0.02337 0.25878 0.25981 0.0
C767 C 0.09155 0.24627 0.27672 0.0
C768 C 0.04398 0.28002 0.24789 0.0
C769 C 0.93914 0.28311 0.23273 0.0
N770 N 0.07423 0.25698 0.26799 0.0
N771 N 0.95649 0.27239 0.24141 0.0
H772 H 0.30718 0.23072 0.98869 0.0
H773 H 0.22783 0.29817 0.02054 0.0
H774 H 0.14952 0.24508 0.97756 0.0
H775 H 0.38535 0.28376 0.03185 0.0
H776 H 0.19793 0.27869 0.00566 0.0
H777 H 0.33709 0.25021 1.00346 0.0
C778 C 0.27903 0.23802 0.9889 0.0
C779 C 0.22569 0.23623 0.98184 0.0
C780 C 0.23893 0.27976 0.01159 0.0
C781 C 0.25948 0.25856 0.99934 0.0
C782 C 0.25594 0.29087 0.02034 0.0
C783 C 0.30924 0.29264 0.02749 0.0
C784 C 0.27546 0.27033 0.00987 0.0
C785 C 0.34387 0.28283 0.02662 0.0
C786 C 0.29605 0.24914 0.99759 0.0
C787 C 0.19103 0.24603 0.98272 0.0
N788 N 0.32649 0.27214 0.0178 0.0
N789 N 0.20842 0.25673 0.99149 0.0
H790 H 0.97461 0.04818 0.98868 0.0
H791 H 0.0551 0.98093 0.02174 0.0
H792 H 0.13248 0.03386 0.97776 0.0
H793 H 0.89663 0.99504 0.03189 0.0
H794 H 0.08464 1.00041 0.00673 0.0
H795 H 0.94479 0.0287 1.00368 0.0
C796 C 1.00282 0.04089 0.98898 0.0
C797 C 0.05619 0.04269 0.98191 0.0
C798 C 0.04349 0.99928 0.01243 0.0
C799 C 0.02251 0.02039 0.99969 0.0
C800 C 0.02667 0.98818 0.02126 0.0
C801 C 0.97324 0.98631 0.02812 0.0
C802 C 1.00664 1.00864 0.01034 0.0
C803 C 0.93822 0.99604 0.02689 0.0
C804 C 0.98586 0.02979 0.9978 0.0
C805 C 0.09095 0.03291 0.98293 0.0
N806 N 0.95544 1.00675 0.018 0.0
N807 N 0.07361 0.02222 0.99182 0.0
H808 H 0.80594 0.04727 0.77185 0.0
H809 H 0.72463 0.98005 0.73901 0.0
H810 H 0.64783 0.03307 0.78284 0.0
H811 H 0.88302 0.99416 0.72847 0.0
H812 H 0.69527 0.99953 0.75405 0.0
H813 H 0.8354 0.02778 0.75687 0.0
C814 C 0.77759 0.04001 0.77156 0.0
C815 C 0.72427 0.04184 0.77864 0.0
C816 C 0.73635 0.9984 0.74825 0.0
C817 C 0.75754 0.01951 0.7609 0.0
C818 C 0.75307 0.98729 0.7394 0.0
C819 C 0.80644 0.98543 0.73243 0.0
C820 C 0.77325 1.00776 0.75024 0.0
C821 C 0.84148 0.99517 0.73356 0.0
C822 C 0.79436 0.02889 0.76276 0.0
C823 C 0.68934 0.03209 0.77766 0.0
N824 N 0.82436 1.00587 0.74247 0.0
N825 N 0.70649 0.02138 0.76878 0.0
H826 H 0.13631 0.74451 0.78488 0.0
H827 H 0.8976 0.7828 0.72549 0.0
H828 H 0.98049 0.73015 0.76883 0.0
H829 H 0.05382 0.79707 0.74105 0.0
H830 H 0.92779 0.76335 0.74035 0.0
H831 H 0.10606 0.76395 0.76997 0.0
C832 C 0.09543 0.74548 0.77866 0.0
C833 C 0.06092 0.73565 0.77813 0.0
C834 C 0.95562 0.77071 0.74032 0.0
C835 C 0.02633 0.75787 0.76044 0.0
C836 C 0.93855 0.78181 0.73159 0.0
C837 C 0.97319 0.79162 0.732 0.0
C838 C 1.00772 0.76938 0.74964 0.0
C839 C 0.02571 0.78978 0.74031 0.0
C840 C 0.07833 0.75657 0.7699 0.0
C841 C 1.00849 0.73746 0.76966 0.0
N842 N 0.04122 0.77892 0.74896 0.0
N843 N 0.99294 0.74832 0.761 0.0
H844 H 0.64723 0.74493 0.97626 0.0
H845 H 0.88717 0.78347 0.03394 0.0
H846 H 0.80416 0.73082 0.99072 0.0
H847 H 0.73065 0.79768 0.01895 0.0
H848 H 0.85678 0.764 0.01923 0.0
H849 H 0.67759 0.76442 0.99087 0.0
C850 C 0.68835 0.74596 0.98206 0.0
C851 C 0.72316 0.73619 0.98224 0.0
C852 C 0.82893 0.77135 0.01935 0.0
C853 C 0.75789 0.75847 0.9996 0.0
C854 C 0.84612 0.78246 0.028 0.0
C855 C 0.81144 0.79226 0.02771 0.0
C856 C 0.77667 0.77 0.01025 0.0
C857 C 0.7588 0.7904 0.01959 0.0
C858 C 0.70553 0.75709 0.99065 0.0
C859 C 0.7759 0.73808 0.99017 0.0
N860 N 0.74316 0.77953 0.01103 0.0
N861 N 0.79151 0.74896 0.99869 0.0
H862 H 0.14696 0.53313 0.78597 0.0
H863 H 0.38623 0.49479 0.72693 0.0
H864 H 0.30313 0.54743 0.77025 0.0
H865 H 0.23007 0.48049 0.74265 0.0
H866 H 0.35589 0.51424 0.74176 0.0
H867 H 0.17735 0.51367 0.77123 0.0
C868 C 0.18794 0.53214 0.77986 0.0
C869 C 0.22251 0.54197 0.77937 0.0
C870 C 0.3281 0.50688 0.74178 0.0
C871 C 0.25726 0.51971 0.76186 0.0
C872 C 0.34526 0.49578 0.73306 0.0
C873 C 0.31067 0.48596 0.73352 0.0
C874 C 0.27598 0.5082 0.75112 0.0
C875 C 0.25813 0.48779 0.74187 0.0
C876 C 0.20513 0.52104 0.7712 0.0
C877 C 0.27507 0.54013 0.77105 0.0
N878 N 0.24253 0.49865 0.7505 0.0
N879 N 0.29069 0.52926 0.76247 0.0
H880 H 0.22661 0.79823 0.52106 0.0
H881 H 0.30525 0.73066 0.49006 0.0
H882 H 0.38353 0.78366 0.53328 0.0
H883 H 0.14801 0.74513 0.47824 0.0
H884 H 0.33518 0.75014 0.50489 0.0
H885 H 0.19652 0.77875 0.50628 0.0
C886 C 0.25454 0.79089 0.52109 0.0
C887 C 0.30774 0.79262 0.52845 0.0
C888 C 0.29423 0.74909 0.49886 0.0
C889 C 0.27377 0.7703 0.51094 0.0
C890 C 0.27721 0.73798 0.49013 0.0
C891 C 0.22397 0.73623 0.48287 0.0
C892 C 0.25778 0.75854 0.50043 0.0
C893 C 0.18943 0.74605 0.48358 0.0
C894 C 0.23743 0.77978 0.5124 0.0
C895 C 0.34214 0.78277 0.52787 0.0
N896 N 0.20682 0.75675 0.49237 0.0
N897 N 0.32467 0.77207 0.51909 0.0
H898 H 0.05383 0.48054 0.52152 0.0
H899 H 0.97409 0.54797 0.48987 0.0
H900 H 0.89636 0.49494 0.53326 0.0
H901 H 0.1318 0.53365 0.47846 0.0
H902 H 0.94437 0.52848 0.50477 0.0
H903 H 0.08367 0.50003 0.50668 0.0
C904 C 0.02573 0.48784 0.52144 0.0
C905 C 0.97245 0.48606 0.52867 0.0
C906 C 0.98538 0.52957 0.49881 0.0
C907 C 1.00614 0.50839 0.51109 0.0
C908 C 1.00229 0.54068 0.49004 0.0
C909 C 0.05559 0.54248 0.48288 0.0
C910 C 0.02201 0.52016 0.50052 0.0
C911 C 0.09032 0.5327 0.48372 0.0
C912 C 0.0427 0.49896 0.5127 0.0
C913 C 0.93782 0.49587 0.52794 0.0
N914 N 0.07304 0.52199 0.49255 0.0
N915 N 0.95516 0.50657 0.51912 0.0
H916 H 0.64515 0.53377 0.28582 0.0
H917 H 0.88345 0.49538 0.22602 0.0
H918 H 0.80174 0.54793 0.27048 0.0
H919 H 0.72701 0.48119 0.24159 0.0
H920 H 0.85357 0.51481 0.24119 0.0
H921 H 0.67503 0.51433 0.27067 0.0
C922 C 0.68611 0.53275 0.27971 0.0
C923 C 0.72095 0.54253 0.27945 0.0
C924 C 0.82562 0.50747 0.24109 0.0
C925 C 0.75513 0.52031 0.26147 0.0
C926 C 0.84251 0.49638 0.23218 0.0
C927 C 0.80772 0.4866 0.2325 0.0
C928 C 0.77355 0.50881 0.2505 0.0
C929 C 0.75523 0.48846 0.24091 0.0
C930 C 0.70301 0.52166 0.27081 0.0
C931 C 0.77348 0.54066 0.27112 0.0
N932 N 0.73989 0.49931 0.24973 0.0
N933 N 0.78882 0.52981 0.2623 0.0
H934 H 0.88358 0.28354 0.53447 0.0
H935 H 0.64487 0.24498 0.4757 0.0
H936 H 0.72773 0.29783 0.51827 0.0
H937 H 0.80173 0.23094 0.49062 0.0
H938 H 0.67488 0.26449 0.4904 0.0
H939 H 0.85343 0.26408 0.51966 0.0
C940 C 0.84272 0.28255 0.52824 0.0
C941 C 0.80817 0.29237 0.52764 0.0
C942 C 0.70288 0.25717 0.49026 0.0
C943 C 0.77368 0.27011 0.51007 0.0
C944 C 0.68591 0.24604 0.48162 0.0
C945 C 0.7208 0.23628 0.4819 0.0
C946 C 0.75511 0.25857 0.49936 0.0
C947 C 0.77342 0.2382 0.48999 0.0
C948 C 0.82566 0.27144 0.51953 0.0
C949 C 0.75576 0.29053 0.51916 0.0
N950 N 0.78882 0.24908 0.49856 0.0
N951 N 0.74026 0.27966 0.51056 0.0
H952 H 0.39644 0.28317 0.72613 0.0
H953 H 0.63579 0.2446 0.78417 0.0
H954 H 0.55359 0.2972 0.74051 0.0
H955 H 0.4792 0.23041 0.76913 0.0
H956 H 0.60562 0.26406 0.76934 0.0
H957 H 0.42647 0.26369 0.74091 0.0
C958 C 0.43754 0.28212 0.73195 0.0
C959 C 0.47251 0.29187 0.73205 0.0
C960 C 0.57771 0.25672 0.76948 0.0
C961 C 0.50687 0.2696 0.7496 0.0
C962 C 0.59477 0.24561 0.77819 0.0
C963 C 0.56001 0.23582 0.77792 0.0
C964 C 0.52549 0.25807 0.76033 0.0
C965 C 0.50741 0.23769 0.76976 0.0
C966 C 0.45453 0.271 0.74063 0.0
C967 C 0.52521 0.28996 0.74002 0.0
N968 N 0.49189 0.24856 0.76114 0.0
N969 N 0.54063 0.27908 0.74863 0.0
H970 H 0.63566 0.03359 0.47658 0.0
H971 H 0.39659 0.99506 0.53539 0.0
H972 H 0.4794 0.04781 0.49236 0.0
H973 H 0.55298 0.98088 0.51977 0.0
H974 H 0.4268 0.01455 0.52068 0.0
H975 H 0.60543 1.01411 0.49131 0.0
C976 C 0.5947 0.03258 0.4827 0.0
C977 C 0.56005 0.04238 0.48321 0.0
C978 C 0.45467 1.0072 0.52067 0.0
C979 C 0.52547 0.02011 0.50069 0.0
C980 C 0.43758 0.99608 0.52931 0.0
C981 C 0.47227 0.98628 0.52884 0.0
C982 C 0.50683 1.00857 0.51138 0.0
C983 C 0.52483 0.98816 0.52055 0.0
C984 C 0.5776 0.02146 0.49136 0.0
C985 C 0.50752 0.04052 0.49155 0.0
N986 N 0.54036 0.99904 0.512 0.0
N987 N 0.49198 0.02964 0.50011 0.0
H988 H 0.63535 0.74512 0.28517 0.0
H989 H 0.39623 0.78361 0.22669 0.0
H990 H 0.47807 0.73111 0.27102 0.0
H991 H 0.55266 0.79784 0.24189 0.0
H992 H 0.42635 0.76418 0.24167 0.0
H993 H 0.60541 0.76458 0.27021 0.0
C994 C 0.59424 0.74617 0.27936 0.0
C995 C 0.55921 0.73643 0.27938 0.0
C996 C 0.45425 0.77152 0.24155 0.0
C997 C 0.52496 0.75867 0.26162 0.0
C998 C 0.43721 0.78261 0.23274 0.0
C999 C 0.47193 0.79241 0.233 0.0
C1000 C 0.5064 0.77018 0.25078 0.0
C1001 C 0.52449 0.79056 0.24126 0.0
C1002 C 0.5773 0.75728 0.27058 0.0
C1003 C 0.5065 0.73834 0.27143 0.0
N1004 N 0.53998 0.7797 0.24997 0.0
N1005 N 0.49113 0.74921 0.26271 0.0
H1006 H 0.39666 0.49495 0.0359 0.0
H1007 H 0.6353 0.5336 0.9771 0.0
H1008 H 0.55427 0.4811 0.0218 0.0
H1009 H 0.47866 0.54773 0.99241 0.0
H1010 H 0.60544 0.51417 0.99221 0.0
H1011 H 0.42632 0.51443 0.02088 0.0
C1012 C 0.43778 0.49604 0.0301 0.0
C1013 C 0.47299 0.48634 0.03013 0.0
C1014 C 0.57744 0.52149 0.99208 0.0
C1015 C 0.50692 0.5086 0.0123 0.0
C1016 C 0.59432 0.53258 0.98319 0.0
C1017 C 0.55947 0.54235 0.98346 0.0
C1018 C 0.5253 0.52012 1.00138 0.0
C1019 C 0.50693 0.54046 0.99178 0.0
C1020 C 0.45456 0.50716 0.02127 0.0
C1021 C 0.52571 0.4883 0.02219 0.0
N1022 N 0.49158 0.5296 1.00056 0.0
N1023 N 0.54092 0.49917 0.01343 0.0
H1024 H 0.06403 0.1709 0.308 0.0
H1025 H 0.21419 0.10803 0.30921 0.0
H1026 H 0.2345 0.16681 0.30193 0.0
H1027 H 0.04412 0.1121 0.30105 0.0
H1028 H 0.22185 0.12953 0.31587 0.0
H1029 H 0.05595 0.14942 0.31476 0.0
C1030 C 0.09982 0.16554 0.30853 0.0
C1031 C 0.14994 0.17066 0.30404 0.0
C1032 C 0.18279 0.12568 0.31294 0.0
C1033 C 0.14098 0.14606 0.31164 0.0
C1034 C 0.17837 0.1134 0.30926 0.0
C1035 C 0.12854 0.10827 0.30421 0.0
C1036 C 0.13703 0.13287 0.31168 0.0
C1037 C 0.08348 0.11568 0.30452 0.0
C1038 C 0.09517 0.15326 0.31227 0.0
C1039 C 0.19496 0.16324 0.30496 0.0
N1040 N 0.08885 0.1276 0.30793 0.0
N1041 N 0.18937 0.15132 0.30842 0.0
H1042 H 0.0446 0.16733 0.95685 0.0
H1043 H 0.23814 0.11155 0.95729 0.0
H1044 H 0.21568 0.17031 0.95205 0.0
H1045 H 0.06722 0.10859 0.95147 0.0
H1046 H 0.23098 0.13295 0.95055 0.0
H1047 H 0.05199 0.14594 0.95006 0.0
C1048 C 0.08376 0.1635 0.95402 0.0
C1049 C 0.12967 0.17062 0.95534 0.0
C1050 C 0.19504 0.12762 0.95038 0.0
C1051 C 0.13844 0.14603 0.94784 0.0
C1052 C 0.19908 0.11538 0.95424 0.0
C1053 C 0.15311 0.10826 0.95527 0.0
C1054 C 0.14461 0.13287 0.94782 0.0
C1055 C 0.10368 0.11372 0.95095 0.0
C1056 C 0.08792 0.15126 0.95013 0.0
C1057 C 0.17925 0.16517 0.95129 0.0
N1058 N 0.10067 0.12572 0.9478 0.0
N1059 N 0.18237 0.15317 0.94812 0.0
H1060 H 0.81359 0.91986 0.70047 0.0
H1061 H 0.96544 0.8572 0.70052 0.0
H1062 H 0.98392 0.91598 0.70777 0.0
H1063 H 0.79509 0.86108 0.70796 0.0
H1064 H 0.97269 0.87869 0.69356 0.0
H1065 H 0.80634 0.89836 0.69359 0.0
C1066 C 0.84954 0.91453 0.70017 0.0
C1067 C 0.89935 0.91971 0.70506 0.0
C1068 C 0.93366 0.8748 0.69639 0.0
C1069 C 0.89133 0.89512 0.69735 0.0
C1070 C 0.92948 0.86252 0.70024 0.0
C1071 C 0.87967 0.85735 0.70519 0.0
C1072 C 0.88769 0.88193 0.69738 0.0
C1073 C 0.83442 0.8647 0.70458 0.0
C1074 C 0.84536 0.90225 0.69637 0.0
C1075 C 0.94459 0.91236 0.70443 0.0
N1076 N 0.83956 0.87661 0.70101 0.0
N1077 N 0.93945 0.90044 0.70092 0.0
H1078 H 0.96834 0.92071 0.05905 0.0
H1079 H 0.81895 0.85774 0.0596 0.0
H1080 H 0.79795 0.91649 0.05302 0.0
H1081 H 0.98888 0.86196 0.05089 0.0
H1082 H 0.81112 0.8792 0.06669 0.0
H1083 H 0.97669 0.89922 0.06559 0.0
C1084 C 0.93262 0.91531 0.05957 0.0
C1085 C 0.88244 0.9204 0.05513 0.0
C1086 C 0.85019 0.87539 0.06355 0.0
C1087 C 0.89172 0.8958 0.06245 0.0
C1088 C 0.8547 0.86313 0.05961 0.0
C1089 C 0.90454 0.85805 0.05429 0.0
C1090 C 0.89586 0.88262 0.06226 0.0
C1091 C 0.94953 0.8655 0.05457 0.0
C1092 C 0.93743 0.90303 0.06317 0.0
C1093 C 0.83753 0.91294 0.05601 0.0
N1094 N 0.94406 0.8774 0.05823 0.0
N1095 N 0.84327 0.90103 0.05933 0.0
H1096 H 0.04308 0.61122 0.80349 0.0
H1097 H 0.23979 0.66648 0.80374 0.0
H1098 H 0.21388 0.60781 0.80901 0.0
H1099 H 0.06886 0.6699 0.80842 0.0
H1100 H 0.23121 0.64511 0.81061 0.0
H1101 H 0.05148 0.6326 0.81022 0.0
C1102 C 0.08238 0.61495 0.80646 0.0
C1103 C 0.12794 0.60771 0.80536 0.0
C1104 C 0.19557 0.65053 0.8105 0.0
C1105 C 0.13787 0.63229 0.8128 0.0
C1106 C 0.20041 0.66276 0.80656 0.0
C1107 C 0.15489 0.66999 0.80517 0.0
C1108 C 0.14476 0.64543 0.81277 0.0
C1109 C 0.10501 0.66467 0.80922 0.0
C1110 C 0.08712 0.62718 0.81033 0.0
C1111 C 0.17771 0.61304 0.8096 0.0
N1112 N 0.10123 0.65268 0.81245 0.0
N1113 N 0.1814 0.62503 0.81274 0.0
H1114 H 0.21621 0.67073 0.45172 0.0
H1115 H 0.06484 0.60799 0.45094 0.0
H1116 H 0.0457 0.66676 0.45803 0.0
H1117 H 0.23487 0.61195 0.45955 0.0
H1118 H 0.05768 0.62947 0.44393 0.0
H1119 H 0.22385 0.64923 0.44497 0.0
C1120 C 0.18032 0.66538 0.45123 0.0
C1121 C 0.13032 0.67054 0.45581 0.0
C1122 C 0.09663 0.6256 0.44703 0.0
C1123 C 0.13878 0.64595 0.44823 0.0
C1124 C 0.10076 0.61333 0.45092 0.0
C1125 C 0.15043 0.60817 0.4562 0.0
C1126 C 0.14251 0.63276 0.44832 0.0
C1127 C 0.19564 0.61555 0.4559 0.0
C1128 C 0.18472 0.6531 0.4475 0.0
C1129 C 0.08516 0.66316 0.45494 0.0
N1130 N 0.19054 0.62746 0.45229 0.0
N1131 N 0.0905 0.65124 0.45149 0.0
H1132 H 0.79209 0.36184 0.20787 0.0
H1133 H 0.98665 0.41748 0.20688 0.0
H1134 H 0.96297 0.35878 0.20184 0.0
H1135 H 0.81558 0.42059 0.20269 0.0
H1136 H 0.9788 0.3961 0.20012 0.0
H1137 H 0.79958 0.38324 0.20108 0.0
C1138 C 0.83121 0.36565 0.20477 0.0
C1139 C 0.87707 0.3585 0.20575 0.0
C1140 C 0.94297 0.40146 0.20031 0.0
C1141 C 0.88595 0.3831 0.19824 0.0
C1142 C 0.94739 0.41369 0.20419 0.0
C1143 C 0.90162 0.42084 0.20568 0.0
C1144 C 0.89233 0.39625 0.19821 0.0
C1145 C 0.85191 0.41543 0.2018 0.0
C1146 C 0.83543 0.37789 0.20088 0.0
C1147 C 0.92658 0.36393 0.20136 0.0
N1148 N 0.84854 0.40343 0.19863 0.0
N1149 N 0.92977 0.37593 0.19818 0.0
H1150 H 0.98631 0.36157 0.55407 0.0
H1151 H 0.79061 0.41698 0.55188 0.0
H1152 H 0.81517 0.35827 0.55707 0.0
H1153 H 0.9612 0.42026 0.55903 0.0
H1154 H 0.79834 0.39559 0.55865 0.0
H1155 H 0.97778 0.38295 0.5608 0.0
C1156 C 0.94689 0.36532 0.5565 0.0
C1157 C 0.90132 0.35812 0.55469 0.0
C1158 C 0.83406 0.40099 0.5591 0.0
C1159 C 0.89126 0.38269 0.56211 0.0
C1160 C 0.82971 0.41322 0.55522 0.0
C1161 C 0.87543 0.42042 0.55456 0.0
C1162 C 0.8846 0.39584 0.56206 0.0
C1163 C 0.92491 0.41506 0.55925 0.0
C1164 C 0.94207 0.37755 0.56036 0.0
C1165 C 0.85137 0.36347 0.55822 0.0
N1166 N 0.92826 0.40306 0.56242 0.0
N1167 N 0.84763 0.37546 0.56137 0.0
H1168 H 0.71737 0.10744 0.80973 0.0
H1169 H 0.56688 0.17026 0.80948 0.0
H1170 H 0.54706 0.11147 0.80272 0.0
H1171 H 0.73711 0.16621 0.80187 0.0
H1172 H 0.55919 0.14879 0.81644 0.0
H1173 H 0.72515 0.12894 0.8163 0.0
C1174 C 0.68154 0.1128 0.81002 0.0
C1175 C 0.63158 0.10765 0.80532 0.0
C1176 C 0.59829 0.15263 0.81357 0.0
C1177 C 0.6402 0.13226 0.81268 0.0
C1178 C 0.60272 0.16491 0.80971 0.0
C1179 C 0.65262 0.17003 0.80473 0.0
C1180 C 0.6441 0.14545 0.81255 0.0
C1181 C 0.69771 0.16263 0.80529 0.0
C1182 C 0.68602 0.12508 0.81365 0.0
C1183 C 0.5865 0.11506 0.80593 0.0
N1184 N 0.69233 0.15072 0.80886 0.0
N1185 N 0.59193 0.12698 0.80928 0.0
H1186 H 0.54322 0.16693 0.45729 0.0
H1187 H 0.7394 0.11159 0.4586 0.0
H1188 H 0.7142 0.17028 0.45274 0.0
H1189 H 0.56858 0.10823 0.45302 0.0
H1190 H 0.73123 0.13296 0.45162 0.0
H1191 H 0.55163 0.14554 0.45084 0.0
C1192 C 0.58257 0.16319 0.45458 0.0
C1193 C 0.62816 0.17041 0.45588 0.0
C1194 C 0.69553 0.12755 0.45156 0.0
C1195 C 0.63809 0.14581 0.44877 0.0
C1196 C 0.70014 0.11533 0.45557 0.0
C1197 C 0.65451 0.10811 0.45672 0.0
C1198 C 0.64485 0.13267 0.44897 0.0
C1199 C 0.60481 0.11345 0.4524 0.0
C1200 C 0.58732 0.15095 0.45088 0.0
C1201 C 0.678 0.16506 0.45199 0.0
N1202 N 0.60124 0.12543 0.4491 0.0
N1203 N 0.68169 0.15306 0.449 0.0
H1204 H 0.4865 0.91703 0.20695 0.0
H1205 H 0.29162 0.86144 0.20842 0.0
H1206 H 0.31543 0.92018 0.2029 0.0
H1207 H 0.46249 0.85832 0.20243 0.0
H1208 H 0.29923 0.88282 0.20151 0.0
H1209 H 0.47852 0.89564 0.20036 0.0
C1210 C 0.44721 0.91324 0.20433 0.0
C1211 C 0.40148 0.92041 0.2058 0.0
C1212 C 0.33505 0.87746 0.20134 0.0
C1213 C 0.39204 0.89581 0.19853 0.0
C1214 C 0.33077 0.86523 0.20531 0.0
C1215 C 0.37659 0.85807 0.20633 0.0
C1216 C 0.3856 0.88266 0.19867 0.0
C1217 C 0.42613 0.86348 0.20192 0.0
C1218 C 0.44271 0.901 0.20054 0.0
C1219 C 0.35173 0.915 0.20201 0.0
N1220 N 0.42938 0.87547 0.19866 0.0
N1221 N 0.34828 0.903 0.19894 0.0
H1222 H 0.29421 0.91696 0.55396 0.0
H1223 H 0.49001 0.86157 0.5525 0.0
H1224 H 0.46524 0.9203 0.55785 0.0
H1225 H 0.31926 0.8583 0.55896 0.0
H1226 H 0.48212 0.88296 0.5593 0.0
H1227 H 0.30262 0.89559 0.56068 0.0
C1228 C 0.33358 0.91322 0.55658 0.0
C1229 C 0.37917 0.92043 0.55502 0.0
C1230 C 0.44639 0.87756 0.5596 0.0
C1231 C 0.3891 0.89586 0.56243 0.0
C1232 C 0.45084 0.86533 0.55569 0.0
C1233 C 0.40512 0.85813 0.55484 0.0
C1234 C 0.39579 0.88271 0.56237 0.0
C1235 C 0.35554 0.8635 0.55934 0.0
C1236 C 0.33833 0.90099 0.56043 0.0
C1237 C 0.42904 0.91509 0.55881 0.0
N1238 N 0.35213 0.87549 0.56253 0.0
N1239 N 0.43273 0.9031 0.56194 0.0
H1240 H 0.73681 0.66717 0.30441 0.0
H1241 H 0.54136 0.61171 0.30378 0.0
H1242 H 0.56584 0.67042 0.30922 0.0
H1243 H 0.71214 0.60847 0.30978 0.0
H1244 H 0.54924 0.63309 0.31058 0.0
H1245 H 0.72866 0.64579 0.3112 0.0
C1246 C 0.69752 0.66341 0.30724 0.0
C1247 C 0.65185 0.67059 0.30592 0.0
C1248 C 0.58498 0.6277 0.31078 0.0
C1249 C 0.64222 0.64602 0.31342 0.0
C1250 C 0.58054 0.61547 0.30687 0.0
C1251 C 0.62626 0.60828 0.30588 0.0
C1252 C 0.63559 0.63287 0.3134 0.0
C1253 C 0.67586 0.61366 0.31027 0.0
C1254 C 0.69292 0.65117 0.31114 0.0
C1255 C 0.60209 0.66522 0.30998 0.0
N1256 N 0.67928 0.62565 0.31345 0.0
N1257 N 0.59854 0.65323 0.31315 0.0
H1258 H 0.54436 0.66697 0.95812 0.0
H1259 H 0.73943 0.61148 0.95881 0.0
H1260 H 0.71534 0.67018 0.95315 0.0
H1261 H 0.5686 0.60826 0.95298 0.0
H1262 H 0.73167 0.63286 0.95193 0.0
H1263 H 0.55233 0.64558 0.95142 0.0
C1264 C 0.58361 0.6632 0.95527 0.0
C1265 C 0.62934 0.67038 0.95652 0.0
C1266 C 0.69589 0.62748 0.95179 0.0
C1267 C 0.63877 0.64579 0.94912 0.0
C1268 C 0.70026 0.61524 0.95574 0.0
C1269 C 0.6545 0.60807 0.9568 0.0
C1270 C 0.6453 0.63264 0.94919 0.0
C1271 C 0.60492 0.61345 0.95243 0.0
C1272 C 0.58811 0.65096 0.95142 0.0
C1273 C 0.67904 0.66499 0.95244 0.0
N1274 N 0.60157 0.62544 0.94921 0.0
N1275 N 0.68249 0.653 0.94932 0.0
H1276 H 0.31857 0.42049 0.7016 0.0
H1277 H 0.46818 0.35757 0.70174 0.0
H1278 H 0.48849 0.4163 0.71013 0.0
H1279 H 0.29775 0.36171 0.70792 0.0
H1280 H 0.47644 0.37907 0.69529 0.0
H1281 H 0.31079 0.39903 0.69443 0.0
C1282 C 0.35433 0.41511 0.70153 0.0
C1283 C 0.40415 0.42019 0.70683 0.0
C1284 C 0.43718 0.37524 0.69773 0.0
C1285 C 0.39553 0.39563 0.69876 0.0
C1286 C 0.43243 0.36295 0.70128 0.0
C1287 C 0.38227 0.35784 0.70573 0.0
C1288 C 0.39144 0.38245 0.69851 0.0
C1289 C 0.33732 0.36528 0.70492 0.0
C1290 C 0.34985 0.40285 0.69755 0.0
C1291 C 0.44915 0.41276 0.70647 0.0
N1292 N 0.34301 0.3772 0.70165 0.0
N1293 N 0.44371 0.40086 0.70277 0.0
H1294 H 0.29503 0.41707 0.05457 0.0
H1295 H 0.49004 0.36156 0.05323 0.0
H1296 H 0.46598 0.42025 0.05964 0.0
H1297 H 0.31912 0.35835 0.0587 0.0
H1298 H 0.48224 0.38292 0.06046 0.0
H1299 H 0.3029 0.39567 0.06102 0.0
C1300 C 0.33425 0.41329 0.0574 0.0
C1301 C 0.38 0.42047 0.05624 0.0
C1302 C 0.44644 0.37754 0.06045 0.0
C1303 C 0.38933 0.39586 0.06333 0.0
C1304 C 0.45084 0.36533 0.0563 0.0
C1305 C 0.40508 0.35816 0.05503 0.0
C1306 C 0.39583 0.38271 0.06305 0.0
C1307 C 0.35545 0.36353 0.0594 0.0
C1308 C 0.33869 0.40104 0.06109 0.0
C1309 C 0.42967 0.41507 0.06028 0.0
N1310 N 0.35209 0.37551 0.06282 0.0
N1311 N 0.43307 0.40306 0.06325 0.0
H1312 H 0.89517 0.06582 0.30533 0.0
H1313 H 0.88638 0.06533 0.4552 0.0
H1314 H 0.0347 0.05838 0.35042 0.0
H1315 H 0.74654 0.05843 0.40994 0.0
H1316 H 0.94172 0.06251 0.41729 0.0
H1317 H 0.83969 0.06285 0.34316 0.0
C1318 C 0.91408 0.06337 0.32308 0.0
C1319 C 0.96971 0.0624 0.32471 0.0
C1320 C 0.89899 0.06141 0.41574 0.0
C1321 C 0.90651 0.05924 0.36822 0.0
C1322 C 0.86737 0.06302 0.43739 0.0
C1323 C 0.81171 0.06216 0.43574 0.0
C1324 C 0.87475 0.05919 0.39213 0.0
C1325 C 0.78928 0.05917 0.41212 0.0
C1326 C 0.88237 0.06167 0.34468 0.0
C1327 C 0.99199 0.05921 0.34825 0.0
N1328 N 0.82076 0.05799 0.39117 0.0
N1329 N 0.96044 0.05795 0.36916 0.0
H1330 H 0.24211 0.22301 0.34877 0.0
H1331 H 0.39365 0.21253 0.45679 0.0
H1332 H 0.38293 0.21067 0.30972 0.0
H1333 H 0.53032 0.22026 0.40981 0.0
H1334 H 0.33606 0.21537 0.41988 0.0
H1335 H 0.29516 0.22591 0.38726 0.0
C1336 C 0.28433 0.22105 0.34817 0.0
C1337 C 0.30792 0.21643 0.32602 0.0
C1338 C 0.37845 0.21679 0.41773 0.0
C1339 C 0.3687 0.21947 0.37028 0.0
C1340 C 0.41144 0.21509 0.43883 0.0
C1341 C 0.46691 0.21618 0.43643 0.0
C1342 C 0.40111 0.21943 0.39391 0.0
C1343 C 0.48776 0.21941 0.41259 0.0
C1344 C 0.31447 0.22257 0.37028 0.0
C1345 C 0.36291 0.21413 0.32641 0.0
N1346 N 0.45496 0.22069 0.39216 0.0
N1347 N 0.39135 0.21561 0.34821 0.0
H1348 H 0.88665 0.21252 0.80499 0.0
H1349 H 0.89804 0.21336 0.95484 0.0
H1350 H 0.74775 0.21991 0.85071 0.0
H1351 H 0.03696 0.22023 0.90874 0.0
H1352 H 0.84198 0.21603 0.91718 0.0
H1353 H 0.94271 0.2156 0.84251 0.0
C1354 C 0.868 0.21498 0.82282 0.0
C1355 C 0.81238 0.21591 0.82471 0.0
C1356 C 0.88466 0.21715 0.91539 0.0
C1357 C 0.87625 0.21919 0.86788 0.0
C1358 C 0.91669 0.21563 0.93689 0.0
C1359 C 0.97232 0.21653 0.93494 0.0
C1360 C 0.90844 0.21933 0.89163 0.0
C1361 C 0.99427 0.21947 0.91116 0.0
C1362 C 0.90003 0.21674 0.84424 0.0
C1363 C 0.79043 0.21911 0.84834 0.0
N1364 N 0.96239 0.22056 0.89036 0.0
N1365 N 0.82231 0.22044 0.86908 0.0
H1366 H 0.38402 0.06533 0.95568 0.0
H1367 H 0.39715 0.06522 0.80586 0.0
H1368 H 0.24563 0.05821 0.90956 0.0
H1369 H 0.53553 0.05809 0.85195 0.0
H1370 H 0.34067 0.06238 0.84338 0.0
H1371 H 0.44054 0.06239 0.9182 0.0
C1372 C 0.36557 0.06295 0.93778 0.0
C1373 C 0.30996 0.06207 0.93576 0.0
C1374 C 0.38333 0.06124 0.8452 0.0
C1375 C 0.37437 0.05895 0.89264 0.0
C1376 C 0.4156 0.06286 0.82378 0.0
C1377 C 0.47119 0.06194 0.82577 0.0
C1378 C 0.40684 0.05893 0.86894 0.0
C1379 C 0.49287 0.05887 0.84951 0.0
C1380 C 0.39787 0.06128 0.91638 0.0
C1381 C 0.2883 0.05898 0.91203 0.0
N1382 N 0.46077 0.05768 0.87024 0.0
N1383 N 0.32043 0.05773 0.89132 0.0
H1384 H 0.28627 0.9728 0.59891 0.0
H1385 H 0.13381 0.96188 0.70662 0.0
H1386 H 0.14675 0.96009 0.5595 0.0
H1387 H 0.9974 0.96933 0.65945 0.0
H1388 H 0.19171 0.9648 0.66977 0.0
H1389 H 0.23248 0.97551 0.63729 0.0
C1390 C 0.24417 0.97072 0.5982 0.0
C1391 C 0.22119 0.96606 0.57598 0.0
C1392 C 0.14929 0.96614 0.66756 0.0
C1393 C 0.15956 0.96888 0.62013 0.0
C1394 C 0.11613 0.9644 0.68863 0.0
C1395 C 0.06065 0.96539 0.68617 0.0
C1396 C 0.12682 0.96873 0.64371 0.0
C1397 C 0.03996 0.96856 0.66228 0.0
C1398 C 0.21361 0.97213 0.62026 0.0
C1399 C 0.16632 0.96359 0.57624 0.0
N1400 N 0.07294 0.96989 0.64189 0.0
N1401 N 0.13747 0.96497 0.59799 0.0
H1402 H 0.78786 0.80718 0.65956 0.0
H1403 H 0.49361 0.80775 0.60111 0.0
H1404 H 0.64722 0.81492 0.70382 0.0
H1405 H 0.63488 0.81489 0.55683 0.0
H1406 H 0.54952 0.80482 0.63874 0.0
H1407 H 0.73171 0.80444 0.62194 0.0
C1408 C 0.74509 0.80806 0.66153 0.0
C1409 C 0.72224 0.81138 0.68487 0.0
C1410 C 0.56825 0.80685 0.62069 0.0
C1411 C 0.65788 0.80824 0.64186 0.0
C1412 C 0.53645 0.80845 0.59915 0.0
C1413 C 0.55957 0.81167 0.57578 0.0
C1414 C 0.62366 0.80831 0.61882 0.0
C1415 C 0.61532 0.81251 0.57447 0.0
C1416 C 0.71315 0.80657 0.63999 0.0
C1417 C 0.66657 0.81244 0.68619 0.0
N1418 N 0.64544 0.8109 0.59571 0.0
N1419 N 0.63631 0.81094 0.66496 0.0
H1420 H 0.14569 0.81517 0.20517 0.0
H1421 H 0.1376 0.81553 0.05529 0.0
H1422 H 0.28564 0.80822 0.15986 0.0
H1423 H 0.99772 0.80826 0.10043 0.0
H1424 H 0.19285 0.81256 0.09311 0.0
H1425 H 0.09046 0.81233 0.16729 0.0
C1426 C 0.16474 0.81285 0.18735 0.0
C1427 C 0.22041 0.81198 0.18569 0.0
C1428 C 0.15013 0.81142 0.09465 0.0
C1429 C 0.1575 0.80898 0.14211 0.0
C1430 C 0.11857 0.81311 0.07305 0.0
C1431 C 0.06291 0.81219 0.07469 0.0
C1432 C 0.12584 0.80903 0.11821 0.0
C1433 C 0.04045 0.80905 0.09826 0.0
C1434 C 0.13319 0.81123 0.16572 0.0
C1435 C 0.24289 0.80896 0.16206 0.0
N1436 N 0.07188 0.80779 0.11916 0.0
N1437 N 0.21148 0.80778 0.14113 0.0
H1438 H 0.64569 0.96209 0.05402 0.0
H1439 H 0.49325 0.97287 0.16178 0.0
H1440 H 0.78202 0.9698 0.10106 0.0
H1441 H 0.63309 0.96033 0.20114 0.0
H1442 H 0.54691 0.97563 0.12337 0.0
H1443 H 0.58783 0.96492 0.09091 0.0
C1444 C 0.66336 0.96465 0.07199 0.0
C1445 C 0.71881 0.96574 0.0744 0.0
C1446 C 0.56587 0.97228 0.1404 0.0
C1447 C 0.65269 0.96898 0.11691 0.0
C1448 C 0.53538 0.97084 0.16247 0.0
C1449 C 0.5585 0.96621 0.18469 0.0
C1450 C 0.61999 0.96909 0.14051 0.0
C1451 C 0.61342 0.9638 0.18441 0.0
C1452 C 0.63021 0.96634 0.09308 0.0
C1453 C 0.73948 0.96895 0.09827 0.0
N1454 N 0.64221 0.96521 0.16264 0.0
N1455 N 0.70653 0.97024 0.11868 0.0
H1456 H 0.03762 0.55773 0.8517 0.0
H1457 H 0.74378 0.55784 0.91102 0.0
H1458 H 0.89643 0.56513 0.80777 0.0
H1459 H 0.88495 0.56536 0.9549 0.0
H1460 H 0.79958 0.55503 0.87325 0.0
H1461 H 0.98185 0.55505 0.88955 0.0
C1462 C 0.99481 0.55855 0.84987 0.0
C1463 C 0.9717 0.56175 0.82653 0.0
C1464 C 0.81833 0.55713 0.89124 0.0
C1465 C 0.90776 0.55868 0.86981 0.0
C1466 C 0.78659 0.55866 0.91287 0.0
C1467 C 0.80969 0.56193 0.93617 0.0
C1468 C 0.87367 0.55871 0.89295 0.0
C1469 C 0.8654 0.56292 0.93732 0.0
C1470 C 0.96309 0.55709 0.87153 0.0
C1471 C 0.91599 0.56274 0.82538 0.0
N1472 N 0.89547 0.56138 0.916 0.0
N1473 N 0.88595 0.56127 0.84673 0.0
H1474 H 0.24517 0.7227 0.84892 0.0
H1475 H 0.39587 0.71255 0.95733 0.0
H1476 H 0.38605 0.71015 0.81024 0.0
H1477 H 0.53295 0.72003 0.91042 0.0
H1478 H 0.33858 0.71526 0.92027 0.0
H1479 H 0.29804 0.7257 0.88742 0.0
C1480 C 0.28736 0.72071 0.8484 0.0
C1481 C 0.31102 0.71601 0.82635 0.0
C1482 C 0.381 0.71665 0.91816 0.0
C1483 C 0.37159 0.71916 0.87064 0.0
C1484 C 0.41382 0.71503 0.93935 0.0
C1485 C 0.46932 0.71608 0.93703 0.0
C1486 C 0.40386 0.71918 0.89433 0.0
C1487 C 0.49036 0.7192 0.91315 0.0
C1488 C 0.3174 0.72229 0.87053 0.0
C1489 C 0.36598 0.71368 0.82684 0.0
N1490 N 0.45772 0.72042 0.89265 0.0
N1491 N 0.39431 0.71521 0.84866 0.0
H1492 H 0.03832 0.72302 0.41216 0.0
H1493 H 0.88611 0.71267 0.30428 0.0
H1494 H 0.89796 0.71049 0.45135 0.0
H1495 H 0.7497 0.72024 0.35155 0.0
H1496 H 0.94392 0.71543 0.34114 0.0
H1497 H 0.98493 0.72594 0.37379 0.0
C1498 C 0.99613 0.72102 0.41282 0.0
C1499 C 0.97278 0.71635 0.43497 0.0
C1500 C 0.90153 0.71683 0.34337 0.0
C1501 C 0.91161 0.71942 0.39084 0.0
C1502 C 0.86841 0.71518 0.3223 0.0
C1503 C 0.81295 0.71624 0.32478 0.0
C1504 C 0.87901 0.7194 0.36726 0.0
C1505 C 0.79225 0.7194 0.3487 0.0
C1506 C 0.96579 0.72256 0.39077 0.0
C1507 C 0.91781 0.714 0.43466 0.0
N1508 N 0.82517 0.72065 0.36909 0.0
N1509 N 0.88918 0.7155 0.41292 0.0
H1510 H 0.53572 0.55813 0.35175 0.0
H1511 H 0.24109 0.55827 0.41018 0.0
H1512 H 0.39524 0.56568 0.30741 0.0
H1513 H 0.38184 0.56557 0.45453 0.0
H1514 H 0.29731 0.55552 0.37252 0.0
H1515 H 0.47939 0.55539 0.38938 0.0
C1516 C 0.49295 0.55897 0.34977 0.0
C1517 C 0.4702 0.56222 0.32639 0.0
C1518 C 0.31587 0.55756 0.39058 0.0
C1519 C 0.40561 0.55909 0.36943 0.0
C1520 C 0.28389 0.55905 0.41215 0.0
C1521 C 0.30676 0.56224 0.43555 0.0
C1522 C 0.37121 0.5591 0.39247 0.0
C1523 C 0.36247 0.56319 0.43686 0.0
C1524 C 0.46091 0.55748 0.37132 0.0
C1525 C 0.41452 0.56324 0.32507 0.0
N1526 N 0.39277 0.56168 0.41561 0.0
N1527 N 0.38415 0.56174 0.34631 0.0
H1528 H 0.99318 0.47342 0.16197 0.0
H1529 H 0.14641 0.46276 0.05441 0.0
H1530 H 0.13295 0.46093 0.20147 0.0
H1531 H 0.28241 0.47035 0.10177 0.0
H1532 H 0.08824 0.46565 0.09117 0.0
H1533 H 0.04703 0.47625 0.12365 0.0
C1534 C 0.03534 0.47141 0.16271 0.0
C1535 C 0.05839 0.46677 0.18493 0.0
C1536 C 0.13063 0.46702 0.09343 0.0
C1537 C 0.12009 0.46973 0.14086 0.0
C1538 C 0.16395 0.4653 0.07242 0.0
C1539 C 0.21939 0.46633 0.07497 0.0
C1540 C 0.15292 0.46964 0.11732 0.0
C1541 C 0.23989 0.46954 0.09887 0.0
C1542 C 0.06594 0.4729 0.14069 0.0
C1543 C 0.11334 0.46441 0.18472 0.0
N1544 N 0.20676 0.47086 0.11921 0.0
N1545 N 0.14222 0.46585 0.163 0.0
H1546 H 0.64636 0.31549 0.20514 0.0
H1547 H 0.63659 0.31539 0.05525 0.0
H1548 H 0.7858 0.30845 0.15953 0.0
H1549 H 0.49716 0.30833 0.10087 0.0
H1550 H 0.69224 0.31252 0.09297 0.0
H1551 H 0.5907 0.31255 0.16744 0.0
C1552 C 0.66522 0.31313 0.1873 0.0
C1553 C 0.72087 0.31227 0.18549 0.0
C1554 C 0.64954 0.3114 0.09464 0.0
C1555 C 0.65745 0.30914 0.14212 0.0
C1556 C 0.61773 0.31304 0.0731 0.0
C1557 C 0.56209 0.31215 0.0749 0.0
C1558 C 0.6255 0.30911 0.1183 0.0
C1559 C 0.53988 0.30909 0.09857 0.0
C1560 C 0.63341 0.31145 0.16577 0.0
C1561 C 0.74308 0.3092 0.16184 0.0
N1562 N 0.57154 0.30789 0.11941 0.0
N1563 N 0.71142 0.30795 0.14101 0.0
H1564 H 0.99337 0.30559 0.59883 0.0
H1565 H 0.14548 0.31609 0.70664 0.0
H1566 H 0.13378 0.31807 0.55963 0.0
H1567 H 0.28189 0.30833 0.65952 0.0
H1568 H 0.08771 0.31329 0.66978 0.0
H1569 H 0.04673 0.30268 0.63722 0.0
C1570 C 0.03556 0.30758 0.59817 0.0
C1571 C 0.05895 0.31224 0.57601 0.0
C1572 C 0.13009 0.31186 0.66759 0.0
C1573 C 0.12007 0.30918 0.62015 0.0
C1574 C 0.16318 0.31353 0.68865 0.0
C1575 C 0.21863 0.31242 0.68621 0.0
C1576 C 0.15262 0.30922 0.64374 0.0
C1577 C 0.23935 0.3092 0.66233 0.0
C1578 C 0.06588 0.30605 0.62022 0.0
C1579 C 0.11392 0.31458 0.57632 0.0
N1580 N 0.20645 0.30794 0.64194 0.0
N1581 N 0.14253 0.31309 0.59807 0.0
H1582 H 0.49453 0.4703 0.661 0.0
H1583 H 0.78782 0.47048 0.60106 0.0
H1584 H 0.63616 0.46269 0.70446 0.0
H1585 H 0.64617 0.46327 0.55729 0.0
H1586 H 0.7324 0.4731 0.63902 0.0
H1587 H 0.54994 0.47319 0.62311 0.0
C1588 C 0.53736 0.46948 0.66273 0.0
C1589 C 0.56071 0.46616 0.68594 0.0
C1590 C 0.71347 0.47112 0.62102 0.0
C1591 C 0.62423 0.46947 0.6426 0.0
C1592 C 0.74499 0.4697 0.59928 0.0
C1593 C 0.72164 0.46656 0.57595 0.0
C1594 C 0.6581 0.46956 0.61939 0.0
C1595 C 0.66591 0.46561 0.5749 0.0
C1596 C 0.56887 0.47106 0.64104 0.0
C1597 C 0.61643 0.46517 0.68694 0.0
N1598 N 0.63606 0.46704 0.59632 0.0
N1599 N 0.64626 0.46676 0.66557 0.0
loop_
_geom_bond_atom_site_label_1
_geom_bond_atom_site_label_2
_geom_bond_distance
_geom_bond_site_symmetry_2
_ccdc_geom_bond_type
O0 Cd1 2.223 . S
O0 C8 1.315 . S
Cd1 O0 2.223 . S
Cd1 O4 2.297 1_455 S
Cd1 O5 2.439 . S
Cd1 O11 2.240 . S
Cd2 O3 2.240 . S
Cd2 O10 2.223 . S
Cd2 O12 2.297 . S
Cd2 O13 2.439 . S
O3 Cd2 2.240 . S
O3 C8 1.279 . S
O4 Cd1 2.297 1_655 S
O4 C6 1.247 . S
O5 Cd1 2.439 . S
O5 C6 1.208 1_455 S
C6 O4 1.247 . S
C6 O5 1.208 1_655 S
C7 O12 1.247 . S
C7 O13 1.208 . S
C8 O0 1.315 . S
C8 O3 1.279 . S
C9 O10 1.315 . S
C9 O11 1.279 . S
O10 Cd2 2.223 . S
O10 C9 1.315 . S
O11 Cd1 2.240 . S
O11 C9 1.279 . S
O12 Cd2 2.297 . S
O12 C7 1.247 . S
O13 Cd2 2.439 . S
O13 C7 1.208 . S
O14 Cd15 2.223 . S
O14 C22 1.315 . S
Cd15 O14 2.223 . S
Cd15 O18 2.297 . S
Cd15 O19 2.439 . S
Cd15 O25 2.240 . S
Cd16 O17 2.240 . S
Cd16 O24 2.223 . S
Cd16 O26 2.297 . S
Cd16 O27 2.439 . S
O17 Cd16 2.240 . S
O17 C22 1.279 . S
O18 Cd15 2.297 . S
O18 C20 1.247 . S
O19 Cd15 2.439 . S
O19 C20 1.208 . S
C20 O18 1.247 . S
C20 O19 1.208 . S
C21 O26 1.247 . S
C21 O27 1.208 . S
C22 O14 1.315 . S
C22 O17 1.279 . S
C23 O24 1.315 . S
C23 O25 1.279 . S
O24 Cd16 2.223 . S
O24 C23 1.315 . S
O25 Cd15 2.240 . S
O25 C23 1.279 . S
O26 Cd16 2.297 . S
O26 C21 1.247 . S
O27 Cd16 2.439 . S
O27 C21 1.208 . S
O28 Cd29 2.223 1_554 S
O28 C36 1.315 1_554 S
Cd29 O28 2.223 1_556 S
Cd29 O32 2.297 1_455 S
Cd29 O33 2.439 . S
Cd29 O39 2.240 1_556 S
Cd30 O31 2.240 . S
Cd30 O38 2.223 1_556 S
Cd30 O40 2.297 1_556 S
Cd30 O41 2.439 . S
O31 Cd30 2.240 . S
O31 C36 1.279 . S
O32 Cd29 2.297 1_655 S
O32 C34 1.247 . S
O33 Cd29 2.439 . S
O33 C34 1.208 1_455 S
C34 O32 1.247 . S
C34 O33 1.208 1_655 S
C35 O40 1.247 1_556 S
C35 O41 1.208 . S
C36 O28 1.315 1_556 S
C36 O31 1.279 . S
C37 O38 1.315 . S
C37 O39 1.279 . S
O38 Cd30 2.223 1_554 S
O38 C37 1.315 . S
O39 Cd29 2.240 1_554 S
O39 C37 1.279 . S
O40 Cd30 2.297 1_554 S
O40 C35 1.247 1_554 S
O41 Cd30 2.439 . S
O41 C35 1.208 . S
O42 Cd43 2.223 1_554 S
O42 C50 1.315 1_554 S
Cd43 O42 2.223 1_556 S
Cd43 O46 2.297 . S
Cd43 O47 2.439 . S
Cd43 O53 2.240 1_556 S
Cd44 O45 2.240 . S
Cd44 O52 2.223 1_556 S
Cd44 O54 2.297 1_556 S
Cd44 O55 2.439 . S
O45 Cd44 2.240 . S
O45 C50 1.279 . S
O46 Cd43 2.297 . S
O46 C48 1.247 . S
O47 Cd43 2.439 . S
O47 C48 1.208 . S
C48 O46 1.247 . S
C48 O47 1.208 . S
C49 O54 1.247 1_556 S
C49 O55 1.208 . S
C50 O42 1.315 1_556 S
C50 O45 1.279 . S
C51 O52 1.315 . S
C51 O53 1.279 . S
O52 Cd44 2.223 1_554 S
O52 C51 1.315 . S
O53 Cd43 2.240 1_554 S
O53 C51 1.279 . S
O54 Cd44 2.297 1_554 S
O54 C49 1.247 1_554 S
O55 Cd44 2.439 . S
O55 C49 1.208 . S
O56 Cd57 2.223 . S
O56 C64 1.315 . S
Cd57 O56 2.223 . S
Cd57 O60 2.297 1_655 S
Cd57 O61 2.439 . S
Cd57 O67 2.240 . S
Cd58 O59 2.240 . S
Cd58 O66 2.223 . S
Cd58 O68 2.297 . S
Cd58 O69 2.439 . S
O59 Cd58 2.240 . S
O59 C64 1.279 . S
O60 Cd57 2.297 1_455 S
O60 C62 1.247 . S
O61 Cd57 2.439 . S
O61 C62 1.208 1_655 S
C62 O60 1.247 . S
C62 O61 1.208 1_455 S
C63 O68 1.247 . S
C63 O69 1.208 . S
C64 O56 1.315 . S
C64 O59 1.279 . S
C65 O66 1.315 . S
C65 O67 1.279 . S
O66 Cd58 2.223 . S
O66 C65 1.315 . S
O67 Cd57 2.240 . S
O67 C65 1.279 . S
O68 Cd58 2.297 . S
O68 C63 1.247 . S
O69 Cd58 2.439 . S
O69 C63 1.208 . S
O70 Cd71 2.223 . S
O70 C78 1.315 . S
Cd71 O70 2.223 . S
Cd71 O74 2.297 . S
Cd71 O75 2.439 . S
Cd71 O81 2.240 . S
Cd72 O73 2.240 . S
Cd72 O80 2.223 . S
Cd72 O82 2.297 . S
Cd72 O83 2.439 . S
O73 Cd72 2.240 . S
O73 C78 1.279 . S
O74 Cd71 2.297 . S
O74 C76 1.247 . S
O75 Cd71 2.439 . S
O75 C76 1.208 . S
C76 O74 1.247 . S
C76 O75 1.208 . S
C77 O82 1.247 . S
C77 O83 1.208 . S
C78 O70 1.315 . S
C78 O73 1.279 . S
C79 O80 1.315 . S
C79 O81 1.279 . S
O80 Cd72 2.223 . S
O80 C79 1.315 . S
O81 Cd71 2.240 . S
O81 C79 1.279 . S
O82 Cd72 2.297 . S
O82 C77 1.247 . S
O83 Cd72 2.439 . S
O83 C77 1.208 . S
O84 Cd85 2.223 1_556 S
O84 C92 1.315 1_556 S
Cd85 O84 2.223 1_554 S
Cd85 O88 2.297 1_655 S
Cd85 O89 2.439 . S
Cd85 O95 2.240 1_554 S
Cd86 O87 2.240 . S
Cd86 O94 2.223 1_554 S
Cd86 O96 2.297 1_554 S
Cd86 O97 2.439 . S
O87 Cd86 2.240 . S
O87 C92 1.279 . S
O88 Cd85 2.297 1_455 S
O88 C90 1.247 . S
O89 Cd85 2.439 . S
O89 C90 1.208 1_655 S
C90 O88 1.247 . S
C90 O89 1.208 1_455 S
C91 O96 1.247 1_554 S
C91 O97 1.208 . S
C92 O84 1.315 1_554 S
C92 O87 1.279 . S
C93 O94 1.315 . S
C93 O95 1.279 . S
O94 Cd86 2.223 1_556 S
O94 C93 1.315 . S
O95 Cd85 2.240 1_556 S
O95 C93 1.279 . S
O96 Cd86 2.297 1_556 S
O96 C91 1.247 1_556 S
O97 Cd86 2.439 . S
O97 C91 1.208 . S
O98 Cd99 2.223 1_556 S
O98 C106 1.315 1_556 S
Cd99 O98 2.223 1_554 S
Cd99 O102 2.297 . S
Cd99 O103 2.439 . S
Cd99 O109 2.240 1_554 S
Cd100 O101 2.240 . S
Cd100 O108 2.223 1_554 S
Cd100 O110 2.297 1_554 S
Cd100 O111 2.439 . S
O101 Cd100 2.240 . S
O101 C106 1.279 . S
O102 Cd99 2.297 . S
O102 C104 1.247 . S
O103 Cd99 2.439 . S
O103 C104 1.208 . S
C104 O102 1.247 . S
C104 O103 1.208 . S
C105 O110 1.247 1_554 S
C105 O111 1.208 . S
C106 O98 1.315 1_554 S
C106 O101 1.279 . S
C107 O108 1.315 . S
C107 O109 1.279 . S
O108 Cd100 2.223 1_556 S
O108 C107 1.315 . S
O109 Cd99 2.240 1_556 S
O109 C107 1.279 . S
O110 Cd100 2.297 1_556 S
O110 C105 1.247 1_556 S
O111 Cd100 2.439 . S
O111 C105 1.208 . S
O112 Cd113 2.223 . S
O112 C120 1.315 . S
Cd113 O112 2.223 . S
Cd113 O116 2.297 1_455 S
Cd113 O117 2.439 . S
Cd113 O123 2.240 . S
Cd114 O115 2.240 . S
Cd114 O122 2.223 . S
Cd114 O124 2.297 . S
Cd114 O125 2.439 . S
O115 Cd114 2.240 . S
O115 C120 1.279 . S
O116 Cd113 2.297 1_655 S
O116 C118 1.247 . S
O117 Cd113 2.439 . S
O117 C118 1.208 1_455 S
C118 O116 1.247 . S
C118 O117 1.208 1_655 S
C119 O124 1.247 . S
C119 O125 1.208 . S
C120 O112 1.315 . S
C120 O115 1.279 . S
C121 O122 1.315 . S
C121 O123 1.279 . S
O122 Cd114 2.223 . S
O122 C121 1.315 . S
O123 Cd113 2.240 . S
O123 C121 1.279 . S
O124 Cd114 2.297 . S
O124 C119 1.247 . S
O125 Cd114 2.439 . S
O125 C119 1.208 . S
O126 Cd127 2.223 . S
O126 C134 1.315 . S
Cd127 O126 2.223 . S
Cd127 O130 2.297 . S
Cd127 O131 2.439 . S
Cd127 O137 2.240 . S
Cd128 O129 2.240 . S
Cd128 O136 2.223 . S
Cd128 O138 2.297 . S
Cd128 O139 2.439 . S
O129 Cd128 2.240 . S
O129 C134 1.279 . S
O130 Cd127 2.297 . S
O130 C132 1.247 . S
O131 Cd127 2.439 . S
O131 C132 1.208 . S
C132 O130 1.247 . S
C132 O131 1.208 . S
C133 O138 1.247 . S
C133 O139 1.208 . S
C134 O126 1.315 . S
C134 O129 1.279 . S
C135 O136 1.315 . S
C135 O137 1.279 . S
O136 Cd128 2.223 . S
O136 C135 1.315 . S
O137 Cd127 2.240 . S
O137 C135 1.279 . S
O138 Cd128 2.297 . S
O138 C133 1.247 . S
O139 Cd128 2.439 . S
O139 C133 1.208 . S
O140 Cd141 2.223 . S
O140 C148 1.315 . S
Cd141 O140 2.223 . S
Cd141 O144 2.297 1_455 S
Cd141 O145 2.439 . S
Cd141 O151 2.240 . S
Cd142 O143 2.240 . S
Cd142 O150 2.223 . S
Cd142 O152 2.297 . S
Cd142 O153 2.439 . S
O143 Cd142 2.240 . S
O143 C148 1.279 . S
O144 Cd141 2.297 1_655 S
O144 C146 1.247 . S
O145 Cd141 2.439 . S
O145 C146 1.208 1_455 S
C146 O144 1.247 . S
C146 O145 1.208 1_655 S
C147 O152 1.247 . S
C147 O153 1.208 . S
C148 O140 1.315 . S
C148 O143 1.279 . S
C149 O150 1.315 . S
C149 O151 1.279 . S
O150 Cd142 2.223 . S
O150 C149 1.315 . S
O151 Cd141 2.240 . S
O151 C149 1.279 . S
O152 Cd142 2.297 . S
O152 C147 1.247 . S
O153 Cd142 2.439 . S
O153 C147 1.208 . S
O154 Cd155 2.223 . S
O154 C162 1.315 . S
Cd155 O154 2.223 . S
Cd155 O158 2.297 . S
Cd155 O159 2.439 . S
Cd155 O165 2.240 . S
Cd156 O157 2.240 . S
Cd156 O164 2.223 . S
Cd156 O166 2.297 . S
Cd156 O167 2.439 . S
O157 Cd156 2.240 . S
O157 C162 1.279 . S
O158 Cd155 2.297 . S
O158 C160 1.247 . S
O159 Cd155 2.439 . S
O159 C160 1.208 . S
C160 O158 1.247 . S
C160 O159 1.208 . S
C161 O166 1.247 . S
C161 O167 1.208 . S
C162 O154 1.315 . S
C162 O157 1.279 . S
C163 O164 1.315 . S
C163 O165 1.279 . S
O164 Cd156 2.223 . S
O164 C163 1.315 . S
O165 Cd155 2.240 . S
O165 C163 1.279 . S
O166 Cd156 2.297 . S
O166 C161 1.247 . S
O167 Cd156 2.439 . S
O167 C161 1.208 . S
O168 Cd169 2.223 . S
O168 C176 1.315 . S
Cd169 O168 2.223 . S
Cd169 O172 2.297 1_655 S
Cd169 O173 2.439 . S
Cd169 O179 2.240 . S
Cd170 O171 2.240 . S
Cd170 O178 2.223 . S
Cd170 O180 2.297 . S
Cd170 O181 2.439 . S
O171 Cd170 2.240 . S
O171 C176 1.279 . S
O172 Cd169 2.297 1_455 S
O172 C174 1.247 . S
O173 Cd169 2.439 . S
O173 C174 1.208 1_655 S
C174 O172 1.247 . S
C174 O173 1.208 1_455 S
C175 O180 1.247 . S
C175 O181 1.208 . S
C176 O168 1.315 . S
C176 O171 1.279 . S
C177 O178 1.315 . S
C177 O179 1.279 . S
O178 Cd170 2.223 . S
O178 C177 1.315 . S
O179 Cd169 2.240 . S
O179 C177 1.279 . S
O180 Cd170 2.297 . S
O180 C175 1.247 . S
O181 Cd170 2.439 . S
O181 C175 1.208 . S
O182 Cd183 2.223 . S
O182 C190 1.315 . S
Cd183 O182 2.223 . S
Cd183 O186 2.297 . S
Cd183 O187 2.439 . S
Cd183 O193 2.240 . S
Cd184 O185 2.240 . S
Cd184 O192 2.223 . S
Cd184 O194 2.297 . S
Cd184 O195 2.439 . S
O185 Cd184 2.240 . S
O185 C190 1.279 . S
O186 Cd183 2.297 . S
O186 C188 1.247 . S
O187 Cd183 2.439 . S
O187 C188 1.208 . S
C188 O186 1.247 . S
C188 O187 1.208 . S
C189 O194 1.247 . S
C189 O195 1.208 . S
C190 O182 1.315 . S
C190 O185 1.279 . S
C191 O192 1.315 . S
C191 O193 1.279 . S
O192 Cd184 2.223 . S
O192 C191 1.315 . S
O193 Cd183 2.240 . S
O193 C191 1.279 . S
O194 Cd184 2.297 . S
O194 C189 1.247 . S
O195 Cd184 2.439 . S
O195 C189 1.208 . S
O196 Cd197 2.223 . S
O196 C204 1.315 . S
Cd197 O196 2.223 . S
Cd197 O200 2.297 1_655 S
Cd197 O201 2.439 . S
Cd197 O207 2.240 . S
Cd198 O199 2.240 . S
Cd198 O206 2.223 . S
Cd198 O208 2.297 . S
Cd198 O209 2.439 . S
O199 Cd198 2.240 . S
O199 C204 1.279 . S
O200 Cd197 2.297 1_455 S
O200 C202 1.247 . S
O201 Cd197 2.439 . S
O201 C202 1.208 1_655 S
C202 O200 1.247 . S
C202 O201 1.208 1_455 S
C203 O208 1.247 . S
C203 O209 1.208 . S
C204 O196 1.315 . S
C204 O199 1.279 . S
C205 O206 1.315 . S
C205 O207 1.279 . S
O206 Cd198 2.223 . S
O206 C205 1.315 . S
O207 Cd197 2.240 . S
O207 C205 1.279 . S
O208 Cd198 2.297 . S
O208 C203 1.247 . S
O209 Cd198 2.439 . S
O209 C203 1.208 . S
O210 Cd211 2.223 . S
O210 C218 1.315 . S
Cd211 O210 2.223 . S
Cd211 O214 2.297 . S
Cd211 O215 2.439 . S
Cd211 O221 2.240 . S
Cd212 O213 2.240 . S
Cd212 O220 2.223 . S
Cd212 O222 2.297 . S
Cd212 O223 2.439 . S
O213 Cd212 2.240 . S
O213 C218 1.279 . S
O214 Cd211 2.297 . S
O214 C216 1.247 . S
O215 Cd211 2.439 . S
O215 C216 1.208 . S
C216 O214 1.247 . S
C216 O215 1.208 . S
C217 O222 1.247 . S
C217 O223 1.208 . S
C218 O210 1.315 . S
C218 O213 1.279 . S
C219 O220 1.315 . S
C219 O221 1.279 . S
O220 Cd212 2.223 . S
O220 C219 1.315 . S
O221 Cd211 2.240 . S
O221 C219 1.279 . S
O222 Cd212 2.297 . S
O222 C217 1.247 . S
O223 Cd212 2.439 . S
O223 C217 1.208 . S
O224 Cd225 2.223 . S
O224 C232 1.315 . S
Cd225 O224 2.223 . S
Cd225 O228 2.297 . S
Cd225 O229 2.439 . S
Cd225 O235 2.240 . S
Cd226 O227 2.240 . S
Cd226 O234 2.223 . S
Cd226 O236 2.297 . S
Cd226 O237 2.439 . S
O227 Cd226 2.240 . S
O227 C232 1.279 . S
O228 Cd225 2.297 . S
O228 C230 1.247 . S
O229 Cd225 2.439 . S
O229 C230 1.208 . S
C230 O228 1.247 . S
C230 O229 1.208 . S
C231 O236 1.247 . S
C231 O237 1.208 . S
C232 O224 1.315 . S
C232 O227 1.279 . S
C233 O234 1.315 . S
C233 O235 1.279 . S
O234 Cd226 2.223 . S
O234 C233 1.315 . S
O235 Cd225 2.240 . S
O235 C233 1.279 . S
O236 Cd226 2.297 . S
O236 C231 1.247 . S
O237 Cd226 2.439 . S
O237 C231 1.208 . S
O238 Cd239 2.223 . S
O238 C246 1.315 . S
Cd239 O238 2.223 . S
Cd239 O242 2.297 . S
Cd239 O243 2.439 . S
Cd239 O249 2.240 . S
Cd240 O241 2.240 . S
Cd240 O248 2.223 . S
Cd240 O250 2.297 . S
Cd240 O251 2.439 . S
O241 Cd240 2.240 . S
O241 C246 1.279 . S
O242 Cd239 2.297 . S
O242 C244 1.247 . S
O243 Cd239 2.439 . S
O243 C244 1.208 . S
C244 O242 1.247 . S
C244 O243 1.208 . S
C245 O250 1.247 . S
C245 O251 1.208 . S
C246 O238 1.315 . S
C246 O241 1.279 . S
C247 O248 1.315 . S
C247 O249 1.279 . S
O248 Cd240 2.223 . S
O248 C247 1.315 . S
O249 Cd239 2.240 . S
O249 C247 1.279 . S
O250 Cd240 2.297 . S
O250 C245 1.247 . S
O251 Cd240 2.439 . S
O251 C245 1.208 . S
O252 Cd253 2.223 . S
O252 C260 1.315 . S
Cd253 O252 2.223 . S
Cd253 O256 2.297 . S
Cd253 O257 2.439 . S
Cd253 O263 2.240 . S
Cd254 O255 2.240 . S
Cd254 O262 2.223 . S
Cd254 O264 2.297 . S
Cd254 O265 2.439 . S
O255 Cd254 2.240 . S
O255 C260 1.279 . S
O256 Cd253 2.297 . S
O256 C258 1.247 . S
O257 Cd253 2.439 . S
O257 C258 1.208 . S
C258 O256 1.247 . S
C258 O257 1.208 . S
C259 O264 1.247 . S
C259 O265 1.208 . S
C260 O252 1.315 . S
C260 O255 1.279 . S
C261 O262 1.315 . S
C261 O263 1.279 . S
O262 Cd254 2.223 . S
O262 C261 1.315 . S
O263 Cd253 2.240 . S
O263 C261 1.279 . S
O264 Cd254 2.297 . S
O264 C259 1.247 . S
O265 Cd254 2.439 . S
O265 C259 1.208 . S
O266 Cd267 2.223 . S
O266 C274 1.315 . S
Cd267 O266 2.223 . S
Cd267 O270 2.297 . S
Cd267 O271 2.439 . S
Cd267 O277 2.240 . S
Cd268 O269 2.240 . S
Cd268 O276 2.223 . S
Cd268 O278 2.297 . S
Cd268 O279 2.439 . S
O269 Cd268 2.240 . S
O269 C274 1.279 . S
O270 Cd267 2.297 . S
O270 C272 1.247 . S
O271 Cd267 2.439 . S
O271 C272 1.208 . S
C272 O270 1.247 . S
C272 O271 1.208 . S
C273 O278 1.247 . S
C273 O279 1.208 . S
C274 O266 1.315 . S
C274 O269 1.279 . S
C275 O276 1.315 . S
C275 O277 1.279 . S
O276 Cd268 2.223 . S
O276 C275 1.315 . S
O277 Cd267 2.240 . S
O277 C275 1.279 . S
O278 Cd268 2.297 . S
O278 C273 1.247 . S
O279 Cd268 2.439 . S
O279 C273 1.208 . S
O280 Cd281 2.223 . S
O280 C288 1.315 . S
Cd281 O280 2.223 . S
Cd281 O284 2.297 . S
Cd281 O285 2.439 . S
Cd281 O291 2.240 . S
Cd282 O283 2.240 . S
Cd282 O290 2.223 . S
Cd282 O292 2.297 . S
Cd282 O293 2.439 . S
O283 Cd282 2.240 . S
O283 C288 1.279 . S
O284 Cd281 2.297 . S
O284 C286 1.247 . S
O285 Cd281 2.439 . S
O285 C286 1.208 . S
C286 O284 1.247 . S
C286 O285 1.208 . S
C287 O292 1.247 . S
C287 O293 1.208 . S
C288 O280 1.315 . S
C288 O283 1.279 . S
C289 O290 1.315 . S
C289 O291 1.279 . S
O290 Cd282 2.223 . S
O290 C289 1.315 . S
O291 Cd281 2.240 . S
O291 C289 1.279 . S
O292 Cd282 2.297 . S
O292 C287 1.247 . S
O293 Cd282 2.439 . S
O293 C287 1.208 . S
O294 Cd295 2.223 . S
O294 C302 1.315 . S
Cd295 O294 2.223 . S
Cd295 O298 2.297 . S
Cd295 O299 2.439 . S
Cd295 O305 2.240 . S
Cd296 O297 2.240 . S
Cd296 O304 2.223 . S
Cd296 O306 2.297 . S
Cd296 O307 2.439 . S
O297 Cd296 2.240 . S
O297 C302 1.279 . S
O298 Cd295 2.297 . S
O298 C300 1.247 . S
O299 Cd295 2.439 . S
O299 C300 1.208 . S
C300 O298 1.247 . S
C300 O299 1.208 . S
C301 O306 1.247 . S
C301 O307 1.208 . S
C302 O294 1.315 . S
C302 O297 1.279 . S
C303 O304 1.315 . S
C303 O305 1.279 . S
O304 Cd296 2.223 . S
O304 C303 1.315 . S
O305 Cd295 2.240 . S
O305 C303 1.279 . S
O306 Cd296 2.297 . S
O306 C301 1.247 . S
O307 Cd296 2.439 . S
O307 C301 1.208 . S
O308 Cd309 2.223 . S
O308 C316 1.315 . S
Cd309 O308 2.223 . S
Cd309 O312 2.297 . S
Cd309 O313 2.439 . S
Cd309 O319 2.240 . S
Cd310 O311 2.240 . S
Cd310 O318 2.223 . S
Cd310 O320 2.297 . S
Cd310 O321 2.439 . S
O311 Cd310 2.240 . S
O311 C316 1.279 . S
O312 Cd309 2.297 . S
O312 C314 1.247 . S
O313 Cd309 2.439 . S
O313 C314 1.208 . S
C314 O312 1.247 . S
C314 O313 1.208 . S
C315 O320 1.247 . S
C315 O321 1.208 . S
C316 O308 1.315 . S
C316 O311 1.279 . S
C317 O318 1.315 . S
C317 O319 1.279 . S
O318 Cd310 2.223 . S
O318 C317 1.315 . S
O319 Cd309 2.240 . S
O319 C317 1.279 . S
O320 Cd310 2.297 . S
O320 C315 1.247 . S
O321 Cd310 2.439 . S
O321 C315 1.208 . S
O322 Cd323 2.223 . S
O322 C330 1.315 . S
Cd323 O322 2.223 . S
Cd323 O326 2.297 . S
Cd323 O327 2.439 . S
Cd323 O333 2.240 . S
Cd324 O325 2.240 . S
Cd324 O332 2.223 . S
Cd324 O334 2.297 . S
Cd324 O335 2.439 . S
O325 Cd324 2.240 . S
O325 C330 1.279 . S
O326 Cd323 2.297 . S
O326 C328 1.247 . S
O327 Cd323 2.439 . S
O327 C328 1.208 . S
C328 O326 1.247 . S
C328 O327 1.208 . S
C329 O334 1.247 . S
C329 O335 1.208 . S
C330 O322 1.315 . S
C330 O325 1.279 . S
C331 O332 1.315 . S
C331 O333 1.279 . S
O332 Cd324 2.223 . S
O332 C331 1.315 . S
O333 Cd323 2.240 . S
O333 C331 1.279 . S
O334 Cd324 2.297 . S
O334 C329 1.247 . S
O335 Cd324 2.439 . S
O335 C329 1.208 . S
O336 Cd337 2.223 . S
O336 C344 1.315 . S
Cd337 O336 2.223 . S
Cd337 O340 2.297 . S
Cd337 O341 2.439 . S
Cd337 O347 2.240 . S
Cd338 O339 2.240 . S
Cd338 O346 2.223 . S
Cd338 O348 2.297 . S
Cd338 O349 2.439 . S
O339 Cd338 2.240 . S
O339 C344 1.279 . S
O340 Cd337 2.297 . S
O340 C342 1.247 . S
O341 Cd337 2.439 . S
O341 C342 1.208 . S
C342 O340 1.247 . S
C342 O341 1.208 . S
C343 O348 1.247 . S
C343 O349 1.208 . S
C344 O336 1.315 . S
C344 O339 1.279 . S
C345 O346 1.315 . S
C345 O347 1.279 . S
O346 Cd338 2.223 . S
O346 C345 1.315 . S
O347 Cd337 2.240 . S
O347 C345 1.279 . S
O348 Cd338 2.297 . S
O348 C343 1.247 . S
O349 Cd338 2.439 . S
O349 C343 1.208 . S
O350 Cd351 2.223 . S
O350 C358 1.315 . S
Cd351 O350 2.223 . S
Cd351 O354 2.297 . S
Cd351 O355 2.439 . S
Cd351 O361 2.240 . S
Cd352 O353 2.240 . S
Cd352 O360 2.223 . S
Cd352 O362 2.297 . S
Cd352 O363 2.439 . S
O353 Cd352 2.240 . S
O353 C358 1.279 . S
O354 Cd351 2.297 . S
O354 C356 1.247 . S
O355 Cd351 2.439 . S
O355 C356 1.208 . S
C356 O354 1.247 . S
C356 O355 1.208 . S
C357 O362 1.247 . S
C357 O363 1.208 . S
C358 O350 1.315 . S
C358 O353 1.279 . S
C359 O360 1.315 . S
C359 O361 1.279 . S
O360 Cd352 2.223 . S
O360 C359 1.315 . S
O361 Cd351 2.240 . S
O361 C359 1.279 . S
O362 Cd352 2.297 . S
O362 C357 1.247 . S
O363 Cd352 2.439 . S
O363 C357 1.208 . S
O364 Cd365 2.223 1_554 S
O364 C372 1.315 1_554 S
Cd365 O364 2.223 1_556 S
Cd365 O368 2.297 . S
Cd365 O369 2.439 . S
Cd365 O375 2.240 1_556 S
Cd366 O367 2.240 . S
Cd366 O374 2.223 1_556 S
Cd366 O376 2.297 1_556 S
Cd366 O377 2.439 . S
O367 Cd366 2.240 . S
O367 C372 1.279 . S
O368 Cd365 2.297 . S
O368 C370 1.247 . S
O369 Cd365 2.439 . S
O369 C370 1.208 . S
C370 O368 1.247 . S
C370 O369 1.208 . S
C371 O376 1.247 1_556 S
C371 O377 1.208 . S
C372 O364 1.315 1_556 S
C372 O367 1.279 . S
C373 O374 1.315 . S
C373 O375 1.279 . S
O374 Cd366 2.223 1_554 S
O374 C373 1.315 . S
O375 Cd365 2.240 1_554 S
O375 C373 1.279 . S
O376 Cd366 2.297 1_554 S
O376 C371 1.247 1_554 S
O377 Cd366 2.439 . S
O377 C371 1.208 . S
O378 Cd379 2.223 1_554 S
O378 C386 1.315 1_554 S
Cd379 O378 2.223 1_556 S
Cd379 O382 2.297 . S
Cd379 O383 2.439 . S
Cd379 O389 2.240 1_556 S
Cd380 O381 2.240 . S
Cd380 O388 2.223 1_556 S
Cd380 O390 2.297 1_556 S
Cd380 O391 2.439 . S
O381 Cd380 2.240 . S
O381 C386 1.279 . S
O382 Cd379 2.297 . S
O382 C384 1.247 . S
O383 Cd379 2.439 . S
O383 C384 1.208 . S
C384 O382 1.247 . S
C384 O383 1.208 . S
C385 O390 1.247 1_556 S
C385 O391 1.208 . S
C386 O378 1.315 1_556 S
C386 O381 1.279 . S
C387 O388 1.315 . S
C387 O389 1.279 . S
O388 Cd380 2.223 1_554 S
O388 C387 1.315 . S
O389 Cd379 2.240 1_554 S
O389 C387 1.279 . S
O390 Cd380 2.297 1_554 S
O390 C385 1.247 1_554 S
O391 Cd380 2.439 . S
O391 C385 1.208 . S
O392 Cd393 2.223 . S
O392 C400 1.315 . S
Cd393 O392 2.223 . S
Cd393 O396 2.297 . S
Cd393 O397 2.439 . S
Cd393 O403 2.240 . S
Cd394 O395 2.240 . S
Cd394 O402 2.223 . S
Cd394 O404 2.297 . S
Cd394 O405 2.439 . S
O395 Cd394 2.240 . S
O395 C400 1.279 . S
O396 Cd393 2.297 . S
O396 C398 1.247 . S
O397 Cd393 2.439 . S
O397 C398 1.208 . S
C398 O396 1.247 . S
C398 O397 1.208 . S
C399 O404 1.247 . S
C399 O405 1.208 . S
C400 O392 1.315 . S
C400 O395 1.279 . S
C401 O402 1.315 . S
C401 O403 1.279 . S
O402 Cd394 2.223 . S
O402 C401 1.315 . S
O403 Cd393 2.240 . S
O403 C401 1.279 . S
O404 Cd394 2.297 . S
O404 C399 1.247 . S
O405 Cd394 2.439 . S
O405 C399 1.208 . S
O406 Cd407 2.223 . S
O406 C414 1.315 . S
Cd407 O406 2.223 . S
Cd407 O410 2.297 . S
Cd407 O411 2.439 . S
Cd407 O417 2.240 . S
Cd408 O409 2.240 . S
Cd408 O416 2.223 . S
Cd408 O418 2.297 . S
Cd408 O419 2.439 . S
O409 Cd408 2.240 . S
O409 C414 1.279 . S
O410 Cd407 2.297 . S
O410 C412 1.247 . S
O411 Cd407 2.439 . S
O411 C412 1.208 . S
C412 O410 1.247 . S
C412 O411 1.208 . S
C413 O418 1.247 . S
C413 O419 1.208 . S
C414 O406 1.315 . S
C414 O409 1.279 . S
C415 O416 1.315 . S
C415 O417 1.279 . S
O416 Cd408 2.223 . S
O416 C415 1.315 . S
O417 Cd407 2.240 . S
O417 C415 1.279 . S
O418 Cd408 2.297 . S
O418 C413 1.247 . S
O419 Cd408 2.439 . S
O419 C413 1.208 . S
O420 Cd421 2.223 1_556 S
O420 C428 1.315 1_556 S
Cd421 O420 2.223 1_554 S
Cd421 O424 2.297 . S
Cd421 O425 2.439 . S
Cd421 O431 2.240 1_554 S
Cd422 O423 2.240 . S
Cd422 O430 2.223 1_554 S
Cd422 O432 2.297 1_554 S
Cd422 O433 2.439 . S
O423 Cd422 2.240 . S
O423 C428 1.279 . S
O424 Cd421 2.297 . S
O424 C426 1.247 . S
O425 Cd421 2.439 . S
O425 C426 1.208 . S
C426 O424 1.247 . S
C426 O425 1.208 . S
C427 O432 1.247 1_554 S
C427 O433 1.208 . S
C428 O420 1.315 1_554 S
C428 O423 1.279 . S
C429 O430 1.315 . S
C429 O431 1.279 . S
O430 Cd422 2.223 1_556 S
O430 C429 1.315 . S
O431 Cd421 2.240 1_556 S
O431 C429 1.279 . S
O432 Cd422 2.297 1_556 S
O432 C427 1.247 1_556 S
O433 Cd422 2.439 . S
O433 C427 1.208 . S
O434 Cd435 2.223 1_556 S
O434 C442 1.315 1_556 S
Cd435 O434 2.223 1_554 S
Cd435 O438 2.297 . S
Cd435 O439 2.439 . S
Cd435 O445 2.240 1_554 S
Cd436 O437 2.240 . S
Cd436 O444 2.223 1_554 S
Cd436 O446 2.297 1_554 S
Cd436 O447 2.439 . S
O437 Cd436 2.240 . S
O437 C442 1.279 . S
O438 Cd435 2.297 . S
O438 C440 1.247 . S
O439 Cd435 2.439 . S
O439 C440 1.208 . S
C440 O438 1.247 . S
C440 O439 1.208 . S
C441 O446 1.247 1_554 S
C441 O447 1.208 . S
C442 O434 1.315 1_554 S
C442 O437 1.279 . S
C443 O444 1.315 . S
C443 O445 1.279 . S
O444 Cd436 2.223 1_556 S
O444 C443 1.315 . S
O445 Cd435 2.240 1_556 S
O445 C443 1.279 . S
O446 Cd436 2.297 1_556 S
O446 C441 1.247 1_556 S
O447 Cd436 2.439 . S
O447 C441 1.208 . S
H448 C454 0.930 . S
H449 C458 0.930 . S
H450 C463 0.929 . S
H451 C461 0.929 . S
H452 C456 0.929 . S
H453 C462 0.929 . S
C454 H448 0.930 . S
C454 C455 1.367 . S
C454 C462 1.378 . S
C455 C454 1.367 . S
C455 C463 1.433 . S
C456 H452 0.929 . S
C456 C458 1.378 . S
C456 C460 1.350 . S
C457 C460 1.463 . S
C457 C462 1.350 . S
C457 N465 1.427 . S
C458 H449 0.930 . S
C458 C456 1.378 . S
C458 C459 1.367 . S
C459 C458 1.367 . S
C459 C461 1.433 . S
C460 C456 1.350 . S
C460 C457 1.463 . S
C460 N464 1.427 . S
C461 H451 0.929 . S
C461 C459 1.433 . S
C461 N464 1.384 . S
C462 H453 0.929 . S
C462 C454 1.378 . S
C462 C457 1.350 . S
C463 H450 0.929 . S
C463 C455 1.433 . S
C463 N465 1.384 . S
N464 C460 1.427 . S
N464 C461 1.384 . S
N465 C457 1.427 . S
N465 C463 1.384 . S
H466 C472 0.930 . S
H467 C476 0.930 . S
H468 C481 0.929 . S
H469 C479 0.929 . S
H470 C474 0.929 . S
H471 C480 0.929 . S
C472 H466 0.930 . S
C472 C473 1.367 . S
C472 C480 1.378 . S
C473 C472 1.367 . S
C473 C481 1.433 . S
C474 H470 0.929 . S
C474 C476 1.378 . S
C474 C478 1.350 . S
C475 C478 1.463 . S
C475 C480 1.350 . S
C475 N483 1.427 . S
C476 H467 0.930 . S
C476 C474 1.378 . S
C476 C477 1.367 . S
C477 C476 1.367 . S
C477 C479 1.433 . S
C478 C474 1.350 . S
C478 C475 1.463 . S
C478 N482 1.427 . S
C479 H469 0.929 . S
C479 C477 1.433 . S
C479 N482 1.384 . S
C480 H471 0.929 . S
C480 C472 1.378 . S
C480 C475 1.350 . S
C481 H468 0.929 . S
C481 C473 1.433 . S
C481 N483 1.384 . S
N482 C478 1.427 . S
N482 C479 1.384 . S
N483 C475 1.427 . S
N483 C481 1.384 . S
H484 C490 0.930 . S
H485 C494 0.930 . S
H486 C499 0.929 . S
H487 C497 0.929 . S
H488 C492 0.929 . S
H489 C498 0.929 . S
C490 H484 0.930 . S
C490 C491 1.367 . S
C490 C498 1.378 . S
C491 C490 1.367 . S
C491 C499 1.433 . S
C492 H488 0.929 . S
C492 C494 1.378 . S
C492 C496 1.350 . S
C493 C496 1.463 . S
C493 C498 1.350 . S
C493 N501 1.427 . S
C494 H485 0.930 . S
C494 C492 1.378 . S
C494 C495 1.367 . S
C495 C494 1.367 . S
C495 C497 1.433 . S
C496 C492 1.350 . S
C496 C493 1.463 . S
C496 N500 1.427 . S
C497 H487 0.929 . S
C497 C495 1.433 . S
C497 N500 1.384 . S
C498 H489 0.929 . S
C498 C490 1.378 . S
C498 C493 1.350 . S
C499 H486 0.929 . S
C499 C491 1.433 . S
C499 N501 1.384 . S
N500 C496 1.427 . S
N500 C497 1.384 . S
N501 C493 1.427 . S
N501 C499 1.384 . S
H502 C508 0.930 . S
H503 C512 0.930 . S
H504 C517 0.929 . S
H505 C515 0.929 . S
H506 C510 0.929 . S
H507 C516 0.929 . S
C508 H502 0.930 . S
C508 C509 1.367 . S
C508 C516 1.378 . S
C509 C508 1.367 . S
C509 C517 1.433 . S
C510 H506 0.929 . S
C510 C512 1.378 . S
C510 C514 1.350 . S
C511 C514 1.463 . S
C511 C516 1.350 . S
C511 N519 1.427 . S
C512 H503 0.930 . S
C512 C510 1.378 . S
C512 C513 1.367 . S
C513 C512 1.367 . S
C513 C515 1.433 . S
C514 C510 1.350 . S
C514 C511 1.463 . S
C514 N518 1.427 . S
C515 H505 0.929 . S
C515 C513 1.433 . S
C515 N518 1.384 . S
C516 H507 0.929 . S
C516 C508 1.378 . S
C516 C511 1.350 . S
C517 H504 0.929 . S
C517 C509 1.433 . S
C517 N519 1.384 . S
N518 C514 1.427 . S
N518 C515 1.384 . S
N519 C511 1.427 . S
N519 C517 1.384 . S
H520 C526 0.930 . S
H521 C530 0.930 . S
H522 C535 0.929 . S
H523 C533 0.929 . S
H524 C528 0.929 . S
H525 C534 0.929 . S
C526 H520 0.930 . S
C526 C527 1.367 . S
C526 C534 1.378 . S
C527 C526 1.367 . S
C527 C535 1.433 . S
C528 H524 0.929 . S
C528 C530 1.378 . S
C528 C532 1.350 . S
C529 C532 1.463 . S
C529 C534 1.350 . S
C529 N537 1.427 . S
C530 H521 0.930 . S
C530 C528 1.378 . S
C530 C531 1.367 . S
C531 C530 1.367 . S
C531 C533 1.433 . S
C532 C528 1.350 . S
C532 C529 1.463 . S
C532 N536 1.427 . S
C533 H523 0.929 . S
C533 C531 1.433 . S
C533 N536 1.384 . S
C534 H525 0.929 . S
C534 C526 1.378 . S
C534 C529 1.350 . S
C535 H522 0.929 . S
C535 C527 1.433 . S
C535 N537 1.384 . S
N536 C532 1.427 . S
N536 C533 1.384 . S
N537 C529 1.427 . S
N537 C535 1.384 . S
H538 C544 0.930 . S
H539 C548 0.930 . S
H540 C553 0.929 . S
H541 C551 0.929 . S
H542 C546 0.929 . S
H543 C552 0.929 . S
C544 H538 0.930 . S
C544 C545 1.367 . S
C544 C552 1.378 . S
C545 C544 1.367 . S
C545 C553 1.433 . S
C546 H542 0.929 . S
C546 C548 1.378 . S
C546 C550 1.350 . S
C547 C550 1.463 . S
C547 C552 1.350 . S
C547 N555 1.427 . S
C548 H539 0.930 . S
C548 C546 1.378 . S
C548 C549 1.367 . S
C549 C548 1.367 . S
C549 C551 1.433 . S
C550 C546 1.350 . S
C550 C547 1.463 . S
C550 N554 1.427 . S
C551 H541 0.929 . S
C551 C549 1.433 . S
C551 N554 1.384 . S
C552 H543 0.929 . S
C552 C544 1.378 . S
C552 C547 1.350 . S
C553 H540 0.929 . S
C553 C545 1.433 . S
C553 N555 1.384 . S
N554 C550 1.427 . S
N554 C551 1.384 . S
N555 C547 1.427 . S
N555 C553 1.384 . S
H556 C562 0.930 . S
H557 C566 0.930 . S
H558 C571 0.929 . S
H559 C569 0.929 . S
H560 C564 0.929 . S
H561 C570 0.929 . S
C562 H556 0.930 . S
C562 C563 1.367 . S
C562 C570 1.378 . S
C563 C562 1.367 . S
C563 C571 1.433 . S
C564 H560 0.929 . S
C564 C566 1.378 . S
C564 C568 1.350 . S
C565 C568 1.463 . S
C565 C570 1.350 . S
C565 N573 1.427 . S
C566 H557 0.930 . S
C566 C564 1.378 . S
C566 C567 1.367 . S
C567 C566 1.367 . S
C567 C569 1.433 . S
C568 C564 1.350 . S
C568 C565 1.463 . S
C568 N572 1.427 . S
C569 H559 0.929 . S
C569 C567 1.433 . S
C569 N572 1.384 . S
C570 H561 0.929 . S
C570 C562 1.378 . S
C570 C565 1.350 . S
C571 H558 0.929 . S
C571 C563 1.433 . S
C571 N573 1.384 . S
N572 C568 1.427 . S
N572 C569 1.384 . S
N573 C565 1.427 . S
N573 C571 1.384 . S
H574 C580 0.930 . S
H575 C584 0.930 . S
H576 C589 0.929 . S
H577 C587 0.929 . S
H578 C582 0.929 . S
H579 C588 0.929 . S
C580 H574 0.930 . S
C580 C581 1.367 . S
C580 C588 1.378 . S
C581 C580 1.367 . S
C581 C589 1.433 . S
C582 H578 0.929 . S
C582 C584 1.378 . S
C582 C586 1.350 . S
C583 C586 1.463 . S
C583 C588 1.350 . S
C583 N591 1.427 . S
C584 H575 0.930 . S
C584 C582 1.378 . S
C584 C585 1.367 . S
C585 C584 1.367 . S
C585 C587 1.433 . S
C586 C582 1.350 . S
C586 C583 1.463 . S
C586 N590 1.427 . S
C587 H577 0.929 . S
C587 C585 1.433 . S
C587 N590 1.384 . S
C588 H579 0.929 . S
C588 C580 1.378 . S
C588 C583 1.350 . S
C589 H576 0.929 . S
C589 C581 1.433 . S
C589 N591 1.384 . S
N590 C586 1.427 . S
N590 C587 1.384 . S
N591 C583 1.427 . S
N591 C589 1.384 . S
H592 C598 0.930 . S
H593 C602 0.930 . S
H594 C607 0.929 . S
H595 C605 0.929 . S
H596 C600 0.929 . S
H597 C606 0.929 . S
C598 H592 0.930 . S
C598 C599 1.367 . S
C598 C606 1.378 . S
C599 C598 1.367 . S
C599 C607 1.433 . S
C600 H596 0.929 . S
C600 C602 1.378 . S
C600 C604 1.350 . S
C601 C604 1.463 . S
C601 C606 1.350 . S
C601 N609 1.427 . S
C602 H593 0.930 . S
C602 C600 1.378 . S
C602 C603 1.367 . S
C603 C602 1.367 . S
C603 C605 1.433 . S
C604 C600 1.350 . S
C604 C601 1.463 . S
C604 N608 1.427 . S
C605 H595 0.929 . S
C605 C603 1.433 . S
C605 N608 1.384 . S
C606 H597 0.929 . S
C606 C598 1.378 . S
C606 C601 1.350 . S
C607 H594 0.929 . S
C607 C599 1.433 . S
C607 N609 1.384 . S
N608 C604 1.427 . S
N608 C605 1.384 . S
N609 C601 1.427 . S
N609 C607 1.384 . S
H610 C616 0.930 . S
H611 C620 0.930 . S
H612 C625 0.929 . S
H613 C623 0.929 . S
H614 C618 0.929 . S
H615 C624 0.929 . S
C616 H610 0.930 . S
C616 C617 1.367 . S
C616 C624 1.378 . S
C617 C616 1.367 . S
C617 C625 1.433 . S
C618 H614 0.929 . S
C618 C620 1.378 . S
C618 C622 1.350 . S
C619 C622 1.463 . S
C619 C624 1.350 . S
C619 N627 1.427 . S
C620 H611 0.930 . S
C620 C618 1.378 . S
C620 C621 1.367 . S
C621 C620 1.367 . S
C621 C623 1.433 . S
C622 C618 1.350 . S
C622 C619 1.463 . S
C622 N626 1.427 . S
C623 H613 0.929 . S
C623 C621 1.433 . S
C623 N626 1.384 . S
C624 H615 0.929 . S
C624 C616 1.378 . S
C624 C619 1.350 . S
C625 H612 0.929 . S
C625 C617 1.433 . S
C625 N627 1.384 . S
N626 C622 1.427 . S
N626 C623 1.384 . S
N627 C619 1.427 . S
N627 C625 1.384 . S
H628 C634 0.930 . S
H629 C638 0.930 . S
H630 C643 0.929 . S
H631 C641 0.929 . S
H632 C636 0.929 . S
H633 C642 0.929 . S
C634 H628 0.930 . S
C634 C635 1.367 . S
C634 C642 1.378 . S
C635 C634 1.367 . S
C635 C643 1.433 . S
C636 H632 0.929 . S
C636 C638 1.378 . S
C636 C640 1.350 . S
C637 C640 1.463 . S
C637 C642 1.350 . S
C637 N645 1.427 . S
C638 H629 0.930 . S
C638 C636 1.378 . S
C638 C639 1.367 . S
C639 C638 1.367 . S
C639 C641 1.433 . S
C640 C636 1.350 . S
C640 C637 1.463 . S
C640 N644 1.427 . S
C641 H631 0.929 . S
C641 C639 1.433 . S
C641 N644 1.384 . S
C642 H633 0.929 . S
C642 C634 1.378 . S
C642 C637 1.350 . S
C643 H630 0.929 . S
C643 C635 1.433 . S
C643 N645 1.384 . S
N644 C640 1.427 . S
N644 C641 1.384 . S
N645 C637 1.427 . S
N645 C643 1.384 . S
H646 C652 0.930 . S
H647 C656 0.930 . S
H648 C661 0.929 . S
H649 C659 0.929 . S
H650 C654 0.929 . S
H651 C660 0.929 . S
C652 H646 0.930 . S
C652 C653 1.367 . S
C652 C660 1.378 . S
C653 C652 1.367 . S
C653 C661 1.433 . S
C654 H650 0.929 . S
C654 C656 1.378 . S
C654 C658 1.350 . S
C655 C658 1.463 . S
C655 C660 1.350 . S
C655 N663 1.427 . S
C656 H647 0.930 . S
C656 C654 1.378 . S
C656 C657 1.367 . S
C657 C656 1.367 . S
C657 C659 1.433 . S
C658 C654 1.350 . S
C658 C655 1.463 . S
C658 N662 1.427 . S
C659 H649 0.929 . S
C659 C657 1.433 . S
C659 N662 1.384 . S
C660 H651 0.929 . S
C660 C652 1.378 . S
C660 C655 1.350 . S
C661 H648 0.929 . S
C661 C653 1.433 . S
C661 N663 1.384 . S
N662 C658 1.427 . S
N662 C659 1.384 . S
N663 C655 1.427 . S
N663 C661 1.384 . S
H664 C670 0.930 . S
H665 C674 0.930 . S
H666 C679 0.929 . S
H667 C677 0.929 . S
H668 C672 0.929 . S
H669 C678 0.929 . S
C670 H664 0.930 . S
C670 C671 1.367 . S
C670 C678 1.378 . S
C671 C670 1.367 . S
C671 C679 1.433 . S
C672 H668 0.929 . S
C672 C674 1.378 . S
C672 C676 1.350 . S
C673 C676 1.463 . S
C673 C678 1.350 . S
C673 N681 1.427 . S
C674 H665 0.930 . S
C674 C672 1.378 . S
C674 C675 1.367 . S
C675 C674 1.367 . S
C675 C677 1.433 . S
C676 C672 1.350 . S
C676 C673 1.463 . S
C676 N680 1.427 . S
C677 H667 0.929 . S
C677 C675 1.433 . S
C677 N680 1.384 . S
C678 H669 0.929 . S
C678 C670 1.378 . S
C678 C673 1.350 . S
C679 H666 0.929 . S
C679 C671 1.433 . S
C679 N681 1.384 . S
N680 C676 1.427 . S
N680 C677 1.384 . S
N681 C673 1.427 . S
N681 C679 1.384 . S
H682 C688 0.930 . S
H683 C692 0.930 . S
H684 C697 0.929 . S
H685 C695 0.929 . S
H686 C690 0.929 . S
H687 C696 0.929 . S
C688 H682 0.930 . S
C688 C689 1.367 . S
C688 C696 1.378 . S
C689 C688 1.367 . S
C689 C697 1.433 . S
C690 H686 0.929 . S
C690 C692 1.378 . S
C690 C694 1.350 . S
C691 C694 1.463 . S
C691 C696 1.350 . S
C691 N699 1.427 . S
C692 H683 0.930 . S
C692 C690 1.378 . S
C692 C693 1.367 . S
C693 C692 1.367 . S
C693 C695 1.433 . S
C694 C690 1.350 . S
C694 C691 1.463 . S
C694 N698 1.427 . S
C695 H685 0.929 . S
C695 C693 1.433 . S
C695 N698 1.384 . S
C696 H687 0.929 . S
C696 C688 1.378 . S
C696 C691 1.350 . S
C697 H684 0.929 . S
C697 C689 1.433 . S
C697 N699 1.384 . S
N698 C694 1.427 . S
N698 C695 1.384 . S
N699 C691 1.427 . S
N699 C697 1.384 . S
H700 C706 0.930 . S
H701 C710 0.930 . S
H702 C715 0.929 . S
H703 C713 0.929 . S
H704 C708 0.929 . S
H705 C714 0.929 . S
C706 H700 0.930 . S
C706 C707 1.367 . S
C706 C714 1.378 . S
C707 C706 1.367 . S
C707 C715 1.433 . S
C708 H704 0.929 . S
C708 C710 1.378 . S
C708 C712 1.350 . S
C709 C712 1.463 . S
C709 C714 1.350 . S
C709 N717 1.427 . S
C710 H701 0.930 . S
C710 C708 1.378 . S
C710 C711 1.367 . S
C711 C710 1.367 . S
C711 C713 1.433 . S
C712 C708 1.350 . S
C712 C709 1.463 . S
C712 N716 1.427 . S
C713 H703 0.929 . S
C713 C711 1.433 . S
C713 N716 1.384 . S
C714 H705 0.929 . S
C714 C706 1.378 . S
C714 C709 1.350 . S
C715 H702 0.929 . S
C715 C707 1.433 . S
C715 N717 1.384 . S
N716 C712 1.427 . S
N716 C713 1.384 . S
N717 C709 1.427 . S
N717 C715 1.384 . S
H718 C724 0.930 . S
H719 C728 0.930 . S
H720 C733 0.929 . S
H721 C731 0.929 . S
H722 C726 0.929 . S
H723 C732 0.929 . S
C724 H718 0.930 . S
C724 C725 1.367 . S
C724 C732 1.378 . S
C725 C724 1.367 . S
C725 C733 1.433 . S
C726 H722 0.929 . S
C726 C728 1.378 . S
C726 C730 1.350 . S
C727 C730 1.463 . S
C727 C732 1.350 . S
C727 N735 1.427 . S
C728 H719 0.930 . S
C728 C726 1.378 . S
C728 C729 1.367 . S
C729 C728 1.367 . S
C729 C731 1.433 . S
C730 C726 1.350 . S
C730 C727 1.463 . S
C730 N734 1.427 . S
C731 H721 0.929 . S
C731 C729 1.433 . S
C731 N734 1.384 . S
C732 H723 0.929 . S
C732 C724 1.378 . S
C732 C727 1.350 . S
C733 H720 0.929 . S
C733 C725 1.433 . S
C733 N735 1.384 . S
N734 C730 1.427 . S
N734 C731 1.384 . S
N735 C727 1.427 . S
N735 C733 1.384 . S
H736 C742 0.930 . S
H737 C746 0.930 . S
H738 C751 0.929 . S
H739 C749 0.929 . S
H740 C744 0.929 . S
H741 C750 0.929 . S
C742 H736 0.930 . S
C742 C743 1.367 . S
C742 C750 1.378 . S
C743 C742 1.367 . S
C743 C751 1.433 . S
C744 H740 0.929 . S
C744 C746 1.378 . S
C744 C748 1.350 . S
C745 C748 1.463 1_565 S
C745 C750 1.350 . S
C745 N753 1.427 . S
C746 H737 0.930 . S
C746 C744 1.378 . S
C746 C747 1.367 . S
C747 C746 1.367 . S
C747 C749 1.433 . S
C748 C744 1.350 . S
C748 C745 1.463 1_545 S
C748 N752 1.427 . S
C749 H739 0.929 . S
C749 C747 1.433 . S
C749 N752 1.384 . S
C750 H741 0.929 . S
C750 C742 1.378 . S
C750 C745 1.350 . S
C751 H738 0.929 . S
C751 C743 1.433 . S
C751 N753 1.384 . S
N752 C748 1.427 . S
N752 C749 1.384 . S
N753 C745 1.427 . S
N753 C751 1.384 . S
H754 C760 0.930 . S
H755 C764 0.930 . S
H756 C769 0.929 . S
H757 C767 0.929 . S
H758 C762 0.929 1_655 S
H759 C768 0.929 1_455 S
C760 H754 0.930 . S
C760 C761 1.367 . S
C760 C768 1.378 . S
C761 C760 1.367 . S
C761 C769 1.433 . S
C762 H758 0.929 1_455 S
C762 C764 1.378 . S
C762 C766 1.350 . S
C763 C766 1.463 1_655 S
C763 C768 1.350 . S
C763 N771 1.427 . S
C764 H755 0.930 . S
C764 C762 1.378 . S
C764 C765 1.367 . S
C765 C764 1.367 . S
C765 C767 1.433 . S
C766 C762 1.350 . S
C766 C763 1.463 1_455 S
C766 N770 1.427 . S
C767 H757 0.929 . S
C767 C765 1.433 . S
C767 N770 1.384 . S
C768 H759 0.929 1_655 S
C768 C760 1.378 . S
C768 C763 1.350 . S
C769 H756 0.929 . S
C769 C761 1.433 . S
C769 N771 1.384 . S
N770 C766 1.427 . S
N770 C767 1.384 . S
N771 C763 1.427 . S
N771 C769 1.384 . S
H772 C778 0.930 . S
H773 C782 0.930 . S
H774 C787 0.929 . S
H775 C785 0.929 . S
H776 C780 0.929 . S
H777 C786 0.929 . S
C778 H772 0.930 . S
C778 C779 1.367 1_554 S
C778 C786 1.378 . S
C779 C778 1.367 1_556 S
C779 C787 1.433 . S
C780 H776 0.929 . S
C780 C782 1.378 . S
C780 C784 1.350 1_556 S
C781 C784 1.463 1_556 S
C781 C786 1.350 1_556 S
C781 N789 1.427 . S
C782 H773 0.930 . S
C782 C780 1.378 . S
C782 C783 1.367 1_556 S
C783 C782 1.367 1_554 S
C783 C785 1.433 . S
C784 C780 1.350 1_554 S
C784 C781 1.463 1_554 S
C784 N788 1.427 . S
C785 H775 0.929 . S
C785 C783 1.433 . S
C785 N788 1.384 . S
C786 H777 0.929 . S
C786 C778 1.378 . S
C786 C781 1.350 1_554 S
C787 H774 0.929 . S
C787 C779 1.433 . S
C787 N789 1.384 . S
N788 C784 1.427 . S
N788 C785 1.384 . S
N789 C781 1.427 . S
N789 C787 1.384 . S
H790 C796 0.926 1_654 S
H791 C800 0.926 1_456 S
H792 C805 0.929 . S
H793 C803 0.929 . S
H794 C798 0.929 . S
H795 C804 0.929 . S
C796 H790 0.926 1_456 S
C796 C797 1.375 . S
C796 C804 1.374 1_456 S
C797 C796 1.375 . S
C797 C805 1.433 . S
C798 H794 0.929 . S
C798 C800 1.374 1_456 S
C798 C802 1.350 1_456 S
C799 C802 1.463 1_446 S
C799 C804 1.350 1_456 S
C799 N807 1.427 . S
C800 H791 0.926 1_654 S
C800 C798 1.374 1_654 S
C800 C801 1.375 . S
C801 C800 1.375 . S
C801 C803 1.433 . S
C802 C798 1.350 1_654 S
C802 C799 1.463 1_664 S
C802 N806 1.427 . S
C803 H793 0.929 . S
C803 C801 1.433 . S
C803 N806 1.384 . S
C804 H795 0.929 . S
C804 C796 1.374 1_654 S
C804 C799 1.350 1_654 S
C805 H792 0.929 . S
C805 C797 1.433 . S
C805 N807 1.384 . S
N806 C802 1.427 . S
N806 C803 1.384 . S
N807 C799 1.427 . S
N807 C805 1.384 . S
H808 C814 0.930 . S
H809 C818 0.930 . S
H810 C823 0.929 . S
H811 C821 0.929 . S
H812 C816 0.929 . S
H813 C822 0.929 . S
C814 H808 0.930 . S
C814 C815 1.367 . S
C814 C822 1.378 . S
C815 C814 1.367 . S
C815 C823 1.433 . S
C816 H812 0.929 . S
C816 C818 1.378 . S
C816 C820 1.350 . S
C817 C820 1.463 1_545 S
C817 C822 1.350 . S
C817 N825 1.427 . S
C818 H809 0.930 . S
C818 C816 1.378 . S
C818 C819 1.367 . S
C819 C818 1.367 . S
C819 C821 1.433 . S
C820 C816 1.350 . S
C820 C817 1.463 1_565 S
C820 N824 1.427 . S
C821 H811 0.929 . S
C821 C819 1.433 . S
C821 N824 1.384 . S
C822 H813 0.929 . S
C822 C814 1.378 . S
C822 C817 1.350 . S
C823 H810 0.929 . S
C823 C815 1.433 . S
C823 N825 1.384 . S
N824 C820 1.427 . S
N824 C821 1.384 . S
N825 C817 1.427 . S
N825 C823 1.384 . S
H826 C832 0.930 . S
H827 C836 0.930 . S
H828 C841 0.929 . S
H829 C839 0.929 . S
H830 C834 0.929 . S
H831 C840 0.929 . S
C832 H826 0.930 . S
C832 C833 1.367 . S
C832 C840 1.378 . S
C833 C832 1.367 . S
C833 C841 1.433 . S
C834 H830 0.929 . S
C834 C836 1.378 . S
C834 C838 1.350 . S
C835 C838 1.463 1_455 S
C835 C840 1.350 . S
C835 N843 1.427 . S
C836 H827 0.930 . S
C836 C834 1.378 . S
C836 C837 1.367 . S
C837 C836 1.367 . S
C837 C839 1.433 . S
C838 C834 1.350 . S
C838 C835 1.463 1_655 S
C838 N842 1.427 . S
C839 H829 0.929 . S
C839 C837 1.433 . S
C839 N842 1.384 . S
C840 H831 0.929 . S
C840 C832 1.378 . S
C840 C835 1.350 . S
C841 H828 0.929 . S
C841 C833 1.433 . S
C841 N843 1.384 . S
N842 C838 1.427 . S
N842 C839 1.384 . S
N843 C835 1.427 . S
N843 C841 1.384 . S
H844 C850 0.930 . S
H845 C854 0.930 . S
H846 C859 0.929 . S
H847 C857 0.929 . S
H848 C852 0.929 . S
H849 C858 0.929 . S
C850 H844 0.930 . S
C850 C851 1.367 . S
C850 C858 1.378 . S
C851 C850 1.367 . S
C851 C859 1.433 1_556 S
C852 H848 0.929 . S
C852 C854 1.378 . S
C852 C856 1.350 . S
C853 C856 1.463 1_556 S
C853 C858 1.350 . S
C853 N861 1.427 1_556 S
C854 H845 0.930 . S
C854 C852 1.378 . S
C854 C855 1.367 . S
C855 C854 1.367 . S
C855 C857 1.433 1_554 S
C856 C852 1.350 . S
C856 C853 1.463 1_554 S
C856 N860 1.427 1_554 S
C857 H847 0.929 . S
C857 C855 1.433 1_556 S
C857 N860 1.384 . S
C858 H849 0.929 . S
C858 C850 1.378 . S
C858 C853 1.350 . S
C859 H846 0.929 . S
C859 C851 1.433 1_554 S
C859 N861 1.384 . S
N860 C856 1.427 1_556 S
N860 C857 1.384 . S
N861 C853 1.427 1_554 S
N861 C859 1.384 . S
H862 C868 0.930 . S
H863 C872 0.930 . S
H864 C877 0.929 . S
H865 C875 0.929 . S
H866 C870 0.929 . S
H867 C876 0.929 . S
C868 H862 0.930 . S
C868 C869 1.367 . S
C868 C876 1.378 . S
C869 C868 1.367 . S
C869 C877 1.433 . S
C870 H866 0.929 . S
C870 C872 1.378 . S
C870 C874 1.350 . S
C871 C874 1.463 . S
C871 C876 1.350 . S
C871 N879 1.427 . S
C872 H863 0.930 . S
C872 C870 1.378 . S
C872 C873 1.367 . S
C873 C872 1.367 . S
C873 C875 1.433 . S
C874 C870 1.350 . S
C874 C871 1.463 . S
C874 N878 1.427 . S
C875 H865 0.929 . S
C875 C873 1.433 . S
C875 N878 1.384 . S
C876 H867 0.929 . S
C876 C868 1.378 . S
C876 C871 1.350 . S
C877 H864 0.929 . S
C877 C869 1.433 . S
C877 N879 1.384 . S
N878 C874 1.427 . S
N878 C875 1.384 . S
N879 C871 1.427 . S
N879 C877 1.384 . S
H880 C886 0.930 . S
H881 C890 0.930 . S
H882 C895 0.929 . S
H883 C893 0.929 . S
H884 C888 0.929 . S
H885 C894 0.929 . S
C886 H880 0.930 . S
C886 C887 1.367 . S
C886 C894 1.378 . S
C887 C886 1.367 . S
C887 C895 1.433 . S
C888 H884 0.929 . S
C888 C890 1.378 . S
C888 C892 1.350 . S
C889 C892 1.463 . S
C889 C894 1.350 . S
C889 N897 1.427 . S
C890 H881 0.930 . S
C890 C888 1.378 . S
C890 C891 1.367 . S
C891 C890 1.367 . S
C891 C893 1.433 . S
C892 C888 1.350 . S
C892 C889 1.463 . S
C892 N896 1.427 . S
C893 H883 0.929 . S
C893 C891 1.433 . S
C893 N896 1.384 . S
C894 H885 0.929 . S
C894 C886 1.378 . S
C894 C889 1.350 . S
C895 H882 0.929 . S
C895 C887 1.433 . S
C895 N897 1.384 . S
N896 C892 1.427 . S
N896 C893 1.384 . S
N897 C889 1.427 . S
N897 C895 1.384 . S
H898 C904 0.930 . S
H899 C908 0.930 . S
H900 C913 0.929 . S
H901 C911 0.929 . S
H902 C906 0.929 . S
H903 C912 0.929 . S
C904 H898 0.930 . S
C904 C905 1.367 . S
C904 C912 1.378 . S
C905 C904 1.367 . S
C905 C913 1.433 . S
C906 H902 0.929 . S
C906 C908 1.378 . S
C906 C910 1.350 . S
C907 C910 1.463 1_655 S
C907 C912 1.350 . S
C907 N915 1.427 . S
C908 H899 0.930 . S
C908 C906 1.378 . S
C908 C909 1.367 . S
C909 C908 1.367 . S
C909 C911 1.433 . S
C910 C906 1.350 . S
C910 C907 1.463 1_455 S
C910 N914 1.427 . S
C911 H901 0.929 . S
C911 C909 1.433 . S
C911 N914 1.384 . S
C912 H903 0.929 . S
C912 C904 1.378 . S
C912 C907 1.350 . S
C913 H900 0.929 . S
C913 C905 1.433 . S
C913 N915 1.384 . S
N914 C910 1.427 . S
N914 C911 1.384 . S
N915 C907 1.427 . S
N915 C913 1.384 . S
H916 C922 0.930 . S
H917 C926 0.930 . S
H918 C931 0.929 . S
H919 C929 0.929 . S
H920 C924 0.929 . S
H921 C930 0.929 . S
C922 H916 0.930 . S
C922 C923 1.367 . S
C922 C930 1.378 . S
C923 C922 1.367 . S
C923 C931 1.433 . S
C924 H920 0.929 . S
C924 C926 1.378 . S
C924 C928 1.350 . S
C925 C928 1.463 . S
C925 C930 1.350 . S
C925 N933 1.427 . S
C926 H917 0.930 . S
C926 C924 1.378 . S
C926 C927 1.367 . S
C927 C926 1.367 . S
C927 C929 1.433 . S
C928 C924 1.350 . S
C928 C925 1.463 . S
C928 N932 1.427 . S
C929 H919 0.929 . S
C929 C927 1.433 . S
C929 N932 1.384 . S
C930 H921 0.929 . S
C930 C922 1.378 . S
C930 C925 1.350 . S
C931 H918 0.929 . S
C931 C923 1.433 . S
C931 N933 1.384 . S
N932 C928 1.427 . S
N932 C929 1.384 . S
N933 C925 1.427 . S
N933 C931 1.384 . S
H934 C940 0.930 . S
H935 C944 0.930 . S
H936 C949 0.929 . S
H937 C947 0.929 . S
H938 C942 0.929 . S
H939 C948 0.929 . S
C940 H934 0.930 . S
C940 C941 1.367 . S
C940 C948 1.378 . S
C941 C940 1.367 . S
C941 C949 1.433 . S
C942 H938 0.929 . S
C942 C944 1.378 . S
C942 C946 1.350 . S
C943 C946 1.463 . S
C943 C948 1.350 . S
C943 N951 1.427 . S
C944 H935 0.930 . S
C944 C942 1.378 . S
C944 C945 1.367 . S
C945 C944 1.367 . S
C945 C947 1.433 . S
C946 C942 1.350 . S
C946 C943 1.463 . S
C946 N950 1.427 . S
C947 H937 0.929 . S
C947 C945 1.433 . S
C947 N950 1.384 . S
C948 H939 0.929 . S
C948 C940 1.378 . S
C948 C943 1.350 . S
C949 H936 0.929 . S
C949 C941 1.433 . S
C949 N951 1.384 . S
N950 C946 1.427 . S
N950 C947 1.384 . S
N951 C943 1.427 . S
N951 C949 1.384 . S
H952 C958 0.930 . S
H953 C962 0.930 . S
H954 C967 0.929 . S
H955 C965 0.929 . S
H956 C960 0.929 . S
H957 C966 0.929 . S
C958 H952 0.930 . S
C958 C959 1.367 . S
C958 C966 1.378 . S
C959 C958 1.367 . S
C959 C967 1.433 . S
C960 H956 0.929 . S
C960 C962 1.378 . S
C960 C964 1.350 . S
C961 C964 1.463 . S
C961 C966 1.350 . S
C961 N969 1.427 . S
C962 H953 0.930 . S
C962 C960 1.378 . S
C962 C963 1.367 . S
C963 C962 1.367 . S
C963 C965 1.433 . S
C964 C960 1.350 . S
C964 C961 1.463 . S
C964 N968 1.427 . S
C965 H955 0.929 . S
C965 C963 1.433 . S
C965 N968 1.384 . S
C966 H957 0.929 . S
C966 C958 1.378 . S
C966 C961 1.350 . S
C967 H954 0.929 . S
C967 C959 1.433 . S
C967 N969 1.384 . S
N968 C964 1.427 . S
N968 C965 1.384 . S
N969 C961 1.427 . S
N969 C967 1.384 . S
H970 C976 0.930 . S
H971 C980 0.930 . S
H972 C985 0.929 . S
H973 C983 0.929 . S
H974 C978 0.918 1_545 S
H975 C984 0.918 1_565 S
C976 H970 0.930 . S
C976 C977 1.367 . S
C976 C984 1.378 . S
C977 C976 1.367 . S
C977 C985 1.433 . S
C978 H974 0.918 1_565 S
C978 C980 1.378 . S
C978 C982 1.350 . S
C979 C982 1.463 1_545 S
C979 C984 1.350 . S
C979 N987 1.427 . S
C980 H971 0.930 . S
C980 C978 1.378 . S
C980 C981 1.367 . S
C981 C980 1.367 . S
C981 C983 1.433 . S
C982 C978 1.350 . S
C982 C979 1.463 1_565 S
C982 N986 1.427 . S
C983 H973 0.929 . S
C983 C981 1.433 . S
C983 N986 1.384 . S
C984 H975 0.918 1_545 S
C984 C976 1.378 . S
C984 C979 1.350 . S
C985 H972 0.929 . S
C985 C977 1.433 . S
C985 N987 1.384 . S
N986 C982 1.427 . S
N986 C983 1.384 . S
N987 C979 1.427 . S
N987 C985 1.384 . S
H988 C994 0.930 . S
H989 C998 0.930 . S
H990 C1003 0.929 . S
H991 C1001 0.929 . S
H992 C996 0.929 . S
H993 C1002 0.929 . S
C994 H988 0.930 . S
C994 C995 1.367 . S
C994 C1002 1.378 . S
C995 C994 1.367 . S
C995 C1003 1.433 . S
C996 H992 0.929 . S
C996 C998 1.378 . S
C996 C1000 1.350 . S
C997 C1000 1.463 . S
C997 C1002 1.350 . S
C997 N1005 1.427 . S
C998 H989 0.930 . S
C998 C996 1.378 . S
C998 C999 1.367 . S
C999 C998 1.367 . S
C999 C1001 1.433 . S
C1000 C996 1.350 . S
C1000 C997 1.463 . S
C1000 N1004 1.427 . S
C1001 H991 0.929 . S
C1001 C999 1.433 . S
C1001 N1004 1.384 . S
C1002 H993 0.929 . S
C1002 C994 1.378 . S
C1002 C997 1.350 . S
C1003 H990 0.929 . S
C1003 C995 1.433 . S
C1003 N1005 1.384 . S
N1004 C1000 1.427 . S
N1004 C1001 1.384 . S
N1005 C997 1.427 . S
N1005 C1003 1.384 . S
H1006 C1012 0.930 . S
H1007 C1016 0.930 . S
H1008 C1021 0.929 . S
H1009 C1019 0.929 . S
H1010 C1014 0.929 . S
H1011 C1020 0.929 . S
C1012 H1006 0.930 . S
C1012 C1013 1.367 1_556 S
C1012 C1020 1.378 . S
C1013 C1012 1.367 1_554 S
C1013 C1021 1.433 . S
C1014 H1010 0.929 . S
C1014 C1016 1.378 . S
C1014 C1018 1.350 1_554 S
C1015 C1018 1.463 1_554 S
C1015 C1020 1.350 1_554 S
C1015 N1023 1.427 . S
C1016 H1007 0.930 . S
C1016 C1014 1.378 . S
C1016 C1017 1.367 1_554 S
C1017 C1016 1.367 1_556 S
C1017 C1019 1.433 . S
C1018 C1014 1.350 1_556 S
C1018 C1015 1.463 1_556 S
C1018 N1022 1.427 . S
C1019 H1009 0.929 . S
C1019 C1017 1.433 . S
C1019 N1022 1.384 . S
C1020 H1011 0.929 . S
C1020 C1012 1.378 . S
C1020 C1015 1.350 1_556 S
C1021 H1008 0.929 . S
C1021 C1013 1.433 . S
C1021 N1023 1.384 . S
N1022 C1018 1.427 . S
N1022 C1019 1.384 . S
N1023 C1015 1.427 . S
N1023 C1021 1.384 . S
H1024 C1030 0.930 . S
H1025 C1034 0.930 . S
H1026 C1039 0.929 . S
H1027 C1037 0.929 . S
H1028 C1032 0.929 . S
H1029 C1038 0.929 . S
C1030 H1024 0.930 . S
C1030 C1031 1.367 . S
C1030 C1038 1.378 . S
C1031 C1030 1.367 . S
C1031 C1039 1.433 . S
C1032 H1028 0.929 . S
C1032 C1034 1.378 . S
C1032 C1036 1.350 . S
C1033 C1036 1.463 . S
C1033 C1038 1.350 . S
C1033 N1041 1.427 . S
C1034 H1025 0.930 . S
C1034 C1032 1.378 . S
C1034 C1035 1.367 . S
C1035 C1034 1.367 . S
C1035 C1037 1.433 . S
C1036 C1032 1.350 . S
C1036 C1033 1.463 . S
C1036 N1040 1.427 . S
C1037 H1027 0.929 . S
C1037 C1035 1.433 . S
C1037 N1040 1.384 . S
C1038 H1029 0.929 . S
C1038 C1030 1.378 . S
C1038 C1033 1.350 . S
C1039 H1026 0.929 . S
C1039 C1031 1.433 . S
C1039 N1041 1.384 . S
N1040 C1036 1.427 . S
N1040 C1037 1.384 . S
N1041 C1033 1.427 . S
N1041 C1039 1.384 . S
H1042 C1048 0.930 . S
H1043 C1052 0.930 . S
H1044 C1057 0.929 . S
H1045 C1055 0.929 . S
H1046 C1050 0.929 . S
H1047 C1056 0.929 . S
C1048 H1042 0.930 . S
C1048 C1049 1.367 . S
C1048 C1056 1.378 . S
C1049 C1048 1.367 . S
C1049 C1057 1.433 1_556 S
C1050 H1046 0.929 . S
C1050 C1052 1.378 . S
C1050 C1054 1.350 1_554 S
C1051 C1054 1.463 . S
C1051 C1056 1.350 . S
C1051 N1059 1.427 1_556 S
C1052 H1043 0.930 . S
C1052 C1050 1.378 . S
C1052 C1053 1.367 1_554 S
C1053 C1052 1.367 1_556 S
C1053 C1055 1.433 . S
C1054 C1050 1.350 1_556 S
C1054 C1051 1.463 . S
C1054 N1058 1.427 . S
C1055 H1045 0.929 . S
C1055 C1053 1.433 . S
C1055 N1058 1.384 . S
C1056 H1047 0.929 . S
C1056 C1048 1.378 . S
C1056 C1051 1.350 . S
C1057 H1044 0.929 . S
C1057 C1049 1.433 1_554 S
C1057 N1059 1.384 . S
N1058 C1054 1.427 . S
N1058 C1055 1.384 . S
N1059 C1051 1.427 1_554 S
N1059 C1057 1.384 . S
H1060 C1066 0.930 . S
H1061 C1070 0.930 . S
H1062 C1075 0.929 . S
H1063 C1073 0.929 . S
H1064 C1068 0.929 . S
H1065 C1074 0.929 . S
C1066 H1060 0.930 . S
C1066 C1067 1.367 . S
C1066 C1074 1.378 . S
C1067 C1066 1.367 . S
C1067 C1075 1.433 . S
C1068 H1064 0.929 . S
C1068 C1070 1.378 . S
C1068 C1072 1.350 . S
C1069 C1072 1.463 . S
C1069 C1074 1.350 . S
C1069 N1077 1.427 . S
C1070 H1061 0.930 . S
C1070 C1068 1.378 . S
C1070 C1071 1.367 . S
C1071 C1070 1.367 . S
C1071 C1073 1.433 . S
C1072 C1068 1.350 . S
C1072 C1069 1.463 . S
C1072 N1076 1.427 . S
C1073 H1063 0.929 . S
C1073 C1071 1.433 . S
C1073 N1076 1.384 . S
C1074 H1065 0.929 . S
C1074 C1066 1.378 . S
C1074 C1069 1.350 . S
C1075 H1062 0.929 . S
C1075 C1067 1.433 . S
C1075 N1077 1.384 . S
N1076 C1072 1.427 . S
N1076 C1073 1.384 . S
N1077 C1069 1.427 . S
N1077 C1075 1.384 . S
H1078 C1084 0.930 . S
H1079 C1088 0.930 . S
H1080 C1093 0.929 . S
H1081 C1091 0.929 . S
H1082 C1086 0.929 . S
H1083 C1092 0.929 . S
C1084 H1078 0.930 . S
C1084 C1085 1.367 1_556 S
C1084 C1092 1.378 . S
C1085 C1084 1.367 1_554 S
C1085 C1093 1.433 . S
C1086 H1082 0.929 . S
C1086 C1088 1.378 . S
C1086 C1090 1.350 . S
C1087 C1090 1.463 . S
C1087 C1092 1.350 1_554 S
C1087 N1095 1.427 . S
C1088 H1079 0.930 . S
C1088 C1086 1.378 . S
C1088 C1089 1.367 . S
C1089 C1088 1.367 . S
C1089 C1091 1.433 1_554 S
C1090 C1086 1.350 . S
C1090 C1087 1.463 . S
C1090 N1094 1.427 1_554 S
C1091 H1081 0.929 . S
C1091 C1089 1.433 1_556 S
C1091 N1094 1.384 . S
C1092 H1083 0.929 . S
C1092 C1084 1.378 . S
C1092 C1087 1.350 1_556 S
C1093 H1080 0.929 . S
C1093 C1085 1.433 . S
C1093 N1095 1.384 . S
N1094 C1090 1.427 1_556 S
N1094 C1091 1.384 . S
N1095 C1087 1.427 . S
N1095 C1093 1.384 . S
H1096 C1102 0.930 . S
H1097 C1106 0.930 . S
H1098 C1111 0.929 . S
H1099 C1109 0.929 . S
H1100 C1104 0.929 . S
H1101 C1110 0.929 . S
C1102 H1096 0.930 . S
C1102 C1103 1.367 . S
C1102 C1110 1.378 . S
C1103 C1102 1.367 . S
C1103 C1111 1.433 . S
C1104 H1100 0.929 . S
C1104 C1106 1.378 . S
C1104 C1108 1.350 . S
C1105 C1108 1.463 . S
C1105 C1110 1.350 . S
C1105 N1113 1.427 . S
C1106 H1097 0.930 . S
C1106 C1104 1.378 . S
C1106 C1107 1.367 . S
C1107 C1106 1.367 . S
C1107 C1109 1.433 . S
C1108 C1104 1.350 . S
C1108 C1105 1.463 . S
C1108 N1112 1.427 . S
C1109 H1099 0.929 . S
C1109 C1107 1.433 . S
C1109 N1112 1.384 . S
C1110 H1101 0.929 . S
C1110 C1102 1.378 . S
C1110 C1105 1.350 . S
C1111 H1098 0.929 . S
C1111 C1103 1.433 . S
C1111 N1113 1.384 . S
N1112 C1108 1.427 . S
N1112 C1109 1.384 . S
N1113 C1105 1.427 . S
N1113 C1111 1.384 . S
H1114 C1120 0.930 . S
H1115 C1124 0.930 . S
H1116 C1129 0.929 . S
H1117 C1127 0.929 . S
H1118 C1122 0.929 . S
H1119 C1128 0.929 . S
C1120 H1114 0.930 . S
C1120 C1121 1.367 . S
C1120 C1128 1.378 . S
C1121 C1120 1.367 . S
C1121 C1129 1.433 . S
C1122 H1118 0.929 . S
C1122 C1124 1.378 . S
C1122 C1126 1.350 . S
C1123 C1126 1.463 . S
C1123 C1128 1.350 . S
C1123 N1131 1.427 . S
C1124 H1115 0.930 . S
C1124 C1122 1.378 . S
C1124 C1125 1.367 . S
C1125 C1124 1.367 . S
C1125 C1127 1.433 . S
C1126 C1122 1.350 . S
C1126 C1123 1.463 . S
C1126 N1130 1.427 . S
C1127 H1117 0.929 . S
C1127 C1125 1.433 . S
C1127 N1130 1.384 . S
C1128 H1119 0.929 . S
C1128 C1120 1.378 . S
C1128 C1123 1.350 . S
C1129 H1116 0.929 . S
C1129 C1121 1.433 . S
C1129 N1131 1.384 . S
N1130 C1126 1.427 . S
N1130 C1127 1.384 . S
N1131 C1123 1.427 . S
N1131 C1129 1.384 . S
H1132 C1138 0.930 . S
H1133 C1142 0.930 . S
H1134 C1147 0.929 . S
H1135 C1145 0.929 . S
H1136 C1140 0.929 . S
H1137 C1146 0.929 . S
C1138 H1132 0.930 . S
C1138 C1139 1.367 . S
C1138 C1146 1.378 . S
C1139 C1138 1.367 . S
C1139 C1147 1.433 . S
C1140 H1136 0.929 . S
C1140 C1142 1.378 . S
C1140 C1144 1.350 . S
C1141 C1144 1.463 . S
C1141 C1146 1.350 . S
C1141 N1149 1.427 . S
C1142 H1133 0.930 . S
C1142 C1140 1.378 . S
C1142 C1143 1.367 . S
C1143 C1142 1.367 . S
C1143 C1145 1.433 . S
C1144 C1140 1.350 . S
C1144 C1141 1.463 . S
C1144 N1148 1.427 . S
C1145 H1135 0.929 . S
C1145 C1143 1.433 . S
C1145 N1148 1.384 . S
C1146 H1137 0.929 . S
C1146 C1138 1.378 . S
C1146 C1141 1.350 . S
C1147 H1134 0.929 . S
C1147 C1139 1.433 . S
C1147 N1149 1.384 . S
N1148 C1144 1.427 . S
N1148 C1145 1.384 . S
N1149 C1141 1.427 . S
N1149 C1147 1.384 . S
H1150 C1156 0.930 . S
H1151 C1160 0.930 . S
H1152 C1165 0.929 . S
H1153 C1163 0.929 . S
H1154 C1158 0.929 . S
H1155 C1164 0.929 . S
C1156 H1150 0.930 . S
C1156 C1157 1.367 . S
C1156 C1164 1.378 . S
C1157 C1156 1.367 . S
C1157 C1165 1.433 . S
C1158 H1154 0.929 . S
C1158 C1160 1.378 . S
C1158 C1162 1.350 . S
C1159 C1162 1.463 . S
C1159 C1164 1.350 . S
C1159 N1167 1.427 . S
C1160 H1151 0.930 . S
C1160 C1158 1.378 . S
C1160 C1161 1.367 . S
C1161 C1160 1.367 . S
C1161 C1163 1.433 . S
C1162 C1158 1.350 . S
C1162 C1159 1.463 . S
C1162 N1166 1.427 . S
C1163 H1153 0.929 . S
C1163 C1161 1.433 . S
C1163 N1166 1.384 . S
C1164 H1155 0.929 . S
C1164 C1156 1.378 . S
C1164 C1159 1.350 . S
C1165 H1152 0.929 . S
C1165 C1157 1.433 . S
C1165 N1167 1.384 . S
N1166 C1162 1.427 . S
N1166 C1163 1.384 . S
N1167 C1159 1.427 . S
N1167 C1165 1.384 . S
H1168 C1174 0.930 . S
H1169 C1178 0.930 . S
H1170 C1183 0.929 . S
H1171 C1181 0.929 . S
H1172 C1176 0.929 . S
H1173 C1182 0.929 . S
C1174 H1168 0.930 . S
C1174 C1175 1.367 . S
C1174 C1182 1.378 . S
C1175 C1174 1.367 . S
C1175 C1183 1.433 . S
C1176 H1172 0.929 . S
C1176 C1178 1.378 . S
C1176 C1180 1.350 . S
C1177 C1180 1.463 . S
C1177 C1182 1.350 . S
C1177 N1185 1.427 . S
C1178 H1169 0.930 . S
C1178 C1176 1.378 . S
C1178 C1179 1.367 . S
C1179 C1178 1.367 . S
C1179 C1181 1.433 . S
C1180 C1176 1.350 . S
C1180 C1177 1.463 . S
C1180 N1184 1.427 . S
C1181 H1171 0.929 . S
C1181 C1179 1.433 . S
C1181 N1184 1.384 . S
C1182 H1173 0.929 . S
C1182 C1174 1.378 . S
C1182 C1177 1.350 . S
C1183 H1170 0.929 . S
C1183 C1175 1.433 . S
C1183 N1185 1.384 . S
N1184 C1180 1.427 . S
N1184 C1181 1.384 . S
N1185 C1177 1.427 . S
N1185 C1183 1.384 . S
H1186 C1192 0.930 . S
H1187 C1196 0.930 . S
H1188 C1201 0.929 . S
H1189 C1199 0.929 . S
H1190 C1194 0.929 . S
H1191 C1200 0.929 . S
C1192 H1186 0.930 . S
C1192 C1193 1.367 . S
C1192 C1200 1.378 . S
C1193 C1192 1.367 . S
C1193 C1201 1.433 . S
C1194 H1190 0.929 . S
C1194 C1196 1.378 . S
C1194 C1198 1.350 . S
C1195 C1198 1.463 . S
C1195 C1200 1.350 . S
C1195 N1203 1.427 . S
C1196 H1187 0.930 . S
C1196 C1194 1.378 . S
C1196 C1197 1.367 . S
C1197 C1196 1.367 . S
C1197 C1199 1.433 . S
C1198 C1194 1.350 . S
C1198 C1195 1.463 . S
C1198 N1202 1.427 . S
C1199 H1189 0.929 . S
C1199 C1197 1.433 . S
C1199 N1202 1.384 . S
C1200 H1191 0.929 . S
C1200 C1192 1.378 . S
C1200 C1195 1.350 . S
C1201 H1188 0.929 . S
C1201 C1193 1.433 . S
C1201 N1203 1.384 . S
N1202 C1198 1.427 . S
N1202 C1199 1.384 . S
N1203 C1195 1.427 . S
N1203 C1201 1.384 . S
H1204 C1210 0.930 . S
H1205 C1214 0.930 . S
H1206 C1219 0.929 . S
H1207 C1217 0.929 . S
H1208 C1212 0.929 . S
H1209 C1218 0.929 . S
C1210 H1204 0.930 . S
C1210 C1211 1.367 . S
C1210 C1218 1.378 . S
C1211 C1210 1.367 . S
C1211 C1219 1.433 . S
C1212 H1208 0.929 . S
C1212 C1214 1.378 . S
C1212 C1216 1.350 . S
C1213 C1216 1.463 . S
C1213 C1218 1.350 . S
C1213 N1221 1.427 . S
C1214 H1205 0.930 . S
C1214 C1212 1.378 . S
C1214 C1215 1.367 . S
C1215 C1214 1.367 . S
C1215 C1217 1.433 . S
C1216 C1212 1.350 . S
C1216 C1213 1.463 . S
C1216 N1220 1.427 . S
C1217 H1207 0.929 . S
C1217 C1215 1.433 . S
C1217 N1220 1.384 . S
C1218 H1209 0.929 . S
C1218 C1210 1.378 . S
C1218 C1213 1.350 . S
C1219 H1206 0.929 . S
C1219 C1211 1.433 . S
C1219 N1221 1.384 . S
N1220 C1216 1.427 . S
N1220 C1217 1.384 . S
N1221 C1213 1.427 . S
N1221 C1219 1.384 . S
H1222 C1228 0.930 . S
H1223 C1232 0.930 . S
H1224 C1237 0.929 . S
H1225 C1235 0.929 . S
H1226 C1230 0.929 . S
H1227 C1236 0.929 . S
C1228 H1222 0.930 . S
C1228 C1229 1.367 . S
C1228 C1236 1.378 . S
C1229 C1228 1.367 . S
C1229 C1237 1.433 . S
C1230 H1226 0.929 . S
C1230 C1232 1.378 . S
C1230 C1234 1.350 . S
C1231 C1234 1.463 . S
C1231 C1236 1.350 . S
C1231 N1239 1.427 . S
C1232 H1223 0.930 . S
C1232 C1230 1.378 . S
C1232 C1233 1.367 . S
C1233 C1232 1.367 . S
C1233 C1235 1.433 . S
C1234 C1230 1.350 . S
C1234 C1231 1.463 . S
C1234 N1238 1.427 . S
C1235 H1225 0.929 . S
C1235 C1233 1.433 . S
C1235 N1238 1.384 . S
C1236 H1227 0.929 . S
C1236 C1228 1.378 . S
C1236 C1231 1.350 . S
C1237 H1224 0.929 . S
C1237 C1229 1.433 . S
C1237 N1239 1.384 . S
N1238 C1234 1.427 . S
N1238 C1235 1.384 . S
N1239 C1231 1.427 . S
N1239 C1237 1.384 . S
H1240 C1246 0.930 . S
H1241 C1250 0.930 . S
H1242 C1255 0.929 . S
H1243 C1253 0.929 . S
H1244 C1248 0.929 . S
H1245 C1254 0.929 . S
C1246 H1240 0.930 . S
C1246 C1247 1.367 . S
C1246 C1254 1.378 . S
C1247 C1246 1.367 . S
C1247 C1255 1.433 . S
C1248 H1244 0.929 . S
C1248 C1250 1.378 . S
C1248 C1252 1.350 . S
C1249 C1252 1.463 . S
C1249 C1254 1.350 . S
C1249 N1257 1.427 . S
C1250 H1241 0.930 . S
C1250 C1248 1.378 . S
C1250 C1251 1.367 . S
C1251 C1250 1.367 . S
C1251 C1253 1.433 . S
C1252 C1248 1.350 . S
C1252 C1249 1.463 . S
C1252 N1256 1.427 . S
C1253 H1243 0.929 . S
C1253 C1251 1.433 . S
C1253 N1256 1.384 . S
C1254 H1245 0.929 . S
C1254 C1246 1.378 . S
C1254 C1249 1.350 . S
C1255 H1242 0.929 . S
C1255 C1247 1.433 . S
C1255 N1257 1.384 . S
N1256 C1252 1.427 . S
N1256 C1253 1.384 . S
N1257 C1249 1.427 . S
N1257 C1255 1.384 . S
H1258 C1264 0.930 . S
H1259 C1268 0.930 . S
H1260 C1273 0.929 . S
H1261 C1271 0.929 . S
H1262 C1266 0.929 . S
H1263 C1272 0.929 . S
C1264 H1258 0.930 . S
C1264 C1265 1.367 1_554 S
C1264 C1272 1.378 . S
C1265 C1264 1.367 1_556 S
C1265 C1273 1.433 . S
C1266 H1262 0.929 . S
C1266 C1268 1.378 . S
C1266 C1270 1.350 . S
C1267 C1270 1.463 . S
C1267 C1272 1.350 1_556 S
C1267 N1275 1.427 . S
C1268 H1259 0.930 . S
C1268 C1266 1.378 . S
C1268 C1269 1.367 . S
C1269 C1268 1.367 . S
C1269 C1271 1.433 1_556 S
C1270 C1266 1.350 . S
C1270 C1267 1.463 . S
C1270 N1274 1.427 1_556 S
C1271 H1261 0.929 . S
C1271 C1269 1.433 1_554 S
C1271 N1274 1.384 . S
C1272 H1263 0.929 . S
C1272 C1264 1.378 . S
C1272 C1267 1.350 1_554 S
C1273 H1260 0.929 . S
C1273 C1265 1.433 . S
C1273 N1275 1.384 . S
N1274 C1270 1.427 1_554 S
N1274 C1271 1.384 . S
N1275 C1267 1.427 . S
N1275 C1273 1.384 . S
H1276 C1282 0.930 . S
H1277 C1286 0.930 . S
H1278 C1291 0.929 . S
H1279 C1289 0.929 . S
H1280 C1284 0.929 . S
H1281 C1290 0.929 . S
C1282 H1276 0.930 . S
C1282 C1283 1.367 . S
C1282 C1290 1.378 . S
C1283 C1282 1.367 . S
C1283 C1291 1.433 . S
C1284 H1280 0.929 . S
C1284 C1286 1.378 . S
C1284 C1288 1.350 . S
C1285 C1288 1.463 . S
C1285 C1290 1.350 . S
C1285 N1293 1.427 . S
C1286 H1277 0.930 . S
C1286 C1284 1.378 . S
C1286 C1287 1.367 . S
C1287 C1286 1.367 . S
C1287 C1289 1.433 . S
C1288 C1284 1.350 . S
C1288 C1285 1.463 . S
C1288 N1292 1.427 . S
C1289 H1279 0.929 . S
C1289 C1287 1.433 . S
C1289 N1292 1.384 . S
C1290 H1281 0.929 . S
C1290 C1282 1.378 . S
C1290 C1285 1.350 . S
C1291 H1278 0.929 . S
C1291 C1283 1.433 . S
C1291 N1293 1.384 . S
N1292 C1288 1.427 . S
N1292 C1289 1.384 . S
N1293 C1285 1.427 . S
N1293 C1291 1.384 . S
H1294 C1300 0.930 . S
H1295 C1304 0.930 . S
H1296 C1309 0.929 . S
H1297 C1307 0.929 . S
H1298 C1302 0.929 . S
H1299 C1308 0.929 . S
C1300 H1294 0.930 . S
C1300 C1301 1.367 . S
C1300 C1308 1.378 . S
C1301 C1300 1.367 . S
C1301 C1309 1.433 1_554 S
C1302 H1298 0.929 . S
C1302 C1304 1.378 . S
C1302 C1306 1.350 1_556 S
C1303 C1306 1.463 . S
C1303 C1308 1.350 . S
C1303 N1311 1.427 1_554 S
C1304 H1295 0.930 . S
C1304 C1302 1.378 . S
C1304 C1305 1.367 1_556 S
C1305 C1304 1.367 1_554 S
C1305 C1307 1.433 . S
C1306 C1302 1.350 1_554 S
C1306 C1303 1.463 . S
C1306 N1310 1.427 . S
C1307 H1297 0.929 . S
C1307 C1305 1.433 . S
C1307 N1310 1.384 . S
C1308 H1299 0.929 . S
C1308 C1300 1.378 . S
C1308 C1303 1.350 . S
C1309 H1296 0.929 . S
C1309 C1301 1.433 1_556 S
C1309 N1311 1.384 . S
N1310 C1306 1.427 . S
N1310 C1307 1.384 . S
N1311 C1303 1.427 1_556 S
N1311 C1309 1.384 . S
H1312 C1318 0.930 . S
H1313 C1322 0.930 . S
H1314 C1327 0.929 1_455 S
H1315 C1325 0.929 . S
H1316 C1320 0.929 . S
H1317 C1326 0.929 . S
C1318 H1312 0.930 . S
C1318 C1319 1.367 . S
C1318 C1326 1.378 . S
C1319 C1318 1.367 . S
C1319 C1327 1.433 . S
C1320 H1316 0.929 . S
C1320 C1322 1.378 . S
C1320 C1324 1.350 . S
C1321 C1324 1.463 . S
C1321 C1326 1.350 . S
C1321 N1329 1.427 . S
C1322 H1313 0.930 . S
C1322 C1320 1.378 . S
C1322 C1323 1.367 . S
C1323 C1322 1.367 . S
C1323 C1325 1.433 . S
C1324 C1320 1.350 . S
C1324 C1321 1.463 . S
C1324 N1328 1.427 . S
C1325 H1315 0.929 . S
C1325 C1323 1.433 . S
C1325 N1328 1.384 . S
C1326 H1317 0.929 . S
C1326 C1318 1.378 . S
C1326 C1321 1.350 . S
C1327 H1314 0.929 1_655 S
C1327 C1319 1.433 . S
C1327 N1329 1.384 . S
N1328 C1324 1.427 . S
N1328 C1325 1.384 . S
N1329 C1321 1.427 . S
N1329 C1327 1.384 . S
H1330 C1336 0.930 . S
H1331 C1340 0.930 . S
H1332 C1345 0.929 . S
H1333 C1343 0.929 . S
H1334 C1338 0.929 . S
H1335 C1344 0.929 . S
C1336 H1330 0.930 . S
C1336 C1337 1.367 . S
C1336 C1344 1.378 . S
C1337 C1336 1.367 . S
C1337 C1345 1.433 . S
C1338 H1334 0.929 . S
C1338 C1340 1.378 . S
C1338 C1342 1.350 . S
C1339 C1342 1.463 . S
C1339 C1344 1.350 . S
C1339 N1347 1.427 . S
C1340 H1331 0.930 . S
C1340 C1338 1.378 . S
C1340 C1341 1.367 . S
C1341 C1340 1.367 . S
C1341 C1343 1.433 . S
C1342 C1338 1.350 . S
C1342 C1339 1.463 . S
C1342 N1346 1.427 . S
C1343 H1333 0.929 . S
C1343 C1341 1.433 . S
C1343 N1346 1.384 . S
C1344 H1335 0.929 . S
C1344 C1336 1.378 . S
C1344 C1339 1.350 . S
C1345 H1332 0.929 . S
C1345 C1337 1.433 . S
C1345 N1347 1.384 . S
N1346 C1342 1.427 . S
N1346 C1343 1.384 . S
N1347 C1339 1.427 . S
N1347 C1345 1.384 . S
H1348 C1354 0.930 . S
H1349 C1358 0.930 . S
H1350 C1363 0.929 . S
H1351 C1361 0.929 1_455 S
H1352 C1356 0.929 . S
H1353 C1362 0.929 . S
C1354 H1348 0.930 . S
C1354 C1355 1.367 . S
C1354 C1362 1.378 . S
C1355 C1354 1.367 . S
C1355 C1363 1.433 . S
C1356 H1352 0.929 . S
C1356 C1358 1.378 . S
C1356 C1360 1.350 . S
C1357 C1360 1.463 . S
C1357 C1362 1.350 . S
C1357 N1365 1.427 . S
C1358 H1349 0.930 . S
C1358 C1356 1.378 . S
C1358 C1359 1.367 . S
C1359 C1358 1.367 . S
C1359 C1361 1.433 . S
C1360 C1356 1.350 . S
C1360 C1357 1.463 . S
C1360 N1364 1.427 . S
C1361 H1351 0.929 1_655 S
C1361 C1359 1.433 . S
C1361 N1364 1.384 . S
C1362 H1353 0.929 . S
C1362 C1354 1.378 . S
C1362 C1357 1.350 . S
C1363 H1350 0.929 . S
C1363 C1355 1.433 . S
C1363 N1365 1.384 . S
N1364 C1360 1.427 . S
N1364 C1361 1.384 . S
N1365 C1357 1.427 . S
N1365 C1363 1.384 . S
H1366 C1372 0.930 . S
H1367 C1376 0.930 . S
H1368 C1381 0.929 . S
H1369 C1379 0.929 . S
H1370 C1374 0.929 . S
H1371 C1380 0.929 . S
C1372 H1366 0.930 . S
C1372 C1373 1.367 . S
C1372 C1380 1.378 . S
C1373 C1372 1.367 . S
C1373 C1381 1.433 . S
C1374 H1370 0.929 . S
C1374 C1376 1.378 . S
C1374 C1378 1.350 . S
C1375 C1378 1.463 . S
C1375 C1380 1.350 . S
C1375 N1383 1.427 . S
C1376 H1367 0.930 . S
C1376 C1374 1.378 . S
C1376 C1377 1.367 . S
C1377 C1376 1.367 . S
C1377 C1379 1.433 . S
C1378 C1374 1.350 . S
C1378 C1375 1.463 . S
C1378 N1382 1.427 . S
C1379 H1369 0.929 . S
C1379 C1377 1.433 . S
C1379 N1382 1.384 . S
C1380 H1371 0.929 . S
C1380 C1372 1.378 . S
C1380 C1375 1.350 . S
C1381 H1368 0.929 . S
C1381 C1373 1.433 . S
C1381 N1383 1.384 . S
N1382 C1378 1.427 . S
N1382 C1379 1.384 . S
N1383 C1375 1.427 . S
N1383 C1381 1.384 . S
H1384 C1390 0.930 . S
H1385 C1394 0.930 . S
H1386 C1399 0.929 . S
H1387 C1397 0.929 . S
H1388 C1392 0.929 . S
H1389 C1398 0.929 . S
C1390 H1384 0.930 . S
C1390 C1391 1.367 . S
C1390 C1398 1.378 . S
C1391 C1390 1.367 . S
C1391 C1399 1.433 . S
C1392 H1388 0.929 . S
C1392 C1394 1.378 . S
C1392 C1396 1.350 . S
C1393 C1396 1.463 . S
C1393 C1398 1.350 . S
C1393 N1401 1.427 . S
C1394 H1385 0.930 . S
C1394 C1392 1.378 . S
C1394 C1395 1.367 . S
C1395 C1394 1.367 . S
C1395 C1397 1.433 . S
C1396 C1392 1.350 . S
C1396 C1393 1.463 . S
C1396 N1400 1.427 . S
C1397 H1387 0.929 . S
C1397 C1395 1.433 . S
C1397 N1400 1.384 . S
C1398 H1389 0.929 . S
C1398 C1390 1.378 . S
C1398 C1393 1.350 . S
C1399 H1386 0.929 . S
C1399 C1391 1.433 . S
C1399 N1401 1.384 . S
N1400 C1396 1.427 . S
N1400 C1397 1.384 . S
N1401 C1393 1.427 . S
N1401 C1399 1.384 . S
H1402 C1408 0.930 . S
H1403 C1412 0.930 . S
H1404 C1417 0.929 . S
H1405 C1415 0.929 . S
H1406 C1410 0.929 . S
H1407 C1416 0.929 . S
C1408 H1402 0.930 . S
C1408 C1409 1.367 . S
C1408 C1416 1.378 . S
C1409 C1408 1.367 . S
C1409 C1417 1.433 . S
C1410 H1406 0.929 . S
C1410 C1412 1.378 . S
C1410 C1414 1.350 . S
C1411 C1414 1.463 . S
C1411 C1416 1.350 . S
C1411 N1419 1.427 . S
C1412 H1403 0.930 . S
C1412 C1410 1.378 . S
C1412 C1413 1.367 . S
C1413 C1412 1.367 . S
C1413 C1415 1.433 . S
C1414 C1410 1.350 . S
C1414 C1411 1.463 . S
C1414 N1418 1.427 . S
C1415 H1405 0.929 . S
C1415 C1413 1.433 . S
C1415 N1418 1.384 . S
C1416 H1407 0.929 . S
C1416 C1408 1.378 . S
C1416 C1411 1.350 . S
C1417 H1404 0.929 . S
C1417 C1409 1.433 . S
C1417 N1419 1.384 . S
N1418 C1414 1.427 . S
N1418 C1415 1.384 . S
N1419 C1411 1.427 . S
N1419 C1417 1.384 . S
H1420 C1426 0.930 . S
H1421 C1430 0.930 . S
H1422 C1435 0.929 . S
H1423 C1433 0.929 1_655 S
H1424 C1428 0.929 . S
H1425 C1434 0.929 . S
C1426 H1420 0.930 . S
C1426 C1427 1.367 . S
C1426 C1434 1.378 . S
C1427 C1426 1.367 . S
C1427 C1435 1.433 . S
C1428 H1424 0.929 . S
C1428 C1430 1.378 . S
C1428 C1432 1.350 . S
C1429 C1432 1.463 . S
C1429 C1434 1.350 . S
C1429 N1437 1.427 . S
C1430 H1421 0.930 . S
C1430 C1428 1.378 . S
C1430 C1431 1.367 . S
C1431 C1430 1.367 . S
C1431 C1433 1.433 . S
C1432 C1428 1.350 . S
C1432 C1429 1.463 . S
C1432 N1436 1.427 . S
C1433 H1423 0.929 1_455 S
C1433 C1431 1.433 . S
C1433 N1436 1.384 . S
C1434 H1425 0.929 . S
C1434 C1426 1.378 . S
C1434 C1429 1.350 . S
C1435 H1422 0.929 . S
C1435 C1427 1.433 . S
C1435 N1437 1.384 . S
N1436 C1432 1.427 . S
N1436 C1433 1.384 . S
N1437 C1429 1.427 . S
N1437 C1435 1.384 . S
H1438 C1444 0.930 . S
H1439 C1448 0.930 . S
H1440 C1453 0.929 . S
H1441 C1451 0.929 . S
H1442 C1446 0.929 . S
H1443 C1452 0.929 . S
C1444 H1438 0.930 . S
C1444 C1445 1.367 . S
C1444 C1452 1.378 . S
C1445 C1444 1.367 . S
C1445 C1453 1.433 . S
C1446 H1442 0.929 . S
C1446 C1448 1.378 . S
C1446 C1450 1.350 . S
C1447 C1450 1.463 . S
C1447 C1452 1.350 . S
C1447 N1455 1.427 . S
C1448 H1439 0.930 . S
C1448 C1446 1.378 . S
C1448 C1449 1.367 . S
C1449 C1448 1.367 . S
C1449 C1451 1.433 . S
C1450 C1446 1.350 . S
C1450 C1447 1.463 . S
C1450 N1454 1.427 . S
C1451 H1441 0.929 . S
C1451 C1449 1.433 . S
C1451 N1454 1.384 . S
C1452 H1443 0.929 . S
C1452 C1444 1.378 . S
C1452 C1447 1.350 . S
C1453 H1440 0.929 . S
C1453 C1445 1.433 . S
C1453 N1455 1.384 . S
N1454 C1450 1.427 . S
N1454 C1451 1.384 . S
N1455 C1447 1.427 . S
N1455 C1453 1.384 . S
H1456 C1462 0.930 . S
H1457 C1466 0.930 . S
H1458 C1471 0.929 . S
H1459 C1469 0.929 . S
H1460 C1464 0.929 . S
H1461 C1470 0.929 . S
C1462 H1456 0.930 . S
C1462 C1463 1.367 . S
C1462 C1470 1.378 . S
C1463 C1462 1.367 . S
C1463 C1471 1.433 . S
C1464 H1460 0.929 . S
C1464 C1466 1.378 . S
C1464 C1468 1.350 . S
C1465 C1468 1.463 . S
C1465 C1470 1.350 . S
C1465 N1473 1.427 . S
C1466 H1457 0.930 . S
C1466 C1464 1.378 . S
C1466 C1467 1.367 . S
C1467 C1466 1.367 . S
C1467 C1469 1.433 . S
C1468 C1464 1.350 . S
C1468 C1465 1.463 . S
C1468 N1472 1.427 . S
C1469 H1459 0.929 . S
C1469 C1467 1.433 . S
C1469 N1472 1.384 . S
C1470 H1461 0.929 . S
C1470 C1462 1.378 . S
C1470 C1465 1.350 . S
C1471 H1458 0.929 . S
C1471 C1463 1.433 . S
C1471 N1473 1.384 . S
N1472 C1468 1.427 . S
N1472 C1469 1.384 . S
N1473 C1465 1.427 . S
N1473 C1471 1.384 . S
H1474 C1480 0.930 . S
H1475 C1484 0.930 . S
H1476 C1489 0.929 . S
H1477 C1487 0.929 . S
H1478 C1482 0.929 . S
H1479 C1488 0.929 . S
C1480 H1474 0.930 . S
C1480 C1481 1.367 . S
C1480 C1488 1.378 . S
C1481 C1480 1.367 . S
C1481 C1489 1.433 . S
C1482 H1478 0.929 . S
C1482 C1484 1.378 . S
C1482 C1486 1.350 . S
C1483 C1486 1.463 . S
C1483 C1488 1.350 . S
C1483 N1491 1.427 . S
C1484 H1475 0.930 . S
C1484 C1482 1.378 . S
C1484 C1485 1.367 . S
C1485 C1484 1.367 . S
C1485 C1487 1.433 . S
C1486 C1482 1.350 . S
C1486 C1483 1.463 . S
C1486 N1490 1.427 . S
C1487 H1477 0.929 . S
C1487 C1485 1.433 . S
C1487 N1490 1.384 . S
C1488 H1479 0.929 . S
C1488 C1480 1.378 . S
C1488 C1483 1.350 . S
C1489 H1476 0.929 . S
C1489 C1481 1.433 . S
C1489 N1491 1.384 . S
N1490 C1486 1.427 . S
N1490 C1487 1.384 . S
N1491 C1483 1.427 . S
N1491 C1489 1.384 . S
H1492 C1498 0.930 . S
H1493 C1502 0.930 . S
H1494 C1507 0.929 . S
H1495 C1505 0.929 . S
H1496 C1500 0.929 . S
H1497 C1506 0.929 . S
C1498 H1492 0.930 . S
C1498 C1499 1.367 . S
C1498 C1506 1.378 . S
C1499 C1498 1.367 . S
C1499 C1507 1.433 . S
C1500 H1496 0.929 . S
C1500 C1502 1.378 . S
C1500 C1504 1.350 . S
C1501 C1504 1.463 . S
C1501 C1506 1.350 . S
C1501 N1509 1.427 . S
C1502 H1493 0.930 . S
C1502 C1500 1.378 . S
C1502 C1503 1.367 . S
C1503 C1502 1.367 . S
C1503 C1505 1.433 . S
C1504 C1500 1.350 . S
C1504 C1501 1.463 . S
C1504 N1508 1.427 . S
C1505 H1495 0.929 . S
C1505 C1503 1.433 . S
C1505 N1508 1.384 . S
C1506 H1497 0.929 . S
C1506 C1498 1.378 . S
C1506 C1501 1.350 . S
C1507 H1494 0.929 . S
C1507 C1499 1.433 . S
C1507 N1509 1.384 . S
N1508 C1504 1.427 . S
N1508 C1505 1.384 . S
N1509 C1501 1.427 . S
N1509 C1507 1.384 . S
H1510 C1516 0.930 . S
H1511 C1520 0.930 . S
H1512 C1525 0.929 . S
H1513 C1523 0.929 . S
H1514 C1518 0.929 . S
H1515 C1524 0.929 . S
C1516 H1510 0.930 . S
C1516 C1517 1.367 . S
C1516 C1524 1.378 . S
C1517 C1516 1.367 . S
C1517 C1525 1.433 . S
C1518 H1514 0.929 . S
C1518 C1520 1.378 . S
C1518 C1522 1.350 . S
C1519 C1522 1.463 . S
C1519 C1524 1.350 . S
C1519 N1527 1.427 . S
C1520 H1511 0.930 . S
C1520 C1518 1.378 . S
C1520 C1521 1.367 . S
C1521 C1520 1.367 . S
C1521 C1523 1.433 . S
C1522 C1518 1.350 . S
C1522 C1519 1.463 . S
C1522 N1526 1.427 . S
C1523 H1513 0.929 . S
C1523 C1521 1.433 . S
C1523 N1526 1.384 . S
C1524 H1515 0.929 . S
C1524 C1516 1.378 . S
C1524 C1519 1.350 . S
C1525 H1512 0.929 . S
C1525 C1517 1.433 . S
C1525 N1527 1.384 . S
N1526 C1522 1.427 . S
N1526 C1523 1.384 . S
N1527 C1519 1.427 . S
N1527 C1525 1.384 . S
H1528 C1534 0.930 . S
H1529 C1538 0.930 . S
H1530 C1543 0.929 . S
H1531 C1541 0.929 . S
H1532 C1536 0.929 . S
H1533 C1542 0.929 . S
C1534 H1528 0.930 . S
C1534 C1535 1.367 . S
C1534 C1542 1.378 . S
C1535 C1534 1.367 . S
C1535 C1543 1.433 . S
C1536 H1532 0.929 . S
C1536 C1538 1.378 . S
C1536 C1540 1.350 . S
C1537 C1540 1.463 . S
C1537 C1542 1.350 . S
C1537 N1545 1.427 . S
C1538 H1529 0.930 . S
C1538 C1536 1.378 . S
C1538 C1539 1.367 . S
C1539 C1538 1.367 . S
C1539 C1541 1.433 . S
C1540 C1536 1.350 . S
C1540 C1537 1.463 . S
C1540 N1544 1.427 . S
C1541 H1531 0.929 . S
C1541 C1539 1.433 . S
C1541 N1544 1.384 . S
C1542 H1533 0.929 . S
C1542 C1534 1.378 . S
C1542 C1537 1.350 . S
C1543 H1530 0.929 . S
C1543 C1535 1.433 . S
C1543 N1545 1.384 . S
N1544 C1540 1.427 . S
N1544 C1541 1.384 . S
N1545 C1537 1.427 . S
N1545 C1543 1.384 . S
H1546 C1552 0.930 . S
H1547 C1556 0.930 . S
H1548 C1561 0.929 . S
H1549 C1559 0.929 . S
H1550 C1554 0.929 . S
H1551 C1560 0.929 . S
C1552 H1546 0.930 . S
C1552 C1553 1.367 . S
C1552 C1560 1.378 . S
C1553 C1552 1.367 . S
C1553 C1561 1.433 . S
C1554 H1550 0.929 . S
C1554 C1556 1.378 . S
C1554 C1558 1.350 . S
C1555 C1558 1.463 . S
C1555 C1560 1.350 . S
C1555 N1563 1.427 . S
C1556 H1547 0.930 . S
C1556 C1554 1.378 . S
C1556 C1557 1.367 . S
C1557 C1556 1.367 . S
C1557 C1559 1.433 . S
C1558 C1554 1.350 . S
C1558 C1555 1.463 . S
C1558 N1562 1.427 . S
C1559 H1549 0.929 . S
C1559 C1557 1.433 . S
C1559 N1562 1.384 . S
C1560 H1551 0.929 . S
C1560 C1552 1.378 . S
C1560 C1555 1.350 . S
C1561 H1548 0.929 . S
C1561 C1553 1.433 . S
C1561 N1563 1.384 . S
N1562 C1558 1.427 . S
N1562 C1559 1.384 . S
N1563 C1555 1.427 . S
N1563 C1561 1.384 . S
H1564 C1570 0.930 . S
H1565 C1574 0.930 . S
H1566 C1579 0.929 . S
H1567 C1577 0.929 . S
H1568 C1572 0.929 . S
H1569 C1578 0.929 . S
C1570 H1564 0.930 . S
C1570 C1571 1.367 . S
C1570 C1578 1.378 . S
C1571 C1570 1.367 . S
C1571 C1579 1.433 . S
C1572 H1568 0.929 . S
C1572 C1574 1.378 . S
C1572 C1576 1.350 . S
C1573 C1576 1.463 . S
C1573 C1578 1.350 . S
C1573 N1581 1.427 . S
C1574 H1565 0.930 . S
C1574 C1572 1.378 . S
C1574 C1575 1.367 . S
C1575 C1574 1.367 . S
C1575 C1577 1.433 . S
C1576 C1572 1.350 . S
C1576 C1573 1.463 . S
C1576 N1580 1.427 . S
C1577 H1567 0.929 . S
C1577 C1575 1.433 . S
C1577 N1580 1.384 . S
C1578 H1569 0.929 . S
C1578 C1570 1.378 . S
C1578 C1573 1.350 . S
C1579 H1566 0.929 . S
C1579 C1571 1.433 . S
C1579 N1581 1.384 . S
N1580 C1576 1.427 . S
N1580 C1577 1.384 . S
N1581 C1573 1.427 . S
N1581 C1579 1.384 . S
H1582 C1588 0.930 . S
H1583 C1592 0.930 . S
H1584 C1597 0.929 . S
H1585 C1595 0.929 . S
H1586 C1590 0.929 . S
H1587 C1596 0.929 . S
C1588 H1582 0.930 . S
C1588 C1589 1.367 . S
C1588 C1596 1.378 . S
C1589 C1588 1.367 . S
C1589 C1597 1.433 . S
C1590 H1586 0.929 . S
C1590 C1592 1.378 . S
C1590 C1594 1.350 . S
C1591 C1594 1.463 . S
C1591 C1596 1.350 . S
C1591 N1599 1.427 . S
C1592 H1583 0.930 . S
C1592 C1590 1.378 . S
C1592 C1593 1.367 . S
C1593 C1592 1.367 . S
C1593 C1595 1.433 . S
C1594 C1590 1.350 . S
C1594 C1591 1.463 . S
C1594 N1598 1.427 . S
C1595 H1585 0.929 . S
C1595 C1593 1.433 . S
C1595 N1598 1.384 . S
C1596 H1587 0.929 . S
C1596 C1588 1.378 . S
C1596 C1591 1.350 . S
C1597 H1584 0.929 . S
C1597 C1589 1.433 . S
C1597 N1599 1.384 . S
N1598 C1594 1.427 . S
N1598 C1595 1.384 . S
N1599 C1591 1.427 . S
N1599 C1597 1.384 . S
C455 C51 1.207 . S
C459 C9 1.203 . S
C473 C37 1.210 . S
C477 C23 1.215 . S
C491 C107 1.204 . S
C495 C65 1.208 . S
C509 C93 1.219 . S
C513 C79 1.216 . S
C527 C121 1.202 . S
C531 C163 1.204 . S
C545 C135 1.214 . S
C549 C149 1.218 . S
C563 C219 1.206 . S
C567 C177 1.210 . S
C581 C191 1.219 . S
C585 C205 1.219 . S
C599 C233 1.215 . S
C603 C275 1.210 . S
C617 C247 1.213 . S
C621 C261 1.218 . S
C635 C331 1.202 . S
C639 C289 1.204 . S
C653 C317 1.217 . S
C657 C303 1.212 . S
C671 C387 1.203 . S
C675 C345 1.205 . S
C689 C359 1.207 . S
C693 C373 1.203 . S
C707 C401 1.203 . S
C711 C443 1.205 . S
C725 C415 1.217 . S
C729 C429 1.212 . S
C743 C287 1.411 . S
C747 C7 1.411 . S
C761 C189 1.416 . S
C765 C21 1.416 . S
C779 C35 1.408 . S
C783 C427 1.408 . S
C797 C49 1.409 . S
C801 C105 1.409 . S
C815 C231 1.412 . S
C819 C63 1.412 . S
C833 C133 1.417 . S
C837 C77 1.417 . S
C851 C371 1.418 . S
C855 C91 1.418 . S
C869 C119 1.418 . S
C873 C399 1.418 . S
C887 C315 1.415 . S
C891 C147 1.415 . S
C905 C217 1.409 . S
C909 C161 1.409 . S
C923 C343 1.417 . S
C927 C175 1.417 . S
C941 C203 1.413 . S
C945 C259 1.413 . S
C959 C413 1.419 . S
C963 C245 1.419 . S
C977 C273 1.418 . S
C981 C329 1.418 . S
C995 C357 1.419 . S
C999 C301 1.419 . S
C1013 C441 1.412 . S
C1017 C385 1.412 . S
C1031 C22 1.340 . S
C1035 C8 1.339 . S
C1049 C36 1.336 . S
C1053 C50 1.336 . S
C1067 C64 1.341 . S
C1071 C78 1.341 . S
C1085 C106 1.340 . S
C1089 C92 1.341 . S
C1103 C120 1.333 . S
C1107 C134 1.332 . S
C1121 C148 1.338 . S
C1125 C162 1.338 . S
C1139 C190 1.334 . S
C1143 C176 1.333 . S
C1157 C204 1.332 . S
C1161 C218 1.331 . S
C1175 C232 1.343 . S
C1179 C246 1.343 . S
C1193 C260 1.334 . S
C1197 C274 1.335 . S
C1211 C288 1.335 . S
C1215 C302 1.335 . S
C1229 C330 1.336 . S
C1233 C316 1.336 . S
C1247 C358 1.330 . S
C1251 C344 1.330 . S
C1265 C372 1.335 . S
C1269 C386 1.336 . S
C1283 C400 1.344 . S
C1287 C414 1.344 . S
C1301 C442 1.335 . S
C1305 C428 1.334 . S
C1319 C6 1.549 . S
C1323 C272 1.551 . S
C1337 C20 1.555 . S
C1341 C258 1.551 . S
C1355 C244 1.550 . S
C1359 C34 1.549 . S
C1373 C48 1.553 . S
C1377 C230 1.550 . S
C1391 C328 1.555 . S
C1395 C62 1.551 . S
C1409 C76 1.557 . S
C1413 C314 1.555 . S
C1427 C300 1.551 . S
C1431 C90 1.549 . S
C1445 C104 1.553 . S
C1449 C286 1.556 . S
C1463 C118 1.557 . S
C1467 C384 1.553 . S
C1481 C132 1.555 . S
C1485 C370 1.551 . S
C1499 C146 1.556 . S
C1503 C356 1.553 . S
C1517 C342 1.553 . S
C1521 C160 1.557 . S
C1535 C174 1.554 . S
C1539 C440 1.550 . S
C1553 C188 1.550 . S
C1557 C426 1.549 . S
C1571 C202 1.555 . S
C1575 C412 1.551 . S
C1589 C398 1.557 . S
C1593 C216 1.556 . S
