# Generated by pormake.
# Topology uoz, (4)-cn, num edge types: 1
# Building blocks:
#     Node 0, Type 0, BuildingBlock: KUFVIS_clean_sbu_0, # of connection points: 4
#     Node 1, Type 0, BuildingBlock: KUFVIS_clean_sbu_0, # of connection points: 4
#     Node 2, Type 0, BuildingBlock: KUFVIS_clean_sbu_0, # of connection points: 4
#     Node 3, Type 0, BuildingBlock: KUFVIS_clean_sbu_0, # of connection points: 4
#     Node 4, Type 0, BuildingBlock: KUFVIS_clean_sbu_0, # of connection points: 4
#     Node 5, Type 0, BuildingBlock: KUFVIS_clean_sbu_0, # of connection points: 4
#     Node 6, Type 0, BuildingBlock: KUFVIS_clean_sbu_0, # of connection points: 4
#     Node 7, Type 0, BuildingBlock: KUFVIS_clean_sbu_0, # of connection points: 4
#     Node 8, Type 0, BuildingBlock: KUFVIS_clean_sbu_0, # of connection points: 4
#     Node 9, Type 0, BuildingBlock: KUFVIS_clean_sbu_0, # of connection points: 4
#     Node 10, Type 0, BuildingBlock: KUFVIS_clean_sbu_0, # of connection points: 4
#     Node 11, Type 0, BuildingBlock: KUFVIS_clean_sbu_0, # of connection points: 4
#     Node 12, Type 0, BuildingBlock: KUFVIS_clean_sbu_0, # of connection points: 4
#     Node 13, Type 0, BuildingBlock: KUFVIS_clean_sbu_0, # of connection points: 4
#     Node 14, Type 0, BuildingBlock: KUFVIS_clean_sbu_0, # of connection points: 4
#     Node 15, Type 0, BuildingBlock: KUFVIS_clean_sbu_0, # of connection points: 4
#     Edge 16, Type (0, 0), BuildingBlock: OJICUG_clean_linker_0, # of connection points: 2
#     Edge 17, Type (0, 0), BuildingBlock: OJICUG_clean_linker_0, # of connection points: 2
#     Edge 18, Type (0, 0), BuildingBlock: OJICUG_clean_linker_0, # of connection points: 2
#     Edge 19, Type (0, 0), BuildingBlock: OJICUG_clean_linker_0, # of connection points: 2
#     Edge 20, Type (0, 0), BuildingBlock: OJICUG_clean_linker_0, # of connection points: 2
#     Edge 21, Type (0, 0), BuildingBlock: OJICUG_clean_linker_0, # of connection points: 2
#     Edge 22, Type (0, 0), BuildingBlock: OJICUG_clean_linker_0, # of connection points: 2
#     Edge 23, Type (0, 0), BuildingBlock: OJICUG_clean_linker_0, # of connection points: 2
#     Edge 24, Type (0, 0), BuildingBlock: OJICUG_clean_linker_0, # of connection points: 2
#     Edge 25, Type (0, 0), BuildingBlock: OJICUG_clean_linker_0, # of connection points: 2
#     Edge 26, Type (0, 0), BuildingBlock: OJICUG_clean_linker_0, # of connection points: 2
#     Edge 27, Type (0, 0), BuildingBlock: OJICUG_clean_linker_0, # of connection points: 2
#     Edge 28, Type (0, 0), BuildingBlock: OJICUG_clean_linker_0, # of connection points: 2
#     Edge 29, Type (0, 0), BuildingBlock: OJICUG_clean_linker_0, # of connection points: 2
#     Edge 30, Type (0, 0), BuildingBlock: OJICUG_clean_linker_0, # of connection points: 2
#     Edge 31, Type (0, 0), BuildingBlock: OJICUG_clean_linker_0, # of connection points: 2
#     Edge 32, Type (0, 0), BuildingBlock: OJICUG_clean_linker_0, # of connection points: 2
#     Edge 33, Type (0, 0), BuildingBlock: OJICUG_clean_linker_0, # of connection points: 2
#     Edge 34, Type (0, 0), BuildingBlock: OJICUG_clean_linker_0, # of connection points: 2
#     Edge 35, Type (0, 0), BuildingBlock: OJICUG_clean_linker_0, # of connection points: 2
#     Edge 36, Type (0, 0), BuildingBlock: OJICUG_clean_linker_0, # of connection points: 2
#     Edge 37, Type (0, 0), BuildingBlock: OJICUG_clean_linker_0, # of connection points: 2
#     Edge 38, Type (0, 0), BuildingBlock: OJICUG_clean_linker_0, # of connection points: 2
#     Edge 39, Type (0, 0), BuildingBlock: OJICUG_clean_linker_0, # of connection points: 2
#     Edge 40, Type (0, 0), BuildingBlock: OJICUG_clean_linker_0, # of connection points: 2
#     Edge 41, Type (0, 0), BuildingBlock: OJICUG_clean_linker_0, # of connection points: 2
#     Edge 42, Type (0, 0), BuildingBlock: OJICUG_clean_linker_0, # of connection points: 2
#     Edge 43, Type (0, 0), BuildingBlock: OJICUG_clean_linker_0, # of connection points: 2
#     Edge 44, Type (0, 0), BuildingBlock: OJICUG_clean_linker_0, # of connection points: 2
#     Edge 45, Type (0, 0), BuildingBlock: OJICUG_clean_linker_0, # of connection points: 2
#     Edge 46, Type (0, 0), BuildingBlock: OJICUG_clean_linker_0, # of connection points: 2
#     Edge 47, Type (0, 0), BuildingBlock: OJICUG_clean_linker_0, # of connection points: 2
# Relax obj value: 0.146
# Max RMSD: 0.147
# Mean RMSD: 0.147
data_MOF--net-uoz--node1-KUFVIS_clean_sbu_0--edge1-OJICUG_clean_linker_0
_symmetry_space_group_name_H-M    P1
_symmetry_Int_Tables_number       1
_symmetry_cell_setting            triclinic
loop_
_symmetry_equiv_pos_as_xyz
'x, y, z'
_cell_length_a     45.393077
_cell_length_b     45.404675
_cell_length_c     14.823856
_cell_angle_alpha  89.989907
_cell_angle_beta   89.978721
_cell_angle_gamma 90.002296
loop_
_atom_site_label
_atom_site_type_symbol
_atom_site_fract_x
_atom_site_fract_y
_atom_site_fract_z
_atom_type_partial_charge
Mn0 Mn 0.05377 0.56829 0.32947 0.0
Mn1 Mn 0.06073 0.58447 0.10512 0.0
C2 C 0.03501 0.53821 0.21741 0.0
C3 C 0.0679 0.54044 0.46077 0.0
C4 C 0.01593 0.6137 0.22516 0.0
O5 O 0.08779 0.59917 0.32847 0.0
O6 O 0.08829 0.60707 0.17719 0.0
C7 C 0.12053 0.55997 0.07751 0.0
N8 N 0.0916 0.56143 0.05371 0.0
C9 C 0.09956 0.52957 0.92661 0.0
C10 C 0.12951 0.52786 0.94922 0.0
C11 C 0.13999 0.54296 1.02545 0.0
C12 C 0.0812 0.54665 0.9814 0.0
H13 H 0.12866 0.57169 0.13568 0.0
C14 C 0.09773 0.61185 0.25657 0.0
O15 O 0.05052 0.56313 0.46575 0.0
O16 O 0.07956 0.53611 0.38224 0.0
N17 N 0.03501 0.56364 1.02573 0.0
C18 C 0.00521 0.56585 1.01715 0.0
C19 C 0.99096 0.55076 0.94696 0.0
C20 C 0.00755 0.534 0.88563 0.0
C21 C 0.03824 0.53246 0.89527 0.0
C22 C 0.05121 0.54789 0.96646 0.0
H23 H -0.00758 0.57892 0.06372 0.0
O24 O 0.02408 0.53699 0.29797 0.0
O25 O 0.05597 0.55688 0.20461 0.0
O26 O 0.02329 0.60122 0.29972 0.0
O27 O 0.0286 0.60863 0.15021 0.0
C28 C 0.05643 0.51593 0.83763 0.0
C29 C 0.08709 0.51453 0.85298 0.0
H30 H 0.14457 0.51476 0.90917 0.0
H31 H 0.16303 0.5416 0.04378 0.0
H32 H 0.96727 0.55211 0.93998 0.0
H33 H -0.00349 0.52231 0.83168 0.0
H34 H 0.04685 0.50392 0.78235 0.0
H35 H 0.10086 0.50156 0.8086 0.0
Mn36 Mn 0.72542 0.74054 0.57969 0.0
Mn37 Mn 0.70925 0.74756 0.35542 0.0
C38 C 0.7553 0.72143 0.46748 0.0
C39 C 0.75347 0.7544 0.71085 0.0
C40 C 0.67949 0.70322 0.47574 0.0
O41 O 0.69498 0.77493 0.57872 0.0
O42 O 0.68688 0.77533 0.42754 0.0
C43 C 0.7342 0.80714 0.3274 0.0
N44 N 0.73255 0.7782 0.30384 0.0
C45 C 0.76446 0.78584 0.17661 0.0
C46 C 0.76638 0.81579 0.199 0.0
C47 C 0.75134 0.82643 0.27517 0.0
C48 C 0.74725 0.76764 0.23156 0.0
H49 H 0.72251 0.81541 0.38548 0.0
C50 C 0.68228 0.78489 0.50691 0.0
O51 O 0.73057 0.73728 0.71597 0.0
O52 O 0.75794 0.76594 0.63224 0.0
N53 N 0.72987 0.72164 0.27608 0.0
C54 C 0.72746 0.69185 0.26775 0.0
C55 C 0.74246 0.67743 0.19766 0.0
C56 C 0.75935 0.69386 0.13619 0.0
C57 C 0.76111 0.72454 0.14563 0.0
C58 C 0.74577 0.73767 0.21675 0.0
H59 H 0.71433 0.67919 0.3145 0.0
O60 O 0.75638 0.71047 0.54801 0.0
O61 O 0.73683 0.74258 0.45476 0.0
O62 O 0.69203 0.7105 0.55026 0.0
O63 O 0.6848 0.71568 0.40064 0.0
C64 C 0.77778 0.74256 0.08786 0.0
C65 C 0.7794 0.77321 0.103 0.0
H66 H 0.77958 0.83072 0.15881 0.0
H67 H 0.75285 0.84947 0.2933 0.0
H68 H 0.74096 0.65375 0.19087 0.0
H69 H 0.77097 0.68269 0.08231 0.0
H70 H 0.78973 0.73285 0.03261 0.0
H71 H 0.79245 0.78685 0.05849 0.0
Mn72 Mn 0.55449 0.41436 0.82893 0.0
Mn73 Mn 0.54823 0.39809 0.60455 0.0
C74 C 0.57316 0.44462 0.71709 0.0
C75 C 0.53996 0.44212 0.95995 0.0
C76 C 0.59293 0.36922 0.7254 0.0
O77 O 0.52059 0.38339 0.82734 0.0
O78 O 0.52087 0.37506 0.67626 0.0
C79 C 0.48811 0.42163 0.57585 0.0
N80 N 0.51713 0.4207 0.55272 0.0
C81 C 0.50895 0.45252 0.42566 0.0
C82 C 0.47892 0.4537 0.44762 0.0
C83 C 0.4685 0.43835 0.52349 0.0
C84 C 0.52746 0.43571 0.48073 0.0
H85 H 0.48001 0.40968 0.63367 0.0
C86 C 0.51116 0.37035 0.75544 0.0
O87 O 0.55745 0.41951 0.96523 0.0
O88 O 0.52846 0.44643 0.88122 0.0
N89 N 0.57379 0.41934 0.52565 0.0
C90 C 0.60365 0.4176 0.5176 0.0
C91 C 0.61782 0.43299 0.44781 0.0
C92 C 0.6011 0.44957 0.38634 0.0
C93 C 0.57037 0.45064 0.39545 0.0
C94 C 0.55749 0.43494 0.4663 0.0
H95 H 0.61654 0.40469 0.56431 0.0
O96 O 0.58404 0.44586 0.7977 0.0
O97 O 0.55243 0.42572 0.70406 0.0
O98 O 0.58517 0.38151 0.79988 0.0
O99 O 0.58059 0.37437 0.65005 0.0
C100 C 0.55205 0.46694 0.33759 0.0
C101 C 0.52135 0.46782 0.35235 0.0
H102 H 0.46374 0.46657 0.40732 0.0
H103 H 0.44539 0.43928 0.54128 0.0
H104 H 0.64154 0.43202 0.44126 0.0
H105 H 0.61209 0.46149 0.33269 0.0
H106 H 0.56156 0.47917 0.28257 0.0
H107 H 0.50746 0.48057 0.30775 0.0
Mn108 Mn 0.8817 0.24109 0.08023 0.0
Mn109 Mn 0.89778 0.23414 0.85583 0.0
C110 C 0.85168 0.26004 0.9683 0.0
C111 C 0.85379 0.22708 0.21153 0.0
C112 C 0.92733 0.27867 0.9759 0.0
O113 O 0.91239 0.20693 0.07908 0.0
O114 O 0.92025 0.20642 0.92776 0.0
C115 C 0.87295 0.1745 0.82802 0.0
N116 N 0.87455 0.20343 0.80437 0.0
C117 C 0.84266 0.19571 0.67721 0.0
C118 C 0.84081 0.16576 0.69967 0.0
C119 C 0.85585 0.15516 0.77586 0.0
C120 C 0.85982 0.21396 0.73211 0.0
H121 H 0.88462 0.16628 0.88616 0.0
C122 C 0.92499 0.19694 1.00712 0.0
O123 O 0.8766 0.24432 0.21651 0.0
O124 O 0.84937 0.21548 0.133 0.0
N125 N 0.87706 0.26001 0.77662 0.0
C126 C 0.8794 0.2898 0.76822 0.0
C127 C 0.86437 0.30418 0.69813 0.0
C128 C 0.84753 0.28771 0.63672 0.0
C129 C 0.84585 0.25702 0.64619 0.0
C130 C 0.86121 0.24393 0.71731 0.0
H131 H 0.89253 0.30249 0.81487 0.0
O132 O 0.85054 0.27096 0.04886 0.0
O133 O 0.87025 0.239 0.95542 0.0
O134 O 0.91483 0.27137 0.05049 0.0
O135 O 0.92214 0.26609 0.90093 0.0
C136 C 0.82923 0.23896 0.58845 0.0
C137 C 0.82769 0.20831 0.60362 0.0
H138 H 0.82765 0.1508 0.65953 0.0
H139 H 0.85438 0.13213 0.79407 0.0
H140 H 0.86582 0.32786 0.69129 0.0
H141 H 0.83588 0.29885 0.58283 0.0
H142 H 0.81726 0.24864 0.53321 0.0
H143 H 0.81468 0.19462 0.55915 0.0
Mn144 Mn 0.05446 0.41474 0.85364 0.0
Mn145 Mn 0.0619 0.39868 0.07793 0.0
C146 C 0.03554 0.44466 0.96591 0.0
C147 C 0.0683 0.44267 0.72221 0.0
C148 C 0.01732 0.36889 0.95833 0.0
O149 O 0.08857 0.38399 0.85419 0.0
O150 O 0.0898 0.37653 1.00568 0.0
C151 C 0.1213 0.42413 0.10537 0.0
N152 N 0.0924 0.42218 0.1293 0.0
C153 C 0.0999 0.45401 0.25673 0.0
C154 C 0.12981 0.4562 0.23403 0.0
C155 C 0.14051 0.44137 0.15755 0.0
C156 C 0.08178 0.43671 0.20181 0.0
H157 H 0.12958 0.41262 0.047 0.0
C158 C 0.09901 0.3717 0.92605 0.0
O159 O 0.05105 0.41987 0.7174 0.0
O160 O 0.08001 0.44706 0.80061 0.0
N161 N 0.03587 0.41907 0.15744 0.0
C162 C 0.00609 0.41643 0.16601 0.0
C163 C -0.00839 0.43126 0.23632 0.0
C164 C 0.00796 0.44819 0.29779 0.0
C165 C 0.03863 0.45018 0.28815 0.0
C166 C 0.05182 0.43501 0.21681 0.0
H167 H -0.0065 0.40322 0.11933 0.0
O168 O 0.02457 0.44583 0.88543 0.0
O169 O 0.05669 0.42618 0.97847 0.0
O170 O 0.02426 0.38161 0.88379 0.0
O171 O 0.03014 0.37398 0.03299 0.0
C172 C 0.05657 0.46691 0.34593 0.0
C173 C 0.0872 0.46877 0.33056 0.0
H174 H 0.14468 0.46948 0.27417 0.0
H175 H 0.16351 0.44311 0.13914 0.0
H176 H 0.96794 0.42956 0.24329 0.0
H177 H -0.00326 0.45968 0.35185 0.0
H178 H 0.04681 0.47872 0.40136 0.0
H179 H 0.10079 0.48188 0.37506 0.0
Mn180 Mn 0.87908 0.74021 0.10389 0.0
Mn181 Mn 0.89529 0.74746 0.32807 0.0
C182 C 0.84912 0.72135 0.21631 0.0
C183 C 0.85113 0.75414 0.9726 0.0
C184 C 0.92486 0.70283 0.20824 0.0
O185 O 0.90981 0.77435 0.10439 0.0
O186 O 0.91768 0.77514 0.25567 0.0
C187 C 0.87038 0.80708 0.35545 0.0
N188 N 0.87204 0.77817 0.37938 0.0
C189 C 0.84017 0.78597 0.50662 0.0
C190 C 0.83826 0.81589 0.48387 0.0
C191 C 0.85326 0.82644 0.4075 0.0
C192 C 0.85735 0.7677 0.45182 0.0
H193 H 0.88203 0.81526 0.29718 0.0
C194 C 0.9224 0.78449 0.17613 0.0
O195 O 0.8739 0.73686 0.96764 0.0
O196 O 0.84675 0.76579 0.05109 0.0
N197 N 0.87467 0.72163 0.4077 0.0
C198 C 0.87708 0.69185 0.41639 0.0
C199 C 0.86209 0.67752 0.48668 0.0
C200 C 0.84523 0.69402 0.54801 0.0
C201 C 0.84349 0.72469 0.53825 0.0
C202 C 0.85881 0.73774 0.46693 0.0
H203 H 0.89021 0.67914 0.3698 0.0
O204 O 0.84794 0.71036 0.13584 0.0
O205 O 0.86768 0.74243 0.2288 0.0
O206 O 0.91224 0.70999 0.13371 0.0
O207 O 0.91971 0.7155 0.28311 0.0
C208 C 0.82686 0.74279 0.59589 0.0
C209 C 0.82525 0.77342 0.58041 0.0
H210 H 0.82508 0.83087 0.52392 0.0
H211 H 0.85175 0.84945 0.38907 0.0
H212 H 0.86359 0.65385 0.49376 0.0
H213 H 0.83362 0.68292 0.60207 0.0
H214 H 0.81494 0.73314 0.6513 0.0
H215 H 0.81222 0.78712 0.62482 0.0
Mn216 Mn 0.55188 0.56789 0.35285 0.0
Mn217 Mn 0.5437 0.58404 0.57681 0.0
C218 C 0.57084 0.53822 0.46563 0.0
C219 C 0.53848 0.53983 0.22136 0.0
C220 C 0.58839 0.61409 0.45786 0.0
O221 O 0.51763 0.59848 0.35243 0.0
O222 O 0.51565 0.60577 0.50388 0.0
C223 C 0.4846 0.55778 0.6033 0.0
N224 N 0.51339 0.56018 0.62787 0.0
C225 C 0.50606 0.52826 0.75523 0.0
C226 C 0.47624 0.52561 0.73188 0.0
C227 C 0.46552 0.54026 0.65513 0.0
C228 C 0.52404 0.54583 0.70066 0.0
H229 H 0.4763 0.56912 0.54464 0.0
C230 C 0.5067 0.61055 0.42395 0.0
O231 O 0.55562 0.56272 0.21672 0.0
O232 O 0.52663 0.5354 0.29955 0.0
N233 N 0.56982 0.56406 0.65702 0.0
C234 C 0.59953 0.56712 0.66614 0.0
C235 C 0.61405 0.55254 0.73683 0.0
C236 C 0.5978 0.53541 0.7981 0.0
C237 C 0.56719 0.53299 0.78788 0.0
C238 C 0.55394 0.54795 0.71623 0.0
H239 H 0.61206 0.58047 0.61962 0.0
O240 O 0.58192 0.53704 0.38526 0.0
O241 O 0.54947 0.55648 0.47775 0.0
O242 O 0.58183 0.60115 0.38339 0.0
O243 O 0.57528 0.60911 0.53217 0.0
C244 C 0.54935 0.51602 0.84536 0.0
C245 C 0.5188 0.51368 0.82933 0.0
H246 H 0.46148 0.51211 0.77172 0.0
H247 H 0.44259 0.53816 0.6362 0.0
H248 H 0.63768 0.55456 0.74425 0.0
H249 H 0.60906 0.52411 0.85243 0.0
H250 H 0.55915 0.50438 0.90105 0.0
H251 H 0.50532 0.50033 0.87353 0.0
Mn252 Mn 0.72813 0.24118 0.60441 0.0
Mn253 Mn 0.71189 0.2337 0.82859 0.0
C254 C 0.75811 0.25984 0.71685 0.0
C255 C 0.756 0.22724 0.47298 0.0
C256 C 0.68254 0.27863 0.70918 0.0
O257 O 0.69718 0.20726 0.60463 0.0
O258 O 0.68953 0.20608 0.75601 0.0
C259 C 0.73688 0.17408 0.85535 0.0
N260 N 0.73514 0.20294 0.87968 0.0
C261 C 0.76699 0.19502 1.00681 0.0
C262 C 0.76897 0.16514 0.9837 0.0
C263 C 0.75401 0.15467 0.90718 0.0
C264 C 0.74979 0.21333 0.95224 0.0
H265 H 0.72529 0.16597 0.79691 0.0
C266 C 0.6847 0.19692 0.67634 0.0
O267 O 0.73332 0.24465 0.46821 0.0
O268 O 0.76031 0.21546 0.55133 0.0
N269 N 0.73248 0.25944 0.90848 0.0
C270 C 0.73002 0.28921 0.91753 0.0
C271 C 0.74496 0.30346 0.98802 0.0
C272 C 0.76181 0.2869 0.0492 0.0
C273 C 0.76359 0.25625 0.0391 0.0
C274 C 0.74831 0.24328 0.96762 0.0
H275 H 0.71687 0.30197 0.87111 0.0
O276 O 0.7594 0.27084 0.6364 0.0
O277 O 0.73951 0.2388 0.72928 0.0
O278 O 0.69521 0.27157 0.63465 0.0
O279 O 0.68749 0.26573 0.78384 0.0
C280 C 0.78023 0.2381 0.09655 0.0
C281 C 0.7819 0.2075 0.08071 0.0
H282 H 0.78217 0.15012 1.02355 0.0
H283 H 0.75559 0.13169 0.88844 0.0
H284 H 0.74342 0.32712 0.99537 0.0
H285 H 0.77338 0.29795 0.10339 0.0
H286 H 0.79212 0.24769 0.15206 0.0
H287 H 0.79498 0.19377 0.12491 0.0
Mn288 Mn 0.37998 0.24229 0.6051 0.0
Mn289 Mn 0.39611 0.25034 0.82914 0.0
C290 C 0.35022 0.2234 0.71782 0.0
C291 C 0.35197 0.25581 0.4736 0.0
C292 C 0.42611 0.20567 0.71009 0.0
O293 O 0.41063 0.27647 0.60484 0.0
O294 O 0.41791 0.27839 0.75633 0.0
C295 C 0.37 0.30946 0.85612 0.0
N296 N 0.37231 0.28064 0.88042 0.0
C297 C 0.34047 0.28794 1.00801 0.0
C298 C 0.33791 0.31779 0.98493 0.0
C299 C 0.35257 0.32854 0.9082 0.0
C300 C 0.35795 0.26996 0.95321 0.0
H301 H 0.38135 0.31778 0.7975 0.0
C302 C 0.42271 0.28735 0.6764 0.0
O303 O 0.37482 0.23861 0.46895 0.0
O304 O 0.34756 0.26763 0.55183 0.0
N305 N 0.37604 0.22419 0.90914 0.0
C306 C 0.37896 0.19446 0.91791 0.0
C307 C 0.36431 0.1799 0.98844 0.0
C308 C 0.34726 0.19614 0.04991 0.0
C309 C 0.34497 0.22677 0.04004 0.0
C310 C 0.35998 0.24004 0.9685 0.0
H311 H 0.39226 0.18195 0.87123 0.0
O312 O 0.34902 0.21233 0.63746 0.0
O313 O 0.36857 0.24469 0.72997 0.0
O314 O 0.41318 0.21227 0.63561 0.0
O315 O 0.42112 0.21876 0.78441 0.0
C316 C 0.32806 0.24459 0.09774 0.0
C317 C 0.32586 0.27517 0.08205 0.0
H318 H 0.32447 0.33255 1.02497 0.0
H319 H 0.35053 0.35149 0.88948 0.0
H320 H 0.36623 0.15626 0.99558 0.0
H321 H 0.3359 0.18485 0.10413 0.0
H322 H 0.31638 0.23477 0.15333 0.0
H323 H 0.31259 0.28865 0.12643 0.0
Mn324 Mn 0.22689 0.74144 0.10229 0.0
Mn325 Mn 0.21078 0.73395 0.32652 0.0
C326 C 0.25663 0.76062 0.21465 0.0
C327 C 0.25495 0.72776 0.97094 0.0
C328 C 0.18071 0.77827 0.20667 0.0
O329 O 0.19641 0.70707 0.10287 0.0
O330 O 0.1888 0.70594 0.25427 0.0
C331 C 0.23654 0.67471 0.35408 0.0
N332 N 0.23444 0.70359 0.37796 0.0
C333 C 0.26627 0.69626 0.50545 0.0
C334 C 0.26862 0.66636 0.4828 0.0
C335 C 0.25386 0.6556 0.40631 0.0
C336 C 0.2489 0.71428 0.45046 0.0
H337 H 0.22507 0.66637 0.29572 0.0
C338 C 0.18409 0.69663 0.1747 0.0
O339 O 0.23203 0.74484 0.96603 0.0
O340 O 0.25944 0.71614 0.04941 0.0
N341 N 0.231 0.76009 0.40607 0.0
C342 C 0.22817 0.78984 0.41465 0.0
C343 C 0.24289 0.80439 0.48502 0.0
C344 C 0.2599 0.78813 0.54653 0.0
C345 C 0.26208 0.75749 0.53686 0.0
C346 C 0.24702 0.74422 0.46547 0.0
H347 H 0.21491 0.80236 0.36793 0.0
O348 O 0.25775 0.77158 0.13412 0.0
O349 O 0.23831 0.73934 0.2272 0.0
O350 O 0.19348 0.77135 0.13217 0.0
O351 O 0.18592 0.76556 0.28145 0.0
C352 C 0.27889 0.73963 0.5947 0.0
C353 C 0.28092 0.70902 0.57934 0.0
H354 H 0.28197 0.65157 0.523 0.0
H355 H 0.25572 0.6326 0.38795 0.0
H356 H 0.24105 0.82804 0.492 0.0
H357 H 0.2713 0.79941 0.60064 0.0
H358 H 0.2906 0.74945 0.65019 0.0
H359 H 0.29408 0.6955 0.6239 0.0
Mn360 Mn 0.22637 0.24058 0.08118 0.0
Mn361 Mn 0.21033 0.24749 0.85681 0.0
C362 C 0.25659 0.22192 0.96926 0.0
C363 C 0.25416 0.2548 0.21244 0.0
C364 C 0.18109 0.20264 0.97654 0.0
O365 O 0.19547 0.27456 0.08008 0.0
O366 O 0.18755 0.27493 0.92882 0.0
C367 C 0.23459 0.30739 0.82949 0.0
N368 N 0.23328 0.27846 0.80562 0.0
C369 C 0.26514 0.28661 0.67857 0.0
C370 C 0.26669 0.31655 0.70124 0.0
C371 C 0.25152 0.32694 0.7775 0.0
C372 C 0.24814 0.26815 0.73333 0.0
H373 H 0.22281 0.31545 0.88765 0.0
C374 C 0.18274 0.28439 1.00817 0.0
O375 O 0.2315 0.23737 0.21748 0.0
O376 O 0.25849 0.26642 0.13389 0.0
N377 N 0.23135 0.22189 0.77752 0.0
C378 C 0.22931 0.19208 0.76895 0.0
C379 C 0.24452 0.17791 0.69881 0.0
C380 C 0.26121 0.1946 0.63751 0.0
C381 C 0.26258 0.22529 0.64716 0.0
C382 C 0.24705 0.23817 0.71834 0.0
H383 H 0.21629 0.17922 0.81549 0.0
O384 O 0.25776 0.21095 0.04976 0.0
O385 O 0.23785 0.24281 0.95643 0.0
O386 O 0.19345 0.21005 0.05127 0.0
O387 O 0.18626 0.21528 0.90163 0.0
C388 C 0.27902 0.24357 0.58953 0.0
C389 C 0.28025 0.27422 0.6049 0.0
H390 H 0.27973 0.33168 0.66123 0.0
H391 H 0.25276 0.34997 0.79588 0.0
H392 H 0.24331 0.15422 0.69183 0.0
H393 H 0.27299 0.18362 0.58357 0.0
H394 H 0.29109 0.23405 0.53423 0.0
H395 H 0.29313 0.28807 0.5605 0.0
Mn396 Mn 0.38042 0.74295 0.57768 0.0
Mn397 Mn 0.39676 0.73687 0.35323 0.0
C398 C 0.35036 0.76201 0.46589 0.0
C399 C 0.35254 0.72855 0.70866 0.0
C400 C 0.42596 0.78112 0.4748 0.0
O401 O 0.41113 0.70879 0.57568 0.0
O402 O 0.41951 0.70921 0.42461 0.0
C403 C 0.37274 0.677 0.32349 0.0
N404 N 0.37391 0.70605 0.30085 0.0
C405 C 0.34213 0.69832 0.17344 0.0
C406 C 0.34071 0.66828 0.1949 0.0
C407 C 0.35591 0.65761 0.2707 0.0
C408 C 0.35904 0.71661 0.22894 0.0
H409 H 0.38458 0.66872 0.38125 0.0
C410 C 0.42411 0.69935 0.50365 0.0
O411 O 0.3753 0.74582 0.71403 0.0
O412 O 0.34812 0.71716 0.62983 0.0
N413 N 0.37576 0.76273 0.27464 0.0
C414 C 0.37776 0.79257 0.26705 0.0
C415 C 0.36253 0.80697 0.1974 0.0
C416 C 0.34586 0.79049 0.13559 0.0
C417 C 0.34453 0.75977 0.14423 0.0
C418 C 0.36007 0.74665 0.21497 0.0
H419 H 0.39074 0.80527 0.31403 0.0
O420 O 0.34916 0.77279 0.54664 0.0
O421 O 0.36909 0.74115 0.45271 0.0
O422 O 0.41356 0.77336 0.54911 0.0
O423 O 0.42074 0.76894 0.39925 0.0
C424 C 0.32813 0.74167 0.08599 0.0
C425 C 0.32701 0.71096 0.10022 0.0
H426 H 0.32776 0.65327 0.15425 0.0
H427 H 0.35479 0.63449 0.28809 0.0
H428 H 0.36371 0.83069 0.19121 0.0
H429 H 0.33407 0.80165 0.08204 0.0
H430 H 0.31601 0.75137 1.03105 0.0
H431 H 0.31422 0.69723 0.05528 0.0
Mn432 Mn 0.55355 0.06959 0.83188 0.0
Mn433 Mn 0.56021 0.08565 0.60743 0.0
C434 C 0.53457 0.03951 0.72014 0.0
C435 C 0.56776 0.04172 0.96298 0.0
C436 C 0.51579 0.11517 0.72802 0.0
O437 O 0.58771 0.10029 0.83028 0.0
O438 O 0.58796 0.10822 0.67898 0.0
C439 C 0.61991 0.06106 0.57872 0.0
N440 N 0.59092 0.06252 0.55558 0.0
C441 C 0.59859 0.03071 0.42822 0.0
C442 C 0.62859 0.029 0.45015 0.0
C443 C 0.63925 0.04407 0.52619 0.0
C444 C 0.58035 0.04776 0.48348 0.0
H445 H 0.62818 0.07279 0.63669 0.0
C446 C 0.59756 0.11295 0.75822 0.0
O447 O 0.55049 0.06449 0.96819 0.0
O448 O 0.57926 0.0373 0.8843 0.0
N449 N 0.53429 0.06483 0.52865 0.0
C450 C 0.50446 0.06704 0.52075 0.0
C451 C 0.49004 0.05194 0.45091 0.0
C452 C 0.50648 0.03517 0.38922 0.0
C453 C 0.53719 0.03362 0.3982 0.0
C454 C 0.55033 0.04903 0.46913 0.0
H455 H 0.49179 0.0801 0.56764 0.0
O456 O 0.52368 0.03838 0.80077 0.0
O457 O 0.55554 0.05814 0.70707 0.0
O458 O 0.52321 0.10272 0.80257 0.0
O459 O 0.52826 0.10993 0.65289 0.0
C460 C 0.55525 0.0171 0.34012 0.0
C461 C 0.58594 0.01572 0.35477 0.0
H462 H 0.64355 0.01592 0.40971 0.0
H463 H 0.66233 0.04272 0.54399 0.0
H464 H 0.46633 0.05329 0.44447 0.0
H465 H 0.49531 0.02348 0.33551 0.0
H466 H 0.54554 0.00509 0.285 0.0
H467 H 0.59963 0.00283 0.30998 0.0
Mn468 Mn 0.05252 0.91334 0.32859 0.0
Mn469 Mn 0.04517 0.8972 0.10433 0.0
C470 C 0.0715 0.94321 0.21629 0.0
C471 C 0.03876 0.94132 0.45996 0.0
C472 C 0.08972 0.86748 0.22416 0.0
O473 O 0.01829 0.88272 0.328 0.0
O474 O 0.01727 0.87504 0.17661 0.0
C475 C 0.98574 0.92256 0.07656 0.0
N476 N 0.01465 0.92067 0.05277 0.0
C477 C 0.00718 0.95255 0.92541 0.0
C478 C 0.97726 0.9547 0.94801 0.0
C479 C 0.96654 0.93981 1.02436 0.0
C480 C 0.02529 0.93524 0.98033 0.0
H481 H 0.97743 0.911 0.13483 0.0
C482 C 0.00795 0.87031 0.2562 0.0
O483 O 0.05595 0.91847 0.46481 0.0
O484 O 0.02706 0.94574 0.38156 0.0
N485 N 0.0712 0.91762 1.02482 0.0
C486 C 0.10099 0.91503 1.01637 0.0
C487 C 0.11548 0.92989 0.94614 0.0
C488 C 0.09914 0.94683 0.88465 0.0
C489 C 0.06847 0.94878 0.89418 0.0
C490 C 0.05525 0.93356 0.96542 0.0
H491 H 0.11358 0.90183 0.06309 0.0
O492 O 0.08248 0.94436 0.29677 0.0
O493 O 0.05033 0.92476 0.20371 0.0
O494 O 0.08268 0.88016 0.29867 0.0
O495 O 0.07695 0.87257 0.14941 0.0
C496 C 0.05053 0.96554 0.83642 0.0
C497 C 0.0199 0.96737 0.85171 0.0
H498 H 0.9624 0.96799 0.90787 0.0
H499 H 0.94352 0.94151 0.04267 0.0
H500 H 0.13915 0.92824 0.93927 0.0
H501 H 0.11037 0.95835 0.83067 0.0
H502 H 0.06031 0.9774 0.78109 0.0
H503 H 0.00633 0.98052 0.80725 0.0
Mn504 Mn 0.5543 0.9161 0.35601 0.0
Mn505 Mn 0.56178 0.89973 0.58009 0.0
C506 C 0.53546 0.94592 0.46864 0.0
C507 C 0.56815 0.94404 0.22466 0.0
C508 C 0.51708 0.87022 0.46016 0.0
O509 O 0.58832 0.88525 0.35615 0.0
O510 O 0.58971 0.87767 0.50756 0.0
C511 C 0.62117 0.92515 0.60797 0.0
N512 N 0.59227 0.92318 0.63181 0.0
C513 C 0.59971 0.95498 0.75934 0.0
C514 C 0.62963 0.95719 0.73672 0.0
C515 C 0.64036 0.94238 0.66026 0.0
C516 C 0.58163 0.93768 0.70435 0.0
H517 H 0.62948 0.91366 0.54959 0.0
C518 C 0.59885 0.87292 0.4278 0.0
O519 O 0.55083 0.92129 0.21985 0.0
O520 O 0.57991 0.94838 0.30302 0.0
N521 N 0.53573 0.92002 0.65983 0.0
C522 C 0.50596 0.91733 0.66838 0.0
C523 C 0.49146 0.93212 0.73873 0.0
C524 C 0.50777 0.94906 0.80025 0.0
C525 C 0.53844 0.95109 0.79065 0.0
C526 C 0.55167 0.93595 0.71929 0.0
H527 H 0.49338 0.90412 0.62168 0.0
O528 O 0.52451 0.94724 0.38815 0.0
O529 O 0.55659 0.9274 0.48099 0.0
O530 O 0.52401 0.8831 0.38588 0.0
O531 O 0.53 0.87508 0.53482 0.0
C532 C 0.55636 0.96784 0.84847 0.0
C533 C 0.58699 0.96974 0.83314 0.0
H534 H 0.64448 0.97048 0.77692 0.0
H535 H 0.66337 0.94414 0.64191 0.0
H536 H 0.46779 0.93039 0.74569 0.0
H537 H 0.49653 0.96052 0.85433 0.0
H538 H 0.54658 0.97964 0.9039 0.0
H539 H 0.60054 0.98287 0.87765 0.0
Mn540 Mn 0.05364 0.06693 0.8526 0.0
Mn541 Mn 0.04622 0.08297 0.07687 0.0
C542 C 0.07223 0.03681 0.96484 0.0
C543 C 0.03958 0.03912 0.72119 0.0
C544 C 0.09117 0.11239 0.95768 0.0
O545 O 0.01973 0.0979 0.85309 0.0
O546 O 0.01865 0.10548 1.00451 0.0
C547 C 0.9865 0.05817 0.10361 0.0
N548 N 0.01538 0.05978 0.12784 0.0
C549 C 0.00737 0.02796 0.25501 0.0
C550 C 0.97746 0.02611 0.23199 0.0
C551 C 0.96703 0.04111 0.15549 0.0
C552 C 0.02574 0.04508 0.20036 0.0
H553 H 0.97842 0.06981 0.04522 0.0
C554 C 0.00947 0.11037 0.92491 0.0
O555 O 0.05704 0.06176 0.71633 0.0
O556 O 0.02784 0.03482 0.79961 0.0
N557 N 0.07192 0.06223 0.15651 0.0
C558 C 0.10171 0.06453 0.16538 0.0
C559 C 0.11593 0.0495 0.23575 0.0
C560 C 0.09932 0.03272 0.297 0.0
C561 C 0.06864 0.03108 0.28705 0.0
C562 C 0.0557 0.04644 0.21565 0.0
H563 H 0.11451 0.07763 0.11888 0.0
O564 O 0.08326 0.03559 0.88441 0.0
O565 O 0.05124 0.05547 0.97737 0.0
O566 O 0.08409 0.09984 0.88297 0.0
O567 O 0.07829 0.10731 1.0323 0.0
C568 C 0.05043 0.01453 0.34459 0.0
C569 C 0.0198 0.01301 0.3289 0.0
H570 H 0.9624 0.01297 0.27191 0.0
H571 H 0.94404 0.03963 0.13682 0.0
H572 H 0.13961 0.05092 0.24296 0.0
H573 H 0.11034 0.02108 0.35112 0.0
H574 H 0.05999 0.00259 0.40007 0.0
H575 H 0.00601 3e-05 0.37321 0.0
C576 C 0.13262 0.68228 0.19254 0.0
C577 C 0.16166 0.67344 0.17417 0.0
H578 H 0.09002 0.67004 0.24218 0.0
C579 C 0.1702 0.64469 0.19791 0.0
H580 H 0.12581 0.70478 0.1797 0.0
C581 C 0.15004 0.62518 0.2378 0.0
C582 C 0.12105 0.63417 0.25656 0.0
H583 H 0.19284 0.63771 0.18895 0.0
H584 H 0.15675 0.60266 0.25058 0.0
C585 C 0.11263 0.66296 0.23314 0.0
C586 C 0.65053 0.8582 0.45182 0.0
C587 C 0.62175 0.85019 0.4266 0.0
H588 H 0.69225 0.84384 0.50462 0.0
C589 C 0.6125 0.82114 0.44247 0.0
H590 H 0.65782 0.88081 0.44472 0.0
C591 C 0.63147 0.80062 0.48208 0.0
C592 C 0.66027 0.80851 0.50705 0.0
H593 H 0.58997 0.8147 0.42844 0.0
H594 H 0.62409 0.77803 0.48929 0.0
C595 C 0.66969 0.83751 0.49071 0.0
C596 C 0.49537 0.31972 0.7271 0.0
C597 C 0.48759 0.34827 0.755 0.0
H598 H 0.48096 0.2786 0.67149 0.0
C599 C 0.45845 0.35772 0.74165 0.0
H600 H 0.51803 0.31235 0.73206 0.0
C601 C 0.43752 0.33883 0.7028 0.0
C602 C 0.4454 0.31028 0.67483 0.0
H603 H 0.45218 0.38014 0.75781 0.0
H604 H 0.41486 0.34612 0.69788 0.0
C605 C 0.47459 0.301 0.68767 0.0
C606 C 0.93808 0.14466 0.9872 0.0
C607 C 0.9472 0.17352 1.00705 0.0
H608 H 0.95045 0.10198 0.93723 0.0
C609 C 0.9761 0.18185 0.98456 0.0
H610 H 0.91549 0.13803 0.99928 0.0
C611 C -0.00458 0.16188 0.94388 0.0
C612 C 0.98644 0.13297 0.92439 0.0
H613 H 0.98329 0.20439 0.99443 0.0
H614 H 0.01801 0.16858 0.93182 0.0
C615 C 0.95756 0.12453 0.94708 0.0
C616 C 0.15071 0.35729 0.95075 0.0
C617 C 0.122 0.34906 0.92543 0.0
H618 H 0.19237 0.34335 1.00484 0.0
C619 C 0.11285 0.32003 0.94225 0.0
H620 H 0.15791 0.3799 0.94291 0.0
C621 C 0.13185 0.29975 0.98288 0.0
C622 C 0.16058 0.30787 1.00797 0.0
H623 H 0.09036 0.31345 0.92819 0.0
H624 H 0.12456 0.27715 0.99074 0.0
C625 C 0.16987 0.33686 0.9908 0.0
C626 C 0.95584 0.85667 0.23487 0.0
C627 C 0.98469 0.84794 0.25682 0.0
H628 H 0.91346 0.84352 0.1842 0.0
C629 C -0.00667 0.81894 0.23715 0.0
H630 H 0.949 0.87929 0.2448 0.0
C631 C 0.97369 0.79914 0.19716 0.0
C632 C 0.9448 0.80773 0.17557 0.0
H633 H 0.01587 0.81201 0.24863 0.0
H634 H 0.98063 0.77653 0.18716 0.0
C635 C 0.93603 0.83669 0.19557 0.0
C636 C 0.47464 0.6833 0.47482 0.0
C637 C 0.44606 0.67565 0.50288 0.0
H638 H 0.51567 0.66874 0.41887 0.0
C639 C 0.43645 0.64657 0.48943 0.0
H640 H 0.48212 0.70592 0.47985 0.0
C641 C 0.45525 0.62556 0.45046 0.0
C642 C 0.48384 0.63331 0.42234 0.0
H643 H 0.41401 0.6404 0.50565 0.0
H644 H 0.44786 0.60293 0.44557 0.0
C645 C 0.49325 0.66246 0.43516 0.0
C646 C 0.67032 0.14514 0.69937 0.0
C647 C 0.66204 0.17396 0.67555 0.0
H648 H 0.6565 0.10326 0.75225 0.0
C649 C 0.63306 0.18306 0.69365 0.0
H650 H 0.69289 0.13795 0.69051 0.0
C651 C 0.61289 0.1639 0.73414 0.0
C652 C 0.62106 0.13507 0.75785 0.0
H653 H 0.62645 0.20561 0.68069 0.0
H654 H 0.59032 0.17118 0.74303 0.0
C655 C 0.64999 0.12583 0.73929 0.0
C656 C 0.98064 0.33553 0.88305 0.0
C657 C -0.00686 0.34695 0.96185 0.0
H658 H 0.95017 0.30521 0.82573 0.0
C659 C 0.98281 0.33665 0.04619 0.0
H660 H 0.98793 0.34297 0.81729 0.0
C661 C 0.96104 0.31498 0.0515 0.0
C662 C 0.94917 0.30294 0.97265 0.0
H663 H -0.00828 0.34512 0.10879 0.0
H664 H 0.95398 0.30729 0.11722 0.0
C665 C 0.95899 0.31375 0.88835 0.0
C666 C 0.48038 0.14647 0.64073 0.0
C667 C 0.4916 0.13709 0.72497 0.0
H668 H 0.45103 0.17521 0.56956 0.0
C669 C 0.48018 0.14962 0.80375 0.0
H670 H 0.48846 0.13715 0.57819 0.0
C671 C 0.45871 0.1716 0.79833 0.0
C672 C 0.448 0.18147 0.71395 0.0
H673 H 0.48821 0.14294 0.86943 0.0
H674 H 0.45071 0.18102 0.86082 0.0
C675 C 0.45881 0.16832 0.63532 0.0
C676 C 0.62249 0.64669 0.54607 0.0
C677 C 0.61266 0.63593 0.46172 0.0
H678 H 0.6513 0.67605 0.61713 0.0
C679 C 0.62599 0.64656 0.3831 0.0
H680 H 0.61293 0.63884 0.60855 0.0
C681 C 0.648 0.66797 0.38849 0.0
C682 C 0.65737 0.67921 0.4727 0.0
H683 H 0.61913 0.63874 0.31736 0.0
H684 H 0.65746 0.6759 0.32596 0.0
C685 C 0.64464 0.66798 0.55148 0.0
C686 C 0.14658 0.81418 0.13113 0.0
C687 C 0.15854 0.80223 0.20998 0.0
H688 H 0.1156 0.844 0.07379 0.0
C689 C 0.1485 0.81282 0.29428 0.0
H690 H 0.15379 0.80665 0.0654 0.0
C691 C 0.12659 0.83435 0.29956 0.0
C692 C 0.11404 0.8457 0.22074 0.0
H693 H 0.15737 0.80432 0.3569 0.0
H694 H 0.11916 0.84165 0.36531 0.0
C695 C 0.12455 0.83558 0.13641 0.0
C696 C 0.97888 0.6466 0.30081 0.0
C697 C 0.99144 0.63529 0.22191 0.0
H698 H 0.94807 0.67658 0.35832 0.0
C699 C 0.98085 0.64538 0.13766 0.0
H700 H 0.98634 0.6393 0.36651 0.0
C701 C 0.9588 0.66677 0.1325 0.0
C702 C 0.94688 0.67873 0.21142 0.0
H703 H 0.98979 0.637 0.07497 0.0
H704 H 0.95158 0.67433 0.06681 0.0
C705 C 0.95693 0.66809 0.29566 0.0
C706 C 0.12801 0.14572 0.88287 0.0
C707 C 0.11547 0.13418 0.96148 0.0
H708 H 0.15847 0.17617 0.82602 0.0
C709 C 0.12582 0.14432 0.04599 0.0
H710 H 0.12073 0.1384 0.81701 0.0
C711 C 0.14756 0.16602 0.05164 0.0
C712 C 0.15941 0.17824 0.97298 0.0
H713 H 0.1169 0.13575 0.10846 0.0
H714 H 0.15458 0.17361 0.11748 0.0
C715 C 0.14965 0.16751 0.88852 0.0
C716 C 0.65009 0.31304 0.79679 0.0
C717 C 0.66085 0.30303 0.71261 0.0
H718 H 0.6205 0.34176 0.86733 0.0
C719 C 0.65018 0.31616 0.63375 0.0
H720 H 0.65799 0.30366 0.85945 0.0
C721 C 0.62865 0.33805 0.63875 0.0
C722 C 0.61729 0.34747 0.72279 0.0
H723 H 0.65802 0.30918 0.56813 0.0
H724 H 0.62066 0.34732 0.57604 0.0
C725 C 0.62863 0.33503 0.80179 0.0
C726 C 0.45731 0.81685 0.38888 0.0
C727 C 0.44793 0.80527 0.47267 0.0
H728 H 0.48626 0.84629 0.31881 0.0
C729 C 0.46062 0.81619 0.55186 0.0
H730 H 0.44787 0.80917 0.32607 0.0
C731 C 0.48278 0.8375 0.54724 0.0
C732 C 0.49269 0.84852 0.46328 0.0
H733 H 0.45394 0.80786 0.61722 0.0
H734 H 0.49232 0.84509 0.61001 0.0
C735 C 0.47936 0.83823 0.38427 0.0
C736 C 0.00585 0.50231 0.12477 0.0
C737 C 0.03275 0.51348 0.15636 0.0
H738 H 0.98538 0.47109 0.03468 0.0
C739 C 0.05935 0.50203 0.12497 0.0
H740 H 0.98515 0.51109 0.14915 0.0
C741 C 0.05947 0.48106 0.05849 0.0
C742 C 0.03301 0.4693 1.02721 0.0
H743 H 0.08034 0.50989 0.15023 0.0
H744 H 0.08055 0.47348 0.03305 0.0
C745 C 0.00597 0.48012 0.05898 0.0
C746 C 0.81278 0.74551 0.3088 0.0
C747 C 0.8244 0.71897 0.27755 0.0
H748 H 0.78401 0.76656 0.40038 0.0
C749 C 0.81337 0.69202 0.30927 0.0
H750 H 0.82053 0.76652 0.28344 0.0
C751 C 0.79111 0.69204 0.37493 0.0
C752 C 0.78008 0.71901 0.40649 0.0
H753 H 0.82227 0.67137 0.285 0.0
H754 H 0.78218 0.6714 0.39924 0.0
C755 C 0.79174 0.74552 0.37516 0.0
C756 C 0.54758 0.50159 0.55913 0.0
C757 C 0.57381 0.51379 0.52755 0.0
H758 H 0.52729 0.47233 0.65085 0.0
C759 C 0.60105 0.50343 0.55908 0.0
H760 H 0.52637 0.5088 0.53381 0.0
C761 C 0.60162 0.48122 0.6248 0.0
C762 C 0.57494 0.46956 0.65657 0.0
H763 H 0.62147 0.51278 0.53447 0.0
H764 H 0.62249 0.47276 0.64884 0.0
C765 C 0.54812 0.48059 0.62552 0.0
C766 C 0.81584 0.28932 0.87577 0.0
C767 C 0.82691 0.26238 0.90741 0.0
H768 H 0.78471 0.30989 0.7856 0.0
C769 C 0.81534 0.23583 0.87614 0.0
H770 H 0.82472 0.30998 0.90004 0.0
C771 C 0.79436 0.23578 0.80969 0.0
C772 C 0.78272 0.26228 0.77831 0.0
H773 H 0.82313 0.21482 0.90145 0.0
H774 H 0.78669 0.21474 0.78431 0.0
C775 C 0.79365 0.28927 0.81 0.0
C776 C 0.29273 0.24662 0.87749 0.0
C777 C 0.28146 0.21991 0.90857 0.0
H778 H 0.32111 0.26811 0.78567 0.0
C779 C 0.29287 0.19312 0.87682 0.0
H780 H 0.28469 0.26752 0.90287 0.0
C781 C 0.31509 0.19349 0.81111 0.0
C782 C 0.3257 0.22063 0.77955 0.0
H783 H 0.28422 0.17234 0.90093 0.0
H784 H 0.32427 0.17299 0.78658 0.0
C785 C 0.31372 0.24696 0.81103 0.0
C786 C 0.31404 0.79086 0.37359 0.0
C787 C 0.32546 0.76407 0.40523 0.0
H788 H 0.28263 0.81103 0.28342 0.0
C789 C 0.31423 0.73737 0.37391 0.0
H790 H 0.32265 0.81164 0.39782 0.0
C791 C 0.29323 0.73705 0.30748 0.0
C792 C 0.28124 0.7634 0.27608 0.0
H793 H 0.3223 0.71645 0.39912 0.0
H794 H 0.28584 0.71591 0.28212 0.0
C795 C 0.29183 0.79052 0.30781 0.0
C796 C 0.50577 0.98122 0.56196 0.0
C797 C 0.53284 0.97045 0.53037 0.0
H798 H 0.4848 0.01218 0.65185 0.0
C799 C 0.55926 0.98223 0.56192 0.0
H800 H 0.4852 0.97218 0.5374 0.0
C801 C 0.55905 0.00322 0.62836 0.0
C802 C 0.5324 0.01464 0.6595 0.0
H803 H 0.58037 0.9747 0.53661 0.0
H804 H 0.58 0.01114 0.65371 0.0
C805 C 0.50554 0.00341 0.62773 0.0
C806 C 0.10132 0.00093 0.05781 0.0
C807 C 0.07444 0.01208 1.02593 0.0
H808 H 0.12172 0.96972 0.14806 0.0
C809 C 0.04782 0.00059 0.05699 0.0
H810 H 0.12204 0.00974 0.03367 0.0
C811 C 0.04764 0.9796 0.12345 0.0
C812 C 0.07408 0.96786 0.155 0.0
H813 H 0.02685 0.00842 1.03147 0.0
H814 H 0.02655 0.97199 0.14865 0.0
C815 C 0.10114 0.97872 0.12355 0.0
C816 C 0.09561 0.47954 0.62162 0.0
C817 C 0.06907 0.46632 0.65046 0.0
H818 H 0.11631 0.51257 0.53768 0.0
C819 C 0.04253 0.47881 0.61929 0.0
H820 H 0.11648 0.47093 0.64517 0.0
C821 C 0.04243 0.50411 0.56383 0.0
C822 C 0.06887 0.5168 0.53253 0.0
H823 H 0.02164 0.46978 0.64131 0.0
H824 H 0.02147 0.51298 0.54189 0.0
C825 C 0.09551 0.5038 0.5613 0.0
C826 C 0.81486 0.72861 0.86953 0.0
C827 C 0.82751 0.75507 0.90078 0.0
H828 H 0.78059 0.70778 0.79197 0.0
C829 C 0.81449 0.78168 0.87189 0.0
H830 H 0.82374 0.70767 0.89157 0.0
C831 C 0.79026 0.78174 0.81147 0.0
C832 C 0.77709 0.7552 0.78265 0.0
H833 H 0.82323 0.80249 0.89548 0.0
H834 H 0.78164 0.8026 0.78784 0.0
C835 C 0.78959 0.72868 0.81397 0.0
C836 C 0.56466 0.50397 0.11845 0.0
C837 C 0.53797 0.51616 0.14967 0.0
H838 H 0.58609 0.47006 0.04094 0.0
C839 C 0.51159 0.50267 0.12086 0.0
H840 H 0.58544 0.51322 0.14043 0.0
C841 C 0.51195 0.47843 0.06051 0.0
C842 C 0.53873 0.46573 1.03171 0.0
H843 H 0.49062 0.51106 0.14442 0.0
H844 H 0.49125 0.46944 0.03691 0.0
C845 C 0.56503 0.4787 0.06295 0.0
C846 C 0.81758 0.25276 0.31446 0.0
C847 C 0.83014 0.22624 0.2833 0.0
H848 H 0.78336 0.27373 0.39186 0.0
C849 C 0.81699 0.19969 0.31212 0.0
H850 H 0.82657 0.27366 0.29242 0.0
C851 C 0.79272 0.19973 0.37245 0.0
C852 C 0.77965 0.22633 0.40121 0.0
H853 H 0.82565 0.17884 0.28857 0.0
H854 H 0.784 0.17891 0.39607 0.0
C855 C 0.79228 0.2528 0.36992 0.0
C856 C 0.31488 0.28286 0.37325 0.0
C857 C 0.3283 0.25642 0.4019 0.0
H858 H 0.28167 0.30335 0.28954 0.0
C859 C 0.31599 0.2298 0.37067 0.0
H860 H 0.32334 0.30378 0.39685 0.0
C861 C 0.29068 0.22953 0.3153 0.0
C862 C 0.27778 0.2559 0.28421 0.0
H863 H 0.32518 0.20897 0.39257 0.0
H864 H 0.28195 0.20853 0.29327 0.0
C865 C 0.2906 0.28261 0.31303 0.0
C866 C 0.3162 0.75385 0.81207 0.0
C867 C 0.32893 0.72746 0.78056 0.0
H868 H 0.28189 0.77451 0.8899 0.0
C869 C 0.31603 0.70078 0.8094 0.0
H870 H 0.325 0.77484 0.79009 0.0
C871 C 0.29183 0.7006 0.86999 0.0
C872 C 0.27859 0.72708 0.89907 0.0
H873 H 0.32484 0.68002 0.78564 0.0
H874 H 0.28329 0.6797 0.89356 0.0
C875 C 0.29096 0.75366 0.86778 0.0
C876 C 0.54239 0.98012 0.12155 0.0
C877 C 0.56894 0.96769 0.15292 0.0
H878 H 0.52133 0.01422 0.0439 0.0
C879 C 0.59547 0.98091 0.12413 0.0
H880 H 0.52151 0.97107 0.14349 0.0
C881 C 0.59537 0.00515 0.0637 0.0
C882 C 0.56873 0.01809 0.03477 0.0
H883 H 0.61634 0.97234 0.14779 0.0
H884 H 0.61617 0.01393 0.04014 0.0
C885 C 0.54229 0.00539 0.06598 0.0
C886 C 0.01183 0.00262 0.6206 0.0
C887 C 0.03853 0.01549 0.64942 0.0
H888 H 0.99072 0.96985 0.53676 0.0
C889 C 0.06492 0.00265 0.61827 0.0
H890 H 0.99107 0.01151 0.64412 0.0
C891 C 0.0647 0.97735 0.56288 0.0
C892 C 0.03809 0.96499 0.53166 0.0
H893 H 0.08592 0.01141 0.64027 0.0
H894 H 0.08555 0.9682 0.54096 0.0
C895 C 0.01163 0.97835 0.56035 0.0
loop_
_geom_bond_atom_site_label_1
_geom_bond_atom_site_label_2
_geom_bond_distance
_geom_bond_site_symmetry_2
_ccdc_geom_bond_type
Mn0 O5 2.095 . S
Mn0 O15 2.162 . S
Mn0 O16 2.297 . S
Mn0 O24 2.385 . S
Mn0 O25 2.209 . S
Mn0 O26 2.094 . S
Mn1 O6 2.121 . S
Mn1 N8 2.257 1_554 S
Mn1 N17 2.282 1_554 S
Mn1 O25 2.215 . S
Mn1 O27 2.117 . S
C2 O24 1.234 . S
C2 O25 1.283 . S
C3 O15 1.281 . S
C3 O16 1.236 . S
C4 O26 1.240 . S
C4 O27 1.264 . S
O5 Mn0 2.095 . S
O5 C14 1.250 . S
O6 Mn1 2.121 . S
O6 C14 1.258 . S
C7 N8 1.326 . S
C7 C11 1.460 . S
C7 H13 0.929 1_556 S
N8 Mn1 2.257 1_556 S
N8 C7 1.326 . S
N8 C12 1.362 . S
C9 C10 1.258 . S
C9 C12 1.431 . S
C9 C29 1.449 . S
C10 C9 1.258 . S
C10 C11 1.477 . S
C10 H30 0.931 . S
C11 C7 1.460 . S
C11 C10 1.477 . S
C11 H31 0.930 . S
C12 N8 1.362 . S
C12 C9 1.431 . S
C12 C22 1.476 . S
H13 C7 0.929 1_554 S
C14 O5 1.250 . S
C14 O6 1.258 . S
O15 Mn0 2.162 . S
O15 C3 1.281 . S
O16 Mn0 2.297 . S
O16 C3 1.236 . S
N17 Mn1 2.282 1_556 S
N17 C18 1.328 . S
N17 C22 1.318 . S
C18 N17 1.328 . S
C18 C19 1.457 . S
C18 H23 0.929 1_556 S
C19 C18 1.457 . S
C19 C20 1.291 . S
C19 H32 0.931 1_455 S
C20 C19 1.291 . S
C20 C21 1.373 . S
C20 H33 0.929 . S
C21 C20 1.373 . S
C21 C22 1.396 . S
C21 C28 1.403 . S
C22 C12 1.476 . S
C22 N17 1.318 . S
C22 C21 1.396 . S
H23 C18 0.929 1_554 S
O24 Mn0 2.385 . S
O24 C2 1.234 . S
O25 Mn0 2.209 . S
O25 Mn1 2.215 . S
O25 C2 1.283 . S
O26 Mn0 2.094 . S
O26 C4 1.240 . S
O27 Mn1 2.117 . S
O27 C4 1.264 . S
C28 C21 1.403 . S
C28 C29 1.399 . S
C28 H34 0.929 . S
C29 C9 1.449 . S
C29 C28 1.399 . S
C29 H35 0.930 . S
H30 C10 0.931 . S
H31 C11 0.930 . S
H32 C19 0.931 1_655 S
H33 C20 0.929 . S
H34 C28 0.929 . S
H35 C29 0.930 . S
Mn36 O41 2.095 . S
Mn36 O51 2.162 . S
Mn36 O52 2.297 . S
Mn36 O60 2.385 . S
Mn36 O61 2.209 . S
Mn36 O62 2.094 . S
Mn37 O42 2.121 . S
Mn37 N44 2.257 . S
Mn37 N53 2.282 . S
Mn37 O61 2.215 . S
Mn37 O63 2.117 . S
C38 O60 1.234 . S
C38 O61 1.283 . S
C39 O51 1.281 . S
C39 O52 1.236 . S
C40 O62 1.240 . S
C40 O63 1.264 . S
O41 Mn36 2.095 . S
O41 C50 1.250 . S
O42 Mn37 2.121 . S
O42 C50 1.258 . S
C43 N44 1.326 . S
C43 C47 1.460 . S
C43 H49 0.929 . S
N44 Mn37 2.257 . S
N44 C43 1.326 . S
N44 C48 1.362 . S
C45 C46 1.258 . S
C45 C48 1.431 . S
C45 C65 1.449 . S
C46 C45 1.258 . S
C46 C47 1.477 . S
C46 H66 0.931 . S
C47 C43 1.460 . S
C47 C46 1.477 . S
C47 H67 0.930 . S
C48 N44 1.362 . S
C48 C45 1.431 . S
C48 C58 1.476 . S
H49 C43 0.929 . S
C50 O41 1.250 . S
C50 O42 1.258 . S
O51 Mn36 2.162 . S
O51 C39 1.281 . S
O52 Mn36 2.297 . S
O52 C39 1.236 . S
N53 Mn37 2.282 . S
N53 C54 1.328 . S
N53 C58 1.318 . S
C54 N53 1.328 . S
C54 C55 1.457 . S
C54 H59 0.929 . S
C55 C54 1.457 . S
C55 C56 1.291 . S
C55 H68 0.931 . S
C56 C55 1.291 . S
C56 C57 1.373 . S
C56 H69 0.929 . S
C57 C56 1.373 . S
C57 C58 1.396 . S
C57 C64 1.403 . S
C58 C48 1.476 . S
C58 N53 1.318 . S
C58 C57 1.396 . S
H59 C54 0.929 . S
O60 Mn36 2.385 . S
O60 C38 1.234 . S
O61 Mn36 2.209 . S
O61 Mn37 2.215 . S
O61 C38 1.283 . S
O62 Mn36 2.094 . S
O62 C40 1.240 . S
O63 Mn37 2.117 . S
O63 C40 1.264 . S
C64 C57 1.403 . S
C64 C65 1.399 . S
C64 H70 0.929 1_554 S
C65 C45 1.449 . S
C65 C64 1.399 . S
C65 H71 0.930 1_554 S
H66 C46 0.931 . S
H67 C47 0.930 . S
H68 C55 0.931 . S
H69 C56 0.929 . S
H70 C64 0.929 1_556 S
H71 C65 0.930 1_556 S
Mn72 O77 2.095 . S
Mn72 O87 2.162 . S
Mn72 O88 2.297 . S
Mn72 O96 2.385 . S
Mn72 O97 2.209 . S
Mn72 O98 2.094 . S
Mn73 O78 2.121 . S
Mn73 N80 2.257 . S
Mn73 N89 2.282 . S
Mn73 O97 2.215 . S
Mn73 O99 2.117 . S
C74 O96 1.234 . S
C74 O97 1.283 . S
C75 O87 1.281 . S
C75 O88 1.236 . S
C76 O98 1.240 . S
C76 O99 1.264 . S
O77 Mn72 2.095 . S
O77 C86 1.250 . S
O78 Mn73 2.121 . S
O78 C86 1.258 . S
C79 N80 1.326 . S
C79 C83 1.460 . S
C79 H85 0.929 . S
N80 Mn73 2.257 . S
N80 C79 1.326 . S
N80 C84 1.362 . S
C81 C82 1.258 . S
C81 C84 1.431 . S
C81 C101 1.449 . S
C82 C81 1.258 . S
C82 C83 1.477 . S
C82 H102 0.931 . S
C83 C79 1.460 . S
C83 C82 1.477 . S
C83 H103 0.930 . S
C84 N80 1.362 . S
C84 C81 1.431 . S
C84 C94 1.476 . S
H85 C79 0.929 . S
C86 O77 1.250 . S
C86 O78 1.258 . S
O87 Mn72 2.162 . S
O87 C75 1.281 . S
O88 Mn72 2.297 . S
O88 C75 1.236 . S
N89 Mn73 2.282 . S
N89 C90 1.328 . S
N89 C94 1.318 . S
C90 N89 1.328 . S
C90 C91 1.457 . S
C90 H95 0.929 . S
C91 C90 1.457 . S
C91 C92 1.291 . S
C91 H104 0.931 . S
C92 C91 1.291 . S
C92 C93 1.373 . S
C92 H105 0.929 . S
C93 C92 1.373 . S
C93 C94 1.396 . S
C93 C100 1.403 . S
C94 C84 1.476 . S
C94 N89 1.318 . S
C94 C93 1.396 . S
H95 C90 0.929 . S
O96 Mn72 2.385 . S
O96 C74 1.234 . S
O97 Mn72 2.209 . S
O97 Mn73 2.215 . S
O97 C74 1.283 . S
O98 Mn72 2.094 . S
O98 C76 1.240 . S
O99 Mn73 2.117 . S
O99 C76 1.264 . S
C100 C93 1.403 . S
C100 C101 1.399 . S
C100 H106 0.929 . S
C101 C81 1.449 . S
C101 C100 1.399 . S
C101 H107 0.930 . S
H102 C82 0.931 . S
H103 C83 0.930 . S
H104 C91 0.931 . S
H105 C92 0.929 . S
H106 C100 0.929 . S
H107 C101 0.930 . S
Mn108 O113 2.095 . S
Mn108 O123 2.162 . S
Mn108 O124 2.297 . S
Mn108 O132 2.385 1_554 S
Mn108 O133 2.209 1_554 S
Mn108 O134 2.094 . S
Mn109 O114 2.121 . S
Mn109 N116 2.257 . S
Mn109 N125 2.282 . S
Mn109 O133 2.215 . S
Mn109 O135 2.117 . S
C110 O132 1.234 . S
C110 O133 1.283 . S
C111 O123 1.281 . S
C111 O124 1.236 . S
C112 O134 1.240 1_556 S
C112 O135 1.264 . S
O113 Mn108 2.095 . S
O113 C122 1.250 1_554 S
O114 Mn109 2.121 . S
O114 C122 1.258 . S
C115 N116 1.326 . S
C115 C119 1.460 . S
C115 H121 0.929 . S
N116 Mn109 2.257 . S
N116 C115 1.326 . S
N116 C120 1.362 . S
C117 C118 1.258 . S
C117 C120 1.431 . S
C117 C137 1.449 . S
C118 C117 1.258 . S
C118 C119 1.477 . S
C118 H138 0.931 . S
C119 C115 1.460 . S
C119 C118 1.477 . S
C119 H139 0.930 . S
C120 N116 1.362 . S
C120 C117 1.431 . S
C120 C130 1.476 . S
H121 C115 0.929 . S
C122 O113 1.250 1_556 S
C122 O114 1.258 . S
O123 Mn108 2.162 . S
O123 C111 1.281 . S
O124 Mn108 2.297 . S
O124 C111 1.236 . S
N125 Mn109 2.282 . S
N125 C126 1.328 . S
N125 C130 1.318 . S
C126 N125 1.328 . S
C126 C127 1.457 . S
C126 H131 0.929 . S
C127 C126 1.457 . S
C127 C128 1.291 . S
C127 H140 0.931 . S
C128 C127 1.291 . S
C128 C129 1.373 . S
C128 H141 0.929 . S
C129 C128 1.373 . S
C129 C130 1.396 . S
C129 C136 1.403 . S
C130 C120 1.476 . S
C130 N125 1.318 . S
C130 C129 1.396 . S
H131 C126 0.929 . S
O132 Mn108 2.385 1_556 S
O132 C110 1.234 . S
O133 Mn108 2.209 1_556 S
O133 Mn109 2.215 . S
O133 C110 1.283 . S
O134 Mn108 2.094 . S
O134 C112 1.240 1_554 S
O135 Mn109 2.117 . S
O135 C112 1.264 . S
C136 C129 1.403 . S
C136 C137 1.399 . S
C136 H142 0.929 . S
C137 C117 1.449 . S
C137 C136 1.399 . S
C137 H143 0.930 . S
H138 C118 0.931 . S
H139 C119 0.930 . S
H140 C127 0.931 . S
H141 C128 0.929 . S
H142 C136 0.929 . S
H143 C137 0.930 . S
Mn144 O149 2.095 . S
Mn144 O159 2.162 . S
Mn144 O160 2.297 . S
Mn144 O168 2.385 . S
Mn144 O169 2.209 . S
Mn144 O170 2.094 . S
Mn145 O150 2.121 1_554 S
Mn145 N152 2.257 . S
Mn145 N161 2.282 . S
Mn145 O169 2.215 1_554 S
Mn145 O171 2.117 1_554 S
C146 O168 1.234 . S
C146 O169 1.283 . S
C147 O159 1.281 . S
C147 O160 1.236 . S
C148 O170 1.240 . S
C148 O171 1.264 . S
O149 Mn144 2.095 . S
O149 C158 1.250 . S
O150 Mn145 2.121 1_556 S
O150 C158 1.258 . S
C151 N152 1.326 . S
C151 C155 1.460 . S
C151 H157 0.929 . S
N152 Mn145 2.257 . S
N152 C151 1.326 . S
N152 C156 1.362 . S
C153 C154 1.258 . S
C153 C156 1.431 . S
C153 C173 1.449 . S
C154 C153 1.258 . S
C154 C155 1.477 . S
C154 H174 0.931 . S
C155 C151 1.460 . S
C155 C154 1.477 . S
C155 H175 0.930 . S
C156 N152 1.362 . S
C156 C153 1.431 . S
C156 C166 1.476 . S
H157 C151 0.929 . S
C158 O149 1.250 . S
C158 O150 1.258 . S
O159 Mn144 2.162 . S
O159 C147 1.281 . S
O160 Mn144 2.297 . S
O160 C147 1.236 . S
N161 Mn145 2.282 . S
N161 C162 1.328 . S
N161 C166 1.318 . S
C162 N161 1.328 . S
C162 C163 1.457 . S
C162 H167 0.929 . S
C163 C162 1.457 . S
C163 C164 1.291 . S
C163 H176 0.931 1_455 S
C164 C163 1.291 . S
C164 C165 1.373 . S
C164 H177 0.929 . S
C165 C164 1.373 . S
C165 C166 1.396 . S
C165 C172 1.403 . S
C166 C156 1.476 . S
C166 N161 1.318 . S
C166 C165 1.396 . S
H167 C162 0.929 . S
O168 Mn144 2.385 . S
O168 C146 1.234 . S
O169 Mn144 2.209 . S
O169 Mn145 2.215 1_556 S
O169 C146 1.283 . S
O170 Mn144 2.094 . S
O170 C148 1.240 . S
O171 Mn145 2.117 1_556 S
O171 C148 1.264 . S
C172 C165 1.403 . S
C172 C173 1.399 . S
C172 H178 0.929 . S
C173 C153 1.449 . S
C173 C172 1.399 . S
C173 H179 0.930 . S
H174 C154 0.931 . S
H175 C155 0.930 . S
H176 C163 0.931 1_655 S
H177 C164 0.929 . S
H178 C172 0.929 . S
H179 C173 0.930 . S
Mn180 O185 2.095 . S
Mn180 O195 2.162 1_554 S
Mn180 O196 2.297 . S
Mn180 O204 2.385 . S
Mn180 O205 2.209 . S
Mn180 O206 2.094 . S
Mn181 O186 2.121 . S
Mn181 N188 2.257 . S
Mn181 N197 2.282 . S
Mn181 O205 2.215 . S
Mn181 O207 2.117 . S
C182 O204 1.234 . S
C182 O205 1.283 . S
C183 O195 1.281 . S
C183 O196 1.236 1_556 S
C184 O206 1.240 . S
C184 O207 1.264 . S
O185 Mn180 2.095 . S
O185 C194 1.250 . S
O186 Mn181 2.121 . S
O186 C194 1.258 . S
C187 N188 1.326 . S
C187 C191 1.460 . S
C187 H193 0.929 . S
N188 Mn181 2.257 . S
N188 C187 1.326 . S
N188 C192 1.362 . S
C189 C190 1.258 . S
C189 C192 1.431 . S
C189 C209 1.449 . S
C190 C189 1.258 . S
C190 C191 1.477 . S
C190 H210 0.931 . S
C191 C187 1.460 . S
C191 C190 1.477 . S
C191 H211 0.930 . S
C192 N188 1.362 . S
C192 C189 1.431 . S
C192 C202 1.476 . S
H193 C187 0.929 . S
C194 O185 1.250 . S
C194 O186 1.258 . S
O195 Mn180 2.162 1_556 S
O195 C183 1.281 . S
O196 Mn180 2.297 . S
O196 C183 1.236 1_554 S
N197 Mn181 2.282 . S
N197 C198 1.328 . S
N197 C202 1.318 . S
C198 N197 1.328 . S
C198 C199 1.457 . S
C198 H203 0.929 . S
C199 C198 1.457 . S
C199 C200 1.291 . S
C199 H212 0.931 . S
C200 C199 1.291 . S
C200 C201 1.373 . S
C200 H213 0.929 . S
C201 C200 1.373 . S
C201 C202 1.396 . S
C201 C208 1.403 . S
C202 C192 1.476 . S
C202 N197 1.318 . S
C202 C201 1.396 . S
H203 C198 0.929 . S
O204 Mn180 2.385 . S
O204 C182 1.234 . S
O205 Mn180 2.209 . S
O205 Mn181 2.215 . S
O205 C182 1.283 . S
O206 Mn180 2.094 . S
O206 C184 1.240 . S
O207 Mn181 2.117 . S
O207 C184 1.264 . S
C208 C201 1.403 . S
C208 C209 1.399 . S
C208 H214 0.929 . S
C209 C189 1.449 . S
C209 C208 1.399 . S
C209 H215 0.930 . S
H210 C190 0.931 . S
H211 C191 0.930 . S
H212 C199 0.931 . S
H213 C200 0.929 . S
H214 C208 0.929 . S
H215 C209 0.930 . S
Mn216 O221 2.095 . S
Mn216 O231 2.162 . S
Mn216 O232 2.297 . S
Mn216 O240 2.385 . S
Mn216 O241 2.209 . S
Mn216 O242 2.094 . S
Mn217 O222 2.121 . S
Mn217 N224 2.257 . S
Mn217 N233 2.282 . S
Mn217 O241 2.215 . S
Mn217 O243 2.117 . S
C218 O240 1.234 . S
C218 O241 1.283 . S
C219 O231 1.281 . S
C219 O232 1.236 . S
C220 O242 1.240 . S
C220 O243 1.264 . S
O221 Mn216 2.095 . S
O221 C230 1.250 . S
O222 Mn217 2.121 . S
O222 C230 1.258 . S
C223 N224 1.326 . S
C223 C227 1.460 . S
C223 H229 0.929 . S
N224 Mn217 2.257 . S
N224 C223 1.326 . S
N224 C228 1.362 . S
C225 C226 1.258 . S
C225 C228 1.431 . S
C225 C245 1.449 . S
C226 C225 1.258 . S
C226 C227 1.477 . S
C226 H246 0.931 . S
C227 C223 1.460 . S
C227 C226 1.477 . S
C227 H247 0.930 . S
C228 N224 1.362 . S
C228 C225 1.431 . S
C228 C238 1.476 . S
H229 C223 0.929 . S
C230 O221 1.250 . S
C230 O222 1.258 . S
O231 Mn216 2.162 . S
O231 C219 1.281 . S
O232 Mn216 2.297 . S
O232 C219 1.236 . S
N233 Mn217 2.282 . S
N233 C234 1.328 . S
N233 C238 1.318 . S
C234 N233 1.328 . S
C234 C235 1.457 . S
C234 H239 0.929 . S
C235 C234 1.457 . S
C235 C236 1.291 . S
C235 H248 0.931 . S
C236 C235 1.291 . S
C236 C237 1.373 . S
C236 H249 0.929 . S
C237 C236 1.373 . S
C237 C238 1.396 . S
C237 C244 1.403 . S
C238 C228 1.476 . S
C238 N233 1.318 . S
C238 C237 1.396 . S
H239 C234 0.929 . S
O240 Mn216 2.385 . S
O240 C218 1.234 . S
O241 Mn216 2.209 . S
O241 Mn217 2.215 . S
O241 C218 1.283 . S
O242 Mn216 2.094 . S
O242 C220 1.240 . S
O243 Mn217 2.117 . S
O243 C220 1.264 . S
C244 C237 1.403 . S
C244 C245 1.399 . S
C244 H250 0.929 . S
C245 C225 1.449 . S
C245 C244 1.399 . S
C245 H251 0.930 . S
H246 C226 0.931 . S
H247 C227 0.930 . S
H248 C235 0.931 . S
H249 C236 0.929 . S
H250 C244 0.929 . S
H251 C245 0.930 . S
Mn252 O257 2.095 . S
Mn252 O267 2.162 . S
Mn252 O268 2.297 . S
Mn252 O276 2.385 . S
Mn252 O277 2.209 . S
Mn252 O278 2.094 . S
Mn253 O258 2.121 . S
Mn253 N260 2.257 . S
Mn253 N269 2.282 . S
Mn253 O277 2.215 . S
Mn253 O279 2.117 . S
C254 O276 1.234 . S
C254 O277 1.283 . S
C255 O267 1.281 . S
C255 O268 1.236 . S
C256 O278 1.240 . S
C256 O279 1.264 . S
O257 Mn252 2.095 . S
O257 C266 1.250 . S
O258 Mn253 2.121 . S
O258 C266 1.258 . S
C259 N260 1.326 . S
C259 C263 1.460 . S
C259 H265 0.929 . S
N260 Mn253 2.257 . S
N260 C259 1.326 . S
N260 C264 1.362 . S
C261 C262 1.258 . S
C261 C264 1.431 1_554 S
C261 C281 1.449 . S
C262 C261 1.258 . S
C262 C263 1.477 1_554 S
C262 H282 0.931 . S
C263 C259 1.460 . S
C263 C262 1.477 1_556 S
C263 H283 0.930 . S
C264 N260 1.362 . S
C264 C261 1.431 1_556 S
C264 C274 1.476 . S
H265 C259 0.929 . S
C266 O257 1.250 . S
C266 O258 1.258 . S
O267 Mn252 2.162 . S
O267 C255 1.281 . S
O268 Mn252 2.297 . S
O268 C255 1.236 . S
N269 Mn253 2.282 . S
N269 C270 1.328 . S
N269 C274 1.318 . S
C270 N269 1.328 . S
C270 C271 1.457 . S
C270 H275 0.929 . S
C271 C270 1.457 . S
C271 C272 1.291 1_556 S
C271 H284 0.931 . S
C272 C271 1.291 1_554 S
C272 C273 1.373 . S
C272 H285 0.929 . S
C273 C272 1.373 . S
C273 C274 1.396 1_554 S
C273 C280 1.403 . S
C274 C264 1.476 . S
C274 N269 1.318 . S
C274 C273 1.396 1_556 S
H275 C270 0.929 . S
O276 Mn252 2.385 . S
O276 C254 1.234 . S
O277 Mn252 2.209 . S
O277 Mn253 2.215 . S
O277 C254 1.283 . S
O278 Mn252 2.094 . S
O278 C256 1.240 . S
O279 Mn253 2.117 . S
O279 C256 1.264 . S
C280 C273 1.403 . S
C280 C281 1.399 . S
C280 H286 0.929 . S
C281 C261 1.449 . S
C281 C280 1.399 . S
C281 H287 0.930 . S
H282 C262 0.931 . S
H283 C263 0.930 . S
H284 C271 0.931 . S
H285 C272 0.929 . S
H286 C280 0.929 . S
H287 C281 0.930 . S
Mn288 O293 2.095 . S
Mn288 O303 2.162 . S
Mn288 O304 2.297 . S
Mn288 O312 2.385 . S
Mn288 O313 2.209 . S
Mn288 O314 2.094 . S
Mn289 O294 2.121 . S
Mn289 N296 2.257 . S
Mn289 N305 2.282 . S
Mn289 O313 2.215 . S
Mn289 O315 2.117 . S
C290 O312 1.234 . S
C290 O313 1.283 . S
C291 O303 1.281 . S
C291 O304 1.236 . S
C292 O314 1.240 . S
C292 O315 1.264 . S
O293 Mn288 2.095 . S
O293 C302 1.250 . S
O294 Mn289 2.121 . S
O294 C302 1.258 . S
C295 N296 1.326 . S
C295 C299 1.460 . S
C295 H301 0.929 . S
N296 Mn289 2.257 . S
N296 C295 1.326 . S
N296 C300 1.362 . S
C297 C298 1.258 . S
C297 C300 1.431 1_554 S
C297 C317 1.449 . S
C298 C297 1.258 . S
C298 C299 1.477 1_554 S
C298 H318 0.931 . S
C299 C295 1.460 . S
C299 C298 1.477 1_556 S
C299 H319 0.930 . S
C300 N296 1.362 . S
C300 C297 1.431 1_556 S
C300 C310 1.476 . S
H301 C295 0.929 . S
C302 O293 1.250 . S
C302 O294 1.258 . S
O303 Mn288 2.162 . S
O303 C291 1.281 . S
O304 Mn288 2.297 . S
O304 C291 1.236 . S
N305 Mn289 2.282 . S
N305 C306 1.328 . S
N305 C310 1.318 . S
C306 N305 1.328 . S
C306 C307 1.457 . S
C306 H311 0.929 . S
C307 C306 1.457 . S
C307 C308 1.291 1_556 S
C307 H320 0.931 . S
C308 C307 1.291 1_554 S
C308 C309 1.373 . S
C308 H321 0.929 . S
C309 C308 1.373 . S
C309 C310 1.396 1_554 S
C309 C316 1.403 . S
C310 C300 1.476 . S
C310 N305 1.318 . S
C310 C309 1.396 1_556 S
H311 C306 0.929 . S
O312 Mn288 2.385 . S
O312 C290 1.234 . S
O313 Mn288 2.209 . S
O313 Mn289 2.215 . S
O313 C290 1.283 . S
O314 Mn288 2.094 . S
O314 C292 1.240 . S
O315 Mn289 2.117 . S
O315 C292 1.264 . S
C316 C309 1.403 . S
C316 C317 1.399 . S
C316 H322 0.929 . S
C317 C297 1.449 . S
C317 C316 1.399 . S
C317 H323 0.930 . S
H318 C298 0.931 . S
H319 C299 0.930 . S
H320 C307 0.931 . S
H321 C308 0.929 . S
H322 C316 0.929 . S
H323 C317 0.930 . S
Mn324 O329 2.095 . S
Mn324 O339 2.162 1_554 S
Mn324 O340 2.297 . S
Mn324 O348 2.385 . S
Mn324 O349 2.209 . S
Mn324 O350 2.094 . S
Mn325 O330 2.121 . S
Mn325 N332 2.257 . S
Mn325 N341 2.282 . S
Mn325 O349 2.215 . S
Mn325 O351 2.117 . S
C326 O348 1.234 . S
C326 O349 1.283 . S
C327 O339 1.281 . S
C327 O340 1.236 1_556 S
C328 O350 1.240 . S
C328 O351 1.264 . S
O329 Mn324 2.095 . S
O329 C338 1.250 . S
O330 Mn325 2.121 . S
O330 C338 1.258 . S
C331 N332 1.326 . S
C331 C335 1.460 . S
C331 H337 0.929 . S
N332 Mn325 2.257 . S
N332 C331 1.326 . S
N332 C336 1.362 . S
C333 C334 1.258 . S
C333 C336 1.431 . S
C333 C353 1.449 . S
C334 C333 1.258 . S
C334 C335 1.477 . S
C334 H354 0.931 . S
C335 C331 1.460 . S
C335 C334 1.477 . S
C335 H355 0.930 . S
C336 N332 1.362 . S
C336 C333 1.431 . S
C336 C346 1.476 . S
H337 C331 0.929 . S
C338 O329 1.250 . S
C338 O330 1.258 . S
O339 Mn324 2.162 1_556 S
O339 C327 1.281 . S
O340 Mn324 2.297 . S
O340 C327 1.236 1_554 S
N341 Mn325 2.282 . S
N341 C342 1.328 . S
N341 C346 1.318 . S
C342 N341 1.328 . S
C342 C343 1.457 . S
C342 H347 0.929 . S
C343 C342 1.457 . S
C343 C344 1.291 . S
C343 H356 0.931 . S
C344 C343 1.291 . S
C344 C345 1.373 . S
C344 H357 0.929 . S
C345 C344 1.373 . S
C345 C346 1.396 . S
C345 C352 1.403 . S
C346 C336 1.476 . S
C346 N341 1.318 . S
C346 C345 1.396 . S
H347 C342 0.929 . S
O348 Mn324 2.385 . S
O348 C326 1.234 . S
O349 Mn324 2.209 . S
O349 Mn325 2.215 . S
O349 C326 1.283 . S
O350 Mn324 2.094 . S
O350 C328 1.240 . S
O351 Mn325 2.117 . S
O351 C328 1.264 . S
C352 C345 1.403 . S
C352 C353 1.399 . S
C352 H358 0.929 . S
C353 C333 1.449 . S
C353 C352 1.399 . S
C353 H359 0.930 . S
H354 C334 0.931 . S
H355 C335 0.930 . S
H356 C343 0.931 . S
H357 C344 0.929 . S
H358 C352 0.929 . S
H359 C353 0.930 . S
Mn360 O365 2.095 . S
Mn360 O375 2.162 . S
Mn360 O376 2.297 . S
Mn360 O384 2.385 1_554 S
Mn360 O385 2.209 1_554 S
Mn360 O386 2.094 . S
Mn361 O366 2.121 . S
Mn361 N368 2.257 . S
Mn361 N377 2.282 . S
Mn361 O385 2.215 . S
Mn361 O387 2.117 . S
C362 O384 1.234 . S
C362 O385 1.283 . S
C363 O375 1.281 . S
C363 O376 1.236 . S
C364 O386 1.240 1_556 S
C364 O387 1.264 . S
O365 Mn360 2.095 . S
O365 C374 1.250 1_554 S
O366 Mn361 2.121 . S
O366 C374 1.258 . S
C367 N368 1.326 . S
C367 C371 1.460 . S
C367 H373 0.929 . S
N368 Mn361 2.257 . S
N368 C367 1.326 . S
N368 C372 1.362 . S
C369 C370 1.258 . S
C369 C372 1.431 . S
C369 C389 1.449 . S
C370 C369 1.258 . S
C370 C371 1.477 . S
C370 H390 0.931 . S
C371 C367 1.460 . S
C371 C370 1.477 . S
C371 H391 0.930 . S
C372 N368 1.362 . S
C372 C369 1.431 . S
C372 C382 1.476 . S
H373 C367 0.929 . S
C374 O365 1.250 1_556 S
C374 O366 1.258 . S
O375 Mn360 2.162 . S
O375 C363 1.281 . S
O376 Mn360 2.297 . S
O376 C363 1.236 . S
N377 Mn361 2.282 . S
N377 C378 1.328 . S
N377 C382 1.318 . S
C378 N377 1.328 . S
C378 C379 1.457 . S
C378 H383 0.929 . S
C379 C378 1.457 . S
C379 C380 1.291 . S
C379 H392 0.931 . S
C380 C379 1.291 . S
C380 C381 1.373 . S
C380 H393 0.929 . S
C381 C380 1.373 . S
C381 C382 1.396 . S
C381 C388 1.403 . S
C382 C372 1.476 . S
C382 N377 1.318 . S
C382 C381 1.396 . S
H383 C378 0.929 . S
O384 Mn360 2.385 1_556 S
O384 C362 1.234 . S
O385 Mn360 2.209 1_556 S
O385 Mn361 2.215 . S
O385 C362 1.283 . S
O386 Mn360 2.094 . S
O386 C364 1.240 1_554 S
O387 Mn361 2.117 . S
O387 C364 1.264 . S
C388 C381 1.403 . S
C388 C389 1.399 . S
C388 H394 0.929 . S
C389 C369 1.449 . S
C389 C388 1.399 . S
C389 H395 0.930 . S
H390 C370 0.931 . S
H391 C371 0.930 . S
H392 C379 0.931 . S
H393 C380 0.929 . S
H394 C388 0.929 . S
H395 C389 0.930 . S
Mn396 O401 2.095 . S
Mn396 O411 2.162 . S
Mn396 O412 2.297 . S
Mn396 O420 2.385 . S
Mn396 O421 2.209 . S
Mn396 O422 2.094 . S
Mn397 O402 2.121 . S
Mn397 N404 2.257 . S
Mn397 N413 2.282 . S
Mn397 O421 2.215 . S
Mn397 O423 2.117 . S
C398 O420 1.234 . S
C398 O421 1.283 . S
C399 O411 1.281 . S
C399 O412 1.236 . S
C400 O422 1.240 . S
C400 O423 1.264 . S
O401 Mn396 2.095 . S
O401 C410 1.250 . S
O402 Mn397 2.121 . S
O402 C410 1.258 . S
C403 N404 1.326 . S
C403 C407 1.460 . S
C403 H409 0.929 . S
N404 Mn397 2.257 . S
N404 C403 1.326 . S
N404 C408 1.362 . S
C405 C406 1.258 . S
C405 C408 1.431 . S
C405 C425 1.449 . S
C406 C405 1.258 . S
C406 C407 1.477 . S
C406 H426 0.931 . S
C407 C403 1.460 . S
C407 C406 1.477 . S
C407 H427 0.930 . S
C408 N404 1.362 . S
C408 C405 1.431 . S
C408 C418 1.476 . S
H409 C403 0.929 . S
C410 O401 1.250 . S
C410 O402 1.258 . S
O411 Mn396 2.162 . S
O411 C399 1.281 . S
O412 Mn396 2.297 . S
O412 C399 1.236 . S
N413 Mn397 2.282 . S
N413 C414 1.328 . S
N413 C418 1.318 . S
C414 N413 1.328 . S
C414 C415 1.457 . S
C414 H419 0.929 . S
C415 C414 1.457 . S
C415 C416 1.291 . S
C415 H428 0.931 . S
C416 C415 1.291 . S
C416 C417 1.373 . S
C416 H429 0.929 . S
C417 C416 1.373 . S
C417 C418 1.396 . S
C417 C424 1.403 . S
C418 C408 1.476 . S
C418 N413 1.318 . S
C418 C417 1.396 . S
H419 C414 0.929 . S
O420 Mn396 2.385 . S
O420 C398 1.234 . S
O421 Mn396 2.209 . S
O421 Mn397 2.215 . S
O421 C398 1.283 . S
O422 Mn396 2.094 . S
O422 C400 1.240 . S
O423 Mn397 2.117 . S
O423 C400 1.264 . S
C424 C417 1.403 . S
C424 C425 1.399 . S
C424 H430 0.929 1_554 S
C425 C405 1.449 . S
C425 C424 1.399 . S
C425 H431 0.930 1_554 S
H426 C406 0.931 . S
H427 C407 0.930 . S
H428 C415 0.931 . S
H429 C416 0.929 . S
H430 C424 0.929 1_556 S
H431 C425 0.930 1_556 S
Mn432 O437 2.095 . S
Mn432 O447 2.162 . S
Mn432 O448 2.297 . S
Mn432 O456 2.385 . S
Mn432 O457 2.209 . S
Mn432 O458 2.094 . S
Mn433 O438 2.121 . S
Mn433 N440 2.257 . S
Mn433 N449 2.282 . S
Mn433 O457 2.215 . S
Mn433 O459 2.117 . S
C434 O456 1.234 . S
C434 O457 1.283 . S
C435 O447 1.281 . S
C435 O448 1.236 . S
C436 O458 1.240 . S
C436 O459 1.264 . S
O437 Mn432 2.095 . S
O437 C446 1.250 . S
O438 Mn433 2.121 . S
O438 C446 1.258 . S
C439 N440 1.326 . S
C439 C443 1.460 . S
C439 H445 0.929 . S
N440 Mn433 2.257 . S
N440 C439 1.326 . S
N440 C444 1.362 . S
C441 C442 1.258 . S
C441 C444 1.431 . S
C441 C461 1.449 . S
C442 C441 1.258 . S
C442 C443 1.477 . S
C442 H462 0.931 . S
C443 C439 1.460 . S
C443 C442 1.477 . S
C443 H463 0.930 . S
C444 N440 1.362 . S
C444 C441 1.431 . S
C444 C454 1.476 . S
H445 C439 0.929 . S
C446 O437 1.250 . S
C446 O438 1.258 . S
O447 Mn432 2.162 . S
O447 C435 1.281 . S
O448 Mn432 2.297 . S
O448 C435 1.236 . S
N449 Mn433 2.282 . S
N449 C450 1.328 . S
N449 C454 1.318 . S
C450 N449 1.328 . S
C450 C451 1.457 . S
C450 H455 0.929 . S
C451 C450 1.457 . S
C451 C452 1.291 . S
C451 H464 0.931 . S
C452 C451 1.291 . S
C452 C453 1.373 . S
C452 H465 0.929 . S
C453 C452 1.373 . S
C453 C454 1.396 . S
C453 C460 1.403 . S
C454 C444 1.476 . S
C454 N449 1.318 . S
C454 C453 1.396 . S
H455 C450 0.929 . S
O456 Mn432 2.385 . S
O456 C434 1.234 . S
O457 Mn432 2.209 . S
O457 Mn433 2.215 . S
O457 C434 1.283 . S
O458 Mn432 2.094 . S
O458 C436 1.240 . S
O459 Mn433 2.117 . S
O459 C436 1.264 . S
C460 C453 1.403 . S
C460 C461 1.399 . S
C460 H466 0.929 . S
C461 C441 1.449 . S
C461 C460 1.399 . S
C461 H467 0.930 . S
H462 C442 0.931 . S
H463 C443 0.930 . S
H464 C451 0.931 . S
H465 C452 0.929 . S
H466 C460 0.929 . S
H467 C461 0.930 . S
Mn468 O473 2.095 . S
Mn468 O483 2.162 . S
Mn468 O484 2.297 . S
Mn468 O492 2.385 . S
Mn468 O493 2.209 . S
Mn468 O494 2.094 . S
Mn469 O474 2.121 . S
Mn469 N476 2.257 1_554 S
Mn469 N485 2.282 1_554 S
Mn469 O493 2.215 . S
Mn469 O495 2.117 . S
C470 O492 1.234 . S
C470 O493 1.283 . S
C471 O483 1.281 . S
C471 O484 1.236 . S
C472 O494 1.240 . S
C472 O495 1.264 . S
O473 Mn468 2.095 . S
O473 C482 1.250 . S
O474 Mn469 2.121 . S
O474 C482 1.258 . S
C475 N476 1.326 1_655 S
C475 C479 1.460 . S
C475 H481 0.929 1_556 S
N476 Mn469 2.257 1_556 S
N476 C475 1.326 1_455 S
N476 C480 1.362 . S
C477 C478 1.258 1_455 S
C477 C480 1.431 . S
C477 C497 1.449 . S
C478 C477 1.258 1_655 S
C478 C479 1.477 . S
C478 H498 0.931 . S
C479 C475 1.460 . S
C479 C478 1.477 . S
C479 H499 0.930 . S
C480 N476 1.362 . S
C480 C477 1.431 . S
C480 C490 1.476 . S
H481 C475 0.929 1_554 S
C482 O473 1.250 . S
C482 O474 1.258 . S
O483 Mn468 2.162 . S
O483 C471 1.281 . S
O484 Mn468 2.297 . S
O484 C471 1.236 . S
N485 Mn469 2.282 1_556 S
N485 C486 1.328 . S
N485 C490 1.318 . S
C486 N485 1.328 . S
C486 C487 1.457 . S
C486 H491 0.929 1_556 S
C487 C486 1.457 . S
C487 C488 1.291 . S
C487 H500 0.931 . S
C488 C487 1.291 . S
C488 C489 1.373 . S
C488 H501 0.929 . S
C489 C488 1.373 . S
C489 C490 1.396 . S
C489 C496 1.403 . S
C490 C480 1.476 . S
C490 N485 1.318 . S
C490 C489 1.396 . S
H491 C486 0.929 1_554 S
O492 Mn468 2.385 . S
O492 C470 1.234 . S
O493 Mn468 2.209 . S
O493 Mn469 2.215 . S
O493 C470 1.283 . S
O494 Mn468 2.094 . S
O494 C472 1.240 . S
O495 Mn469 2.117 . S
O495 C472 1.264 . S
C496 C489 1.403 . S
C496 C497 1.399 . S
C496 H502 0.929 . S
C497 C477 1.449 . S
C497 C496 1.399 . S
C497 H503 0.930 . S
H498 C478 0.931 . S
H499 C479 0.930 . S
H500 C487 0.931 . S
H501 C488 0.929 . S
H502 C496 0.929 . S
H503 C497 0.930 . S
Mn504 O509 2.095 . S
Mn504 O519 2.162 . S
Mn504 O520 2.297 . S
Mn504 O528 2.385 . S
Mn504 O529 2.209 . S
Mn504 O530 2.094 . S
Mn505 O510 2.121 . S
Mn505 N512 2.257 . S
Mn505 N521 2.282 . S
Mn505 O529 2.215 . S
Mn505 O531 2.117 . S
C506 O528 1.234 . S
C506 O529 1.283 . S
C507 O519 1.281 . S
C507 O520 1.236 . S
C508 O530 1.240 . S
C508 O531 1.264 . S
O509 Mn504 2.095 . S
O509 C518 1.250 . S
O510 Mn505 2.121 . S
O510 C518 1.258 . S
C511 N512 1.326 . S
C511 C515 1.460 . S
C511 H517 0.929 . S
N512 Mn505 2.257 . S
N512 C511 1.326 . S
N512 C516 1.362 . S
C513 C514 1.258 . S
C513 C516 1.431 . S
C513 C533 1.449 . S
C514 C513 1.258 . S
C514 C515 1.477 . S
C514 H534 0.931 . S
C515 C511 1.460 . S
C515 C514 1.477 . S
C515 H535 0.930 . S
C516 N512 1.362 . S
C516 C513 1.431 . S
C516 C526 1.476 . S
H517 C511 0.929 . S
C518 O509 1.250 . S
C518 O510 1.258 . S
O519 Mn504 2.162 . S
O519 C507 1.281 . S
O520 Mn504 2.297 . S
O520 C507 1.236 . S
N521 Mn505 2.282 . S
N521 C522 1.328 . S
N521 C526 1.318 . S
C522 N521 1.328 . S
C522 C523 1.457 . S
C522 H527 0.929 . S
C523 C522 1.457 . S
C523 C524 1.291 . S
C523 H536 0.931 . S
C524 C523 1.291 . S
C524 C525 1.373 . S
C524 H537 0.929 . S
C525 C524 1.373 . S
C525 C526 1.396 . S
C525 C532 1.403 . S
C526 C516 1.476 . S
C526 N521 1.318 . S
C526 C525 1.396 . S
H527 C522 0.929 . S
O528 Mn504 2.385 . S
O528 C506 1.234 . S
O529 Mn504 2.209 . S
O529 Mn505 2.215 . S
O529 C506 1.283 . S
O530 Mn504 2.094 . S
O530 C508 1.240 . S
O531 Mn505 2.117 . S
O531 C508 1.264 . S
C532 C525 1.403 . S
C532 C533 1.399 . S
C532 H538 0.929 . S
C533 C513 1.449 . S
C533 C532 1.399 . S
C533 H539 0.930 . S
H534 C514 0.931 . S
H535 C515 0.930 . S
H536 C523 0.931 . S
H537 C524 0.929 . S
H538 C532 0.929 . S
H539 C533 0.930 . S
Mn540 O545 2.095 . S
Mn540 O555 2.162 . S
Mn540 O556 2.297 . S
Mn540 O564 2.385 . S
Mn540 O565 2.209 . S
Mn540 O566 2.094 . S
Mn541 O546 2.121 1_554 S
Mn541 N548 2.257 . S
Mn541 N557 2.282 . S
Mn541 O565 2.215 1_554 S
Mn541 O567 2.117 1_554 S
C542 O564 1.234 . S
C542 O565 1.283 . S
C543 O555 1.281 . S
C543 O556 1.236 . S
C544 O566 1.240 . S
C544 O567 1.264 . S
O545 Mn540 2.095 . S
O545 C554 1.250 . S
O546 Mn541 2.121 1_556 S
O546 C554 1.258 . S
C547 N548 1.326 1_655 S
C547 C551 1.460 . S
C547 H553 0.929 . S
N548 Mn541 2.257 . S
N548 C547 1.326 1_455 S
N548 C552 1.362 . S
C549 C550 1.258 1_455 S
C549 C552 1.431 . S
C549 C569 1.449 . S
C550 C549 1.258 1_655 S
C550 C551 1.477 . S
C550 H570 0.931 . S
C551 C547 1.460 . S
C551 C550 1.477 . S
C551 H571 0.930 . S
C552 N548 1.362 . S
C552 C549 1.431 . S
C552 C562 1.476 . S
H553 C547 0.929 . S
C554 O545 1.250 . S
C554 O546 1.258 . S
O555 Mn540 2.162 . S
O555 C543 1.281 . S
O556 Mn540 2.297 . S
O556 C543 1.236 . S
N557 Mn541 2.282 . S
N557 C558 1.328 . S
N557 C562 1.318 . S
C558 N557 1.328 . S
C558 C559 1.457 . S
C558 H563 0.929 . S
C559 C558 1.457 . S
C559 C560 1.291 . S
C559 H572 0.931 . S
C560 C559 1.291 . S
C560 C561 1.373 . S
C560 H573 0.929 . S
C561 C560 1.373 . S
C561 C562 1.396 . S
C561 C568 1.403 . S
C562 C552 1.476 . S
C562 N557 1.318 . S
C562 C561 1.396 . S
H563 C558 0.929 . S
O564 Mn540 2.385 . S
O564 C542 1.234 . S
O565 Mn540 2.209 . S
O565 Mn541 2.215 1_556 S
O565 C542 1.283 . S
O566 Mn540 2.094 . S
O566 C544 1.240 . S
O567 Mn541 2.117 1_556 S
O567 C544 1.264 . S
C568 C561 1.403 . S
C568 C569 1.399 . S
C568 H574 0.929 . S
C569 C549 1.449 . S
C569 C568 1.399 . S
C569 H575 0.930 . S
H570 C550 0.931 . S
H571 C551 0.930 . S
H572 C559 0.931 . S
H573 C560 0.929 . S
H574 C568 0.929 . S
H575 C569 0.930 . S
C576 C577 1.387 . S
C576 H580 0.950 . S
C576 C585 1.390 . S
C577 C576 1.387 . S
C577 C579 1.387 . S
H578 C585 0.950 . S
C579 C577 1.387 . S
C579 C581 1.390 . S
C579 H583 0.950 . S
H580 C576 0.950 . S
C581 C579 1.390 . S
C581 C582 1.387 . S
C581 H584 0.950 . S
C582 C581 1.387 . S
C582 C585 1.387 . S
H583 C579 0.950 . S
H584 C581 0.950 . S
C585 C576 1.390 . S
C585 H578 0.950 . S
C585 C582 1.387 . S
C586 C587 1.387 . S
C586 H590 0.950 . S
C586 C595 1.390 . S
C587 C586 1.387 . S
C587 C589 1.387 . S
H588 C595 0.950 . S
C589 C587 1.387 . S
C589 C591 1.390 . S
C589 H593 0.950 . S
H590 C586 0.950 . S
C591 C589 1.390 . S
C591 C592 1.387 . S
C591 H594 0.950 . S
C592 C591 1.387 . S
C592 C595 1.387 . S
H593 C589 0.950 . S
H594 C591 0.950 . S
C595 C586 1.390 . S
C595 H588 0.950 . S
C595 C592 1.387 . S
C596 C597 1.387 . S
C596 H600 0.950 . S
C596 C605 1.390 . S
C597 C596 1.387 . S
C597 C599 1.387 . S
H598 C605 0.950 . S
C599 C597 1.387 . S
C599 C601 1.390 . S
C599 H603 0.950 . S
H600 C596 0.950 . S
C601 C599 1.390 . S
C601 C602 1.387 . S
C601 H604 0.950 . S
C602 C601 1.387 . S
C602 C605 1.387 . S
H603 C599 0.950 . S
H604 C601 0.950 . S
C605 C596 1.390 . S
C605 H598 0.950 . S
C605 C602 1.387 . S
C606 C607 1.387 . S
C606 H610 0.950 1_556 S
C606 C615 1.390 . S
C607 C606 1.387 . S
C607 C609 1.387 . S
H608 C615 0.950 . S
C609 C607 1.387 . S
C609 C611 1.390 . S
C609 H613 0.950 . S
H610 C606 0.950 1_554 S
C611 C609 1.390 . S
C611 C612 1.387 . S
C611 H614 0.950 1_655 S
C612 C611 1.387 . S
C612 C615 1.387 . S
H613 C609 0.950 . S
H614 C611 0.950 1_455 S
C615 C606 1.390 . S
C615 H608 0.950 . S
C615 C612 1.387 . S
C616 C617 1.387 . S
C616 H620 0.950 . S
C616 C625 1.390 1_556 S
C617 C616 1.387 . S
C617 C619 1.387 . S
H618 C625 0.950 . S
C619 C617 1.387 . S
C619 C621 1.390 . S
C619 H623 0.950 . S
H620 C616 0.950 . S
C621 C619 1.390 . S
C621 C622 1.387 . S
C621 H624 0.950 . S
C622 C621 1.387 . S
C622 C625 1.387 1_556 S
H623 C619 0.950 . S
H624 C621 0.950 . S
C625 C616 1.390 1_554 S
C625 H618 0.950 . S
C625 C622 1.387 1_554 S
C626 C627 1.387 . S
C626 H630 0.950 . S
C626 C635 1.390 . S
C627 C626 1.387 . S
C627 C629 1.387 . S
H628 C635 0.950 . S
C629 C627 1.387 . S
C629 C631 1.390 . S
C629 H633 0.950 . S
H630 C626 0.950 . S
C631 C629 1.390 . S
C631 C632 1.387 . S
C631 H634 0.950 . S
C632 C631 1.387 . S
C632 C635 1.387 . S
H633 C629 0.950 . S
H634 C631 0.950 . S
C635 C626 1.390 . S
C635 H628 0.950 . S
C635 C632 1.387 . S
C636 C637 1.387 . S
C636 H640 0.950 . S
C636 C645 1.390 . S
C637 C636 1.387 . S
C637 C639 1.387 . S
H638 C645 0.950 . S
C639 C637 1.387 . S
C639 C641 1.390 . S
C639 H643 0.950 . S
H640 C636 0.950 . S
C641 C639 1.390 . S
C641 C642 1.387 . S
C641 H644 0.950 . S
C642 C641 1.387 . S
C642 C645 1.387 . S
H643 C639 0.950 . S
H644 C641 0.950 . S
C645 C636 1.390 . S
C645 H638 0.950 . S
C645 C642 1.387 . S
C646 C647 1.387 . S
C646 H650 0.950 . S
C646 C655 1.390 . S
C647 C646 1.387 . S
C647 C649 1.387 . S
H648 C655 0.950 . S
C649 C647 1.387 . S
C649 C651 1.390 . S
C649 H653 0.950 . S
H650 C646 0.950 . S
C651 C649 1.390 . S
C651 C652 1.387 . S
C651 H654 0.950 . S
C652 C651 1.387 . S
C652 C655 1.387 . S
H653 C649 0.950 . S
H654 C651 0.950 . S
C655 C646 1.390 . S
C655 H648 0.950 . S
C655 C652 1.387 . S
C656 C657 1.387 . S
C656 H660 0.950 . S
C656 C665 1.390 . S
C657 C656 1.387 . S
C657 C659 1.387 1_556 S
H658 C665 0.950 . S
C659 C657 1.387 1_554 S
C659 C661 1.390 . S
C659 H663 0.950 1_655 S
H660 C656 0.950 . S
C661 C659 1.390 . S
C661 C662 1.387 1_554 S
C661 H664 0.950 . S
C662 C661 1.387 1_556 S
C662 C665 1.387 . S
H663 C659 0.950 1_455 S
H664 C661 0.950 . S
C665 C656 1.390 . S
C665 H658 0.950 . S
C665 C662 1.387 . S
C666 C667 1.387 . S
C666 H670 0.950 . S
C666 C675 1.390 . S
C667 C666 1.387 . S
C667 C669 1.387 . S
H668 C675 0.950 . S
C669 C667 1.387 . S
C669 C671 1.390 . S
C669 H673 0.950 . S
H670 C666 0.950 . S
C671 C669 1.390 . S
C671 C672 1.387 . S
C671 H674 0.950 . S
C672 C671 1.387 . S
C672 C675 1.387 . S
H673 C669 0.950 . S
H674 C671 0.950 . S
C675 C666 1.390 . S
C675 H668 0.950 . S
C675 C672 1.387 . S
C676 C677 1.387 . S
C676 H680 0.950 . S
C676 C685 1.390 . S
C677 C676 1.387 . S
C677 C679 1.387 . S
H678 C685 0.950 . S
C679 C677 1.387 . S
C679 C681 1.390 . S
C679 H683 0.950 . S
H680 C676 0.950 . S
C681 C679 1.390 . S
C681 C682 1.387 . S
C681 H684 0.950 . S
C682 C681 1.387 . S
C682 C685 1.387 . S
H683 C679 0.950 . S
H684 C681 0.950 . S
C685 C676 1.390 . S
C685 H678 0.950 . S
C685 C682 1.387 . S
C686 C687 1.387 . S
C686 H690 0.950 . S
C686 C695 1.390 . S
C687 C686 1.387 . S
C687 C689 1.387 . S
H688 C695 0.950 . S
C689 C687 1.387 . S
C689 C691 1.390 . S
C689 H693 0.950 . S
H690 C686 0.950 . S
C691 C689 1.390 . S
C691 C692 1.387 . S
C691 H694 0.950 . S
C692 C691 1.387 . S
C692 C695 1.387 . S
H693 C689 0.950 . S
H694 C691 0.950 . S
C695 C686 1.390 . S
C695 H688 0.950 . S
C695 C692 1.387 . S
C696 C697 1.387 . S
C696 H700 0.950 . S
C696 C705 1.390 . S
C697 C696 1.387 . S
C697 C699 1.387 . S
H698 C705 0.950 . S
C699 C697 1.387 . S
C699 C701 1.390 . S
C699 H703 0.950 . S
H700 C696 0.950 . S
C701 C699 1.390 . S
C701 C702 1.387 . S
C701 H704 0.950 . S
C702 C701 1.387 . S
C702 C705 1.387 . S
H703 C699 0.950 . S
H704 C701 0.950 . S
C705 C696 1.390 . S
C705 H698 0.950 . S
C705 C702 1.387 . S
C706 C707 1.387 . S
C706 H710 0.950 . S
C706 C715 1.390 . S
C707 C706 1.387 . S
C707 C709 1.387 1_556 S
H708 C715 0.950 . S
C709 C707 1.387 1_554 S
C709 C711 1.390 . S
C709 H713 0.950 . S
H710 C706 0.950 . S
C711 C709 1.390 . S
C711 C712 1.387 1_554 S
C711 H714 0.950 . S
C712 C711 1.387 1_556 S
C712 C715 1.387 . S
H713 C709 0.950 . S
H714 C711 0.950 . S
C715 C706 1.390 . S
C715 H708 0.950 . S
C715 C712 1.387 . S
C716 C717 1.387 . S
C716 H720 0.950 . S
C716 C725 1.390 . S
C717 C716 1.387 . S
C717 C719 1.387 . S
H718 C725 0.950 . S
C719 C717 1.387 . S
C719 C721 1.390 . S
C719 H723 0.950 . S
H720 C716 0.950 . S
C721 C719 1.390 . S
C721 C722 1.387 . S
C721 H724 0.950 . S
C722 C721 1.387 . S
C722 C725 1.387 . S
H723 C719 0.950 . S
H724 C721 0.950 . S
C725 C716 1.390 . S
C725 H718 0.950 . S
C725 C722 1.387 . S
C726 C727 1.387 . S
C726 H730 0.950 . S
C726 C735 1.390 . S
C727 C726 1.387 . S
C727 C729 1.387 . S
H728 C735 0.950 . S
C729 C727 1.387 . S
C729 C731 1.390 . S
C729 H733 0.950 . S
H730 C726 0.950 . S
C731 C729 1.390 . S
C731 C732 1.387 . S
C731 H734 0.950 . S
C732 C731 1.387 . S
C732 C735 1.387 . S
H733 C729 0.950 . S
H734 C731 0.950 . S
C735 C726 1.390 . S
C735 H728 0.950 . S
C735 C732 1.387 . S
C736 C737 1.387 . S
C736 H740 0.950 . S
C736 C745 1.390 . S
C737 C736 1.387 . S
C737 C739 1.387 . S
H738 C745 0.950 . S
C739 C737 1.387 . S
C739 C741 1.390 . S
C739 H743 0.950 . S
H740 C736 0.950 . S
C741 C739 1.390 . S
C741 C742 1.387 1_554 S
C741 H744 0.950 . S
C742 C741 1.387 1_556 S
C742 C745 1.387 1_556 S
H743 C739 0.950 . S
H744 C741 0.950 . S
C745 C736 1.390 . S
C745 H738 0.950 . S
C745 C742 1.387 1_554 S
C746 C747 1.387 . S
C746 H750 0.950 . S
C746 C755 1.390 . S
C747 C746 1.387 . S
C747 C749 1.387 . S
H748 C755 0.950 . S
C749 C747 1.387 . S
C749 C751 1.390 . S
C749 H753 0.950 . S
H750 C746 0.950 . S
C751 C749 1.390 . S
C751 C752 1.387 . S
C751 H754 0.950 . S
C752 C751 1.387 . S
C752 C755 1.387 . S
H753 C749 0.950 . S
H754 C751 0.950 . S
C755 C746 1.390 . S
C755 H748 0.950 . S
C755 C752 1.387 . S
C756 C757 1.387 . S
C756 H760 0.950 . S
C756 C765 1.390 . S
C757 C756 1.387 . S
C757 C759 1.387 . S
H758 C765 0.950 . S
C759 C757 1.387 . S
C759 C761 1.390 . S
C759 H763 0.950 . S
H760 C756 0.950 . S
C761 C759 1.390 . S
C761 C762 1.387 . S
C761 H764 0.950 . S
C762 C761 1.387 . S
C762 C765 1.387 . S
H763 C759 0.950 . S
H764 C761 0.950 . S
C765 C756 1.390 . S
C765 H758 0.950 . S
C765 C762 1.387 . S
C766 C767 1.387 . S
C766 H770 0.950 . S
C766 C775 1.390 . S
C767 C766 1.387 . S
C767 C769 1.387 . S
H768 C775 0.950 . S
C769 C767 1.387 . S
C769 C771 1.390 . S
C769 H773 0.950 . S
H770 C766 0.950 . S
C771 C769 1.390 . S
C771 C772 1.387 . S
C771 H774 0.950 . S
C772 C771 1.387 . S
C772 C775 1.387 . S
H773 C769 0.950 . S
H774 C771 0.950 . S
C775 C766 1.390 . S
C775 H768 0.950 . S
C775 C772 1.387 . S
C776 C777 1.387 . S
C776 H780 0.950 . S
C776 C785 1.390 . S
C777 C776 1.387 . S
C777 C779 1.387 . S
H778 C785 0.950 . S
C779 C777 1.387 . S
C779 C781 1.390 . S
C779 H783 0.950 . S
H780 C776 0.950 . S
C781 C779 1.390 . S
C781 C782 1.387 . S
C781 H784 0.950 . S
C782 C781 1.387 . S
C782 C785 1.387 . S
H783 C779 0.950 . S
H784 C781 0.950 . S
C785 C776 1.390 . S
C785 H778 0.950 . S
C785 C782 1.387 . S
C786 C787 1.387 . S
C786 H790 0.950 . S
C786 C795 1.390 . S
C787 C786 1.387 . S
C787 C789 1.387 . S
H788 C795 0.950 . S
C789 C787 1.387 . S
C789 C791 1.390 . S
C789 H793 0.950 . S
H790 C786 0.950 . S
C791 C789 1.390 . S
C791 C792 1.387 . S
C791 H794 0.950 . S
C792 C791 1.387 . S
C792 C795 1.387 . S
H793 C789 0.950 . S
H794 C791 0.950 . S
C795 C786 1.390 . S
C795 H788 0.950 . S
C795 C792 1.387 . S
C796 C797 1.387 . S
C796 H800 0.950 . S
C796 C805 1.390 1_565 S
C797 C796 1.387 . S
C797 C799 1.387 . S
H798 C805 0.950 . S
C799 C797 1.387 . S
C799 C801 1.390 1_565 S
C799 H803 0.950 . S
H800 C796 0.950 . S
C801 C799 1.390 1_545 S
C801 C802 1.387 . S
C801 H804 0.950 . S
C802 C801 1.387 . S
C802 C805 1.387 . S
H803 C799 0.950 . S
H804 C801 0.950 . S
C805 C796 1.390 1_545 S
C805 H798 0.950 . S
C805 C802 1.387 . S
C806 C807 1.387 1_554 S
C806 H810 0.950 . S
C806 C815 1.390 1_545 S
C807 C806 1.387 1_556 S
C807 C809 1.387 1_556 S
H808 C815 0.950 . S
C809 C807 1.387 1_554 S
C809 C811 1.390 1_545 S
C809 H813 0.950 . S
H810 C806 0.950 . S
C811 C809 1.390 1_565 S
C811 C812 1.387 . S
C811 H814 0.950 . S
C812 C811 1.387 . S
C812 C815 1.387 . S
H813 C809 0.950 . S
H814 C811 0.950 . S
C815 C806 1.390 1_565 S
C815 H808 0.950 . S
C815 C812 1.387 . S
C816 C817 1.387 . S
C816 H820 0.950 . S
C816 C825 1.390 . S
C817 C816 1.387 . S
C817 C819 1.387 . S
H818 C825 0.950 . S
C819 C817 1.387 . S
C819 C821 1.390 . S
C819 H823 0.950 . S
H820 C816 0.950 . S
C821 C819 1.390 . S
C821 C822 1.387 . S
C821 H824 0.950 . S
C822 C821 1.387 . S
C822 C825 1.387 . S
H823 C819 0.950 . S
H824 C821 0.950 . S
C825 C816 1.390 . S
C825 H818 0.950 . S
C825 C822 1.387 . S
C826 C827 1.387 . S
C826 H830 0.950 . S
C826 C835 1.390 . S
C827 C826 1.387 . S
C827 C829 1.387 . S
H828 C835 0.950 . S
C829 C827 1.387 . S
C829 C831 1.390 . S
C829 H833 0.950 . S
H830 C826 0.950 . S
C831 C829 1.390 . S
C831 C832 1.387 . S
C831 H834 0.950 . S
C832 C831 1.387 . S
C832 C835 1.387 . S
H833 C829 0.950 . S
H834 C831 0.950 . S
C835 C826 1.390 . S
C835 H828 0.950 . S
C835 C832 1.387 . S
C836 C837 1.387 . S
C836 H840 0.950 . S
C836 C845 1.390 . S
C837 C836 1.387 . S
C837 C839 1.387 . S
H838 C845 0.950 . S
C839 C837 1.387 . S
C839 C841 1.390 . S
C839 H843 0.950 . S
H840 C836 0.950 . S
C841 C839 1.390 . S
C841 C842 1.387 1_554 S
C841 H844 0.950 . S
C842 C841 1.387 1_556 S
C842 C845 1.387 1_556 S
H843 C839 0.950 . S
H844 C841 0.950 . S
C845 C836 1.390 . S
C845 H838 0.950 . S
C845 C842 1.387 1_554 S
C846 C847 1.387 . S
C846 H850 0.950 . S
C846 C855 1.390 . S
C847 C846 1.387 . S
C847 C849 1.387 . S
H848 C855 0.950 . S
C849 C847 1.387 . S
C849 C851 1.390 . S
C849 H853 0.950 . S
H850 C846 0.950 . S
C851 C849 1.390 . S
C851 C852 1.387 . S
C851 H854 0.950 . S
C852 C851 1.387 . S
C852 C855 1.387 . S
H853 C849 0.950 . S
H854 C851 0.950 . S
C855 C846 1.390 . S
C855 H848 0.950 . S
C855 C852 1.387 . S
C856 C857 1.387 . S
C856 H860 0.950 . S
C856 C865 1.390 . S
C857 C856 1.387 . S
C857 C859 1.387 . S
H858 C865 0.950 . S
C859 C857 1.387 . S
C859 C861 1.390 . S
C859 H863 0.950 . S
H860 C856 0.950 . S
C861 C859 1.390 . S
C861 C862 1.387 . S
C861 H864 0.950 . S
C862 C861 1.387 . S
C862 C865 1.387 . S
H863 C859 0.950 . S
H864 C861 0.950 . S
C865 C856 1.390 . S
C865 H858 0.950 . S
C865 C862 1.387 . S
C866 C867 1.387 . S
C866 H870 0.950 . S
C866 C875 1.390 . S
C867 C866 1.387 . S
C867 C869 1.387 . S
H868 C875 0.950 . S
C869 C867 1.387 . S
C869 C871 1.390 . S
C869 H873 0.950 . S
H870 C866 0.950 . S
C871 C869 1.390 . S
C871 C872 1.387 . S
C871 H874 0.950 . S
C872 C871 1.387 . S
C872 C875 1.387 . S
H873 C869 0.950 . S
H874 C871 0.950 . S
C875 C866 1.390 . S
C875 H868 0.950 . S
C875 C872 1.387 . S
C876 C877 1.387 . S
C876 H880 0.950 . S
C876 C885 1.390 1_565 S
C877 C876 1.387 . S
C877 C879 1.387 . S
H878 C885 0.950 . S
C879 C877 1.387 . S
C879 C881 1.390 1_565 S
C879 H883 0.950 . S
H880 C876 0.950 . S
C881 C879 1.390 1_545 S
C881 C882 1.387 1_554 S
C881 H884 0.950 . S
C882 C881 1.387 1_556 S
C882 C885 1.387 1_556 S
H883 C879 0.950 . S
H884 C881 0.950 . S
C885 C876 1.390 1_545 S
C885 H878 0.950 . S
C885 C882 1.387 1_554 S
C886 C887 1.387 . S
C886 H890 0.921 1_455 S
C886 C895 1.390 1_545 S
C887 C886 1.387 . S
C887 C889 1.387 . S
H888 C895 0.921 1_655 S
C889 C887 1.387 . S
C889 C891 1.390 1_545 S
C889 H893 0.950 . S
H890 C886 0.921 1_655 S
C891 C889 1.390 1_565 S
C891 C892 1.387 . S
C891 H894 0.950 . S
C892 C891 1.387 . S
C892 C895 1.387 . S
H893 C889 0.950 . S
H894 C891 0.950 . S
C895 C886 1.390 1_565 S
C895 H888 0.921 1_455 S
C895 C892 1.387 . S
C577 C338 1.392 . S
C582 C14 1.391 . S
C587 C518 1.396 . S
C592 C50 1.394 . S
C597 C86 1.395 . S
C602 C302 1.393 . S
C607 C122 1.396 . S
C612 C554 1.397 1_655 S
C617 C158 1.396 . S
C622 C374 1.394 . S
C627 C482 1.396 1_655 S
C632 C194 1.394 . S
C637 C410 1.394 . S
C642 C230 1.393 . S
C647 C266 1.395 . S
C652 C446 1.396 . S
C657 C148 1.503 1_655 S
C662 C112 1.502 . S
C667 C436 1.502 . S
C672 C292 1.503 . S
C677 C220 1.502 . S
C682 C40 1.503 . S
C687 C328 1.503 . S
C692 C472 1.502 . S
C697 C4 1.503 1_655 S
C702 C184 1.502 . S
C707 C544 1.503 . S
C712 C364 1.502 . S
C717 C256 1.502 . S
C722 C76 1.503 . S
C727 C400 1.502 . S
C732 C508 1.502 . S
C737 C2 0.861 . S
C742 C146 0.861 . S
C747 C182 0.861 . S
C752 C38 0.861 . S
C757 C218 0.861 . S
C762 C74 0.861 . S
C767 C110 0.861 . S
C772 C254 0.861 . S
C777 C362 0.861 . S
C782 C290 0.861 . S
C787 C398 0.861 . S
C792 C326 0.861 . S
C797 C506 0.861 . S
C802 C434 0.861 . S
C807 C542 0.861 . S
C812 C470 0.861 . S
C817 C147 1.661 . S
C822 C3 1.661 . S
C827 C183 1.661 . S
C832 C39 1.661 . S
C837 C219 1.661 . S
C842 C75 1.661 . S
C847 C111 1.661 . S
C852 C255 1.661 . S
C857 C291 1.661 . S
C862 C363 1.661 . S
C867 C399 1.661 . S
C872 C327 1.661 . S
C877 C507 1.661 . S
C882 C435 1.661 . S
C887 C543 1.660 . S
C892 C471 1.660 . S
