# Generated by pormake.
# Topology unu, (4)-cn, num edge types: 1
# Building blocks:
#     Node 0, Type 0, BuildingBlock: NAHDIM_clean_sbu_0, # of connection points: 4
#     Node 1, Type 0, BuildingBlock: NAHDIM_clean_sbu_0, # of connection points: 4
#     Node 2, Type 0, BuildingBlock: NAHDIM_clean_sbu_0, # of connection points: 4
#     Node 3, Type 0, BuildingBlock: NAHDIM_clean_sbu_0, # of connection points: 4
#     Node 4, Type 0, BuildingBlock: NAHDIM_clean_sbu_0, # of connection points: 4
#     Node 5, Type 0, BuildingBlock: NAHDIM_clean_sbu_0, # of connection points: 4
#     Node 6, Type 0, BuildingBlock: NAHDIM_clean_sbu_0, # of connection points: 4
#     Node 7, Type 0, BuildingBlock: NAHDIM_clean_sbu_0, # of connection points: 4
#     Node 8, Type 0, BuildingBlock: NAHDIM_clean_sbu_0, # of connection points: 4
#     Node 9, Type 0, BuildingBlock: NAHDIM_clean_sbu_0, # of connection points: 4
#     Node 10, Type 0, BuildingBlock: NAHDIM_clean_sbu_0, # of connection points: 4
#     Node 11, Type 0, BuildingBlock: NAHDIM_clean_sbu_0, # of connection points: 4
#     Node 12, Type 0, BuildingBlock: NAHDIM_clean_sbu_0, # of connection points: 4
#     Node 13, Type 0, BuildingBlock: NAHDIM_clean_sbu_0, # of connection points: 4
#     Node 14, Type 0, BuildingBlock: NAHDIM_clean_sbu_0, # of connection points: 4
#     Node 15, Type 0, BuildingBlock: NAHDIM_clean_sbu_0, # of connection points: 4
#     Node 16, Type 0, BuildingBlock: NAHDIM_clean_sbu_0, # of connection points: 4
#     Node 17, Type 0, BuildingBlock: NAHDIM_clean_sbu_0, # of connection points: 4
#     Node 18, Type 0, BuildingBlock: NAHDIM_clean_sbu_0, # of connection points: 4
#     Node 19, Type 0, BuildingBlock: NAHDIM_clean_sbu_0, # of connection points: 4
#     Node 20, Type 0, BuildingBlock: NAHDIM_clean_sbu_0, # of connection points: 4
#     Node 21, Type 0, BuildingBlock: NAHDIM_clean_sbu_0, # of connection points: 4
#     Node 22, Type 0, BuildingBlock: NAHDIM_clean_sbu_0, # of connection points: 4
#     Node 23, Type 0, BuildingBlock: NAHDIM_clean_sbu_0, # of connection points: 4
#     Node 24, Type 0, BuildingBlock: NAHDIM_clean_sbu_0, # of connection points: 4
#     Node 25, Type 0, BuildingBlock: NAHDIM_clean_sbu_0, # of connection points: 4
#     Node 26, Type 0, BuildingBlock: NAHDIM_clean_sbu_0, # of connection points: 4
#     Node 27, Type 0, BuildingBlock: NAHDIM_clean_sbu_0, # of connection points: 4
#     Node 28, Type 0, BuildingBlock: NAHDIM_clean_sbu_0, # of connection points: 4
#     Node 29, Type 0, BuildingBlock: NAHDIM_clean_sbu_0, # of connection points: 4
#     Node 30, Type 0, BuildingBlock: NAHDIM_clean_sbu_0, # of connection points: 4
#     Node 31, Type 0, BuildingBlock: NAHDIM_clean_sbu_0, # of connection points: 4
#     Node 32, Type 0, BuildingBlock: NAHDIM_clean_sbu_0, # of connection points: 4
#     Node 33, Type 0, BuildingBlock: NAHDIM_clean_sbu_0, # of connection points: 4
#     Node 34, Type 0, BuildingBlock: NAHDIM_clean_sbu_0, # of connection points: 4
#     Node 35, Type 0, BuildingBlock: NAHDIM_clean_sbu_0, # of connection points: 4
#     Edge 36, Type (0, 0), BuildingBlock: UVAHIK_clean_linker_0, # of connection points: 2
#     Edge 37, Type (0, 0), BuildingBlock: UVAHIK_clean_linker_0, # of connection points: 2
#     Edge 38, Type (0, 0), BuildingBlock: UVAHIK_clean_linker_0, # of connection points: 2
#     Edge 39, Type (0, 0), BuildingBlock: UVAHIK_clean_linker_0, # of connection points: 2
#     Edge 40, Type (0, 0), BuildingBlock: UVAHIK_clean_linker_0, # of connection points: 2
#     Edge 41, Type (0, 0), BuildingBlock: UVAHIK_clean_linker_0, # of connection points: 2
#     Edge 42, Type (0, 0), BuildingBlock: UVAHIK_clean_linker_0, # of connection points: 2
#     Edge 43, Type (0, 0), BuildingBlock: UVAHIK_clean_linker_0, # of connection points: 2
#     Edge 44, Type (0, 0), BuildingBlock: UVAHIK_clean_linker_0, # of connection points: 2
#     Edge 45, Type (0, 0), BuildingBlock: UVAHIK_clean_linker_0, # of connection points: 2
#     Edge 46, Type (0, 0), BuildingBlock: UVAHIK_clean_linker_0, # of connection points: 2
#     Edge 47, Type (0, 0), BuildingBlock: UVAHIK_clean_linker_0, # of connection points: 2
#     Edge 48, Type (0, 0), BuildingBlock: UVAHIK_clean_linker_0, # of connection points: 2
#     Edge 49, Type (0, 0), BuildingBlock: UVAHIK_clean_linker_0, # of connection points: 2
#     Edge 50, Type (0, 0), BuildingBlock: UVAHIK_clean_linker_0, # of connection points: 2
#     Edge 51, Type (0, 0), BuildingBlock: UVAHIK_clean_linker_0, # of connection points: 2
#     Edge 52, Type (0, 0), BuildingBlock: UVAHIK_clean_linker_0, # of connection points: 2
#     Edge 53, Type (0, 0), BuildingBlock: UVAHIK_clean_linker_0, # of connection points: 2
#     Edge 54, Type (0, 0), BuildingBlock: UVAHIK_clean_linker_0, # of connection points: 2
#     Edge 55, Type (0, 0), BuildingBlock: UVAHIK_clean_linker_0, # of connection points: 2
#     Edge 56, Type (0, 0), BuildingBlock: UVAHIK_clean_linker_0, # of connection points: 2
#     Edge 57, Type (0, 0), BuildingBlock: UVAHIK_clean_linker_0, # of connection points: 2
#     Edge 58, Type (0, 0), BuildingBlock: UVAHIK_clean_linker_0, # of connection points: 2
#     Edge 59, Type (0, 0), BuildingBlock: UVAHIK_clean_linker_0, # of connection points: 2
#     Edge 60, Type (0, 0), BuildingBlock: UVAHIK_clean_linker_0, # of connection points: 2
#     Edge 61, Type (0, 0), BuildingBlock: UVAHIK_clean_linker_0, # of connection points: 2
#     Edge 62, Type (0, 0), BuildingBlock: UVAHIK_clean_linker_0, # of connection points: 2
#     Edge 63, Type (0, 0), BuildingBlock: UVAHIK_clean_linker_0, # of connection points: 2
#     Edge 64, Type (0, 0), BuildingBlock: UVAHIK_clean_linker_0, # of connection points: 2
#     Edge 65, Type (0, 0), BuildingBlock: UVAHIK_clean_linker_0, # of connection points: 2
#     Edge 66, Type (0, 0), BuildingBlock: UVAHIK_clean_linker_0, # of connection points: 2
#     Edge 67, Type (0, 0), BuildingBlock: UVAHIK_clean_linker_0, # of connection points: 2
#     Edge 68, Type (0, 0), BuildingBlock: UVAHIK_clean_linker_0, # of connection points: 2
#     Edge 69, Type (0, 0), BuildingBlock: UVAHIK_clean_linker_0, # of connection points: 2
#     Edge 70, Type (0, 0), BuildingBlock: UVAHIK_clean_linker_0, # of connection points: 2
#     Edge 71, Type (0, 0), BuildingBlock: UVAHIK_clean_linker_0, # of connection points: 2
#     Edge 72, Type (0, 0), BuildingBlock: UVAHIK_clean_linker_0, # of connection points: 2
#     Edge 73, Type (0, 0), BuildingBlock: UVAHIK_clean_linker_0, # of connection points: 2
#     Edge 74, Type (0, 0), BuildingBlock: UVAHIK_clean_linker_0, # of connection points: 2
#     Edge 75, Type (0, 0), BuildingBlock: UVAHIK_clean_linker_0, # of connection points: 2
#     Edge 76, Type (0, 0), BuildingBlock: UVAHIK_clean_linker_0, # of connection points: 2
#     Edge 77, Type (0, 0), BuildingBlock: UVAHIK_clean_linker_0, # of connection points: 2
#     Edge 78, Type (0, 0), BuildingBlock: UVAHIK_clean_linker_0, # of connection points: 2
#     Edge 79, Type (0, 0), BuildingBlock: UVAHIK_clean_linker_0, # of connection points: 2
#     Edge 80, Type (0, 0), BuildingBlock: UVAHIK_clean_linker_0, # of connection points: 2
#     Edge 81, Type (0, 0), BuildingBlock: UVAHIK_clean_linker_0, # of connection points: 2
#     Edge 82, Type (0, 0), BuildingBlock: UVAHIK_clean_linker_0, # of connection points: 2
#     Edge 83, Type (0, 0), BuildingBlock: UVAHIK_clean_linker_0, # of connection points: 2
#     Edge 84, Type (0, 0), BuildingBlock: UVAHIK_clean_linker_0, # of connection points: 2
#     Edge 85, Type (0, 0), BuildingBlock: UVAHIK_clean_linker_0, # of connection points: 2
#     Edge 86, Type (0, 0), BuildingBlock: UVAHIK_clean_linker_0, # of connection points: 2
#     Edge 87, Type (0, 0), BuildingBlock: UVAHIK_clean_linker_0, # of connection points: 2
#     Edge 88, Type (0, 0), BuildingBlock: UVAHIK_clean_linker_0, # of connection points: 2
#     Edge 89, Type (0, 0), BuildingBlock: UVAHIK_clean_linker_0, # of connection points: 2
#     Edge 90, Type (0, 0), BuildingBlock: UVAHIK_clean_linker_0, # of connection points: 2
#     Edge 91, Type (0, 0), BuildingBlock: UVAHIK_clean_linker_0, # of connection points: 2
#     Edge 92, Type (0, 0), BuildingBlock: UVAHIK_clean_linker_0, # of connection points: 2
#     Edge 93, Type (0, 0), BuildingBlock: UVAHIK_clean_linker_0, # of connection points: 2
#     Edge 94, Type (0, 0), BuildingBlock: UVAHIK_clean_linker_0, # of connection points: 2
#     Edge 95, Type (0, 0), BuildingBlock: UVAHIK_clean_linker_0, # of connection points: 2
#     Edge 96, Type (0, 0), BuildingBlock: UVAHIK_clean_linker_0, # of connection points: 2
#     Edge 97, Type (0, 0), BuildingBlock: UVAHIK_clean_linker_0, # of connection points: 2
#     Edge 98, Type (0, 0), BuildingBlock: UVAHIK_clean_linker_0, # of connection points: 2
#     Edge 99, Type (0, 0), BuildingBlock: UVAHIK_clean_linker_0, # of connection points: 2
#     Edge 100, Type (0, 0), BuildingBlock: UVAHIK_clean_linker_0, # of connection points: 2
#     Edge 101, Type (0, 0), BuildingBlock: UVAHIK_clean_linker_0, # of connection points: 2
#     Edge 102, Type (0, 0), BuildingBlock: UVAHIK_clean_linker_0, # of connection points: 2
#     Edge 103, Type (0, 0), BuildingBlock: UVAHIK_clean_linker_0, # of connection points: 2
#     Edge 104, Type (0, 0), BuildingBlock: UVAHIK_clean_linker_0, # of connection points: 2
#     Edge 105, Type (0, 0), BuildingBlock: UVAHIK_clean_linker_0, # of connection points: 2
#     Edge 106, Type (0, 0), BuildingBlock: UVAHIK_clean_linker_0, # of connection points: 2
#     Edge 107, Type (0, 0), BuildingBlock: UVAHIK_clean_linker_0, # of connection points: 2
# Relax obj value: 0.299
# Max RMSD: 0.283
# Mean RMSD: 0.283
data_MOF--net-unu--node1-NAHDIM_clean_sbu_0--edge1-UVAHIK_clean_linker_0
_symmetry_space_group_name_H-M    P1
_symmetry_Int_Tables_number       1
_symmetry_cell_setting            triclinic
loop_
_symmetry_equiv_pos_as_xyz
'x, y, z'
_cell_length_a     50.854653
_cell_length_b     50.837243
_cell_length_c     158.6487
_cell_angle_alpha  89.9852
_cell_angle_beta   89.997595
_cell_angle_gamma 120.00883
loop_
_atom_site_label
_atom_site_type_symbol
_atom_site_fract_x
_atom_site_fract_y
_atom_site_fract_z
_atom_type_partial_charge
C0 C 0.3134 0.12436 0.10385 0.0
O1 O 0.31734 0.13177 0.11187 0.0
O2 O 0.21766 0.07043 0.10537 0.0
Zn3 Zn 0.25275 0.11254 0.10735 0.0
O4 O 0.26475 0.11917 0.11956 0.0
C5 C 0.21948 0.13519 0.09829 0.0
O6 O 0.21282 0.11152 0.09353 0.0
O7 O 0.28812 0.11722 0.10039 0.0
C8 C 0.24771 0.10684 0.1259 0.0
O9 O 0.21876 0.08721 0.12477 0.0
C10 C 0.21436 0.04578 0.10836 0.0
O11 O 0.23499 0.04649 0.1135 0.0
O12 O 0.23836 0.14168 0.10427 0.0
C13 C 0.90346 0.20067 0.10473 0.0
O14 O 0.91355 0.20594 0.11252 0.0
O15 O 0.94175 0.15237 0.10743 0.0
Zn16 Zn 0.8992 0.1448 0.10896 0.0
O17 O 0.89167 0.15161 0.12101 0.0
C18 C 0.87757 0.08925 0.0998 0.0
O19 O 0.90129 0.10675 0.0951 0.0
O20 O 0.89459 0.17456 0.10157 0.0
C21 C 0.87709 0.13047 0.12631 0.0
O22 O 0.86707 0.10214 0.12407 0.0
C23 C 0.96533 0.17241 0.11121 0.0
O24 O 0.96281 0.18995 0.11684 0.0
O25 O 0.87074 0.1011 0.10585 0.0
C26 C 0.82315 0.72521 0.09361 0.0
O27 O 0.83333 0.75258 0.0905 0.0
O28 O 0.85732 0.79258 0.1054 0.0
Zn29 Zn 0.86519 0.75787 0.10707 0.0
O30 O 0.85825 0.74439 0.11916 0.0
C31 C 0.91986 0.78992 0.09753 0.0
O32 O 0.90152 0.79379 0.09251 0.0
O33 O 0.83507 0.72208 0.10029 0.0
C34 C 0.87926 0.753 0.12461 0.0
O35 O 0.90726 0.77291 0.12247 0.0
C36 C 0.83574 0.79455 0.10878 0.0
O37 O 0.81696 0.77297 0.1139 0.0
O38 O 0.90882 0.77305 0.10397 0.0
C39 C 0.09171 0.28894 0.39299 0.0
O40 O 0.07668 0.27686 0.38599 0.0
O41 O 0.06566 0.20953 0.38962 0.0
Zn42 Zn 0.10762 0.24618 0.38878 0.0
O43 O 0.11699 0.26185 0.37691 0.0
C44 C 0.13164 0.21725 0.39914 0.0
O45 O 0.10925 0.21365 0.40405 0.0
O46 O 0.10869 0.27941 0.39593 0.0
C47 C 0.13083 0.25457 0.37156 0.0
O48 O 0.13908 0.23474 0.37365 0.0
C49 C 0.04476 0.20127 0.38414 0.0
O50 O 0.04998 0.21725 0.37721 0.0
O51 O 0.13692 0.23276 0.39243 0.0
C52 C 0.70463 0.7932 0.38975 0.0
O53 O 0.71033 0.78675 0.38218 0.0
O54 O 0.78924 0.83968 0.3861 0.0
Zn55 Zn 0.7549 0.84831 0.38485 0.0
O56 O 0.73881 0.84086 0.37298 0.0
C57 C 0.79065 0.90483 0.39354 0.0
O58 O 0.79659 0.88764 0.39845 0.0
O59 O 0.72112 0.81998 0.39259 0.0
C60 C 0.74831 0.86135 0.36735 0.0
O61 O 0.77067 0.88872 0.36913 0.0
C62 C 0.79589 0.82432 0.38112 0.0
O63 O 0.77945 0.81238 0.37431 0.0
O64 O 0.77158 0.89248 0.3876 0.0
C65 C 0.18525 0.873 0.39824 0.0
O66 O 0.17651 0.85938 0.3909 0.0
O67 O 0.15672 0.94062 0.3959 0.0
Zn68 Zn 0.14767 0.89807 0.3934 0.0
O69 O 0.15759 0.89461 0.38132 0.0
C70 C 0.08526 0.84803 0.39108 0.0
O71 O 0.09672 0.83906 0.38506 0.0
O72 O 0.17426 0.88915 0.40085 0.0
C73 C 0.14329 0.89662 0.37501 0.0
O74 O 0.12085 0.90198 0.37625 0.0
C75 C 0.17415 0.96412 0.39161 0.0
O76 O 0.18817 0.96151 0.38498 0.0
O77 O 0.10294 0.8708 0.39558 0.0
C78 C 0.70493 0.90902 0.89084 0.0
O79 O 0.71481 0.91732 0.88311 0.0
O80 O 0.78894 0.93612 0.89031 0.0
Zn81 Zn 0.75121 0.89503 0.88945 0.0
O82 O 0.73899 0.88418 0.87733 0.0
C83 C 0.77879 0.87173 0.90069 0.0
O84 O 0.78534 0.89657 0.90488 0.0
O85 O 0.71708 0.89728 0.89537 0.0
C86 C 0.7432 0.86596 0.87283 0.0
O87 O 0.75811 0.85329 0.87597 0.0
C88 C 0.79667 0.95802 0.88519 0.0
O89 O 0.77942 0.95444 0.87864 0.0
O90 O 0.7617 0.86481 0.89426 0.0
C91 C 0.10905 0.80124 0.89457 0.0
O92 O 0.11665 0.80533 0.88657 0.0
O93 O 0.0505 0.83948 0.89414 0.0
Zn94 Zn 0.09208 0.84664 0.89117 0.0
O95 O 0.0944 0.83889 0.87882 0.0
C96 C 0.14463 0.90798 0.88954 0.0
O97 O 0.15291 0.89644 0.88338 0.0
O98 O 0.09959 0.81759 0.89801 0.0
C99 C 0.09442 0.85569 0.87289 0.0
O100 O 0.09167 0.87943 0.8747 0.0
C101 C 0.02611 0.82236 0.89016 0.0
O102 O 0.02698 0.80742 0.88351 0.0
O103 O 0.12122 0.89061 0.89387 0.0
C104 C 0.20887 0.28989 0.89013 0.0
O105 O 0.21471 0.28034 0.88305 0.0
O106 O 0.16137 0.20777 0.88668 0.0
Zn107 Zn 0.15272 0.24216 0.88544 0.0
O108 O 0.15949 0.25793 0.87355 0.0
C109 C 0.09661 0.20657 0.89433 0.0
O110 O 0.11378 0.19991 0.89902 0.0
O111 O 0.18175 0.27652 0.89287 0.0
C112 C 0.13841 0.2492 0.86812 0.0
O113 O 0.11085 0.22773 0.87011 0.0
C114 C 0.17487 0.19992 0.88137 0.0
O115 O 0.18468 0.21502 0.87426 0.0
O116 O 0.10886 0.22596 0.88846 0.0
C117 C 0.90145 0.70248 0.60422 0.0
O118 O 0.91268 0.70805 0.61189 0.0
O119 O 0.93875 0.78808 0.60733 0.0
Zn120 Zn 0.89627 0.75297 0.60876 0.0
O121 O 0.88871 0.73781 0.62071 0.0
C122 C 0.87312 0.78519 0.59946 0.0
O123 O 0.89452 0.78857 0.59419 0.0
O124 O 0.89152 0.71902 0.60119 0.0
C125 C 0.87871 0.74783 0.62647 0.0
O126 O 0.87368 0.77024 0.62477 0.0
C127 C 0.96178 0.79308 0.61168 0.0
O128 O 0.95868 0.77436 0.61781 0.0
O129 O 0.86805 0.76866 0.60594 0.0
C130 C 0.29859 0.20092 0.60448 0.0
O131 O 0.2939 0.20616 0.61229 0.0
O132 O 0.21154 0.15262 0.60709 0.0
Zn133 Zn 0.24663 0.14532 0.6087 0.0
O134 O 0.26087 0.15233 0.62075 0.0
C135 C 0.21222 0.08859 0.60001 0.0
O136 O 0.20504 0.10516 0.59522 0.0
O137 O 0.28109 0.17492 0.60129 0.0
C138 C 0.25147 0.13153 0.62629 0.0
O139 O 0.23018 0.10387 0.6243 0.0
C140 C 0.20796 0.17277 0.61079 0.0
O141 O 0.22811 0.19065 0.61636 0.0
O142 O 0.23161 0.10148 0.60585 0.0
C143 C 0.80324 0.10642 0.60522 0.0
O144 O 0.80004 0.09943 0.61327 0.0
O145 O 0.85116 0.06446 0.60609 0.0
Zn146 Zn 0.8586 0.10669 0.60817 0.0
O147 O 0.85469 0.11333 0.62049 0.0
C148 C 0.91413 0.12929 0.5988 0.0
O149 O 0.89718 0.10527 0.59414 0.0
O150 O 0.82758 0.11175 0.60149 0.0
C151 C 0.86258 0.14018 0.62282 0.0
O152 O 0.87337 0.16205 0.61718 0.0
C153 C 0.83496 0.04115 0.61058 0.0
O154 O 0.82135 0.04369 0.61731 0.0
O155 O 0.90185 0.13576 0.60481 0.0
C156 C 0.95256 0.41859 0.43928 0.0
O157 O 0.93992 0.40287 0.44615 0.0
O158 O 0.87094 0.38813 0.44085 0.0
Zn159 Zn 0.90618 0.43045 0.4426 0.0
O160 O 0.91803 0.43825 0.45479 0.0
C161 C 0.8765 0.45427 0.43237 0.0
O162 O 0.87267 0.43199 0.42738 0.0
O163 O 0.94201 0.4344 0.43611 0.0
C164 C 0.94013 0.46434 0.45658 0.0
O165 O 0.95297 0.48443 0.45052 0.0
C166 C 0.8624 0.36599 0.44593 0.0
O167 O 0.87707 0.37003 0.45306 0.0
O168 O 0.89234 0.45945 0.439 0.0
C169 C 0.56208 0.52903 0.43844 0.0
O170 O 0.57101 0.53169 0.44631 0.0
O171 O 0.5995 0.47844 0.43881 0.0
Zn172 Zn 0.55766 0.47182 0.44096 0.0
O173 O 0.55115 0.4752 0.45332 0.0
C174 C 0.53415 0.41717 0.43118 0.0
O175 O 0.55826 0.43436 0.42659 0.0
O176 O 0.55383 0.50413 0.43459 0.0
C177 C 0.52476 0.46911 0.45562 0.0
O178 O 0.5032 0.46016 0.44992 0.0
C179 C 0.6233 0.49552 0.44302 0.0
O180 O 0.62157 0.51052 0.44953 0.0
O181 O 0.52791 0.42904 0.43735 0.0
C182 C 0.47369 0.01905 0.4326 0.0
O183 O 0.48333 0.01314 0.43964 0.0
O184 O 0.50411 0.11578 0.43628 0.0
Zn185 Zn 0.51127 0.0807 0.43818 0.0
O186 O 0.50112 0.0656 0.45013 0.0
C187 C 0.56986 0.1153 0.43044 0.0
O188 O 0.5544 0.12227 0.42515 0.0
O189 O 0.484 0.04657 0.43043 0.0
C190 C 0.5208 0.07649 0.45597 0.0
O191 O 0.548 0.09932 0.45427 0.0
C192 C 0.48397 0.11935 0.44 0.0
O193 O 0.46608 0.09911 0.44555 0.0
O194 O 0.55569 0.09603 0.43622 0.0
C195 C 0.75711 0.631 0.7275 0.0
O196 O 0.74235 0.62054 0.72038 0.0
O197 O 0.72482 0.5488 0.72457 0.0
Zn198 Zn 0.76735 0.58416 0.72331 0.0
O199 O 0.77567 0.59925 0.71137 0.0
C200 C 0.79023 0.55179 0.73274 0.0
O201 O 0.76807 0.54743 0.73785 0.0
O202 O 0.77135 0.61855 0.73056 0.0
C203 C 0.786 0.58925 0.70569 0.0
O204 O 0.79093 0.56684 0.70747 0.0
C205 C 0.70328 0.54123 0.71934 0.0
O206 O 0.70809 0.55728 0.71244 0.0
O207 O 0.79581 0.56899 0.72638 0.0
C208 C 0.3575 0.14265 0.72819 0.0
O209 O 0.35068 0.14515 0.72035 0.0
O210 O 0.45322 0.17977 0.72461 0.0
Zn211 Zn 0.4181 0.18683 0.72278 0.0
O212 O 0.40299 0.17662 0.71084 0.0
C213 C 0.45222 0.24491 0.73076 0.0
O214 O 0.45834 0.2289 0.73609 0.0
O215 O 0.38461 0.15949 0.73075 0.0
C216 C 0.4126 0.19638 0.70501 0.0
O217 O 0.43428 0.2242 0.70667 0.0
C218 C 0.45634 0.15904 0.7211 0.0
O219 O 0.43567 0.14054 0.71573 0.0
O220 O 0.4336 0.23128 0.72481 0.0
C221 C 0.86568 0.24113 0.72518 0.0
O222 O 0.8692 0.25658 0.71823 0.0
O223 O 0.81507 0.2742 0.7246 0.0
Zn224 Zn 0.80794 0.23218 0.72225 0.0
O225 O 0.81224 0.22627 0.70991 0.0
C226 C 0.75253 0.2082 0.7317 0.0
O227 O 0.76928 0.23211 0.73642 0.0
O228 O 0.83947 0.22698 0.72853 0.0
C229 C 0.80666 0.19997 0.70767 0.0
O230 O 0.79776 0.17851 0.7134 0.0
C231 C 0.8288 0.29721 0.71981 0.0
O232 O 0.83979 0.29451 0.71258 0.0
O233 O 0.76491 0.20235 0.72558 0.0
C234 C 0.37626 0.23897 0.22306 0.0
O235 O 0.38327 0.24794 0.2152 0.0
O236 O 0.46193 0.27404 0.22095 0.0
Zn237 Zn 0.42655 0.23133 0.22035 0.0
O238 O 0.41252 0.21855 0.20843 0.0
C239 C 0.45917 0.21272 0.23118 0.0
O240 O 0.46353 0.23685 0.23539 0.0
O241 O 0.39193 0.22974 0.227 0.0
C242 C 0.38862 0.19285 0.20754 0.0
O243 O 0.37565 0.17631 0.21427 0.0
C244 C 0.4675 0.29638 0.21621 0.0
O245 O 0.44906 0.29259 0.20994 0.0
O246 O 0.44167 0.20428 0.22482 0.0
C247 C 0.77163 0.15968 0.2382 0.0
O248 O 0.75782 0.17385 0.24107 0.0
O249 O 0.73943 0.19253 0.22564 0.0
Zn250 Zn 0.78056 0.19697 0.22364 0.0
O251 O 0.7844 0.18644 0.21166 0.0
C252 C 0.8073 0.25485 0.23178 0.0
O253 O 0.78429 0.23961 0.23692 0.0
O254 O 0.78478 0.16732 0.23108 0.0
C255 C 0.79622 0.20638 0.2059 0.0
O256 O 0.80524 0.23488 0.20769 0.0
C257 C 0.71466 0.17263 0.22232 0.0
O258 O 0.71486 0.15314 0.21693 0.0
O259 O 0.81177 0.2407 0.22586 0.0
C260 C 0.84661 0.6207 0.23639 0.0
O261 O 0.82209 0.60005 0.24027 0.0
O262 O 0.8297 0.55005 0.22252 0.0
Zn263 Zn 0.82115 0.58431 0.22093 0.0
O264 O 0.83061 0.60023 0.20908 0.0
C265 C 0.76284 0.54671 0.22856 0.0
O266 O 0.7787 0.53811 0.23316 0.0
O267 O 0.84938 0.61841 0.22852 0.0
C268 C 0.81053 0.59149 0.20335 0.0
O269 O 0.78257 0.57024 0.20506 0.0
C270 C 0.84946 0.54673 0.2185 0.0
O271 O 0.86582 0.56653 0.21266 0.0
O272 O 0.77661 0.568 0.22324 0.0
C273 C 0.5557 0.052 0.92809 0.0
O274 O 0.56264 0.07804 0.92455 0.0
O275 O 0.59683 0.11701 0.9422 0.0
Zn276 Zn 0.55468 0.0815 0.94377 0.0
O277 O 0.54881 0.06421 0.95543 0.0
C278 C 0.53211 0.11768 0.93645 0.0
O279 O 0.55624 0.12632 0.93171 0.0
O280 O 0.54976 0.04837 0.93591 0.0
C281 C 0.54809 0.0777 0.96208 0.0
O282 O 0.55236 0.10536 0.96154 0.0
C283 C 0.62125 0.11959 0.94514 0.0
O284 O 0.62008 0.09791 0.94991 0.0
O285 O 0.52533 0.09678 0.94185 0.0
C286 C 0.95605 0.52717 0.93751 0.0
O287 O 0.94719 0.5313 0.94492 0.0
O288 O 0.87105 0.47935 0.93934 0.0
Zn289 Zn 0.90527 0.47057 0.94083 0.0
O290 O 0.91755 0.47472 0.953 0.0
C291 C 0.86948 0.4147 0.93184 0.0
O292 O 0.86159 0.4317 0.92751 0.0
O293 O 0.9413 0.50115 0.93406 0.0
C294 C 0.93878 0.46957 0.95496 0.0
O295 O 0.95101 0.46104 0.94904 0.0
C296 C 0.86584 0.4962 0.94415 0.0
O297 O 0.88361 0.50927 0.95067 0.0
O298 O 0.88975 0.42704 0.9375 0.0
C299 C 0.46924 0.44807 0.93913 0.0
O300 O 0.47033 0.45597 0.94706 0.0
O301 O 0.50732 0.39138 0.94321 0.0
Zn302 Zn 0.5153 0.43416 0.94448 0.0
O303 O 0.50704 0.44161 0.95637 0.0
C304 C 0.5716 0.45626 0.93569 0.0
O305 O 0.55431 0.43356 0.93066 0.0
O306 O 0.4874 0.43947 0.93653 0.0
C307 C 0.52729 0.45174 0.96207 0.0
O308 O 0.55456 0.45647 0.96031 0.0
C309 C 0.48884 0.36881 0.94764 0.0
O310 O 0.4734 0.37278 0.95365 0.0
O311 O 0.55942 0.46219 0.94184 0.0
C312 C 0.63785 0.78287 0.77166 0.0
O313 O 0.64314 0.79228 0.77952 0.0
O314 O 0.54151 0.72025 0.77377 0.0
Zn315 Zn 0.57579 0.76216 0.77643 0.0
O316 O 0.58914 0.76417 0.78847 0.0
C317 C 0.54387 0.78891 0.76848 0.0
O318 O 0.54064 0.76994 0.76241 0.0
O319 O 0.61093 0.77095 0.7688 0.0
C320 C 0.58135 0.77611 0.79427 0.0
O321 O 0.56249 0.78593 0.79251 0.0
C322 C 0.53799 0.69607 0.77718 0.0
O323 O 0.55763 0.69784 0.78285 0.0
O324 O 0.5599 0.79099 0.77485 0.0
C325 C 0.23994 0.87281 0.77441 0.0
O326 O 0.2548 0.87652 0.7815 0.0
O327 O 0.27139 0.82316 0.77708 0.0
Zn328 Zn 0.22859 0.81513 0.77829 0.0
O329 O 0.2179 0.8191 0.79025 0.0
C330 C 0.20798 0.76191 0.76807 0.0
O331 O 0.23071 0.78103 0.76331 0.0
O332 O 0.22499 0.84624 0.77131 0.0
C333 C 0.19031 0.81158 0.79145 0.0
O334 O 0.1714 0.80129 0.78505 0.0
C335 C 0.29225 0.83281 0.7826 0.0
O336 O 0.28688 0.8391 0.79022 0.0
O337 O 0.20125 0.77196 0.77457 0.0
C338 C 0.13994 0.35895 0.76805 0.0
O339 O 0.14464 0.35269 0.77575 0.0
O340 O 0.17879 0.45612 0.77099 0.0
Zn341 Zn 0.18448 0.4201 0.77288 0.0
O342 O 0.17572 0.4061 0.78493 0.0
C343 C 0.24162 0.45221 0.76436 0.0
O344 O 0.22567 0.45953 0.75936 0.0
O345 O 0.15547 0.38603 0.76532 0.0
C346 C 0.19625 0.4159 0.79055 0.0
O347 O 0.22391 0.43724 0.7886 0.0
C348 C 0.16301 0.46355 0.77555 0.0
O349 O 0.14863 0.44684 0.78214 0.0
O350 O 0.22822 0.43368 0.77035 0.0
C351 C 0.43024 0.96163 0.06236 0.0
O352 O 0.41857 0.95311 0.05479 0.0
O353 O 0.39564 0.87864 0.05938 0.0
Zn354 Zn 0.43891 0.91304 0.05884 0.0
O355 O 0.45108 0.929 0.04702 0.0
C356 C 0.48774 0.89844 0.05935 0.0
O357 O 0.49864 0.91675 0.05284 0.0
O358 O 0.44186 0.94739 0.06592 0.0
C359 C 0.44916 0.91396 0.04044 0.0
O360 O 0.43829 0.88452 0.04098 0.0
C361 C 0.37393 0.8732 0.05439 0.0
O362 O 0.37882 0.8912 0.04792 0.0
O363 O 0.46437 0.89559 0.06311 0.0
C364 C 0.0347 0.46719 0.05656 0.0
O365 O 0.03989 0.46434 0.04859 0.0
O366 O 0.12367 0.51621 0.05594 0.0
Zn367 Zn 0.08879 0.52342 0.05388 0.0
O368 O 0.0786 0.51991 0.04154 0.0
C369 C 0.12084 0.57878 0.06341 0.0
O370 O 0.12763 0.56183 0.06816 0.0
O371 O 0.05253 0.49177 0.06039 0.0
C372 C 0.05875 0.52673 0.03931 0.0
O373 O 0.0468 0.53622 0.04506 0.0
C374 C 0.1274 0.49591 0.05239 0.0
O375 O 0.10766 0.47804 0.04674 0.0
O376 O 0.10256 0.56651 0.0573 0.0
C377 C 0.51731 0.57114 0.07317 0.0
O378 O 0.50645 0.5879 0.07616 0.0
O379 O 0.48526 0.60529 0.06076 0.0
Zn380 Zn 0.47748 0.56267 0.05918 0.0
O381 O 0.48584 0.55639 0.04722 0.0
C382 C 0.42006 0.54017 0.06744 0.0
O383 O 0.43612 0.56413 0.0722 0.0
O384 O 0.50658 0.55668 0.06634 0.0
C385 C 0.46586 0.54714 0.04145 0.0
O386 O 0.4386 0.54245 0.04322 0.0
C387 C 0.50552 0.62838 0.05685 0.0
O388 O 0.52277 0.62493 0.05131 0.0
O389 O 0.43349 0.53365 0.06176 0.0
C390 C 0.03711 0.57103 0.55711 0.0
O391 O 0.04254 0.5785 0.54912 0.0
O392 O 0.12631 0.61245 0.55661 0.0
Zn393 Zn 0.09185 0.56978 0.55493 0.0
O394 O 0.08183 0.56122 0.54264 0.0
C395 C 0.12281 0.54781 0.56546 0.0
O396 O 0.12731 0.57092 0.57018 0.0
O397 O 0.05515 0.56516 0.56118 0.0
C398 C 0.06213 0.53422 0.54063 0.0
O399 O 0.05019 0.51351 0.54657 0.0
C400 C 0.12974 0.63554 0.55257 0.0
O401 O 0.10987 0.63215 0.54676 0.0
O402 O 0.10627 0.54164 0.55893 0.0
C403 C 0.43538 0.46991 0.55771 0.0
O404 O 0.42547 0.46725 0.54994 0.0
O405 O 0.39719 0.51981 0.55796 0.0
Zn406 Zn 0.43885 0.52663 0.55539 0.0
O407 O 0.44421 0.52309 0.54297 0.0
C408 C 0.46341 0.58162 0.5651 0.0
O409 O 0.44117 0.56411 0.57023 0.0
O410 O 0.44386 0.49472 0.56163 0.0
C411 C 0.47058 0.5295 0.54055 0.0
O412 O 0.49244 0.53873 0.54616 0.0
C413 C 0.37289 0.5025 0.55398 0.0
O414 O 0.37384 0.48717 0.54743 0.0
O415 O 0.46845 0.56977 0.5587 0.0
C416 C 0.53756 0.96747 0.5571 0.0
O417 O 0.54275 0.95929 0.54971 0.0
O418 O 0.48691 0.8827 0.55506 0.0
Zn419 Zn 0.48057 0.91823 0.55302 0.0
O420 O 0.48736 0.93148 0.54088 0.0
C421 C 0.42463 0.88645 0.56215 0.0
O422 O 0.44143 0.87993 0.56706 0.0
O423 O 0.51085 0.95306 0.56014 0.0
C424 C 0.46645 0.9207 0.53537 0.0
O425 O 0.43927 0.89871 0.53748 0.0
C426 C 0.50205 0.87426 0.55057 0.0
O427 O 0.5154 0.88935 0.54367 0.0
O428 O 0.43713 0.90453 0.55601 0.0
C429 C 0.23615 0.3674 0.27019 0.0
O430 O 0.24628 0.37175 0.27797 0.0
O431 O 0.27543 0.45445 0.27277 0.0
Zn432 Zn 0.23321 0.4195 0.27468 0.0
O433 O 0.22793 0.40555 0.28673 0.0
C434 C 0.21032 0.45488 0.2668 0.0
O435 O 0.23406 0.46309 0.26192 0.0
O436 O 0.22762 0.38506 0.26714 0.0
C437 C 0.21631 0.41404 0.29244 0.0
O438 O 0.20797 0.43402 0.29062 0.0
C439 C 0.29919 0.45834 0.27652 0.0
O440 O 0.29694 0.43874 0.28227 0.0
O441 O 0.20401 0.43451 0.27234 0.0
C442 C 0.63388 0.85483 0.26619 0.0
O443 O 0.64284 0.84632 0.27291 0.0
O444 O 0.53697 0.81344 0.27112 0.0
Zn445 Zn 0.5745 0.80986 0.27204 0.0
O446 O 0.59094 0.81919 0.28385 0.0
C447 C 0.54377 0.75327 0.26329 0.0
O448 O 0.5354 0.76895 0.25853 0.0
O449 O 0.60586 0.84083 0.26427 0.0
C450 C 0.58206 0.79895 0.28954 0.0
O451 O 0.56038 0.77119 0.28781 0.0
C452 C 0.5353 0.83615 0.27376 0.0
O453 O 0.55884 0.85845 0.27757 0.0
O454 O 0.56262 0.76679 0.26921 0.0
C455 C 0.12755 0.7601 0.27859 0.0
O456 O 0.12785 0.75368 0.2866 0.0
O457 O 0.18011 0.725 0.27899 0.0
Zn458 Zn 0.18598 0.76705 0.28012 0.0
O459 O 0.18628 0.77862 0.29227 0.0
C460 C 0.23688 0.78705 0.269 0.0
O461 O 0.21821 0.76141 0.2652 0.0
O462 O 0.15117 0.76772 0.27417 0.0
C463 C 0.19646 0.80658 0.29384 0.0
O464 O 0.20749 0.82626 0.28762 0.0
C465 C 0.1614 0.70106 0.28291 0.0
O466 O 0.14354 0.70249 0.28865 0.0
O467 O 0.22716 0.7956 0.2752 0.0
C468 C 0.24397 0.0987 0.14157 0.0
C469 C 0.26079 0.11491 0.13447 0.0
C470 C 0.25686 0.10643 0.14962 0.0
C471 C 0.31706 0.1698 0.16161 0.0
H472 H 0.31128 0.1073 0.17678 0.0
C473 C 0.38846 0.19967 0.19191 0.0
C474 C 0.37428 0.18266 0.19918 0.0
C475 C 0.37415 0.19071 0.18407 0.0
C476 C 0.31278 0.125 0.17267 0.0
H477 H 0.30423 0.15202 0.13025 0.0
H478 H 0.32647 0.16547 0.14425 0.0
H479 H 0.28603 0.09299 0.16309 0.0
H480 H 0.3341 0.14274 0.20391 0.0
H481 H 0.30895 0.12744 0.19028 0.0
H482 H 0.34353 0.20182 0.17116 0.0
C483 C 0.30334 0.14691 0.14361 0.0
C484 C 0.29832 0.11678 0.16483 0.0
C485 C 0.29062 0.13906 0.13558 0.0
C486 C 0.3457 0.15629 0.19842 0.0
C487 C 0.33132 0.14742 0.1906 0.0
C488 C 0.33134 0.178 0.16945 0.0
C489 C 0.28664 0.13069 0.15071 0.0
C490 C 0.30056 0.13913 0.1592 0.0
C491 C 0.34528 0.16464 0.18334 0.0
C492 C 0.32961 0.15574 0.17505 0.0
H493 H 0.22096 0.07996 0.14091 0.0
H494 H 0.24342 0.09367 0.15501 0.0
H495 H 0.31879 0.18747 0.15744 0.0
H496 H 0.41055 0.22003 0.19227 0.0
H497 H 0.38579 0.2042 0.17858 0.0
C498 C 0.79212 0.16731 0.19555 0.0
C499 C 0.80187 0.19784 0.19746 0.0
C500 C 0.79914 0.15941 0.18778 0.0
C501 C 0.82406 0.18765 0.16608 0.0
H502 H 0.85094 0.12843 0.16593 0.0
C503 C 0.87909 0.16801 0.13686 0.0
C504 C 0.86961 0.13774 0.13469 0.0
C505 C 0.8706 0.17487 0.14455 0.0
C506 C 0.84317 0.14476 0.16585 0.0
H507 H 0.82611 0.24394 0.19264 0.0
H508 H 0.83862 0.23018 0.17912 0.0
H509 H 0.83562 0.14115 0.17917 0.0
H510 H 0.84424 0.091 0.13897 0.0
H511 H 0.82934 0.10303 0.15241 0.0
H512 H 0.83183 0.19141 0.15277 0.0
C513 C 0.82526 0.2123 0.18359 0.0
C514 C 0.83435 0.15202 0.17344 0.0
C515 C 0.8182 0.22021 0.19136 0.0
C516 C 0.85196 0.11455 0.14046 0.0
C517 C 0.84351 0.12144 0.14817 0.0
C518 C 0.83294 0.18043 0.1585 0.0
C519 C 0.81608 0.18185 0.18175 0.0
C520 C 0.82477 0.17362 0.17365 0.0
C521 C 0.85248 0.15166 0.15026 0.0
C522 C 0.84271 0.15899 0.15831 0.0
H523 H 0.77935 0.14949 0.20009 0.0
H524 H 0.79129 0.13569 0.1865 0.0
H525 H 0.81635 0.20402 0.166 0.0
H526 H 0.89281 0.18646 0.13257 0.0
H527 H 0.87829 0.19842 0.14603 0.0
C528 C 0.84808 0.62972 0.19327 0.0
C529 C 0.81816 0.60686 0.19506 0.0
C530 C 0.855 0.64565 0.18566 0.0
C531 C 0.81967 0.66681 0.16875 0.0
H532 H 0.89299 0.68645 0.15636 0.0
C533 C 0.84254 0.71652 0.13515 0.0
C534 C 0.8724 0.73875 0.13305 0.0
C535 C 0.83622 0.70148 0.14288 0.0
C536 C 0.87264 0.68151 0.1598 0.0
H537 H 0.77218 0.58232 0.19017 0.0
H538 H 0.78435 0.61001 0.17686 0.0
H539 H 0.8813 0.65704 0.16935 0.0
H540 H 0.91891 0.76319 0.13754 0.0
H541 H 0.90776 0.73713 0.15111 0.0
H542 H 0.811 0.69127 0.15922 0.0
C543 C 0.80236 0.61585 0.1814 0.0
C544 C 0.86591 0.66459 0.16723 0.0
C545 C 0.79544 0.59985 0.189 0.0
C546 C 0.89569 0.74611 0.13895 0.0
C547 C 0.88934 0.73103 0.1467 0.0
C548 C 0.82642 0.68376 0.16133 0.0
C549 C 0.83216 0.63912 0.17969 0.0
C550 C 0.83929 0.65697 0.17177 0.0
C551 C 0.85958 0.70833 0.14871 0.0
C552 C 0.85293 0.69122 0.15676 0.0
H553 H 0.86613 0.6357 0.1978 0.0
H554 H 0.87812 0.66362 0.18456 0.0
H555 H 0.79927 0.66176 0.17219 0.0
H556 H 0.82405 0.71027 0.13075 0.0
H557 H 0.81311 0.68388 0.1442 0.0
C558 C 0.13076 0.29163 0.36121 0.0
C559 C 0.13908 0.26986 0.36326 0.0
C560 C 0.13977 0.30731 0.35358 0.0
C561 C 0.16624 0.30421 0.33221 0.0
H562 H 0.1959 0.39091 0.33232 0.0
C563 C 0.21915 0.37826 0.30273 0.0
C564 C 0.2102 0.39969 0.30086 0.0
C565 C 0.2117 0.36314 0.31047 0.0
C566 C 0.1874 0.36667 0.33217 0.0
H567 H 0.16294 0.24713 0.35884 0.0
H568 H 0.17878 0.27467 0.34549 0.0
H569 H 0.17991 0.36244 0.3455 0.0
H570 H 0.187 0.42253 0.30572 0.0
H571 H 0.17377 0.39591 0.31921 0.0
H572 H 0.17355 0.30839 0.31888 0.0
C573 C 0.16512 0.27942 0.34979 0.0
C574 C 0.17824 0.35036 0.33972 0.0
C575 C 0.15614 0.26373 0.35744 0.0
C576 C 0.19427 0.40619 0.30697 0.0
C577 C 0.1868 0.39102 0.31472 0.0
C578 C 0.17537 0.32052 0.32466 0.0
C579 C 0.15726 0.30159 0.34781 0.0
C580 C 0.16744 0.31893 0.33981 0.0
C581 C 0.19514 0.36908 0.31651 0.0
C582 C 0.18599 0.35192 0.32456 0.0
H583 H 0.11749 0.29681 0.36554 0.0
H584 H 0.13291 0.32388 0.35218 0.0
H585 H 0.15766 0.27995 0.33206 0.0
H586 H 0.23161 0.37284 0.29818 0.0
H587 H 0.21891 0.34675 0.31171 0.0
C588 C 0.74111 0.87793 0.35307 0.0
C589 C 0.73266 0.85486 0.35911 0.0
C590 C 0.72501 0.87213 0.34551 0.0
C591 C 0.65037 0.81965 0.33615 0.0
H592 H 0.69189 0.85213 0.31493 0.0
C593 C 0.58945 0.78347 0.30395 0.0
C594 C 0.5977 0.80614 0.29779 0.0
C595 C 0.60553 0.78987 0.31152 0.0
C596 C 0.67994 0.84321 0.32082 0.0
H597 H 0.70118 0.80738 0.36186 0.0
H598 H 0.6734 0.79724 0.34865 0.0
H599 H 0.72137 0.86222 0.32785 0.0
H600 H 0.62883 0.85353 0.29485 0.0
H601 H 0.65659 0.86473 0.3081 0.0
H602 H 0.60895 0.8006 0.32911 0.0
C603 C 0.69212 0.81994 0.34981 0.0
C604 C 0.69683 0.84897 0.32822 0.0
C605 C 0.7082 0.82572 0.35736 0.0
C606 C 0.62195 0.8355 0.29944 0.0
C607 C 0.63801 0.84189 0.30701 0.0
C608 C 0.63348 0.81389 0.32875 0.0
C609 C 0.70013 0.84314 0.34384 0.0
C610 C 0.68224 0.83718 0.33596 0.0
C611 C 0.63019 0.81907 0.3131 0.0
C612 C 0.64807 0.82556 0.321 0.0
H613 H 0.75981 0.90064 0.35423 0.0
H614 H 0.73158 0.89055 0.34106 0.0
H615 H 0.63841 0.81068 0.34204 0.0
H616 H 0.57093 0.7606 0.30286 0.0
H617 H 0.59911 0.77172 0.31606 0.0
C618 C 0.13127 0.88647 0.35963 0.0
C619 C 0.15056 0.89063 0.36646 0.0
C620 C 0.1372 0.87877 0.35167 0.0
C621 C 0.14443 0.84188 0.33762 0.0
H622 H 0.22602 0.88157 0.3284 0.0
C623 C 0.17641 0.7953 0.30862 0.0
C624 C 0.19364 0.81663 0.30237 0.0
C625 C 0.17199 0.80492 0.31648 0.0
C626 C 0.2031 0.87037 0.33088 0.0
H627 H 0.19166 0.8908 0.37025 0.0
H628 H 0.20202 0.87752 0.35637 0.0
H629 H 0.21651 0.89859 0.34187 0.0
H630 H 0.2204 0.86476 0.29954 0.0
H631 H 0.21281 0.88148 0.31327 0.0
H632 H 0.131 0.81371 0.32662 0.0
C633 C 0.18236 0.88026 0.35716 0.0
C634 C 0.19771 0.87997 0.33861 0.0
C635 C 0.17632 0.88771 0.36512 0.0
C636 C 0.20699 0.84775 0.30422 0.0
C637 C 0.20276 0.85735 0.31209 0.0
C638 C 0.14987 0.83213 0.32992 0.0
C639 C 0.16269 0.87535 0.35038 0.0
C640 C 0.16831 0.86581 0.34206 0.0
C641 C 0.18491 0.83604 0.31826 0.0
C642 C 0.17927 0.84625 0.32648 0.0
H643 H 0.11125 0.88856 0.36045 0.0
H644 H 0.12182 0.87543 0.34653 0.0
H645 H 0.12161 0.83034 0.34016 0.0
H646 H 0.16581 0.77116 0.30739 0.0
H647 H 0.15843 0.78799 0.32115 0.0
C648 C 0.59187 0.80012 0.80855 0.0
C649 C 0.59605 0.78197 0.80263 0.0
C650 C 0.6081 0.80821 0.81611 0.0
C651 C 0.65109 0.78796 0.83077 0.0
H652 H 0.6899 0.87304 0.83699 0.0
C653 C 0.73259 0.83675 0.85929 0.0
C654 C 0.72912 0.85744 0.86438 0.0
C655 C 0.7177 0.82759 0.85152 0.0
C656 C 0.67898 0.84915 0.8354 0.0
H657 H 0.61963 0.75707 0.80016 0.0
H658 H 0.6478 0.77109 0.81341 0.0
H659 H 0.65966 0.85567 0.82417 0.0
H660 H 0.70755 0.88497 0.86525 0.0
H661 H 0.68137 0.86869 0.85185 0.0
H662 H 0.66999 0.78133 0.84208 0.0
C663 C 0.632 0.77906 0.81217 0.0
C664 C 0.66165 0.83922 0.82805 0.0
C665 C 0.61594 0.77114 0.80458 0.0
C666 C 0.71086 0.8691 0.86148 0.0
C667 C 0.69595 0.85988 0.85376 0.0
C668 C 0.66828 0.79787 0.83817 0.0
C669 C 0.62866 0.79815 0.81794 0.0
C670 C 0.64734 0.8085 0.82569 0.0
C671 C 0.69903 0.83891 0.84869 0.0
C672 C 0.68221 0.82855 0.8406 0.0
H673 H 0.57667 0.80877 0.80726 0.0
H674 H 0.60475 0.82259 0.8205 0.0
H675 H 0.64016 0.76412 0.82912 0.0
H676 H 0.74656 0.82741 0.86134 0.0
H677 H 0.72086 0.81169 0.84772 0.0
C678 C 0.10794 0.87207 0.85785 0.0
C679 C 0.10062 0.8501 0.86417 0.0
C680 C 0.11624 0.86769 0.84979 0.0
C681 C 0.15324 0.86084 0.83567 0.0
H682 H 0.10972 0.78254 0.82455 0.0
C683 C 0.2003 0.83019 0.8064 0.0
C684 C 0.17965 0.81529 0.79981 0.0
C685 C 0.1901 0.83447 0.81419 0.0
C686 C 0.12201 0.80458 0.82756 0.0
H687 H 0.09539 0.8059 0.86692 0.0
H688 H 0.1097 0.79825 0.85288 0.0
H689 H 0.09162 0.79007 0.83809 0.0
H690 H 0.1321 0.79297 0.79624 0.0
H691 H 0.11439 0.80036 0.80982 0.0
H692 H 0.18362 0.87535 0.82512 0.0
C693 C 0.10898 0.81882 0.85414 0.0
C694 C 0.11178 0.80882 0.83533 0.0
C695 C 0.10092 0.82329 0.86219 0.0
C696 C 0.14861 0.80451 0.80119 0.0
C697 C 0.13841 0.80861 0.80898 0.0
C698 C 0.16361 0.85654 0.82792 0.0
C699 C 0.11711 0.84113 0.84788 0.0
C700 C 0.12732 0.83697 0.83948 0.0
C701 C 0.15904 0.82374 0.81555 0.0
C702 C 0.14812 0.82835 0.82379 0.0
H703 H 0.10795 0.89298 0.85917 0.0
H704 H 0.12209 0.88512 0.84506 0.0
H705 H 0.16586 0.88269 0.83876 0.0
H706 H 0.22437 0.83878 0.80553 0.0
H707 H 0.20648 0.84594 0.81917 0.0
C708 C 0.12092 0.2573 0.85408 0.0
C709 C 0.14449 0.26496 0.8599 0.0
C710 C 0.12638 0.27362 0.84657 0.0
C711 C 0.18792 0.32552 0.83222 0.0
H712 H 0.12919 0.34825 0.82493 0.0
C713 C 0.21295 0.40945 0.80488 0.0
C714 C 0.18966 0.40115 0.79893 0.0
C715 C 0.20724 0.39367 0.8125 0.0
C716 C 0.14568 0.34186 0.82685 0.0
H717 H 0.19245 0.29537 0.86232 0.0
H718 H 0.20186 0.32389 0.84927 0.0
H719 H 0.11956 0.31789 0.83767 0.0
H720 H 0.14185 0.37039 0.79641 0.0
H721 H 0.13197 0.34286 0.80967 0.0
H722 H 0.21404 0.34949 0.8214 0.0
C723 C 0.17922 0.30512 0.85046 0.0
C724 C 0.14013 0.3244 0.83413 0.0
C725 C 0.17377 0.28884 0.85796 0.0
C726 C 0.16032 0.37738 0.80086 0.0
C727 C 0.1546 0.36166 0.80848 0.0
C728 C 0.19348 0.343 0.82494 0.0
C729 C 0.15554 0.2979 0.84472 0.0
C730 C 0.16119 0.31603 0.8369 0.0
C731 C 0.1781 0.36934 0.81433 0.0
C732 C 0.17243 0.35136 0.82217 0.0
H733 H 0.09812 0.23898 0.85537 0.0
H734 H 0.10776 0.26721 0.84221 0.0
H735 H 0.20439 0.31908 0.83411 0.0
H736 H 0.23578 0.42772 0.8036 0.0
H737 H 0.2257 0.40043 0.81694 0.0
C738 C 0.80759 0.59501 0.69115 0.0
C739 C 0.79415 0.60422 0.69735 0.0
C740 C 0.8167 0.61036 0.68344 0.0
C741 C 0.8378 0.68419 0.67369 0.0
H742 H 0.82411 0.64033 0.65267 0.0
C743 C 0.85779 0.74207 0.6411 0.0
C744 C 0.871 0.73288 0.63482 0.0
C745 C 0.84903 0.72672 0.6488 0.0
C746 C 0.82842 0.65293 0.6585 0.0
H747 H 0.77906 0.63633 0.70024 0.0
H748 H 0.79466 0.66281 0.6868 0.0
H749 H 0.80701 0.61225 0.66589 0.0
H750 H 0.88605 0.70085 0.63179 0.0
H751 H 0.87108 0.67439 0.64525 0.0
H752 H 0.8592 0.72487 0.66631 0.0
C753 C 0.79862 0.64406 0.68794 0.0
C754 C 0.81861 0.63683 0.66607 0.0
C755 C 0.7895 0.62872 0.69562 0.0
C756 C 0.87579 0.70843 0.63648 0.0
C757 C 0.86703 0.6931 0.64417 0.0
C758 C 0.84762 0.70029 0.66613 0.0
C759 C 0.81258 0.63525 0.68179 0.0
C760 C 0.82313 0.65228 0.67374 0.0
C761 C 0.85329 0.70188 0.65039 0.0
C762 C 0.84303 0.68484 0.65844 0.0
H763 H 0.81152 0.57625 0.69228 0.0
H764 H 0.8276 0.60318 0.67885 0.0
H765 H 0.84207 0.69679 0.67952 0.0
H766 H 0.85375 0.76078 0.64001 0.0
H767 H 0.83827 0.73387 0.65345 0.0
C768 C 0.40596 0.21115 0.69044 0.0
C769 C 0.39765 0.18869 0.69666 0.0
C770 C 0.39035 0.20434 0.68278 0.0
C771 C 0.31682 0.14977 0.67322 0.0
H772 H 0.35927 0.1834 0.65218 0.0
C773 C 0.25803 0.11481 0.64062 0.0
C774 C 0.26631 0.13805 0.63465 0.0
C775 C 0.27358 0.12069 0.64828 0.0
C776 C 0.34705 0.1741 0.65802 0.0
H777 H 0.36697 0.14122 0.69963 0.0
H778 H 0.34007 0.12929 0.68622 0.0
H779 H 0.38809 0.1938 0.66523 0.0
H780 H 0.29686 0.18593 0.63213 0.0
H781 H 0.3237 0.19619 0.64549 0.0
H782 H 0.27578 0.13006 0.66599 0.0
C783 C 0.3583 0.15229 0.68732 0.0
C784 C 0.36357 0.18004 0.66549 0.0
C785 C 0.37387 0.1591 0.69498 0.0
C786 C 0.28999 0.16745 0.63657 0.0
C787 C 0.30553 0.17331 0.64421 0.0
C788 C 0.3003 0.14379 0.66574 0.0
C789 C 0.36612 0.17491 0.68117 0.0
C790 C 0.34865 0.16803 0.67319 0.0
C791 C 0.29776 0.14993 0.65011 0.0
C792 C 0.31523 0.156 0.65806 0.0
H793 H 0.42412 0.23418 0.69154 0.0
H794 H 0.39676 0.22236 0.6782 0.0
H795 H 0.30459 0.14056 0.67906 0.0
H796 H 0.23992 0.09191 0.63933 0.0
H797 H 0.2672 0.10216 0.65268 0.0
C798 C 0.80429 0.16447 0.6964 0.0
C799 C 0.81136 0.19385 0.69885 0.0
C800 C 0.80963 0.15875 0.68815 0.0
C801 C 0.85589 0.19673 0.66944 0.0
H802 H 0.79672 0.12376 0.65784 0.0
C803 C 0.86588 0.17607 0.63411 0.0
C804 C 0.85808 0.1465 0.63164 0.0
C805 C 0.86057 0.18192 0.64235 0.0
C806 C 0.81364 0.14405 0.66103 0.0
H807 H 0.82933 0.24025 0.69455 0.0
H808 H 0.83851 0.23019 0.68012 0.0
H809 H 0.78609 0.13393 0.67209 0.0
H810 H 0.839 0.09993 0.63592 0.0
H811 H 0.83006 0.11023 0.65033 0.0
H812 H 0.88349 0.20682 0.6584 0.0
C813 C 0.8291 0.21165 0.68461 0.0
C814 C 0.80752 0.1499 0.66919 0.0
C815 C 0.82365 0.21736 0.69286 0.0
C816 C 0.8452 0.12296 0.63762 0.0
C817 C 0.83989 0.12882 0.64586 0.0
C818 C 0.86204 0.19086 0.66129 0.0
C819 C 0.82226 0.1823 0.68218 0.0
C820 C 0.82858 0.17629 0.67348 0.0
C821 C 0.84734 0.15833 0.6483 0.0
C822 C 0.84098 0.16445 0.657 0.0
H823 H 0.79483 0.14585 0.70087 0.0
H824 H 0.80443 0.13597 0.6865 0.0
H825 H 0.87278 0.21703 0.67264 0.0
H826 H 0.87577 0.19471 0.62966 0.0
H827 H 0.86625 0.20484 0.644 0.0
C828 C 0.06306 0.54905 0.52553 0.0
C829 C 0.05123 0.52668 0.53185 0.0
C830 C 0.05164 0.54221 0.51732 0.0
C831 C 0.00772 0.47812 0.50276 0.0
H832 H 0.993 0.53641 0.49099 0.0
C833 C 0.9402 0.44943 0.47163 0.0
C834 C 0.95213 0.47164 0.46527 0.0
C835 C 0.95231 0.45615 0.47977 0.0
C836 C 0.99726 0.52004 0.49417 0.0
H837 H 0.01844 0.47948 0.53448 0.0
H838 H 0.99834 0.46767 0.5202 0.0
H839 H 0.01486 0.54811 0.50511 0.0
H840 H 0.98593 0.51837 0.46247 0.0
H841 H 0.00709 0.53 0.47665 0.0
H842 H 0.98995 0.45 0.49182 0.0
C843 C 0.01668 0.4904 0.52156 0.0
C844 C 0.00984 0.52676 0.50224 0.0
C845 C 0.0281 0.49722 0.52976 0.0
C846 C 0.97618 0.50076 0.46723 0.0
C847 C 0.98822 0.50749 0.47537 0.0
C848 C 0.99509 0.47139 0.49469 0.0
C849 C 0.02815 0.51287 0.51526 0.0
C850 C 0.01521 0.50588 0.50663 0.0
C851 C 0.97652 0.48522 0.48171 0.0
C852 C 0.98972 0.49227 0.49031 0.0
H853 H 0.08096 0.57194 0.52693 0.0
H854 H 0.06127 0.55991 0.51259 0.0
H855 H 0.01198 0.46174 0.50593 0.0
H856 H 0.92164 0.42678 0.47032 0.0
H857 H 0.94258 0.43863 0.48455 0.0
C858 C 0.45249 0.51308 0.52576 0.0
C859 C 0.4762 0.52477 0.53169 0.0
C860 C 0.45763 0.50735 0.51749 0.0
C861 C 0.51863 0.52647 0.50192 0.0
H862 H 0.45906 0.45143 0.49124 0.0
C863 C 0.54235 0.48555 0.47043 0.0
C864 C 0.51884 0.47393 0.46444 0.0
C865 C 0.537 0.4914 0.47867 0.0
C866 C 0.47577 0.47261 0.4941 0.0
H867 H 0.52397 0.53996 0.53356 0.0
H868 H 0.53284 0.52975 0.51916 0.0
H869 H 0.44995 0.46314 0.50548 0.0
H870 H 0.47118 0.45894 0.46243 0.0
H871 H 0.46193 0.46932 0.47679 0.0
H872 H 0.54447 0.53592 0.49055 0.0
C873 C 0.51036 0.52531 0.52087 0.0
C874 C 0.47052 0.47935 0.50225 0.0
C875 C 0.50523 0.53102 0.52914 0.0
C876 C 0.48978 0.46784 0.4669 0.0
C877 C 0.48442 0.47365 0.47514 0.0
C878 C 0.52388 0.51973 0.49377 0.0
C879 C 0.48658 0.51323 0.51497 0.0
C880 C 0.49191 0.50633 0.50625 0.0
C881 C 0.50802 0.4857 0.4811 0.0
C882 C 0.50252 0.49271 0.48978 0.0
H883 H 0.42988 0.50808 0.52752 0.0
H884 H 0.43894 0.49842 0.51305 0.0
H885 H 0.53535 0.54765 0.50478 0.0
H886 H 0.56499 0.49043 0.46874 0.0
H887 H 0.55555 0.50029 0.48315 0.0
C888 C 0.53658 0.07181 0.47059 0.0
C889 C 0.51396 0.06184 0.46436 0.0
C890 C 0.53076 0.0566 0.4783 0.0
C891 C 0.47994 0.9822 0.4881 0.0
H892 H 0.51189 0.02647 0.50898 0.0
C893 C 0.44858 0.92482 0.52095 0.0
C894 C 0.47209 0.93482 0.52692 0.0
C895 C 0.45345 0.93974 0.51321 0.0
C896 C 0.50309 0.01377 0.50319 0.0
H897 H 0.46719 0.02854 0.46143 0.0
H898 H 0.45694 0.00232 0.47493 0.0
H899 H 0.52024 0.05433 0.49582 0.0
H900 H 0.51944 0.96776 0.52932 0.0
H901 H 0.52793 0.99352 0.51581 0.0
H902 H 0.46274 0.94163 0.49548 0.0
C903 C 0.47935 0.02157 0.4738 0.0
C904 C 0.50786 0.02974 0.49565 0.0
C905 C 0.48517 0.03675 0.46608 0.0
C906 C 0.50077 0.95955 0.52489 0.0
C907 C 0.5056 0.97447 0.51717 0.0
C908 C 0.47511 0.96622 0.49564 0.0
C909 C 0.50218 0.0311 0.47996 0.0
C910 C 0.49644 0.01415 0.48801 0.0
C911 C 0.48191 0.96499 0.51129 0.0
C912 C 0.48676 0.98184 0.50326 0.0
H913 H 0.55903 0.091 0.46946 0.0
H914 H 0.54895 0.06434 0.48287 0.0
H915 H 0.47124 0.96948 0.4823 0.0
H916 H 0.42622 0.90586 0.52232 0.0
H917 H 0.43468 0.93201 0.50884 0.0
C918 C 0.4696 0.96122 0.03177 0.0
C919 C 0.45982 0.93005 0.03229 0.0
C920 C 0.48014 0.97682 0.02417 0.0
C921 C 0.47807 0.96542 0.00117 0.0
H922 H 0.54716 0.04734 0.00137 0.0
C923 C 0.53379 0.03102 0.9706 0.0
C924 C 0.54061 0.06144 0.97024 0.0
C925 C 0.52515 0.01498 0.97819 0.0
C926 C 0.52769 0.02459 0.00123 0.0
H927 H 0.45341 0.89079 0.0252 0.0
H928 H 0.47219 0.9182 0.0119 0.0
H929 H 0.52972 0.01888 0.01452 0.0
H930 H 0.54429 0.09904 0.97763 0.0
H931 H 0.52916 0.07094 0.9909 0.0
H932 H 0.4761 0.97117 0.98787 0.0
C933 C 0.47134 0.93046 0.01738 0.0
C934 C 0.51767 0.00827 0.00876 0.0
C935 C 0.4607 0.91478 0.02501 0.0
C936 C 0.5392 0.07565 0.97769 0.0
C937 C 0.53066 0.0596 0.9853 0.0
C938 C 0.48817 0.98171 0.99364 0.0
C939 C 0.48127 0.9617 0.01689 0.0
C940 C 0.49261 0.97856 0.00883 0.0
C941 C 0.52324 0.02899 0.9856 0.0
C942 C 0.51298 0.01153 0.99359 0.0
H943 H 0.46906 0.97368 0.03724 0.0
H944 H 0.48706 0.00072 0.02398 0.0
H945 H 0.45844 0.94277 0.00102 0.0
H946 H 0.53474 0.01939 0.96499 0.0
H947 H 0.52 0.99157 0.97825 0.0
C948 C 0.93903 0.48573 0.96988 0.0
C949 C 0.95059 0.47454 0.96368 0.0
C950 C 0.95098 0.49145 0.97804 0.0
C951 C 0.99477 0.47239 0.99287 0.0
H952 H 0.01036 0.54664 0.00407 0.0
C953 C 0.05965 0.51096 0.0244 0.0
C954 C 0.04791 0.52235 0.0305 0.0
C955 C 0.04844 0.50569 0.01616 0.0
C956 C 0.00586 0.52566 0.00106 0.0
H957 H 0.98355 0.46027 0.96118 0.0
H958 H 0.00446 0.47038 0.9754 0.0
H959 H 0.98883 0.53568 0.98991 0.0
H960 H 0.01541 0.53743 0.03272 0.0
H961 H 0.99571 0.52797 0.01839 0.0
H962 H 0.01167 0.4623 0.00403 0.0
C963 C 0.98599 0.47449 0.97398 0.0
C964 C 0.99351 0.51938 0.99295 0.0
C965 C 0.9741 0.46884 0.96582 0.0
C966 C 0.02501 0.52871 0.02817 0.0
C967 C 0.01382 0.52345 0.01994 0.0
C968 C 0.00709 0.47866 0.00098 0.0
C969 C 0.97469 0.48602 0.98016 0.0
C970 C 0.98778 0.49265 0.98878 0.0
C971 C 0.02527 0.51171 0.01385 0.0
C972 C 0.01273 0.50534 0.00517 0.0
H973 H 0.92088 0.49032 0.96844 0.0
H974 H 0.94152 0.49995 0.9827 0.0
H975 H 0.99025 0.45142 0.98986 0.0
H976 H 0.07735 0.50589 0.02599 0.0
H977 H 0.05803 0.49703 0.01159 0.0
C978 C 0.54344 0.47341 0.97658 0.0
C979 C 0.52066 0.46011 0.97041 0.0
C980 C 0.53753 0.48284 0.98427 0.0
C981 C 0.48578 0.50505 0.99409 0.0
H982 H 0.5166 0.49163 0.01503 0.0
C983 C 0.45007 0.52658 0.02682 0.0
C984 C 0.47273 0.53959 0.03303 0.0
C985 C 0.45617 0.51766 0.01907 0.0
C986 C 0.50814 0.49587 0.00923 0.0
H987 H 0.4736 0.44564 0.96755 0.0
H988 H 0.46326 0.46176 0.98099 0.0
H989 H 0.52654 0.47372 0.00182 0.0
H990 H 0.51984 0.55427 0.03588 0.0
H991 H 0.53051 0.53903 0.02235 0.0
H992 H 0.46735 0.52717 0.00151 0.0
C993 C 0.48582 0.46536 0.97984 0.0
C994 C 0.51382 0.48559 0.00166 0.0
C995 C 0.49171 0.45593 0.97215 0.0
C996 C 0.5018 0.54414 0.03126 0.0
C997 C 0.50789 0.53523 0.02352 0.0
C998 C 0.4801 0.51533 0.00166 0.0
C999 C 0.50873 0.47916 0.98595 0.0
C1000 C 0.50268 0.49004 0.99401 0.0
C1001 C 0.48506 0.52157 0.01738 0.0
C1002 C 0.49122 0.51087 0.00931 0.0
H1003 H 0.566 0.47702 0.97543 0.0
H1004 H 0.55574 0.49365 0.98883 0.0
H1005 H 0.4773 0.50926 0.98828 0.0
H1006 H 0.42743 0.52272 0.028 0.0
H1007 H 0.43803 0.50697 0.0145 0.0
C1008 C 0.35972 0.11906 0.10384 0.0
C1009 C 0.33592 0.11921 0.09936 0.0
C1010 C 0.37807 0.10938 0.09996 0.0
C1011 C 0.40083 0.09255 0.07947 0.0
H1012 H 0.40174 0.02667 0.09156 0.0
C1013 C 0.41386 0.00034 0.06264 0.0
C1014 C 0.42812 0.98625 0.0667 0.0
C1015 C 0.40968 0.02211 0.0668 0.0
C1016 C 0.40243 0.04548 0.08816 0.0
H1017 H 0.31407 0.11134 0.08715 0.0
H1018 H 0.34632 0.09471 0.08036 0.0
H1019 H 0.38226 0.05621 0.09845 0.0
H1020 H 0.45029 0.98485 0.07823 0.0
H1021 H 0.44333 0.02337 0.08551 0.0
H1022 H 0.42048 0.08153 0.06912 0.0
C1023 C 0.3507 0.10199 0.08688 0.0
C1024 C 0.39118 0.06238 0.09211 0.0
C1025 C 0.33213 0.11137 0.09078 0.0
C1026 C 0.43905 0.99518 0.07495 0.0
C1027 C 0.43495 0.01714 0.07912 0.0
C1028 C 0.41237 0.07586 0.07554 0.0
C1029 C 0.37324 0.10003 0.0915 0.0
C1030 C 0.38945 0.08549 0.08773 0.0
C1031 C 0.41981 0.03054 0.07513 0.0
C1032 C 0.41239 0.05147 0.07974 0.0
H1033 H 0.36333 0.12506 0.11046 0.0
H1034 H 0.39548 0.10836 0.10364 0.0
H1035 H 0.40013 0.11053 0.07599 0.0
H1036 H 0.40516 0.99405 0.05629 0.0
H1037 H 0.39743 0.03145 0.06357 0.0
C1038 C 0.99082 0.41416 0.0567 0.0
C1039 C 0.0108 0.44065 0.06115 0.0
C1040 C 0.97108 0.38754 0.061 0.0
C1041 C 0.93835 0.35534 0.08195 0.0
H1042 H 0.94342 0.28603 0.07387 0.0
C1043 C 0.91734 0.25494 0.10308 0.0
C1044 C 0.90561 0.22585 0.09954 0.0
C1045 C 0.92291 0.27971 0.09805 0.0
C1046 C 0.94108 0.30485 0.07613 0.0
H1047 H 0.02437 0.46053 0.0736 0.0
H1048 H 0.99008 0.41385 0.08113 0.0
H1049 H 0.96626 0.33263 0.06571 0.0
H1050 H 0.88873 0.1996 0.08804 0.0
H1051 H 0.89811 0.2429 0.07925 0.0
H1052 H 0.91383 0.32765 0.09251 0.0
C1053 C 0.98955 0.41375 0.07431 0.0
C1054 C 0.95426 0.33166 0.07144 0.0
C1055 C 0.00931 0.44046 0.06999 0.0
C1056 C 0.89803 0.22177 0.09094 0.0
C1057 C 0.90354 0.24661 0.0859 0.0
C1058 C 0.92502 0.32842 0.08664 0.0
C1059 C 0.97089 0.38677 0.06985 0.0
C1060 C 0.95362 0.35742 0.07439 0.0
C1061 C 0.91677 0.276 0.08936 0.0
C1062 C 0.92687 0.30308 0.08387 0.0
H1063 H 0.99111 0.41364 0.04987 0.0
H1064 H 0.95657 0.36727 0.05739 0.0
H1065 H 0.93714 0.37469 0.08432 0.0
H1066 H 0.92332 0.25889 0.10969 0.0
H1067 H 0.93344 0.30202 0.10092 0.0
C1068 C 0.56027 0.59353 0.08349 0.0
C1069 C 0.54565 0.57408 0.07665 0.0
C1070 C 0.58974 0.60093 0.08575 0.0
C1071 C 0.65801 0.60994 0.07564 0.0
H1072 H 0.69051 0.62875 0.09833 0.0
C1073 C 0.77987 0.67185 0.09492 0.0
C1074 C 0.79442 0.69943 0.09044 0.0
C1075 C 0.75021 0.64959 0.09289 0.0
C1076 C 0.68181 0.62313 0.09196 0.0
H1077 H 0.54954 0.54511 0.06727 0.0
H1078 H 0.60093 0.55801 0.07124 0.0
H1079 H 0.63565 0.60072 0.09622 0.0
H1080 H 0.79012 0.72423 0.07991 0.0
H1081 H 0.73846 0.68543 0.07637 0.0
H1082 H 0.70416 0.63319 0.07138 0.0
C1083 C 0.58976 0.5679 0.07476 0.0
C1084 C 0.65038 0.60734 0.09075 0.0
C1085 C 0.56026 0.56042 0.07252 0.0
C1086 C 0.77952 0.70332 0.08351 0.0
C1087 C 0.74994 0.68099 0.08145 0.0
C1088 C 0.68943 0.62586 0.07685 0.0
C1089 C 0.60519 0.58903 0.0812 0.0
C1090 C 0.63816 0.60129 0.08258 0.0
C1091 C 0.73461 0.65434 0.0863 0.0
C1092 C 0.70165 0.63334 0.08501 0.0
H1093 H 0.54962 0.60434 0.08683 0.0
H1094 H 0.60106 0.61742 0.09071 0.0
H1095 H 0.64933 0.60587 0.06926 0.0
H1096 H 0.79077 0.66802 0.10027 0.0
H1097 H 0.73911 0.62908 0.09666 0.0
C1098 C 0.99341 0.43461 0.42829 0.0
C1099 C 0.97696 0.41578 0.43508 0.0
C1100 C 0.01503 0.43015 0.42406 0.0
C1101 C 0.05605 0.38591 0.42519 0.0
H1102 H 0.05295 0.38918 0.40085 0.0
C1103 C 0.1057 0.32835 0.40432 0.0
C1104 C 0.08728 0.3119 0.39747 0.0
C1105 C 0.10014 0.34902 0.40869 0.0
C1106 C 0.05403 0.38802 0.40764 0.0
H1107 H 0.97085 0.37807 0.44289 0.0
H1108 H 0.00715 0.36948 0.43537 0.0
H1109 H 0.02832 0.41033 0.4093 0.0
H1110 H 0.04897 0.30458 0.38975 0.0
H1111 H 0.03855 0.33924 0.39749 0.0
H1112 H 0.07932 0.3611 0.42353 0.0
C1113 C 0.00436 0.38834 0.43341 0.0
C1114 C 0.0403 0.40068 0.41252 0.0
C1115 C 0.98317 0.39306 0.43769 0.0
C1116 C 0.06369 0.31696 0.39498 0.0
C1117 C 0.05791 0.33722 0.39939 0.0
C1118 C 0.06925 0.37271 0.42032 0.0
C1119 C 0.02033 0.40651 0.42646 0.0
C1120 C 0.04006 0.3987 0.42136 0.0
C1121 C 0.07585 0.35337 0.40635 0.0
C1122 C 0.06732 0.37251 0.41148 0.0
H1123 H 0.98931 0.45252 0.42619 0.0
H1124 H 0.02721 0.44491 0.41882 0.0
H1125 H 0.05719 0.38481 0.43199 0.0
H1126 H 0.12422 0.3251 0.40633 0.0
H1127 H 0.11468 0.36133 0.41395 0.0
C1128 C 0.57328 0.58277 0.43839 0.0
C1129 C 0.56544 0.55598 0.43391 0.0
C1130 C 0.58086 0.60963 0.43411 0.0
C1131 C 0.58076 0.64222 0.41314 0.0
H1132 H 0.6567 0.70999 0.42102 0.0
C1133 C 0.66323 0.73953 0.39168 0.0
C1134 C 0.68118 0.7688 0.39505 0.0
C1135 C 0.64332 0.71547 0.39681 0.0
C1136 C 0.63513 0.69161 0.41882 0.0
H1137 H 0.55754 0.53587 0.42146 0.0
H1138 H 0.57122 0.58291 0.41397 0.0
H1139 H 0.63155 0.66373 0.42932 0.0
H1140 H 0.69107 0.79617 0.40634 0.0
H1141 H 0.65605 0.75404 0.41533 0.0
H1142 H 0.58502 0.66992 0.40247 0.0
C1143 C 0.57124 0.58311 0.42079 0.0
C1144 C 0.62068 0.665 0.42359 0.0
C1145 C 0.56355 0.55616 0.42508 0.0
C1146 C 0.6777 0.77382 0.40358 0.0
C1147 C 0.65774 0.74968 0.40873 0.0
C1148 C 0.59521 0.6689 0.40837 0.0
C1149 C 0.58086 0.61033 0.42526 0.0
C1150 C 0.59372 0.63974 0.42071 0.0
C1151 C 0.64084 0.72009 0.40544 0.0
C1152 C 0.62297 0.69362 0.41105 0.0
H1153 H 0.57457 0.5833 0.44521 0.0
H1154 H 0.5876 0.63009 0.43773 0.0
H1155 H 0.55977 0.6233 0.41082 0.0
H1156 H 0.66522 0.73489 0.38512 0.0
H1157 H 0.63096 0.69296 0.39409 0.0
C1158 C 0.43656 0.00101 0.42067 0.0
C1159 C 0.44749 0.99452 0.42805 0.0
C1160 C 0.40906 0.97925 0.41712 0.0
C1161 C 0.33655 0.9155 0.42378 0.0
H1162 H 0.31891 0.90975 0.39986 0.0
C1163 C 0.22165 0.88996 0.41034 0.0
C1164 C 0.21158 0.8744 0.40264 0.0
C1165 C 0.24944 0.89609 0.41376 0.0
C1166 C 0.32344 0.91054 0.40655 0.0
H1167 H 0.43913 0.95936 0.43718 0.0
H1168 H 0.39107 0.92133 0.43096 0.0
H1169 H 0.37152 0.93637 0.40463 0.0
H1170 H 0.22173 0.85106 0.39283 0.0
H1171 H 0.27029 0.86178 0.39884 0.0
H1172 H 0.28844 0.89046 0.42571 0.0
C1173 C 0.40365 0.94341 0.42799 0.0
C1174 C 0.35359 0.92608 0.40928 0.0
C1175 C 0.43126 0.96516 0.43152 0.0
C1176 C 0.22892 0.86329 0.39874 0.0
C1177 C 0.25682 0.86955 0.40215 0.0
C1178 C 0.30639 0.90002 0.42105 0.0
C1179 C 0.39184 0.95052 0.42089 0.0
C1180 C 0.36044 0.92956 0.41793 0.0
C1181 C 0.2678 0.88684 0.40956 0.0
C1182 C 0.29949 0.89821 0.41242 0.0
H1183 H 0.44856 0.02336 0.41782 0.0
H1184 H 0.4005 0.98557 0.4117 0.0
H1185 H 0.34103 0.91792 0.43049 0.0
H1186 H 0.20877 0.8987 0.41353 0.0
H1187 H 0.25732 0.90967 0.41944 0.0
C1188 C 0.66902 0.92841 0.88892 0.0
C1189 C 0.68186 0.91575 0.89425 0.0
C1190 C 0.64973 0.93801 0.89213 0.0
C1191 C 0.60147 0.93305 0.90998 0.0
H1192 H 0.62521 0.01561 0.90355 0.0
C1193 C 0.56249 0.00656 0.92786 0.0
C1194 C 0.56035 0.02942 0.92345 0.0
C1195 C 0.57205 0.98848 0.92376 0.0
C1196 C 0.6177 0.9923 0.90528 0.0
H1197 H 0.68318 0.90172 0.90708 0.0
H1198 H 0.6492 0.91865 0.91273 0.0
H1199 H 0.65169 0.99145 0.89757 0.0
H1200 H 0.56408 0.04951 0.91114 0.0
H1201 H 0.5797 0.01725 0.90392 0.0
H1202 H 0.56742 0.93396 0.91772 0.0
C1203 C 0.65421 0.92105 0.90604 0.0
C1204 C 0.63306 0.97851 0.90188 0.0
C1205 C 0.67373 0.91149 0.90282 0.0
C1206 C 0.56587 0.03235 0.91473 0.0
C1207 C 0.57506 0.014 0.91061 0.0
C1208 C 0.58581 0.94678 0.91334 0.0
C1209 C 0.64268 0.93511 0.90075 0.0
C1210 C 0.62528 0.94886 0.90423 0.0
C1211 C 0.57935 0.9926 0.91514 0.0
C1212 C 0.59393 0.97671 0.91108 0.0
H1213 H 0.67448 0.93171 0.88226 0.0
H1214 H 0.64077 0.94831 0.88788 0.0
H1215 H 0.59488 0.91007 0.91184 0.0
H1216 H 0.5584 0.00367 0.93459 0.0
H1217 H 0.57528 0.97246 0.92748 0.0
C1218 C 0.99011 0.55025 0.92492 0.0
C1219 C 0.98131 0.55319 0.9331 0.0
C1220 C 0.01224 0.57579 0.92059 0.0
C1221 C 0.0708 0.65772 0.92348 0.0
H1222 H 0.04897 0.66541 0.90057 0.0
C1223 C 0.09965 0.7708 0.90777 0.0
C1224 C 0.10646 0.77465 0.89912 0.0
C1225 C 0.09242 0.74353 0.91178 0.0
C1226 C 0.0558 0.66344 0.9069 0.0
H1227 H 0.98977 0.58498 0.94329 0.0
H1228 H 0.02744 0.62921 0.93573 0.0
H1229 H 0.02097 0.61691 0.90782 0.0
H1230 H 0.11292 0.7536 0.88801 0.0
H1231 H 0.0999 0.70583 0.89501 0.0
H1232 H 0.10445 0.70493 0.92268 0.0
C1233 C 0.01784 0.6073 0.93266 0.0
C1234 C 0.03978 0.63558 0.91106 0.0
C1235 C 0.99591 0.58188 0.93698 0.0
C1236 C 0.10765 0.75133 0.89468 0.0
C1237 C 0.10009 0.72392 0.89866 0.0
C1238 C 0.08662 0.68567 0.91934 0.0
C1239 C 0.02593 0.60474 0.92436 0.0
C1240 C 0.04644 0.63263 0.91949 0.0
C1241 C 0.09162 0.71948 0.9072 0.0
C1242 C 0.07869 0.689 0.9111 0.0
H1243 H 0.97942 0.5284 0.92178 0.0
H1244 H 0.01821 0.57295 0.91424 0.0
H1245 H 0.07699 0.65607 0.92991 0.0
H1246 H 0.09869 0.78839 0.91138 0.0
H1247 H 0.08576 0.74067 0.91835 0.0
C1248 C 0.44314 0.43671 0.92513 0.0
C1249 C 0.44407 0.44444 0.93367 0.0
C1250 C 0.41724 0.42867 0.9203 0.0
C1251 C 0.33579 0.39202 0.92307 0.0
H1252 H 0.33605 0.40975 0.89929 0.0
C1253 C 0.22866 0.32488 0.90263 0.0
C1254 C 0.23392 0.31478 0.8949 0.0
C1255 C 0.25295 0.34715 0.9073 0.0
C1256 C 0.33559 0.40454 0.90593 0.0
H1257 H 0.41932 0.45171 0.94369 0.0
H1258 H 0.374 0.43735 0.93525 0.0
H1259 H 0.38235 0.43844 0.90758 0.0
H1260 H 0.26867 0.32084 0.8859 0.0
H1261 H 0.31076 0.35886 0.89408 0.0
H1262 H 0.28968 0.35702 0.92137 0.0
C1263 C 0.39327 0.43739 0.93233 0.0
C1264 C 0.36206 0.42105 0.91067 0.0
C1265 C 0.41928 0.44571 0.93714 0.0
C1266 C 0.26378 0.32805 0.89183 0.0
C1267 C 0.28797 0.35015 0.8965 0.0
C1268 C 0.30939 0.37535 0.91832 0.0
C1269 C 0.3917 0.428 0.92393 0.0
C1270 C 0.36265 0.41435 0.91923 0.0
C1271 C 0.28295 0.3597 0.90434 0.0
C1272 C 0.30925 0.38077 0.90964 0.0
H1273 H 0.46192 0.43568 0.92226 0.0
H1274 H 0.41662 0.42131 0.91386 0.0
H1275 H 0.33564 0.38612 0.92964 0.0
H1276 H 0.20587 0.31523 0.90513 0.0
H1277 H 0.24828 0.35424 0.91328 0.0
C1278 C 0.9151 0.66198 0.60255 0.0
C1279 C 0.90335 0.67934 0.59903 0.0
C1280 C 0.92048 0.64269 0.59751 0.0
C1281 C 0.93878 0.63596 0.57564 0.0
H1282 H 0.93556 0.5626 0.58393 0.0
C1283 C 0.99244 0.57891 0.55678 0.0
C1284 C 0.01242 0.573 0.56145 0.0
C1285 C 0.97174 0.58496 0.56087 0.0
C1286 C 0.93654 0.58302 0.58152 0.0
H1287 H 0.88621 0.68862 0.58756 0.0
H1288 H 0.89536 0.65457 0.57875 0.0
H1289 H 0.91123 0.58561 0.59196 0.0
H1290 H 0.02505 0.56692 0.57405 0.0
H1291 H 0.98912 0.57789 0.5812 0.0
H1292 H 0.96485 0.63402 0.56536 0.0
C1293 C 0.90089 0.65633 0.58539 0.0
C1294 C 0.92263 0.5962 0.58612 0.0
C1295 C 0.89552 0.67573 0.59044 0.0
C1296 C 0.01002 0.57149 0.57028 0.0
C1297 C 0.9893 0.57761 0.57437 0.0
C1298 C 0.95256 0.62274 0.57104 0.0
C1299 C 0.91416 0.64019 0.58884 0.0
C1300 C 0.92433 0.62331 0.58334 0.0
C1301 C 0.97057 0.58529 0.56971 0.0
C1302 C 0.95227 0.59658 0.57404 0.0
H1303 H 0.92123 0.66408 0.60915 0.0
H1304 H 0.93106 0.63093 0.60037 0.0
H1305 H 0.94098 0.65707 0.57337 0.0
H1306 H 0.99343 0.57986 0.54996 0.0
H1307 H 0.95724 0.59028 0.5571 0.0
C1308 C 0.32486 0.22228 0.59068 0.0
C1309 C 0.32185 0.22605 0.59933 0.0
C1310 C 0.3444 0.2472 0.58569 0.0
C1311 C 0.4061 0.32844 0.58661 0.0
H1312 H 0.3684 0.33498 0.5661 0.0
C1313 C 0.43504 0.44224 0.57085 0.0
C1314 C 0.43289 0.443 0.56204 0.0
C1315 C 0.428 0.41512 0.57495 0.0
C1316 C 0.37963 0.33336 0.57171 0.0
H1317 H 0.33831 0.25853 0.60962 0.0
H1318 H 0.37173 0.30181 0.60095 0.0
H1319 H 0.3443 0.28786 0.57402 0.0
H1320 H 0.42411 0.41662 0.55056 0.0
H1321 H 0.41222 0.36958 0.5577 0.0
H1322 H 0.44081 0.37459 0.58443 0.0
C1323 C 0.35937 0.27969 0.59799 0.0
C1324 C 0.3658 0.30624 0.57626 0.0
C1325 C 0.33994 0.25484 0.60296 0.0
C1326 C 0.42555 0.41668 0.55738 0.0
C1327 C 0.41864 0.38968 0.56146 0.0
C1328 C 0.41991 0.35567 0.58207 0.0
C1329 C 0.36129 0.27634 0.58926 0.0
C1330 C 0.37848 0.30365 0.58386 0.0
C1331 C 0.4188 0.38832 0.5703 0.0
C1332 C 0.40648 0.3586 0.57465 0.0
H1333 H 0.31141 0.20033 0.5877 0.0
H1334 H 0.34572 0.24378 0.579 0.0
H1335 H 0.4167 0.32702 0.59239 0.0
H1336 H 0.44068 0.46215 0.57461 0.0
H1337 H 0.42816 0.41478 0.58178 0.0
C1338 C 0.75107 0.0995 0.60472 0.0
C1339 C 0.7772 0.10406 0.60043 0.0
C1340 C 0.72473 0.09275 0.60029 0.0
C1341 C 0.69323 0.08954 0.57892 0.0
H1342 H 0.62221 0.01887 0.58799 0.0
C1343 C 0.59245 0.00629 0.55855 0.0
C1344 C 0.56311 0.99117 0.56203 0.0
C1345 C 0.61734 0.02629 0.56342 0.0
C1346 C 0.64155 0.03903 0.58544 0.0
H1347 H 0.79682 0.10703 0.58808 0.0
H1348 H 0.75066 0.09475 0.58033 0.0
H1349 H 0.66869 0.04341 0.59619 0.0
H1350 H 0.53662 0.9865 0.57322 0.0
H1351 H 0.58019 0.02172 0.58174 0.0
H1352 H 0.66618 0.08438 0.56802 0.0
C1353 C 0.7506 0.09668 0.58713 0.0
C1354 C 0.66829 0.05313 0.59015 0.0
C1355 C 0.77703 0.10357 0.59157 0.0
C1356 C 0.55898 0.99763 0.57038 0.0
C1357 C 0.58395 0.01769 0.57526 0.0
C1358 C 0.66641 0.07543 0.5742 0.0
C1359 C 0.72389 0.09028 0.59146 0.0
C1360 C 0.69464 0.07811 0.58687 0.0
C1361 C 0.61349 0.03171 0.57189 0.0
C1362 C 0.64049 0.04955 0.57733 0.0
H1363 H 0.75059 0.10013 0.61154 0.0
H1364 H 0.70471 0.08853 0.60379 0.0
H1365 H 0.71302 0.10902 0.57627 0.0
H1366 H 0.59643 0.00195 0.55213 0.0
H1367 H 0.63977 0.03636 0.56064 0.0
C1368 C 0.73925 0.66848 0.72835 0.0
C1369 C 0.75573 0.65588 0.73193 0.0
C1370 C 0.73588 0.69051 0.73264 0.0
C1371 C 0.7352 0.71661 0.75411 0.0
H1372 H 0.72475 0.77735 0.74215 0.0
C1373 C 0.68767 0.78428 0.77075 0.0
C1374 C 0.6615 0.78091 0.76674 0.0
C1375 C 0.70733 0.77709 0.76651 0.0
C1376 C 0.72783 0.76066 0.74558 0.0
H1377 H 0.78269 0.65744 0.74271 0.0
H1378 H 0.77704 0.69638 0.75022 0.0
H1379 H 0.74552 0.74966 0.73476 0.0
H1380 H 0.63673 0.7697 0.75493 0.0
H1381 H 0.6712 0.75746 0.7475 0.0
H1382 H 0.71677 0.7271 0.76487 0.0
C1383 C 0.76637 0.68881 0.74412 0.0
C1384 C 0.7396 0.74471 0.74136 0.0
C1385 C 0.7697 0.66659 0.73981 0.0
C1386 C 0.6566 0.77236 0.75821 0.0
C1387 C 0.67645 0.76552 0.75394 0.0
C1388 C 0.72372 0.73278 0.75836 0.0
C1389 C 0.74904 0.70071 0.74062 0.0
C1390 C 0.74231 0.72166 0.74548 0.0
C1391 C 0.70143 0.76684 0.75813 0.0
C1392 C 0.71892 0.75419 0.75405 0.0
H1393 H 0.72821 0.66081 0.72229 0.0
H1394 H 0.7219 0.69865 0.72981 0.0
H1395 H 0.73669 0.69886 0.75747 0.0
H1396 H 0.69215 0.79091 0.77732 0.0
H1397 H 0.72657 0.77854 0.76986 0.0
C1398 C 0.30867 0.09362 0.72993 0.0
C1399 C 0.33544 0.11721 0.73349 0.0
C1400 C 0.29026 0.06722 0.73453 0.0
C1401 C 0.27451 0.03324 0.75586 0.0
H1402 H 0.261 0.96045 0.74421 0.0
C1403 C 0.26055 0.9287 0.7734 0.0
C1404 C 0.24233 0.89954 0.76999 0.0
C1405 C 0.26488 0.95438 0.76904 0.0
C1406 C 0.26385 0.98033 0.74752 0.0
H1407 H 0.36271 0.13252 0.74486 0.0
H1408 H 0.33048 0.08654 0.7529 0.0
H1409 H 0.28067 0.00792 0.73646 0.0
H1410 H 0.21331 0.87439 0.75949 0.0
H1411 H 0.22057 0.91942 0.7519 0.0
H1412 H 0.25833 0.00582 0.76696 0.0
C1413 C 0.32376 0.08842 0.74655 0.0
C1414 C 0.27519 0.00759 0.74308 0.0
C1415 C 0.34232 0.1147 0.74193 0.0
C1416 C 0.22765 0.89657 0.76225 0.0
C1417 C 0.2319 0.92237 0.75789 0.0
C1418 C 0.26292 0.00592 0.76029 0.0
C1419 C 0.29806 0.06405 0.74281 0.0
C1420 C 0.28148 0.03449 0.74725 0.0
C1421 C 0.25096 0.95162 0.76119 0.0
C1422 C 0.25839 0.97934 0.75623 0.0
H1423 H 0.30264 0.09488 0.72345 0.0
H1424 H 0.27041 0.04889 0.73153 0.0
H1425 H 0.27875 0.05356 0.7592 0.0
H1426 H 0.2722 0.93184 0.77935 0.0
H1427 H 0.28013 0.97649 0.77171 0.0
C1428 C 0.88989 0.22761 0.73696 0.0
C1429 C 0.89239 0.24218 0.72923 0.0
C1430 C 0.91586 0.231 0.74102 0.0
C1431 C 0.99873 0.25978 0.7378 0.0
H1432 H 0.00435 0.28024 0.76152 0.0
C1433 C 0.10972 0.34191 0.75471 0.0
C1434 C 0.11377 0.33608 0.76313 0.0
C1435 C 0.08286 0.32249 0.75045 0.0
C1436 C 0.00299 0.27397 0.75494 0.0
H1437 H 0.92393 0.27069 0.71954 0.0
H1438 H 0.96889 0.27715 0.72664 0.0
H1439 H 0.95587 0.26017 0.7543 0.0
H1440 H 0.09355 0.30436 0.77351 0.0
H1441 H 0.04644 0.27067 0.76607 0.0
H1442 H 0.04643 0.27542 0.73838 0.0
C1443 C 0.94701 0.26266 0.72955 0.0
C1444 C 0.97515 0.26239 0.7508 0.0
C1445 C 0.92116 0.2592 0.7255 0.0
C1446 C 0.09109 0.30955 0.76704 0.0
C1447 C 0.06407 0.2903 0.7628 0.0
C1448 C 0.02664 0.27164 0.74194 0.0
C1449 C 0.9448 0.24904 0.73742 0.0
C1450 C 0.9729 0.25608 0.74211 0.0
C1451 C 0.05941 0.29701 0.75453 0.0
C1452 C 0.0292 0.27967 0.75049 0.0
H1453 H 0.868 0.21416 0.73997 0.0
H1454 H 0.91332 0.2199 0.74704 0.0
H1455 H 0.99764 0.2545 0.73116 0.0
H1456 H 0.12683 0.36209 0.75151 0.0
H1457 H 0.0798 0.32838 0.7441 0.0
C1458 C 0.33391 0.25035 0.22263 0.0
C1459 C 0.35213 0.24212 0.22732 0.0
C1460 C 0.31338 0.25676 0.22666 0.0
C1461 C 0.27464 0.25119 0.24694 0.0
H1462 H 0.28207 0.32751 0.23972 0.0
C1463 C 0.24874 0.32618 0.26841 0.0
C1464 C 0.23838 0.34471 0.26487 0.0
C1465 C 0.25507 0.30772 0.2633 0.0
C1466 C 0.27906 0.30579 0.24171 0.0
H1467 H 0.36194 0.23253 0.23989 0.0
H1468 H 0.32631 0.24418 0.24696 0.0
H1469 H 0.30733 0.30574 0.23177 0.0
H1470 H 0.22451 0.35679 0.25326 0.0
H1471 H 0.23526 0.32416 0.24432 0.0
H1472 H 0.24703 0.2518 0.25705 0.0
C1473 C 0.32773 0.24541 0.24015 0.0
C1474 C 0.29364 0.29332 0.23716 0.0
C1475 C 0.34827 0.2389 0.2361 0.0
C1476 C 0.23271 0.34297 0.25617 0.0
C1477 C 0.23901 0.3244 0.25104 0.0
C1478 C 0.25993 0.26364 0.2515 0.0
C1479 C 0.31064 0.25516 0.23548 0.0
C1480 C 0.29216 0.26623 0.23982 0.0
C1481 C 0.25111 0.30724 0.25453 0.0
C1482 C 0.26258 0.29147 0.24904 0.0
H1483 H 0.33602 0.25264 0.21584 0.0
H1484 H 0.30014 0.26367 0.22288 0.0
H1485 H 0.27273 0.23006 0.24908 0.0
H1486 H 0.25318 0.32682 0.27511 0.0
H1487 H 0.26464 0.29509 0.2662 0.0
C1488 C 0.68379 0.90335 0.26529 0.0
C1489 C 0.65466 0.88398 0.262 0.0
C1490 C 0.70104 0.93323 0.26239 0.0
C1491 C 0.68796 0.99192 0.25364 0.0
H1492 H 0.77507 0.0377 0.2501 0.0
C1493 C 0.74839 0.12048 0.24954 0.0
C1494 C 0.76678 0.1315 0.24233 0.0
C1495 C 0.73902 0.09127 0.25253 0.0
C1496 C 0.75073 0.02514 0.25108 0.0
H1497 H 0.62196 0.87993 0.25255 0.0
H1498 H 0.65213 0.93188 0.24746 0.0
H1499 H 0.75018 0.98314 0.25319 0.0
H1500 H 0.7918 0.12145 0.23301 0.0
H1501 H 0.77527 0.07039 0.23823 0.0
H1502 H 0.6882 0.03348 0.25148 0.0
C1503 C 0.66135 0.92417 0.25241 0.0
C1504 C 0.73654 0.99402 0.25287 0.0
C1505 C 0.64414 0.89436 0.2553 0.0
C1506 C 0.77746 0.11357 0.23855 0.0
C1507 C 0.7681 0.08434 0.24156 0.0
C1508 C 0.7021 0.02291 0.25193 0.0
C1509 C 0.68943 0.94424 0.25614 0.0
C1510 C 0.70495 0.97708 0.2541 0.0
C1511 C 0.74788 0.07251 0.24838 0.0
C1512 C 0.73361 0.03988 0.25062 0.0
H1513 H 0.69262 0.89601 0.27043 0.0
H1514 H 0.72262 0.9482 0.26538 0.0
H1515 H 0.66365 0.9796 0.2547 0.0
H1516 H 0.74001 0.1338 0.25265 0.0
H1517 H 0.72389 0.08293 0.25791 0.0
C1518 C 0.90038 0.6632 0.2371 0.0
C1519 C 0.87288 0.64389 0.24124 0.0
C1520 C 0.92656 0.68206 0.2417 0.0
C1521 C 0.95934 0.68524 0.26254 0.0
H1522 H 0.02503 0.7618 0.2542 0.0
C1523 C 0.07336 0.74684 0.27982 0.0
C1524 C 0.09902 0.75534 0.27473 0.0
C1525 C 0.04531 0.73872 0.2762 0.0
C1526 C 0.00686 0.74044 0.25659 0.0
H1527 H 0.85081 0.6309 0.25345 0.0
H1528 H 0.89645 0.66436 0.26149 0.0
H1529 H 0.97561 0.73822 0.24719 0.0
H1530 H 0.11572 0.7636 0.26187 0.0
H1531 H 0.06652 0.74917 0.25553 0.0
H1532 H 0.99064 0.68713 0.27183 0.0
C1533 C 0.89791 0.66432 0.25468 0.0
C1534 C 0.97858 0.72691 0.25259 0.0
C1535 C 0.8717 0.64527 0.25007 0.0
C1536 C 0.09636 0.75708 0.26596 0.0
C1537 C 0.06822 0.74896 0.26233 0.0
C1538 C 0.98749 0.69885 0.26657 0.0
C1539 C 0.92586 0.68225 0.25055 0.0
C1540 C 0.95465 0.69881 0.25541 0.0
C1541 C 0.04226 0.73893 0.26741 0.0
C1542 C 0.01172 0.72631 0.26355 0.0
H1543 H 0.90211 0.66283 0.2303 0.0
H1544 H 0.94766 0.69527 0.2383 0.0
H1545 H 0.94172 0.66334 0.2648 0.0
H1546 H 0.07466 0.74559 0.28661 0.0
H1547 H 0.02582 0.73157 0.28028 0.0
C1548 C 0.02143 0.19602 0.11373 0.0
C1549 C 0.9953 0.17577 0.10919 0.0
C1550 C 0.04951 0.19848 0.11189 0.0
C1551 C 0.09062 0.18133 0.09546 0.0
H1552 H 0.137 0.17709 0.11427 0.0
C1553 C 0.1758 0.13875 0.09234 0.0
C1554 C 0.20075 0.14999 0.09784 0.0
C1555 C 0.15477 0.14871 0.09296 0.0
C1556 C 0.12477 0.17898 0.10893 0.0
H1557 H 0.97831 0.14266 0.09905 0.0
H1558 H 0.02705 0.14684 0.0959 0.0
H1559 H 0.09229 0.18157 0.11695 0.0
H1560 H 0.22451 0.18233 0.10787 0.0
H1561 H 0.18806 0.20009 0.10885 0.0
H1562 H 0.12271 0.178 0.08744 0.0
C1563 C 0.02598 0.16104 0.10082 0.0
C1564 C 0.09905 0.18148 0.11048 0.0
C1565 C 0.99796 0.15846 0.10269 0.0
C1566 C 0.20537 0.17298 0.10358 0.0
C1567 C 0.18436 0.18301 0.10419 0.0
C1568 C 0.11641 0.17894 0.09391 0.0
C1569 C 0.05204 0.18091 0.10544 0.0
C1570 C 0.08129 0.18195 0.10377 0.0
C1571 C 0.15827 0.17025 0.09908 0.0
C1572 C 0.1334 0.17702 0.10063 0.0
H1573 H 0.02018 0.20976 0.11876 0.0
H1574 H 0.06924 0.21414 0.11552 0.0
H1575 H 0.07768 0.18217 0.09015 0.0
H1576 H 0.17157 0.12107 0.08783 0.0
H1577 H 0.13486 0.13819 0.08896 0.0
C1578 C 0.87377 0.0426 0.09332 0.0
C1579 C 0.86267 0.05578 0.09906 0.0
C1580 C 0.86332 0.01144 0.09355 0.0
C1581 C 0.83107 0.94829 0.10869 0.0
H1582 H 0.82792 0.90112 0.08912 0.0
C1583 C 0.81158 0.82636 0.1116 0.0
C1584 C 0.83229 0.82127 0.10702 0.0
C1585 C 0.80946 0.85239 0.11012 0.0
C1586 C 0.82871 0.91403 0.09464 0.0
H1587 H 0.83023 0.04619 0.10913 0.0
H1588 H 0.8116 0.9917 0.10943 0.0
H1589 H 0.83331 0.95124 0.08721 0.0
H1590 H 0.86637 0.83906 0.09713 0.0
H1591 H 0.8627 0.88431 0.09459 0.0
H1592 H 0.82714 0.91136 0.11612 0.0
C1593 C 0.82892 0.00558 0.10488 0.0
C1594 C 0.83183 0.94274 0.09355 0.0
C1595 C 0.83946 0.0368 0.10467 0.0
C1596 C 0.85025 0.84233 0.10079 0.0
C1597 C 0.84796 0.86816 0.09928 0.0
C1598 C 0.8278 0.91953 0.10978 0.0
C1599 C 0.8414 0.99268 0.0995 0.0
C1600 C 0.8338 0.96054 0.10057 0.0
C1601 C 0.82779 0.87366 0.10398 0.0
C1602 C 0.82734 0.9024 0.10278 0.0
H1603 H 0.89162 0.05653 0.0889 0.0
H1604 H 0.87367 0.0024 0.08936 0.0
H1605 H 0.83295 0.9615 0.11424 0.0
H1606 H 0.79737 0.81053 0.11642 0.0
H1607 H 0.79356 0.85593 0.1138 0.0
C1608 C 0.96519 0.83156 0.09023 0.0
C1609 C 0.95314 0.80977 0.0967 0.0
C1610 C 0.99573 0.85419 0.09034 0.0
C1611 C 0.07074 0.8795 0.10016 0.0
H1612 H 0.07967 0.95946 0.09773 0.0
C1613 C 0.17836 0.99024 0.11087 0.0
C1614 C 0.18702 0.0167 0.10614 0.0
C1615 C 0.15144 0.96334 0.10898 0.0
C1616 C 0.07784 0.93737 0.09828 0.0
H1617 H 0.96432 0.79319 0.10797 0.0
H1618 H 0.01767 0.83279 0.10816 0.0
H1619 H 0.03056 0.91471 0.09531 0.0
H1620 H 0.17511 0.03536 0.09546 0.0
H1621 H 0.1289 0.9885 0.09203 0.0
H1622 H 0.11817 0.90236 0.10319 0.0
C1623 C 0.00346 0.83236 0.10301 0.0
C1624 C 0.0496 0.91166 0.09688 0.0
C1625 C 0.97284 0.80973 0.10292 0.0
C1626 C 0.16885 0.01547 0.09931 0.0
C1627 C 0.14224 0.98859 0.09737 0.0
C1628 C 0.09919 0.90533 0.1015 0.0
C1629 C 0.01492 0.85547 0.0969 0.0
C1630 C 0.04566 0.88244 0.09784 0.0
C1631 C 0.13283 0.96233 0.10227 0.0
C1632 C 0.10303 0.93461 0.10061 0.0
H1633 H 0.95073 0.83208 0.0853 0.0
H1634 H 0.0041 0.87139 0.08546 0.0
H1635 H 0.06837 0.85724 0.10092 0.0
H1636 H 0.1919 0.99051 0.11617 0.0
H1637 H 0.14478 0.94365 0.11294 0.0
C1638 C 0.1651 0.19718 0.39423 0.0
C1639 C 0.14611 0.19853 0.40046 0.0
C1640 C 0.17407 0.17534 0.39468 0.0
C1641 C 0.1454 0.09892 0.40322 0.0
H1642 H 0.22136 0.10842 0.39488 0.0
C1643 C 0.16419 0.99686 0.40134 0.0
C1644 C 0.17702 0.99372 0.39383 0.0
C1645 C 0.16482 0.02401 0.4032 0.0
C1646 C 0.19998 0.10541 0.39719 0.0
H1647 H 0.12388 0.17974 0.41241 0.0
H1648 H 0.13994 0.14198 0.41326 0.0
H1649 H 0.21565 0.15314 0.39655 0.0
H1650 H 0.20155 0.01704 0.38252 0.0
H1651 H 0.2021 0.06429 0.38568 0.0
H1652 H 0.12931 0.05129 0.40363 0.0
C1653 C 0.14726 0.15732 0.40792 0.0
C1654 C 0.19674 0.13101 0.39817 0.0
C1655 C 0.13821 0.17909 0.40746 0.0
C1656 C 0.19143 0.01872 0.38835 0.0
C1657 C 0.19192 0.04588 0.39019 0.0
C1658 C 0.14862 0.07341 0.40223 0.0
C1659 C 0.16435 0.15445 0.40138 0.0
C1660 C 0.16927 0.128 0.40111 0.0
C1661 C 0.17812 0.04864 0.39757 0.0
C1662 C 0.17581 0.07626 0.39912 0.0
H1663 H 0.17169 0.21188 0.38876 0.0
H1664 H 0.18711 0.17369 0.38952 0.0
H1665 H 0.1237 0.09564 0.40532 0.0
H1666 H 0.15321 0.97817 0.40576 0.0
H1667 H 0.15449 0.02555 0.40901 0.0
C1668 C 0.99108 0.16484 0.3798 0.0
C1669 C 0.01498 0.17361 0.38558 0.0
C1670 C 0.96325 0.13827 0.3811 0.0
C1671 C 0.91726 0.08082 0.39741 0.0
H1672 H 0.88048 0.02818 0.37811 0.0
C1673 C 0.83313 0.95207 0.39993 0.0
C1674 C 0.80988 0.93833 0.3939 0.0
C1675 C 0.85443 0.98305 0.39944 0.0
C1676 C 0.8901 0.04283 0.38355 0.0
H1677 H 0.02826 0.16152 0.39731 0.0
H1678 H 0.9801 0.11504 0.39947 0.0
H1679 H 0.92509 0.07801 0.37612 0.0
H1680 H 0.78955 0.94681 0.38296 0.0
H1681 H 0.82663 0.00089 0.38215 0.0
H1682 H 0.88271 0.04505 0.40486 0.0
C1683 C 0.98257 0.1289 0.39402 0.0
C1684 C 0.91572 0.07144 0.38241 0.0
C1685 C 0.01031 0.15547 0.39274 0.0
C1686 C 0.8073 0.95661 0.38767 0.0
C1687 C 0.82865 0.98757 0.38717 0.0
C1688 C 0.89167 0.05212 0.39855 0.0
C1689 C 0.95875 0.11985 0.38819 0.0
C1690 C 0.92992 0.09059 0.38934 0.0
C1691 C 0.85295 0.00095 0.3929 0.0
C1692 C 0.87808 0.03262 0.39165 0.0
H1693 H 0.99386 0.17841 0.37426 0.0
H1694 H 0.94526 0.13216 0.37654 0.0
H1695 H 0.92731 0.09523 0.40286 0.0
H1696 H 0.83573 0.93867 0.40482 0.0
H1697 H 0.87297 0.9926 0.40392 0.0
C1698 C 0.0399 0.84479 0.39822 0.0
C1699 C 0.05212 0.83605 0.39157 0.0
C1700 C 0.00979 0.83826 0.39795 0.0
C1701 C 0.93604 0.7944 0.38673 0.0
H1702 H 0.92813 0.86429 0.39243 0.0
C1703 C 0.83263 0.807 0.37709 0.0
C1704 C 0.82263 0.82094 0.38291 0.0
C1705 C 0.85888 0.80539 0.37868 0.0
C1706 C 0.92974 0.84436 0.39094 0.0
H1707 H 0.04168 0.81178 0.37968 0.0
H1708 H 0.9892 0.80075 0.37916 0.0
H1709 H 0.97639 0.86641 0.39454 0.0
H1710 H 0.83169 0.84305 0.39513 0.0
H1711 H 0.87702 0.83991 0.39792 0.0
H1712 H 0.88928 0.77264 0.38297 0.0
C1713 C 0.00283 0.81246 0.38462 0.0
C1714 C 0.95746 0.84555 0.39216 0.0
C1715 C 0.03297 0.81885 0.38491 0.0
C1716 C 0.83891 0.83243 0.39046 0.0
C1717 C 0.86501 0.83075 0.39205 0.0
C1718 C 0.90818 0.79321 0.3855 0.0
C1719 C 0.99123 0.82301 0.391 0.0
C1720 C 0.96102 0.82064 0.39007 0.0
C1721 C 0.8756 0.81766 0.38613 0.0
C1722 C 0.90477 0.81823 0.38758 0.0
H1723 H 0.05394 0.85775 0.40349 0.0
H1724 H 0.00133 0.84606 0.40307 0.0
H1725 H 0.93798 0.77475 0.3851 0.0
H1726 H 0.82058 0.7979 0.37122 0.0
H1727 H 0.86657 0.79538 0.37395 0.0
C1728 C 0.79576 0.83523 0.89628 0.0
C1729 C 0.79669 0.85644 0.90214 0.0
C1730 C 0.81725 0.82576 0.89659 0.0
C1731 C 0.89583 0.85591 0.90357 0.0
H1732 H 0.88348 0.77785 0.89616 0.0
C1733 C 0.99633 0.83512 0.90026 0.0
C1734 C 0.99736 0.82063 0.89282 0.0
C1735 C 0.96993 0.83535 0.90253 0.0
C1736 C 0.88728 0.7998 0.8982 0.0
H1737 H 0.81907 0.882 0.91342 0.0
H1738 H 0.85613 0.865 0.91406 0.0
H1739 H 0.8396 0.78444 0.89854 0.0
H1740 H 0.97107 0.7941 0.88209 0.0
H1741 H 0.92506 0.79495 0.88599 0.0
H1742 H 0.94336 0.87161 0.90303 0.0
C1743 C 0.83933 0.85637 0.90908 0.0
C1744 C 0.86215 0.80356 0.89958 0.0
C1745 C 0.81794 0.86595 0.90874 0.0
C1746 C 0.97104 0.8055 0.88785 0.0
C1747 C 0.9446 0.80582 0.89012 0.0
C1748 C 0.92085 0.85217 0.9022 0.0
C1749 C 0.84003 0.83717 0.9028 0.0
C1750 C 0.86617 0.83179 0.90219 0.0
C1751 C 0.94391 0.8212 0.89741 0.0
C1752 C 0.91694 0.82419 0.8994 0.0
H1753 H 0.77963 0.82734 0.89113 0.0
H1754 H 0.81714 0.81105 0.89164 0.0
H1755 H 0.89987 0.87817 0.90538 0.0
H1756 H 0.01609 0.84672 0.90429 0.0
H1757 H 0.97001 0.84693 0.90827 0.0
C1758 C 0.1507 0.95354 0.89727 0.0
C1759 C 0.15809 0.94126 0.89034 0.0
C1760 C 0.1584 0.98403 0.8973 0.0
C1761 C 0.20276 0.05819 0.88619 0.0
H1762 H 0.1352 0.06834 0.89308 0.0
C1763 C 0.19071 0.1623 0.87706 0.0
C1764 C 0.1783 0.17317 0.88312 0.0
C1765 C 0.19222 0.13596 0.8786 0.0
C1766 C 0.15451 0.0661 0.89125 0.0
H1767 H 0.1812 0.95188 0.87827 0.0
H1768 H 0.19416 0.00497 0.87825 0.0
H1769 H 0.13197 0.01943 0.89486 0.0
H1770 H 0.15887 0.16558 0.89568 0.0
H1771 H 0.16175 0.12 0.89837 0.0
H1772 H 0.2249 0.10494 0.88238 0.0
C1773 C 0.18269 0.99114 0.88371 0.0
C1774 C 0.1527 0.038 0.8923 0.0
C1775 C 0.17518 0.96064 0.88371 0.0
C1776 C 0.1683 0.15769 0.89084 0.0
C1777 C 0.16984 0.13147 0.89237 0.0
C1778 C 0.20455 0.0864 0.88513 0.0
C1779 C 0.17342 0.0029 0.89037 0.0
C1780 C 0.17671 0.03361 0.88975 0.0
C1781 C 0.18134 0.11999 0.88623 0.0
C1782 C 0.18035 0.09059 0.88761 0.0
H1783 H 0.13785 0.93928 0.90252 0.0
H1784 H 0.15161 0.99255 0.90264 0.0
H1785 H 0.22175 0.05564 0.88422 0.0
H1786 H 0.19867 0.17372 0.87106 0.0
H1787 H 0.20097 0.12757 0.87371 0.0
C1788 C 0.04471 0.19159 0.8889 0.0
C1789 C 0.06311 0.18785 0.89484 0.0
C1790 C 0.01359 0.17078 0.88849 0.0
C1791 C 0.9492 0.10717 0.89978 0.0
H1792 H 0.92095 0.07689 0.87721 0.0
C1793 C 0.84391 0.99037 0.89351 0.0
C1794 C 0.82504 0.98717 0.88664 0.0
C1795 C 0.87099 0.01757 0.89483 0.0
C1796 C 0.92821 0.0854 0.88354 0.0
H1797 H 0.0629 0.16047 0.90536 0.0
H1798 H 0.00871 0.12415 0.90461 0.0
H1799 H 0.97143 0.12056 0.8792 0.0
H1800 H 0.8196 0.01029 0.87587 0.0
H1801 H 0.86685 0.05794 0.87822 0.0
H1802 H 0.90615 0.07154 0.90413 0.0
C1803 C 0.01828 0.14319 0.90029 0.0
C1804 C 0.95719 0.11048 0.88468 0.0
C1805 C 0.0494 0.16396 0.90069 0.0
C1806 C 0.8337 0.01195 0.88119 0.0
C1807 C 0.86083 0.03923 0.88252 0.0
C1808 C 0.92017 0.0821 0.89863 0.0
C1809 C 0.00019 0.14586 0.89402 0.0
C1810 C 0.96821 0.12134 0.89282 0.0
C1811 C 0.87988 0.04229 0.88933 0.0
C1812 C 0.90955 0.07059 0.89051 0.0
H1813 H 0.0545 0.20986 0.88433 0.0
H1814 H 0.00016 0.17373 0.88368 0.0
H1815 H 0.9569 0.11526 0.90612 0.0
H1816 H 0.83797 0.97172 0.89783 0.0
H1817 H 0.88534 0.01895 0.90005 0.0
C1818 C 0.81868 0.98672 0.61381 0.0
C1819 C 0.83258 0.01177 0.60833 0.0
C1820 C 0.81822 0.95964 0.61184 0.0
C1821 C 0.86027 0.93204 0.59919 0.0
H1822 H 0.79282 0.85227 0.60462 0.0
C1823 C 0.86738 0.82549 0.59204 0.0
C1824 C 0.85959 0.80501 0.59879 0.0
C1825 C 0.85919 0.84795 0.59215 0.0
C1826 C 0.81185 0.87441 0.60308 0.0
H1827 H 0.8557 0.02757 0.59632 0.0
H1828 H 0.85446 0.98039 0.59286 0.0
H1829 H 0.78807 0.89729 0.60694 0.0
H1830 H 0.83515 0.79065 0.61065 0.0
H1831 H 0.82118 0.83 0.61088 0.0
H1832 H 0.88431 0.90947 0.5955 0.0
C1833 C 0.8445 0.9818 0.59876 0.0
C1834 C 0.80916 0.90019 0.60443 0.0
C1835 C 0.8451 0.00884 0.60073 0.0
C1836 C 0.84162 0.80614 0.60536 0.0
C1837 C 0.83349 0.82865 0.60548 0.0
C1838 C 0.86293 0.90636 0.59783 0.0
C1839 C 0.83155 0.95704 0.60435 0.0
C1840 C 0.83347 0.92933 0.60256 0.0
C1841 C 0.84307 0.85045 0.59901 0.0
C1842 C 0.83887 0.87725 0.59983 0.0
H1843 H 0.80881 0.98823 0.61971 0.0
H1844 H 0.8083 0.94111 0.61633 0.0
H1845 H 0.87967 0.95414 0.59783 0.0
H1846 H 0.88095 0.82506 0.58683 0.0
H1847 H 0.86637 0.86401 0.58698 0.0
C1848 C 0.16958 0.04067 0.59398 0.0
C1849 C 0.19385 0.05501 0.59969 0.0
C1850 C 0.14902 0.00954 0.5946 0.0
C1851 C 0.11803 0.94955 0.61062 0.0
H1852 H 0.07593 0.89779 0.59155 0.0
C1853 C 0.01708 0.82751 0.61493 0.0
C1854 C 0.99165 0.82017 0.60986 0.0
C1855 C 0.04492 0.85375 0.61333 0.0
C1856 C 0.08745 0.912 0.59694 0.0
H1857 H 0.21681 0.04745 0.61015 0.0
H1858 H 0.18112 0.99305 0.61115 0.0
H1859 H 0.12008 0.94795 0.58915 0.0
H1860 H 0.97573 0.83432 0.59902 0.0
H1861 H 0.02401 0.87999 0.59629 0.0
H1862 H 0.08495 0.91401 0.6184 0.0
C1863 C 0.17766 0.00602 0.6063 0.0
C1864 C 0.11274 0.94071 0.59556 0.0
C1865 C 0.19823 0.03717 0.60568 0.0
C1866 C 0.99483 0.83928 0.60306 0.0
C1867 C 0.02262 0.86538 0.60144 0.0
C1868 C 0.09277 0.92085 0.61199 0.0
C1869 C 0.15231 0.99202 0.60093 0.0
C1870 C 0.12794 0.96008 0.60238 0.0
C1871 C 0.04793 0.87308 0.60659 0.0
C1872 C 0.07678 0.90201 0.60516 0.0
H1873 H 0.16557 0.05371 0.58928 0.0
H1874 H 0.12964 0.99958 0.5904 0.0
H1875 H 0.1289 0.96403 0.61601 0.0
H1876 H 0.01542 0.81321 0.6202 0.0
H1877 H 0.06408 0.85894 0.61737 0.0
C1878 C 0.17512 0.19601 0.61329 0.0
C1879 C 0.18114 0.17579 0.60879 0.0
C1880 C 0.14923 0.19803 0.61149 0.0
C1881 C 0.08994 0.17922 0.59525 0.0
H1882 H 0.03985 0.17479 0.61422 0.0
C1883 C 0.9615 0.13366 0.59267 0.0
C1884 C 0.94766 0.14473 0.59818 0.0
C1885 C 0.99267 0.14437 0.59315 0.0
C1886 C 0.0538 0.17672 0.60884 0.0
H1887 H 0.16502 0.1423 0.59874 0.0
H1888 H 0.11998 0.1457 0.59567 0.0
H1889 H 0.08961 0.18047 0.61674 0.0
H1890 H 0.95612 0.17755 0.60806 0.0
H1891 H 0.01061 0.19658 0.60881 0.0
H1892 H 0.05376 0.17468 0.58735 0.0
C1893 C 0.13535 0.16022 0.60053 0.0
C1894 C 0.08235 0.17992 0.61029 0.0
C1895 C 0.16107 0.15809 0.60235 0.0
C1896 C 0.96602 0.1683 0.60378 0.0
C1897 C 0.99723 0.17907 0.60425 0.0
C1898 C 0.06141 0.17611 0.59379 0.0
C1899 C 0.12898 0.18002 0.60512 0.0
C1900 C 0.10042 0.18046 0.60352 0.0
C1901 C 0.01074 0.1665 0.59914 0.0
C1902 C 0.04269 0.1741 0.60058 0.0
H1903 H 0.19019 0.21004 0.61827 0.0
H1904 H 0.14503 0.21364 0.6151 0.0
H1905 H 0.10358 0.1801 0.5899 0.0
H1906 H 0.94806 0.11555 0.58826 0.0
H1907 H 0.00223 0.13399 0.58916 0.0
C1908 C 0.65456 0.48398 0.43316 0.0
C1909 C 0.65244 0.49762 0.44064 0.0
C1910 C 0.68143 0.48446 0.43106 0.0
C1911 C 0.76366 0.52096 0.43604 0.0
H1912 H 0.75364 0.44447 0.42799 0.0
C1913 C 0.85708 0.48798 0.43754 0.0
C1914 C 0.8575 0.46857 0.43129 0.0
C1915 C 0.83497 0.49663 0.43742 0.0
C1916 C 0.75695 0.46622 0.43006 0.0
H1917 H 0.67722 0.52323 0.45167 0.0
H1918 H 0.72406 0.5235 0.44808 0.0
H1919 H 0.7092 0.44941 0.43036 0.0
H1920 H 0.83676 0.44532 0.4196 0.0
H1921 H 0.7985 0.4608 0.41932 0.0
H1922 H 0.81157 0.53738 0.43595 0.0
C1923 C 0.70502 0.51281 0.44378 0.0
C1924 C 0.7314 0.46904 0.43144 0.0
C1925 C 0.67811 0.51248 0.44586 0.0
C1926 C 0.83686 0.45999 0.42456 0.0
C1927 C 0.8148 0.4687 0.42443 0.0
C1928 C 0.78932 0.51811 0.43466 0.0
C1929 C 0.70682 0.49839 0.43641 0.0
C1930 C 0.73438 0.49633 0.43452 0.0
C1931 C 0.81288 0.48614 0.43103 0.0
C1932 C 0.78621 0.49058 0.43173 0.0
H1933 H 0.63533 0.47263 0.42894 0.0
H1934 H 0.68221 0.47364 0.42526 0.0
H1935 H 0.76676 0.54242 0.43831 0.0
H1936 H 0.87275 0.49513 0.4428 0.0
H1937 H 0.83409 0.50998 0.44262 0.0
C1938 C 0.49944 0.1671 0.43186 0.0
C1939 C 0.48143 0.14658 0.43819 0.0
C1940 C 0.4981 0.19346 0.43034 0.0
C1941 C 0.48033 0.24666 0.44089 0.0
H1942 H 0.48663 0.27859 0.41831 0.0
C1943 C 0.49464 0.36493 0.43581 0.0
C1944 C 0.51829 0.38369 0.43028 0.0
C1945 C 0.48338 0.33358 0.43596 0.0
C1946 C 0.48492 0.27001 0.42466 0.0
H1947 H 0.44737 0.13736 0.44774 0.0
H1948 H 0.44512 0.18355 0.44508 0.0
H1949 H 0.47986 0.22791 0.42024 0.0
H1950 H 0.54716 0.38394 0.42018 0.0
H1951 H 0.52788 0.32952 0.42052 0.0
H1952 H 0.48651 0.28904 0.44534 0.0
C1953 C 0.46039 0.17924 0.44134 0.0
C1954 C 0.48104 0.24099 0.42576 0.0
C1955 C 0.46161 0.15275 0.44285 0.0
C1956 C 0.529 0.37018 0.42453 0.0
C1957 C 0.5178 0.33887 0.4247 0.0
C1958 C 0.48431 0.2757 0.43979 0.0
C1959 C 0.4788 0.20001 0.43512 0.0
C1960 C 0.47936 0.22926 0.43389 0.0
C1961 C 0.49554 0.32032 0.4306 0.0
C1962 C 0.48729 0.288 0.43167 0.0
H1963 H 0.51493 0.16306 0.42815 0.0
H1964 H 0.5129 0.20917 0.42558 0.0
H1965 H 0.47948 0.23844 0.44724 0.0
H1966 H 0.48568 0.37457 0.44027 0.0
H1967 H 0.46579 0.31986 0.44047 0.0
C1968 C 0.82601 0.31127 0.44931 0.0
C1969 C 0.8357 0.33618 0.44384 0.0
C1970 C 0.80013 0.28347 0.44744 0.0
C1971 C 0.74693 0.2399 0.43004 0.0
H1972 H 0.68953 0.20029 0.44824 0.0
C1973 C 0.61908 0.15766 0.42495 0.0
C1974 C 0.60342 0.13372 0.43069 0.0
C1975 C 0.64999 0.17832 0.42604 0.0
C1976 C 0.70552 0.21067 0.44311 0.0
H1977 H 0.8261 0.35123 0.43202 0.0
H1978 H 0.78087 0.30309 0.42884 0.0
H1979 H 0.73881 0.24434 0.45125 0.0
H1980 H 0.60847 0.11141 0.44173 0.0
H1981 H 0.66246 0.14733 0.44359 0.0
H1982 H 0.7131 0.20669 0.42186 0.0
C1983 C 0.79346 0.30479 0.43451 0.0
C1984 C 0.73382 0.23598 0.44484 0.0
C1985 C 0.8193 0.33251 0.43638 0.0
C1986 C 0.61978 0.12974 0.43723 0.0
C1987 C 0.65069 0.15043 0.43833 0.0
C1988 C 0.71857 0.21459 0.42831 0.0
C1989 C 0.78339 0.28 0.44005 0.0
C1990 C 0.75465 0.25126 0.43831 0.0
C1991 C 0.66591 0.17547 0.4329 0.0
C1992 C 0.69734 0.20003 0.4348 0.0
H1993 H 0.83824 0.31327 0.45509 0.0
H1994 H 0.79318 0.26472 0.45179 0.0
H1995 H 0.76268 0.25082 0.42489 0.0
H1996 H 0.60719 0.16134 0.41983 0.0
H1997 H 0.66098 0.19745 0.42177 0.0
C1998 C 0.79627 0.51144 0.74003 0.0
C1999 C 0.80402 0.53219 0.73335 0.0
C2000 C 0.80465 0.48913 0.73983 0.0
C2001 C 0.85205 0.46332 0.72852 0.0
H2002 H 0.78489 0.38332 0.73389 0.0
C2003 C 0.84399 0.35153 0.71683 0.0
C2004 C 0.83118 0.32641 0.7223 0.0
C2005 C 0.8446 0.37847 0.71905 0.0
C2006 C 0.8041 0.4055 0.73249 0.0
H2007 H 0.82857 0.54714 0.72151 0.0
H2008 H 0.84275 0.50802 0.72111 0.0
H2009 H 0.78016 0.42778 0.73653 0.0
H2010 H 0.81003 0.31032 0.73454 0.0
H2011 H 0.81136 0.35726 0.73841 0.0
H2012 H 0.8756 0.44067 0.72425 0.0
C2013 C 0.8304 0.50906 0.72654 0.0
C2014 C 0.80142 0.43108 0.73403 0.0
C2015 C 0.82214 0.53146 0.72676 0.0
C2016 C 0.81982 0.32912 0.73014 0.0
C2017 C 0.82047 0.35601 0.73235 0.0
C2018 C 0.85472 0.43765 0.72696 0.0
C2019 C 0.82086 0.48699 0.73293 0.0
C2020 C 0.82521 0.46029 0.73199 0.0
C2021 C 0.83243 0.38085 0.72678 0.0
C2022 C 0.83063 0.40842 0.72886 0.0
H2023 H 0.7826 0.51158 0.74525 0.0
H2024 H 0.79754 0.47289 0.74495 0.0
H2025 H 0.87092 0.48551 0.72695 0.0
H2026 H 0.85298 0.3502 0.71076 0.0
H2027 H 0.85372 0.39708 0.71458 0.0
C2028 C 0.46787 0.29554 0.72422 0.0
C2029 C 0.47077 0.27849 0.73076 0.0
C2030 C 0.48862 0.32659 0.72345 0.0
C2031 C 0.5504 0.39344 0.7345 0.0
H2032 H 0.58398 0.41739 0.71202 0.0
C2033 C 0.66875 0.49644 0.72825 0.0
C2034 C 0.67335 0.51398 0.72097 0.0
C2035 C 0.641 0.47005 0.72967 0.0
C2036 C 0.57453 0.41134 0.71831 0.0
H2037 H 0.49657 0.28113 0.74193 0.0
H2038 H 0.53279 0.33515 0.74056 0.0
H2039 H 0.53997 0.36734 0.71428 0.0
H2040 H 0.65206 0.51791 0.70956 0.0
H2041 H 0.60345 0.47184 0.71207 0.0
H2042 H 0.58551 0.43724 0.73855 0.0
C2043 C 0.51443 0.3246 0.73604 0.0
C2044 C 0.54925 0.3826 0.71961 0.0
C2045 C 0.49373 0.29355 0.73681 0.0
C2046 C 0.64932 0.50483 0.71521 0.0
C2047 C 0.6215 0.47837 0.71663 0.0
C2048 C 0.57568 0.42222 0.7332 0.0
C2049 C 0.51264 0.34129 0.72922 0.0
C2050 C 0.53723 0.37309 0.72775 0.0
C2051 C 0.61712 0.46052 0.72384 0.0
C2052 C 0.58841 0.43127 0.72511 0.0
H2053 H 0.45033 0.28469 0.71948 0.0
H2054 H 0.48633 0.33893 0.7182 0.0
H2055 H 0.54141 0.38695 0.74083 0.0
H2056 H 0.68678 0.5028 0.73282 0.0
H2057 H 0.63859 0.45662 0.73522 0.0
C2058 C 0.70079 0.16849 0.72682 0.0
C2059 C 0.71901 0.1921 0.73242 0.0
C2060 C 0.66944 0.157 0.72649 0.0
C2061 C 0.60487 0.15804 0.73735 0.0
H2062 H 0.57512 0.15315 0.71456 0.0
C2063 C 0.50367 0.17422 0.72937 0.0
C2064 C 0.48332 0.15623 0.72302 0.0
C2065 C 0.52968 0.17246 0.73106 0.0
C2066 C 0.58283 0.15384 0.72097 0.0
H2067 H 0.71828 0.22065 0.74247 0.0
H2068 H 0.66387 0.20102 0.74181 0.0
H2069 H 0.62549 0.15998 0.7168 0.0
H2070 H 0.47406 0.12183 0.71357 0.0
H2071 H 0.51975 0.11892 0.71651 0.0
H2072 H 0.56254 0.15312 0.74148 0.0
C2073 C 0.67363 0.19112 0.73771 0.0
C2074 C 0.61173 0.15769 0.72226 0.0
C2075 C 0.70494 0.20253 0.73807 0.0
C2076 C 0.48933 0.13606 0.71849 0.0
C2077 C 0.51552 0.13444 0.72015 0.0
C2078 C 0.57601 0.15431 0.73606 0.0
C2079 C 0.65564 0.16891 0.73174 0.0
C2080 C 0.62339 0.16054 0.73046 0.0
C2081 C 0.53606 0.15278 0.72642 0.0
C2082 C 0.56497 0.15288 0.72784 0.0
H2083 H 0.71087 0.15973 0.72243 0.0
H2084 H 0.65614 0.13946 0.72193 0.0
H2085 H 0.61294 0.15961 0.74375 0.0
H2086 H 0.49972 0.18997 0.733 0.0
H2087 H 0.54526 0.18722 0.73585 0.0
C2088 C 0.65914 0.15362 0.22 0.0
C2089 C 0.686 0.17187 0.22453 0.0
C2090 C 0.63251 0.15411 0.22192 0.0
C2091 C 0.60746 0.20343 0.23194 0.0
H2092 H 0.52733 0.13204 0.23048 0.0
C2093 C 0.50188 0.21227 0.23889 0.0
C2094 C 0.47932 0.19992 0.23264 0.0
C2095 C 0.52472 0.20465 0.23921 0.0
C2096 C 0.54957 0.15216 0.2309 0.0
H2097 H 0.70564 0.20398 0.23485 0.0
H2098 H 0.65927 0.20439 0.23827 0.0
H2099 H 0.57234 0.12713 0.22837 0.0
H2100 H 0.46165 0.16793 0.22224 0.0
H2101 H 0.50162 0.15484 0.22276 0.0
H2102 H 0.58491 0.22857 0.23433 0.0
C2103 C 0.65885 0.19025 0.23311 0.0
C2104 C 0.57534 0.14938 0.22967 0.0
C2105 C 0.68545 0.18992 0.23116 0.0
C2106 C 0.47878 0.178 0.22712 0.0
C2107 C 0.50165 0.17039 0.22743 0.0
C2108 C 0.5818 0.20617 0.2332 0.0
C2109 C 0.63216 0.17273 0.22843 0.0
C2110 C 0.6046 0.17506 0.23011 0.0
C2111 C 0.5255 0.1845 0.23328 0.0
C2112 C 0.55254 0.18065 0.23263 0.0
H2113 H 0.65882 0.13946 0.21486 0.0
H2114 H 0.61246 0.14057 0.21813 0.0
H2115 H 0.62957 0.2238 0.23216 0.0
H2116 H 0.5028 0.22898 0.2433 0.0
H2117 H 0.54244 0.21542 0.2439 0.0
C2118 C 0.84506 0.30512 0.22552 0.0
C2119 C 0.82376 0.28848 0.23185 0.0
C2120 C 0.85648 0.33637 0.2247 0.0
C2121 C 0.85996 0.40375 0.23519 0.0
H2122 H 0.85519 0.42768 0.21228 0.0
C2123 C 0.83849 0.50159 0.22731 0.0
C2124 C 0.85363 0.52055 0.22042 0.0
C2125 C 0.84153 0.47634 0.22904 0.0
C2126 C 0.85722 0.4216 0.2187 0.0
H2127 H 0.79944 0.29201 0.24262 0.0
H2128 H 0.81894 0.3462 0.24112 0.0
H2129 H 0.84976 0.37805 0.21493 0.0
H2130 H 0.88431 0.52814 0.21001 0.0
H2131 H 0.88941 0.48369 0.21301 0.0
H2132 H 0.8661 0.44692 0.23897 0.0
C2133 C 0.82708 0.33529 0.23683 0.0
C2134 C 0.85418 0.39314 0.22022 0.0
C2135 C 0.81572 0.3041 0.23766 0.0
C2136 C 0.87228 0.51393 0.21536 0.0
C2137 C 0.87515 0.48846 0.21706 0.0
C2138 C 0.86287 0.43216 0.23367 0.0
C2139 C 0.84684 0.35163 0.23018 0.0
C2140 C 0.85474 0.38355 0.22851 0.0
C2141 C 0.85966 0.46931 0.2239 0.0
C2142 C 0.86075 0.44106 0.22542 0.0
H2143 H 0.85191 0.29381 0.22097 0.0
H2144 H 0.87211 0.3484 0.2196 0.0
H2145 H 0.86105 0.3973 0.24164 0.0
H2146 H 0.82399 0.50605 0.23135 0.0
H2147 H 0.82894 0.46179 0.23428 0.0
C2148 C 0.71418 0.50401 0.23418 0.0
C2149 C 0.72926 0.52833 0.22852 0.0
C2150 C 0.68311 0.48364 0.23334 0.0
C2151 C 0.62462 0.45258 0.21696 0.0
H2152 H 0.57106 0.41209 0.23586 0.0
C2153 C 0.50262 0.35119 0.21245 0.0
C2154 C 0.49478 0.32633 0.21782 0.0
C2155 C 0.52886 0.37916 0.21396 0.0
C2156 C 0.58577 0.42314 0.23052 0.0
H2157 H 0.72312 0.5514 0.21784 0.0
H2158 H 0.66877 0.51587 0.2164 0.0
H2159 H 0.62114 0.45614 0.23837 0.0
H2160 H 0.50817 0.31154 0.22905 0.0
H2161 H 0.55381 0.35994 0.2316 0.0
H2162 H 0.58964 0.41904 0.20914 0.0
C2163 C 0.68113 0.51235 0.22142 0.0
C2164 C 0.61443 0.44839 0.23196 0.0
C2165 C 0.71223 0.53282 0.22229 0.0
C2166 C 0.51348 0.33018 0.22478 0.0
C2167 C 0.53957 0.35806 0.2263 0.0
C2168 C 0.59595 0.42732 0.21553 0.0
C2169 C 0.66638 0.48709 0.2268 0.0
C2170 C 0.63447 0.46297 0.22521 0.0
C2171 C 0.54769 0.38285 0.22089 0.0
C2172 C 0.57649 0.41186 0.22231 0.0
H2173 H 0.72659 0.49993 0.23907 0.0
H2174 H 0.67255 0.46429 0.23755 0.0
H2175 H 0.63962 0.46303 0.21164 0.0
H2176 H 0.48864 0.34901 0.20705 0.0
H2177 H 0.5344 0.3979 0.20971 0.0
C2178 C 0.49541 0.13155 0.94279 0.0
C2179 C 0.51643 0.13561 0.93645 0.0
C2180 C 0.48443 0.15179 0.94354 0.0
C2181 C 0.4805 0.21458 0.93257 0.0
H2182 H 0.48619 0.24586 0.95519 0.0
C2183 C 0.50005 0.33406 0.93917 0.0
C2184 C 0.48528 0.33849 0.94606 0.0
C2185 C 0.49762 0.30583 0.93776 0.0
C2186 C 0.48392 0.23704 0.94886 0.0
H2187 H 0.54085 0.16291 0.92559 0.0
H2188 H 0.522 0.19816 0.92694 0.0
H2189 H 0.49189 0.20157 0.95297 0.0
H2190 H 0.45591 0.31649 0.95678 0.0
H2191 H 0.45179 0.26706 0.95433 0.0
H2192 H 0.47366 0.25082 0.92843 0.0
C2193 C 0.51379 0.17933 0.93132 0.0
C2194 C 0.48712 0.21158 0.94758 0.0
C2195 C 0.52478 0.15918 0.93058 0.0
C2196 C 0.46763 0.31386 0.95143 0.0
C2197 C 0.46534 0.28558 0.95005 0.0
C2198 C 0.47738 0.24008 0.93384 0.0
C2199 C 0.49414 0.1764 0.93794 0.0
C2200 C 0.48622 0.20051 0.93939 0.0
C2201 C 0.48045 0.28133 0.94322 0.0
C2202 C 0.47981 0.25205 0.94198 0.0
H2203 H 0.48841 0.11353 0.9474 0.0
H2204 H 0.46897 0.14864 0.94864 0.0
H2205 H 0.47914 0.2063 0.9262 0.0
H2206 H 0.51381 0.35252 0.93489 0.0
H2207 H 0.50992 0.30346 0.93252 0.0
C2208 C 0.85715 0.36274 0.93665 0.0
C2209 C 0.851 0.38116 0.93133 0.0
C2210 C 0.83672 0.33153 0.93722 0.0
C2211 C 0.76775 0.26754 0.92735 0.0
H2212 H 0.74825 0.23824 0.95036 0.0
C2213 C 0.65181 0.16763 0.937 0.0
C2214 C 0.65066 0.14679 0.94303 0.0
C2215 C 0.67929 0.19357 0.93503 0.0
C2216 C 0.75375 0.24584 0.94389 0.0
H2217 H 0.81958 0.38087 0.92203 0.0
H2218 H 0.78388 0.32674 0.92311 0.0
H2219 H 0.79178 0.28826 0.9476 0.0
H2220 H 0.67758 0.13674 0.95164 0.0
H2221 H 0.72572 0.18242 0.94823 0.0
H2222 H 0.72888 0.2255 0.9237 0.0
C2223 C 0.80455 0.33623 0.9268 0.0
C2224 C 0.77877 0.27452 0.9423 0.0
C2225 C 0.825 0.36738 0.92621 0.0
C2226 C 0.67771 0.15238 0.94699 0.0
C2227 C 0.70524 0.17854 0.94505 0.0
C2228 C 0.74265 0.23893 0.92896 0.0
C2229 C 0.8097 0.31807 0.93249 0.0
C2230 C 0.78568 0.28602 0.93402 0.0
C2231 C 0.70628 0.19944 0.93906 0.0
C2232 C 0.73497 0.22807 0.93726 0.0
H2233 H 0.87712 0.37258 0.94063 0.0
H2234 H 0.84167 0.3181 0.94155 0.0
H2235 H 0.77275 0.27546 0.9209 0.0
H2236 H 0.63143 0.16402 0.93382 0.0
H2237 H 0.67924 0.20944 0.93048 0.0
C2238 C 0.83244 0.51768 0.94798 0.0
C2239 C 0.83928 0.50007 0.94256 0.0
C2240 C 0.80649 0.52001 0.94666 0.0
C2241 C 0.74736 0.50675 0.93078 0.0
H2242 H 0.69709 0.49452 0.95041 0.0
C2243 C 0.61863 0.46147 0.92905 0.0
C2244 C 0.60508 0.47106 0.93512 0.0
C2245 C 0.64974 0.47174 0.92934 0.0
C2246 C 0.71108 0.49861 0.94487 0.0
H2247 H 0.82464 0.47175 0.93136 0.0
H2248 H 0.77933 0.47551 0.92913 0.0
H2249 H 0.74702 0.49985 0.95217 0.0
H2250 H 0.61398 0.5007 0.94588 0.0
H2251 H 0.66833 0.51888 0.94632 0.0
H2252 H 0.71091 0.50456 0.92346 0.0
C2253 C 0.79416 0.48785 0.93435 0.0
C2254 C 0.73974 0.50164 0.94588 0.0
C2255 C 0.82005 0.48549 0.93567 0.0
C2256 C 0.62365 0.49264 0.94115 0.0
C2257 C 0.65478 0.50293 0.94144 0.0
C2258 C 0.71865 0.50372 0.92976 0.0
C2259 C 0.78687 0.50484 0.93988 0.0
C2260 C 0.75796 0.50511 0.93884 0.0
C2261 C 0.66801 0.49189 0.9357 0.0
C2262 C 0.69994 0.49899 0.93678 0.0
H2263 H 0.84689 0.52934 0.95332 0.0
H2264 H 0.80168 0.53356 0.95098 0.0
H2265 H 0.76107 0.50992 0.92524 0.0
H2266 H 0.60501 0.44492 0.9243 0.0
H2267 H 0.65913 0.46259 0.92486 0.0
C2268 C 0.34442 0.84311 0.78661 0.0
C2269 C 0.32176 0.83524 0.78047 0.0
C2270 C 0.37137 0.84335 0.78463 0.0
C2271 C 0.40045 0.80854 0.76976 0.0
H2272 H 0.4795 0.86841 0.77832 0.0
C2273 C 0.50566 0.79979 0.76181 0.0
C2274 C 0.52464 0.80319 0.76865 0.0
C2275 C 0.48391 0.80882 0.7625 0.0
C2276 C 0.45756 0.85144 0.77591 0.0
H2277 H 0.31022 0.82267 0.76734 0.0
H2278 H 0.35711 0.8233 0.76391 0.0
H2279 H 0.43536 0.87417 0.78114 0.0
H2280 H 0.53697 0.82055 0.78141 0.0
H2281 H 0.49876 0.83576 0.78265 0.0
H2282 H 0.42215 0.78531 0.76473 0.0
C2283 C 0.3539 0.8288 0.77029 0.0
C2284 C 0.43229 0.85474 0.77754 0.0
C2285 C 0.32705 0.82857 0.77225 0.0
C2286 C 0.52266 0.81753 0.77601 0.0
C2287 C 0.5008 0.8264 0.77672 0.0
C2288 C 0.42559 0.8052 0.76817 0.0
C2289 C 0.37616 0.83568 0.77648 0.0
C2290 C 0.40342 0.8332 0.77452 0.0
C2291 C 0.48054 0.8213 0.77006 0.0
C2292 C 0.45445 0.82647 0.77126 0.0
H2293 H 0.34107 0.84842 0.79299 0.0
H2294 H 0.388 0.84852 0.78956 0.0
H2295 H 0.37844 0.79123 0.76748 0.0
H2296 H 0.5068 0.78911 0.75602 0.0
H2297 H 0.46913 0.8052 0.75718 0.0
C2298 C 0.17481 0.70825 0.77296 0.0
C2299 C 0.1946 0.72875 0.76688 0.0
C2300 C 0.16652 0.67757 0.77266 0.0
C2301 C 0.19718 0.6303 0.76497 0.0
H2302 H 0.11985 0.56333 0.77237 0.0
C2303 C 0.17641 0.50845 0.76632 0.0
C2304 C 0.16201 0.49153 0.77359 0.0
C2305 C 0.17696 0.53568 0.76464 0.0
C2306 C 0.14162 0.58185 0.77034 0.0
H2307 H 0.21919 0.7326 0.75535 0.0
H2308 H 0.20431 0.67902 0.75475 0.0
H2309 H 0.12585 0.61385 0.77062 0.0
H2310 H 0.1362 0.48958 0.78469 0.0
H2311 H 0.13758 0.53744 0.78182 0.0
H2312 H 0.21325 0.59871 0.76486 0.0
C2313 C 0.19582 0.68681 0.75987 0.0
C2314 C 0.14504 0.61075 0.76932 0.0
C2315 C 0.20418 0.7175 0.76018 0.0
C2316 C 0.14749 0.50208 0.77904 0.0
C2317 C 0.14812 0.52942 0.77736 0.0
C2318 C 0.19378 0.6015 0.76599 0.0
C2319 C 0.17774 0.6667 0.76626 0.0
C2320 C 0.17296 0.63538 0.76669 0.0
C2321 C 0.16323 0.54675 0.7702 0.0
C2322 C 0.16606 0.57696 0.76875 0.0
H2323 H 0.16694 0.71613 0.7782 0.0
H2324 H 0.15269 0.66277 0.77771 0.0
H2325 H 0.2192 0.64884 0.76312 0.0
H2326 H 0.18759 0.50087 0.76194 0.0
H2327 H 0.18834 0.54819 0.75899 0.0
C2328 C 0.50454 0.63998 0.77946 0.0
C2329 C 0.51137 0.66642 0.77493 0.0
C2330 C 0.47839 0.61239 0.77759 0.0
C2331 C 0.41924 0.57271 0.76128 0.0
H2332 H 0.36754 0.52963 0.78028 0.0
C2333 C 0.29022 0.49388 0.75838 0.0
C2334 C 0.27521 0.46942 0.764 0.0
C2335 C 0.32155 0.51339 0.75897 0.0
C2336 C 0.38191 0.54089 0.77489 0.0
H2337 H 0.49662 0.68441 0.76472 0.0
H2338 H 0.45112 0.63645 0.7615 0.0
H2339 H 0.41812 0.57246 0.78277 0.0
H2340 H 0.28169 0.44489 0.77423 0.0
H2341 H 0.33647 0.47864 0.77515 0.0
H2342 H 0.38272 0.54156 0.75339 0.0
C2343 C 0.46602 0.63693 0.76645 0.0
C2344 C 0.41093 0.56553 0.77633 0.0
C2345 C 0.49199 0.6645 0.76835 0.0
C2346 C 0.29251 0.46371 0.76985 0.0
C2347 C 0.3239 0.48317 0.77042 0.0
C2348 C 0.39025 0.54796 0.75984 0.0
C2349 C 0.45871 0.61065 0.77112 0.0
C2350 C 0.42962 0.58217 0.76955 0.0
C2351 C 0.33864 0.5088 0.76516 0.0
C2352 C 0.37094 0.53222 0.76662 0.0
H2353 H 0.51906 0.64068 0.78455 0.0
H2354 H 0.47345 0.59245 0.78125 0.0
H2355 H 0.43334 0.58481 0.75593 0.0
H2356 H 0.2776 0.49891 0.75378 0.0
H2357 H 0.33205 0.53302 0.75486 0.0
C2358 C 0.48547 0.85595 0.0679 0.0
C2359 C 0.49835 0.8767 0.06121 0.0
C2360 C 0.49101 0.8318 0.06873 0.0
C2361 C 0.53853 0.79988 0.06121 0.0
H2362 H 0.46422 0.72299 0.06438 0.0
C2363 C 0.52763 0.68354 0.05323 0.0
C2364 C 0.50889 0.65863 0.0584 0.0
C2365 C 0.52943 0.71166 0.05447 0.0
C2366 C 0.48532 0.74424 0.06364 0.0
H2367 H 0.52896 0.88961 0.05052 0.0
H2368 H 0.53839 0.84729 0.05194 0.0
H2369 H 0.46305 0.77003 0.06531 0.0
H2370 H 0.47834 0.64404 0.06913 0.0
H2371 H 0.48187 0.69303 0.07136 0.0
H2372 H 0.56065 0.77382 0.05939 0.0
C2373 C 0.5241 0.84976 0.05656 0.0
C2374 C 0.48465 0.77128 0.06418 0.0
C2375 C 0.51861 0.87399 0.05573 0.0
C2376 C 0.49272 0.66266 0.06497 0.0
C2377 C 0.49465 0.69075 0.06623 0.0
C2378 C 0.53922 0.77274 0.06069 0.0
C2379 C 0.5095 0.8278 0.06289 0.0
C2380 C 0.51117 0.79942 0.06292 0.0
C2381 C 0.51262 0.71547 0.06091 0.0
C2382 C 0.51255 0.74457 0.06184 0.0
H2383 H 0.47002 0.85755 0.07229 0.0
H2384 H 0.47995 0.81562 0.07379 0.0
H2385 H 0.55938 0.82122 0.06026 0.0
H2386 H 0.54039 0.68118 0.04811 0.0
H2387 H 0.54324 0.73011 0.0502 0.0
C2388 C 0.16229 0.6262 0.07001 0.0
C2389 C 0.13882 0.61232 0.06405 0.0
C2390 C 0.18286 0.65739 0.06964 0.0
C2391 C 0.21626 0.71806 0.05393 0.0
H2392 H 0.25578 0.769 0.07334 0.0
C2393 C 0.31922 0.83929 0.05039 0.0
C2394 C 0.34356 0.84637 0.05588 0.0
C2395 C 0.29089 0.81333 0.05172 0.0
C2396 C 0.24501 0.75503 0.06785 0.0
H2397 H 0.11714 0.62075 0.05343 0.0
H2398 H 0.15292 0.67522 0.05284 0.0
H2399 H 0.21105 0.71894 0.07534 0.0
H2400 H 0.35702 0.83199 0.06718 0.0
H2401 H 0.30801 0.78673 0.06941 0.0
H2402 H 0.25074 0.7536 0.04646 0.0
C2403 C 0.15573 0.66185 0.0577 0.0
C2404 C 0.21937 0.72638 0.069 0.0
C2405 C 0.13512 0.63066 0.05807 0.0
C2406 C 0.33879 0.82725 0.06282 0.0
C2407 C 0.31056 0.80138 0.06415 0.0
C2408 C 0.24192 0.74666 0.05278 0.0
C2409 C 0.1804 0.67539 0.0633 0.0
C2410 C 0.20509 0.70731 0.06207 0.0
C2411 C 0.28631 0.79395 0.05859 0.0
C2412 C 0.25701 0.7652 0.05974 0.0
H2413 H 0.16574 0.61277 0.07471 0.0
H2414 H 0.20171 0.66704 0.07403 0.0
H2415 H 0.2061 0.70379 0.04845 0.0
H2416 H 0.32209 0.85362 0.04501 0.0
H2417 H 0.2726 0.80839 0.04737 0.0
C2418 C 0.36917 0.50169 0.06171 0.0
C2419 C 0.38647 0.52469 0.06758 0.0
C2420 C 0.33802 0.49077 0.06087 0.0
C2421 C 0.27195 0.49182 0.0707 0.0
H2422 H 0.24683 0.48951 0.0475 0.0
C2423 C 0.17319 0.51004 0.06128 0.0
C2424 C 0.15396 0.49278 0.05464 0.0
C2425 C 0.19872 0.50786 0.06332 0.0
C2426 C 0.25324 0.48948 0.05401 0.0
H2427 H 0.38424 0.55274 0.07754 0.0
H2428 H 0.3302 0.53405 0.07599 0.0
H2429 H 0.29646 0.49548 0.05049 0.0
H2430 H 0.1462 0.45928 0.04504 0.0
H2431 H 0.19108 0.45565 0.0486 0.0
H2432 H 0.22907 0.48701 0.07419 0.0
C2433 C 0.34052 0.52422 0.07208 0.0
C2434 C 0.2817 0.49285 0.05573 0.0
C2435 C 0.37162 0.53509 0.07294 0.0
C2436 C 0.16061 0.47295 0.05017 0.0
C2437 C 0.18634 0.47092 0.05219 0.0
C2438 C 0.24352 0.48856 0.06897 0.0
C2439 C 0.32353 0.5026 0.06586 0.0
C2440 C 0.29169 0.49476 0.0641 0.0
C2441 C 0.20574 0.48849 0.05876 0.0
C2442 C 0.23416 0.48807 0.06061 0.0
H2443 H 0.37986 0.493 0.05752 0.0
H2444 H 0.32548 0.4737 0.05612 0.0
H2445 H 0.27872 0.49268 0.07721 0.0
H2446 H 0.16871 0.5255 0.06487 0.0
H2447 H 0.21345 0.52205 0.06833 0.0
C2448 C 0.1631 0.54296 0.57319 0.0
C2449 C 0.14172 0.53346 0.56663 0.0
C2450 C 0.18494 0.53395 0.57336 0.0
C2451 C 0.20851 0.4823 0.56355 0.0
H2452 H 0.28942 0.55092 0.56693 0.0
C2453 C 0.31779 0.48545 0.55164 0.0
C2454 C 0.3441 0.50073 0.5566 0.0
C2455 C 0.29125 0.48557 0.55392 0.0
C2456 C 0.26701 0.53132 0.56611 0.0
H2457 H 0.12495 0.50501 0.55549 0.0
H2458 H 0.16322 0.48969 0.55572 0.0
H2459 H 0.24561 0.55681 0.56945 0.0
H2460 H 0.36277 0.5269 0.56806 0.0
H2461 H 0.31654 0.52671 0.57207 0.0
H2462 H 0.23022 0.45708 0.56 0.0
C2463 C 0.1631 0.50397 0.56076 0.0
C2464 C 0.24181 0.53469 0.56758 0.0
C2465 C 0.14121 0.51291 0.56061 0.0
C2466 C 0.34301 0.5152 0.56403 0.0
C2467 C 0.31652 0.51519 0.56632 0.0
C2468 C 0.2338 0.47891 0.56208 0.0
C2469 C 0.1859 0.5153 0.56696 0.0
C2470 C 0.21226 0.51036 0.56623 0.0
C2471 C 0.29049 0.50087 0.56122 0.0
C2472 C 0.26336 0.50351 0.56326 0.0
H2473 H 0.16393 0.55853 0.57799 0.0
H2474 H 0.20181 0.54254 0.57833 0.0
H2475 H 0.18603 0.46303 0.56253 0.0
H2476 H 0.31788 0.47406 0.54588 0.0
H2477 H 0.27169 0.47456 0.5498 0.0
C2478 C 0.46919 0.62834 0.57212 0.0
C2479 C 0.47749 0.61508 0.56564 0.0
C2480 C 0.47743 0.65898 0.57172 0.0
C2481 C 0.52509 0.73176 0.56026 0.0
H2482 H 0.45657 0.74346 0.56456 0.0
C2483 C 0.51774 0.83531 0.54788 0.0
C2484 C 0.50388 0.84718 0.55311 0.0
C2485 C 0.51812 0.80891 0.55019 0.0
C2486 C 0.47614 0.74081 0.56346 0.0
H2487 H 0.50307 0.62427 0.554 0.0
H2488 H 0.51707 0.67751 0.55326 0.0
H2489 H 0.45231 0.69471 0.56762 0.0
H2490 H 0.48052 0.84122 0.56502 0.0
H2491 H 0.48153 0.79564 0.56907 0.0
H2492 H 0.54863 0.77789 0.55591 0.0
C2493 C 0.50432 0.66433 0.55867 0.0
C2494 C 0.47373 0.71281 0.56524 0.0
C2495 C 0.49616 0.6337 0.55908 0.0
C2496 C 0.49114 0.83255 0.56079 0.0
C2497 C 0.4916 0.80631 0.56311 0.0
C2498 C 0.52752 0.75988 0.55847 0.0
C2499 C 0.49408 0.67703 0.56482 0.0
C2500 C 0.49805 0.70782 0.5636 0.0
C2501 C 0.50469 0.7939 0.55779 0.0
C2502 C 0.50296 0.76463 0.56 0.0
H2503 H 0.45508 0.61474 0.57731 0.0
H2504 H 0.46978 0.66826 0.57667 0.0
H2505 H 0.54433 0.72873 0.55898 0.0
H2506 H 0.52779 0.84604 0.54192 0.0
H2507 H 0.52814 0.79979 0.54591 0.0
C2508 C 0.37709 0.84494 0.56867 0.0
C2509 C 0.39109 0.8686 0.56276 0.0
C2510 C 0.34585 0.82464 0.56831 0.0
C2511 C 0.2844 0.79297 0.55272 0.0
H2512 H 0.23469 0.75155 0.57218 0.0
C2513 C 0.16256 0.69109 0.54933 0.0
C2514 C 0.15637 0.66578 0.55432 0.0
C2515 C 0.18855 0.71925 0.5508 0.0
C2516 C 0.24831 0.76292 0.56668 0.0
H2517 H 0.3829 0.89089 0.55225 0.0
H2518 H 0.32831 0.85573 0.55172 0.0
H2519 H 0.28492 0.79603 0.57419 0.0
H2520 H 0.17218 0.65044 0.56493 0.0
H2521 H 0.21741 0.69935 0.56744 0.0
H2522 H 0.24817 0.75943 0.54522 0.0
C2523 C 0.3416 0.85247 0.55651 0.0
C2524 C 0.27707 0.78838 0.56784 0.0
C2525 C 0.37287 0.87274 0.55685 0.0
C2526 C 0.17628 0.66944 0.56094 0.0
C2527 C 0.20211 0.69757 0.56244 0.0
C2528 C 0.25563 0.76758 0.55157 0.0
C2529 C 0.32788 0.82761 0.56206 0.0
C2530 C 0.29576 0.80327 0.56087 0.0
C2531 C 0.20874 0.72272 0.55733 0.0
C2532 C 0.23756 0.75184 0.55854 0.0
H2533 H 0.39042 0.84112 0.57331 0.0
H2534 H 0.33614 0.80564 0.57265 0.0
H2535 H 0.29832 0.80356 0.54721 0.0
H2536 H 0.14762 0.68906 0.54419 0.0
H2537 H 0.19293 0.73829 0.5468 0.0
C2538 C 0.17259 0.46739 0.27306 0.0
C2539 C 0.19493 0.47309 0.26697 0.0
C2540 C 0.16181 0.48764 0.27416 0.0
C2541 C 0.16131 0.55439 0.26462 0.0
H2542 H 0.16066 0.5772 0.28792 0.0
C2543 C 0.17692 0.67031 0.27411 0.0
C2544 C 0.15973 0.67185 0.28084 0.0
C2545 C 0.17577 0.64303 0.27211 0.0
C2546 C 0.16019 0.57077 0.28139 0.0
H2547 H 0.222 0.50352 0.25691 0.0
H2548 H 0.20349 0.53888 0.25888 0.0
H2549 H 0.16726 0.53401 0.28471 0.0
H2550 H 0.12759 0.64578 0.29069 0.0
H2551 H 0.12573 0.59798 0.28721 0.0
H2552 H 0.1553 0.59189 0.26132 0.0
C2553 C 0.19409 0.5187 0.26278 0.0
C2554 C 0.16392 0.54594 0.27954 0.0
C2555 C 0.20484 0.49846 0.26167 0.0
C2556 C 0.14116 0.64537 0.28549 0.0
C2557 C 0.14016 0.61802 0.28351 0.0
C2558 C 0.15767 0.57926 0.26647 0.0
C2559 C 0.1731 0.51401 0.26919 0.0
C2560 C 0.16518 0.53785 0.27113 0.0
C2561 C 0.15749 0.6166 0.2768 0.0
C2562 C 0.15776 0.58814 0.27487 0.0
H2563 H 0.16432 0.44795 0.27722 0.0
H2564 H 0.14523 0.48307 0.27906 0.0
H2565 H 0.16164 0.54845 0.25808 0.0
H2566 H 0.19147 0.69025 0.27039 0.0
H2567 H 0.18979 0.64283 0.267 0.0
C2568 C 0.53296 0.70257 0.26878 0.0
C2569 C 0.52702 0.71967 0.26291 0.0
C2570 C 0.5136 0.67118 0.26942 0.0
C2571 C 0.44859 0.60439 0.2591 0.0
H2572 H 0.42374 0.57814 0.28213 0.0
C2573 C 0.33142 0.50423 0.26771 0.0
C2574 C 0.32899 0.485 0.27441 0.0
C2575 C 0.3592 0.52994 0.26583 0.0
C2576 C 0.43077 0.58486 0.27567 0.0
H2577 H 0.49736 0.71688 0.25269 0.0
H2578 H 0.46347 0.6624 0.25389 0.0
H2579 H 0.467 0.62832 0.27944 0.0
H2580 H 0.35403 0.4774 0.28426 0.0
H2581 H 0.40266 0.52259 0.28097 0.0
H2582 H 0.41145 0.56125 0.25535 0.0
C2583 C 0.48316 0.67308 0.25796 0.0
C2584 C 0.45565 0.61365 0.27412 0.0
C2585 C 0.50255 0.70443 0.25731 0.0
C2586 C 0.35512 0.49181 0.27908 0.0
C2587 C 0.38294 0.51771 0.27722 0.0
C2588 C 0.42363 0.57562 0.26065 0.0
C2589 C 0.48788 0.65623 0.26421 0.0
C2590 C 0.46441 0.62406 0.26581 0.0
C2591 C 0.38521 0.53715 0.2706 0.0
C2592 C 0.414 0.56586 0.26895 0.0
H2593 H 0.55179 0.71357 0.27314 0.0
H2594 H 0.5182 0.65877 0.27419 0.0
H2595 H 0.45506 0.6115 0.25263 0.0
H2596 H 0.31177 0.49964 0.26397 0.0
H2597 H 0.36007 0.54468 0.26077 0.0
C2598 C 0.48398 0.81585 0.26723 0.0
C2599 C 0.50722 0.83752 0.27238 0.0
C2600 C 0.45735 0.81685 0.26592 0.0
C2601 C 0.40919 0.84239 0.27576 0.0
H2602 H 0.3706 0.8254 0.25379 0.0
C2603 C 0.29043 0.82796 0.27192 0.0
C2604 C 0.26992 0.80211 0.26732 0.0
C2605 C 0.32166 0.83874 0.2715 0.0
C2606 C 0.38102 0.83009 0.25998 0.0
H2607 H 0.5208 0.87741 0.28014 0.0
H2608 H 0.47396 0.8789 0.27791 0.0
H2609 H 0.42112 0.83144 0.25524 0.0
H2610 H 0.26633 0.76867 0.2582 0.0
H2611 H 0.32047 0.78703 0.25757 0.0
H2612 H 0.36874 0.83976 0.28059 0.0
C2613 C 0.47648 0.86118 0.27489 0.0
C2614 C 0.40996 0.83358 0.26079 0.0
C2615 C 0.5033 0.86035 0.27615 0.0
C2616 C 0.28146 0.78859 0.26185 0.0
C2617 C 0.31263 0.79925 0.26146 0.0
C2618 C 0.38017 0.8387 0.27495 0.0
C2619 C 0.45321 0.8394 0.26977 0.0
C2620 C 0.42407 0.83912 0.26872 0.0
C2621 C 0.33304 0.82385 0.26648 0.0
C2622 C 0.36543 0.83185 0.26708 0.0
H2623 H 0.48627 0.79799 0.26421 0.0
H2624 H 0.43966 0.79949 0.26203 0.0
H2625 H 0.41935 0.84636 0.28197 0.0
H2626 H 0.28232 0.8391 0.27614 0.0
H2627 H 0.3368 0.85814 0.27531 0.0
loop_
_geom_bond_atom_site_label_1
_geom_bond_atom_site_label_2
_geom_bond_distance
_geom_bond_site_symmetry_2
_ccdc_geom_bond_type
C0 O1 1.160 . S
C0 O7 1.185 . S
O1 C0 1.160 . S
O2 Zn3 1.899 . S
O2 C10 1.284 . S
Zn3 O2 1.899 . S
Zn3 O4 2.032 . S
Zn3 O7 2.086 . S
Zn3 O12 1.977 . S
O4 Zn3 2.032 . S
O4 C8 1.278 . S
C5 O6 1.203 . S
C5 O12 1.267 . S
O6 C5 1.203 . S
O7 C0 1.185 . S
O7 Zn3 2.086 . S
C8 O4 1.278 . S
C8 O9 1.211 . S
O9 C8 1.211 . S
C10 O2 1.284 . S
C10 O11 1.273 . S
O11 C10 1.273 . S
O12 Zn3 1.977 . S
O12 C5 1.267 . S
C13 O14 1.160 . S
C13 O20 1.185 . S
O14 C13 1.160 . S
O15 Zn16 1.899 . S
O15 C23 1.284 . S
Zn16 O15 1.899 . S
Zn16 O17 2.032 . S
Zn16 O20 2.086 . S
Zn16 O25 1.977 . S
O17 Zn16 2.032 . S
O17 C21 1.278 . S
C18 O19 1.203 . S
C18 O25 1.267 . S
O19 C18 1.203 . S
O20 C13 1.185 . S
O20 Zn16 2.086 . S
C21 O17 1.278 . S
C21 O22 1.211 . S
O22 C21 1.211 . S
C23 O15 1.284 . S
C23 O24 1.273 . S
O24 C23 1.273 . S
O25 Zn16 1.977 . S
O25 C18 1.267 . S
C26 O27 1.160 . S
C26 O33 1.185 . S
O27 C26 1.160 . S
O28 Zn29 1.899 . S
O28 C36 1.284 . S
Zn29 O28 1.899 . S
Zn29 O30 2.032 . S
Zn29 O33 2.086 . S
Zn29 O38 1.977 . S
O30 Zn29 2.032 . S
O30 C34 1.278 . S
C31 O32 1.203 . S
C31 O38 1.267 . S
O32 C31 1.203 . S
O33 C26 1.185 . S
O33 Zn29 2.086 . S
C34 O30 1.278 . S
C34 O35 1.211 . S
O35 C34 1.211 . S
C36 O28 1.284 . S
C36 O37 1.273 . S
O37 C36 1.273 . S
O38 Zn29 1.977 . S
O38 C31 1.267 . S
C39 O40 1.160 . S
C39 O46 1.185 . S
O40 C39 1.160 . S
O41 Zn42 1.899 . S
O41 C49 1.284 . S
Zn42 O41 1.899 . S
Zn42 O43 2.032 . S
Zn42 O46 2.086 . S
Zn42 O51 1.977 . S
O43 Zn42 2.032 . S
O43 C47 1.278 . S
C44 O45 1.203 . S
C44 O51 1.267 . S
O45 C44 1.203 . S
O46 C39 1.185 . S
O46 Zn42 2.086 . S
C47 O43 1.278 . S
C47 O48 1.211 . S
O48 C47 1.211 . S
C49 O41 1.284 . S
C49 O50 1.273 . S
O50 C49 1.273 . S
O51 Zn42 1.977 . S
O51 C44 1.267 . S
C52 O53 1.160 . S
C52 O59 1.185 . S
O53 C52 1.160 . S
O54 Zn55 1.899 . S
O54 C62 1.284 . S
Zn55 O54 1.899 . S
Zn55 O56 2.032 . S
Zn55 O59 2.086 . S
Zn55 O64 1.977 . S
O56 Zn55 2.032 . S
O56 C60 1.278 . S
C57 O58 1.203 . S
C57 O64 1.267 . S
O58 C57 1.203 . S
O59 C52 1.185 . S
O59 Zn55 2.086 . S
C60 O56 1.278 . S
C60 O61 1.211 . S
O61 C60 1.211 . S
C62 O54 1.284 . S
C62 O63 1.273 . S
O63 C62 1.273 . S
O64 Zn55 1.977 . S
O64 C57 1.267 . S
C65 O66 1.160 . S
C65 O72 1.185 . S
O66 C65 1.160 . S
O67 Zn68 1.899 . S
O67 C75 1.284 . S
Zn68 O67 1.899 . S
Zn68 O69 2.032 . S
Zn68 O72 2.086 . S
Zn68 O77 1.977 . S
O69 Zn68 2.032 . S
O69 C73 1.278 . S
C70 O71 1.203 . S
C70 O77 1.267 . S
O71 C70 1.203 . S
O72 C65 1.185 . S
O72 Zn68 2.086 . S
C73 O69 1.278 . S
C73 O74 1.211 . S
O74 C73 1.211 . S
C75 O67 1.284 . S
C75 O76 1.273 . S
O76 C75 1.273 . S
O77 Zn68 1.977 . S
O77 C70 1.267 . S
C78 O79 1.160 . S
C78 O85 1.185 . S
O79 C78 1.160 . S
O80 Zn81 1.899 . S
O80 C88 1.284 . S
Zn81 O80 1.899 . S
Zn81 O82 2.032 . S
Zn81 O85 2.086 . S
Zn81 O90 1.977 . S
O82 Zn81 2.032 . S
O82 C86 1.278 . S
C83 O84 1.203 . S
C83 O90 1.267 . S
O84 C83 1.203 . S
O85 C78 1.185 . S
O85 Zn81 2.086 . S
C86 O82 1.278 . S
C86 O87 1.211 . S
O87 C86 1.211 . S
C88 O80 1.284 . S
C88 O89 1.273 . S
O89 C88 1.273 . S
O90 Zn81 1.977 . S
O90 C83 1.267 . S
C91 O92 1.160 . S
C91 O98 1.185 . S
O92 C91 1.160 . S
O93 Zn94 1.899 . S
O93 C101 1.284 . S
Zn94 O93 1.899 . S
Zn94 O95 2.032 . S
Zn94 O98 2.086 . S
Zn94 O103 1.977 . S
O95 Zn94 2.032 . S
O95 C99 1.278 . S
C96 O97 1.203 . S
C96 O103 1.267 . S
O97 C96 1.203 . S
O98 C91 1.185 . S
O98 Zn94 2.086 . S
C99 O95 1.278 . S
C99 O100 1.211 . S
O100 C99 1.211 . S
C101 O93 1.284 . S
C101 O102 1.273 . S
O102 C101 1.273 . S
O103 Zn94 1.977 . S
O103 C96 1.267 . S
C104 O105 1.160 . S
C104 O111 1.185 . S
O105 C104 1.160 . S
O106 Zn107 1.899 . S
O106 C114 1.284 . S
Zn107 O106 1.899 . S
Zn107 O108 2.032 . S
Zn107 O111 2.086 . S
Zn107 O116 1.977 . S
O108 Zn107 2.032 . S
O108 C112 1.278 . S
C109 O110 1.203 . S
C109 O116 1.267 . S
O110 C109 1.203 . S
O111 C104 1.185 . S
O111 Zn107 2.086 . S
C112 O108 1.278 . S
C112 O113 1.211 . S
O113 C112 1.211 . S
C114 O106 1.284 . S
C114 O115 1.273 . S
O115 C114 1.273 . S
O116 Zn107 1.977 . S
O116 C109 1.267 . S
C117 O118 1.160 . S
C117 O124 1.185 . S
O118 C117 1.160 . S
O119 Zn120 1.899 . S
O119 C127 1.284 . S
Zn120 O119 1.899 . S
Zn120 O121 2.032 . S
Zn120 O124 2.086 . S
Zn120 O129 1.977 . S
O121 Zn120 2.032 . S
O121 C125 1.278 . S
C122 O123 1.203 . S
C122 O129 1.267 . S
O123 C122 1.203 . S
O124 C117 1.185 . S
O124 Zn120 2.086 . S
C125 O121 1.278 . S
C125 O126 1.211 . S
O126 C125 1.211 . S
C127 O119 1.284 . S
C127 O128 1.273 . S
O128 C127 1.273 . S
O129 Zn120 1.977 . S
O129 C122 1.267 . S
C130 O131 1.160 . S
C130 O137 1.185 . S
O131 C130 1.160 . S
O132 Zn133 1.899 . S
O132 C140 1.284 . S
Zn133 O132 1.899 . S
Zn133 O134 2.032 . S
Zn133 O137 2.086 . S
Zn133 O142 1.977 . S
O134 Zn133 2.032 . S
O134 C138 1.278 . S
C135 O136 1.203 . S
C135 O142 1.267 . S
O136 C135 1.203 . S
O137 C130 1.185 . S
O137 Zn133 2.086 . S
C138 O134 1.278 . S
C138 O139 1.211 . S
O139 C138 1.211 . S
C140 O132 1.284 . S
C140 O141 1.273 . S
O141 C140 1.273 . S
O142 Zn133 1.977 . S
O142 C135 1.267 . S
C143 O144 1.160 . S
C143 O150 1.185 . S
O144 C143 1.160 . S
O145 Zn146 1.899 . S
O145 C153 1.284 . S
Zn146 O145 1.899 . S
Zn146 O147 2.032 . S
Zn146 O150 2.086 . S
Zn146 O155 1.977 . S
O147 Zn146 2.032 . S
O147 C151 1.278 . S
C148 O149 1.203 . S
C148 O155 1.267 . S
O149 C148 1.203 . S
O150 C143 1.185 . S
O150 Zn146 2.086 . S
C151 O147 1.278 . S
C151 O152 1.211 . S
O152 C151 1.211 . S
C153 O145 1.284 . S
C153 O154 1.273 . S
O154 C153 1.273 . S
O155 Zn146 1.977 . S
O155 C148 1.267 . S
C156 O157 1.160 . S
C156 O163 1.185 . S
O157 C156 1.160 . S
O158 Zn159 1.899 . S
O158 C166 1.284 . S
Zn159 O158 1.899 . S
Zn159 O160 2.032 . S
Zn159 O163 2.086 . S
Zn159 O168 1.977 . S
O160 Zn159 2.032 . S
O160 C164 1.278 . S
C161 O162 1.203 . S
C161 O168 1.267 . S
O162 C161 1.203 . S
O163 C156 1.185 . S
O163 Zn159 2.086 . S
C164 O160 1.278 . S
C164 O165 1.211 . S
O165 C164 1.211 . S
C166 O158 1.284 . S
C166 O167 1.273 . S
O167 C166 1.273 . S
O168 Zn159 1.977 . S
O168 C161 1.267 . S
C169 O170 1.160 . S
C169 O176 1.185 . S
O170 C169 1.160 . S
O171 Zn172 1.899 . S
O171 C179 1.284 . S
Zn172 O171 1.899 . S
Zn172 O173 2.032 . S
Zn172 O176 2.086 . S
Zn172 O181 1.977 . S
O173 Zn172 2.032 . S
O173 C177 1.278 . S
C174 O175 1.203 . S
C174 O181 1.267 . S
O175 C174 1.203 . S
O176 C169 1.185 . S
O176 Zn172 2.086 . S
C177 O173 1.278 . S
C177 O178 1.211 . S
O178 C177 1.211 . S
C179 O171 1.284 . S
C179 O180 1.273 . S
O180 C179 1.273 . S
O181 Zn172 1.977 . S
O181 C174 1.267 . S
C182 O183 1.160 . S
C182 O189 1.185 . S
O183 C182 1.160 . S
O184 Zn185 1.899 . S
O184 C192 1.284 . S
Zn185 O184 1.899 . S
Zn185 O186 2.032 . S
Zn185 O189 2.086 . S
Zn185 O194 1.977 . S
O186 Zn185 2.032 . S
O186 C190 1.278 . S
C187 O188 1.203 . S
C187 O194 1.267 . S
O188 C187 1.203 . S
O189 C182 1.185 . S
O189 Zn185 2.086 . S
C190 O186 1.278 . S
C190 O191 1.211 . S
O191 C190 1.211 . S
C192 O184 1.284 . S
C192 O193 1.273 . S
O193 C192 1.273 . S
O194 Zn185 1.977 . S
O194 C187 1.267 . S
C195 O196 1.160 . S
C195 O202 1.185 . S
O196 C195 1.160 . S
O197 Zn198 1.899 . S
O197 C205 1.284 . S
Zn198 O197 1.899 . S
Zn198 O199 2.032 . S
Zn198 O202 2.086 . S
Zn198 O207 1.977 . S
O199 Zn198 2.032 . S
O199 C203 1.278 . S
C200 O201 1.203 . S
C200 O207 1.267 . S
O201 C200 1.203 . S
O202 C195 1.185 . S
O202 Zn198 2.086 . S
C203 O199 1.278 . S
C203 O204 1.211 . S
O204 C203 1.211 . S
C205 O197 1.284 . S
C205 O206 1.273 . S
O206 C205 1.273 . S
O207 Zn198 1.977 . S
O207 C200 1.267 . S
C208 O209 1.160 . S
C208 O215 1.185 . S
O209 C208 1.160 . S
O210 Zn211 1.899 . S
O210 C218 1.284 . S
Zn211 O210 1.899 . S
Zn211 O212 2.032 . S
Zn211 O215 2.086 . S
Zn211 O220 1.977 . S
O212 Zn211 2.032 . S
O212 C216 1.278 . S
C213 O214 1.203 . S
C213 O220 1.267 . S
O214 C213 1.203 . S
O215 C208 1.185 . S
O215 Zn211 2.086 . S
C216 O212 1.278 . S
C216 O217 1.211 . S
O217 C216 1.211 . S
C218 O210 1.284 . S
C218 O219 1.273 . S
O219 C218 1.273 . S
O220 Zn211 1.977 . S
O220 C213 1.267 . S
C221 O222 1.160 . S
C221 O228 1.185 . S
O222 C221 1.160 . S
O223 Zn224 1.899 . S
O223 C231 1.284 . S
Zn224 O223 1.899 . S
Zn224 O225 2.032 . S
Zn224 O228 2.086 . S
Zn224 O233 1.977 . S
O225 Zn224 2.032 . S
O225 C229 1.278 . S
C226 O227 1.203 . S
C226 O233 1.267 . S
O227 C226 1.203 . S
O228 C221 1.185 . S
O228 Zn224 2.086 . S
C229 O225 1.278 . S
C229 O230 1.211 . S
O230 C229 1.211 . S
C231 O223 1.284 . S
C231 O232 1.273 . S
O232 C231 1.273 . S
O233 Zn224 1.977 . S
O233 C226 1.267 . S
C234 O235 1.160 . S
C234 O241 1.185 . S
O235 C234 1.160 . S
O236 Zn237 1.899 . S
O236 C244 1.284 . S
Zn237 O236 1.899 . S
Zn237 O238 2.032 . S
Zn237 O241 2.086 . S
Zn237 O246 1.977 . S
O238 Zn237 2.032 . S
O238 C242 1.278 . S
C239 O240 1.203 . S
C239 O246 1.267 . S
O240 C239 1.203 . S
O241 C234 1.185 . S
O241 Zn237 2.086 . S
C242 O238 1.278 . S
C242 O243 1.211 . S
O243 C242 1.211 . S
C244 O236 1.284 . S
C244 O245 1.273 . S
O245 C244 1.273 . S
O246 Zn237 1.977 . S
O246 C239 1.267 . S
C247 O248 1.160 . S
C247 O254 1.185 . S
O248 C247 1.160 . S
O249 Zn250 1.899 . S
O249 C257 1.284 . S
Zn250 O249 1.899 . S
Zn250 O251 2.032 . S
Zn250 O254 2.086 . S
Zn250 O259 1.977 . S
O251 Zn250 2.032 . S
O251 C255 1.278 . S
C252 O253 1.203 . S
C252 O259 1.267 . S
O253 C252 1.203 . S
O254 C247 1.185 . S
O254 Zn250 2.086 . S
C255 O251 1.278 . S
C255 O256 1.211 . S
O256 C255 1.211 . S
C257 O249 1.284 . S
C257 O258 1.273 . S
O258 C257 1.273 . S
O259 Zn250 1.977 . S
O259 C252 1.267 . S
C260 O261 1.160 . S
C260 O267 1.185 . S
O261 C260 1.160 . S
O262 Zn263 1.899 . S
O262 C270 1.284 . S
Zn263 O262 1.899 . S
Zn263 O264 2.032 . S
Zn263 O267 2.086 . S
Zn263 O272 1.977 . S
O264 Zn263 2.032 . S
O264 C268 1.278 . S
C265 O266 1.203 . S
C265 O272 1.267 . S
O266 C265 1.203 . S
O267 C260 1.185 . S
O267 Zn263 2.086 . S
C268 O264 1.278 . S
C268 O269 1.211 . S
O269 C268 1.211 . S
C270 O262 1.284 . S
C270 O271 1.273 . S
O271 C270 1.273 . S
O272 Zn263 1.977 . S
O272 C265 1.267 . S
C273 O274 1.160 . S
C273 O280 1.185 . S
O274 C273 1.160 . S
O275 Zn276 1.899 . S
O275 C283 1.284 . S
Zn276 O275 1.899 . S
Zn276 O277 2.032 . S
Zn276 O280 2.086 . S
Zn276 O285 1.977 . S
O277 Zn276 2.032 . S
O277 C281 1.278 . S
C278 O279 1.203 . S
C278 O285 1.267 . S
O279 C278 1.203 . S
O280 C273 1.185 . S
O280 Zn276 2.086 . S
C281 O277 1.278 . S
C281 O282 1.211 . S
O282 C281 1.211 . S
C283 O275 1.284 . S
C283 O284 1.273 . S
O284 C283 1.273 . S
O285 Zn276 1.977 . S
O285 C278 1.267 . S
C286 O287 1.160 . S
C286 O293 1.185 . S
O287 C286 1.160 . S
O288 Zn289 1.899 . S
O288 C296 1.284 . S
Zn289 O288 1.899 . S
Zn289 O290 2.032 . S
Zn289 O293 2.086 . S
Zn289 O298 1.977 . S
O290 Zn289 2.032 . S
O290 C294 1.278 . S
C291 O292 1.203 . S
C291 O298 1.267 . S
O292 C291 1.203 . S
O293 C286 1.185 . S
O293 Zn289 2.086 . S
C294 O290 1.278 . S
C294 O295 1.211 . S
O295 C294 1.211 . S
C296 O288 1.284 . S
C296 O297 1.273 . S
O297 C296 1.273 . S
O298 Zn289 1.977 . S
O298 C291 1.267 . S
C299 O300 1.160 . S
C299 O306 1.185 . S
O300 C299 1.160 . S
O301 Zn302 1.899 . S
O301 C309 1.284 . S
Zn302 O301 1.899 . S
Zn302 O303 2.032 . S
Zn302 O306 2.086 . S
Zn302 O311 1.977 . S
O303 Zn302 2.032 . S
O303 C307 1.278 . S
C304 O305 1.203 . S
C304 O311 1.267 . S
O305 C304 1.203 . S
O306 C299 1.185 . S
O306 Zn302 2.086 . S
C307 O303 1.278 . S
C307 O308 1.211 . S
O308 C307 1.211 . S
C309 O301 1.284 . S
C309 O310 1.273 . S
O310 C309 1.273 . S
O311 Zn302 1.977 . S
O311 C304 1.267 . S
C312 O313 1.160 . S
C312 O319 1.185 . S
O313 C312 1.160 . S
O314 Zn315 1.899 . S
O314 C322 1.284 . S
Zn315 O314 1.899 . S
Zn315 O316 2.032 . S
Zn315 O319 2.086 . S
Zn315 O324 1.977 . S
O316 Zn315 2.032 . S
O316 C320 1.278 . S
C317 O318 1.203 . S
C317 O324 1.267 . S
O318 C317 1.203 . S
O319 C312 1.185 . S
O319 Zn315 2.086 . S
C320 O316 1.278 . S
C320 O321 1.211 . S
O321 C320 1.211 . S
C322 O314 1.284 . S
C322 O323 1.273 . S
O323 C322 1.273 . S
O324 Zn315 1.977 . S
O324 C317 1.267 . S
C325 O326 1.160 . S
C325 O332 1.185 . S
O326 C325 1.160 . S
O327 Zn328 1.899 . S
O327 C335 1.284 . S
Zn328 O327 1.899 . S
Zn328 O329 2.032 . S
Zn328 O332 2.086 . S
Zn328 O337 1.977 . S
O329 Zn328 2.032 . S
O329 C333 1.278 . S
C330 O331 1.203 . S
C330 O337 1.267 . S
O331 C330 1.203 . S
O332 C325 1.185 . S
O332 Zn328 2.086 . S
C333 O329 1.278 . S
C333 O334 1.211 . S
O334 C333 1.211 . S
C335 O327 1.284 . S
C335 O336 1.273 . S
O336 C335 1.273 . S
O337 Zn328 1.977 . S
O337 C330 1.267 . S
C338 O339 1.160 . S
C338 O345 1.185 . S
O339 C338 1.160 . S
O340 Zn341 1.899 . S
O340 C348 1.284 . S
Zn341 O340 1.899 . S
Zn341 O342 2.032 . S
Zn341 O345 2.086 . S
Zn341 O350 1.977 . S
O342 Zn341 2.032 . S
O342 C346 1.278 . S
C343 O344 1.203 . S
C343 O350 1.267 . S
O344 C343 1.203 . S
O345 C338 1.185 . S
O345 Zn341 2.086 . S
C346 O342 1.278 . S
C346 O347 1.211 . S
O347 C346 1.211 . S
C348 O340 1.284 . S
C348 O349 1.273 . S
O349 C348 1.273 . S
O350 Zn341 1.977 . S
O350 C343 1.267 . S
C351 O352 1.160 . S
C351 O358 1.185 . S
O352 C351 1.160 . S
O353 Zn354 1.899 . S
O353 C361 1.284 . S
Zn354 O353 1.899 . S
Zn354 O355 2.032 . S
Zn354 O358 2.086 . S
Zn354 O363 1.977 . S
O355 Zn354 2.032 . S
O355 C359 1.278 . S
C356 O357 1.203 . S
C356 O363 1.267 . S
O357 C356 1.203 . S
O358 C351 1.185 . S
O358 Zn354 2.086 . S
C359 O355 1.278 . S
C359 O360 1.211 . S
O360 C359 1.211 . S
C361 O353 1.284 . S
C361 O362 1.273 . S
O362 C361 1.273 . S
O363 Zn354 1.977 . S
O363 C356 1.267 . S
C364 O365 1.160 . S
C364 O371 1.185 . S
O365 C364 1.160 . S
O366 Zn367 1.899 . S
O366 C374 1.284 . S
Zn367 O366 1.899 . S
Zn367 O368 2.032 . S
Zn367 O371 2.086 . S
Zn367 O376 1.977 . S
O368 Zn367 2.032 . S
O368 C372 1.278 . S
C369 O370 1.203 . S
C369 O376 1.267 . S
O370 C369 1.203 . S
O371 C364 1.185 . S
O371 Zn367 2.086 . S
C372 O368 1.278 . S
C372 O373 1.211 . S
O373 C372 1.211 . S
C374 O366 1.284 . S
C374 O375 1.273 . S
O375 C374 1.273 . S
O376 Zn367 1.977 . S
O376 C369 1.267 . S
C377 O378 1.160 . S
C377 O384 1.185 . S
O378 C377 1.160 . S
O379 Zn380 1.899 . S
O379 C387 1.284 . S
Zn380 O379 1.899 . S
Zn380 O381 2.032 . S
Zn380 O384 2.086 . S
Zn380 O389 1.977 . S
O381 Zn380 2.032 . S
O381 C385 1.278 . S
C382 O383 1.203 . S
C382 O389 1.267 . S
O383 C382 1.203 . S
O384 C377 1.185 . S
O384 Zn380 2.086 . S
C385 O381 1.278 . S
C385 O386 1.211 . S
O386 C385 1.211 . S
C387 O379 1.284 . S
C387 O388 1.273 . S
O388 C387 1.273 . S
O389 Zn380 1.977 . S
O389 C382 1.267 . S
C390 O391 1.160 . S
C390 O397 1.185 . S
O391 C390 1.160 . S
O392 Zn393 1.899 . S
O392 C400 1.284 . S
Zn393 O392 1.899 . S
Zn393 O394 2.032 . S
Zn393 O397 2.086 . S
Zn393 O402 1.977 . S
O394 Zn393 2.032 . S
O394 C398 1.278 . S
C395 O396 1.203 . S
C395 O402 1.267 . S
O396 C395 1.203 . S
O397 C390 1.185 . S
O397 Zn393 2.086 . S
C398 O394 1.278 . S
C398 O399 1.211 . S
O399 C398 1.211 . S
C400 O392 1.284 . S
C400 O401 1.273 . S
O401 C400 1.273 . S
O402 Zn393 1.977 . S
O402 C395 1.267 . S
C403 O404 1.160 . S
C403 O410 1.185 . S
O404 C403 1.160 . S
O405 Zn406 1.899 . S
O405 C413 1.284 . S
Zn406 O405 1.899 . S
Zn406 O407 2.032 . S
Zn406 O410 2.086 . S
Zn406 O415 1.977 . S
O407 Zn406 2.032 . S
O407 C411 1.278 . S
C408 O409 1.203 . S
C408 O415 1.267 . S
O409 C408 1.203 . S
O410 C403 1.185 . S
O410 Zn406 2.086 . S
C411 O407 1.278 . S
C411 O412 1.211 . S
O412 C411 1.211 . S
C413 O405 1.284 . S
C413 O414 1.273 . S
O414 C413 1.273 . S
O415 Zn406 1.977 . S
O415 C408 1.267 . S
C416 O417 1.160 . S
C416 O423 1.185 . S
O417 C416 1.160 . S
O418 Zn419 1.899 . S
O418 C426 1.284 . S
Zn419 O418 1.899 . S
Zn419 O420 2.032 . S
Zn419 O423 2.086 . S
Zn419 O428 1.977 . S
O420 Zn419 2.032 . S
O420 C424 1.278 . S
C421 O422 1.203 . S
C421 O428 1.267 . S
O422 C421 1.203 . S
O423 C416 1.185 . S
O423 Zn419 2.086 . S
C424 O420 1.278 . S
C424 O425 1.211 . S
O425 C424 1.211 . S
C426 O418 1.284 . S
C426 O427 1.273 . S
O427 C426 1.273 . S
O428 Zn419 1.977 . S
O428 C421 1.267 . S
C429 O430 1.160 . S
C429 O436 1.185 . S
O430 C429 1.160 . S
O431 Zn432 1.899 . S
O431 C439 1.284 . S
Zn432 O431 1.899 . S
Zn432 O433 2.032 . S
Zn432 O436 2.086 . S
Zn432 O441 1.977 . S
O433 Zn432 2.032 . S
O433 C437 1.278 . S
C434 O435 1.203 . S
C434 O441 1.267 . S
O435 C434 1.203 . S
O436 C429 1.185 . S
O436 Zn432 2.086 . S
C437 O433 1.278 . S
C437 O438 1.211 . S
O438 C437 1.211 . S
C439 O431 1.284 . S
C439 O440 1.273 . S
O440 C439 1.273 . S
O441 Zn432 1.977 . S
O441 C434 1.267 . S
C442 O443 1.160 . S
C442 O449 1.185 . S
O443 C442 1.160 . S
O444 Zn445 1.899 . S
O444 C452 1.284 . S
Zn445 O444 1.899 . S
Zn445 O446 2.032 . S
Zn445 O449 2.086 . S
Zn445 O454 1.977 . S
O446 Zn445 2.032 . S
O446 C450 1.278 . S
C447 O448 1.203 . S
C447 O454 1.267 . S
O448 C447 1.203 . S
O449 C442 1.185 . S
O449 Zn445 2.086 . S
C450 O446 1.278 . S
C450 O451 1.211 . S
O451 C450 1.211 . S
C452 O444 1.284 . S
C452 O453 1.273 . S
O453 C452 1.273 . S
O454 Zn445 1.977 . S
O454 C447 1.267 . S
C455 O456 1.160 . S
C455 O462 1.185 . S
O456 C455 1.160 . S
O457 Zn458 1.899 . S
O457 C465 1.284 . S
Zn458 O457 1.899 . S
Zn458 O459 2.032 . S
Zn458 O462 2.086 . S
Zn458 O467 1.977 . S
O459 Zn458 2.032 . S
O459 C463 1.278 . S
C460 O461 1.203 . S
C460 O467 1.267 . S
O461 C460 1.203 . S
O462 C455 1.185 . S
O462 Zn458 2.086 . S
C463 O459 1.278 . S
C463 O464 1.211 . S
O464 C463 1.211 . S
C465 O457 1.284 . S
C465 O466 1.273 . S
O466 C465 1.273 . S
O467 Zn458 1.977 . S
O467 C460 1.267 . S
C468 C469 1.349 . S
C468 C470 1.327 . S
C468 H493 0.950 . S
C469 C468 1.349 . S
C469 C485 1.349 . S
C470 C468 1.327 . S
C470 C489 1.429 . S
C470 H494 0.950 . S
C471 C488 1.574 . S
C471 C490 1.368 . S
C471 H495 0.949 . S
H472 C476 0.949 . S
C473 C474 1.349 . S
C473 C475 1.327 . S
C473 H496 0.950 . S
C474 C473 1.349 . S
C474 C486 1.349 . S
C475 C473 1.327 . S
C475 C491 1.429 . S
C475 H497 0.950 . S
C476 H472 0.949 . S
C476 C484 1.574 . S
C476 C492 1.368 . S
H477 C485 0.950 . S
H478 C483 0.950 . S
H479 C484 0.949 . S
H480 C486 0.950 . S
H481 C487 0.950 . S
H482 C488 0.949 . S
C483 H478 0.950 . S
C483 C485 1.327 . S
C483 C489 1.429 . S
C484 C476 1.574 . S
C484 H479 0.949 . S
C484 C490 1.368 . S
C485 C469 1.349 . S
C485 H477 0.950 . S
C485 C483 1.327 . S
C486 C474 1.349 . S
C486 H480 0.950 . S
C486 C487 1.327 . S
C487 H481 0.950 . S
C487 C486 1.327 . S
C487 C491 1.429 . S
C488 C471 1.574 . S
C488 H482 0.949 . S
C488 C492 1.368 . S
C489 C470 1.429 . S
C489 C483 1.429 . S
C489 C490 1.523 . S
C490 C471 1.368 . S
C490 C484 1.368 . S
C490 C489 1.523 . S
C491 C475 1.429 . S
C491 C487 1.429 . S
C491 C492 1.523 . S
C492 C476 1.368 . S
C492 C488 1.368 . S
C492 C491 1.523 . S
H493 C468 0.950 . S
H494 C470 0.950 . S
H495 C471 0.949 . S
H496 C473 0.950 . S
H497 C475 0.950 . S
C498 C499 1.349 . S
C498 C500 1.327 . S
C498 H523 0.950 . S
C499 C498 1.349 . S
C499 C515 1.349 . S
C500 C498 1.327 . S
C500 C519 1.429 . S
C500 H524 0.950 . S
C501 C518 1.574 . S
C501 C520 1.368 . S
C501 H525 0.949 . S
H502 C506 0.949 . S
C503 C504 1.349 . S
C503 C505 1.327 . S
C503 H526 0.950 . S
C504 C503 1.349 . S
C504 C516 1.349 . S
C505 C503 1.327 . S
C505 C521 1.429 . S
C505 H527 0.950 . S
C506 H502 0.949 . S
C506 C514 1.574 . S
C506 C522 1.368 . S
H507 C515 0.950 . S
H508 C513 0.950 . S
H509 C514 0.949 . S
H510 C516 0.950 . S
H511 C517 0.950 . S
H512 C518 0.949 . S
C513 H508 0.950 . S
C513 C515 1.327 . S
C513 C519 1.429 . S
C514 C506 1.574 . S
C514 H509 0.949 . S
C514 C520 1.368 . S
C515 C499 1.349 . S
C515 H507 0.950 . S
C515 C513 1.327 . S
C516 C504 1.349 . S
C516 H510 0.950 . S
C516 C517 1.327 . S
C517 H511 0.950 . S
C517 C516 1.327 . S
C517 C521 1.429 . S
C518 C501 1.574 . S
C518 H512 0.949 . S
C518 C522 1.368 . S
C519 C500 1.429 . S
C519 C513 1.429 . S
C519 C520 1.523 . S
C520 C501 1.368 . S
C520 C514 1.368 . S
C520 C519 1.523 . S
C521 C505 1.429 . S
C521 C517 1.429 . S
C521 C522 1.523 . S
C522 C506 1.368 . S
C522 C518 1.368 . S
C522 C521 1.523 . S
H523 C498 0.950 . S
H524 C500 0.950 . S
H525 C501 0.949 . S
H526 C503 0.950 . S
H527 C505 0.950 . S
C528 C529 1.349 . S
C528 C530 1.327 . S
C528 H553 0.950 . S
C529 C528 1.349 . S
C529 C545 1.349 . S
C530 C528 1.327 . S
C530 C549 1.429 . S
C530 H554 0.950 . S
C531 C548 1.574 . S
C531 C550 1.368 . S
C531 H555 0.949 . S
H532 C536 0.949 . S
C533 C534 1.349 . S
C533 C535 1.327 . S
C533 H556 0.950 . S
C534 C533 1.349 . S
C534 C546 1.349 . S
C535 C533 1.327 . S
C535 C551 1.429 . S
C535 H557 0.950 . S
C536 H532 0.949 . S
C536 C544 1.574 . S
C536 C552 1.368 . S
H537 C545 0.950 . S
H538 C543 0.950 . S
H539 C544 0.949 . S
H540 C546 0.950 . S
H541 C547 0.950 . S
H542 C548 0.949 . S
C543 H538 0.950 . S
C543 C545 1.327 . S
C543 C549 1.429 . S
C544 C536 1.574 . S
C544 H539 0.949 . S
C544 C550 1.368 . S
C545 C529 1.349 . S
C545 H537 0.950 . S
C545 C543 1.327 . S
C546 C534 1.349 . S
C546 H540 0.950 . S
C546 C547 1.327 . S
C547 H541 0.950 . S
C547 C546 1.327 . S
C547 C551 1.429 . S
C548 C531 1.574 . S
C548 H542 0.949 . S
C548 C552 1.368 . S
C549 C530 1.429 . S
C549 C543 1.429 . S
C549 C550 1.523 . S
C550 C531 1.368 . S
C550 C544 1.368 . S
C550 C549 1.523 . S
C551 C535 1.429 . S
C551 C547 1.429 . S
C551 C552 1.523 . S
C552 C536 1.368 . S
C552 C548 1.368 . S
C552 C551 1.523 . S
H553 C528 0.950 . S
H554 C530 0.950 . S
H555 C531 0.949 . S
H556 C533 0.950 . S
H557 C535 0.950 . S
C558 C559 1.349 . S
C558 C560 1.327 . S
C558 H583 0.950 . S
C559 C558 1.349 . S
C559 C575 1.349 . S
C560 C558 1.327 . S
C560 C579 1.429 . S
C560 H584 0.950 . S
C561 C578 1.574 . S
C561 C580 1.368 . S
C561 H585 0.949 . S
H562 C566 0.949 . S
C563 C564 1.349 . S
C563 C565 1.327 . S
C563 H586 0.950 . S
C564 C563 1.349 . S
C564 C576 1.349 . S
C565 C563 1.327 . S
C565 C581 1.429 . S
C565 H587 0.950 . S
C566 H562 0.949 . S
C566 C574 1.574 . S
C566 C582 1.368 . S
H567 C575 0.950 . S
H568 C573 0.950 . S
H569 C574 0.949 . S
H570 C576 0.950 . S
H571 C577 0.950 . S
H572 C578 0.949 . S
C573 H568 0.950 . S
C573 C575 1.327 . S
C573 C579 1.429 . S
C574 C566 1.574 . S
C574 H569 0.949 . S
C574 C580 1.368 . S
C575 C559 1.349 . S
C575 H567 0.950 . S
C575 C573 1.327 . S
C576 C564 1.349 . S
C576 H570 0.950 . S
C576 C577 1.327 . S
C577 H571 0.950 . S
C577 C576 1.327 . S
C577 C581 1.429 . S
C578 C561 1.574 . S
C578 H572 0.949 . S
C578 C582 1.368 . S
C579 C560 1.429 . S
C579 C573 1.429 . S
C579 C580 1.523 . S
C580 C561 1.368 . S
C580 C574 1.368 . S
C580 C579 1.523 . S
C581 C565 1.429 . S
C581 C577 1.429 . S
C581 C582 1.523 . S
C582 C566 1.368 . S
C582 C578 1.368 . S
C582 C581 1.523 . S
H583 C558 0.950 . S
H584 C560 0.950 . S
H585 C561 0.949 . S
H586 C563 0.950 . S
H587 C565 0.950 . S
C588 C589 1.349 . S
C588 C590 1.327 . S
C588 H613 0.950 . S
C589 C588 1.349 . S
C589 C605 1.349 . S
C590 C588 1.327 . S
C590 C609 1.429 . S
C590 H614 0.950 . S
C591 C608 1.574 . S
C591 C610 1.368 . S
C591 H615 0.949 . S
H592 C596 0.949 . S
C593 C594 1.349 . S
C593 C595 1.327 . S
C593 H616 0.950 . S
C594 C593 1.349 . S
C594 C606 1.349 . S
C595 C593 1.327 . S
C595 C611 1.429 . S
C595 H617 0.950 . S
C596 H592 0.949 . S
C596 C604 1.574 . S
C596 C612 1.368 . S
H597 C605 0.950 . S
H598 C603 0.950 . S
H599 C604 0.949 . S
H600 C606 0.950 . S
H601 C607 0.950 . S
H602 C608 0.949 . S
C603 H598 0.950 . S
C603 C605 1.327 . S
C603 C609 1.429 . S
C604 C596 1.574 . S
C604 H599 0.949 . S
C604 C610 1.368 . S
C605 C589 1.349 . S
C605 H597 0.950 . S
C605 C603 1.327 . S
C606 C594 1.349 . S
C606 H600 0.950 . S
C606 C607 1.327 . S
C607 H601 0.950 . S
C607 C606 1.327 . S
C607 C611 1.429 . S
C608 C591 1.574 . S
C608 H602 0.949 . S
C608 C612 1.368 . S
C609 C590 1.429 . S
C609 C603 1.429 . S
C609 C610 1.523 . S
C610 C591 1.368 . S
C610 C604 1.368 . S
C610 C609 1.523 . S
C611 C595 1.429 . S
C611 C607 1.429 . S
C611 C612 1.523 . S
C612 C596 1.368 . S
C612 C608 1.368 . S
C612 C611 1.523 . S
H613 C588 0.950 . S
H614 C590 0.950 . S
H615 C591 0.949 . S
H616 C593 0.950 . S
H617 C595 0.950 . S
C618 C619 1.349 . S
C618 C620 1.327 . S
C618 H643 0.950 . S
C619 C618 1.349 . S
C619 C635 1.349 . S
C620 C618 1.327 . S
C620 C639 1.429 . S
C620 H644 0.950 . S
C621 C638 1.574 . S
C621 C640 1.368 . S
C621 H645 0.949 . S
H622 C626 0.949 . S
C623 C624 1.349 . S
C623 C625 1.327 . S
C623 H646 0.950 . S
C624 C623 1.349 . S
C624 C636 1.349 . S
C625 C623 1.327 . S
C625 C641 1.429 . S
C625 H647 0.950 . S
C626 H622 0.949 . S
C626 C634 1.574 . S
C626 C642 1.368 . S
H627 C635 0.950 . S
H628 C633 0.950 . S
H629 C634 0.949 . S
H630 C636 0.950 . S
H631 C637 0.950 . S
H632 C638 0.949 . S
C633 H628 0.950 . S
C633 C635 1.327 . S
C633 C639 1.429 . S
C634 C626 1.574 . S
C634 H629 0.949 . S
C634 C640 1.368 . S
C635 C619 1.349 . S
C635 H627 0.950 . S
C635 C633 1.327 . S
C636 C624 1.349 . S
C636 H630 0.950 . S
C636 C637 1.327 . S
C637 H631 0.950 . S
C637 C636 1.327 . S
C637 C641 1.429 . S
C638 C621 1.574 . S
C638 H632 0.949 . S
C638 C642 1.368 . S
C639 C620 1.429 . S
C639 C633 1.429 . S
C639 C640 1.523 . S
C640 C621 1.368 . S
C640 C634 1.368 . S
C640 C639 1.523 . S
C641 C625 1.429 . S
C641 C637 1.429 . S
C641 C642 1.523 . S
C642 C626 1.368 . S
C642 C638 1.368 . S
C642 C641 1.523 . S
H643 C618 0.950 . S
H644 C620 0.950 . S
H645 C621 0.949 . S
H646 C623 0.950 . S
H647 C625 0.950 . S
C648 C649 1.349 . S
C648 C650 1.327 . S
C648 H673 0.950 . S
C649 C648 1.349 . S
C649 C665 1.349 . S
C650 C648 1.327 . S
C650 C669 1.429 . S
C650 H674 0.950 . S
C651 C668 1.574 . S
C651 C670 1.368 . S
C651 H675 0.949 . S
H652 C656 0.949 . S
C653 C654 1.349 . S
C653 C655 1.327 . S
C653 H676 0.950 . S
C654 C653 1.349 . S
C654 C666 1.349 . S
C655 C653 1.327 . S
C655 C671 1.429 . S
C655 H677 0.950 . S
C656 H652 0.949 . S
C656 C664 1.574 . S
C656 C672 1.368 . S
H657 C665 0.950 . S
H658 C663 0.950 . S
H659 C664 0.949 . S
H660 C666 0.950 . S
H661 C667 0.950 . S
H662 C668 0.949 . S
C663 H658 0.950 . S
C663 C665 1.327 . S
C663 C669 1.429 . S
C664 C656 1.574 . S
C664 H659 0.949 . S
C664 C670 1.368 . S
C665 C649 1.349 . S
C665 H657 0.950 . S
C665 C663 1.327 . S
C666 C654 1.349 . S
C666 H660 0.950 . S
C666 C667 1.327 . S
C667 H661 0.950 . S
C667 C666 1.327 . S
C667 C671 1.429 . S
C668 C651 1.574 . S
C668 H662 0.949 . S
C668 C672 1.368 . S
C669 C650 1.429 . S
C669 C663 1.429 . S
C669 C670 1.523 . S
C670 C651 1.368 . S
C670 C664 1.368 . S
C670 C669 1.523 . S
C671 C655 1.429 . S
C671 C667 1.429 . S
C671 C672 1.523 . S
C672 C656 1.368 . S
C672 C668 1.368 . S
C672 C671 1.523 . S
H673 C648 0.950 . S
H674 C650 0.950 . S
H675 C651 0.949 . S
H676 C653 0.950 . S
H677 C655 0.950 . S
C678 C679 1.349 . S
C678 C680 1.327 . S
C678 H703 0.950 . S
C679 C678 1.349 . S
C679 C695 1.349 . S
C680 C678 1.327 . S
C680 C699 1.429 . S
C680 H704 0.950 . S
C681 C698 1.574 . S
C681 C700 1.368 . S
C681 H705 0.949 . S
H682 C686 0.949 . S
C683 C684 1.349 . S
C683 C685 1.327 . S
C683 H706 0.950 . S
C684 C683 1.349 . S
C684 C696 1.349 . S
C685 C683 1.327 . S
C685 C701 1.429 . S
C685 H707 0.950 . S
C686 H682 0.949 . S
C686 C694 1.574 . S
C686 C702 1.368 . S
H687 C695 0.950 . S
H688 C693 0.950 . S
H689 C694 0.949 . S
H690 C696 0.950 . S
H691 C697 0.950 . S
H692 C698 0.949 . S
C693 H688 0.950 . S
C693 C695 1.327 . S
C693 C699 1.429 . S
C694 C686 1.574 . S
C694 H689 0.949 . S
C694 C700 1.368 . S
C695 C679 1.349 . S
C695 H687 0.950 . S
C695 C693 1.327 . S
C696 C684 1.349 . S
C696 H690 0.950 . S
C696 C697 1.327 . S
C697 H691 0.950 . S
C697 C696 1.327 . S
C697 C701 1.429 . S
C698 C681 1.574 . S
C698 H692 0.949 . S
C698 C702 1.368 . S
C699 C680 1.429 . S
C699 C693 1.429 . S
C699 C700 1.523 . S
C700 C681 1.368 . S
C700 C694 1.368 . S
C700 C699 1.523 . S
C701 C685 1.429 . S
C701 C697 1.429 . S
C701 C702 1.523 . S
C702 C686 1.368 . S
C702 C698 1.368 . S
C702 C701 1.523 . S
H703 C678 0.950 . S
H704 C680 0.950 . S
H705 C681 0.949 . S
H706 C683 0.950 . S
H707 C685 0.950 . S
C708 C709 1.349 . S
C708 C710 1.327 . S
C708 H733 0.950 . S
C709 C708 1.349 . S
C709 C725 1.349 . S
C710 C708 1.327 . S
C710 C729 1.429 . S
C710 H734 0.950 . S
C711 C728 1.574 . S
C711 C730 1.368 . S
C711 H735 0.949 . S
H712 C716 0.949 . S
C713 C714 1.349 . S
C713 C715 1.327 . S
C713 H736 0.950 . S
C714 C713 1.349 . S
C714 C726 1.349 . S
C715 C713 1.327 . S
C715 C731 1.429 . S
C715 H737 0.950 . S
C716 H712 0.949 . S
C716 C724 1.574 . S
C716 C732 1.368 . S
H717 C725 0.950 . S
H718 C723 0.950 . S
H719 C724 0.949 . S
H720 C726 0.950 . S
H721 C727 0.950 . S
H722 C728 0.949 . S
C723 H718 0.950 . S
C723 C725 1.327 . S
C723 C729 1.429 . S
C724 C716 1.574 . S
C724 H719 0.949 . S
C724 C730 1.368 . S
C725 C709 1.349 . S
C725 H717 0.950 . S
C725 C723 1.327 . S
C726 C714 1.349 . S
C726 H720 0.950 . S
C726 C727 1.327 . S
C727 H721 0.950 . S
C727 C726 1.327 . S
C727 C731 1.429 . S
C728 C711 1.574 . S
C728 H722 0.949 . S
C728 C732 1.368 . S
C729 C710 1.429 . S
C729 C723 1.429 . S
C729 C730 1.523 . S
C730 C711 1.368 . S
C730 C724 1.368 . S
C730 C729 1.523 . S
C731 C715 1.429 . S
C731 C727 1.429 . S
C731 C732 1.523 . S
C732 C716 1.368 . S
C732 C728 1.368 . S
C732 C731 1.523 . S
H733 C708 0.950 . S
H734 C710 0.950 . S
H735 C711 0.949 . S
H736 C713 0.950 . S
H737 C715 0.950 . S
C738 C739 1.349 . S
C738 C740 1.327 . S
C738 H763 0.950 . S
C739 C738 1.349 . S
C739 C755 1.349 . S
C740 C738 1.327 . S
C740 C759 1.429 . S
C740 H764 0.950 . S
C741 C758 1.574 . S
C741 C760 1.368 . S
C741 H765 0.949 . S
H742 C746 0.949 . S
C743 C744 1.349 . S
C743 C745 1.327 . S
C743 H766 0.950 . S
C744 C743 1.349 . S
C744 C756 1.349 . S
C745 C743 1.327 . S
C745 C761 1.429 . S
C745 H767 0.950 . S
C746 H742 0.949 . S
C746 C754 1.574 . S
C746 C762 1.368 . S
H747 C755 0.950 . S
H748 C753 0.950 . S
H749 C754 0.949 . S
H750 C756 0.950 . S
H751 C757 0.950 . S
H752 C758 0.949 . S
C753 H748 0.950 . S
C753 C755 1.327 . S
C753 C759 1.429 . S
C754 C746 1.574 . S
C754 H749 0.949 . S
C754 C760 1.368 . S
C755 C739 1.349 . S
C755 H747 0.950 . S
C755 C753 1.327 . S
C756 C744 1.349 . S
C756 H750 0.950 . S
C756 C757 1.327 . S
C757 H751 0.950 . S
C757 C756 1.327 . S
C757 C761 1.429 . S
C758 C741 1.574 . S
C758 H752 0.949 . S
C758 C762 1.368 . S
C759 C740 1.429 . S
C759 C753 1.429 . S
C759 C760 1.523 . S
C760 C741 1.368 . S
C760 C754 1.368 . S
C760 C759 1.523 . S
C761 C745 1.429 . S
C761 C757 1.429 . S
C761 C762 1.523 . S
C762 C746 1.368 . S
C762 C758 1.368 . S
C762 C761 1.523 . S
H763 C738 0.950 . S
H764 C740 0.950 . S
H765 C741 0.949 . S
H766 C743 0.950 . S
H767 C745 0.950 . S
C768 C769 1.349 . S
C768 C770 1.327 . S
C768 H793 0.950 . S
C769 C768 1.349 . S
C769 C785 1.349 . S
C770 C768 1.327 . S
C770 C789 1.429 . S
C770 H794 0.950 . S
C771 C788 1.574 . S
C771 C790 1.368 . S
C771 H795 0.949 . S
H772 C776 0.949 . S
C773 C774 1.349 . S
C773 C775 1.327 . S
C773 H796 0.950 . S
C774 C773 1.349 . S
C774 C786 1.349 . S
C775 C773 1.327 . S
C775 C791 1.429 . S
C775 H797 0.950 . S
C776 H772 0.949 . S
C776 C784 1.574 . S
C776 C792 1.368 . S
H777 C785 0.950 . S
H778 C783 0.950 . S
H779 C784 0.949 . S
H780 C786 0.950 . S
H781 C787 0.950 . S
H782 C788 0.949 . S
C783 H778 0.950 . S
C783 C785 1.327 . S
C783 C789 1.429 . S
C784 C776 1.574 . S
C784 H779 0.949 . S
C784 C790 1.368 . S
C785 C769 1.349 . S
C785 H777 0.950 . S
C785 C783 1.327 . S
C786 C774 1.349 . S
C786 H780 0.950 . S
C786 C787 1.327 . S
C787 H781 0.950 . S
C787 C786 1.327 . S
C787 C791 1.429 . S
C788 C771 1.574 . S
C788 H782 0.949 . S
C788 C792 1.368 . S
C789 C770 1.429 . S
C789 C783 1.429 . S
C789 C790 1.523 . S
C790 C771 1.368 . S
C790 C784 1.368 . S
C790 C789 1.523 . S
C791 C775 1.429 . S
C791 C787 1.429 . S
C791 C792 1.523 . S
C792 C776 1.368 . S
C792 C788 1.368 . S
C792 C791 1.523 . S
H793 C768 0.950 . S
H794 C770 0.950 . S
H795 C771 0.949 . S
H796 C773 0.950 . S
H797 C775 0.950 . S
C798 C799 1.349 . S
C798 C800 1.327 . S
C798 H823 0.950 . S
C799 C798 1.349 . S
C799 C815 1.349 . S
C800 C798 1.327 . S
C800 C819 1.429 . S
C800 H824 0.950 . S
C801 C818 1.574 . S
C801 C820 1.368 . S
C801 H825 0.949 . S
H802 C806 0.949 . S
C803 C804 1.349 . S
C803 C805 1.327 . S
C803 H826 0.950 . S
C804 C803 1.349 . S
C804 C816 1.349 . S
C805 C803 1.327 . S
C805 C821 1.429 . S
C805 H827 0.950 . S
C806 H802 0.949 . S
C806 C814 1.574 . S
C806 C822 1.368 . S
H807 C815 0.950 . S
H808 C813 0.950 . S
H809 C814 0.949 . S
H810 C816 0.950 . S
H811 C817 0.950 . S
H812 C818 0.949 . S
C813 H808 0.950 . S
C813 C815 1.327 . S
C813 C819 1.429 . S
C814 C806 1.574 . S
C814 H809 0.949 . S
C814 C820 1.368 . S
C815 C799 1.349 . S
C815 H807 0.950 . S
C815 C813 1.327 . S
C816 C804 1.349 . S
C816 H810 0.950 . S
C816 C817 1.327 . S
C817 H811 0.950 . S
C817 C816 1.327 . S
C817 C821 1.429 . S
C818 C801 1.574 . S
C818 H812 0.949 . S
C818 C822 1.368 . S
C819 C800 1.429 . S
C819 C813 1.429 . S
C819 C820 1.523 . S
C820 C801 1.368 . S
C820 C814 1.368 . S
C820 C819 1.523 . S
C821 C805 1.429 . S
C821 C817 1.429 . S
C821 C822 1.523 . S
C822 C806 1.368 . S
C822 C818 1.368 . S
C822 C821 1.523 . S
H823 C798 0.950 . S
H824 C800 0.950 . S
H825 C801 0.949 . S
H826 C803 0.950 . S
H827 C805 0.950 . S
C828 C829 1.349 . S
C828 C830 1.327 . S
C828 H853 0.950 . S
C829 C828 1.349 . S
C829 C845 1.349 . S
C830 C828 1.327 . S
C830 C849 1.429 . S
C830 H854 0.950 . S
C831 C848 1.574 . S
C831 C850 1.368 . S
C831 H855 0.949 . S
H832 C836 0.949 . S
C833 C834 1.349 . S
C833 C835 1.327 . S
C833 H856 0.950 . S
C834 C833 1.349 . S
C834 C846 1.349 . S
C835 C833 1.327 . S
C835 C851 1.429 . S
C835 H857 0.950 . S
C836 H832 0.949 . S
C836 C844 1.574 . S
C836 C852 1.368 . S
H837 C845 0.950 . S
H838 C843 0.950 . S
H839 C844 0.949 . S
H840 C846 0.950 . S
H841 C847 0.950 . S
H842 C848 0.949 . S
C843 H838 0.950 . S
C843 C845 1.327 . S
C843 C849 1.429 . S
C844 C836 1.574 . S
C844 H839 0.949 . S
C844 C850 1.368 1_655 S
C845 C829 1.349 . S
C845 H837 0.950 . S
C845 C843 1.327 . S
C846 C834 1.349 . S
C846 H840 0.950 . S
C846 C847 1.327 . S
C847 H841 0.950 . S
C847 C846 1.327 . S
C847 C851 1.429 . S
C848 C831 1.574 . S
C848 H842 0.949 . S
C848 C852 1.368 1_455 S
C849 C830 1.429 . S
C849 C843 1.429 . S
C849 C850 1.523 . S
C850 C831 1.368 . S
C850 C844 1.368 1_455 S
C850 C849 1.523 . S
C851 C835 1.429 . S
C851 C847 1.429 . S
C851 C852 1.523 . S
C852 C836 1.368 . S
C852 C848 1.368 1_655 S
C852 C851 1.523 . S
H853 C828 0.950 . S
H854 C830 0.950 . S
H855 C831 0.949 . S
H856 C833 0.950 . S
H857 C835 0.950 . S
C858 C859 1.349 . S
C858 C860 1.327 . S
C858 H883 0.950 . S
C859 C858 1.349 . S
C859 C875 1.349 . S
C860 C858 1.327 . S
C860 C879 1.429 . S
C860 H884 0.950 . S
C861 C878 1.574 . S
C861 C880 1.368 . S
C861 H885 0.949 . S
H862 C866 0.949 . S
C863 C864 1.349 . S
C863 C865 1.327 . S
C863 H886 0.950 . S
C864 C863 1.349 . S
C864 C876 1.349 . S
C865 C863 1.327 . S
C865 C881 1.429 . S
C865 H887 0.950 . S
C866 H862 0.949 . S
C866 C874 1.574 . S
C866 C882 1.368 . S
H867 C875 0.950 . S
H868 C873 0.950 . S
H869 C874 0.949 . S
H870 C876 0.950 . S
H871 C877 0.950 . S
H872 C878 0.949 . S
C873 H868 0.950 . S
C873 C875 1.327 . S
C873 C879 1.429 . S
C874 C866 1.574 . S
C874 H869 0.949 . S
C874 C880 1.368 . S
C875 C859 1.349 . S
C875 H867 0.950 . S
C875 C873 1.327 . S
C876 C864 1.349 . S
C876 H870 0.950 . S
C876 C877 1.327 . S
C877 H871 0.950 . S
C877 C876 1.327 . S
C877 C881 1.429 . S
C878 C861 1.574 . S
C878 H872 0.949 . S
C878 C882 1.368 . S
C879 C860 1.429 . S
C879 C873 1.429 . S
C879 C880 1.523 . S
C880 C861 1.368 . S
C880 C874 1.368 . S
C880 C879 1.523 . S
C881 C865 1.429 . S
C881 C877 1.429 . S
C881 C882 1.523 . S
C882 C866 1.368 . S
C882 C878 1.368 . S
C882 C881 1.523 . S
H883 C858 0.950 . S
H884 C860 0.950 . S
H885 C861 0.949 . S
H886 C863 0.950 . S
H887 C865 0.950 . S
C888 C889 1.349 . S
C888 C890 1.327 . S
C888 H913 0.950 . S
C889 C888 1.349 . S
C889 C905 1.349 . S
C890 C888 1.327 . S
C890 C909 1.429 . S
C890 H914 0.950 . S
C891 C908 1.574 . S
C891 C910 1.368 1_565 S
C891 H915 0.949 . S
H892 C896 0.949 . S
C893 C894 1.349 . S
C893 C895 1.327 . S
C893 H916 0.950 . S
C894 C893 1.349 . S
C894 C906 1.349 . S
C895 C893 1.327 . S
C895 C911 1.429 . S
C895 H917 0.950 . S
C896 H892 0.949 . S
C896 C904 1.574 . S
C896 C912 1.368 1_545 S
H897 C905 0.950 . S
H898 C903 0.950 . S
H899 C904 0.949 . S
H900 C906 0.950 . S
H901 C907 0.950 . S
H902 C908 0.949 . S
C903 H898 0.950 . S
C903 C905 1.327 . S
C903 C909 1.429 . S
C904 C896 1.574 . S
C904 H899 0.949 . S
C904 C910 1.368 . S
C905 C889 1.349 . S
C905 H897 0.950 . S
C905 C903 1.327 . S
C906 C894 1.349 . S
C906 H900 0.950 . S
C906 C907 1.327 . S
C907 H901 0.950 . S
C907 C906 1.327 . S
C907 C911 1.429 . S
C908 C891 1.574 . S
C908 H902 0.949 . S
C908 C912 1.368 . S
C909 C890 1.429 . S
C909 C903 1.429 . S
C909 C910 1.523 . S
C910 C891 1.368 1_545 S
C910 C904 1.368 . S
C910 C909 1.523 . S
C911 C895 1.429 . S
C911 C907 1.429 . S
C911 C912 1.523 . S
C912 C896 1.368 1_565 S
C912 C908 1.368 . S
C912 C911 1.523 . S
H913 C888 0.950 . S
H914 C890 0.950 . S
H915 C891 0.949 . S
H916 C893 0.950 . S
H917 C895 0.950 . S
C918 C919 1.349 . S
C918 C920 1.327 . S
C918 H943 0.950 . S
C919 C918 1.349 . S
C919 C935 1.349 . S
C920 C918 1.327 . S
C920 C939 1.429 . S
C920 H944 0.957 . S
C921 C938 1.573 1_554 S
C921 C940 1.369 . S
C921 H945 0.948 . S
H922 C926 0.948 . S
C923 C924 1.349 . S
C923 C925 1.327 . S
C923 H946 0.950 . S
C924 C923 1.349 . S
C924 C936 1.349 . S
C925 C923 1.327 . S
C925 C941 1.429 . S
C925 H947 0.957 . S
C926 H922 0.948 . S
C926 C934 1.573 1_556 S
C926 C942 1.369 . S
H927 C935 0.950 . S
H928 C933 0.950 . S
H929 C934 0.949 . S
H930 C936 0.950 . S
H931 C937 0.950 . S
H932 C938 0.949 . S
C933 H928 0.950 . S
C933 C935 1.327 . S
C933 C939 1.429 . S
C934 C926 1.573 1_554 S
C934 H929 0.949 . S
C934 C940 1.368 1_545 S
C935 C919 1.349 . S
C935 H927 0.950 . S
C935 C933 1.327 . S
C936 C924 1.349 . S
C936 H930 0.950 . S
C936 C937 1.327 . S
C937 H931 0.950 . S
C937 C936 1.327 . S
C937 C941 1.429 . S
C938 C921 1.573 1_556 S
C938 H932 0.949 . S
C938 C942 1.368 1_565 S
C939 C920 1.429 . S
C939 C933 1.429 . S
C939 C940 1.523 . S
C940 C921 1.369 . S
C940 C934 1.368 1_565 S
C940 C939 1.523 . S
C941 C925 1.429 . S
C941 C937 1.429 . S
C941 C942 1.523 . S
C942 C926 1.369 . S
C942 C938 1.368 1_545 S
C942 C941 1.523 . S
H943 C918 0.950 . S
H944 C920 0.957 . S
H945 C921 0.948 . S
H946 C923 0.950 . S
H947 C925 0.957 . S
C948 C949 1.349 . S
C948 C950 1.327 . S
C948 H973 0.950 . S
C949 C948 1.349 . S
C949 C965 1.349 . S
C950 C948 1.327 . S
C950 C969 1.429 . S
C950 H974 0.950 . S
C951 C968 1.574 1_656 S
C951 C970 1.368 . S
C951 H975 0.949 . S
H952 C956 0.949 . S
C953 C954 1.349 . S
C953 C955 1.327 . S
C953 H976 0.950 . S
C954 C953 1.349 . S
C954 C966 1.349 . S
C955 C953 1.327 . S
C955 C971 1.429 . S
C955 H977 0.950 . S
C956 H952 0.949 . S
C956 C964 1.574 1_454 S
C956 C972 1.368 . S
H957 C965 0.950 . S
H958 C963 0.950 . S
H959 C964 0.949 . S
H960 C966 0.950 . S
H961 C967 0.950 . S
H962 C968 0.949 . S
C963 H958 0.950 . S
C963 C965 1.327 . S
C963 C969 1.429 . S
C964 C956 1.574 1_656 S
C964 H959 0.949 . S
C964 C970 1.368 . S
C965 C949 1.349 . S
C965 H957 0.950 . S
C965 C963 1.327 . S
C966 C954 1.349 . S
C966 H960 0.950 . S
C966 C967 1.327 . S
C967 H961 0.950 . S
C967 C966 1.327 . S
C967 C971 1.429 . S
C968 C951 1.574 1_454 S
C968 H962 0.949 . S
C968 C972 1.368 . S
C969 C950 1.429 . S
C969 C963 1.429 . S
C969 C970 1.523 . S
C970 C951 1.368 . S
C970 C964 1.368 . S
C970 C969 1.523 . S
C971 C955 1.429 . S
C971 C967 1.429 . S
C971 C972 1.523 . S
C972 C956 1.368 . S
C972 C968 1.368 . S
C972 C971 1.523 . S
H973 C948 0.950 . S
H974 C950 0.950 . S
H975 C951 0.949 . S
H976 C953 0.950 . S
H977 C955 0.950 . S
C978 C979 1.349 . S
C978 C980 1.327 . S
C978 H1003 0.950 . S
C979 C978 1.349 . S
C979 C995 1.349 . S
C980 C978 1.327 . S
C980 C999 1.429 . S
C980 H1004 0.950 . S
C981 C998 1.576 1_556 S
C981 C1000 1.368 . S
C981 H1005 0.949 . S
H982 C986 0.949 . S
C983 C984 1.349 . S
C983 C985 1.327 . S
C983 H1006 0.950 . S
C984 C983 1.349 . S
C984 C996 1.349 . S
C985 C983 1.327 . S
C985 C1001 1.429 . S
C985 H1007 0.950 . S
C986 H982 0.949 . S
C986 C994 1.576 1_554 S
C986 C1002 1.368 . S
H987 C995 0.950 . S
H988 C993 0.950 . S
H989 C994 0.948 . S
H990 C996 0.950 . S
H991 C997 0.950 . S
H992 C998 0.948 . S
C993 H988 0.950 . S
C993 C995 1.327 . S
C993 C999 1.429 . S
C994 C986 1.576 1_556 S
C994 H989 0.948 . S
C994 C1000 1.366 . S
C995 C979 1.349 . S
C995 H987 0.950 . S
C995 C993 1.327 . S
C996 C984 1.349 . S
C996 H990 0.950 . S
C996 C997 1.327 . S
C997 H991 0.950 . S
C997 C996 1.327 . S
C997 C1001 1.429 . S
C998 C981 1.576 1_554 S
C998 H992 0.948 . S
C998 C1002 1.366 . S
C999 C980 1.429 . S
C999 C993 1.429 . S
C999 C1000 1.523 . S
C1000 C981 1.368 . S
C1000 C994 1.366 . S
C1000 C999 1.523 . S
C1001 C985 1.429 . S
C1001 C997 1.429 . S
C1001 C1002 1.523 . S
C1002 C986 1.368 . S
C1002 C998 1.366 . S
C1002 C1001 1.523 . S
H1003 C978 0.950 . S
H1004 C980 0.950 . S
H1005 C981 0.949 . S
H1006 C983 0.950 . S
H1007 C985 0.950 . S
C1008 C1009 1.349 . S
C1008 C1010 1.327 . S
C1008 H1033 0.950 . S
C1009 C1008 1.349 . S
C1009 C1025 1.349 . S
C1010 C1008 1.327 . S
C1010 C1029 1.429 . S
C1010 H1034 0.950 . S
C1011 C1028 1.574 . S
C1011 C1030 1.368 . S
C1011 H1035 0.949 . S
H1012 C1016 0.949 . S
C1013 C1014 1.349 . S
C1013 C1015 1.327 . S
C1013 H1036 0.950 . S
C1014 C1013 1.349 . S
C1014 C1026 1.349 . S
C1015 C1013 1.327 . S
C1015 C1031 1.429 . S
C1015 H1037 0.950 1_565 S
C1016 H1012 0.949 . S
C1016 C1024 1.574 . S
C1016 C1032 1.368 . S
H1017 C1025 0.950 . S
H1018 C1023 0.950 . S
H1019 C1024 0.949 . S
H1020 C1026 0.950 . S
H1021 C1027 0.950 . S
H1022 C1028 0.949 . S
C1023 H1018 0.950 . S
C1023 C1025 1.327 . S
C1023 C1029 1.429 . S
C1024 C1016 1.574 . S
C1024 H1019 0.949 . S
C1024 C1030 1.368 1_565 S
C1025 C1009 1.349 . S
C1025 H1017 0.950 . S
C1025 C1023 1.327 . S
C1026 C1014 1.349 . S
C1026 H1020 0.950 . S
C1026 C1027 1.327 . S
C1027 H1021 0.950 . S
C1027 C1026 1.327 . S
C1027 C1031 1.429 . S
C1028 C1011 1.574 . S
C1028 H1022 0.949 . S
C1028 C1032 1.368 1_545 S
C1029 C1010 1.429 . S
C1029 C1023 1.429 . S
C1029 C1030 1.523 . S
C1030 C1011 1.368 . S
C1030 C1024 1.368 1_545 S
C1030 C1029 1.523 . S
C1031 C1015 1.429 . S
C1031 C1027 1.429 . S
C1031 C1032 1.523 . S
C1032 C1016 1.368 . S
C1032 C1028 1.368 1_565 S
C1032 C1031 1.523 . S
H1033 C1008 0.950 . S
H1034 C1010 0.950 . S
H1035 C1011 0.949 . S
H1036 C1013 0.950 . S
H1037 C1015 0.950 1_545 S
C1038 C1039 1.349 . S
C1038 C1040 1.327 . S
C1038 H1063 0.950 . S
C1039 C1038 1.349 . S
C1039 C1055 1.349 . S
C1040 C1038 1.327 . S
C1040 C1059 1.429 . S
C1040 H1064 0.950 . S
C1041 C1058 1.574 . S
C1041 C1060 1.368 1_655 S
C1041 H1065 0.949 . S
H1042 C1046 0.949 . S
C1043 C1044 1.349 . S
C1043 C1045 1.327 . S
C1043 H1066 0.950 . S
C1044 C1043 1.349 . S
C1044 C1056 1.349 . S
C1045 C1043 1.327 . S
C1045 C1061 1.429 . S
C1045 H1067 0.950 . S
C1046 H1042 0.949 . S
C1046 C1054 1.574 1_655 S
C1046 C1062 1.368 . S
H1047 C1055 0.950 . S
H1048 C1053 0.950 . S
H1049 C1054 0.949 . S
H1050 C1056 0.950 . S
H1051 C1057 0.950 . S
H1052 C1058 0.949 . S
C1053 H1048 0.950 . S
C1053 C1055 1.327 . S
C1053 C1059 1.429 . S
C1054 C1046 1.574 1_455 S
C1054 H1049 0.949 . S
C1054 C1060 1.368 . S
C1055 C1039 1.349 . S
C1055 H1047 0.950 . S
C1055 C1053 1.327 . S
C1056 C1044 1.349 . S
C1056 H1050 0.950 . S
C1056 C1057 1.327 . S
C1057 H1051 0.950 . S
C1057 C1056 1.327 . S
C1057 C1061 1.429 . S
C1058 C1041 1.574 . S
C1058 H1052 0.949 . S
C1058 C1062 1.368 . S
C1059 C1040 1.429 . S
C1059 C1053 1.429 . S
C1059 C1060 1.523 . S
C1060 C1041 1.368 1_455 S
C1060 C1054 1.368 . S
C1060 C1059 1.523 . S
C1061 C1045 1.429 . S
C1061 C1057 1.429 . S
C1061 C1062 1.523 . S
C1062 C1046 1.368 . S
C1062 C1058 1.368 . S
C1062 C1061 1.523 . S
H1063 C1038 0.950 . S
H1064 C1040 0.950 . S
H1065 C1041 0.949 . S
H1066 C1043 0.950 . S
H1067 C1045 0.950 . S
C1068 C1069 1.349 . S
C1068 C1070 1.327 . S
C1068 H1093 0.950 . S
C1069 C1068 1.349 . S
C1069 C1085 1.349 . S
C1070 C1068 1.327 . S
C1070 C1089 1.429 . S
C1070 H1094 0.950 . S
C1071 C1088 1.574 . S
C1071 C1090 1.368 . S
C1071 H1095 0.949 . S
H1072 C1076 0.949 . S
C1073 C1074 1.349 . S
C1073 C1075 1.327 . S
C1073 H1096 0.950 . S
C1074 C1073 1.349 . S
C1074 C1086 1.349 . S
C1075 C1073 1.327 . S
C1075 C1091 1.429 . S
C1075 H1097 0.950 . S
C1076 H1072 0.949 . S
C1076 C1084 1.574 . S
C1076 C1092 1.368 . S
H1077 C1085 0.950 . S
H1078 C1083 0.950 . S
H1079 C1084 0.949 . S
H1080 C1086 0.950 . S
H1081 C1087 0.950 . S
H1082 C1088 0.949 . S
C1083 H1078 0.950 . S
C1083 C1085 1.327 . S
C1083 C1089 1.429 . S
C1084 C1076 1.574 . S
C1084 H1079 0.949 . S
C1084 C1090 1.368 . S
C1085 C1069 1.349 . S
C1085 H1077 0.950 . S
C1085 C1083 1.327 . S
C1086 C1074 1.349 . S
C1086 H1080 0.950 . S
C1086 C1087 1.327 . S
C1087 H1081 0.950 . S
C1087 C1086 1.327 . S
C1087 C1091 1.429 . S
C1088 C1071 1.574 . S
C1088 H1082 0.949 . S
C1088 C1092 1.368 . S
C1089 C1070 1.429 . S
C1089 C1083 1.429 . S
C1089 C1090 1.523 . S
C1090 C1071 1.368 . S
C1090 C1084 1.368 . S
C1090 C1089 1.523 . S
C1091 C1075 1.429 . S
C1091 C1087 1.429 . S
C1091 C1092 1.523 . S
C1092 C1076 1.368 . S
C1092 C1088 1.368 . S
C1092 C1091 1.523 . S
H1093 C1068 0.950 . S
H1094 C1070 0.950 . S
H1095 C1071 0.949 . S
H1096 C1073 0.950 . S
H1097 C1075 0.950 . S
C1098 C1099 1.349 . S
C1098 C1100 1.327 . S
C1098 H1123 0.950 . S
C1099 C1098 1.349 . S
C1099 C1115 1.349 . S
C1100 C1098 1.327 . S
C1100 C1119 1.429 . S
C1100 H1124 0.950 . S
C1101 C1118 1.574 . S
C1101 C1120 1.368 1_455 S
C1101 H1125 0.949 . S
H1102 C1106 0.949 . S
C1103 C1104 1.349 . S
C1103 C1105 1.327 . S
C1103 H1126 0.950 . S
C1104 C1103 1.349 . S
C1104 C1116 1.349 . S
C1105 C1103 1.327 . S
C1105 C1121 1.429 . S
C1105 H1127 0.950 . S
C1106 H1102 0.949 . S
C1106 C1114 1.574 . S
C1106 C1122 1.368 1_655 S
H1107 C1115 0.950 . S
H1108 C1113 0.950 1_455 S
H1109 C1114 0.949 . S
H1110 C1116 0.950 . S
H1111 C1117 0.913 1_655 S
H1112 C1118 0.949 . S
C1113 H1108 0.950 1_655 S
C1113 C1115 1.327 . S
C1113 C1119 1.429 . S
C1114 C1106 1.574 . S
C1114 H1109 0.949 . S
C1114 C1120 1.368 . S
C1115 C1099 1.349 . S
C1115 H1107 0.950 . S
C1115 C1113 1.327 . S
C1116 C1104 1.349 . S
C1116 H1110 0.950 . S
C1116 C1117 1.327 . S
C1117 H1111 0.913 1_455 S
C1117 C1116 1.327 . S
C1117 C1121 1.429 . S
C1118 C1101 1.574 . S
C1118 H1112 0.949 . S
C1118 C1122 1.368 . S
C1119 C1100 1.429 . S
C1119 C1113 1.429 . S
C1119 C1120 1.523 . S
C1120 C1101 1.368 1_655 S
C1120 C1114 1.368 . S
C1120 C1119 1.523 . S
C1121 C1105 1.429 . S
C1121 C1117 1.429 . S
C1121 C1122 1.523 . S
C1122 C1106 1.368 1_455 S
C1122 C1118 1.368 . S
C1122 C1121 1.523 . S
H1123 C1098 0.950 . S
H1124 C1100 0.950 . S
H1125 C1101 0.949 . S
H1126 C1103 0.950 . S
H1127 C1105 0.950 . S
C1128 C1129 1.349 . S
C1128 C1130 1.327 . S
C1128 H1153 0.950 . S
C1129 C1128 1.349 . S
C1129 C1145 1.349 . S
C1130 C1128 1.327 . S
C1130 C1149 1.429 . S
C1130 H1154 0.950 . S
C1131 C1148 1.574 . S
C1131 C1150 1.368 . S
C1131 H1155 0.949 . S
H1132 C1136 0.949 . S
C1133 C1134 1.349 . S
C1133 C1135 1.327 . S
C1133 H1156 0.950 . S
C1134 C1133 1.349 . S
C1134 C1146 1.349 . S
C1135 C1133 1.327 . S
C1135 C1151 1.429 . S
C1135 H1157 0.950 . S
C1136 H1132 0.949 . S
C1136 C1144 1.574 . S
C1136 C1152 1.368 . S
H1137 C1145 0.950 . S
H1138 C1143 0.950 . S
H1139 C1144 0.949 . S
H1140 C1146 0.950 . S
H1141 C1147 0.950 . S
H1142 C1148 0.949 . S
C1143 H1138 0.950 . S
C1143 C1145 1.327 . S
C1143 C1149 1.429 . S
C1144 C1136 1.574 . S
C1144 H1139 0.949 . S
C1144 C1150 1.368 . S
C1145 C1129 1.349 . S
C1145 H1137 0.950 . S
C1145 C1143 1.327 . S
C1146 C1134 1.349 . S
C1146 H1140 0.950 . S
C1146 C1147 1.327 . S
C1147 H1141 0.950 . S
C1147 C1146 1.327 . S
C1147 C1151 1.429 . S
C1148 C1131 1.574 . S
C1148 H1142 0.949 . S
C1148 C1152 1.368 . S
C1149 C1130 1.429 . S
C1149 C1143 1.429 . S
C1149 C1150 1.523 . S
C1150 C1131 1.368 . S
C1150 C1144 1.368 . S
C1150 C1149 1.523 . S
C1151 C1135 1.429 . S
C1151 C1147 1.429 . S
C1151 C1152 1.523 . S
C1152 C1136 1.368 . S
C1152 C1148 1.368 . S
C1152 C1151 1.523 . S
H1153 C1128 0.950 . S
H1154 C1130 0.950 . S
H1155 C1131 0.949 . S
H1156 C1133 0.950 . S
H1157 C1135 0.950 . S
C1158 C1159 1.349 . S
C1158 C1160 1.327 . S
C1158 H1183 0.950 . S
C1159 C1158 1.349 . S
C1159 C1175 1.349 . S
C1160 C1158 1.327 . S
C1160 C1179 1.429 . S
C1160 H1184 0.950 . S
C1161 C1178 1.574 . S
C1161 C1180 1.368 1_565 S
C1161 H1185 0.949 . S
H1162 C1166 0.949 . S
C1163 C1164 1.349 . S
C1163 C1165 1.327 . S
C1163 H1186 0.950 . S
C1164 C1163 1.349 . S
C1164 C1176 1.349 . S
C1165 C1163 1.327 . S
C1165 C1181 1.429 . S
C1165 H1187 0.950 . S
C1166 H1162 0.949 . S
C1166 C1174 1.574 1_565 S
C1166 C1182 1.368 . S
H1167 C1175 0.950 . S
H1168 C1173 0.950 . S
H1169 C1174 0.949 . S
H1170 C1176 0.950 . S
H1171 C1177 0.950 . S
H1172 C1178 0.949 . S
C1173 H1168 0.950 . S
C1173 C1175 1.327 . S
C1173 C1179 1.429 . S
C1174 C1166 1.574 1_545 S
C1174 H1169 0.949 . S
C1174 C1180 1.368 . S
C1175 C1159 1.349 . S
C1175 H1167 0.950 . S
C1175 C1173 1.327 . S
C1176 C1164 1.349 . S
C1176 H1170 0.950 . S
C1176 C1177 1.327 . S
C1177 H1171 0.950 . S
C1177 C1176 1.327 . S
C1177 C1181 1.429 . S
C1178 C1161 1.574 . S
C1178 H1172 0.949 . S
C1178 C1182 1.368 . S
C1179 C1160 1.429 . S
C1179 C1173 1.429 . S
C1179 C1180 1.523 . S
C1180 C1161 1.368 1_545 S
C1180 C1174 1.368 . S
C1180 C1179 1.523 . S
C1181 C1165 1.429 . S
C1181 C1177 1.429 . S
C1181 C1182 1.523 . S
C1182 C1166 1.368 . S
C1182 C1178 1.368 . S
C1182 C1181 1.523 . S
H1183 C1158 0.950 . S
H1184 C1160 0.950 . S
H1185 C1161 0.949 . S
H1186 C1163 0.950 . S
H1187 C1165 0.950 . S
C1188 C1189 1.349 . S
C1188 C1190 1.327 . S
C1188 H1213 0.950 . S
C1189 C1188 1.349 . S
C1189 C1205 1.349 . S
C1190 C1188 1.327 . S
C1190 C1209 1.429 . S
C1190 H1214 0.950 . S
C1191 C1208 1.574 . S
C1191 C1210 1.368 . S
C1191 H1215 0.949 . S
H1192 C1196 0.949 . S
C1193 C1194 1.349 . S
C1193 C1195 1.327 . S
C1193 H1216 0.950 . S
C1194 C1193 1.349 . S
C1194 C1206 1.349 . S
C1195 C1193 1.327 . S
C1195 C1211 1.429 . S
C1195 H1217 0.950 1_545 S
C1196 H1192 0.949 . S
C1196 C1204 1.574 . S
C1196 C1212 1.368 . S
H1197 C1205 0.950 . S
H1198 C1203 0.950 . S
H1199 C1204 0.949 . S
H1200 C1206 0.950 . S
H1201 C1207 0.950 . S
H1202 C1208 0.949 . S
C1203 H1198 0.950 . S
C1203 C1205 1.327 . S
C1203 C1209 1.429 . S
C1204 C1196 1.574 . S
C1204 H1199 0.949 . S
C1204 C1210 1.368 1_545 S
C1205 C1189 1.349 . S
C1205 H1197 0.950 . S
C1205 C1203 1.327 . S
C1206 C1194 1.349 . S
C1206 H1200 0.950 . S
C1206 C1207 1.327 . S
C1207 H1201 0.950 . S
C1207 C1206 1.327 . S
C1207 C1211 1.429 . S
C1208 C1191 1.574 . S
C1208 H1202 0.949 . S
C1208 C1212 1.368 1_565 S
C1209 C1190 1.429 . S
C1209 C1203 1.429 . S
C1209 C1210 1.523 . S
C1210 C1191 1.368 . S
C1210 C1204 1.368 1_565 S
C1210 C1209 1.523 . S
C1211 C1195 1.429 . S
C1211 C1207 1.429 . S
C1211 C1212 1.523 . S
C1212 C1196 1.368 . S
C1212 C1208 1.368 1_545 S
C1212 C1211 1.523 . S
H1213 C1188 0.950 . S
H1214 C1190 0.950 . S
H1215 C1191 0.949 . S
H1216 C1193 0.950 . S
H1217 C1195 0.950 1_565 S
C1218 C1219 1.349 . S
C1218 C1220 1.327 . S
C1218 H1243 0.950 . S
C1219 C1218 1.349 . S
C1219 C1235 1.349 . S
C1220 C1218 1.327 . S
C1220 C1239 1.429 . S
C1220 H1244 0.950 . S
C1221 C1238 1.574 . S
C1221 C1240 1.368 1_455 S
C1221 H1245 0.949 . S
H1222 C1226 0.949 . S
C1223 C1224 1.349 . S
C1223 C1225 1.327 . S
C1223 H1246 0.950 . S
C1224 C1223 1.349 . S
C1224 C1236 1.349 . S
C1225 C1223 1.327 . S
C1225 C1241 1.429 . S
C1225 H1247 0.950 . S
C1226 H1222 0.949 . S
C1226 C1234 1.574 . S
C1226 C1242 1.368 1_655 S
H1227 C1235 0.950 . S
H1228 C1233 0.950 1_455 S
H1229 C1234 0.949 . S
H1230 C1236 0.950 . S
H1231 C1237 0.950 . S
H1232 C1238 0.949 . S
C1233 H1228 0.950 1_655 S
C1233 C1235 1.327 . S
C1233 C1239 1.429 . S
C1234 C1226 1.574 . S
C1234 H1229 0.949 . S
C1234 C1240 1.368 . S
C1235 C1219 1.349 . S
C1235 H1227 0.950 . S
C1235 C1233 1.327 . S
C1236 C1224 1.349 . S
C1236 H1230 0.950 . S
C1236 C1237 1.327 . S
C1237 H1231 0.950 . S
C1237 C1236 1.327 . S
C1237 C1241 1.429 . S
C1238 C1221 1.574 . S
C1238 H1232 0.949 . S
C1238 C1242 1.368 . S
C1239 C1220 1.429 . S
C1239 C1233 1.429 . S
C1239 C1240 1.523 . S
C1240 C1221 1.368 1_655 S
C1240 C1234 1.368 . S
C1240 C1239 1.523 . S
C1241 C1225 1.429 . S
C1241 C1237 1.429 . S
C1241 C1242 1.523 . S
C1242 C1226 1.368 1_455 S
C1242 C1238 1.368 . S
C1242 C1241 1.523 . S
H1243 C1218 0.950 . S
H1244 C1220 0.950 . S
H1245 C1221 0.949 . S
H1246 C1223 0.950 . S
H1247 C1225 0.950 . S
C1248 C1249 1.349 . S
C1248 C1250 1.327 . S
C1248 H1273 0.950 . S
C1249 C1248 1.349 . S
C1249 C1265 1.349 . S
C1250 C1248 1.327 . S
C1250 C1269 1.429 . S
C1250 H1274 0.950 . S
C1251 C1268 1.574 . S
C1251 C1270 1.368 . S
C1251 H1275 0.949 . S
H1252 C1256 0.949 . S
C1253 C1254 1.349 . S
C1253 C1255 1.327 . S
C1253 H1276 0.950 . S
C1254 C1253 1.349 . S
C1254 C1266 1.349 . S
C1255 C1253 1.327 . S
C1255 C1271 1.429 . S
C1255 H1277 0.950 . S
C1256 H1252 0.949 . S
C1256 C1264 1.574 . S
C1256 C1272 1.368 . S
H1257 C1265 0.950 . S
H1258 C1263 0.950 . S
H1259 C1264 0.949 . S
H1260 C1266 0.950 . S
H1261 C1267 0.950 . S
H1262 C1268 0.949 . S
C1263 H1258 0.950 . S
C1263 C1265 1.327 . S
C1263 C1269 1.429 . S
C1264 C1256 1.574 . S
C1264 H1259 0.949 . S
C1264 C1270 1.368 . S
C1265 C1249 1.349 . S
C1265 H1257 0.950 . S
C1265 C1263 1.327 . S
C1266 C1254 1.349 . S
C1266 H1260 0.950 . S
C1266 C1267 1.327 . S
C1267 H1261 0.950 . S
C1267 C1266 1.327 . S
C1267 C1271 1.429 . S
C1268 C1251 1.574 . S
C1268 H1262 0.949 . S
C1268 C1272 1.368 . S
C1269 C1250 1.429 . S
C1269 C1263 1.429 . S
C1269 C1270 1.523 . S
C1270 C1251 1.368 . S
C1270 C1264 1.368 . S
C1270 C1269 1.523 . S
C1271 C1255 1.429 . S
C1271 C1267 1.429 . S
C1271 C1272 1.523 . S
C1272 C1256 1.368 . S
C1272 C1268 1.368 . S
C1272 C1271 1.523 . S
H1273 C1248 0.950 . S
H1274 C1250 0.950 . S
H1275 C1251 0.949 . S
H1276 C1253 0.950 . S
H1277 C1255 0.950 . S
C1278 C1279 1.349 . S
C1278 C1280 1.327 . S
C1278 H1303 0.950 . S
C1279 C1278 1.349 . S
C1279 C1295 1.349 . S
C1280 C1278 1.327 . S
C1280 C1299 1.429 . S
C1280 H1304 0.950 . S
C1281 C1298 1.574 . S
C1281 C1300 1.368 1_455 S
C1281 H1305 0.949 . S
H1282 C1286 0.949 . S
C1283 C1284 1.349 . S
C1283 C1285 1.327 . S
C1283 H1306 0.950 . S
C1284 C1283 1.349 . S
C1284 C1296 1.349 . S
C1285 C1283 1.327 . S
C1285 C1301 1.429 . S
C1285 H1307 0.950 . S
C1286 H1282 0.949 . S
C1286 C1294 1.574 . S
C1286 C1302 1.368 1_655 S
H1287 C1295 0.950 . S
H1288 C1293 0.950 . S
H1289 C1294 0.949 . S
H1290 C1296 0.950 . S
H1291 C1297 0.950 1_655 S
H1292 C1298 0.949 . S
C1293 H1288 0.950 . S
C1293 C1295 1.327 . S
C1293 C1299 1.429 . S
C1294 C1286 1.574 . S
C1294 H1289 0.949 . S
C1294 C1300 1.368 . S
C1295 C1279 1.349 . S
C1295 H1287 0.950 . S
C1295 C1293 1.327 . S
C1296 C1284 1.349 . S
C1296 H1290 0.950 . S
C1296 C1297 1.327 . S
C1297 H1291 0.950 1_455 S
C1297 C1296 1.327 . S
C1297 C1301 1.429 . S
C1298 C1281 1.574 . S
C1298 H1292 0.949 . S
C1298 C1302 1.368 . S
C1299 C1280 1.429 . S
C1299 C1293 1.429 . S
C1299 C1300 1.523 . S
C1300 C1281 1.368 1_655 S
C1300 C1294 1.368 . S
C1300 C1299 1.523 . S
C1301 C1285 1.429 . S
C1301 C1297 1.429 . S
C1301 C1302 1.523 . S
C1302 C1286 1.368 1_455 S
C1302 C1298 1.368 . S
C1302 C1301 1.523 . S
H1303 C1278 0.950 . S
H1304 C1280 0.950 . S
H1305 C1281 0.949 . S
H1306 C1283 0.950 . S
H1307 C1285 0.950 . S
C1308 C1309 1.349 . S
C1308 C1310 1.327 . S
C1308 H1333 0.950 . S
C1309 C1308 1.349 . S
C1309 C1325 1.349 . S
C1310 C1308 1.327 . S
C1310 C1329 1.429 . S
C1310 H1334 0.950 . S
C1311 C1328 1.574 . S
C1311 C1330 1.368 . S
C1311 H1335 0.949 . S
H1312 C1316 0.949 . S
C1313 C1314 1.349 . S
C1313 C1315 1.327 . S
C1313 H1336 0.950 . S
C1314 C1313 1.349 . S
C1314 C1326 1.349 . S
C1315 C1313 1.327 . S
C1315 C1331 1.429 . S
C1315 H1337 0.950 . S
C1316 H1312 0.949 . S
C1316 C1324 1.574 . S
C1316 C1332 1.368 . S
H1317 C1325 0.950 . S
H1318 C1323 0.950 . S
H1319 C1324 0.949 . S
H1320 C1326 0.950 . S
H1321 C1327 0.950 . S
H1322 C1328 0.949 . S
C1323 H1318 0.950 . S
C1323 C1325 1.327 . S
C1323 C1329 1.429 . S
C1324 C1316 1.574 . S
C1324 H1319 0.949 . S
C1324 C1330 1.368 . S
C1325 C1309 1.349 . S
C1325 H1317 0.950 . S
C1325 C1323 1.327 . S
C1326 C1314 1.349 . S
C1326 H1320 0.950 . S
C1326 C1327 1.327 . S
C1327 H1321 0.950 . S
C1327 C1326 1.327 . S
C1327 C1331 1.429 . S
C1328 C1311 1.574 . S
C1328 H1322 0.949 . S
C1328 C1332 1.368 . S
C1329 C1310 1.429 . S
C1329 C1323 1.429 . S
C1329 C1330 1.523 . S
C1330 C1311 1.368 . S
C1330 C1324 1.368 . S
C1330 C1329 1.523 . S
C1331 C1315 1.429 . S
C1331 C1327 1.429 . S
C1331 C1332 1.523 . S
C1332 C1316 1.368 . S
C1332 C1328 1.368 . S
C1332 C1331 1.523 . S
H1333 C1308 0.950 . S
H1334 C1310 0.950 . S
H1335 C1311 0.949 . S
H1336 C1313 0.950 . S
H1337 C1315 0.950 . S
C1338 C1339 1.349 . S
C1338 C1340 1.327 . S
C1338 H1363 0.950 . S
C1339 C1338 1.349 . S
C1339 C1355 1.349 . S
C1340 C1338 1.327 . S
C1340 C1359 1.429 . S
C1340 H1364 0.950 . S
C1341 C1358 1.574 . S
C1341 C1360 1.368 . S
C1341 H1365 0.949 . S
H1342 C1346 0.949 . S
C1343 C1344 1.349 . S
C1343 C1345 1.327 . S
C1343 H1366 0.950 . S
C1344 C1343 1.349 . S
C1344 C1356 1.349 . S
C1345 C1343 1.327 . S
C1345 C1361 1.429 . S
C1345 H1367 0.950 1_565 S
C1346 H1342 0.949 . S
C1346 C1354 1.574 . S
C1346 C1362 1.368 . S
H1347 C1355 0.950 . S
H1348 C1353 0.950 . S
H1349 C1354 0.949 . S
H1350 C1356 0.950 . S
H1351 C1357 0.950 . S
H1352 C1358 0.949 . S
C1353 H1348 0.950 . S
C1353 C1355 1.327 . S
C1353 C1359 1.429 . S
C1354 C1346 1.574 . S
C1354 H1349 0.949 . S
C1354 C1360 1.368 1_565 S
C1355 C1339 1.349 . S
C1355 H1347 0.950 . S
C1355 C1353 1.327 . S
C1356 C1344 1.349 . S
C1356 H1350 0.950 . S
C1356 C1357 1.327 . S
C1357 H1351 0.950 . S
C1357 C1356 1.327 . S
C1357 C1361 1.429 . S
C1358 C1341 1.574 . S
C1358 H1352 0.949 . S
C1358 C1362 1.368 1_545 S
C1359 C1340 1.429 . S
C1359 C1353 1.429 . S
C1359 C1360 1.523 . S
C1360 C1341 1.368 . S
C1360 C1354 1.368 1_545 S
C1360 C1359 1.523 . S
C1361 C1345 1.429 . S
C1361 C1357 1.429 . S
C1361 C1362 1.523 . S
C1362 C1346 1.368 . S
C1362 C1358 1.368 1_565 S
C1362 C1361 1.523 . S
H1363 C1338 0.950 . S
H1364 C1340 0.950 . S
H1365 C1341 0.949 . S
H1366 C1343 0.950 . S
H1367 C1345 0.950 1_545 S
C1368 C1369 1.349 . S
C1368 C1370 1.327 . S
C1368 H1393 0.950 . S
C1369 C1368 1.349 . S
C1369 C1385 1.349 . S
C1370 C1368 1.327 . S
C1370 C1389 1.429 . S
C1370 H1394 0.950 . S
C1371 C1388 1.574 . S
C1371 C1390 1.368 . S
C1371 H1395 0.949 . S
H1372 C1376 0.949 . S
C1373 C1374 1.349 . S
C1373 C1375 1.327 . S
C1373 H1396 0.950 . S
C1374 C1373 1.349 . S
C1374 C1386 1.349 . S
C1375 C1373 1.327 . S
C1375 C1391 1.429 . S
C1375 H1397 0.950 . S
C1376 H1372 0.949 . S
C1376 C1384 1.574 . S
C1376 C1392 1.368 . S
H1377 C1385 0.950 . S
H1378 C1383 0.950 . S
H1379 C1384 0.949 . S
H1380 C1386 0.950 . S
H1381 C1387 0.950 . S
H1382 C1388 0.949 . S
C1383 H1378 0.950 . S
C1383 C1385 1.327 . S
C1383 C1389 1.429 . S
C1384 C1376 1.574 . S
C1384 H1379 0.949 . S
C1384 C1390 1.368 . S
C1385 C1369 1.349 . S
C1385 H1377 0.950 . S
C1385 C1383 1.327 . S
C1386 C1374 1.349 . S
C1386 H1380 0.950 . S
C1386 C1387 1.327 . S
C1387 H1381 0.950 . S
C1387 C1386 1.327 . S
C1387 C1391 1.429 . S
C1388 C1371 1.574 . S
C1388 H1382 0.949 . S
C1388 C1392 1.368 . S
C1389 C1370 1.429 . S
C1389 C1383 1.429 . S
C1389 C1390 1.523 . S
C1390 C1371 1.368 . S
C1390 C1384 1.368 . S
C1390 C1389 1.523 . S
C1391 C1375 1.429 . S
C1391 C1387 1.429 . S
C1391 C1392 1.523 . S
C1392 C1376 1.368 . S
C1392 C1388 1.368 . S
C1392 C1391 1.523 . S
H1393 C1368 0.950 . S
H1394 C1370 0.950 . S
H1395 C1371 0.949 . S
H1396 C1373 0.950 . S
H1397 C1375 0.950 . S
C1398 C1399 1.349 . S
C1398 C1400 1.327 . S
C1398 H1423 0.950 . S
C1399 C1398 1.349 . S
C1399 C1415 1.349 . S
C1400 C1398 1.327 . S
C1400 C1419 1.429 . S
C1400 H1424 0.950 . S
C1401 C1418 1.574 1_545 S
C1401 C1420 1.368 . S
C1401 H1425 0.949 . S
H1402 C1406 0.949 . S
C1403 C1404 1.349 . S
C1403 C1405 1.327 . S
C1403 H1426 0.950 . S
C1404 C1403 1.349 . S
C1404 C1416 1.349 . S
C1405 C1403 1.327 . S
C1405 C1421 1.429 . S
C1405 H1427 0.950 . S
C1406 H1402 0.949 . S
C1406 C1414 1.574 1_565 S
C1406 C1422 1.368 . S
H1407 C1415 0.950 . S
H1408 C1413 0.950 . S
H1409 C1414 0.949 . S
H1410 C1416 0.950 . S
H1411 C1417 0.950 . S
H1412 C1418 0.949 . S
C1413 H1408 0.950 . S
C1413 C1415 1.327 . S
C1413 C1419 1.429 . S
C1414 C1406 1.574 1_545 S
C1414 H1409 0.949 . S
C1414 C1420 1.368 . S
C1415 C1399 1.349 . S
C1415 H1407 0.950 . S
C1415 C1413 1.327 . S
C1416 C1404 1.349 . S
C1416 H1410 0.950 . S
C1416 C1417 1.327 . S
C1417 H1411 0.950 . S
C1417 C1416 1.327 . S
C1417 C1421 1.429 . S
C1418 C1401 1.574 1_565 S
C1418 H1412 0.949 . S
C1418 C1422 1.368 . S
C1419 C1400 1.429 . S
C1419 C1413 1.429 . S
C1419 C1420 1.523 . S
C1420 C1401 1.368 . S
C1420 C1414 1.368 . S
C1420 C1419 1.523 . S
C1421 C1405 1.429 . S
C1421 C1417 1.429 . S
C1421 C1422 1.523 . S
C1422 C1406 1.368 . S
C1422 C1418 1.368 . S
C1422 C1421 1.523 . S
H1423 C1398 0.950 . S
H1424 C1400 0.950 . S
H1425 C1401 0.949 . S
H1426 C1403 0.950 . S
H1427 C1405 0.950 . S
C1428 C1429 1.349 . S
C1428 C1430 1.327 . S
C1428 H1453 0.950 . S
C1429 C1428 1.349 . S
C1429 C1445 1.349 . S
C1430 C1428 1.327 . S
C1430 C1449 1.429 . S
C1430 H1454 0.950 . S
C1431 C1448 1.574 1_655 S
C1431 C1450 1.368 . S
C1431 H1455 0.949 . S
H1432 C1436 0.949 . S
C1433 C1434 1.349 . S
C1433 C1435 1.327 . S
C1433 H1456 0.950 . S
C1434 C1433 1.349 . S
C1434 C1446 1.349 . S
C1435 C1433 1.327 . S
C1435 C1451 1.429 . S
C1435 H1457 0.950 . S
C1436 H1432 0.949 . S
C1436 C1444 1.574 1_455 S
C1436 C1452 1.368 . S
H1437 C1445 0.950 . S
H1438 C1443 0.950 . S
H1439 C1444 0.949 . S
H1440 C1446 0.950 . S
H1441 C1447 0.950 . S
H1442 C1448 0.949 . S
C1443 H1438 0.950 . S
C1443 C1445 1.327 . S
C1443 C1449 1.429 . S
C1444 C1436 1.574 1_655 S
C1444 H1439 0.949 . S
C1444 C1450 1.368 . S
C1445 C1429 1.349 . S
C1445 H1437 0.950 . S
C1445 C1443 1.327 . S
C1446 C1434 1.349 . S
C1446 H1440 0.950 . S
C1446 C1447 1.327 . S
C1447 H1441 0.950 . S
C1447 C1446 1.327 . S
C1447 C1451 1.429 . S
C1448 C1431 1.574 1_455 S
C1448 H1442 0.949 . S
C1448 C1452 1.368 . S
C1449 C1430 1.429 . S
C1449 C1443 1.429 . S
C1449 C1450 1.523 . S
C1450 C1431 1.368 . S
C1450 C1444 1.368 . S
C1450 C1449 1.523 . S
C1451 C1435 1.429 . S
C1451 C1447 1.429 . S
C1451 C1452 1.523 . S
C1452 C1436 1.368 . S
C1452 C1448 1.368 . S
C1452 C1451 1.523 . S
H1453 C1428 0.950 . S
H1454 C1430 0.950 . S
H1455 C1431 0.949 . S
H1456 C1433 0.950 . S
H1457 C1435 0.950 . S
C1458 C1459 1.349 . S
C1458 C1460 1.327 . S
C1458 H1483 0.950 . S
C1459 C1458 1.349 . S
C1459 C1475 1.349 . S
C1460 C1458 1.327 . S
C1460 C1479 1.429 . S
C1460 H1484 0.950 . S
C1461 C1478 1.574 . S
C1461 C1480 1.368 . S
C1461 H1485 0.949 . S
H1462 C1466 0.949 . S
C1463 C1464 1.349 . S
C1463 C1465 1.327 . S
C1463 H1486 0.950 . S
C1464 C1463 1.349 . S
C1464 C1476 1.349 . S
C1465 C1463 1.327 . S
C1465 C1481 1.429 . S
C1465 H1487 0.950 . S
C1466 H1462 0.949 . S
C1466 C1474 1.574 . S
C1466 C1482 1.368 . S
H1467 C1475 0.950 . S
H1468 C1473 0.950 . S
H1469 C1474 0.949 . S
H1470 C1476 0.950 . S
H1471 C1477 0.950 . S
H1472 C1478 0.949 . S
C1473 H1468 0.950 . S
C1473 C1475 1.327 . S
C1473 C1479 1.429 . S
C1474 C1466 1.574 . S
C1474 H1469 0.949 . S
C1474 C1480 1.368 . S
C1475 C1459 1.349 . S
C1475 H1467 0.950 . S
C1475 C1473 1.327 . S
C1476 C1464 1.349 . S
C1476 H1470 0.950 . S
C1476 C1477 1.327 . S
C1477 H1471 0.950 . S
C1477 C1476 1.327 . S
C1477 C1481 1.429 . S
C1478 C1461 1.574 . S
C1478 H1472 0.949 . S
C1478 C1482 1.368 . S
C1479 C1460 1.429 . S
C1479 C1473 1.429 . S
C1479 C1480 1.523 . S
C1480 C1461 1.368 . S
C1480 C1474 1.368 . S
C1480 C1479 1.523 . S
C1481 C1465 1.429 . S
C1481 C1477 1.429 . S
C1481 C1482 1.523 . S
C1482 C1466 1.368 . S
C1482 C1478 1.368 . S
C1482 C1481 1.523 . S
H1483 C1458 0.950 . S
H1484 C1460 0.950 . S
H1485 C1461 0.949 . S
H1486 C1463 0.950 . S
H1487 C1465 0.950 . S
C1488 C1489 1.349 . S
C1488 C1490 1.327 . S
C1488 H1513 0.950 . S
C1489 C1488 1.349 . S
C1489 C1505 1.349 . S
C1490 C1488 1.327 . S
C1490 C1509 1.429 . S
C1490 H1514 0.950 . S
C1491 C1508 1.574 1_565 S
C1491 C1510 1.368 . S
C1491 H1515 0.949 . S
H1492 C1496 0.949 . S
C1493 C1494 1.349 . S
C1493 C1495 1.327 . S
C1493 H1516 0.950 . S
C1494 C1493 1.349 . S
C1494 C1506 1.349 . S
C1495 C1493 1.327 . S
C1495 C1511 1.429 . S
C1495 H1517 0.950 . S
C1496 H1492 0.949 . S
C1496 C1504 1.574 1_545 S
C1496 C1512 1.368 . S
H1497 C1505 0.950 . S
H1498 C1503 0.950 . S
H1499 C1504 0.949 . S
H1500 C1506 0.950 . S
H1501 C1507 0.950 . S
H1502 C1508 0.949 . S
C1503 H1498 0.950 . S
C1503 C1505 1.327 . S
C1503 C1509 1.429 . S
C1504 C1496 1.574 1_565 S
C1504 H1499 0.949 . S
C1504 C1510 1.368 . S
C1505 C1489 1.349 . S
C1505 H1497 0.950 . S
C1505 C1503 1.327 . S
C1506 C1494 1.349 . S
C1506 H1500 0.950 . S
C1506 C1507 1.327 . S
C1507 H1501 0.950 . S
C1507 C1506 1.327 . S
C1507 C1511 1.429 . S
C1508 C1491 1.574 1_545 S
C1508 H1502 0.949 . S
C1508 C1512 1.368 . S
C1509 C1490 1.429 . S
C1509 C1503 1.429 . S
C1509 C1510 1.523 . S
C1510 C1491 1.368 . S
C1510 C1504 1.368 . S
C1510 C1509 1.523 . S
C1511 C1495 1.429 . S
C1511 C1507 1.429 . S
C1511 C1512 1.523 . S
C1512 C1496 1.368 . S
C1512 C1508 1.368 . S
C1512 C1511 1.523 . S
H1513 C1488 0.950 . S
H1514 C1490 0.950 . S
H1515 C1491 0.949 . S
H1516 C1493 0.950 . S
H1517 C1495 0.950 . S
C1518 C1519 1.349 . S
C1518 C1520 1.327 . S
C1518 H1543 0.950 . S
C1519 C1518 1.349 . S
C1519 C1535 1.349 . S
C1520 C1518 1.327 . S
C1520 C1539 1.429 . S
C1520 H1544 0.950 . S
C1521 C1538 1.574 1_655 S
C1521 C1540 1.368 . S
C1521 H1545 0.949 . S
H1522 C1526 0.949 . S
C1523 C1524 1.349 . S
C1523 C1525 1.327 . S
C1523 H1546 0.950 . S
C1524 C1523 1.349 . S
C1524 C1536 1.349 . S
C1525 C1523 1.327 . S
C1525 C1541 1.429 . S
C1525 H1547 0.950 . S
C1526 H1522 0.949 . S
C1526 C1534 1.574 1_455 S
C1526 C1542 1.368 . S
H1527 C1535 0.950 . S
H1528 C1533 0.950 . S
H1529 C1534 0.949 . S
H1530 C1536 0.950 . S
H1531 C1537 0.950 . S
H1532 C1538 0.949 . S
C1533 H1528 0.950 . S
C1533 C1535 1.327 . S
C1533 C1539 1.429 . S
C1534 C1526 1.574 1_655 S
C1534 H1529 0.949 . S
C1534 C1540 1.368 . S
C1535 C1519 1.349 . S
C1535 H1527 0.950 . S
C1535 C1533 1.327 . S
C1536 C1524 1.349 . S
C1536 H1530 0.950 . S
C1536 C1537 1.327 . S
C1537 H1531 0.950 . S
C1537 C1536 1.327 . S
C1537 C1541 1.429 . S
C1538 C1521 1.574 1_455 S
C1538 H1532 0.949 . S
C1538 C1542 1.368 . S
C1539 C1520 1.429 . S
C1539 C1533 1.429 . S
C1539 C1540 1.523 . S
C1540 C1521 1.368 . S
C1540 C1534 1.368 . S
C1540 C1539 1.523 . S
C1541 C1525 1.429 . S
C1541 C1537 1.429 . S
C1541 C1542 1.523 . S
C1542 C1526 1.368 . S
C1542 C1538 1.368 . S
C1542 C1541 1.523 . S
H1543 C1518 0.950 . S
H1544 C1520 0.950 . S
H1545 C1521 0.949 . S
H1546 C1523 0.950 . S
H1547 C1525 0.950 . S
C1548 C1549 1.349 . S
C1548 C1550 1.327 1_655 S
C1548 H1573 0.950 . S
C1549 C1548 1.349 . S
C1549 C1565 1.349 1_655 S
C1550 C1548 1.327 1_455 S
C1550 C1569 1.429 . S
C1550 H1574 0.950 . S
C1551 C1568 1.574 . S
C1551 C1570 1.368 . S
C1551 H1575 0.949 . S
H1552 C1556 0.949 . S
C1553 C1554 1.349 . S
C1553 C1555 1.327 . S
C1553 H1576 0.950 . S
C1554 C1553 1.349 . S
C1554 C1566 1.349 . S
C1555 C1553 1.327 . S
C1555 C1571 1.429 . S
C1555 H1577 0.950 . S
C1556 H1552 0.949 . S
C1556 C1564 1.574 . S
C1556 C1572 1.368 . S
H1557 C1565 0.950 . S
H1558 C1563 0.950 . S
H1559 C1564 0.949 . S
H1560 C1566 0.950 . S
H1561 C1567 0.950 . S
H1562 C1568 0.949 . S
C1563 H1558 0.950 . S
C1563 C1565 1.327 . S
C1563 C1569 1.429 . S
C1564 C1556 1.574 . S
C1564 H1559 0.949 . S
C1564 C1570 1.368 . S
C1565 C1549 1.349 1_455 S
C1565 H1557 0.950 . S
C1565 C1563 1.327 . S
C1566 C1554 1.349 . S
C1566 H1560 0.950 . S
C1566 C1567 1.327 . S
C1567 H1561 0.950 . S
C1567 C1566 1.327 . S
C1567 C1571 1.429 . S
C1568 C1551 1.574 . S
C1568 H1562 0.949 . S
C1568 C1572 1.368 . S
C1569 C1550 1.429 . S
C1569 C1563 1.429 . S
C1569 C1570 1.523 . S
C1570 C1551 1.368 . S
C1570 C1564 1.368 . S
C1570 C1569 1.523 . S
C1571 C1555 1.429 . S
C1571 C1567 1.429 . S
C1571 C1572 1.523 . S
C1572 C1556 1.368 . S
C1572 C1568 1.368 . S
C1572 C1571 1.523 . S
H1573 C1548 0.950 . S
H1574 C1550 0.950 . S
H1575 C1551 0.949 . S
H1576 C1553 0.950 . S
H1577 C1555 0.950 . S
C1578 C1579 1.349 . S
C1578 C1580 1.327 . S
C1578 H1603 0.950 . S
C1579 C1578 1.349 . S
C1579 C1595 1.349 . S
C1580 C1578 1.327 . S
C1580 C1599 1.429 . S
C1580 H1604 0.950 . S
C1581 C1598 1.574 . S
C1581 C1600 1.368 . S
C1581 H1605 0.949 . S
H1582 C1586 0.949 . S
C1583 C1584 1.349 . S
C1583 C1585 1.327 . S
C1583 H1606 0.950 . S
C1584 C1583 1.349 . S
C1584 C1596 1.349 . S
C1585 C1583 1.327 . S
C1585 C1601 1.429 . S
C1585 H1607 0.950 . S
C1586 H1582 0.949 . S
C1586 C1594 1.574 . S
C1586 C1602 1.368 . S
H1587 C1595 0.950 . S
H1588 C1593 0.950 . S
H1589 C1594 0.949 . S
H1590 C1596 0.950 . S
H1591 C1597 0.950 . S
H1592 C1598 0.949 . S
C1593 H1588 0.950 . S
C1593 C1595 1.327 . S
C1593 C1599 1.429 . S
C1594 C1586 1.574 . S
C1594 H1589 0.949 . S
C1594 C1600 1.368 . S
C1595 C1579 1.349 . S
C1595 H1587 0.950 . S
C1595 C1593 1.327 . S
C1596 C1584 1.349 . S
C1596 H1590 0.950 . S
C1596 C1597 1.327 . S
C1597 H1591 0.950 . S
C1597 C1596 1.327 . S
C1597 C1601 1.429 . S
C1598 C1581 1.574 . S
C1598 H1592 0.949 . S
C1598 C1602 1.368 . S
C1599 C1580 1.429 . S
C1599 C1593 1.429 . S
C1599 C1600 1.523 1_545 S
C1600 C1581 1.368 . S
C1600 C1594 1.368 . S
C1600 C1599 1.523 1_565 S
C1601 C1585 1.429 . S
C1601 C1597 1.429 . S
C1601 C1602 1.523 . S
C1602 C1586 1.368 . S
C1602 C1598 1.368 . S
C1602 C1601 1.523 . S
H1603 C1578 0.950 . S
H1604 C1580 0.950 . S
H1605 C1581 0.949 . S
H1606 C1583 0.950 . S
H1607 C1585 0.950 . S
C1608 C1609 1.349 . S
C1608 C1610 1.327 . S
C1608 H1633 0.950 . S
C1609 C1608 1.349 . S
C1609 C1625 1.349 . S
C1610 C1608 1.327 . S
C1610 C1629 1.429 . S
C1610 H1634 0.950 . S
C1611 C1628 1.574 . S
C1611 C1630 1.368 . S
C1611 H1635 0.949 . S
H1612 C1616 0.949 . S
C1613 C1614 1.349 1_565 S
C1613 C1615 1.327 . S
C1613 H1636 0.950 . S
C1614 C1613 1.349 1_545 S
C1614 C1626 1.349 . S
C1615 C1613 1.327 . S
C1615 C1631 1.429 . S
C1615 H1637 0.950 . S
C1616 H1612 0.949 . S
C1616 C1624 1.574 . S
C1616 C1632 1.368 . S
H1617 C1625 0.950 . S
H1618 C1623 0.950 . S
H1619 C1624 0.949 . S
H1620 C1626 0.950 . S
H1621 C1627 0.950 . S
H1622 C1628 0.949 . S
C1623 H1618 0.950 . S
C1623 C1625 1.327 . S
C1623 C1629 1.429 . S
C1624 C1616 1.574 . S
C1624 H1619 0.949 . S
C1624 C1630 1.368 . S
C1625 C1609 1.349 . S
C1625 H1617 0.950 . S
C1625 C1623 1.327 . S
C1626 C1614 1.349 . S
C1626 H1620 0.950 . S
C1626 C1627 1.327 1_545 S
C1627 H1621 0.950 . S
C1627 C1626 1.327 1_565 S
C1627 C1631 1.429 . S
C1628 C1611 1.574 . S
C1628 H1622 0.949 . S
C1628 C1632 1.368 . S
C1629 C1610 1.429 . S
C1629 C1623 1.429 . S
C1629 C1630 1.523 1_655 S
C1630 C1611 1.368 . S
C1630 C1624 1.368 . S
C1630 C1629 1.523 1_455 S
C1631 C1615 1.429 . S
C1631 C1627 1.429 . S
C1631 C1632 1.523 . S
C1632 C1616 1.368 . S
C1632 C1628 1.368 . S
C1632 C1631 1.523 . S
H1633 C1608 0.950 . S
H1634 C1610 0.950 . S
H1635 C1611 0.949 . S
H1636 C1613 0.950 . S
H1637 C1615 0.950 . S
C1638 C1639 1.349 . S
C1638 C1640 1.327 . S
C1638 H1663 0.950 . S
C1639 C1638 1.349 . S
C1639 C1655 1.349 . S
C1640 C1638 1.327 . S
C1640 C1659 1.429 . S
C1640 H1664 0.950 . S
C1641 C1658 1.574 . S
C1641 C1660 1.368 . S
C1641 H1665 0.949 . S
H1642 C1646 0.949 . S
C1643 C1644 1.349 . S
C1643 C1645 1.327 1_565 S
C1643 H1666 0.950 . S
C1644 C1643 1.349 . S
C1644 C1656 1.349 1_565 S
C1645 C1643 1.327 1_545 S
C1645 C1661 1.429 . S
C1645 H1667 0.950 . S
C1646 H1642 0.949 . S
C1646 C1654 1.574 . S
C1646 C1662 1.368 . S
H1647 C1655 0.950 . S
H1648 C1653 0.950 . S
H1649 C1654 0.949 . S
H1650 C1656 0.950 . S
H1651 C1657 0.950 . S
H1652 C1658 0.949 . S
C1653 H1648 0.950 . S
C1653 C1655 1.327 . S
C1653 C1659 1.429 . S
C1654 C1646 1.574 . S
C1654 H1649 0.949 . S
C1654 C1660 1.368 . S
C1655 C1639 1.349 . S
C1655 H1647 0.950 . S
C1655 C1653 1.327 . S
C1656 C1644 1.349 1_545 S
C1656 H1650 0.950 . S
C1656 C1657 1.327 . S
C1657 H1651 0.950 . S
C1657 C1656 1.327 . S
C1657 C1661 1.429 . S
C1658 C1641 1.574 . S
C1658 H1652 0.949 . S
C1658 C1662 1.368 . S
C1659 C1640 1.429 . S
C1659 C1653 1.429 . S
C1659 C1660 1.523 . S
C1660 C1641 1.368 . S
C1660 C1654 1.368 . S
C1660 C1659 1.523 . S
C1661 C1645 1.429 . S
C1661 C1657 1.429 . S
C1661 C1662 1.523 . S
C1662 C1646 1.368 . S
C1662 C1658 1.368 . S
C1662 C1661 1.523 . S
H1663 C1638 0.950 . S
H1664 C1640 0.950 . S
H1665 C1641 0.949 . S
H1666 C1643 0.950 . S
H1667 C1645 0.950 . S
C1668 C1669 1.349 . S
C1668 C1670 1.327 1_455 S
C1668 H1693 0.950 . S
C1669 C1668 1.349 . S
C1669 C1685 1.349 1_455 S
C1670 C1668 1.327 1_655 S
C1670 C1689 1.429 . S
C1670 H1694 0.950 . S
C1671 C1688 1.574 . S
C1671 C1690 1.368 . S
C1671 H1695 0.949 . S
H1672 C1676 0.949 . S
C1673 C1674 1.349 . S
C1673 C1675 1.327 . S
C1673 H1696 0.950 . S
C1674 C1673 1.349 . S
C1674 C1686 1.349 . S
C1675 C1673 1.327 . S
C1675 C1691 1.429 . S
C1675 H1697 0.950 . S
C1676 H1672 0.949 . S
C1676 C1684 1.574 . S
C1676 C1692 1.368 . S
H1677 C1685 0.953 1_455 S
H1678 C1683 0.950 . S
H1679 C1684 0.949 . S
H1680 C1686 0.950 . S
H1681 C1687 0.950 . S
H1682 C1688 0.949 . S
C1683 H1678 0.950 . S
C1683 C1685 1.327 . S
C1683 C1689 1.429 . S
C1684 C1676 1.574 . S
C1684 H1679 0.949 . S
C1684 C1690 1.368 . S
C1685 C1669 1.349 1_655 S
C1685 H1677 0.953 1_655 S
C1685 C1683 1.327 . S
C1686 C1674 1.349 . S
C1686 H1680 0.950 . S
C1686 C1687 1.327 . S
C1687 H1681 0.950 . S
C1687 C1686 1.327 . S
C1687 C1691 1.429 . S
C1688 C1671 1.574 . S
C1688 H1682 0.949 . S
C1688 C1692 1.368 . S
C1689 C1670 1.429 . S
C1689 C1683 1.429 . S
C1689 C1690 1.523 . S
C1690 C1671 1.368 . S
C1690 C1684 1.368 . S
C1690 C1689 1.523 . S
C1691 C1675 1.429 . S
C1691 C1687 1.429 . S
C1691 C1692 1.523 1_565 S
C1692 C1676 1.368 . S
C1692 C1688 1.368 . S
C1692 C1691 1.523 1_545 S
H1693 C1668 0.950 . S
H1694 C1670 0.950 . S
H1695 C1671 0.949 . S
H1696 C1673 0.950 . S
H1697 C1675 0.950 . S
C1698 C1699 1.349 . S
C1698 C1700 1.327 . S
C1698 H1723 0.950 . S
C1699 C1698 1.349 . S
C1699 C1715 1.349 . S
C1700 C1698 1.327 . S
C1700 C1719 1.429 . S
C1700 H1724 0.950 . S
C1701 C1718 1.574 . S
C1701 C1720 1.368 . S
C1701 H1725 0.949 . S
H1702 C1706 0.949 . S
C1703 C1704 1.349 . S
C1703 C1705 1.327 . S
C1703 H1726 0.950 . S
C1704 C1703 1.349 . S
C1704 C1716 1.349 . S
C1705 C1703 1.327 . S
C1705 C1721 1.429 . S
C1705 H1727 0.950 . S
C1706 H1702 0.949 . S
C1706 C1714 1.574 . S
C1706 C1722 1.368 . S
H1707 C1715 0.950 . S
H1708 C1713 0.950 1_655 S
H1709 C1714 0.949 . S
H1710 C1716 0.950 . S
H1711 C1717 0.950 . S
H1712 C1718 0.949 . S
C1713 H1708 0.950 1_455 S
C1713 C1715 1.327 . S
C1713 C1719 1.429 . S
C1714 C1706 1.574 . S
C1714 H1709 0.949 . S
C1714 C1720 1.368 . S
C1715 C1699 1.349 . S
C1715 H1707 0.950 . S
C1715 C1713 1.327 . S
C1716 C1704 1.349 . S
C1716 H1710 0.950 . S
C1716 C1717 1.327 . S
C1717 H1711 0.950 . S
C1717 C1716 1.327 . S
C1717 C1721 1.429 . S
C1718 C1701 1.574 . S
C1718 H1712 0.949 . S
C1718 C1722 1.368 . S
C1719 C1700 1.429 . S
C1719 C1713 1.429 . S
C1719 C1720 1.523 1_455 S
C1720 C1701 1.368 . S
C1720 C1714 1.368 . S
C1720 C1719 1.523 1_655 S
C1721 C1705 1.429 . S
C1721 C1717 1.429 . S
C1721 C1722 1.523 . S
C1722 C1706 1.368 . S
C1722 C1718 1.368 . S
C1722 C1721 1.523 . S
H1723 C1698 0.950 . S
H1724 C1700 0.950 . S
H1725 C1701 0.949 . S
H1726 C1703 0.950 . S
H1727 C1705 0.950 . S
C1728 C1729 1.349 . S
C1728 C1730 1.327 . S
C1728 H1753 0.950 . S
C1729 C1728 1.349 . S
C1729 C1745 1.349 . S
C1730 C1728 1.327 . S
C1730 C1749 1.429 . S
C1730 H1754 0.950 . S
C1731 C1748 1.574 . S
C1731 C1750 1.368 . S
C1731 H1755 0.949 . S
H1732 C1736 0.949 . S
C1733 C1734 1.349 . S
C1733 C1735 1.327 1_455 S
C1733 H1756 0.950 . S
C1734 C1733 1.349 . S
C1734 C1746 1.349 1_455 S
C1735 C1733 1.327 1_655 S
C1735 C1751 1.429 . S
C1735 H1757 0.950 . S
C1736 H1732 0.949 . S
C1736 C1744 1.574 . S
C1736 C1752 1.368 . S
H1737 C1745 0.950 . S
H1738 C1743 0.950 . S
H1739 C1744 0.949 . S
H1740 C1746 0.950 . S
H1741 C1747 0.950 . S
H1742 C1748 0.949 . S
C1743 H1738 0.950 . S
C1743 C1745 1.327 . S
C1743 C1749 1.429 . S
C1744 C1736 1.574 . S
C1744 H1739 0.949 . S
C1744 C1750 1.368 . S
C1745 C1729 1.349 . S
C1745 H1737 0.950 . S
C1745 C1743 1.327 . S
C1746 C1734 1.349 1_655 S
C1746 H1740 0.950 . S
C1746 C1747 1.327 . S
C1747 H1741 0.950 . S
C1747 C1746 1.327 . S
C1747 C1751 1.429 . S
C1748 C1731 1.574 . S
C1748 H1742 0.949 . S
C1748 C1752 1.368 . S
C1749 C1730 1.429 . S
C1749 C1743 1.429 . S
C1749 C1750 1.523 . S
C1750 C1731 1.368 . S
C1750 C1744 1.368 . S
C1750 C1749 1.523 . S
C1751 C1735 1.429 . S
C1751 C1747 1.429 . S
C1751 C1752 1.523 . S
C1752 C1736 1.368 . S
C1752 C1748 1.368 . S
C1752 C1751 1.523 . S
H1753 C1728 0.950 . S
H1754 C1730 0.950 . S
H1755 C1731 0.949 . S
H1756 C1733 0.950 . S
H1757 C1735 0.950 . S
C1758 C1759 1.349 . S
C1758 C1760 1.327 . S
C1758 H1783 0.950 . S
C1759 C1758 1.349 . S
C1759 C1775 1.349 . S
C1760 C1758 1.327 . S
C1760 C1779 1.429 . S
C1760 H1784 0.950 . S
C1761 C1778 1.574 . S
C1761 C1780 1.368 . S
C1761 H1785 0.949 . S
H1762 C1766 0.949 . S
C1763 C1764 1.349 . S
C1763 C1765 1.327 . S
C1763 H1786 0.950 . S
C1764 C1763 1.349 . S
C1764 C1776 1.349 . S
C1765 C1763 1.327 . S
C1765 C1781 1.429 . S
C1765 H1787 0.950 . S
C1766 H1762 0.949 . S
C1766 C1774 1.574 . S
C1766 C1782 1.368 . S
H1767 C1775 0.950 . S
H1768 C1773 0.950 1_545 S
H1769 C1774 0.964 . S
H1770 C1776 0.950 . S
H1771 C1777 0.950 . S
H1772 C1778 0.949 . S
C1773 H1768 0.950 1_565 S
C1773 C1775 1.327 . S
C1773 C1779 1.429 . S
C1774 C1766 1.574 . S
C1774 H1769 0.964 . S
C1774 C1780 1.368 . S
C1775 C1759 1.349 . S
C1775 H1767 0.950 . S
C1775 C1773 1.327 . S
C1776 C1764 1.349 . S
C1776 H1770 0.950 . S
C1776 C1777 1.327 . S
C1777 H1771 0.950 . S
C1777 C1776 1.327 . S
C1777 C1781 1.429 . S
C1778 C1761 1.574 . S
C1778 H1772 0.949 . S
C1778 C1782 1.368 . S
C1779 C1760 1.429 . S
C1779 C1773 1.429 . S
C1779 C1780 1.523 1_565 S
C1780 C1761 1.368 . S
C1780 C1774 1.368 . S
C1780 C1779 1.523 1_545 S
C1781 C1765 1.429 . S
C1781 C1777 1.429 . S
C1781 C1782 1.523 . S
C1782 C1766 1.368 . S
C1782 C1778 1.368 . S
C1782 C1781 1.523 . S
H1783 C1758 0.950 . S
H1784 C1760 0.950 . S
H1785 C1761 0.949 . S
H1786 C1763 0.950 . S
H1787 C1765 0.950 . S
C1788 C1789 1.349 . S
C1788 C1790 1.327 . S
C1788 H1813 0.950 . S
C1789 C1788 1.349 . S
C1789 C1805 1.349 . S
C1790 C1788 1.327 . S
C1790 C1809 1.429 . S
C1790 H1814 0.950 . S
C1791 C1808 1.574 . S
C1791 C1810 1.368 . S
C1791 H1815 0.949 . S
H1792 C1796 0.949 . S
C1793 C1794 1.349 1_545 S
C1793 C1795 1.327 . S
C1793 H1816 0.950 . S
C1794 C1793 1.349 1_565 S
C1794 C1806 1.349 . S
C1795 C1793 1.327 . S
C1795 C1811 1.429 . S
C1795 H1817 0.950 . S
C1796 H1792 0.949 . S
C1796 C1804 1.574 . S
C1796 C1812 1.368 . S
H1797 C1805 0.950 . S
H1798 C1803 0.926 1_655 S
H1799 C1804 0.949 . S
H1800 C1806 0.950 . S
H1801 C1807 0.950 . S
H1802 C1808 0.949 . S
C1803 H1798 0.926 1_455 S
C1803 C1805 1.327 . S
C1803 C1809 1.429 . S
C1804 C1796 1.574 . S
C1804 H1799 0.949 . S
C1804 C1810 1.368 . S
C1805 C1789 1.349 . S
C1805 H1797 0.950 . S
C1805 C1803 1.327 . S
C1806 C1794 1.349 . S
C1806 H1800 0.950 . S
C1806 C1807 1.327 1_565 S
C1807 H1801 0.950 . S
C1807 C1806 1.327 1_545 S
C1807 C1811 1.429 . S
C1808 C1791 1.574 . S
C1808 H1802 0.949 . S
C1808 C1812 1.368 . S
C1809 C1790 1.429 . S
C1809 C1803 1.429 . S
C1809 C1810 1.523 1_455 S
C1810 C1791 1.368 . S
C1810 C1804 1.368 . S
C1810 C1809 1.523 1_655 S
C1811 C1795 1.429 . S
C1811 C1807 1.429 . S
C1811 C1812 1.523 . S
C1812 C1796 1.368 . S
C1812 C1808 1.368 . S
C1812 C1811 1.523 . S
H1813 C1788 0.950 . S
H1814 C1790 0.950 . S
H1815 C1791 0.949 . S
H1816 C1793 0.950 . S
H1817 C1795 0.950 . S
C1818 C1819 1.349 1_565 S
C1818 C1820 1.327 . S
C1818 H1843 0.950 . S
C1819 C1818 1.349 1_545 S
C1819 C1835 1.349 . S
C1820 C1818 1.327 . S
C1820 C1839 1.429 . S
C1820 H1844 0.950 . S
C1821 C1838 1.574 . S
C1821 C1840 1.368 . S
C1821 H1845 0.949 . S
H1822 C1826 0.949 . S
C1823 C1824 1.349 . S
C1823 C1825 1.327 . S
C1823 H1846 0.950 . S
C1824 C1823 1.349 . S
C1824 C1836 1.349 . S
C1825 C1823 1.327 . S
C1825 C1841 1.429 . S
C1825 H1847 0.950 . S
C1826 H1822 0.949 . S
C1826 C1834 1.574 . S
C1826 C1842 1.368 . S
H1827 C1835 0.950 . S
H1828 C1833 0.950 . S
H1829 C1834 0.949 . S
H1830 C1836 0.950 . S
H1831 C1837 0.950 . S
H1832 C1838 0.949 . S
C1833 H1828 0.950 . S
C1833 C1835 1.327 1_565 S
C1833 C1839 1.429 . S
C1834 C1826 1.574 . S
C1834 H1829 0.949 . S
C1834 C1840 1.368 . S
C1835 C1819 1.349 . S
C1835 H1827 0.950 . S
C1835 C1833 1.327 1_545 S
C1836 C1824 1.349 . S
C1836 H1830 0.950 . S
C1836 C1837 1.327 . S
C1837 H1831 0.950 . S
C1837 C1836 1.327 . S
C1837 C1841 1.429 . S
C1838 C1821 1.574 . S
C1838 H1832 0.949 . S
C1838 C1842 1.368 . S
C1839 C1820 1.429 . S
C1839 C1833 1.429 . S
C1839 C1840 1.523 . S
C1840 C1821 1.368 . S
C1840 C1834 1.368 . S
C1840 C1839 1.523 . S
C1841 C1825 1.429 . S
C1841 C1837 1.429 . S
C1841 C1842 1.523 . S
C1842 C1826 1.368 . S
C1842 C1838 1.368 . S
C1842 C1841 1.523 . S
H1843 C1818 0.950 . S
H1844 C1820 0.950 . S
H1845 C1821 0.949 . S
H1846 C1823 0.950 . S
H1847 C1825 0.950 . S
C1848 C1849 1.349 . S
C1848 C1850 1.327 . S
C1848 H1873 0.950 . S
C1849 C1848 1.349 . S
C1849 C1865 1.349 . S
C1850 C1848 1.327 . S
C1850 C1869 1.429 . S
C1850 H1874 0.950 . S
C1851 C1868 1.574 . S
C1851 C1870 1.368 . S
C1851 H1875 0.949 . S
H1852 C1856 0.949 . S
C1853 C1854 1.349 . S
C1853 C1855 1.327 1_655 S
C1853 H1876 0.950 . S
C1854 C1853 1.349 . S
C1854 C1866 1.349 1_655 S
C1855 C1853 1.327 1_455 S
C1855 C1871 1.429 . S
C1855 H1877 0.950 . S
C1856 H1852 0.949 . S
C1856 C1864 1.574 . S
C1856 C1872 1.368 . S
H1857 C1865 0.950 . S
H1858 C1863 0.950 . S
H1859 C1864 0.949 . S
H1860 C1866 0.950 1_655 S
H1861 C1867 0.950 . S
H1862 C1868 0.949 . S
C1863 H1858 0.950 . S
C1863 C1865 1.327 . S
C1863 C1869 1.429 . S
C1864 C1856 1.574 . S
C1864 H1859 0.949 . S
C1864 C1870 1.368 . S
C1865 C1849 1.349 . S
C1865 H1857 0.950 . S
C1865 C1863 1.327 . S
C1866 C1854 1.349 1_455 S
C1866 H1860 0.950 1_455 S
C1866 C1867 1.327 . S
C1867 H1861 0.950 . S
C1867 C1866 1.327 . S
C1867 C1871 1.429 . S
C1868 C1851 1.574 . S
C1868 H1862 0.949 . S
C1868 C1872 1.368 . S
C1869 C1850 1.429 . S
C1869 C1863 1.429 . S
C1869 C1870 1.523 1_545 S
C1870 C1851 1.368 . S
C1870 C1864 1.368 . S
C1870 C1869 1.523 1_565 S
C1871 C1855 1.429 . S
C1871 C1867 1.429 . S
C1871 C1872 1.523 . S
C1872 C1856 1.368 . S
C1872 C1868 1.368 . S
C1872 C1871 1.523 . S
H1873 C1848 0.950 . S
H1874 C1850 0.950 . S
H1875 C1851 0.949 . S
H1876 C1853 0.950 . S
H1877 C1855 0.950 . S
C1878 C1879 1.349 . S
C1878 C1880 1.327 . S
C1878 H1903 0.950 . S
C1879 C1878 1.349 . S
C1879 C1895 1.349 . S
C1880 C1878 1.327 . S
C1880 C1899 1.429 . S
C1880 H1904 0.950 . S
C1881 C1898 1.574 . S
C1881 C1900 1.368 . S
C1881 H1905 0.949 . S
H1882 C1886 0.949 . S
C1883 C1884 1.349 . S
C1883 C1885 1.327 . S
C1883 H1906 0.950 . S
C1884 C1883 1.349 . S
C1884 C1896 1.349 . S
C1885 C1883 1.327 . S
C1885 C1901 1.429 . S
C1885 H1907 0.950 . S
C1886 H1882 0.949 . S
C1886 C1894 1.574 . S
C1886 C1902 1.368 . S
H1887 C1895 0.950 . S
H1888 C1893 0.950 . S
H1889 C1894 0.949 . S
H1890 C1896 0.950 . S
H1891 C1897 0.950 . S
H1892 C1898 0.949 . S
C1893 H1888 0.950 . S
C1893 C1895 1.327 . S
C1893 C1899 1.429 . S
C1894 C1886 1.574 . S
C1894 H1889 0.949 . S
C1894 C1900 1.368 . S
C1895 C1879 1.349 . S
C1895 H1887 0.950 . S
C1895 C1893 1.327 . S
C1896 C1884 1.349 . S
C1896 H1890 0.950 . S
C1896 C1897 1.327 . S
C1897 H1891 0.950 . S
C1897 C1896 1.327 . S
C1897 C1901 1.429 . S
C1898 C1881 1.574 . S
C1898 H1892 0.949 . S
C1898 C1902 1.368 . S
C1899 C1880 1.429 . S
C1899 C1893 1.429 . S
C1899 C1900 1.523 . S
C1900 C1881 1.368 . S
C1900 C1894 1.368 . S
C1900 C1899 1.523 . S
C1901 C1885 1.429 . S
C1901 C1897 1.429 . S
C1901 C1902 1.523 1_655 S
C1902 C1886 1.368 . S
C1902 C1898 1.368 . S
C1902 C1901 1.523 1_455 S
H1903 C1878 0.950 . S
H1904 C1880 0.950 . S
H1905 C1881 0.949 . S
H1906 C1883 0.950 . S
H1907 C1885 0.950 . S
C1908 C1909 1.349 . S
C1908 C1910 1.327 . S
C1908 H1933 0.950 . S
C1909 C1908 1.349 . S
C1909 C1925 1.349 . S
C1910 C1908 1.327 . S
C1910 C1929 1.429 . S
C1910 H1934 0.950 . S
C1911 C1928 1.574 . S
C1911 C1930 1.368 . S
C1911 H1935 0.949 . S
H1912 C1916 0.949 . S
C1913 C1914 1.349 . S
C1913 C1915 1.327 . S
C1913 H1936 0.950 . S
C1914 C1913 1.349 . S
C1914 C1926 1.349 . S
C1915 C1913 1.327 . S
C1915 C1931 1.429 . S
C1915 H1937 0.950 . S
C1916 H1912 0.949 . S
C1916 C1924 1.574 . S
C1916 C1932 1.368 . S
H1917 C1925 0.950 . S
H1918 C1923 0.950 . S
H1919 C1924 0.949 . S
H1920 C1926 0.950 . S
H1921 C1927 0.950 . S
H1922 C1928 0.949 . S
C1923 H1918 0.950 . S
C1923 C1925 1.327 . S
C1923 C1929 1.429 . S
C1924 C1916 1.574 . S
C1924 H1919 0.949 . S
C1924 C1930 1.368 . S
C1925 C1909 1.349 . S
C1925 H1917 0.950 . S
C1925 C1923 1.327 . S
C1926 C1914 1.349 . S
C1926 H1920 0.950 . S
C1926 C1927 1.327 . S
C1927 H1921 0.950 . S
C1927 C1926 1.327 . S
C1927 C1931 1.429 . S
C1928 C1911 1.574 . S
C1928 H1922 0.949 . S
C1928 C1932 1.368 . S
C1929 C1910 1.429 . S
C1929 C1923 1.429 . S
C1929 C1930 1.523 . S
C1930 C1911 1.368 . S
C1930 C1924 1.368 . S
C1930 C1929 1.523 . S
C1931 C1915 1.429 . S
C1931 C1927 1.429 . S
C1931 C1932 1.523 . S
C1932 C1916 1.368 . S
C1932 C1928 1.368 . S
C1932 C1931 1.523 . S
H1933 C1908 0.950 . S
H1934 C1910 0.950 . S
H1935 C1911 0.949 . S
H1936 C1913 0.950 . S
H1937 C1915 0.950 . S
C1938 C1939 1.349 . S
C1938 C1940 1.327 . S
C1938 H1963 0.950 . S
C1939 C1938 1.349 . S
C1939 C1955 1.349 . S
C1940 C1938 1.327 . S
C1940 C1959 1.429 . S
C1940 H1964 0.950 . S
C1941 C1958 1.574 . S
C1941 C1960 1.368 . S
C1941 H1965 0.949 . S
H1942 C1946 0.949 . S
C1943 C1944 1.349 . S
C1943 C1945 1.327 . S
C1943 H1966 0.950 . S
C1944 C1943 1.349 . S
C1944 C1956 1.349 . S
C1945 C1943 1.327 . S
C1945 C1961 1.429 . S
C1945 H1967 0.950 . S
C1946 H1942 0.949 . S
C1946 C1954 1.574 . S
C1946 C1962 1.368 . S
H1947 C1955 0.950 . S
H1948 C1953 0.950 . S
H1949 C1954 0.949 . S
H1950 C1956 0.950 . S
H1951 C1957 0.950 . S
H1952 C1958 0.949 . S
C1953 H1948 0.950 . S
C1953 C1955 1.327 . S
C1953 C1959 1.429 . S
C1954 C1946 1.574 . S
C1954 H1949 0.949 . S
C1954 C1960 1.368 . S
C1955 C1939 1.349 . S
C1955 H1947 0.950 . S
C1955 C1953 1.327 . S
C1956 C1944 1.349 . S
C1956 H1950 0.950 . S
C1956 C1957 1.327 . S
C1957 H1951 0.950 . S
C1957 C1956 1.327 . S
C1957 C1961 1.429 . S
C1958 C1941 1.574 . S
C1958 H1952 0.949 . S
C1958 C1962 1.368 . S
C1959 C1940 1.429 . S
C1959 C1953 1.429 . S
C1959 C1960 1.523 . S
C1960 C1941 1.368 . S
C1960 C1954 1.368 . S
C1960 C1959 1.523 . S
C1961 C1945 1.429 . S
C1961 C1957 1.429 . S
C1961 C1962 1.523 . S
C1962 C1946 1.368 . S
C1962 C1958 1.368 . S
C1962 C1961 1.523 . S
H1963 C1938 0.950 . S
H1964 C1940 0.950 . S
H1965 C1941 0.949 . S
H1966 C1943 0.950 . S
H1967 C1945 0.950 . S
C1968 C1969 1.349 . S
C1968 C1970 1.327 . S
C1968 H1993 0.950 . S
C1969 C1968 1.349 . S
C1969 C1985 1.349 . S
C1970 C1968 1.327 . S
C1970 C1989 1.429 . S
C1970 H1994 0.950 . S
C1971 C1988 1.574 . S
C1971 C1990 1.368 . S
C1971 H1995 0.949 . S
H1972 C1976 0.949 . S
C1973 C1974 1.349 . S
C1973 C1975 1.327 . S
C1973 H1996 0.950 . S
C1974 C1973 1.349 . S
C1974 C1986 1.349 . S
C1975 C1973 1.327 . S
C1975 C1991 1.429 . S
C1975 H1997 0.950 . S
C1976 H1972 0.949 . S
C1976 C1984 1.574 . S
C1976 C1992 1.368 . S
H1977 C1985 0.950 . S
H1978 C1983 0.950 . S
H1979 C1984 0.949 . S
H1980 C1986 0.950 . S
H1981 C1987 0.950 . S
H1982 C1988 0.949 . S
C1983 H1978 0.950 . S
C1983 C1985 1.327 . S
C1983 C1989 1.429 . S
C1984 C1976 1.574 . S
C1984 H1979 0.949 . S
C1984 C1990 1.368 . S
C1985 C1969 1.349 . S
C1985 H1977 0.950 . S
C1985 C1983 1.327 . S
C1986 C1974 1.349 . S
C1986 H1980 0.950 . S
C1986 C1987 1.327 . S
C1987 H1981 0.950 . S
C1987 C1986 1.327 . S
C1987 C1991 1.429 . S
C1988 C1971 1.574 . S
C1988 H1982 0.949 . S
C1988 C1992 1.368 . S
C1989 C1970 1.429 . S
C1989 C1983 1.429 . S
C1989 C1990 1.523 . S
C1990 C1971 1.368 . S
C1990 C1984 1.368 . S
C1990 C1989 1.523 . S
C1991 C1975 1.429 . S
C1991 C1987 1.429 . S
C1991 C1992 1.523 . S
C1992 C1976 1.368 . S
C1992 C1988 1.368 . S
C1992 C1991 1.523 . S
H1993 C1968 0.950 . S
H1994 C1970 0.950 . S
H1995 C1971 0.949 . S
H1996 C1973 0.950 . S
H1997 C1975 0.950 . S
C1998 C1999 1.349 . S
C1998 C2000 1.327 . S
C1998 H2023 0.950 . S
C1999 C1998 1.349 . S
C1999 C2015 1.349 . S
C2000 C1998 1.327 . S
C2000 C2019 1.429 . S
C2000 H2024 0.950 . S
C2001 C2018 1.574 . S
C2001 C2020 1.368 . S
C2001 H2025 0.949 . S
H2002 C2006 0.949 . S
C2003 C2004 1.349 . S
C2003 C2005 1.327 . S
C2003 H2026 0.950 . S
C2004 C2003 1.349 . S
C2004 C2016 1.349 . S
C2005 C2003 1.327 . S
C2005 C2021 1.429 . S
C2005 H2027 0.950 . S
C2006 H2002 0.949 . S
C2006 C2014 1.574 . S
C2006 C2022 1.368 . S
H2007 C2015 0.950 . S
H2008 C2013 0.950 . S
H2009 C2014 0.949 . S
H2010 C2016 0.950 . S
H2011 C2017 0.950 . S
H2012 C2018 0.949 . S
C2013 H2008 0.950 . S
C2013 C2015 1.327 . S
C2013 C2019 1.429 . S
C2014 C2006 1.574 . S
C2014 H2009 0.949 . S
C2014 C2020 1.368 . S
C2015 C1999 1.349 . S
C2015 H2007 0.950 . S
C2015 C2013 1.327 . S
C2016 C2004 1.349 . S
C2016 H2010 0.950 . S
C2016 C2017 1.327 . S
C2017 H2011 0.950 . S
C2017 C2016 1.327 . S
C2017 C2021 1.429 . S
C2018 C2001 1.574 . S
C2018 H2012 0.949 . S
C2018 C2022 1.368 . S
C2019 C2000 1.429 . S
C2019 C2013 1.429 . S
C2019 C2020 1.523 . S
C2020 C2001 1.368 . S
C2020 C2014 1.368 . S
C2020 C2019 1.523 . S
C2021 C2005 1.429 . S
C2021 C2017 1.429 . S
C2021 C2022 1.523 . S
C2022 C2006 1.368 . S
C2022 C2018 1.368 . S
C2022 C2021 1.523 . S
H2023 C1998 0.950 . S
H2024 C2000 0.950 . S
H2025 C2001 0.949 . S
H2026 C2003 0.950 . S
H2027 C2005 0.950 . S
C2028 C2029 1.349 . S
C2028 C2030 1.327 . S
C2028 H2053 0.950 . S
C2029 C2028 1.349 . S
C2029 C2045 1.349 . S
C2030 C2028 1.327 . S
C2030 C2049 1.429 . S
C2030 H2054 0.950 . S
C2031 C2048 1.574 . S
C2031 C2050 1.368 . S
C2031 H2055 0.949 . S
H2032 C2036 0.949 . S
C2033 C2034 1.349 . S
C2033 C2035 1.327 . S
C2033 H2056 0.950 . S
C2034 C2033 1.349 . S
C2034 C2046 1.349 . S
C2035 C2033 1.327 . S
C2035 C2051 1.429 . S
C2035 H2057 0.950 . S
C2036 H2032 0.949 . S
C2036 C2044 1.574 . S
C2036 C2052 1.368 . S
H2037 C2045 0.950 . S
H2038 C2043 0.950 . S
H2039 C2044 0.949 . S
H2040 C2046 0.950 . S
H2041 C2047 0.950 . S
H2042 C2048 0.949 . S
C2043 H2038 0.950 . S
C2043 C2045 1.327 . S
C2043 C2049 1.429 . S
C2044 C2036 1.574 . S
C2044 H2039 0.949 . S
C2044 C2050 1.368 . S
C2045 C2029 1.349 . S
C2045 H2037 0.950 . S
C2045 C2043 1.327 . S
C2046 C2034 1.349 . S
C2046 H2040 0.950 . S
C2046 C2047 1.327 . S
C2047 H2041 0.950 . S
C2047 C2046 1.327 . S
C2047 C2051 1.429 . S
C2048 C2031 1.574 . S
C2048 H2042 0.949 . S
C2048 C2052 1.368 . S
C2049 C2030 1.429 . S
C2049 C2043 1.429 . S
C2049 C2050 1.523 . S
C2050 C2031 1.368 . S
C2050 C2044 1.368 . S
C2050 C2049 1.523 . S
C2051 C2035 1.429 . S
C2051 C2047 1.429 . S
C2051 C2052 1.523 . S
C2052 C2036 1.368 . S
C2052 C2048 1.368 . S
C2052 C2051 1.523 . S
H2053 C2028 0.950 . S
H2054 C2030 0.950 . S
H2055 C2031 0.949 . S
H2056 C2033 0.950 . S
H2057 C2035 0.950 . S
C2058 C2059 1.349 . S
C2058 C2060 1.327 . S
C2058 H2083 0.950 . S
C2059 C2058 1.349 . S
C2059 C2075 1.349 . S
C2060 C2058 1.327 . S
C2060 C2079 1.429 . S
C2060 H2084 0.950 . S
C2061 C2078 1.574 . S
C2061 C2080 1.368 . S
C2061 H2085 0.949 . S
H2062 C2066 0.949 . S
C2063 C2064 1.349 . S
C2063 C2065 1.327 . S
C2063 H2086 0.950 . S
C2064 C2063 1.349 . S
C2064 C2076 1.349 . S
C2065 C2063 1.327 . S
C2065 C2081 1.429 . S
C2065 H2087 0.950 . S
C2066 H2062 0.949 . S
C2066 C2074 1.574 . S
C2066 C2082 1.368 . S
H2067 C2075 0.950 . S
H2068 C2073 0.950 . S
H2069 C2074 0.949 . S
H2070 C2076 0.950 . S
H2071 C2077 0.950 . S
H2072 C2078 0.949 . S
C2073 H2068 0.950 . S
C2073 C2075 1.327 . S
C2073 C2079 1.429 . S
C2074 C2066 1.574 . S
C2074 H2069 0.949 . S
C2074 C2080 1.368 . S
C2075 C2059 1.349 . S
C2075 H2067 0.950 . S
C2075 C2073 1.327 . S
C2076 C2064 1.349 . S
C2076 H2070 0.950 . S
C2076 C2077 1.327 . S
C2077 H2071 0.950 . S
C2077 C2076 1.327 . S
C2077 C2081 1.429 . S
C2078 C2061 1.574 . S
C2078 H2072 0.949 . S
C2078 C2082 1.368 . S
C2079 C2060 1.429 . S
C2079 C2073 1.429 . S
C2079 C2080 1.523 . S
C2080 C2061 1.368 . S
C2080 C2074 1.368 . S
C2080 C2079 1.523 . S
C2081 C2065 1.429 . S
C2081 C2077 1.429 . S
C2081 C2082 1.523 . S
C2082 C2066 1.368 . S
C2082 C2078 1.368 . S
C2082 C2081 1.523 . S
H2083 C2058 0.950 . S
H2084 C2060 0.950 . S
H2085 C2061 0.949 . S
H2086 C2063 0.950 . S
H2087 C2065 0.950 . S
C2088 C2089 1.349 . S
C2088 C2090 1.327 . S
C2088 H2113 0.950 . S
C2089 C2088 1.349 . S
C2089 C2105 1.349 . S
C2090 C2088 1.327 . S
C2090 C2109 1.429 . S
C2090 H2114 0.950 . S
C2091 C2108 1.574 . S
C2091 C2110 1.368 . S
C2091 H2115 0.949 . S
H2092 C2096 0.949 . S
C2093 C2094 1.349 . S
C2093 C2095 1.327 . S
C2093 H2116 0.950 . S
C2094 C2093 1.349 . S
C2094 C2106 1.349 . S
C2095 C2093 1.327 . S
C2095 C2111 1.429 . S
C2095 H2117 0.950 . S
C2096 H2092 0.949 . S
C2096 C2104 1.574 . S
C2096 C2112 1.368 . S
H2097 C2105 0.950 . S
H2098 C2103 0.950 . S
H2099 C2104 0.949 . S
H2100 C2106 0.950 . S
H2101 C2107 0.950 . S
H2102 C2108 0.949 . S
C2103 H2098 0.950 . S
C2103 C2105 1.327 . S
C2103 C2109 1.429 . S
C2104 C2096 1.574 . S
C2104 H2099 0.949 . S
C2104 C2110 1.368 . S
C2105 C2089 1.349 . S
C2105 H2097 0.950 . S
C2105 C2103 1.327 . S
C2106 C2094 1.349 . S
C2106 H2100 0.950 . S
C2106 C2107 1.327 . S
C2107 H2101 0.950 . S
C2107 C2106 1.327 . S
C2107 C2111 1.429 . S
C2108 C2091 1.574 . S
C2108 H2102 0.949 . S
C2108 C2112 1.368 . S
C2109 C2090 1.429 . S
C2109 C2103 1.429 . S
C2109 C2110 1.523 . S
C2110 C2091 1.368 . S
C2110 C2104 1.368 . S
C2110 C2109 1.523 . S
C2111 C2095 1.429 . S
C2111 C2107 1.429 . S
C2111 C2112 1.523 . S
C2112 C2096 1.368 . S
C2112 C2108 1.368 . S
C2112 C2111 1.523 . S
H2113 C2088 0.950 . S
H2114 C2090 0.950 . S
H2115 C2091 0.949 . S
H2116 C2093 0.950 . S
H2117 C2095 0.950 . S
C2118 C2119 1.349 . S
C2118 C2120 1.327 . S
C2118 H2143 0.950 . S
C2119 C2118 1.349 . S
C2119 C2135 1.349 . S
C2120 C2118 1.327 . S
C2120 C2139 1.429 . S
C2120 H2144 0.950 . S
C2121 C2138 1.574 . S
C2121 C2140 1.368 . S
C2121 H2145 0.949 . S
H2122 C2126 0.949 . S
C2123 C2124 1.349 . S
C2123 C2125 1.327 . S
C2123 H2146 0.950 . S
C2124 C2123 1.349 . S
C2124 C2136 1.349 . S
C2125 C2123 1.327 . S
C2125 C2141 1.429 . S
C2125 H2147 0.950 . S
C2126 H2122 0.949 . S
C2126 C2134 1.574 . S
C2126 C2142 1.368 . S
H2127 C2135 0.950 . S
H2128 C2133 0.950 . S
H2129 C2134 0.949 . S
H2130 C2136 0.950 . S
H2131 C2137 0.950 . S
H2132 C2138 0.949 . S
C2133 H2128 0.950 . S
C2133 C2135 1.327 . S
C2133 C2139 1.429 . S
C2134 C2126 1.574 . S
C2134 H2129 0.949 . S
C2134 C2140 1.368 . S
C2135 C2119 1.349 . S
C2135 H2127 0.950 . S
C2135 C2133 1.327 . S
C2136 C2124 1.349 . S
C2136 H2130 0.950 . S
C2136 C2137 1.327 . S
C2137 H2131 0.950 . S
C2137 C2136 1.327 . S
C2137 C2141 1.429 . S
C2138 C2121 1.574 . S
C2138 H2132 0.949 . S
C2138 C2142 1.368 . S
C2139 C2120 1.429 . S
C2139 C2133 1.429 . S
C2139 C2140 1.523 . S
C2140 C2121 1.368 . S
C2140 C2134 1.368 . S
C2140 C2139 1.523 . S
C2141 C2125 1.429 . S
C2141 C2137 1.429 . S
C2141 C2142 1.523 . S
C2142 C2126 1.368 . S
C2142 C2138 1.368 . S
C2142 C2141 1.523 . S
H2143 C2118 0.950 . S
H2144 C2120 0.950 . S
H2145 C2121 0.949 . S
H2146 C2123 0.950 . S
H2147 C2125 0.950 . S
C2148 C2149 1.349 . S
C2148 C2150 1.327 . S
C2148 H2173 0.950 . S
C2149 C2148 1.349 . S
C2149 C2165 1.349 . S
C2150 C2148 1.327 . S
C2150 C2169 1.429 . S
C2150 H2174 0.950 . S
C2151 C2168 1.574 . S
C2151 C2170 1.368 . S
C2151 H2175 0.949 . S
H2152 C2156 0.949 . S
C2153 C2154 1.349 . S
C2153 C2155 1.327 . S
C2153 H2176 0.950 . S
C2154 C2153 1.349 . S
C2154 C2166 1.349 . S
C2155 C2153 1.327 . S
C2155 C2171 1.429 . S
C2155 H2177 0.950 . S
C2156 H2152 0.949 . S
C2156 C2164 1.574 . S
C2156 C2172 1.368 . S
H2157 C2165 0.950 . S
H2158 C2163 0.950 . S
H2159 C2164 0.949 . S
H2160 C2166 0.950 . S
H2161 C2167 0.950 . S
H2162 C2168 0.949 . S
C2163 H2158 0.950 . S
C2163 C2165 1.327 . S
C2163 C2169 1.429 . S
C2164 C2156 1.574 . S
C2164 H2159 0.949 . S
C2164 C2170 1.368 . S
C2165 C2149 1.349 . S
C2165 H2157 0.950 . S
C2165 C2163 1.327 . S
C2166 C2154 1.349 . S
C2166 H2160 0.950 . S
C2166 C2167 1.327 . S
C2167 H2161 0.950 . S
C2167 C2166 1.327 . S
C2167 C2171 1.429 . S
C2168 C2151 1.574 . S
C2168 H2162 0.949 . S
C2168 C2172 1.368 . S
C2169 C2150 1.429 . S
C2169 C2163 1.429 . S
C2169 C2170 1.523 . S
C2170 C2151 1.368 . S
C2170 C2164 1.368 . S
C2170 C2169 1.523 . S
C2171 C2155 1.429 . S
C2171 C2167 1.429 . S
C2171 C2172 1.523 . S
C2172 C2156 1.368 . S
C2172 C2168 1.368 . S
C2172 C2171 1.523 . S
H2173 C2148 0.950 . S
H2174 C2150 0.950 . S
H2175 C2151 0.949 . S
H2176 C2153 0.950 . S
H2177 C2155 0.950 . S
C2178 C2179 1.349 . S
C2178 C2180 1.327 . S
C2178 H2203 0.950 . S
C2179 C2178 1.349 . S
C2179 C2195 1.349 . S
C2180 C2178 1.327 . S
C2180 C2199 1.429 . S
C2180 H2204 0.950 . S
C2181 C2198 1.574 . S
C2181 C2200 1.368 . S
C2181 H2205 0.949 . S
H2182 C2186 0.949 . S
C2183 C2184 1.349 . S
C2183 C2185 1.327 . S
C2183 H2206 0.950 . S
C2184 C2183 1.349 . S
C2184 C2196 1.349 . S
C2185 C2183 1.327 . S
C2185 C2201 1.429 . S
C2185 H2207 0.950 . S
C2186 H2182 0.949 . S
C2186 C2194 1.574 . S
C2186 C2202 1.368 . S
H2187 C2195 0.950 . S
H2188 C2193 0.950 . S
H2189 C2194 0.949 . S
H2190 C2196 0.950 . S
H2191 C2197 0.950 . S
H2192 C2198 0.949 . S
C2193 H2188 0.950 . S
C2193 C2195 1.327 . S
C2193 C2199 1.429 . S
C2194 C2186 1.574 . S
C2194 H2189 0.949 . S
C2194 C2200 1.368 . S
C2195 C2179 1.349 . S
C2195 H2187 0.950 . S
C2195 C2193 1.327 . S
C2196 C2184 1.349 . S
C2196 H2190 0.950 . S
C2196 C2197 1.327 . S
C2197 H2191 0.950 . S
C2197 C2196 1.327 . S
C2197 C2201 1.429 . S
C2198 C2181 1.574 . S
C2198 H2192 0.949 . S
C2198 C2202 1.368 . S
C2199 C2180 1.429 . S
C2199 C2193 1.429 . S
C2199 C2200 1.523 . S
C2200 C2181 1.368 . S
C2200 C2194 1.368 . S
C2200 C2199 1.523 . S
C2201 C2185 1.429 . S
C2201 C2197 1.429 . S
C2201 C2202 1.523 . S
C2202 C2186 1.368 . S
C2202 C2198 1.368 . S
C2202 C2201 1.523 . S
H2203 C2178 0.950 . S
H2204 C2180 0.950 . S
H2205 C2181 0.949 . S
H2206 C2183 0.950 . S
H2207 C2185 0.950 . S
C2208 C2209 1.349 . S
C2208 C2210 1.327 . S
C2208 H2233 0.950 . S
C2209 C2208 1.349 . S
C2209 C2225 1.349 . S
C2210 C2208 1.327 . S
C2210 C2229 1.429 . S
C2210 H2234 0.950 . S
C2211 C2228 1.574 . S
C2211 C2230 1.368 . S
C2211 H2235 0.949 . S
H2212 C2216 0.949 . S
C2213 C2214 1.349 . S
C2213 C2215 1.327 . S
C2213 H2236 0.950 . S
C2214 C2213 1.349 . S
C2214 C2226 1.349 . S
C2215 C2213 1.327 . S
C2215 C2231 1.429 . S
C2215 H2237 0.950 . S
C2216 H2212 0.949 . S
C2216 C2224 1.574 . S
C2216 C2232 1.368 . S
H2217 C2225 0.950 . S
H2218 C2223 0.950 . S
H2219 C2224 0.949 . S
H2220 C2226 0.950 . S
H2221 C2227 0.950 . S
H2222 C2228 0.949 . S
C2223 H2218 0.950 . S
C2223 C2225 1.327 . S
C2223 C2229 1.429 . S
C2224 C2216 1.574 . S
C2224 H2219 0.949 . S
C2224 C2230 1.368 . S
C2225 C2209 1.349 . S
C2225 H2217 0.950 . S
C2225 C2223 1.327 . S
C2226 C2214 1.349 . S
C2226 H2220 0.950 . S
C2226 C2227 1.327 . S
C2227 H2221 0.950 . S
C2227 C2226 1.327 . S
C2227 C2231 1.429 . S
C2228 C2211 1.574 . S
C2228 H2222 0.949 . S
C2228 C2232 1.368 . S
C2229 C2210 1.429 . S
C2229 C2223 1.429 . S
C2229 C2230 1.523 . S
C2230 C2211 1.368 . S
C2230 C2224 1.368 . S
C2230 C2229 1.523 . S
C2231 C2215 1.429 . S
C2231 C2227 1.429 . S
C2231 C2232 1.523 . S
C2232 C2216 1.368 . S
C2232 C2228 1.368 . S
C2232 C2231 1.523 . S
H2233 C2208 0.950 . S
H2234 C2210 0.950 . S
H2235 C2211 0.949 . S
H2236 C2213 0.950 . S
H2237 C2215 0.950 . S
C2238 C2239 1.349 . S
C2238 C2240 1.327 . S
C2238 H2263 0.950 . S
C2239 C2238 1.349 . S
C2239 C2255 1.349 . S
C2240 C2238 1.327 . S
C2240 C2259 1.429 . S
C2240 H2264 0.950 . S
C2241 C2258 1.574 . S
C2241 C2260 1.368 . S
C2241 H2265 0.949 . S
H2242 C2246 0.949 . S
C2243 C2244 1.349 . S
C2243 C2245 1.327 . S
C2243 H2266 0.950 . S
C2244 C2243 1.349 . S
C2244 C2256 1.349 . S
C2245 C2243 1.327 . S
C2245 C2261 1.429 . S
C2245 H2267 0.950 . S
C2246 H2242 0.949 . S
C2246 C2254 1.574 . S
C2246 C2262 1.368 . S
H2247 C2255 0.950 . S
H2248 C2253 0.950 . S
H2249 C2254 0.949 . S
H2250 C2256 0.950 . S
H2251 C2257 0.950 . S
H2252 C2258 0.949 . S
C2253 H2248 0.950 . S
C2253 C2255 1.327 . S
C2253 C2259 1.429 . S
C2254 C2246 1.574 . S
C2254 H2249 0.949 . S
C2254 C2260 1.368 . S
C2255 C2239 1.349 . S
C2255 H2247 0.950 . S
C2255 C2253 1.327 . S
C2256 C2244 1.349 . S
C2256 H2250 0.950 . S
C2256 C2257 1.327 . S
C2257 H2251 0.950 . S
C2257 C2256 1.327 . S
C2257 C2261 1.429 . S
C2258 C2241 1.574 . S
C2258 H2252 0.949 . S
C2258 C2262 1.368 . S
C2259 C2240 1.429 . S
C2259 C2253 1.429 . S
C2259 C2260 1.523 . S
C2260 C2241 1.368 . S
C2260 C2254 1.368 . S
C2260 C2259 1.523 . S
C2261 C2245 1.429 . S
C2261 C2257 1.429 . S
C2261 C2262 1.523 . S
C2262 C2246 1.368 . S
C2262 C2258 1.368 . S
C2262 C2261 1.523 . S
H2263 C2238 0.950 . S
H2264 C2240 0.950 . S
H2265 C2241 0.949 . S
H2266 C2243 0.950 . S
H2267 C2245 0.950 . S
C2268 C2269 1.349 . S
C2268 C2270 1.327 . S
C2268 H2293 0.950 . S
C2269 C2268 1.349 . S
C2269 C2285 1.349 . S
C2270 C2268 1.327 . S
C2270 C2289 1.429 . S
C2270 H2294 0.950 . S
C2271 C2288 1.574 . S
C2271 C2290 1.368 . S
C2271 H2295 0.949 . S
H2272 C2276 0.949 . S
C2273 C2274 1.349 . S
C2273 C2275 1.327 . S
C2273 H2296 0.950 . S
C2274 C2273 1.349 . S
C2274 C2286 1.349 . S
C2275 C2273 1.327 . S
C2275 C2291 1.429 . S
C2275 H2297 0.950 . S
C2276 H2272 0.949 . S
C2276 C2284 1.574 . S
C2276 C2292 1.368 . S
H2277 C2285 0.950 . S
H2278 C2283 0.950 . S
H2279 C2284 0.949 . S
H2280 C2286 0.950 . S
H2281 C2287 0.950 . S
H2282 C2288 0.949 . S
C2283 H2278 0.950 . S
C2283 C2285 1.327 . S
C2283 C2289 1.429 . S
C2284 C2276 1.574 . S
C2284 H2279 0.949 . S
C2284 C2290 1.368 . S
C2285 C2269 1.349 . S
C2285 H2277 0.950 . S
C2285 C2283 1.327 . S
C2286 C2274 1.349 . S
C2286 H2280 0.950 . S
C2286 C2287 1.327 . S
C2287 H2281 0.950 . S
C2287 C2286 1.327 . S
C2287 C2291 1.429 . S
C2288 C2271 1.574 . S
C2288 H2282 0.949 . S
C2288 C2292 1.368 . S
C2289 C2270 1.429 . S
C2289 C2283 1.429 . S
C2289 C2290 1.523 . S
C2290 C2271 1.368 . S
C2290 C2284 1.368 . S
C2290 C2289 1.523 . S
C2291 C2275 1.429 . S
C2291 C2287 1.429 . S
C2291 C2292 1.523 . S
C2292 C2276 1.368 . S
C2292 C2288 1.368 . S
C2292 C2291 1.523 . S
H2293 C2268 0.950 . S
H2294 C2270 0.950 . S
H2295 C2271 0.949 . S
H2296 C2273 0.950 . S
H2297 C2275 0.950 . S
C2298 C2299 1.349 . S
C2298 C2300 1.327 . S
C2298 H2323 0.950 . S
C2299 C2298 1.349 . S
C2299 C2315 1.349 . S
C2300 C2298 1.327 . S
C2300 C2319 1.429 . S
C2300 H2324 0.950 . S
C2301 C2318 1.574 . S
C2301 C2320 1.368 . S
C2301 H2325 0.949 . S
H2302 C2306 0.949 . S
C2303 C2304 1.349 . S
C2303 C2305 1.327 . S
C2303 H2326 0.950 . S
C2304 C2303 1.349 . S
C2304 C2316 1.349 . S
C2305 C2303 1.327 . S
C2305 C2321 1.429 . S
C2305 H2327 0.950 . S
C2306 H2302 0.949 . S
C2306 C2314 1.574 . S
C2306 C2322 1.368 . S
H2307 C2315 0.950 . S
H2308 C2313 0.950 . S
H2309 C2314 0.949 . S
H2310 C2316 0.950 . S
H2311 C2317 0.950 . S
H2312 C2318 0.949 . S
C2313 H2308 0.950 . S
C2313 C2315 1.327 . S
C2313 C2319 1.429 . S
C2314 C2306 1.574 . S
C2314 H2309 0.949 . S
C2314 C2320 1.368 . S
C2315 C2299 1.349 . S
C2315 H2307 0.950 . S
C2315 C2313 1.327 . S
C2316 C2304 1.349 . S
C2316 H2310 0.950 . S
C2316 C2317 1.327 . S
C2317 H2311 0.950 . S
C2317 C2316 1.327 . S
C2317 C2321 1.429 . S
C2318 C2301 1.574 . S
C2318 H2312 0.949 . S
C2318 C2322 1.368 . S
C2319 C2300 1.429 . S
C2319 C2313 1.429 . S
C2319 C2320 1.523 . S
C2320 C2301 1.368 . S
C2320 C2314 1.368 . S
C2320 C2319 1.523 . S
C2321 C2305 1.429 . S
C2321 C2317 1.429 . S
C2321 C2322 1.523 . S
C2322 C2306 1.368 . S
C2322 C2318 1.368 . S
C2322 C2321 1.523 . S
H2323 C2298 0.950 . S
H2324 C2300 0.950 . S
H2325 C2301 0.949 . S
H2326 C2303 0.950 . S
H2327 C2305 0.950 . S
C2328 C2329 1.349 . S
C2328 C2330 1.327 . S
C2328 H2353 0.950 . S
C2329 C2328 1.349 . S
C2329 C2345 1.349 . S
C2330 C2328 1.327 . S
C2330 C2349 1.429 . S
C2330 H2354 0.950 . S
C2331 C2348 1.574 . S
C2331 C2350 1.368 . S
C2331 H2355 0.949 . S
H2332 C2336 0.949 . S
C2333 C2334 1.349 . S
C2333 C2335 1.327 . S
C2333 H2356 0.950 . S
C2334 C2333 1.349 . S
C2334 C2346 1.349 . S
C2335 C2333 1.327 . S
C2335 C2351 1.429 . S
C2335 H2357 0.950 . S
C2336 H2332 0.949 . S
C2336 C2344 1.574 . S
C2336 C2352 1.368 . S
H2337 C2345 0.950 . S
H2338 C2343 0.950 . S
H2339 C2344 0.949 . S
H2340 C2346 0.950 . S
H2341 C2347 0.950 . S
H2342 C2348 0.949 . S
C2343 H2338 0.950 . S
C2343 C2345 1.327 . S
C2343 C2349 1.429 . S
C2344 C2336 1.574 . S
C2344 H2339 0.949 . S
C2344 C2350 1.368 . S
C2345 C2329 1.349 . S
C2345 H2337 0.950 . S
C2345 C2343 1.327 . S
C2346 C2334 1.349 . S
C2346 H2340 0.950 . S
C2346 C2347 1.327 . S
C2347 H2341 0.950 . S
C2347 C2346 1.327 . S
C2347 C2351 1.429 . S
C2348 C2331 1.574 . S
C2348 H2342 0.949 . S
C2348 C2352 1.368 . S
C2349 C2330 1.429 . S
C2349 C2343 1.429 . S
C2349 C2350 1.523 . S
C2350 C2331 1.368 . S
C2350 C2344 1.368 . S
C2350 C2349 1.523 . S
C2351 C2335 1.429 . S
C2351 C2347 1.429 . S
C2351 C2352 1.523 . S
C2352 C2336 1.368 . S
C2352 C2348 1.368 . S
C2352 C2351 1.523 . S
H2353 C2328 0.950 . S
H2354 C2330 0.950 . S
H2355 C2331 0.949 . S
H2356 C2333 0.950 . S
H2357 C2335 0.950 . S
C2358 C2359 1.349 . S
C2358 C2360 1.327 . S
C2358 H2383 0.950 . S
C2359 C2358 1.349 . S
C2359 C2375 1.349 . S
C2360 C2358 1.327 . S
C2360 C2379 1.429 . S
C2360 H2384 0.950 . S
C2361 C2378 1.574 . S
C2361 C2380 1.368 . S
C2361 H2385 0.949 . S
H2362 C2366 0.949 . S
C2363 C2364 1.349 . S
C2363 C2365 1.327 . S
C2363 H2386 0.950 . S
C2364 C2363 1.349 . S
C2364 C2376 1.349 . S
C2365 C2363 1.327 . S
C2365 C2381 1.429 . S
C2365 H2387 0.950 . S
C2366 H2362 0.949 . S
C2366 C2374 1.574 . S
C2366 C2382 1.368 . S
H2367 C2375 0.950 . S
H2368 C2373 0.950 . S
H2369 C2374 0.949 . S
H2370 C2376 0.950 . S
H2371 C2377 0.950 . S
H2372 C2378 0.949 . S
C2373 H2368 0.950 . S
C2373 C2375 1.327 . S
C2373 C2379 1.429 . S
C2374 C2366 1.574 . S
C2374 H2369 0.949 . S
C2374 C2380 1.368 . S
C2375 C2359 1.349 . S
C2375 H2367 0.950 . S
C2375 C2373 1.327 . S
C2376 C2364 1.349 . S
C2376 H2370 0.950 . S
C2376 C2377 1.327 . S
C2377 H2371 0.950 . S
C2377 C2376 1.327 . S
C2377 C2381 1.429 . S
C2378 C2361 1.574 . S
C2378 H2372 0.949 . S
C2378 C2382 1.368 . S
C2379 C2360 1.429 . S
C2379 C2373 1.429 . S
C2379 C2380 1.523 . S
C2380 C2361 1.368 . S
C2380 C2374 1.368 . S
C2380 C2379 1.523 . S
C2381 C2365 1.429 . S
C2381 C2377 1.429 . S
C2381 C2382 1.523 . S
C2382 C2366 1.368 . S
C2382 C2378 1.368 . S
C2382 C2381 1.523 . S
H2383 C2358 0.950 . S
H2384 C2360 0.950 . S
H2385 C2361 0.949 . S
H2386 C2363 0.950 . S
H2387 C2365 0.950 . S
C2388 C2389 1.349 . S
C2388 C2390 1.327 . S
C2388 H2413 0.950 . S
C2389 C2388 1.349 . S
C2389 C2405 1.349 . S
C2390 C2388 1.327 . S
C2390 C2409 1.429 . S
C2390 H2414 0.950 . S
C2391 C2408 1.574 . S
C2391 C2410 1.368 . S
C2391 H2415 0.949 . S
H2392 C2396 0.949 . S
C2393 C2394 1.349 . S
C2393 C2395 1.327 . S
C2393 H2416 0.950 . S
C2394 C2393 1.349 . S
C2394 C2406 1.349 . S
C2395 C2393 1.327 . S
C2395 C2411 1.429 . S
C2395 H2417 0.950 . S
C2396 H2392 0.949 . S
C2396 C2404 1.574 . S
C2396 C2412 1.368 . S
H2397 C2405 0.950 . S
H2398 C2403 0.950 . S
H2399 C2404 0.949 . S
H2400 C2406 0.950 . S
H2401 C2407 0.950 . S
H2402 C2408 0.949 . S
C2403 H2398 0.950 . S
C2403 C2405 1.327 . S
C2403 C2409 1.429 . S
C2404 C2396 1.574 . S
C2404 H2399 0.949 . S
C2404 C2410 1.368 . S
C2405 C2389 1.349 . S
C2405 H2397 0.950 . S
C2405 C2403 1.327 . S
C2406 C2394 1.349 . S
C2406 H2400 0.950 . S
C2406 C2407 1.327 . S
C2407 H2401 0.950 . S
C2407 C2406 1.327 . S
C2407 C2411 1.429 . S
C2408 C2391 1.574 . S
C2408 H2402 0.949 . S
C2408 C2412 1.368 . S
C2409 C2390 1.429 . S
C2409 C2403 1.429 . S
C2409 C2410 1.523 . S
C2410 C2391 1.368 . S
C2410 C2404 1.368 . S
C2410 C2409 1.523 . S
C2411 C2395 1.429 . S
C2411 C2407 1.429 . S
C2411 C2412 1.523 . S
C2412 C2396 1.368 . S
C2412 C2408 1.368 . S
C2412 C2411 1.523 . S
H2413 C2388 0.950 . S
H2414 C2390 0.950 . S
H2415 C2391 0.949 . S
H2416 C2393 0.950 . S
H2417 C2395 0.950 . S
C2418 C2419 1.349 . S
C2418 C2420 1.327 . S
C2418 H2443 0.950 . S
C2419 C2418 1.349 . S
C2419 C2435 1.349 . S
C2420 C2418 1.327 . S
C2420 C2439 1.429 . S
C2420 H2444 0.950 . S
C2421 C2438 1.574 . S
C2421 C2440 1.368 . S
C2421 H2445 0.949 . S
H2422 C2426 0.949 . S
C2423 C2424 1.349 . S
C2423 C2425 1.327 . S
C2423 H2446 0.950 . S
C2424 C2423 1.349 . S
C2424 C2436 1.349 . S
C2425 C2423 1.327 . S
C2425 C2441 1.429 . S
C2425 H2447 0.950 . S
C2426 H2422 0.949 . S
C2426 C2434 1.574 . S
C2426 C2442 1.368 . S
H2427 C2435 0.950 . S
H2428 C2433 0.950 . S
H2429 C2434 0.949 . S
H2430 C2436 0.950 . S
H2431 C2437 0.950 . S
H2432 C2438 0.949 . S
C2433 H2428 0.950 . S
C2433 C2435 1.327 . S
C2433 C2439 1.429 . S
C2434 C2426 1.574 . S
C2434 H2429 0.949 . S
C2434 C2440 1.368 . S
C2435 C2419 1.349 . S
C2435 H2427 0.950 . S
C2435 C2433 1.327 . S
C2436 C2424 1.349 . S
C2436 H2430 0.950 . S
C2436 C2437 1.327 . S
C2437 H2431 0.950 . S
C2437 C2436 1.327 . S
C2437 C2441 1.429 . S
C2438 C2421 1.574 . S
C2438 H2432 0.949 . S
C2438 C2442 1.368 . S
C2439 C2420 1.429 . S
C2439 C2433 1.429 . S
C2439 C2440 1.523 . S
C2440 C2421 1.368 . S
C2440 C2434 1.368 . S
C2440 C2439 1.523 . S
C2441 C2425 1.429 . S
C2441 C2437 1.429 . S
C2441 C2442 1.523 . S
C2442 C2426 1.368 . S
C2442 C2438 1.368 . S
C2442 C2441 1.523 . S
H2443 C2418 0.950 . S
H2444 C2420 0.950 . S
H2445 C2421 0.949 . S
H2446 C2423 0.950 . S
H2447 C2425 0.950 . S
C2448 C2449 1.349 . S
C2448 C2450 1.327 . S
C2448 H2473 0.950 . S
C2449 C2448 1.349 . S
C2449 C2465 1.349 . S
C2450 C2448 1.327 . S
C2450 C2469 1.429 . S
C2450 H2474 0.950 . S
C2451 C2468 1.574 . S
C2451 C2470 1.368 . S
C2451 H2475 0.949 . S
H2452 C2456 0.949 . S
C2453 C2454 1.349 . S
C2453 C2455 1.327 . S
C2453 H2476 0.950 . S
C2454 C2453 1.349 . S
C2454 C2466 1.349 . S
C2455 C2453 1.327 . S
C2455 C2471 1.429 . S
C2455 H2477 0.950 . S
C2456 H2452 0.949 . S
C2456 C2464 1.574 . S
C2456 C2472 1.368 . S
H2457 C2465 0.950 . S
H2458 C2463 0.950 . S
H2459 C2464 0.949 . S
H2460 C2466 0.950 . S
H2461 C2467 0.950 . S
H2462 C2468 0.949 . S
C2463 H2458 0.950 . S
C2463 C2465 1.327 . S
C2463 C2469 1.429 . S
C2464 C2456 1.574 . S
C2464 H2459 0.949 . S
C2464 C2470 1.368 . S
C2465 C2449 1.349 . S
C2465 H2457 0.950 . S
C2465 C2463 1.327 . S
C2466 C2454 1.349 . S
C2466 H2460 0.950 . S
C2466 C2467 1.327 . S
C2467 H2461 0.950 . S
C2467 C2466 1.327 . S
C2467 C2471 1.429 . S
C2468 C2451 1.574 . S
C2468 H2462 0.949 . S
C2468 C2472 1.368 . S
C2469 C2450 1.429 . S
C2469 C2463 1.429 . S
C2469 C2470 1.523 . S
C2470 C2451 1.368 . S
C2470 C2464 1.368 . S
C2470 C2469 1.523 . S
C2471 C2455 1.429 . S
C2471 C2467 1.429 . S
C2471 C2472 1.523 . S
C2472 C2456 1.368 . S
C2472 C2468 1.368 . S
C2472 C2471 1.523 . S
H2473 C2448 0.950 . S
H2474 C2450 0.950 . S
H2475 C2451 0.949 . S
H2476 C2453 0.950 . S
H2477 C2455 0.950 . S
C2478 C2479 1.349 . S
C2478 C2480 1.327 . S
C2478 H2503 0.950 . S
C2479 C2478 1.349 . S
C2479 C2495 1.349 . S
C2480 C2478 1.327 . S
C2480 C2499 1.429 . S
C2480 H2504 0.950 . S
C2481 C2498 1.574 . S
C2481 C2500 1.368 . S
C2481 H2505 0.949 . S
H2482 C2486 0.949 . S
C2483 C2484 1.349 . S
C2483 C2485 1.327 . S
C2483 H2506 0.950 . S
C2484 C2483 1.349 . S
C2484 C2496 1.349 . S
C2485 C2483 1.327 . S
C2485 C2501 1.429 . S
C2485 H2507 0.950 . S
C2486 H2482 0.949 . S
C2486 C2494 1.574 . S
C2486 C2502 1.368 . S
H2487 C2495 0.950 . S
H2488 C2493 0.950 . S
H2489 C2494 0.949 . S
H2490 C2496 0.950 . S
H2491 C2497 0.950 . S
H2492 C2498 0.949 . S
C2493 H2488 0.950 . S
C2493 C2495 1.327 . S
C2493 C2499 1.429 . S
C2494 C2486 1.574 . S
C2494 H2489 0.949 . S
C2494 C2500 1.368 . S
C2495 C2479 1.349 . S
C2495 H2487 0.950 . S
C2495 C2493 1.327 . S
C2496 C2484 1.349 . S
C2496 H2490 0.950 . S
C2496 C2497 1.327 . S
C2497 H2491 0.950 . S
C2497 C2496 1.327 . S
C2497 C2501 1.429 . S
C2498 C2481 1.574 . S
C2498 H2492 0.949 . S
C2498 C2502 1.368 . S
C2499 C2480 1.429 . S
C2499 C2493 1.429 . S
C2499 C2500 1.523 . S
C2500 C2481 1.368 . S
C2500 C2494 1.368 . S
C2500 C2499 1.523 . S
C2501 C2485 1.429 . S
C2501 C2497 1.429 . S
C2501 C2502 1.523 . S
C2502 C2486 1.368 . S
C2502 C2498 1.368 . S
C2502 C2501 1.523 . S
H2503 C2478 0.950 . S
H2504 C2480 0.950 . S
H2505 C2481 0.949 . S
H2506 C2483 0.950 . S
H2507 C2485 0.950 . S
C2508 C2509 1.349 . S
C2508 C2510 1.327 . S
C2508 H2533 0.950 . S
C2509 C2508 1.349 . S
C2509 C2525 1.349 . S
C2510 C2508 1.327 . S
C2510 C2529 1.429 . S
C2510 H2534 0.950 . S
C2511 C2528 1.574 . S
C2511 C2530 1.368 . S
C2511 H2535 0.949 . S
H2512 C2516 0.949 . S
C2513 C2514 1.349 . S
C2513 C2515 1.327 . S
C2513 H2536 0.950 . S
C2514 C2513 1.349 . S
C2514 C2526 1.349 . S
C2515 C2513 1.327 . S
C2515 C2531 1.429 . S
C2515 H2537 0.950 . S
C2516 H2512 0.949 . S
C2516 C2524 1.574 . S
C2516 C2532 1.368 . S
H2517 C2525 0.950 . S
H2518 C2523 0.950 . S
H2519 C2524 0.949 . S
H2520 C2526 0.950 . S
H2521 C2527 0.950 . S
H2522 C2528 0.949 . S
C2523 H2518 0.950 . S
C2523 C2525 1.327 . S
C2523 C2529 1.429 . S
C2524 C2516 1.574 . S
C2524 H2519 0.949 . S
C2524 C2530 1.368 . S
C2525 C2509 1.349 . S
C2525 H2517 0.950 . S
C2525 C2523 1.327 . S
C2526 C2514 1.349 . S
C2526 H2520 0.950 . S
C2526 C2527 1.327 . S
C2527 H2521 0.950 . S
C2527 C2526 1.327 . S
C2527 C2531 1.429 . S
C2528 C2511 1.574 . S
C2528 H2522 0.949 . S
C2528 C2532 1.368 . S
C2529 C2510 1.429 . S
C2529 C2523 1.429 . S
C2529 C2530 1.523 . S
C2530 C2511 1.368 . S
C2530 C2524 1.368 . S
C2530 C2529 1.523 . S
C2531 C2515 1.429 . S
C2531 C2527 1.429 . S
C2531 C2532 1.523 . S
C2532 C2516 1.368 . S
C2532 C2528 1.368 . S
C2532 C2531 1.523 . S
H2533 C2508 0.950 . S
H2534 C2510 0.950 . S
H2535 C2511 0.949 . S
H2536 C2513 0.950 . S
H2537 C2515 0.950 . S
C2538 C2539 1.349 . S
C2538 C2540 1.327 . S
C2538 H2563 0.950 . S
C2539 C2538 1.349 . S
C2539 C2555 1.349 . S
C2540 C2538 1.327 . S
C2540 C2559 1.429 . S
C2540 H2564 0.950 . S
C2541 C2558 1.574 . S
C2541 C2560 1.368 . S
C2541 H2565 0.949 . S
H2542 C2546 0.949 . S
C2543 C2544 1.349 . S
C2543 C2545 1.327 . S
C2543 H2566 0.950 . S
C2544 C2543 1.349 . S
C2544 C2556 1.349 . S
C2545 C2543 1.327 . S
C2545 C2561 1.429 . S
C2545 H2567 0.950 . S
C2546 H2542 0.949 . S
C2546 C2554 1.574 . S
C2546 C2562 1.368 . S
H2547 C2555 0.950 . S
H2548 C2553 0.950 . S
H2549 C2554 0.949 . S
H2550 C2556 0.950 . S
H2551 C2557 0.950 . S
H2552 C2558 0.949 . S
C2553 H2548 0.950 . S
C2553 C2555 1.327 . S
C2553 C2559 1.429 . S
C2554 C2546 1.574 . S
C2554 H2549 0.949 . S
C2554 C2560 1.368 . S
C2555 C2539 1.349 . S
C2555 H2547 0.950 . S
C2555 C2553 1.327 . S
C2556 C2544 1.349 . S
C2556 H2550 0.950 . S
C2556 C2557 1.327 . S
C2557 H2551 0.950 . S
C2557 C2556 1.327 . S
C2557 C2561 1.429 . S
C2558 C2541 1.574 . S
C2558 H2552 0.949 . S
C2558 C2562 1.368 . S
C2559 C2540 1.429 . S
C2559 C2553 1.429 . S
C2559 C2560 1.523 . S
C2560 C2541 1.368 . S
C2560 C2554 1.368 . S
C2560 C2559 1.523 . S
C2561 C2545 1.429 . S
C2561 C2557 1.429 . S
C2561 C2562 1.523 . S
C2562 C2546 1.368 . S
C2562 C2558 1.368 . S
C2562 C2561 1.523 . S
H2563 C2538 0.950 . S
H2564 C2540 0.950 . S
H2565 C2541 0.949 . S
H2566 C2543 0.950 . S
H2567 C2545 0.950 . S
C2568 C2569 1.349 . S
C2568 C2570 1.327 . S
C2568 H2593 0.950 . S
C2569 C2568 1.349 . S
C2569 C2585 1.349 . S
C2570 C2568 1.327 . S
C2570 C2589 1.429 . S
C2570 H2594 0.950 . S
C2571 C2588 1.574 . S
C2571 C2590 1.368 . S
C2571 H2595 0.949 . S
H2572 C2576 0.949 . S
C2573 C2574 1.349 . S
C2573 C2575 1.327 . S
C2573 H2596 0.950 . S
C2574 C2573 1.349 . S
C2574 C2586 1.349 . S
C2575 C2573 1.327 . S
C2575 C2591 1.429 . S
C2575 H2597 0.950 . S
C2576 H2572 0.949 . S
C2576 C2584 1.574 . S
C2576 C2592 1.368 . S
H2577 C2585 0.950 . S
H2578 C2583 0.950 . S
H2579 C2584 0.949 . S
H2580 C2586 0.950 . S
H2581 C2587 0.950 . S
H2582 C2588 0.949 . S
C2583 H2578 0.950 . S
C2583 C2585 1.327 . S
C2583 C2589 1.429 . S
C2584 C2576 1.574 . S
C2584 H2579 0.949 . S
C2584 C2590 1.368 . S
C2585 C2569 1.349 . S
C2585 H2577 0.950 . S
C2585 C2583 1.327 . S
C2586 C2574 1.349 . S
C2586 H2580 0.950 . S
C2586 C2587 1.327 . S
C2587 H2581 0.950 . S
C2587 C2586 1.327 . S
C2587 C2591 1.429 . S
C2588 C2571 1.574 . S
C2588 H2582 0.949 . S
C2588 C2592 1.368 . S
C2589 C2570 1.429 . S
C2589 C2583 1.429 . S
C2589 C2590 1.523 . S
C2590 C2571 1.368 . S
C2590 C2584 1.368 . S
C2590 C2589 1.523 . S
C2591 C2575 1.429 . S
C2591 C2587 1.429 . S
C2591 C2592 1.523 . S
C2592 C2576 1.368 . S
C2592 C2588 1.368 . S
C2592 C2591 1.523 . S
H2593 C2568 0.950 . S
H2594 C2570 0.950 . S
H2595 C2571 0.949 . S
H2596 C2573 0.950 . S
H2597 C2575 0.950 . S
C2598 C2599 1.349 . S
C2598 C2600 1.327 . S
C2598 H2623 0.950 . S
C2599 C2598 1.349 . S
C2599 C2615 1.349 . S
C2600 C2598 1.327 . S
C2600 C2619 1.429 . S
C2600 H2624 0.950 . S
C2601 C2618 1.574 . S
C2601 C2620 1.368 . S
C2601 H2625 0.949 . S
H2602 C2606 0.949 . S
C2603 C2604 1.349 . S
C2603 C2605 1.327 . S
C2603 H2626 0.950 . S
C2604 C2603 1.349 . S
C2604 C2616 1.349 . S
C2605 C2603 1.327 . S
C2605 C2621 1.429 . S
C2605 H2627 0.950 . S
C2606 H2602 0.949 . S
C2606 C2614 1.574 . S
C2606 C2622 1.368 . S
H2607 C2615 0.950 . S
H2608 C2613 0.950 . S
H2609 C2614 0.949 . S
H2610 C2616 0.950 . S
H2611 C2617 0.950 . S
H2612 C2618 0.949 . S
C2613 H2608 0.950 . S
C2613 C2615 1.327 . S
C2613 C2619 1.429 . S
C2614 C2606 1.574 . S
C2614 H2609 0.949 . S
C2614 C2620 1.368 . S
C2615 C2599 1.349 . S
C2615 H2607 0.950 . S
C2615 C2613 1.327 . S
C2616 C2604 1.349 . S
C2616 H2610 0.950 . S
C2616 C2617 1.327 . S
C2617 H2611 0.950 . S
C2617 C2616 1.327 . S
C2617 C2621 1.429 . S
C2618 C2601 1.574 . S
C2618 H2612 0.949 . S
C2618 C2622 1.368 . S
C2619 C2600 1.429 . S
C2619 C2613 1.429 . S
C2619 C2620 1.523 . S
C2620 C2601 1.368 . S
C2620 C2614 1.368 . S
C2620 C2619 1.523 . S
C2621 C2605 1.429 . S
C2621 C2617 1.429 . S
C2621 C2622 1.523 . S
C2622 C2606 1.368 . S
C2622 C2618 1.368 . S
C2622 C2621 1.523 . S
H2623 C2598 0.950 . S
H2624 C2600 0.950 . S
H2625 C2601 0.949 . S
H2626 C2603 0.950 . S
H2627 C2605 0.950 . S
C469 C8 1.334 . S
C474 C242 1.334 . S
C499 C255 1.334 . S
C504 C21 1.334 . S
C529 C268 1.335 . S
C534 C34 1.335 . S
C559 C47 1.334 . S
C564 C437 1.334 . S
C589 C60 1.334 . S
C594 C450 1.334 . S
C619 C73 1.334 . S
C624 C463 1.334 . S
C649 C320 1.334 . S
C654 C86 1.334 . S
C679 C99 1.334 . S
C684 C333 1.334 . S
C709 C112 1.335 . S
C714 C346 1.335 . S
C739 C203 1.334 . S
C744 C125 1.334 . S
C769 C216 1.334 . S
C774 C138 1.334 . S
C799 C229 1.334 . S
C804 C151 1.334 . S
C829 C398 1.334 . S
C834 C164 1.334 . S
C859 C411 1.334 . S
C864 C177 1.334 . S
C889 C190 1.334 . S
C894 C424 1.334 . S
C919 C359 1.334 . S
C924 C281 1.334 . S
C949 C294 1.335 . S
C954 C372 1.335 . S
C979 C307 1.334 . S
C984 C385 1.334 . S
C1009 C0 1.321 . S
C1014 C351 1.321 . S
C1039 C364 1.322 . S
C1044 C13 1.322 . S
C1069 C377 1.321 . S
C1074 C26 1.321 . S
C1099 C156 1.321 . S
C1104 C39 1.321 . S
C1129 C169 1.322 . S
C1134 C52 1.322 . S
C1159 C182 1.321 . S
C1164 C65 1.321 . S
C1189 C78 1.321 . S
C1194 C273 1.321 . S
C1219 C286 1.322 . S
C1224 C91 1.322 . S
C1249 C299 1.321 . S
C1254 C104 1.321 . S
C1279 C117 1.321 . S
C1284 C390 1.321 . S
C1309 C130 1.322 . S
C1314 C403 1.322 . S
C1339 C143 1.321 . S
C1344 C416 1.321 . S
C1369 C195 1.321 . S
C1374 C312 1.321 . S
C1399 C208 1.322 . S
C1404 C325 1.322 . S
C1429 C221 1.321 . S
C1434 C338 1.321 . S
C1459 C234 1.321 . S
C1464 C429 1.321 . S
C1489 C442 1.322 . S
C1494 C247 1.322 . S
C1519 C260 1.321 . S
C1524 C455 1.321 . S
C1549 C23 0.814 . S
C1554 C5 0.783 . S
C1579 C18 0.782 . S
C1584 C36 0.813 . S
C1609 C31 0.783 . S
C1614 C10 0.814 . S
C1639 C44 0.783 . S
C1644 C75 0.814 . S
C1669 C49 0.814 . S
C1674 C57 0.783 . S
C1699 C70 0.782 . S
C1704 C62 0.814 . S
C1729 C83 0.783 . S
C1734 C101 0.814 . S
C1759 C96 0.782 . S
C1764 C114 0.813 . S
C1789 C109 0.783 . S
C1794 C88 0.814 . S
C1819 C153 0.814 . S
C1824 C122 0.783 . S
C1849 C135 0.783 . S
C1854 C127 0.814 . S
C1879 C140 0.814 . S
C1884 C148 0.782 . S
C1909 C179 0.814 . S
C1914 C161 0.783 . S
C1939 C192 0.813 . S
C1944 C174 0.782 . S
C1969 C166 0.814 . S
C1974 C187 0.783 . S
C1999 C200 0.783 . S
C2004 C231 0.814 . S
C2029 C213 0.783 . S
C2034 C205 0.814 . S
C2059 C226 0.783 . S
C2064 C218 0.814 . S
C2089 C257 0.814 . S
C2094 C239 0.783 . S
C2119 C252 0.782 . S
C2124 C270 0.813 . S
C2149 C265 0.783 . S
C2154 C244 0.814 . S
C2179 C278 0.783 . S
C2184 C309 0.814 . S
C2209 C291 0.783 . S
C2214 C283 0.814 . S
C2239 C296 0.814 . S
C2244 C304 0.782 . S
C2269 C335 0.814 . S
C2274 C317 0.783 . S
C2299 C330 0.782 . S
C2304 C348 0.813 . S
C2329 C322 0.814 . S
C2334 C343 0.783 . S
C2359 C356 0.783 . S
C2364 C387 0.814 . S
C2389 C369 0.783 . S
C2394 C361 0.814 . S
C2419 C382 0.782 . S
C2424 C374 0.814 . S
C2449 C395 0.783 . S
C2454 C413 0.814 . S
C2479 C408 0.782 . S
C2484 C426 0.813 . S
C2509 C421 0.783 . S
C2514 C400 0.814 . S
C2539 C434 0.783 . S
C2544 C465 0.814 . S
C2569 C447 0.783 . S
C2574 C439 0.814 . S
C2599 C452 0.814 . S
C2604 C460 0.783 . S
