# Generated by pormake.
# Topology uog, (4)-cn, num edge types: 1
# Building blocks:
#     Node 0, Type 0, BuildingBlock: QUQFOY_clean_sbu_1, # of connection points: 4
#     Node 1, Type 0, BuildingBlock: QUQFOY_clean_sbu_1, # of connection points: 4
#     Node 2, Type 0, BuildingBlock: QUQFOY_clean_sbu_1, # of connection points: 4
#     Node 3, Type 0, BuildingBlock: QUQFOY_clean_sbu_1, # of connection points: 4
#     Node 4, Type 0, BuildingBlock: QUQFOY_clean_sbu_1, # of connection points: 4
#     Node 5, Type 0, BuildingBlock: QUQFOY_clean_sbu_1, # of connection points: 4
#     Edge 6, Type (0, 0), BuildingBlock: FUNLAD_clean_linker_0, # of connection points: 2
#     Edge 7, Type (0, 0), BuildingBlock: FUNLAD_clean_linker_0, # of connection points: 2
#     Edge 8, Type (0, 0), BuildingBlock: FUNLAD_clean_linker_0, # of connection points: 2
#     Edge 9, Type (0, 0), BuildingBlock: FUNLAD_clean_linker_0, # of connection points: 2
#     Edge 10, Type (0, 0), BuildingBlock: FUNLAD_clean_linker_0, # of connection points: 2
#     Edge 11, Type (0, 0), BuildingBlock: FUNLAD_clean_linker_0, # of connection points: 2
#     Edge 12, Type (0, 0), BuildingBlock: FUNLAD_clean_linker_0, # of connection points: 2
#     Edge 13, Type (0, 0), BuildingBlock: FUNLAD_clean_linker_0, # of connection points: 2
#     Edge 14, Type (0, 0), BuildingBlock: FUNLAD_clean_linker_0, # of connection points: 2
#     Edge 15, Type (0, 0), BuildingBlock: FUNLAD_clean_linker_0, # of connection points: 2
#     Edge 16, Type (0, 0), BuildingBlock: FUNLAD_clean_linker_0, # of connection points: 2
#     Edge 17, Type (0, 0), BuildingBlock: FUNLAD_clean_linker_0, # of connection points: 2
# Relax obj value: 0.090
# Max RMSD: 0.155
# Mean RMSD: 0.155
data_MOF--net-uog--node1-QUQFOY_clean_sbu_1--edge1-FUNLAD_clean_linker_0
_symmetry_space_group_name_H-M    P1
_symmetry_Int_Tables_number       1
_symmetry_cell_setting            triclinic
loop_
_symmetry_equiv_pos_as_xyz
'x, y, z'
_cell_length_a     33.962242
_cell_length_b     33.873116
_cell_length_c     50.793962
_cell_angle_alpha  89.808675
_cell_angle_beta   90.1103
_cell_angle_gamma 120.05967
loop_
_atom_site_label
_atom_site_type_symbol
_atom_site_fract_x
_atom_site_fract_y
_atom_site_fract_z
_atom_type_partial_charge
O0 O 0.59214 0.36656 0.18199 0.0
Cd1 Cd 0.62918 0.33448 0.17653 0.0
Cd2 Cd 0.54626 0.26575 0.16072 0.0
O3 O 0.52317 0.30886 0.17359 0.0
O4 O 0.67948 0.36085 0.20319 0.0
O5 O 0.62186 0.28993 0.20454 0.0
C6 C 0.65757 0.32243 0.21562 0.0
C7 C 0.51609 0.18873 0.17172 0.0
C8 C 0.54938 0.35011 0.18054 0.0
C9 C 0.62202 0.30996 0.12011 0.0
O10 O 0.58036 0.28312 0.12551 0.0
O11 O 0.65009 0.33334 0.13818 0.0
O12 O 0.4952 0.20142 0.1555 0.0
O13 O 0.55209 0.2201 0.18316 0.0
O14 O 0.23244 0.5973 0.51466 0.0
Cd15 Cd 0.30169 0.63474 0.50945 0.0
Cd16 Cd 0.28728 0.55192 0.49374 0.0
O17 O 0.2229 0.52827 0.5097 0.0
O18 O 0.32487 0.68656 0.53523 0.0
O19 O 0.33901 0.62971 0.53814 0.0
C20 C 0.34196 0.66588 0.5483 0.0
C21 C 0.33843 0.52763 0.50571 0.0
C22 C 0.20692 0.5542 0.51527 0.0
C23 C 0.31557 0.62618 0.45262 0.0
O24 O 0.29883 0.58398 0.45779 0.0
O25 O 0.32411 0.65473 0.47111 0.0
O26 O 0.30383 0.50256 0.49089 0.0
O27 O 0.3424 0.56502 0.5146 0.0
O28 O 0.6427 0.24408 0.8469 0.0
Cd29 Cd 0.66971 0.31302 0.84267 0.0
Cd30 Cd 0.74137 0.30555 0.82379 0.0
O31 O 0.70196 0.23757 0.83547 0.0
O32 O 0.63944 0.33119 0.87015 0.0
O33 O 0.71239 0.35202 0.87084 0.0
C34 C 0.67801 0.35077 0.88236 0.0
C35 C 0.81609 0.35484 0.83753 0.0
C36 C 0.66109 0.21974 0.8437 0.0
C37 C 0.69167 0.33592 0.78617 0.0
O38 O 0.72199 0.32492 0.78983 0.0
O39 O 0.66694 0.3355 0.8051 0.0
O40 O 0.80762 0.32541 0.81913 0.0
O41 O 0.78205 0.35441 0.84895 0.0
O42 O 0.39823 0.62839 0.1753 0.0
Cd43 Cd 0.35839 0.65785 0.17267 0.0
Cd44 Cd 0.43756 0.72832 0.15344 0.0
O45 O 0.4643 0.68631 0.16254 0.0
O46 O 0.30903 0.62562 0.19939 0.0
O47 O 0.36274 0.69804 0.20257 0.0
C48 C 0.32846 0.66283 0.21294 0.0
C49 C 0.46514 0.80264 0.1687 0.0
C50 C 0.44044 0.64538 0.17078 0.0
C51 C 0.35628 0.68303 0.11678 0.0
O52 O 0.39807 0.7123 0.12003 0.0
O53 O 0.33236 0.6577 0.1357 0.0
O54 O 0.48517 0.79446 0.14965 0.0
O55 O 0.43139 0.76831 0.18008 0.0
O56 O 0.77544 0.39865 0.51434 0.0
Cd57 Cd 0.7062 0.36208 0.50997 0.0
Cd58 Cd 0.71985 0.44789 0.49772 0.0
O59 O 0.78461 0.4681 0.51257 0.0
O60 O 0.67949 0.3118 0.53724 0.0
O61 O 0.67349 0.37382 0.53823 0.0
C62 C 0.66686 0.33695 0.5496 0.0
C63 C 0.67273 0.47708 0.51014 0.0
C64 C 0.80079 0.44167 0.51627 0.0
C65 C 0.68885 0.37624 0.45445 0.0
O66 O 0.70514 0.41768 0.46123 0.0
O67 O 0.68231 0.34586 0.47152 0.0
O68 O 0.70772 0.50055 0.49526 0.0
O69 O 0.66642 0.43877 0.51909 0.0
O70 O 0.38529 0.78528 0.84626 0.0
Cd71 Cd 0.35099 0.71579 0.84189 0.0
Cd72 Cd 0.28098 0.7316 0.82952 0.0
O73 O 0.32651 0.79649 0.8438 0.0
O74 O 0.37199 0.68713 0.86926 0.0
O75 O 0.30482 0.68286 0.86945 0.0
C76 C 0.33376 0.67467 0.88104 0.0
C77 C 0.20356 0.68715 0.84034 0.0
C78 C 0.36888 0.81172 0.84766 0.0
C79 C 0.32079 0.69903 0.78654 0.0
O80 O 0.29618 0.71579 0.7933 0.0
O81 O 0.34424 0.69213 0.8036 0.0
O82 O 0.21771 0.72201 0.82491 0.0
O83 O 0.23366 0.6798 0.85106 0.0
C84 C 0.52508 0.12662 0.19287 0.0
C85 C 0.50278 0.14003 0.1746 0.0
C86 C 0.51812 0.08222 0.19262 0.0
C87 C 0.48883 0.05036 0.17395 0.0
C88 C 0.46527 0.06331 0.15642 0.0
C89 C 0.47182 0.10748 0.15686 0.0
C90 C 0.48515 0.00501 0.17056 0.0
C91 C 0.49238 0.98212 0.18995 0.0
C92 C 0.4889 0.93721 0.18523 0.0
C93 C 0.46835 0.9025 0.20418 0.0
C94 C 0.46192 0.85901 0.19923 0.0
C95 C 0.47715 0.84983 0.17554 0.0
H96 H 0.52268 0.95501 0.14727 0.0
C97 C 0.50008 0.88537 0.15725 0.0
C98 C 0.50561 0.92853 0.16195 0.0
H99 H 0.51216 0.8794 0.1388 0.0
H100 H 0.54934 0.15096 0.20671 0.0
H101 H 0.5375 0.07381 0.20614 0.0
H102 H 0.44258 0.0395 0.14181 0.0
H103 H 0.45428 0.11669 0.14242 0.0
H104 H 0.4749 0.98926 0.15126 0.0
H105 H 0.49813 0.99497 0.20998 0.0
H106 H 0.45569 0.90854 0.2224 0.0
H107 H 0.44423 0.83232 0.21374 0.0
C108 C 0.41464 0.54718 0.52394 0.0
C109 C 0.37435 0.51593 0.51092 0.0
C110 C 0.45055 0.53846 0.52679 0.0
C111 C 0.44693 0.49814 0.51672 0.0
C112 C 0.40597 0.46605 0.50472 0.0
C113 C 0.37017 0.47497 0.50164 0.0
C114 C 0.48498 0.48838 0.51856 0.0
C115 C 0.52924 0.52128 0.51873 0.0
C116 C 0.5671 0.51112 0.51853 0.0
C117 C 0.60833 0.54172 0.50615 0.0
C118 C 0.64351 0.53165 0.50416 0.0
C119 C 0.63836 0.49104 0.51489 0.0
H120 H 0.53216 0.44791 0.54081 0.0
C121 C 0.59801 0.46163 0.5285 0.0
C122 C 0.56278 0.47151 0.5303 0.0
H123 H 0.59302 0.43022 0.53722 0.0
H124 H 0.4189 0.57896 0.5315 0.0
H125 H 0.48097 0.56332 0.53693 0.0
H126 H 0.40206 0.43446 0.49707 0.0
H127 H 0.33955 0.45011 0.49162 0.0
H128 H 0.47616 0.45284 0.51772 0.0
H129 H 0.53823 0.55678 0.51684 0.0
H130 H 0.61279 0.5728 0.49723 0.0
H131 H 0.6742 0.55509 0.49363 0.0
C132 C 0.89808 0.40358 0.82525 0.0
C133 C 0.86314 0.39074 0.84384 0.0
C134 C 0.94112 0.4415 0.82971 0.0
C135 C 0.95023 0.46689 0.85305 0.0
C136 C 0.91606 0.45261 0.87221 0.0
C137 C 0.8727 0.41531 0.86751 0.0
C138 C 0.9952 0.50812 0.8578 0.0
C139 C 0.01839 0.53825 0.83848 0.0
C140 C 0.06412 0.57925 0.84205 0.0
C141 C 0.07816 0.61617 0.82461 0.0
C142 C 0.12275 0.65297 0.82525 0.0
C143 C 0.15454 0.65323 0.84308 0.0
H144 H 0.0861 0.5525 0.87429 0.0
C145 C 0.14003 0.6172 0.86129 0.0
C146 C 0.09529 0.58062 0.86083 0.0
H147 H 0.16376 0.61627 0.87521 0.0
H148 H 0.89173 0.38538 0.80681 0.0
H149 H 0.96721 0.45099 0.81486 0.0
H150 H 0.92245 0.47129 0.89048 0.0
H151 H 0.84646 0.40611 0.88224 0.0
H152 H 0.00802 0.51495 0.87785 0.0
H153 H 1.0028 0.53317 0.81915 0.0
H154 H 0.05489 0.61595 0.8099 0.0
H155 H 0.13288 0.68001 0.81084 0.0
C156 C 0.14202 0.56315 0.53093 0.0
C157 C 0.15782 0.53494 0.52089 0.0
C158 C 0.09549 0.5469 0.53384 0.0
C159 C 0.06343 0.50206 0.5264 0.0
C160 C 0.07932 0.47325 0.51749 0.0
C161 C 0.12599 0.48946 0.51475 0.0
C162 C 0.0134 0.4841 0.52745 0.0
C163 C 0.99432 0.51083 0.52801 0.0
C164 C 0.94428 0.49292 0.52695 0.0
C165 C 0.92841 0.52246 0.51928 0.0
C166 C 0.88175 0.50645 0.51663 0.0
C167 C 0.84992 0.46043 0.5216 0.0
H168 H 0.9225 0.42381 0.54026 0.0
C169 C 0.86569 0.43136 0.53036 0.0
C170 C 0.91219 0.4474 0.5332 0.0
H171 H 0.84204 0.39586 0.53482 0.0
H172 H 0.16566 0.59819 0.53627 0.0
H173 H 0.08511 0.56981 0.54184 0.0
H174 H 0.05551 0.43836 0.51196 0.0
H175 H 0.13699 0.46679 0.50703 0.0
H176 H 0.99177 0.44742 0.52584 0.0
H177 H 0.01597 0.54762 0.5274 0.0
H178 H 0.95224 0.55786 0.51468 0.0
H179 H 0.87075 0.52977 0.50993 0.0
C180 C 0.44611 0.87661 0.85894 0.0
C181 C 0.4004 0.86101 0.85227 0.0
C182 C 0.47729 0.92321 0.86104 0.0
C183 C 0.46362 0.95551 0.85626 0.0
C184 C 0.41755 0.93988 0.85066 0.0
C185 C 0.38626 0.89316 0.84864 0.0
C186 C 0.49611 0.00556 0.85705 0.0
C187 C 0.54158 0.02462 0.85395 0.0
C188 C 0.57339 0.07483 0.85322 0.0
C189 C 0.61563 0.09207 0.84047 0.0
C190 C 0.64521 0.1392 0.83811 0.0
C191 C 0.63307 0.16999 0.84852 0.0
H192 H 0.5314 0.09413 0.87589 0.0
C193 C 0.59182 0.15268 0.86237 0.0
C194 C 0.56251 0.10577 0.86486 0.0
H195 H 0.58178 0.17545 0.87109 0.0
H196 H 0.45809 0.85279 0.86227 0.0
H197 H 0.51192 0.93352 0.86645 0.0
H198 H 0.40588 0.96394 0.84723 0.0
H199 H 0.35132 0.88235 0.84356 0.0
H200 H 0.48132 0.02739 0.85855 0.0
H201 H 0.55604 1.00303 0.85001 0.0
H202 H 0.62524 0.06904 0.83167 0.0
H203 H 0.67679 0.15144 0.82741 0.0
C204 C 0.44005 0.57818 0.1912 0.0
C205 C 0.46018 0.61536 0.17369 0.0
C206 C 0.4537 0.54558 0.1916 0.0
C207 C 0.48754 0.54916 0.17426 0.0
C208 C 0.50849 0.5869 0.1572 0.0
C209 C 0.49537 0.6201 0.15714 0.0
C210 C 0.49886 0.51222 0.17227 0.0
C211 C 0.4972 0.48657 0.193 0.0
C212 C 0.50779 0.44935 0.19047 0.0
C213 C 0.53639 0.44565 0.20902 0.0
C214 C 0.54878 0.41227 0.20622 0.0
C215 C 0.53129 0.38089 0.1854 0.0
H216 H 0.46662 0.41907 0.15566 0.0
C217 C 0.50069 0.38298 0.16763 0.0
C218 C 0.48946 0.41736 0.16994 0.0
H219 H 0.48716 0.35941 0.15127 0.0
H220 H 0.41272 0.57357 0.20413 0.0
H221 H 0.43618 0.51652 0.20464 0.0
H222 H 0.5345 0.59028 0.14355 0.0
H223 H 0.51112 0.64812 0.14324 0.0
H224 H 0.50999 0.5067 0.15327 0.0
H225 H 0.49082 0.49481 0.21261 0.0
H226 H 0.55052 0.46968 0.22513 0.0
H227 H 0.57257 0.41136 0.2201 0.0
C228 C 0.64186 0.35443 0.92445 0.0
C229 C 0.68138 0.36515 0.91018 0.0
C230 C 0.64343 0.35864 0.95185 0.0
C231 C 0.68458 0.37365 0.96554 0.0
C232 C 0.72472 0.38822 0.95111 0.0
C233 C 0.72314 0.38372 0.92368 0.0
C234 C 0.68574 0.37163 0.99476 0.0
C235 C 0.65214 0.33651 0.00814 0.0
C236 C 0.65016 0.32993 0.03722 0.0
C237 C 0.61593 0.288 0.0472 0.0
C238 C 0.60878 0.28092 0.0742 0.0
C239 C 0.63579 0.31558 0.0921 0.0
H240 H 0.70545 0.39704 0.04836 0.0
C241 C 0.67178 0.35683 0.08239 0.0
C242 C 0.67882 0.36411 0.05513 0.0
H243 H 0.6929 0.38429 0.09574 0.0
H244 H 0.60923 0.34046 0.91467 0.0
H245 H 0.6121 0.34871 0.96236 0.0
H246 H 0.75694 0.40058 0.96116 0.0
H247 H 0.7543 0.39263 0.91323 0.0
H248 H 0.71605 0.39702 1.00486 0.0
H249 H 0.62427 0.30978 0.99693 0.0
H250 H 0.59351 0.26086 0.034 0.0
H251 H 0.58095 0.24861 0.08104 0.0
C252 C 0.34249 0.70159 0.2567 0.0
C253 C 0.31582 0.66342 0.24076 0.0
C254 C 0.33612 0.69919 0.284 0.0
C255 C 0.30283 0.65843 0.29593 0.0
C256 C 0.27413 0.62153 0.27968 0.0
C257 C 0.28059 0.62389 0.25245 0.0
C258 C 0.29843 0.65122 0.32499 0.0
C259 C 0.32892 0.67928 0.34295 0.0
C260 C 0.3263 0.66589 0.37107 0.0
C261 C 0.34125 0.69914 0.39091 0.0
C262 C 0.33868 0.68672 0.41749 0.0
C263 C 0.32184 0.64085 0.42464 0.0
H264 H 0.30082 0.59403 0.36346 0.0
C265 C 0.30861 0.60801 0.40463 0.0
C266 C 0.31083 0.62032 0.37823 0.0
H267 H 0.29591 0.57241 0.40929 0.0
H268 H 0.36974 0.73273 0.24826 0.0
H269 H 0.35827 0.72897 0.2955 0.0
H270 H 0.24783 0.58984 0.28818 0.0
H271 H 0.25926 0.59396 0.24074 0.0
H272 H 0.26971 0.61935 0.33184 0.0
H273 H 0.35698 0.71229 0.33726 0.0
H274 H 0.35411 0.73462 0.38585 0.0
H275 H 0.34935 0.71291 0.4324 0.0
C276 C 0.63905 0.32389 0.74868 0.0
C277 C 0.68337 0.34554 0.75904 0.0
C278 C 0.63206 0.32682 0.7217 0.0
C279 C 0.66925 0.35247 0.70492 0.0
C280 C 0.71321 0.37613 0.71563 0.0
C281 C 0.72031 0.37199 0.74234 0.0
C282 C 0.66353 0.35478 0.67615 0.0
C283 C 0.63676 0.3176 0.66158 0.0
C284 C 0.63763 0.3195 0.63236 0.0
C285 C 0.638 0.2844 0.61791 0.0
C286 C 0.64514 0.28865 0.59062 0.0
C287 C 0.65103 0.32769 0.5773 0.0
H288 H 0.63934 0.38418 0.62937 0.0
C289 C 0.64705 0.36106 0.59159 0.0
C290 C 0.6407 0.35714 0.61882 0.0
H291 H 0.65107 0.39145 0.58196 0.0
H292 H 0.6101 0.3029 0.76116 0.0
H293 H 0.59774 0.30882 0.71395 0.0
H294 H 0.74233 0.39634 0.70308 0.0
H295 H 0.75479 0.3888 0.7499 0.0
H296 H 0.68616 0.38687 0.66633 0.0
H297 H 0.61812 0.28443 0.67109 0.0
H298 H 0.63524 0.25482 0.62792 0.0
H299 H 0.64785 0.26228 0.58018 0.0
C300 C 0.28799 0.65337 0.92243 0.0
C301 C 0.32522 0.65679 0.90834 0.0
C302 C 0.28385 0.64462 0.94947 0.0
C303 C 0.3166 0.63859 0.96296 0.0
C304 C 0.35184 0.63848 0.9486 0.0
C305 C 0.35644 0.64799 0.92155 0.0
C306 C 0.31624 0.63528 0.99211 0.0
C307 C 0.30664 0.66184 1.00736 0.0
C308 C 0.31464 0.66577 0.03614 0.0
C309 C 0.33631 0.70928 0.04756 0.0
C310 C 0.34832 0.71472 0.07416 0.0
C311 C 0.33725 0.67657 0.09003 0.0
H312 H 0.28496 0.5934 0.04383 0.0
C313 C 0.31304 0.63274 0.07903 0.0
C314 C 0.30231 0.62738 0.05215 0.0
H315 H 0.30459 0.60287 0.09088 0.0
H316 H 0.26308 0.65961 0.91286 0.0
H317 H 0.25565 0.64373 0.95992 0.0
H318 H 0.37725 0.63348 0.95856 0.0
H319 H 0.38534 0.65015 0.91124 0.0
H320 H 0.32956 0.61519 1.0011 0.0
H321 H 0.29846 0.68588 0.99816 0.0
H322 H 0.34588 0.7393 0.0356 0.0
H323 H 0.36715 0.74884 0.08222 0.0
C324 C 0.67955 0.32603 0.41559 0.0
C325 C 0.68094 0.36512 0.42602 0.0
C326 C 0.67864 0.31973 0.38823 0.0
C327 C 0.67868 0.35233 0.37085 0.0
C328 C 0.67814 0.39023 0.38149 0.0
C329 C 0.67926 0.39657 0.40862 0.0
C330 C 0.68145 0.35015 0.34165 0.0
C331 C 0.6756 0.3137 0.3278 0.0
C332 C 0.6767 0.31443 0.2985 0.0
C333 C 0.64652 0.27508 0.2845 0.0
C334 C 0.64237 0.27678 0.25715 0.0
C335 C 0.66881 0.31782 0.24325 0.0
H336 H 0.73065 0.38494 0.29445 0.0
C337 C 0.70177 0.35611 0.25703 0.0
C338 C 0.70572 0.35444 0.28436 0.0
H339 H 0.723 0.38811 0.24692 0.0
H340 H 0.68115 0.30135 0.42849 0.0
H341 H 0.67947 0.2902 0.38096 0.0
H342 H 0.67789 0.41581 0.36873 0.0
H343 H 0.67998 0.42694 0.41594 0.0
H344 H 0.68721 0.38033 0.33082 0.0
H345 H 0.666 0.2817 0.33768 0.0
H346 H 0.62431 0.24363 0.29487 0.0
H347 H 0.61684 0.24653 0.2471 0.0
C348 C 0.36189 0.69053 0.74765 0.0
C349 C 0.32395 0.69115 0.75815 0.0
C350 C 0.36733 0.68994 0.72028 0.0
C351 C 0.33454 0.6895 0.70299 0.0
C352 C 0.29583 0.68812 0.71373 0.0
C353 C 0.2906 0.68898 0.74087 0.0
C354 C 0.33929 0.69225 0.67379 0.0
C355 C 0.37124 0.68881 0.65993 0.0
C356 C 0.37112 0.68927 0.63065 0.0
C357 C 0.38215 0.66029 0.61691 0.0
C358 C 0.37559 0.65493 0.58967 0.0
C359 C 0.35845 0.67899 0.57563 0.0
H360 H 0.35053 0.74019 0.62623 0.0
C361 C 0.35133 0.71104 0.58908 0.0
C362 C 0.35762 0.71617 0.61632 0.0
H363 H 0.33856 0.73044 0.57882 0.0
H364 H 0.38833 0.69253 0.76049 0.0
H365 H 0.39783 0.69127 0.71298 0.0
H366 H 0.2698 0.68744 0.70104 0.0
H367 H 0.26077 0.68912 0.74828 0.0
H368 H 0.31365 0.69592 0.66297 0.0
H369 H 0.39523 0.68149 0.66976 0.0
H370 H 0.39332 0.63976 0.62743 0.0
H371 H 0.38181 0.63022 0.57985 0.0
loop_
_geom_bond_atom_site_label_1
_geom_bond_atom_site_label_2
_geom_bond_distance
_geom_bond_site_symmetry_2
_ccdc_geom_bond_type
O0 Cd1 2.223 . S
O0 C8 1.315 . S
Cd1 O0 2.223 . S
Cd1 O4 2.297 . S
Cd1 O5 2.439 . S
Cd1 O11 2.240 . S
Cd2 O3 2.240 . S
Cd2 O10 2.223 . S
Cd2 O12 2.297 . S
Cd2 O13 2.439 . S
O3 Cd2 2.240 . S
O3 C8 1.279 . S
O4 Cd1 2.297 . S
O4 C6 1.247 . S
O5 Cd1 2.439 . S
O5 C6 1.208 . S
C6 O4 1.247 . S
C6 O5 1.208 . S
C7 O12 1.247 . S
C7 O13 1.208 . S
C8 O0 1.315 . S
C8 O3 1.279 . S
C9 O10 1.315 . S
C9 O11 1.279 . S
O10 Cd2 2.223 . S
O10 C9 1.315 . S
O11 Cd1 2.240 . S
O11 C9 1.279 . S
O12 Cd2 2.297 . S
O12 C7 1.247 . S
O13 Cd2 2.439 . S
O13 C7 1.208 . S
O14 Cd15 2.223 . S
O14 C22 1.315 . S
Cd15 O14 2.223 . S
Cd15 O18 2.297 . S
Cd15 O19 2.439 . S
Cd15 O25 2.240 . S
Cd16 O17 2.240 . S
Cd16 O24 2.223 . S
Cd16 O26 2.297 . S
Cd16 O27 2.439 . S
O17 Cd16 2.240 . S
O17 C22 1.279 . S
O18 Cd15 2.297 . S
O18 C20 1.247 . S
O19 Cd15 2.439 . S
O19 C20 1.208 . S
C20 O18 1.247 . S
C20 O19 1.208 . S
C21 O26 1.247 . S
C21 O27 1.208 . S
C22 O14 1.315 . S
C22 O17 1.279 . S
C23 O24 1.315 . S
C23 O25 1.279 . S
O24 Cd16 2.223 . S
O24 C23 1.315 . S
O25 Cd15 2.240 . S
O25 C23 1.279 . S
O26 Cd16 2.297 . S
O26 C21 1.247 . S
O27 Cd16 2.439 . S
O27 C21 1.208 . S
O28 Cd29 2.223 . S
O28 C36 1.315 . S
Cd29 O28 2.223 . S
Cd29 O32 2.297 . S
Cd29 O33 2.439 . S
Cd29 O39 2.240 . S
Cd30 O31 2.240 . S
Cd30 O38 2.223 . S
Cd30 O40 2.297 . S
Cd30 O41 2.439 . S
O31 Cd30 2.240 . S
O31 C36 1.279 . S
O32 Cd29 2.297 . S
O32 C34 1.247 . S
O33 Cd29 2.439 . S
O33 C34 1.208 . S
C34 O32 1.247 . S
C34 O33 1.208 . S
C35 O40 1.247 . S
C35 O41 1.208 . S
C36 O28 1.315 . S
C36 O31 1.279 . S
C37 O38 1.315 . S
C37 O39 1.279 . S
O38 Cd30 2.223 . S
O38 C37 1.315 . S
O39 Cd29 2.240 . S
O39 C37 1.279 . S
O40 Cd30 2.297 . S
O40 C35 1.247 . S
O41 Cd30 2.439 . S
O41 C35 1.208 . S
O42 Cd43 2.223 . S
O42 C50 1.315 . S
Cd43 O42 2.223 . S
Cd43 O46 2.297 . S
Cd43 O47 2.439 . S
Cd43 O53 2.240 . S
Cd44 O45 2.240 . S
Cd44 O52 2.223 . S
Cd44 O54 2.297 . S
Cd44 O55 2.439 . S
O45 Cd44 2.240 . S
O45 C50 1.279 . S
O46 Cd43 2.297 . S
O46 C48 1.247 . S
O47 Cd43 2.439 . S
O47 C48 1.208 . S
C48 O46 1.247 . S
C48 O47 1.208 . S
C49 O54 1.247 . S
C49 O55 1.208 . S
C50 O42 1.315 . S
C50 O45 1.279 . S
C51 O52 1.315 . S
C51 O53 1.279 . S
O52 Cd44 2.223 . S
O52 C51 1.315 . S
O53 Cd43 2.240 . S
O53 C51 1.279 . S
O54 Cd44 2.297 . S
O54 C49 1.247 . S
O55 Cd44 2.439 . S
O55 C49 1.208 . S
O56 Cd57 2.223 . S
O56 C64 1.315 . S
Cd57 O56 2.223 . S
Cd57 O60 2.297 . S
Cd57 O61 2.439 . S
Cd57 O67 2.240 . S
Cd58 O59 2.240 . S
Cd58 O66 2.223 . S
Cd58 O68 2.297 . S
Cd58 O69 2.439 . S
O59 Cd58 2.240 . S
O59 C64 1.279 . S
O60 Cd57 2.297 . S
O60 C62 1.247 . S
O61 Cd57 2.439 . S
O61 C62 1.208 . S
C62 O60 1.247 . S
C62 O61 1.208 . S
C63 O68 1.247 . S
C63 O69 1.208 . S
C64 O56 1.315 . S
C64 O59 1.279 . S
C65 O66 1.315 . S
C65 O67 1.279 . S
O66 Cd58 2.223 . S
O66 C65 1.315 . S
O67 Cd57 2.240 . S
O67 C65 1.279 . S
O68 Cd58 2.297 . S
O68 C63 1.247 . S
O69 Cd58 2.439 . S
O69 C63 1.208 . S
O70 Cd71 2.223 . S
O70 C78 1.315 . S
Cd71 O70 2.223 . S
Cd71 O74 2.297 . S
Cd71 O75 2.439 . S
Cd71 O81 2.240 . S
Cd72 O73 2.240 . S
Cd72 O80 2.223 . S
Cd72 O82 2.297 . S
Cd72 O83 2.439 . S
O73 Cd72 2.240 . S
O73 C78 1.279 . S
O74 Cd71 2.297 . S
O74 C76 1.247 . S
O75 Cd71 2.439 . S
O75 C76 1.208 . S
C76 O74 1.247 . S
C76 O75 1.208 . S
C77 O82 1.247 . S
C77 O83 1.208 . S
C78 O70 1.315 . S
C78 O73 1.279 . S
C79 O80 1.315 . S
C79 O81 1.279 . S
O80 Cd72 2.223 . S
O80 C79 1.315 . S
O81 Cd71 2.240 . S
O81 C79 1.279 . S
O82 Cd72 2.297 . S
O82 C77 1.247 . S
O83 Cd72 2.439 . S
O83 C77 1.208 . S
C84 C85 1.386 . S
C84 C86 1.383 . S
C84 H100 0.951 . S
C85 C84 1.386 . S
C85 C89 1.383 . S
C86 C84 1.383 . S
C86 C87 1.402 . S
C86 H101 0.951 . S
C87 C86 1.402 . S
C87 C88 1.375 . S
C87 C90 1.481 . S
C88 C87 1.375 . S
C88 C89 1.367 . S
C88 H102 0.951 . S
C89 C85 1.383 . S
C89 C88 1.367 . S
C89 H103 0.950 . S
C90 C87 1.481 . S
C90 C91 1.297 1_545 S
C90 H104 0.950 . S
C91 C90 1.297 1_565 S
C91 C92 1.479 . S
C91 H105 0.950 . S
C92 C91 1.479 . S
C92 C93 1.375 . S
C92 C98 1.404 . S
C93 C92 1.375 . S
C93 C94 1.369 . S
C93 H106 0.950 . S
C94 C93 1.369 . S
C94 C95 1.392 . S
C94 H107 0.951 . S
C95 C94 1.392 . S
C95 C97 1.384 . S
H96 C98 0.949 . S
C97 C95 1.384 . S
C97 C98 1.385 . S
C97 H99 0.950 . S
C98 C92 1.404 . S
C98 H96 0.949 . S
C98 C97 1.385 . S
H99 C97 0.950 . S
H100 C84 0.951 . S
H101 C86 0.951 . S
H102 C88 0.951 . S
H103 C89 0.950 . S
H104 C90 0.950 . S
H105 C91 0.950 . S
H106 C93 0.950 . S
H107 C94 0.951 . S
C108 C109 1.386 . S
C108 C110 1.383 . S
C108 H124 0.951 . S
C109 C108 1.386 . S
C109 C113 1.383 . S
C110 C108 1.383 . S
C110 C111 1.402 . S
C110 H125 0.951 . S
C111 C110 1.402 . S
C111 C112 1.375 . S
C111 C114 1.481 . S
C112 C111 1.375 . S
C112 C113 1.367 . S
C112 H126 0.951 . S
C113 C109 1.383 . S
C113 C112 1.367 . S
C113 H127 0.950 . S
C114 C111 1.481 . S
C114 C115 1.297 . S
C114 H128 0.950 . S
C115 C114 1.297 . S
C115 C116 1.479 . S
C115 H129 0.950 . S
C116 C115 1.479 . S
C116 C117 1.375 . S
C116 C122 1.404 . S
C117 C116 1.375 . S
C117 C118 1.369 . S
C117 H130 0.950 . S
C118 C117 1.369 . S
C118 C119 1.392 . S
C118 H131 0.951 . S
C119 C118 1.392 . S
C119 C121 1.384 . S
H120 C122 0.949 . S
C121 C119 1.384 . S
C121 C122 1.385 . S
C121 H123 0.950 . S
C122 C116 1.404 . S
C122 H120 0.949 . S
C122 C121 1.385 . S
H123 C121 0.950 . S
H124 C108 0.951 . S
H125 C110 0.951 . S
H126 C112 0.951 . S
H127 C113 0.950 . S
H128 C114 0.950 . S
H129 C115 0.950 . S
H130 C117 0.950 . S
H131 C118 0.951 . S
C132 C133 1.386 . S
C132 C134 1.383 . S
C132 H148 0.951 . S
C133 C132 1.386 . S
C133 C137 1.383 . S
C134 C132 1.383 . S
C134 C135 1.402 . S
C134 H149 0.951 . S
C135 C134 1.402 . S
C135 C136 1.375 . S
C135 C138 1.481 . S
C136 C135 1.375 . S
C136 C137 1.367 . S
C136 H150 0.951 . S
C137 C133 1.383 . S
C137 C136 1.367 . S
C137 H151 0.950 . S
C138 C135 1.481 . S
C138 C139 1.297 1_655 S
C138 H152 0.950 . S
C139 C138 1.297 1_455 S
C139 C140 1.479 . S
C139 H153 0.953 . S
C140 C139 1.479 . S
C140 C141 1.375 . S
C140 C146 1.404 . S
C141 C140 1.375 . S
C141 C142 1.369 . S
C141 H154 0.950 . S
C142 C141 1.369 . S
C142 C143 1.392 . S
C142 H155 0.951 . S
C143 C142 1.392 . S
C143 C145 1.384 . S
H144 C146 0.949 . S
C145 C143 1.384 . S
C145 C146 1.385 . S
C145 H147 0.950 . S
C146 C140 1.404 . S
C146 H144 0.949 . S
C146 C145 1.385 . S
H147 C145 0.950 . S
H148 C132 0.951 . S
H149 C134 0.951 . S
H150 C136 0.951 . S
H151 C137 0.950 . S
H152 C138 0.950 . S
H153 C139 0.953 . S
H154 C141 0.950 . S
H155 C142 0.951 . S
C156 C157 1.386 . S
C156 C158 1.383 . S
C156 H172 0.951 . S
C157 C156 1.386 . S
C157 C161 1.383 . S
C158 C156 1.383 . S
C158 C159 1.402 . S
C158 H173 0.951 . S
C159 C158 1.402 . S
C159 C160 1.375 . S
C159 C162 1.481 . S
C160 C159 1.375 . S
C160 C161 1.367 . S
C160 H174 0.951 . S
C161 C157 1.383 . S
C161 C160 1.367 . S
C161 H175 0.950 . S
C162 C159 1.481 . S
C162 C163 1.297 1_455 S
C162 H176 0.950 . S
C163 C162 1.297 1_655 S
C163 C164 1.479 . S
C163 H177 0.950 1_655 S
C164 C163 1.479 . S
C164 C165 1.375 . S
C164 C170 1.404 . S
C165 C164 1.375 . S
C165 C166 1.369 . S
C165 H178 0.950 . S
C166 C165 1.369 . S
C166 C167 1.392 . S
C166 H179 0.951 . S
C167 C166 1.392 . S
C167 C169 1.384 . S
H168 C170 0.949 . S
C169 C167 1.384 . S
C169 C170 1.385 . S
C169 H171 0.950 . S
C170 C164 1.404 . S
C170 H168 0.949 . S
C170 C169 1.385 . S
H171 C169 0.950 . S
H172 C156 0.951 . S
H173 C158 0.951 . S
H174 C160 0.951 . S
H175 C161 0.950 . S
H176 C162 0.950 . S
H177 C163 0.950 1_455 S
H178 C165 0.950 . S
H179 C166 0.951 . S
C180 C181 1.386 . S
C180 C182 1.383 . S
C180 H196 0.951 . S
C181 C180 1.386 . S
C181 C185 1.383 . S
C182 C180 1.383 . S
C182 C183 1.402 . S
C182 H197 0.951 . S
C183 C182 1.402 . S
C183 C184 1.375 . S
C183 C186 1.481 . S
C184 C183 1.375 . S
C184 C185 1.367 . S
C184 H198 0.951 . S
C185 C181 1.383 . S
C185 C184 1.367 . S
C185 H199 0.950 . S
C186 C183 1.481 . S
C186 C187 1.297 1_565 S
C186 H200 0.950 1_565 S
C187 C186 1.297 1_545 S
C187 C188 1.479 . S
C187 H201 0.950 . S
C188 C187 1.479 . S
C188 C189 1.375 . S
C188 C194 1.404 . S
C189 C188 1.375 . S
C189 C190 1.369 . S
C189 H202 0.950 . S
C190 C189 1.369 . S
C190 C191 1.392 . S
C190 H203 0.951 . S
C191 C190 1.392 . S
C191 C193 1.384 . S
H192 C194 0.949 . S
C193 C191 1.384 . S
C193 C194 1.385 . S
C193 H195 0.950 . S
C194 C188 1.404 . S
C194 H192 0.949 . S
C194 C193 1.385 . S
H195 C193 0.950 . S
H196 C180 0.951 . S
H197 C182 0.951 . S
H198 C184 0.951 . S
H199 C185 0.950 . S
H200 C186 0.950 1_545 S
H201 C187 0.950 . S
H202 C189 0.950 . S
H203 C190 0.951 . S
C204 C205 1.386 . S
C204 C206 1.383 . S
C204 H220 0.951 . S
C205 C204 1.386 . S
C205 C209 1.383 . S
C206 C204 1.383 . S
C206 C207 1.402 . S
C206 H221 0.951 . S
C207 C206 1.402 . S
C207 C208 1.375 . S
C207 C210 1.481 . S
C208 C207 1.375 . S
C208 C209 1.367 . S
C208 H222 0.951 . S
C209 C205 1.383 . S
C209 C208 1.367 . S
C209 H223 0.950 . S
C210 C207 1.481 . S
C210 C211 1.297 . S
C210 H224 0.950 . S
C211 C210 1.297 . S
C211 C212 1.479 . S
C211 H225 0.950 . S
C212 C211 1.479 . S
C212 C213 1.375 . S
C212 C218 1.404 . S
C213 C212 1.375 . S
C213 C214 1.369 . S
C213 H226 0.950 . S
C214 C213 1.369 . S
C214 C215 1.392 . S
C214 H227 0.951 . S
C215 C214 1.392 . S
C215 C217 1.384 . S
H216 C218 0.949 . S
C217 C215 1.384 . S
C217 C218 1.385 . S
C217 H219 0.950 . S
C218 C212 1.404 . S
C218 H216 0.949 . S
C218 C217 1.385 . S
H219 C217 0.950 . S
H220 C204 0.951 . S
H221 C206 0.951 . S
H222 C208 0.951 . S
H223 C209 0.950 . S
H224 C210 0.950 . S
H225 C211 0.950 . S
H226 C213 0.950 . S
H227 C214 0.951 . S
C228 C229 1.386 . S
C228 C230 1.383 . S
C228 H244 0.951 . S
C229 C228 1.386 . S
C229 C233 1.383 . S
C230 C228 1.383 . S
C230 C231 1.402 . S
C230 H245 0.951 . S
C231 C230 1.402 . S
C231 C232 1.375 . S
C231 C234 1.481 . S
C232 C231 1.375 . S
C232 C233 1.367 . S
C232 H246 0.951 . S
C233 C229 1.383 . S
C233 C232 1.367 . S
C233 H247 0.950 . S
C234 C231 1.481 . S
C234 C235 1.297 1_556 S
C234 H248 0.950 1_556 S
C235 C234 1.297 1_554 S
C235 C236 1.479 . S
C235 H249 0.950 . S
C236 C235 1.479 . S
C236 C237 1.375 . S
C236 C242 1.404 . S
C237 C236 1.375 . S
C237 C238 1.369 . S
C237 H250 0.950 . S
C238 C237 1.369 . S
C238 C239 1.392 . S
C238 H251 0.951 . S
C239 C238 1.392 . S
C239 C241 1.384 . S
H240 C242 0.949 . S
C241 C239 1.384 . S
C241 C242 1.385 . S
C241 H243 0.950 . S
C242 C236 1.404 . S
C242 H240 0.949 . S
C242 C241 1.385 . S
H243 C241 0.950 . S
H244 C228 0.951 . S
H245 C230 0.951 . S
H246 C232 0.951 . S
H247 C233 0.950 . S
H248 C234 0.950 1_554 S
H249 C235 0.950 . S
H250 C237 0.950 . S
H251 C238 0.951 . S
C252 C253 1.386 . S
C252 C254 1.383 . S
C252 H268 0.951 . S
C253 C252 1.386 . S
C253 C257 1.383 . S
C254 C252 1.383 . S
C254 C255 1.402 . S
C254 H269 0.951 . S
C255 C254 1.402 . S
C255 C256 1.375 . S
C255 C258 1.481 . S
C256 C255 1.375 . S
C256 C257 1.367 . S
C256 H270 0.951 . S
C257 C253 1.383 . S
C257 C256 1.367 . S
C257 H271 0.950 . S
C258 C255 1.481 . S
C258 C259 1.297 . S
C258 H272 0.950 . S
C259 C258 1.297 . S
C259 C260 1.479 . S
C259 H273 0.950 . S
C260 C259 1.479 . S
C260 C261 1.375 . S
C260 C266 1.404 . S
C261 C260 1.375 . S
C261 C262 1.369 . S
C261 H274 0.950 . S
C262 C261 1.369 . S
C262 C263 1.392 . S
C262 H275 0.951 . S
C263 C262 1.392 . S
C263 C265 1.384 . S
H264 C266 0.949 . S
C265 C263 1.384 . S
C265 C266 1.385 . S
C265 H267 0.950 . S
C266 C260 1.404 . S
C266 H264 0.949 . S
C266 C265 1.385 . S
H267 C265 0.950 . S
H268 C252 0.951 . S
H269 C254 0.951 . S
H270 C256 0.951 . S
H271 C257 0.950 . S
H272 C258 0.950 . S
H273 C259 0.950 . S
H274 C261 0.950 . S
H275 C262 0.951 . S
C276 C277 1.386 . S
C276 C278 1.383 . S
C276 H292 0.951 . S
C277 C276 1.386 . S
C277 C281 1.383 . S
C278 C276 1.383 . S
C278 C279 1.402 . S
C278 H293 0.951 . S
C279 C278 1.402 . S
C279 C280 1.375 . S
C279 C282 1.481 . S
C280 C279 1.375 . S
C280 C281 1.367 . S
C280 H294 0.951 . S
C281 C277 1.383 . S
C281 C280 1.367 . S
C281 H295 0.950 . S
C282 C279 1.481 . S
C282 C283 1.297 . S
C282 H296 0.950 . S
C283 C282 1.297 . S
C283 C284 1.479 . S
C283 H297 0.950 . S
C284 C283 1.479 . S
C284 C285 1.375 . S
C284 C290 1.404 . S
C285 C284 1.375 . S
C285 C286 1.369 . S
C285 H298 0.950 . S
C286 C285 1.369 . S
C286 C287 1.392 . S
C286 H299 0.951 . S
C287 C286 1.392 . S
C287 C289 1.384 . S
H288 C290 0.949 . S
C289 C287 1.384 . S
C289 C290 1.385 . S
C289 H291 0.950 . S
C290 C284 1.404 . S
C290 H288 0.949 . S
C290 C289 1.385 . S
H291 C289 0.950 . S
H292 C276 0.951 . S
H293 C278 0.951 . S
H294 C280 0.951 . S
H295 C281 0.950 . S
H296 C282 0.950 . S
H297 C283 0.950 . S
H298 C285 0.950 . S
H299 C286 0.951 . S
C300 C301 1.386 . S
C300 C302 1.383 . S
C300 H316 0.951 . S
C301 C300 1.386 . S
C301 C305 1.383 . S
C302 C300 1.383 . S
C302 C303 1.402 . S
C302 H317 0.951 . S
C303 C302 1.402 . S
C303 C304 1.375 . S
C303 C306 1.481 . S
C304 C303 1.375 . S
C304 C305 1.367 . S
C304 H318 0.951 . S
C305 C301 1.383 . S
C305 C304 1.367 . S
C305 H319 0.950 . S
C306 C303 1.481 . S
C306 C307 1.297 1_556 S
C306 H320 0.950 1_556 S
C307 C306 1.297 1_554 S
C307 C308 1.479 . S
C307 H321 0.950 . S
C308 C307 1.479 . S
C308 C309 1.375 . S
C308 C314 1.404 . S
C309 C308 1.375 . S
C309 C310 1.369 . S
C309 H322 0.950 . S
C310 C309 1.369 . S
C310 C311 1.392 . S
C310 H323 0.951 . S
C311 C310 1.392 . S
C311 C313 1.384 . S
H312 C314 0.949 . S
C313 C311 1.384 . S
C313 C314 1.385 . S
C313 H315 0.950 . S
C314 C308 1.404 . S
C314 H312 0.949 . S
C314 C313 1.385 . S
H315 C313 0.950 . S
H316 C300 0.951 . S
H317 C302 0.951 . S
H318 C304 0.951 . S
H319 C305 0.950 . S
H320 C306 0.950 1_554 S
H321 C307 0.950 . S
H322 C309 0.950 . S
H323 C310 0.951 . S
C324 C325 1.386 . S
C324 C326 1.383 . S
C324 H340 0.951 . S
C325 C324 1.386 . S
C325 C329 1.383 . S
C326 C324 1.383 . S
C326 C327 1.402 . S
C326 H341 0.951 . S
C327 C326 1.402 . S
C327 C328 1.375 . S
C327 C330 1.481 . S
C328 C327 1.375 . S
C328 C329 1.367 . S
C328 H342 0.951 . S
C329 C325 1.383 . S
C329 C328 1.367 . S
C329 H343 0.950 . S
C330 C327 1.481 . S
C330 C331 1.297 . S
C330 H344 0.950 . S
C331 C330 1.297 . S
C331 C332 1.479 . S
C331 H345 0.950 . S
C332 C331 1.479 . S
C332 C333 1.375 . S
C332 C338 1.404 . S
C333 C332 1.375 . S
C333 C334 1.369 . S
C333 H346 0.950 . S
C334 C333 1.369 . S
C334 C335 1.392 . S
C334 H347 0.951 . S
C335 C334 1.392 . S
C335 C337 1.384 . S
H336 C338 0.949 . S
C337 C335 1.384 . S
C337 C338 1.385 . S
C337 H339 0.950 . S
C338 C332 1.404 . S
C338 H336 0.949 . S
C338 C337 1.385 . S
H339 C337 0.950 . S
H340 C324 0.951 . S
H341 C326 0.951 . S
H342 C328 0.951 . S
H343 C329 0.950 . S
H344 C330 0.950 . S
H345 C331 0.950 . S
H346 C333 0.950 . S
H347 C334 0.951 . S
C348 C349 1.386 . S
C348 C350 1.383 . S
C348 H364 0.951 . S
C349 C348 1.386 . S
C349 C353 1.383 . S
C350 C348 1.383 . S
C350 C351 1.402 . S
C350 H365 0.951 . S
C351 C350 1.402 . S
C351 C352 1.375 . S
C351 C354 1.481 . S
C352 C351 1.375 . S
C352 C353 1.367 . S
C352 H366 0.951 . S
C353 C349 1.383 . S
C353 C352 1.367 . S
C353 H367 0.950 . S
C354 C351 1.481 . S
C354 C355 1.297 . S
C354 H368 0.950 . S
C355 C354 1.297 . S
C355 C356 1.479 . S
C355 H369 0.950 . S
C356 C355 1.479 . S
C356 C357 1.375 . S
C356 C362 1.404 . S
C357 C356 1.375 . S
C357 C358 1.369 . S
C357 H370 0.950 . S
C358 C357 1.369 . S
C358 C359 1.392 . S
C358 H371 0.951 . S
C359 C358 1.392 . S
C359 C361 1.384 . S
H360 C362 0.949 . S
C361 C359 1.384 . S
C361 C362 1.385 . S
C361 H363 0.950 . S
C362 C356 1.404 . S
C362 H360 0.949 . S
C362 C361 1.385 . S
H363 C361 0.950 . S
H364 C348 0.951 . S
H365 C350 0.951 . S
H366 C352 0.951 . S
H367 C353 0.950 . S
H368 C354 0.950 . S
H369 C355 0.950 . S
H370 C357 0.950 . S
H371 C358 0.951 . S
C85 C7 1.143 . S
C95 C49 1.173 . S
C109 C21 1.141 . S
C119 C63 1.178 . S
C133 C35 1.175 . S
C143 C77 1.119 . S
C157 C22 1.781 . S
C167 C64 1.795 . S
C181 C78 1.788 . S
C191 C36 1.760 . S
C205 C50 1.777 . S
C215 C8 1.790 . S
C229 C34 1.307 . S
C239 C9 1.250 . S
C253 C48 1.305 . S
C263 C23 1.222 . S
C277 C37 1.239 . S
C287 C62 1.301 . S
C301 C76 1.306 . S
C311 C51 1.293 . S
C325 C65 1.207 . S
C335 C6 1.299 . S
C349 C79 1.206 . S
C359 C20 1.299 . S
