# Generated by pormake.
# Topology ukt, (4)-cn, num edge types: 1
# Building blocks:
#     Node 0, Type 0, BuildingBlock: NAHDIM_clean_sbu_0, # of connection points: 4
#     Node 1, Type 0, BuildingBlock: NAHDIM_clean_sbu_0, # of connection points: 4
#     Node 2, Type 0, BuildingBlock: NAHDIM_clean_sbu_0, # of connection points: 4
#     Node 3, Type 0, BuildingBlock: NAHDIM_clean_sbu_0, # of connection points: 4
#     Node 4, Type 0, BuildingBlock: NAHDIM_clean_sbu_0, # of connection points: 4
#     Node 5, Type 0, BuildingBlock: NAHDIM_clean_sbu_0, # of connection points: 4
#     Node 6, Type 0, BuildingBlock: NAHDIM_clean_sbu_0, # of connection points: 4
#     Node 7, Type 0, BuildingBlock: NAHDIM_clean_sbu_0, # of connection points: 4
#     Node 8, Type 0, BuildingBlock: NAHDIM_clean_sbu_0, # of connection points: 4
#     Node 9, Type 0, BuildingBlock: NAHDIM_clean_sbu_0, # of connection points: 4
#     Node 10, Type 0, BuildingBlock: NAHDIM_clean_sbu_0, # of connection points: 4
#     Node 11, Type 0, BuildingBlock: NAHDIM_clean_sbu_0, # of connection points: 4
#     Node 12, Type 0, BuildingBlock: NAHDIM_clean_sbu_0, # of connection points: 4
#     Node 13, Type 0, BuildingBlock: NAHDIM_clean_sbu_0, # of connection points: 4
#     Node 14, Type 0, BuildingBlock: NAHDIM_clean_sbu_0, # of connection points: 4
#     Node 15, Type 0, BuildingBlock: NAHDIM_clean_sbu_0, # of connection points: 4
#     Edge 16, Type (0, 0), BuildingBlock: OJICUG_clean_linker_0, # of connection points: 2
#     Edge 17, Type (0, 0), BuildingBlock: OJICUG_clean_linker_0, # of connection points: 2
#     Edge 18, Type (0, 0), BuildingBlock: OJICUG_clean_linker_0, # of connection points: 2
#     Edge 19, Type (0, 0), BuildingBlock: OJICUG_clean_linker_0, # of connection points: 2
#     Edge 20, Type (0, 0), BuildingBlock: OJICUG_clean_linker_0, # of connection points: 2
#     Edge 21, Type (0, 0), BuildingBlock: OJICUG_clean_linker_0, # of connection points: 2
#     Edge 22, Type (0, 0), BuildingBlock: OJICUG_clean_linker_0, # of connection points: 2
#     Edge 23, Type (0, 0), BuildingBlock: OJICUG_clean_linker_0, # of connection points: 2
#     Edge 24, Type (0, 0), BuildingBlock: OJICUG_clean_linker_0, # of connection points: 2
#     Edge 25, Type (0, 0), BuildingBlock: OJICUG_clean_linker_0, # of connection points: 2
#     Edge 26, Type (0, 0), BuildingBlock: OJICUG_clean_linker_0, # of connection points: 2
#     Edge 27, Type (0, 0), BuildingBlock: OJICUG_clean_linker_0, # of connection points: 2
#     Edge 28, Type (0, 0), BuildingBlock: OJICUG_clean_linker_0, # of connection points: 2
#     Edge 29, Type (0, 0), BuildingBlock: OJICUG_clean_linker_0, # of connection points: 2
#     Edge 30, Type (0, 0), BuildingBlock: OJICUG_clean_linker_0, # of connection points: 2
#     Edge 31, Type (0, 0), BuildingBlock: OJICUG_clean_linker_0, # of connection points: 2
#     Edge 32, Type (0, 0), BuildingBlock: OJICUG_clean_linker_0, # of connection points: 2
#     Edge 33, Type (0, 0), BuildingBlock: OJICUG_clean_linker_0, # of connection points: 2
#     Edge 34, Type (0, 0), BuildingBlock: OJICUG_clean_linker_0, # of connection points: 2
#     Edge 35, Type (0, 0), BuildingBlock: OJICUG_clean_linker_0, # of connection points: 2
#     Edge 36, Type (0, 0), BuildingBlock: OJICUG_clean_linker_0, # of connection points: 2
#     Edge 37, Type (0, 0), BuildingBlock: OJICUG_clean_linker_0, # of connection points: 2
#     Edge 38, Type (0, 0), BuildingBlock: OJICUG_clean_linker_0, # of connection points: 2
#     Edge 39, Type (0, 0), BuildingBlock: OJICUG_clean_linker_0, # of connection points: 2
#     Edge 40, Type (0, 0), BuildingBlock: OJICUG_clean_linker_0, # of connection points: 2
#     Edge 41, Type (0, 0), BuildingBlock: OJICUG_clean_linker_0, # of connection points: 2
#     Edge 42, Type (0, 0), BuildingBlock: OJICUG_clean_linker_0, # of connection points: 2
#     Edge 43, Type (0, 0), BuildingBlock: OJICUG_clean_linker_0, # of connection points: 2
#     Edge 44, Type (0, 0), BuildingBlock: OJICUG_clean_linker_0, # of connection points: 2
#     Edge 45, Type (0, 0), BuildingBlock: OJICUG_clean_linker_0, # of connection points: 2
#     Edge 46, Type (0, 0), BuildingBlock: OJICUG_clean_linker_0, # of connection points: 2
#     Edge 47, Type (0, 0), BuildingBlock: OJICUG_clean_linker_0, # of connection points: 2
# Relax obj value: 0.316
# Max RMSD: 0.219
# Mean RMSD: 0.219
data_MOF--net-ukt--node1-NAHDIM_clean_sbu_0--edge1-OJICUG_clean_linker_0
_symmetry_space_group_name_H-M    P1
_symmetry_Int_Tables_number       1
_symmetry_cell_setting            triclinic
loop_
_symmetry_equiv_pos_as_xyz
'x, y, z'
_cell_length_a     31.851483
_cell_length_b     31.792213
_cell_length_c     25.393199
_cell_angle_alpha  90.037164
_cell_angle_beta   89.491946
_cell_angle_gamma 89.850277
loop_
_atom_site_label
_atom_site_type_symbol
_atom_site_fract_x
_atom_site_fract_y
_atom_site_fract_z
_atom_type_partial_charge
C0 C 0.54609 0.07239 0.06535 0.0
O1 O 0.578 0.08531 0.03652 0.0
O2 O 0.55522 0.18005 0.181 0.0
Zn3 Zn 0.56958 0.14612 0.11513 0.0
O4 O 0.62975 0.12715 0.11407 0.0
C5 C 0.53031 0.20505 0.04405 0.0
O6 O 0.49782 0.20069 0.07582 0.0
O7 O 0.53442 0.09453 0.10463 0.0
C8 C 0.66018 0.15258 0.10869 0.0
O9 O 0.65282 0.19321 0.11062 0.0
C10 C 0.56138 0.21963 0.17929 0.0
O11 O 0.5774 0.23621 0.13629 0.0
O12 O 0.56304 0.18319 0.052 0.0
C13 C 0.41958 0.55009 0.00692 0.0
O14 O 0.41722 0.59124 0.00305 0.0
O15 O 0.32553 0.54686 0.14242 0.0
Zn16 Zn 0.35825 0.57079 0.08053 0.0
O17 O 0.39279 0.61939 0.10499 0.0
C18 C 0.30449 0.57661 0.98839 0.0
O19 O 0.31719 0.53805 0.97844 0.0
O20 O 0.3962 0.53129 0.04032 0.0
C21 C 0.3736 0.65169 0.12221 0.0
O22 O 0.33285 0.64943 0.13031 0.0
C23 C 0.28846 0.5328 0.13669 0.0
O24 O 0.27345 0.52888 0.08894 0.0
O25 O 0.31761 0.59548 0.02915 0.0
C26 C 0.96011 0.4211 0.05465 0.0
O27 O 0.93373 0.42803 0.09379 0.0
O28 O 0.92007 0.30299 0.10059 0.0
Zn29 Zn 0.91031 0.34673 0.04351 0.0
O30 O 0.85775 0.38042 0.05703 0.0
C31 C 0.92365 0.29173 0.95309 0.0
O32 O 0.96256 0.28975 0.96969 0.0
O33 O 0.95856 0.38618 0.03035 0.0
C34 C 0.85178 0.41088 0.0255 0.0
O35 O 0.88095 0.41961 0.9903 0.0
C36 C 0.89771 0.26993 0.09726 0.0
O37 O 0.86975 0.26749 0.05968 0.0
O38 O 0.8978 0.31569 0.9768 0.0
C39 C 0.05544 0.97628 0.07524 0.0
O40 O 0.04625 0.94713 0.11009 0.0
O41 O 0.16204 0.9635 0.16546 0.0
Zn42 Zn 0.13741 0.94659 0.09603 0.0
O43 O 0.11069 0.88972 0.10115 0.0
C44 C 0.18252 0.91832 0.00364 0.0
O45 O 0.14722 0.89868 0.99372 0.0
O46 O 0.09375 0.98514 0.06635 0.0
C47 C 0.13077 0.85563 0.10748 0.0
O48 O 0.17147 0.85701 0.1153 0.0
C49 C 0.1463 0.95117 0.20886 0.0
O50 O 0.11039 0.93093 0.20858 0.0
O51 O 0.18492 0.94161 0.04421 0.0
C52 C 0.53464 0.42621 0.49146 0.0
O53 O 0.56597 0.4371 0.46042 0.0
O54 O 0.54379 0.31183 0.4063 0.0
Zn55 Zn 0.5661 0.34376 0.46833 0.0
O56 O 0.62092 0.3701 0.44827 0.0
C57 C 0.55591 0.27559 0.54347 0.0
O58 O 0.51621 0.27679 0.52987 0.0
O59 O 0.52709 0.38739 0.49881 0.0
C60 C 0.64867 0.34911 0.42334 0.0
O61 O 0.63958 0.311 0.40702 0.0
C62 C 0.5461 0.32785 0.36061 0.0
O63 O 0.55807 0.36721 0.35584 0.0
O64 O 0.58128 0.30193 0.52352 0.0
C65 C 0.0689 0.53584 0.45911 0.0
O66 O 0.06905 0.57502 0.47545 0.0
O67 O 0.18396 0.54985 0.35631 0.0
Zn68 Zn 0.14657 0.56369 0.4187 0.0
O69 O 0.12167 0.62154 0.41074 0.0
C70 C 0.17403 0.58535 0.52456 0.0
O71 O 0.13917 0.60744 0.52651 0.0
O72 O 0.09948 0.52252 0.43106 0.0
C73 C 0.14394 0.65409 0.41783 0.0
O74 O 0.18461 0.64963 0.42418 0.0
C75 C 0.17231 0.53397 0.3129 0.0
O76 O 0.13255 0.52454 0.30645 0.0
O77 O 0.18283 0.56413 0.48338 0.0
C78 C 0.92773 0.0427 0.42402 0.0
O79 O 0.89022 0.05243 0.44231 0.0
O80 O 0.91888 0.14105 0.2951 0.0
Zn81 Zn 0.90142 0.10686 0.35889 0.0
O82 O 0.84656 0.07749 0.34823 0.0
C83 C 0.9164 0.1656 0.44624 0.0
O84 O 0.95652 0.1578 0.43864 0.0
O85 O 0.94234 0.06328 0.38495 0.0
C86 C 0.81345 0.09975 0.35009 0.0
O87 O 0.81708 0.14091 0.34854 0.0
C88 C 0.90119 0.13581 0.2509 0.0
O89 O 0.87506 0.10426 0.24526 0.0
O90 O 0.88947 0.14761 0.41745 0.0
C91 C 0.41317 0.94513 0.45251 0.0
O92 O 0.41809 0.91528 0.4172 0.0
O93 O 0.29116 0.94057 0.38799 0.0
Zn94 Zn 0.32787 0.9188 0.44704 0.0
O95 O 0.35161 0.86199 0.42983 0.0
C96 C 0.27462 0.93853 0.53847 0.0
O97 O 0.27794 0.9779 0.52334 0.0
O98 O 0.37627 0.95541 0.46718 0.0
C99 C 0.32912 0.82921 0.4331 0.0
O100 O 0.28843 0.83345 0.44027 0.0
C101 C 0.25191 0.93306 0.39045 0.0
O102 O 0.23684 0.91267 0.43136 0.0
O103 O 0.2934 0.90995 0.51238 0.0
C104 C 0.45857 0.92058 0.00723 0.0
O105 O 0.42342 0.91072 0.03169 0.0
O106 O 0.44325 0.81852 0.8844 0.0
Zn107 Zn 0.42864 0.85406 0.94838 0.0
O108 O 0.37381 0.8831 0.93685 0.0
C109 C 0.4433 0.80212 0.04349 0.0
O110 O 0.48329 0.81174 0.03955 0.0
O111 O 0.47014 0.89872 0.96765 0.0
C112 C 0.34146 0.86226 0.92426 0.0
O113 O 0.34554 0.82214 0.91279 0.0
C114 C 0.45935 0.78203 0.88914 0.0
O115 O 0.47078 0.76906 0.93594 0.0
O116 O 0.4175 0.8164 0.01009 0.0
C117 C 0.54324 0.4568 0.88853 0.0
O118 O 0.53489 0.42008 0.86738 0.0
O119 O 0.66374 0.41972 0.83402 0.0
Zn120 Zn 0.62551 0.42069 0.8981 0.0
O121 O 0.59885 0.36421 0.90984 0.0
C122 C 0.69005 0.45917 0.95768 0.0
O123 O 0.68694 0.48738 0.92009 0.0
O124 O 0.58101 0.46582 0.89963 0.0
C125 C 0.57311 0.36114 0.94818 0.0
O126 O 0.56463 0.39465 0.97671 0.0
C127 C 0.69437 0.39416 0.83868 0.0
O128 O 0.69597 0.37024 0.88081 0.0
O129 O 0.66389 0.42916 0.95903 0.0
C130 C 0.04202 0.56032 0.95049 0.0
O131 O 0.07244 0.55331 0.91632 0.0
O132 O 0.04162 0.68037 0.87598 0.0
Zn133 Zn 0.06738 0.64572 0.93381 0.0
O134 O 0.12332 0.62307 0.91105 0.0
C135 C 0.05605 0.71097 0.01349 0.0
O136 O 0.01705 0.7124 0.99713 0.0
O137 O 0.03209 0.59806 0.96184 0.0
C138 C 0.1541 0.6483 0.90883 0.0
O139 O 0.14685 0.68886 0.91339 0.0
C140 C 0.03099 0.66622 0.83127 0.0
O141 O 0.03418 0.62567 0.82197 0.0
O142 O 0.08119 0.68441 0.99325 0.0
C143 C 0.92766 0.0338 0.93222 0.0
O144 O 0.9369 0.06253 0.89687 0.0
O145 O 0.81373 0.02913 0.84576 0.0
Zn146 Zn 0.84396 0.0573 0.90519 0.0
O147 O 0.86924 0.11201 0.88211 0.0
C148 C 0.80734 0.09896 0.99567 0.0
O149 O 0.84256 0.12038 0.99485 0.0
O150 O 0.88952 0.02326 0.93921 0.0
C151 C 0.84836 0.1449 0.87145 0.0
O152 O 0.80722 0.14261 0.86944 0.0
C153 C 0.82878 0.02484 0.7996 0.0
O154 O 0.86771 0.03636 0.79013 0.0
O155 O 0.8014 0.0704 0.96149 0.0
C156 C 0.44126 0.55326 0.60591 0.0
O157 O 0.41055 0.54211 0.63779 0.0
O158 O 0.42245 0.67175 0.67981 0.0
Zn159 Zn 0.40357 0.63397 0.62106 0.0
O160 O 0.34994 0.60436 0.6383 0.0
C161 C 0.40928 0.68805 0.52616 0.0
O162 O 0.45017 0.68259 0.52667 0.0
O163 O 0.44637 0.592 0.59535 0.0
C164 C 0.31734 0.62677 0.64541 0.0
O165 O 0.32195 0.66731 0.65361 0.0
C166 C 0.44193 0.6609 0.72106 0.0
O167 O 0.45212 0.62121 0.72781 0.0
O168 O 0.38658 0.67078 0.56122 0.0
C169 C 0.9347 0.42582 0.52598 0.0
O170 O 0.93019 0.38895 0.50341 0.0
O171 O 0.83 0.40857 0.64517 0.0
Zn172 Zn 0.86116 0.39729 0.57683 0.0
O173 O 0.88298 0.33794 0.57181 0.0
C174 C 0.81672 0.38495 0.4775 0.0
O175 O 0.84847 0.36074 0.46381 0.0
O176 O 0.90841 0.43726 0.56125 0.0
C177 C 0.85779 0.30737 0.56641 0.0
O178 O 0.81723 0.31442 0.57066 0.0
C179 C 0.82765 0.38227 0.68275 0.0
O180 O 0.85065 0.34794 0.68074 0.0
O181 O 0.8174 0.40416 0.52138 0.0
C182 C 0.02237 0.91062 0.52565 0.0
O183 O 0.06192 0.90451 0.51249 0.0
O184 O 0.02768 0.81876 0.66259 0.0
Zn185 Zn 0.04869 0.8519 0.59956 0.0
O186 O 0.09652 0.88847 0.62081 0.0
C187 C 0.05726 0.79581 0.50696 0.0
O188 O 0.01799 0.80507 0.49646 0.0
O189 O 0.00686 0.88959 0.56377 0.0
C190 C 0.13002 0.87063 0.63581 0.0
O191 O 0.1293 0.82999 0.64522 0.0
C192 C 0.0151 0.78106 0.65691 0.0
O193 O 0.01103 0.76591 0.60912 0.0
O194 O 0.07451 0.81171 0.54721 0.0
C195 C 0.55605 0.00266 0.57052 0.0
O196 O 0.55033 0.02931 0.60949 0.0
O197 O 0.67633 0.01506 0.6344 0.0
Zn198 Zn 0.63845 0.0356 0.57611 0.0
O199 O 0.61043 0.08915 0.59826 0.0
C200 C 0.68234 0.02833 0.4741 0.0
O201 O 0.67227 0.98829 0.47517 0.0
O202 O 0.59303 -0.00371 0.55302 0.0
C203 C 0.63149 0.12199 0.60801 0.0
O204 O 0.67267 0.11941 0.60901 0.0
C205 C 0.71522 0.0082 0.62597 0.0
O206 O 0.72993 0.01042 0.57759 0.0
O207 O 0.67193 0.05205 0.51232 0.0
C208 C 0.56598 0.24436 0.97161 0.0
C209 C 0.5342 0.24254 0.01028 0.0
H210 H 0.6029 0.28353 0.92086 0.0
C211 C 0.51126 0.2791 0.02245 0.0
H212 H 0.58403 0.21655 0.96137 0.0
C213 C 0.52254 0.31754 0.99995 0.0
C214 C 0.55645 0.31988 0.96433 0.0
H215 H 0.48668 0.27867 0.0522 0.0
H216 H 0.50593 0.3457 0.01228 0.0
C217 C 0.57681 0.28269 0.94849 0.0
C218 C 0.20505 0.5884 0.91049 0.0
C219 C 0.19685 0.6316 0.91675 0.0
H220 H 0.24628 0.53701 0.92777 0.0
C221 C 0.22769 0.65736 0.93915 0.0
H222 H 0.18194 0.56785 0.89302 0.0
C223 C 0.26409 0.63962 0.95979 0.0
C224 C 0.27063 0.59596 0.95749 0.0
H225 H 0.22241 0.69079 0.94438 0.0
H226 H 0.28615 0.65984 0.97984 0.0
C227 C 0.24186 0.57074 0.93038 0.0
C228 C 0.84551 0.22284 0.88408 0.0
C229 C 0.86937 0.18609 0.87669 0.0
H230 H 0.84435 0.28585 0.91343 0.0
C231 C 0.91311 0.18783 0.88375 0.0
H232 H 0.81185 0.22274 0.87834 0.0
C233 C 0.93178 0.224 0.90401 0.0
C234 C 0.90702 0.25901 0.91757 0.0
H235 H 0.93252 0.16021 0.87749 0.0
H236 H 0.96497 0.2232 0.91292 0.0
C237 C 0.86418 0.25902 0.90437 0.0
C238 C 0.29557 0.91989 0.959 0.0
C239 C 0.2994 0.8805 0.93419 0.0
H240 H 0.25535 0.9628 1.00038 0.0
C241 C 0.26303 0.85663 0.92547 0.0
H242 H 0.32289 0.93927 0.96596 0.0
C243 C 0.22413 0.87039 0.9449 0.0
C244 C 0.22113 0.90802 0.97376 0.0
H245 H 0.2649 0.82629 0.90614 0.0
H246 H 0.19704 0.85026 0.94017 0.0
C247 C 0.25687 0.93337 0.97888 0.0
C248 C 0.5482 0.20346 0.58155 0.0
C249 C 0.57297 0.23925 0.5726 0.0
H250 H 0.54737 0.13802 0.60075 0.0
C251 C 0.61585 0.23788 0.58531 0.0
H252 H 0.51499 0.20364 0.57274 0.0
C253 C 0.63445 0.20029 0.60143 0.0
C254 C 0.6105 0.16339 0.60498 0.0
H255 H 0.63568 0.26518 0.57968 0.0
H256 H 0.66806 0.19961 0.60751 0.0
C257 C 0.56682 0.16582 0.59758 0.0
C258 C 0.27489 0.57242 0.59913 0.0
C259 C 0.27655 0.61071 0.62686 0.0
H260 H 0.24094 0.53447 0.54455 0.0
C261 C 0.24086 0.63679 0.62789 0.0
H262 H 0.30167 0.55137 0.59785 0.0
C263 C 0.20584 0.62683 0.59758 0.0
C264 C 0.2062 0.59086 0.56539 0.0
H265 H 0.24102 0.66631 0.64921 0.0
H266 H 0.17989 0.6489 0.59646 0.0
C267 C 0.24017 0.56279 0.5683 0.0
C268 C 0.91668 0.26068 0.53592 0.0
C269 C 0.87341 0.26723 0.54417 0.0
H270 H 0.96437 0.22312 0.49871 0.0
C271 C 0.84496 0.23733 0.52508 0.0
H272 H 0.93944 0.28306 0.55036 0.0
C273 C 0.85923 0.20323 0.49521 0.0
C274 C 0.90227 0.19814 0.48408 0.0
H275 H 0.81145 0.24131 0.53088 0.0
H276 H 0.8363 0.1817 0.47922 0.0
C277 C 0.931 0.22636 0.50628 0.0
C278 C 0.17125 0.9345 0.61072 0.0
C279 C 0.17049 0.89203 0.62629 0.0
H280 H 0.20559 0.98304 0.57105 0.0
C281 C 0.20764 0.86826 0.62287 0.0
H282 H 0.14324 0.9538 0.61349 0.0
C283 C 0.24316 0.8849 0.59816 0.0
C284 C 0.24229 0.92576 0.57712 0.0
H285 H 0.2083 0.83562 0.63506 0.0
H286 H 0.27028 0.86474 0.59226 0.0
C287 C 0.207 0.95131 0.58646 0.0
C288 C 0.45487 0.73315 0.08776 0.0
C289 C 0.42895 0.76802 0.07833 0.0
H290 H 0.45742 0.66821 0.10979 0.0
C291 C 0.38666 0.76669 0.09426 0.0
H292 H 0.48761 0.73344 0.07583 0.0
C293 C 0.36948 0.72966 0.11429 0.0
C294 C 0.39417 0.69312 0.11767 0.0
H295 H 0.36617 0.79344 0.08783 0.0
H296 H 0.33608 0.72881 0.12263 0.0
C297 C 0.43752 0.69578 0.10702 0.0
C298 C 0.73425 0.42228 0.0242 0.0
C299 C 0.72955 0.45487 0.98725 0.0
H300 H 0.7771 0.38298 0.06619 0.0
C301 C 0.76499 0.47823 0.97203 0.0
H302 H 0.70743 0.40404 0.03724 0.0
C303 C 0.8049 0.46596 0.98835 0.0
C304 C 0.80996 0.43042 0.02055 0.0
H305 H 0.76241 0.50382 0.9441 0.0
H306 H 0.83194 0.4826 0.97283 0.0
C307 C 0.77419 0.41022 0.04087 0.0
C308 C 0.11548 0.74382 0.06221 0.0
C309 C 0.07295 0.74446 0.04763 0.0
H310 H 0.16714 0.77842 0.09339 0.0
C311 C 0.04829 0.77962 0.06085 0.0
H312 H 0.13527 0.71696 0.05313 0.0
C313 C 0.06662 0.81486 0.08398 0.0
C314 C 0.10993 0.81555 0.09442 0.0
H315 H 0.01536 0.78094 0.05065 0.0
H316 H 0.04724 0.84239 0.09103 0.0
C317 C 0.13379 0.77902 0.08546 0.0
C318 C 0.70463 0.09523 0.07045 0.0
C319 C 0.70102 0.13685 0.08872 0.0
H320 H 0.74117 0.05072 0.0264 0.0
C321 C 0.735 0.16443 0.08149 0.0
H322 H 0.6791 0.0731 0.07547 0.0
C323 C 0.77079 0.1514 0.05361 0.0
C324 C 0.77294 0.11074 0.03206 0.0
H325 H 0.73322 0.19664 0.09529 0.0
H326 H 0.79563 0.17391 0.0464 0.0
C327 C 0.7401 0.08242 0.04206 0.0
C328 C 0.41363 0.75071 0.46671 0.0
C329 C 0.38961 0.71905 0.49077 0.0
H330 H 0.41311 0.81065 0.42849 0.0
C331 C 0.34565 0.72022 0.4862 0.0
H332 H 0.44757 0.75042 0.46914 0.0
C333 C 0.32589 0.7545 0.46269 0.0
C334 C 0.34972 0.78842 0.4437 0.0
H335 H 0.32631 0.69579 0.50352 0.0
H336 H 0.29189 0.75569 0.46292 0.0
C337 C 0.39383 0.78521 0.44343 0.0
C338 C 0.7442 0.41074 0.46137 0.0
C339 C 0.77626 0.38161 0.45015 0.0
H340 H 0.67843 0.4237 0.46049 0.0
C341 C 0.7669 0.34563 0.42039 0.0
H342 H 0.75067 0.43907 0.48359 0.0
C343 C 0.72533 0.3366 0.40742 0.0
C344 C 0.69268 0.36355 0.42385 0.0
H345 H 0.79104 0.32269 0.41097 0.0
H346 H 0.71859 0.30707 0.388 0.0
C347 C 0.70279 0.40188 0.44815 0.0
C348 C 0.07965 0.69944 0.42398 0.0
C349 C 0.12307 0.69427 0.43152 0.0
H350 H 0.02471 0.73609 0.44146 0.0
C351 C 0.14525 0.72558 0.45856 0.0
H352 H 0.06173 0.67592 0.4031 0.0
C353 C 0.12397 0.75967 0.48105 0.0
C354 C 0.08018 0.76344 0.47635 0.0
H355 H 0.1787 0.72261 0.46502 0.0
H356 H 0.14166 0.78228 0.50376 0.0
C357 C 0.05843 0.7339 0.44593 0.0
C358 C 0.73892 0.01907 0.40613 0.0
C359 C 0.71017 0.04525 0.43265 0.0
H360 H 0.79451 0.01599 0.35821 0.0
C361 C 0.7113 0.0888 0.42358 0.0
H362 H 0.73856 0.98536 0.41222 0.0
C363 C 0.74279 0.10628 0.39211 0.0
C364 C 0.7742 0.08057 0.3699 0.0
H365 H 0.68904 0.10964 0.44295 0.0
H366 H 0.7442 0.1402 0.38855 0.0
C367 C 0.77091 0.03664 0.3752 0.0
C368 C 0.5178 0.97143 0.99502 0.0
C369 C 0.48228 0.95823 0.02356 0.0
H370 H 0.56571 0.01786 0.98578 0.0
C371 C 0.46846 0.98235 0.06687 0.0
H372 H 0.52923 0.95358 0.96146 0.0
C373 C 0.48932 0.01926 0.08082 0.0
C374 C 0.52442 0.03284 0.05172 0.0
H375 H 0.44118 0.97303 0.08975 0.0
H376 H 0.47768 0.03733 0.11408 0.0
C377 C 0.53863 0.00837 0.00892 0.0
C378 C 0.44352 0.48389 0.9624 0.0
C379 C 0.4496 0.52669 0.97337 0.0
H380 H 0.46796 0.42846 0.9252 0.0
C381 C 0.48496 0.54722 0.95218 0.0
H382 H 0.41633 0.46745 0.97784 0.0
C383 C 0.51475 0.52486 0.92265 0.0
C384 C 0.50913 0.48187 0.91259 0.0
H385 H 0.49037 0.58027 0.9599 0.0
H386 H 0.5426 0.54098 0.90858 0.0
C387 C 0.4728 0.46177 0.93175 0.0
C388 C -0.00518 0.53173 0.0213 0.0
C389 C 0.02187 0.52467 0.97817 0.0
H390 H 0.95487 0.50448 0.08014 0.0
C391 C 0.03061 0.48308 0.9627 0.0
H392 H 0.98781 0.56338 0.03458 0.0
C393 C 0.01183 0.4493 0.9889 0.0
C394 C 0.98412 0.45636 0.03138 0.0
H395 H 0.05157 0.47655 0.92987 0.0
H396 H 0.01844 0.41768 0.97519 0.0
C397 C 0.97628 0.49792 0.04778 0.0
C398 C 0.03266 0.01997 0.99863 0.0
C399 C 0.02236 -0.00709 0.04048 0.0
H400 H 0.01101 0.05352 0.93115 0.0
C401 C 0.9807 0.97901 0.0461 0.0
H402 H 0.06452 0.03103 0.99298 0.0
C403 C 0.95007 -0.00842 0.01034 0.0
C404 C 0.96045 0.01838 0.96825 0.0
H405 H 0.97176 0.95793 0.07773 0.0
H406 H 0.91824 0.98042 0.01587 0.0
C407 C 0.00203 0.03256 0.96289 0.0
C408 C 0.45789 0.47791 0.5862 0.0
C409 C 0.46638 0.52081 0.57819 0.0
H410 H 0.47242 0.41441 0.56476 0.0
C411 C 0.49742 0.53233 0.54132 0.0
H412 H 0.43405 0.46797 0.61418 0.0
C413 C 0.51931 0.50159 0.51282 0.0
C414 C 0.51058 0.45871 0.52054 0.0
H415 H 0.50459 0.56511 0.53405 0.0
H416 H 0.54304 0.51152 0.48469 0.0
C417 C 0.47971 0.44719 0.55763 0.0
C418 C 0.03219 0.46624 0.45643 0.0
C419 C 0.03445 0.5076 0.47554 0.0
H420 H -0.00114 0.40793 0.45745 0.0
C421 C 0.00376 0.52179 0.5116 0.0
H422 H 0.05539 0.45439 0.42868 0.0
C423 C 0.97157 0.49516 0.52837 0.0
C424 C 0.96922 0.45383 0.50919 0.0
H425 H 0.00467 0.55347 0.52724 0.0
H426 H 0.94842 0.50707 0.55614 0.0
C427 C -0.00018 0.43965 0.47299 0.0
C428 C 0.9565 0.95293 0.51499 0.0
C429 C -0.00249 0.94321 0.49827 0.0
H430 H 0.90249 -0.00804 0.50479 0.0
C431 C 0.01524 0.966 0.45611 0.0
H432 H 0.94195 0.93603 0.54734 0.0
C433 C -0.00738 -0.00183 0.43163 0.0
C434 C 0.95183 0.00826 0.44887 0.0
H435 H 0.0468 0.95928 0.44221 0.0
H436 H 0.00723 0.0153 0.39953 0.0
C437 C 0.93395 0.98512 0.49061 0.0
C438 C 0.52515 0.96071 0.49695 0.0
C439 C 0.51951 0.98637 0.54155 0.0
H440 H 0.49603 0.92813 0.43329 0.0
C441 C 0.4787 -0.00075 0.55573 0.0
H442 H 0.55622 0.95053 0.48473 0.0
C443 C 0.44429 0.98691 0.52586 0.0
C444 C 0.44989 0.9612 0.48131 0.0
H445 H 0.47328 0.01931 0.58961 0.0
H446 H 0.41325 -0.00286 0.53814 0.0
C447 C 0.49068 0.94821 0.46718 0.0
C448 C 0.55119 0.31736 0.26329 0.0
C449 C 0.54373 0.30047 0.31355 0.0
H450 H 0.56244 0.30512 0.18173 0.0
C451 C 0.53846 0.25669 0.3187 0.0
H452 H 0.5552 0.3509 0.25782 0.0
C453 C 0.54274 0.23023 0.27485 0.0
C454 C 0.55246 0.2471 0.22512 0.0
H455 H 0.53262 0.24265 0.35692 0.0
H456 H 0.53989 0.19657 0.28026 0.0
C457 C 0.55555 0.291 0.21964 0.0
C458 C 0.18984 0.51629 0.21879 0.0
C459 C 0.20297 0.5292 0.26894 0.0
H460 H 0.2066 0.50684 0.13782 0.0
C461 C 0.24548 0.53951 0.27612 0.0
H462 H 0.15741 0.50791 0.21191 0.0
C463 C 0.27376 0.53873 0.23368 0.0
C464 C 0.26019 0.52772 0.183 0.0
H465 H 0.25678 0.5493 0.31431 0.0
H466 H 0.30592 0.5482 0.24032 0.0
C467 C 0.21812 0.5156 0.17629 0.0
C468 C 0.88077 0.19667 0.12573 0.0
C469 C 0.90205 0.23463 0.13498 0.0
H470 H 0.86432 0.13569 0.15439 0.0
C471 C 0.92614 0.23849 0.18082 0.0
H472 H 0.86245 0.19235 0.09044 0.0
C473 C 0.92737 0.2057 0.21768 0.0
C474 C 0.90463 0.16838 0.20929 0.0
H475 H 0.9431 0.26723 0.18893 0.0
H476 H 0.94511 0.21011 0.25344 0.0
C477 C 0.88205 0.16399 0.16235 0.0
C478 C 0.18105 0.93265 0.34889 0.0
C479 C 0.22388 0.94321 0.34601 0.0
H480 H 0.12285 0.92733 0.30808 0.0
C481 C 0.23978 0.96089 0.29926 0.0
H482 H 0.16762 0.91936 0.38449 0.0
C483 C 0.21392 0.96569 0.25541 0.0
C484 C 0.17169 0.95275 0.2574 0.0
H485 H 0.27253 0.96964 0.29589 0.0
H486 H 0.22755 0.97786 0.2193 0.0
C487 C 0.15528 0.9373 0.30507 0.0
C488 C 0.47253 0.71029 0.85117 0.0
C489 C 0.4595 0.75225 0.84421 0.0
H490 H 0.47727 0.64852 0.81786 0.0
C491 C 0.44341 0.76442 0.79518 0.0
H492 H 0.4851 0.69984 0.88845 0.0
C493 C 0.43887 0.73496 0.75478 0.0
C494 C 0.4503 0.69262 0.76244 0.0
H495 H 0.43315 0.79645 0.78842 0.0
H496 H 0.42541 0.74525 0.71793 0.0
C497 C 0.46798 0.6808 0.81072 0.0
C498 C 0.79328 0.35917 0.76692 0.0
C499 C 0.79513 0.38737 0.72442 0.0
H500 H 0.76015 0.33916 0.83596 0.0
C501 C 0.76381 0.4185 0.72021 0.0
H502 H 0.81683 0.33481 0.77137 0.0
C503 C 0.73091 0.42075 0.75707 0.0
C504 C 0.72879 0.3921 0.79909 0.0
H505 H 0.76417 0.44062 0.68779 0.0
H506 H 0.7071 0.44484 0.75252 0.0
C507 C 0.76061 0.36159 0.80388 0.0
C508 C 0.00686 0.70898 0.69554 0.0
C509 C 0.01248 0.75246 0.70293 0.0
H510 H 0.00816 0.6476 0.73022 0.0
C511 C 0.0198 0.76756 0.75405 0.0
H512 H 0.00102 0.69624 0.65672 0.0
C513 C 0.02376 0.73963 0.79624 0.0
C514 C 0.0207 0.69593 0.78824 0.0
H515 H 0.02408 0.80086 0.7612 0.0
H516 H 0.03092 0.75226 0.83475 0.0
C517 C 0.01103 0.68101 0.7377 0.0
C518 C 0.78828 0.00691 0.6617 0.0
C519 C 0.74465 0.00516 0.67065 0.0
H520 H 0.84919 0.01433 0.69545 0.0
C521 C 0.72952 0.00483 0.72277 0.0
H522 H 0.80104 0.00698 0.62203 0.0
C523 C 0.75719 0.00883 0.76488 0.0
C524 C 0.80057 0.01351 0.75576 0.0
H525 H 0.69615 0.00321 0.73106 0.0
H526 H 0.74428 0.01018 0.80445 0.0
C527 C 0.81594 0.01117 0.70382 0.0
loop_
_geom_bond_atom_site_label_1
_geom_bond_atom_site_label_2
_geom_bond_distance
_geom_bond_site_symmetry_2
_ccdc_geom_bond_type
C0 O1 1.160 . S
C0 O7 1.185 . S
O1 C0 1.160 . S
O2 Zn3 1.899 . S
O2 C10 1.284 . S
Zn3 O2 1.899 . S
Zn3 O4 2.032 . S
Zn3 O7 2.086 . S
Zn3 O12 1.977 . S
O4 Zn3 2.032 . S
O4 C8 1.278 . S
C5 O6 1.203 . S
C5 O12 1.267 . S
O6 C5 1.203 . S
O7 C0 1.185 . S
O7 Zn3 2.086 . S
C8 O4 1.278 . S
C8 O9 1.211 . S
O9 C8 1.211 . S
C10 O2 1.284 . S
C10 O11 1.273 . S
O11 C10 1.273 . S
O12 Zn3 1.977 . S
O12 C5 1.267 . S
C13 O14 1.160 . S
C13 O20 1.185 . S
O14 C13 1.160 . S
O15 Zn16 1.899 . S
O15 C23 1.284 . S
Zn16 O15 1.899 . S
Zn16 O17 2.032 . S
Zn16 O20 2.086 . S
Zn16 O25 1.977 . S
O17 Zn16 2.032 . S
O17 C21 1.278 . S
C18 O19 1.203 . S
C18 O25 1.267 . S
O19 C18 1.203 . S
O20 C13 1.185 . S
O20 Zn16 2.086 . S
C21 O17 1.278 . S
C21 O22 1.211 . S
O22 C21 1.211 . S
C23 O15 1.284 . S
C23 O24 1.273 . S
O24 C23 1.273 . S
O25 Zn16 1.977 . S
O25 C18 1.267 . S
C26 O27 1.160 . S
C26 O33 1.185 . S
O27 C26 1.160 . S
O28 Zn29 1.899 . S
O28 C36 1.284 . S
Zn29 O28 1.899 . S
Zn29 O30 2.032 . S
Zn29 O33 2.086 . S
Zn29 O38 1.977 . S
O30 Zn29 2.032 . S
O30 C34 1.278 . S
C31 O32 1.203 . S
C31 O38 1.267 . S
O32 C31 1.203 . S
O33 C26 1.185 . S
O33 Zn29 2.086 . S
C34 O30 1.278 . S
C34 O35 1.211 . S
O35 C34 1.211 . S
C36 O28 1.284 . S
C36 O37 1.273 . S
O37 C36 1.273 . S
O38 Zn29 1.977 . S
O38 C31 1.267 . S
C39 O40 1.160 . S
C39 O46 1.185 . S
O40 C39 1.160 . S
O41 Zn42 1.899 . S
O41 C49 1.284 . S
Zn42 O41 1.899 . S
Zn42 O43 2.032 . S
Zn42 O46 2.086 . S
Zn42 O51 1.977 . S
O43 Zn42 2.032 . S
O43 C47 1.278 . S
C44 O45 1.203 . S
C44 O51 1.267 . S
O45 C44 1.203 . S
O46 C39 1.185 . S
O46 Zn42 2.086 . S
C47 O43 1.278 . S
C47 O48 1.211 . S
O48 C47 1.211 . S
C49 O41 1.284 . S
C49 O50 1.273 . S
O50 C49 1.273 . S
O51 Zn42 1.977 . S
O51 C44 1.267 . S
C52 O53 1.160 . S
C52 O59 1.185 . S
O53 C52 1.160 . S
O54 Zn55 1.899 . S
O54 C62 1.284 . S
Zn55 O54 1.899 . S
Zn55 O56 2.032 . S
Zn55 O59 2.086 . S
Zn55 O64 1.977 . S
O56 Zn55 2.032 . S
O56 C60 1.278 . S
C57 O58 1.203 . S
C57 O64 1.267 . S
O58 C57 1.203 . S
O59 C52 1.185 . S
O59 Zn55 2.086 . S
C60 O56 1.278 . S
C60 O61 1.211 . S
O61 C60 1.211 . S
C62 O54 1.284 . S
C62 O63 1.273 . S
O63 C62 1.273 . S
O64 Zn55 1.977 . S
O64 C57 1.267 . S
C65 O66 1.160 . S
C65 O72 1.185 . S
O66 C65 1.160 . S
O67 Zn68 1.899 . S
O67 C75 1.284 . S
Zn68 O67 1.899 . S
Zn68 O69 2.032 . S
Zn68 O72 2.086 . S
Zn68 O77 1.977 . S
O69 Zn68 2.032 . S
O69 C73 1.278 . S
C70 O71 1.203 . S
C70 O77 1.267 . S
O71 C70 1.203 . S
O72 C65 1.185 . S
O72 Zn68 2.086 . S
C73 O69 1.278 . S
C73 O74 1.211 . S
O74 C73 1.211 . S
C75 O67 1.284 . S
C75 O76 1.273 . S
O76 C75 1.273 . S
O77 Zn68 1.977 . S
O77 C70 1.267 . S
C78 O79 1.160 . S
C78 O85 1.185 . S
O79 C78 1.160 . S
O80 Zn81 1.899 . S
O80 C88 1.284 . S
Zn81 O80 1.899 . S
Zn81 O82 2.032 . S
Zn81 O85 2.086 . S
Zn81 O90 1.977 . S
O82 Zn81 2.032 . S
O82 C86 1.278 . S
C83 O84 1.203 . S
C83 O90 1.267 . S
O84 C83 1.203 . S
O85 C78 1.185 . S
O85 Zn81 2.086 . S
C86 O82 1.278 . S
C86 O87 1.211 . S
O87 C86 1.211 . S
C88 O80 1.284 . S
C88 O89 1.273 . S
O89 C88 1.273 . S
O90 Zn81 1.977 . S
O90 C83 1.267 . S
C91 O92 1.160 . S
C91 O98 1.185 . S
O92 C91 1.160 . S
O93 Zn94 1.899 . S
O93 C101 1.284 . S
Zn94 O93 1.899 . S
Zn94 O95 2.032 . S
Zn94 O98 2.086 . S
Zn94 O103 1.977 . S
O95 Zn94 2.032 . S
O95 C99 1.278 . S
C96 O97 1.203 . S
C96 O103 1.267 . S
O97 C96 1.203 . S
O98 C91 1.185 . S
O98 Zn94 2.086 . S
C99 O95 1.278 . S
C99 O100 1.211 . S
O100 C99 1.211 . S
C101 O93 1.284 . S
C101 O102 1.273 . S
O102 C101 1.273 . S
O103 Zn94 1.977 . S
O103 C96 1.267 . S
C104 O105 1.160 . S
C104 O111 1.185 . S
O105 C104 1.160 . S
O106 Zn107 1.899 . S
O106 C114 1.284 . S
Zn107 O106 1.899 . S
Zn107 O108 2.032 . S
Zn107 O111 2.086 . S
Zn107 O116 1.977 . S
O108 Zn107 2.032 . S
O108 C112 1.278 . S
C109 O110 1.203 . S
C109 O116 1.267 . S
O110 C109 1.203 . S
O111 C104 1.185 . S
O111 Zn107 2.086 . S
C112 O108 1.278 . S
C112 O113 1.211 . S
O113 C112 1.211 . S
C114 O106 1.284 . S
C114 O115 1.273 . S
O115 C114 1.273 . S
O116 Zn107 1.977 . S
O116 C109 1.267 . S
C117 O118 1.160 . S
C117 O124 1.185 . S
O118 C117 1.160 . S
O119 Zn120 1.899 . S
O119 C127 1.284 . S
Zn120 O119 1.899 . S
Zn120 O121 2.032 . S
Zn120 O124 2.086 . S
Zn120 O129 1.977 . S
O121 Zn120 2.032 . S
O121 C125 1.278 . S
C122 O123 1.203 . S
C122 O129 1.267 . S
O123 C122 1.203 . S
O124 C117 1.185 . S
O124 Zn120 2.086 . S
C125 O121 1.278 . S
C125 O126 1.211 . S
O126 C125 1.211 . S
C127 O119 1.284 . S
C127 O128 1.273 . S
O128 C127 1.273 . S
O129 Zn120 1.977 . S
O129 C122 1.267 . S
C130 O131 1.160 . S
C130 O137 1.185 . S
O131 C130 1.160 . S
O132 Zn133 1.899 . S
O132 C140 1.284 . S
Zn133 O132 1.899 . S
Zn133 O134 2.032 . S
Zn133 O137 2.086 . S
Zn133 O142 1.977 . S
O134 Zn133 2.032 . S
O134 C138 1.278 . S
C135 O136 1.203 . S
C135 O142 1.267 . S
O136 C135 1.203 . S
O137 C130 1.185 . S
O137 Zn133 2.086 . S
C138 O134 1.278 . S
C138 O139 1.211 . S
O139 C138 1.211 . S
C140 O132 1.284 . S
C140 O141 1.273 . S
O141 C140 1.273 . S
O142 Zn133 1.977 . S
O142 C135 1.267 . S
C143 O144 1.160 . S
C143 O150 1.185 . S
O144 C143 1.160 . S
O145 Zn146 1.899 . S
O145 C153 1.284 . S
Zn146 O145 1.899 . S
Zn146 O147 2.032 . S
Zn146 O150 2.086 . S
Zn146 O155 1.977 . S
O147 Zn146 2.032 . S
O147 C151 1.278 . S
C148 O149 1.203 . S
C148 O155 1.267 . S
O149 C148 1.203 . S
O150 C143 1.185 . S
O150 Zn146 2.086 . S
C151 O147 1.278 . S
C151 O152 1.211 . S
O152 C151 1.211 . S
C153 O145 1.284 . S
C153 O154 1.273 . S
O154 C153 1.273 . S
O155 Zn146 1.977 . S
O155 C148 1.267 . S
C156 O157 1.160 . S
C156 O163 1.185 . S
O157 C156 1.160 . S
O158 Zn159 1.899 . S
O158 C166 1.284 . S
Zn159 O158 1.899 . S
Zn159 O160 2.032 . S
Zn159 O163 2.086 . S
Zn159 O168 1.977 . S
O160 Zn159 2.032 . S
O160 C164 1.278 . S
C161 O162 1.203 . S
C161 O168 1.267 . S
O162 C161 1.203 . S
O163 C156 1.185 . S
O163 Zn159 2.086 . S
C164 O160 1.278 . S
C164 O165 1.211 . S
O165 C164 1.211 . S
C166 O158 1.284 . S
C166 O167 1.273 . S
O167 C166 1.273 . S
O168 Zn159 1.977 . S
O168 C161 1.267 . S
C169 O170 1.160 . S
C169 O176 1.185 . S
O170 C169 1.160 . S
O171 Zn172 1.899 . S
O171 C179 1.284 . S
Zn172 O171 1.899 . S
Zn172 O173 2.032 . S
Zn172 O176 2.086 . S
Zn172 O181 1.977 . S
O173 Zn172 2.032 . S
O173 C177 1.278 . S
C174 O175 1.203 . S
C174 O181 1.267 . S
O175 C174 1.203 . S
O176 C169 1.185 . S
O176 Zn172 2.086 . S
C177 O173 1.278 . S
C177 O178 1.211 . S
O178 C177 1.211 . S
C179 O171 1.284 . S
C179 O180 1.273 . S
O180 C179 1.273 . S
O181 Zn172 1.977 . S
O181 C174 1.267 . S
C182 O183 1.160 . S
C182 O189 1.185 . S
O183 C182 1.160 . S
O184 Zn185 1.899 . S
O184 C192 1.284 . S
Zn185 O184 1.899 . S
Zn185 O186 2.032 . S
Zn185 O189 2.086 . S
Zn185 O194 1.977 . S
O186 Zn185 2.032 . S
O186 C190 1.278 . S
C187 O188 1.203 . S
C187 O194 1.267 . S
O188 C187 1.203 . S
O189 C182 1.185 . S
O189 Zn185 2.086 . S
C190 O186 1.278 . S
C190 O191 1.211 . S
O191 C190 1.211 . S
C192 O184 1.284 . S
C192 O193 1.273 . S
O193 C192 1.273 . S
O194 Zn185 1.977 . S
O194 C187 1.267 . S
C195 O196 1.160 . S
C195 O202 1.185 . S
O196 C195 1.160 . S
O197 Zn198 1.899 . S
O197 C205 1.284 . S
Zn198 O197 1.899 . S
Zn198 O199 2.032 . S
Zn198 O202 2.086 . S
Zn198 O207 1.977 . S
O199 Zn198 2.032 . S
O199 C203 1.278 . S
C200 O201 1.203 . S
C200 O207 1.267 . S
O201 C200 1.203 . S
O202 C195 1.185 . S
O202 Zn198 2.086 . S
C203 O199 1.278 . S
C203 O204 1.211 . S
O204 C203 1.211 . S
C205 O197 1.284 . S
C205 O206 1.273 . S
O206 C205 1.273 . S
O207 Zn198 1.977 . S
O207 C200 1.267 . S
C208 C209 1.387 . S
C208 H212 0.950 . S
C208 C217 1.390 . S
C209 C208 1.387 . S
C209 C211 1.387 1_556 S
H210 C217 0.950 . S
C211 C209 1.387 1_554 S
C211 C213 1.390 . S
C211 H215 0.950 . S
H212 C208 0.950 . S
C213 C211 1.390 . S
C213 C214 1.387 1_554 S
C213 H216 0.950 . S
C214 C213 1.387 1_556 S
C214 C217 1.387 . S
H215 C211 0.950 . S
H216 C213 0.950 . S
C217 C208 1.390 . S
C217 H210 0.950 . S
C217 C214 1.387 . S
C218 C219 1.387 . S
C218 H222 0.950 . S
C218 C227 1.390 . S
C219 C218 1.387 . S
C219 C221 1.387 1_556 S
H220 C227 0.950 . S
C221 C219 1.387 1_554 S
C221 C223 1.390 . S
C221 H225 0.950 . S
H222 C218 0.950 . S
C223 C221 1.390 . S
C223 C224 1.387 1_554 S
C223 H226 0.950 . S
C224 C223 1.387 1_556 S
C224 C227 1.387 . S
H225 C221 0.950 . S
H226 C223 0.950 . S
C227 C218 1.390 . S
C227 H220 0.950 . S
C227 C224 1.387 . S
C228 C229 1.387 . S
C228 H232 0.950 . S
C228 C237 1.390 . S
C229 C228 1.387 . S
C229 C231 1.387 1_556 S
H230 C237 0.950 . S
C231 C229 1.387 1_554 S
C231 C233 1.390 . S
C231 H235 0.950 . S
H232 C228 0.950 . S
C233 C231 1.390 . S
C233 C234 1.387 1_554 S
C233 H236 0.950 . S
C234 C233 1.387 1_556 S
C234 C237 1.387 . S
H235 C231 0.950 . S
H236 C233 0.950 . S
C237 C228 1.390 . S
C237 H230 0.950 . S
C237 C234 1.387 . S
C238 C239 1.387 . S
C238 H242 0.950 . S
C238 C247 1.390 . S
C239 C238 1.387 . S
C239 C241 1.387 1_556 S
H240 C247 0.950 . S
C241 C239 1.387 1_554 S
C241 C243 1.390 . S
C241 H245 0.950 . S
H242 C238 0.950 . S
C243 C241 1.390 . S
C243 C244 1.387 1_554 S
C243 H246 0.950 . S
C244 C243 1.387 1_556 S
C244 C247 1.387 . S
H245 C241 0.950 . S
H246 C243 0.950 . S
C247 C238 1.390 . S
C247 H240 0.950 . S
C247 C244 1.387 . S
C248 C249 1.387 . S
C248 H252 0.950 . S
C248 C257 1.390 . S
C249 C248 1.387 . S
C249 C251 1.387 . S
H250 C257 0.950 . S
C251 C249 1.387 . S
C251 C253 1.390 . S
C251 H255 0.950 . S
H252 C248 0.950 . S
C253 C251 1.390 . S
C253 C254 1.387 . S
C253 H256 0.950 . S
C254 C253 1.387 . S
C254 C257 1.387 . S
H255 C251 0.950 . S
H256 C253 0.950 . S
C257 C248 1.390 . S
C257 H250 0.950 . S
C257 C254 1.387 . S
C258 C259 1.387 . S
C258 H262 0.950 . S
C258 C267 1.390 . S
C259 C258 1.387 . S
C259 C261 1.387 . S
H260 C267 0.950 . S
C261 C259 1.387 . S
C261 C263 1.390 . S
C261 H265 0.950 . S
H262 C258 0.950 . S
C263 C261 1.390 . S
C263 C264 1.387 . S
C263 H266 0.950 . S
C264 C263 1.387 . S
C264 C267 1.387 . S
H265 C261 0.950 . S
H266 C263 0.950 . S
C267 C258 1.390 . S
C267 H260 0.950 . S
C267 C264 1.387 . S
C268 C269 1.387 . S
C268 H272 0.950 . S
C268 C277 1.390 . S
C269 C268 1.387 . S
C269 C271 1.387 . S
H270 C277 0.950 . S
C271 C269 1.387 . S
C271 C273 1.390 . S
C271 H275 0.950 . S
H272 C268 0.950 . S
C273 C271 1.390 . S
C273 C274 1.387 . S
C273 H276 0.950 . S
C274 C273 1.387 . S
C274 C277 1.387 . S
H275 C271 0.950 . S
H276 C273 0.950 . S
C277 C268 1.390 . S
C277 H270 0.950 . S
C277 C274 1.387 . S
C278 C279 1.387 . S
C278 H282 0.950 . S
C278 C287 1.390 . S
C279 C278 1.387 . S
C279 C281 1.387 . S
H280 C287 0.950 . S
C281 C279 1.387 . S
C281 C283 1.390 . S
C281 H285 0.950 . S
H282 C278 0.950 . S
C283 C281 1.390 . S
C283 C284 1.387 . S
C283 H286 0.950 . S
C284 C283 1.387 . S
C284 C287 1.387 . S
H285 C281 0.950 . S
H286 C283 0.950 . S
C287 C278 1.390 . S
C287 H280 0.950 . S
C287 C284 1.387 . S
C288 C289 1.387 1_556 S
C288 H292 0.950 . S
C288 C297 1.390 1_556 S
C289 C288 1.387 1_554 S
C289 C291 1.387 . S
H290 C297 0.950 1_556 S
C291 C289 1.387 . S
C291 C293 1.390 . S
C291 H295 0.950 . S
H292 C288 0.950 . S
C293 C291 1.390 . S
C293 C294 1.387 . S
C293 H296 0.950 . S
C294 C293 1.387 . S
C294 C297 1.387 . S
H295 C291 0.950 . S
H296 C293 0.950 . S
C297 C288 1.390 1_554 S
C297 H290 0.950 1_554 S
C297 C294 1.387 . S
C298 C299 1.387 . S
C298 H302 0.950 . S
C298 C307 1.390 . S
C299 C298 1.387 . S
C299 C301 1.387 1_554 S
H300 C307 0.950 . S
C301 C299 1.387 1_556 S
C301 C303 1.390 . S
C301 H305 0.950 . S
H302 C298 0.950 . S
C303 C301 1.390 . S
C303 C304 1.387 1_556 S
C303 H306 0.950 . S
C304 C303 1.387 1_554 S
C304 C307 1.387 . S
H305 C301 0.950 . S
H306 C303 0.950 . S
C307 C298 1.390 . S
C307 H300 0.950 . S
C307 C304 1.387 . S
C308 C309 1.387 . S
C308 H312 0.950 . S
C308 C317 1.390 . S
C309 C308 1.387 . S
C309 C311 1.387 1_554 S
H310 C317 0.950 . S
C311 C309 1.387 1_556 S
C311 C313 1.390 . S
C311 H315 0.950 . S
H312 C308 0.950 . S
C313 C311 1.390 . S
C313 C314 1.387 1_556 S
C313 H316 0.950 . S
C314 C313 1.387 1_554 S
C314 C317 1.387 . S
H315 C311 0.950 . S
H316 C313 0.950 . S
C317 C308 1.390 . S
C317 H310 0.950 . S
C317 C314 1.387 . S
C318 C319 1.387 . S
C318 H322 0.950 . S
C318 C327 1.390 . S
C319 C318 1.387 . S
C319 C321 1.387 1_554 S
H320 C327 0.950 . S
C321 C319 1.387 1_556 S
C321 C323 1.390 . S
C321 H325 0.950 . S
H322 C318 0.950 . S
C323 C321 1.390 . S
C323 C324 1.387 1_556 S
C323 H326 0.950 . S
C324 C323 1.387 1_554 S
C324 C327 1.387 . S
H325 C321 0.950 . S
H326 C323 0.950 . S
C327 C318 1.390 . S
C327 H320 0.950 . S
C327 C324 1.387 . S
C328 C329 1.387 . S
C328 H332 0.950 . S
C328 C337 1.390 . S
C329 C328 1.387 . S
C329 C331 1.387 . S
H330 C337 0.950 . S
C331 C329 1.387 . S
C331 C333 1.390 . S
C331 H335 0.950 . S
H332 C328 0.950 . S
C333 C331 1.390 . S
C333 C334 1.387 . S
C333 H336 0.950 . S
C334 C333 1.387 . S
C334 C337 1.387 . S
H335 C331 0.950 . S
H336 C333 0.950 . S
C337 C328 1.390 . S
C337 H330 0.950 . S
C337 C334 1.387 . S
C338 C339 1.387 . S
C338 H342 0.950 . S
C338 C347 1.390 . S
C339 C338 1.387 . S
C339 C341 1.387 . S
H340 C347 0.950 . S
C341 C339 1.387 . S
C341 C343 1.390 . S
C341 H345 0.950 . S
H342 C338 0.950 . S
C343 C341 1.390 . S
C343 C344 1.387 . S
C343 H346 0.950 . S
C344 C343 1.387 . S
C344 C347 1.387 . S
H345 C341 0.950 . S
H346 C343 0.950 . S
C347 C338 1.390 . S
C347 H340 0.950 . S
C347 C344 1.387 . S
C348 C349 1.387 . S
C348 H352 0.950 . S
C348 C357 1.390 . S
C349 C348 1.387 . S
C349 C351 1.387 . S
H350 C357 0.950 . S
C351 C349 1.387 . S
C351 C353 1.390 . S
C351 H355 0.950 . S
H352 C348 0.950 . S
C353 C351 1.390 . S
C353 C354 1.387 . S
C353 H356 0.950 . S
C354 C353 1.387 . S
C354 C357 1.387 . S
H355 C351 0.950 . S
H356 C353 0.950 . S
C357 C348 1.390 . S
C357 H350 0.950 . S
C357 C354 1.387 . S
C358 C359 1.387 . S
C358 H362 0.950 . S
C358 C367 1.390 . S
C359 C358 1.387 . S
C359 C361 1.387 . S
H360 C367 0.950 . S
C361 C359 1.387 . S
C361 C363 1.390 . S
C361 H365 0.950 . S
H362 C358 0.950 . S
C363 C361 1.390 . S
C363 C364 1.387 . S
C363 H366 0.950 . S
C364 C363 1.387 . S
C364 C367 1.387 . S
H365 C361 0.950 . S
H366 C363 0.950 . S
C367 C358 1.390 . S
C367 H360 0.950 . S
C367 C364 1.387 . S
C368 C369 1.387 . S
C368 H372 0.950 . S
C368 C377 1.390 1_566 S
C369 C368 1.387 . S
C369 C371 1.387 . S
H370 C377 0.950 . S
C371 C369 1.387 . S
C371 C373 1.390 1_566 S
C371 H375 0.950 . S
H372 C368 0.950 . S
C373 C371 1.390 1_544 S
C373 C374 1.387 . S
C373 H376 0.950 . S
C374 C373 1.387 . S
C374 C377 1.387 . S
H375 C371 0.950 . S
H376 C373 0.950 . S
C377 C368 1.390 1_544 S
C377 H370 0.950 . S
C377 C374 1.387 . S
C378 C379 1.387 1_556 S
C378 H382 0.950 . S
C378 C387 1.390 . S
C379 C378 1.387 1_554 S
C379 C381 1.387 . S
H380 C387 0.950 . S
C381 C379 1.387 . S
C381 C383 1.390 . S
C381 H385 0.950 . S
H382 C378 0.950 . S
C383 C381 1.390 . S
C383 C384 1.387 1_554 S
C383 H386 0.950 . S
C384 C383 1.387 1_556 S
C384 C387 1.387 . S
H385 C381 0.950 . S
H386 C383 0.950 . S
C387 C378 1.390 . S
C387 H380 0.950 . S
C387 C384 1.387 . S
C388 C389 1.387 1_554 S
C388 H392 0.950 . S
C388 C397 1.390 . S
C389 C388 1.387 1_556 S
C389 C391 1.387 1_655 S
H390 C397 0.950 . S
C391 C389 1.387 1_455 S
C391 C393 1.390 . S
C391 H395 0.950 . S
H392 C388 0.950 . S
C393 C391 1.390 . S
C393 C394 1.387 1_556 S
C393 H396 0.950 . S
C394 C393 1.387 1_554 S
C394 C397 1.387 1_455 S
H395 C391 0.950 . S
H396 C393 0.950 . S
C397 C388 1.390 . S
C397 H390 0.950 . S
C397 C394 1.387 1_655 S
C398 C399 1.387 . S
C398 H402 0.950 . S
C398 C407 1.390 1_454 S
C399 C398 1.387 . S
C399 C401 1.387 1_545 S
H400 C407 0.950 . S
C401 C399 1.387 1_565 S
C401 C403 1.390 1_454 S
C401 H405 0.950 . S
H402 C398 0.950 . S
C403 C401 1.390 1_656 S
C403 C404 1.387 . S
C403 H406 0.950 . S
C404 C403 1.387 . S
C404 C407 1.387 1_565 S
H405 C401 0.950 . S
H406 C403 0.950 . S
C407 C398 1.390 1_656 S
C407 H400 0.950 . S
C407 C404 1.387 1_545 S
C408 C409 1.387 . S
C408 H412 0.950 . S
C408 C417 1.390 . S
C409 C408 1.387 . S
C409 C411 1.387 . S
H410 C417 0.950 . S
C411 C409 1.387 . S
C411 C413 1.390 . S
C411 H415 0.950 . S
H412 C408 0.950 . S
C413 C411 1.390 . S
C413 C414 1.387 . S
C413 H416 0.950 . S
C414 C413 1.387 . S
C414 C417 1.387 . S
H415 C411 0.950 . S
H416 C413 0.950 . S
C417 C408 1.390 . S
C417 H410 0.950 . S
C417 C414 1.387 . S
C418 C419 1.387 . S
C418 H422 0.950 . S
C418 C427 1.390 1_455 S
C419 C418 1.387 . S
C419 C421 1.387 . S
H420 C427 0.950 . S
C421 C419 1.387 . S
C421 C423 1.390 1_455 S
C421 H425 0.950 . S
H422 C418 0.950 . S
C423 C421 1.390 1_655 S
C423 C424 1.387 . S
C423 H426 0.950 . S
C424 C423 1.387 . S
C424 C427 1.387 . S
H425 C421 0.950 . S
H426 C423 0.950 . S
C427 C418 1.390 1_655 S
C427 H420 0.950 . S
C427 C424 1.387 . S
C428 C429 1.387 . S
C428 H432 0.950 . S
C428 C437 1.390 1_565 S
C429 C428 1.387 . S
C429 C431 1.387 1_655 S
H430 C437 0.950 . S
C431 C429 1.387 1_455 S
C431 C433 1.390 1_565 S
C431 H435 0.950 . S
H432 C428 0.950 . S
C433 C431 1.390 1_545 S
C433 C434 1.387 . S
C433 H436 0.950 . S
C434 C433 1.387 . S
C434 C437 1.387 1_455 S
H435 C431 0.950 . S
H436 C433 0.950 . S
C437 C428 1.390 1_545 S
C437 H430 0.950 . S
C437 C434 1.387 1_655 S
C438 C439 1.387 . S
C438 H442 0.950 . S
C438 C447 1.390 . S
C439 C438 1.387 . S
C439 C441 1.387 1_565 S
H440 C447 0.950 . S
C441 C439 1.387 1_545 S
C441 C443 1.390 . S
C441 H445 0.950 . S
H442 C438 0.950 . S
C443 C441 1.390 . S
C443 C444 1.387 . S
C443 H446 0.950 . S
C444 C443 1.387 . S
C444 C447 1.387 1_545 S
H445 C441 0.950 . S
H446 C443 0.950 . S
C447 C438 1.390 . S
C447 H440 0.950 . S
C447 C444 1.387 1_565 S
C448 C449 1.387 . S
C448 H452 0.950 . S
C448 C457 1.390 . S
C449 C448 1.387 . S
C449 C451 1.387 . S
H450 C457 0.950 . S
C451 C449 1.387 . S
C451 C453 1.390 . S
C451 H455 0.950 . S
H452 C448 0.950 . S
C453 C451 1.390 . S
C453 C454 1.387 . S
C453 H456 0.950 . S
C454 C453 1.387 . S
C454 C457 1.387 . S
H455 C451 0.950 . S
H456 C453 0.950 . S
C457 C448 1.390 . S
C457 H450 0.950 . S
C457 C454 1.387 . S
C458 C459 1.387 . S
C458 H462 0.950 . S
C458 C467 1.390 . S
C459 C458 1.387 . S
C459 C461 1.387 . S
H460 C467 0.950 . S
C461 C459 1.387 . S
C461 C463 1.390 . S
C461 H465 0.950 . S
H462 C458 0.950 . S
C463 C461 1.390 . S
C463 C464 1.387 . S
C463 H466 0.950 . S
C464 C463 1.387 . S
C464 C467 1.387 . S
H465 C461 0.950 . S
H466 C463 0.950 . S
C467 C458 1.390 . S
C467 H460 0.950 . S
C467 C464 1.387 . S
C468 C469 1.387 . S
C468 H472 0.950 . S
C468 C477 1.390 . S
C469 C468 1.387 . S
C469 C471 1.387 . S
H470 C477 0.950 . S
C471 C469 1.387 . S
C471 C473 1.390 . S
C471 H475 0.950 1_655 S
H472 C468 0.950 . S
C473 C471 1.390 . S
C473 C474 1.387 . S
C473 H476 0.950 1_655 S
C474 C473 1.387 . S
C474 C477 1.387 . S
H475 C471 0.950 1_455 S
H476 C473 0.950 1_455 S
C477 C468 1.390 . S
C477 H470 0.950 . S
C477 C474 1.387 . S
C478 C479 1.387 . S
C478 H482 0.950 . S
C478 C487 1.390 . S
C479 C478 1.387 . S
C479 C481 1.387 . S
H480 C487 0.950 . S
C481 C479 1.387 . S
C481 C483 1.390 . S
C481 H485 0.950 1_565 S
H482 C478 0.950 . S
C483 C481 1.390 . S
C483 C484 1.387 . S
C483 H486 0.950 1_565 S
C484 C483 1.387 . S
C484 C487 1.387 . S
H485 C481 0.950 1_545 S
H486 C483 0.950 1_545 S
C487 C478 1.390 . S
C487 H480 0.950 . S
C487 C484 1.387 . S
C488 C489 1.387 . S
C488 H492 0.950 . S
C488 C497 1.390 . S
C489 C488 1.387 . S
C489 C491 1.387 . S
H490 C497 0.950 . S
C491 C489 1.387 . S
C491 C493 1.390 . S
C491 H495 0.950 . S
H492 C488 0.950 . S
C493 C491 1.390 . S
C493 C494 1.387 . S
C493 H496 0.950 . S
C494 C493 1.387 . S
C494 C497 1.387 . S
H495 C491 0.950 . S
H496 C493 0.950 . S
C497 C488 1.390 . S
C497 H490 0.950 . S
C497 C494 1.387 . S
C498 C499 1.387 . S
C498 H502 0.950 . S
C498 C507 1.390 . S
C499 C498 1.387 . S
C499 C501 1.387 . S
H500 C507 0.950 . S
C501 C499 1.387 . S
C501 C503 1.390 . S
C501 H505 0.950 . S
H502 C498 0.950 . S
C503 C501 1.390 . S
C503 C504 1.387 . S
C503 H506 0.950 . S
C504 C503 1.387 . S
C504 C507 1.387 . S
H505 C501 0.950 . S
H506 C503 0.950 . S
C507 C498 1.390 . S
C507 H500 0.950 . S
C507 C504 1.387 . S
C508 C509 1.387 . S
C508 H512 0.950 . S
C508 C517 1.390 . S
C509 C508 1.387 . S
C509 C511 1.387 . S
H510 C517 0.950 . S
C511 C509 1.387 . S
C511 C513 1.390 . S
C511 H515 0.950 1_455 S
H512 C508 0.950 . S
C513 C511 1.390 . S
C513 C514 1.387 . S
C513 H516 0.950 1_455 S
C514 C513 1.387 . S
C514 C517 1.387 . S
H515 C511 0.950 1_655 S
H516 C513 0.950 1_655 S
C517 C508 1.390 . S
C517 H510 0.950 . S
C517 C514 1.387 . S
C518 C519 1.387 . S
C518 H522 0.950 . S
C518 C527 1.390 . S
C519 C518 1.387 . S
C519 C521 1.387 . S
H520 C527 0.950 . S
C521 C519 1.387 . S
C521 C523 1.390 . S
C521 H525 0.950 1_545 S
H522 C518 0.950 . S
C523 C521 1.390 . S
C523 C524 1.387 . S
C523 H526 0.950 1_545 S
C524 C523 1.387 . S
C524 C527 1.387 . S
H525 C521 0.950 1_565 S
H526 C523 0.950 1_565 S
C527 C518 1.390 . S
C527 H520 0.950 . S
C527 C524 1.387 . S
C209 C5 0.893 1_556 S
C214 C125 0.935 . S
C219 C138 0.934 . S
C224 C18 0.893 1_556 S
C229 C151 0.936 . S
C234 C31 0.890 1_556 S
C239 C112 0.935 . S
C244 C44 0.892 1_556 S
C249 C57 0.897 . S
C254 C203 0.933 . S
C259 C164 0.935 . S
C264 C70 0.893 . S
C269 C177 0.934 . S
C274 C83 0.896 . S
C279 C190 0.934 . S
C284 C96 0.894 . S
C289 C109 0.890 1_554 S
C294 C21 0.937 . S
C299 C122 0.895 1_554 S
C304 C34 0.935 . S
C309 C135 0.896 1_554 S
C314 C47 0.934 . S
C319 C8 0.935 . S
C324 C148 0.895 1_554 S
C329 C161 0.890 . S
C334 C99 0.936 . S
C339 C174 0.895 . S
C344 C60 0.935 . S
C349 C73 0.937 . S
C354 C187 0.890 . S
C359 C200 0.895 . S
C364 C86 0.935 . S
C369 C104 1.677 . S
C374 C0 1.677 . S
C379 C13 1.676 . S
C384 C117 1.676 . S
C389 C130 1.675 1_655 S
C394 C26 1.675 1_455 S
C399 C39 1.676 1_545 S
C404 C143 1.676 1_565 S
C409 C156 1.678 . S
C414 C52 1.678 . S
C419 C65 1.676 . S
C424 C169 1.676 . S
C429 C182 1.677 1_655 S
C434 C78 1.677 1_455 S
C439 C195 1.677 1_565 S
C444 C91 1.677 1_545 S
C449 C62 1.691 . S
C454 C10 1.691 . S
C459 C75 1.691 . S
C464 C23 1.691 . S
C469 C36 1.691 . S
C474 C88 1.691 . S
C479 C101 1.691 . S
C484 C49 1.691 . S
C489 C114 1.688 . S
C494 C166 1.688 . S
C499 C179 1.688 . S
C504 C127 1.688 . S
C509 C192 1.688 . S
C514 C140 1.688 . S
C519 C205 1.688 . S
C524 C153 1.688 . S
