# Generated by pormake.
# Topology ung, (4)-cn, num edge types: 1
# Building blocks:
#     Node 0, Type 0, BuildingBlock: GALJAG_clean_sbu_0, # of connection points: 4
#     Node 1, Type 0, BuildingBlock: GALJAG_clean_sbu_0, # of connection points: 4
#     Node 2, Type 0, BuildingBlock: GALJAG_clean_sbu_0, # of connection points: 4
#     Node 3, Type 0, BuildingBlock: GALJAG_clean_sbu_0, # of connection points: 4
#     Node 4, Type 0, BuildingBlock: GALJAG_clean_sbu_0, # of connection points: 4
#     Node 5, Type 0, BuildingBlock: GALJAG_clean_sbu_0, # of connection points: 4
#     Node 6, Type 0, BuildingBlock: GALJAG_clean_sbu_0, # of connection points: 4
#     Node 7, Type 0, BuildingBlock: GALJAG_clean_sbu_0, # of connection points: 4
#     Node 8, Type 0, BuildingBlock: GALJAG_clean_sbu_0, # of connection points: 4
#     Node 9, Type 0, BuildingBlock: GALJAG_clean_sbu_0, # of connection points: 4
#     Node 10, Type 0, BuildingBlock: GALJAG_clean_sbu_0, # of connection points: 4
#     Node 11, Type 0, BuildingBlock: GALJAG_clean_sbu_0, # of connection points: 4
#     Node 12, Type 0, BuildingBlock: GALJAG_clean_sbu_0, # of connection points: 4
#     Node 13, Type 0, BuildingBlock: GALJAG_clean_sbu_0, # of connection points: 4
#     Node 14, Type 0, BuildingBlock: GALJAG_clean_sbu_0, # of connection points: 4
#     Node 15, Type 0, BuildingBlock: GALJAG_clean_sbu_0, # of connection points: 4
#     Node 16, Type 0, BuildingBlock: GALJAG_clean_sbu_0, # of connection points: 4
#     Node 17, Type 0, BuildingBlock: GALJAG_clean_sbu_0, # of connection points: 4
#     Edge 18, Type (0, 0), BuildingBlock: XIVTED_clean_linker_0, # of connection points: 2
#     Edge 19, Type (0, 0), BuildingBlock: XIVTED_clean_linker_0, # of connection points: 2
#     Edge 20, Type (0, 0), BuildingBlock: XIVTED_clean_linker_0, # of connection points: 2
#     Edge 21, Type (0, 0), BuildingBlock: XIVTED_clean_linker_0, # of connection points: 2
#     Edge 22, Type (0, 0), BuildingBlock: XIVTED_clean_linker_0, # of connection points: 2
#     Edge 23, Type (0, 0), BuildingBlock: XIVTED_clean_linker_0, # of connection points: 2
#     Edge 24, Type (0, 0), BuildingBlock: XIVTED_clean_linker_0, # of connection points: 2
#     Edge 25, Type (0, 0), BuildingBlock: XIVTED_clean_linker_0, # of connection points: 2
#     Edge 26, Type (0, 0), BuildingBlock: XIVTED_clean_linker_0, # of connection points: 2
#     Edge 27, Type (0, 0), BuildingBlock: XIVTED_clean_linker_0, # of connection points: 2
#     Edge 28, Type (0, 0), BuildingBlock: XIVTED_clean_linker_0, # of connection points: 2
#     Edge 29, Type (0, 0), BuildingBlock: XIVTED_clean_linker_0, # of connection points: 2
#     Edge 30, Type (0, 0), BuildingBlock: XIVTED_clean_linker_0, # of connection points: 2
#     Edge 31, Type (0, 0), BuildingBlock: XIVTED_clean_linker_0, # of connection points: 2
#     Edge 32, Type (0, 0), BuildingBlock: XIVTED_clean_linker_0, # of connection points: 2
#     Edge 33, Type (0, 0), BuildingBlock: XIVTED_clean_linker_0, # of connection points: 2
#     Edge 34, Type (0, 0), BuildingBlock: XIVTED_clean_linker_0, # of connection points: 2
#     Edge 35, Type (0, 0), BuildingBlock: XIVTED_clean_linker_0, # of connection points: 2
#     Edge 36, Type (0, 0), BuildingBlock: XIVTED_clean_linker_0, # of connection points: 2
#     Edge 37, Type (0, 0), BuildingBlock: XIVTED_clean_linker_0, # of connection points: 2
#     Edge 38, Type (0, 0), BuildingBlock: XIVTED_clean_linker_0, # of connection points: 2
#     Edge 39, Type (0, 0), BuildingBlock: XIVTED_clean_linker_0, # of connection points: 2
#     Edge 40, Type (0, 0), BuildingBlock: XIVTED_clean_linker_0, # of connection points: 2
#     Edge 41, Type (0, 0), BuildingBlock: XIVTED_clean_linker_0, # of connection points: 2
#     Edge 42, Type (0, 0), BuildingBlock: XIVTED_clean_linker_0, # of connection points: 2
#     Edge 43, Type (0, 0), BuildingBlock: XIVTED_clean_linker_0, # of connection points: 2
#     Edge 44, Type (0, 0), BuildingBlock: XIVTED_clean_linker_0, # of connection points: 2
#     Edge 45, Type (0, 0), BuildingBlock: XIVTED_clean_linker_0, # of connection points: 2
#     Edge 46, Type (0, 0), BuildingBlock: XIVTED_clean_linker_0, # of connection points: 2
#     Edge 47, Type (0, 0), BuildingBlock: XIVTED_clean_linker_0, # of connection points: 2
#     Edge 48, Type (0, 0), BuildingBlock: XIVTED_clean_linker_0, # of connection points: 2
#     Edge 49, Type (0, 0), BuildingBlock: XIVTED_clean_linker_0, # of connection points: 2
#     Edge 50, Type (0, 0), BuildingBlock: XIVTED_clean_linker_0, # of connection points: 2
#     Edge 51, Type (0, 0), BuildingBlock: XIVTED_clean_linker_0, # of connection points: 2
#     Edge 52, Type (0, 0), BuildingBlock: XIVTED_clean_linker_0, # of connection points: 2
#     Edge 53, Type (0, 0), BuildingBlock: XIVTED_clean_linker_0, # of connection points: 2
# Relax obj value: 0.030
# Max RMSD: 0.132
# Mean RMSD: 0.132
data_MOF--net-ung--node1-GALJAG_clean_sbu_0--edge1-XIVTED_clean_linker_0
_symmetry_space_group_name_H-M    P1
_symmetry_Int_Tables_number       1
_symmetry_cell_setting            triclinic
loop_
_symmetry_equiv_pos_as_xyz
'x, y, z'
_cell_length_a     79.231495
_cell_length_b     79.228537
_cell_length_c     20.48225
_cell_angle_alpha  89.992939
_cell_angle_beta   90.054781
_cell_angle_gamma 119.91652
loop_
_atom_site_label
_atom_site_type_symbol
_atom_site_fract_x
_atom_site_fract_y
_atom_site_fract_z
_atom_type_partial_charge
In0 In 0.07773 0.65006 0.22714 0.0
O1 O 0.09385 0.64641 0.14116 0.0
O2 O 0.06489 0.62367 0.16296 0.0
C3 C 0.10128 0.68367 0.28799 0.0
C4 C 0.07979 0.6259 0.3132 0.0
C5 C 0.0509 0.65747 0.17695 0.0
O6 O 0.1053 0.67996 0.23182 0.0
O7 O 0.08537 0.6707 0.31185 0.0
O8 O 0.04806 0.64851 0.23069 0.0
O9 O 0.06718 0.66287 0.15054 0.0
C10 C 0.07977 0.62966 0.12717 0.0
O11 O 0.064 0.626 0.30367 0.0
O12 O 0.09421 0.63816 0.2804 0.0
In13 In 0.51229 0.49681 0.26348 0.0
O14 O 0.51838 0.52145 0.19367 0.0
O15 O 0.54229 0.51835 0.22574 0.0
C16 C 0.47472 0.48515 0.28491 0.0
C17 C 0.52791 0.51007 0.3819 0.0
C18 C 0.50889 0.46702 0.19128 0.0
O19 O 0.48655 0.50204 0.26435 0.0
O20 O 0.48179 0.47412 0.2936 0.0
O21 O 0.51217 0.46799 0.25208 0.0
O22 O 0.50766 0.4811 0.16796 0.0
C23 C 0.53649 0.52776 0.19181 0.0
O24 O 0.53344 0.50065 0.34656 0.0
O25 O 0.51406 0.51165 0.35874 0.0
In26 In 0.65339 0.0908 0.22146 0.0
O27 O 0.63146 0.07402 0.14097 0.0
O28 O 0.63638 0.10218 0.1693 0.0
C29 C 0.66955 0.07098 0.2707 0.0
C30 C 0.63113 0.08818 0.32306 0.0
C31 C 0.68454 0.11745 0.15641 0.0
O32 O 0.65559 0.06314 0.23023 0.0
O33 O 0.67511 0.08848 0.28508 0.0
O34 O 0.68012 0.12104 0.21221 0.0
O35 O 0.67325 0.10058 0.1343 0.0
C36 C 0.62725 0.08741 0.13316 0.0
O37 O 0.64549 0.10438 0.30583 0.0
O38 O 0.62863 0.07363 0.29025 0.0
In39 In 0.09635 0.5176 0.72539 0.0
O40 O 0.11048 0.53826 0.63916 0.0
O41 O 0.07958 0.52385 0.65053 0.0
C42 C 0.12349 0.51474 0.79417 0.0
C43 C 0.09147 0.54076 0.80814 0.0
C44 C 0.0761 0.48088 0.68272 0.0
O45 O 0.12672 0.5214 0.73642 0.0
O46 O 0.10674 0.50966 0.81625 0.0
O47 O 0.06838 0.488 0.71957 0.0
O48 O 0.09378 0.49218 0.66896 0.0
C49 C 0.09431 0.53579 0.61843 0.0
O50 O 0.07882 0.52285 0.80277 0.0
O51 O 0.10632 0.54658 0.77236 0.0
In52 In 0.63569 0.64803 0.75675 0.0
O53 O 0.63582 0.6319 0.84897 0.0
O54 O 0.60999 0.63252 0.82253 0.0
C55 C 0.67115 0.66381 0.70345 0.0
C56 C 0.61409 0.62008 0.67066 0.0
C57 C 0.63723 0.6805 0.80063 0.0
O58 O 0.66616 0.65176 0.75008 0.0
O59 O 0.65834 0.66775 0.68465 0.0
O60 O 0.62934 0.67308 0.74629 0.0
O61 O 0.64443 0.6717 0.83103 0.0
C62 C 0.61831 0.62689 0.86239 0.0
O63 O 0.61116 0.63413 0.68178 0.0
O64 O 0.62823 0.6207 0.70102 0.0
In65 In 0.50395 0.07725 0.72048 0.0
O66 O 0.52523 0.09351 0.80252 0.0
O67 O 0.5176 0.06395 0.78168 0.0
C68 C 0.49273 0.09851 0.65173 0.0
C69 C 0.52855 0.07801 0.63065 0.0
C70 C 0.47091 0.05473 0.78475 0.0
O71 O 0.5037 0.10552 0.70132 0.0
O72 O 0.48724 0.0809 0.63903 0.0
O73 O 0.47509 0.04881 0.73289 0.0
O74 O 0.48319 0.07181 0.80257 0.0
C75 C 0.52749 0.07907 0.81581 0.0
O76 O 0.51297 0.06227 0.6439 0.0
O77 O 0.53114 0.09287 0.66187 0.0
In78 In 0.75368 0.99132 0.55482 0.0
O79 O 0.73643 0.97094 0.63808 0.0
O80 O 0.76411 0.97425 0.61175 0.0
C81 C 0.73375 0.00663 0.49992 0.0
C82 C 0.75089 0.96722 0.45927 0.0
C83 C 0.78061 0.02307 0.61642 0.0
O84 O 0.72615 0.99358 0.5435 0.0
O85 O 0.75116 0.01182 0.48539 0.0
O86 O 0.78392 0.0183 0.56079 0.0
O87 O 0.76392 0.01191 0.63977 0.0
C88 C 0.7493 0.96615 0.64819 0.0
O89 O 0.76724 0.98148 0.47589 0.0
O90 O 0.73635 0.96585 0.48923 0.0
In91 In 0.17224 0.84271 0.58263 0.0
O92 O 0.17903 0.86548 0.50368 0.0
O93 O 0.20022 0.85709 0.52621 0.0
C94 C 0.13746 0.83238 0.63502 0.0
C95 C 0.19456 0.86532 0.6794 0.0
C96 C 0.16444 0.80946 0.52349 0.0
O97 O 0.14273 0.84144 0.5812 0.0
O98 O 0.14952 0.82837 0.66073 0.0
O99 O 0.17206 0.81368 0.57985 0.0
O100 O 0.16068 0.82177 0.49857 0.0
C101 C 0.19578 0.8677 0.49268 0.0
O102 O 0.19409 0.84949 0.6652 0.0
O103 O 0.18359 0.86921 0.64563 0.0
In104 In 0.32198 0.41518 0.60231 0.0
O105 O 0.29425 0.40011 0.54135 0.0
O106 O 0.30505 0.42961 0.57013 0.0
C107 C 0.33139 0.38765 0.62426 0.0
C108 C 0.31337 0.42043 0.72433 0.0
C109 C 0.35055 0.43631 0.51789 0.0
O110 O 0.31444 0.3834 0.60612 0.0
O111 O 0.34334 0.4056 0.63097 0.0
O112 O 0.35088 0.44205 0.57591 0.0
O113 O 0.33575 0.42027 0.50313 0.0
C114 C 0.29216 0.41493 0.54012 0.0
O115 O 0.32568 0.4346 0.69041 0.0
O116 O 0.30627 0.40401 0.69728 0.0
In117 In 0.72852 0.83772 0.05862 0.0
O118 O 0.74536 0.85846 0.97551 0.0
O119 O 0.71981 0.85788 0.01213 0.0
C120 C 0.7497 0.82145 0.09496 0.0
C121 C 0.73187 0.85882 0.16486 0.0
C122 C 0.69872 0.8077 -0.00172 0.0
O123 O 0.75683 0.83661 0.05994 0.0
O124 O 0.73203 0.8145 0.11006 0.0
O125 O 0.69759 0.81175 0.05737 0.0
O126 O 0.7148 0.81867 0.97072 0.0
C127 C 0.7338 0.86513 0.97225 0.0
O128 O 0.71544 0.84545 0.14509 0.0
O129 O 0.74626 0.86078 0.13254 0.0
In130 In 0.31172 0.98984 0.08224 0.0
O131 O 0.30636 0.96842 0.16511 0.0
O132 O 0.28471 0.97624 0.14344 0.0
C133 C 0.34581 -0.00029 0.0248 0.0
C134 C 0.28809 0.96558 0.99087 0.0
C135 C 0.31869 0.02346 0.13644 0.0
O136 O 0.34152 0.99168 0.08048 0.0
O137 O 0.33321 0.00309 -8e-05 0.0
O138 O 0.30998 0.01787 0.08209 0.0
O139 O 0.32427 0.01248 0.16116 0.0
C140 C 0.28975 0.96632 0.17811 0.0
O141 O 0.28914 0.98185 0.00162 0.0
O142 O 0.29915 0.962 0.02537 0.0
In143 In 0.19158 0.42653 0.09488 0.0
O144 O 0.20297 0.41194 0.02638 0.0
O145 O 0.22234 0.44127 0.05612 0.0
C146 C 0.15506 0.39907 0.12277 0.0
C147 C 0.20706 0.42451 0.20821 0.0
C148 C 0.18594 0.45337 0.03472 0.0
O149 O 0.16344 0.39804 0.07157 0.0
O150 O 0.16474 0.41414 0.15693 0.0
O151 O 0.19037 0.45479 0.09463 0.0
O152 O 0.18427 0.4385 0.00625 0.0
C153 C 0.21995 0.42663 0.02409 0.0
O154 O 0.20803 0.44025 0.18971 0.0
O155 O 0.1985 0.41033 0.16947 0.0
In156 In 0.40464 0.30753 0.93941 0.0
O157 O 0.38096 0.28615 0.00779 0.0
O158 O 0.40761 0.30746 0.04982 0.0
C159 C 0.38282 0.31481 0.85615 0.0
C160 C 0.40993 0.27973 0.88357 0.0
C161 C 0.43563 0.34256 0.96453 0.0
O162 O 0.37894 0.31195 0.91633 0.0
O163 O 0.39759 0.31392 0.83833 0.0
O164 O 0.4363 0.32702 0.97013 0.0
O165 O 0.41948 0.34038 0.94566 0.0
C166 C 0.39118 0.29261 0.05867 0.0
O167 O 0.42268 0.29754 0.88031 0.0
O168 O 0.39482 0.27619 0.91447 0.0
In169 In 0.84602 0.18355 0.89229 0.0
O170 O 0.86587 0.188 0.97865 0.0
O171 O 0.86014 0.21084 0.95281 0.0
C172 C 0.83755 0.14904 0.84143 0.0
C173 C 0.87116 0.20687 0.80211 0.0
C174 C 0.81144 0.17676 0.93772 0.0
O175 O 0.84466 0.15406 0.89816 0.0
O176 O 0.83426 0.16111 0.8121 0.0
O177 O 0.81733 0.1839 0.88148 0.0
O178 O 0.82271 0.17282 0.96918 0.0
C179 C 0.8689 0.20502 0.99005 0.0
O180 O 0.85521 0.20654 0.81227 0.0
O181 O 0.87398 0.1953 0.83658 0.0
In182 In 0.97442 0.74333 0.90607 0.0
O183 O 0.96767 0.7585 0.98808 0.0
O184 O 0.94718 0.72871 0.966 0.0
C185 C 0.00882 0.76843 0.85278 0.0
C186 C 0.95092 0.74351 0.81298 0.0
C187 C 0.9831 0.71775 0.95963 0.0
O188 O 0.0038 0.77166 0.90801 0.0
O189 O -0.00333 0.75265 0.82588 0.0
O190 O 0.97494 0.71467 0.90423 0.0
O191 O 0.98701 0.73364 0.98634 0.0
C192 C 0.95139 0.74351 0.00053 0.0
O193 O 0.95215 0.72843 0.82476 0.0
O194 O 0.96178 0.75826 0.84725 0.0
In195 In 0.40473 0.17673 0.43233 0.0
O196 O 0.39198 0.17663 0.53229 0.0
O197 O 0.4224 0.19542 0.51646 0.0
C198 C 0.37428 0.14667 0.37393 0.0
C199 C 0.40477 0.2058 0.36581 0.0
C200 C 0.43059 0.16425 0.43565 0.0
O201 O 0.37534 0.1486 0.43546 0.0
O202 O 0.3883 0.16007 0.34278 0.0
O203 O 0.43579 0.18176 0.42236 0.0
O204 O 0.41263 0.15333 0.44522 0.0
C205 C 0.4082 0.18951 0.55519 0.0
O206 O 0.39545 0.1992 0.41822 0.0
O207 O 0.41457 0.19804 0.34729 0.0
In208 In -0.004 0.31824 0.39279 0.0
O209 O 0.98844 0.29591 0.47417 0.0
O210 O 0.97147 0.30992 0.46281 0.0
C211 C 0.02684 0.32356 0.32387 0.0
C212 C 0.96916 0.29639 0.30517 0.0
C213 C 0.01211 0.35324 0.44926 0.0
O214 O 0.02248 0.31459 0.37801 0.0
O215 O 0.01561 0.32967 0.30526 0.0
O216 O -0.00146 0.34806 0.40762 0.0
O217 O 0.01741 0.34091 0.4608 0.0
C218 C 0.97412 0.2976 0.49335 0.0
O219 O 0.97356 0.31395 0.31512 0.0
O220 O 0.97852 0.29039 0.33862 0.0
In221 In 0.83201 0.74533 0.40578 0.0
O222 O 0.83916 0.72897 0.32947 0.0
O223 O 0.85904 0.7594 0.34567 0.0
C224 C 0.79893 0.72562 0.47177 0.0
C225 C 0.85504 0.74675 0.50256 0.0
C226 C 0.81921 0.76427 0.33201 0.0
O227 O 0.80412 0.7172 0.43009 0.0
O228 O 0.81052 0.74366 0.47961 0.0
O229 O 0.83142 0.77291 0.37774 0.0
O230 O 0.81389 0.74645 0.3243 0.0
C231 C 0.85523 0.74404 0.31503 0.0
O232 O 0.85441 0.76188 0.48552 0.0
O233 O 0.84381 0.73134 0.47167 0.0
H234 H 0.11736 0.57912 0.82792 0.0
H235 H 0.05138 0.59339 0.09177 0.0
H236 H 0.06086 0.53303 0.88889 0.0
H237 H 0.11025 0.63762 0.04554 0.0
H238 H 0.05362 0.57191 0.01142 0.0
H239 H 0.11408 0.60142 0.90172 0.0
C240 C 0.10423 0.57369 0.8569 0.0
C241 C 0.08936 0.55418 0.85257 0.0
C242 C 0.06603 0.58633 0.01861 0.0
C243 C 0.08552 0.57967 0.93702 0.0
C244 C 0.06476 0.59863 0.06435 0.0
C245 C 0.08071 0.61728 0.07542 0.0
C246 C 0.08337 0.59272 0.98362 0.0
C247 C 0.09764 0.62333 0.03852 0.0
C248 C 0.10238 0.58645 0.899 0.0
C249 C 0.07268 0.54795 0.891 0.0
N250 N 0.09856 0.61103 -0.00569 0.0
N251 N 0.07121 0.56068 0.93178 0.0
H252 H 0.58279 0.61882 0.90598 0.0
H253 H 0.57551 0.54243 0.17424 0.0
H254 H 0.62985 0.60778 0.9475 0.0
H255 H 0.52778 0.55095 0.11767 0.0
H256 H 0.59699 0.56897 0.10132 0.0
H257 H 0.56395 0.59685 -0.00626 0.0
C258 C 0.5892 0.61181 0.93391 0.0
C259 C 0.6078 0.6149 0.91909 0.0
C260 C 0.58185 0.5651 0.10521 0.0
C261 C 0.58624 0.58962 0.01952 0.0
C262 C 0.56959 0.54998 0.14674 0.0
C263 C 0.54983 0.54442 0.15134 0.0
C264 C 0.57423 0.57468 0.06827 0.0
C265 C 0.5429 0.5547 0.11509 0.0
C266 C 0.57843 0.59927 0.98406 0.0
C267 C 0.61549 0.60566 0.95726 0.0
N268 N 0.55509 0.56928 0.07478 0.0
N269 N 0.60457 0.59324 0.00556 0.0
H270 H 0.61759 0.11514 0.10715 0.0
H271 H 0.53475 0.05007 0.84933 0.0
H272 H 0.60345 0.05685 0.05332 0.0
H273 H 0.55177 0.10973 0.89409 0.0
H274 H 0.55887 0.05178 0.92702 0.0
H275 H 0.59283 0.11298 0.03182 0.0
C276 C 0.60927 0.10186 0.07931 0.0
C277 C 0.61256 0.08612 0.08637 0.0
C278 C 0.55732 0.06449 0.92002 0.0
C279 C 0.58412 0.08356 0.00014 0.0
C280 C 0.54352 0.06353 0.87581 0.0
C281 C 0.54131 0.07982 0.86529 0.0
C282 C 0.56899 0.08188 0.95402 0.0
C283 C 0.55303 0.09685 0.90081 0.0
C284 C 0.59512 0.10065 0.03632 0.0
C285 C 0.60137 0.06931 0.04917 0.0
N286 N 0.56642 0.09745 0.9436 0.0
N287 N 0.58759 0.06845 0.00758 0.0
H288 H 0.59978 0.05482 0.36677 0.0
H289 H 0.56141 0.1107 0.59299 0.0
H290 H 0.63023 0.11718 0.39309 0.0
H291 H 0.52976 0.04842 0.56439 0.0
H292 H 0.58701 0.11309 0.52168 0.0
H293 H 0.57468 0.05193 0.44226 0.0
C294 C 0.60127 0.06791 0.38894 0.0
C295 C 0.61708 0.0863 0.37359 0.0
C296 C 0.57449 0.09888 0.53079 0.0
C297 C 0.5883 0.08308 0.45954 0.0
C298 C 0.55981 0.09749 0.57143 0.0
C299 C 0.54342 0.0793 0.58457 0.0
C300 C 0.57284 0.08196 0.50296 0.0
C301 C 0.54214 0.06271 0.55533 0.0
C302 C 0.58688 0.06624 0.43184 0.0
C303 C 0.61829 0.10274 0.40365 0.0
N304 N 0.55671 0.06444 0.51585 0.0
N305 N 0.60401 0.10075 0.44502 0.0
H306 H 0.05078 0.59534 0.38082 0.0
H307 H 0.12355 0.56567 0.54905 0.0
H308 H 0.11266 0.62494 0.34425 0.0
H309 H 0.061 0.53249 0.56864 0.0
H310 H 0.11991 0.58718 0.47148 0.0
H311 H 0.05423 0.57203 0.45005 0.0
C312 C 0.06508 0.59696 0.3876 0.0
C313 C 0.08145 0.61208 0.35705 0.0
C314 C 0.10698 0.57508 0.49238 0.0
C315 C 0.08554 0.58553 0.4355 0.0
C316 C 0.10907 0.56278 0.53636 0.0
C317 C 0.09257 0.54739 0.56545 0.0
C318 C 0.08828 0.57197 0.4779 0.0
C319 C 0.07413 0.54428 0.54754 0.0
C320 C 0.06705 0.58362 0.42677 0.0
C321 C 0.09965 0.61349 0.36705 0.0
N322 N 0.07249 0.55655 0.50531 0.0
N323 N 0.10121 0.60041 0.40552 0.0
H324 H 0.57839 0.61073 0.6216 0.0
H325 H 0.56385 0.5178 0.42534 0.0
H326 H 0.62012 0.59085 0.6291 0.0
H327 H 0.51737 0.52978 0.46524 0.0
H328 H 0.58476 0.54382 0.50137 0.0
H329 H 0.55614 0.58128 0.56118 0.0
C330 C 0.58291 0.60023 0.61004 0.0
C331 C 0.60111 0.60322 0.62998 0.0
C332 C 0.56987 0.5405 0.49424 0.0
C333 C 0.57575 0.56947 0.56168 0.0
C334 C 0.5579 0.52556 0.45134 0.0
C335 C 0.53897 0.52183 0.43853 0.0
C336 C 0.56281 0.55179 0.52371 0.0
C337 C 0.53198 0.53236 0.4732 0.0
C338 C 0.57015 0.58334 0.57618 0.0
C339 C 0.6062 0.58909 0.61439 0.0
N340 N 0.54399 0.54706 0.51343 0.0
N341 N 0.59361 0.57283 0.58085 0.0
H342 H 0.70341 0.86211 0.22953 0.0
H343 H 0.77953 0.9628 0.40047 0.0
H344 H 0.76581 0.8879 0.21458 0.0
H345 H 0.7171 0.93671 0.41509 0.0
H346 H 0.77492 0.93529 0.33292 0.0
H347 H 0.70817 0.88868 0.30199 0.0
C348 C 0.71809 0.87321 0.24229 0.0
C349 C 0.73423 0.87289 0.21591 0.0
C350 C 0.76224 0.93564 0.35079 0.0
C351 C 0.73982 0.90343 0.29758 0.0
C352 C 0.76489 0.95139 0.38889 0.0
C353 C 0.74869 0.952 0.41323 0.0
C354 C 0.74327 0.92047 0.33715 0.0
C355 C 0.73 0.93679 0.39728 0.0
C356 C 0.72082 0.88844 0.28322 0.0
C357 C 0.75295 0.88766 0.2337 0.0
N358 N 0.72781 0.92163 0.36038 0.0
N359 N 0.75524 0.90241 0.27309 0.0
H360 H 0.23203 0.87435 0.46224 0.0
H361 H 0.25439 0.96086 0.21423 0.0
H362 H 0.19123 0.89383 0.41787 0.0
H363 H 0.29488 0.94067 0.25411 0.0
H364 H 0.23154 0.93704 0.29125 0.0
H365 H 0.25547 0.89887 0.38792 0.0
C366 C 0.22798 0.88377 0.43664 0.0
C367 C 0.20965 0.88206 0.44607 0.0
C368 C 0.24542 0.93782 0.2834 0.0
C369 C 0.23646 0.91022 0.3612 0.0
C370 C 0.25851 0.95145 0.2395 0.0
C371 C 0.27654 0.95269 0.2277 0.0
C372 C 0.25035 0.92527 0.31579 0.0
C373 C 0.28113 0.94017 0.26184 0.0
C374 C 0.24139 0.89779 0.39432 0.0
C375 C 0.20519 0.89464 0.41183 0.0
N376 N 0.26806 0.92691 0.3043 0.0
N377 N 0.21853 0.90823 0.37088 0.0
H378 H 0.28656 0.44596 0.52509 0.0
H379 H 0.20223 0.39114 0.26203 0.0
H380 H 0.26249 0.38559 0.47118 0.0
H381 H 0.23214 0.45337 0.29142 0.0
H382 H 0.21995 0.38798 0.35385 0.0
H383 H 0.26269 0.44791 0.45469 0.0
C384 C 0.27611 0.43305 0.49889 0.0
C385 C 0.27661 0.41563 0.50316 0.0
C386 C 0.22255 0.40233 0.34069 0.0
C387 C 0.24936 0.41779 0.42278 0.0
C388 C 0.21244 0.40415 0.28827 0.0
C389 C 0.216 0.4226 0.2686 0.0
C390 C 0.23642 0.41907 0.37352 0.0
C391 C 0.22913 0.43891 0.30482 0.0
C392 C 0.26252 0.4342 0.45874 0.0
C393 C 0.2627 0.39934 0.46869 0.0
N394 N 0.23909 0.4368 0.35528 0.0
N395 N 0.24971 0.40086 0.42948 0.0
H396 H 0.25555 0.45776 -0.00482 0.0
H397 H 0.2906 0.39204 0.80998 0.0
H398 H 0.22105 0.39537 0.97351 0.0
H399 H 0.31656 0.45382 0.77639 0.0
H400 H 0.27002 0.39414 0.8942 0.0
H401 H 0.28213 0.45731 0.93551 0.0
C402 C 0.25361 0.44397 0.97801 0.0
C403 C 0.23604 0.42658 0.98852 0.0
C404 C 0.28042 0.4073 0.86912 0.0
C405 C 0.26637 0.42596 0.92167 0.0
C406 C 0.29226 0.40615 0.82138 0.0
C407 C 0.30503 0.42274 0.78552 0.0
C408 C 0.28132 0.42516 0.88094 0.0
C409 C 0.30678 0.44067 0.80271 0.0
C410 C 0.26877 0.44374 0.94421 0.0
C411 C 0.23428 0.40911 0.96572 0.0
N412 N 0.29477 0.44138 0.8487 0.0
N413 N 0.24927 0.40925 0.93329 0.0
H414 H 0.71003 0.88042 0.95611 0.0
H415 H 0.77478 0.95347 0.67364 0.0
H416 H 0.76283 0.88418 0.88246 0.0
H417 H 0.71942 0.94623 0.7348 0.0
H418 H 0.7713 0.92915 0.75332 0.0
H419 H 0.71385 0.90543 0.8786 0.0
C420 C 0.72245 0.88653 0.92355 0.0
C421 C 0.73615 0.88024 0.92551 0.0
C422 C 0.7599 0.93286 0.74946 0.0
C423 C 0.7406 0.90886 0.83684 0.0
C424 C 0.76188 0.94678 0.70405 0.0
C425 C 0.74732 0.95183 0.69766 0.0
C426 C 0.74325 0.92394 0.78892 0.0
C427 C 0.73095 0.94272 0.73822 0.0
C428 C 0.7246 0.9008 0.87932 0.0
C429 C 0.75194 0.88863 0.88238 0.0
N430 N 0.72934 0.92916 0.78224 0.0
N431 N 0.75375 0.90255 0.83971 0.0
H432 H 0.26072 0.9679 0.91566 0.0
H433 H 0.22196 0.86272 0.75408 0.0
H434 H 0.28435 0.9305 0.9598 0.0
H435 H 0.19709 0.89941 0.71647 0.0
H436 H 0.24489 0.88725 0.83058 0.0
H437 H 0.23736 0.94296 0.84143 0.0
C438 C 0.26103 0.95448 0.90946 0.0
C439 C 0.27445 0.95123 0.94375 0.0
C440 C 0.23435 0.88987 0.80571 0.0
C441 C 0.24781 0.92265 0.85954 0.0
C442 C 0.22125 0.87586 0.76229 0.0
C443 C 0.20767 0.87909 0.72894 0.0
C444 C 0.23383 0.90718 0.81553 0.0
C445 C 0.20737 0.89636 0.74111 0.0
C446 C 0.24768 0.94022 0.86733 0.0
C447 C 0.27423 0.93358 0.93422 0.0
N448 N 0.22029 0.90978 0.78324 0.0
N449 N 0.2611 0.91994 0.89302 0.0
H450 H 0.38327 0.24105 0.88071 0.0
H451 H 0.4414 0.21837 0.61009 0.0
H452 H 0.44043 0.28312 0.81065 0.0
H453 H 0.37964 0.18258 0.64401 0.0
H454 H 0.44371 0.23831 0.70413 0.0
H455 H 0.38442 0.21605 0.81442 0.0
C456 C 0.39617 0.24497 0.85192 0.0
C457 C 0.41167 0.26424 0.85017 0.0
C458 C 0.42971 0.22593 0.69158 0.0
C459 C 0.41304 0.23572 0.77448 0.0
C460 C 0.42837 0.21449 0.63807 0.0
C461 C 0.41022 0.19903 0.61867 0.0
C462 C 0.41278 0.22183 0.72586 0.0
C463 C 0.39386 0.19453 0.65697 0.0
C464 C 0.3968 0.23069 0.81415 0.0
C465 C 0.42809 0.26848 0.81268 0.0
N466 N 0.39548 0.20607 0.70839 0.0
N467 N 0.42827 0.25434 0.77569 0.0
H468 H 0.87113 0.236 0.73009 0.0
H469 H 0.97391 0.26767 0.56148 0.0
H470 H 0.90505 0.20818 0.7696 0.0
H471 H 0.94267 0.29902 0.53889 0.0
H472 H 0.94879 0.24549 0.63773 0.0
H473 H 0.89696 0.25883 0.65734 0.0
C474 C 0.88397 0.23466 0.72317 0.0
C475 C 0.88599 0.22023 0.75575 0.0
C476 C 0.94752 0.25731 0.61631 0.0
C477 C 0.91556 0.24624 0.67325 0.0
C478 C 0.96188 0.26998 0.57306 0.0
C479 C 0.96032 0.28513 0.54384 0.0
C480 C 0.93151 0.25982 0.62999 0.0
C481 C 0.94441 0.28747 0.56024 0.0
C482 C 0.89874 0.24772 0.68195 0.0
C483 C 0.90293 0.21913 0.74538 0.0
N484 N 0.93058 0.27489 0.60195 0.0
N485 N 0.91707 0.23197 0.705 0.0
H486 H 0.92349 0.71333 0.73982 0.0
H487 H 0.88342 0.77785 0.57108 0.0
H488 H 0.947 0.77458 0.77861 0.0
H489 H 0.85771 0.71575 0.54528 0.0
H490 H 0.90715 0.77727 0.64674 0.0
H491 H 0.89976 0.71424 0.66561 0.0
C492 C 0.92371 0.72697 0.7324 0.0
C493 C 0.93719 0.74388 0.76531 0.0
C494 C 0.89625 0.76378 0.62464 0.0
C495 C 0.91008 0.74507 0.68106 0.0
C496 C 0.88269 0.76411 0.58172 0.0
C497 C 0.86863 0.74685 0.5519 0.0
C498 C 0.8957 0.74606 0.63742 0.0
C499 C 0.86834 0.72943 0.5671 0.0
C500 C 0.91013 0.7275 0.6903 0.0
C501 C 0.93683 0.76119 0.75418 0.0
N502 N 0.8817 0.7295 0.60858 0.0
N503 N 0.92347 0.76134 0.71302 0.0
H504 H 0.88997 0.77475 0.27858 0.0
H505 H 0.91665 0.71257 0.03638 0.0
H506 H 0.85237 0.71321 0.24478 0.0
H507 H 0.9548 0.77372 0.07541 0.0
H508 H 0.89305 0.71241 0.113 0.0
H509 H 0.91375 0.77459 0.20388 0.0
C510 C 0.88669 0.76118 0.2552 0.0
C511 C 0.86917 0.74394 0.2678 0.0
C512 C 0.90659 0.72586 0.10503 0.0
C513 C 0.89642 0.74366 0.18235 0.0
C514 C 0.9201 0.72597 0.06137 0.0
C515 C 0.93768 0.74322 0.04954 0.0
C516 C 0.91068 0.74314 0.13701 0.0
C517 C 0.94141 0.76012 0.08321 0.0
C518 C 0.90031 0.76111 0.21265 0.0
C519 C 0.86569 0.72681 0.23627 0.0
N520 N 0.92796 0.75967 0.12535 0.0
N521 N 0.87924 0.7271 0.19491 0.0
H522 H 0.40554 0.20828 0.23374 0.0
H523 H 0.40724 0.30434 0.18002 0.0
H524 H 0.39788 0.2345 0.4075 0.0
H525 H 0.36701 0.25364 0.0696 0.0
H526 H 0.40857 0.28281 0.26383 0.0
H527 H 0.39777 0.22926 0.16728 0.0
C528 C 0.40251 0.21867 0.25772 0.0
C529 C 0.40239 0.21982 0.32585 0.0
C530 C 0.39905 0.27652 0.22203 0.0
C531 C 0.39357 0.24361 0.25078 0.0
C532 C 0.3982 0.28871 0.17457 0.0
C533 C 0.38712 0.2807 0.11775 0.0
C534 C 0.38924 0.25639 0.21107 0.0
C535 C 0.37575 0.26039 0.11264 0.0
C536 C 0.39785 0.23038 0.22001 0.0
C537 C 0.39811 0.2333 0.35489 0.0
N538 N 0.37757 0.24888 0.1578 0.0
N539 N 0.39407 0.24494 0.31704 0.0
H540 H 0.94571 0.30433 0.22739 0.0
H541 H 0.89067 0.19691 0.07438 0.0
H542 H 0.95792 0.25866 0.27922 0.0
H543 H 0.87804 0.24211 0.02006 0.0
H544 H 0.91462 0.21918 0.15309 0.0
H545 H 0.92017 0.28164 0.15296 0.0
C546 C 0.94303 0.28957 0.22299 0.0
C547 C 0.95393 0.28335 0.25923 0.0
C548 C 0.90656 0.22422 0.12413 0.0
C549 C 0.92486 0.25742 0.17494 0.0
C550 C 0.89287 0.21149 0.07936 0.0
C551 C 0.88246 0.21773 0.04066 0.0
C552 C 0.90985 0.24331 0.13001 0.0
C553 C 0.88583 0.23675 0.04895 0.0
C554 C 0.92846 0.27663 0.18073 0.0
C555 C 0.94988 0.26408 0.25204 0.0
N556 N 0.89931 0.24892 0.09259 0.0
N557 N 0.93568 0.25181 0.21071 0.0
H558 H 0.10145 0.68985 0.41848 0.0
H559 H 0.1615 0.80359 0.39271 0.0
H560 H 0.12989 0.7185 0.23929 0.0
H561 H 0.15614 0.77423 0.57534 0.0
H562 H 0.14962 0.77271 0.33513 0.0
H563 H 0.12071 0.72049 0.47721 0.0
C564 C 0.11185 0.7026 0.39159 0.0
C565 C 0.11398 0.70177 0.32388 0.0
C566 C 0.15131 0.77305 0.38767 0.0
C567 C 0.1359 0.73682 0.39061 0.0
C568 C 0.15799 0.79062 0.42057 0.0
C569 C 0.15961 0.79134 0.48881 0.0
C570 C 0.14576 0.75599 0.42345 0.0
C571 C 0.15505 0.77421 0.52264 0.0
C572 C 0.12292 0.72003 0.42521 0.0
C573 C 0.12778 0.71861 0.29148 0.0
N574 N 0.14796 0.7571 0.48965 0.0
N575 N 0.13803 0.73558 0.32503 0.0
H576 H 0.44356 0.44854 0.28661 0.0
H577 H 0.38315 0.47234 0.53094 0.0
H578 H 0.4607 0.50836 0.32802 0.0
H579 H 0.3555 0.42268 0.40206 0.0
H580 H 0.41221 0.48612 0.46115 0.0
H581 H 0.41139 0.43842 0.3324 0.0
C582 C 0.4404 0.45953 0.30461 0.0
C583 C 0.45468 0.47925 0.30386 0.0
C584 C 0.3996 0.47238 0.44773 0.0
C585 C 0.41828 0.46783 0.35746 0.0
C586 C 0.3831 0.4645 0.48754 0.0
C587 C 0.36704 0.44627 0.47255 0.0
C588 C 0.40007 0.4617 0.39372 0.0
C589 C 0.36764 0.43672 0.41565 0.0
C590 C 0.42209 0.45379 0.33048 0.0
C591 C 0.44997 0.49299 0.32765 0.0
N592 N 0.38403 0.44439 0.37892 0.0
N593 N 0.43222 0.48699 0.35482 0.0
H594 H 0.69426 0.99226 0.49113 0.0
H595 H 0.7058 0.08738 0.32156 0.0
H596 H 0.74975 0.04064 0.43342 0.0
H597 H 0.65433 0.03162 0.28899 0.0
H598 H 0.72088 0.0711 0.37743 0.0
H599 H 0.67787 0.00712 0.43166 0.0
C600 C 0.70295 0.00602 0.4663 0.0
C601 C 0.72335 0.0153 0.46713 0.0
C602 C 0.70633 0.06239 0.3578 0.0
C603 C 0.70489 0.03223 0.40003 0.0
C604 C 0.6977 0.07166 0.32603 0.0
C605 C 0.67884 0.06078 0.30056 0.0
C606 C 0.6959 0.0421 0.36531 0.0
C607 C 0.66898 0.04046 0.30763 0.0
C608 C 0.69363 0.01437 0.43212 0.0
C609 C 0.73399 0.033 0.43389 0.0
N610 N 0.67758 0.03171 0.34006 0.0
N611 N 0.72464 0.04096 0.40209 0.0
H612 H 0.7175 0.1485 0.2058 0.0
H613 H 0.77773 0.16845 0.8736 0.0
H614 H 0.69208 0.1173 0.02691 0.0
H615 H 0.80293 0.1764 0.06575 0.0
H616 H 0.74587 0.15817 0.92431 0.0
H617 H 0.74864 0.16762 0.1488 0.0
C618 C 0.71839 0.14597 0.15427 0.0
C619 C 0.70236 0.13117 0.1211 0.0
C620 C 0.75849 0.16247 0.95511 0.0
C621 C 0.73767 0.15291 0.05594 0.0
C622 C 0.77659 0.16836 0.92632 0.0
C623 C 0.79279 0.17298 0.96574 0.0
C624 C 0.75684 0.16164 0.02352 0.0
C625 C 0.79066 0.17266 0.03376 0.0
C626 C 0.73612 0.15679 0.12192 0.0
C627 C 0.70423 0.12843 0.05437 0.0
N628 N 0.77299 0.16701 0.06055 0.0
N629 N 0.72163 0.13911 0.02397 0.0
H630 H 0.98972 0.69035 0.90211 0.0
H631 H 0.02226 0.66195 0.23568 0.0
H632 H 0.98844 0.71476 0.08905 0.0
H633 H 0.04719 0.66245 0.04805 0.0
H634 H 0.00136 0.6727 0.1824 0.0
H635 H 0.00242 0.67123 0.95602 0.0
C636 C 0.9918 0.69141 0.95454 0.0
C637 C 0.98833 0.70429 0.9912 0.0
C638 C 0.01125 0.67017 0.15302 0.0
C639 C 0.00251 0.68247 0.05282 0.0
C640 C 0.02308 0.66402 0.18326 0.0
C641 C 0.03657 0.66161 0.14615 0.0
C642 C 0.01274 0.67351 0.0853 0.0
C643 C 0.03713 0.66444 0.07841 0.0
C644 C -0.00092 0.68059 0.98515 0.0
C645 C 0.99123 0.70518 0.059 0.0
N646 N 0.02542 0.6703 0.05011 0.0
N647 N -0.00177 0.69447 0.08768 0.0
H648 H 0.44269 0.3781 0.92394 0.0
H649 H 0.50592 0.43243 0.23003 0.0
H650 H 0.46445 0.35028 0.05303 0.0
H651 H 0.50155 0.46258 0.06101 0.0
H652 H 0.49279 0.4025 0.16492 0.0
H653 H 0.46585 0.40957 0.971 0.0
C654 C 0.45259 0.37871 0.96159 0.0
C655 C 0.45162 0.36166 0.98511 0.0
C656 C 0.4951 0.41578 0.14187 0.0
C657 C 0.47786 0.39749 0.04024 0.0
C658 C 0.50256 0.43283 0.17898 0.0
C659 C 0.50448 0.44987 0.15111 0.0
C660 C 0.48935 0.41585 0.07696 0.0
C661 C 0.50001 0.44967 0.08474 0.0
C662 C 0.46585 0.39666 0.98838 0.0
C663 C 0.4648 0.36317 0.03371 0.0
N664 N 0.49235 0.43285 0.05024 0.0
N665 N 0.47716 0.38079 0.06076 0.0
H666 H 0.04622 0.37008 0.51551 0.0
H667 H 0.03669 0.45798 0.663 0.0
H668 H -0.00161 0.37885 0.46277 0.0
H669 H 0.09141 0.45934 0.6375 0.0
H670 H 0.02013 0.42635 0.60614 0.0
H671 H 0.06085 0.40045 0.5768 0.0
C672 C 0.03881 0.37845 0.51676 0.0
C673 C 0.02113 0.37204 0.48379 0.0
C674 C 0.03575 0.43362 0.61338 0.0
C675 C 0.03771 0.40673 0.55456 0.0
C676 C 0.04514 0.4515 0.64616 0.0
C677 C 0.0654 0.46119 0.6547 0.0
C678 C 0.04674 0.42539 0.59041 0.0
C679 C 0.07576 0.45235 0.63162 0.0
C680 C 0.04718 0.39579 0.55172 0.0
C681 C 0.01214 0.38343 0.48715 0.0
N682 N 0.06631 0.43493 0.60072 0.0
N683 N 0.0205 0.40027 0.52234 0.0
H684 H 0.68898 0.69775 0.63656 0.0
H685 H 0.77526 0.68632 0.49264 0.0
H686 H 0.69685 0.6501 0.69894 0.0
H687 H 0.78057 0.74227 0.53246 0.0
H688 H 0.7442 0.67061 0.55292 0.0
H689 H 0.72045 0.71233 0.5815 0.0
C690 C 0.69738 0.69037 0.63865 0.0
C691 C 0.69043 0.67277 0.6724 0.0
C692 C 0.75231 0.68632 0.5485 0.0
C693 C 0.72622 0.68919 0.6088 0.0
C694 C 0.76988 0.69525 0.51398 0.0
C695 C 0.7804 0.71558 0.50767 0.0
C696 C 0.74517 0.69786 0.57518 0.0
C697 C 0.77293 0.72655 0.53635 0.0
C698 C 0.71533 0.69871 0.60744 0.0
C699 C 0.70186 0.66379 0.67371 0.0
N700 N 0.75568 0.71754 0.56831 0.0
N701 N 0.71922 0.67203 0.64169 0.0
H702 H 0.46724 0.18433 0.48785 0.0
H703 H 0.47006 0.08593 0.54335 0.0
H704 H 0.42436 0.12791 0.41503 0.0
H705 H 0.50199 0.1368 0.66469 0.0
H706 H 0.45891 0.10384 0.47659 0.0
H707 H 0.48591 0.16974 0.53237 0.0
C708 C 0.4621 0.16902 0.47955 0.0
C709 C 0.44426 0.1572 0.44821 0.0
C710 C 0.46844 0.11116 0.51759 0.0
C711 C 0.46523 0.14055 0.49896 0.0
C712 C 0.47477 0.10092 0.55591 0.0
C713 C 0.48672 0.10981 0.61029 0.0
C714 C 0.47402 0.13045 0.53365 0.0
C715 C 0.49258 0.12935 0.62361 0.0
C716 C 0.47261 0.16069 0.50548 0.0
C717 C 0.43802 0.13744 0.43932 0.0
N718 N 0.48604 0.13903 0.58575 0.0
N719 N 0.44843 0.1297 0.46497 0.0
H720 H 0.35192 0.0038 0.89405 0.0
H721 H 0.46555 0.05708 0.91436 0.0
H722 H 0.38074 0.0067 0.07595 0.0
H723 H 0.43538 0.02622 0.74003 0.0
H724 H 0.43487 0.04045 0.97472 0.0
H725 H 0.38241 0.01376 0.83594 0.0
C726 C 0.36469 0.00647 0.92169 0.0
C727 C 0.36392 0.00459 0.98988 0.0
C728 C 0.43501 0.03711 0.92351 0.0
C729 C 0.39879 0.01614 0.92383 0.0
C730 C 0.45245 0.04664 0.889 0.0
C731 C 0.45288 0.04305 0.82215 0.0
C732 C 0.4178 0.0243 0.89049 0.0
C733 C 0.43559 0.02934 0.79158 0.0
C734 C 0.382 0.012 0.88846 0.0
C735 C 0.38079 0.00804 0.02334 0.0
N736 N 0.41862 0.02068 0.82579 0.0
N737 N 0.39768 0.01398 0.99002 0.0
H738 H 0.1243 0.51072 0.92566 0.0
H739 H 0.18647 0.45912 0.90384 0.0
H740 H 0.15408 0.51122 0.74885 0.0
H741 H 0.17616 0.47911 0.0874 0.0
H742 H 0.17582 0.47916 0.84619 0.0
H743 H 0.14416 0.50048 0.98667 0.0
C744 C 0.13524 0.50893 0.89989 0.0
C745 C 0.13745 0.51159 0.83211 0.0
C746 C 0.17618 0.47943 0.89905 0.0
C747 C 0.15997 0.4996 0.9013 0.0
C748 C 0.18216 0.46793 0.93197 0.0
C749 C 0.18195 0.46733 0.00038 0.0
C750 C 0.16954 0.49008 0.93485 0.0
C751 C 0.17643 0.47913 0.03455 0.0
C752 C 0.14661 0.50316 0.93475 0.0
C753 C 0.1519 0.50924 0.80108 0.0
N754 N 0.17009 0.48979 0.00137 0.0
N755 N 0.16239 0.50301 0.83578 0.0
H756 H 0.63647 0.71011 0.73341 0.0
H757 H 0.69429 0.80091 0.8676 0.0
H758 H 0.64201 0.69195 0.92697 0.0
H759 H 0.66844 0.7752 0.05293 0.0
H760 H 0.67286 0.77002 0.81398 0.0
H761 H 0.64522 0.74232 0.77733 0.0
C762 C 0.63925 0.71284 0.78521 0.0
C763 C 0.63904 0.69864 0.8265 0.0
C764 C 0.67132 0.77124 0.86599 0.0
C765 C 0.64924 0.73519 0.87664 0.0
C766 C 0.68372 0.78884 0.89676 0.0
C767 C 0.68328 0.79045 0.96483 0.0
C768 C 0.6586 0.75507 0.90385 0.0
C769 C 0.66929 0.77448 0.00034 0.0
C770 C 0.6444 0.73122 0.81014 0.0
C771 C 0.6425 0.70272 0.89332 0.0
N772 N 0.65782 0.75726 0.96958 0.0
N773 N 0.64762 0.72069 0.91624 0.0
H774 H 0.80934 0.05701 0.56351 0.0
H775 H 0.83199 0.11559 0.90039 0.0
H776 H 0.78278 0.02999 0.74668 0.0
H777 H 0.83424 0.14093 0.71185 0.0
H778 H 0.82274 0.08444 0.84635 0.0
H779 H 0.82781 0.08837 0.62035 0.0
C780 C 0.80776 0.05762 0.61585 0.0
C781 C 0.79439 0.04107 0.65052 0.0
C782 C 0.8255 0.09694 0.81699 0.0
C783 C 0.81535 0.07654 0.71535 0.0
C784 C 0.83076 0.11463 0.84768 0.0
C785 C 0.83353 0.13066 0.81045 0.0
C786 C 0.82342 0.0955 0.74876 0.0
C787 C 0.83188 0.12877 0.74232 0.0
C788 C 0.81818 0.07546 0.6481 0.0
C789 C 0.79278 0.04255 0.71821 0.0
N790 N 0.82687 0.11147 0.7136 0.0
N791 N 0.80305 0.06003 0.74847 0.0
H792 H 0.10368 0.82663 0.57797 0.0
H793 H 0.04289 0.79534 0.91105 0.0
H794 H 0.12869 0.82522 0.76366 0.0
H795 H 0.01732 0.77136 0.72354 0.0
H796 H 0.07473 0.81446 0.85761 0.0
H797 H 0.0719 0.81423 0.6317 0.0
C798 C 0.10251 0.82395 0.63008 0.0
C799 C 0.11867 0.82669 0.66644 0.0
C800 C 0.06205 0.80516 0.82829 0.0
C801 C 0.08276 0.81292 0.72789 0.0
C802 C 0.04395 0.79435 0.85861 0.0
C803 C 0.0276 0.78165 0.8216 0.0
C804 C 0.06361 0.80349 0.76054 0.0
C805 C 0.02967 0.78084 0.75383 0.0
C806 C 0.08445 0.81686 0.66057 0.0
C807 C 0.11647 0.82304 0.73382 0.0
N808 N 0.04738 0.79159 0.7254 0.0
N809 N 0.09882 0.81632 0.76244 0.0
H810 H 0.36679 0.39067 0.61166 0.0
H811 H 0.34782 0.31301 0.87624 0.0
H812 H 0.30828 0.35174 0.67788 0.0
H813 H 0.39366 0.32996 0.73407 0.0
H814 H 0.33267 0.32681 0.80594 0.0
H815 H 0.37704 0.36861 0.65656 0.0
C816 C 0.35606 0.37728 0.63483 0.0
C817 C 0.33674 0.37297 0.64156 0.0
C818 C 0.34584 0.32715 0.78971 0.0
C819 C 0.34837 0.348 0.69425 0.0
C820 C 0.35453 0.3194 0.82986 0.0
C821 C 0.37211 0.3206 0.81116 0.0
C822 C 0.35508 0.3365 0.73142 0.0
C823 C 0.38017 0.32888 0.75047 0.0
C824 C 0.36187 0.36469 0.66021 0.0
C825 C 0.32332 0.35548 0.67176 0.0
N826 N 0.37178 0.33686 0.71326 0.0
N827 N 0.32949 0.34376 0.69843 0.0
H828 H 0.05932 0.32356 0.36865 0.0
H829 H 0.12271 0.37481 0.05002 0.0
H830 H 0.03495 0.33476 0.19669 0.0
H831 H 0.14472 0.38771 0.24713 0.0
H832 H 0.0904 0.35092 0.0935 0.0
H833 H 0.09083 0.33743 0.31293 0.0
C834 C 0.0605 0.32853 0.31871 0.0
C835 C 0.04469 0.32837 0.2875 0.0
C836 C 0.10246 0.35883 0.12685 0.0
C837 C 0.08043 0.34406 0.2238 0.0
C838 C 0.12077 0.37236 0.10219 0.0
C839 C 0.13613 0.38335 0.14536 0.0
C840 C 0.09987 0.35605 0.1947 0.0
C841 C 0.13307 0.37972 0.21248 0.0
C842 C 0.07845 0.33648 0.28712 0.0
C843 C 0.04694 0.33494 0.22272 0.0
N844 N 0.11528 0.36639 0.23515 0.0
N845 N 0.06458 0.34272 0.19307 0.0
H846 H 0.83089 0.80328 0.32238 0.0
H847 H 0.73625 0.78403 0.13133 0.0
H848 H 0.78846 0.74658 0.24956 0.0
H849 H 0.789 0.83968 0.11799 0.0
H850 H 0.75455 0.77052 0.18395 0.0
H851 H 0.81527 0.81775 0.25674 0.0
C852 C 0.81838 0.79393 0.29248 0.0
C853 C 0.81088 0.77372 0.29156 0.0
C854 C 0.76219 0.78564 0.16894 0.0
C855 C 0.79301 0.79002 0.21749 0.0
C856 C 0.75175 0.79334 0.13904 0.0
C857 C 0.76118 0.81294 0.12031 0.0
C858 C 0.78213 0.79774 0.18161 0.0
C859 C 0.78128 0.82444 0.13141 0.0
C860 C 0.80957 0.80217 0.25492 0.0
C861 C 0.7947 0.76223 0.25184 0.0
N862 N 0.79111 0.81672 0.16228 0.0
N863 N 0.7862 0.77051 0.21697 0.0
H864 H 0.32008 0.05615 0.0847 0.0
H865 H 0.34918 0.11145 0.4287 0.0
H866 H 0.32422 0.03074 0.26604 0.0
H867 H 0.36635 0.14132 0.24361 0.0
H868 H 0.33037 0.08057 0.37038 0.0
H869 H 0.32823 0.08635 0.14382 0.0
C870 C 0.32247 0.05687 0.13695 0.0
C871 C 0.32184 0.04115 0.17053 0.0
C872 C 0.33798 0.09395 0.34264 0.0
C873 C 0.33071 0.07518 0.23807 0.0
C874 C 0.3486 0.11156 0.37587 0.0
C875 C 0.35957 0.12885 0.3408 0.0
C876 C 0.33829 0.09373 0.27405 0.0
C877 C 0.3583 0.12821 0.27238 0.0
C878 C 0.32709 0.07403 0.17054 0.0
C879 C 0.32492 0.04269 0.23821 0.0
N880 N 0.34805 0.11087 0.24109 0.0
N881 N 0.32929 0.05943 0.26972 0.0
loop_
_geom_bond_atom_site_label_1
_geom_bond_atom_site_label_2
_geom_bond_distance
_geom_bond_site_symmetry_2
_ccdc_geom_bond_type
In0 O1 2.294 . S
In0 O2 2.326 . S
In0 O6 2.266 . S
In0 O7 2.326 . S
In0 O8 2.266 . S
In0 O9 2.326 . S
In0 O11 2.294 . S
In0 O12 2.326 . S
O1 In0 2.294 . S
O1 C10 1.240 . S
O2 In0 2.326 . S
O2 C10 1.252 . S
C3 O6 1.252 . S
C3 O7 1.260 . S
C4 O11 1.240 . S
C4 O12 1.252 . S
C5 O8 1.252 . S
C5 O9 1.260 . S
O6 In0 2.266 . S
O6 C3 1.252 . S
O7 In0 2.326 . S
O7 C3 1.260 . S
O8 In0 2.266 . S
O8 C5 1.252 . S
O9 In0 2.326 . S
O9 C5 1.260 . S
C10 O1 1.240 . S
C10 O2 1.252 . S
O11 In0 2.294 . S
O11 C4 1.240 . S
O12 In0 2.326 . S
O12 C4 1.252 . S
In13 O14 2.294 . S
In13 O15 2.326 . S
In13 O19 2.266 . S
In13 O20 2.326 . S
In13 O21 2.266 . S
In13 O22 2.326 . S
In13 O24 2.294 . S
In13 O25 2.326 . S
O14 In13 2.294 . S
O14 C23 1.240 . S
O15 In13 2.326 . S
O15 C23 1.252 . S
C16 O19 1.252 . S
C16 O20 1.260 . S
C17 O24 1.240 . S
C17 O25 1.252 . S
C18 O21 1.252 . S
C18 O22 1.260 . S
O19 In13 2.266 . S
O19 C16 1.252 . S
O20 In13 2.326 . S
O20 C16 1.260 . S
O21 In13 2.266 . S
O21 C18 1.252 . S
O22 In13 2.326 . S
O22 C18 1.260 . S
C23 O14 1.240 . S
C23 O15 1.252 . S
O24 In13 2.294 . S
O24 C17 1.240 . S
O25 In13 2.326 . S
O25 C17 1.252 . S
In26 O27 2.294 . S
In26 O28 2.326 . S
In26 O32 2.266 . S
In26 O33 2.326 . S
In26 O34 2.266 . S
In26 O35 2.326 . S
In26 O37 2.294 . S
In26 O38 2.326 . S
O27 In26 2.294 . S
O27 C36 1.240 . S
O28 In26 2.326 . S
O28 C36 1.252 . S
C29 O32 1.252 . S
C29 O33 1.260 . S
C30 O37 1.240 . S
C30 O38 1.252 . S
C31 O34 1.252 . S
C31 O35 1.260 . S
O32 In26 2.266 . S
O32 C29 1.252 . S
O33 In26 2.326 . S
O33 C29 1.260 . S
O34 In26 2.266 . S
O34 C31 1.252 . S
O35 In26 2.326 . S
O35 C31 1.260 . S
C36 O27 1.240 . S
C36 O28 1.252 . S
O37 In26 2.294 . S
O37 C30 1.240 . S
O38 In26 2.326 . S
O38 C30 1.252 . S
In39 O40 2.294 . S
In39 O41 2.326 . S
In39 O45 2.266 . S
In39 O46 2.326 . S
In39 O47 2.266 . S
In39 O48 2.326 . S
In39 O50 2.294 . S
In39 O51 2.326 . S
O40 In39 2.294 . S
O40 C49 1.240 . S
O41 In39 2.326 . S
O41 C49 1.252 . S
C42 O45 1.252 . S
C42 O46 1.260 . S
C43 O50 1.240 . S
C43 O51 1.252 . S
C44 O47 1.252 . S
C44 O48 1.260 . S
O45 In39 2.266 . S
O45 C42 1.252 . S
O46 In39 2.326 . S
O46 C42 1.260 . S
O47 In39 2.266 . S
O47 C44 1.252 . S
O48 In39 2.326 . S
O48 C44 1.260 . S
C49 O40 1.240 . S
C49 O41 1.252 . S
O50 In39 2.294 . S
O50 C43 1.240 . S
O51 In39 2.326 . S
O51 C43 1.252 . S
In52 O53 2.294 . S
In52 O54 2.326 . S
In52 O58 2.266 . S
In52 O59 2.326 . S
In52 O60 2.266 . S
In52 O61 2.326 . S
In52 O63 2.294 . S
In52 O64 2.326 . S
O53 In52 2.294 . S
O53 C62 1.240 . S
O54 In52 2.326 . S
O54 C62 1.252 . S
C55 O58 1.252 . S
C55 O59 1.260 . S
C56 O63 1.240 . S
C56 O64 1.252 . S
C57 O60 1.252 . S
C57 O61 1.260 . S
O58 In52 2.266 . S
O58 C55 1.252 . S
O59 In52 2.326 . S
O59 C55 1.260 . S
O60 In52 2.266 . S
O60 C57 1.252 . S
O61 In52 2.326 . S
O61 C57 1.260 . S
C62 O53 1.240 . S
C62 O54 1.252 . S
O63 In52 2.294 . S
O63 C56 1.240 . S
O64 In52 2.326 . S
O64 C56 1.252 . S
In65 O66 2.294 . S
In65 O67 2.326 . S
In65 O71 2.266 . S
In65 O72 2.326 . S
In65 O73 2.266 . S
In65 O74 2.326 . S
In65 O76 2.294 . S
In65 O77 2.326 . S
O66 In65 2.294 . S
O66 C75 1.240 . S
O67 In65 2.326 . S
O67 C75 1.252 . S
C68 O71 1.252 . S
C68 O72 1.260 . S
C69 O76 1.240 . S
C69 O77 1.252 . S
C70 O73 1.252 . S
C70 O74 1.260 . S
O71 In65 2.266 . S
O71 C68 1.252 . S
O72 In65 2.326 . S
O72 C68 1.260 . S
O73 In65 2.266 . S
O73 C70 1.252 . S
O74 In65 2.326 . S
O74 C70 1.260 . S
C75 O66 1.240 . S
C75 O67 1.252 . S
O76 In65 2.294 . S
O76 C69 1.240 . S
O77 In65 2.326 . S
O77 C69 1.252 . S
In78 O79 2.294 . S
In78 O80 2.326 . S
In78 O84 2.266 . S
In78 O85 2.326 1_565 S
In78 O86 2.266 1_565 S
In78 O87 2.326 1_565 S
In78 O89 2.294 . S
In78 O90 2.326 . S
O79 In78 2.294 . S
O79 C88 1.240 . S
O80 In78 2.326 . S
O80 C88 1.252 . S
C81 O84 1.252 1_545 S
C81 O85 1.260 . S
C82 O89 1.240 . S
C82 O90 1.252 . S
C83 O86 1.252 . S
C83 O87 1.260 . S
O84 In78 2.266 . S
O84 C81 1.252 1_565 S
O85 In78 2.326 1_545 S
O85 C81 1.260 . S
O86 In78 2.266 1_545 S
O86 C83 1.252 . S
O87 In78 2.326 1_545 S
O87 C83 1.260 . S
C88 O79 1.240 . S
C88 O80 1.252 . S
O89 In78 2.294 . S
O89 C82 1.240 . S
O90 In78 2.326 . S
O90 C82 1.252 . S
In91 O92 2.294 . S
In91 O93 2.326 . S
In91 O97 2.266 . S
In91 O98 2.326 . S
In91 O99 2.266 . S
In91 O100 2.326 . S
In91 O102 2.294 . S
In91 O103 2.326 . S
O92 In91 2.294 . S
O92 C101 1.240 . S
O93 In91 2.326 . S
O93 C101 1.252 . S
C94 O97 1.252 . S
C94 O98 1.260 . S
C95 O102 1.240 . S
C95 O103 1.252 . S
C96 O99 1.252 . S
C96 O100 1.260 . S
O97 In91 2.266 . S
O97 C94 1.252 . S
O98 In91 2.326 . S
O98 C94 1.260 . S
O99 In91 2.266 . S
O99 C96 1.252 . S
O100 In91 2.326 . S
O100 C96 1.260 . S
C101 O92 1.240 . S
C101 O93 1.252 . S
O102 In91 2.294 . S
O102 C95 1.240 . S
O103 In91 2.326 . S
O103 C95 1.252 . S
In104 O105 2.294 . S
In104 O106 2.326 . S
In104 O110 2.266 . S
In104 O111 2.326 . S
In104 O112 2.266 . S
In104 O113 2.326 . S
In104 O115 2.294 . S
In104 O116 2.326 . S
O105 In104 2.294 . S
O105 C114 1.240 . S
O106 In104 2.326 . S
O106 C114 1.252 . S
C107 O110 1.252 . S
C107 O111 1.260 . S
C108 O115 1.240 . S
C108 O116 1.252 . S
C109 O112 1.252 . S
C109 O113 1.260 . S
O110 In104 2.266 . S
O110 C107 1.252 . S
O111 In104 2.326 . S
O111 C107 1.260 . S
O112 In104 2.266 . S
O112 C109 1.252 . S
O113 In104 2.326 . S
O113 C109 1.260 . S
C114 O105 1.240 . S
C114 O106 1.252 . S
O115 In104 2.294 . S
O115 C108 1.240 . S
O116 In104 2.326 . S
O116 C108 1.252 . S
In117 O118 2.294 . S
In117 O119 2.326 . S
In117 O123 2.266 . S
In117 O124 2.326 . S
In117 O125 2.266 . S
In117 O126 2.326 . S
In117 O128 2.294 . S
In117 O129 2.326 . S
O118 In117 2.294 . S
O118 C127 1.240 1_554 S
O119 In117 2.326 . S
O119 C127 1.252 1_554 S
C120 O123 1.252 . S
C120 O124 1.260 . S
C121 O128 1.240 . S
C121 O129 1.252 . S
C122 O125 1.252 . S
C122 O126 1.260 . S
O123 In117 2.266 . S
O123 C120 1.252 . S
O124 In117 2.326 . S
O124 C120 1.260 . S
O125 In117 2.266 . S
O125 C122 1.252 . S
O126 In117 2.326 . S
O126 C122 1.260 . S
C127 O118 1.240 1_556 S
C127 O119 1.252 1_556 S
O128 In117 2.294 . S
O128 C121 1.240 . S
O129 In117 2.326 . S
O129 C121 1.252 . S
In130 O131 2.294 . S
In130 O132 2.326 . S
In130 O136 2.266 . S
In130 O137 2.326 1_565 S
In130 O138 2.266 1_565 S
In130 O139 2.326 1_565 S
In130 O141 2.294 . S
In130 O142 2.326 . S
O131 In130 2.294 . S
O131 C140 1.240 . S
O132 In130 2.326 . S
O132 C140 1.252 . S
C133 O136 1.252 1_545 S
C133 O137 1.260 . S
C134 O141 1.240 1_556 S
C134 O142 1.252 1_556 S
C135 O138 1.252 . S
C135 O139 1.260 . S
O136 In130 2.266 . S
O136 C133 1.252 1_565 S
O137 In130 2.326 1_545 S
O137 C133 1.260 . S
O138 In130 2.266 1_545 S
O138 C135 1.252 . S
O139 In130 2.326 1_545 S
O139 C135 1.260 . S
C140 O131 1.240 . S
C140 O132 1.252 . S
O141 In130 2.294 . S
O141 C134 1.240 1_554 S
O142 In130 2.326 . S
O142 C134 1.252 1_554 S
In143 O144 2.294 . S
In143 O145 2.326 . S
In143 O149 2.266 . S
In143 O150 2.326 . S
In143 O151 2.266 . S
In143 O152 2.326 . S
In143 O154 2.294 . S
In143 O155 2.326 . S
O144 In143 2.294 . S
O144 C153 1.240 1_554 S
O145 In143 2.326 . S
O145 C153 1.252 1_554 S
C146 O149 1.252 . S
C146 O150 1.260 . S
C147 O154 1.240 . S
C147 O155 1.252 . S
C148 O151 1.252 . S
C148 O152 1.260 . S
O149 In143 2.266 . S
O149 C146 1.252 . S
O150 In143 2.326 . S
O150 C146 1.260 . S
O151 In143 2.266 . S
O151 C148 1.252 . S
O152 In143 2.326 . S
O152 C148 1.260 . S
C153 O144 1.240 1_556 S
C153 O145 1.252 1_556 S
O154 In143 2.294 . S
O154 C147 1.240 . S
O155 In143 2.326 . S
O155 C147 1.252 . S
In156 O157 2.294 . S
In156 O158 2.326 . S
In156 O162 2.266 . S
In156 O163 2.326 . S
In156 O164 2.266 . S
In156 O165 2.326 . S
In156 O167 2.294 . S
In156 O168 2.326 . S
O157 In156 2.294 . S
O157 C166 1.240 1_556 S
O158 In156 2.326 . S
O158 C166 1.252 1_556 S
C159 O162 1.252 . S
C159 O163 1.260 . S
C160 O167 1.240 . S
C160 O168 1.252 . S
C161 O164 1.252 . S
C161 O165 1.260 . S
O162 In156 2.266 . S
O162 C159 1.252 . S
O163 In156 2.326 . S
O163 C159 1.260 . S
O164 In156 2.266 . S
O164 C161 1.252 . S
O165 In156 2.326 . S
O165 C161 1.260 . S
C166 O157 1.240 1_554 S
C166 O158 1.252 1_554 S
O167 In156 2.294 . S
O167 C160 1.240 . S
O168 In156 2.326 . S
O168 C160 1.252 . S
In169 O170 2.294 . S
In169 O171 2.326 . S
In169 O175 2.266 . S
In169 O176 2.326 . S
In169 O177 2.266 . S
In169 O178 2.326 . S
In169 O180 2.294 . S
In169 O181 2.326 . S
O170 In169 2.294 . S
O170 C179 1.240 1_556 S
O171 In169 2.326 . S
O171 C179 1.252 1_556 S
C172 O175 1.252 . S
C172 O176 1.260 . S
C173 O180 1.240 . S
C173 O181 1.252 . S
C174 O177 1.252 . S
C174 O178 1.260 . S
O175 In169 2.266 . S
O175 C172 1.252 . S
O176 In169 2.326 . S
O176 C172 1.260 . S
O177 In169 2.266 . S
O177 C174 1.252 . S
O178 In169 2.326 . S
O178 C174 1.260 . S
C179 O170 1.240 1_554 S
C179 O171 1.252 1_554 S
O180 In169 2.294 . S
O180 C173 1.240 . S
O181 In169 2.326 . S
O181 C173 1.252 . S
In182 O183 2.294 . S
In182 O184 2.326 . S
In182 O188 2.266 1_655 S
In182 O189 2.326 1_655 S
In182 O190 2.266 . S
In182 O191 2.326 1_655 S
In182 O193 2.294 . S
In182 O194 2.326 . S
O183 In182 2.294 . S
O183 C192 1.240 1_556 S
O184 In182 2.326 . S
O184 C192 1.252 1_556 S
C185 O188 1.252 . S
C185 O189 1.260 . S
C186 O193 1.240 . S
C186 O194 1.252 . S
C187 O190 1.252 1_455 S
C187 O191 1.260 . S
O188 In182 2.266 1_455 S
O188 C185 1.252 . S
O189 In182 2.326 1_455 S
O189 C185 1.260 . S
O190 In182 2.266 . S
O190 C187 1.252 1_655 S
O191 In182 2.326 1_455 S
O191 C187 1.260 . S
C192 O183 1.240 1_554 S
C192 O184 1.252 1_554 S
O193 In182 2.294 . S
O193 C186 1.240 . S
O194 In182 2.326 . S
O194 C186 1.252 . S
In195 O196 2.294 . S
In195 O197 2.326 . S
In195 O201 2.266 . S
In195 O202 2.326 . S
In195 O203 2.266 . S
In195 O204 2.326 . S
In195 O206 2.294 . S
In195 O207 2.326 . S
O196 In195 2.294 . S
O196 C205 1.240 . S
O197 In195 2.326 . S
O197 C205 1.252 . S
C198 O201 1.252 . S
C198 O202 1.260 . S
C199 O206 1.240 . S
C199 O207 1.252 . S
C200 O203 1.252 . S
C200 O204 1.260 . S
O201 In195 2.266 . S
O201 C198 1.252 . S
O202 In195 2.326 . S
O202 C198 1.260 . S
O203 In195 2.266 . S
O203 C200 1.252 . S
O204 In195 2.326 . S
O204 C200 1.260 . S
C205 O196 1.240 . S
C205 O197 1.252 . S
O206 In195 2.294 . S
O206 C199 1.240 . S
O207 In195 2.326 . S
O207 C199 1.252 . S
In208 O209 2.294 . S
In208 O210 2.326 . S
In208 O214 2.266 1_655 S
In208 O215 2.326 1_655 S
In208 O216 2.266 . S
In208 O217 2.326 1_655 S
In208 O219 2.294 . S
In208 O220 2.326 . S
O209 In208 2.294 . S
O209 C218 1.240 . S
O210 In208 2.326 . S
O210 C218 1.252 . S
C211 O214 1.252 . S
C211 O215 1.260 . S
C212 O219 1.240 . S
C212 O220 1.252 . S
C213 O216 1.252 1_455 S
C213 O217 1.260 . S
O214 In208 2.266 1_455 S
O214 C211 1.252 . S
O215 In208 2.326 1_455 S
O215 C211 1.260 . S
O216 In208 2.266 . S
O216 C213 1.252 1_655 S
O217 In208 2.326 1_455 S
O217 C213 1.260 . S
C218 O209 1.240 . S
C218 O210 1.252 . S
O219 In208 2.294 . S
O219 C212 1.240 . S
O220 In208 2.326 . S
O220 C212 1.252 . S
In221 O222 2.294 . S
In221 O223 2.326 . S
In221 O227 2.266 . S
In221 O228 2.326 . S
In221 O229 2.266 . S
In221 O230 2.326 . S
In221 O232 2.294 . S
In221 O233 2.326 . S
O222 In221 2.294 . S
O222 C231 1.240 . S
O223 In221 2.326 . S
O223 C231 1.252 . S
C224 O227 1.252 . S
C224 O228 1.260 . S
C225 O232 1.240 . S
C225 O233 1.252 . S
C226 O229 1.252 . S
C226 O230 1.260 . S
O227 In221 2.266 . S
O227 C224 1.252 . S
O228 In221 2.326 . S
O228 C224 1.260 . S
O229 In221 2.266 . S
O229 C226 1.252 . S
O230 In221 2.326 . S
O230 C226 1.260 . S
C231 O222 1.240 . S
C231 O223 1.252 . S
O232 In221 2.294 . S
O232 C225 1.240 . S
O233 In221 2.326 . S
O233 C225 1.252 . S
H234 C240 0.930 . S
H235 C244 0.930 . S
H236 C249 0.929 . S
H237 C247 0.929 . S
H238 C242 0.929 . S
H239 C248 0.929 . S
C240 H234 0.930 . S
C240 C241 1.367 . S
C240 C248 1.378 . S
C241 C240 1.367 . S
C241 C249 1.433 . S
C242 H238 0.929 . S
C242 C244 1.378 . S
C242 C246 1.350 . S
C243 C246 1.463 1_556 S
C243 C248 1.350 . S
C243 N251 1.427 . S
C244 H235 0.930 . S
C244 C242 1.378 . S
C244 C245 1.367 . S
C245 C244 1.367 . S
C245 C247 1.433 . S
C246 C242 1.350 . S
C246 C243 1.463 1_554 S
C246 N250 1.427 . S
C247 H237 0.929 . S
C247 C245 1.433 . S
C247 N250 1.384 . S
C248 H239 0.929 . S
C248 C240 1.378 . S
C248 C243 1.350 . S
C249 H236 0.929 . S
C249 C241 1.433 . S
C249 N251 1.384 . S
N250 C246 1.427 . S
N250 C247 1.384 . S
N251 C243 1.427 . S
N251 C249 1.384 . S
H252 C258 0.930 . S
H253 C262 0.930 . S
H254 C267 0.929 . S
H255 C265 0.929 . S
H256 C260 0.929 . S
H257 C266 0.929 . S
C258 H252 0.930 . S
C258 C259 1.367 . S
C258 C266 1.378 . S
C259 C258 1.367 . S
C259 C267 1.433 . S
C260 H256 0.929 . S
C260 C262 1.378 . S
C260 C264 1.350 . S
C261 C264 1.463 1_556 S
C261 C266 1.350 . S
C261 N269 1.427 . S
C262 H253 0.930 . S
C262 C260 1.378 . S
C262 C263 1.367 . S
C263 C262 1.367 . S
C263 C265 1.433 . S
C264 C260 1.350 . S
C264 C261 1.463 1_554 S
C264 N268 1.427 . S
C265 H255 0.929 . S
C265 C263 1.433 . S
C265 N268 1.384 . S
C266 H257 0.929 . S
C266 C258 1.378 . S
C266 C261 1.350 . S
C267 H254 0.929 . S
C267 C259 1.433 . S
C267 N269 1.384 . S
N268 C264 1.427 . S
N268 C265 1.384 . S
N269 C261 1.427 . S
N269 C267 1.384 . S
H270 C276 0.930 . S
H271 C280 0.930 . S
H272 C285 0.929 . S
H273 C283 0.929 . S
H274 C278 0.929 . S
H275 C284 0.929 . S
C276 H270 0.930 . S
C276 C277 1.367 . S
C276 C284 1.378 . S
C277 C276 1.367 . S
C277 C285 1.433 . S
C278 H274 0.929 . S
C278 C280 1.378 . S
C278 C282 1.350 . S
C279 C282 1.463 1_554 S
C279 C284 1.350 . S
C279 N287 1.427 . S
C280 H271 0.930 . S
C280 C278 1.378 . S
C280 C281 1.367 . S
C281 C280 1.367 . S
C281 C283 1.433 . S
C282 C278 1.350 . S
C282 C279 1.463 1_556 S
C282 N286 1.427 . S
C283 H273 0.929 . S
C283 C281 1.433 . S
C283 N286 1.384 . S
C284 H275 0.929 . S
C284 C276 1.378 . S
C284 C279 1.350 . S
C285 H272 0.929 . S
C285 C277 1.433 . S
C285 N287 1.384 . S
N286 C282 1.427 . S
N286 C283 1.384 . S
N287 C279 1.427 . S
N287 C285 1.384 . S
H288 C294 0.930 . S
H289 C298 0.930 . S
H290 C303 0.929 . S
H291 C301 0.929 . S
H292 C296 0.929 . S
H293 C302 0.929 . S
C294 H288 0.930 . S
C294 C295 1.367 . S
C294 C302 1.378 . S
C295 C294 1.367 . S
C295 C303 1.433 . S
C296 H292 0.929 . S
C296 C298 1.378 . S
C296 C300 1.350 . S
C297 C300 1.463 . S
C297 C302 1.350 . S
C297 N305 1.427 . S
C298 H289 0.930 . S
C298 C296 1.378 . S
C298 C299 1.367 . S
C299 C298 1.367 . S
C299 C301 1.433 . S
C300 C296 1.350 . S
C300 C297 1.463 . S
C300 N304 1.427 . S
C301 H291 0.929 . S
C301 C299 1.433 . S
C301 N304 1.384 . S
C302 H293 0.929 . S
C302 C294 1.378 . S
C302 C297 1.350 . S
C303 H290 0.929 . S
C303 C295 1.433 . S
C303 N305 1.384 . S
N304 C300 1.427 . S
N304 C301 1.384 . S
N305 C297 1.427 . S
N305 C303 1.384 . S
H306 C312 0.930 . S
H307 C316 0.930 . S
H308 C321 0.929 . S
H309 C319 0.929 . S
H310 C314 0.929 . S
H311 C320 0.929 . S
C312 H306 0.930 . S
C312 C313 1.367 . S
C312 C320 1.378 . S
C313 C312 1.367 . S
C313 C321 1.433 . S
C314 H310 0.929 . S
C314 C316 1.378 . S
C314 C318 1.350 . S
C315 C318 1.463 . S
C315 C320 1.350 . S
C315 N323 1.427 . S
C316 H307 0.930 . S
C316 C314 1.378 . S
C316 C317 1.367 . S
C317 C316 1.367 . S
C317 C319 1.433 . S
C318 C314 1.350 . S
C318 C315 1.463 . S
C318 N322 1.427 . S
C319 H309 0.929 . S
C319 C317 1.433 . S
C319 N322 1.384 . S
C320 H311 0.929 . S
C320 C312 1.378 . S
C320 C315 1.350 . S
C321 H308 0.929 . S
C321 C313 1.433 . S
C321 N323 1.384 . S
N322 C318 1.427 . S
N322 C319 1.384 . S
N323 C315 1.427 . S
N323 C321 1.384 . S
H324 C330 0.930 . S
H325 C334 0.930 . S
H326 C339 0.929 . S
H327 C337 0.929 . S
H328 C332 0.929 . S
H329 C338 0.929 . S
C330 H324 0.930 . S
C330 C331 1.367 . S
C330 C338 1.378 . S
C331 C330 1.367 . S
C331 C339 1.433 . S
C332 H328 0.929 . S
C332 C334 1.378 . S
C332 C336 1.350 . S
C333 C336 1.463 . S
C333 C338 1.350 . S
C333 N341 1.427 . S
C334 H325 0.930 . S
C334 C332 1.378 . S
C334 C335 1.367 . S
C335 C334 1.367 . S
C335 C337 1.433 . S
C336 C332 1.350 . S
C336 C333 1.463 . S
C336 N340 1.427 . S
C337 H327 0.929 . S
C337 C335 1.433 . S
C337 N340 1.384 . S
C338 H329 0.929 . S
C338 C330 1.378 . S
C338 C333 1.350 . S
C339 H326 0.929 . S
C339 C331 1.433 . S
C339 N341 1.384 . S
N340 C336 1.427 . S
N340 C337 1.384 . S
N341 C333 1.427 . S
N341 C339 1.384 . S
H342 C348 0.930 . S
H343 C352 0.930 . S
H344 C357 0.929 . S
H345 C355 0.929 . S
H346 C350 0.929 . S
H347 C356 0.929 . S
C348 H342 0.930 . S
C348 C349 1.367 . S
C348 C356 1.378 . S
C349 C348 1.367 . S
C349 C357 1.433 . S
C350 H346 0.929 . S
C350 C352 1.378 . S
C350 C354 1.350 . S
C351 C354 1.463 . S
C351 C356 1.350 . S
C351 N359 1.427 . S
C352 H343 0.930 . S
C352 C350 1.378 . S
C352 C353 1.367 . S
C353 C352 1.367 . S
C353 C355 1.433 . S
C354 C350 1.350 . S
C354 C351 1.463 . S
C354 N358 1.427 . S
C355 H345 0.929 . S
C355 C353 1.433 . S
C355 N358 1.384 . S
C356 H347 0.929 . S
C356 C348 1.378 . S
C356 C351 1.350 . S
C357 H344 0.929 . S
C357 C349 1.433 . S
C357 N359 1.384 . S
N358 C354 1.427 . S
N358 C355 1.384 . S
N359 C351 1.427 . S
N359 C357 1.384 . S
H360 C366 0.930 . S
H361 C370 0.930 . S
H362 C375 0.929 . S
H363 C373 0.929 . S
H364 C368 0.929 . S
H365 C374 0.929 . S
C366 H360 0.930 . S
C366 C367 1.367 . S
C366 C374 1.378 . S
C367 C366 1.367 . S
C367 C375 1.433 . S
C368 H364 0.929 . S
C368 C370 1.378 . S
C368 C372 1.350 . S
C369 C372 1.463 . S
C369 C374 1.350 . S
C369 N377 1.427 . S
C370 H361 0.930 . S
C370 C368 1.378 . S
C370 C371 1.367 . S
C371 C370 1.367 . S
C371 C373 1.433 . S
C372 C368 1.350 . S
C372 C369 1.463 . S
C372 N376 1.427 . S
C373 H363 0.929 . S
C373 C371 1.433 . S
C373 N376 1.384 . S
C374 H365 0.929 . S
C374 C366 1.378 . S
C374 C369 1.350 . S
C375 H362 0.929 . S
C375 C367 1.433 . S
C375 N377 1.384 . S
N376 C372 1.427 . S
N376 C373 1.384 . S
N377 C369 1.427 . S
N377 C375 1.384 . S
H378 C384 0.930 . S
H379 C388 0.930 . S
H380 C393 0.929 . S
H381 C391 0.929 . S
H382 C386 0.929 . S
H383 C392 0.929 . S
C384 H378 0.930 . S
C384 C385 1.367 . S
C384 C392 1.378 . S
C385 C384 1.367 . S
C385 C393 1.433 . S
C386 H382 0.929 . S
C386 C388 1.378 . S
C386 C390 1.350 . S
C387 C390 1.463 . S
C387 C392 1.350 . S
C387 N395 1.427 . S
C388 H379 0.930 . S
C388 C386 1.378 . S
C388 C389 1.367 . S
C389 C388 1.367 . S
C389 C391 1.433 . S
C390 C386 1.350 . S
C390 C387 1.463 . S
C390 N394 1.427 . S
C391 H381 0.929 . S
C391 C389 1.433 . S
C391 N394 1.384 . S
C392 H383 0.929 . S
C392 C384 1.378 . S
C392 C387 1.350 . S
C393 H380 0.929 . S
C393 C385 1.433 . S
C393 N395 1.384 . S
N394 C390 1.427 . S
N394 C391 1.384 . S
N395 C387 1.427 . S
N395 C393 1.384 . S
H396 C402 0.930 . S
H397 C406 0.930 . S
H398 C411 0.929 . S
H399 C409 0.929 . S
H400 C404 0.929 . S
H401 C410 0.929 . S
C402 H396 0.930 . S
C402 C403 1.367 . S
C402 C410 1.378 . S
C403 C402 1.367 . S
C403 C411 1.433 . S
C404 H400 0.929 . S
C404 C406 1.378 . S
C404 C408 1.350 . S
C405 C408 1.463 . S
C405 C410 1.350 . S
C405 N413 1.427 . S
C406 H397 0.930 . S
C406 C404 1.378 . S
C406 C407 1.367 . S
C407 C406 1.367 . S
C407 C409 1.433 . S
C408 C404 1.350 . S
C408 C405 1.463 . S
C408 N412 1.427 . S
C409 H399 0.929 . S
C409 C407 1.433 . S
C409 N412 1.384 . S
C410 H401 0.929 . S
C410 C402 1.378 . S
C410 C405 1.350 . S
C411 H398 0.929 . S
C411 C403 1.433 . S
C411 N413 1.384 . S
N412 C408 1.427 . S
N412 C409 1.384 . S
N413 C405 1.427 . S
N413 C411 1.384 . S
H414 C420 0.930 1_554 S
H415 C424 0.930 . S
H416 C429 0.929 . S
H417 C427 0.929 . S
H418 C422 0.929 . S
H419 C428 0.929 . S
C420 H414 0.930 1_556 S
C420 C421 1.367 . S
C420 C428 1.378 . S
C421 C420 1.367 . S
C421 C429 1.433 . S
C422 H418 0.929 . S
C422 C424 1.378 . S
C422 C426 1.350 . S
C423 C426 1.463 . S
C423 C428 1.350 . S
C423 N431 1.427 . S
C424 H415 0.930 . S
C424 C422 1.378 . S
C424 C425 1.367 . S
C425 C424 1.367 . S
C425 C427 1.433 . S
C426 C422 1.350 . S
C426 C423 1.463 . S
C426 N430 1.427 . S
C427 H417 0.929 . S
C427 C425 1.433 . S
C427 N430 1.384 . S
C428 H419 0.929 . S
C428 C420 1.378 . S
C428 C423 1.350 . S
C429 H416 0.929 . S
C429 C421 1.433 . S
C429 N431 1.384 . S
N430 C426 1.427 . S
N430 C427 1.384 . S
N431 C423 1.427 . S
N431 C429 1.384 . S
H432 C438 0.930 . S
H433 C442 0.930 . S
H434 C447 0.929 . S
H435 C445 0.929 . S
H436 C440 0.929 . S
H437 C446 0.929 . S
C438 H432 0.930 . S
C438 C439 1.367 . S
C438 C446 1.378 . S
C439 C438 1.367 . S
C439 C447 1.433 . S
C440 H436 0.929 . S
C440 C442 1.378 . S
C440 C444 1.350 . S
C441 C444 1.463 . S
C441 C446 1.350 . S
C441 N449 1.427 . S
C442 H433 0.930 . S
C442 C440 1.378 . S
C442 C443 1.367 . S
C443 C442 1.367 . S
C443 C445 1.433 . S
C444 C440 1.350 . S
C444 C441 1.463 . S
C444 N448 1.427 . S
C445 H435 0.929 . S
C445 C443 1.433 . S
C445 N448 1.384 . S
C446 H437 0.929 . S
C446 C438 1.378 . S
C446 C441 1.350 . S
C447 H434 0.929 . S
C447 C439 1.433 . S
C447 N449 1.384 . S
N448 C444 1.427 . S
N448 C445 1.384 . S
N449 C441 1.427 . S
N449 C447 1.384 . S
H450 C456 0.930 . S
H451 C460 0.930 . S
H452 C465 0.929 . S
H453 C463 0.929 . S
H454 C458 0.929 . S
H455 C464 0.929 . S
C456 H450 0.930 . S
C456 C457 1.367 . S
C456 C464 1.378 . S
C457 C456 1.367 . S
C457 C465 1.433 . S
C458 H454 0.929 . S
C458 C460 1.378 . S
C458 C462 1.350 . S
C459 C462 1.463 . S
C459 C464 1.350 . S
C459 N467 1.427 . S
C460 H451 0.930 . S
C460 C458 1.378 . S
C460 C461 1.367 . S
C461 C460 1.367 . S
C461 C463 1.433 . S
C462 C458 1.350 . S
C462 C459 1.463 . S
C462 N466 1.427 . S
C463 H453 0.929 . S
C463 C461 1.433 . S
C463 N466 1.384 . S
C464 H455 0.929 . S
C464 C456 1.378 . S
C464 C459 1.350 . S
C465 H452 0.929 . S
C465 C457 1.433 . S
C465 N467 1.384 . S
N466 C462 1.427 . S
N466 C463 1.384 . S
N467 C459 1.427 . S
N467 C465 1.384 . S
H468 C474 0.930 . S
H469 C478 0.930 . S
H470 C483 0.929 . S
H471 C481 0.929 . S
H472 C476 0.929 . S
H473 C482 0.929 . S
C474 H468 0.930 . S
C474 C475 1.367 . S
C474 C482 1.378 . S
C475 C474 1.367 . S
C475 C483 1.433 . S
C476 H472 0.929 . S
C476 C478 1.378 . S
C476 C480 1.350 . S
C477 C480 1.463 . S
C477 C482 1.350 . S
C477 N485 1.427 . S
C478 H469 0.930 . S
C478 C476 1.378 . S
C478 C479 1.367 . S
C479 C478 1.367 . S
C479 C481 1.433 . S
C480 C476 1.350 . S
C480 C477 1.463 . S
C480 N484 1.427 . S
C481 H471 0.929 . S
C481 C479 1.433 . S
C481 N484 1.384 . S
C482 H473 0.929 . S
C482 C474 1.378 . S
C482 C477 1.350 . S
C483 H470 0.929 . S
C483 C475 1.433 . S
C483 N485 1.384 . S
N484 C480 1.427 . S
N484 C481 1.384 . S
N485 C477 1.427 . S
N485 C483 1.384 . S
H486 C492 0.930 . S
H487 C496 0.930 . S
H488 C501 0.929 . S
H489 C499 0.929 . S
H490 C494 0.929 . S
H491 C500 0.929 . S
C492 H486 0.930 . S
C492 C493 1.367 . S
C492 C500 1.378 . S
C493 C492 1.367 . S
C493 C501 1.433 . S
C494 H490 0.929 . S
C494 C496 1.378 . S
C494 C498 1.350 . S
C495 C498 1.463 . S
C495 C500 1.350 . S
C495 N503 1.427 . S
C496 H487 0.930 . S
C496 C494 1.378 . S
C496 C497 1.367 . S
C497 C496 1.367 . S
C497 C499 1.433 . S
C498 C494 1.350 . S
C498 C495 1.463 . S
C498 N502 1.427 . S
C499 H489 0.929 . S
C499 C497 1.433 . S
C499 N502 1.384 . S
C500 H491 0.929 . S
C500 C492 1.378 . S
C500 C495 1.350 . S
C501 H488 0.929 . S
C501 C493 1.433 . S
C501 N503 1.384 . S
N502 C498 1.427 . S
N502 C499 1.384 . S
N503 C495 1.427 . S
N503 C501 1.384 . S
H504 C510 0.930 . S
H505 C514 0.930 . S
H506 C519 0.929 . S
H507 C517 0.929 . S
H508 C512 0.929 . S
H509 C518 0.929 . S
C510 H504 0.930 . S
C510 C511 1.367 . S
C510 C518 1.378 . S
C511 C510 1.367 . S
C511 C519 1.433 . S
C512 H508 0.929 . S
C512 C514 1.378 . S
C512 C516 1.350 . S
C513 C516 1.463 . S
C513 C518 1.350 . S
C513 N521 1.427 . S
C514 H505 0.930 . S
C514 C512 1.378 . S
C514 C515 1.367 . S
C515 C514 1.367 . S
C515 C517 1.433 . S
C516 C512 1.350 . S
C516 C513 1.463 . S
C516 N520 1.427 . S
C517 H507 0.929 . S
C517 C515 1.433 . S
C517 N520 1.384 . S
C518 H509 0.929 . S
C518 C510 1.378 . S
C518 C513 1.350 . S
C519 H506 0.929 . S
C519 C511 1.433 . S
C519 N521 1.384 . S
N520 C516 1.427 . S
N520 C517 1.384 . S
N521 C513 1.427 . S
N521 C519 1.384 . S
H522 C528 0.930 . S
H523 C532 0.930 . S
H524 C537 0.929 . S
H525 C535 0.929 . S
H526 C530 0.929 . S
H527 C536 0.929 . S
C528 H522 0.930 . S
C528 C529 1.367 . S
C528 C536 1.378 . S
C529 C528 1.367 . S
C529 C537 1.433 . S
C530 H526 0.929 . S
C530 C532 1.378 . S
C530 C534 1.350 . S
C531 C534 1.463 . S
C531 C536 1.350 . S
C531 N539 1.427 . S
C532 H523 0.930 . S
C532 C530 1.378 . S
C532 C533 1.367 . S
C533 C532 1.367 . S
C533 C535 1.433 . S
C534 C530 1.350 . S
C534 C531 1.463 . S
C534 N538 1.427 . S
C535 H525 0.929 . S
C535 C533 1.433 . S
C535 N538 1.384 . S
C536 H527 0.929 . S
C536 C528 1.378 . S
C536 C531 1.350 . S
C537 H524 0.929 . S
C537 C529 1.433 . S
C537 N539 1.384 . S
N538 C534 1.427 . S
N538 C535 1.384 . S
N539 C531 1.427 . S
N539 C537 1.384 . S
H540 C546 0.930 . S
H541 C550 0.930 . S
H542 C555 0.929 . S
H543 C553 0.929 1_556 S
H544 C548 0.929 . S
H545 C554 0.929 . S
C546 H540 0.930 . S
C546 C547 1.367 . S
C546 C554 1.378 . S
C547 C546 1.367 . S
C547 C555 1.433 . S
C548 H544 0.929 . S
C548 C550 1.378 . S
C548 C552 1.350 . S
C549 C552 1.463 . S
C549 C554 1.350 . S
C549 N557 1.427 . S
C550 H541 0.930 . S
C550 C548 1.378 . S
C550 C551 1.367 . S
C551 C550 1.367 . S
C551 C553 1.433 . S
C552 C548 1.350 . S
C552 C549 1.463 . S
C552 N556 1.427 . S
C553 H543 0.929 1_554 S
C553 C551 1.433 . S
C553 N556 1.384 . S
C554 H545 0.929 . S
C554 C546 1.378 . S
C554 C549 1.350 . S
C555 H542 0.929 . S
C555 C547 1.433 . S
C555 N557 1.384 . S
N556 C552 1.427 . S
N556 C553 1.384 . S
N557 C549 1.427 . S
N557 C555 1.384 . S
H558 C564 0.930 . S
H559 C568 0.930 . S
H560 C573 0.929 . S
H561 C571 0.929 . S
H562 C566 0.929 . S
H563 C572 0.929 . S
C564 H558 0.930 . S
C564 C565 1.367 . S
C564 C572 1.378 . S
C565 C564 1.367 . S
C565 C573 1.433 . S
C566 H562 0.929 . S
C566 C568 1.378 . S
C566 C570 1.350 . S
C567 C570 1.463 . S
C567 C572 1.350 . S
C567 N575 1.427 . S
C568 H559 0.930 . S
C568 C566 1.378 . S
C568 C569 1.367 . S
C569 C568 1.367 . S
C569 C571 1.433 . S
C570 C566 1.350 . S
C570 C567 1.463 . S
C570 N574 1.427 . S
C571 H561 0.929 . S
C571 C569 1.433 . S
C571 N574 1.384 . S
C572 H563 0.929 . S
C572 C564 1.378 . S
C572 C567 1.350 . S
C573 H560 0.929 . S
C573 C565 1.433 . S
C573 N575 1.384 . S
N574 C570 1.427 . S
N574 C571 1.384 . S
N575 C567 1.427 . S
N575 C573 1.384 . S
H576 C582 0.930 . S
H577 C586 0.930 . S
H578 C591 0.929 . S
H579 C589 0.929 . S
H580 C584 0.929 . S
H581 C590 0.929 . S
C582 H576 0.930 . S
C582 C583 1.367 . S
C582 C590 1.378 . S
C583 C582 1.367 . S
C583 C591 1.433 . S
C584 H580 0.929 . S
C584 C586 1.378 . S
C584 C588 1.350 . S
C585 C588 1.463 . S
C585 C590 1.350 . S
C585 N593 1.427 . S
C586 H577 0.930 . S
C586 C584 1.378 . S
C586 C587 1.367 . S
C587 C586 1.367 . S
C587 C589 1.433 . S
C588 C584 1.350 . S
C588 C585 1.463 . S
C588 N592 1.427 . S
C589 H579 0.929 . S
C589 C587 1.433 . S
C589 N592 1.384 . S
C590 H581 0.929 . S
C590 C582 1.378 . S
C590 C585 1.350 . S
C591 H578 0.929 . S
C591 C583 1.433 . S
C591 N593 1.384 . S
N592 C588 1.427 . S
N592 C589 1.384 . S
N593 C585 1.427 . S
N593 C591 1.384 . S
H594 C600 0.994 . S
H595 C604 0.930 . S
H596 C609 0.929 . S
H597 C607 0.929 . S
H598 C602 0.929 . S
H599 C608 0.938 . S
C600 H594 0.994 . S
C600 C601 1.355 1_565 S
C600 C608 1.329 1_565 S
C601 C600 1.355 1_545 S
C601 C609 1.433 . S
C602 H598 0.929 . S
C602 C604 1.378 . S
C602 C606 1.350 . S
C603 C606 1.463 . S
C603 C608 1.350 . S
C603 N611 1.427 . S
C604 H595 0.930 . S
C604 C602 1.378 . S
C604 C605 1.367 . S
C605 C604 1.367 . S
C605 C607 1.433 . S
C606 C602 1.350 . S
C606 C603 1.463 . S
C606 N610 1.427 . S
C607 H597 0.929 . S
C607 C605 1.433 . S
C607 N610 1.384 . S
C608 H599 0.938 . S
C608 C600 1.329 1_545 S
C608 C603 1.350 . S
C609 H596 0.929 . S
C609 C601 1.433 . S
C609 N611 1.384 . S
N610 C606 1.427 . S
N610 C607 1.384 . S
N611 C603 1.427 . S
N611 C609 1.384 . S
H612 C618 0.930 . S
H613 C622 0.930 . S
H614 C627 0.929 . S
H615 C625 0.929 . S
H616 C620 0.929 . S
H617 C626 0.929 . S
C618 H612 0.930 . S
C618 C619 1.367 . S
C618 C626 1.378 . S
C619 C618 1.367 . S
C619 C627 1.433 . S
C620 H616 0.929 . S
C620 C622 1.378 . S
C620 C624 1.350 1_556 S
C621 C624 1.463 . S
C621 C626 1.350 . S
C621 N629 1.427 . S
C622 H613 0.930 . S
C622 C620 1.378 . S
C622 C623 1.367 . S
C623 C622 1.367 . S
C623 C625 1.433 1_556 S
C624 C620 1.350 1_554 S
C624 C621 1.463 . S
C624 N628 1.427 . S
C625 H615 0.929 . S
C625 C623 1.433 1_554 S
C625 N628 1.384 . S
C626 H617 0.929 . S
C626 C618 1.378 . S
C626 C621 1.350 . S
C627 H614 0.929 . S
C627 C619 1.433 . S
C627 N629 1.384 . S
N628 C624 1.427 . S
N628 C625 1.384 . S
N629 C621 1.427 . S
N629 C627 1.384 . S
H630 C636 0.930 . S
H631 C640 0.930 . S
H632 C645 0.929 . S
H633 C643 0.929 . S
H634 C638 0.929 . S
H635 C644 0.929 . S
C636 H630 0.930 . S
C636 C637 1.367 . S
C636 C644 1.378 . S
C637 C636 1.367 . S
C637 C645 1.433 1_556 S
C638 H634 0.929 . S
C638 C640 1.378 . S
C638 C642 1.350 . S
C639 C642 1.463 . S
C639 C644 1.350 1_554 S
C639 N647 1.427 . S
C640 H631 0.930 . S
C640 C638 1.378 . S
C640 C641 1.367 . S
C641 C640 1.367 . S
C641 C643 1.433 . S
C642 C638 1.350 . S
C642 C639 1.463 . S
C642 N646 1.427 . S
C643 H633 0.929 . S
C643 C641 1.433 . S
C643 N646 1.384 . S
C644 H635 0.929 . S
C644 C636 1.378 . S
C644 C639 1.350 1_556 S
C645 H632 0.929 . S
C645 C637 1.433 1_554 S
C645 N647 1.384 . S
N646 C642 1.427 . S
N646 C643 1.384 . S
N647 C639 1.427 . S
N647 C645 1.384 . S
H648 C654 0.930 1_556 S
H649 C658 0.930 . S
H650 C663 0.929 . S
H651 C661 0.929 . S
H652 C656 0.929 . S
H653 C662 0.929 . S
C654 H648 0.930 1_554 S
C654 C655 1.367 1_554 S
C654 C662 1.378 . S
C655 C654 1.367 1_556 S
C655 C663 1.433 1_556 S
C656 H652 0.929 . S
C656 C658 1.378 . S
C656 C660 1.350 . S
C657 C660 1.463 . S
C657 C662 1.350 . S
C657 N665 1.427 . S
C658 H649 0.930 . S
C658 C656 1.378 . S
C658 C659 1.367 . S
C659 C658 1.367 . S
C659 C661 1.433 . S
C660 C656 1.350 . S
C660 C657 1.463 . S
C660 N664 1.427 . S
C661 H651 0.929 . S
C661 C659 1.433 . S
C661 N664 1.384 . S
C662 H653 0.929 . S
C662 C654 1.378 . S
C662 C657 1.350 . S
C663 H650 0.929 . S
C663 C655 1.433 1_554 S
C663 N665 1.384 . S
N664 C660 1.427 . S
N664 C661 1.384 . S
N665 C657 1.427 . S
N665 C663 1.384 . S
H666 C672 0.930 . S
H667 C676 0.930 . S
H668 C681 0.929 1_655 S
H669 C679 0.929 . S
H670 C674 0.929 . S
H671 C680 0.929 . S
C672 H666 0.930 . S
C672 C673 1.367 . S
C672 C680 1.378 . S
C673 C672 1.367 . S
C673 C681 1.433 . S
C674 H670 0.929 . S
C674 C676 1.378 . S
C674 C678 1.350 . S
C675 C678 1.463 . S
C675 C680 1.350 . S
C675 N683 1.427 . S
C676 H667 0.930 . S
C676 C674 1.378 . S
C676 C677 1.367 . S
C677 C676 1.367 . S
C677 C679 1.433 . S
C678 C674 1.350 . S
C678 C675 1.463 . S
C678 N682 1.427 . S
C679 H669 0.929 . S
C679 C677 1.433 . S
C679 N682 1.384 . S
C680 H671 0.929 . S
C680 C672 1.378 . S
C680 C675 1.350 . S
C681 H668 0.929 1_455 S
C681 C673 1.433 . S
C681 N683 1.384 . S
N682 C678 1.427 . S
N682 C679 1.384 . S
N683 C675 1.427 . S
N683 C681 1.384 . S
H684 C690 0.930 . S
H685 C694 0.930 . S
H686 C699 0.929 . S
H687 C697 0.929 . S
H688 C692 0.929 . S
H689 C698 0.929 . S
C690 H684 0.930 . S
C690 C691 1.367 . S
C690 C698 1.378 . S
C691 C690 1.367 . S
C691 C699 1.433 . S
C692 H688 0.929 . S
C692 C694 1.378 . S
C692 C696 1.350 . S
C693 C696 1.463 . S
C693 C698 1.350 . S
C693 N701 1.427 . S
C694 H685 0.930 . S
C694 C692 1.378 . S
C694 C695 1.367 . S
C695 C694 1.367 . S
C695 C697 1.433 . S
C696 C692 1.350 . S
C696 C693 1.463 . S
C696 N700 1.427 . S
C697 H687 0.929 . S
C697 C695 1.433 . S
C697 N700 1.384 . S
C698 H689 0.929 . S
C698 C690 1.378 . S
C698 C693 1.350 . S
C699 H686 0.929 . S
C699 C691 1.433 . S
C699 N701 1.384 . S
N700 C696 1.427 . S
N700 C697 1.384 . S
N701 C693 1.427 . S
N701 C699 1.384 . S
H702 C708 0.930 . S
H703 C712 0.930 . S
H704 C717 0.929 . S
H705 C715 0.929 . S
H706 C710 0.929 . S
H707 C716 0.929 . S
C708 H702 0.930 . S
C708 C709 1.367 . S
C708 C716 1.378 . S
C709 C708 1.367 . S
C709 C717 1.433 . S
C710 H706 0.929 . S
C710 C712 1.378 . S
C710 C714 1.350 . S
C711 C714 1.463 . S
C711 C716 1.350 . S
C711 N719 1.427 . S
C712 H703 0.930 . S
C712 C710 1.378 . S
C712 C713 1.367 . S
C713 C712 1.367 . S
C713 C715 1.433 . S
C714 C710 1.350 . S
C714 C711 1.463 . S
C714 N718 1.427 . S
C715 H705 0.929 . S
C715 C713 1.433 . S
C715 N718 1.384 . S
C716 H707 0.929 . S
C716 C708 1.378 . S
C716 C711 1.350 . S
C717 H704 0.929 . S
C717 C709 1.433 . S
C717 N719 1.384 . S
N718 C714 1.427 . S
N718 C715 1.384 . S
N719 C711 1.427 . S
N719 C717 1.384 . S
H720 C726 0.930 1_565 S
H721 C730 0.930 . S
H722 C735 0.929 . S
H723 C733 0.929 . S
H724 C728 0.929 . S
H725 C734 0.929 . S
C726 H720 0.930 1_545 S
C726 C727 1.355 1_556 S
C726 C734 1.378 . S
C727 C726 1.355 1_554 S
C727 C735 1.439 . S
C728 H724 0.929 . S
C728 C730 1.378 . S
C728 C732 1.350 . S
C729 C732 1.463 . S
C729 C734 1.350 . S
C729 N737 1.427 1_556 S
C730 H721 0.930 . S
C730 C728 1.378 . S
C730 C731 1.367 . S
C731 C730 1.367 . S
C731 C733 1.433 . S
C732 C728 1.350 . S
C732 C729 1.463 . S
C732 N736 1.427 . S
C733 H723 0.929 . S
C733 C731 1.433 . S
C733 N736 1.384 . S
C734 H725 0.929 . S
C734 C726 1.378 . S
C734 C729 1.350 . S
C735 H722 0.929 . S
C735 C727 1.439 . S
C735 N737 1.384 . S
N736 C732 1.427 . S
N736 C733 1.384 . S
N737 C729 1.427 1_554 S
N737 C735 1.384 . S
H738 C744 0.930 . S
H739 C748 0.930 . S
H740 C753 0.929 . S
H741 C751 0.929 . S
H742 C746 0.929 . S
H743 C752 0.929 . S
C744 H738 0.930 . S
C744 C745 1.367 . S
C744 C752 1.378 . S
C745 C744 1.367 . S
C745 C753 1.433 . S
C746 H742 0.929 . S
C746 C748 1.378 . S
C746 C750 1.350 . S
C747 C750 1.463 . S
C747 C752 1.350 . S
C747 N755 1.427 . S
C748 H739 0.930 . S
C748 C746 1.378 . S
C748 C749 1.357 1_556 S
C749 C748 1.357 1_554 S
C749 C751 1.438 . S
C750 C746 1.350 . S
C750 C747 1.463 . S
C750 N754 1.427 . S
C751 H741 0.929 . S
C751 C749 1.438 . S
C751 N754 1.384 1_554 S
C752 H743 0.929 . S
C752 C744 1.378 . S
C752 C747 1.350 . S
C753 H740 0.929 . S
C753 C745 1.433 . S
C753 N755 1.384 . S
N754 C750 1.427 . S
N754 C751 1.384 1_556 S
N755 C747 1.427 . S
N755 C753 1.384 . S
H756 C762 0.930 . S
H757 C766 0.930 . S
H758 C771 0.929 . S
H759 C769 0.929 1_554 S
H760 C764 0.929 . S
H761 C770 0.929 . S
C762 H756 0.930 . S
C762 C763 1.367 . S
C762 C770 1.378 . S
C763 C762 1.367 . S
C763 C771 1.433 . S
C764 H760 0.929 . S
C764 C766 1.378 . S
C764 C768 1.350 . S
C765 C768 1.463 . S
C765 C770 1.350 . S
C765 N773 1.427 . S
C766 H757 0.930 . S
C766 C764 1.378 . S
C766 C767 1.367 1_556 S
C767 C766 1.367 1_554 S
C767 C769 1.433 1_554 S
C768 C764 1.350 . S
C768 C765 1.463 . S
C768 N772 1.427 . S
C769 H759 0.929 1_556 S
C769 C767 1.433 1_556 S
C769 N772 1.384 . S
C770 H761 0.929 . S
C770 C762 1.378 . S
C770 C765 1.350 . S
C771 H758 0.929 . S
C771 C763 1.433 . S
C771 N773 1.384 . S
N772 C768 1.427 . S
N772 C769 1.384 . S
N773 C765 1.427 . S
N773 C771 1.384 . S
H774 C780 0.930 . S
H775 C784 0.930 . S
H776 C789 0.929 . S
H777 C787 0.929 . S
H778 C782 0.929 . S
H779 C788 0.929 . S
C780 H774 0.930 . S
C780 C781 1.367 . S
C780 C788 1.378 . S
C781 C780 1.367 . S
C781 C789 1.433 . S
C782 H778 0.929 . S
C782 C784 1.378 . S
C782 C786 1.350 . S
C783 C786 1.463 . S
C783 C788 1.350 . S
C783 N791 1.427 . S
C784 H775 0.930 . S
C784 C782 1.378 . S
C784 C785 1.367 . S
C785 C784 1.367 . S
C785 C787 1.433 . S
C786 C782 1.350 . S
C786 C783 1.463 . S
C786 N790 1.427 . S
C787 H777 0.929 . S
C787 C785 1.433 . S
C787 N790 1.384 . S
C788 H779 0.929 . S
C788 C780 1.378 . S
C788 C783 1.350 . S
C789 H776 0.929 . S
C789 C781 1.433 . S
C789 N791 1.384 . S
N790 C786 1.427 . S
N790 C787 1.384 . S
N791 C783 1.427 . S
N791 C789 1.384 . S
H792 C798 0.930 . S
H793 C802 0.930 . S
H794 C807 0.929 . S
H795 C805 0.929 . S
H796 C800 0.929 . S
H797 C806 0.929 . S
C798 H792 0.930 . S
C798 C799 1.367 . S
C798 C806 1.378 . S
C799 C798 1.367 . S
C799 C807 1.433 . S
C800 H796 0.929 . S
C800 C802 1.378 . S
C800 C804 1.350 . S
C801 C804 1.463 . S
C801 C806 1.350 . S
C801 N809 1.427 . S
C802 H793 0.930 . S
C802 C800 1.378 . S
C802 C803 1.367 . S
C803 C802 1.367 . S
C803 C805 1.433 . S
C804 C800 1.350 . S
C804 C801 1.463 . S
C804 N808 1.427 . S
C805 H795 0.929 . S
C805 C803 1.433 . S
C805 N808 1.384 . S
C806 H797 0.929 . S
C806 C798 1.378 . S
C806 C801 1.350 . S
C807 H794 0.929 . S
C807 C799 1.433 . S
C807 N809 1.384 . S
N808 C804 1.427 . S
N808 C805 1.384 . S
N809 C801 1.427 . S
N809 C807 1.384 . S
H810 C816 0.930 . S
H811 C820 0.930 . S
H812 C825 0.929 . S
H813 C823 0.929 . S
H814 C818 0.929 . S
H815 C824 0.929 . S
C816 H810 0.930 . S
C816 C817 1.367 . S
C816 C824 1.378 . S
C817 C816 1.367 . S
C817 C825 1.433 . S
C818 H814 0.929 . S
C818 C820 1.378 . S
C818 C822 1.350 . S
C819 C822 1.463 . S
C819 C824 1.350 . S
C819 N827 1.427 . S
C820 H811 0.930 . S
C820 C818 1.378 . S
C820 C821 1.367 . S
C821 C820 1.367 . S
C821 C823 1.433 . S
C822 C818 1.350 . S
C822 C819 1.463 . S
C822 N826 1.427 . S
C823 H813 0.929 . S
C823 C821 1.433 . S
C823 N826 1.384 . S
C824 H815 0.929 . S
C824 C816 1.378 . S
C824 C819 1.350 . S
C825 H812 0.929 . S
C825 C817 1.433 . S
C825 N827 1.384 . S
N826 C822 1.427 . S
N826 C823 1.384 . S
N827 C819 1.427 . S
N827 C825 1.384 . S
H828 C834 0.930 . S
H829 C838 0.930 . S
H830 C843 0.929 . S
H831 C841 0.929 . S
H832 C836 0.929 . S
H833 C842 0.929 . S
C834 H828 0.930 . S
C834 C835 1.367 . S
C834 C842 1.378 . S
C835 C834 1.367 . S
C835 C843 1.433 . S
C836 H832 0.929 . S
C836 C838 1.378 . S
C836 C840 1.350 . S
C837 C840 1.463 . S
C837 C842 1.350 . S
C837 N845 1.427 . S
C838 H829 0.930 . S
C838 C836 1.378 . S
C838 C839 1.367 . S
C839 C838 1.367 . S
C839 C841 1.433 . S
C840 C836 1.350 . S
C840 C837 1.463 . S
C840 N844 1.427 . S
C841 H831 0.929 . S
C841 C839 1.433 . S
C841 N844 1.384 . S
C842 H833 0.929 . S
C842 C834 1.378 . S
C842 C837 1.350 . S
C843 H830 0.929 . S
C843 C835 1.433 . S
C843 N845 1.384 . S
N844 C840 1.427 . S
N844 C841 1.384 . S
N845 C837 1.427 . S
N845 C843 1.384 . S
H846 C852 0.930 . S
H847 C856 0.930 . S
H848 C861 0.929 . S
H849 C859 0.929 . S
H850 C854 0.929 . S
H851 C860 0.929 . S
C852 H846 0.930 . S
C852 C853 1.367 . S
C852 C860 1.378 . S
C853 C852 1.367 . S
C853 C861 1.433 . S
C854 H850 0.929 . S
C854 C856 1.378 . S
C854 C858 1.350 . S
C855 C858 1.463 . S
C855 C860 1.350 . S
C855 N863 1.427 . S
C856 H847 0.930 . S
C856 C854 1.378 . S
C856 C857 1.367 . S
C857 C856 1.367 . S
C857 C859 1.433 . S
C858 C854 1.350 . S
C858 C855 1.463 . S
C858 N862 1.427 . S
C859 H849 0.929 . S
C859 C857 1.433 . S
C859 N862 1.384 . S
C860 H851 0.929 . S
C860 C852 1.378 . S
C860 C855 1.350 . S
C861 H848 0.929 . S
C861 C853 1.433 . S
C861 N863 1.384 . S
N862 C858 1.427 . S
N862 C859 1.384 . S
N863 C855 1.427 . S
N863 C861 1.384 . S
H864 C870 0.930 . S
H865 C874 0.930 . S
H866 C879 0.929 . S
H867 C877 0.929 . S
H868 C872 0.929 . S
H869 C878 0.929 . S
C870 H864 0.930 . S
C870 C871 1.367 . S
C870 C878 1.378 . S
C871 C870 1.367 . S
C871 C879 1.433 . S
C872 H868 0.929 . S
C872 C874 1.378 . S
C872 C876 1.350 . S
C873 C876 1.463 . S
C873 C878 1.350 . S
C873 N881 1.427 . S
C874 H865 0.930 . S
C874 C872 1.378 . S
C874 C875 1.367 . S
C875 C874 1.367 . S
C875 C877 1.433 . S
C876 C872 1.350 . S
C876 C873 1.463 . S
C876 N880 1.427 . S
C877 H867 0.929 . S
C877 C875 1.433 . S
C877 N880 1.384 . S
C878 H869 0.929 . S
C878 C870 1.378 . S
C878 C873 1.350 . S
C879 H866 0.929 . S
C879 C871 1.433 . S
C879 N881 1.384 . S
N880 C876 1.427 . S
N880 C877 1.384 . S
N881 C873 1.427 . S
N881 C879 1.384 . S
C241 C43 1.359 . S
C245 C10 1.359 . S
C259 C62 1.360 . S
C263 C23 1.360 . S
C277 C36 1.360 . S
C281 C75 1.360 . S
C295 C30 1.360 . S
C299 C69 1.360 . S
C313 C4 1.367 . S
C317 C49 1.367 . S
C331 C56 1.365 . S
C335 C17 1.365 . S
C349 C121 1.363 . S
C353 C82 1.363 . S
C367 C101 1.363 . S
C371 C140 1.363 . S
C385 C114 1.361 . S
C389 C147 1.361 . S
C403 C153 1.359 . S
C407 C108 1.359 . S
C421 C127 1.361 . S
C425 C88 1.361 . S
C439 C134 1.366 . S
C443 C95 1.366 . S
C457 C160 1.361 . S
C461 C205 1.361 . S
C475 C173 1.366 . S
C479 C218 1.366 . S
C493 C186 1.366 . S
C497 C225 1.366 . S
C511 C231 1.359 . S
C515 C192 1.359 . S
C529 C199 1.362 . S
C533 C166 1.362 . S
C547 C212 1.366 . S
C551 C179 1.366 . S
C565 C3 1.339 . S
C569 C96 1.338 . S
C583 C16 1.338 . S
C587 C109 1.343 . S
C601 C81 1.341 . S
C605 C29 1.337 . S
C619 C31 1.341 . S
C623 C174 1.343 . S
C637 C187 1.342 . S
C641 C5 1.341 . S
C655 C161 1.338 . S
C659 C18 1.343 . S
C673 C213 1.337 . S
C677 C44 1.341 . S
C691 C55 1.339 . S
C695 C224 1.343 . S
C709 C200 1.342 . S
C713 C68 1.337 . S
C727 C133 1.344 . S
C731 C70 1.337 . S
C745 C42 1.340 . S
C749 C148 1.342 . S
C763 C57 1.343 . S
C767 C122 1.337 . S
C781 C83 1.341 . S
C785 C172 1.343 . S
C799 C94 1.340 . S
C803 C185 1.343 . S
C817 C107 1.338 . S
C821 C159 1.343 . S
C835 C211 1.340 . S
C839 C146 1.343 . S
C853 C226 1.342 . S
C857 C120 1.337 . S
C871 C135 1.343 . S
C875 C198 1.340 . S
