# Generated by pormake.
# Topology uoq, (4)-cn, num edge types: 1
# Building blocks:
#     Node 0, Type 0, BuildingBlock: ICAMEG_clean_sbu_1, # of connection points: 4
#     Node 1, Type 0, BuildingBlock: ICAMEG_clean_sbu_1, # of connection points: 4
#     Node 2, Type 0, BuildingBlock: ICAMEG_clean_sbu_1, # of connection points: 4
#     Node 3, Type 0, BuildingBlock: ICAMEG_clean_sbu_1, # of connection points: 4
#     Node 4, Type 0, BuildingBlock: ICAMEG_clean_sbu_1, # of connection points: 4
#     Node 5, Type 0, BuildingBlock: ICAMEG_clean_sbu_1, # of connection points: 4
#     Node 6, Type 0, BuildingBlock: ICAMEG_clean_sbu_1, # of connection points: 4
#     Node 7, Type 0, BuildingBlock: ICAMEG_clean_sbu_1, # of connection points: 4
#     Node 8, Type 0, BuildingBlock: ICAMEG_clean_sbu_1, # of connection points: 4
#     Node 9, Type 0, BuildingBlock: ICAMEG_clean_sbu_1, # of connection points: 4
#     Node 10, Type 0, BuildingBlock: ICAMEG_clean_sbu_1, # of connection points: 4
#     Node 11, Type 0, BuildingBlock: ICAMEG_clean_sbu_1, # of connection points: 4
#     Edge 12, Type (0, 0), BuildingBlock: XUDNAN_clean_linker_2, # of connection points: 2
#     Edge 13, Type (0, 0), BuildingBlock: XUDNAN_clean_linker_2, # of connection points: 2
#     Edge 14, Type (0, 0), BuildingBlock: XUDNAN_clean_linker_2, # of connection points: 2
#     Edge 15, Type (0, 0), BuildingBlock: XUDNAN_clean_linker_2, # of connection points: 2
#     Edge 16, Type (0, 0), BuildingBlock: XUDNAN_clean_linker_2, # of connection points: 2
#     Edge 17, Type (0, 0), BuildingBlock: XUDNAN_clean_linker_2, # of connection points: 2
#     Edge 18, Type (0, 0), BuildingBlock: XUDNAN_clean_linker_2, # of connection points: 2
#     Edge 19, Type (0, 0), BuildingBlock: XUDNAN_clean_linker_2, # of connection points: 2
#     Edge 20, Type (0, 0), BuildingBlock: XUDNAN_clean_linker_2, # of connection points: 2
#     Edge 21, Type (0, 0), BuildingBlock: XUDNAN_clean_linker_2, # of connection points: 2
#     Edge 22, Type (0, 0), BuildingBlock: XUDNAN_clean_linker_2, # of connection points: 2
#     Edge 23, Type (0, 0), BuildingBlock: XUDNAN_clean_linker_2, # of connection points: 2
#     Edge 24, Type (0, 0), BuildingBlock: XUDNAN_clean_linker_2, # of connection points: 2
#     Edge 25, Type (0, 0), BuildingBlock: XUDNAN_clean_linker_2, # of connection points: 2
#     Edge 26, Type (0, 0), BuildingBlock: XUDNAN_clean_linker_2, # of connection points: 2
#     Edge 27, Type (0, 0), BuildingBlock: XUDNAN_clean_linker_2, # of connection points: 2
#     Edge 28, Type (0, 0), BuildingBlock: XUDNAN_clean_linker_2, # of connection points: 2
#     Edge 29, Type (0, 0), BuildingBlock: XUDNAN_clean_linker_2, # of connection points: 2
#     Edge 30, Type (0, 0), BuildingBlock: XUDNAN_clean_linker_2, # of connection points: 2
#     Edge 31, Type (0, 0), BuildingBlock: XUDNAN_clean_linker_2, # of connection points: 2
#     Edge 32, Type (0, 0), BuildingBlock: XUDNAN_clean_linker_2, # of connection points: 2
#     Edge 33, Type (0, 0), BuildingBlock: XUDNAN_clean_linker_2, # of connection points: 2
#     Edge 34, Type (0, 0), BuildingBlock: XUDNAN_clean_linker_2, # of connection points: 2
#     Edge 35, Type (0, 0), BuildingBlock: XUDNAN_clean_linker_2, # of connection points: 2
# Relax obj value: 0.257
# Max RMSD: 0.233
# Mean RMSD: 0.233
data_MOF--net-uoq--node1-ICAMEG_clean_sbu_1--edge1-XUDNAN_clean_linker_2
_symmetry_space_group_name_H-M    P1
_symmetry_Int_Tables_number       1
_symmetry_cell_setting            triclinic
loop_
_symmetry_equiv_pos_as_xyz
'x, y, z'
_cell_length_a     60.797807
_cell_length_b     60.802336
_cell_length_c     24.542484
_cell_angle_alpha  89.882938
_cell_angle_beta   90.076866
_cell_angle_gamma 119.9546
loop_
_atom_site_label
_atom_site_type_symbol
_atom_site_fract_x
_atom_site_fract_y
_atom_site_fract_z
_atom_type_partial_charge
Co0 Co 0.31866 0.44557 0.35581 0.0
Co1 Co 0.33461 0.46083 0.22028 0.0
O2 O 0.3115 0.45352 0.28253 0.0
C3 C 0.30757 0.48679 0.38197 0.0
O4 O 0.32231 0.50054 0.34185 0.0
C5 C 0.28054 0.42887 0.17517 0.0
O6 O 0.27301 0.41851 0.22341 0.0
O7 O 0.33569 0.42821 0.23404 0.0
O8 O 0.33507 0.42713 0.32549 0.0
H9 H 0.41175 0.4686 0.12739 0.0
H10 H 0.26595 0.43361 0.33328 0.0
O11 O 0.3031 0.46428 0.39021 0.0
H12 H 0.25971 0.35145 0.37662 0.0
H13 H 0.29865 0.42041 0.55304 0.0
H14 H 0.36251 0.44475 0.40752 0.0
H15 H 0.30117 0.39094 0.37778 0.0
H16 H 0.28985 0.42988 0.46051 0.0
O17 O 0.30437 0.44353 0.16669 0.0
H18 H 0.38241 0.45995 0.20424 0.0
H19 H 0.33555 0.47678 0.10435 0.0
H20 H 0.37197 0.4352 0.49933 0.0
H21 H 0.22401 0.39461 0.33257 0.0
H22 H 0.33992 0.42294 0.57291 0.0
H23 H 0.22073 0.35313 0.35409 0.0
O24 O 0.35208 0.47709 0.35622 0.0
H25 H 0.29389 0.51526 0.20725 0.0
H26 H 0.37428 0.51422 0.19582 0.0
H27 H 0.37463 0.55462 0.1837 0.0
H28 H 0.33417 0.5553 0.18907 0.0
H29 H 0.2945 0.47542 0.22023 0.0
H30 H 0.36421 0.48529 0.02635 0.0
H31 H 0.4027 0.48136 0.03765 0.0
O32 O 0.36548 0.48042 0.26957 0.0
C33 C 0.33936 0.42022 0.27989 0.0
C34 C 0.39505 0.47041 0.12198 0.0
C35 C 0.36834 0.47973 0.06524 0.0
N36 N 0.3573 0.46787 0.15889 0.0
C37 C 0.37839 0.46558 0.16537 0.0
C38 C 0.35211 0.47475 0.10953 0.0
C39 C 0.38995 0.47754 0.07162 0.0
C40 C 0.26462 0.41567 0.34324 0.0
N41 N 0.28598 0.41456 0.35538 0.0
C42 C 0.24085 0.39363 0.34253 0.0
C43 C 0.23903 0.37036 0.3545 0.0
C44 C 0.2609 0.3694 0.36706 0.0
C45 C 0.28435 0.39182 0.36734 0.0
C46 C 0.31277 0.42573 0.52132 0.0
C47 C 0.34841 0.43934 0.43918 0.0
C48 C 0.30793 0.4312 0.46884 0.0
N49 N 0.32565 0.43786 0.42849 0.0
C50 C 0.3539 0.43399 0.49115 0.0
C51 C 0.33592 0.42714 0.53243 0.0
C52 C 0.36928 0.48712 0.31987 0.0
C53 C 0.31163 0.5152 0.20458 0.0
C54 C 0.35664 0.51436 0.19865 0.0
C55 C 0.35693 0.5373 0.1915 0.0
C56 C 0.33423 0.53766 0.19448 0.0
N57 N 0.3344 0.49237 0.20843 0.0
C58 C 0.31208 0.49262 0.21159 0.0
Co59 Co 0.88041 0.32733 0.67555 0.0
Co60 Co 0.88725 0.334 0.53701 0.0
O61 O 0.8681 0.31489 0.60168 0.0
C62 C 0.8347 0.32215 0.72993 0.0
O63 O 0.84747 0.34684 0.73716 0.0
C64 C 0.86085 0.27752 0.5055 0.0
O65 O 0.85848 0.27136 0.55726 0.0
O66 O 0.91839 0.33311 0.56499 0.0
O67 O 0.91669 0.34346 0.65197 0.0
H68 H 0.96397 0.4025 0.44105 0.0
H69 H 0.84262 0.27265 0.6635 0.0
O70 O 0.84433 0.31139 0.70181 0.0
H71 H 0.91838 0.27513 0.74282 0.0
H72 H 0.88148 0.32085 0.8804 0.0
H73 H 0.91981 0.37659 0.72096 0.0
H74 H 0.91827 0.31478 0.72258 0.0
H75 H 0.8664 0.30497 0.78762 0.0
O76 O 0.87411 0.30102 0.49203 0.0
H77 H 0.93862 0.37831 0.52056 0.0
H78 H 0.87742 0.33001 0.41677 0.0
H79 H 0.93558 0.39318 0.81296 0.0
H80 H 0.84176 0.23253 0.68416 0.0
H81 H 0.91637 0.36524 0.89353 0.0
H82 H 0.87988 0.2336 0.7239 0.0
O83 O 0.88052 0.35917 0.65793 0.0
H84 H 0.79392 0.29923 0.5028 0.0
H85 H 0.87919 0.37471 0.48959 0.0
H86 H 0.84202 0.3775 0.45947 0.0
H87 H 0.79898 0.33951 0.46556 0.0
H88 H 0.83151 0.29739 0.53332 0.0
H89 H 0.90222 0.35349 0.33619 0.0
H90 H 0.94579 0.39011 0.34804 0.0
O91 O 0.89919 0.36768 0.57601 0.0
C92 C 0.92893 0.34169 0.61168 0.0
C93 C 0.945 0.38659 0.43537 0.0
C94 C 0.91037 0.35905 0.37651 0.0
N95 N 0.90656 0.35274 0.47344 0.0
C96 C 0.93054 0.37283 0.48025 0.0
C97 C 0.89646 0.34573 0.42233 0.0
C98 C 0.9348 0.37961 0.38319 0.0
C99 C 0.85923 0.27329 0.68115 0.0
N100 N 0.88048 0.29606 0.69161 0.0
C101 C 0.85865 0.2505 0.69259 0.0
C102 C 0.88005 0.25112 0.71483 0.0
C103 C 0.90168 0.27441 0.72537 0.0
C104 C 0.90155 0.29682 0.71346 0.0
C105 C 0.89004 0.3332 0.84562 0.0
C106 C 0.91141 0.36427 0.75574 0.0
C107 C 0.88158 0.32431 0.79296 0.0
N108 N 0.8923 0.33979 0.74879 0.0
C109 C 0.92039 0.37379 0.80778 0.0
C110 C 0.9096 0.3581 0.85296 0.0
C111 C 0.89183 0.37438 0.61868 0.0
C112 C 0.81259 0.31586 0.49951 0.0
C113 C 0.86058 0.35809 0.4925 0.0
C114 C 0.83957 0.35979 0.47529 0.0
C115 C 0.81544 0.33848 0.47873 0.0
N116 N 0.85772 0.33576 0.51224 0.0
C117 C 0.83404 0.31489 0.5164 0.0
Co118 Co 0.57192 0.87719 0.01059 0.0
Co119 Co 0.56695 0.87971 0.87282 0.0
O120 O 0.57 0.86249 0.93797 0.0
C121 C 0.53453 0.82275 0.03601 0.0
O122 O 0.52045 0.8209 0.99377 0.0
C123 C 0.59104 0.84856 0.82931 0.0
O124 O 0.58915 0.83784 0.87686 0.0
O125 O 0.59958 0.91167 0.89456 0.0
O126 O 0.58874 0.91254 0.98119 0.0
H127 H 0.56945 0.95363 0.77513 0.0
H128 H 0.59264 0.84285 0.99436 0.0
O129 O 0.55552 0.84287 0.04493 0.0
H130 H 0.66451 0.92284 0.06235 0.0
H131 H 0.5854 0.88484 0.21393 0.0
H132 H 0.5614 0.91676 0.05282 0.0
H133 H 0.62223 0.91845 0.05059 0.0
H134 H 0.58453 0.86752 0.12271 0.0
O135 O 0.58635 0.86696 0.82502 0.0
H136 H 0.5714 0.92997 0.85491 0.0
H137 H 0.55839 0.86807 0.75337 0.0
H138 H 0.56229 0.93476 0.14315 0.0
H139 H 0.6346 0.84631 1.00603 0.0
H140 H 0.57433 0.91878 0.22457 0.0
H141 H 0.6709 0.88657 0.04014 0.0
O142 O 0.53826 0.87406 0.99809 0.0
H143 H 0.5048 0.78532 0.8595 0.0
H144 H 0.51771 0.87092 0.82746 0.0
H145 H 0.47679 0.8337 0.80405 0.0
H146 H 0.4701 0.7904 0.81935 0.0
H147 H 0.54506 0.82287 0.88339 0.0
H148 H 0.5567 0.89125 0.6725 0.0
H149 H 0.56208 0.93428 0.68309 0.0
O150 O 0.54595 0.89162 0.91496 0.0
C151 C 0.60233 0.92345 0.9397 0.0
C152 C 0.56704 0.93487 0.77 0.0
C153 C 0.55994 0.89989 0.71239 0.0
N154 N 0.56497 0.89763 0.80898 0.0
C155 C 0.56807 0.92135 0.81506 0.0
C156 C 0.56109 0.88692 0.75836 0.0
C157 C 0.56294 0.92402 0.71837 0.0
C158 C 0.60835 0.86037 1.00942 0.0
N159 N 0.605 0.88041 0.0217 0.0
C160 C 0.63205 0.86225 0.01588 0.0
C161 C 0.65241 0.88484 0.035 0.0
C162 C 0.64885 0.9052 0.04746 0.0
C163 C 0.62487 0.90262 0.04054 0.0
C164 C 0.58017 0.89199 0.17875 0.0
C165 C 0.56681 0.90977 0.08792 0.0
C166 C 0.57959 0.88222 0.12697 0.0
N167 N 0.57308 0.89121 0.08231 0.0
C168 C 0.56722 0.92001 0.13904 0.0
C169 C 0.57396 0.91103 0.1847 0.0
C170 C 0.53267 0.88413 0.9588 0.0
C171 C 0.50767 0.80407 0.85133 0.0
C172 C 0.51535 0.85227 0.83344 0.0
C173 C 0.49193 0.83119 0.8204 0.0
C174 C 0.48818 0.80692 0.82907 0.0
N175 N 0.53481 0.84945 0.85364 0.0
C176 C 0.53083 0.82561 0.8639 0.0
Co177 Co 0.70022 0.55662 0.33017 0.0
Co178 Co 0.68891 0.5563 0.19299 0.0
O179 O 0.70923 0.55526 0.25407 0.0
C180 C 0.70308 0.51387 0.38012 0.0
O181 O 0.67883 0.50365 0.39152 0.0
C182 C 0.74382 0.57894 0.1487 0.0
O183 O 0.75178 0.5752 0.19565 0.0
O184 O 0.69232 0.5891 0.22249 0.0
O185 O 0.68643 0.57952 0.31179 0.0
H186 H 0.62018 0.56838 0.10933 0.0
H187 H 0.75282 0.56881 0.30527 0.0
O188 O 0.71405 0.53394 0.35097 0.0
H189 H 0.76143 0.64526 0.39471 0.0
H190 H 0.7144 0.56326 0.53348 0.0
H191 H 0.65466 0.55172 0.3854 0.0
H192 H 0.7192 0.60769 0.3805 0.0
H193 H 0.72624 0.56303 0.43756 0.0
O194 O 0.72108 0.57535 0.14446 0.0
H195 H 0.64546 0.56537 0.18456 0.0
H196 H 0.68999 0.55141 0.07173 0.0
H197 H 0.64207 0.55188 0.48079 0.0
H198 H 0.79547 0.6058 0.31953 0.0
H199 H 0.67204 0.55767 0.55563 0.0
H200 H 0.79997 0.64442 0.3644 0.0
O201 O 0.66632 0.52665 0.31746 0.0
H202 H 0.71436 0.49016 0.15506 0.0
H203 H 0.64522 0.51002 0.14606 0.0
H204 H 0.63771 0.46869 0.11329 0.0
H205 H 0.67249 0.45854 0.11701 0.0
H206 H 0.72091 0.53089 0.18828 0.0
H207 H 0.6654 0.55458 0.99527 0.0
H208 H 0.63012 0.56298 0.01383 0.0
O209 O 0.65619 0.53602 0.23624 0.0
C210 C 0.68688 0.59277 0.27108 0.0
C211 C 0.6355 0.56469 0.10071 0.0
C212 C 0.66091 0.557 0.0367 0.0
N213 N 0.66919 0.55822 0.13269 0.0
C214 C 0.64986 0.56292 0.14318 0.0
C215 C 0.67488 0.55538 0.08019 0.0
C216 C 0.6411 0.56168 0.04714 0.0
C217 C 0.75462 0.58553 0.32487 0.0
N218 N 0.73352 0.58614 0.34162 0.0
C219 C 0.77882 0.60643 0.33281 0.0
C220 C 0.78133 0.62809 0.35798 0.0
C221 C 0.75972 0.62859 0.37493 0.0
C222 C 0.73584 0.60731 0.36641 0.0
C223 C 0.70118 0.56076 0.50124 0.0
C224 C 0.66784 0.55432 0.41771 0.0
C225 C 0.70778 0.56061 0.44682 0.0
N226 N 0.69117 0.55741 0.40583 0.0
C227 C 0.66059 0.55437 0.47166 0.0
C228 C 0.67741 0.55761 0.51363 0.0
C229 C 0.65019 0.52291 0.28037 0.0
C230 C 0.6992 0.49455 0.15211 0.0
C231 C 0.66068 0.50609 0.14718 0.0
C232 C 0.65621 0.48249 0.1288 0.0
C233 C 0.67569 0.47678 0.13098 0.0
N234 N 0.68405 0.52386 0.16642 0.0
C235 C 0.70296 0.51796 0.17019 0.0
Co236 Co 0.14632 0.70229 0.68207 0.0
Co237 Co 0.14712 0.68792 0.54576 0.0
O238 O 0.16239 0.70992 0.60982 0.0
C239 C 0.19745 0.71064 0.71026 0.0
O240 O 0.19626 0.69595 0.66994 0.0
C241 C 0.17169 0.74293 0.50441 0.0
O242 O 0.16909 0.74999 0.55328 0.0
O243 O 0.11357 0.68737 0.55807 0.0
O244 O 0.1122 0.68813 0.64952 0.0
H245 H 0.07812 0.61311 0.44618 0.0
H246 H 0.18908 0.75449 0.66388 0.0
O247 O 0.17989 0.71581 0.71833 0.0
H248 H 0.11513 0.76447 0.70465 0.0
H249 H 0.13959 0.7197 0.88018 0.0
H250 H 0.09959 0.65916 0.72908 0.0
H251 H 0.11096 0.72203 0.70362 0.0
H252 H 0.15924 0.72926 0.78903 0.0
O253 O 0.16139 0.71911 0.49407 0.0
H254 H 0.09819 0.64104 0.52533 0.0
H255 H 0.16348 0.68842 0.43049 0.0
H256 H 0.07921 0.649 0.81937 0.0
H257 H 0.1942 0.79737 0.66551 0.0
H258 H 0.09924 0.67937 0.89579 0.0
H259 H 0.15701 0.80255 0.6857 0.0
O260 O 0.14265 0.66808 0.68096 0.0
H261 H 0.24217 0.72668 0.53965 0.0
H262 H 0.15997 0.64776 0.52003 0.0
H263 H 0.19961 0.64646 0.50983 0.0
H264 H 0.24113 0.68617 0.51933 0.0
H265 H 0.20213 0.72702 0.55059 0.0
H266 H 0.14399 0.66118 0.35026 0.0
H267 H 0.10106 0.62313 0.35785 0.0
O268 O 0.13462 0.6562 0.59304 0.0
C269 C 0.10165 0.6844 0.60329 0.0
C270 C 0.09685 0.62961 0.44238 0.0
C271 C 0.1338 0.65662 0.38851 0.0
N272 N 0.13199 0.66632 0.48264 0.0
C273 C 0.10833 0.64548 0.48708 0.0
C274 C 0.14469 0.67205 0.43407 0.0
C275 C 0.10972 0.63526 0.39282 0.0
C276 C 0.17287 0.75662 0.67327 0.0
N277 N 0.14974 0.73577 0.68339 0.0
C278 C 0.17586 0.78093 0.67388 0.0
C279 C 0.15498 0.78382 0.68512 0.0
C280 C 0.13147 0.76246 0.69566 0.0
C281 C 0.12919 0.73845 0.69468 0.0
C282 C 0.13069 0.70631 0.84723 0.0
C283 C 0.10843 0.67253 0.76199 0.0
C284 C 0.14178 0.71157 0.79554 0.0
N285 N 0.13062 0.69478 0.75367 0.0
C286 C 0.09679 0.66665 0.8131 0.0
C287 C 0.10805 0.68368 0.85595 0.0
C288 C 0.13614 0.65148 0.64352 0.0
C289 C 0.2242 0.70927 0.53508 0.0
C290 C 0.17793 0.6651 0.52447 0.0
C291 C 0.20033 0.66426 0.51848 0.0
C292 C 0.22361 0.68654 0.5238 0.0
N293 N 0.17861 0.68748 0.53534 0.0
C294 C 0.2014 0.70937 0.54088 0.0
Co295 Co 0.45132 0.13889 1.00495 0.0
Co296 Co 0.47169 0.14114 0.87181 0.0
O297 O 0.4605 0.1543 0.93238 0.0
C298 C 0.49124 0.19145 0.03134 0.0
O299 O 0.50546 0.1903 0.9925 0.0
C300 C 0.43634 0.1586 0.82354 0.0
O301 O 0.42439 0.15362 0.87032 0.0
O302 O 0.44178 0.10512 0.88359 0.0
O303 O 0.43393 0.10438 0.97346 0.0
H304 H 0.49302 0.08006 0.78112 0.0
H305 H 0.43901 0.17922 0.97931 0.0
O306 O 0.46891 0.17305 0.03953 0.0
H307 H 0.35669 0.10246 0.0162 0.0
H308 H 0.42152 0.13207 0.19884 0.0
H309 H 0.45075 0.0947 0.05817 0.0
H310 H 0.39649 0.10115 0.02199 0.0
H311 H 0.43268 0.15084 0.10686 0.0
O312 O 0.45271 0.15141 0.81616 0.0
H313 H 0.47919 0.09695 0.85667 0.0
H314 H 0.48844 0.15821 0.75722 0.0
H315 H 0.4394 0.0751 0.14935 0.0
H316 H 0.39967 0.18149 0.97404 0.0
H317 H 0.42472 0.09383 0.2205 0.0
H318 H 0.35812 0.14288 0.99228 0.0
O319 O 0.48324 0.13748 0.00965 0.0
H320 H 0.51679 0.23667 0.86211 0.0
H321 H 0.52698 0.16126 0.85443 0.0
H322 H 0.56463 0.20381 0.84564 0.0
H323 H 0.55966 0.24193 0.84915 0.0
H324 H 0.47977 0.19386 0.87173 0.0
H325 H 0.50212 0.14188 0.68044 0.0
H326 H 0.50458 0.10258 0.69212 0.0
O327 O 0.4927 0.13284 0.92337 0.0
C328 C 0.43082 0.09329 0.92802 0.0
C329 C 0.49196 0.09717 0.77546 0.0
C330 C 0.49703 0.13183 0.71894 0.0
N331 N 0.48275 0.12838 0.81143 0.0
C332 C 0.4841 0.10679 0.81814 0.0
C333 C 0.48909 0.14089 0.76255 0.0
C334 C 0.49844 0.1098 0.72554 0.0
C335 C 0.42103 0.16241 0.9879 0.0
N336 N 0.42006 0.14008 1.00075 0.0
C337 C 0.3988 0.16378 0.98458 0.0
C338 C 0.37549 0.1421 0.99471 0.0
C339 C 0.37467 0.1194 1.00803 0.0
C340 C 0.39727 0.11874 0.01091 0.0
C341 C 0.42788 0.12372 0.16819 0.0
C342 C 0.44423 0.10289 0.08878 0.0
C343 C 0.43432 0.13432 0.11608 0.0
N344 N 0.44231 0.12385 0.0771 0.0
C345 C 0.43789 0.09173 0.1404 0.0
C346 C 0.42967 0.10226 0.1803 0.0
C347 C 0.49653 0.13362 0.97488 0.0
C348 C 0.51918 0.22021 0.86009 0.0
C349 C 0.52462 0.1777 0.85611 0.0
C350 C 0.54603 0.20178 0.85099 0.0
C351 C 0.54323 0.22315 0.85295 0.0
N352 N 0.50103 0.1749 0.86273 0.0
C353 C 0.4982 0.19582 0.86508 0.0
Co354 Co 0.56396 0.69333 0.35255 0.0
Co355 Co 0.56308 0.68471 0.49051 0.0
O356 O 0.56349 0.70467 0.42713 0.0
C357 C 0.52484 0.6999 0.29576 0.0
O358 O 0.51528 0.67635 0.27913 0.0
C359 C 0.59396 0.7407 0.52473 0.0
O360 O 0.599 0.74721 0.47334 0.0
O361 O 0.59523 0.68583 0.46288 0.0
O362 O 0.58379 0.6767 0.37517 0.0
H363 H 0.57004 0.61452 0.58239 0.0
H364 H 0.58064 0.74784 0.36799 0.0
O365 O 0.54384 0.7096 0.32807 0.0
H366 H 0.65498 0.74646 0.29201 0.0
H367 H 0.57399 0.70331 0.14837 0.0
H368 H 0.55458 0.64484 0.30361 0.0
H369 H 0.61492 0.70658 0.30792 0.0
H370 H 0.57383 0.71766 0.24218 0.0
O371 O 0.58267 0.71707 0.53742 0.0
H372 H 0.56971 0.63996 0.50435 0.0
H373 H 0.5565 0.68716 0.61086 0.0
H374 H 0.55471 0.62977 0.21053 0.0
H375 H 0.62023 0.7882 0.35172 0.0
H376 H 0.56441 0.65908 0.13207 0.0
H377 H 0.65782 0.78768 0.31372 0.0
O378 O 0.532 0.66122 0.36749 0.0
H379 H 0.50487 0.71963 0.52723 0.0
H380 H 0.5138 0.64344 0.53431 0.0
H381 H 0.47373 0.64052 0.56387 0.0
H382 H 0.46911 0.67885 0.56082 0.0
H383 H 0.54442 0.72162 0.49726 0.0
H384 H 0.55699 0.66242 0.69002 0.0
H385 H 0.56367 0.62572 0.67606 0.0
O386 O 0.54161 0.6517 0.44918 0.0
C387 C 0.59738 0.67777 0.41576 0.0
C388 C 0.5671 0.63047 0.589 0.0
C389 C 0.55983 0.65737 0.64942 0.0
N390 N 0.56311 0.66504 0.55293 0.0
C391 C 0.56687 0.64493 0.54495 0.0
C392 C 0.55971 0.6714 0.6044 0.0
C393 C 0.56355 0.63677 0.64155 0.0
C394 C 0.59682 0.74743 0.35096 0.0
N395 N 0.59543 0.72483 0.33915 0.0
C396 C 0.61923 0.77037 0.34205 0.0
C397 C 0.64032 0.77006 0.32081 0.0
C398 C 0.63876 0.74694 0.30872 0.0
C399 C 0.61604 0.72439 0.31818 0.0
C400 C 0.56978 0.69037 0.18222 0.0
C401 C 0.5589 0.65775 0.26976 0.0
C402 C 0.56969 0.6984 0.23545 0.0
N403 N 0.56424 0.68212 0.27845 0.0
C404 C 0.55892 0.6491 0.2171 0.0
C405 C 0.56438 0.66555 0.17311 0.0
C406 C 0.52782 0.64555 0.40605 0.0
C407 C 0.50671 0.70283 0.52914 0.0
C408 C 0.51198 0.66021 0.53274 0.0
C409 C 0.48922 0.65844 0.54962 0.0
C410 C 0.48664 0.67994 0.54789 0.0
N411 N 0.53173 0.6828 0.51494 0.0
C412 C 0.52918 0.70388 0.51253 0.0
Co413 Co 0.88214 0.5745 0.67018 0.0
Co414 Co 0.88383 0.55863 0.80487 0.0
O415 O 0.86765 0.5662 0.74378 0.0
C416 C 0.82971 0.53312 0.6451 0.0
O417 O 0.83163 0.51888 0.68296 0.0
C418 C 0.86239 0.5908 0.85155 0.0
O419 O 0.86623 0.60214 0.80417 0.0
O420 O 0.91739 0.59126 0.79079 0.0
O421 O 0.91716 0.59323 0.69932 0.0
H422 H 0.95381 0.55057 0.89447 0.0
H423 H 0.84133 0.58603 0.69601 0.0
O424 O 0.84755 0.55579 0.63745 0.0
H425 H 0.91626 0.66855 0.65091 0.0
H426 H 0.88567 0.60049 0.47392 0.0
H427 H 0.9263 0.57544 0.61614 0.0
H428 H 0.91859 0.62926 0.64785 0.0
H429 H 0.86837 0.59098 0.56721 0.0
O430 O 0.87099 0.5756 0.85947 0.0
H431 H 0.93263 0.5595 0.81886 0.0
H432 H 0.86959 0.54227 0.9208 0.0
H433 H 0.94445 0.58515 0.52364 0.0
H434 H 0.83802 0.62482 0.69852 0.0
H435 H 0.92406 0.5977 0.45166 0.0
H436 H 0.87571 0.66649 0.67617 0.0
O437 O 0.88439 0.54313 0.66832 0.0
H438 H 0.78885 0.50404 0.81929 0.0
H439 H 0.87039 0.50517 0.82792 0.0
H440 H 0.83047 0.46467 0.83982 0.0
H441 H 0.78928 0.46394 0.83582 0.0
H442 H 0.82917 0.54399 0.80656 0.0
H443 H 0.89022 0.53347 0.99759 0.0
H444 H 0.93258 0.53746 0.98463 0.0
O445 O 0.89492 0.53934 0.75436 0.0
C446 C 0.92859 0.59989 0.74473 0.0
C447 C 0.93534 0.54873 0.9006 0.0
C448 C 0.89967 0.53918 0.95851 0.0
N449 N 0.89989 0.55138 0.8653 0.0
C450 C 0.92323 0.55371 0.85792 0.0
C451 C 0.88814 0.54433 0.9149 0.0
C452 C 0.92343 0.5414 0.95119 0.0
C453 C 0.85773 0.60405 0.68563 0.0
N454 N 0.88014 0.60536 0.67202 0.0
C455 C 0.85578 0.62597 0.68739 0.0
C456 C 0.87695 0.64934 0.67495 0.0
C457 C 0.89971 0.65052 0.66087 0.0
C458 C 0.90096 0.62821 0.65955 0.0
C459 C 0.8947 0.59499 0.50488 0.0
C460 C 0.91734 0.58096 0.58515 0.0
C461 C 0.8849 0.58945 0.55773 0.0
N462 N 0.8962 0.5825 0.59708 0.0
C463 C 0.9277 0.58641 0.53279 0.0
C464 C 0.91624 0.59344 0.49243 0.0
C465 C 0.89183 0.53295 0.70388 0.0
C466 C 0.80667 0.50412 0.82132 0.0
C467 C 0.85257 0.505 0.82569 0.0
C468 C 0.83001 0.48201 0.83272 0.0
C469 C 0.80692 0.48162 0.8305 0.0
N470 N 0.85222 0.52702 0.81677 0.0
C471 C 0.82962 0.52675 0.81442 0.0
Co472 Co 0.32219 0.87312 0.01969 0.0
Co473 Co 0.3423 0.87822 0.15394 0.0
O474 O 0.31787 0.86094 0.09496 0.0
C475 C 0.31699 0.82975 0.95692 0.0
O476 O 0.33888 0.84593 0.93479 0.0
C477 C 0.28902 0.85223 0.20742 0.0
O478 O 0.2782 0.84335 0.16011 0.0
O479 O 0.34503 0.9122 0.13395 0.0
O480 O 0.33782 0.90893 0.04358 0.0
H481 H 0.42258 0.94873 0.23509 0.0
H482 H 0.27105 0.83137 0.0508 0.0
O483 O 0.30731 0.83714 0.99374 0.0
H484 H 0.25884 0.90305 0.99989 0.0
H485 H 0.29448 0.87048 0.8249 0.0
H486 H 0.36342 0.91591 0.9581 0.0
H487 H 0.30124 0.90723 0.99499 0.0
H488 H 0.28945 0.85574 0.92017 0.0
O489 O 0.31302 0.86857 0.2096 0.0
H490 H 0.39181 0.92598 0.16169 0.0
H491 H 0.34433 0.86779 0.27259 0.0
H492 H 0.3692 0.93135 0.86336 0.0
H493 H 0.22824 0.82626 0.05558 0.0
H494 H 0.33459 0.90856 0.79596 0.0
H495 H 0.22193 0.8623 0.03019 0.0
O496 O 0.35666 0.87714 0.01732 0.0
H497 H 0.30254 0.78288 0.17487 0.0
H498 H 0.38174 0.86525 0.18451 0.0
H499 H 0.38269 0.82616 0.2046 0.0
H500 H 0.34283 0.78451 0.20056 0.0
H501 H 0.3025 0.82216 0.15391 0.0
H502 H 0.3744 0.8901 0.34731 0.0
H503 H 0.41394 0.9308 0.32875 0.0
O504 O 0.37172 0.88658 0.103 0.0
C505 C 0.34547 0.92197 0.08694 0.0
C506 C 0.40542 0.931 0.24369 0.0
C507 C 0.37836 0.89813 0.30669 0.0
N508 N 0.36626 0.89559 0.21268 0.0
C509 C 0.38794 0.91801 0.20223 0.0
C510 C 0.36131 0.88567 0.26422 0.0
C511 C 0.40056 0.92095 0.29623 0.0
C512 C 0.26845 0.84709 0.03934 0.0
N513 N 0.28867 0.86958 0.02285 0.0
C514 C 0.24416 0.84411 0.04229 0.0
C515 C 0.24065 0.86435 0.02811 0.0
C516 C 0.26135 0.88722 0.01119 0.0
C517 C 0.28536 0.88952 1.00881 0.0
C518 C 0.3097 0.88058 0.85388 0.0
C519 C 0.34825 0.90589 0.92907 0.0
C520 C 0.30696 0.87233 0.90788 0.0
N521 N 0.32614 0.88492 0.9447 0.0
C522 C 0.35163 0.91473 0.87546 0.0
C523 C 0.33221 0.90194 0.83767 0.0
C524 C 0.37445 0.88378 0.05216 0.0
C525 C 0.31995 0.80095 0.17796 0.0
C526 C 0.36416 0.84735 0.18336 0.0
C527 C 0.36489 0.82519 0.19452 0.0
C528 C 0.34256 0.80185 0.19215 0.0
N529 N 0.34177 0.8465 0.17098 0.0
C530 C 0.31997 0.82351 0.16694 0.0
Co531 Co 0.45822 0.31344 0.34553 0.0
Co532 Co 0.46716 0.3319 0.48147 0.0
O533 O 0.46521 0.30949 0.42181 0.0
C534 C 0.50227 0.31572 0.28928 0.0
O535 O 0.50862 0.33885 0.27393 0.0
C536 C 0.44414 0.27788 0.53097 0.0
O537 O 0.44536 0.26872 0.48349 0.0
O538 O 0.43382 0.32958 0.45754 0.0
O539 O 0.43302 0.32349 0.36692 0.0
H540 H 0.46217 0.40517 0.56218 0.0
H541 H 0.45581 0.26508 0.37679 0.0
O542 O 0.48371 0.30359 0.32202 0.0
H543 H 0.37019 0.24065 0.30935 0.0
H544 H 0.44272 0.28828 0.14752 0.0
H545 H 0.45088 0.35135 0.28396 0.0
H546 H 0.40391 0.28558 0.3109 0.0
H547 H 0.45079 0.28337 0.24397 0.0
O548 O 0.44904 0.30111 0.53454 0.0
H549 H 0.46096 0.37714 0.48834 0.0
H550 H 0.47652 0.33375 0.60163 0.0
H551 H 0.44269 0.35694 0.18795 0.0
H552 H 0.42281 0.21987 0.37485 0.0
H553 H 0.4386 0.32528 0.11893 0.0
H554 H 0.37959 0.2074 0.34119 0.0
O555 O 0.48497 0.34966 0.34691 0.0
H556 H 0.53185 0.30373 0.51224 0.0
H557 H 0.51605 0.37563 0.51787 0.0
H558 H 0.55804 0.38238 0.54346 0.0
H559 H 0.56618 0.34622 0.54141 0.0
H560 H 0.49048 0.29793 0.48585 0.0
H561 H 0.47763 0.36114 0.67674 0.0
H562 H 0.47055 0.39722 0.65722 0.0
O563 O 0.48668 0.36297 0.4331 0.0
C564 C 0.42474 0.32872 0.40962 0.0
C565 C 0.4653 0.38951 0.57121 0.0
C566 C 0.47392 0.36477 0.63551 0.0
N567 N 0.46862 0.35381 0.54056 0.0
C568 C 0.46466 0.3736 0.52954 0.0
C569 C 0.47312 0.34922 0.59281 0.0
C570 C 0.46998 0.38503 0.62452 0.0
C571 C 0.43708 0.25982 0.3619 0.0
N572 N 0.43174 0.27801 0.34456 0.0
C573 C 0.41846 0.23418 0.361 0.0
C574 C 0.39421 0.2272 0.34215 0.0
C575 C 0.3889 0.24584 0.32439 0.0
C576 C 0.40802 0.27129 0.32583 0.0
C577 C 0.44452 0.30223 0.17717 0.0
C578 C 0.44916 0.33751 0.25419 0.0
C579 C 0.44915 0.29959 0.23186 0.0
N580 N 0.45149 0.31717 0.26959 0.0
C581 C 0.4445 0.34076 0.19987 0.0
C582 C 0.4422 0.32299 0.16117 0.0
C583 C 0.49337 0.36704 0.38289 0.0
C584 C 0.5284 0.31954 0.51439 0.0
C585 C 0.51914 0.35962 0.51748 0.0
C586 C 0.54311 0.36364 0.5318 0.0
C587 C 0.54768 0.34338 0.53054 0.0
N588 N 0.49999 0.336 0.50297 0.0
C589 C 0.50468 0.31625 0.5002 0.0
Co590 Co 0.15647 0.46171 0.6894 0.0
Co591 Co 0.14328 0.46152 0.82604 0.0
O592 O 0.16546 0.46299 0.76651 0.0
C593 C 0.2017 0.50509 0.64083 0.0
O594 O 0.18637 0.51268 0.62183 0.0
C595 C 0.17476 0.43838 0.87235 0.0
O596 O 0.18681 0.44212 0.82596 0.0
O597 O 0.11399 0.42905 0.7947 0.0
O598 O 0.11973 0.43743 0.70474 0.0
H599 H 0.06194 0.45026 0.90441 0.0
H600 H 0.19787 0.45171 0.71986 0.0
O601 O 0.19314 0.48584 0.67238 0.0
H602 H 0.13449 0.37449 0.62463 0.0
H603 H 0.16828 0.45629 0.48726 0.0
H604 H 0.11581 0.46488 0.62945 0.0
H605 H 0.12778 0.41103 0.63584 0.0
H606 H 0.17876 0.45664 0.5844 0.0
O607 O 0.15562 0.44202 0.87547 0.0
H608 H 0.09115 0.45368 0.83109 0.0
H609 H 0.14753 0.46515 0.94776 0.0
H610 H 0.10462 0.46457 0.53271 0.0
H611 H 0.20561 0.41582 0.7089 0.0
H612 H 0.13098 0.46031 0.46084 0.0
H613 H 0.17372 0.3768 0.66118 0.0
O614 O 0.15079 0.4909 0.7003 0.0
H615 H 0.23437 0.52689 0.87038 0.0
H616 H 0.14551 0.50765 0.87281 0.0
H617 H 0.17898 0.54861 0.90796 0.0
H618 H 0.22382 0.55844 0.90756 0.0
H619 H 0.20056 0.48653 0.83478 0.0
H620 H 0.11887 0.46163 0.02237 0.0
H621 H 0.07576 0.45422 1.00094 0.0
O622 O 0.13164 0.48212 0.78189 0.0
C623 C 0.10597 0.42476 0.74508 0.0
C624 C 0.08067 0.45345 0.9143 0.0
C625 C 0.1126 0.45977 0.98048 0.0
N626 N 0.12095 0.45941 0.88495 0.0
C627 C 0.09728 0.45537 0.8729 0.0
C628 C 0.12869 0.46157 0.93801 0.0
C629 C 0.08842 0.45566 0.96844 0.0
C630 C 0.18387 0.43477 0.69922 0.0
N631 N 0.16213 0.43324 0.67954 0.0
C632 C 0.18837 0.41452 0.69307 0.0
C633 C 0.17047 0.39263 0.66631 0.0
C634 C 0.14844 0.3913 0.64591 0.0
C635 C 0.14459 0.41192 0.65288 0.0
C636 C 0.15662 0.45812 0.51818 0.0
C637 C 0.12732 0.46292 0.59843 0.0
C638 C 0.16243 0.45829 0.57329 0.0
N639 N 0.14788 0.46074 0.61266 0.0
C640 C 0.1209 0.46278 0.54371 0.0
C641 C 0.1357 0.46039 0.5034 0.0
C642 C 0.13849 0.49484 0.73731 0.0
C643 C 0.21483 0.52262 0.87189 0.0
C644 C 0.16486 0.51143 0.87314 0.0
C645 C 0.18379 0.53484 0.89285 0.0
C646 C 0.20893 0.54036 0.89253 0.0
N647 N 0.17059 0.49368 0.8544 0.0
C648 C 0.19538 0.49942 0.85244 0.0
Co649 Co 0.70256 0.14374 0.01956 0.0
Co650 Co 0.6943 0.13921 0.15679 0.0
O651 O 0.71483 0.15725 0.093 0.0
C652 C 0.71957 0.19846 0.99635 0.0
O653 O 0.70381 0.19843 0.03293 0.0
C654 C 0.74932 0.16994 0.20126 0.0
O655 O 0.75813 0.18091 0.15394 0.0
O656 O 0.69526 0.10766 0.13263 0.0
O657 O 0.68349 0.10788 0.04634 0.0
H658 H 0.62258 0.06382 0.24966 0.0
H659 H 0.75762 0.17728 0.03857 0.0
O660 O 0.72151 0.17881 0.98887 0.0
H661 H 0.74903 0.09805 0.9643 0.0
H662 H 0.71031 0.13975 0.81587 0.0
H663 H 0.65278 0.10535 0.97373 0.0
H664 H 0.71137 0.10278 0.97655 0.0
H665 H 0.72593 0.15513 0.90862 0.0
O666 O 0.72626 0.15147 0.20518 0.0
H667 H 0.64852 0.08869 0.17142 0.0
H668 H 0.69675 0.14908 0.27698 0.0
H669 H 0.63647 0.0892 0.88179 0.0
H670 H 0.79587 0.17347 0.0264 0.0
H671 H 0.6653 0.10645 0.802 0.0
H672 H 0.79168 0.1336 0.98913 0.0
O673 O 0.67201 0.1469 0.03223 0.0
H674 H 0.72598 0.23333 0.17497 0.0
H675 H 0.65362 0.14727 0.20347 0.0
H676 H 0.64964 0.18412 0.229 0.0
H677 H 0.68608 0.22764 0.21546 0.0
H678 H 0.72901 0.19615 0.14911 0.0
H679 H 0.67155 0.12468 0.35636 0.0
H680 H 0.63406 0.08179 0.34297 0.0
O681 O 0.6616 0.12788 0.11393 0.0
C682 C 0.68633 0.09646 0.08683 0.0
C683 C 0.63885 0.08251 0.25601 0.0
C684 C 0.66637 0.11664 0.31591 0.0
N685 N 0.67412 0.12035 0.21946 0.0
C686 C 0.65359 0.09671 0.21183 0.0
C687 C 0.68067 0.1303 0.27077 0.0
C688 C 0.64532 0.09259 0.30836 0.0
C689 C 0.75568 0.15991 0.02216 0.0
N690 N 0.7323 0.14028 1.00841 0.0
C691 C 0.77739 0.15785 0.01541 0.0
C692 C 0.77503 0.13548 0.99452 0.0
C693 C 0.75111 0.11552 0.98059 0.0
C694 C 0.72983 0.11828 0.98781 0.0
C695 C 0.69756 0.13208 0.8503 0.0
C696 C 0.66551 0.11289 0.93932 0.0
C697 C 0.70628 0.1408 0.90293 0.0
N698 N 0.69033 0.13114 0.94667 0.0
C699 C 0.65613 0.10369 0.8873 0.0
C700 C 0.67231 0.11339 0.84255 0.0
C701 C 0.65608 0.13614 0.07075 0.0
C702 C 0.71017 0.21446 0.18237 0.0
C703 C 0.66985 0.16601 0.19833 0.0
C704 C 0.66735 0.18689 0.21253 0.0
C705 C 0.68776 0.21127 0.20483 0.0
N706 N 0.69221 0.16915 0.17795 0.0
C707 C 0.71195 0.19312 0.16863 0.0
H708 H 0.38211 0.43 0.33441 0.0
H709 H 0.32029 0.37131 0.241 0.0
H710 H 0.33345 0.34041 0.27069 0.0
H711 H 0.42838 0.40857 0.30923 0.0
H712 H 0.44162 0.41743 0.37672 0.0
H713 H 0.42811 0.43452 0.34406 0.0
H714 H 0.39869 0.42519 0.42723 0.0
H715 H 0.41132 0.4072 0.45944 0.0
H716 H 0.37765 0.39279 0.44761 0.0
H717 H 0.35252 0.31534 0.31638 0.0
H718 H 0.37866 0.29997 0.36175 0.0
H719 H 0.42803 0.3752 0.42604 0.0
C720 C 0.37179 0.41079 0.31885 0.0
C721 C 0.35047 0.40322 0.2842 0.0
C722 C 0.33709 0.37776 0.266 0.0
C723 C 0.34426 0.36002 0.28349 0.0
C724 C 0.36488 0.36799 0.31925 0.0
C725 C 0.37876 0.39297 0.33574 0.0
C726 C 0.40003 0.39687 0.37438 0.0
C727 C 0.42608 0.41544 0.34961 0.0
C728 C 0.39671 0.40605 0.43049 0.0
C729 C 0.39598 0.37012 0.37772 0.0
C730 C 0.3755 0.35369 0.34586 0.0
C731 C 0.36849 0.32813 0.34141 0.0
C732 C 0.38332 0.31945 0.36795 0.0
C733 C 0.40501 0.33607 0.39909 0.0
C734 C 0.41101 0.36168 0.40472 0.0
H735 H 0.95986 0.37791 0.68479 0.0
H736 H 0.96075 0.3264 0.56408 0.0
H737 H 1.00501 0.33926 0.59147 0.0
H738 H 0.02468 0.42787 0.66534 0.0
H739 H 0.0293 0.43642 0.73642 0.0
H740 H 0.9981 0.42282 0.70683 0.0
H741 H 0.98097 0.38761 0.7805 0.0
H742 H 1.01224 0.40083 0.80975 0.0
H743 H 0.99537 0.3681 0.78852 0.0
H744 H 0.04948 0.35746 0.63578 0.0
H745 H 0.09083 0.38278 0.68191 0.0
H746 H 0.06098 0.42348 0.77112 0.0
C747 C 0.96928 0.36927 0.6638 0.0
C748 C 0.95655 0.35091 0.62222 0.0
C749 C 0.96995 0.34051 0.59567 0.0
C750 C 0.99505 0.34759 0.61145 0.0
C751 C 1.00669 0.36528 0.65358 0.0
C752 C 0.99427 0.37627 0.67863 0.0
C753 C 1.01104 0.39551 0.72136 0.0
C754 C 0.01608 0.42224 0.70659 0.0
C755 C 0.99919 0.38753 0.77841 0.0
C756 C 0.03505 0.39377 0.71683 0.0
C757 C 0.03207 0.37601 0.67794 0.0
C758 C 0.05185 0.37139 0.66606 0.0
C759 C 0.07536 0.38588 0.69271 0.0
C760 C 0.07932 0.40501 0.73089 0.0
C761 C 0.05855 0.40854 0.74369 0.0
H762 H 0.59139 0.96096 0.95856 0.0
H763 H 0.65427 0.94691 0.94647 0.0
H764 H 0.68265 0.98879 0.98914 0.0
H765 H 0.62857 0.03056 0.93158 0.0
H766 H 0.6096 0.03674 0.97871 0.0
H767 H 0.59575 1.00701 0.94266 0.0
H768 H 0.58227 0.98326 0.03514 0.0
H769 H 0.59692 0.01291 0.07158 0.0
H770 H 0.60607 0.9895 0.08604 0.0
H771 H 0.70331 0.03175 0.04216 0.0
H772 H 0.71529 0.07331 0.08481 0.0
H773 H 0.6388 0.05904 0.05998 0.0
C774 C 0.61142 0.96724 0.96261 0.0
C775 C 0.62081 0.951 0.94718 0.0
C776 C 0.64687 0.9594 0.95572 0.0
C777 C 0.66301 0.98302 0.98092 0.0
C778 C 0.65288 0.9982 0.99736 0.0
C779 C 0.62775 0.99081 0.98713 0.0
C780 C 0.62119 0.01015 1.00928 0.0
C781 C 0.61332 0.02181 0.96279 0.0
C782 C 0.60038 0.99824 0.0531 0.0
C783 C 0.64641 0.02957 0.03403 0.0
C784 C 0.66448 0.02231 0.02744 0.0
C785 C 0.6892 0.03745 0.0474 0.0
C786 C 0.69578 0.06089 0.07253 0.0
C787 C 0.67782 0.06912 0.07745 0.0
C788 C 0.65277 0.05295 0.0584 0.0
H789 H 0.64 0.58879 0.26229 0.0
H790 H 0.71699 0.63953 0.31547 0.0
H791 H 0.70279 0.66638 0.36217 0.0
H792 H 0.62227 0.63873 0.23973 0.0
H793 H 0.59035 0.6183 0.26367 0.0
H794 H 0.60742 0.60484 0.23091 0.0
H795 H 0.59936 0.57612 0.31529 0.0
H796 H 0.58292 0.59002 0.34891 0.0
H797 H 0.60972 0.59045 0.38149 0.0
H798 H 0.6785 0.68571 0.41149 0.0
H799 H 0.64798 0.69849 0.44581 0.0
H800 H 0.58745 0.6357 0.35786 0.0
C801 C 0.65406 0.6062 0.28157 0.0
C802 C 0.67985 0.61249 0.28354 0.0
C803 C 0.69733 0.6347 0.31198 0.0
C804 C 0.68933 0.64994 0.33919 0.0
C805 C 0.66364 0.64282 0.33785 0.0
C806 C 0.64637 0.62173 0.30861 0.0
C807 C 0.61974 0.61775 0.31449 0.0
C808 C 0.60934 0.62005 0.2589 0.0
C809 C 0.60189 0.59206 0.34166 0.0
C810 C 0.62462 0.63969 0.35172 0.0
C811 C 0.64998 0.65387 0.36541 0.0
C812 C 0.65864 0.67476 0.40054 0.0
C813 C 0.64114 0.68176 0.42052 0.0
C814 C 0.61527 0.66807 0.405 0.0
C815 C 0.60709 0.64657 0.37073 0.0
H816 H 0.96598 0.58834 0.72755 0.0
H817 H 0.95236 0.65148 0.73968 0.0
H818 H 0.99402 0.67962 0.69636 0.0
H819 H 0.03634 0.62571 0.75117 0.0
H820 H 0.04196 0.60657 0.70346 0.0
H821 H 1.01265 0.59287 0.7412 0.0
H822 H 0.98791 0.57906 0.65001 0.0
H823 H 0.01712 0.59367 0.61187 0.0
H824 H 0.99348 0.6027 0.5991 0.0
H825 H 0.03655 0.70028 0.64435 0.0
H826 H 0.07829 0.71276 0.60249 0.0
H827 H 0.06392 0.63603 0.62261 0.0
C828 C 0.97243 0.60841 0.72381 0.0
C829 C 0.95634 0.61796 0.73965 0.0
C830 C 0.9648 0.644 0.73054 0.0
C831 C 0.98828 0.66001 0.70488 0.0
C832 C 1.00324 0.64976 0.68795 0.0
C833 C 0.99588 0.62465 0.69829 0.0
C834 C 0.01503 0.61807 0.67471 0.0
C835 C 0.02722 0.61035 0.72035 0.0
C836 C 1.00264 0.59713 0.63136 0.0
C837 C 0.03421 0.64326 0.64906 0.0
C838 C 0.02702 0.6613 0.65676 0.0
C839 C 0.04216 0.68617 0.63782 0.0
C840 C 0.06567 0.69303 0.61293 0.0
C841 C 0.07393 0.67514 0.60651 0.0
C842 C 0.05761 0.64983 0.62416 0.0
H843 H 0.33272 0.9597 0.06775 0.0
H844 H 0.39573 0.94543 0.07243 0.0
H845 H 0.42237 0.98533 0.0227 0.0
H846 H 0.34334 0.98745 0.93835 0.0
H847 H 0.33658 0.01234 0.95496 0.0
H848 H 0.32217 0.98328 0.9938 0.0
H849 H 0.34055 1.00831 0.0834 0.0
H850 H 0.35419 0.03748 0.04499 0.0
H851 H 0.3741 0.03067 0.08803 0.0
H852 H 0.44074 0.02412 0.96193 0.0
H853 H 0.45394 0.06536 0.91813 0.0
H854 H 0.38172 0.05869 0.96024 0.0
C855 C 0.3525 0.96565 0.06068 0.0
C856 C 0.36235 0.94969 0.07621 0.0
C857 C 0.38801 0.9577 0.0635 0.0
C858 C 0.40318 0.98016 0.03404 0.0
C859 C 0.39276 0.99502 0.01792 0.0
C860 C 0.36837 0.98873 0.03279 0.0
C861 C 0.3624 1.00889 0.01199 0.0
C862 C 0.33977 0.99728 0.97243 0.0
C863 C 0.35752 0.02212 0.05995 0.0
C864 C 0.38697 0.02706 0.9823 0.0
C865 C 0.40392 0.01824 0.98512 0.0
C866 C 0.42762 0.03124 0.95979 0.0
C867 C 0.43479 0.05451 0.93363 0.0
C868 C 0.41865 0.0651 0.93344 0.0
C869 C 0.39419 0.0508 0.95764 0.0
H870 H 0.22426 0.44929 0.89036 0.0
H871 H 0.15094 0.41673 0.96995 0.0
H872 H 0.16961 0.40935 0.0531 0.0
H873 H 0.24575 0.40864 0.95076 0.0
H874 H 0.27814 0.43381 0.95871 0.0
H875 H 0.25884 0.43532 0.90466 0.0
H876 H 0.26777 0.47918 0.9393 0.0
H877 H 0.28713 0.47782 0.99338 0.0
H878 H 0.26085 0.48256 1.00917 0.0
H879 H 0.19654 0.40489 0.12806 0.0
H880 H 0.22924 0.40698 0.19048 0.0
H881 H 0.28657 0.44526 0.06573 0.0
C882 C 0.21198 0.44029 0.92502 0.0
C883 C 0.18578 0.43315 0.92276 0.0
C884 C 0.17082 0.42213 0.96995 0.0
C885 C 0.18135 0.41786 0.01751 0.0
C886 C 0.20714 0.42508 0.01823 0.0
C887 C 0.22234 0.43637 0.97334 0.0
C888 C 0.24981 0.44362 0.98574 0.0
C889 C 0.25865 0.4295 0.9477 0.0
C890 C 0.26743 0.47251 0.98165 0.0
C891 C 0.24775 0.43448 0.04449 0.0
C892 C 0.22286 0.42361 0.06211 0.0
C893 C 0.21604 0.41348 0.11448 0.0
C894 C 0.23493 0.41469 0.14981 0.0
C895 C 0.26081 0.42623 0.13374 0.0
C896 C 0.26712 0.43621 0.07981 0.0
H897 H 0.85474 0.28195 0.39274 0.0
H898 H 0.82931 0.22675 0.52413 0.0
H899 H 0.79946 0.1937 0.46153 0.0
H900 H 0.79398 0.25864 0.32927 0.0
H901 H 0.80577 0.26381 0.26036 0.0
H902 H 0.82601 0.28328 0.31476 0.0
H903 H 0.85965 0.27098 0.28851 0.0
H904 H 0.83954 0.25153 0.2339 0.0
H905 H 0.85065 0.23792 0.28473 0.0
H906 H 0.76943 0.16652 0.38566 0.0
H907 H 0.74448 0.14744 0.30171 0.0
H908 H 0.7901 0.2187 0.2166 0.0
C909 C 0.8432 0.26285 0.40824 0.0
C910 C 0.84477 0.25728 0.46411 0.0
C911 C 0.82887 0.23187 0.48202 0.0
C912 C 0.81164 0.21279 0.44656 0.0
C913 C 0.8103 0.21895 0.39233 0.0
C914 C 0.82587 0.24331 0.37297 0.0
C915 C 0.82037 0.24476 0.3127 0.0
C916 C 0.81098 0.26375 0.30376 0.0
C917 C 0.84396 0.25171 0.2779 0.0
C918 C 0.79926 0.21756 0.30146 0.0
C919 C 0.79362 0.20303 0.34816 0.0
C920 C 0.774 0.1777 0.34872 0.0
C921 C 0.75985 0.16694 0.30064 0.0
C922 C 0.7654 0.18119 0.25172 0.0
C923 C 0.78557 0.20692 0.25264 0.0
H924 H 0.58204 0.79943 0.81371 0.0
H925 H 0.60934 0.87117 0.72941 0.0
H926 H 0.61501 0.85199 0.6455 0.0
H927 H 0.62259 0.77917 0.74648 0.0
H928 H 0.59805 0.74633 0.74226 0.0
H929 H 0.59764 0.76597 0.79671 0.0
H930 H 0.55213 0.75487 0.76939 0.0
H931 H 0.55241 0.73519 0.71492 0.0
H932 H 0.5459 0.76046 0.7004 0.0
H933 H 0.61764 0.82475 0.5697 0.0
H934 H 0.61409 0.79166 0.50686 0.0
H935 H 0.58263 0.73597 0.63708 0.0
C936 C 0.58962 0.81128 0.77786 0.0
C937 C 0.59572 0.83718 0.77898 0.0
C938 C 0.60481 0.85153 0.7303 0.0
C939 C 0.60809 0.84072 0.68226 0.0
C940 C 0.60186 0.81523 0.68258 0.0
C941 C 0.59256 0.80058 0.72903 0.0
C942 C 0.58591 0.77323 0.71742 0.0
C943 C 0.60201 0.76574 0.75283 0.0
C944 C 0.55739 0.75485 0.72605 0.0
C945 C 0.59303 0.77475 0.65731 0.0
C946 C 0.60241 0.79927 0.63833 0.0
C947 C 0.61027 0.80554 0.58435 0.0
C948 C 0.60822 0.78643 0.54876 0.0
C949 C 0.59814 0.76088 0.56628 0.0
C950 C 0.5906 0.75517 0.62188 0.0
H951 H 0.78234 0.56775 0.13221 0.0
H952 H 0.74281 0.60145 0.05135 0.0
H953 H 0.76975 0.60945 0.96961 0.0
H954 H 0.84513 0.60862 0.07567 0.0
H955 H 0.8523 0.58341 0.06744 0.0
H956 H 0.8309 0.58147 0.12044 0.0
H957 H 0.79629 0.53807 0.08306 0.0
H958 H 0.81759 0.53986 0.03003 0.0
H959 H 0.78685 0.53548 0.01264 0.0
H960 H 0.80202 0.61459 0.8964 0.0
H961 H 0.83333 0.61305 0.83548 0.0
H962 H 0.85056 0.5731 0.96 0.0
C963 C 0.7795 0.57711 0.09756 0.0
C964 C 0.76054 0.5844 0.09908 0.0
C965 C 0.7572 0.59591 0.05192 0.0
C966 C 0.77251 0.60055 1.00515 0.0
C967 C 0.79098 0.59318 1.00517 0.0
C968 C 0.7943 0.58138 0.04998 0.0
C969 C 0.81457 0.57411 0.03836 0.0
C970 C 0.83706 0.58771 0.07783 0.0
C971 C 0.80314 0.54516 0.0412 0.0
C972 C 0.82237 0.58384 0.98017 0.0
C973 C 0.80866 0.59502 0.96216 0.0
C974 C 0.81268 0.60576 0.91027 0.0
C975 C 0.83076 0.60486 0.8758 0.0
C976 C 0.84481 0.59302 0.89224 0.0
C977 C 0.8404 0.58239 0.94567 0.0
H978 H 0.17939 0.73959 0.3917 0.0
H979 H 0.20668 0.79223 0.52753 0.0
H980 H 0.23903 0.82514 0.46831 0.0
H981 H 0.24029 0.76039 0.3283 0.0
H982 H 0.22885 0.75759 0.25944 0.0
H983 H 0.20771 0.7377 0.31236 0.0
H984 H 0.17651 0.75366 0.28933 0.0
H985 H 0.19753 0.77354 0.23624 0.0
H986 H 0.18773 0.78728 0.28926 0.0
H987 H 0.27107 0.85251 0.3947 0.0
H988 H 0.2964 0.87249 0.31135 0.0
H989 H 0.24696 0.80432 0.22023 0.0
C990 C 0.19203 0.75808 0.40893 0.0
C991 C 0.19009 0.76297 0.465 0.0
C992 C 0.20729 0.78765 0.48514 0.0
C993 C 0.226 0.80664 0.45165 0.0
C994 C 0.22749 0.80123 0.39703 0.0
C995 C 0.21071 0.77765 0.37548 0.0
C996 C 0.21613 0.77719 0.31483 0.0
C997 C 0.22369 0.75702 0.30305 0.0
C998 C 0.1931 0.77265 0.28038 0.0
C999 C 0.23854 0.80398 0.30594 0.0
C1000 C 0.24503 0.81745 0.35411 0.0
C1001 C 0.26585 0.84218 0.35663 0.0
C1002 C 0.28023 0.85346 0.30895 0.0
C1003 C 0.27362 0.8404 0.25851 0.0
C1004 C 0.25237 0.81522 0.25758 0.0
H1005 H 0.45278 0.1709 0.71428 0.0
H1006 H 0.4148 0.18798 0.84312 0.0
H1007 H 0.41294 0.21986 0.78442 0.0
H1008 H 0.49008 0.23463 0.6619 0.0
H1009 H 0.48636 0.22536 0.59127 0.0
H1010 H 0.48502 0.20377 0.64329 0.0
H1011 H 0.44087 0.16953 0.60842 0.0
H1012 H 0.44213 0.19099 0.55615 0.0
H1013 H 0.41573 0.17698 0.60281 0.0
H1014 H 0.4176 0.25279 0.71272 0.0
H1015 H 0.42425 0.27975 0.63134 0.0
H1016 H 0.45571 0.23958 0.5452 0.0
C1017 C 0.44387 0.18117 0.73002 0.0
C1018 C 0.43388 0.17652 0.78401 0.0
C1019 C 0.42248 0.19069 0.80229 0.0
C1020 C 0.42142 0.20912 0.76912 0.0
C1021 C 0.4315 0.21334 0.71661 0.0
C1022 C 0.44216 0.19947 0.69674 0.0
C1023 C 0.45098 0.20739 0.63807 0.0
C1024 C 0.47982 0.21844 0.63337 0.0
C1025 C 0.43657 0.18488 0.59906 0.0
C1026 C 0.44377 0.22786 0.62834 0.0
C1027 C 0.43288 0.23127 0.67448 0.0
C1028 C 0.42579 0.24994 0.67616 0.0
C1029 C 0.42966 0.26528 0.62963 0.0
C1030 C 0.44007 0.26171 0.58107 0.0
C1031 C 0.4472 0.24262 0.58102 0.0
H1032 H 0.2124 0.51758 0.53391 0.0
H1033 H 0.24418 0.50741 0.68357 0.0
H1034 H 0.28035 0.51027 0.63188 0.0
H1035 H 0.22214 0.47703 0.46064 0.0
H1036 H 0.2297 0.4937 0.39645 0.0
H1037 H 0.21038 0.49831 0.44522 0.0
H1038 H 0.24151 0.54676 0.44498 0.0
H1039 H 0.26087 0.5425 0.39525 0.0
H1040 H 0.27475 0.55874 0.45827 0.0
H1041 H 0.30741 0.5053 0.56435 0.0
H1042 H 0.32381 0.49283 0.48542 0.0
H1043 H 0.27449 0.50513 0.37768 0.0
C1044 C 0.2277 0.51735 0.55606 0.0
C1045 C 0.22595 0.51296 0.61287 0.0
C1046 C 0.24553 0.51131 0.64023 0.0
C1047 C 0.26612 0.51293 0.61116 0.0
C1048 C 0.26674 0.51609 0.55475 0.0
C1049 C 0.24812 0.51845 0.5274 0.0
C1050 C 0.25091 0.51744 0.46614 0.0
C1051 C 0.22687 0.4953 0.44066 0.0
C1052 C 0.2574 0.54288 0.4396 0.0
C1053 C 0.27323 0.5129 0.46333 0.0
C1054 C 0.28237 0.51274 0.51497 0.0
C1055 C 0.30096 0.50612 0.52368 0.0
C1056 C 0.31011 0.49902 0.47874 0.0
C1057 C 0.30073 0.49864 0.4258 0.0
C1058 C 0.28249 0.50617 0.41769 0.0
H1059 H 0.81388 0.27161 0.75251 0.0
H1060 H 0.80662 0.33741 0.79002 0.0
H1061 H 0.77467 0.31257 0.86062 0.0
H1062 H 0.7474 0.22265 0.77695 0.0
H1063 H 0.75651 0.20132 0.80715 0.0
H1064 H 0.7761 0.22342 0.75524 0.0
H1065 H 0.81473 0.24105 0.8205 0.0
H1066 H 0.79526 0.21932 0.8729 0.0
H1067 H 0.81268 0.25293 0.88642 0.0
H1068 H 0.74559 0.28081 0.93264 0.0
H1069 H 0.72171 0.245 0.99677 0.0
H1070 H 0.75062 0.20186 0.91282 0.0
C1071 C 0.80507 0.28066 0.77433 0.0
C1072 C 0.81257 0.3064 0.76527 0.0
C1073 C 0.80101 0.31764 0.79593 0.0
C1074 C 0.78288 0.30369 0.83621 0.0
C1075 C 0.7766 0.27858 0.8454 0.0
C1076 C 0.78728 0.26717 0.81496 0.0
C1077 C 0.77893 0.24066 0.83513 0.0
C1078 C 0.76383 0.22084 0.79099 0.0
C1079 C 0.80176 0.23838 0.85491 0.0
C1080 C 0.76208 0.23896 0.88204 0.0
C1081 C 0.76071 0.26084 0.8873 0.0
C1082 C 0.74642 0.26352 0.92861 0.0
C1083 C 0.73301 0.24315 0.96498 0.0
C1084 C 0.73421 0.22057 0.95996 0.0
C1085 C 0.74912 0.21873 0.91797 0.0
H1086 H 0.51953 0.77188 0.03201 0.0
H1087 H 0.52907 0.8322 0.14033 0.0
H1088 H 0.52053 0.80413 0.21957 0.0
H1089 H 0.46975 0.7171 0.11654 0.0
H1090 H 0.48346 0.69751 0.10107 0.0
H1091 H 0.48524 0.72045 0.05196 0.0
H1092 H 0.53415 0.74059 0.04858 0.0
H1093 H 0.53254 0.71788 0.09775 0.0
H1094 H 0.55216 0.75136 0.11093 0.0
H1095 H 0.51931 0.77338 0.28679 0.0
H1096 H 0.52358 0.74064 0.33795 0.0
H1097 H 0.51328 0.69891 0.18819 0.0
C1098 C 0.51871 0.77865 0.07231 0.0
C1099 C 0.52452 0.80396 0.08035 0.0
C1100 C 0.52438 0.81272 0.13363 0.0
C1101 C 0.51948 0.79691 0.17882 0.0
C1102 C 0.51468 0.7723 0.17009 0.0
C1103 C 0.51398 0.76303 0.1182 0.0
C1104 C 0.51132 0.73687 0.12087 0.0
C1105 C 0.48592 0.71679 0.09614 0.0
C1106 C 0.53389 0.73669 0.09289 0.0
C1107 C 0.51173 0.73347 0.18208 0.0
C1108 C 0.51343 0.75404 0.20967 0.0
C1109 C 0.51718 0.75676 0.26591 0.0
C1110 C 0.51963 0.73816 0.29465 0.0
C1111 C 0.51806 0.71702 0.26718 0.0
C1112 C 0.51352 0.7144 0.21042 0.0
H1113 H 0.75461 0.54028 0.3895 0.0
H1114 H 0.68752 0.47323 0.44972 0.0
H1115 H 0.71361 0.468 0.5204 0.0
H1116 H 0.8021 0.52042 0.42059 0.0
H1117 H 0.8252 0.55219 0.44104 0.0
H1118 H 0.80219 0.54729 0.38915 0.0
H1119 H 0.7881 0.57422 0.44506 0.0
H1120 H 0.8106 0.5788 0.49763 0.0
H1121 H 0.77745 0.56521 0.51427 0.0
H1122 H 0.74661 0.47364 0.59217 0.0
H1123 H 0.78315 0.48932 0.65589 0.0
H1124 H 0.82668 0.55369 0.54905 0.0
C1125 C 0.74546 0.5239 0.41609 0.0
C1126 C 0.71903 0.50705 0.41372 0.0
C1127 C 0.70779 0.48627 0.45045 0.0
C1128 C 0.72246 0.48318 0.49081 0.0
C1129 C 0.74829 0.50099 0.49377 0.0
C1130 C 0.75966 0.52082 0.45692 0.0
C1131 C 0.78689 0.53916 0.47209 0.0
C1132 C 0.80517 0.53978 0.4281 0.0
C1133 C 0.79098 0.56591 0.48291 0.0
C1134 C 0.78898 0.52689 0.52386 0.0
C1135 C 0.76675 0.50472 0.53561 0.0
C1136 C 0.7642 0.49083 0.58295 0.0
C1137 C 0.78497 0.49989 0.61897 0.0
C1138 C 0.80772 0.52279 0.60766 0.0
C1139 C 0.80958 0.5362 0.55925 0.0
H1140 H 0.24775 0.74579 0.70236 0.0
H1141 H 0.18943 0.69485 0.81415 0.0
H1142 H 0.21822 0.71555 0.89183 0.0
H1143 H 0.30521 0.75499 0.78737 0.0
H1144 H 0.32282 0.78806 0.76859 0.0
H1145 H 0.3005 0.76502 0.72133 0.0
H1146 H 0.2775 0.79109 0.71381 0.0
H1147 H 0.29942 0.81394 0.76134 0.0
H1148 H 0.26581 0.79828 0.7748 0.0
H1149 H 0.24818 0.74736 0.95646 0.0
H1150 H 0.27869 0.78688 1.00365 0.0
H1151 H 0.31871 0.81717 0.8514 0.0
C1152 C 0.24176 0.73821 0.74304 0.0
C1153 C 0.21684 0.71839 0.75268 0.0
C1154 C 0.20881 0.70965 0.80636 0.0
C1155 C 0.225 0.7213 0.85062 0.0
C1156 C 0.24918 0.74164 0.84036 0.0
C1157 C 0.25775 0.74983 0.78782 0.0
C1158 C 0.28298 0.77439 0.78846 0.0
C1159 C 0.30413 0.77036 0.76506 0.0
C1160 C 0.2813 0.79566 0.75782 0.0
C1161 C 0.28641 0.77946 0.84917 0.0
C1162 C 0.26691 0.76015 0.87846 0.0
C1163 C 0.26405 0.76222 0.93431 0.0
C1164 C 0.28134 0.78473 0.96075 0.0
C1165 C 0.30126 0.80477 0.93132 0.0
C1166 C 0.30415 0.80177 0.87521 0.0
H1167 H 0.47289 0.19266 0.13121 0.0
H1168 H 0.53173 0.23972 0.01549 0.0
H1169 H 0.54587 0.27661 0.0774 0.0
H1170 H 0.45534 0.23671 0.16617 0.0
H1171 H 0.44919 0.22731 0.23671 0.0
H1172 H 0.44618 0.20469 0.18603 0.0
H1173 H 0.47811 0.19637 0.23976 0.0
H1174 H 0.4814 0.21927 0.29035 0.0
H1175 H 0.5091 0.22258 0.25604 0.0
H1176 H 0.54933 0.30921 0.14688 0.0
H1177 H 0.54159 0.3342 0.21577 0.0
H1178 H 0.48185 0.2644 0.28674 0.0
C1179 C 0.48895 0.21063 0.11895 0.0
C1180 C 0.50115 0.21342 0.06845 0.0
C1181 C 0.52217 0.23722 0.05415 0.0
C1182 C 0.53035 0.25819 0.0891 0.0
C1183 C 0.51758 0.25479 0.13842 0.0
C1184 C 0.49744 0.23148 0.15335 0.0
C1185 C 0.48559 0.23288 0.2063 0.0
C1186 C 0.45743 0.22495 0.19829 0.0
C1187 C 0.48876 0.21682 0.25074 0.0
C1188 C 0.50161 0.26088 0.21819 0.0
C1189 C 0.52012 0.27326 0.17896 0.0
C1190 C 0.53529 0.29963 0.17843 0.0
C1191 C 0.53078 0.31367 0.21777 0.0
C1192 C 0.51125 0.30126 0.25694 0.0
C1193 C 0.49728 0.2745 0.25821 0.0
H1194 H 0.40487 0.53034 0.26467 0.0
H1195 H 0.39123 0.49032 0.41847 0.0
H1196 H 0.43155 0.52483 0.45421 0.0
H1197 H 0.47465 0.55952 0.26302 0.0
H1198 H 0.47956 0.58917 0.23566 0.0
H1199 H 0.451 0.55996 0.21937 0.0
H1200 H 0.42386 0.57878 0.25532 0.0
H1201 H 0.4523 0.60799 0.2718 0.0
H1202 H 0.42885 0.5911 0.32375 0.0
H1203 H 0.47251 0.56439 0.47537 0.0
H1204 H 0.50998 0.60722 0.48207 0.0
H1205 H 0.49629 0.62354 0.31705 0.0
C1206 C 0.4106 0.52857 0.30536 0.0
C1207 C 0.39487 0.50728 0.33836 0.0
C1208 C 0.40291 0.5062 0.39209 0.0
C1209 C 0.42588 0.52576 0.41285 0.0
C1210 C 0.44068 0.54665 0.37978 0.0
C1211 C 0.43336 0.54831 0.32726 0.0
C1212 C 0.45187 0.57385 0.30206 0.0
C1213 C 0.46505 0.57041 0.25206 0.0
C1214 C 0.43841 0.58881 0.28738 0.0
C1215 C 0.47047 0.58629 0.34882 0.0
C1216 C 0.46382 0.57008 0.39293 0.0
C1217 C 0.4779 0.57727 0.44106 0.0
C1218 C 0.49919 0.60174 0.44452 0.0
C1219 C 0.50612 0.61905 0.40042 0.0
C1220 C 0.49157 0.61094 0.35174 0.0
H1221 H 0.88637 0.49069 0.75961 0.0
H1222 H 0.90809 0.52879 0.60296 0.0
H1223 H 0.91354 0.49411 0.56655 0.0
H1224 H 0.92766 0.46241 0.75659 0.0
H1225 H 0.90399 0.43301 0.7869 0.0
H1226 H 0.90459 0.46222 0.80296 0.0
H1227 H 0.85771 0.4424 0.77245 0.0
H1228 H 0.85697 0.41317 0.75627 0.0
H1229 H 0.84871 0.4291 0.70505 0.0
H1230 H 0.91513 0.45441 0.54545 0.0
H1231 H 0.9102 0.41166 0.53991 0.0
H1232 H 0.88458 0.3976 0.7081 0.0
C1233 C 0.89273 0.492 0.71804 0.0
C1234 C 0.89706 0.51277 0.68448 0.0
C1235 C 0.9048 0.51329 0.62976 0.0
C1236 C 0.908 0.49363 0.60862 0.0
C1237 C 0.90311 0.47324 0.64235 0.0
C1238 C 0.8955 0.47218 0.69584 0.0
C1239 C 0.88952 0.44711 0.72197 0.0
C1240 C 0.90752 0.45145 0.76995 0.0
C1241 C 0.86157 0.43206 0.73998 0.0
C1242 C 0.89468 0.43422 0.67466 0.0
C1243 C 0.90287 0.44979 0.62939 0.0
C1244 C 0.90868 0.44203 0.58066 0.0
C1245 C 0.90575 0.41761 0.57786 0.0
C1246 C 0.89666 0.40093 0.6232 0.0
C1247 C 0.89137 0.40966 0.6724 0.0
H1248 H 0.50218 0.8753 0.04941 0.0
H1249 H 0.51262 0.90202 0.88198 0.0
H1250 H 0.47465 0.90649 0.88961 0.0
H1251 H 0.43473 0.83915 0.04757 0.0
H1252 H 0.4306 0.84757 0.11565 0.0
H1253 H 0.45915 0.84716 0.09805 0.0
H1254 H 0.48628 0.89382 0.1297 0.0
H1255 H 0.45779 0.89435 0.1475 0.0
H1256 H 0.48037 0.91772 0.1011 0.0
H1257 H 0.43393 0.90521 0.91267 0.0
H1258 H 0.39429 0.90025 0.95094 0.0
H1259 H 0.41079 0.8768 0.10552 0.0
C1260 C 0.4966 0.88224 0.01438 0.0
C1261 C 0.51044 0.88807 0.9648 0.0
C1262 C 0.50241 0.89721 0.92023 0.0
C1263 C 0.48083 0.89989 0.92421 0.0
C1264 C 0.46753 0.89372 0.97329 0.0
C1265 C 0.4752 0.88532 0.01782 0.0
C1266 C 0.45729 0.87983 0.06569 0.0
C1267 C 0.4447 0.85176 0.08272 0.0
C1268 C 0.47127 0.89748 0.11385 0.0
C1269 C 0.43809 0.88598 0.04072 0.0
C1270 C 0.44442 0.89391 0.98733 0.0
C1271 C 0.42898 0.89934 0.95465 0.0
C1272 C 0.40642 0.89643 0.97682 0.0
C1273 C 0.39944 0.88839 0.0315 0.0
C1274 C 0.41576 0.88342 0.06399 0.0
H1275 H 0.62962 0.4928 0.37159 0.0
H1276 H 0.60984 0.50569 0.20917 0.0
H1277 H 0.56645 0.46948 0.22162 0.0
H1278 H 0.59607 0.42596 0.36643 0.0
H1279 H 0.58598 0.42152 0.43659 0.0
H1280 H 0.61483 0.4496 0.41662 0.0
H1281 H 0.59805 0.47768 0.45737 0.0
H1282 H 0.56909 0.44963 0.47742 0.0
H1283 H 0.56782 0.47326 0.43518 0.0
H1284 H 0.52646 0.42955 0.24832 0.0
H1285 H 0.49278 0.3894 0.28735 0.0
H1286 H 0.53754 0.4027 0.43393 0.0
C1287 C 0.61617 0.48824 0.33867 0.0
C1288 C 0.6234 0.50221 0.28911 0.0
C1289 C 0.60498 0.49542 0.24741 0.0
C1290 C 0.5802 0.47485 0.25419 0.0
C1291 C 0.57391 0.46131 0.30314 0.0
C1292 C 0.59132 0.46782 0.34483 0.0
C1293 C 0.58003 0.44952 0.39254 0.0
C1294 C 0.59512 0.43584 0.40367 0.0
C1295 C 0.57867 0.46335 0.44366 0.0
C1296 C 0.55368 0.43131 0.37073 0.0
C1297 C 0.55057 0.43858 0.31913 0.0
C1298 C 0.52857 0.42393 0.28899 0.0
C1299 C 0.5095 0.40111 0.31156 0.0
C1300 C 0.51225 0.39304 0.36411 0.0
C1301 C 0.53453 0.40867 0.3944 0.0
H1302 H 0.14727 0.61763 0.59149 0.0
H1303 H 0.1125 0.62712 0.73698 0.0
H1304 H 0.10634 0.58663 0.773 0.0
H1305 H 0.10845 0.54741 0.58317 0.0
H1306 H 0.13498 0.544 0.56211 0.0
H1307 H 0.13393 0.57224 0.54432 0.0
H1308 H 0.1778 0.5999 0.58966 0.0
H1309 H 0.17894 0.57177 0.60777 0.0
H1310 H 0.18229 0.59413 0.65978 0.0
H1311 H 0.10638 0.54655 0.79669 0.0
H1312 H 0.11366 0.51036 0.80727 0.0
H1313 H 0.14992 0.52694 0.64834 0.0
C1314 C 0.13776 0.61086 0.63018 0.0
C1315 C 0.13003 0.62552 0.66094 0.0
C1316 C 0.1184 0.61625 0.71235 0.0
C1317 C 0.11478 0.59318 0.73322 0.0
C1318 C 0.12309 0.57948 0.70259 0.0
C1319 C 0.13437 0.58792 0.65217 0.0
C1320 C 0.14337 0.57045 0.62974 0.0
C1321 C 0.12934 0.55777 0.57668 0.0
C1322 C 0.17231 0.58493 0.62125 0.0
C1323 C 0.13571 0.55118 0.67574 0.0
C1324 C 0.12379 0.55662 0.71704 0.0
C1325 C 0.11558 0.54201 0.76444 0.0
C1326 C 0.11985 0.52145 0.77011 0.0
C1327 C 0.13245 0.51563 0.72885 0.0
C1328 C 0.1402 0.53069 0.68077 0.0
H1329 H 0.6346 0.14574 0.9805 0.0
H1330 H 0.61783 0.11737 0.14667 0.0
H1331 H 0.57525 0.11254 0.13868 0.0
H1332 H 0.60223 0.18115 0.98349 0.0
H1333 H 0.59008 0.17317 0.91499 0.0
H1334 H 0.61924 0.17402 0.93291 0.0
H1335 H 0.60073 0.12775 0.89941 0.0
H1336 H 0.57152 0.12677 0.88125 0.0
H1337 H 0.571 0.10323 0.92682 0.0
H1338 H 0.53535 0.11309 0.11508 0.0
H1339 H 0.50012 0.11702 0.07614 0.0
H1340 H 0.54097 0.14266 0.92309 0.0
C1341 C 0.62196 0.13841 0.01521 0.0
C1342 C 0.62988 0.13219 0.06453 0.0
C1343 C 0.61252 0.1225 0.10863 0.0
C1344 C 0.58817 0.11962 0.10445 0.0
C1345 C 0.58112 0.12615 0.05563 0.0
C1346 C 0.59738 0.13511 0.01154 0.0
C1347 C 0.58494 0.14071 0.96373 0.0
C1348 C 0.60003 0.16894 0.94786 0.0
C1349 C 0.58187 0.12359 0.91491 0.0
C1350 C 0.55933 0.13388 0.98817 0.0
C1351 C 0.55762 0.12559 0.0413 0.0
C1352 C 0.53638 0.1193 0.07334 0.0
C1353 C 0.51643 0.12166 0.05077 0.0
C1354 C 0.51754 0.13003 0.99631 0.0
C1355 C 0.53928 0.13592 0.96453 0.0
loop_
_geom_bond_atom_site_label_1
_geom_bond_atom_site_label_2
_geom_bond_distance
_geom_bond_site_symmetry_2
_ccdc_geom_bond_type
Co0 O2 2.143 . S
Co0 O8 2.074 . S
Co0 O11 2.093 . S
Co0 O24 2.097 . S
Co0 N41 2.151 . S
Co0 N49 2.214 . S
Co1 O2 2.160 . S
Co1 O7 2.058 . S
Co1 O17 2.057 . S
Co1 O32 2.037 . S
Co1 N36 2.145 . S
Co1 N57 2.257 . S
O2 Co0 2.143 . S
O2 Co1 2.160 . S
C3 O4 1.278 . S
C3 O11 1.224 . S
O4 C3 1.278 . S
C5 O6 1.245 . S
C5 O17 1.232 . S
O6 C5 1.245 . S
O7 Co1 2.058 . S
O7 C33 1.269 . S
O8 Co0 2.074 . S
O8 C33 1.257 . S
H9 C34 0.930 . S
H10 C40 0.930 . S
O11 Co0 2.093 . S
O11 C3 1.224 . S
H12 C44 0.929 . S
H13 C46 0.930 . S
H14 C47 0.930 . S
H15 C45 0.929 . S
H16 C48 0.928 . S
O17 Co1 2.057 . S
O17 C5 1.232 . S
H18 C37 0.929 . S
H19 C38 0.929 . S
H20 C50 0.931 . S
H21 C42 0.929 . S
H22 C51 0.930 . S
H23 C43 0.931 . S
O24 Co0 2.097 . S
O24 C52 1.214 . S
H25 C53 0.929 . S
H26 C54 0.929 . S
H27 C55 0.930 . S
H28 C56 0.929 . S
H29 C58 0.930 . S
H30 C35 0.930 . S
H31 C39 0.930 . S
O32 Co1 2.037 . S
O32 C52 1.234 . S
C33 O7 1.269 . S
C33 O8 1.257 . S
C34 H9 0.930 . S
C34 C37 1.388 . S
C34 C39 1.418 . S
C35 H30 0.930 . S
C35 C38 1.404 . S
C35 C39 1.353 . S
N36 Co1 2.145 . S
N36 C37 1.397 . S
N36 C38 1.334 . S
C37 H18 0.929 . S
C37 C34 1.388 . S
C37 N36 1.397 . S
C38 H19 0.929 . S
C38 C35 1.404 . S
C38 N36 1.334 . S
C39 H31 0.930 . S
C39 C34 1.418 . S
C39 C35 1.353 . S
C40 H10 0.930 . S
C40 N41 1.330 . S
C40 C42 1.446 . S
N41 Co0 2.151 . S
N41 C40 1.330 . S
N41 C45 1.418 . S
C42 H21 0.929 . S
C42 C40 1.446 . S
C42 C43 1.332 . S
C43 H23 0.931 . S
C43 C42 1.332 . S
C43 C44 1.267 . S
C44 H12 0.929 . S
C44 C43 1.267 . S
C44 C45 1.251 . S
C45 H15 0.929 . S
C45 N41 1.418 . S
C45 C44 1.251 . S
C46 H13 0.930 . S
C46 C48 1.406 . S
C46 C51 1.261 . S
C47 H14 0.930 . S
C47 N49 1.325 . S
C47 C50 1.357 . S
C48 H16 0.928 . S
C48 C46 1.406 . S
C48 N49 1.261 . S
N49 Co0 2.214 . S
N49 C47 1.325 . S
N49 C48 1.261 . S
C50 H20 0.931 . S
C50 C47 1.357 . S
C50 C51 1.312 . S
C51 H22 0.930 . S
C51 C46 1.261 . S
C51 C50 1.312 . S
C52 O24 1.214 . S
C52 O32 1.234 . S
C53 H25 0.929 . S
C53 C56 1.391 . S
C53 C58 1.391 . S
C54 H26 0.929 . S
C54 C55 1.390 . S
C54 N57 1.391 . S
C55 H27 0.930 . S
C55 C54 1.390 . S
C55 C56 1.392 . S
C56 H28 0.929 . S
C56 C53 1.391 . S
C56 C55 1.392 . S
N57 Co1 2.257 . S
N57 C54 1.391 . S
N57 C58 1.388 . S
C58 H29 0.930 . S
C58 C53 1.391 . S
C58 N57 1.388 . S
Co59 O61 2.143 . S
Co59 O67 2.074 . S
Co59 O70 2.093 . S
Co59 O83 2.097 . S
Co59 N100 2.151 . S
Co59 N108 2.214 . S
Co60 O61 2.160 . S
Co60 O66 2.058 . S
Co60 O76 2.057 . S
Co60 O91 2.037 . S
Co60 N95 2.145 . S
Co60 N116 2.257 . S
O61 Co59 2.143 . S
O61 Co60 2.160 . S
C62 O63 1.278 . S
C62 O70 1.224 . S
O63 C62 1.278 . S
C64 O65 1.245 . S
C64 O76 1.232 . S
O65 C64 1.245 . S
O66 Co60 2.058 . S
O66 C92 1.269 . S
O67 Co59 2.074 . S
O67 C92 1.257 . S
H68 C93 0.930 . S
H69 C99 0.930 . S
O70 Co59 2.093 . S
O70 C62 1.224 . S
H71 C103 0.929 . S
H72 C105 0.930 . S
H73 C106 0.930 . S
H74 C104 0.929 . S
H75 C107 0.928 . S
O76 Co60 2.057 . S
O76 C64 1.232 . S
H77 C96 0.929 . S
H78 C97 0.929 . S
H79 C109 0.931 . S
H80 C101 0.929 . S
H81 C110 0.930 . S
H82 C102 0.931 . S
O83 Co59 2.097 . S
O83 C111 1.214 . S
H84 C112 0.929 . S
H85 C113 0.929 . S
H86 C114 0.930 . S
H87 C115 0.929 . S
H88 C117 0.930 . S
H89 C94 0.930 . S
H90 C98 0.930 . S
O91 Co60 2.037 . S
O91 C111 1.234 . S
C92 O66 1.269 . S
C92 O67 1.257 . S
C93 H68 0.930 . S
C93 C96 1.388 . S
C93 C98 1.418 . S
C94 H89 0.930 . S
C94 C97 1.404 . S
C94 C98 1.353 . S
N95 Co60 2.145 . S
N95 C96 1.397 . S
N95 C97 1.334 . S
C96 H77 0.929 . S
C96 C93 1.388 . S
C96 N95 1.397 . S
C97 H78 0.929 . S
C97 C94 1.404 . S
C97 N95 1.334 . S
C98 H90 0.930 . S
C98 C93 1.418 . S
C98 C94 1.353 . S
C99 H69 0.930 . S
C99 N100 1.330 . S
C99 C101 1.446 . S
N100 Co59 2.151 . S
N100 C99 1.330 . S
N100 C104 1.418 . S
C101 H80 0.929 . S
C101 C99 1.446 . S
C101 C102 1.332 . S
C102 H82 0.931 . S
C102 C101 1.332 . S
C102 C103 1.267 . S
C103 H71 0.929 . S
C103 C102 1.267 . S
C103 C104 1.251 . S
C104 H74 0.929 . S
C104 N100 1.418 . S
C104 C103 1.251 . S
C105 H72 0.930 . S
C105 C107 1.406 . S
C105 C110 1.261 . S
C106 H73 0.930 . S
C106 N108 1.325 . S
C106 C109 1.357 . S
C107 H75 0.928 . S
C107 C105 1.406 . S
C107 N108 1.261 . S
N108 Co59 2.214 . S
N108 C106 1.325 . S
N108 C107 1.261 . S
C109 H79 0.931 . S
C109 C106 1.357 . S
C109 C110 1.312 . S
C110 H81 0.930 . S
C110 C105 1.261 . S
C110 C109 1.312 . S
C111 O83 1.214 . S
C111 O91 1.234 . S
C112 H84 0.929 . S
C112 C115 1.391 . S
C112 C117 1.391 . S
C113 H85 0.929 . S
C113 C114 1.390 . S
C113 N116 1.391 . S
C114 H86 0.930 . S
C114 C113 1.390 . S
C114 C115 1.392 . S
C115 H87 0.929 . S
C115 C112 1.391 . S
C115 C114 1.392 . S
N116 Co60 2.257 . S
N116 C113 1.391 . S
N116 C117 1.388 . S
C117 H88 0.930 . S
C117 C112 1.391 . S
C117 N116 1.388 . S
Co118 O120 2.143 1_554 S
Co118 O126 2.074 1_554 S
Co118 O129 2.093 . S
Co118 O142 2.097 . S
Co118 N159 2.151 . S
Co118 N167 2.214 . S
Co119 O120 2.160 . S
Co119 O125 2.058 . S
Co119 O135 2.057 . S
Co119 O150 2.037 . S
Co119 N154 2.145 . S
Co119 N175 2.257 . S
O120 Co118 2.143 1_556 S
O120 Co119 2.160 . S
C121 O122 1.278 1_554 S
C121 O129 1.224 . S
O122 C121 1.278 1_556 S
C123 O124 1.245 . S
C123 O135 1.232 . S
O124 C123 1.245 . S
O125 Co119 2.058 . S
O125 C151 1.269 . S
O126 Co118 2.074 1_556 S
O126 C151 1.257 . S
H127 C152 0.930 . S
H128 C158 0.930 . S
O129 Co118 2.093 . S
O129 C121 1.224 . S
H130 C162 0.929 . S
H131 C164 0.930 . S
H132 C165 0.930 . S
H133 C163 0.929 . S
H134 C166 0.928 . S
O135 Co119 2.057 . S
O135 C123 1.232 . S
H136 C155 0.929 . S
H137 C156 0.929 . S
H138 C168 0.931 . S
H139 C160 0.929 . S
H140 C169 0.930 . S
H141 C161 0.931 . S
O142 Co118 2.097 . S
O142 C170 1.214 1_554 S
H143 C171 0.929 . S
H144 C172 0.929 . S
H145 C173 0.930 . S
H146 C174 0.929 . S
H147 C176 0.930 . S
H148 C153 0.930 . S
H149 C157 0.930 . S
O150 Co119 2.037 . S
O150 C170 1.234 . S
C151 O125 1.269 . S
C151 O126 1.257 . S
C152 H127 0.930 . S
C152 C155 1.388 . S
C152 C157 1.418 . S
C153 H148 0.930 . S
C153 C156 1.404 . S
C153 C157 1.353 . S
N154 Co119 2.145 . S
N154 C155 1.397 . S
N154 C156 1.334 . S
C155 H136 0.929 . S
C155 C152 1.388 . S
C155 N154 1.397 . S
C156 H137 0.929 . S
C156 C153 1.404 . S
C156 N154 1.334 . S
C157 H149 0.930 . S
C157 C152 1.418 . S
C157 C153 1.353 . S
C158 H128 0.930 . S
C158 N159 1.330 . S
C158 C160 1.446 . S
N159 Co118 2.151 . S
N159 C158 1.330 . S
N159 C163 1.418 . S
C160 H139 0.929 . S
C160 C158 1.446 . S
C160 C161 1.332 . S
C161 H141 0.931 . S
C161 C160 1.332 . S
C161 C162 1.267 . S
C162 H130 0.929 . S
C162 C161 1.267 . S
C162 C163 1.251 . S
C163 H133 0.929 . S
C163 N159 1.418 . S
C163 C162 1.251 . S
C164 H131 0.930 . S
C164 C166 1.406 . S
C164 C169 1.261 . S
C165 H132 0.930 . S
C165 N167 1.325 . S
C165 C168 1.357 . S
C166 H134 0.928 . S
C166 C164 1.406 . S
C166 N167 1.261 . S
N167 Co118 2.214 . S
N167 C165 1.325 . S
N167 C166 1.261 . S
C168 H138 0.931 . S
C168 C165 1.357 . S
C168 C169 1.312 . S
C169 H140 0.930 . S
C169 C164 1.261 . S
C169 C168 1.312 . S
C170 O142 1.214 1_556 S
C170 O150 1.234 . S
C171 H143 0.929 . S
C171 C174 1.391 . S
C171 C176 1.391 . S
C172 H144 0.929 . S
C172 C173 1.390 . S
C172 N175 1.391 . S
C173 H145 0.930 . S
C173 C172 1.390 . S
C173 C174 1.392 . S
C174 H146 0.929 . S
C174 C171 1.391 . S
C174 C173 1.392 . S
N175 Co119 2.257 . S
N175 C172 1.391 . S
N175 C176 1.388 . S
C176 H147 0.930 . S
C176 C171 1.391 . S
C176 N175 1.388 . S
Co177 O179 2.143 . S
Co177 O185 2.074 . S
Co177 O188 2.093 . S
Co177 O201 2.097 . S
Co177 N218 2.151 . S
Co177 N226 2.214 . S
Co178 O179 2.160 . S
Co178 O184 2.058 . S
Co178 O194 2.057 . S
Co178 O209 2.037 . S
Co178 N213 2.145 . S
Co178 N234 2.257 . S
O179 Co177 2.143 . S
O179 Co178 2.160 . S
C180 O181 1.278 . S
C180 O188 1.224 . S
O181 C180 1.278 . S
C182 O183 1.245 . S
C182 O194 1.232 . S
O183 C182 1.245 . S
O184 Co178 2.058 . S
O184 C210 1.269 . S
O185 Co177 2.074 . S
O185 C210 1.257 . S
H186 C211 0.930 . S
H187 C217 0.930 . S
O188 Co177 2.093 . S
O188 C180 1.224 . S
H189 C221 0.929 . S
H190 C223 0.930 . S
H191 C224 0.930 . S
H192 C222 0.929 . S
H193 C225 0.928 . S
O194 Co178 2.057 . S
O194 C182 1.232 . S
H195 C214 0.929 . S
H196 C215 0.929 . S
H197 C227 0.931 . S
H198 C219 0.929 . S
H199 C228 0.930 . S
H200 C220 0.931 . S
O201 Co177 2.097 . S
O201 C229 1.214 . S
H202 C230 0.929 . S
H203 C231 0.929 . S
H204 C232 0.930 . S
H205 C233 0.929 . S
H206 C235 0.930 . S
H207 C212 0.930 . S
H208 C216 0.930 . S
O209 Co178 2.037 . S
O209 C229 1.234 . S
C210 O184 1.269 . S
C210 O185 1.257 . S
C211 H186 0.930 . S
C211 C214 1.388 . S
C211 C216 1.418 . S
C212 H207 0.930 . S
C212 C215 1.404 . S
C212 C216 1.353 . S
N213 Co178 2.145 . S
N213 C214 1.397 . S
N213 C215 1.334 . S
C214 H195 0.929 . S
C214 C211 1.388 . S
C214 N213 1.397 . S
C215 H196 0.929 . S
C215 C212 1.404 . S
C215 N213 1.334 . S
C216 H208 0.930 . S
C216 C211 1.418 . S
C216 C212 1.353 . S
C217 H187 0.930 . S
C217 N218 1.330 . S
C217 C219 1.446 . S
N218 Co177 2.151 . S
N218 C217 1.330 . S
N218 C222 1.418 . S
C219 H198 0.929 . S
C219 C217 1.446 . S
C219 C220 1.332 . S
C220 H200 0.931 . S
C220 C219 1.332 . S
C220 C221 1.267 . S
C221 H189 0.929 . S
C221 C220 1.267 . S
C221 C222 1.251 . S
C222 H192 0.929 . S
C222 N218 1.418 . S
C222 C221 1.251 . S
C223 H190 0.930 . S
C223 C225 1.406 . S
C223 C228 1.261 . S
C224 H191 0.930 . S
C224 N226 1.325 . S
C224 C227 1.357 . S
C225 H193 0.928 . S
C225 C223 1.406 . S
C225 N226 1.261 . S
N226 Co177 2.214 . S
N226 C224 1.325 . S
N226 C225 1.261 . S
C227 H197 0.931 . S
C227 C224 1.357 . S
C227 C228 1.312 . S
C228 H199 0.930 . S
C228 C223 1.261 . S
C228 C227 1.312 . S
C229 O201 1.214 . S
C229 O209 1.234 . S
C230 H202 0.929 . S
C230 C233 1.391 . S
C230 C235 1.391 . S
C231 H203 0.929 . S
C231 C232 1.390 . S
C231 N234 1.391 . S
C232 H204 0.930 . S
C232 C231 1.390 . S
C232 C233 1.392 . S
C233 H205 0.929 . S
C233 C230 1.391 . S
C233 C232 1.392 . S
N234 Co178 2.257 . S
N234 C231 1.391 . S
N234 C235 1.388 . S
C235 H206 0.930 . S
C235 C230 1.391 . S
C235 N234 1.388 . S
Co236 O238 2.143 . S
Co236 O244 2.074 . S
Co236 O247 2.093 . S
Co236 O260 2.097 . S
Co236 N277 2.151 . S
Co236 N285 2.214 . S
Co237 O238 2.160 . S
Co237 O243 2.058 . S
Co237 O253 2.057 . S
Co237 O268 2.037 . S
Co237 N272 2.145 . S
Co237 N293 2.257 . S
O238 Co236 2.143 . S
O238 Co237 2.160 . S
C239 O240 1.278 . S
C239 O247 1.224 . S
O240 C239 1.278 . S
C241 O242 1.245 . S
C241 O253 1.232 . S
O242 C241 1.245 . S
O243 Co237 2.058 . S
O243 C269 1.269 . S
O244 Co236 2.074 . S
O244 C269 1.257 . S
H245 C270 0.930 . S
H246 C276 0.930 . S
O247 Co236 2.093 . S
O247 C239 1.224 . S
H248 C280 0.929 . S
H249 C282 0.930 . S
H250 C283 0.930 . S
H251 C281 0.929 . S
H252 C284 0.928 . S
O253 Co237 2.057 . S
O253 C241 1.232 . S
H254 C273 0.929 . S
H255 C274 0.929 . S
H256 C286 0.931 . S
H257 C278 0.929 . S
H258 C287 0.930 . S
H259 C279 0.931 . S
O260 Co236 2.097 . S
O260 C288 1.214 . S
H261 C289 0.929 . S
H262 C290 0.929 . S
H263 C291 0.930 . S
H264 C292 0.929 . S
H265 C294 0.930 . S
H266 C271 0.930 . S
H267 C275 0.930 . S
O268 Co237 2.037 . S
O268 C288 1.234 . S
C269 O243 1.269 . S
C269 O244 1.257 . S
C270 H245 0.930 . S
C270 C273 1.388 . S
C270 C275 1.418 . S
C271 H266 0.930 . S
C271 C274 1.404 . S
C271 C275 1.353 . S
N272 Co237 2.145 . S
N272 C273 1.397 . S
N272 C274 1.334 . S
C273 H254 0.929 . S
C273 C270 1.388 . S
C273 N272 1.397 . S
C274 H255 0.929 . S
C274 C271 1.404 . S
C274 N272 1.334 . S
C275 H267 0.930 . S
C275 C270 1.418 . S
C275 C271 1.353 . S
C276 H246 0.930 . S
C276 N277 1.330 . S
C276 C278 1.446 . S
N277 Co236 2.151 . S
N277 C276 1.330 . S
N277 C281 1.418 . S
C278 H257 0.929 . S
C278 C276 1.446 . S
C278 C279 1.332 . S
C279 H259 0.931 . S
C279 C278 1.332 . S
C279 C280 1.267 . S
C280 H248 0.929 . S
C280 C279 1.267 . S
C280 C281 1.251 . S
C281 H251 0.929 . S
C281 N277 1.418 . S
C281 C280 1.251 . S
C282 H249 0.930 . S
C282 C284 1.406 . S
C282 C287 1.261 . S
C283 H250 0.930 . S
C283 N285 1.325 . S
C283 C286 1.357 . S
C284 H252 0.928 . S
C284 C282 1.406 . S
C284 N285 1.261 . S
N285 Co236 2.214 . S
N285 C283 1.325 . S
N285 C284 1.261 . S
C286 H256 0.931 . S
C286 C283 1.357 . S
C286 C287 1.312 . S
C287 H258 0.930 . S
C287 C282 1.261 . S
C287 C286 1.312 . S
C288 O260 1.214 . S
C288 O268 1.234 . S
C289 H261 0.929 . S
C289 C292 1.391 . S
C289 C294 1.391 . S
C290 H262 0.929 . S
C290 C291 1.390 . S
C290 N293 1.391 . S
C291 H263 0.930 . S
C291 C290 1.390 . S
C291 C292 1.392 . S
C292 H264 0.929 . S
C292 C289 1.391 . S
C292 C291 1.392 . S
N293 Co237 2.257 . S
N293 C290 1.391 . S
N293 C294 1.388 . S
C294 H265 0.930 . S
C294 C289 1.391 . S
C294 N293 1.388 . S
Co295 O297 2.143 1_554 S
Co295 O303 2.074 1_554 S
Co295 O306 2.093 . S
Co295 O319 2.097 . S
Co295 N336 2.151 . S
Co295 N344 2.214 . S
Co296 O297 2.160 . S
Co296 O302 2.058 . S
Co296 O312 2.057 . S
Co296 O327 2.037 . S
Co296 N331 2.145 . S
Co296 N352 2.257 . S
O297 Co295 2.143 1_556 S
O297 Co296 2.160 . S
C298 O299 1.278 1_554 S
C298 O306 1.224 . S
O299 C298 1.278 1_556 S
C300 O301 1.245 . S
C300 O312 1.232 . S
O301 C300 1.245 . S
O302 Co296 2.058 . S
O302 C328 1.269 . S
O303 Co295 2.074 1_556 S
O303 C328 1.257 . S
H304 C329 0.930 . S
H305 C335 0.930 . S
O306 Co295 2.093 . S
O306 C298 1.224 . S
H307 C339 0.929 . S
H308 C341 0.930 . S
H309 C342 0.930 . S
H310 C340 0.929 . S
H311 C343 0.928 . S
O312 Co296 2.057 . S
O312 C300 1.232 . S
H313 C332 0.929 . S
H314 C333 0.929 . S
H315 C345 0.931 . S
H316 C337 0.929 . S
H317 C346 0.930 . S
H318 C338 0.931 . S
O319 Co295 2.097 . S
O319 C347 1.214 1_554 S
H320 C348 0.929 . S
H321 C349 0.929 . S
H322 C350 0.930 . S
H323 C351 0.929 . S
H324 C353 0.930 . S
H325 C330 0.930 . S
H326 C334 0.930 . S
O327 Co296 2.037 . S
O327 C347 1.234 . S
C328 O302 1.269 . S
C328 O303 1.257 . S
C329 H304 0.930 . S
C329 C332 1.388 . S
C329 C334 1.418 . S
C330 H325 0.930 . S
C330 C333 1.404 . S
C330 C334 1.353 . S
N331 Co296 2.145 . S
N331 C332 1.397 . S
N331 C333 1.334 . S
C332 H313 0.929 . S
C332 C329 1.388 . S
C332 N331 1.397 . S
C333 H314 0.929 . S
C333 C330 1.404 . S
C333 N331 1.334 . S
C334 H326 0.930 . S
C334 C329 1.418 . S
C334 C330 1.353 . S
C335 H305 0.930 . S
C335 N336 1.330 . S
C335 C337 1.446 . S
N336 Co295 2.151 . S
N336 C335 1.330 . S
N336 C340 1.418 . S
C337 H316 0.929 . S
C337 C335 1.446 . S
C337 C338 1.332 . S
C338 H318 0.931 . S
C338 C337 1.332 . S
C338 C339 1.267 . S
C339 H307 0.929 . S
C339 C338 1.267 . S
C339 C340 1.251 . S
C340 H310 0.929 . S
C340 N336 1.418 . S
C340 C339 1.251 . S
C341 H308 0.930 . S
C341 C343 1.406 . S
C341 C346 1.261 . S
C342 H309 0.930 . S
C342 N344 1.325 . S
C342 C345 1.357 . S
C343 H311 0.928 . S
C343 C341 1.406 . S
C343 N344 1.261 . S
N344 Co295 2.214 . S
N344 C342 1.325 . S
N344 C343 1.261 . S
C345 H315 0.931 . S
C345 C342 1.357 . S
C345 C346 1.312 . S
C346 H317 0.930 . S
C346 C341 1.261 . S
C346 C345 1.312 . S
C347 O319 1.214 1_556 S
C347 O327 1.234 . S
C348 H320 0.929 . S
C348 C351 1.391 . S
C348 C353 1.391 . S
C349 H321 0.929 . S
C349 C350 1.390 . S
C349 N352 1.391 . S
C350 H322 0.930 . S
C350 C349 1.390 . S
C350 C351 1.392 . S
C351 H323 0.929 . S
C351 C348 1.391 . S
C351 C350 1.392 . S
N352 Co296 2.257 . S
N352 C349 1.391 . S
N352 C353 1.388 . S
C353 H324 0.930 . S
C353 C348 1.391 . S
C353 N352 1.388 . S
Co354 O356 2.143 . S
Co354 O362 2.074 . S
Co354 O365 2.093 . S
Co354 O378 2.097 . S
Co354 N395 2.151 . S
Co354 N403 2.214 . S
Co355 O356 2.160 . S
Co355 O361 2.058 . S
Co355 O371 2.057 . S
Co355 O386 2.037 . S
Co355 N390 2.145 . S
Co355 N411 2.257 . S
O356 Co354 2.143 . S
O356 Co355 2.160 . S
C357 O358 1.278 . S
C357 O365 1.224 . S
O358 C357 1.278 . S
C359 O360 1.245 . S
C359 O371 1.232 . S
O360 C359 1.245 . S
O361 Co355 2.058 . S
O361 C387 1.269 . S
O362 Co354 2.074 . S
O362 C387 1.257 . S
H363 C388 0.930 . S
H364 C394 0.930 . S
O365 Co354 2.093 . S
O365 C357 1.224 . S
H366 C398 0.929 . S
H367 C400 0.930 . S
H368 C401 0.930 . S
H369 C399 0.929 . S
H370 C402 0.928 . S
O371 Co355 2.057 . S
O371 C359 1.232 . S
H372 C391 0.929 . S
H373 C392 0.929 . S
H374 C404 0.931 . S
H375 C396 0.929 . S
H376 C405 0.930 . S
H377 C397 0.931 . S
O378 Co354 2.097 . S
O378 C406 1.214 . S
H379 C407 0.929 . S
H380 C408 0.929 . S
H381 C409 0.930 . S
H382 C410 0.929 . S
H383 C412 0.930 . S
H384 C389 0.930 . S
H385 C393 0.930 . S
O386 Co355 2.037 . S
O386 C406 1.234 . S
C387 O361 1.269 . S
C387 O362 1.257 . S
C388 H363 0.930 . S
C388 C391 1.388 . S
C388 C393 1.418 . S
C389 H384 0.930 . S
C389 C392 1.404 . S
C389 C393 1.353 . S
N390 Co355 2.145 . S
N390 C391 1.397 . S
N390 C392 1.334 . S
C391 H372 0.929 . S
C391 C388 1.388 . S
C391 N390 1.397 . S
C392 H373 0.929 . S
C392 C389 1.404 . S
C392 N390 1.334 . S
C393 H385 0.930 . S
C393 C388 1.418 . S
C393 C389 1.353 . S
C394 H364 0.930 . S
C394 N395 1.330 . S
C394 C396 1.446 . S
N395 Co354 2.151 . S
N395 C394 1.330 . S
N395 C399 1.418 . S
C396 H375 0.929 . S
C396 C394 1.446 . S
C396 C397 1.332 . S
C397 H377 0.931 . S
C397 C396 1.332 . S
C397 C398 1.267 . S
C398 H366 0.929 . S
C398 C397 1.267 . S
C398 C399 1.251 . S
C399 H369 0.929 . S
C399 N395 1.418 . S
C399 C398 1.251 . S
C400 H367 0.930 . S
C400 C402 1.406 . S
C400 C405 1.261 . S
C401 H368 0.930 . S
C401 N403 1.325 . S
C401 C404 1.357 . S
C402 H370 0.928 . S
C402 C400 1.406 . S
C402 N403 1.261 . S
N403 Co354 2.214 . S
N403 C401 1.325 . S
N403 C402 1.261 . S
C404 H374 0.931 . S
C404 C401 1.357 . S
C404 C405 1.312 . S
C405 H376 0.930 . S
C405 C400 1.261 . S
C405 C404 1.312 . S
C406 O378 1.214 . S
C406 O386 1.234 . S
C407 H379 0.929 . S
C407 C410 1.391 . S
C407 C412 1.391 . S
C408 H380 0.929 . S
C408 C409 1.390 . S
C408 N411 1.391 . S
C409 H381 0.930 . S
C409 C408 1.390 . S
C409 C410 1.392 . S
C410 H382 0.929 . S
C410 C407 1.391 . S
C410 C409 1.392 . S
N411 Co355 2.257 . S
N411 C408 1.391 . S
N411 C412 1.388 . S
C412 H383 0.930 . S
C412 C407 1.391 . S
C412 N411 1.388 . S
Co413 O415 2.143 . S
Co413 O421 2.074 . S
Co413 O424 2.093 . S
Co413 O437 2.097 . S
Co413 N454 2.151 . S
Co413 N462 2.214 . S
Co414 O415 2.160 . S
Co414 O420 2.058 . S
Co414 O430 2.057 . S
Co414 O445 2.037 . S
Co414 N449 2.145 . S
Co414 N470 2.257 . S
O415 Co413 2.143 . S
O415 Co414 2.160 . S
C416 O417 1.278 . S
C416 O424 1.224 . S
O417 C416 1.278 . S
C418 O419 1.245 . S
C418 O430 1.232 . S
O419 C418 1.245 . S
O420 Co414 2.058 . S
O420 C446 1.269 . S
O421 Co413 2.074 . S
O421 C446 1.257 . S
H422 C447 0.930 . S
H423 C453 0.930 . S
O424 Co413 2.093 . S
O424 C416 1.224 . S
H425 C457 0.929 . S
H426 C459 0.930 . S
H427 C460 0.930 . S
H428 C458 0.929 . S
H429 C461 0.928 . S
O430 Co414 2.057 . S
O430 C418 1.232 . S
H431 C450 0.929 . S
H432 C451 0.929 . S
H433 C463 0.931 . S
H434 C455 0.929 . S
H435 C464 0.930 . S
H436 C456 0.931 . S
O437 Co413 2.097 . S
O437 C465 1.214 . S
H438 C466 0.929 . S
H439 C467 0.929 . S
H440 C468 0.930 . S
H441 C469 0.929 . S
H442 C471 0.930 . S
H443 C448 0.930 . S
H444 C452 0.930 . S
O445 Co414 2.037 . S
O445 C465 1.234 . S
C446 O420 1.269 . S
C446 O421 1.257 . S
C447 H422 0.930 . S
C447 C450 1.388 . S
C447 C452 1.418 . S
C448 H443 0.930 . S
C448 C451 1.404 . S
C448 C452 1.353 . S
N449 Co414 2.145 . S
N449 C450 1.397 . S
N449 C451 1.334 . S
C450 H431 0.929 . S
C450 C447 1.388 . S
C450 N449 1.397 . S
C451 H432 0.929 . S
C451 C448 1.404 . S
C451 N449 1.334 . S
C452 H444 0.930 . S
C452 C447 1.418 . S
C452 C448 1.353 . S
C453 H423 0.930 . S
C453 N454 1.330 . S
C453 C455 1.446 . S
N454 Co413 2.151 . S
N454 C453 1.330 . S
N454 C458 1.418 . S
C455 H434 0.929 . S
C455 C453 1.446 . S
C455 C456 1.332 . S
C456 H436 0.931 . S
C456 C455 1.332 . S
C456 C457 1.267 . S
C457 H425 0.929 . S
C457 C456 1.267 . S
C457 C458 1.251 . S
C458 H428 0.929 . S
C458 N454 1.418 . S
C458 C457 1.251 . S
C459 H426 0.930 . S
C459 C461 1.406 . S
C459 C464 1.261 . S
C460 H427 0.930 . S
C460 N462 1.325 . S
C460 C463 1.357 . S
C461 H429 0.928 . S
C461 C459 1.406 . S
C461 N462 1.261 . S
N462 Co413 2.214 . S
N462 C460 1.325 . S
N462 C461 1.261 . S
C463 H433 0.931 . S
C463 C460 1.357 . S
C463 C464 1.312 . S
C464 H435 0.930 . S
C464 C459 1.261 . S
C464 C463 1.312 . S
C465 O437 1.214 . S
C465 O445 1.234 . S
C466 H438 0.929 . S
C466 C469 1.391 . S
C466 C471 1.391 . S
C467 H439 0.929 . S
C467 C468 1.390 . S
C467 N470 1.391 . S
C468 H440 0.930 . S
C468 C467 1.390 . S
C468 C469 1.392 . S
C469 H441 0.929 . S
C469 C466 1.391 . S
C469 C468 1.392 . S
N470 Co414 2.257 . S
N470 C467 1.391 . S
N470 C471 1.388 . S
C471 H442 0.930 . S
C471 C466 1.391 . S
C471 N470 1.388 . S
Co472 O474 2.143 1_556 S
Co472 O480 2.074 1_556 S
Co472 O483 2.093 . S
Co472 O496 2.097 . S
Co472 N513 2.151 . S
Co472 N521 2.214 . S
Co473 O474 2.160 . S
Co473 O479 2.058 . S
Co473 O489 2.057 . S
Co473 O504 2.037 . S
Co473 N508 2.145 . S
Co473 N529 2.257 . S
O474 Co472 2.143 1_554 S
O474 Co473 2.160 . S
C475 O476 1.278 1_556 S
C475 O483 1.224 . S
O476 C475 1.278 1_554 S
C477 O478 1.245 . S
C477 O489 1.232 . S
O478 C477 1.245 . S
O479 Co473 2.058 . S
O479 C505 1.269 . S
O480 Co472 2.074 1_554 S
O480 C505 1.257 . S
H481 C506 0.930 . S
H482 C512 0.930 . S
O483 Co472 2.093 . S
O483 C475 1.224 . S
H484 C516 0.929 . S
H485 C518 0.930 . S
H486 C519 0.930 . S
H487 C517 0.929 . S
H488 C520 0.928 . S
O489 Co473 2.057 . S
O489 C477 1.232 . S
H490 C509 0.929 . S
H491 C510 0.929 . S
H492 C522 0.931 . S
H493 C514 0.929 . S
H494 C523 0.930 . S
H495 C515 0.931 . S
O496 Co472 2.097 . S
O496 C524 1.214 1_556 S
H497 C525 0.929 . S
H498 C526 0.929 . S
H499 C527 0.930 . S
H500 C528 0.929 . S
H501 C530 0.930 . S
H502 C507 0.930 . S
H503 C511 0.930 . S
O504 Co473 2.037 . S
O504 C524 1.234 . S
C505 O479 1.269 . S
C505 O480 1.257 . S
C506 H481 0.930 . S
C506 C509 1.388 . S
C506 C511 1.418 . S
C507 H502 0.930 . S
C507 C510 1.404 . S
C507 C511 1.353 . S
N508 Co473 2.145 . S
N508 C509 1.397 . S
N508 C510 1.334 . S
C509 H490 0.929 . S
C509 C506 1.388 . S
C509 N508 1.397 . S
C510 H491 0.929 . S
C510 C507 1.404 . S
C510 N508 1.334 . S
C511 H503 0.930 . S
C511 C506 1.418 . S
C511 C507 1.353 . S
C512 H482 0.930 . S
C512 N513 1.330 . S
C512 C514 1.446 . S
N513 Co472 2.151 . S
N513 C512 1.330 . S
N513 C517 1.418 . S
C514 H493 0.929 . S
C514 C512 1.446 . S
C514 C515 1.332 . S
C515 H495 0.931 . S
C515 C514 1.332 . S
C515 C516 1.267 . S
C516 H484 0.929 . S
C516 C515 1.267 . S
C516 C517 1.251 . S
C517 H487 0.929 . S
C517 N513 1.418 . S
C517 C516 1.251 . S
C518 H485 0.930 . S
C518 C520 1.406 . S
C518 C523 1.261 . S
C519 H486 0.930 . S
C519 N521 1.325 . S
C519 C522 1.357 . S
C520 H488 0.928 . S
C520 C518 1.406 . S
C520 N521 1.261 . S
N521 Co472 2.214 . S
N521 C519 1.325 . S
N521 C520 1.261 . S
C522 H492 0.931 . S
C522 C519 1.357 . S
C522 C523 1.312 . S
C523 H494 0.930 . S
C523 C518 1.261 . S
C523 C522 1.312 . S
C524 O496 1.214 1_554 S
C524 O504 1.234 . S
C525 H497 0.929 . S
C525 C528 1.391 . S
C525 C530 1.391 . S
C526 H498 0.929 . S
C526 C527 1.390 . S
C526 N529 1.391 . S
C527 H499 0.930 . S
C527 C526 1.390 . S
C527 C528 1.392 . S
C528 H500 0.929 . S
C528 C525 1.391 . S
C528 C527 1.392 . S
N529 Co473 2.257 . S
N529 C526 1.391 . S
N529 C530 1.388 . S
C530 H501 0.930 . S
C530 C525 1.391 . S
C530 N529 1.388 . S
Co531 O533 2.143 . S
Co531 O539 2.074 . S
Co531 O542 2.093 . S
Co531 O555 2.097 . S
Co531 N572 2.151 . S
Co531 N580 2.214 . S
Co532 O533 2.160 . S
Co532 O538 2.058 . S
Co532 O548 2.057 . S
Co532 O563 2.037 . S
Co532 N567 2.145 . S
Co532 N588 2.257 . S
O533 Co531 2.143 . S
O533 Co532 2.160 . S
C534 O535 1.278 . S
C534 O542 1.224 . S
O535 C534 1.278 . S
C536 O537 1.245 . S
C536 O548 1.232 . S
O537 C536 1.245 . S
O538 Co532 2.058 . S
O538 C564 1.269 . S
O539 Co531 2.074 . S
O539 C564 1.257 . S
H540 C565 0.930 . S
H541 C571 0.930 . S
O542 Co531 2.093 . S
O542 C534 1.224 . S
H543 C575 0.929 . S
H544 C577 0.930 . S
H545 C578 0.930 . S
H546 C576 0.929 . S
H547 C579 0.928 . S
O548 Co532 2.057 . S
O548 C536 1.232 . S
H549 C568 0.929 . S
H550 C569 0.929 . S
H551 C581 0.931 . S
H552 C573 0.929 . S
H553 C582 0.930 . S
H554 C574 0.931 . S
O555 Co531 2.097 . S
O555 C583 1.214 . S
H556 C584 0.929 . S
H557 C585 0.929 . S
H558 C586 0.930 . S
H559 C587 0.929 . S
H560 C589 0.930 . S
H561 C566 0.930 . S
H562 C570 0.930 . S
O563 Co532 2.037 . S
O563 C583 1.234 . S
C564 O538 1.269 . S
C564 O539 1.257 . S
C565 H540 0.930 . S
C565 C568 1.388 . S
C565 C570 1.418 . S
C566 H561 0.930 . S
C566 C569 1.404 . S
C566 C570 1.353 . S
N567 Co532 2.145 . S
N567 C568 1.397 . S
N567 C569 1.334 . S
C568 H549 0.929 . S
C568 C565 1.388 . S
C568 N567 1.397 . S
C569 H550 0.929 . S
C569 C566 1.404 . S
C569 N567 1.334 . S
C570 H562 0.930 . S
C570 C565 1.418 . S
C570 C566 1.353 . S
C571 H541 0.930 . S
C571 N572 1.330 . S
C571 C573 1.446 . S
N572 Co531 2.151 . S
N572 C571 1.330 . S
N572 C576 1.418 . S
C573 H552 0.929 . S
C573 C571 1.446 . S
C573 C574 1.332 . S
C574 H554 0.931 . S
C574 C573 1.332 . S
C574 C575 1.267 . S
C575 H543 0.929 . S
C575 C574 1.267 . S
C575 C576 1.251 . S
C576 H546 0.929 . S
C576 N572 1.418 . S
C576 C575 1.251 . S
C577 H544 0.930 . S
C577 C579 1.406 . S
C577 C582 1.261 . S
C578 H545 0.930 . S
C578 N580 1.325 . S
C578 C581 1.357 . S
C579 H547 0.928 . S
C579 C577 1.406 . S
C579 N580 1.261 . S
N580 Co531 2.214 . S
N580 C578 1.325 . S
N580 C579 1.261 . S
C581 H551 0.931 . S
C581 C578 1.357 . S
C581 C582 1.312 . S
C582 H553 0.930 . S
C582 C577 1.261 . S
C582 C581 1.312 . S
C583 O555 1.214 . S
C583 O563 1.234 . S
C584 H556 0.929 . S
C584 C587 1.391 . S
C584 C589 1.391 . S
C585 H557 0.929 . S
C585 C586 1.390 . S
C585 N588 1.391 . S
C586 H558 0.930 . S
C586 C585 1.390 . S
C586 C587 1.392 . S
C587 H559 0.929 . S
C587 C584 1.391 . S
C587 C586 1.392 . S
N588 Co532 2.257 . S
N588 C585 1.391 . S
N588 C589 1.388 . S
C589 H560 0.930 . S
C589 C584 1.391 . S
C589 N588 1.388 . S
Co590 O592 2.143 . S
Co590 O598 2.074 . S
Co590 O601 2.093 . S
Co590 O614 2.097 . S
Co590 N631 2.151 . S
Co590 N639 2.214 . S
Co591 O592 2.160 . S
Co591 O597 2.058 . S
Co591 O607 2.057 . S
Co591 O622 2.037 . S
Co591 N626 2.145 . S
Co591 N647 2.257 . S
O592 Co590 2.143 . S
O592 Co591 2.160 . S
C593 O594 1.278 . S
C593 O601 1.224 . S
O594 C593 1.278 . S
C595 O596 1.245 . S
C595 O607 1.232 . S
O596 C595 1.245 . S
O597 Co591 2.058 . S
O597 C623 1.269 . S
O598 Co590 2.074 . S
O598 C623 1.257 . S
H599 C624 0.930 . S
H600 C630 0.930 . S
O601 Co590 2.093 . S
O601 C593 1.224 . S
H602 C634 0.929 . S
H603 C636 0.930 . S
H604 C637 0.930 . S
H605 C635 0.929 . S
H606 C638 0.928 . S
O607 Co591 2.057 . S
O607 C595 1.232 . S
H608 C627 0.929 . S
H609 C628 0.929 . S
H610 C640 0.931 . S
H611 C632 0.929 . S
H612 C641 0.930 . S
H613 C633 0.931 . S
O614 Co590 2.097 . S
O614 C642 1.214 . S
H615 C643 0.929 . S
H616 C644 0.929 . S
H617 C645 0.930 . S
H618 C646 0.929 . S
H619 C648 0.930 . S
H620 C625 0.930 . S
H621 C629 0.930 . S
O622 Co591 2.037 . S
O622 C642 1.234 . S
C623 O597 1.269 . S
C623 O598 1.257 . S
C624 H599 0.930 . S
C624 C627 1.388 . S
C624 C629 1.418 . S
C625 H620 0.930 . S
C625 C628 1.404 . S
C625 C629 1.353 . S
N626 Co591 2.145 . S
N626 C627 1.397 . S
N626 C628 1.334 . S
C627 H608 0.929 . S
C627 C624 1.388 . S
C627 N626 1.397 . S
C628 H609 0.929 . S
C628 C625 1.404 . S
C628 N626 1.334 . S
C629 H621 0.930 . S
C629 C624 1.418 . S
C629 C625 1.353 . S
C630 H600 0.930 . S
C630 N631 1.330 . S
C630 C632 1.446 . S
N631 Co590 2.151 . S
N631 C630 1.330 . S
N631 C635 1.418 . S
C632 H611 0.929 . S
C632 C630 1.446 . S
C632 C633 1.332 . S
C633 H613 0.931 . S
C633 C632 1.332 . S
C633 C634 1.267 . S
C634 H602 0.929 . S
C634 C633 1.267 . S
C634 C635 1.251 . S
C635 H605 0.929 . S
C635 N631 1.418 . S
C635 C634 1.251 . S
C636 H603 0.930 . S
C636 C638 1.406 . S
C636 C641 1.261 . S
C637 H604 0.930 . S
C637 N639 1.325 . S
C637 C640 1.357 . S
C638 H606 0.928 . S
C638 C636 1.406 . S
C638 N639 1.261 . S
N639 Co590 2.214 . S
N639 C637 1.325 . S
N639 C638 1.261 . S
C640 H610 0.931 . S
C640 C637 1.357 . S
C640 C641 1.312 . S
C641 H612 0.930 . S
C641 C636 1.261 . S
C641 C640 1.312 . S
C642 O614 1.214 . S
C642 O622 1.234 . S
C643 H615 0.929 . S
C643 C646 1.391 . S
C643 C648 1.391 . S
C644 H616 0.929 . S
C644 C645 1.390 . S
C644 N647 1.391 . S
C645 H617 0.930 . S
C645 C644 1.390 . S
C645 C646 1.392 . S
C646 H618 0.929 . S
C646 C643 1.391 . S
C646 C645 1.392 . S
N647 Co591 2.257 . S
N647 C644 1.391 . S
N647 C648 1.388 . S
C648 H619 0.930 . S
C648 C643 1.391 . S
C648 N647 1.388 . S
Co649 O651 2.143 1_556 S
Co649 O657 2.074 1_556 S
Co649 O660 2.093 . S
Co649 O673 2.097 . S
Co649 N690 2.151 . S
Co649 N698 2.214 . S
Co650 O651 2.160 . S
Co650 O656 2.058 . S
Co650 O666 2.057 . S
Co650 O681 2.037 . S
Co650 N685 2.145 . S
Co650 N706 2.257 . S
O651 Co649 2.143 1_554 S
O651 Co650 2.160 . S
C652 O653 1.278 1_556 S
C652 O660 1.224 . S
O653 C652 1.278 1_554 S
C654 O655 1.245 . S
C654 O666 1.232 . S
O655 C654 1.245 . S
O656 Co650 2.058 . S
O656 C682 1.269 . S
O657 Co649 2.074 1_554 S
O657 C682 1.257 . S
H658 C683 0.930 . S
H659 C689 0.930 . S
O660 Co649 2.093 . S
O660 C652 1.224 . S
H661 C693 0.929 . S
H662 C695 0.930 . S
H663 C696 0.930 . S
H664 C694 0.929 . S
H665 C697 0.928 . S
O666 Co650 2.057 . S
O666 C654 1.232 . S
H667 C686 0.929 . S
H668 C687 0.929 . S
H669 C699 0.931 . S
H670 C691 0.929 . S
H671 C700 0.930 . S
H672 C692 0.931 . S
O673 Co649 2.097 . S
O673 C701 1.214 1_556 S
H674 C702 0.929 . S
H675 C703 0.929 . S
H676 C704 0.930 . S
H677 C705 0.929 . S
H678 C707 0.930 . S
H679 C684 0.930 . S
H680 C688 0.930 . S
O681 Co650 2.037 . S
O681 C701 1.234 . S
C682 O656 1.269 . S
C682 O657 1.257 . S
C683 H658 0.930 . S
C683 C686 1.388 . S
C683 C688 1.418 . S
C684 H679 0.930 . S
C684 C687 1.404 . S
C684 C688 1.353 . S
N685 Co650 2.145 . S
N685 C686 1.397 . S
N685 C687 1.334 . S
C686 H667 0.929 . S
C686 C683 1.388 . S
C686 N685 1.397 . S
C687 H668 0.929 . S
C687 C684 1.404 . S
C687 N685 1.334 . S
C688 H680 0.930 . S
C688 C683 1.418 . S
C688 C684 1.353 . S
C689 H659 0.930 . S
C689 N690 1.330 . S
C689 C691 1.446 . S
N690 Co649 2.151 . S
N690 C689 1.330 . S
N690 C694 1.418 . S
C691 H670 0.929 . S
C691 C689 1.446 . S
C691 C692 1.332 . S
C692 H672 0.931 . S
C692 C691 1.332 . S
C692 C693 1.267 . S
C693 H661 0.929 . S
C693 C692 1.267 . S
C693 C694 1.251 . S
C694 H664 0.929 . S
C694 N690 1.418 . S
C694 C693 1.251 . S
C695 H662 0.930 . S
C695 C697 1.406 . S
C695 C700 1.261 . S
C696 H663 0.930 . S
C696 N698 1.325 . S
C696 C699 1.357 . S
C697 H665 0.928 . S
C697 C695 1.406 . S
C697 N698 1.261 . S
N698 Co649 2.214 . S
N698 C696 1.325 . S
N698 C697 1.261 . S
C699 H669 0.931 . S
C699 C696 1.357 . S
C699 C700 1.312 . S
C700 H671 0.930 . S
C700 C695 1.261 . S
C700 C699 1.312 . S
C701 O673 1.214 1_554 S
C701 O681 1.234 . S
C702 H674 0.929 . S
C702 C705 1.391 . S
C702 C707 1.391 . S
C703 H675 0.929 . S
C703 C704 1.390 . S
C703 N706 1.391 . S
C704 H676 0.930 . S
C704 C703 1.390 . S
C704 C705 1.392 . S
C705 H677 0.929 . S
C705 C702 1.391 . S
C705 C704 1.392 . S
N706 Co650 2.257 . S
N706 C703 1.391 . S
N706 C707 1.388 . S
C707 H678 0.930 . S
C707 C702 1.391 . S
C707 N706 1.388 . S
H708 C720 0.930 . S
H709 C722 0.930 . S
H710 C723 0.930 . S
H711 C727 0.959 . S
H712 C727 0.959 . S
H713 C727 0.961 . S
H714 C728 0.960 . S
H715 C728 0.961 . S
H716 C728 0.959 . S
H717 C731 0.929 . S
H718 C732 0.931 . S
H719 C734 0.930 . S
C720 H708 0.930 . S
C720 C721 1.399 . S
C720 C725 1.399 . S
C721 C720 1.399 . S
C721 C722 1.376 . S
C722 H709 0.930 . S
C722 C721 1.376 . S
C722 C723 1.388 . S
C723 H710 0.930 . S
C723 C722 1.388 . S
C723 C724 1.390 . S
C724 C723 1.390 . S
C724 C725 1.394 . S
C724 C730 1.465 . S
C725 C720 1.399 . S
C725 C724 1.394 . S
C725 C726 1.516 . S
C726 C725 1.516 . S
C726 C727 1.502 . S
C726 C728 1.561 . S
C726 C729 1.526 . S
C727 H711 0.959 . S
C727 H712 0.959 . S
C727 H713 0.961 . S
C727 C726 1.502 . S
C728 H714 0.960 . S
C728 H715 0.961 . S
C728 H716 0.959 . S
C728 C726 1.561 . S
C729 C726 1.526 . S
C729 C730 1.396 . S
C729 C734 1.390 . S
C730 C724 1.465 . S
C730 C729 1.396 . S
C730 C731 1.399 . S
C731 H717 0.929 . S
C731 C730 1.399 . S
C731 C732 1.385 . S
C732 H718 0.931 . S
C732 C731 1.385 . S
C732 C733 1.389 . S
C733 C732 1.389 . S
C733 C734 1.387 . S
C734 H719 0.930 . S
C734 C729 1.390 . S
C734 C733 1.387 . S
H735 C747 0.930 . S
H736 C749 0.930 . S
H737 C750 0.930 . S
H738 C754 0.959 . S
H739 C754 0.959 . S
H740 C754 0.961 . S
H741 C755 0.960 . S
H742 C755 0.961 . S
H743 C755 0.959 . S
H744 C758 0.929 . S
H745 C759 0.931 . S
H746 C761 0.930 . S
C747 H735 0.930 . S
C747 C748 1.399 . S
C747 C752 1.399 . S
C748 C747 1.399 . S
C748 C749 1.376 . S
C749 H736 0.930 . S
C749 C748 1.376 . S
C749 C750 1.388 . S
C750 H737 0.930 . S
C750 C749 1.388 . S
C750 C751 1.390 . S
C751 C750 1.390 . S
C751 C752 1.394 . S
C751 C757 1.465 1_655 S
C752 C747 1.399 . S
C752 C751 1.394 . S
C752 C753 1.516 . S
C753 C752 1.516 . S
C753 C754 1.502 . S
C753 C755 1.561 . S
C753 C756 1.526 1_655 S
C754 H738 0.959 . S
C754 H739 0.959 . S
C754 H740 0.961 . S
C754 C753 1.502 . S
C755 H741 0.960 . S
C755 H742 0.961 . S
C755 H743 0.959 . S
C755 C753 1.561 . S
C756 C753 1.526 1_455 S
C756 C757 1.396 . S
C756 C761 1.390 . S
C757 C751 1.465 1_455 S
C757 C756 1.396 . S
C757 C758 1.399 . S
C758 H744 0.929 . S
C758 C757 1.399 . S
C758 C759 1.385 . S
C759 H745 0.931 . S
C759 C758 1.385 . S
C759 C760 1.389 . S
C760 C759 1.389 . S
C760 C761 1.387 . S
C761 H746 0.930 . S
C761 C756 1.390 . S
C761 C760 1.387 . S
H762 C774 0.930 . S
H763 C776 0.930 . S
H764 C777 0.930 . S
H765 C781 0.959 1_546 S
H766 C781 0.959 1_545 S
H767 C781 0.961 . S
H768 C782 0.960 . S
H769 C782 0.961 . S
H770 C782 0.959 . S
H771 C785 0.929 . S
H772 C786 0.931 . S
H773 C788 0.930 . S
C774 H762 0.930 . S
C774 C775 1.399 . S
C774 C779 1.399 . S
C775 C774 1.399 . S
C775 C776 1.376 . S
C776 H763 0.930 . S
C776 C775 1.376 . S
C776 C777 1.388 . S
C777 H764 0.930 . S
C777 C776 1.388 . S
C777 C778 1.390 . S
C778 C777 1.390 . S
C778 C779 1.394 . S
C778 C784 1.465 1_566 S
C779 C774 1.399 . S
C779 C778 1.394 . S
C779 C780 1.516 1_556 S
C780 C779 1.516 1_554 S
C780 C781 1.502 . S
C780 C782 1.561 . S
C780 C783 1.526 1_565 S
C781 H765 0.959 1_564 S
C781 H766 0.959 1_565 S
C781 H767 0.961 . S
C781 C780 1.502 . S
C782 H768 0.960 . S
C782 H769 0.961 . S
C782 H770 0.959 . S
C782 C780 1.561 . S
C783 C780 1.526 1_545 S
C783 C784 1.396 . S
C783 C788 1.390 . S
C784 C778 1.465 1_544 S
C784 C783 1.396 . S
C784 C785 1.399 1_554 S
C785 H771 0.929 . S
C785 C784 1.399 1_556 S
C785 C786 1.385 1_556 S
C786 H772 0.931 . S
C786 C785 1.385 1_554 S
C786 C787 1.389 . S
C787 C786 1.389 . S
C787 C788 1.387 . S
C788 H773 0.930 . S
C788 C783 1.390 . S
C788 C787 1.387 . S
H789 C801 0.930 . S
H790 C803 0.930 . S
H791 C804 0.930 . S
H792 C808 0.959 . S
H793 C808 0.959 . S
H794 C808 0.961 . S
H795 C809 0.960 . S
H796 C809 0.961 . S
H797 C809 0.959 . S
H798 C812 0.929 . S
H799 C813 0.931 . S
H800 C815 0.930 . S
C801 H789 0.930 . S
C801 C802 1.399 . S
C801 C806 1.399 . S
C802 C801 1.399 . S
C802 C803 1.376 . S
C803 H790 0.930 . S
C803 C802 1.376 . S
C803 C804 1.388 . S
C804 H791 0.930 . S
C804 C803 1.388 . S
C804 C805 1.390 . S
C805 C804 1.390 . S
C805 C806 1.394 . S
C805 C811 1.465 . S
C806 C801 1.399 . S
C806 C805 1.394 . S
C806 C807 1.516 . S
C807 C806 1.516 . S
C807 C808 1.502 . S
C807 C809 1.561 . S
C807 C810 1.526 . S
C808 H792 0.959 . S
C808 H793 0.959 . S
C808 H794 0.961 . S
C808 C807 1.502 . S
C809 H795 0.960 . S
C809 H796 0.961 . S
C809 H797 0.959 . S
C809 C807 1.561 . S
C810 C807 1.526 . S
C810 C811 1.396 . S
C810 C815 1.390 . S
C811 C805 1.465 . S
C811 C810 1.396 . S
C811 C812 1.399 . S
C812 H798 0.929 . S
C812 C811 1.399 . S
C812 C813 1.385 . S
C813 H799 0.931 . S
C813 C812 1.385 . S
C813 C814 1.389 . S
C814 C813 1.389 . S
C814 C815 1.387 . S
C815 H800 0.930 . S
C815 C810 1.390 . S
C815 C814 1.387 . S
H816 C828 0.930 . S
H817 C830 0.930 . S
H818 C831 0.930 . S
H819 C835 0.959 . S
H820 C835 0.959 . S
H821 C835 0.961 . S
H822 C836 0.960 1_655 S
H823 C836 0.961 . S
H824 C836 0.960 1_655 S
H825 C839 0.929 . S
H826 C840 0.931 . S
H827 C842 0.930 . S
C828 H816 0.930 . S
C828 C829 1.399 . S
C828 C833 1.399 . S
C829 C828 1.399 . S
C829 C830 1.376 . S
C830 H817 0.930 . S
C830 C829 1.376 . S
C830 C831 1.388 . S
C831 H818 0.930 . S
C831 C830 1.388 . S
C831 C832 1.390 . S
C832 C831 1.390 . S
C832 C833 1.394 . S
C832 C838 1.465 1_655 S
C833 C828 1.399 . S
C833 C832 1.394 . S
C833 C834 1.516 1_655 S
C834 C833 1.516 1_455 S
C834 C835 1.502 . S
C834 C836 1.561 . S
C834 C837 1.526 . S
C835 H819 0.959 . S
C835 H820 0.959 . S
C835 H821 0.961 . S
C835 C834 1.502 . S
C836 H822 0.960 1_455 S
C836 H823 0.961 . S
C836 H824 0.960 1_455 S
C836 C834 1.561 . S
C837 C834 1.526 . S
C837 C838 1.396 . S
C837 C842 1.390 . S
C838 C832 1.465 1_455 S
C838 C837 1.396 . S
C838 C839 1.399 . S
C839 H825 0.929 . S
C839 C838 1.399 . S
C839 C840 1.385 . S
C840 H826 0.931 . S
C840 C839 1.385 . S
C840 C841 1.389 . S
C841 C840 1.389 . S
C841 C842 1.387 . S
C842 H827 0.930 . S
C842 C837 1.390 . S
C842 C841 1.387 . S
H843 C855 0.930 . S
H844 C857 0.930 1_556 S
H845 C858 0.930 . S
H846 C862 0.959 . S
H847 C862 0.959 . S
H848 C862 0.961 . S
H849 C863 0.960 . S
H850 C863 0.961 . S
H851 C863 0.959 . S
H852 C866 0.929 . S
H853 C867 0.931 . S
H854 C869 0.930 1_554 S
C855 H843 0.930 . S
C855 C856 1.399 . S
C855 C860 1.399 . S
C856 C855 1.399 . S
C856 C857 1.376 . S
C857 H844 0.930 1_554 S
C857 C856 1.376 . S
C857 C858 1.388 1_554 S
C858 H845 0.930 . S
C858 C857 1.388 1_556 S
C858 C859 1.390 . S
C859 C858 1.390 . S
C859 C860 1.394 1_556 S
C859 C865 1.465 1_565 S
C860 C855 1.399 . S
C860 C859 1.394 1_554 S
C860 C861 1.516 1_565 S
C861 C860 1.516 1_545 S
C861 C862 1.502 . S
C861 C863 1.561 . S
C861 C864 1.526 . S
C862 H846 0.959 . S
C862 H847 0.959 . S
C862 H848 0.961 . S
C862 C861 1.502 . S
C863 H849 0.960 . S
C863 H850 0.961 . S
C863 H851 0.959 . S
C863 C861 1.561 . S
C864 C861 1.526 . S
C864 C865 1.396 1_554 S
C864 C869 1.390 1_554 S
C865 C859 1.465 1_545 S
C865 C864 1.396 1_556 S
C865 C866 1.399 . S
C866 H852 0.929 . S
C866 C865 1.399 . S
C866 C867 1.385 . S
C867 H853 0.931 . S
C867 C866 1.385 . S
C867 C868 1.389 . S
C868 C867 1.389 . S
C868 C869 1.387 . S
C869 H854 0.930 1_556 S
C869 C864 1.390 1_556 S
C869 C868 1.387 . S
H870 C882 0.930 . S
H871 C884 0.930 . S
H872 C885 0.930 . S
H873 C889 0.959 . S
H874 C889 0.959 . S
H875 C889 0.961 . S
H876 C890 0.960 1_556 S
H877 C890 0.961 . S
H878 C890 0.959 . S
H879 C893 0.929 . S
H880 C894 0.931 . S
H881 C896 0.930 . S
C882 H870 0.930 . S
C882 C883 1.399 . S
C882 C887 1.399 . S
C883 C882 1.399 . S
C883 C884 1.376 . S
C884 H871 0.930 . S
C884 C883 1.376 . S
C884 C885 1.388 . S
C885 H872 0.930 . S
C885 C884 1.388 . S
C885 C886 1.390 . S
C886 C885 1.390 . S
C886 C887 1.394 . S
C886 C892 1.465 1_556 S
C887 C882 1.399 . S
C887 C886 1.394 . S
C887 C888 1.516 . S
C888 C887 1.516 . S
C888 C889 1.502 . S
C888 C890 1.561 1_556 S
C888 C891 1.526 1_556 S
C889 H873 0.959 . S
C889 H874 0.959 . S
C889 H875 0.961 . S
C889 C888 1.502 . S
C890 H876 0.960 1_554 S
C890 H877 0.961 . S
C890 H878 0.959 . S
C890 C888 1.561 1_554 S
C891 C888 1.526 1_554 S
C891 C892 1.396 . S
C891 C896 1.390 . S
C892 C886 1.465 1_554 S
C892 C891 1.396 . S
C892 C893 1.399 . S
C893 H879 0.929 . S
C893 C892 1.399 . S
C893 C894 1.385 . S
C894 H880 0.931 . S
C894 C893 1.385 . S
C894 C895 1.389 . S
C895 C894 1.389 . S
C895 C896 1.387 . S
C896 H881 0.930 . S
C896 C891 1.390 . S
C896 C895 1.387 . S
H897 C909 0.930 . S
H898 C911 0.930 . S
H899 C912 0.930 . S
H900 C916 0.959 . S
H901 C916 0.959 . S
H902 C916 0.961 . S
H903 C917 0.960 . S
H904 C917 0.961 . S
H905 C917 0.959 . S
H906 C920 0.929 . S
H907 C921 0.931 . S
H908 C923 0.930 . S
C909 H897 0.930 . S
C909 C910 1.399 . S
C909 C914 1.399 . S
C910 C909 1.399 . S
C910 C911 1.376 . S
C911 H898 0.930 . S
C911 C910 1.376 . S
C911 C912 1.388 . S
C912 H899 0.930 . S
C912 C911 1.388 . S
C912 C913 1.390 . S
C913 C912 1.390 . S
C913 C914 1.394 . S
C913 C919 1.465 . S
C914 C909 1.399 . S
C914 C913 1.394 . S
C914 C915 1.516 . S
C915 C914 1.516 . S
C915 C916 1.502 . S
C915 C917 1.561 . S
C915 C918 1.526 . S
C916 H900 0.959 . S
C916 H901 0.959 . S
C916 H902 0.961 . S
C916 C915 1.502 . S
C917 H903 0.960 . S
C917 H904 0.961 . S
C917 H905 0.959 . S
C917 C915 1.561 . S
C918 C915 1.526 . S
C918 C919 1.396 . S
C918 C923 1.390 . S
C919 C913 1.465 . S
C919 C918 1.396 . S
C919 C920 1.399 . S
C920 H906 0.929 . S
C920 C919 1.399 . S
C920 C921 1.385 . S
C921 H907 0.931 . S
C921 C920 1.385 . S
C921 C922 1.389 . S
C922 C921 1.389 . S
C922 C923 1.387 . S
C923 H908 0.930 . S
C923 C918 1.390 . S
C923 C922 1.387 . S
H924 C936 0.930 . S
H925 C938 0.930 . S
H926 C939 0.930 . S
H927 C943 0.959 . S
H928 C943 0.959 . S
H929 C943 0.961 . S
H930 C944 0.960 . S
H931 C944 0.961 . S
H932 C944 0.959 . S
H933 C947 0.929 . S
H934 C948 0.931 . S
H935 C950 0.930 . S
C936 H924 0.930 . S
C936 C937 1.399 . S
C936 C941 1.399 . S
C937 C936 1.399 . S
C937 C938 1.376 . S
C938 H925 0.930 . S
C938 C937 1.376 . S
C938 C939 1.388 . S
C939 H926 0.930 . S
C939 C938 1.388 . S
C939 C940 1.390 . S
C940 C939 1.390 . S
C940 C941 1.394 . S
C940 C946 1.465 . S
C941 C936 1.399 . S
C941 C940 1.394 . S
C941 C942 1.516 . S
C942 C941 1.516 . S
C942 C943 1.502 . S
C942 C944 1.561 . S
C942 C945 1.526 . S
C943 H927 0.959 . S
C943 H928 0.959 . S
C943 H929 0.961 . S
C943 C942 1.502 . S
C944 H930 0.960 . S
C944 H931 0.961 . S
C944 H932 0.959 . S
C944 C942 1.561 . S
C945 C942 1.526 . S
C945 C946 1.396 . S
C945 C950 1.390 . S
C946 C940 1.465 . S
C946 C945 1.396 . S
C946 C947 1.399 . S
C947 H933 0.929 . S
C947 C946 1.399 . S
C947 C948 1.385 . S
C948 H934 0.931 . S
C948 C947 1.385 . S
C948 C949 1.389 . S
C949 C948 1.389 . S
C949 C950 1.387 . S
C950 H935 0.930 . S
C950 C945 1.390 . S
C950 C949 1.387 . S
H951 C963 0.930 . S
H952 C965 0.930 . S
H953 C966 0.930 1_556 S
H954 C970 0.959 . S
H955 C970 0.959 . S
H956 C970 0.961 . S
H957 C971 0.960 . S
H958 C971 0.961 . S
H959 C971 0.959 . S
H960 C974 0.929 . S
H961 C975 0.931 . S
H962 C977 0.930 . S
C963 H951 0.930 . S
C963 C964 1.399 . S
C963 C968 1.399 . S
C964 C963 1.399 . S
C964 C965 1.376 . S
C965 H952 0.930 . S
C965 C964 1.376 . S
C965 C966 1.388 . S
C966 H953 0.930 1_554 S
C966 C965 1.388 . S
C966 C967 1.390 . S
C967 C966 1.390 . S
C967 C968 1.394 . S
C967 C973 1.465 1_554 S
C968 C963 1.399 . S
C968 C967 1.394 . S
C968 C969 1.516 . S
C969 C968 1.516 . S
C969 C970 1.502 . S
C969 C971 1.561 . S
C969 C972 1.526 1_554 S
C970 H954 0.959 . S
C970 H955 0.959 . S
C970 H956 0.961 . S
C970 C969 1.502 . S
C971 H957 0.960 . S
C971 H958 0.961 . S
C971 H959 0.959 . S
C971 C969 1.561 . S
C972 C969 1.526 1_556 S
C972 C973 1.396 . S
C972 C977 1.390 . S
C973 C967 1.465 1_556 S
C973 C972 1.396 . S
C973 C974 1.399 . S
C974 H960 0.929 . S
C974 C973 1.399 . S
C974 C975 1.385 . S
C975 H961 0.931 . S
C975 C974 1.385 . S
C975 C976 1.389 . S
C976 C975 1.389 . S
C976 C977 1.387 . S
C977 H962 0.930 . S
C977 C972 1.390 . S
C977 C976 1.387 . S
H978 C990 0.930 . S
H979 C992 0.930 . S
H980 C993 0.930 . S
H981 C997 0.959 . S
H982 C997 0.959 . S
H983 C997 0.961 . S
H984 C998 0.960 . S
H985 C998 0.961 . S
H986 C998 0.959 . S
H987 C1001 0.929 . S
H988 C1002 0.931 . S
H989 C1004 0.930 . S
C990 H978 0.930 . S
C990 C991 1.399 . S
C990 C995 1.399 . S
C991 C990 1.399 . S
C991 C992 1.376 . S
C992 H979 0.930 . S
C992 C991 1.376 . S
C992 C993 1.388 . S
C993 H980 0.930 . S
C993 C992 1.388 . S
C993 C994 1.390 . S
C994 C993 1.390 . S
C994 C995 1.394 . S
C994 C1000 1.465 . S
C995 C990 1.399 . S
C995 C994 1.394 . S
C995 C996 1.516 . S
C996 C995 1.516 . S
C996 C997 1.502 . S
C996 C998 1.561 . S
C996 C999 1.526 . S
C997 H981 0.959 . S
C997 H982 0.959 . S
C997 H983 0.961 . S
C997 C996 1.502 . S
C998 H984 0.960 . S
C998 H985 0.961 . S
C998 H986 0.959 . S
C998 C996 1.561 . S
C999 C996 1.526 . S
C999 C1000 1.396 . S
C999 C1004 1.390 . S
C1000 C994 1.465 . S
C1000 C999 1.396 . S
C1000 C1001 1.399 . S
C1001 H987 0.929 . S
C1001 C1000 1.399 . S
C1001 C1002 1.385 . S
C1002 H988 0.931 . S
C1002 C1001 1.385 . S
C1002 C1003 1.389 . S
C1003 C1002 1.389 . S
C1003 C1004 1.387 . S
C1004 H989 0.930 . S
C1004 C999 1.390 . S
C1004 C1003 1.387 . S
H1005 C1017 0.930 . S
H1006 C1019 0.930 . S
H1007 C1020 0.930 . S
H1008 C1024 0.959 . S
H1009 C1024 0.959 . S
H1010 C1024 0.961 . S
H1011 C1025 0.960 . S
H1012 C1025 0.961 . S
H1013 C1025 0.959 . S
H1014 C1028 0.929 . S
H1015 C1029 0.931 . S
H1016 C1031 0.930 . S
C1017 H1005 0.930 . S
C1017 C1018 1.399 . S
C1017 C1022 1.399 . S
C1018 C1017 1.399 . S
C1018 C1019 1.376 . S
C1019 H1006 0.930 . S
C1019 C1018 1.376 . S
C1019 C1020 1.388 . S
C1020 H1007 0.930 . S
C1020 C1019 1.388 . S
C1020 C1021 1.390 . S
C1021 C1020 1.390 . S
C1021 C1022 1.394 . S
C1021 C1027 1.465 . S
C1022 C1017 1.399 . S
C1022 C1021 1.394 . S
C1022 C1023 1.516 . S
C1023 C1022 1.516 . S
C1023 C1024 1.502 . S
C1023 C1025 1.561 . S
C1023 C1026 1.526 . S
C1024 H1008 0.959 . S
C1024 H1009 0.959 . S
C1024 H1010 0.961 . S
C1024 C1023 1.502 . S
C1025 H1011 0.960 . S
C1025 H1012 0.961 . S
C1025 H1013 0.959 . S
C1025 C1023 1.561 . S
C1026 C1023 1.526 . S
C1026 C1027 1.396 . S
C1026 C1031 1.390 . S
C1027 C1021 1.465 . S
C1027 C1026 1.396 . S
C1027 C1028 1.399 . S
C1028 H1014 0.929 . S
C1028 C1027 1.399 . S
C1028 C1029 1.385 . S
C1029 H1015 0.931 . S
C1029 C1028 1.385 . S
C1029 C1030 1.389 . S
C1030 C1029 1.389 . S
C1030 C1031 1.387 . S
C1031 H1016 0.930 . S
C1031 C1026 1.390 . S
C1031 C1030 1.387 . S
H1032 C1044 0.930 . S
H1033 C1046 0.930 . S
H1034 C1047 0.930 . S
H1035 C1051 0.959 . S
H1036 C1051 0.959 . S
H1037 C1051 0.961 . S
H1038 C1052 0.960 . S
H1039 C1052 0.961 . S
H1040 C1052 0.959 . S
H1041 C1055 0.929 . S
H1042 C1056 0.931 . S
H1043 C1058 0.930 . S
C1044 H1032 0.930 . S
C1044 C1045 1.399 . S
C1044 C1049 1.399 . S
C1045 C1044 1.399 . S
C1045 C1046 1.376 . S
C1046 H1033 0.930 . S
C1046 C1045 1.376 . S
C1046 C1047 1.388 . S
C1047 H1034 0.930 . S
C1047 C1046 1.388 . S
C1047 C1048 1.390 . S
C1048 C1047 1.390 . S
C1048 C1049 1.394 . S
C1048 C1054 1.465 . S
C1049 C1044 1.399 . S
C1049 C1048 1.394 . S
C1049 C1050 1.516 . S
C1050 C1049 1.516 . S
C1050 C1051 1.502 . S
C1050 C1052 1.561 . S
C1050 C1053 1.526 . S
C1051 H1035 0.959 . S
C1051 H1036 0.959 . S
C1051 H1037 0.961 . S
C1051 C1050 1.502 . S
C1052 H1038 0.960 . S
C1052 H1039 0.961 . S
C1052 H1040 0.959 . S
C1052 C1050 1.561 . S
C1053 C1050 1.526 . S
C1053 C1054 1.396 . S
C1053 C1058 1.390 . S
C1054 C1048 1.465 . S
C1054 C1053 1.396 . S
C1054 C1055 1.399 . S
C1055 H1041 0.929 . S
C1055 C1054 1.399 . S
C1055 C1056 1.385 . S
C1056 H1042 0.931 . S
C1056 C1055 1.385 . S
C1056 C1057 1.389 . S
C1057 C1056 1.389 . S
C1057 C1058 1.387 . S
C1058 H1043 0.930 . S
C1058 C1053 1.390 . S
C1058 C1057 1.387 . S
H1059 C1071 0.930 . S
H1060 C1073 0.930 . S
H1061 C1074 0.930 . S
H1062 C1078 0.959 . S
H1063 C1078 0.959 . S
H1064 C1078 0.961 . S
H1065 C1079 0.960 . S
H1066 C1079 0.961 . S
H1067 C1079 0.959 . S
H1068 C1082 0.929 . S
H1069 C1083 0.931 . S
H1070 C1085 0.930 . S
C1071 H1059 0.930 . S
C1071 C1072 1.399 . S
C1071 C1076 1.399 . S
C1072 C1071 1.399 . S
C1072 C1073 1.376 . S
C1073 H1060 0.930 . S
C1073 C1072 1.376 . S
C1073 C1074 1.388 . S
C1074 H1061 0.930 . S
C1074 C1073 1.388 . S
C1074 C1075 1.390 . S
C1075 C1074 1.390 . S
C1075 C1076 1.394 . S
C1075 C1081 1.465 . S
C1076 C1071 1.399 . S
C1076 C1075 1.394 . S
C1076 C1077 1.516 . S
C1077 C1076 1.516 . S
C1077 C1078 1.502 . S
C1077 C1079 1.561 . S
C1077 C1080 1.526 . S
C1078 H1062 0.959 . S
C1078 H1063 0.959 . S
C1078 H1064 0.961 . S
C1078 C1077 1.502 . S
C1079 H1065 0.960 . S
C1079 H1066 0.961 . S
C1079 H1067 0.959 . S
C1079 C1077 1.561 . S
C1080 C1077 1.526 . S
C1080 C1081 1.396 . S
C1080 C1085 1.390 . S
C1081 C1075 1.465 . S
C1081 C1080 1.396 . S
C1081 C1082 1.399 . S
C1082 H1068 0.929 . S
C1082 C1081 1.399 . S
C1082 C1083 1.385 . S
C1083 H1069 0.931 . S
C1083 C1082 1.385 . S
C1083 C1084 1.389 . S
C1084 C1083 1.389 . S
C1084 C1085 1.387 . S
C1085 H1070 0.930 . S
C1085 C1080 1.390 . S
C1085 C1084 1.387 . S
H1086 C1098 0.930 . S
H1087 C1100 0.930 . S
H1088 C1101 0.930 . S
H1089 C1105 0.959 . S
H1090 C1105 0.959 . S
H1091 C1105 0.961 . S
H1092 C1106 0.960 . S
H1093 C1106 0.961 . S
H1094 C1106 0.959 . S
H1095 C1109 0.929 . S
H1096 C1110 0.931 . S
H1097 C1112 0.930 . S
C1098 H1086 0.930 . S
C1098 C1099 1.399 . S
C1098 C1103 1.399 . S
C1099 C1098 1.399 . S
C1099 C1100 1.376 . S
C1100 H1087 0.930 . S
C1100 C1099 1.376 . S
C1100 C1101 1.388 . S
C1101 H1088 0.930 . S
C1101 C1100 1.388 . S
C1101 C1102 1.390 . S
C1102 C1101 1.390 . S
C1102 C1103 1.394 . S
C1102 C1108 1.465 . S
C1103 C1098 1.399 . S
C1103 C1102 1.394 . S
C1103 C1104 1.516 . S
C1104 C1103 1.516 . S
C1104 C1105 1.502 . S
C1104 C1106 1.561 . S
C1104 C1107 1.526 . S
C1105 H1089 0.959 . S
C1105 H1090 0.959 . S
C1105 H1091 0.961 . S
C1105 C1104 1.502 . S
C1106 H1092 0.960 . S
C1106 H1093 0.961 . S
C1106 H1094 0.959 . S
C1106 C1104 1.561 . S
C1107 C1104 1.526 . S
C1107 C1108 1.396 . S
C1107 C1112 1.390 . S
C1108 C1102 1.465 . S
C1108 C1107 1.396 . S
C1108 C1109 1.399 . S
C1109 H1095 0.929 . S
C1109 C1108 1.399 . S
C1109 C1110 1.385 . S
C1110 H1096 0.931 . S
C1110 C1109 1.385 . S
C1110 C1111 1.389 . S
C1111 C1110 1.389 . S
C1111 C1112 1.387 . S
C1112 H1097 0.930 . S
C1112 C1107 1.390 . S
C1112 C1111 1.387 . S
H1113 C1125 0.930 . S
H1114 C1127 0.930 . S
H1115 C1128 0.930 . S
H1116 C1132 0.959 . S
H1117 C1132 0.959 . S
H1118 C1132 0.961 . S
H1119 C1133 0.960 . S
H1120 C1133 0.961 . S
H1121 C1133 0.959 . S
H1122 C1136 0.929 . S
H1123 C1137 0.931 . S
H1124 C1139 0.930 . S
C1125 H1113 0.930 . S
C1125 C1126 1.399 . S
C1125 C1130 1.399 . S
C1126 C1125 1.399 . S
C1126 C1127 1.376 . S
C1127 H1114 0.930 . S
C1127 C1126 1.376 . S
C1127 C1128 1.388 . S
C1128 H1115 0.930 . S
C1128 C1127 1.388 . S
C1128 C1129 1.390 . S
C1129 C1128 1.390 . S
C1129 C1130 1.394 . S
C1129 C1135 1.465 . S
C1130 C1125 1.399 . S
C1130 C1129 1.394 . S
C1130 C1131 1.516 . S
C1131 C1130 1.516 . S
C1131 C1132 1.502 . S
C1131 C1133 1.561 . S
C1131 C1134 1.526 . S
C1132 H1116 0.959 . S
C1132 H1117 0.959 . S
C1132 H1118 0.961 . S
C1132 C1131 1.502 . S
C1133 H1119 0.960 . S
C1133 H1120 0.961 . S
C1133 H1121 0.959 . S
C1133 C1131 1.561 . S
C1134 C1131 1.526 . S
C1134 C1135 1.396 . S
C1134 C1139 1.390 . S
C1135 C1129 1.465 . S
C1135 C1134 1.396 . S
C1135 C1136 1.399 . S
C1136 H1122 0.929 . S
C1136 C1135 1.399 . S
C1136 C1137 1.385 . S
C1137 H1123 0.931 . S
C1137 C1136 1.385 . S
C1137 C1138 1.389 . S
C1138 C1137 1.389 . S
C1138 C1139 1.387 . S
C1139 H1124 0.930 . S
C1139 C1134 1.390 . S
C1139 C1138 1.387 . S
H1140 C1152 0.930 . S
H1141 C1154 0.930 . S
H1142 C1155 0.930 . S
H1143 C1159 0.959 . S
H1144 C1159 0.959 . S
H1145 C1159 0.961 . S
H1146 C1160 0.960 . S
H1147 C1160 0.961 . S
H1148 C1160 0.959 . S
H1149 C1163 0.929 . S
H1150 C1164 0.931 . S
H1151 C1166 0.930 . S
C1152 H1140 0.930 . S
C1152 C1153 1.399 . S
C1152 C1157 1.399 . S
C1153 C1152 1.399 . S
C1153 C1154 1.376 . S
C1154 H1141 0.930 . S
C1154 C1153 1.376 . S
C1154 C1155 1.388 . S
C1155 H1142 0.930 . S
C1155 C1154 1.388 . S
C1155 C1156 1.390 . S
C1156 C1155 1.390 . S
C1156 C1157 1.394 . S
C1156 C1162 1.465 . S
C1157 C1152 1.399 . S
C1157 C1156 1.394 . S
C1157 C1158 1.516 . S
C1158 C1157 1.516 . S
C1158 C1159 1.502 . S
C1158 C1160 1.561 . S
C1158 C1161 1.526 . S
C1159 H1143 0.959 . S
C1159 H1144 0.959 . S
C1159 H1145 0.961 . S
C1159 C1158 1.502 . S
C1160 H1146 0.960 . S
C1160 H1147 0.961 . S
C1160 H1148 0.959 . S
C1160 C1158 1.561 . S
C1161 C1158 1.526 . S
C1161 C1162 1.396 . S
C1161 C1166 1.390 . S
C1162 C1156 1.465 . S
C1162 C1161 1.396 . S
C1162 C1163 1.399 . S
C1163 H1149 0.929 . S
C1163 C1162 1.399 . S
C1163 C1164 1.385 . S
C1164 H1150 0.931 . S
C1164 C1163 1.385 . S
C1164 C1165 1.389 . S
C1165 C1164 1.389 . S
C1165 C1166 1.387 . S
C1166 H1151 0.930 . S
C1166 C1161 1.390 . S
C1166 C1165 1.387 . S
H1167 C1179 0.930 . S
H1168 C1181 0.930 . S
H1169 C1182 0.930 . S
H1170 C1186 0.959 . S
H1171 C1186 0.959 . S
H1172 C1186 0.961 . S
H1173 C1187 0.960 . S
H1174 C1187 0.961 . S
H1175 C1187 0.959 . S
H1176 C1190 0.929 . S
H1177 C1191 0.931 . S
H1178 C1193 0.930 . S
C1179 H1167 0.930 . S
C1179 C1180 1.399 . S
C1179 C1184 1.399 . S
C1180 C1179 1.399 . S
C1180 C1181 1.376 . S
C1181 H1168 0.930 . S
C1181 C1180 1.376 . S
C1181 C1182 1.388 . S
C1182 H1169 0.930 . S
C1182 C1181 1.388 . S
C1182 C1183 1.390 . S
C1183 C1182 1.390 . S
C1183 C1184 1.394 . S
C1183 C1189 1.465 . S
C1184 C1179 1.399 . S
C1184 C1183 1.394 . S
C1184 C1185 1.516 . S
C1185 C1184 1.516 . S
C1185 C1186 1.502 . S
C1185 C1187 1.561 . S
C1185 C1188 1.526 . S
C1186 H1170 0.959 . S
C1186 H1171 0.959 . S
C1186 H1172 0.961 . S
C1186 C1185 1.502 . S
C1187 H1173 0.960 . S
C1187 H1174 0.961 . S
C1187 H1175 0.959 . S
C1187 C1185 1.561 . S
C1188 C1185 1.526 . S
C1188 C1189 1.396 . S
C1188 C1193 1.390 . S
C1189 C1183 1.465 . S
C1189 C1188 1.396 . S
C1189 C1190 1.399 . S
C1190 H1176 0.929 . S
C1190 C1189 1.399 . S
C1190 C1191 1.385 . S
C1191 H1177 0.931 . S
C1191 C1190 1.385 . S
C1191 C1192 1.389 . S
C1192 C1191 1.389 . S
C1192 C1193 1.387 . S
C1193 H1178 0.930 . S
C1193 C1188 1.390 . S
C1193 C1192 1.387 . S
H1194 C1206 0.930 . S
H1195 C1208 0.930 . S
H1196 C1209 0.930 . S
H1197 C1213 0.959 . S
H1198 C1213 0.959 . S
H1199 C1213 0.961 . S
H1200 C1214 0.960 . S
H1201 C1214 0.961 . S
H1202 C1214 0.959 . S
H1203 C1217 0.929 . S
H1204 C1218 0.931 . S
H1205 C1220 0.930 . S
C1206 H1194 0.930 . S
C1206 C1207 1.399 . S
C1206 C1211 1.399 . S
C1207 C1206 1.399 . S
C1207 C1208 1.376 . S
C1208 H1195 0.930 . S
C1208 C1207 1.376 . S
C1208 C1209 1.388 . S
C1209 H1196 0.930 . S
C1209 C1208 1.388 . S
C1209 C1210 1.390 . S
C1210 C1209 1.390 . S
C1210 C1211 1.394 . S
C1210 C1216 1.465 . S
C1211 C1206 1.399 . S
C1211 C1210 1.394 . S
C1211 C1212 1.516 . S
C1212 C1211 1.516 . S
C1212 C1213 1.502 . S
C1212 C1214 1.561 . S
C1212 C1215 1.526 . S
C1213 H1197 0.959 . S
C1213 H1198 0.959 . S
C1213 H1199 0.961 . S
C1213 C1212 1.502 . S
C1214 H1200 0.960 . S
C1214 H1201 0.961 . S
C1214 H1202 0.959 . S
C1214 C1212 1.561 . S
C1215 C1212 1.526 . S
C1215 C1216 1.396 . S
C1215 C1220 1.390 . S
C1216 C1210 1.465 . S
C1216 C1215 1.396 . S
C1216 C1217 1.399 . S
C1217 H1203 0.929 . S
C1217 C1216 1.399 . S
C1217 C1218 1.385 . S
C1218 H1204 0.931 . S
C1218 C1217 1.385 . S
C1218 C1219 1.389 . S
C1219 C1218 1.389 . S
C1219 C1220 1.387 . S
C1220 H1205 0.930 . S
C1220 C1215 1.390 . S
C1220 C1219 1.387 . S
H1221 C1233 0.930 . S
H1222 C1235 0.930 . S
H1223 C1236 0.930 . S
H1224 C1240 0.959 . S
H1225 C1240 0.959 . S
H1226 C1240 0.961 . S
H1227 C1241 0.960 . S
H1228 C1241 0.961 . S
H1229 C1241 0.959 . S
H1230 C1244 0.929 . S
H1231 C1245 0.931 . S
H1232 C1247 0.930 . S
C1233 H1221 0.930 . S
C1233 C1234 1.399 . S
C1233 C1238 1.399 . S
C1234 C1233 1.399 . S
C1234 C1235 1.376 . S
C1235 H1222 0.930 . S
C1235 C1234 1.376 . S
C1235 C1236 1.388 . S
C1236 H1223 0.930 . S
C1236 C1235 1.388 . S
C1236 C1237 1.390 . S
C1237 C1236 1.390 . S
C1237 C1238 1.394 . S
C1237 C1243 1.465 . S
C1238 C1233 1.399 . S
C1238 C1237 1.394 . S
C1238 C1239 1.516 . S
C1239 C1238 1.516 . S
C1239 C1240 1.502 . S
C1239 C1241 1.561 . S
C1239 C1242 1.526 . S
C1240 H1224 0.959 . S
C1240 H1225 0.959 . S
C1240 H1226 0.961 . S
C1240 C1239 1.502 . S
C1241 H1227 0.960 . S
C1241 H1228 0.961 . S
C1241 H1229 0.959 . S
C1241 C1239 1.561 . S
C1242 C1239 1.526 . S
C1242 C1243 1.396 . S
C1242 C1247 1.390 . S
C1243 C1237 1.465 . S
C1243 C1242 1.396 . S
C1243 C1244 1.399 . S
C1244 H1230 0.929 . S
C1244 C1243 1.399 . S
C1244 C1245 1.385 . S
C1245 H1231 0.931 . S
C1245 C1244 1.385 . S
C1245 C1246 1.389 . S
C1246 C1245 1.389 . S
C1246 C1247 1.387 . S
C1247 H1232 0.930 . S
C1247 C1242 1.390 . S
C1247 C1246 1.387 . S
H1248 C1260 0.930 . S
H1249 C1262 0.930 . S
H1250 C1263 0.930 . S
H1251 C1267 0.959 . S
H1252 C1267 0.959 . S
H1253 C1267 0.961 . S
H1254 C1268 0.960 . S
H1255 C1268 0.961 . S
H1256 C1268 0.959 . S
H1257 C1271 0.929 . S
H1258 C1272 0.931 . S
H1259 C1274 0.930 . S
C1260 H1248 0.930 . S
C1260 C1261 1.399 1_554 S
C1260 C1265 1.399 . S
C1261 C1260 1.399 1_556 S
C1261 C1262 1.376 . S
C1262 H1249 0.930 . S
C1262 C1261 1.376 . S
C1262 C1263 1.388 . S
C1263 H1250 0.930 . S
C1263 C1262 1.388 . S
C1263 C1264 1.390 . S
C1264 C1263 1.390 . S
C1264 C1265 1.394 1_556 S
C1264 C1270 1.465 . S
C1265 C1260 1.399 . S
C1265 C1264 1.394 1_554 S
C1265 C1266 1.516 . S
C1266 C1265 1.516 . S
C1266 C1267 1.502 . S
C1266 C1268 1.561 1_554 S
C1266 C1269 1.526 . S
C1267 H1251 0.959 . S
C1267 H1252 0.959 . S
C1267 H1253 0.961 . S
C1267 C1266 1.502 . S
C1268 H1254 0.960 . S
C1268 H1255 0.961 . S
C1268 H1256 0.959 . S
C1268 C1266 1.561 1_556 S
C1269 C1266 1.526 . S
C1269 C1270 1.396 1_554 S
C1269 C1274 1.390 . S
C1270 C1264 1.465 . S
C1270 C1269 1.396 1_556 S
C1270 C1271 1.399 . S
C1271 H1257 0.929 . S
C1271 C1270 1.399 . S
C1271 C1272 1.385 . S
C1272 H1258 0.931 . S
C1272 C1271 1.385 . S
C1272 C1273 1.389 1_556 S
C1273 C1272 1.389 1_554 S
C1273 C1274 1.387 . S
C1274 H1259 0.930 . S
C1274 C1269 1.390 . S
C1274 C1273 1.387 . S
H1275 C1287 0.930 . S
H1276 C1289 0.930 . S
H1277 C1290 0.930 . S
H1278 C1294 0.959 . S
H1279 C1294 0.959 . S
H1280 C1294 0.961 . S
H1281 C1295 0.960 . S
H1282 C1295 0.961 . S
H1283 C1295 0.959 . S
H1284 C1298 0.929 . S
H1285 C1299 0.931 . S
H1286 C1301 0.930 . S
C1287 H1275 0.930 . S
C1287 C1288 1.399 . S
C1287 C1292 1.399 . S
C1288 C1287 1.399 . S
C1288 C1289 1.376 . S
C1289 H1276 0.930 . S
C1289 C1288 1.376 . S
C1289 C1290 1.388 . S
C1290 H1277 0.930 . S
C1290 C1289 1.388 . S
C1290 C1291 1.390 . S
C1291 C1290 1.390 . S
C1291 C1292 1.394 . S
C1291 C1297 1.465 . S
C1292 C1287 1.399 . S
C1292 C1291 1.394 . S
C1292 C1293 1.516 . S
C1293 C1292 1.516 . S
C1293 C1294 1.502 . S
C1293 C1295 1.561 . S
C1293 C1296 1.526 . S
C1294 H1278 0.959 . S
C1294 H1279 0.959 . S
C1294 H1280 0.961 . S
C1294 C1293 1.502 . S
C1295 H1281 0.960 . S
C1295 H1282 0.961 . S
C1295 H1283 0.959 . S
C1295 C1293 1.561 . S
C1296 C1293 1.526 . S
C1296 C1297 1.396 . S
C1296 C1301 1.390 . S
C1297 C1291 1.465 . S
C1297 C1296 1.396 . S
C1297 C1298 1.399 . S
C1298 H1284 0.929 . S
C1298 C1297 1.399 . S
C1298 C1299 1.385 . S
C1299 H1285 0.931 . S
C1299 C1298 1.385 . S
C1299 C1300 1.389 . S
C1300 C1299 1.389 . S
C1300 C1301 1.387 . S
C1301 H1286 0.930 . S
C1301 C1296 1.390 . S
C1301 C1300 1.387 . S
H1302 C1314 0.930 . S
H1303 C1316 0.930 . S
H1304 C1317 0.930 . S
H1305 C1321 0.959 . S
H1306 C1321 0.959 . S
H1307 C1321 0.961 . S
H1308 C1322 0.960 . S
H1309 C1322 0.961 . S
H1310 C1322 0.959 . S
H1311 C1325 0.929 . S
H1312 C1326 0.931 . S
H1313 C1328 0.930 . S
C1314 H1302 0.930 . S
C1314 C1315 1.399 . S
C1314 C1319 1.399 . S
C1315 C1314 1.399 . S
C1315 C1316 1.376 . S
C1316 H1303 0.930 . S
C1316 C1315 1.376 . S
C1316 C1317 1.388 . S
C1317 H1304 0.930 . S
C1317 C1316 1.388 . S
C1317 C1318 1.390 . S
C1318 C1317 1.390 . S
C1318 C1319 1.394 . S
C1318 C1324 1.465 . S
C1319 C1314 1.399 . S
C1319 C1318 1.394 . S
C1319 C1320 1.516 . S
C1320 C1319 1.516 . S
C1320 C1321 1.502 . S
C1320 C1322 1.561 . S
C1320 C1323 1.526 . S
C1321 H1305 0.959 . S
C1321 H1306 0.959 . S
C1321 H1307 0.961 . S
C1321 C1320 1.502 . S
C1322 H1308 0.960 . S
C1322 H1309 0.961 . S
C1322 H1310 0.959 . S
C1322 C1320 1.561 . S
C1323 C1320 1.526 . S
C1323 C1324 1.396 . S
C1323 C1328 1.390 . S
C1324 C1318 1.465 . S
C1324 C1323 1.396 . S
C1324 C1325 1.399 . S
C1325 H1311 0.929 . S
C1325 C1324 1.399 . S
C1325 C1326 1.385 . S
C1326 H1312 0.931 . S
C1326 C1325 1.385 . S
C1326 C1327 1.389 . S
C1327 C1326 1.389 . S
C1327 C1328 1.387 . S
C1328 H1313 0.930 . S
C1328 C1323 1.390 . S
C1328 C1327 1.387 . S
H1329 C1341 0.930 1_556 S
H1330 C1343 0.930 . S
H1331 C1344 0.930 . S
H1332 C1348 0.959 . S
H1333 C1348 0.959 . S
H1334 C1348 0.961 . S
H1335 C1349 0.960 . S
H1336 C1349 0.961 . S
H1337 C1349 0.959 . S
H1338 C1352 0.929 . S
H1339 C1353 0.931 . S
H1340 C1355 0.930 . S
C1341 H1329 0.930 1_554 S
C1341 C1342 1.399 . S
C1341 C1346 1.399 . S
C1342 C1341 1.399 . S
C1342 C1343 1.376 . S
C1343 H1330 0.930 . S
C1343 C1342 1.376 . S
C1343 C1344 1.388 . S
C1344 H1331 0.930 . S
C1344 C1343 1.388 . S
C1344 C1345 1.390 . S
C1345 C1344 1.390 . S
C1345 C1346 1.394 . S
C1345 C1351 1.465 . S
C1346 C1341 1.399 . S
C1346 C1345 1.394 . S
C1346 C1347 1.516 1_554 S
C1347 C1346 1.516 1_556 S
C1347 C1348 1.502 . S
C1347 C1349 1.561 1_556 S
C1347 C1350 1.526 . S
C1348 H1332 0.959 . S
C1348 H1333 0.959 . S
C1348 H1334 0.961 . S
C1348 C1347 1.502 . S
C1349 H1335 0.960 . S
C1349 H1336 0.961 . S
C1349 H1337 0.959 . S
C1349 C1347 1.561 1_554 S
C1350 C1347 1.526 . S
C1350 C1351 1.396 1_556 S
C1350 C1355 1.390 . S
C1351 C1345 1.465 . S
C1351 C1350 1.396 1_554 S
C1351 C1352 1.399 . S
C1352 H1338 0.929 . S
C1352 C1351 1.399 . S
C1352 C1353 1.385 . S
C1353 H1339 0.931 . S
C1353 C1352 1.385 . S
C1353 C1354 1.389 1_554 S
C1354 C1353 1.389 1_556 S
C1354 C1355 1.387 . S
C1355 H1340 0.930 . S
C1355 C1350 1.390 . S
C1355 C1354 1.387 . S
C721 C33 1.567 . S
C733 C564 1.548 . S
C748 C92 1.595 . S
C760 C623 1.521 . S
C775 C151 1.570 . S
C787 C682 1.544 . S
C802 C210 1.570 . S
C814 C387 1.545 . S
C829 C446 1.522 . S
C841 C269 1.592 . S
C856 C505 1.530 . S
C868 C328 1.587 . S
C883 C595 2.063 . S
C895 C5 2.054 . S
C910 C64 2.035 . S
C922 C654 2.047 . S
C937 C123 2.048 . S
C949 C359 2.037 . S
C964 C182 2.042 . S
C976 C418 2.034 . S
C991 C241 2.058 . S
C1003 C477 2.063 . S
C1018 C300 2.062 . S
C1030 C536 2.062 . S
C1045 C593 0.864 . S
C1057 C3 0.830 . S
C1072 C62 0.793 . S
C1084 C652 0.849 . S
C1099 C121 0.840 . S
C1111 C357 0.856 . S
C1126 C180 0.799 . S
C1138 C416 0.838 . S
C1153 C239 0.830 . S
C1165 C475 0.864 . S
C1180 C298 0.816 . S
C1192 C534 0.818 . S
C1207 C52 1.756 . S
C1219 C406 1.736 . S
C1234 C465 1.758 . S
C1246 C111 1.736 . S
C1261 C170 1.735 . S
C1273 C524 1.754 . S
C1288 C229 1.752 . S
C1300 C583 1.772 . S
C1315 C288 1.757 . S
C1327 C642 1.736 . S
C1342 C701 1.736 . S
C1354 C347 1.748 . S
