# Generated by pormake.
# Topology umg, (4)-cn, num edge types: 1
# Building blocks:
#     Node 0, Type 0, BuildingBlock: ICAMEG_clean_sbu_1, # of connection points: 4
#     Node 1, Type 0, BuildingBlock: ICAMEG_clean_sbu_1, # of connection points: 4
#     Node 2, Type 0, BuildingBlock: ICAMEG_clean_sbu_1, # of connection points: 4
#     Node 3, Type 0, BuildingBlock: ICAMEG_clean_sbu_1, # of connection points: 4
#     Node 4, Type 0, BuildingBlock: ICAMEG_clean_sbu_1, # of connection points: 4
#     Node 5, Type 0, BuildingBlock: ICAMEG_clean_sbu_1, # of connection points: 4
#     Node 6, Type 0, BuildingBlock: ICAMEG_clean_sbu_1, # of connection points: 4
#     Node 7, Type 0, BuildingBlock: ICAMEG_clean_sbu_1, # of connection points: 4
#     Node 8, Type 0, BuildingBlock: ICAMEG_clean_sbu_1, # of connection points: 4
#     Node 9, Type 0, BuildingBlock: ICAMEG_clean_sbu_1, # of connection points: 4
#     Node 10, Type 0, BuildingBlock: ICAMEG_clean_sbu_1, # of connection points: 4
#     Node 11, Type 0, BuildingBlock: ICAMEG_clean_sbu_1, # of connection points: 4
#     Edge 12, Type (0, 0), BuildingBlock: EZIPEK_clean_linker_0, # of connection points: 2
#     Edge 13, Type (0, 0), BuildingBlock: EZIPEK_clean_linker_0, # of connection points: 2
#     Edge 14, Type (0, 0), BuildingBlock: EZIPEK_clean_linker_0, # of connection points: 2
#     Edge 15, Type (0, 0), BuildingBlock: EZIPEK_clean_linker_0, # of connection points: 2
#     Edge 16, Type (0, 0), BuildingBlock: EZIPEK_clean_linker_0, # of connection points: 2
#     Edge 17, Type (0, 0), BuildingBlock: EZIPEK_clean_linker_0, # of connection points: 2
#     Edge 18, Type (0, 0), BuildingBlock: EZIPEK_clean_linker_0, # of connection points: 2
#     Edge 19, Type (0, 0), BuildingBlock: EZIPEK_clean_linker_0, # of connection points: 2
#     Edge 20, Type (0, 0), BuildingBlock: EZIPEK_clean_linker_0, # of connection points: 2
#     Edge 21, Type (0, 0), BuildingBlock: EZIPEK_clean_linker_0, # of connection points: 2
#     Edge 22, Type (0, 0), BuildingBlock: EZIPEK_clean_linker_0, # of connection points: 2
#     Edge 23, Type (0, 0), BuildingBlock: EZIPEK_clean_linker_0, # of connection points: 2
#     Edge 24, Type (0, 0), BuildingBlock: EZIPEK_clean_linker_0, # of connection points: 2
#     Edge 25, Type (0, 0), BuildingBlock: EZIPEK_clean_linker_0, # of connection points: 2
#     Edge 26, Type (0, 0), BuildingBlock: EZIPEK_clean_linker_0, # of connection points: 2
#     Edge 27, Type (0, 0), BuildingBlock: EZIPEK_clean_linker_0, # of connection points: 2
#     Edge 28, Type (0, 0), BuildingBlock: EZIPEK_clean_linker_0, # of connection points: 2
#     Edge 29, Type (0, 0), BuildingBlock: EZIPEK_clean_linker_0, # of connection points: 2
#     Edge 30, Type (0, 0), BuildingBlock: EZIPEK_clean_linker_0, # of connection points: 2
#     Edge 31, Type (0, 0), BuildingBlock: EZIPEK_clean_linker_0, # of connection points: 2
#     Edge 32, Type (0, 0), BuildingBlock: EZIPEK_clean_linker_0, # of connection points: 2
#     Edge 33, Type (0, 0), BuildingBlock: EZIPEK_clean_linker_0, # of connection points: 2
#     Edge 34, Type (0, 0), BuildingBlock: EZIPEK_clean_linker_0, # of connection points: 2
#     Edge 35, Type (0, 0), BuildingBlock: EZIPEK_clean_linker_0, # of connection points: 2
# Relax obj value: 0.063
# Max RMSD: 0.146
# Mean RMSD: 0.145
data_MOF--net-umg--node1-ICAMEG_clean_sbu_1--edge1-EZIPEK_clean_linker_0
_symmetry_space_group_name_H-M    P1
_symmetry_Int_Tables_number       1
_symmetry_cell_setting            triclinic
loop_
_symmetry_equiv_pos_as_xyz
'x, y, z'
_cell_length_a     22.659163
_cell_length_b     22.683393
_cell_length_c     68.272306
_cell_angle_alpha  89.94752
_cell_angle_beta   90.053007
_cell_angle_gamma 120.10376
loop_
_atom_site_label
_atom_site_type_symbol
_atom_site_fract_x
_atom_site_fract_y
_atom_site_fract_z
_atom_type_partial_charge
Co0 Co 0.28933 0.65292 0.08315 0.0
Co1 Co 0.24913 0.49405 0.10041 0.0
O2 O 0.30018 0.57259 0.08321 0.0
C3 C 0.2767 0.60859 0.04198 0.0
O4 O 0.24017 0.54638 0.04877 0.0
C5 C 0.39354 0.53641 0.1063 0.0
O6 O 0.40478 0.59898 0.10691 0.0
O7 O 0.27567 0.55451 0.12363 0.0
O8 O 0.28035 0.64982 0.11264 0.0
H9 H 0.08881 0.36472 0.15542 0.0
H10 H 0.40885 0.65799 0.06385 0.0
O11 O 0.29912 0.65875 0.05376 0.0
H12 H 0.50505 0.84062 0.11336 0.0
H13 H 0.34458 0.88706 0.06109 0.0
H14 H 0.19328 0.68845 0.10187 0.0
H15 H 0.38058 0.76953 0.10912 0.0
H16 H 0.35952 0.78662 0.06235 0.0
O17 O 0.33332 0.48653 0.1038 0.0
H18 H 0.15093 0.46179 0.13289 0.0
H19 H 0.24319 0.36052 0.10526 0.0
H20 H 0.17653 0.78778 0.10109 0.0
H21 H 0.53379 0.72874 0.0673 0.0
H22 H 0.25275 0.88819 0.08064 0.0
H23 H 0.58264 0.82063 0.09229 0.0
O24 O 0.18862 0.59427 0.08022 0.0
H25 H 0.29256 0.4072 0.0375 0.0
H26 H 0.11734 0.38111 0.08506 0.0
H27 H 0.08304 0.30815 0.05569 0.0
H28 H 0.17098 0.32089 0.03166 0.0
H29 H 0.32446 0.47994 0.0669 0.0
H30 H 0.18239 0.26246 0.12758 0.0
H31 H 0.10439 0.26413 0.15284 0.0
O32 O 0.16393 0.49994 0.09744 0.0
C33 C 0.28222 0.61303 0.12658 0.0
C34 C 0.12243 0.36326 0.14442 0.0
C35 C 0.17503 0.30591 0.12881 0.0
N36 N 0.20003 0.41645 0.11765 0.0
C37 C 0.15755 0.41796 0.13158 0.0
C38 C 0.20935 0.36157 0.11623 0.0
C39 C 0.13126 0.30687 0.14298 0.0
C40 C 0.4298 0.6986 0.07452 0.0
N41 N 0.38745 0.71009 0.08607 0.0
C42 C 0.50055 0.7382 0.07651 0.0
C43 C 0.52791 0.78964 0.09055 0.0
C44 C 0.48441 0.80084 0.10239 0.0
C45 C 0.41392 0.76027 0.09995 0.0
C46 C 0.31133 0.84382 0.07016 0.0
C47 C 0.22682 0.73206 0.09302 0.0
C48 C 0.3196 0.78684 0.07095 0.0
N49 N 0.27818 0.7323 0.08251 0.0
C50 C 0.21702 0.78812 0.0926 0.0
C51 C 0.25976 0.8444 0.08112 0.0
C52 C 0.14641 0.53773 0.08819 0.0
C53 C 0.25379 0.40102 0.04788 0.0
C54 C 0.1559 0.38721 0.07464 0.0
C55 C 0.13618 0.34557 0.05806 0.0
C56 C 0.18555 0.3527 0.0446 0.0
N57 N 0.2229 0.43474 0.07771 0.0
C58 C 0.27163 0.44178 0.06463 0.0
Co59 Co 0.64517 0.28464 0.41892 0.0
Co60 Co 0.75897 0.23935 0.43809 0.0
O61 O 0.73567 0.29338 0.42065 0.0
C62 C 0.70191 0.30381 0.3778 0.0
O63 O 0.76052 0.31651 0.3851 0.0
C64 C 0.87044 0.38355 0.44303 0.0
O65 O 0.82382 0.40129 0.44127 0.0
O66 O 0.72332 0.26718 0.46078 0.0
O67 O 0.63529 0.27534 0.44829 0.0
H68 H 0.72357 0.085 0.49538 0.0
H69 H 0.76648 0.41103 0.4016 0.0
O70 O 0.65202 0.2922 0.38909 0.0
H71 H 0.66344 0.49497 0.4493 0.0
H72 H 0.4701 0.34066 0.39355 0.0
H73 H 0.51151 0.1924 0.43739 0.0
H74 H 0.61384 0.37198 0.44389 0.0
H75 H 0.58486 0.3544 0.39632 0.0
O76 O 0.85275 0.32067 0.4426 0.0
H77 H 0.69471 0.15231 0.47317 0.0
H78 H 0.8796 0.22016 0.44203 0.0
H79 H 0.39607 0.17726 0.43531 0.0
H80 H 0.81632 0.53372 0.40619 0.0
H81 H 0.37475 0.25173 0.41323 0.0
H82 H 0.76526 0.57705 0.4303 0.0
O83 O 0.60154 0.18395 0.41614 0.0
H84 H 0.89738 0.28085 0.37675 0.0
H85 H 0.7358 0.10614 0.42248 0.0
H86 H 0.77617 0.07101 0.39371 0.0
H87 H 0.85787 0.15868 0.37063 0.0
H88 H 0.85439 0.31357 0.40546 0.0
H89 H 0.91138 0.1547 0.46413 0.0
H90 H 0.83273 0.08577 0.49092 0.0
O91 O 0.66683 0.15564 0.43401 0.0
C92 C 0.6709 0.27388 0.46266 0.0
C93 C 0.75778 0.1139 0.48356 0.0
C94 C 0.86321 0.15314 0.46606 0.0
N95 N 0.78366 0.18768 0.4557 0.0
C96 C 0.74114 0.15142 0.47075 0.0
C97 C 0.84478 0.18997 0.45354 0.0
C98 C 0.81911 0.11454 0.4811 0.0
C99 C 0.74235 0.42829 0.4117 0.0
N100 N 0.68605 0.38317 0.42208 0.0
C101 C 0.77155 0.4985 0.41443 0.0
C102 C 0.74305 0.5228 0.428 0.0
C103 C 0.686 0.4768 0.43866 0.0
C104 C 0.6582 0.407 0.43552 0.0
C105 C 0.47873 0.30793 0.40323 0.0
C106 C 0.50277 0.22531 0.42789 0.0
C107 C 0.54358 0.31532 0.40479 0.0
N108 N 0.55502 0.27454 0.41709 0.0
C109 C 0.43723 0.21635 0.42671 0.0
C110 C 0.42528 0.25807 0.41429 0.0
C111 C 0.61269 0.13971 0.4242 0.0
C112 C 0.86193 0.24215 0.38671 0.0
C113 C 0.77067 0.14466 0.4124 0.0
C114 C 0.79371 0.12441 0.39619 0.0
C115 C 0.83966 0.17361 0.38328 0.0
N116 N 0.79266 0.21206 0.41568 0.0
C117 C 0.83757 0.26042 0.40304 0.0
Co118 Co 0.37214 0.65051 0.74938 0.0
Co119 Co 0.5334 0.76283 0.76715 0.0
O120 O 0.45552 0.73938 0.75002 0.0
C121 C 0.42122 0.684 0.70852 0.0
O122 O 0.48275 0.70477 0.71526 0.0
C123 C 0.49368 0.86657 0.77357 0.0
O124 O 0.43059 0.81577 0.77334 0.0
O125 O 0.47275 0.72663 0.79031 0.0
O126 O 0.37228 0.64266 0.77898 0.0
H127 H 0.66097 0.72242 0.82084 0.0
H128 H 0.36869 0.76417 0.72853 0.0
O129 O 0.36997 0.65801 0.72001 0.0
H130 H 0.19332 0.69118 0.77994 0.0
H131 H 0.13405 0.48513 0.72627 0.0
H132 H 0.32918 0.51262 0.76528 0.0
H133 H 0.25979 0.63319 0.77591 0.0
H134 H 0.23934 0.59689 0.72851 0.0
O135 O 0.54318 0.85534 0.77159 0.0
H136 H 0.5638 0.69182 0.79869 0.0
H137 H 0.66854 0.8882 0.77265 0.0
H138 H 0.22467 0.40023 0.76376 0.0
H139 H 0.30228 0.82252 0.73173 0.0
H140 H 0.12593 0.3859 0.74414 0.0
H141 H 0.21422 0.78651 0.75772 0.0
O142 O 0.42658 0.60377 0.74679 0.0
H143 H 0.62697 0.90344 0.70604 0.0
H144 H 0.64223 0.74029 0.75055 0.0
H145 H 0.71597 0.7813 0.72135 0.0
H146 H 0.70863 0.86349 0.69884 0.0
H147 H 0.55363 0.86046 0.73526 0.0
H148 H 0.76674 0.92125 0.79464 0.0
H149 H 0.76341 0.83794 0.8189 0.0
O150 O 0.52418 0.67079 0.76318 0.0
C151 C 0.4121 0.6776 0.79308 0.0
C152 C 0.66317 0.75907 0.81027 0.0
C153 C 0.72249 0.87069 0.79558 0.0
N154 N 0.61081 0.78786 0.78424 0.0
C155 C 0.60838 0.74191 0.79763 0.0
C156 C 0.66672 0.85172 0.78318 0.0
C157 C 0.72059 0.82392 0.80919 0.0
C158 C 0.33012 0.74768 0.73972 0.0
N159 N 0.31878 0.69563 0.75207 0.0
C160 C 0.29278 0.78113 0.74153 0.0
C161 C 0.24345 0.76097 0.75613 0.0
C162 C 0.23181 0.7076 0.76862 0.0
C163 C 0.27005 0.67527 0.76635 0.0
C164 C 0.17629 0.49094 0.73512 0.0
C165 C 0.28588 0.50741 0.75726 0.0
C166 C 0.23597 0.55422 0.73653 0.0
N167 N 0.2893 0.5622 0.74786 0.0
C168 C 0.22706 0.44334 0.7562 0.0
C169 C 0.17179 0.43528 0.74513 0.0
C170 C 0.48288 0.6154 0.75441 0.0
C171 C 0.63068 0.86765 0.71573 0.0
C172 C 0.63829 0.77562 0.74076 0.0
C173 C 0.68045 0.79893 0.72429 0.0
C174 C 0.67639 0.84513 0.71169 0.0
N175 N 0.5932 0.79756 0.74455 0.0
C176 C 0.5894 0.8433 0.73235 0.0
Co177 Co 0.71464 0.35962 0.08301 0.0
Co178 Co 0.76428 0.51714 0.10339 0.0
O179 O 0.71022 0.44334 0.08499 0.0
C180 C 0.72902 0.4111 0.04221 0.0
O181 O 0.77152 0.47235 0.04879 0.0
C182 C 0.62185 0.48961 0.10769 0.0
O183 O 0.60178 0.42459 0.10627 0.0
O184 O 0.73163 0.4506 0.12559 0.0
O185 O 0.72422 0.35615 0.11223 0.0
H186 H 0.91552 0.62603 0.16201 0.0
H187 H 0.59829 0.36326 0.06405 0.0
O188 O 0.70349 0.36011 0.05376 0.0
H189 H 0.49435 0.17901 0.11297 0.0
H190 H 0.63962 0.12543 0.05646 0.0
H191 H 0.80552 0.31096 0.09858 0.0
H192 H 0.619 0.24363 0.10844 0.0
H193 H 0.63487 0.23097 0.06041 0.0
O194 O 0.68529 0.53335 0.10733 0.0
H195 H 0.84861 0.53347 0.13867 0.0
H196 H 0.787 0.65752 0.1087 0.0
H197 H 0.81177 0.20616 0.0953 0.0
H198 H 0.47332 0.299 0.0678 0.0
H199 H 0.72827 0.11227 0.07409 0.0
H200 H 0.42052 0.20636 0.09251 0.0
O201 O 0.8164 0.41372 0.08049 0.0
H202 H 0.73632 0.61812 0.04094 0.0
H203 H 0.9009 0.62826 0.09005 0.0
H204 H 0.94237 0.70612 0.0617 0.0
H205 H 0.85979 0.70156 0.03693 0.0
H206 H 0.69737 0.54058 0.06939 0.0
H207 H 0.85229 0.75134 0.13191 0.0
H208 H 0.91779 0.7362 0.15871 0.0
O209 O 0.84554 0.50474 0.09979 0.0
C210 C 0.72526 0.3914 0.12699 0.0
C211 C 0.88808 0.63368 0.15022 0.0
C212 C 0.85246 0.70391 0.13336 0.0
N213 N 0.81621 0.59073 0.1218 0.0
C214 C 0.85075 0.58155 0.13679 0.0
C215 C 0.8157 0.65059 0.12022 0.0
C216 C 0.88915 0.69538 0.1484 0.0
C217 C 0.57576 0.32243 0.0746 0.0
N218 N 0.61609 0.30728 0.08595 0.0
C219 C 0.50492 0.28645 0.07676 0.0
C220 C 0.47534 0.23459 0.09066 0.0
C221 C 0.51673 0.21928 0.10215 0.0
C222 C 0.58738 0.25632 0.09958 0.0
C223 C 0.67586 0.16566 0.06591 0.0
C224 C 0.76819 0.26997 0.08972 0.0
C225 C 0.67334 0.22553 0.06825 0.0
N226 N 0.71857 0.2764 0.08028 0.0
C227 C 0.77234 0.21088 0.08773 0.0
C228 C 0.72561 0.15832 0.07579 0.0
C229 C 0.86085 0.46673 0.0897 0.0
C230 C 0.77279 0.62103 0.05171 0.0
C231 C 0.86462 0.62593 0.07934 0.0
C232 C 0.88841 0.67023 0.06333 0.0
C233 C 0.84206 0.66768 0.04944 0.0
N234 N 0.7965 0.58062 0.08154 0.0
C235 C 0.75092 0.57757 0.06791 0.0
Co236 Co 0.36024 0.70826 0.41665 0.0
Co237 Co 0.24423 0.75914 0.4297 0.0
O238 O 0.27103 0.70151 0.41554 0.0
C239 C 0.33638 0.72961 0.37545 0.0
O240 O 0.32267 0.77543 0.38219 0.0
C241 C 0.14329 0.61724 0.44011 0.0
O242 O 0.19526 0.60768 0.44255 0.0
O243 O 0.28026 0.74352 0.45464 0.0
O244 O 0.36138 0.71729 0.44626 0.0
H245 H 0.27462 0.95572 0.47185 0.0
H246 H 0.24594 0.58844 0.39665 0.0
O247 O 0.35572 0.69839 0.3871 0.0
H248 H 0.32898 0.49194 0.4468 0.0
H249 H 0.53568 0.65056 0.39312 0.0
H250 H 0.48741 0.7843 0.44052 0.0
H251 H 0.38244 0.61625 0.44273 0.0
H252 H 0.42345 0.6431 0.39356 0.0
O253 O 0.15289 0.67545 0.43497 0.0
H254 H 0.31323 0.8884 0.45362 0.0
H255 H 0.1109 0.75374 0.43436 0.0
H256 H 0.60006 0.79317 0.4407 0.0
H257 H 0.19065 0.4638 0.4 0.0
H258 H 0.62499 0.72596 0.41683 0.0
H259 H 0.23202 0.41463 0.42539 0.0
O260 O 0.40876 0.80975 0.41409 0.0
H261 H 0.1115 0.68855 0.36669 0.0
H262 H 0.26238 0.88276 0.40894 0.0
H263 H 0.22316 0.90406 0.37742 0.0
H264 H 0.14736 0.80654 0.356 0.0
H265 H 0.15222 0.66973 0.39828 0.0
H266 H 0.07014 0.82012 0.45236 0.0
H267 H 0.15204 0.92183 0.47141 0.0
O268 O 0.33583 0.84279 0.42481 0.0
C269 C 0.32678 0.72931 0.459 0.0
C270 C 0.23815 0.91074 0.46392 0.0
C271 C 0.1235 0.83472 0.45297 0.0
N272 N 0.21424 0.81451 0.44369 0.0
C273 C 0.25974 0.87157 0.45372 0.0
C274 C 0.14695 0.79676 0.44297 0.0
C275 C 0.16946 0.89184 0.46362 0.0
C276 C 0.26387 0.5676 0.40763 0.0
N277 N 0.31639 0.60984 0.4196 0.0
C278 C 0.23257 0.49687 0.40951 0.0
C279 C 0.25582 0.46932 0.42373 0.0
C280 C 0.31016 0.51263 0.43574 0.0
C281 C 0.34015 0.58307 0.43338 0.0
C282 C 0.52562 0.68047 0.40351 0.0
C283 C 0.49772 0.75542 0.43002 0.0
C284 C 0.46225 0.67686 0.40374 0.0
N285 N 0.44894 0.71423 0.41687 0.0
C286 C 0.56171 0.76041 0.43022 0.0
C287 C 0.57567 0.72269 0.41683 0.0
C288 C 0.39437 0.85567 0.41863 0.0
C289 C 0.1445 0.73148 0.37588 0.0
C290 C 0.22942 0.84003 0.39971 0.0
C291 C 0.20727 0.85242 0.38189 0.0
C292 C 0.1647 0.79769 0.36989 0.0
N293 N 0.20994 0.77498 0.4054 0.0
C294 C 0.16758 0.72107 0.39382 0.0
Co295 Co 0.65355 0.35989 0.75024 0.0
Co296 Co 0.49938 0.24983 0.772 0.0
O297 O 0.57242 0.27024 0.75337 0.0
C298 C 0.59493 0.31788 0.71075 0.0
O299 O 0.53601 0.30047 0.71878 0.0
C300 C 0.53277 0.13895 0.77669 0.0
O301 O 0.59714 0.18581 0.77485 0.0
O302 O 0.56764 0.28832 0.79366 0.0
O303 O 0.65948 0.37657 0.77944 0.0
H304 H 0.39038 0.29566 0.82974 0.0
H305 H 0.65415 0.2405 0.73251 0.0
O306 O 0.64911 0.34414 0.72107 0.0
H307 H 0.84366 0.33518 0.77989 0.0
H308 H 0.88293 0.5229 0.72123 0.0
H309 H 0.69782 0.5005 0.76397 0.0
H310 H 0.77392 0.38939 0.77499 0.0
H311 H 0.78044 0.4107 0.72667 0.0
O312 O 0.48724 0.15624 0.77657 0.0
H313 H 0.48146 0.32209 0.80575 0.0
H314 H 0.36264 0.12805 0.77934 0.0
H315 H 0.79958 0.61351 0.7592 0.0
H316 H 0.72341 0.18539 0.73658 0.0
H317 H 0.89325 0.62528 0.73769 0.0
H318 H 0.81878 0.23253 0.76055 0.0
O319 O 0.59597 0.40338 0.7474 0.0
H320 H 0.39778 0.1144 0.71051 0.0
H321 H 0.38275 0.26686 0.75917 0.0
H322 H 0.30211 0.22457 0.73144 0.0
H323 H 0.30908 0.14746 0.70692 0.0
H324 H 0.47806 0.15884 0.73828 0.0
H325 H 0.27039 0.09886 0.80322 0.0
H326 H 0.28371 0.18322 0.82856 0.0
O327 O 0.50789 0.34184 0.76772 0.0
C328 C 0.62594 0.34283 0.79456 0.0
C329 C 0.38363 0.25872 0.81864 0.0
C330 C 0.31638 0.14825 0.80379 0.0
N331 N 0.42682 0.22762 0.7908 0.0
C332 C 0.43493 0.27375 0.8049 0.0
C333 C 0.36882 0.1651 0.7903 0.0
C334 C 0.32388 0.19558 0.818 0.0
C335 C 0.69608 0.26189 0.74268 0.0
N336 N 0.70982 0.31813 0.75341 0.0
C337 C 0.73493 0.23023 0.74505 0.0
C338 C 0.78832 0.2566 0.75853 0.0
C339 C 0.80223 0.31412 0.7694 0.0
C340 C 0.76228 0.3444 0.76663 0.0
C341 C 0.84286 0.51834 0.73083 0.0
C342 C 0.73891 0.50485 0.75503 0.0
C343 C 0.78477 0.45489 0.73402 0.0
N344 N 0.7342 0.44857 0.74627 0.0
C345 C 0.79618 0.56916 0.75218 0.0
C346 C 0.8486 0.57576 0.74006 0.0
C347 C 0.54355 0.39421 0.75696 0.0
C348 C 0.39372 0.14738 0.7212 0.0
C349 C 0.38601 0.23318 0.74859 0.0
C350 C 0.3402 0.2094 0.73292 0.0
C351 C 0.34412 0.16612 0.71917 0.0
N352 N 0.43409 0.21402 0.75061 0.0
C353 C 0.43864 0.17218 0.73706 0.0
Co354 Co 0.36124 0.72459 0.58515 0.0
Co355 Co 0.52043 0.77557 0.5657 0.0
O356 O 0.44644 0.7226 0.58416 0.0
C357 C 0.40963 0.73847 0.62639 0.0
O358 O 0.47176 0.77585 0.6196 0.0
C359 C 0.48959 0.63336 0.56198 0.0
O360 O 0.42519 0.61616 0.56204 0.0
O361 O 0.45532 0.74052 0.54327 0.0
O362 O 0.35916 0.73159 0.55569 0.0
H363 H 0.63118 0.92679 0.50732 0.0
H364 H 0.37031 0.61222 0.60444 0.0
O365 O 0.35923 0.71617 0.61465 0.0
H366 H 0.18424 0.50029 0.55626 0.0
H367 H 0.12278 0.64566 0.60907 0.0
H368 H 0.31264 0.81432 0.56869 0.0
H369 H 0.24571 0.62519 0.56013 0.0
H370 H 0.22992 0.64304 0.60658 0.0
O371 O 0.53605 0.69582 0.56312 0.0
H372 H 0.5383 0.86137 0.53083 0.0
H373 H 0.65981 0.79555 0.56038 0.0
H374 H 0.20629 0.8184 0.57049 0.0
H375 H 0.30945 0.48708 0.60132 0.0
H376 H 0.11016 0.73346 0.59081 0.0
H377 H 0.21575 0.43028 0.57702 0.0
O378 O 0.41419 0.82613 0.58726 0.0
H379 H 0.62977 0.75588 0.62769 0.0
H380 H 0.62702 0.91434 0.57871 0.0
H381 H 0.70567 0.95996 0.60679 0.0
H382 H 0.70754 0.88052 0.63152 0.0
H383 H 0.55097 0.71273 0.5996 0.0
H384 H 0.75392 0.85947 0.53706 0.0
H385 H 0.74011 0.92617 0.51038 0.0
O386 O 0.50624 0.85645 0.5681 0.0
C387 C 0.39566 0.73238 0.54127 0.0
C388 C 0.6381 0.8985 0.519 0.0
C389 C 0.70692 0.86061 0.53567 0.0
N390 N 0.59416 0.82622 0.54728 0.0
C391 C 0.5858 0.86183 0.53245 0.0
C392 C 0.65346 0.82456 0.54884 0.0
C393 C 0.69914 0.898 0.5207 0.0
C394 C 0.32878 0.58778 0.59411 0.0
N395 N 0.31094 0.62595 0.58273 0.0
C396 C 0.29483 0.51693 0.59229 0.0
C397 C 0.24242 0.48514 0.57862 0.0
C398 C 0.22475 0.52439 0.56696 0.0
C399 C 0.25986 0.59513 0.5692 0.0
C400 C 0.16395 0.68243 0.59997 0.0
C401 C 0.2707 0.77623 0.57711 0.0
C402 C 0.22474 0.6811 0.59845 0.0
N403 N 0.27678 0.72691 0.58683 0.0
C404 C 0.21072 0.77923 0.57829 0.0
C405 C 0.15691 0.73171 0.58973 0.0
C406 C 0.46678 0.87062 0.57793 0.0
C407 C 0.62953 0.79103 0.617 0.0
C408 C 0.62697 0.87937 0.58948 0.0
C409 C 0.67194 0.90555 0.60531 0.0
C410 C 0.67305 0.86096 0.61916 0.0
N411 N 0.58405 0.8107 0.58752 0.0
C412 C 0.58523 0.76674 0.60098 0.0
Co413 Co 0.64644 0.35805 0.91829 0.0
Co414 Co 0.7685 0.52437 0.90664 0.0
O415 O 0.73554 0.43973 0.92113 0.0
C416 C 0.66318 0.39692 0.96015 0.0
O417 O 0.68837 0.45955 0.95383 0.0
C418 C 0.86774 0.47846 0.89857 0.0
O419 O 0.81501 0.41876 0.89459 0.0
O420 O 0.73729 0.47385 0.88132 0.0
O421 O 0.65332 0.36709 0.88877 0.0
H422 H 0.75529 0.69411 0.86154 0.0
H423 H 0.7608 0.36047 0.94029 0.0
O424 O 0.63988 0.3482 0.94781 0.0
H425 H 0.68818 0.1743 0.89234 0.0
H426 H 0.46255 0.12119 0.93685 0.0
H427 H 0.52638 0.31487 0.89227 0.0
H428 H 0.62999 0.24139 0.894 0.0
H429 H 0.57555 0.22482 0.93934 0.0
O430 O 0.85936 0.52794 0.90375 0.0
H431 H 0.70923 0.58746 0.88007 0.0
H432 H 0.90501 0.64962 0.90382 0.0
H433 H 0.41308 0.21214 0.88913 0.0
H434 H 0.82075 0.29513 0.93902 0.0
H435 H 0.38045 0.11424 0.91155 0.0
H436 H 0.78447 0.20116 0.91492 0.0
O437 O 0.59947 0.41275 0.91917 0.0
H438 H 0.88205 0.58144 0.97279 0.0
H439 H 0.75297 0.63502 0.92481 0.0
H440 H 0.78687 0.6968 0.95621 0.0
H441 H 0.85191 0.67014 0.98049 0.0
H442 H 0.84604 0.52045 0.94129 0.0
H443 H 0.95326 0.75744 0.88558 0.0
H444 H 0.87839 0.78034 0.86415 0.0
O445 O 0.67717 0.51927 0.9095 0.0
C446 C 0.69102 0.41365 0.87644 0.0
C447 C 0.78873 0.68428 0.87056 0.0
C448 C 0.89975 0.7198 0.88405 0.0
N449 N 0.80457 0.61005 0.89236 0.0
C450 C 0.76291 0.6232 0.88095 0.0
C451 C 0.87212 0.65809 0.8942 0.0
C452 C 0.85772 0.7327 0.87207 0.0
C453 C 0.74449 0.31952 0.92981 0.0
N454 N 0.69151 0.30443 0.91735 0.0
C455 C 0.77871 0.28272 0.92915 0.0
C456 C 0.75834 0.23004 0.91562 0.0
C457 C 0.70427 0.21488 0.90297 0.0
C458 C 0.67132 0.25287 0.90404 0.0
C459 C 0.47608 0.16356 0.92702 0.0
C460 C 0.51267 0.27271 0.90206 0.0
C461 C 0.53991 0.22259 0.92843 0.0
N462 N 0.55759 0.27619 0.91599 0.0
C463 C 0.44837 0.21455 0.90023 0.0
C464 C 0.43008 0.15966 0.91281 0.0
C465 C 0.61675 0.47406 0.9147 0.0
C466 C 0.85408 0.59384 0.9623 0.0
C467 C 0.78146 0.62324 0.93524 0.0
C468 C 0.80052 0.65843 0.95302 0.0
C469 C 0.83703 0.64347 0.96662 0.0
N470 N 0.79818 0.57444 0.93112 0.0
C471 C 0.83415 0.55977 0.94436 0.0
Co472 Co 0.28231 0.63367 0.25247 0.0
Co473 Co 0.23515 0.74731 0.23617 0.0
O474 O 0.29049 0.72327 0.25216 0.0
C475 C 0.274 0.66968 0.29329 0.0
O476 O 0.22906 0.68537 0.28693 0.0
C477 C 0.37863 0.84928 0.22598 0.0
O478 O 0.38726 0.79783 0.22156 0.0
O479 O 0.25624 0.71105 0.21247 0.0
O480 O 0.26446 0.62213 0.22321 0.0
H481 H 0.02189 0.74431 0.212 0.0
H482 H 0.40568 0.7531 0.26902 0.0
O483 O 0.30014 0.64513 0.28161 0.0
H484 H 0.4914 0.66337 0.21762 0.0
H485 H 0.34932 0.46404 0.27497 0.0
H486 H 0.18661 0.49824 0.23546 0.0
H487 H 0.36864 0.60664 0.22516 0.0
H488 H 0.35968 0.57748 0.2728 0.0
O489 O 0.32033 0.83896 0.23162 0.0
H490 H 0.08635 0.71153 0.23364 0.0
H491 H 0.26697 0.83413 0.20091 0.0
H492 H 0.17442 0.38401 0.23716 0.0
H493 H 0.52894 0.81147 0.26223 0.0
H494 H 0.25633 0.36642 0.25698 0.0
H495 H 0.57265 0.76669 0.23625 0.0
O496 O 0.18207 0.58847 0.25712 0.0
H497 H 0.28851 0.91354 0.29218 0.0
H498 H 0.11133 0.69842 0.26347 0.0
H499 H 0.08655 0.74066 0.29301 0.0
H500 H 0.17492 0.84892 0.30792 0.0
H501 H 0.3124 0.87114 0.26251 0.0
H502 H 0.20385 0.8683 0.17893 0.0
H503 H 0.08022 0.8235 0.18434 0.0
O504 O 0.15172 0.65381 0.23992 0.0
C505 C 0.25799 0.65652 0.20931 0.0
C506 C 0.07609 0.76543 0.20975 0.0
C507 C 0.1781 0.835 0.19121 0.0
N508 N 0.18217 0.77402 0.21958 0.0
C509 C 0.11358 0.7477 0.22224 0.0
C510 C 0.21395 0.81618 0.204 0.0
C511 C 0.10875 0.80967 0.1942 0.0
C512 C 0.4242 0.7332 0.25785 0.0
N513 N 0.37973 0.67682 0.24744 0.0
C514 C 0.49414 0.7665 0.254 0.0
C515 C 0.51859 0.74143 0.23941 0.0
C516 C 0.47304 0.68355 0.22894 0.0
C517 C 0.40344 0.65179 0.23318 0.0
C518 C 0.31355 0.47113 0.2662 0.0
C519 C 0.22265 0.49103 0.24402 0.0
C520 C 0.31919 0.53522 0.26491 0.0
N521 N 0.27454 0.54465 0.25373 0.0
C522 C 0.21541 0.42622 0.24497 0.0
C523 C 0.26134 0.41637 0.25611 0.0
C524 C 0.13706 0.5987 0.24912 0.0
C525 C 0.24911 0.86669 0.28567 0.0
C526 C 0.15077 0.74654 0.26893 0.0
C527 C 0.13603 0.76993 0.28613 0.0
C528 C 0.18555 0.83047 0.29452 0.0
N529 N 0.21319 0.7826 0.2599 0.0
C530 C 0.26209 0.84196 0.26845 0.0
Co531 Co 0.63867 0.28498 0.58716 0.0
Co532 Co 0.48669 0.26178 0.56897 0.0
O533 O 0.56495 0.30575 0.58649 0.0
C534 C 0.58787 0.27012 0.62753 0.0
O535 O 0.52657 0.23496 0.62003 0.0
C536 C 0.54191 0.4093 0.56278 0.0
O537 O 0.60207 0.41521 0.56057 0.0
O538 O 0.54854 0.28465 0.54611 0.0
O539 O 0.63786 0.27717 0.55771 0.0
H540 H 0.35436 0.12402 0.51047 0.0
H541 H 0.65611 0.41008 0.60643 0.0
O542 O 0.64045 0.29351 0.61658 0.0
H543 H 0.84477 0.49015 0.55907 0.0
H544 H 0.85827 0.3094 0.61276 0.0
H545 H 0.66642 0.18597 0.5669 0.0
H546 H 0.76233 0.36749 0.56272 0.0
H547 H 0.76637 0.33746 0.61059 0.0
O548 O 0.48945 0.35144 0.56622 0.0
H549 H 0.45094 0.17428 0.53356 0.0
H550 H 0.35807 0.26655 0.56547 0.0
H551 H 0.7574 0.15653 0.56849 0.0
H552 H 0.73721 0.53318 0.60334 0.0
H553 H 0.85421 0.2185 0.59156 0.0
H554 H 0.83246 0.574 0.57946 0.0
O555 O 0.57205 0.18564 0.58932 0.0
H556 H 0.40432 0.31074 0.63193 0.0
H557 H 0.36529 0.13422 0.58328 0.0
H558 H 0.29064 0.10328 0.61224 0.0
H559 H 0.30985 0.19188 0.63682 0.0
H560 H 0.47815 0.33898 0.6029 0.0
H561 H 0.26029 0.21744 0.54273 0.0
H562 H 0.25781 0.14523 0.51504 0.0
O563 O 0.48239 0.17068 0.57151 0.0
C564 C 0.60356 0.28313 0.54372 0.0
C565 C 0.35441 0.15474 0.5226 0.0
C566 C 0.30166 0.20717 0.5407 0.0
N567 N 0.40921 0.22135 0.55124 0.0
C568 C 0.40889 0.18305 0.53578 0.0
C569 C 0.35705 0.2346 0.55359 0.0
C570 C 0.30034 0.16675 0.52516 0.0
C571 C 0.69751 0.42736 0.59615 0.0
N572 N 0.7044 0.38158 0.58485 0.0
C573 C 0.74328 0.49718 0.5944 0.0
C574 C 0.79664 0.52004 0.58099 0.0
C575 C 0.80358 0.47303 0.56955 0.0
C576 C 0.75671 0.40361 0.57169 0.0
C577 C 0.81644 0.28216 0.60262 0.0
C578 C 0.70866 0.21348 0.57686 0.0
C579 C 0.76423 0.29774 0.60136 0.0
N580 N 0.71151 0.26382 0.5885 0.0
C581 C 0.75989 0.19644 0.57775 0.0
C582 C 0.81415 0.23117 0.59071 0.0
C583 C 0.51493 0.14707 0.58098 0.0
C584 C 0.39527 0.27168 0.62131 0.0
C585 C 0.37436 0.17301 0.59397 0.0
C586 C 0.33167 0.15522 0.6103 0.0
C587 C 0.34241 0.20497 0.62406 0.0
N588 N 0.42631 0.23853 0.5914 0.0
C589 C 0.4368 0.28757 0.60478 0.0
Co590 Co 0.35755 0.6462 0.91919 0.0
Co591 Co 0.24906 0.48476 0.9013 0.0
O592 O 0.27027 0.56121 0.9186 0.0
C593 C 0.32687 0.59529 0.95989 0.0
O594 O 0.30695 0.53421 0.95299 0.0
C595 C 0.14191 0.52059 0.89349 0.0
O596 O 0.19155 0.58341 0.89086 0.0
O597 O 0.28444 0.54649 0.8783 0.0
O598 O 0.36403 0.64751 0.88968 0.0
H599 H 0.28993 0.36234 0.84624 0.0
H600 H 0.24126 0.64154 0.94062 0.0
O601 O 0.35146 0.64682 0.94854 0.0
H602 H 0.30553 0.82052 0.89076 0.0
H603 H 0.52045 0.88266 0.9437 0.0
H604 H 0.49315 0.69558 0.9009 0.0
H605 H 0.36959 0.75985 0.89396 0.0
H606 H 0.40943 0.7764 0.94119 0.0
O607 O 0.15518 0.47323 0.8973 0.0
H608 H 0.31928 0.45837 0.86862 0.0
H609 H 0.12588 0.34802 0.8961 0.0
H610 H 0.60519 0.80078 0.90306 0.0
H611 H 0.17592 0.70113 0.93809 0.0
H612 H 0.61925 0.89544 0.92449 0.0
H613 H 0.20774 0.79129 0.91292 0.0
O614 O 0.4081 0.59533 0.92104 0.0
H615 H 0.10883 0.38315 0.96223 0.0
H616 H 0.27633 0.37829 0.91723 0.0
H617 H 0.23769 0.30274 0.94605 0.0
H618 H 0.15337 0.30486 0.96883 0.0
H619 H 0.14945 0.45811 0.93336 0.0
H620 H 0.09388 0.25077 0.8739 0.0
H621 H 0.17638 0.25744 0.84882 0.0
O622 O 0.34268 0.49631 0.90519 0.0
C623 C 0.3309 0.6082 0.87545 0.0
C624 C 0.25374 0.35856 0.85722 0.0
C625 C 0.14368 0.29601 0.87272 0.0
N626 N 0.22507 0.40833 0.88393 0.0
C627 C 0.27035 0.41268 0.87002 0.0
C628 C 0.16211 0.35121 0.88525 0.0
C629 C 0.18998 0.29979 0.85864 0.0
C630 C 0.25554 0.68059 0.92968 0.0
N631 N 0.30871 0.69623 0.9173 0.0
C632 C 0.21831 0.71427 0.9283 0.0
C633 C 0.23612 0.76476 0.91417 0.0
C634 C 0.29089 0.78108 0.90172 0.0
C635 C 0.3268 0.74616 0.90352 0.0
C636 C 0.51483 0.84201 0.93419 0.0
C637 C 0.49886 0.7366 0.91024 0.0
C638 C 0.45203 0.78183 0.93265 0.0
N639 N 0.44441 0.73049 0.92054 0.0
C640 C 0.56242 0.79604 0.9114 0.0
C641 C 0.57028 0.84911 0.92343 0.0
C642 C 0.39815 0.53921 0.91379 0.0
C643 C 0.14574 0.38184 0.95246 0.0
C644 C 0.24022 0.3802 0.92716 0.0
C645 C 0.21819 0.33691 0.9434 0.0
C646 C 0.17079 0.33801 0.95616 0.0
N647 N 0.21596 0.42364 0.92372 0.0
C648 C 0.16886 0.42428 0.93604 0.0
Co649 Co 0.70699 0.34303 0.25111 0.0
Co650 Co 0.75576 0.22733 0.23576 0.0
O651 O 0.70008 0.25377 0.25105 0.0
C652 C 0.69182 0.29323 0.29298 0.0
O653 O 0.6796 0.23401 0.2864 0.0
C654 C 0.61117 0.12469 0.22659 0.0
O655 O 0.60107 0.1758 0.22318 0.0
O656 O 0.73581 0.26297 0.21149 0.0
O657 O 0.71404 0.34567 0.2214 0.0
H658 H 0.94809 0.25786 0.19139 0.0
H659 H 0.58381 0.22058 0.26906 0.0
O660 O 0.70168 0.34126 0.28108 0.0
H661 H 0.49155 0.3195 0.22259 0.0
H662 H 0.65256 0.52089 0.27471 0.0
H663 H 0.78921 0.4712 0.22869 0.0
H664 H 0.61548 0.37099 0.22683 0.0
H665 H 0.64122 0.40704 0.2738 0.0
O666 O 0.67035 0.13555 0.23142 0.0
H667 H 0.88394 0.29663 0.21104 0.0
H668 H 0.74781 0.09366 0.22939 0.0
H669 H 0.8019 0.58557 0.22887 0.0
H670 H 0.46031 0.16758 0.26525 0.0
H671 H 0.73326 0.61113 0.25205 0.0
H672 H 0.41276 0.21689 0.24187 0.0
O673 O 0.80817 0.38974 0.25352 0.0
H674 H 0.7 0.08392 0.29689 0.0
H675 H 0.88452 0.25247 0.25493 0.0
H676 H 0.91343 0.21184 0.28482 0.0
H677 H 0.82088 0.12681 0.30608 0.0
H678 H 0.67351 0.12707 0.2671 0.0
H679 H 0.81118 0.0528 0.20998 0.0
H680 H 0.91198 0.13491 0.19063 0.0
O681 O 0.84015 0.31969 0.23996 0.0
C682 C 0.72306 0.311 0.20801 0.0
C683 C 0.90333 0.22131 0.1994 0.0
C684 C 0.8266 0.10634 0.20983 0.0
N685 N 0.80896 0.19743 0.22053 0.0
C686 C 0.86578 0.24301 0.2104 0.0
C687 C 0.79025 0.1299 0.22064 0.0
C688 C 0.88322 0.15241 0.19903 0.0
C689 C 0.56469 0.24331 0.25907 0.0
N690 N 0.60798 0.29991 0.24851 0.0
C691 C 0.49404 0.21262 0.25687 0.0
C692 C 0.46739 0.2402 0.24374 0.0
C693 C 0.51152 0.29775 0.23295 0.0
C694 C 0.58186 0.32689 0.23551 0.0
C695 C 0.68298 0.51051 0.26459 0.0
C696 C 0.75933 0.48183 0.2388 0.0
C697 C 0.67712 0.44622 0.26413 0.0
N698 N 0.715 0.43249 0.25132 0.0
C699 C 0.76666 0.54675 0.23885 0.0
C700 C 0.72818 0.56107 0.25186 0.0
C701 C 0.85365 0.37673 0.24755 0.0
C702 C 0.74084 0.12118 0.2878 0.0
C703 C 0.84372 0.21645 0.26421 0.0
C704 C 0.86053 0.19311 0.28107 0.0
C705 C 0.80862 0.14526 0.29295 0.0
N706 N 0.77705 0.1935 0.25939 0.0
C707 C 0.72602 0.14577 0.27084 0.0
C708 C 0.36928 0.64261 0.99338 0.0
C709 C 0.31372 0.60371 0.98065 0.0
C710 C 0.23313 0.58093 0.00753 0.0
C711 C 0.28896 0.61858 0.02042 0.0
N712 N 0.40786 0.70559 0.02367 0.0
N713 N 0.19281 0.54709 0.97422 0.0
C714 C 0.3564 0.65586 0.01279 0.0
C715 C 0.24551 0.57593 0.98733 0.0
N716 N 0.43448 0.66468 0.98717 0.0
N717 N 0.16806 0.55081 0.01467 0.0
H718 H 0.19994 0.54234 0.95938 0.0
H719 H 0.1424 0.53184 0.9776 0.0
H720 H 0.15696 0.56228 0.0285 0.0
H721 H 0.12531 0.51439 0.00714 0.0
H722 H 0.47654 0.68594 0.9965 0.0
H723 H 0.44607 0.6563 0.97303 0.0
H724 H 0.45659 0.73785 0.01819 0.0
H725 H 0.40012 0.7215 0.03717 0.0
C726 C 0.66812 0.33606 0.3457 0.0
C727 C 0.69484 0.30027 0.35611 0.0
C728 C 0.73346 0.27719 0.32521 0.0
C729 C 0.69736 0.30293 0.31459 0.0
N730 N 0.61657 0.34294 0.31536 0.0
N731 N 0.73474 0.21946 0.35468 0.0
C732 C 0.66079 0.32872 0.32497 0.0
C733 C 0.72212 0.26565 0.34554 0.0
N734 N 0.65265 0.37928 0.35532 0.0
N735 N 0.78016 0.26544 0.31604 0.0
H736 H 0.72214 0.20541 0.3693 0.0
H737 H 0.74973 0.18924 0.3471 0.0
H738 H 0.79314 0.27714 0.30132 0.0
H739 H 0.81152 0.25183 0.32363 0.0
H740 H 0.63844 0.41069 0.34805 0.0
H741 H 0.66146 0.38934 0.37024 0.0
H742 H 0.58452 0.35628 0.32263 0.0
H743 H 0.60651 0.33406 0.30044 0.0
C744 C 0.3749 0.64308 0.67477 0.0
C745 C 0.41219 0.69792 0.68783 0.0
C746 C 0.4359 0.77974 0.66119 0.0
C747 C 0.39962 0.7247 0.64796 0.0
N748 N 0.3141 0.60552 0.6441 0.0
N749 N 0.46567 0.81805 0.69482 0.0
C750 C 0.36263 0.65678 0.6553 0.0
C751 C 0.43926 0.76627 0.68142 0.0
N752 N 0.35346 0.57779 0.68071 0.0
N753 N 0.46624 0.84516 0.65438 0.0
H754 H 0.46853 0.81001 0.70972 0.0
H755 H 0.48021 0.86835 0.69159 0.0
H756 H 0.45574 0.85704 0.64053 0.0
H757 H 0.50196 0.8874 0.66223 0.0
H758 H 0.33361 0.5364 0.67117 0.0
H759 H 0.36095 0.56558 0.69488 0.0
H760 H 0.28191 0.55649 0.64937 0.0
H761 H 0.29897 0.61346 0.6305 0.0
C762 C 0.66421 0.42791 0.01495 0.0
C763 C 0.70586 0.40147 0.02151 0.0
C764 C 0.69552 0.34909 0.9893 0.0
C765 C 0.66445 0.38553 0.98174 0.0
N766 N 0.6108 0.45242 0.98772 0.0
N767 N 0.76659 0.34193 0.01471 0.0
C768 C 0.64615 0.42266 0.99476 0.0
C769 C 0.72254 0.36297 0.00867 0.0
N770 N 0.63994 0.45583 0.02818 0.0
N771 N 0.69747 0.29964 0.97841 0.0
H772 H 0.78722 0.35077 0.02879 0.0
H773 H 0.78745 0.3211 0.0053 0.0
H774 H 0.6734 0.28328 0.96496 0.0
H775 H 0.71463 0.26798 0.98384 0.0
H776 H 0.6041 0.47021 0.02489 0.0
H777 H 0.65202 0.46036 0.04302 0.0
H778 H 0.6043 0.48843 0.99537 0.0
H779 H 0.58834 0.44134 0.97386 0.0
C780 C 0.35053 0.74573 0.32007 0.0
C781 C 0.29451 0.68217 0.31413 0.0
C782 C 0.26242 0.65277 0.34839 0.0
C783 C 0.3239 0.71132 0.3544 0.0
N784 N 0.43135 0.80984 0.34581 0.0
N785 N 0.203 0.57025 0.32272 0.0
C786 C 0.3698 0.75645 0.34016 0.0
C787 C 0.25276 0.63379 0.32835 0.0
N788 N 0.38239 0.7974 0.30681 0.0
N789 N 0.21063 0.6188 0.36146 0.0
H790 H 0.194 0.55501 0.30808 0.0
H791 H 0.1751 0.53113 0.33268 0.0
H792 H 0.21288 0.63654 0.37563 0.0
H793 H 0.16252 0.57918 0.35751 0.0
H794 H 0.4195 0.84674 0.31067 0.0
H795 H 0.36618 0.79297 0.29233 0.0
H796 H 0.46941 0.8406 0.33589 0.0
H797 H 0.44643 0.81973 0.36045 0.0
C798 C 0.60087 0.35737 0.67624 0.0
C799 C 0.59786 0.30779 0.68946 0.0
C800 C 0.59948 0.23932 0.66194 0.0
C801 C 0.59504 0.28516 0.64875 0.0
N802 N 0.57771 0.3806 0.64336 0.0
N803 N 0.5787 0.19445 0.69498 0.0
C804 C 0.59201 0.34236 0.65588 0.0
C805 C 0.59308 0.24676 0.68237 0.0
N806 N 0.61257 0.41891 0.68311 0.0
N807 N 0.6098 0.18875 0.65496 0.0
H808 H 0.57009 0.19683 0.70986 0.0
H809 H 0.56821 0.14636 0.69039 0.0
H810 H 0.61424 0.18169 0.64005 0.0
H811 H 0.61991 0.15782 0.66399 0.0
H812 H 0.62196 0.45958 0.67401 0.0
H813 H 0.61872 0.43132 0.69797 0.0
H814 H 0.56789 0.41855 0.64802 0.0
H815 H 0.56924 0.37011 0.62845 0.0
C816 C 0.23071 0.66337 0.17378 0.0
C817 C 0.25611 0.63618 0.18814 0.0
C818 C 0.31058 0.60658 0.16191 0.0
C819 C 0.28603 0.63467 0.14764 0.0
N820 N 0.24982 0.71726 0.14227 0.0
N821 N 0.29145 0.55275 0.19341 0.0
C822 C 0.2535 0.67076 0.15411 0.0
C823 C 0.28836 0.59973 0.18164 0.0
N824 N 0.18066 0.67761 0.17858 0.0
N825 N 0.35896 0.59036 0.15683 0.0
H826 H 0.2644 0.53589 0.20642 0.0
H827 H 0.31021 0.52158 0.1887 0.0
H828 H 0.38125 0.60116 0.143 0.0
H829 H 0.38359 0.57571 0.16698 0.0
H830 H 0.1557 0.69118 0.16823 0.0
H831 H 0.15746 0.66655 0.1923 0.0
H832 H 0.23013 0.74772 0.1469 0.0
H833 H 0.27792 0.73497 0.12945 0.0
C834 C 0.68625 0.34155 0.49338 0.0
C835 C 0.65001 0.27944 0.48286 0.0
C836 C 0.59245 0.21979 0.5129 0.0
C837 C 0.6248 0.2822 0.52327 0.0
N838 N 0.6964 0.40436 0.52321 0.0
N839 N 0.55272 0.16609 0.48142 0.0
C840 C 0.67013 0.34381 0.51346 0.0
C841 C 0.59836 0.22043 0.49226 0.0
N842 N 0.73551 0.3983 0.48408 0.0
N843 N 0.55746 0.15958 0.52282 0.0
H844 H 0.55273 0.16715 0.46617 0.0
H845 H 0.51038 0.12385 0.48745 0.0
H846 H 0.5537 0.15724 0.53806 0.0
H847 H 0.53821 0.11219 0.5161 0.0
H848 H 0.76912 0.44335 0.49124 0.0
H849 H 0.74421 0.39946 0.46906 0.0
H850 H 0.72378 0.4518 0.51651 0.0
H851 H 0.68756 0.40718 0.53805 0.0
C852 C 0.41312 0.71491 0.82824 0.0
C853 C 0.38717 0.66221 0.81394 0.0
C854 C 0.30797 0.58767 0.83892 0.0
C855 C 0.34747 0.63298 0.85434 0.0
N856 N 0.44899 0.74444 0.86139 0.0
N857 N 0.31904 0.54013 0.8088 0.0
C858 C 0.40363 0.69786 0.84848 0.0
C859 C 0.33726 0.596 0.82013 0.0
N860 N 0.44305 0.78171 0.82281 0.0
N861 N 0.24117 0.53942 0.8415 0.0
H862 H 0.34563 0.54216 0.79623 0.0
H863 H 0.28468 0.49088 0.81363 0.0
H864 H 0.21333 0.5398 0.85356 0.0
H865 H 0.21128 0.50759 0.83015 0.0
H866 H 0.45762 0.82119 0.83289 0.0
H867 H 0.44356 0.7967 0.80843 0.0
H868 H 0.49437 0.78674 0.85673 0.0
H869 H 0.44532 0.74147 0.87642 0.0
C870 C 0.6627 0.34567 0.15903 0.0
C871 C 0.72016 0.36263 0.14699 0.0
C872 C 0.77872 0.34685 0.17486 0.0
C873 C 0.72118 0.32855 0.18699 0.0
N874 N 0.60163 0.2922 0.18902 0.0
N875 N 0.82173 0.35493 0.14219 0.0
C876 C 0.66115 0.32312 0.17866 0.0
C877 C 0.77454 0.35541 0.15448 0.0
N878 N 0.60868 0.349 0.15148 0.0
N879 N 0.83903 0.35944 0.1829 0.0
H880 H 0.82132 0.36144 0.12718 0.0
H881 H 0.85753 0.3417 0.1467 0.0
H882 H 0.84461 0.35518 0.19779 0.0
H883 H 0.88483 0.38096 0.17517 0.0
H884 H 0.56885 0.34542 0.15997 0.0
H885 H 0.60487 0.35729 0.13664 0.0
H886 H 0.55456 0.28108 0.1833 0.0
H887 H 0.59811 0.27107 0.2028 0.0
C888 C 0.35808 0.67093 0.50869 0.0
C889 C 0.36902 0.72631 0.52089 0.0
C890 C 0.35623 0.78439 0.49236 0.0
C891 C 0.34152 0.72775 0.48029 0.0
N892 N 0.30724 0.60871 0.47878 0.0
N893 N 0.35498 0.82447 0.52483 0.0
C894 C 0.33684 0.6686 0.48892 0.0
C895 C 0.36033 0.77923 0.51292 0.0
N896 N 0.36615 0.61954 0.51607 0.0
N897 N 0.37013 0.84491 0.48421 0.0
H898 H 0.3591 0.82392 0.53992 0.0
H899 H 0.34049 0.85875 0.51977 0.0
H900 H 0.37091 0.85177 0.4692 0.0
H901 H 0.3885 0.8899 0.4922 0.0
H902 H 0.36782 0.58277 0.50732 0.0
H903 H 0.37357 0.61533 0.5309 0.0
H904 H 0.29694 0.56236 0.48485 0.0
H905 H 0.28535 0.60399 0.46506 0.0
C906 C 0.68783 0.34451 0.84682 0.0
C907 C 0.68 0.39779 0.85503 0.0
C908 C 0.66188 0.42854 0.82201 0.0
C909 C 0.65567 0.36755 0.81445 0.0
N910 N 0.66952 0.27013 0.81913 0.0
N911 N 0.64951 0.48462 0.85025 0.0
C912 C 0.67043 0.32613 0.82677 0.0
C913 C 0.66493 0.43857 0.84253 0.0
N914 N 0.71543 0.31415 0.85785 0.0
N915 N 0.66659 0.47808 0.80971 0.0
H916 H 0.64842 0.49158 0.86522 0.0
H917 H 0.63057 0.51011 0.84196 0.0
H918 H 0.66535 0.47335 0.79461 0.0
H919 H 0.6786 0.52648 0.81449 0.0
H920 H 0.72854 0.27945 0.85238 0.0
H921 H 0.73155 0.32875 0.87217 0.0
H922 H 0.67164 0.23308 0.8276 0.0
H923 H 0.66529 0.26031 0.80413 0.0
C924 C 0.96568 0.48319 0.07124 0.0
C925 C 0.93437 0.4846 0.08919 0.0
C926 C 0.04496 0.52722 0.1059 0.0
C927 C 0.07337 0.51826 0.08849 0.0
N928 N 0.05705 0.47423 0.05568 0.0
N929 N 0.94312 0.49409 0.12458 0.0
C930 C 0.03259 0.49216 0.07147 0.0
C931 C 0.97383 0.5031 0.10679 0.0
N932 N 0.93347 0.4772 0.05381 0.0
N933 N 0.08605 0.55983 0.1216 0.0
H934 H 0.89105 0.47385 0.12614 0.0
H935 H 0.96797 0.49938 0.13786 0.0
H936 H 0.13812 0.57665 0.1218 0.0
H937 H 0.06966 0.5754 0.13377 0.0
H938 H 0.95679 0.4824 0.04028 0.0
H939 H 0.88653 0.47485 0.05279 0.0
H940 H 0.02715 0.44851 0.04357 0.0
H941 H 0.10534 0.47916 0.05554 0.0
C942 C 0.5399 0.02131 0.4388 0.0
C943 C 0.55888 0.06577 0.42234 0.0
C944 C 0.46557 0.97294 0.4035 0.0
C945 C 0.4516 0.92761 0.41941 0.0
N946 N 0.48787 0.90564 0.45044 0.0
N947 N 0.55042 0.07595 0.3873 0.0
C948 C 0.49295 0.95084 0.43642 0.0
C949 C 0.5246 0.03941 0.40416 0.0
N950 N 0.56263 0.04637 0.45712 0.0
N951 N 0.42242 0.95298 0.38782 0.0
H952 H 0.59619 0.12226 0.38684 0.0
H953 H 0.53088 0.0566 0.37347 0.0
H954 H 0.37938 0.90465 0.38682 0.0
H955 H 0.42622 0.98621 0.3767 0.0
H956 H 0.54421 0.01714 0.46981 0.0
H957 H 0.5935 0.09779 0.45993 0.0
H958 H 0.52263 0.91865 0.46191 0.0
H959 H 0.45204 0.85403 0.44976 0.0
C960 C 0.51674 0.47409 0.73793 0.0
C961 C 0.52492 0.44902 0.75625 0.0
C962 C 0.49742 0.52819 0.7731 0.0
C963 C 0.49789 0.55864 0.75489 0.0
N964 N 0.51835 0.56741 0.72012 0.0
N965 N 0.53307 0.46076 0.79151 0.0
C966 C 0.51045 0.53348 0.73733 0.0
C967 C 0.51761 0.47818 0.7739 0.0
N968 N 0.51122 0.43911 0.72114 0.0
N969 N 0.47564 0.54548 0.78964 0.0
H970 H 0.54876 0.42518 0.7929 0.0
H971 H 0.53675 0.48624 0.80455 0.0
H972 H 0.46157 0.58267 0.78983 0.0
H973 H 0.46577 0.51887 0.8028 0.0
H974 H 0.49872 0.45108 0.7076 0.0
H975 H 0.51136 0.39339 0.72115 0.0
H976 H 0.53491 0.55589 0.70722 0.0
H977 H 0.51447 0.61118 0.71919 0.0
C978 C 0.50157 0.04204 0.59827 0.0
C979 C 0.48938 0.07147 0.58141 0.0
C980 C 0.4712 0.97304 0.56195 0.0
C981 C 0.48219 0.94281 0.57867 0.0
N982 N 0.52118 0.95411 0.6119 0.0
N983 N 0.42913 0.04521 0.55052 0.0
C984 C 0.50046 0.97865 0.5967 0.0
C985 C 0.46478 0.03166 0.56413 0.0
N986 N 0.50878 0.07236 0.61606 0.0
N987 N 0.46903 0.94745 0.54376 0.0
H988 H 0.41019 0.07745 0.55347 0.0
H989 H 0.4071 0.01508 0.53816 0.0
H990 H 0.47503 0.90555 0.54143 0.0
H991 H 0.4686 0.97232 0.53094 0.0
H992 H 0.51247 0.05175 0.62931 0.0
H993 H 0.50291 0.11473 0.61777 0.0
H994 H 0.54187 0.98045 0.62488 0.0
H995 H 0.52366 0.90955 0.61077 0.0
C996 C 0.4917 0.53018 0.93195 0.0
C997 C 0.45599 0.525 0.91426 0.0
C998 C 0.52154 0.48062 0.89764 0.0
C999 C 0.56219 0.49263 0.91461 0.0
N1000 N 0.59436 0.54189 0.94683 0.0
N1001 N 0.45534 0.51749 0.87899 0.0
C1002 C 0.55 0.52168 0.93143 0.0
C1003 C 0.47603 0.5064 0.89672 0.0
N1004 N 0.46845 0.54004 0.94938 0.0
N1005 N 0.52511 0.44346 0.88248 0.0
H1006 H 0.4278 0.54281 0.87762 0.0
H1007 H 0.47308 0.50976 0.8657 0.0
H1008 H 0.55668 0.42243 0.88281 0.0
H1009 H 0.49188 0.4281 0.87055 0.0
H1010 H 0.48842 0.53733 0.96288 0.0
H1011 H 0.42495 0.54424 0.95053 0.0
H1012 H 0.59195 0.56957 0.95867 0.0
H1013 H 0.63723 0.53626 0.94692 0.0
C1014 C 0.02715 0.52153 0.23131 0.0
C1015 C 0.06434 0.54147 0.24917 0.0
C1016 C 0.96515 0.44693 0.26575 0.0
C1017 C 0.92617 0.43325 0.24834 0.0
N1018 N 0.91606 0.47273 0.21639 0.0
N1019 N 0.06303 0.52994 0.28437 0.0
C1020 C 0.95593 0.47514 0.23168 0.0
C1021 C 0.03188 0.50582 0.26671 0.0
N1022 N 0.06016 0.54342 0.2138 0.0
N1023 N 0.93865 0.40364 0.28134 0.0
H1024 H 0.11004 0.57442 0.28576 0.0
H1025 H 0.0393 0.50986 0.29775 0.0
H1026 H 0.88957 0.36127 0.28121 0.0
H1027 H 0.96707 0.40676 0.2937 0.0
H1028 H 0.03571 0.5257 0.20036 0.0
H1029 H 0.11307 0.57189 0.21275 0.0
H1030 H 0.93469 0.50678 0.20467 0.0
H1031 H 0.86326 0.44177 0.21657 0.0
C1032 C 0.51627 0.47814 0.1237 0.0
C1033 C 0.56947 0.511 0.10966 0.0
C1034 C 0.50395 0.55503 0.09291 0.0
C1035 C 0.45218 0.52478 0.10727 0.0
N1036 N 0.41295 0.46671 0.13818 0.0
N1037 N 0.62317 0.60205 0.08579 0.0
C1038 C 0.45921 0.48859 0.1232 0.0
C1039 C 0.56638 0.55607 0.09576 0.0
N1040 N 0.52136 0.43829 0.13783 0.0
N1041 N 0.49252 0.58037 0.07607 0.0
H1042 H 0.67163 0.61079 0.08898 0.0
H1043 H 0.62392 0.63902 0.07655 0.0
H1044 H 0.4462 0.57784 0.07306 0.0
H1045 H 0.52596 0.59669 0.06421 0.0
H1046 H 0.48109 0.40521 0.14679 0.0
H1047 H 0.56663 0.43822 0.14042 0.0
H1048 H 0.41864 0.44617 0.1512 0.0
H1049 H 0.37055 0.47325 0.13823 0.0
C1050 C 0.99351 0.44033 0.43166 0.0
C1051 C 0.94385 0.43809 0.44486 0.0
C1052 C 0.02875 0.55272 0.45672 0.0
C1053 C 0.07322 0.55787 0.44137 0.0
N1054 N 0.09086 0.51257 0.41148 0.0
N1055 N 0.91595 0.49032 0.47128 0.0
C1056 C 0.05356 0.50338 0.42808 0.0
C1057 C 0.96207 0.49408 0.45774 0.0
N1058 N 0.98569 0.38249 0.4231 0.0
N1059 N 0.05119 0.60265 0.47066 0.0
H1060 H 0.87125 0.44487 0.4744 0.0
H1061 H 0.92146 0.53189 0.47925 0.0
H1062 H 0.09926 0.64642 0.47015 0.0
H1063 H 0.02428 0.59917 0.48336 0.0
H1064 H 0.02335 0.38181 0.41452 0.0
H1065 H 0.94738 0.33397 0.4269 0.0
H1066 H 0.07481 0.47677 0.40023 0.0
H1067 H 0.13374 0.55902 0.40796 0.0
C1068 C 0.55018 0.0468 0.79166 0.0
C1069 C 0.51429 0.06573 0.77826 0.0
C1070 C 0.47389 0.9581 0.76077 0.0
C1071 C 0.50587 0.93713 0.77472 0.0
N1072 N 0.56626 0.95669 0.80527 0.0
N1073 N 0.42089 0.02554 0.75507 0.0
C1074 C 0.54214 0.98027 0.79067 0.0
C1075 C 0.46964 0.01732 0.76434 0.0
N1076 N 0.59062 0.09205 0.80565 0.0
N1077 N 0.44967 0.92282 0.74366 0.0
H1078 H 0.40943 0.0628 0.759 0.0
H1079 H 0.3845 0.98888 0.74577 0.0
H1080 H 0.45483 0.88094 0.74009 0.0
H1081 H 0.43187 0.93987 0.73213 0.0
H1082 H 0.62555 0.08605 0.81409 0.0
H1083 H 0.58945 0.13649 0.80859 0.0
H1084 H 0.58661 0.98257 0.81835 0.0
H1085 H 0.56191 0.90871 0.80493 0.0
C1086 C 0.50891 0.54847 0.58007 0.0
C1087 C 0.50763 0.5791 0.56207 0.0
C1088 C 0.52992 0.49842 0.5442 0.0
C1089 C 0.53523 0.47088 0.56235 0.0
N1090 N 0.54882 0.48188 0.59737 0.0
N1091 N 0.52585 0.59056 0.52718 0.0
C1092 C 0.53044 0.49958 0.58025 0.0
C1093 C 0.52117 0.55644 0.54416 0.0
N1094 N 0.48735 0.56424 0.59692 0.0
N1095 N 0.53124 0.46786 0.52708 0.0
H1096 H 0.51786 0.63202 0.52662 0.0
H1097 H 0.54219 0.581 0.51394 0.0
H1098 H 0.53947 0.42655 0.52662 0.0
H1099 H 0.52018 0.48058 0.51346 0.0
H1100 H 0.48039 0.5381 0.61005 0.0
H1101 H 0.47027 0.59914 0.59737 0.0
H1102 H 0.55225 0.50571 0.6107 0.0
H1103 H 0.56802 0.44865 0.59783 0.0
C1104 C 0.04377 0.51144 0.91306 0.0
C1105 C 0.07061 0.50697 0.8947 0.0
C1106 C 0.96564 0.48839 0.87856 0.0
C1107 C 0.93718 0.48742 0.89715 0.0
N1108 N 0.94152 0.47563 0.9321 0.0
N1109 N 0.05217 0.47802 0.86045 0.0
C1110 C 0.97406 0.49268 0.91444 0.0
C1111 C 0.03004 0.4915 0.87755 0.0
N1112 N 0.08501 0.53495 0.92914 0.0
N1113 N 0.93189 0.48778 0.86189 0.0
H1114 H 0.09821 0.47837 0.85942 0.0
H1115 H 0.02227 0.46024 0.84787 0.0
H1116 H 0.88435 0.48467 0.8621 0.0
H1117 H 0.9532 0.49557 0.84795 0.0
H1118 H 0.06953 0.54558 0.9424 0.0
H1119 H 0.13653 0.54987 0.92865 0.0
H1120 H 0.96474 0.47312 0.94502 0.0
H1121 H 0.88901 0.45524 0.93332 0.0
C1122 C 0.46731 0.95247 0.24393 0.0
C1123 C 0.43871 0.91948 0.2259 0.0
C1124 C 0.52824 0.01865 0.20818 0.0
C1125 C 0.55191 0.054 0.22622 0.0
N1126 N 0.53317 0.05988 0.26075 0.0
N1127 N 0.43701 0.92292 0.19064 0.0
C1128 C 0.51837 0.02243 0.24396 0.0
C1129 C 0.46793 0.95302 0.20792 0.0
N1130 N 0.448 0.91625 0.26102 0.0
N1131 N 0.56408 0.04734 0.19138 0.0
H1132 H 0.39357 0.87466 0.18994 0.0
H1133 H 0.45132 0.94746 0.17714 0.0
H1134 H 0.60746 0.09573 0.19105 0.0
H1135 H 0.55386 0.02156 0.17809 0.0
H1136 H 0.47217 0.9361 0.27437 0.0
H1137 H 0.41252 0.86427 0.26149 0.0
H1138 H 0.50549 0.04102 0.27367 0.0
H1139 H 0.56835 0.11187 0.26117 0.0
loop_
_geom_bond_atom_site_label_1
_geom_bond_atom_site_label_2
_geom_bond_distance
_geom_bond_site_symmetry_2
_ccdc_geom_bond_type
Co0 O2 2.143 . S
Co0 O8 2.074 . S
Co0 O11 2.093 . S
Co0 O24 2.097 . S
Co0 N41 2.151 . S
Co0 N49 2.214 . S
Co1 O2 2.160 . S
Co1 O7 2.058 . S
Co1 O17 2.057 . S
Co1 O32 2.037 . S
Co1 N36 2.145 . S
Co1 N57 2.257 . S
O2 Co0 2.143 . S
O2 Co1 2.160 . S
C3 O4 1.278 . S
C3 O11 1.224 . S
O4 C3 1.278 . S
C5 O6 1.245 . S
C5 O17 1.232 . S
O6 C5 1.245 . S
O7 Co1 2.058 . S
O7 C33 1.269 . S
O8 Co0 2.074 . S
O8 C33 1.257 . S
H9 C34 0.930 . S
H10 C40 0.930 . S
O11 Co0 2.093 . S
O11 C3 1.224 . S
H12 C44 0.929 . S
H13 C46 0.930 . S
H14 C47 0.930 . S
H15 C45 0.929 . S
H16 C48 0.928 . S
O17 Co1 2.057 . S
O17 C5 1.232 . S
H18 C37 0.929 . S
H19 C38 0.929 . S
H20 C50 0.931 . S
H21 C42 0.929 . S
H22 C51 0.930 . S
H23 C43 0.931 . S
O24 Co0 2.097 . S
O24 C52 1.214 . S
H25 C53 0.929 . S
H26 C54 0.929 . S
H27 C55 0.930 . S
H28 C56 0.929 . S
H29 C58 0.930 . S
H30 C35 0.930 . S
H31 C39 0.930 . S
O32 Co1 2.037 . S
O32 C52 1.234 . S
C33 O7 1.269 . S
C33 O8 1.257 . S
C34 H9 0.930 . S
C34 C37 1.388 . S
C34 C39 1.418 . S
C35 H30 0.930 . S
C35 C38 1.404 . S
C35 C39 1.353 . S
N36 Co1 2.145 . S
N36 C37 1.397 . S
N36 C38 1.334 . S
C37 H18 0.929 . S
C37 C34 1.388 . S
C37 N36 1.397 . S
C38 H19 0.929 . S
C38 C35 1.404 . S
C38 N36 1.334 . S
C39 H31 0.930 . S
C39 C34 1.418 . S
C39 C35 1.353 . S
C40 H10 0.930 . S
C40 N41 1.330 . S
C40 C42 1.446 . S
N41 Co0 2.151 . S
N41 C40 1.330 . S
N41 C45 1.418 . S
C42 H21 0.929 . S
C42 C40 1.446 . S
C42 C43 1.332 . S
C43 H23 0.931 . S
C43 C42 1.332 . S
C43 C44 1.267 . S
C44 H12 0.929 . S
C44 C43 1.267 . S
C44 C45 1.251 . S
C45 H15 0.929 . S
C45 N41 1.418 . S
C45 C44 1.251 . S
C46 H13 0.930 . S
C46 C48 1.406 . S
C46 C51 1.261 . S
C47 H14 0.930 . S
C47 N49 1.325 . S
C47 C50 1.357 . S
C48 H16 0.928 . S
C48 C46 1.406 . S
C48 N49 1.261 . S
N49 Co0 2.214 . S
N49 C47 1.325 . S
N49 C48 1.261 . S
C50 H20 0.931 . S
C50 C47 1.357 . S
C50 C51 1.312 . S
C51 H22 0.930 . S
C51 C46 1.261 . S
C51 C50 1.312 . S
C52 O24 1.214 . S
C52 O32 1.234 . S
C53 H25 0.929 . S
C53 C56 1.391 . S
C53 C58 1.391 . S
C54 H26 0.929 . S
C54 C55 1.390 . S
C54 N57 1.391 . S
C55 H27 0.930 . S
C55 C54 1.390 . S
C55 C56 1.392 . S
C56 H28 0.929 . S
C56 C53 1.391 . S
C56 C55 1.392 . S
N57 Co1 2.257 . S
N57 C54 1.391 . S
N57 C58 1.388 . S
C58 H29 0.930 . S
C58 C53 1.391 . S
C58 N57 1.388 . S
Co59 O61 2.143 . S
Co59 O67 2.074 . S
Co59 O70 2.093 . S
Co59 O83 2.097 . S
Co59 N100 2.151 . S
Co59 N108 2.214 . S
Co60 O61 2.160 . S
Co60 O66 2.058 . S
Co60 O76 2.057 . S
Co60 O91 2.037 . S
Co60 N95 2.145 . S
Co60 N116 2.257 . S
O61 Co59 2.143 . S
O61 Co60 2.160 . S
C62 O63 1.278 . S
C62 O70 1.224 . S
O63 C62 1.278 . S
C64 O65 1.245 . S
C64 O76 1.232 . S
O65 C64 1.245 . S
O66 Co60 2.058 . S
O66 C92 1.269 . S
O67 Co59 2.074 . S
O67 C92 1.257 . S
H68 C93 0.930 . S
H69 C99 0.930 . S
O70 Co59 2.093 . S
O70 C62 1.224 . S
H71 C103 0.929 . S
H72 C105 0.930 . S
H73 C106 0.930 . S
H74 C104 0.929 . S
H75 C107 0.928 . S
O76 Co60 2.057 . S
O76 C64 1.232 . S
H77 C96 0.929 . S
H78 C97 0.929 . S
H79 C109 0.931 . S
H80 C101 0.929 . S
H81 C110 0.930 . S
H82 C102 0.931 . S
O83 Co59 2.097 . S
O83 C111 1.214 . S
H84 C112 0.929 . S
H85 C113 0.929 . S
H86 C114 0.930 . S
H87 C115 0.929 . S
H88 C117 0.930 . S
H89 C94 0.930 . S
H90 C98 0.930 . S
O91 Co60 2.037 . S
O91 C111 1.234 . S
C92 O66 1.269 . S
C92 O67 1.257 . S
C93 H68 0.930 . S
C93 C96 1.388 . S
C93 C98 1.418 . S
C94 H89 0.930 . S
C94 C97 1.404 . S
C94 C98 1.353 . S
N95 Co60 2.145 . S
N95 C96 1.397 . S
N95 C97 1.334 . S
C96 H77 0.929 . S
C96 C93 1.388 . S
C96 N95 1.397 . S
C97 H78 0.929 . S
C97 C94 1.404 . S
C97 N95 1.334 . S
C98 H90 0.930 . S
C98 C93 1.418 . S
C98 C94 1.353 . S
C99 H69 0.930 . S
C99 N100 1.330 . S
C99 C101 1.446 . S
N100 Co59 2.151 . S
N100 C99 1.330 . S
N100 C104 1.418 . S
C101 H80 0.929 . S
C101 C99 1.446 . S
C101 C102 1.332 . S
C102 H82 0.931 . S
C102 C101 1.332 . S
C102 C103 1.267 . S
C103 H71 0.929 . S
C103 C102 1.267 . S
C103 C104 1.251 . S
C104 H74 0.929 . S
C104 N100 1.418 . S
C104 C103 1.251 . S
C105 H72 0.930 . S
C105 C107 1.406 . S
C105 C110 1.261 . S
C106 H73 0.930 . S
C106 N108 1.325 . S
C106 C109 1.357 . S
C107 H75 0.928 . S
C107 C105 1.406 . S
C107 N108 1.261 . S
N108 Co59 2.214 . S
N108 C106 1.325 . S
N108 C107 1.261 . S
C109 H79 0.931 . S
C109 C106 1.357 . S
C109 C110 1.312 . S
C110 H81 0.930 . S
C110 C105 1.261 . S
C110 C109 1.312 . S
C111 O83 1.214 . S
C111 O91 1.234 . S
C112 H84 0.929 . S
C112 C115 1.391 . S
C112 C117 1.391 . S
C113 H85 0.929 . S
C113 C114 1.390 . S
C113 N116 1.391 . S
C114 H86 0.930 . S
C114 C113 1.390 . S
C114 C115 1.392 . S
C115 H87 0.929 . S
C115 C112 1.391 . S
C115 C114 1.392 . S
N116 Co60 2.257 . S
N116 C113 1.391 . S
N116 C117 1.388 . S
C117 H88 0.930 . S
C117 C112 1.391 . S
C117 N116 1.388 . S
Co118 O120 2.143 . S
Co118 O126 2.074 . S
Co118 O129 2.093 . S
Co118 O142 2.097 . S
Co118 N159 2.151 . S
Co118 N167 2.214 . S
Co119 O120 2.160 . S
Co119 O125 2.058 . S
Co119 O135 2.057 . S
Co119 O150 2.037 . S
Co119 N154 2.145 . S
Co119 N175 2.257 . S
O120 Co118 2.143 . S
O120 Co119 2.160 . S
C121 O122 1.278 . S
C121 O129 1.224 . S
O122 C121 1.278 . S
C123 O124 1.245 . S
C123 O135 1.232 . S
O124 C123 1.245 . S
O125 Co119 2.058 . S
O125 C151 1.269 . S
O126 Co118 2.074 . S
O126 C151 1.257 . S
H127 C152 0.930 . S
H128 C158 0.930 . S
O129 Co118 2.093 . S
O129 C121 1.224 . S
H130 C162 0.929 . S
H131 C164 0.930 . S
H132 C165 0.930 . S
H133 C163 0.929 . S
H134 C166 0.928 . S
O135 Co119 2.057 . S
O135 C123 1.232 . S
H136 C155 0.929 . S
H137 C156 0.929 . S
H138 C168 0.931 . S
H139 C160 0.929 . S
H140 C169 0.930 . S
H141 C161 0.931 . S
O142 Co118 2.097 . S
O142 C170 1.214 . S
H143 C171 0.929 . S
H144 C172 0.929 . S
H145 C173 0.930 . S
H146 C174 0.929 . S
H147 C176 0.930 . S
H148 C153 0.930 . S
H149 C157 0.930 . S
O150 Co119 2.037 . S
O150 C170 1.234 . S
C151 O125 1.269 . S
C151 O126 1.257 . S
C152 H127 0.930 . S
C152 C155 1.388 . S
C152 C157 1.418 . S
C153 H148 0.930 . S
C153 C156 1.404 . S
C153 C157 1.353 . S
N154 Co119 2.145 . S
N154 C155 1.397 . S
N154 C156 1.334 . S
C155 H136 0.929 . S
C155 C152 1.388 . S
C155 N154 1.397 . S
C156 H137 0.929 . S
C156 C153 1.404 . S
C156 N154 1.334 . S
C157 H149 0.930 . S
C157 C152 1.418 . S
C157 C153 1.353 . S
C158 H128 0.930 . S
C158 N159 1.330 . S
C158 C160 1.446 . S
N159 Co118 2.151 . S
N159 C158 1.330 . S
N159 C163 1.418 . S
C160 H139 0.929 . S
C160 C158 1.446 . S
C160 C161 1.332 . S
C161 H141 0.931 . S
C161 C160 1.332 . S
C161 C162 1.267 . S
C162 H130 0.929 . S
C162 C161 1.267 . S
C162 C163 1.251 . S
C163 H133 0.929 . S
C163 N159 1.418 . S
C163 C162 1.251 . S
C164 H131 0.930 . S
C164 C166 1.406 . S
C164 C169 1.261 . S
C165 H132 0.930 . S
C165 N167 1.325 . S
C165 C168 1.357 . S
C166 H134 0.928 . S
C166 C164 1.406 . S
C166 N167 1.261 . S
N167 Co118 2.214 . S
N167 C165 1.325 . S
N167 C166 1.261 . S
C168 H138 0.931 . S
C168 C165 1.357 . S
C168 C169 1.312 . S
C169 H140 0.930 . S
C169 C164 1.261 . S
C169 C168 1.312 . S
C170 O142 1.214 . S
C170 O150 1.234 . S
C171 H143 0.929 . S
C171 C174 1.391 . S
C171 C176 1.391 . S
C172 H144 0.929 . S
C172 C173 1.390 . S
C172 N175 1.391 . S
C173 H145 0.930 . S
C173 C172 1.390 . S
C173 C174 1.392 . S
C174 H146 0.929 . S
C174 C171 1.391 . S
C174 C173 1.392 . S
N175 Co119 2.257 . S
N175 C172 1.391 . S
N175 C176 1.388 . S
C176 H147 0.930 . S
C176 C171 1.391 . S
C176 N175 1.388 . S
Co177 O179 2.143 . S
Co177 O185 2.074 . S
Co177 O188 2.093 . S
Co177 O201 2.097 . S
Co177 N218 2.151 . S
Co177 N226 2.214 . S
Co178 O179 2.160 . S
Co178 O184 2.058 . S
Co178 O194 2.057 . S
Co178 O209 2.037 . S
Co178 N213 2.145 . S
Co178 N234 2.257 . S
O179 Co177 2.143 . S
O179 Co178 2.160 . S
C180 O181 1.278 . S
C180 O188 1.224 . S
O181 C180 1.278 . S
C182 O183 1.245 . S
C182 O194 1.232 . S
O183 C182 1.245 . S
O184 Co178 2.058 . S
O184 C210 1.269 . S
O185 Co177 2.074 . S
O185 C210 1.257 . S
H186 C211 0.930 . S
H187 C217 0.930 . S
O188 Co177 2.093 . S
O188 C180 1.224 . S
H189 C221 0.929 . S
H190 C223 0.930 . S
H191 C224 0.930 . S
H192 C222 0.929 . S
H193 C225 0.928 . S
O194 Co178 2.057 . S
O194 C182 1.232 . S
H195 C214 0.929 . S
H196 C215 0.929 . S
H197 C227 0.931 . S
H198 C219 0.929 . S
H199 C228 0.930 . S
H200 C220 0.931 . S
O201 Co177 2.097 . S
O201 C229 1.214 . S
H202 C230 0.929 . S
H203 C231 0.929 . S
H204 C232 0.930 . S
H205 C233 0.929 . S
H206 C235 0.930 . S
H207 C212 0.930 . S
H208 C216 0.930 . S
O209 Co178 2.037 . S
O209 C229 1.234 . S
C210 O184 1.269 . S
C210 O185 1.257 . S
C211 H186 0.930 . S
C211 C214 1.388 . S
C211 C216 1.418 . S
C212 H207 0.930 . S
C212 C215 1.404 . S
C212 C216 1.353 . S
N213 Co178 2.145 . S
N213 C214 1.397 . S
N213 C215 1.334 . S
C214 H195 0.929 . S
C214 C211 1.388 . S
C214 N213 1.397 . S
C215 H196 0.929 . S
C215 C212 1.404 . S
C215 N213 1.334 . S
C216 H208 0.930 . S
C216 C211 1.418 . S
C216 C212 1.353 . S
C217 H187 0.930 . S
C217 N218 1.330 . S
C217 C219 1.446 . S
N218 Co177 2.151 . S
N218 C217 1.330 . S
N218 C222 1.418 . S
C219 H198 0.929 . S
C219 C217 1.446 . S
C219 C220 1.332 . S
C220 H200 0.931 . S
C220 C219 1.332 . S
C220 C221 1.267 . S
C221 H189 0.929 . S
C221 C220 1.267 . S
C221 C222 1.251 . S
C222 H192 0.929 . S
C222 N218 1.418 . S
C222 C221 1.251 . S
C223 H190 0.930 . S
C223 C225 1.406 . S
C223 C228 1.261 . S
C224 H191 0.930 . S
C224 N226 1.325 . S
C224 C227 1.357 . S
C225 H193 0.928 . S
C225 C223 1.406 . S
C225 N226 1.261 . S
N226 Co177 2.214 . S
N226 C224 1.325 . S
N226 C225 1.261 . S
C227 H197 0.931 . S
C227 C224 1.357 . S
C227 C228 1.312 . S
C228 H199 0.930 . S
C228 C223 1.261 . S
C228 C227 1.312 . S
C229 O201 1.214 . S
C229 O209 1.234 . S
C230 H202 0.929 . S
C230 C233 1.391 . S
C230 C235 1.391 . S
C231 H203 0.929 . S
C231 C232 1.390 . S
C231 N234 1.391 . S
C232 H204 0.930 . S
C232 C231 1.390 . S
C232 C233 1.392 . S
C233 H205 0.929 . S
C233 C230 1.391 . S
C233 C232 1.392 . S
N234 Co178 2.257 . S
N234 C231 1.391 . S
N234 C235 1.388 . S
C235 H206 0.930 . S
C235 C230 1.391 . S
C235 N234 1.388 . S
Co236 O238 2.143 . S
Co236 O244 2.074 . S
Co236 O247 2.093 . S
Co236 O260 2.097 . S
Co236 N277 2.151 . S
Co236 N285 2.214 . S
Co237 O238 2.160 . S
Co237 O243 2.058 . S
Co237 O253 2.057 . S
Co237 O268 2.037 . S
Co237 N272 2.145 . S
Co237 N293 2.257 . S
O238 Co236 2.143 . S
O238 Co237 2.160 . S
C239 O240 1.278 . S
C239 O247 1.224 . S
O240 C239 1.278 . S
C241 O242 1.245 . S
C241 O253 1.232 . S
O242 C241 1.245 . S
O243 Co237 2.058 . S
O243 C269 1.269 . S
O244 Co236 2.074 . S
O244 C269 1.257 . S
H245 C270 0.930 . S
H246 C276 0.930 . S
O247 Co236 2.093 . S
O247 C239 1.224 . S
H248 C280 0.929 . S
H249 C282 0.930 . S
H250 C283 0.930 . S
H251 C281 0.929 . S
H252 C284 0.928 . S
O253 Co237 2.057 . S
O253 C241 1.232 . S
H254 C273 0.929 . S
H255 C274 0.929 . S
H256 C286 0.931 . S
H257 C278 0.929 . S
H258 C287 0.930 . S
H259 C279 0.931 . S
O260 Co236 2.097 . S
O260 C288 1.214 . S
H261 C289 0.929 . S
H262 C290 0.929 . S
H263 C291 0.930 . S
H264 C292 0.929 . S
H265 C294 0.930 . S
H266 C271 0.930 . S
H267 C275 0.930 . S
O268 Co237 2.037 . S
O268 C288 1.234 . S
C269 O243 1.269 . S
C269 O244 1.257 . S
C270 H245 0.930 . S
C270 C273 1.388 . S
C270 C275 1.418 . S
C271 H266 0.930 . S
C271 C274 1.404 . S
C271 C275 1.353 . S
N272 Co237 2.145 . S
N272 C273 1.397 . S
N272 C274 1.334 . S
C273 H254 0.929 . S
C273 C270 1.388 . S
C273 N272 1.397 . S
C274 H255 0.929 . S
C274 C271 1.404 . S
C274 N272 1.334 . S
C275 H267 0.930 . S
C275 C270 1.418 . S
C275 C271 1.353 . S
C276 H246 0.930 . S
C276 N277 1.330 . S
C276 C278 1.446 . S
N277 Co236 2.151 . S
N277 C276 1.330 . S
N277 C281 1.418 . S
C278 H257 0.929 . S
C278 C276 1.446 . S
C278 C279 1.332 . S
C279 H259 0.931 . S
C279 C278 1.332 . S
C279 C280 1.267 . S
C280 H248 0.929 . S
C280 C279 1.267 . S
C280 C281 1.251 . S
C281 H251 0.929 . S
C281 N277 1.418 . S
C281 C280 1.251 . S
C282 H249 0.930 . S
C282 C284 1.406 . S
C282 C287 1.261 . S
C283 H250 0.930 . S
C283 N285 1.325 . S
C283 C286 1.357 . S
C284 H252 0.928 . S
C284 C282 1.406 . S
C284 N285 1.261 . S
N285 Co236 2.214 . S
N285 C283 1.325 . S
N285 C284 1.261 . S
C286 H256 0.931 . S
C286 C283 1.357 . S
C286 C287 1.312 . S
C287 H258 0.930 . S
C287 C282 1.261 . S
C287 C286 1.312 . S
C288 O260 1.214 . S
C288 O268 1.234 . S
C289 H261 0.929 . S
C289 C292 1.391 . S
C289 C294 1.391 . S
C290 H262 0.929 . S
C290 C291 1.390 . S
C290 N293 1.391 . S
C291 H263 0.930 . S
C291 C290 1.390 . S
C291 C292 1.392 . S
C292 H264 0.929 . S
C292 C289 1.391 . S
C292 C291 1.392 . S
N293 Co237 2.257 . S
N293 C290 1.391 . S
N293 C294 1.388 . S
C294 H265 0.930 . S
C294 C289 1.391 . S
C294 N293 1.388 . S
Co295 O297 2.143 . S
Co295 O303 2.074 . S
Co295 O306 2.093 . S
Co295 O319 2.097 . S
Co295 N336 2.151 . S
Co295 N344 2.214 . S
Co296 O297 2.160 . S
Co296 O302 2.058 . S
Co296 O312 2.057 . S
Co296 O327 2.037 . S
Co296 N331 2.145 . S
Co296 N352 2.257 . S
O297 Co295 2.143 . S
O297 Co296 2.160 . S
C298 O299 1.278 . S
C298 O306 1.224 . S
O299 C298 1.278 . S
C300 O301 1.245 . S
C300 O312 1.232 . S
O301 C300 1.245 . S
O302 Co296 2.058 . S
O302 C328 1.269 . S
O303 Co295 2.074 . S
O303 C328 1.257 . S
H304 C329 0.930 . S
H305 C335 0.930 . S
O306 Co295 2.093 . S
O306 C298 1.224 . S
H307 C339 0.929 . S
H308 C341 0.930 . S
H309 C342 0.930 . S
H310 C340 0.929 . S
H311 C343 0.928 . S
O312 Co296 2.057 . S
O312 C300 1.232 . S
H313 C332 0.929 . S
H314 C333 0.929 . S
H315 C345 0.931 . S
H316 C337 0.929 . S
H317 C346 0.930 . S
H318 C338 0.931 . S
O319 Co295 2.097 . S
O319 C347 1.214 . S
H320 C348 0.929 . S
H321 C349 0.929 . S
H322 C350 0.930 . S
H323 C351 0.929 . S
H324 C353 0.930 . S
H325 C330 0.930 . S
H326 C334 0.930 . S
O327 Co296 2.037 . S
O327 C347 1.234 . S
C328 O302 1.269 . S
C328 O303 1.257 . S
C329 H304 0.930 . S
C329 C332 1.388 . S
C329 C334 1.418 . S
C330 H325 0.930 . S
C330 C333 1.404 . S
C330 C334 1.353 . S
N331 Co296 2.145 . S
N331 C332 1.397 . S
N331 C333 1.334 . S
C332 H313 0.929 . S
C332 C329 1.388 . S
C332 N331 1.397 . S
C333 H314 0.929 . S
C333 C330 1.404 . S
C333 N331 1.334 . S
C334 H326 0.930 . S
C334 C329 1.418 . S
C334 C330 1.353 . S
C335 H305 0.930 . S
C335 N336 1.330 . S
C335 C337 1.446 . S
N336 Co295 2.151 . S
N336 C335 1.330 . S
N336 C340 1.418 . S
C337 H316 0.929 . S
C337 C335 1.446 . S
C337 C338 1.332 . S
C338 H318 0.931 . S
C338 C337 1.332 . S
C338 C339 1.267 . S
C339 H307 0.929 . S
C339 C338 1.267 . S
C339 C340 1.251 . S
C340 H310 0.929 . S
C340 N336 1.418 . S
C340 C339 1.251 . S
C341 H308 0.930 . S
C341 C343 1.406 . S
C341 C346 1.261 . S
C342 H309 0.930 . S
C342 N344 1.325 . S
C342 C345 1.357 . S
C343 H311 0.928 . S
C343 C341 1.406 . S
C343 N344 1.261 . S
N344 Co295 2.214 . S
N344 C342 1.325 . S
N344 C343 1.261 . S
C345 H315 0.931 . S
C345 C342 1.357 . S
C345 C346 1.312 . S
C346 H317 0.930 . S
C346 C341 1.261 . S
C346 C345 1.312 . S
C347 O319 1.214 . S
C347 O327 1.234 . S
C348 H320 0.929 . S
C348 C351 1.391 . S
C348 C353 1.391 . S
C349 H321 0.929 . S
C349 C350 1.390 . S
C349 N352 1.391 . S
C350 H322 0.930 . S
C350 C349 1.390 . S
C350 C351 1.392 . S
C351 H323 0.929 . S
C351 C348 1.391 . S
C351 C350 1.392 . S
N352 Co296 2.257 . S
N352 C349 1.391 . S
N352 C353 1.388 . S
C353 H324 0.930 . S
C353 C348 1.391 . S
C353 N352 1.388 . S
Co354 O356 2.143 . S
Co354 O362 2.074 . S
Co354 O365 2.093 . S
Co354 O378 2.097 . S
Co354 N395 2.151 . S
Co354 N403 2.214 . S
Co355 O356 2.160 . S
Co355 O361 2.058 . S
Co355 O371 2.057 . S
Co355 O386 2.037 . S
Co355 N390 2.145 . S
Co355 N411 2.257 . S
O356 Co354 2.143 . S
O356 Co355 2.160 . S
C357 O358 1.278 . S
C357 O365 1.224 . S
O358 C357 1.278 . S
C359 O360 1.245 . S
C359 O371 1.232 . S
O360 C359 1.245 . S
O361 Co355 2.058 . S
O361 C387 1.269 . S
O362 Co354 2.074 . S
O362 C387 1.257 . S
H363 C388 0.930 . S
H364 C394 0.930 . S
O365 Co354 2.093 . S
O365 C357 1.224 . S
H366 C398 0.929 . S
H367 C400 0.930 . S
H368 C401 0.930 . S
H369 C399 0.929 . S
H370 C402 0.928 . S
O371 Co355 2.057 . S
O371 C359 1.232 . S
H372 C391 0.929 . S
H373 C392 0.929 . S
H374 C404 0.931 . S
H375 C396 0.929 . S
H376 C405 0.930 . S
H377 C397 0.931 . S
O378 Co354 2.097 . S
O378 C406 1.214 . S
H379 C407 0.929 . S
H380 C408 0.929 . S
H381 C409 0.930 . S
H382 C410 0.929 . S
H383 C412 0.930 . S
H384 C389 0.930 . S
H385 C393 0.930 . S
O386 Co355 2.037 . S
O386 C406 1.234 . S
C387 O361 1.269 . S
C387 O362 1.257 . S
C388 H363 0.930 . S
C388 C391 1.388 . S
C388 C393 1.418 . S
C389 H384 0.930 . S
C389 C392 1.404 . S
C389 C393 1.353 . S
N390 Co355 2.145 . S
N390 C391 1.397 . S
N390 C392 1.334 . S
C391 H372 0.929 . S
C391 C388 1.388 . S
C391 N390 1.397 . S
C392 H373 0.929 . S
C392 C389 1.404 . S
C392 N390 1.334 . S
C393 H385 0.930 . S
C393 C388 1.418 . S
C393 C389 1.353 . S
C394 H364 0.930 . S
C394 N395 1.330 . S
C394 C396 1.446 . S
N395 Co354 2.151 . S
N395 C394 1.330 . S
N395 C399 1.418 . S
C396 H375 0.929 . S
C396 C394 1.446 . S
C396 C397 1.332 . S
C397 H377 0.931 . S
C397 C396 1.332 . S
C397 C398 1.267 . S
C398 H366 0.929 . S
C398 C397 1.267 . S
C398 C399 1.251 . S
C399 H369 0.929 . S
C399 N395 1.418 . S
C399 C398 1.251 . S
C400 H367 0.930 . S
C400 C402 1.406 . S
C400 C405 1.261 . S
C401 H368 0.930 . S
C401 N403 1.325 . S
C401 C404 1.357 . S
C402 H370 0.928 . S
C402 C400 1.406 . S
C402 N403 1.261 . S
N403 Co354 2.214 . S
N403 C401 1.325 . S
N403 C402 1.261 . S
C404 H374 0.931 . S
C404 C401 1.357 . S
C404 C405 1.312 . S
C405 H376 0.930 . S
C405 C400 1.261 . S
C405 C404 1.312 . S
C406 O378 1.214 . S
C406 O386 1.234 . S
C407 H379 0.929 . S
C407 C410 1.391 . S
C407 C412 1.391 . S
C408 H380 0.929 . S
C408 C409 1.390 . S
C408 N411 1.391 . S
C409 H381 0.930 . S
C409 C408 1.390 . S
C409 C410 1.392 . S
C410 H382 0.929 . S
C410 C407 1.391 . S
C410 C409 1.392 . S
N411 Co355 2.257 . S
N411 C408 1.391 . S
N411 C412 1.388 . S
C412 H383 0.930 . S
C412 C407 1.391 . S
C412 N411 1.388 . S
Co413 O415 2.143 . S
Co413 O421 2.074 . S
Co413 O424 2.093 . S
Co413 O437 2.097 . S
Co413 N454 2.151 . S
Co413 N462 2.214 . S
Co414 O415 2.160 . S
Co414 O420 2.058 . S
Co414 O430 2.057 . S
Co414 O445 2.037 . S
Co414 N449 2.145 . S
Co414 N470 2.257 . S
O415 Co413 2.143 . S
O415 Co414 2.160 . S
C416 O417 1.278 . S
C416 O424 1.224 . S
O417 C416 1.278 . S
C418 O419 1.245 . S
C418 O430 1.232 . S
O419 C418 1.245 . S
O420 Co414 2.058 . S
O420 C446 1.269 . S
O421 Co413 2.074 . S
O421 C446 1.257 . S
H422 C447 0.930 . S
H423 C453 0.930 . S
O424 Co413 2.093 . S
O424 C416 1.224 . S
H425 C457 0.929 . S
H426 C459 0.930 . S
H427 C460 0.930 . S
H428 C458 0.929 . S
H429 C461 0.928 . S
O430 Co414 2.057 . S
O430 C418 1.232 . S
H431 C450 0.929 . S
H432 C451 0.929 . S
H433 C463 0.931 . S
H434 C455 0.929 . S
H435 C464 0.930 . S
H436 C456 0.931 . S
O437 Co413 2.097 . S
O437 C465 1.214 . S
H438 C466 0.929 . S
H439 C467 0.929 . S
H440 C468 0.930 . S
H441 C469 0.929 . S
H442 C471 0.930 . S
H443 C448 0.930 . S
H444 C452 0.930 . S
O445 Co414 2.037 . S
O445 C465 1.234 . S
C446 O420 1.269 . S
C446 O421 1.257 . S
C447 H422 0.930 . S
C447 C450 1.388 . S
C447 C452 1.418 . S
C448 H443 0.930 . S
C448 C451 1.404 . S
C448 C452 1.353 . S
N449 Co414 2.145 . S
N449 C450 1.397 . S
N449 C451 1.334 . S
C450 H431 0.929 . S
C450 C447 1.388 . S
C450 N449 1.397 . S
C451 H432 0.929 . S
C451 C448 1.404 . S
C451 N449 1.334 . S
C452 H444 0.930 . S
C452 C447 1.418 . S
C452 C448 1.353 . S
C453 H423 0.930 . S
C453 N454 1.330 . S
C453 C455 1.446 . S
N454 Co413 2.151 . S
N454 C453 1.330 . S
N454 C458 1.418 . S
C455 H434 0.929 . S
C455 C453 1.446 . S
C455 C456 1.332 . S
C456 H436 0.931 . S
C456 C455 1.332 . S
C456 C457 1.267 . S
C457 H425 0.929 . S
C457 C456 1.267 . S
C457 C458 1.251 . S
C458 H428 0.929 . S
C458 N454 1.418 . S
C458 C457 1.251 . S
C459 H426 0.930 . S
C459 C461 1.406 . S
C459 C464 1.261 . S
C460 H427 0.930 . S
C460 N462 1.325 . S
C460 C463 1.357 . S
C461 H429 0.928 . S
C461 C459 1.406 . S
C461 N462 1.261 . S
N462 Co413 2.214 . S
N462 C460 1.325 . S
N462 C461 1.261 . S
C463 H433 0.931 . S
C463 C460 1.357 . S
C463 C464 1.312 . S
C464 H435 0.930 . S
C464 C459 1.261 . S
C464 C463 1.312 . S
C465 O437 1.214 . S
C465 O445 1.234 . S
C466 H438 0.929 . S
C466 C469 1.391 . S
C466 C471 1.391 . S
C467 H439 0.929 . S
C467 C468 1.390 . S
C467 N470 1.391 . S
C468 H440 0.930 . S
C468 C467 1.390 . S
C468 C469 1.392 . S
C469 H441 0.929 . S
C469 C466 1.391 . S
C469 C468 1.392 . S
N470 Co414 2.257 . S
N470 C467 1.391 . S
N470 C471 1.388 . S
C471 H442 0.930 . S
C471 C466 1.391 . S
C471 N470 1.388 . S
Co472 O474 2.143 . S
Co472 O480 2.074 . S
Co472 O483 2.093 . S
Co472 O496 2.097 . S
Co472 N513 2.151 . S
Co472 N521 2.214 . S
Co473 O474 2.160 . S
Co473 O479 2.058 . S
Co473 O489 2.057 . S
Co473 O504 2.037 . S
Co473 N508 2.145 . S
Co473 N529 2.257 . S
O474 Co472 2.143 . S
O474 Co473 2.160 . S
C475 O476 1.278 . S
C475 O483 1.224 . S
O476 C475 1.278 . S
C477 O478 1.245 . S
C477 O489 1.232 . S
O478 C477 1.245 . S
O479 Co473 2.058 . S
O479 C505 1.269 . S
O480 Co472 2.074 . S
O480 C505 1.257 . S
H481 C506 0.930 . S
H482 C512 0.930 . S
O483 Co472 2.093 . S
O483 C475 1.224 . S
H484 C516 0.929 . S
H485 C518 0.930 . S
H486 C519 0.930 . S
H487 C517 0.929 . S
H488 C520 0.928 . S
O489 Co473 2.057 . S
O489 C477 1.232 . S
H490 C509 0.929 . S
H491 C510 0.929 . S
H492 C522 0.931 . S
H493 C514 0.929 . S
H494 C523 0.930 . S
H495 C515 0.931 . S
O496 Co472 2.097 . S
O496 C524 1.214 . S
H497 C525 0.929 . S
H498 C526 0.929 . S
H499 C527 0.930 . S
H500 C528 0.929 . S
H501 C530 0.930 . S
H502 C507 0.930 . S
H503 C511 0.930 . S
O504 Co473 2.037 . S
O504 C524 1.234 . S
C505 O479 1.269 . S
C505 O480 1.257 . S
C506 H481 0.930 . S
C506 C509 1.388 . S
C506 C511 1.418 . S
C507 H502 0.930 . S
C507 C510 1.404 . S
C507 C511 1.353 . S
N508 Co473 2.145 . S
N508 C509 1.397 . S
N508 C510 1.334 . S
C509 H490 0.929 . S
C509 C506 1.388 . S
C509 N508 1.397 . S
C510 H491 0.929 . S
C510 C507 1.404 . S
C510 N508 1.334 . S
C511 H503 0.930 . S
C511 C506 1.418 . S
C511 C507 1.353 . S
C512 H482 0.930 . S
C512 N513 1.330 . S
C512 C514 1.446 . S
N513 Co472 2.151 . S
N513 C512 1.330 . S
N513 C517 1.418 . S
C514 H493 0.929 . S
C514 C512 1.446 . S
C514 C515 1.332 . S
C515 H495 0.931 . S
C515 C514 1.332 . S
C515 C516 1.267 . S
C516 H484 0.929 . S
C516 C515 1.267 . S
C516 C517 1.251 . S
C517 H487 0.929 . S
C517 N513 1.418 . S
C517 C516 1.251 . S
C518 H485 0.930 . S
C518 C520 1.406 . S
C518 C523 1.261 . S
C519 H486 0.930 . S
C519 N521 1.325 . S
C519 C522 1.357 . S
C520 H488 0.928 . S
C520 C518 1.406 . S
C520 N521 1.261 . S
N521 Co472 2.214 . S
N521 C519 1.325 . S
N521 C520 1.261 . S
C522 H492 0.931 . S
C522 C519 1.357 . S
C522 C523 1.312 . S
C523 H494 0.930 . S
C523 C518 1.261 . S
C523 C522 1.312 . S
C524 O496 1.214 . S
C524 O504 1.234 . S
C525 H497 0.929 . S
C525 C528 1.391 . S
C525 C530 1.391 . S
C526 H498 0.929 . S
C526 C527 1.390 . S
C526 N529 1.391 . S
C527 H499 0.930 . S
C527 C526 1.390 . S
C527 C528 1.392 . S
C528 H500 0.929 . S
C528 C525 1.391 . S
C528 C527 1.392 . S
N529 Co473 2.257 . S
N529 C526 1.391 . S
N529 C530 1.388 . S
C530 H501 0.930 . S
C530 C525 1.391 . S
C530 N529 1.388 . S
Co531 O533 2.143 . S
Co531 O539 2.074 . S
Co531 O542 2.093 . S
Co531 O555 2.097 . S
Co531 N572 2.151 . S
Co531 N580 2.214 . S
Co532 O533 2.160 . S
Co532 O538 2.058 . S
Co532 O548 2.057 . S
Co532 O563 2.037 . S
Co532 N567 2.145 . S
Co532 N588 2.257 . S
O533 Co531 2.143 . S
O533 Co532 2.160 . S
C534 O535 1.278 . S
C534 O542 1.224 . S
O535 C534 1.278 . S
C536 O537 1.245 . S
C536 O548 1.232 . S
O537 C536 1.245 . S
O538 Co532 2.058 . S
O538 C564 1.269 . S
O539 Co531 2.074 . S
O539 C564 1.257 . S
H540 C565 0.930 . S
H541 C571 0.930 . S
O542 Co531 2.093 . S
O542 C534 1.224 . S
H543 C575 0.929 . S
H544 C577 0.930 . S
H545 C578 0.930 . S
H546 C576 0.929 . S
H547 C579 0.928 . S
O548 Co532 2.057 . S
O548 C536 1.232 . S
H549 C568 0.929 . S
H550 C569 0.929 . S
H551 C581 0.931 . S
H552 C573 0.929 . S
H553 C582 0.930 . S
H554 C574 0.931 . S
O555 Co531 2.097 . S
O555 C583 1.214 . S
H556 C584 0.929 . S
H557 C585 0.929 . S
H558 C586 0.930 . S
H559 C587 0.929 . S
H560 C589 0.930 . S
H561 C566 0.930 . S
H562 C570 0.930 . S
O563 Co532 2.037 . S
O563 C583 1.234 . S
C564 O538 1.269 . S
C564 O539 1.257 . S
C565 H540 0.930 . S
C565 C568 1.388 . S
C565 C570 1.418 . S
C566 H561 0.930 . S
C566 C569 1.404 . S
C566 C570 1.353 . S
N567 Co532 2.145 . S
N567 C568 1.397 . S
N567 C569 1.334 . S
C568 H549 0.929 . S
C568 C565 1.388 . S
C568 N567 1.397 . S
C569 H550 0.929 . S
C569 C566 1.404 . S
C569 N567 1.334 . S
C570 H562 0.930 . S
C570 C565 1.418 . S
C570 C566 1.353 . S
C571 H541 0.930 . S
C571 N572 1.330 . S
C571 C573 1.446 . S
N572 Co531 2.151 . S
N572 C571 1.330 . S
N572 C576 1.418 . S
C573 H552 0.929 . S
C573 C571 1.446 . S
C573 C574 1.332 . S
C574 H554 0.931 . S
C574 C573 1.332 . S
C574 C575 1.267 . S
C575 H543 0.929 . S
C575 C574 1.267 . S
C575 C576 1.251 . S
C576 H546 0.929 . S
C576 N572 1.418 . S
C576 C575 1.251 . S
C577 H544 0.930 . S
C577 C579 1.406 . S
C577 C582 1.261 . S
C578 H545 0.930 . S
C578 N580 1.325 . S
C578 C581 1.357 . S
C579 H547 0.928 . S
C579 C577 1.406 . S
C579 N580 1.261 . S
N580 Co531 2.214 . S
N580 C578 1.325 . S
N580 C579 1.261 . S
C581 H551 0.931 . S
C581 C578 1.357 . S
C581 C582 1.312 . S
C582 H553 0.930 . S
C582 C577 1.261 . S
C582 C581 1.312 . S
C583 O555 1.214 . S
C583 O563 1.234 . S
C584 H556 0.929 . S
C584 C587 1.391 . S
C584 C589 1.391 . S
C585 H557 0.929 . S
C585 C586 1.390 . S
C585 N588 1.391 . S
C586 H558 0.930 . S
C586 C585 1.390 . S
C586 C587 1.392 . S
C587 H559 0.929 . S
C587 C584 1.391 . S
C587 C586 1.392 . S
N588 Co532 2.257 . S
N588 C585 1.391 . S
N588 C589 1.388 . S
C589 H560 0.930 . S
C589 C584 1.391 . S
C589 N588 1.388 . S
Co590 O592 2.143 . S
Co590 O598 2.074 . S
Co590 O601 2.093 . S
Co590 O614 2.097 . S
Co590 N631 2.151 . S
Co590 N639 2.214 . S
Co591 O592 2.160 . S
Co591 O597 2.058 . S
Co591 O607 2.057 . S
Co591 O622 2.037 . S
Co591 N626 2.145 . S
Co591 N647 2.257 . S
O592 Co590 2.143 . S
O592 Co591 2.160 . S
C593 O594 1.278 . S
C593 O601 1.224 . S
O594 C593 1.278 . S
C595 O596 1.245 . S
C595 O607 1.232 . S
O596 C595 1.245 . S
O597 Co591 2.058 . S
O597 C623 1.269 . S
O598 Co590 2.074 . S
O598 C623 1.257 . S
H599 C624 0.930 . S
H600 C630 0.930 . S
O601 Co590 2.093 . S
O601 C593 1.224 . S
H602 C634 0.929 . S
H603 C636 0.930 . S
H604 C637 0.930 . S
H605 C635 0.929 . S
H606 C638 0.928 . S
O607 Co591 2.057 . S
O607 C595 1.232 . S
H608 C627 0.929 . S
H609 C628 0.929 . S
H610 C640 0.931 . S
H611 C632 0.929 . S
H612 C641 0.930 . S
H613 C633 0.931 . S
O614 Co590 2.097 . S
O614 C642 1.214 . S
H615 C643 0.929 . S
H616 C644 0.929 . S
H617 C645 0.930 . S
H618 C646 0.929 . S
H619 C648 0.930 . S
H620 C625 0.930 . S
H621 C629 0.930 . S
O622 Co591 2.037 . S
O622 C642 1.234 . S
C623 O597 1.269 . S
C623 O598 1.257 . S
C624 H599 0.930 . S
C624 C627 1.388 . S
C624 C629 1.418 . S
C625 H620 0.930 . S
C625 C628 1.404 . S
C625 C629 1.353 . S
N626 Co591 2.145 . S
N626 C627 1.397 . S
N626 C628 1.334 . S
C627 H608 0.929 . S
C627 C624 1.388 . S
C627 N626 1.397 . S
C628 H609 0.929 . S
C628 C625 1.404 . S
C628 N626 1.334 . S
C629 H621 0.930 . S
C629 C624 1.418 . S
C629 C625 1.353 . S
C630 H600 0.930 . S
C630 N631 1.330 . S
C630 C632 1.446 . S
N631 Co590 2.151 . S
N631 C630 1.330 . S
N631 C635 1.418 . S
C632 H611 0.929 . S
C632 C630 1.446 . S
C632 C633 1.332 . S
C633 H613 0.931 . S
C633 C632 1.332 . S
C633 C634 1.267 . S
C634 H602 0.929 . S
C634 C633 1.267 . S
C634 C635 1.251 . S
C635 H605 0.929 . S
C635 N631 1.418 . S
C635 C634 1.251 . S
C636 H603 0.930 . S
C636 C638 1.406 . S
C636 C641 1.261 . S
C637 H604 0.930 . S
C637 N639 1.325 . S
C637 C640 1.357 . S
C638 H606 0.928 . S
C638 C636 1.406 . S
C638 N639 1.261 . S
N639 Co590 2.214 . S
N639 C637 1.325 . S
N639 C638 1.261 . S
C640 H610 0.931 . S
C640 C637 1.357 . S
C640 C641 1.312 . S
C641 H612 0.930 . S
C641 C636 1.261 . S
C641 C640 1.312 . S
C642 O614 1.214 . S
C642 O622 1.234 . S
C643 H615 0.929 . S
C643 C646 1.391 . S
C643 C648 1.391 . S
C644 H616 0.929 . S
C644 C645 1.390 . S
C644 N647 1.391 . S
C645 H617 0.930 . S
C645 C644 1.390 . S
C645 C646 1.392 . S
C646 H618 0.929 . S
C646 C643 1.391 . S
C646 C645 1.392 . S
N647 Co591 2.257 . S
N647 C644 1.391 . S
N647 C648 1.388 . S
C648 H619 0.930 . S
C648 C643 1.391 . S
C648 N647 1.388 . S
Co649 O651 2.143 . S
Co649 O657 2.074 . S
Co649 O660 2.093 . S
Co649 O673 2.097 . S
Co649 N690 2.151 . S
Co649 N698 2.214 . S
Co650 O651 2.160 . S
Co650 O656 2.058 . S
Co650 O666 2.057 . S
Co650 O681 2.037 . S
Co650 N685 2.145 . S
Co650 N706 2.257 . S
O651 Co649 2.143 . S
O651 Co650 2.160 . S
C652 O653 1.278 . S
C652 O660 1.224 . S
O653 C652 1.278 . S
C654 O655 1.245 . S
C654 O666 1.232 . S
O655 C654 1.245 . S
O656 Co650 2.058 . S
O656 C682 1.269 . S
O657 Co649 2.074 . S
O657 C682 1.257 . S
H658 C683 0.930 . S
H659 C689 0.930 . S
O660 Co649 2.093 . S
O660 C652 1.224 . S
H661 C693 0.929 . S
H662 C695 0.930 . S
H663 C696 0.930 . S
H664 C694 0.929 . S
H665 C697 0.928 . S
O666 Co650 2.057 . S
O666 C654 1.232 . S
H667 C686 0.929 . S
H668 C687 0.929 . S
H669 C699 0.931 . S
H670 C691 0.929 . S
H671 C700 0.930 . S
H672 C692 0.931 . S
O673 Co649 2.097 . S
O673 C701 1.214 . S
H674 C702 0.929 . S
H675 C703 0.929 . S
H676 C704 0.930 . S
H677 C705 0.929 . S
H678 C707 0.930 . S
H679 C684 0.930 . S
H680 C688 0.930 . S
O681 Co650 2.037 . S
O681 C701 1.234 . S
C682 O656 1.269 . S
C682 O657 1.257 . S
C683 H658 0.930 . S
C683 C686 1.388 . S
C683 C688 1.418 . S
C684 H679 0.930 . S
C684 C687 1.404 . S
C684 C688 1.353 . S
N685 Co650 2.145 . S
N685 C686 1.397 . S
N685 C687 1.334 . S
C686 H667 0.929 . S
C686 C683 1.388 . S
C686 N685 1.397 . S
C687 H668 0.929 . S
C687 C684 1.404 . S
C687 N685 1.334 . S
C688 H680 0.930 . S
C688 C683 1.418 . S
C688 C684 1.353 . S
C689 H659 0.930 . S
C689 N690 1.330 . S
C689 C691 1.446 . S
N690 Co649 2.151 . S
N690 C689 1.330 . S
N690 C694 1.418 . S
C691 H670 0.929 . S
C691 C689 1.446 . S
C691 C692 1.332 . S
C692 H672 0.931 . S
C692 C691 1.332 . S
C692 C693 1.267 . S
C693 H661 0.929 . S
C693 C692 1.267 . S
C693 C694 1.251 . S
C694 H664 0.929 . S
C694 N690 1.418 . S
C694 C693 1.251 . S
C695 H662 0.930 . S
C695 C697 1.406 . S
C695 C700 1.261 . S
C696 H663 0.930 . S
C696 N698 1.325 . S
C696 C699 1.357 . S
C697 H665 0.928 . S
C697 C695 1.406 . S
C697 N698 1.261 . S
N698 Co649 2.214 . S
N698 C696 1.325 . S
N698 C697 1.261 . S
C699 H669 0.931 . S
C699 C696 1.357 . S
C699 C700 1.312 . S
C700 H671 0.930 . S
C700 C695 1.261 . S
C700 C699 1.312 . S
C701 O673 1.214 . S
C701 O681 1.234 . S
C702 H674 0.929 . S
C702 C705 1.391 . S
C702 C707 1.391 . S
C703 H675 0.929 . S
C703 C704 1.390 . S
C703 N706 1.391 . S
C704 H676 0.930 . S
C704 C703 1.390 . S
C704 C705 1.392 . S
C705 H677 0.929 . S
C705 C702 1.391 . S
C705 C704 1.392 . S
N706 Co650 2.257 . S
N706 C703 1.391 . S
N706 C707 1.388 . S
C707 H678 0.930 . S
C707 C702 1.391 . S
C707 N706 1.388 . S
C708 C709 1.363 . S
C708 C714 1.379 1_556 S
C708 N716 1.356 . S
C709 C708 1.363 . S
C709 C715 1.363 . S
C710 C711 1.363 . S
C710 C715 1.379 1_554 S
C710 N717 1.356 . S
C711 C710 1.363 . S
C711 C714 1.363 . S
N712 C714 1.356 . S
N712 H724 0.984 . S
N712 H725 0.985 . S
N713 C715 1.356 . S
N713 H718 0.984 . S
N713 H719 0.985 . S
C714 C708 1.379 1_554 S
C714 C711 1.363 . S
C714 N712 1.356 . S
C715 C709 1.363 . S
C715 C710 1.379 1_556 S
C715 N713 1.356 . S
N716 C708 1.356 . S
N716 H722 0.984 . S
N716 H723 0.984 . S
N717 C710 1.356 . S
N717 H720 0.984 . S
N717 H721 0.985 . S
H718 N713 0.984 . S
H719 N713 0.985 . S
H720 N717 0.984 . S
H721 N717 0.985 . S
H722 N716 0.984 . S
H723 N716 0.984 . S
H724 N712 0.984 . S
H725 N712 0.985 . S
C726 C727 1.363 . S
C726 C732 1.379 . S
C726 N734 1.356 . S
C727 C726 1.363 . S
C727 C733 1.363 . S
C728 C729 1.363 . S
C728 C733 1.379 . S
C728 N735 1.356 . S
C729 C728 1.363 . S
C729 C732 1.363 . S
N730 C732 1.356 . S
N730 H742 0.984 . S
N730 H743 0.985 . S
N731 C733 1.356 . S
N731 H736 0.984 . S
N731 H737 0.985 . S
C732 C726 1.379 . S
C732 C729 1.363 . S
C732 N730 1.356 . S
C733 C727 1.363 . S
C733 C728 1.379 . S
C733 N731 1.356 . S
N734 C726 1.356 . S
N734 H740 0.984 . S
N734 H741 0.984 . S
N735 C728 1.356 . S
N735 H738 0.984 . S
N735 H739 0.985 . S
H736 N731 0.984 . S
H737 N731 0.985 . S
H738 N735 0.984 . S
H739 N735 0.985 . S
H740 N734 0.984 . S
H741 N734 0.984 . S
H742 N730 0.984 . S
H743 N730 0.985 . S
C744 C745 1.363 . S
C744 C750 1.379 . S
C744 N752 1.356 . S
C745 C744 1.363 . S
C745 C751 1.363 . S
C746 C747 1.363 . S
C746 C751 1.379 . S
C746 N753 1.356 . S
C747 C746 1.363 . S
C747 C750 1.363 . S
N748 C750 1.356 . S
N748 H760 0.984 . S
N748 H761 0.985 . S
N749 C751 1.356 . S
N749 H754 0.984 . S
N749 H755 0.985 . S
C750 C744 1.379 . S
C750 C747 1.363 . S
C750 N748 1.356 . S
C751 C745 1.363 . S
C751 C746 1.379 . S
C751 N749 1.356 . S
N752 C744 1.356 . S
N752 H758 0.984 . S
N752 H759 0.984 . S
N753 C746 1.356 . S
N753 H756 0.984 . S
N753 H757 0.985 . S
H754 N749 0.984 . S
H755 N749 0.985 . S
H756 N753 0.984 . S
H757 N753 0.985 . S
H758 N752 0.984 . S
H759 N752 0.984 . S
H760 N748 0.984 . S
H761 N748 0.985 . S
C762 C763 1.363 . S
C762 C768 1.379 1_554 S
C762 N770 1.356 . S
C763 C762 1.363 . S
C763 C769 1.363 . S
C764 C765 1.363 . S
C764 C769 1.379 1_556 S
C764 N771 1.356 . S
C765 C764 1.363 . S
C765 C768 1.363 . S
N766 C768 1.356 . S
N766 H778 0.984 . S
N766 H779 0.985 . S
N767 C769 1.356 . S
N767 H772 0.984 . S
N767 H773 0.985 . S
C768 C762 1.379 1_556 S
C768 C765 1.363 . S
C768 N766 1.356 . S
C769 C763 1.363 . S
C769 C764 1.379 1_554 S
C769 N767 1.356 . S
N770 C762 1.356 . S
N770 H776 0.984 . S
N770 H777 0.984 . S
N771 C764 1.356 . S
N771 H774 0.984 . S
N771 H775 0.985 . S
H772 N767 0.984 . S
H773 N767 0.985 . S
H774 N771 0.984 . S
H775 N771 0.985 . S
H776 N770 0.984 . S
H777 N770 0.984 . S
H778 N766 0.984 . S
H779 N766 0.985 . S
C780 C781 1.363 . S
C780 C786 1.379 . S
C780 N788 1.356 . S
C781 C780 1.363 . S
C781 C787 1.363 . S
C782 C783 1.363 . S
C782 C787 1.379 . S
C782 N789 1.356 . S
C783 C782 1.363 . S
C783 C786 1.363 . S
N784 C786 1.356 . S
N784 H796 0.984 . S
N784 H797 0.985 . S
N785 C787 1.356 . S
N785 H790 0.984 . S
N785 H791 0.985 . S
C786 C780 1.379 . S
C786 C783 1.363 . S
C786 N784 1.356 . S
C787 C781 1.363 . S
C787 C782 1.379 . S
C787 N785 1.356 . S
N788 C780 1.356 . S
N788 H794 0.984 . S
N788 H795 0.984 . S
N789 C782 1.356 . S
N789 H792 0.984 . S
N789 H793 0.985 . S
H790 N785 0.984 . S
H791 N785 0.985 . S
H792 N789 0.984 . S
H793 N789 0.985 . S
H794 N788 0.984 . S
H795 N788 0.984 . S
H796 N784 0.984 . S
H797 N784 0.985 . S
C798 C799 1.363 . S
C798 C804 1.379 . S
C798 N806 1.356 . S
C799 C798 1.363 . S
C799 C805 1.363 . S
C800 C801 1.363 . S
C800 C805 1.379 . S
C800 N807 1.356 . S
C801 C800 1.363 . S
C801 C804 1.363 . S
N802 C804 1.356 . S
N802 H814 0.984 . S
N802 H815 0.985 . S
N803 C805 1.356 . S
N803 H808 0.984 . S
N803 H809 0.985 . S
C804 C798 1.379 . S
C804 C801 1.363 . S
C804 N802 1.356 . S
C805 C799 1.363 . S
C805 C800 1.379 . S
C805 N803 1.356 . S
N806 C798 1.356 . S
N806 H812 0.984 . S
N806 H813 0.984 . S
N807 C800 1.356 . S
N807 H810 0.984 . S
N807 H811 0.985 . S
H808 N803 0.984 . S
H809 N803 0.985 . S
H810 N807 0.984 . S
H811 N807 0.985 . S
H812 N806 0.984 . S
H813 N806 0.984 . S
H814 N802 0.984 . S
H815 N802 0.985 . S
C816 C817 1.363 . S
C816 C822 1.379 . S
C816 N824 1.356 . S
C817 C816 1.363 . S
C817 C823 1.363 . S
C818 C819 1.363 . S
C818 C823 1.379 . S
C818 N825 1.356 . S
C819 C818 1.363 . S
C819 C822 1.363 . S
N820 C822 1.356 . S
N820 H832 0.984 . S
N820 H833 0.985 . S
N821 C823 1.356 . S
N821 H826 0.984 . S
N821 H827 0.985 . S
C822 C816 1.379 . S
C822 C819 1.363 . S
C822 N820 1.356 . S
C823 C817 1.363 . S
C823 C818 1.379 . S
C823 N821 1.356 . S
N824 C816 1.356 . S
N824 H830 0.984 . S
N824 H831 0.984 . S
N825 C818 1.356 . S
N825 H828 0.984 . S
N825 H829 0.985 . S
H826 N821 0.984 . S
H827 N821 0.985 . S
H828 N825 0.984 . S
H829 N825 0.985 . S
H830 N824 0.984 . S
H831 N824 0.984 . S
H832 N820 0.984 . S
H833 N820 0.985 . S
C834 C835 1.363 . S
C834 C840 1.379 . S
C834 N842 1.356 . S
C835 C834 1.363 . S
C835 C841 1.363 . S
C836 C837 1.363 . S
C836 C841 1.379 . S
C836 N843 1.356 . S
C837 C836 1.363 . S
C837 C840 1.363 . S
N838 C840 1.356 . S
N838 H850 0.984 . S
N838 H851 0.985 . S
N839 C841 1.356 . S
N839 H844 0.984 . S
N839 H845 0.985 . S
C840 C834 1.379 . S
C840 C837 1.363 . S
C840 N838 1.356 . S
C841 C835 1.363 . S
C841 C836 1.379 . S
C841 N839 1.356 . S
N842 C834 1.356 . S
N842 H848 0.984 . S
N842 H849 0.984 . S
N843 C836 1.356 . S
N843 H846 0.984 . S
N843 H847 0.985 . S
H844 N839 0.984 . S
H845 N839 0.985 . S
H846 N843 0.984 . S
H847 N843 0.985 . S
H848 N842 0.984 . S
H849 N842 0.984 . S
H850 N838 0.984 . S
H851 N838 0.985 . S
C852 C853 1.363 . S
C852 C858 1.379 . S
C852 N860 1.356 . S
C853 C852 1.363 . S
C853 C859 1.363 . S
C854 C855 1.363 . S
C854 C859 1.379 . S
C854 N861 1.356 . S
C855 C854 1.363 . S
C855 C858 1.363 . S
N856 C858 1.356 . S
N856 H868 0.984 . S
N856 H869 0.985 . S
N857 C859 1.356 . S
N857 H862 0.984 . S
N857 H863 0.985 . S
C858 C852 1.379 . S
C858 C855 1.363 . S
C858 N856 1.356 . S
C859 C853 1.363 . S
C859 C854 1.379 . S
C859 N857 1.356 . S
N860 C852 1.356 . S
N860 H866 0.984 . S
N860 H867 0.984 . S
N861 C854 1.356 . S
N861 H864 0.984 . S
N861 H865 0.985 . S
H862 N857 0.984 . S
H863 N857 0.985 . S
H864 N861 0.984 . S
H865 N861 0.985 . S
H866 N860 0.984 . S
H867 N860 0.984 . S
H868 N856 0.984 . S
H869 N856 0.985 . S
C870 C871 1.363 . S
C870 C876 1.379 . S
C870 N878 1.356 . S
C871 C870 1.363 . S
C871 C877 1.363 . S
C872 C873 1.363 . S
C872 C877 1.379 . S
C872 N879 1.356 . S
C873 C872 1.363 . S
C873 C876 1.363 . S
N874 C876 1.356 . S
N874 H886 0.984 . S
N874 H887 0.985 . S
N875 C877 1.356 . S
N875 H880 0.984 . S
N875 H881 0.985 . S
C876 C870 1.379 . S
C876 C873 1.363 . S
C876 N874 1.356 . S
C877 C871 1.363 . S
C877 C872 1.379 . S
C877 N875 1.356 . S
N878 C870 1.356 . S
N878 H884 0.984 . S
N878 H885 0.984 . S
N879 C872 1.356 . S
N879 H882 0.984 . S
N879 H883 0.985 . S
H880 N875 0.984 . S
H881 N875 0.985 . S
H882 N879 0.984 . S
H883 N879 0.985 . S
H884 N878 0.984 . S
H885 N878 0.984 . S
H886 N874 0.984 . S
H887 N874 0.985 . S
C888 C889 1.363 . S
C888 C894 1.379 . S
C888 N896 1.356 . S
C889 C888 1.363 . S
C889 C895 1.363 . S
C890 C891 1.363 . S
C890 C895 1.379 . S
C890 N897 1.356 . S
C891 C890 1.363 . S
C891 C894 1.363 . S
N892 C894 1.356 . S
N892 H904 0.984 . S
N892 H905 0.985 . S
N893 C895 1.356 . S
N893 H898 0.984 . S
N893 H899 0.985 . S
C894 C888 1.379 . S
C894 C891 1.363 . S
C894 N892 1.356 . S
C895 C889 1.363 . S
C895 C890 1.379 . S
C895 N893 1.356 . S
N896 C888 1.356 . S
N896 H902 0.984 . S
N896 H903 0.984 . S
N897 C890 1.356 . S
N897 H900 0.984 . S
N897 H901 0.985 . S
H898 N893 0.984 . S
H899 N893 0.985 . S
H900 N897 0.984 . S
H901 N897 0.985 . S
H902 N896 0.984 . S
H903 N896 0.984 . S
H904 N892 0.984 . S
H905 N892 0.985 . S
C906 C907 1.363 . S
C906 C912 1.379 . S
C906 N914 1.356 . S
C907 C906 1.363 . S
C907 C913 1.363 . S
C908 C909 1.363 . S
C908 C913 1.379 . S
C908 N915 1.356 . S
C909 C908 1.363 . S
C909 C912 1.363 . S
N910 C912 1.356 . S
N910 H922 0.984 . S
N910 H923 0.985 . S
N911 C913 1.356 . S
N911 H916 0.984 . S
N911 H917 0.985 . S
C912 C906 1.379 . S
C912 C909 1.363 . S
C912 N910 1.356 . S
C913 C907 1.363 . S
C913 C908 1.379 . S
C913 N911 1.356 . S
N914 C906 1.356 . S
N914 H920 0.984 . S
N914 H921 0.984 . S
N915 C908 1.356 . S
N915 H918 0.984 . S
N915 H919 0.985 . S
H916 N911 0.984 . S
H917 N911 0.985 . S
H918 N915 0.984 . S
H919 N915 0.985 . S
H920 N914 0.984 . S
H921 N914 0.984 . S
H922 N910 0.984 . S
H923 N910 0.985 . S
C924 C925 1.363 . S
C924 C930 1.379 1_655 S
C924 N932 1.356 . S
C925 C924 1.363 . S
C925 C931 1.363 . S
C926 C927 1.363 . S
C926 C931 1.379 1_455 S
C926 N933 1.356 . S
C927 C926 1.363 . S
C927 C930 1.363 . S
N928 C930 1.356 . S
N928 H940 0.984 . S
N928 H941 0.985 . S
N929 C931 1.356 . S
N929 H934 0.984 . S
N929 H935 0.985 . S
C930 C924 1.379 1_455 S
C930 C927 1.363 . S
C930 N928 1.356 . S
C931 C925 1.363 . S
C931 C926 1.379 1_655 S
C931 N929 1.356 . S
N932 C924 1.356 . S
N932 H938 0.984 . S
N932 H939 0.984 . S
N933 C926 1.356 . S
N933 H936 0.984 . S
N933 H937 0.985 . S
H934 N929 0.984 . S
H935 N929 0.985 . S
H936 N933 0.984 . S
H937 N933 0.985 . S
H938 N932 0.984 . S
H939 N932 0.984 . S
H940 N928 0.984 . S
H941 N928 0.985 . S
C942 C943 1.363 . S
C942 C948 1.379 1_545 S
C942 N950 1.356 . S
C943 C942 1.363 . S
C943 C949 1.363 . S
C944 C945 1.363 . S
C944 C949 1.379 1_565 S
C944 N951 1.356 . S
C945 C944 1.363 . S
C945 C948 1.363 . S
N946 C948 1.356 . S
N946 H958 0.984 . S
N946 H959 0.985 . S
N947 C949 1.356 . S
N947 H952 0.984 . S
N947 H953 0.985 . S
C948 C942 1.379 1_565 S
C948 C945 1.363 . S
C948 N946 1.356 . S
C949 C943 1.363 . S
C949 C944 1.379 1_545 S
C949 N947 1.356 . S
N950 C942 1.356 . S
N950 H956 0.984 . S
N950 H957 0.984 . S
N951 C944 1.356 . S
N951 H954 0.984 . S
N951 H955 0.985 . S
H952 N947 0.984 . S
H953 N947 0.985 . S
H954 N951 0.984 . S
H955 N951 0.985 . S
H956 N950 0.984 . S
H957 N950 0.984 . S
H958 N946 0.984 . S
H959 N946 0.985 . S
C960 C961 1.363 . S
C960 C966 1.379 . S
C960 N968 1.356 . S
C961 C960 1.363 . S
C961 C967 1.363 . S
C962 C963 1.363 . S
C962 C967 1.379 . S
C962 N969 1.356 . S
C963 C962 1.363 . S
C963 C966 1.363 . S
N964 C966 1.356 . S
N964 H976 0.984 . S
N964 H977 0.985 . S
N965 C967 1.356 . S
N965 H970 0.984 . S
N965 H971 0.985 . S
C966 C960 1.379 . S
C966 C963 1.363 . S
C966 N964 1.356 . S
C967 C961 1.363 . S
C967 C962 1.379 . S
C967 N965 1.356 . S
N968 C960 1.356 . S
N968 H974 0.984 . S
N968 H975 0.984 . S
N969 C962 1.356 . S
N969 H972 0.984 . S
N969 H973 0.985 . S
H970 N965 0.984 . S
H971 N965 0.985 . S
H972 N969 0.984 . S
H973 N969 0.985 . S
H974 N968 0.984 . S
H975 N968 0.984 . S
H976 N964 0.984 . S
H977 N964 0.985 . S
C978 C979 1.363 . S
C978 C984 1.379 1_545 S
C978 N986 1.356 . S
C979 C978 1.363 . S
C979 C985 1.363 . S
C980 C981 1.363 . S
C980 C985 1.379 1_565 S
C980 N987 1.356 . S
C981 C980 1.363 . S
C981 C984 1.363 . S
N982 C984 1.356 . S
N982 H994 0.984 . S
N982 H995 0.985 . S
N983 C985 1.356 . S
N983 H988 0.984 . S
N983 H989 0.985 . S
C984 C978 1.379 1_565 S
C984 C981 1.363 . S
C984 N982 1.356 . S
C985 C979 1.363 . S
C985 C980 1.379 1_545 S
C985 N983 1.356 . S
N986 C978 1.356 . S
N986 H992 0.984 . S
N986 H993 0.984 . S
N987 C980 1.356 . S
N987 H990 0.984 . S
N987 H991 0.985 . S
H988 N983 0.984 . S
H989 N983 0.985 . S
H990 N987 0.984 . S
H991 N987 0.985 . S
H992 N986 0.984 . S
H993 N986 0.984 . S
H994 N982 0.984 . S
H995 N982 0.985 . S
C996 C997 1.363 . S
C996 C1002 1.379 . S
C996 N1004 1.356 . S
C997 C996 1.363 . S
C997 C1003 1.363 . S
C998 C999 1.363 . S
C998 C1003 1.379 . S
C998 N1005 1.356 . S
C999 C998 1.363 . S
C999 C1002 1.363 . S
N1000 C1002 1.356 . S
N1000 H1012 0.984 . S
N1000 H1013 0.985 . S
N1001 C1003 1.356 . S
N1001 H1006 0.984 . S
N1001 H1007 0.985 . S
C1002 C996 1.379 . S
C1002 C999 1.363 . S
C1002 N1000 1.356 . S
C1003 C997 1.363 . S
C1003 C998 1.379 . S
C1003 N1001 1.356 . S
N1004 C996 1.356 . S
N1004 H1010 0.984 . S
N1004 H1011 0.984 . S
N1005 C998 1.356 . S
N1005 H1008 0.984 . S
N1005 H1009 0.985 . S
H1006 N1001 0.984 . S
H1007 N1001 0.985 . S
H1008 N1005 0.984 . S
H1009 N1005 0.985 . S
H1010 N1004 0.984 . S
H1011 N1004 0.984 . S
H1012 N1000 0.984 . S
H1013 N1000 0.985 . S
C1014 C1015 1.363 . S
C1014 C1020 1.379 1_455 S
C1014 N1022 1.356 . S
C1015 C1014 1.363 . S
C1015 C1021 1.363 . S
C1016 C1017 1.363 . S
C1016 C1021 1.379 1_655 S
C1016 N1023 1.356 . S
C1017 C1016 1.363 . S
C1017 C1020 1.363 . S
N1018 C1020 1.356 . S
N1018 H1030 0.984 . S
N1018 H1031 0.985 . S
N1019 C1021 1.356 . S
N1019 H1024 0.984 . S
N1019 H1025 0.985 . S
C1020 C1014 1.379 1_655 S
C1020 C1017 1.363 . S
C1020 N1018 1.356 . S
C1021 C1015 1.363 . S
C1021 C1016 1.379 1_455 S
C1021 N1019 1.356 . S
N1022 C1014 1.356 . S
N1022 H1028 0.984 . S
N1022 H1029 0.984 . S
N1023 C1016 1.356 . S
N1023 H1026 0.984 . S
N1023 H1027 0.985 . S
H1024 N1019 0.984 . S
H1025 N1019 0.985 . S
H1026 N1023 0.984 . S
H1027 N1023 0.985 . S
H1028 N1022 0.984 . S
H1029 N1022 0.984 . S
H1030 N1018 0.984 . S
H1031 N1018 0.985 . S
C1032 C1033 1.363 . S
C1032 C1038 1.379 . S
C1032 N1040 1.356 . S
C1033 C1032 1.363 . S
C1033 C1039 1.363 . S
C1034 C1035 1.363 . S
C1034 C1039 1.379 . S
C1034 N1041 1.356 . S
C1035 C1034 1.363 . S
C1035 C1038 1.363 . S
N1036 C1038 1.356 . S
N1036 H1048 0.984 . S
N1036 H1049 0.985 . S
N1037 C1039 1.356 . S
N1037 H1042 0.984 . S
N1037 H1043 0.985 . S
C1038 C1032 1.379 . S
C1038 C1035 1.363 . S
C1038 N1036 1.356 . S
C1039 C1033 1.363 . S
C1039 C1034 1.379 . S
C1039 N1037 1.356 . S
N1040 C1032 1.356 . S
N1040 H1046 0.984 . S
N1040 H1047 0.984 . S
N1041 C1034 1.356 . S
N1041 H1044 0.984 . S
N1041 H1045 0.985 . S
H1042 N1037 0.984 . S
H1043 N1037 0.985 . S
H1044 N1041 0.984 . S
H1045 N1041 0.985 . S
H1046 N1040 0.984 . S
H1047 N1040 0.984 . S
H1048 N1036 0.984 . S
H1049 N1036 0.985 . S
C1050 C1051 1.363 . S
C1050 C1056 1.379 1_655 S
C1050 N1058 1.356 . S
C1051 C1050 1.363 . S
C1051 C1057 1.363 . S
C1052 C1053 1.363 . S
C1052 C1057 1.379 1_455 S
C1052 N1059 1.356 . S
C1053 C1052 1.363 . S
C1053 C1056 1.363 . S
N1054 C1056 1.356 . S
N1054 H1066 0.984 . S
N1054 H1067 0.985 . S
N1055 C1057 1.356 . S
N1055 H1060 0.984 . S
N1055 H1061 0.985 . S
C1056 C1050 1.379 1_455 S
C1056 C1053 1.363 . S
C1056 N1054 1.356 . S
C1057 C1051 1.363 . S
C1057 C1052 1.379 1_655 S
C1057 N1055 1.356 . S
N1058 C1050 1.356 . S
N1058 H1064 0.984 . S
N1058 H1065 0.984 . S
N1059 C1052 1.356 . S
N1059 H1062 0.984 . S
N1059 H1063 0.985 . S
H1060 N1055 0.984 . S
H1061 N1055 0.985 . S
H1062 N1059 0.984 . S
H1063 N1059 0.985 . S
H1064 N1058 0.984 . S
H1065 N1058 0.984 . S
H1066 N1054 0.984 . S
H1067 N1054 0.985 . S
C1068 C1069 1.363 . S
C1068 C1074 1.379 1_545 S
C1068 N1076 1.356 . S
C1069 C1068 1.363 . S
C1069 C1075 1.363 . S
C1070 C1071 1.363 . S
C1070 C1075 1.379 1_565 S
C1070 N1077 1.356 . S
C1071 C1070 1.363 . S
C1071 C1074 1.363 . S
N1072 C1074 1.356 . S
N1072 H1084 0.984 . S
N1072 H1085 0.985 . S
N1073 C1075 1.356 . S
N1073 H1078 0.984 . S
N1073 H1079 0.985 . S
C1074 C1068 1.379 1_565 S
C1074 C1071 1.363 . S
C1074 N1072 1.356 . S
C1075 C1069 1.363 . S
C1075 C1070 1.379 1_545 S
C1075 N1073 1.356 . S
N1076 C1068 1.356 . S
N1076 H1082 0.984 . S
N1076 H1083 0.984 . S
N1077 C1070 1.356 . S
N1077 H1080 0.984 . S
N1077 H1081 0.985 . S
H1078 N1073 0.984 . S
H1079 N1073 0.985 . S
H1080 N1077 0.984 . S
H1081 N1077 0.985 . S
H1082 N1076 0.984 . S
H1083 N1076 0.984 . S
H1084 N1072 0.984 . S
H1085 N1072 0.985 . S
C1086 C1087 1.363 . S
C1086 C1092 1.379 . S
C1086 N1094 1.356 . S
C1087 C1086 1.363 . S
C1087 C1093 1.363 . S
C1088 C1089 1.363 . S
C1088 C1093 1.379 . S
C1088 N1095 1.356 . S
C1089 C1088 1.363 . S
C1089 C1092 1.363 . S
N1090 C1092 1.356 . S
N1090 H1102 0.984 . S
N1090 H1103 0.985 . S
N1091 C1093 1.356 . S
N1091 H1096 0.984 . S
N1091 H1097 0.985 . S
C1092 C1086 1.379 . S
C1092 C1089 1.363 . S
C1092 N1090 1.356 . S
C1093 C1087 1.363 . S
C1093 C1088 1.379 . S
C1093 N1091 1.356 . S
N1094 C1086 1.356 . S
N1094 H1100 0.984 . S
N1094 H1101 0.984 . S
N1095 C1088 1.356 . S
N1095 H1098 0.984 . S
N1095 H1099 0.985 . S
H1096 N1091 0.984 . S
H1097 N1091 0.985 . S
H1098 N1095 0.984 . S
H1099 N1095 0.985 . S
H1100 N1094 0.984 . S
H1101 N1094 0.984 . S
H1102 N1090 0.984 . S
H1103 N1090 0.985 . S
C1104 C1105 1.363 . S
C1104 C1110 1.379 1_455 S
C1104 N1112 1.356 . S
C1105 C1104 1.363 . S
C1105 C1111 1.363 . S
C1106 C1107 1.363 . S
C1106 C1111 1.379 1_655 S
C1106 N1113 1.356 . S
C1107 C1106 1.363 . S
C1107 C1110 1.363 . S
N1108 C1110 1.356 . S
N1108 H1120 0.984 . S
N1108 H1121 0.985 . S
N1109 C1111 1.356 . S
N1109 H1114 0.984 . S
N1109 H1115 0.985 . S
C1110 C1104 1.379 1_655 S
C1110 C1107 1.363 . S
C1110 N1108 1.356 . S
C1111 C1105 1.363 . S
C1111 C1106 1.379 1_455 S
C1111 N1109 1.356 . S
N1112 C1104 1.356 . S
N1112 H1118 0.984 . S
N1112 H1119 0.984 . S
N1113 C1106 1.356 . S
N1113 H1116 0.984 . S
N1113 H1117 0.985 . S
H1114 N1109 0.984 . S
H1115 N1109 0.985 . S
H1116 N1113 0.984 . S
H1117 N1113 0.985 . S
H1118 N1112 0.984 . S
H1119 N1112 0.984 . S
H1120 N1108 0.984 . S
H1121 N1108 0.985 . S
C1122 C1123 1.363 . S
C1122 C1128 1.379 1_565 S
C1122 N1130 1.356 . S
C1123 C1122 1.363 . S
C1123 C1129 1.363 . S
C1124 C1125 1.363 . S
C1124 C1129 1.379 1_545 S
C1124 N1131 1.356 . S
C1125 C1124 1.363 . S
C1125 C1128 1.363 . S
N1126 C1128 1.356 . S
N1126 H1138 0.984 . S
N1126 H1139 0.985 . S
N1127 C1129 1.356 . S
N1127 H1132 0.984 . S
N1127 H1133 0.985 . S
C1128 C1122 1.379 1_545 S
C1128 C1125 1.363 . S
C1128 N1126 1.356 . S
C1129 C1123 1.363 . S
C1129 C1124 1.379 1_565 S
C1129 N1127 1.356 . S
N1130 C1122 1.356 . S
N1130 H1136 0.984 . S
N1130 H1137 0.984 . S
N1131 C1124 1.356 . S
N1131 H1134 0.984 . S
N1131 H1135 0.985 . S
H1132 N1127 0.984 . S
H1133 N1127 0.985 . S
H1134 N1131 0.984 . S
H1135 N1131 0.985 . S
H1136 N1130 0.984 . S
H1137 N1130 0.984 . S
H1138 N1126 0.984 . S
H1139 N1126 0.985 . S
C709 C593 1.472 . S
C711 C3 1.473 . S
C727 C62 1.472 . S
C729 C652 1.472 . S
C745 C121 1.472 . S
C747 C357 1.473 . S
C763 C180 1.472 . S
C765 C416 1.472 . S
C781 C475 1.472 . S
C783 C239 1.472 . S
C799 C298 1.472 . S
C801 C534 1.472 . S
C817 C505 1.390 . S
C819 C33 1.390 . S
C835 C92 1.391 . S
C837 C564 1.391 . S
C853 C151 1.391 . S
C855 C623 1.391 . S
C871 C210 1.391 . S
C873 C682 1.391 . S
C889 C387 1.390 . S
C891 C269 1.390 . S
C907 C446 1.390 . S
C909 C328 1.390 . S
C925 C229 1.655 . S
C927 C52 1.655 . S
C943 C111 1.655 . S
C945 C288 1.655 . S
C961 C347 1.656 . S
C963 C170 1.656 . S
C979 C583 1.655 . S
C981 C406 1.655 . S
C997 C642 1.656 . S
C999 C465 1.656 . S
C1015 C524 1.655 . S
C1017 C701 1.655 . S
C1033 C182 1.331 . S
C1035 C5 1.331 . S
C1051 C64 1.330 . S
C1053 C241 1.330 . S
C1069 C300 1.331 . S
C1071 C123 1.331 . S
C1087 C359 1.331 . S
C1089 C536 1.331 . S
C1105 C595 1.331 . S
C1107 C418 1.331 . S
C1123 C477 1.330 . S
C1125 C654 1.330 . S
