# Generated by pormake.
# Topology unw, (4)-cn, num edge types: 1
# Building blocks:
#     Node 0, Type 0, BuildingBlock: GALJAG_clean_sbu_0, # of connection points: 4
#     Node 1, Type 0, BuildingBlock: GALJAG_clean_sbu_0, # of connection points: 4
#     Node 2, Type 0, BuildingBlock: GALJAG_clean_sbu_0, # of connection points: 4
#     Node 3, Type 0, BuildingBlock: GALJAG_clean_sbu_0, # of connection points: 4
#     Node 4, Type 0, BuildingBlock: GALJAG_clean_sbu_0, # of connection points: 4
#     Node 5, Type 0, BuildingBlock: GALJAG_clean_sbu_0, # of connection points: 4
#     Node 6, Type 0, BuildingBlock: GALJAG_clean_sbu_0, # of connection points: 4
#     Node 7, Type 0, BuildingBlock: GALJAG_clean_sbu_0, # of connection points: 4
#     Node 8, Type 0, BuildingBlock: GALJAG_clean_sbu_0, # of connection points: 4
#     Node 9, Type 0, BuildingBlock: GALJAG_clean_sbu_0, # of connection points: 4
#     Node 10, Type 0, BuildingBlock: GALJAG_clean_sbu_0, # of connection points: 4
#     Node 11, Type 0, BuildingBlock: GALJAG_clean_sbu_0, # of connection points: 4
#     Node 12, Type 0, BuildingBlock: GALJAG_clean_sbu_0, # of connection points: 4
#     Node 13, Type 0, BuildingBlock: GALJAG_clean_sbu_0, # of connection points: 4
#     Node 14, Type 0, BuildingBlock: GALJAG_clean_sbu_0, # of connection points: 4
#     Node 15, Type 0, BuildingBlock: GALJAG_clean_sbu_0, # of connection points: 4
#     Node 16, Type 0, BuildingBlock: GALJAG_clean_sbu_0, # of connection points: 4
#     Node 17, Type 0, BuildingBlock: GALJAG_clean_sbu_0, # of connection points: 4
#     Node 18, Type 0, BuildingBlock: GALJAG_clean_sbu_0, # of connection points: 4
#     Node 19, Type 0, BuildingBlock: GALJAG_clean_sbu_0, # of connection points: 4
#     Node 20, Type 0, BuildingBlock: GALJAG_clean_sbu_0, # of connection points: 4
#     Node 21, Type 0, BuildingBlock: GALJAG_clean_sbu_0, # of connection points: 4
#     Node 22, Type 0, BuildingBlock: GALJAG_clean_sbu_0, # of connection points: 4
#     Node 23, Type 0, BuildingBlock: GALJAG_clean_sbu_0, # of connection points: 4
#     Edge 24, Type (0, 0), BuildingBlock: XUDNAN_clean_linker_2, # of connection points: 2
#     Edge 25, Type (0, 0), BuildingBlock: XUDNAN_clean_linker_2, # of connection points: 2
#     Edge 26, Type (0, 0), BuildingBlock: XUDNAN_clean_linker_2, # of connection points: 2
#     Edge 27, Type (0, 0), BuildingBlock: XUDNAN_clean_linker_2, # of connection points: 2
#     Edge 28, Type (0, 0), BuildingBlock: XUDNAN_clean_linker_2, # of connection points: 2
#     Edge 29, Type (0, 0), BuildingBlock: XUDNAN_clean_linker_2, # of connection points: 2
#     Edge 30, Type (0, 0), BuildingBlock: XUDNAN_clean_linker_2, # of connection points: 2
#     Edge 31, Type (0, 0), BuildingBlock: XUDNAN_clean_linker_2, # of connection points: 2
#     Edge 32, Type (0, 0), BuildingBlock: XUDNAN_clean_linker_2, # of connection points: 2
#     Edge 33, Type (0, 0), BuildingBlock: XUDNAN_clean_linker_2, # of connection points: 2
#     Edge 34, Type (0, 0), BuildingBlock: XUDNAN_clean_linker_2, # of connection points: 2
#     Edge 35, Type (0, 0), BuildingBlock: XUDNAN_clean_linker_2, # of connection points: 2
#     Edge 36, Type (0, 0), BuildingBlock: XUDNAN_clean_linker_2, # of connection points: 2
#     Edge 37, Type (0, 0), BuildingBlock: XUDNAN_clean_linker_2, # of connection points: 2
#     Edge 38, Type (0, 0), BuildingBlock: XUDNAN_clean_linker_2, # of connection points: 2
#     Edge 39, Type (0, 0), BuildingBlock: XUDNAN_clean_linker_2, # of connection points: 2
#     Edge 40, Type (0, 0), BuildingBlock: XUDNAN_clean_linker_2, # of connection points: 2
#     Edge 41, Type (0, 0), BuildingBlock: XUDNAN_clean_linker_2, # of connection points: 2
#     Edge 42, Type (0, 0), BuildingBlock: XUDNAN_clean_linker_2, # of connection points: 2
#     Edge 43, Type (0, 0), BuildingBlock: XUDNAN_clean_linker_2, # of connection points: 2
#     Edge 44, Type (0, 0), BuildingBlock: XUDNAN_clean_linker_2, # of connection points: 2
#     Edge 45, Type (0, 0), BuildingBlock: XUDNAN_clean_linker_2, # of connection points: 2
#     Edge 46, Type (0, 0), BuildingBlock: XUDNAN_clean_linker_2, # of connection points: 2
#     Edge 47, Type (0, 0), BuildingBlock: XUDNAN_clean_linker_2, # of connection points: 2
#     Edge 48, Type (0, 0), BuildingBlock: XUDNAN_clean_linker_2, # of connection points: 2
#     Edge 49, Type (0, 0), BuildingBlock: XUDNAN_clean_linker_2, # of connection points: 2
#     Edge 50, Type (0, 0), BuildingBlock: XUDNAN_clean_linker_2, # of connection points: 2
#     Edge 51, Type (0, 0), BuildingBlock: XUDNAN_clean_linker_2, # of connection points: 2
#     Edge 52, Type (0, 0), BuildingBlock: XUDNAN_clean_linker_2, # of connection points: 2
#     Edge 53, Type (0, 0), BuildingBlock: XUDNAN_clean_linker_2, # of connection points: 2
#     Edge 54, Type (0, 0), BuildingBlock: XUDNAN_clean_linker_2, # of connection points: 2
#     Edge 55, Type (0, 0), BuildingBlock: XUDNAN_clean_linker_2, # of connection points: 2
#     Edge 56, Type (0, 0), BuildingBlock: XUDNAN_clean_linker_2, # of connection points: 2
#     Edge 57, Type (0, 0), BuildingBlock: XUDNAN_clean_linker_2, # of connection points: 2
#     Edge 58, Type (0, 0), BuildingBlock: XUDNAN_clean_linker_2, # of connection points: 2
#     Edge 59, Type (0, 0), BuildingBlock: XUDNAN_clean_linker_2, # of connection points: 2
#     Edge 60, Type (0, 0), BuildingBlock: XUDNAN_clean_linker_2, # of connection points: 2
#     Edge 61, Type (0, 0), BuildingBlock: XUDNAN_clean_linker_2, # of connection points: 2
#     Edge 62, Type (0, 0), BuildingBlock: XUDNAN_clean_linker_2, # of connection points: 2
#     Edge 63, Type (0, 0), BuildingBlock: XUDNAN_clean_linker_2, # of connection points: 2
#     Edge 64, Type (0, 0), BuildingBlock: XUDNAN_clean_linker_2, # of connection points: 2
#     Edge 65, Type (0, 0), BuildingBlock: XUDNAN_clean_linker_2, # of connection points: 2
#     Edge 66, Type (0, 0), BuildingBlock: XUDNAN_clean_linker_2, # of connection points: 2
#     Edge 67, Type (0, 0), BuildingBlock: XUDNAN_clean_linker_2, # of connection points: 2
#     Edge 68, Type (0, 0), BuildingBlock: XUDNAN_clean_linker_2, # of connection points: 2
#     Edge 69, Type (0, 0), BuildingBlock: XUDNAN_clean_linker_2, # of connection points: 2
#     Edge 70, Type (0, 0), BuildingBlock: XUDNAN_clean_linker_2, # of connection points: 2
#     Edge 71, Type (0, 0), BuildingBlock: XUDNAN_clean_linker_2, # of connection points: 2
# Relax obj value: 0.374
# Max RMSD: 0.256
# Mean RMSD: 0.255
data_MOF--net-unw--node1-GALJAG_clean_sbu_0--edge1-XUDNAN_clean_linker_2
_symmetry_space_group_name_H-M    P1
_symmetry_Int_Tables_number       1
_symmetry_cell_setting            triclinic
loop_
_symmetry_equiv_pos_as_xyz
'x, y, z'
_cell_length_a     47.293353
_cell_length_b     47.247322
_cell_length_c     47.241453
_cell_angle_alpha  89.846945
_cell_angle_beta   90.027251
_cell_angle_gamma 89.963585
loop_
_atom_site_label
_atom_site_type_symbol
_atom_site_fract_x
_atom_site_fract_y
_atom_site_fract_z
_atom_type_partial_charge
In0 In 0.13537 0.39581 0.26444 0.0
O1 O 0.09882 0.37073 0.24597 0.0
O2 O 0.09291 0.39037 0.28624 0.0
C3 C 0.18102 0.39035 0.23174 0.0
C4 C 0.15435 0.358 0.30235 0.0
C5 C 0.13071 0.4516 0.25409 0.0
O6 O 0.15702 0.38122 0.22393 0.0
O7 O 0.18159 0.40207 0.25572 0.0
O8 O 0.13779 0.44213 0.27828 0.0
O9 O 0.12368 0.43289 0.23634 0.0
C10 C 0.08328 0.37369 0.26763 0.0
O11 O 0.15305 0.38414 0.30865 0.0
O12 O 0.14678 0.35193 0.27751 0.0
In13 In 0.63407 0.11736 0.24145 0.0
O14 O 0.64537 0.13053 0.19616 0.0
O15 O 0.64422 0.16164 0.2293 0.0
C16 C 0.63735 0.06373 0.25887 0.0
C17 C 0.58016 0.13374 0.23746 0.0
C18 C 0.68222 0.12359 0.26937 0.0
O19 O 0.64483 0.07089 0.23398 0.0
O20 O 0.62443 0.08269 0.27271 0.0
O21 O 0.65908 0.13285 0.27964 0.0
O22 O 0.68067 0.1128 0.24495 0.0
C23 C 0.64794 0.15642 0.20331 0.0
O24 O 0.5956 0.14009 0.25855 0.0
O25 O 0.59111 0.11643 0.2201 0.0
In26 In 0.86357 0.61725 0.26745 0.0
O27 O 0.86718 0.65811 0.29132 0.0
O28 O 0.8696 0.66089 0.24623 0.0
C29 C 0.855 0.58028 0.22473 0.0
C30 C 0.9136 0.60853 0.29311 0.0
C31 C 0.80998 0.61529 0.28586 0.0
O32 O 0.85423 0.5735 0.25054 0.0
O33 O 0.86217 0.60568 0.21995 0.0
O34 O 0.81917 0.63394 0.26911 0.0
O35 O 0.82811 0.5975 0.29441 0.0
C36 C 0.87056 0.67371 0.26982 0.0
O37 O 0.91126 0.61454 0.26715 0.0
O38 O 0.89044 0.60376 0.30562 0.0
In39 In 0.38002 0.85048 0.30258 0.0
O40 O 0.35519 0.88821 0.28741 0.0
O41 O 0.37641 0.89277 0.32693 0.0
C42 C 0.36603 0.81367 0.2619 0.0
C43 C 0.34845 0.82641 0.34315 0.0
C44 C 0.43476 0.84837 0.28712 0.0
O45 O 0.35951 0.83957 0.26033 0.0
O46 O 0.37912 0.80654 0.284 0.0
O47 O 0.42586 0.83621 0.3093 0.0
O48 O 0.41704 0.86475 0.27561 0.0
C49 C 0.35931 0.90328 0.30906 0.0
O50 O 0.375 0.82862 0.34629 0.0
O51 O 0.33874 0.8363 0.32038 0.0
In52 In 0.14 0.60714 0.7162 0.0
O53 O 0.16766 0.61757 0.67715 0.0
O54 O 0.14361 0.65035 0.69655 0.0
C55 C 0.14924 0.55169 0.72836 0.0
C56 C 0.08409 0.61602 0.7071 0.0
C57 C 0.17181 0.62987 0.75747 0.0
O58 O 0.15571 0.56231 0.70458 0.0
O59 O 0.1364 0.5684 0.74464 0.0
O60 O 0.14511 0.62949 0.75874 0.0
O61 O 0.18219 0.61843 0.73578 0.0
C62 C 0.16118 0.64362 0.67767 0.0
O63 O 0.0961 0.61998 0.73064 0.0
O64 O 0.09996 0.60572 0.68817 0.0
In65 In 0.39205 0.14464 0.69695 0.0
O66 O 0.38593 0.17778 0.66126 0.0
O67 O 0.35111 0.15233 0.67429 0.0
C68 C 0.44435 0.15319 0.71814 0.0
C69 C 0.38442 0.09153 0.67743 0.0
C70 C 0.36713 0.16979 0.7412 0.0
O71 O 0.43612 0.16527 0.69562 0.0
O72 O 0.42756 0.13467 0.72756 0.0
O73 O 0.36829 0.14311 0.73934 0.0
O74 O 0.37821 0.18305 0.72093 0.0
C75 C 0.35983 0.1722 0.65876 0.0
O76 O 0.37268 0.10104 0.69944 0.0
O77 O 0.40194 0.10829 0.66591 0.0
In78 In 0.8678 0.38545 0.74557 0.0
O79 O 0.86854 0.43147 0.75834 0.0
O80 O 0.87563 0.401 0.79101 0.0
C81 C 0.86187 0.32878 0.74442 0.0
C82 C 0.81317 0.39682 0.737 0.0
C83 C 0.91672 0.38574 0.71654 0.0
O84 O 0.8597 0.34437 0.72278 0.0
O85 O 0.86669 0.3418 0.76738 0.0
O86 O 0.91456 0.37676 0.74167 0.0
O87 O 0.89444 0.39675 0.70642 0.0
C88 C 0.8717 0.42676 0.78448 0.0
O89 O 0.82269 0.3858 0.75939 0.0
O90 O 0.83115 0.40148 0.71761 0.0
In91 In 0.62846 0.85343 0.74636 0.0
O92 O 0.62958 0.84002 0.69916 0.0
O93 O 0.65693 0.81979 0.72872 0.0
C94 C 0.57327 0.86015 0.76173 0.0
C95 C 0.66123 0.89981 0.73589 0.0
C96 C 0.64101 0.81942 0.79018 0.0
O97 O 0.58086 0.84281 0.74293 0.0
O98 O 0.59291 0.87597 0.77034 0.0
O99 O 0.64582 0.84576 0.79104 0.0
O100 O 0.63006 0.81071 0.76749 0.0
C101 C 0.64885 0.82183 0.70342 0.0
O102 O 0.66491 0.88349 0.75679 0.0
O103 O 0.63988 0.89379 0.72096 0.0
In104 In 0.2347 0.1226 0.37951 0.0
O105 O 0.23663 0.1283 0.42666 0.0
O106 O 0.19747 0.11382 0.40786 0.0
C107 C 0.25708 0.13044 0.3292 0.0
C108 C 0.21877 0.17604 0.37535 0.0
C109 C 0.25122 0.06921 0.37456 0.0
O110 O 0.27117 0.13484 0.35187 0.0
O111 O 0.23157 0.12216 0.33229 0.0
O112 O 0.22651 0.07756 0.3676 0.0
O113 O 0.26694 0.08766 0.38644 0.0
C114 C 0.21059 0.12201 0.42995 0.0
O115 O 0.2034 0.15578 0.3662 0.0
O116 O 0.24227 0.169 0.38666 0.0
In117 In 0.88843 0.23345 0.36906 0.0
O118 O 0.86522 0.27528 0.35895 0.0
O119 O 0.87589 0.2469 0.3254 0.0
C120 C 0.8886 0.21733 0.42382 0.0
C121 C 0.94036 0.25026 0.35392 0.0
C122 C 0.85247 0.19232 0.35552 0.0
O123 O 0.87419 0.23839 0.41531 0.0
O124 O 0.90468 0.20661 0.40535 0.0
O125 O 0.8785 0.19057 0.3491 0.0
O126 O 0.84533 0.21449 0.36856 0.0
C127 C 0.86492 0.27017 0.33249 0.0
O128 O 0.93036 0.22641 0.34683 0.0
O129 O 0.92519 0.26429 0.37097 0.0
In130 In 0.79645 0.88779 0.36301 0.0
O131 O 0.83673 0.88458 0.33553 0.0
O132 O 0.82058 0.84777 0.35654 0.0
C133 C 0.76731 0.93649 0.35927 0.0
C134 C 0.81245 0.88071 0.41724 0.0
C135 C 0.76047 0.86557 0.32586 0.0
O136 O 0.7918 0.93407 0.34842 0.0
O137 O 0.7596 0.91575 0.37439 0.0
O138 O 0.75922 0.85886 0.35191 0.0
O139 O 0.77982 0.88269 0.31926 0.0
C140 C 0.83881 0.85808 0.33999 0.0
O141 O 0.79253 0.86675 0.40599 0.0
O142 O 0.82326 0.89971 0.40156 0.0
In143 In 0.10948 0.75144 0.37818 0.0
O144 O 0.11476 0.73247 0.33501 0.0
O145 O 0.0989 0.77488 0.33684 0.0
C146 C 0.105 0.78497 0.4236 0.0
C147 C 0.06702 0.71416 0.38159 0.0
C148 C 0.16596 0.75464 0.38112 0.0
O149 O 0.11208 0.7592 0.42497 0.0
O150 O 0.09722 0.79344 0.39931 0.0
O151 O 0.15028 0.77432 0.37208 0.0
O152 O 0.15323 0.73186 0.38761 0.0
C153 C 0.10555 0.75377 0.32165 0.0
O154 O 0.06337 0.74019 0.37643 0.0
O155 O 0.09221 0.70706 0.38759 0.0
In156 In 0.24123 0.88373 0.61762 0.0
O157 O 0.2514 0.93018 0.61685 0.0
O158 O 0.28457 0.9016 0.60504 0.0
C159 C 0.23465 0.82758 0.62186 0.0
C160 C 0.24579 0.89009 0.67337 0.0
C161 C 0.20767 0.88531 0.5721 0.0
O162 O 0.21635 0.84544 0.6297 0.0
O163 O 0.25745 0.83808 0.61207 0.0
O164 O 0.23331 0.87761 0.57131 0.0
O165 O 0.1993 0.89487 0.59581 0.0
C166 C 0.2772 0.92692 0.61042 0.0
O167 O 0.26496 0.8796 0.65793 0.0
O168 O 0.22303 0.897 0.66069 0.0
In169 In 0.12107 0.25875 0.63011 0.0
O170 O 0.16143 0.23696 0.64096 0.0
O171 O 0.16515 0.27828 0.62252 0.0
C172 C 0.07616 0.29245 0.62324 0.0
C173 C 0.12082 0.22401 0.58553 0.0
C174 C 0.1125 0.26024 0.68587 0.0
O175 O 0.07434 0.26604 0.62738 0.0
O176 O 0.10108 0.30174 0.61933 0.0
O177 O 0.12129 0.2812 0.67174 0.0
O178 O 0.10913 0.23741 0.67213 0.0
C179 C 0.17754 0.25606 0.63143 0.0
O180 O 0.12795 0.24978 0.58393 0.0
O181 O 0.11111 0.21615 0.60935 0.0
In182 In 0.78684 0.10847 0.64088 0.0
O183 O 0.73891 0.10719 0.64639 0.0
O184 O 0.75886 0.14724 0.64585 0.0
C185 C 0.80926 0.11699 0.58857 0.0
C186 C 0.77808 0.05372 0.65643 0.0
C187 C 0.8177 0.13941 0.67825 0.0
O188 O 0.78575 0.12717 0.59604 0.0
O189 O 0.82029 0.10049 0.60657 0.0
O190 O 0.79605 0.12564 0.6855 0.0
O191 O 0.82501 0.13568 0.6529 0.0
C192 C 0.73637 0.13348 0.64967 0.0
O193 O 0.79644 0.06923 0.66818 0.0
O194 O 0.76641 0.06489 0.63511 0.0
In195 In 0.8704 0.75211 0.63579 0.0
O196 O 0.87415 0.75951 0.58883 0.0
O197 O 0.88115 0.79514 0.61597 0.0
C198 C 0.85957 0.74781 0.69124 0.0
C199 C 0.81511 0.75279 0.62562 0.0
C200 C 0.91737 0.72056 0.64129 0.0
O201 O 0.85314 0.72919 0.67317 0.0
O202 O 0.87176 0.76977 0.68134 0.0
O203 O 0.91596 0.74633 0.64844 0.0
O204 O 0.89543 0.71095 0.62908 0.0
C205 C 0.87821 0.78595 0.59083 0.0
O206 O 0.82858 0.77402 0.63475 0.0
O207 O 0.82953 0.73036 0.62165 0.0
In208 In 0.37167 0.25101 0.12994 0.0
O209 O 0.35242 0.24343 0.08615 0.0
O210 O 0.38246 0.27657 0.09041 0.0
C211 C 0.34804 0.21158 0.16334 0.0
C212 C 0.33913 0.29414 0.1472 0.0
C213 C 0.42506 0.23774 0.14526 0.0
O214 O 0.34849 0.20864 0.13667 0.0
O215 O 0.35925 0.23398 0.17242 0.0
O216 O 0.41327 0.26085 0.1517 0.0
O217 O 0.41094 0.22238 0.1285 0.0
C218 C 0.36428 0.26463 0.0749 0.0
O219 O 0.36578 0.29507 0.14948 0.0
O220 O 0.32949 0.2716 0.1368 0.0
In221 In 0.34497 0.78842 0.87358 0.0
O222 O 0.31937 0.82996 0.87388 0.0
O223 O 0.33488 0.81369 0.83469 0.0
C224 C 0.33989 0.76611 0.92591 0.0
C225 C 0.39918 0.80264 0.86157 0.0
C226 C 0.30782 0.75046 0.85384 0.0
O227 O 0.33093 0.79068 0.91989 0.0
O228 O 0.35452 0.75467 0.90667 0.0
O229 O 0.3338 0.74876 0.8474 0.0
O230 O 0.30121 0.77143 0.8688 0.0
C231 C 0.32109 0.83273 0.84725 0.0
O232 O 0.38682 0.78199 0.84983 0.0
O233 O 0.38494 0.81454 0.88089 0.0
In234 In 0.22532 0.34226 0.87259 0.0
O235 O 0.22552 0.33571 0.92076 0.0
O236 O 0.25715 0.36204 0.90301 0.0
C237 C 0.17701 0.31508 0.85856 0.0
C238 C 0.26334 0.30316 0.85744 0.0
C239 C 0.21812 0.38855 0.83907 0.0
O240 O 0.1765 0.33699 0.8739 0.0
O241 O 0.20134 0.30704 0.85166 0.0
O242 O 0.235 0.36869 0.83326 0.0
O243 O 0.20587 0.38596 0.86275 0.0
C244 C 0.24825 0.34917 0.92465 0.0
O245 O 0.26301 0.32761 0.84633 0.0
O246 O 0.24464 0.29883 0.87597 0.0
In247 In 0.63456 0.28353 0.83309 0.0
O248 O 0.59023 0.2854 0.81326 0.0
O249 O 0.59689 0.25673 0.84709 0.0
C250 C 0.65031 0.32928 0.80316 0.0
C251 C 0.65391 0.24196 0.79945 0.0
C252 C 0.66204 0.29235 0.88309 0.0
O253 O 0.62987 0.33101 0.8205 0.0
O254 O 0.66211 0.30545 0.80199 0.0
O255 O 0.66994 0.27462 0.86485 0.0
O256 O 0.63925 0.30489 0.87692 0.0
C257 C 0.58059 0.26504 0.82764 0.0
O258 O 0.64346 0.2364 0.82346 0.0
O259 O 0.65579 0.26788 0.79375 0.0
In260 In 0.7699 0.63363 0.90841 0.0
O261 O 0.77228 0.64237 0.95603 0.0
O262 O 0.74073 0.61379 0.94037 0.0
C263 C 0.80103 0.66272 0.87097 0.0
C264 C 0.72757 0.66922 0.89813 0.0
C265 C 0.79191 0.58293 0.8956 0.0
O266 O 0.80702 0.66371 0.89728 0.0
O267 O 0.78064 0.6467 0.86461 0.0
O268 O 0.76816 0.59117 0.88609 0.0
O269 O 0.80387 0.59975 0.91274 0.0
C270 C 0.75068 0.62717 0.96134 0.0
O271 O 0.7278 0.64453 0.88738 0.0
O272 O 0.74825 0.67514 0.91403 0.0
In273 In 0.61947 0.70745 0.1755 0.0
O274 O 0.64715 0.70873 0.136 0.0
O275 O 0.61704 0.67558 0.1387 0.0
C276 C 0.64367 0.75254 0.19964 0.0
C277 C 0.64269 0.66945 0.21092 0.0
C278 C 0.56711 0.73009 0.18047 0.0
O279 O 0.6441 0.74909 0.17308 0.0
O280 O 0.63096 0.73355 0.21339 0.0
O281 O 0.57504 0.70901 0.1949 0.0
O282 O 0.58408 0.73709 0.16109 0.0
C283 C 0.6373 0.68653 0.12505 0.0
O284 O 0.61798 0.66556 0.20135 0.0
O285 O 0.65517 0.69105 0.2016 0.0
In286 In 0.2036 0.6703 0.12285 0.0
O287 O 0.15595 0.67596 0.13043 0.0
O288 O 0.18272 0.71166 0.13523 0.0
C289 C 0.22174 0.6712 0.06823 0.0
C290 C 0.19015 0.62442 0.15468 0.0
C291 C 0.24969 0.69334 0.14644 0.0
O292 O 0.20267 0.68744 0.07729 0.0
O293 O 0.22875 0.6521 0.08553 0.0
O294 O 0.24802 0.66711 0.14177 0.0
O295 O 0.22808 0.70743 0.13975 0.0
C296 C 0.15822 0.70156 0.13778 0.0
O297 O 0.20445 0.64509 0.16359 0.0
O298 O 0.18331 0.62602 0.12874 0.0
In299 In 0.75955 0.36972 0.11292 0.0
O300 O 0.74872 0.41522 0.12444 0.0
O301 O 0.78902 0.40661 0.10529 0.0
C302 C 0.72388 0.32708 0.12055 0.0
C303 C 0.7864 0.35792 0.16139 0.0
C304 C 0.753 0.36231 0.05717 0.0
O305 O 0.71625 0.35241 0.12585 0.0
O306 O 0.74911 0.32385 0.11228 0.0
O307 O 0.7756 0.35506 0.06999 0.0
O308 O 0.73501 0.3754 0.07221 0.0
C309 C 0.77272 0.42461 0.11668 0.0
O310 O 0.79699 0.35082 0.13764 0.0
O311 O 0.76283 0.37052 0.16014 0.0
H312 H 0.16315 0.57398 0.1417 0.0
H313 H 0.19585 0.62319 0.21192 0.0
H314 H 0.18008 0.58639 0.24532 0.0
H315 H 0.10124 0.54567 0.17854 0.0
H316 H 0.10393 0.51128 0.16233 0.0
H317 H 0.11635 0.5422 0.14369 0.0
H318 H 0.16576 0.51916 0.13798 0.0
H319 H 0.15339 0.48812 0.15631 0.0
H320 H 0.18425 0.50656 0.16892 0.0
H321 H 0.16267 0.54347 0.27128 0.0
H322 H 0.1474 0.49604 0.28734 0.0
H323 H 0.12582 0.47427 0.2008 0.0
C324 C 0.16686 0.57701 0.16411 0.0
C325 C 0.1808 0.60151 0.17413 0.0
C326 C 0.18536 0.6046 0.20364 0.0
C327 C 0.17632 0.58386 0.22287 0.0
C328 C 0.16268 0.56 0.21239 0.0
C329 C 0.15807 0.55634 0.1837 0.0
C330 C 0.14413 0.52799 0.17803 0.0
C331 C 0.11466 0.53204 0.16487 0.0
C332 C 0.16301 0.50936 0.1592 0.0
C333 C 0.14206 0.51621 0.2079 0.0
C334 C 0.15261 0.53515 0.22743 0.0
C335 C 0.15411 0.52854 0.25621 0.0
C336 C 0.14529 0.50158 0.26518 0.0
C337 C 0.13515 0.4815 0.24544 0.0
C338 C 0.13301 0.48927 0.21652 0.0
H339 H 0.54348 0.12556 0.19282 0.0
H340 H 0.55928 0.1799 0.26506 0.0
H341 H 0.52255 0.21292 0.24815 0.0
H342 H 0.53258 0.17927 0.14243 0.0
H343 H 0.5042 0.1619 0.12386 0.0
H344 H 0.53038 0.14117 0.14229 0.0
H345 H 0.49125 0.11629 0.17151 0.0
H346 H 0.46488 0.13646 0.1527 0.0
H347 H 0.46605 0.1374 0.19082 0.0
H348 H 0.48783 0.24244 0.22107 0.0
H349 H 0.45115 0.26278 0.19005 0.0
H350 H 0.45553 0.18857 0.13623 0.0
C351 C 0.53871 0.14404 0.20546 0.0
C352 C 0.55426 0.15006 0.23037 0.0
C353 C 0.54756 0.17466 0.24609 0.0
C354 C 0.52687 0.19371 0.23651 0.0
C355 C 0.51274 0.18772 0.21134 0.0
C356 C 0.51783 0.16317 0.19637 0.0
C357 C 0.49951 0.16188 0.16997 0.0
C358 C 0.51777 0.161 0.14305 0.0
C359 C 0.47921 0.1365 0.17134 0.0
C360 C 0.48365 0.18973 0.17226 0.0
C361 C 0.49191 0.2044 0.19614 0.0
C362 C 0.48094 0.23099 0.2025 0.0
C363 C 0.46026 0.24248 0.18456 0.0
C364 C 0.45042 0.22732 0.16065 0.0
C365 C 0.46266 0.20074 0.15426 0.0
H366 H 0.76314 0.45189 0.16632 0.0
H367 H 0.80832 0.45926 0.08694 0.0
H368 H 0.83227 0.50248 0.10451 0.0
H369 H 0.75631 0.5283 0.18275 0.0
H370 H 0.76296 0.52249 0.21988 0.0
H371 H 0.74601 0.49539 0.19916 0.0
H372 H 0.7846 0.45958 0.21467 0.0
H373 H 0.80184 0.48659 0.23514 0.0
H374 H 0.82128 0.46776 0.20831 0.0
H375 H 0.85302 0.5441 0.13231 0.0
H376 H 0.87074 0.57774 0.1686 0.0
H377 H 0.81557 0.53909 0.23088 0.0
C378 C 0.77727 0.46326 0.15228 0.0
C379 C 0.78329 0.45285 0.12497 0.0
C380 C 0.80301 0.46736 0.1077 0.0
C381 C 0.81672 0.49185 0.11754 0.0
C382 C 0.8109 0.5012 0.14493 0.0
C383 C 0.79172 0.4872 0.16209 0.0
C384 C 0.79154 0.4994 0.1917 0.0
C385 C 0.76248 0.51216 0.19878 0.0
C386 C 0.80034 0.477 0.21374 0.0
C387 C 0.8138 0.52223 0.18868 0.0
C388 C 0.82436 0.52343 0.16144 0.0
C389 C 0.84493 0.54324 0.15371 0.0
C390 C 0.85492 0.56222 0.1744 0.0
C391 C 0.84486 0.56067 0.20255 0.0
C392 C 0.82403 0.54042 0.20961 0.0
H393 H 0.53517 0.72617 0.22899 0.0
H394 H 0.5492 0.7789 0.15497 0.0
H395 H 0.51964 0.8164 0.17606 0.0
H396 H 0.4614 0.74835 0.24129 0.0
H397 H 0.4654 0.74698 0.27921 0.0
H398 H 0.48602 0.72382 0.25711 0.0
H399 H 0.53167 0.74296 0.28065 0.0
H400 H 0.51122 0.76682 0.30216 0.0
H401 H 0.53889 0.78042 0.27971 0.0
H402 H 0.49098 0.8494 0.20646 0.0
H403 H 0.45923 0.87268 0.24075 0.0
H404 H 0.46413 0.79884 0.29534 0.0
C405 C 0.53141 0.74528 0.21686 0.0
C406 C 0.5444 0.74948 0.19018 0.0
C407 C 0.5393 0.77505 0.17528 0.0
C408 C 0.52274 0.79661 0.18723 0.0
C409 C 0.51132 0.7923 0.21409 0.0
C410 C 0.51492 0.76706 0.22849 0.0
C411 C 0.50038 0.7679 0.25711 0.0
C412 C 0.4769 0.74544 0.25877 0.0
C413 C 0.52183 0.76431 0.28133 0.0
C414 C 0.4882 0.79761 0.25663 0.0
C415 C 0.49493 0.81138 0.23168 0.0
C416 C 0.48555 0.8388 0.22605 0.0
C417 C 0.46775 0.85198 0.24581 0.0
C418 C 0.45944 0.83779 0.27092 0.0
C419 C 0.47057 0.81055 0.27669 0.0
H420 H 0.18133 0.43347 0.84554 0.0
H421 H 0.23933 0.39515 0.78567 0.0
H422 H 0.226 0.4309 0.74985 0.0
H423 H 0.12675 0.45114 0.79539 0.0
H424 H 0.11807 0.48443 0.8118 0.0
H425 H 0.13206 0.45583 0.83288 0.0
H426 H 0.17265 0.48815 0.85045 0.0
H427 H 0.15857 0.51692 0.82972 0.0
H428 H 0.19477 0.50596 0.82495 0.0
H429 H 0.20598 0.47091 0.72011 0.0
H430 H 0.18366 0.51411 0.70044 0.0
H431 H 0.13896 0.52645 0.77964 0.0
C432 C 0.19136 0.43271 0.82497 0.0
C433 C 0.21145 0.41149 0.81849 0.0
C434 C 0.22398 0.41123 0.79123 0.0
C435 C 0.21644 0.43139 0.77064 0.0
C436 C 0.19631 0.45179 0.77756 0.0
C437 C 0.18413 0.45276 0.80415 0.0
C438 C 0.16348 0.47724 0.80633 0.0
C439 C 0.1333 0.46651 0.81193 0.0
C440 C 0.17294 0.49832 0.82922 0.0
C441 C 0.16606 0.48994 0.7769 0.0
C442 C 0.18493 0.47483 0.76053 0.0
C443 C 0.19111 0.48286 0.73274 0.0
C444 C 0.17822 0.50735 0.72166 0.0
C445 C 0.15943 0.52361 0.73836 0.0
C446 C 0.15302 0.51438 0.76618 0.0
H447 H 0.54933 0.2712 0.77882 0.0
H448 H 0.55885 0.21797 0.85323 0.0
H449 H 0.52683 0.18267 0.83205 0.0
H450 H 0.47403 0.25413 0.76566 0.0
H451 H 0.47857 0.25491 0.72778 0.0
H452 H 0.50038 0.27685 0.75 0.0
H453 H 0.54501 0.25457 0.72734 0.0
H454 H 0.52336 0.23199 0.70564 0.0
H455 H 0.54977 0.21673 0.7286 0.0
H456 H 0.49712 0.15135 0.80127 0.0
H457 H 0.46569 0.12917 0.76608 0.0
H458 H 0.47483 0.20257 0.71142 0.0
C459 C 0.54401 0.25252 0.79103 0.0
C460 C 0.55649 0.24748 0.81783 0.0
C461 C 0.54939 0.22246 0.83283 0.0
C462 C 0.5314 0.20214 0.82084 0.0
C463 C 0.5205 0.20717 0.79387 0.0
C464 C 0.52602 0.23199 0.77937 0.0
C465 C 0.51183 0.23191 0.75052 0.0
C466 C 0.4899 0.25587 0.74837 0.0
C467 C 0.53381 0.23392 0.72662 0.0
C468 C 0.49772 0.20307 0.75096 0.0
C469 C 0.5032 0.1891 0.77612 0.0
C470 C 0.49254 0.16216 0.78157 0.0
C471 C 0.47488 0.14963 0.76131 0.0
C472 C 0.4679 0.164 0.73587 0.0
C473 C 0.48007 0.19083 0.73043 0.0
H474 H 0.78551 0.55842 0.84385 0.0
H475 H 0.83127 0.55007 0.92293 0.0
H476 H 0.8572 0.50874 0.90359 0.0
H477 H 0.77988 0.48384 0.82662 0.0
H478 H 0.78562 0.4898 0.78937 0.0
H479 H 0.76938 0.5169 0.81061 0.0
H480 H 0.80792 0.55243 0.79429 0.0
H481 H 0.82444 0.52527 0.77335 0.0
H482 H 0.84469 0.54388 0.79974 0.0
H483 H 0.87724 0.46695 0.87508 0.0
H484 H 0.89155 0.43125 0.83923 0.0
H485 H 0.83605 0.47115 0.77794 0.0
C486 C 0.80063 0.54757 0.85727 0.0
C487 C 0.80606 0.55705 0.88506 0.0
C488 C 0.82663 0.54289 0.90167 0.0
C489 C 0.84144 0.51945 0.89085 0.0
C490 C 0.83584 0.51082 0.86316 0.0
C491 C 0.81607 0.52468 0.84656 0.0
C492 C 0.81509 0.51251 0.81697 0.0
C493 C 0.78576 0.50002 0.81053 0.0
C494 C 0.82355 0.53485 0.79479 0.0
C495 C 0.83727 0.48953 0.81948 0.0
C496 C 0.84878 0.48851 0.84635 0.0
C497 C 0.86863 0.46786 0.85387 0.0
C498 C 0.8767 0.44774 0.83343 0.0
C499 C 0.86545 0.4489 0.80569 0.0
C500 C 0.84567 0.47023 0.79875 0.0
H501 H 0.53163 0.81953 0.7562 0.0
H502 H 0.55291 0.89607 0.80204 0.0
H503 H 0.51119 0.88928 0.83267 0.0
H504 H 0.45402 0.82842 0.75982 0.0
H505 H 0.44787 0.79103 0.76431 0.0
H506 H 0.47821 0.80314 0.74467 0.0
H507 H 0.5108 0.77385 0.77768 0.0
H508 H 0.48063 0.76206 0.79774 0.0
H509 H 0.50947 0.77965 0.81536 0.0
H510 H 0.4692 0.87241 0.8607 0.0
H511 H 0.42714 0.84923 0.88119 0.0
H512 H 0.43235 0.78355 0.81734 0.0
C513 C 0.5271 0.83525 0.77221 0.0
C514 C 0.5455 0.85852 0.77651 0.0
C515 C 0.53908 0.87824 0.79813 0.0
C516 C 0.51547 0.87447 0.81577 0.0
C517 C 0.49831 0.85087 0.81158 0.0
C518 C 0.50354 0.83178 0.79008 0.0
C519 C 0.48206 0.80785 0.79062 0.0
C520 C 0.4645 0.80761 0.76323 0.0
C521 C 0.49662 0.77916 0.79565 0.0
C522 C 0.46415 0.81633 0.81592 0.0
C523 C 0.47398 0.84117 0.82773 0.0
C524 C 0.46121 0.85305 0.8515 0.0
C525 C 0.43739 0.8396 0.86312 0.0
C526 C 0.42641 0.81448 0.85102 0.0
C527 C 0.44027 0.80262 0.82723 0.0
H528 H 0.16746 0.2268 0.55281 0.0
H529 H 0.09355 0.17512 0.56906 0.0
H530 H 0.10964 0.14097 0.5324 0.0
H531 H 0.1726 0.21685 0.47857 0.0
H532 H 0.21067 0.21511 0.47859 0.0
H533 H 0.19258 0.23511 0.50541 0.0
H534 H 0.21812 0.20591 0.54458 0.0
H535 H 0.23627 0.18599 0.51765 0.0
H536 H 0.21563 0.16784 0.54411 0.0
H537 H 0.13295 0.11472 0.49081 0.0
H538 H 0.16226 0.09749 0.45082 0.0
H539 H 0.22306 0.16413 0.46678 0.0
C540 C 0.15445 0.20845 0.54841 0.0
C541 C 0.12892 0.20382 0.56315 0.0
C542 C 0.11297 0.17914 0.5576 0.0
C543 C 0.12202 0.15967 0.53694 0.0
C544 C 0.14745 0.16489 0.52277 0.0
C545 C 0.16358 0.18855 0.52863 0.0
C546 C 0.19048 0.18911 0.51135 0.0
C547 C 0.19163 0.21561 0.49235 0.0
C548 C 0.21667 0.1871 0.53057 0.0
C549 C 0.18674 0.16246 0.49411 0.0
C550 C 0.16176 0.14877 0.50081 0.0
C551 C 0.15282 0.12495 0.48586 0.0
C552 C 0.16959 0.11526 0.46326 0.0
C553 C 0.19523 0.12904 0.45625 0.0
C554 C 0.20405 0.15258 0.47229 0.0
H555 H 0.79361 0.15931 0.55157 0.0
H556 H 0.86038 0.09858 0.56862 0.0
H557 H 0.88891 0.11944 0.53004 0.0
H558 H 0.80187 0.1607 0.4748 0.0
H559 H 0.79458 0.19806 0.47218 0.0
H560 H 0.77918 0.17752 0.50039 0.0
H561 H 0.80086 0.212 0.53699 0.0
H562 H 0.81678 0.23235 0.50891 0.0
H563 H 0.83848 0.21817 0.53694 0.0
H564 H 0.91065 0.14754 0.4902 0.0
H565 H 0.9225 0.17836 0.44961 0.0
H566 H 0.84221 0.22177 0.45886 0.0
C567 C 0.81405 0.15009 0.54689 0.0
C568 C 0.82467 0.12711 0.56305 0.0
C569 C 0.85169 0.11599 0.55646 0.0
C570 C 0.86813 0.12783 0.53467 0.0
C571 C 0.85734 0.15089 0.51965 0.0
C572 C 0.8308 0.16175 0.52527 0.0
C573 C 0.82424 0.18671 0.50601 0.0
C574 C 0.79844 0.18036 0.48723 0.0
C575 C 0.81983 0.21391 0.52325 0.0
C576 C 0.85122 0.18821 0.48867 0.0
C577 C 0.87005 0.16738 0.49697 0.0
C578 C 0.8961 0.16397 0.48361 0.0
C579 C 0.90272 0.1817 0.46065 0.0
C580 C 0.88349 0.20274 0.45125 0.0
C581 C 0.85763 0.20633 0.4659 0.0
H582 H 0.80708 0.83018 0.44467 0.0
H583 H 0.84568 0.91297 0.45253 0.0
H584 H 0.8678 0.89807 0.49786 0.0
H585 H 0.79316 0.81765 0.51881 0.0
H586 H 0.80185 0.78058 0.5167 0.0
H587 H 0.78803 0.79872 0.48612 0.0
H588 H 0.83173 0.78284 0.45707 0.0
H589 H 0.84584 0.76491 0.48765 0.0
H590 H 0.8667 0.79132 0.46967 0.0
H591 H 0.88468 0.87344 0.54378 0.0
H592 H 0.89607 0.8412 0.58386 0.0
H593 H 0.84961 0.77393 0.54248 0.0
C594 C 0.81985 0.84536 0.45611 0.0
C595 C 0.82431 0.87291 0.44531 0.0
C596 C 0.84177 0.89185 0.46058 0.0
C597 C 0.85444 0.88353 0.4863 0.0
C598 C 0.84985 0.85602 0.4962 0.0
C599 C 0.83308 0.83722 0.48138 0.0
C600 C 0.83232 0.80851 0.49565 0.0
C601 C 0.80205 0.80093 0.50487 0.0
C602 C 0.8449 0.78555 0.47636 0.0
C603 C 0.85115 0.81401 0.52096 0.0
C604 C 0.86088 0.84158 0.52121 0.0
C605 C 0.87745 0.85172 0.54352 0.0
C606 C 0.88391 0.83328 0.56615 0.0
C607 C 0.87428 0.8049 0.56602 0.0
C608 C 0.85796 0.79527 0.54289 0.0
H609 H 0.15456 0.78393 0.4508 0.0
H610 H 0.07622 0.83115 0.44565 0.0
H611 H 0.09398 0.86416 0.48277 0.0
H612 H 0.16748 0.7899 0.52455 0.0
H613 H 0.20509 0.79416 0.52018 0.0
H614 H 0.18512 0.77446 0.49449 0.0
H615 H 0.20399 0.80724 0.45449 0.0
H616 H 0.22398 0.82699 0.48018 0.0
H617 H 0.19918 0.84498 0.45741 0.0
H618 H 0.12082 0.88977 0.52383 0.0
H619 H 0.15452 0.90714 0.56036 0.0
H620 H 0.21613 0.84533 0.53235 0.0
C621 C 0.14093 0.801 0.45777 0.0
C622 C 0.11376 0.80468 0.4461 0.0
C623 C 0.09695 0.82784 0.45482 0.0
C624 C 0.10692 0.84662 0.47578 0.0
C625 C 0.13401 0.8423 0.48695 0.0
C626 C 0.15083 0.82021 0.47776 0.0
C627 C 0.17956 0.82047 0.49164 0.0
C628 C 0.18459 0.79314 0.50873 0.0
C629 C 0.20306 0.8252 0.46962 0.0
C630 C 0.17631 0.8458 0.51074 0.0
C631 C 0.14989 0.85811 0.50814 0.0
C632 C 0.14172 0.88058 0.52554 0.0
C633 C 0.16095 0.89037 0.54617 0.0
C634 C 0.18814 0.87803 0.54873 0.0
C635 C 0.19583 0.8558 0.53042 0.0
H636 H 0.66082 0.9357 0.68947 0.0
H637 H 0.70892 0.91463 0.76489 0.0
H638 H 0.74538 0.94942 0.75122 0.0
H639 H 0.72052 0.94535 0.64298 0.0
H640 H 0.70523 0.97486 0.62416 0.0
H641 H 0.68265 0.94836 0.63973 0.0
H642 H 0.65616 0.98705 0.66803 0.0
H643 H 0.6784 0.01368 0.65226 0.0
H644 H 0.67599 0.01085 0.69024 0.0
H645 H 0.77691 0.98665 0.72939 0.0
H646 H 0.79925 0.02579 0.70274 0.0
H647 H 0.73117 0.02279 0.64124 0.0
C648 C 0.67892 0.93856 0.7032 0.0
C649 C 0.6819 0.92241 0.72835 0.0
C650 C 0.70604 0.92675 0.74561 0.0
C651 C 0.72698 0.9464 0.73794 0.0
C652 C 0.72363 0.96168 0.71288 0.0
C653 C 0.70011 0.95817 0.69586 0.0
C654 C 0.70149 0.97765 0.67025 0.0
C655 C 0.70254 0.96052 0.64265 0.0
C656 C 0.67653 0.99855 0.67021 0.0
C657 C 0.72935 0.99272 0.67562 0.0
C658 C 0.74187 0.98306 0.70025 0.0
C659 C 0.76735 0.99429 0.71001 0.0
C660 C 0.77999 0.01645 0.69464 0.0
C661 C 0.76721 0.02724 0.66971 0.0
C662 C 0.74178 0.01476 0.65993 0.0
H663 H 0.95934 0.68762 0.61619 0.0
H664 H 0.92342 0.71237 0.69683 0.0
H665 H 0.95922 0.6838 0.72192 0.0
H666 H 0.98093 0.61491 0.63733 0.0
H667 H 0.01368 0.6163 0.61788 0.0
H668 H 0.98344 0.63614 0.60567 0.0
H669 H 0.01309 0.68221 0.60631 0.0
H670 H 0.04339 0.66249 0.61837 0.0
H671 H 0.03095 0.69242 0.63842 0.0
H672 H 0.99979 0.65558 0.73865 0.0
H673 H 0.04531 0.63152 0.74646 0.0
H674 H 0.05742 0.62515 0.65563 0.0
C675 C 0.95888 0.68649 0.63908 0.0
C676 C 0.93854 0.70188 0.65471 0.0
C677 C 0.93882 0.70057 0.68461 0.0
C678 C 0.95896 0.68432 0.69902 0.0
C679 C 0.97894 0.66957 0.68325 0.0
C680 C 0.9793 0.67055 0.65397 0.0
C681 C 0.00468 0.65439 0.64254 0.0
C682 C 0.9951 0.62892 0.6248 0.0
C683 C 0.02418 0.67406 0.6254 0.0
C684 C 0.01869 0.64479 0.66996 0.0
C685 C 0.00311 0.65348 0.69309 0.0
C686 C 0.01208 0.64842 0.72072 0.0
C687 C 0.03799 0.63469 0.72495 0.0
C688 C 0.05487 0.62622 0.70171 0.0
C689 C 0.04476 0.63089 0.67382 0.0
H690 H 0.33495 0.06428 0.68715 0.0
H691 H 0.41167 0.05884 0.6373 0.0
H692 H 0.39308 0.01558 0.61389 0.0
H693 H 0.32266 0.98951 0.69678 0.0
H694 H 0.28488 0.99313 0.69332 0.0
H695 H 0.30553 0.022 0.70706 0.0
H696 H 0.28487 0.05511 0.66833 0.0
H697 H 0.26441 0.02627 0.65428 0.0
H698 H 0.28833 0.04548 0.6316 0.0
H699 H 0.36516 0.9713 0.59695 0.0
H700 H 0.33024 0.93334 0.58653 0.0
H701 H 0.2711 0.97232 0.64464 0.0
C702 C 0.34812 0.05378 0.67163 0.0
C703 C 0.37498 0.06463 0.66437 0.0
C704 C 0.39115 0.05068 0.64338 0.0
C705 C 0.38073 0.02615 0.62999 0.0
C706 C 0.3539 0.01621 0.63748 0.0
C707 C 0.33782 0.02986 0.65772 0.0
C708 C 0.30912 0.01622 0.66117 0.0
C709 C 0.30534 0.00452 0.69137 0.0
C710 C 0.28528 0.03701 0.65337 0.0
C711 C 0.3114 0.99261 0.63978 0.0
C712 C 0.33745 0.99252 0.62651 0.0
C713 C 0.34459 0.9715 0.60698 0.0
C714 C 0.32467 0.95007 0.60112 0.0
C715 C 0.29777 0.95026 0.61427 0.0
C716 C 0.29119 0.972 0.63363 0.0
H717 H 0.03652 0.28221 0.66268 0.0
H718 H 0.06298 0.34552 0.60173 0.0
H719 H 0.02428 0.37727 0.61823 0.0
H720 H 0.96125 0.29446 0.66085 0.0
H721 H 0.95749 0.28925 0.69846 0.0
H722 H 0.98521 0.27131 0.67953 0.0
H723 H 0.02219 0.2927 0.71377 0.0
H724 H 0.99481 0.31125 0.73257 0.0
H725 H 0.02425 0.33055 0.71789 0.0
H726 H 0.98035 0.4011 0.64169 0.0
H727 H 0.93995 0.41593 0.67205 0.0
H728 H 0.94837 0.33848 0.72059 0.0
C729 C 0.0338 0.30248 0.65226 0.0
C730 C 0.05212 0.31115 0.63034 0.0
C731 C 0.04872 0.33834 0.61817 0.0
C732 C 0.02687 0.35645 0.62748 0.0
C733 C 0.00927 0.34723 0.64945 0.0
C734 C 0.01291 0.32094 0.66184 0.0
C735 C 0.99306 0.31649 0.68649 0.0
C736 C 0.97307 0.2914 0.68099 0.0
C737 C 0.00957 0.31253 0.71432 0.0
C738 C 0.97731 0.34428 0.68605 0.0
C739 C 0.98644 0.36169 0.66432 0.0
C740 C 0.97344 0.38777 0.65901 0.0
C741 C 0.95058 0.39606 0.67631 0.0
C742 C 0.94161 0.37865 0.69902 0.0
C743 C 0.95535 0.35261 0.7039 0.0
H744 H 0.76828 0.97051 0.31158 0.0
H745 H 0.71806 0.94999 0.38566 0.0
H746 H 0.6783 0.97774 0.36631 0.0
H747 H 0.74016 0.04346 0.30185 0.0
H748 H 0.74112 0.04064 0.26383 0.0
H749 H 0.76619 0.02125 0.28504 0.0
H750 H 0.75006 0.97501 0.26027 0.0
H751 H 0.72421 0.99429 0.23988 0.0
H752 H 0.71334 0.96488 0.26167 0.0
H753 H 0.64301 0.00554 0.33807 0.0
H754 H 0.61651 0.03662 0.3053 0.0
H755 H 0.6886 0.03846 0.24864 0.0
C756 C 0.74923 0.97261 0.32411 0.0
C757 C 0.74643 0.95828 0.35034 0.0
C758 C 0.72083 0.96096 0.36569 0.0
C759 C 0.69801 0.97651 0.35475 0.0
C760 C 0.70099 0.98935 0.32835 0.0
C761 C 0.72609 0.98805 0.31341 0.0
C762 C 0.7234 0.0035 0.28526 0.0
C763 C 0.74393 0.02871 0.28393 0.0
C764 C 0.72803 0.9832 0.2603 0.0
C765 C 0.69285 0.0134 0.28666 0.0
C766 C 0.68034 0.00493 0.31171 0.0
C767 C 0.65255 0.01222 0.31834 0.0
C768 C 0.63753 0.02963 0.29946 0.0
C769 C 0.65017 0.03942 0.27411 0.0
C770 C 0.67799 0.03054 0.26737 0.0
H771 H 0.94776 0.65251 0.28212 0.0
H772 H 0.93583 0.58314 0.341 0.0
H773 H 0.97571 0.60127 0.37023 0.0
H774 H 0.02413 0.66086 0.28749 0.0
H775 H 0.02178 0.69891 0.28635 0.0
H776 H 0.9956 0.67776 0.26857 0.0
H777 H 0.95597 0.70333 0.2967 0.0
H778 H 0.98201 0.7243 0.31485 0.0
H779 H 0.95718 0.70334 0.33482 0.0
H780 H 0.01799 0.62841 0.3927 0.0
H781 H 0.05414 0.66351 0.40811 0.0
H782 H 0.03162 0.71735 0.33725 0.0
C783 C 0.95416 0.64054 0.30065 0.0
C784 C 0.93951 0.61587 0.30886 0.0
C785 C 0.94739 0.60168 0.33406 0.0
C786 C 0.9699 0.6119 0.35075 0.0
C787 C 0.98359 0.63674 0.34227 0.0
C788 C 0.97565 0.65097 0.3179 0.0
C789 C 0.99109 0.67877 0.31474 0.0
C790 C 0.00922 0.67908 0.2877 0.0
C791 C 0.97033 0.7039 0.31532 0.0
C792 C 0.00927 0.67801 0.341 0.0
C793 C 0.00521 0.65346 0.35647 0.0
C794 C 0.02099 0.64784 0.3809 0.0
C795 C 0.04137 0.66782 0.38956 0.0
C796 C 0.04501 0.69333 0.37426 0.0
C797 C 0.02865 0.69837 0.34982 0.0
H798 H 0.36615 0.9457 0.34947 0.0
H799 H 0.31078 0.91693 0.28205 0.0
H800 H 0.27659 0.95411 0.29396 0.0
H801 H 0.31226 0.96523 0.39923 0.0
H802 H 0.32954 0.99701 0.41123 0.0
H803 H 0.35027 0.96786 0.39809 0.0
H804 H 0.37385 1.00083 0.36113 0.0
H805 H 0.35351 0.03015 0.37446 0.0
H806 H 0.35194 0.02124 0.33742 0.0
H807 H 0.2468 0.99163 0.31447 0.0
H808 H 0.22631 0.03371 0.33704 0.0
H809 H 0.30156 0.04247 0.38903 0.0
C810 C 0.34697 0.9475 0.33708 0.0
C811 C 0.34119 0.92829 0.31482 0.0
C812 C 0.31585 0.93139 0.29906 0.0
C813 C 0.29611 0.95234 0.3058 0.0
C814 C 0.30208 0.97052 0.3281 0.0
C815 C 0.32712 0.96892 0.3431 0.0
C816 C 0.32851 0.9923 0.36516 0.0
C817 C 0.33025 0.97984 0.39521 0.0
C818 C 0.35343 0.01232 0.35918 0.0
C819 C 0.30027 0.00699 0.36021 0.0
C820 C 0.28527 0.99359 0.33906 0.0
C821 C 0.25842 0.00252 0.3309 0.0
C822 C 0.24687 0.02638 0.34404 0.0
C823 C 0.26227 0.04148 0.36482 0.0
C824 C 0.28923 0.03136 0.37327 0.0
H825 H 0.04695 0.37499 0.31299 0.0
H826 H 0.06675 0.32766 0.23691 0.0
H827 H 0.03385 0.28997 0.25191 0.0
H828 H 0.04286 0.31705 0.35952 0.0
H829 H 0.01339 0.33025 0.37976 0.0
H830 H 0.037 0.35464 0.36243 0.0
H831 H 0.99497 0.37761 0.33566 0.0
H832 H 0.97113 0.35376 0.35346 0.0
H833 H 0.97145 0.35555 0.31534 0.0
H834 H 0.00217 0.25543 0.27729 0.0
H835 H 0.96772 0.23003 0.30726 0.0
H836 H 0.96713 0.30042 0.3661 0.0
C837 C 0.04384 0.35703 0.29914 0.0
C838 C 0.05936 0.35435 0.27369 0.0
C839 C 0.05491 0.33034 0.25635 0.0
C840 C 0.03646 0.30867 0.26482 0.0
C841 C 0.02235 0.31145 0.29056 0.0
C842 C 0.02528 0.33531 0.30715 0.0
C843 C 0.00761 0.33303 0.33384 0.0
C844 C 0.02634 0.33379 0.36046 0.0
C845 C 0.98494 0.35637 0.33461 0.0
C846 C 0.9945 0.30405 0.3298 0.0
C847 C 0.00355 0.29183 0.30485 0.0
C848 C 0.99474 0.2649 0.29675 0.0
C849 C 0.97536 0.25051 0.31407 0.0
C850 C 0.96477 0.26318 0.33907 0.0
C851 C 0.97493 0.29011 0.3472 0.0
H852 H 0.75236 0.66882 0.00194 0.0
H853 H 0.71167 0.58943 0.98068 0.0
H854 H 0.67858 0.59559 0.0206 0.0
H855 H 0.74422 0.66294 0.07982 0.0
H856 H 0.73725 0.70025 0.08368 0.0
H857 H 0.7596 0.68793 0.05538 0.0
H858 H 0.72745 0.71366 0.01911 0.0
H859 H 0.7047 0.7256 0.0472 0.0
H860 H 0.6902 0.70563 0.01816 0.0
H861 H 0.64732 0.61223 0.06047 0.0
H862 H 0.62249 0.63659 0.09954 0.0
H863 H 0.68282 0.70558 0.09443 0.0
C864 C 0.73708 0.65231 0.00627 0.0
C865 C 0.73485 0.62843 0.98841 0.0
C866 C 0.71396 0.60774 0.99425 0.0
C867 C 0.69497 0.61111 0.01681 0.0
C868 C 0.69703 0.63536 0.03339 0.0
C869 C 0.71775 0.65547 0.02863 0.0
C870 C 0.71442 0.68028 0.04869 0.0
C871 C 0.74042 0.683 0.06804 0.0
C872 C 0.70886 0.70792 0.0323 0.0
C873 C 0.68849 0.6711 0.06523 0.0
C874 C 0.67879 0.64511 0.05611 0.0
C875 C 0.65484 0.63251 0.06791 0.0
C876 C 0.64076 0.64658 0.08999 0.0
C877 C 0.6506 0.67302 0.10001 0.0
C878 C 0.67467 0.68544 0.0872 0.0
H879 H 0.22097 0.72025 0.03692 0.0
H880 H 0.26427 0.63964 0.04484 0.0
H881 H 0.30038 0.65591 0.01067 0.0
H882 H 0.23589 0.73164 0.961 0.0
H883 H 0.2405 0.7692 0.96561 0.0
H884 H 0.21691 0.74993 0.98853 0.0
H885 H 0.2443 0.76894 0.03203 0.0
H886 H 0.26845 0.78763 0.00922 0.0
H887 H 0.28179 0.7626 0.03481 0.0
H888 H 0.33352 0.6822 0.97778 0.0
H889 H 0.35826 0.71455 0.94489 0.0
H890 H 0.29419 0.77859 0.95956 0.0
C891 C 0.23757 0.70569 0.03084 0.0
C892 C 0.23956 0.67849 0.04335 0.0
C893 C 0.26207 0.6604 0.03531 0.0
C894 C 0.28283 0.66957 0.01608 0.0
C895 C 0.28087 0.69692 0.00506 0.0
C896 C 0.25858 0.71457 0.01182 0.0
C897 C 0.26185 0.74327 0.99766 0.0
C898 C 0.23733 0.74883 0.97697 0.0
C899 C 0.26424 0.767 0.01976 0.0
C900 C 0.28956 0.7391 0.98207 0.0
C901 C 0.30021 0.71223 0.98663 0.0
C902 C 0.32534 0.70329 0.97406 0.0
C903 C 0.3394 0.72191 0.95559 0.0
C904 C 0.32843 0.74926 0.94989 0.0
C905 C 0.30348 0.75807 0.96388 0.0
H906 H 0.24306 0.30779 0.96521 0.0
H907 H 0.29657 0.37755 0.93879 0.0
H908 H 0.33291 0.3625 0.9733 0.0
H909 H 0.26323 0.30847 0.04094 0.0
H910 H 0.26201 0.27043 0.0435 0.0
H911 H 0.23931 0.28867 0.01884 0.0
H912 H 0.25944 0.25786 0.97826 0.0
H913 H 0.28277 0.24008 0.00264 0.0
H914 H 0.29701 0.25756 0.97183 0.0
H915 H 0.36485 0.33786 0.00848 0.0
H916 H 0.38784 0.30845 0.04524 0.0
H917 H 0.3142 0.25379 0.04758 0.0
C918 C 0.26202 0.32045 0.96732 0.0
C919 C 0.2668 0.34411 0.94951 0.0
C920 C 0.29228 0.35959 0.95242 0.0
C921 C 0.31315 0.35106 0.97182 0.0
C922 C 0.3083 0.32693 0.98816 0.0
C923 C 0.28318 0.31208 0.98643 0.0
C924 C 0.28366 0.28631 0.00568 0.0
C925 C 0.26069 0.28862 0.0286 0.0
C926 C 0.28053 0.25884 0.98857 0.0
C927 C 0.31304 0.28882 0.01829 0.0
C928 C 0.32691 0.3124 0.00792 0.0
C929 C 0.35416 0.31937 0.01676 0.0
C930 C 0.36717 0.30239 0.03748 0.0
C931 C 0.35303 0.2786 0.04906 0.0
C932 C 0.32583 0.27149 0.03879 0.0
H933 H 0.70448 0.37237 0.02663 0.0
H934 H 0.78494 0.32836 0.0228 0.0
H935 H 0.7703 0.30585 0.97797 0.0
H936 H 0.66232 0.31629 0.00156 0.0
H937 H 0.63872 0.33815 0.98099 0.0
H938 H 0.65609 0.35252 0.01168 0.0
H939 H 0.67714 0.39304 0.98128 0.0
H940 H 0.65948 0.37906 0.95055 0.0
H941 H 0.69719 0.38456 0.94998 0.0
H942 H 0.74552 0.28536 0.93552 0.0
H943 H 0.71428 0.2716 0.89608 0.0
H944 H 0.64992 0.32943 0.92668 0.0
C945 C 0.71928 0.35846 0.01607 0.0
C946 C 0.746 0.35229 0.0282 0.0
C947 C 0.76452 0.33364 0.01385 0.0
C948 C 0.7563 0.32062 0.98843 0.0
C949 C 0.72954 0.32657 0.97748 0.0
C950 C 0.71144 0.34535 0.99061 0.0
C951 C 0.68361 0.34763 0.97468 0.0
C952 C 0.65872 0.33807 0.99335 0.0
C953 C 0.6791 0.37787 0.96345 0.0
C954 C 0.68876 0.32696 0.95069 0.0
C955 C 0.71536 0.31498 0.95281 0.0
C956 C 0.72476 0.2948 0.93354 0.0
C957 C 0.70676 0.28701 0.91125 0.0
C958 C 0.67962 0.29941 0.90821 0.0
C959 C 0.67052 0.31956 0.92839 0.0
H960 H 0.13932 0.30305 0.29996 0.0
H961 H 0.1912 0.36158 0.34766 0.0
H962 H 0.21128 0.32115 0.37489 0.0
H963 H 0.12534 0.25302 0.3585 0.0
H964 H 0.12662 0.223 0.33507 0.0
H965 H 0.11463 0.25684 0.32206 0.0
H966 H 0.15246 0.25498 0.28241 0.0
H967 H 0.16475 0.22135 0.2954 0.0
H968 H 0.18914 0.25044 0.29181 0.0
H969 H 0.22966 0.27303 0.3923 0.0
H970 H 0.24228 0.22277 0.40049 0.0
H971 H 0.17666 0.19701 0.34185 0.0
C972 C 0.15455 0.30747 0.31651 0.0
C973 C 0.16383 0.33535 0.32175 0.0
C974 C 0.18371 0.34033 0.34353 0.0
C975 C 0.19523 0.3175 0.35898 0.0
C976 C 0.18617 0.29006 0.35261 0.0
C977 C 0.16589 0.28514 0.33216 0.0
C978 C 0.16046 0.25387 0.32817 0.0
C979 C 0.12995 0.24624 0.33645 0.0
C980 C 0.16711 0.24464 0.29765 0.0
C981 C 0.1815 0.24169 0.34895 0.0
C982 C 0.19611 0.2628 0.36298 0.0
C983 C 0.21798 0.25641 0.38178 0.0
C984 C 0.22508 0.22783 0.3862 0.0
C985 C 0.2103 0.20601 0.37195 0.0
C986 C 0.18805 0.21317 0.35338 0.0
H987 H 0.79658 0.19362 0.36779 0.0
H988 H 0.85966 0.14586 0.3214 0.0
H989 H 0.82163 0.11715 0.29978 0.0
H990 H 0.74354 0.13451 0.377 0.0
H991 H 0.71454 0.15876 0.37181 0.0
H992 H 0.74672 0.17076 0.38836 0.0
H993 H 0.75074 0.21074 0.35091 0.0
H994 H 0.71894 0.19871 0.33403 0.0
H995 H 0.75115 0.2017 0.31385 0.0
H996 H 0.77726 0.09993 0.27735 0.0
H997 H 0.73014 0.09511 0.25574 0.0
H998 H 0.69585 0.15492 0.31622 0.0
C999 C 0.80249 0.1765 0.35379 0.0
C1000 C 0.831 0.17181 0.34627 0.0
C1001 C 0.83792 0.14958 0.32756 0.0
C1002 C 0.81647 0.13316 0.31527 0.0
C1003 C 0.78843 0.13919 0.32224 0.0
C1004 C 0.78143 0.16016 0.34131 0.0
C1005 C 0.74982 0.16504 0.3425 0.0
C1006 C 0.73796 0.15676 0.37165 0.0
C1007 C 0.74225 0.19586 0.33485 0.0
C1008 C 0.74015 0.14468 0.31991 0.0
C1009 C 0.76267 0.12951 0.30895 0.0
C1010 C 0.75943 0.11129 0.28611 0.0
C1011 C 0.73262 0.10888 0.27386 0.0
C1012 C 0.70946 0.12475 0.28435 0.0
C1013 C 0.71315 0.14233 0.30806 0.0
H1014 H 0.88093 0.70206 0.31844 0.0
H1015 H 0.86845 0.71519 0.22848 0.0
H1016 H 0.86982 0.76717 0.23599 0.0
H1017 H 0.83549 0.75237 0.34078 0.0
H1018 H 0.85586 0.76311 0.37118 0.0
H1019 H 0.85975 0.728 0.35741 0.0
H1020 H 0.91368 0.73621 0.35216 0.0
H1021 H 0.9099 0.77174 0.3655 0.0
H1022 H 0.92638 0.76578 0.33163 0.0
H1023 H 0.86473 0.81744 0.25495 0.0
H1024 H 0.84992 0.85904 0.28317 0.0
H1025 H 0.86556 0.81205 0.36029 0.0
C1026 C 0.87914 0.71583 0.30016 0.0
C1027 C 0.87455 0.70464 0.27288 0.0
C1028 C 0.87214 0.72336 0.24956 0.0
C1029 C 0.87304 0.75289 0.25365 0.0
C1030 C 0.87683 0.76325 0.2811 0.0
C1031 C 0.88 0.74511 0.3039 0.0
C1032 C 0.88023 0.76093 0.33166 0.0
C1033 C 0.85641 0.7505 0.35138 0.0
C1034 C 0.90928 0.75853 0.34608 0.0
C1035 C 0.8749 0.79073 0.32122 0.0
C1036 C 0.87386 0.79195 0.29195 0.0
C1037 C 0.86622 0.81684 0.27781 0.0
C1038 C 0.85809 0.8405 0.29397 0.0
C1039 C 0.85718 0.83878 0.32384 0.0
C1040 C 0.86687 0.81405 0.33748 0.0
H1041 H 0.3009 0.84847 0.36394 0.0
H1042 H 0.3513 0.77216 0.36352 0.0
H1043 H 0.31022 0.74487 0.38157 0.0
H1044 H 0.25295 0.82911 0.42665 0.0
H1045 H 0.22352 0.84579 0.40893 0.0
H1046 H 0.25875 0.85959 0.40437 0.0
H1047 H 0.25261 0.85514 0.35004 0.0
H1048 H 0.21794 0.84048 0.35447 0.0
H1049 H 0.24435 0.82109 0.33499 0.0
H1050 H 0.2604 0.72481 0.38891 0.0
H1051 H 0.20874 0.71504 0.38755 0.0
H1052 H 0.19235 0.80516 0.38241 0.0
C1053 C 0.30366 0.82632 0.36931 0.0
C1054 C 0.32921 0.81242 0.36312 0.0
C1055 C 0.33204 0.78324 0.36909 0.0
C1056 C 0.30872 0.7676 0.3791 0.0
C1057 C 0.28306 0.78169 0.38333 0.0
C1058 C 0.28073 0.81065 0.37922 0.0
C1059 C 0.2504 0.82047 0.38112 0.0
C1060 C 0.24616 0.83988 0.40682 0.0
C1061 C 0.24079 0.83512 0.35352 0.0
C1062 C 0.23572 0.79243 0.38527 0.0
C1063 C 0.2547 0.77024 0.38705 0.0
C1064 C 0.24543 0.74213 0.38821 0.0
C1065 C 0.21612 0.73673 0.38729 0.0
C1066 C 0.19665 0.75933 0.38469 0.0
C1067 C 0.20673 0.7874 0.38433 0.0
H1068 H 0.14165 0.69646 0.6677 0.0
H1069 H 0.21266 0.64123 0.65025 0.0
H1070 H 0.23901 0.68197 0.62992 0.0
H1071 H 0.14964 0.74334 0.60495 0.0
H1072 H 0.13919 0.77395 0.62509 0.0
H1073 H 0.12514 0.7396 0.63394 0.0
H1074 H 0.14301 0.7457 0.68547 0.0
H1075 H 0.15749 0.77977 0.67673 0.0
H1076 H 0.17994 0.75278 0.69172 0.0
H1077 H 0.25946 0.73125 0.61699 0.0
H1078 H 0.27049 0.7824 0.61103 0.0
H1079 H 0.18534 0.80331 0.63788 0.0
C1080 C 0.16245 0.69272 0.65888 0.0
C1081 C 0.17508 0.66572 0.66036 0.0
C1082 C 0.20246 0.66172 0.64891 0.0
C1083 C 0.2176 0.68478 0.63748 0.0
C1084 C 0.20484 0.71148 0.63739 0.0
C1085 C 0.17764 0.7153 0.64744 0.0
C1086 C 0.16909 0.74609 0.64704 0.0
C1087 C 0.1443 0.75103 0.62653 0.0
C1088 C 0.16198 0.75669 0.67702 0.0
C1089 C 0.19598 0.7593 0.63604 0.0
C1090 C 0.21641 0.73921 0.63026 0.0
C1091 C 0.24342 0.74706 0.62112 0.0
C1092 C 0.24956 0.77611 0.61788 0.0
C1093 C 0.22881 0.79684 0.62402 0.0
C1094 C 0.20172 0.78807 0.63295 0.0
H1095 H 0.30938 0.15545 0.63856 0.0
H1096 H 0.36312 0.22912 0.64651 0.0
H1097 H 0.32259 0.26 0.63363 0.0
H1098 H 0.26146 0.1836 0.58064 0.0
H1099 H 0.23145 0.16645 0.59678 0.0
H1100 H 0.26606 0.15066 0.59944 0.0
H1101 H 0.26092 0.14957 0.65406 0.0
H1102 H 0.22674 0.1659 0.65166 0.0
H1103 H 0.25404 0.18208 0.67276 0.0
H1104 H 0.27322 0.28292 0.62818 0.0
H1105 H 0.22184 0.29453 0.62937 0.0
H1106 H 0.20221 0.20501 0.62707 0.0
C1107 C 0.31293 0.178 0.63634 0.0
C1108 C 0.33934 0.18993 0.64316 0.0
C1109 C 0.34314 0.21955 0.64073 0.0
C1110 C 0.32016 0.23723 0.63362 0.0
C1111 C 0.29379 0.22481 0.62865 0.0
C1112 C 0.29036 0.19572 0.62943 0.0
C1113 C 0.25965 0.18738 0.62689 0.0
C1114 C 0.25436 0.17107 0.59929 0.0
C1115 C 0.24979 0.17025 0.65289 0.0
C1116 C 0.24606 0.21625 0.62598 0.0
C1117 C 0.26587 0.23774 0.6264 0.0
C1118 C 0.25763 0.26619 0.6274 0.0
C1119 C 0.22848 0.27263 0.62817 0.0
C1120 C 0.20818 0.25065 0.62862 0.0
C1121 C 0.21727 0.22228 0.62701 0.0
H1122 H 0.84789 0.18484 0.65994 0.0
H1123 H 0.81209 0.14717 0.73558 0.0
H1124 H 0.82461 0.19018 0.76275 0.0
H1125 H 0.90524 0.2267 0.69405 0.0
H1126 H 0.89972 0.2561 0.67029 0.0
H1127 H 0.89295 0.2205 0.65847 0.0
H1128 H 0.84193 0.23499 0.64452 0.0
H1129 H 0.84838 0.27048 0.65651 0.0
H1130 H 0.81913 0.25061 0.67078 0.0
H1131 H 0.83733 0.23963 0.78049 0.0
H1132 H 0.84642 0.29107 0.78616 0.0
H1133 H 0.87018 0.2965 0.69771 0.0
C1134 C 0.84366 0.18517 0.68246 0.0
C1135 C 0.8296 0.16242 0.69583 0.0
C1136 C 0.82332 0.16418 0.72507 0.0
C1137 C 0.83034 0.18853 0.74064 0.0
C1138 C 0.8434 0.21102 0.72657 0.0
C1139 C 0.84997 0.20948 0.69808 0.0
C1140 C 0.86068 0.23757 0.68696 0.0
C1141 C 0.89148 0.23506 0.67685 0.0
C1142 C 0.84137 0.24908 0.66331 0.0
C1143 C 0.85859 0.25537 0.71343 0.0
C1144 C 0.84916 0.23966 0.73626 0.0
C1145 C 0.84491 0.25203 0.76276 0.0
C1146 C 0.85013 0.28121 0.76583 0.0
C1147 C 0.85886 0.29769 0.74236 0.0
C1148 C 0.86341 0.28442 0.71601 0.0
H1149 H 0.77792 0.72982 0.66197 0.0
H1150 H 0.7843 0.7824 0.58731 0.0
H1151 H 0.73465 0.79765 0.5935 0.0
H1152 H 0.6976 0.71406 0.65791 0.0
H1153 H 0.69489 0.71749 0.69581 0.0
H1154 H 0.72666 0.7033 0.68019 0.0
H1155 H 0.75634 0.74124 0.70627 0.0
H1156 H 0.72484 0.75546 0.72177 0.0
H1157 H 0.74782 0.77813 0.7014 0.0
H1158 H 0.68938 0.81569 0.61387 0.0
H1159 H 0.65442 0.83593 0.6472 0.0
H1160 H 0.67835 0.77326 0.70987 0.0
C1161 C 0.76807 0.74302 0.64597 0.0
C1162 C 0.78422 0.75407 0.62353 0.0
C1163 C 0.77169 0.77295 0.60398 0.0
C1164 C 0.74355 0.78175 0.60743 0.0
C1165 C 0.7284 0.77165 0.63071 0.0
C1166 C 0.74022 0.75245 0.64957 0.0
C1167 C 0.72206 0.74918 0.67577 0.0
C1168 C 0.70955 0.71922 0.6775 0.0
C1169 C 0.73876 0.75646 0.70286 0.0
C1170 C 0.69929 0.77089 0.66961 0.0
C1171 C 0.70268 0.78298 0.64315 0.0
C1172 C 0.68604 0.80584 0.6343 0.0
C1173 C 0.66618 0.8172 0.6533 0.0
C1174 C 0.66365 0.80601 0.68095 0.0
C1175 C 0.67964 0.78195 0.68867 0.0
H1176 H 0.30472 0.16033 0.31654 0.0
H1177 H 0.2364 0.11282 0.27806 0.0
H1178 H 0.25545 0.12394 0.23053 0.0
H1179 H 0.30339 0.21597 0.26803 0.0
H1180 H 0.34108 0.22163 0.26807 0.0
H1181 H 0.32412 0.20679 0.29875 0.0
H1182 H 0.35772 0.16343 0.29663 0.0
H1183 H 0.37477 0.17816 0.26583 0.0
H1184 H 0.35998 0.14304 0.26451 0.0
H1185 H 0.28054 0.1432 0.18694 0.0
H1186 H 0.30736 0.17158 0.15173 0.0
H1187 H 0.35765 0.20725 0.2196 0.0
C1188 C 0.29409 0.15178 0.29813 0.0
C1189 C 0.26927 0.13554 0.30091 0.0
C1190 C 0.25555 0.12526 0.27634 0.0
C1191 C 0.26628 0.13134 0.24929 0.0
C1192 C 0.29067 0.14777 0.24724 0.0
C1193 C 0.30431 0.15792 0.27107 0.0
C1194 C 0.32856 0.17721 0.26329 0.0
C1195 C 0.324 0.20716 0.27523 0.0
C1196 C 0.35694 0.1647 0.27315 0.0
C1197 C 0.32611 0.17685 0.23141 0.0
C1198 C 0.30449 0.1594 0.2224 0.0
C1199 C 0.29768 0.15673 0.19375 0.0
C1200 C 0.31302 0.17281 0.17391 0.0
C1201 C 0.33447 0.19153 0.18302 0.0
C1202 C 0.34135 0.19305 0.21204 0.0
H1203 H 0.86724 0.26345 0.27536 0.0
H1204 H 0.83558 0.32007 0.34023 0.0
H1205 H 0.81475 0.35068 0.30287 0.0
H1206 H 0.88489 0.31752 0.22335 0.0
H1207 H 0.87408 0.29595 0.19386 0.0
H1208 H 0.88749 0.27951 0.22561 0.0
H1209 H 0.84179 0.24953 0.22968 0.0
H1210 H 0.82829 0.26579 0.19795 0.0
H1211 H 0.80793 0.26707 0.23017 0.0
H1212 H 0.79491 0.37309 0.25839 0.0
H1213 H 0.77767 0.38589 0.21072 0.0
H1214 H 0.82364 0.31508 0.1749 0.0
C1215 C 0.8561 0.2824 0.28181 0.0
C1216 C 0.85298 0.28941 0.31076 0.0
C1217 C 0.83823 0.31435 0.31821 0.0
C1218 C 0.8264 0.33183 0.29713 0.0
C1219 C 0.82977 0.32413 0.26878 0.0
C1220 C 0.84437 0.30004 0.26114 0.0
C1221 C 0.8443 0.29588 0.22932 0.0
C1222 C 0.87449 0.29731 0.21734 0.0
C1223 C 0.8297 0.26791 0.22132 0.0
C1224 C 0.82696 0.3212 0.22011 0.0
C1225 C 0.81884 0.33727 0.2432 0.0
C1226 C 0.80141 0.36083 0.24019 0.0
C1227 C 0.79171 0.3679 0.21303 0.0
C1228 C 0.79952 0.35158 0.18913 0.0
C1229 C 0.81777 0.32821 0.19271 0.0
H1230 H 0.65451 0.75589 0.25587 0.0
H1231 H 0.6679 0.79978 0.17616 0.0
H1232 H 0.69638 0.83595 0.20111 0.0
H1233 H 0.65082 0.8183 0.30158 0.0
H1234 H 0.66976 0.80104 0.3299 0.0
H1235 H 0.64808 0.78051 0.30624 0.0
H1236 H 0.69107 0.74862 0.29449 0.0
H1237 H 0.71297 0.76905 0.31792 0.0
H1238 H 0.72315 0.76457 0.28145 0.0
H1239 H 0.72568 0.86493 0.2339 0.0
H1240 H 0.75503 0.88478 0.272 0.0
H1241 H 0.72314 0.8212 0.33033 0.0
C1242 C 0.66294 0.77343 0.24371 0.0
C1243 C 0.65887 0.77534 0.21417 0.0
C1244 C 0.67072 0.79816 0.19886 0.0
C1245 C 0.68681 0.81875 0.21284 0.0
C1246 C 0.69075 0.81599 0.24199 0.0
C1247 C 0.67917 0.7939 0.25724 0.0
C1248 C 0.68826 0.79455 0.28795 0.0
C1249 C 0.6627 0.79887 0.30757 0.0
C1250 C 0.70485 0.76761 0.2959 0.0
C1251 C 0.70715 0.82032 0.28757 0.0
C1252 C 0.70807 0.83248 0.2609 0.0
C1253 C 0.72496 0.85577 0.25491 0.0
C1254 C 0.7416 0.8668 0.27669 0.0
C1255 C 0.74127 0.85446 0.30408 0.0
C1256 C 0.72355 0.83116 0.30966 0.0
H1257 H 0.12458 0.67677 0.17673 0.0
H1258 H 0.1483 0.75824 0.1422 0.0
H1259 H 0.12667 0.78201 0.18337 0.0
H1260 H 0.0586 0.70077 0.21893 0.0
H1261 H 0.06833 0.67736 0.2475 0.0
H1262 H 0.07591 0.66762 0.2114 0.0
H1263 H 0.12861 0.66081 0.22476 0.0
H1264 H 0.12144 0.67107 0.26055 0.0
H1265 H 0.14778 0.68986 0.24032 0.0
H1266 H 0.11262 0.79606 0.23249 0.0
H1267 H 0.10878 0.7987 0.28476 0.0
H1268 H 0.09825 0.70769 0.28853 0.0
C1269 C 0.12349 0.69967 0.17699 0.0
C1270 C 0.1373 0.71577 0.15598 0.0
C1271 C 0.13712 0.74565 0.15777 0.0
C1272 C 0.12493 0.75928 0.18114 0.0
C1273 C 0.11321 0.74271 0.20263 0.0
C1274 C 0.11216 0.71346 0.20061 0.0
C1275 C 0.10397 0.70012 0.22863 0.0
C1276 C 0.07497 0.68562 0.22648 0.0
C1277 C 0.12682 0.67927 0.23916 0.0
C1278 C 0.10241 0.72618 0.2471 0.0
C1279 C 0.10675 0.75065 0.23161 0.0
C1280 C 0.10857 0.77709 0.2447 0.0
C1281 C 0.10644 0.77843 0.27437 0.0
C1282 C 0.10333 0.7534 0.29051 0.0
C1283 C 0.10058 0.72716 0.27659 0.0
H1284 H 0.34171 0.8616 0.80297 0.0
H1285 H 0.26614 0.84992 0.85307 0.0
H1286 H 0.23785 0.87379 0.81579 0.0
H1287 H 0.31875 0.93147 0.76665 0.0
H1288 H 0.33573 0.92025 0.73442 0.0
H1289 H 0.35047 0.91034 0.76824 0.0
H1290 H 0.34884 0.85764 0.75329 0.0
H1291 H 0.33374 0.86718 0.71983 0.0
H1292 H 0.31561 0.84237 0.74249 0.0
H1293 H 0.21692 0.88741 0.76804 0.0
H1294 H 0.20645 0.89132 0.71663 0.0
H1295 H 0.29624 0.8947 0.69902 0.0
C1296 C 0.31945 0.86553 0.80666 0.0
C1297 C 0.30604 0.85445 0.83082 0.0
C1298 C 0.27679 0.85899 0.83489 0.0
C1299 C 0.26059 0.8724 0.81375 0.0
C1300 C 0.27423 0.88164 0.78916 0.0
C1301 C 0.30324 0.87902 0.78597 0.0
C1302 C 0.31256 0.88664 0.75634 0.0
C1303 C 0.33043 0.9138 0.75643 0.0
C1304 C 0.32859 0.86199 0.74219 0.0
C1305 C 0.28417 0.8917 0.74264 0.0
C1306 C 0.26223 0.8895 0.76186 0.0
C1307 C 0.23399 0.89003 0.75301 0.0
C1308 C 0.22818 0.89221 0.72382 0.0
C1309 C 0.25058 0.89328 0.70404 0.0
C1310 C 0.27872 0.89404 0.71377 0.0
H1311 H 0.17326 0.26289 0.83601 0.0
H1312 H 0.12634 0.34075 0.8469 0.0
H1313 H 0.09406 0.32663 0.80838 0.0
H1314 H 0.17891 0.26604 0.76893 0.0
H1315 H 0.17526 0.22914 0.76001 0.0
H1316 H 0.18714 0.2389 0.79459 0.0
H1317 H 0.14638 0.21049 0.81759 0.0
H1318 H 0.13453 0.20001 0.78286 0.0
H1319 H 0.11038 0.21708 0.80689 0.0
H1320 H 0.07858 0.313 0.76059 0.0
H1321 H 0.07915 0.29954 0.71017 0.0
H1322 H 0.13512 0.22964 0.72912 0.0
C1323 C 0.15513 0.27612 0.83133 0.0
C1324 C 0.1521 0.30278 0.84441 0.0
C1325 C 0.12868 0.32001 0.83747 0.0
C1326 C 0.11031 0.31213 0.81549 0.0
C1327 C 0.11541 0.28677 0.80117 0.0
C1328 C 0.13688 0.26858 0.80934 0.0
C1329 C 0.14159 0.2455 0.78757 0.0
C1330 C 0.17253 0.24492 0.77717 0.0
C1331 C 0.13267 0.21655 0.79944 0.0
C1332 C 0.12154 0.25517 0.76452 0.0
C1333 C 0.10595 0.27849 0.77314 0.0
C1334 C 0.08973 0.29412 0.75402 0.0
C1335 C 0.09023 0.28642 0.72541 0.0
C1336 C 0.10664 0.26319 0.71622 0.0
C1337 C 0.12154 0.24673 0.73608 0.0
H1338 H 0.7265 0.18923 0.65906 0.0
H1339 H 0.694 0.10534 0.67717 0.0
H1340 H 0.66545 0.12478 0.71626 0.0
H1341 H 0.73851 0.20822 0.7254 0.0
H1342 H 0.72814 0.24485 0.7227 0.0
H1343 H 0.7403 0.22639 0.69184 0.0
H1344 H 0.69389 0.23828 0.66511 0.0
H1345 H 0.68195 0.25779 0.69559 0.0
H1346 H 0.66033 0.22993 0.68115 0.0
H1347 H 0.6491 0.15154 0.75958 0.0
H1348 H 0.63995 0.18535 0.7987 0.0
H1349 H 0.68369 0.25094 0.75153 0.0
C1350 C 0.71228 0.17521 0.67033 0.0
C1351 C 0.71239 0.14588 0.66513 0.0
C1352 C 0.69397 0.12799 0.68063 0.0
C1353 C 0.67783 0.13881 0.70303 0.0
C1354 C 0.67999 0.16756 0.70914 0.0
C1355 C 0.69609 0.18568 0.69264 0.0
C1356 C 0.69723 0.21505 0.70513 0.0
C1357 C 0.72785 0.22412 0.71165 0.0
C1358 C 0.68246 0.23653 0.68559 0.0
C1359 C 0.68055 0.21025 0.73193 0.0
C1360 C 0.67052 0.18288 0.7339 0.0
C1361 C 0.65628 0.17323 0.75796 0.0
C1362 C 0.65151 0.19238 0.78019 0.0
C1363 C 0.66112 0.22064 0.77804 0.0
C1364 C 0.67592 0.22947 0.75367 0.0
H1365 H 0.82097 0.71154 0.7122 0.0
H1366 H 0.88444 0.77211 0.73856 0.0
H1367 H 0.87663 0.75793 0.7888 0.0
H1368 H 0.77347 0.72051 0.7717 0.0
H1369 H 0.76434 0.68349 0.77241 0.0
H1370 H 0.774 0.70014 0.73949 0.0
H1371 H 0.8132 0.6626 0.73192 0.0
H1372 H 0.80392 0.64578 0.76482 0.0
H1373 H 0.83972 0.6574 0.75886 0.0
H1374 H 0.86273 0.7334 0.83684 0.0
H1375 H 0.84283 0.70399 0.87592 0.0
H1376 H 0.78998 0.66037 0.81499 0.0
C1377 C 0.83309 0.72213 0.72851 0.0
C1378 C 0.85335 0.74288 0.72155 0.0
C1379 C 0.86864 0.75629 0.74353 0.0
C1380 C 0.86442 0.74823 0.77205 0.0
C1381 C 0.84469 0.72698 0.77806 0.0
C1382 C 0.82911 0.71446 0.7567 0.0
C1383 C 0.80974 0.69171 0.76787 0.0
C1384 C 0.77855 0.69944 0.76256 0.0
C1385 C 0.8171 0.66267 0.75511 0.0
C1386 C 0.81698 0.69287 0.79892 0.0
C1387 C 0.83706 0.71328 0.80475 0.0
C1388 C 0.84691 0.71748 0.83237 0.0
C1389 C 0.83565 0.70062 0.85442 0.0
C1390 C 0.81491 0.67982 0.84856 0.0
C1391 C 0.80581 0.67603 0.82036 0.0
H1392 H 0.18907 0.3537 0.18789 0.0
H1393 H 0.23217 0.41534 0.24029 0.0
H1394 H 0.27773 0.40199 0.2187 0.0
H1395 H 0.23743 0.30139 0.1961 0.0
H1396 H 0.23528 0.28736 0.16072 0.0
H1397 H 0.20554 0.30571 0.17558 0.0
H1398 H 0.2053 0.34061 0.13314 0.0
H1399 H 0.23501 0.32217 0.11794 0.0
H1400 H 0.23709 0.35972 0.12427 0.0
H1401 H 0.31909 0.37694 0.19716 0.0
H1402 H 0.35268 0.34208 0.1771 0.0
H1403 H 0.28242 0.29675 0.13941 0.0
C1404 C 0.20797 0.36506 0.19404 0.0
C1405 C 0.20717 0.38562 0.21555 0.0
C1406 C 0.23239 0.39956 0.2237 0.0
C1407 C 0.25834 0.39222 0.21149 0.0
C1408 C 0.25864 0.37105 0.19106 0.0
C1409 C 0.23406 0.35783 0.18219 0.0
C1410 C 0.24042 0.33348 0.16252 0.0
C1411 C 0.22901 0.30534 0.17446 0.0
C1412 C 0.22877 0.33936 0.1327 0.0
C1413 C 0.27237 0.33423 0.16281 0.0
C1414 C 0.28255 0.35636 0.1789 0.0
C1415 C 0.31141 0.35986 0.18402 0.0
C1416 C 0.33031 0.33997 0.17267 0.0
C1417 C 0.32009 0.31682 0.15676 0.0
C1418 C 0.29085 0.31436 0.15137 0.0
H1419 H 0.30855 0.71294 0.80917 0.0
H1420 H 0.25813 0.74131 0.88042 0.0
H1421 H 0.21956 0.70954 0.8661 0.0
H1422 H 0.25281 0.71126 0.7606 0.0
H1423 H 0.26452 0.68013 0.742 0.0
H1424 H 0.28986 0.70227 0.75972 0.0
H1425 H 0.30777 0.65906 0.78854 0.0
H1426 H 0.28246 0.63674 0.77082 0.0
H1427 H 0.28298 0.63842 0.80893 0.0
H1428 H 0.18468 0.67902 0.84188 0.0
H1429 H 0.15555 0.6511 0.80869 0.0
H1430 H 0.22801 0.64205 0.75309 0.0
C1431 C 0.28961 0.71192 0.82201 0.0
C1432 C 0.28627 0.72948 0.84586 0.0
C1433 C 0.26103 0.72807 0.86195 0.0
C1434 C 0.23905 0.70998 0.85412 0.0
C1435 C 0.24262 0.69339 0.83015 0.0
C1436 C 0.26724 0.69406 0.81432 0.0
C1437 C 0.26456 0.67572 0.78821 0.0
C1438 C 0.26814 0.69341 0.76104 0.0
C1439 C 0.2857 0.65101 0.7892 0.0
C1440 C 0.23442 0.66535 0.79157 0.0
C1441 C 0.22227 0.67557 0.81606 0.0
C1442 C 0.19403 0.67047 0.82284 0.0
C1443 C 0.17764 0.65469 0.80387 0.0
C1444 C 0.18961 0.6443 0.77852 0.0
C1445 C 0.21845 0.64937 0.77256 0.0
H1446 H 0.30095 0.30498 0.81366 0.0
H1447 H 0.26684 0.24949 0.87852 0.0
H1448 H 0.29317 0.20928 0.85822 0.0
H1449 H 0.29473 0.25793 0.75838 0.0
H1450 H 0.32696 0.26803 0.7407 0.0
H1451 H 0.30868 0.29317 0.76258 0.0
H1452 H 0.35404 0.30064 0.79253 0.0
H1453 H 0.37259 0.27567 0.77052 0.0
H1454 H 0.37138 0.27049 0.80832 0.0
H1455 H 0.31864 0.17412 0.82734 0.0
H1456 H 0.343 0.14742 0.78932 0.0
H1457 H 0.36031 0.22645 0.74562 0.0
C1458 C 0.2996 0.28451 0.82402 0.0
C1459 C 0.28198 0.28029 0.84765 0.0
C1460 C 0.28034 0.25315 0.86041 0.0
C1461 C 0.29524 0.23021 0.84906 0.0
C1462 C 0.31181 0.23487 0.82517 0.0
C1463 C 0.31431 0.26144 0.81299 0.0
C1464 C 0.33178 0.2605 0.78629 0.0
C1465 C 0.3145 0.27049 0.76048 0.0
C1466 C 0.35907 0.27785 0.78963 0.0
C1467 C 0.33799 0.22919 0.7849 0.0
C1468 C 0.32653 0.2147 0.80756 0.0
C1469 C 0.32813 0.18527 0.80972 0.0
C1470 C 0.34185 0.17032 0.78805 0.0
C1471 C 0.35358 0.18493 0.7647 0.0
C1472 C 0.35178 0.21471 0.76336 0.0
H1473 H 0.67273 0.32441 0.75158 0.0
H1474 H 0.65568 0.3855 0.81737 0.0
H1475 H 0.68948 0.41872 0.79501 0.0
H1476 H 0.73998 0.32819 0.75478 0.0
H1477 H 0.74839 0.32389 0.71782 0.0
H1478 H 0.7157 0.31053 0.73124 0.0
H1479 H 0.68799 0.34007 0.69428 0.0
H1480 H 0.72089 0.35353 0.68042 0.0
H1481 H 0.6937 0.37772 0.69177 0.0
H1482 H 0.73447 0.43723 0.77604 0.0
H1483 H 0.78502 0.43876 0.7633 0.0
H1484 H 0.77423 0.36576 0.70963 0.0
C1485 C 0.67502 0.34547 0.7603 0.0
C1486 C 0.66159 0.35267 0.78592 0.0
C1487 C 0.66537 0.37994 0.79737 0.0
C1488 C 0.68462 0.39885 0.78477 0.0
C1489 C 0.69943 0.39017 0.76062 0.0
C1490 C 0.69437 0.36418 0.74818 0.0
C1491 C 0.71671 0.35693 0.72639 0.0
C1492 C 0.73103 0.32824 0.73301 0.0
C1493 C 0.70406 0.35709 0.69644 0.0
C1494 C 0.73677 0.38151 0.73041 0.0
C1495 C 0.72592 0.40107 0.74941 0.0
C1496 C 0.74265 0.42281 0.76027 0.0
C1497 C 0.77133 0.42365 0.75284 0.0
C1498 C 0.78293 0.40297 0.7347 0.0
C1499 C 0.76524 0.38257 0.72232 0.0
H1500 H 0.69628 0.67286 0.84959 0.0
H1501 H 0.7145 0.71617 0.92831 0.0
H1502 H 0.68891 0.75832 0.91113 0.0
H1503 H 0.70975 0.729 0.8066 0.0
H1504 H 0.68236 0.72239 0.78093 0.0
H1505 H 0.69678 0.69355 0.8012 0.0
H1506 H 0.64671 0.68023 0.81912 0.0
H1507 H 0.63198 0.7088 0.79847 0.0
H1508 H 0.62509 0.70674 0.83594 0.0
H1509 H 0.66944 0.7982 0.8825 0.0
H1510 H 0.65369 0.83185 0.84539 0.0
H1511 H 0.64734 0.76252 0.78572 0.0
C1512 C 0.69376 0.69078 0.86362 0.0
C1513 C 0.70703 0.69127 0.89032 0.0
C1514 C 0.70425 0.71541 0.9078 0.0
C1515 C 0.68976 0.73943 0.89825 0.0
C1516 C 0.67805 0.73887 0.87124 0.0
C1517 C 0.67949 0.71504 0.85429 0.0
C1518 C 0.66786 0.72099 0.82503 0.0
C1519 C 0.69054 0.71621 0.80211 0.0
C1520 C 0.64133 0.70313 0.81931 0.0
C1521 C 0.66059 0.75204 0.82793 0.0
C1522 C 0.66646 0.76196 0.85477 0.0
C1523 C 0.66405 0.79058 0.86161 0.0
C1524 C 0.65529 0.80954 0.84043 0.0
C1525 C 0.64901 0.79966 0.81293 0.0
C1526 C 0.65143 0.77054 0.80679 0.0
H1527 H 0.67204 0.68936 0.25453 0.0
H1528 H 0.64573 0.61125 0.21506 0.0
H1529 H 0.68059 0.58487 0.24429 0.0
H1530 H 0.73897 0.67961 0.24798 0.0
H1531 H 0.75046 0.69559 0.28064 0.0
H1532 H 0.71746 0.70589 0.26534 0.0
H1533 H 0.69165 0.6927 0.3119 0.0
H1534 H 0.72493 0.68228 0.32742 0.0
H1535 H 0.69576 0.65774 0.32675 0.0
H1536 H 0.72614 0.56993 0.26697 0.0
H1537 H 0.7773 0.56866 0.27774 0.0
H1538 H 0.77467 0.65698 0.30097 0.0
C1539 C 0.67275 0.66648 0.25315 0.0
C1540 C 0.65631 0.65215 0.23292 0.0
C1541 C 0.65789 0.6224 0.23094 0.0
C1542 C 0.67763 0.60735 0.24749 0.0
C1543 C 0.69507 0.62245 0.26607 0.0
C1544 C 0.69237 0.65146 0.26924 0.0
C1545 C 0.71672 0.66392 0.28577 0.0
C1546 C 0.73177 0.68758 0.2689 0.0
C1547 C 0.70665 0.67478 0.31468 0.0
C1548 C 0.73508 0.63795 0.28909 0.0
C1549 C 0.72178 0.61392 0.27881 0.0
C1550 C 0.73633 0.58833 0.27597 0.0
C1551 C 0.76537 0.58769 0.28231 0.0
C1552 C 0.77947 0.61265 0.29068 0.0
C1553 C 0.76391 0.63754 0.29543 0.0
H1554 H 0.32739 0.82074 0.21976 0.0
H1555 H 0.38443 0.75921 0.2572 0.0
H1556 H 0.36511 0.72219 0.22592 0.0
H1557 H 0.26976 0.77811 0.21861 0.0
H1558 H 0.25538 0.79067 0.18554 0.0
H1559 H 0.27748 0.81345 0.20636 0.0
H1560 H 0.31125 0.82036 0.16367 0.0
H1561 H 0.28904 0.7977 0.14254 0.0
H1562 H 0.32615 0.78983 0.14638 0.0
H1563 H 0.33499 0.69074 0.19598 0.0
H1564 H 0.29605 0.66744 0.16988 0.0
H1565 H 0.25854 0.74959 0.15295 0.0
C1566 C 0.33642 0.79968 0.22069 0.0
C1567 C 0.35738 0.79275 0.24068 0.0
C1568 C 0.36831 0.76487 0.24189 0.0
C1569 C 0.35761 0.74376 0.22412 0.0
C1570 C 0.33616 0.75102 0.20525 0.0
C1571 C 0.32582 0.77837 0.20328 0.0
C1572 C 0.30052 0.78001 0.18384 0.0
C1573 C 0.27425 0.7912 0.19954 0.0
C1574 C 0.30715 0.79804 0.15754 0.0
C1575 C 0.29742 0.74914 0.17628 0.0
C1576 C 0.3185 0.73278 0.1883 0.0
C1577 C 0.31868 0.70336 0.18599 0.0
C1578 C 0.29649 0.69032 0.17126 0.0
C1579 C 0.27442 0.70678 0.15951 0.0
C1580 C 0.27527 0.73652 0.16163 0.0
H1581 H 0.69024 0.3143 0.16575 0.0
H1582 H 0.71875 0.28317 0.08451 0.0
H1583 H 0.69646 0.23687 0.09423 0.0
H1584 H 0.70766 0.25462 0.20235 0.0
H1585 H 0.67843 0.25512 0.2268 0.0
H1586 H 0.69062 0.28759 0.21114 0.0
H1587 H 0.64035 0.29789 0.19182 0.0
H1588 H 0.62784 0.26554 0.20779 0.0
H1589 H 0.62269 0.27171 0.17048 0.0
H1590 H 0.67742 0.19208 0.11557 0.0
H1591 H 0.66299 0.15259 0.14709 0.0
H1592 H 0.6488 0.21264 0.21496 0.0
C1593 C 0.69058 0.29809 0.14959 0.0
C1594 C 0.70555 0.30226 0.12418 0.0
C1595 C 0.7069 0.28029 0.10393 0.0
C1596 C 0.69431 0.25399 0.10926 0.0
C1597 C 0.68064 0.24998 0.13505 0.0
C1598 C 0.67855 0.27148 0.15485 0.0
C1599 C 0.66617 0.26063 0.18233 0.0
C1600 C 0.68697 0.26473 0.20709 0.0
C1601 C 0.63756 0.27478 0.18845 0.0
C1602 C 0.66253 0.22963 0.17518 0.0
C1603 C 0.67051 0.22392 0.14769 0.0
C1604 C 0.67066 0.19636 0.13702 0.0
C1605 C 0.66256 0.17406 0.15503 0.0
C1606 C 0.65483 0.17954 0.1834 0.0
C1607 C 0.65451 0.20775 0.19332 0.0
loop_
_geom_bond_atom_site_label_1
_geom_bond_atom_site_label_2
_geom_bond_distance
_geom_bond_site_symmetry_2
_ccdc_geom_bond_type
In0 O1 2.294 . S
In0 O2 2.326 . S
In0 O6 2.266 . S
In0 O7 2.326 . S
In0 O8 2.266 . S
In0 O9 2.326 . S
In0 O11 2.294 . S
In0 O12 2.326 . S
O1 In0 2.294 . S
O1 C10 1.240 . S
O2 In0 2.326 . S
O2 C10 1.252 . S
C3 O6 1.252 . S
C3 O7 1.260 . S
C4 O11 1.240 . S
C4 O12 1.252 . S
C5 O8 1.252 . S
C5 O9 1.260 . S
O6 In0 2.266 . S
O6 C3 1.252 . S
O7 In0 2.326 . S
O7 C3 1.260 . S
O8 In0 2.266 . S
O8 C5 1.252 . S
O9 In0 2.326 . S
O9 C5 1.260 . S
C10 O1 1.240 . S
C10 O2 1.252 . S
O11 In0 2.294 . S
O11 C4 1.240 . S
O12 In0 2.326 . S
O12 C4 1.252 . S
In13 O14 2.294 . S
In13 O15 2.326 . S
In13 O19 2.266 . S
In13 O20 2.326 . S
In13 O21 2.266 . S
In13 O22 2.326 . S
In13 O24 2.294 . S
In13 O25 2.326 . S
O14 In13 2.294 . S
O14 C23 1.240 . S
O15 In13 2.326 . S
O15 C23 1.252 . S
C16 O19 1.252 . S
C16 O20 1.260 . S
C17 O24 1.240 . S
C17 O25 1.252 . S
C18 O21 1.252 . S
C18 O22 1.260 . S
O19 In13 2.266 . S
O19 C16 1.252 . S
O20 In13 2.326 . S
O20 C16 1.260 . S
O21 In13 2.266 . S
O21 C18 1.252 . S
O22 In13 2.326 . S
O22 C18 1.260 . S
C23 O14 1.240 . S
C23 O15 1.252 . S
O24 In13 2.294 . S
O24 C17 1.240 . S
O25 In13 2.326 . S
O25 C17 1.252 . S
In26 O27 2.294 . S
In26 O28 2.326 . S
In26 O32 2.266 . S
In26 O33 2.326 . S
In26 O34 2.266 . S
In26 O35 2.326 . S
In26 O37 2.294 . S
In26 O38 2.326 . S
O27 In26 2.294 . S
O27 C36 1.240 . S
O28 In26 2.326 . S
O28 C36 1.252 . S
C29 O32 1.252 . S
C29 O33 1.260 . S
C30 O37 1.240 . S
C30 O38 1.252 . S
C31 O34 1.252 . S
C31 O35 1.260 . S
O32 In26 2.266 . S
O32 C29 1.252 . S
O33 In26 2.326 . S
O33 C29 1.260 . S
O34 In26 2.266 . S
O34 C31 1.252 . S
O35 In26 2.326 . S
O35 C31 1.260 . S
C36 O27 1.240 . S
C36 O28 1.252 . S
O37 In26 2.294 . S
O37 C30 1.240 . S
O38 In26 2.326 . S
O38 C30 1.252 . S
In39 O40 2.294 . S
In39 O41 2.326 . S
In39 O45 2.266 . S
In39 O46 2.326 . S
In39 O47 2.266 . S
In39 O48 2.326 . S
In39 O50 2.294 . S
In39 O51 2.326 . S
O40 In39 2.294 . S
O40 C49 1.240 . S
O41 In39 2.326 . S
O41 C49 1.252 . S
C42 O45 1.252 . S
C42 O46 1.260 . S
C43 O50 1.240 . S
C43 O51 1.252 . S
C44 O47 1.252 . S
C44 O48 1.260 . S
O45 In39 2.266 . S
O45 C42 1.252 . S
O46 In39 2.326 . S
O46 C42 1.260 . S
O47 In39 2.266 . S
O47 C44 1.252 . S
O48 In39 2.326 . S
O48 C44 1.260 . S
C49 O40 1.240 . S
C49 O41 1.252 . S
O50 In39 2.294 . S
O50 C43 1.240 . S
O51 In39 2.326 . S
O51 C43 1.252 . S
In52 O53 2.294 . S
In52 O54 2.326 . S
In52 O58 2.266 . S
In52 O59 2.326 . S
In52 O60 2.266 . S
In52 O61 2.326 . S
In52 O63 2.294 . S
In52 O64 2.326 . S
O53 In52 2.294 . S
O53 C62 1.240 . S
O54 In52 2.326 . S
O54 C62 1.252 . S
C55 O58 1.252 . S
C55 O59 1.260 . S
C56 O63 1.240 . S
C56 O64 1.252 . S
C57 O60 1.252 . S
C57 O61 1.260 . S
O58 In52 2.266 . S
O58 C55 1.252 . S
O59 In52 2.326 . S
O59 C55 1.260 . S
O60 In52 2.266 . S
O60 C57 1.252 . S
O61 In52 2.326 . S
O61 C57 1.260 . S
C62 O53 1.240 . S
C62 O54 1.252 . S
O63 In52 2.294 . S
O63 C56 1.240 . S
O64 In52 2.326 . S
O64 C56 1.252 . S
In65 O66 2.294 . S
In65 O67 2.326 . S
In65 O71 2.266 . S
In65 O72 2.326 . S
In65 O73 2.266 . S
In65 O74 2.326 . S
In65 O76 2.294 . S
In65 O77 2.326 . S
O66 In65 2.294 . S
O66 C75 1.240 . S
O67 In65 2.326 . S
O67 C75 1.252 . S
C68 O71 1.252 . S
C68 O72 1.260 . S
C69 O76 1.240 . S
C69 O77 1.252 . S
C70 O73 1.252 . S
C70 O74 1.260 . S
O71 In65 2.266 . S
O71 C68 1.252 . S
O72 In65 2.326 . S
O72 C68 1.260 . S
O73 In65 2.266 . S
O73 C70 1.252 . S
O74 In65 2.326 . S
O74 C70 1.260 . S
C75 O66 1.240 . S
C75 O67 1.252 . S
O76 In65 2.294 . S
O76 C69 1.240 . S
O77 In65 2.326 . S
O77 C69 1.252 . S
In78 O79 2.294 . S
In78 O80 2.326 . S
In78 O84 2.266 . S
In78 O85 2.326 . S
In78 O86 2.266 . S
In78 O87 2.326 . S
In78 O89 2.294 . S
In78 O90 2.326 . S
O79 In78 2.294 . S
O79 C88 1.240 . S
O80 In78 2.326 . S
O80 C88 1.252 . S
C81 O84 1.252 . S
C81 O85 1.260 . S
C82 O89 1.240 . S
C82 O90 1.252 . S
C83 O86 1.252 . S
C83 O87 1.260 . S
O84 In78 2.266 . S
O84 C81 1.252 . S
O85 In78 2.326 . S
O85 C81 1.260 . S
O86 In78 2.266 . S
O86 C83 1.252 . S
O87 In78 2.326 . S
O87 C83 1.260 . S
C88 O79 1.240 . S
C88 O80 1.252 . S
O89 In78 2.294 . S
O89 C82 1.240 . S
O90 In78 2.326 . S
O90 C82 1.252 . S
In91 O92 2.294 . S
In91 O93 2.326 . S
In91 O97 2.266 . S
In91 O98 2.326 . S
In91 O99 2.266 . S
In91 O100 2.326 . S
In91 O102 2.294 . S
In91 O103 2.326 . S
O92 In91 2.294 . S
O92 C101 1.240 . S
O93 In91 2.326 . S
O93 C101 1.252 . S
C94 O97 1.252 . S
C94 O98 1.260 . S
C95 O102 1.240 . S
C95 O103 1.252 . S
C96 O99 1.252 . S
C96 O100 1.260 . S
O97 In91 2.266 . S
O97 C94 1.252 . S
O98 In91 2.326 . S
O98 C94 1.260 . S
O99 In91 2.266 . S
O99 C96 1.252 . S
O100 In91 2.326 . S
O100 C96 1.260 . S
C101 O92 1.240 . S
C101 O93 1.252 . S
O102 In91 2.294 . S
O102 C95 1.240 . S
O103 In91 2.326 . S
O103 C95 1.252 . S
In104 O105 2.294 . S
In104 O106 2.326 . S
In104 O110 2.266 . S
In104 O111 2.326 . S
In104 O112 2.266 . S
In104 O113 2.326 . S
In104 O115 2.294 . S
In104 O116 2.326 . S
O105 In104 2.294 . S
O105 C114 1.240 . S
O106 In104 2.326 . S
O106 C114 1.252 . S
C107 O110 1.252 . S
C107 O111 1.260 . S
C108 O115 1.240 . S
C108 O116 1.252 . S
C109 O112 1.252 . S
C109 O113 1.260 . S
O110 In104 2.266 . S
O110 C107 1.252 . S
O111 In104 2.326 . S
O111 C107 1.260 . S
O112 In104 2.266 . S
O112 C109 1.252 . S
O113 In104 2.326 . S
O113 C109 1.260 . S
C114 O105 1.240 . S
C114 O106 1.252 . S
O115 In104 2.294 . S
O115 C108 1.240 . S
O116 In104 2.326 . S
O116 C108 1.252 . S
In117 O118 2.294 . S
In117 O119 2.326 . S
In117 O123 2.266 . S
In117 O124 2.326 . S
In117 O125 2.266 . S
In117 O126 2.326 . S
In117 O128 2.294 . S
In117 O129 2.326 . S
O118 In117 2.294 . S
O118 C127 1.240 . S
O119 In117 2.326 . S
O119 C127 1.252 . S
C120 O123 1.252 . S
C120 O124 1.260 . S
C121 O128 1.240 . S
C121 O129 1.252 . S
C122 O125 1.252 . S
C122 O126 1.260 . S
O123 In117 2.266 . S
O123 C120 1.252 . S
O124 In117 2.326 . S
O124 C120 1.260 . S
O125 In117 2.266 . S
O125 C122 1.252 . S
O126 In117 2.326 . S
O126 C122 1.260 . S
C127 O118 1.240 . S
C127 O119 1.252 . S
O128 In117 2.294 . S
O128 C121 1.240 . S
O129 In117 2.326 . S
O129 C121 1.252 . S
In130 O131 2.294 . S
In130 O132 2.326 . S
In130 O136 2.266 . S
In130 O137 2.326 . S
In130 O138 2.266 . S
In130 O139 2.326 . S
In130 O141 2.294 . S
In130 O142 2.326 . S
O131 In130 2.294 . S
O131 C140 1.240 . S
O132 In130 2.326 . S
O132 C140 1.252 . S
C133 O136 1.252 . S
C133 O137 1.260 . S
C134 O141 1.240 . S
C134 O142 1.252 . S
C135 O138 1.252 . S
C135 O139 1.260 . S
O136 In130 2.266 . S
O136 C133 1.252 . S
O137 In130 2.326 . S
O137 C133 1.260 . S
O138 In130 2.266 . S
O138 C135 1.252 . S
O139 In130 2.326 . S
O139 C135 1.260 . S
C140 O131 1.240 . S
C140 O132 1.252 . S
O141 In130 2.294 . S
O141 C134 1.240 . S
O142 In130 2.326 . S
O142 C134 1.252 . S
In143 O144 2.294 . S
In143 O145 2.326 . S
In143 O149 2.266 . S
In143 O150 2.326 . S
In143 O151 2.266 . S
In143 O152 2.326 . S
In143 O154 2.294 . S
In143 O155 2.326 . S
O144 In143 2.294 . S
O144 C153 1.240 . S
O145 In143 2.326 . S
O145 C153 1.252 . S
C146 O149 1.252 . S
C146 O150 1.260 . S
C147 O154 1.240 . S
C147 O155 1.252 . S
C148 O151 1.252 . S
C148 O152 1.260 . S
O149 In143 2.266 . S
O149 C146 1.252 . S
O150 In143 2.326 . S
O150 C146 1.260 . S
O151 In143 2.266 . S
O151 C148 1.252 . S
O152 In143 2.326 . S
O152 C148 1.260 . S
C153 O144 1.240 . S
C153 O145 1.252 . S
O154 In143 2.294 . S
O154 C147 1.240 . S
O155 In143 2.326 . S
O155 C147 1.252 . S
In156 O157 2.294 . S
In156 O158 2.326 . S
In156 O162 2.266 . S
In156 O163 2.326 . S
In156 O164 2.266 . S
In156 O165 2.326 . S
In156 O167 2.294 . S
In156 O168 2.326 . S
O157 In156 2.294 . S
O157 C166 1.240 . S
O158 In156 2.326 . S
O158 C166 1.252 . S
C159 O162 1.252 . S
C159 O163 1.260 . S
C160 O167 1.240 . S
C160 O168 1.252 . S
C161 O164 1.252 . S
C161 O165 1.260 . S
O162 In156 2.266 . S
O162 C159 1.252 . S
O163 In156 2.326 . S
O163 C159 1.260 . S
O164 In156 2.266 . S
O164 C161 1.252 . S
O165 In156 2.326 . S
O165 C161 1.260 . S
C166 O157 1.240 . S
C166 O158 1.252 . S
O167 In156 2.294 . S
O167 C160 1.240 . S
O168 In156 2.326 . S
O168 C160 1.252 . S
In169 O170 2.294 . S
In169 O171 2.326 . S
In169 O175 2.266 . S
In169 O176 2.326 . S
In169 O177 2.266 . S
In169 O178 2.326 . S
In169 O180 2.294 . S
In169 O181 2.326 . S
O170 In169 2.294 . S
O170 C179 1.240 . S
O171 In169 2.326 . S
O171 C179 1.252 . S
C172 O175 1.252 . S
C172 O176 1.260 . S
C173 O180 1.240 . S
C173 O181 1.252 . S
C174 O177 1.252 . S
C174 O178 1.260 . S
O175 In169 2.266 . S
O175 C172 1.252 . S
O176 In169 2.326 . S
O176 C172 1.260 . S
O177 In169 2.266 . S
O177 C174 1.252 . S
O178 In169 2.326 . S
O178 C174 1.260 . S
C179 O170 1.240 . S
C179 O171 1.252 . S
O180 In169 2.294 . S
O180 C173 1.240 . S
O181 In169 2.326 . S
O181 C173 1.252 . S
In182 O183 2.294 . S
In182 O184 2.326 . S
In182 O188 2.266 . S
In182 O189 2.326 . S
In182 O190 2.266 . S
In182 O191 2.326 . S
In182 O193 2.294 . S
In182 O194 2.326 . S
O183 In182 2.294 . S
O183 C192 1.240 . S
O184 In182 2.326 . S
O184 C192 1.252 . S
C185 O188 1.252 . S
C185 O189 1.260 . S
C186 O193 1.240 . S
C186 O194 1.252 . S
C187 O190 1.252 . S
C187 O191 1.260 . S
O188 In182 2.266 . S
O188 C185 1.252 . S
O189 In182 2.326 . S
O189 C185 1.260 . S
O190 In182 2.266 . S
O190 C187 1.252 . S
O191 In182 2.326 . S
O191 C187 1.260 . S
C192 O183 1.240 . S
C192 O184 1.252 . S
O193 In182 2.294 . S
O193 C186 1.240 . S
O194 In182 2.326 . S
O194 C186 1.252 . S
In195 O196 2.294 . S
In195 O197 2.326 . S
In195 O201 2.266 . S
In195 O202 2.326 . S
In195 O203 2.266 . S
In195 O204 2.326 . S
In195 O206 2.294 . S
In195 O207 2.326 . S
O196 In195 2.294 . S
O196 C205 1.240 . S
O197 In195 2.326 . S
O197 C205 1.252 . S
C198 O201 1.252 . S
C198 O202 1.260 . S
C199 O206 1.240 . S
C199 O207 1.252 . S
C200 O203 1.252 . S
C200 O204 1.260 . S
O201 In195 2.266 . S
O201 C198 1.252 . S
O202 In195 2.326 . S
O202 C198 1.260 . S
O203 In195 2.266 . S
O203 C200 1.252 . S
O204 In195 2.326 . S
O204 C200 1.260 . S
C205 O196 1.240 . S
C205 O197 1.252 . S
O206 In195 2.294 . S
O206 C199 1.240 . S
O207 In195 2.326 . S
O207 C199 1.252 . S
In208 O209 2.294 . S
In208 O210 2.326 . S
In208 O214 2.266 . S
In208 O215 2.326 . S
In208 O216 2.266 . S
In208 O217 2.326 . S
In208 O219 2.294 . S
In208 O220 2.326 . S
O209 In208 2.294 . S
O209 C218 1.240 . S
O210 In208 2.326 . S
O210 C218 1.252 . S
C211 O214 1.252 . S
C211 O215 1.260 . S
C212 O219 1.240 . S
C212 O220 1.252 . S
C213 O216 1.252 . S
C213 O217 1.260 . S
O214 In208 2.266 . S
O214 C211 1.252 . S
O215 In208 2.326 . S
O215 C211 1.260 . S
O216 In208 2.266 . S
O216 C213 1.252 . S
O217 In208 2.326 . S
O217 C213 1.260 . S
C218 O209 1.240 . S
C218 O210 1.252 . S
O219 In208 2.294 . S
O219 C212 1.240 . S
O220 In208 2.326 . S
O220 C212 1.252 . S
In221 O222 2.294 . S
In221 O223 2.326 . S
In221 O227 2.266 . S
In221 O228 2.326 . S
In221 O229 2.266 . S
In221 O230 2.326 . S
In221 O232 2.294 . S
In221 O233 2.326 . S
O222 In221 2.294 . S
O222 C231 1.240 . S
O223 In221 2.326 . S
O223 C231 1.252 . S
C224 O227 1.252 . S
C224 O228 1.260 . S
C225 O232 1.240 . S
C225 O233 1.252 . S
C226 O229 1.252 . S
C226 O230 1.260 . S
O227 In221 2.266 . S
O227 C224 1.252 . S
O228 In221 2.326 . S
O228 C224 1.260 . S
O229 In221 2.266 . S
O229 C226 1.252 . S
O230 In221 2.326 . S
O230 C226 1.260 . S
C231 O222 1.240 . S
C231 O223 1.252 . S
O232 In221 2.294 . S
O232 C225 1.240 . S
O233 In221 2.326 . S
O233 C225 1.252 . S
In234 O235 2.294 . S
In234 O236 2.326 . S
In234 O240 2.266 . S
In234 O241 2.326 . S
In234 O242 2.266 . S
In234 O243 2.326 . S
In234 O245 2.294 . S
In234 O246 2.326 . S
O235 In234 2.294 . S
O235 C244 1.240 . S
O236 In234 2.326 . S
O236 C244 1.252 . S
C237 O240 1.252 . S
C237 O241 1.260 . S
C238 O245 1.240 . S
C238 O246 1.252 . S
C239 O242 1.252 . S
C239 O243 1.260 . S
O240 In234 2.266 . S
O240 C237 1.252 . S
O241 In234 2.326 . S
O241 C237 1.260 . S
O242 In234 2.266 . S
O242 C239 1.252 . S
O243 In234 2.326 . S
O243 C239 1.260 . S
C244 O235 1.240 . S
C244 O236 1.252 . S
O245 In234 2.294 . S
O245 C238 1.240 . S
O246 In234 2.326 . S
O246 C238 1.252 . S
In247 O248 2.294 . S
In247 O249 2.326 . S
In247 O253 2.266 . S
In247 O254 2.326 . S
In247 O255 2.266 . S
In247 O256 2.326 . S
In247 O258 2.294 . S
In247 O259 2.326 . S
O248 In247 2.294 . S
O248 C257 1.240 . S
O249 In247 2.326 . S
O249 C257 1.252 . S
C250 O253 1.252 . S
C250 O254 1.260 . S
C251 O258 1.240 . S
C251 O259 1.252 . S
C252 O255 1.252 . S
C252 O256 1.260 . S
O253 In247 2.266 . S
O253 C250 1.252 . S
O254 In247 2.326 . S
O254 C250 1.260 . S
O255 In247 2.266 . S
O255 C252 1.252 . S
O256 In247 2.326 . S
O256 C252 1.260 . S
C257 O248 1.240 . S
C257 O249 1.252 . S
O258 In247 2.294 . S
O258 C251 1.240 . S
O259 In247 2.326 . S
O259 C251 1.252 . S
In260 O261 2.294 . S
In260 O262 2.326 . S
In260 O266 2.266 . S
In260 O267 2.326 . S
In260 O268 2.266 . S
In260 O269 2.326 . S
In260 O271 2.294 . S
In260 O272 2.326 . S
O261 In260 2.294 . S
O261 C270 1.240 . S
O262 In260 2.326 . S
O262 C270 1.252 . S
C263 O266 1.252 . S
C263 O267 1.260 . S
C264 O271 1.240 . S
C264 O272 1.252 . S
C265 O268 1.252 . S
C265 O269 1.260 . S
O266 In260 2.266 . S
O266 C263 1.252 . S
O267 In260 2.326 . S
O267 C263 1.260 . S
O268 In260 2.266 . S
O268 C265 1.252 . S
O269 In260 2.326 . S
O269 C265 1.260 . S
C270 O261 1.240 . S
C270 O262 1.252 . S
O271 In260 2.294 . S
O271 C264 1.240 . S
O272 In260 2.326 . S
O272 C264 1.252 . S
In273 O274 2.294 . S
In273 O275 2.326 . S
In273 O279 2.266 . S
In273 O280 2.326 . S
In273 O281 2.266 . S
In273 O282 2.326 . S
In273 O284 2.294 . S
In273 O285 2.326 . S
O274 In273 2.294 . S
O274 C283 1.240 . S
O275 In273 2.326 . S
O275 C283 1.252 . S
C276 O279 1.252 . S
C276 O280 1.260 . S
C277 O284 1.240 . S
C277 O285 1.252 . S
C278 O281 1.252 . S
C278 O282 1.260 . S
O279 In273 2.266 . S
O279 C276 1.252 . S
O280 In273 2.326 . S
O280 C276 1.260 . S
O281 In273 2.266 . S
O281 C278 1.252 . S
O282 In273 2.326 . S
O282 C278 1.260 . S
C283 O274 1.240 . S
C283 O275 1.252 . S
O284 In273 2.294 . S
O284 C277 1.240 . S
O285 In273 2.326 . S
O285 C277 1.252 . S
In286 O287 2.294 . S
In286 O288 2.326 . S
In286 O292 2.266 . S
In286 O293 2.326 . S
In286 O294 2.266 . S
In286 O295 2.326 . S
In286 O297 2.294 . S
In286 O298 2.326 . S
O287 In286 2.294 . S
O287 C296 1.240 . S
O288 In286 2.326 . S
O288 C296 1.252 . S
C289 O292 1.252 . S
C289 O293 1.260 . S
C290 O297 1.240 . S
C290 O298 1.252 . S
C291 O294 1.252 . S
C291 O295 1.260 . S
O292 In286 2.266 . S
O292 C289 1.252 . S
O293 In286 2.326 . S
O293 C289 1.260 . S
O294 In286 2.266 . S
O294 C291 1.252 . S
O295 In286 2.326 . S
O295 C291 1.260 . S
C296 O287 1.240 . S
C296 O288 1.252 . S
O297 In286 2.294 . S
O297 C290 1.240 . S
O298 In286 2.326 . S
O298 C290 1.252 . S
In299 O300 2.294 . S
In299 O301 2.326 . S
In299 O305 2.266 . S
In299 O306 2.326 . S
In299 O307 2.266 . S
In299 O308 2.326 . S
In299 O310 2.294 . S
In299 O311 2.326 . S
O300 In299 2.294 . S
O300 C309 1.240 . S
O301 In299 2.326 . S
O301 C309 1.252 . S
C302 O305 1.252 . S
C302 O306 1.260 . S
C303 O310 1.240 . S
C303 O311 1.252 . S
C304 O307 1.252 . S
C304 O308 1.260 . S
O305 In299 2.266 . S
O305 C302 1.252 . S
O306 In299 2.326 . S
O306 C302 1.260 . S
O307 In299 2.266 . S
O307 C304 1.252 . S
O308 In299 2.326 . S
O308 C304 1.260 . S
C309 O300 1.240 . S
C309 O301 1.252 . S
O310 In299 2.294 . S
O310 C303 1.240 . S
O311 In299 2.326 . S
O311 C303 1.252 . S
H312 C324 0.930 . S
H313 C326 0.930 . S
H314 C327 0.930 . S
H315 C331 0.959 . S
H316 C331 0.959 . S
H317 C331 0.961 . S
H318 C332 0.960 . S
H319 C332 0.961 . S
H320 C332 0.959 . S
H321 C335 0.929 . S
H322 C336 0.931 . S
H323 C338 0.930 . S
C324 H312 0.930 . S
C324 C325 1.399 . S
C324 C329 1.399 . S
C325 C324 1.399 . S
C325 C326 1.376 . S
C326 H313 0.930 . S
C326 C325 1.376 . S
C326 C327 1.388 . S
C327 H314 0.930 . S
C327 C326 1.388 . S
C327 C328 1.390 . S
C328 C327 1.390 . S
C328 C329 1.394 . S
C328 C334 1.465 . S
C329 C324 1.399 . S
C329 C328 1.394 . S
C329 C330 1.516 . S
C330 C329 1.516 . S
C330 C331 1.502 . S
C330 C332 1.561 . S
C330 C333 1.526 . S
C331 H315 0.959 . S
C331 H316 0.959 . S
C331 H317 0.961 . S
C331 C330 1.502 . S
C332 H318 0.960 . S
C332 H319 0.961 . S
C332 H320 0.959 . S
C332 C330 1.561 . S
C333 C330 1.526 . S
C333 C334 1.396 . S
C333 C338 1.390 . S
C334 C328 1.465 . S
C334 C333 1.396 . S
C334 C335 1.399 . S
C335 H321 0.929 . S
C335 C334 1.399 . S
C335 C336 1.385 . S
C336 H322 0.931 . S
C336 C335 1.385 . S
C336 C337 1.389 . S
C337 C336 1.389 . S
C337 C338 1.387 . S
C338 H323 0.930 . S
C338 C333 1.390 . S
C338 C337 1.387 . S
H339 C351 0.930 . S
H340 C353 0.930 . S
H341 C354 0.930 . S
H342 C358 0.959 . S
H343 C358 0.959 . S
H344 C358 0.961 . S
H345 C359 0.960 . S
H346 C359 0.961 . S
H347 C359 0.959 . S
H348 C362 0.929 . S
H349 C363 0.931 . S
H350 C365 0.930 . S
C351 H339 0.930 . S
C351 C352 1.399 . S
C351 C356 1.399 . S
C352 C351 1.399 . S
C352 C353 1.376 . S
C353 H340 0.930 . S
C353 C352 1.376 . S
C353 C354 1.388 . S
C354 H341 0.930 . S
C354 C353 1.388 . S
C354 C355 1.390 . S
C355 C354 1.390 . S
C355 C356 1.394 . S
C355 C361 1.465 . S
C356 C351 1.399 . S
C356 C355 1.394 . S
C356 C357 1.516 . S
C357 C356 1.516 . S
C357 C358 1.502 . S
C357 C359 1.561 . S
C357 C360 1.526 . S
C358 H342 0.959 . S
C358 H343 0.959 . S
C358 H344 0.961 . S
C358 C357 1.502 . S
C359 H345 0.960 . S
C359 H346 0.961 . S
C359 H347 0.959 . S
C359 C357 1.561 . S
C360 C357 1.526 . S
C360 C361 1.396 . S
C360 C365 1.390 . S
C361 C355 1.465 . S
C361 C360 1.396 . S
C361 C362 1.399 . S
C362 H348 0.929 . S
C362 C361 1.399 . S
C362 C363 1.385 . S
C363 H349 0.931 . S
C363 C362 1.385 . S
C363 C364 1.389 . S
C364 C363 1.389 . S
C364 C365 1.387 . S
C365 H350 0.930 . S
C365 C360 1.390 . S
C365 C364 1.387 . S
H366 C378 0.930 . S
H367 C380 0.930 . S
H368 C381 0.930 . S
H369 C385 0.959 . S
H370 C385 0.959 . S
H371 C385 0.961 . S
H372 C386 0.960 . S
H373 C386 0.961 . S
H374 C386 0.959 . S
H375 C389 0.929 . S
H376 C390 0.931 . S
H377 C392 0.930 . S
C378 H366 0.930 . S
C378 C379 1.399 . S
C378 C383 1.399 . S
C379 C378 1.399 . S
C379 C380 1.376 . S
C380 H367 0.930 . S
C380 C379 1.376 . S
C380 C381 1.388 . S
C381 H368 0.930 . S
C381 C380 1.388 . S
C381 C382 1.390 . S
C382 C381 1.390 . S
C382 C383 1.394 . S
C382 C388 1.465 . S
C383 C378 1.399 . S
C383 C382 1.394 . S
C383 C384 1.516 . S
C384 C383 1.516 . S
C384 C385 1.502 . S
C384 C386 1.561 . S
C384 C387 1.526 . S
C385 H369 0.959 . S
C385 H370 0.959 . S
C385 H371 0.961 . S
C385 C384 1.502 . S
C386 H372 0.960 . S
C386 H373 0.961 . S
C386 H374 0.959 . S
C386 C384 1.561 . S
C387 C384 1.526 . S
C387 C388 1.396 . S
C387 C392 1.390 . S
C388 C382 1.465 . S
C388 C387 1.396 . S
C388 C389 1.399 . S
C389 H375 0.929 . S
C389 C388 1.399 . S
C389 C390 1.385 . S
C390 H376 0.931 . S
C390 C389 1.385 . S
C390 C391 1.389 . S
C391 C390 1.389 . S
C391 C392 1.387 . S
C392 H377 0.930 . S
C392 C387 1.390 . S
C392 C391 1.387 . S
H393 C405 0.930 . S
H394 C407 0.930 . S
H395 C408 0.930 . S
H396 C412 0.959 . S
H397 C412 0.959 . S
H398 C412 0.961 . S
H399 C413 0.960 . S
H400 C413 0.961 . S
H401 C413 0.959 . S
H402 C416 0.929 . S
H403 C417 0.931 . S
H404 C419 0.930 . S
C405 H393 0.930 . S
C405 C406 1.399 . S
C405 C410 1.399 . S
C406 C405 1.399 . S
C406 C407 1.376 . S
C407 H394 0.930 . S
C407 C406 1.376 . S
C407 C408 1.388 . S
C408 H395 0.930 . S
C408 C407 1.388 . S
C408 C409 1.390 . S
C409 C408 1.390 . S
C409 C410 1.394 . S
C409 C415 1.465 . S
C410 C405 1.399 . S
C410 C409 1.394 . S
C410 C411 1.516 . S
C411 C410 1.516 . S
C411 C412 1.502 . S
C411 C413 1.561 . S
C411 C414 1.526 . S
C412 H396 0.959 . S
C412 H397 0.959 . S
C412 H398 0.961 . S
C412 C411 1.502 . S
C413 H399 0.960 . S
C413 H400 0.961 . S
C413 H401 0.959 . S
C413 C411 1.561 . S
C414 C411 1.526 . S
C414 C415 1.396 . S
C414 C419 1.390 . S
C415 C409 1.465 . S
C415 C414 1.396 . S
C415 C416 1.399 . S
C416 H402 0.929 . S
C416 C415 1.399 . S
C416 C417 1.385 . S
C417 H403 0.931 . S
C417 C416 1.385 . S
C417 C418 1.389 . S
C418 C417 1.389 . S
C418 C419 1.387 . S
C419 H404 0.930 . S
C419 C414 1.390 . S
C419 C418 1.387 . S
H420 C432 0.930 . S
H421 C434 0.930 . S
H422 C435 0.930 . S
H423 C439 0.959 . S
H424 C439 0.959 . S
H425 C439 0.961 . S
H426 C440 0.960 . S
H427 C440 0.961 . S
H428 C440 0.959 . S
H429 C443 0.929 . S
H430 C444 0.931 . S
H431 C446 0.930 . S
C432 H420 0.930 . S
C432 C433 1.399 . S
C432 C437 1.399 . S
C433 C432 1.399 . S
C433 C434 1.376 . S
C434 H421 0.930 . S
C434 C433 1.376 . S
C434 C435 1.388 . S
C435 H422 0.930 . S
C435 C434 1.388 . S
C435 C436 1.390 . S
C436 C435 1.390 . S
C436 C437 1.394 . S
C436 C442 1.465 . S
C437 C432 1.399 . S
C437 C436 1.394 . S
C437 C438 1.516 . S
C438 C437 1.516 . S
C438 C439 1.502 . S
C438 C440 1.561 . S
C438 C441 1.526 . S
C439 H423 0.959 . S
C439 H424 0.959 . S
C439 H425 0.961 . S
C439 C438 1.502 . S
C440 H426 0.960 . S
C440 H427 0.961 . S
C440 H428 0.959 . S
C440 C438 1.561 . S
C441 C438 1.526 . S
C441 C442 1.396 . S
C441 C446 1.390 . S
C442 C436 1.465 . S
C442 C441 1.396 . S
C442 C443 1.399 . S
C443 H429 0.929 . S
C443 C442 1.399 . S
C443 C444 1.385 . S
C444 H430 0.931 . S
C444 C443 1.385 . S
C444 C445 1.389 . S
C445 C444 1.389 . S
C445 C446 1.387 . S
C446 H431 0.930 . S
C446 C441 1.390 . S
C446 C445 1.387 . S
H447 C459 0.930 . S
H448 C461 0.930 . S
H449 C462 0.930 . S
H450 C466 0.959 . S
H451 C466 0.959 . S
H452 C466 0.961 . S
H453 C467 0.960 . S
H454 C467 0.961 . S
H455 C467 0.959 . S
H456 C470 0.929 . S
H457 C471 0.931 . S
H458 C473 0.930 . S
C459 H447 0.930 . S
C459 C460 1.399 . S
C459 C464 1.399 . S
C460 C459 1.399 . S
C460 C461 1.376 . S
C461 H448 0.930 . S
C461 C460 1.376 . S
C461 C462 1.388 . S
C462 H449 0.930 . S
C462 C461 1.388 . S
C462 C463 1.390 . S
C463 C462 1.390 . S
C463 C464 1.394 . S
C463 C469 1.465 . S
C464 C459 1.399 . S
C464 C463 1.394 . S
C464 C465 1.516 . S
C465 C464 1.516 . S
C465 C466 1.502 . S
C465 C467 1.561 . S
C465 C468 1.526 . S
C466 H450 0.959 . S
C466 H451 0.959 . S
C466 H452 0.961 . S
C466 C465 1.502 . S
C467 H453 0.960 . S
C467 H454 0.961 . S
C467 H455 0.959 . S
C467 C465 1.561 . S
C468 C465 1.526 . S
C468 C469 1.396 . S
C468 C473 1.390 . S
C469 C463 1.465 . S
C469 C468 1.396 . S
C469 C470 1.399 . S
C470 H456 0.929 . S
C470 C469 1.399 . S
C470 C471 1.385 . S
C471 H457 0.931 . S
C471 C470 1.385 . S
C471 C472 1.389 . S
C472 C471 1.389 . S
C472 C473 1.387 . S
C473 H458 0.930 . S
C473 C468 1.390 . S
C473 C472 1.387 . S
H474 C486 0.930 . S
H475 C488 0.930 . S
H476 C489 0.930 . S
H477 C493 0.959 . S
H478 C493 0.959 . S
H479 C493 0.961 . S
H480 C494 0.960 . S
H481 C494 0.961 . S
H482 C494 0.959 . S
H483 C497 0.929 . S
H484 C498 0.931 . S
H485 C500 0.930 . S
C486 H474 0.930 . S
C486 C487 1.399 . S
C486 C491 1.399 . S
C487 C486 1.399 . S
C487 C488 1.376 . S
C488 H475 0.930 . S
C488 C487 1.376 . S
C488 C489 1.388 . S
C489 H476 0.930 . S
C489 C488 1.388 . S
C489 C490 1.390 . S
C490 C489 1.390 . S
C490 C491 1.394 . S
C490 C496 1.465 . S
C491 C486 1.399 . S
C491 C490 1.394 . S
C491 C492 1.516 . S
C492 C491 1.516 . S
C492 C493 1.502 . S
C492 C494 1.561 . S
C492 C495 1.526 . S
C493 H477 0.959 . S
C493 H478 0.959 . S
C493 H479 0.961 . S
C493 C492 1.502 . S
C494 H480 0.960 . S
C494 H481 0.961 . S
C494 H482 0.959 . S
C494 C492 1.561 . S
C495 C492 1.526 . S
C495 C496 1.396 . S
C495 C500 1.390 . S
C496 C490 1.465 . S
C496 C495 1.396 . S
C496 C497 1.399 . S
C497 H483 0.929 . S
C497 C496 1.399 . S
C497 C498 1.385 . S
C498 H484 0.931 . S
C498 C497 1.385 . S
C498 C499 1.389 . S
C499 C498 1.389 . S
C499 C500 1.387 . S
C500 H485 0.930 . S
C500 C495 1.390 . S
C500 C499 1.387 . S
H501 C513 0.930 . S
H502 C515 0.930 . S
H503 C516 0.930 . S
H504 C520 0.959 . S
H505 C520 0.959 . S
H506 C520 0.961 . S
H507 C521 0.960 . S
H508 C521 0.961 . S
H509 C521 0.959 . S
H510 C524 0.929 . S
H511 C525 0.931 . S
H512 C527 0.930 . S
C513 H501 0.930 . S
C513 C514 1.399 . S
C513 C518 1.399 . S
C514 C513 1.399 . S
C514 C515 1.376 . S
C515 H502 0.930 . S
C515 C514 1.376 . S
C515 C516 1.388 . S
C516 H503 0.930 . S
C516 C515 1.388 . S
C516 C517 1.390 . S
C517 C516 1.390 . S
C517 C518 1.394 . S
C517 C523 1.465 . S
C518 C513 1.399 . S
C518 C517 1.394 . S
C518 C519 1.516 . S
C519 C518 1.516 . S
C519 C520 1.502 . S
C519 C521 1.561 . S
C519 C522 1.526 . S
C520 H504 0.959 . S
C520 H505 0.959 . S
C520 H506 0.961 . S
C520 C519 1.502 . S
C521 H507 0.960 . S
C521 H508 0.961 . S
C521 H509 0.959 . S
C521 C519 1.561 . S
C522 C519 1.526 . S
C522 C523 1.396 . S
C522 C527 1.390 . S
C523 C517 1.465 . S
C523 C522 1.396 . S
C523 C524 1.399 . S
C524 H510 0.929 . S
C524 C523 1.399 . S
C524 C525 1.385 . S
C525 H511 0.931 . S
C525 C524 1.385 . S
C525 C526 1.389 . S
C526 C525 1.389 . S
C526 C527 1.387 . S
C527 H512 0.930 . S
C527 C522 1.390 . S
C527 C526 1.387 . S
H528 C540 0.930 . S
H529 C542 0.930 . S
H530 C543 0.930 . S
H531 C547 0.959 . S
H532 C547 0.959 . S
H533 C547 0.961 . S
H534 C548 0.960 . S
H535 C548 0.961 . S
H536 C548 0.959 . S
H537 C551 0.929 . S
H538 C552 0.931 . S
H539 C554 0.930 . S
C540 H528 0.930 . S
C540 C541 1.399 . S
C540 C545 1.399 . S
C541 C540 1.399 . S
C541 C542 1.376 . S
C542 H529 0.930 . S
C542 C541 1.376 . S
C542 C543 1.388 . S
C543 H530 0.930 . S
C543 C542 1.388 . S
C543 C544 1.390 . S
C544 C543 1.390 . S
C544 C545 1.394 . S
C544 C550 1.465 . S
C545 C540 1.399 . S
C545 C544 1.394 . S
C545 C546 1.516 . S
C546 C545 1.516 . S
C546 C547 1.502 . S
C546 C548 1.561 . S
C546 C549 1.526 . S
C547 H531 0.959 . S
C547 H532 0.959 . S
C547 H533 0.961 . S
C547 C546 1.502 . S
C548 H534 0.960 . S
C548 H535 0.961 . S
C548 H536 0.959 . S
C548 C546 1.561 . S
C549 C546 1.526 . S
C549 C550 1.396 . S
C549 C554 1.390 . S
C550 C544 1.465 . S
C550 C549 1.396 . S
C550 C551 1.399 . S
C551 H537 0.929 . S
C551 C550 1.399 . S
C551 C552 1.385 . S
C552 H538 0.931 . S
C552 C551 1.385 . S
C552 C553 1.389 . S
C553 C552 1.389 . S
C553 C554 1.387 . S
C554 H539 0.930 . S
C554 C549 1.390 . S
C554 C553 1.387 . S
H555 C567 0.930 . S
H556 C569 0.930 . S
H557 C570 0.930 . S
H558 C574 0.959 . S
H559 C574 0.959 . S
H560 C574 0.961 . S
H561 C575 0.960 . S
H562 C575 0.961 . S
H563 C575 0.959 . S
H564 C578 0.929 . S
H565 C579 0.931 . S
H566 C581 0.930 . S
C567 H555 0.930 . S
C567 C568 1.399 . S
C567 C572 1.399 . S
C568 C567 1.399 . S
C568 C569 1.376 . S
C569 H556 0.930 . S
C569 C568 1.376 . S
C569 C570 1.388 . S
C570 H557 0.930 . S
C570 C569 1.388 . S
C570 C571 1.390 . S
C571 C570 1.390 . S
C571 C572 1.394 . S
C571 C577 1.465 . S
C572 C567 1.399 . S
C572 C571 1.394 . S
C572 C573 1.516 . S
C573 C572 1.516 . S
C573 C574 1.502 . S
C573 C575 1.561 . S
C573 C576 1.526 . S
C574 H558 0.959 . S
C574 H559 0.959 . S
C574 H560 0.961 . S
C574 C573 1.502 . S
C575 H561 0.960 . S
C575 H562 0.961 . S
C575 H563 0.959 . S
C575 C573 1.561 . S
C576 C573 1.526 . S
C576 C577 1.396 . S
C576 C581 1.390 . S
C577 C571 1.465 . S
C577 C576 1.396 . S
C577 C578 1.399 . S
C578 H564 0.929 . S
C578 C577 1.399 . S
C578 C579 1.385 . S
C579 H565 0.931 . S
C579 C578 1.385 . S
C579 C580 1.389 . S
C580 C579 1.389 . S
C580 C581 1.387 . S
C581 H566 0.930 . S
C581 C576 1.390 . S
C581 C580 1.387 . S
H582 C594 0.930 . S
H583 C596 0.930 . S
H584 C597 0.930 . S
H585 C601 0.959 . S
H586 C601 0.959 . S
H587 C601 0.961 . S
H588 C602 0.960 . S
H589 C602 0.961 . S
H590 C602 0.959 . S
H591 C605 0.929 . S
H592 C606 0.931 . S
H593 C608 0.930 . S
C594 H582 0.930 . S
C594 C595 1.399 . S
C594 C599 1.399 . S
C595 C594 1.399 . S
C595 C596 1.376 . S
C596 H583 0.930 . S
C596 C595 1.376 . S
C596 C597 1.388 . S
C597 H584 0.930 . S
C597 C596 1.388 . S
C597 C598 1.390 . S
C598 C597 1.390 . S
C598 C599 1.394 . S
C598 C604 1.465 . S
C599 C594 1.399 . S
C599 C598 1.394 . S
C599 C600 1.516 . S
C600 C599 1.516 . S
C600 C601 1.502 . S
C600 C602 1.561 . S
C600 C603 1.526 . S
C601 H585 0.959 . S
C601 H586 0.959 . S
C601 H587 0.961 . S
C601 C600 1.502 . S
C602 H588 0.960 . S
C602 H589 0.961 . S
C602 H590 0.959 . S
C602 C600 1.561 . S
C603 C600 1.526 . S
C603 C604 1.396 . S
C603 C608 1.390 . S
C604 C598 1.465 . S
C604 C603 1.396 . S
C604 C605 1.399 . S
C605 H591 0.929 . S
C605 C604 1.399 . S
C605 C606 1.385 . S
C606 H592 0.931 . S
C606 C605 1.385 . S
C606 C607 1.389 . S
C607 C606 1.389 . S
C607 C608 1.387 . S
C608 H593 0.930 . S
C608 C603 1.390 . S
C608 C607 1.387 . S
H609 C621 0.930 . S
H610 C623 0.930 . S
H611 C624 0.930 . S
H612 C628 0.959 . S
H613 C628 0.959 . S
H614 C628 0.961 . S
H615 C629 0.960 . S
H616 C629 0.961 . S
H617 C629 0.959 . S
H618 C632 0.929 . S
H619 C633 0.931 . S
H620 C635 0.930 . S
C621 H609 0.930 . S
C621 C622 1.399 . S
C621 C626 1.399 . S
C622 C621 1.399 . S
C622 C623 1.376 . S
C623 H610 0.930 . S
C623 C622 1.376 . S
C623 C624 1.388 . S
C624 H611 0.930 . S
C624 C623 1.388 . S
C624 C625 1.390 . S
C625 C624 1.390 . S
C625 C626 1.394 . S
C625 C631 1.465 . S
C626 C621 1.399 . S
C626 C625 1.394 . S
C626 C627 1.516 . S
C627 C626 1.516 . S
C627 C628 1.502 . S
C627 C629 1.561 . S
C627 C630 1.526 . S
C628 H612 0.959 . S
C628 H613 0.959 . S
C628 H614 0.961 . S
C628 C627 1.502 . S
C629 H615 0.960 . S
C629 H616 0.961 . S
C629 H617 0.959 . S
C629 C627 1.561 . S
C630 C627 1.526 . S
C630 C631 1.396 . S
C630 C635 1.390 . S
C631 C625 1.465 . S
C631 C630 1.396 . S
C631 C632 1.399 . S
C632 H618 0.929 . S
C632 C631 1.399 . S
C632 C633 1.385 . S
C633 H619 0.931 . S
C633 C632 1.385 . S
C633 C634 1.389 . S
C634 C633 1.389 . S
C634 C635 1.387 . S
C635 H620 0.930 . S
C635 C630 1.390 . S
C635 C634 1.387 . S
H636 C648 0.930 . S
H637 C650 0.930 . S
H638 C651 0.930 . S
H639 C655 0.959 1_565 S
H640 C655 0.959 . S
H641 C655 0.955 1_565 S
H642 C656 0.960 . S
H643 C656 0.961 . S
H644 C656 0.959 . S
H645 C659 0.929 . S
H646 C660 0.931 . S
H647 C662 0.930 . S
C648 H636 0.930 . S
C648 C649 1.399 . S
C648 C653 1.399 . S
C649 C648 1.399 . S
C649 C650 1.376 . S
C650 H637 0.930 . S
C650 C649 1.376 . S
C650 C651 1.388 . S
C651 H638 0.930 . S
C651 C650 1.388 . S
C651 C652 1.390 . S
C652 C651 1.390 . S
C652 C653 1.394 . S
C652 C658 1.465 1_565 S
C653 C648 1.399 . S
C653 C652 1.394 . S
C653 C654 1.516 1_565 S
C654 C653 1.516 1_545 S
C654 C655 1.502 . S
C654 C656 1.561 . S
C654 C657 1.526 . S
C655 H639 0.959 1_545 S
C655 H640 0.959 . S
C655 H641 0.955 1_545 S
C655 C654 1.502 . S
C656 H642 0.960 . S
C656 H643 0.961 . S
C656 H644 0.959 . S
C656 C654 1.561 . S
C657 C654 1.526 . S
C657 C658 1.396 . S
C657 C662 1.390 . S
C658 C652 1.465 1_545 S
C658 C657 1.396 . S
C658 C659 1.399 . S
C659 H645 0.929 . S
C659 C658 1.399 . S
C659 C660 1.385 . S
C660 H646 0.931 . S
C660 C659 1.385 . S
C660 C661 1.389 . S
C661 C660 1.389 . S
C661 C662 1.387 . S
C662 H647 0.930 . S
C662 C657 1.390 . S
C662 C661 1.387 . S
H663 C675 0.930 . S
H664 C677 0.930 . S
H665 C678 0.930 1_455 S
H666 C682 0.959 . S
H667 C682 0.959 . S
H668 C682 0.961 . S
H669 C683 0.960 . S
H670 C683 0.961 . S
H671 C683 0.959 . S
H672 C686 0.929 . S
H673 C687 0.931 . S
H674 C689 0.930 . S
C675 H663 0.930 . S
C675 C676 1.399 . S
C675 C680 1.399 . S
C676 C675 1.399 . S
C676 C677 1.376 . S
C677 H664 0.930 . S
C677 C676 1.376 . S
C677 C678 1.388 . S
C678 H665 0.930 1_655 S
C678 C677 1.388 . S
C678 C679 1.390 . S
C679 C678 1.390 . S
C679 C680 1.394 . S
C679 C685 1.465 1_655 S
C680 C675 1.399 . S
C680 C679 1.394 . S
C680 C681 1.516 . S
C681 C680 1.516 . S
C681 C682 1.502 . S
C681 C683 1.561 . S
C681 C684 1.526 1_655 S
C682 H666 0.959 . S
C682 H667 0.959 . S
C682 H668 0.961 . S
C682 C681 1.502 . S
C683 H669 0.960 . S
C683 H670 0.961 . S
C683 H671 0.959 . S
C683 C681 1.561 . S
C684 C681 1.526 1_455 S
C684 C685 1.396 . S
C684 C689 1.390 . S
C685 C679 1.465 1_455 S
C685 C684 1.396 . S
C685 C686 1.399 . S
C686 H672 0.929 . S
C686 C685 1.399 . S
C686 C687 1.385 . S
C687 H673 0.931 . S
C687 C686 1.385 . S
C687 C688 1.389 . S
C688 C687 1.389 . S
C688 C689 1.387 . S
C689 H674 0.930 . S
C689 C684 1.390 . S
C689 C688 1.387 . S
H690 C702 0.930 . S
H691 C704 0.930 . S
H692 C705 0.930 . S
H693 C709 0.959 . S
H694 C709 0.959 . S
H695 C709 0.961 . S
H696 C710 0.960 1_545 S
H697 C710 0.961 . S
H698 C710 0.959 1_545 S
H699 C713 0.929 1_545 S
H700 C714 0.931 . S
H701 C716 0.930 . S
C702 H690 0.930 . S
C702 C703 1.399 . S
C702 C707 1.399 . S
C703 C702 1.399 . S
C703 C704 1.376 . S
C704 H691 0.930 . S
C704 C703 1.376 . S
C704 C705 1.388 . S
C705 H692 0.930 . S
C705 C704 1.388 . S
C705 C706 1.390 . S
C706 C705 1.390 . S
C706 C707 1.394 . S
C706 C712 1.465 1_545 S
C707 C702 1.399 . S
C707 C706 1.394 . S
C707 C708 1.516 1_545 S
C708 C707 1.516 1_565 S
C708 C709 1.502 . S
C708 C710 1.561 . S
C708 C711 1.526 . S
C709 H693 0.959 . S
C709 H694 0.959 . S
C709 H695 0.961 . S
C709 C708 1.502 . S
C710 H696 0.960 1_565 S
C710 H697 0.961 . S
C710 H698 0.959 1_565 S
C710 C708 1.561 . S
C711 C708 1.526 . S
C711 C712 1.396 . S
C711 C716 1.390 . S
C712 C706 1.465 1_565 S
C712 C711 1.396 . S
C712 C713 1.399 . S
C713 H699 0.929 1_565 S
C713 C712 1.399 . S
C713 C714 1.385 . S
C714 H700 0.931 . S
C714 C713 1.385 . S
C714 C715 1.389 . S
C715 C714 1.389 . S
C715 C716 1.387 . S
C716 H701 0.930 . S
C716 C711 1.390 . S
C716 C715 1.387 . S
H717 C729 0.930 . S
H718 C731 0.930 . S
H719 C732 0.930 . S
H720 C736 0.959 . S
H721 C736 0.959 . S
H722 C736 0.961 . S
H723 C737 0.960 . S
H724 C737 0.961 1_655 S
H725 C737 0.959 . S
H726 C740 0.929 . S
H727 C741 0.931 . S
H728 C743 0.930 . S
C729 H717 0.930 . S
C729 C730 1.399 . S
C729 C734 1.399 . S
C730 C729 1.399 . S
C730 C731 1.376 . S
C731 H718 0.930 . S
C731 C730 1.376 . S
C731 C732 1.388 . S
C732 H719 0.930 . S
C732 C731 1.388 . S
C732 C733 1.390 . S
C733 C732 1.390 . S
C733 C734 1.394 . S
C733 C739 1.465 1_455 S
C734 C729 1.399 . S
C734 C733 1.394 . S
C734 C735 1.516 1_455 S
C735 C734 1.516 1_655 S
C735 C736 1.502 . S
C735 C737 1.561 1_655 S
C735 C738 1.526 . S
C736 H720 0.959 . S
C736 H721 0.959 . S
C736 H722 0.961 . S
C736 C735 1.502 . S
C737 H723 0.960 . S
C737 H724 0.961 1_455 S
C737 H725 0.959 . S
C737 C735 1.561 1_455 S
C738 C735 1.526 . S
C738 C739 1.396 . S
C738 C743 1.390 . S
C739 C733 1.465 1_655 S
C739 C738 1.396 . S
C739 C740 1.399 . S
C740 H726 0.929 . S
C740 C739 1.399 . S
C740 C741 1.385 . S
C741 H727 0.931 . S
C741 C740 1.385 . S
C741 C742 1.389 . S
C742 C741 1.389 . S
C742 C743 1.387 . S
C743 H728 0.930 . S
C743 C738 1.390 . S
C743 C742 1.387 . S
H744 C756 0.930 . S
H745 C758 0.930 . S
H746 C759 0.930 . S
H747 C763 0.959 . S
H748 C763 0.959 . S
H749 C763 0.961 . S
H750 C764 0.960 . S
H751 C764 0.961 1_545 S
H752 C764 0.959 . S
H753 C767 0.929 . S
H754 C768 0.931 . S
H755 C770 0.930 . S
C756 H744 0.930 . S
C756 C757 1.399 . S
C756 C761 1.399 . S
C757 C756 1.399 . S
C757 C758 1.376 . S
C758 H745 0.930 . S
C758 C757 1.376 . S
C758 C759 1.388 . S
C759 H746 0.930 . S
C759 C758 1.388 . S
C759 C760 1.390 . S
C760 C759 1.390 . S
C760 C761 1.394 . S
C760 C766 1.465 1_565 S
C761 C756 1.399 . S
C761 C760 1.394 . S
C761 C762 1.516 1_565 S
C762 C761 1.516 1_545 S
C762 C763 1.502 . S
C762 C764 1.561 1_545 S
C762 C765 1.526 . S
C763 H747 0.959 . S
C763 H748 0.959 . S
C763 H749 0.961 . S
C763 C762 1.502 . S
C764 H750 0.960 . S
C764 H751 0.961 1_565 S
C764 H752 0.959 . S
C764 C762 1.561 1_565 S
C765 C762 1.526 . S
C765 C766 1.396 . S
C765 C770 1.390 . S
C766 C760 1.465 1_545 S
C766 C765 1.396 . S
C766 C767 1.399 . S
C767 H753 0.929 . S
C767 C766 1.399 . S
C767 C768 1.385 . S
C768 H754 0.931 . S
C768 C767 1.385 . S
C768 C769 1.389 . S
C769 C768 1.389 . S
C769 C770 1.387 . S
C770 H755 0.930 . S
C770 C765 1.390 . S
C770 C769 1.387 . S
H771 C783 0.930 . S
H772 C785 0.930 . S
H773 C786 0.930 . S
H774 C790 0.959 1_455 S
H775 C790 0.959 . S
H776 C790 0.961 . S
H777 C791 0.960 . S
H778 C791 0.961 . S
H779 C791 0.959 . S
H780 C794 0.929 . S
H781 C795 0.931 . S
H782 C797 0.930 . S
C783 H771 0.930 . S
C783 C784 1.399 . S
C783 C788 1.399 . S
C784 C783 1.399 . S
C784 C785 1.376 . S
C785 H772 0.930 . S
C785 C784 1.376 . S
C785 C786 1.388 . S
C786 H773 0.930 . S
C786 C785 1.388 . S
C786 C787 1.390 . S
C787 C786 1.390 . S
C787 C788 1.394 . S
C787 C793 1.465 1_655 S
C788 C783 1.399 . S
C788 C787 1.394 . S
C788 C789 1.516 . S
C789 C788 1.516 . S
C789 C790 1.502 . S
C789 C791 1.561 . S
C789 C792 1.526 1_655 S
C790 H774 0.959 1_655 S
C790 H775 0.959 . S
C790 H776 0.961 . S
C790 C789 1.502 . S
C791 H777 0.960 . S
C791 H778 0.961 . S
C791 H779 0.959 . S
C791 C789 1.561 . S
C792 C789 1.526 1_455 S
C792 C793 1.396 . S
C792 C797 1.390 . S
C793 C787 1.465 1_455 S
C793 C792 1.396 . S
C793 C794 1.399 . S
C794 H780 0.929 . S
C794 C793 1.399 . S
C794 C795 1.385 . S
C795 H781 0.931 . S
C795 C794 1.385 . S
C795 C796 1.389 . S
C796 C795 1.389 . S
C796 C797 1.387 . S
C797 H782 0.930 . S
C797 C792 1.390 . S
C797 C796 1.387 . S
H798 C810 0.930 . S
H799 C812 0.930 . S
H800 C813 0.930 . S
H801 C817 0.959 1_565 S
H802 C817 0.959 . S
H803 C817 0.961 1_565 S
H804 C818 0.960 . S
H805 C818 0.961 . S
H806 C818 0.959 . S
H807 C821 0.929 . S
H808 C822 0.931 . S
H809 C824 0.930 . S
C810 H798 0.930 . S
C810 C811 1.399 . S
C810 C815 1.399 . S
C811 C810 1.399 . S
C811 C812 1.376 . S
C812 H799 0.930 . S
C812 C811 1.376 . S
C812 C813 1.388 . S
C813 H800 0.930 . S
C813 C812 1.388 . S
C813 C814 1.390 . S
C814 C813 1.390 . S
C814 C815 1.394 . S
C814 C820 1.465 1_565 S
C815 C810 1.399 . S
C815 C814 1.394 . S
C815 C816 1.516 1_565 S
C816 C815 1.516 1_545 S
C816 C817 1.502 . S
C816 C818 1.561 . S
C816 C819 1.526 . S
C817 H801 0.959 1_545 S
C817 H802 0.959 . S
C817 H803 0.961 1_545 S
C817 C816 1.502 . S
C818 H804 0.960 . S
C818 H805 0.961 . S
C818 H806 0.959 . S
C818 C816 1.561 . S
C819 C816 1.526 . S
C819 C820 1.396 . S
C819 C824 1.390 . S
C820 C814 1.465 1_545 S
C820 C819 1.396 . S
C820 C821 1.399 . S
C821 H807 0.929 . S
C821 C820 1.399 . S
C821 C822 1.385 . S
C822 H808 0.931 . S
C822 C821 1.385 . S
C822 C823 1.389 . S
C823 C822 1.389 . S
C823 C824 1.387 . S
C824 H809 0.930 . S
C824 C819 1.390 . S
C824 C823 1.387 . S
H825 C837 0.930 . S
H826 C839 0.930 . S
H827 C840 0.930 . S
H828 C844 0.959 . S
H829 C844 0.959 . S
H830 C844 0.961 . S
H831 C845 0.960 . S
H832 C845 0.961 . S
H833 C845 0.959 . S
H834 C848 0.929 1_455 S
H835 C849 0.931 . S
H836 C851 0.930 . S
C837 H825 0.930 . S
C837 C838 1.399 . S
C837 C842 1.399 . S
C838 C837 1.399 . S
C838 C839 1.376 . S
C839 H826 0.930 . S
C839 C838 1.376 . S
C839 C840 1.388 . S
C840 H827 0.930 . S
C840 C839 1.388 . S
C840 C841 1.390 . S
C841 C840 1.390 . S
C841 C842 1.394 . S
C841 C847 1.465 1_455 S
C842 C837 1.399 . S
C842 C841 1.394 . S
C842 C843 1.516 1_455 S
C843 C842 1.516 1_655 S
C843 C844 1.502 . S
C843 C845 1.561 . S
C843 C846 1.526 . S
C844 H828 0.959 . S
C844 H829 0.959 . S
C844 H830 0.961 . S
C844 C843 1.502 . S
C845 H831 0.960 . S
C845 H832 0.961 . S
C845 H833 0.959 . S
C845 C843 1.561 . S
C846 C843 1.526 . S
C846 C847 1.396 . S
C846 C851 1.390 . S
C847 C841 1.465 1_655 S
C847 C846 1.396 . S
C847 C848 1.399 . S
C848 H834 0.929 1_655 S
C848 C847 1.399 . S
C848 C849 1.385 . S
C849 H835 0.931 . S
C849 C848 1.385 . S
C849 C850 1.389 . S
C850 C849 1.389 . S
C850 C851 1.387 . S
C851 H836 0.930 . S
C851 C846 1.390 . S
C851 C850 1.387 . S
H852 C864 0.930 . S
H853 C866 0.930 . S
H854 C867 0.930 1_554 S
H855 C871 0.959 . S
H856 C871 0.959 . S
H857 C871 0.961 . S
H858 C872 0.960 . S
H859 C872 0.961 . S
H860 C872 0.959 . S
H861 C875 0.929 . S
H862 C876 0.931 . S
H863 C878 0.930 . S
C864 H852 0.930 . S
C864 C865 1.399 . S
C864 C869 1.399 . S
C865 C864 1.399 . S
C865 C866 1.376 . S
C866 H853 0.930 . S
C866 C865 1.376 . S
C866 C867 1.388 . S
C867 H854 0.930 1_556 S
C867 C866 1.388 . S
C867 C868 1.390 . S
C868 C867 1.390 . S
C868 C869 1.394 . S
C868 C874 1.465 1_556 S
C869 C864 1.399 . S
C869 C868 1.394 . S
C869 C870 1.516 . S
C870 C869 1.516 . S
C870 C871 1.502 . S
C870 C872 1.561 . S
C870 C873 1.526 1_556 S
C871 H855 0.959 . S
C871 H856 0.959 . S
C871 H857 0.961 . S
C871 C870 1.502 . S
C872 H858 0.960 . S
C872 H859 0.961 . S
C872 H860 0.959 . S
C872 C870 1.561 . S
C873 C870 1.526 1_554 S
C873 C874 1.396 . S
C873 C878 1.390 . S
C874 C868 1.465 1_554 S
C874 C873 1.396 . S
C874 C875 1.399 . S
C875 H861 0.929 . S
C875 C874 1.399 . S
C875 C876 1.385 . S
C876 H862 0.931 . S
C876 C875 1.385 . S
C876 C877 1.389 . S
C877 C876 1.389 . S
C877 C878 1.387 . S
C878 H863 0.930 . S
C878 C873 1.390 . S
C878 C877 1.387 . S
H879 C891 0.930 . S
H880 C893 0.930 . S
H881 C894 0.930 . S
H882 C898 0.959 . S
H883 C898 0.959 . S
H884 C898 0.961 . S
H885 C899 0.960 . S
H886 C899 0.961 1_556 S
H887 C899 0.959 . S
H888 C902 0.929 . S
H889 C903 0.931 . S
H890 C905 0.930 . S
C891 H879 0.930 . S
C891 C892 1.399 . S
C891 C896 1.399 . S
C892 C891 1.399 . S
C892 C893 1.376 . S
C893 H880 0.930 . S
C893 C892 1.376 . S
C893 C894 1.388 . S
C894 H881 0.930 . S
C894 C893 1.388 . S
C894 C895 1.390 . S
C895 C894 1.390 . S
C895 C896 1.394 . S
C895 C901 1.465 1_554 S
C896 C891 1.399 . S
C896 C895 1.394 . S
C896 C897 1.516 1_554 S
C897 C896 1.516 1_556 S
C897 C898 1.502 . S
C897 C899 1.561 1_556 S
C897 C900 1.526 . S
C898 H882 0.959 . S
C898 H883 0.959 . S
C898 H884 0.961 . S
C898 C897 1.502 . S
C899 H885 0.960 . S
C899 H886 0.961 1_554 S
C899 H887 0.959 . S
C899 C897 1.561 1_554 S
C900 C897 1.526 . S
C900 C901 1.396 . S
C900 C905 1.390 . S
C901 C895 1.465 1_556 S
C901 C900 1.396 . S
C901 C902 1.399 . S
C902 H888 0.929 . S
C902 C901 1.399 . S
C902 C903 1.385 . S
C903 H889 0.931 . S
C903 C902 1.385 . S
C903 C904 1.389 . S
C904 C903 1.389 . S
C904 C905 1.387 . S
C905 H890 0.930 . S
C905 C900 1.390 . S
C905 C904 1.387 . S
H906 C918 0.930 . S
H907 C920 0.930 . S
H908 C921 0.930 . S
H909 C925 0.959 . S
H910 C925 0.959 . S
H911 C925 0.961 . S
H912 C926 0.960 . S
H913 C926 0.961 . S
H914 C926 0.959 . S
H915 C929 0.929 . S
H916 C930 0.931 . S
H917 C932 0.930 . S
C918 H906 0.930 . S
C918 C919 1.399 . S
C918 C923 1.399 . S
C919 C918 1.399 . S
C919 C920 1.376 . S
C920 H907 0.930 . S
C920 C919 1.376 . S
C920 C921 1.388 . S
C921 H908 0.930 . S
C921 C920 1.388 . S
C921 C922 1.390 . S
C922 C921 1.390 . S
C922 C923 1.394 . S
C922 C928 1.465 1_556 S
C923 C918 1.399 . S
C923 C922 1.394 . S
C923 C924 1.495 1_556 S
C924 C923 1.495 1_554 S
C924 C925 1.523 . S
C924 C926 1.541 1_554 S
C924 C927 1.545 . S
C925 H909 0.959 . S
C925 H910 0.959 . S
C925 H911 0.961 . S
C925 C924 1.523 . S
C926 H912 0.960 . S
C926 H913 0.961 . S
C926 H914 0.959 . S
C926 C924 1.541 1_556 S
C927 C924 1.545 . S
C927 C928 1.396 . S
C927 C932 1.390 . S
C928 C922 1.465 1_554 S
C928 C927 1.396 . S
C928 C929 1.399 . S
C929 H915 0.929 . S
C929 C928 1.399 . S
C929 C930 1.385 . S
C930 H916 0.931 . S
C930 C929 1.385 . S
C930 C931 1.389 . S
C931 C930 1.389 . S
C931 C932 1.387 . S
C932 H917 0.930 . S
C932 C927 1.390 . S
C932 C931 1.387 . S
H933 C945 0.930 . S
H934 C947 0.930 . S
H935 C948 0.930 . S
H936 C952 0.959 . S
H937 C952 0.959 . S
H938 C952 0.961 . S
H939 C953 0.960 . S
H940 C953 0.961 . S
H941 C953 0.959 . S
H942 C956 0.929 1_554 S
H943 C957 0.931 . S
H944 C959 0.930 . S
C945 H933 0.930 . S
C945 C946 1.399 . S
C945 C950 1.399 . S
C946 C945 1.399 . S
C946 C947 1.376 . S
C947 H934 0.930 . S
C947 C946 1.376 . S
C947 C948 1.388 . S
C948 H935 0.930 . S
C948 C947 1.388 . S
C948 C949 1.390 . S
C949 C948 1.390 . S
C949 C950 1.394 . S
C949 C955 1.465 1_554 S
C950 C945 1.399 . S
C950 C949 1.394 . S
C950 C951 1.516 1_554 S
C951 C950 1.516 1_556 S
C951 C952 1.502 . S
C951 C953 1.561 . S
C951 C954 1.526 . S
C952 H936 0.959 . S
C952 H937 0.959 . S
C952 H938 0.961 . S
C952 C951 1.502 . S
C953 H939 0.960 . S
C953 H940 0.961 . S
C953 H941 0.959 . S
C953 C951 1.561 . S
C954 C951 1.526 . S
C954 C955 1.396 . S
C954 C959 1.390 . S
C955 C949 1.465 1_556 S
C955 C954 1.396 . S
C955 C956 1.399 . S
C956 H942 0.929 1_556 S
C956 C955 1.399 . S
C956 C957 1.385 . S
C957 H943 0.931 . S
C957 C956 1.385 . S
C957 C958 1.389 . S
C958 C957 1.389 . S
C958 C959 1.387 . S
C959 H944 0.930 . S
C959 C954 1.390 . S
C959 C958 1.387 . S
H960 C972 0.930 . S
H961 C974 0.930 . S
H962 C975 0.930 . S
H963 C979 0.959 . S
H964 C979 0.959 . S
H965 C979 0.961 . S
H966 C980 0.960 . S
H967 C980 0.961 . S
H968 C980 0.959 . S
H969 C983 0.929 . S
H970 C984 0.931 . S
H971 C986 0.930 . S
C972 H960 0.930 . S
C972 C973 1.399 . S
C972 C977 1.399 . S
C973 C972 1.399 . S
C973 C974 1.376 . S
C974 H961 0.930 . S
C974 C973 1.376 . S
C974 C975 1.388 . S
C975 H962 0.930 . S
C975 C974 1.388 . S
C975 C976 1.390 . S
C976 C975 1.390 . S
C976 C977 1.394 . S
C976 C982 1.465 . S
C977 C972 1.399 . S
C977 C976 1.394 . S
C977 C978 1.516 . S
C978 C977 1.516 . S
C978 C979 1.502 . S
C978 C980 1.561 . S
C978 C981 1.526 . S
C979 H963 0.959 . S
C979 H964 0.959 . S
C979 H965 0.961 . S
C979 C978 1.502 . S
C980 H966 0.960 . S
C980 H967 0.961 . S
C980 H968 0.959 . S
C980 C978 1.561 . S
C981 C978 1.526 . S
C981 C982 1.396 . S
C981 C986 1.390 . S
C982 C976 1.465 . S
C982 C981 1.396 . S
C982 C983 1.399 . S
C983 H969 0.929 . S
C983 C982 1.399 . S
C983 C984 1.385 . S
C984 H970 0.931 . S
C984 C983 1.385 . S
C984 C985 1.389 . S
C985 C984 1.389 . S
C985 C986 1.387 . S
C986 H971 0.930 . S
C986 C981 1.390 . S
C986 C985 1.387 . S
H987 C999 0.930 . S
H988 C1001 0.930 . S
H989 C1002 0.930 . S
H990 C1006 0.959 . S
H991 C1006 0.959 . S
H992 C1006 0.961 . S
H993 C1007 0.960 . S
H994 C1007 0.961 . S
H995 C1007 0.959 . S
H996 C1010 0.929 . S
H997 C1011 0.931 . S
H998 C1013 0.930 . S
C999 H987 0.930 . S
C999 C1000 1.399 . S
C999 C1004 1.399 . S
C1000 C999 1.399 . S
C1000 C1001 1.376 . S
C1001 H988 0.930 . S
C1001 C1000 1.376 . S
C1001 C1002 1.388 . S
C1002 H989 0.930 . S
C1002 C1001 1.388 . S
C1002 C1003 1.390 . S
C1003 C1002 1.390 . S
C1003 C1004 1.394 . S
C1003 C1009 1.465 . S
C1004 C999 1.399 . S
C1004 C1003 1.394 . S
C1004 C1005 1.516 . S
C1005 C1004 1.516 . S
C1005 C1006 1.502 . S
C1005 C1007 1.561 . S
C1005 C1008 1.526 . S
C1006 H990 0.959 . S
C1006 H991 0.959 . S
C1006 H992 0.961 . S
C1006 C1005 1.502 . S
C1007 H993 0.960 . S
C1007 H994 0.961 . S
C1007 H995 0.959 . S
C1007 C1005 1.561 . S
C1008 C1005 1.526 . S
C1008 C1009 1.396 . S
C1008 C1013 1.390 . S
C1009 C1003 1.465 . S
C1009 C1008 1.396 . S
C1009 C1010 1.399 . S
C1010 H996 0.929 . S
C1010 C1009 1.399 . S
C1010 C1011 1.385 . S
C1011 H997 0.931 . S
C1011 C1010 1.385 . S
C1011 C1012 1.389 . S
C1012 C1011 1.389 . S
C1012 C1013 1.387 . S
C1013 H998 0.930 . S
C1013 C1008 1.390 . S
C1013 C1012 1.387 . S
H1014 C1026 0.930 . S
H1015 C1028 0.930 . S
H1016 C1029 0.930 . S
H1017 C1033 0.959 . S
H1018 C1033 0.959 . S
H1019 C1033 0.961 . S
H1020 C1034 0.960 . S
H1021 C1034 0.961 . S
H1022 C1034 0.959 . S
H1023 C1037 0.929 . S
H1024 C1038 0.931 . S
H1025 C1040 0.930 . S
C1026 H1014 0.930 . S
C1026 C1027 1.399 . S
C1026 C1031 1.399 . S
C1027 C1026 1.399 . S
C1027 C1028 1.376 . S
C1028 H1015 0.930 . S
C1028 C1027 1.376 . S
C1028 C1029 1.388 . S
C1029 H1016 0.930 . S
C1029 C1028 1.388 . S
C1029 C1030 1.390 . S
C1030 C1029 1.390 . S
C1030 C1031 1.394 . S
C1030 C1036 1.465 . S
C1031 C1026 1.399 . S
C1031 C1030 1.394 . S
C1031 C1032 1.516 . S
C1032 C1031 1.516 . S
C1032 C1033 1.502 . S
C1032 C1034 1.561 . S
C1032 C1035 1.526 . S
C1033 H1017 0.959 . S
C1033 H1018 0.959 . S
C1033 H1019 0.961 . S
C1033 C1032 1.502 . S
C1034 H1020 0.960 . S
C1034 H1021 0.961 . S
C1034 H1022 0.959 . S
C1034 C1032 1.561 . S
C1035 C1032 1.526 . S
C1035 C1036 1.396 . S
C1035 C1040 1.390 . S
C1036 C1030 1.465 . S
C1036 C1035 1.396 . S
C1036 C1037 1.399 . S
C1037 H1023 0.929 . S
C1037 C1036 1.399 . S
C1037 C1038 1.385 . S
C1038 H1024 0.931 . S
C1038 C1037 1.385 . S
C1038 C1039 1.389 . S
C1039 C1038 1.389 . S
C1039 C1040 1.387 . S
C1040 H1025 0.930 . S
C1040 C1035 1.390 . S
C1040 C1039 1.387 . S
H1041 C1053 0.930 . S
H1042 C1055 0.930 . S
H1043 C1056 0.930 . S
H1044 C1060 0.959 . S
H1045 C1060 0.959 . S
H1046 C1060 0.961 . S
H1047 C1061 0.960 . S
H1048 C1061 0.961 . S
H1049 C1061 0.959 . S
H1050 C1064 0.929 . S
H1051 C1065 0.931 . S
H1052 C1067 0.930 . S
C1053 H1041 0.930 . S
C1053 C1054 1.399 . S
C1053 C1058 1.399 . S
C1054 C1053 1.399 . S
C1054 C1055 1.376 . S
C1055 H1042 0.930 . S
C1055 C1054 1.376 . S
C1055 C1056 1.388 . S
C1056 H1043 0.930 . S
C1056 C1055 1.388 . S
C1056 C1057 1.390 . S
C1057 C1056 1.390 . S
C1057 C1058 1.394 . S
C1057 C1063 1.465 . S
C1058 C1053 1.399 . S
C1058 C1057 1.394 . S
C1058 C1059 1.516 . S
C1059 C1058 1.516 . S
C1059 C1060 1.502 . S
C1059 C1061 1.561 . S
C1059 C1062 1.526 . S
C1060 H1044 0.959 . S
C1060 H1045 0.959 . S
C1060 H1046 0.961 . S
C1060 C1059 1.502 . S
C1061 H1047 0.960 . S
C1061 H1048 0.961 . S
C1061 H1049 0.959 . S
C1061 C1059 1.561 . S
C1062 C1059 1.526 . S
C1062 C1063 1.396 . S
C1062 C1067 1.390 . S
C1063 C1057 1.465 . S
C1063 C1062 1.396 . S
C1063 C1064 1.399 . S
C1064 H1050 0.929 . S
C1064 C1063 1.399 . S
C1064 C1065 1.385 . S
C1065 H1051 0.931 . S
C1065 C1064 1.385 . S
C1065 C1066 1.389 . S
C1066 C1065 1.389 . S
C1066 C1067 1.387 . S
C1067 H1052 0.930 . S
C1067 C1062 1.390 . S
C1067 C1066 1.387 . S
H1068 C1080 0.930 . S
H1069 C1082 0.930 . S
H1070 C1083 0.930 . S
H1071 C1087 0.959 . S
H1072 C1087 0.959 . S
H1073 C1087 0.961 . S
H1074 C1088 0.960 . S
H1075 C1088 0.961 . S
H1076 C1088 0.959 . S
H1077 C1091 0.929 . S
H1078 C1092 0.931 . S
H1079 C1094 0.930 . S
C1080 H1068 0.930 . S
C1080 C1081 1.399 . S
C1080 C1085 1.399 . S
C1081 C1080 1.399 . S
C1081 C1082 1.376 . S
C1082 H1069 0.930 . S
C1082 C1081 1.376 . S
C1082 C1083 1.388 . S
C1083 H1070 0.930 . S
C1083 C1082 1.388 . S
C1083 C1084 1.390 . S
C1084 C1083 1.390 . S
C1084 C1085 1.394 . S
C1084 C1090 1.465 . S
C1085 C1080 1.399 . S
C1085 C1084 1.394 . S
C1085 C1086 1.516 . S
C1086 C1085 1.516 . S
C1086 C1087 1.502 . S
C1086 C1088 1.561 . S
C1086 C1089 1.526 . S
C1087 H1071 0.959 . S
C1087 H1072 0.959 . S
C1087 H1073 0.961 . S
C1087 C1086 1.502 . S
C1088 H1074 0.960 . S
C1088 H1075 0.961 . S
C1088 H1076 0.959 . S
C1088 C1086 1.561 . S
C1089 C1086 1.526 . S
C1089 C1090 1.396 . S
C1089 C1094 1.390 . S
C1090 C1084 1.465 . S
C1090 C1089 1.396 . S
C1090 C1091 1.399 . S
C1091 H1077 0.929 . S
C1091 C1090 1.399 . S
C1091 C1092 1.385 . S
C1092 H1078 0.931 . S
C1092 C1091 1.385 . S
C1092 C1093 1.389 . S
C1093 C1092 1.389 . S
C1093 C1094 1.387 . S
C1094 H1079 0.930 . S
C1094 C1089 1.390 . S
C1094 C1093 1.387 . S
H1095 C1107 0.930 . S
H1096 C1109 0.930 . S
H1097 C1110 0.930 . S
H1098 C1114 0.959 . S
H1099 C1114 0.959 . S
H1100 C1114 0.961 . S
H1101 C1115 0.960 . S
H1102 C1115 0.961 . S
H1103 C1115 0.959 . S
H1104 C1118 0.929 . S
H1105 C1119 0.931 . S
H1106 C1121 0.930 . S
C1107 H1095 0.930 . S
C1107 C1108 1.399 . S
C1107 C1112 1.399 . S
C1108 C1107 1.399 . S
C1108 C1109 1.376 . S
C1109 H1096 0.930 . S
C1109 C1108 1.376 . S
C1109 C1110 1.388 . S
C1110 H1097 0.930 . S
C1110 C1109 1.388 . S
C1110 C1111 1.390 . S
C1111 C1110 1.390 . S
C1111 C1112 1.394 . S
C1111 C1117 1.465 . S
C1112 C1107 1.399 . S
C1112 C1111 1.394 . S
C1112 C1113 1.516 . S
C1113 C1112 1.516 . S
C1113 C1114 1.502 . S
C1113 C1115 1.561 . S
C1113 C1116 1.526 . S
C1114 H1098 0.959 . S
C1114 H1099 0.959 . S
C1114 H1100 0.961 . S
C1114 C1113 1.502 . S
C1115 H1101 0.960 . S
C1115 H1102 0.961 . S
C1115 H1103 0.959 . S
C1115 C1113 1.561 . S
C1116 C1113 1.526 . S
C1116 C1117 1.396 . S
C1116 C1121 1.390 . S
C1117 C1111 1.465 . S
C1117 C1116 1.396 . S
C1117 C1118 1.399 . S
C1118 H1104 0.929 . S
C1118 C1117 1.399 . S
C1118 C1119 1.385 . S
C1119 H1105 0.931 . S
C1119 C1118 1.385 . S
C1119 C1120 1.389 . S
C1120 C1119 1.389 . S
C1120 C1121 1.387 . S
C1121 H1106 0.930 . S
C1121 C1116 1.390 . S
C1121 C1120 1.387 . S
H1122 C1134 0.930 . S
H1123 C1136 0.930 . S
H1124 C1137 0.930 . S
H1125 C1141 0.959 . S
H1126 C1141 0.959 . S
H1127 C1141 0.961 . S
H1128 C1142 0.960 . S
H1129 C1142 0.961 . S
H1130 C1142 0.959 . S
H1131 C1145 0.929 . S
H1132 C1146 0.931 . S
H1133 C1148 0.930 . S
C1134 H1122 0.930 . S
C1134 C1135 1.399 . S
C1134 C1139 1.399 . S
C1135 C1134 1.399 . S
C1135 C1136 1.376 . S
C1136 H1123 0.930 . S
C1136 C1135 1.376 . S
C1136 C1137 1.388 . S
C1137 H1124 0.930 . S
C1137 C1136 1.388 . S
C1137 C1138 1.390 . S
C1138 C1137 1.390 . S
C1138 C1139 1.394 . S
C1138 C1144 1.465 . S
C1139 C1134 1.399 . S
C1139 C1138 1.394 . S
C1139 C1140 1.516 . S
C1140 C1139 1.516 . S
C1140 C1141 1.502 . S
C1140 C1142 1.561 . S
C1140 C1143 1.526 . S
C1141 H1125 0.959 . S
C1141 H1126 0.959 . S
C1141 H1127 0.961 . S
C1141 C1140 1.502 . S
C1142 H1128 0.960 . S
C1142 H1129 0.961 . S
C1142 H1130 0.959 . S
C1142 C1140 1.561 . S
C1143 C1140 1.526 . S
C1143 C1144 1.396 . S
C1143 C1148 1.390 . S
C1144 C1138 1.465 . S
C1144 C1143 1.396 . S
C1144 C1145 1.399 . S
C1145 H1131 0.929 . S
C1145 C1144 1.399 . S
C1145 C1146 1.385 . S
C1146 H1132 0.931 . S
C1146 C1145 1.385 . S
C1146 C1147 1.389 . S
C1147 C1146 1.389 . S
C1147 C1148 1.387 . S
C1148 H1133 0.930 . S
C1148 C1143 1.390 . S
C1148 C1147 1.387 . S
H1149 C1161 0.930 . S
H1150 C1163 0.930 . S
H1151 C1164 0.930 . S
H1152 C1168 0.959 . S
H1153 C1168 0.959 . S
H1154 C1168 0.961 . S
H1155 C1169 0.960 . S
H1156 C1169 0.961 . S
H1157 C1169 0.959 . S
H1158 C1172 0.929 . S
H1159 C1173 0.931 . S
H1160 C1175 0.930 . S
C1161 H1149 0.930 . S
C1161 C1162 1.399 . S
C1161 C1166 1.399 . S
C1162 C1161 1.399 . S
C1162 C1163 1.376 . S
C1163 H1150 0.930 . S
C1163 C1162 1.376 . S
C1163 C1164 1.388 . S
C1164 H1151 0.930 . S
C1164 C1163 1.388 . S
C1164 C1165 1.390 . S
C1165 C1164 1.390 . S
C1165 C1166 1.394 . S
C1165 C1171 1.465 . S
C1166 C1161 1.399 . S
C1166 C1165 1.394 . S
C1166 C1167 1.516 . S
C1167 C1166 1.516 . S
C1167 C1168 1.502 . S
C1167 C1169 1.561 . S
C1167 C1170 1.526 . S
C1168 H1152 0.959 . S
C1168 H1153 0.959 . S
C1168 H1154 0.961 . S
C1168 C1167 1.502 . S
C1169 H1155 0.960 . S
C1169 H1156 0.961 . S
C1169 H1157 0.959 . S
C1169 C1167 1.561 . S
C1170 C1167 1.526 . S
C1170 C1171 1.396 . S
C1170 C1175 1.390 . S
C1171 C1165 1.465 . S
C1171 C1170 1.396 . S
C1171 C1172 1.399 . S
C1172 H1158 0.929 . S
C1172 C1171 1.399 . S
C1172 C1173 1.385 . S
C1173 H1159 0.931 . S
C1173 C1172 1.385 . S
C1173 C1174 1.389 . S
C1174 C1173 1.389 . S
C1174 C1175 1.387 . S
C1175 H1160 0.930 . S
C1175 C1170 1.390 . S
C1175 C1174 1.387 . S
H1176 C1188 0.930 . S
H1177 C1190 0.930 . S
H1178 C1191 0.930 . S
H1179 C1195 0.959 . S
H1180 C1195 0.959 . S
H1181 C1195 0.961 . S
H1182 C1196 0.960 . S
H1183 C1196 0.961 . S
H1184 C1196 0.959 . S
H1185 C1199 0.929 . S
H1186 C1200 0.931 . S
H1187 C1202 0.930 . S
C1188 H1176 0.930 . S
C1188 C1189 1.399 . S
C1188 C1193 1.399 . S
C1189 C1188 1.399 . S
C1189 C1190 1.376 . S
C1190 H1177 0.930 . S
C1190 C1189 1.376 . S
C1190 C1191 1.388 . S
C1191 H1178 0.930 . S
C1191 C1190 1.388 . S
C1191 C1192 1.390 . S
C1192 C1191 1.390 . S
C1192 C1193 1.394 . S
C1192 C1198 1.465 . S
C1193 C1188 1.399 . S
C1193 C1192 1.394 . S
C1193 C1194 1.516 . S
C1194 C1193 1.516 . S
C1194 C1195 1.502 . S
C1194 C1196 1.561 . S
C1194 C1197 1.526 . S
C1195 H1179 0.959 . S
C1195 H1180 0.959 . S
C1195 H1181 0.961 . S
C1195 C1194 1.502 . S
C1196 H1182 0.960 . S
C1196 H1183 0.961 . S
C1196 H1184 0.959 . S
C1196 C1194 1.561 . S
C1197 C1194 1.526 . S
C1197 C1198 1.396 . S
C1197 C1202 1.390 . S
C1198 C1192 1.465 . S
C1198 C1197 1.396 . S
C1198 C1199 1.399 . S
C1199 H1185 0.929 . S
C1199 C1198 1.399 . S
C1199 C1200 1.385 . S
C1200 H1186 0.931 . S
C1200 C1199 1.385 . S
C1200 C1201 1.389 . S
C1201 C1200 1.389 . S
C1201 C1202 1.387 . S
C1202 H1187 0.930 . S
C1202 C1197 1.390 . S
C1202 C1201 1.387 . S
H1203 C1215 0.930 . S
H1204 C1217 0.930 . S
H1205 C1218 0.930 . S
H1206 C1222 0.959 . S
H1207 C1222 0.959 . S
H1208 C1222 0.961 . S
H1209 C1223 0.960 . S
H1210 C1223 0.961 . S
H1211 C1223 0.959 . S
H1212 C1226 0.929 . S
H1213 C1227 0.931 . S
H1214 C1229 0.930 . S
C1215 H1203 0.930 . S
C1215 C1216 1.399 . S
C1215 C1220 1.399 . S
C1216 C1215 1.399 . S
C1216 C1217 1.376 . S
C1217 H1204 0.930 . S
C1217 C1216 1.376 . S
C1217 C1218 1.388 . S
C1218 H1205 0.930 . S
C1218 C1217 1.388 . S
C1218 C1219 1.390 . S
C1219 C1218 1.390 . S
C1219 C1220 1.394 . S
C1219 C1225 1.465 . S
C1220 C1215 1.399 . S
C1220 C1219 1.394 . S
C1220 C1221 1.516 . S
C1221 C1220 1.516 . S
C1221 C1222 1.502 . S
C1221 C1223 1.561 . S
C1221 C1224 1.526 . S
C1222 H1206 0.959 . S
C1222 H1207 0.959 . S
C1222 H1208 0.961 . S
C1222 C1221 1.502 . S
C1223 H1209 0.960 . S
C1223 H1210 0.961 . S
C1223 H1211 0.959 . S
C1223 C1221 1.561 . S
C1224 C1221 1.526 . S
C1224 C1225 1.396 . S
C1224 C1229 1.390 . S
C1225 C1219 1.465 . S
C1225 C1224 1.396 . S
C1225 C1226 1.399 . S
C1226 H1212 0.929 . S
C1226 C1225 1.399 . S
C1226 C1227 1.385 . S
C1227 H1213 0.931 . S
C1227 C1226 1.385 . S
C1227 C1228 1.389 . S
C1228 C1227 1.389 . S
C1228 C1229 1.387 . S
C1229 H1214 0.930 . S
C1229 C1224 1.390 . S
C1229 C1228 1.387 . S
H1230 C1242 0.930 . S
H1231 C1244 0.930 . S
H1232 C1245 0.930 . S
H1233 C1249 0.959 . S
H1234 C1249 0.959 . S
H1235 C1249 0.961 . S
H1236 C1250 0.960 . S
H1237 C1250 0.961 . S
H1238 C1250 0.959 . S
H1239 C1253 0.929 . S
H1240 C1254 0.931 . S
H1241 C1256 0.930 . S
C1242 H1230 0.930 . S
C1242 C1243 1.399 . S
C1242 C1247 1.399 . S
C1243 C1242 1.399 . S
C1243 C1244 1.376 . S
C1244 H1231 0.930 . S
C1244 C1243 1.376 . S
C1244 C1245 1.388 . S
C1245 H1232 0.930 . S
C1245 C1244 1.388 . S
C1245 C1246 1.390 . S
C1246 C1245 1.390 . S
C1246 C1247 1.394 . S
C1246 C1252 1.465 . S
C1247 C1242 1.399 . S
C1247 C1246 1.394 . S
C1247 C1248 1.516 . S
C1248 C1247 1.516 . S
C1248 C1249 1.502 . S
C1248 C1250 1.561 . S
C1248 C1251 1.526 . S
C1249 H1233 0.959 . S
C1249 H1234 0.959 . S
C1249 H1235 0.961 . S
C1249 C1248 1.502 . S
C1250 H1236 0.960 . S
C1250 H1237 0.961 . S
C1250 H1238 0.959 . S
C1250 C1248 1.561 . S
C1251 C1248 1.526 . S
C1251 C1252 1.396 . S
C1251 C1256 1.390 . S
C1252 C1246 1.465 . S
C1252 C1251 1.396 . S
C1252 C1253 1.399 . S
C1253 H1239 0.929 . S
C1253 C1252 1.399 . S
C1253 C1254 1.385 . S
C1254 H1240 0.931 . S
C1254 C1253 1.385 . S
C1254 C1255 1.389 . S
C1255 C1254 1.389 . S
C1255 C1256 1.387 . S
C1256 H1241 0.930 . S
C1256 C1251 1.390 . S
C1256 C1255 1.387 . S
H1257 C1269 0.930 . S
H1258 C1271 0.930 . S
H1259 C1272 0.930 . S
H1260 C1276 0.959 . S
H1261 C1276 0.959 . S
H1262 C1276 0.961 . S
H1263 C1277 0.960 . S
H1264 C1277 0.961 . S
H1265 C1277 0.959 . S
H1266 C1280 0.929 . S
H1267 C1281 0.931 . S
H1268 C1283 0.930 . S
C1269 H1257 0.930 . S
C1269 C1270 1.399 . S
C1269 C1274 1.399 . S
C1270 C1269 1.399 . S
C1270 C1271 1.376 . S
C1271 H1258 0.930 . S
C1271 C1270 1.376 . S
C1271 C1272 1.388 . S
C1272 H1259 0.930 . S
C1272 C1271 1.388 . S
C1272 C1273 1.390 . S
C1273 C1272 1.390 . S
C1273 C1274 1.394 . S
C1273 C1279 1.465 . S
C1274 C1269 1.399 . S
C1274 C1273 1.394 . S
C1274 C1275 1.516 . S
C1275 C1274 1.516 . S
C1275 C1276 1.502 . S
C1275 C1277 1.561 . S
C1275 C1278 1.526 . S
C1276 H1260 0.959 . S
C1276 H1261 0.959 . S
C1276 H1262 0.961 . S
C1276 C1275 1.502 . S
C1277 H1263 0.960 . S
C1277 H1264 0.961 . S
C1277 H1265 0.959 . S
C1277 C1275 1.561 . S
C1278 C1275 1.526 . S
C1278 C1279 1.396 . S
C1278 C1283 1.390 . S
C1279 C1273 1.465 . S
C1279 C1278 1.396 . S
C1279 C1280 1.399 . S
C1280 H1266 0.929 . S
C1280 C1279 1.399 . S
C1280 C1281 1.385 . S
C1281 H1267 0.931 . S
C1281 C1280 1.385 . S
C1281 C1282 1.389 . S
C1282 C1281 1.389 . S
C1282 C1283 1.387 . S
C1283 H1268 0.930 . S
C1283 C1278 1.390 . S
C1283 C1282 1.387 . S
H1284 C1296 0.930 . S
H1285 C1298 0.930 . S
H1286 C1299 0.930 . S
H1287 C1303 0.959 . S
H1288 C1303 0.959 . S
H1289 C1303 0.961 . S
H1290 C1304 0.960 . S
H1291 C1304 0.961 . S
H1292 C1304 0.959 . S
H1293 C1307 0.929 . S
H1294 C1308 0.931 . S
H1295 C1310 0.930 . S
C1296 H1284 0.930 . S
C1296 C1297 1.399 . S
C1296 C1301 1.399 . S
C1297 C1296 1.399 . S
C1297 C1298 1.376 . S
C1298 H1285 0.930 . S
C1298 C1297 1.376 . S
C1298 C1299 1.388 . S
C1299 H1286 0.930 . S
C1299 C1298 1.388 . S
C1299 C1300 1.390 . S
C1300 C1299 1.390 . S
C1300 C1301 1.394 . S
C1300 C1306 1.465 . S
C1301 C1296 1.399 . S
C1301 C1300 1.394 . S
C1301 C1302 1.516 . S
C1302 C1301 1.516 . S
C1302 C1303 1.502 . S
C1302 C1304 1.561 . S
C1302 C1305 1.526 . S
C1303 H1287 0.959 . S
C1303 H1288 0.959 . S
C1303 H1289 0.961 . S
C1303 C1302 1.502 . S
C1304 H1290 0.960 . S
C1304 H1291 0.961 . S
C1304 H1292 0.959 . S
C1304 C1302 1.561 . S
C1305 C1302 1.526 . S
C1305 C1306 1.396 . S
C1305 C1310 1.390 . S
C1306 C1300 1.465 . S
C1306 C1305 1.396 . S
C1306 C1307 1.399 . S
C1307 H1293 0.929 . S
C1307 C1306 1.399 . S
C1307 C1308 1.385 . S
C1308 H1294 0.931 . S
C1308 C1307 1.385 . S
C1308 C1309 1.389 . S
C1309 C1308 1.389 . S
C1309 C1310 1.387 . S
C1310 H1295 0.930 . S
C1310 C1305 1.390 . S
C1310 C1309 1.387 . S
H1311 C1323 0.930 . S
H1312 C1325 0.930 . S
H1313 C1326 0.930 . S
H1314 C1330 0.959 . S
H1315 C1330 0.959 . S
H1316 C1330 0.961 . S
H1317 C1331 0.960 . S
H1318 C1331 0.961 . S
H1319 C1331 0.959 . S
H1320 C1334 0.929 . S
H1321 C1335 0.931 . S
H1322 C1337 0.930 . S
C1323 H1311 0.930 . S
C1323 C1324 1.399 . S
C1323 C1328 1.399 . S
C1324 C1323 1.399 . S
C1324 C1325 1.376 . S
C1325 H1312 0.930 . S
C1325 C1324 1.376 . S
C1325 C1326 1.388 . S
C1326 H1313 0.930 . S
C1326 C1325 1.388 . S
C1326 C1327 1.390 . S
C1327 C1326 1.390 . S
C1327 C1328 1.394 . S
C1327 C1333 1.465 . S
C1328 C1323 1.399 . S
C1328 C1327 1.394 . S
C1328 C1329 1.516 . S
C1329 C1328 1.516 . S
C1329 C1330 1.502 . S
C1329 C1331 1.561 . S
C1329 C1332 1.526 . S
C1330 H1314 0.959 . S
C1330 H1315 0.959 . S
C1330 H1316 0.961 . S
C1330 C1329 1.502 . S
C1331 H1317 0.960 . S
C1331 H1318 0.961 . S
C1331 H1319 0.959 . S
C1331 C1329 1.561 . S
C1332 C1329 1.526 . S
C1332 C1333 1.396 . S
C1332 C1337 1.390 . S
C1333 C1327 1.465 . S
C1333 C1332 1.396 . S
C1333 C1334 1.399 . S
C1334 H1320 0.929 . S
C1334 C1333 1.399 . S
C1334 C1335 1.385 . S
C1335 H1321 0.931 . S
C1335 C1334 1.385 . S
C1335 C1336 1.389 . S
C1336 C1335 1.389 . S
C1336 C1337 1.387 . S
C1337 H1322 0.930 . S
C1337 C1332 1.390 . S
C1337 C1336 1.387 . S
H1338 C1350 0.930 . S
H1339 C1352 0.930 . S
H1340 C1353 0.930 . S
H1341 C1357 0.959 . S
H1342 C1357 0.959 . S
H1343 C1357 0.961 . S
H1344 C1358 0.960 . S
H1345 C1358 0.961 . S
H1346 C1358 0.959 . S
H1347 C1361 0.929 . S
H1348 C1362 0.931 . S
H1349 C1364 0.930 . S
C1350 H1338 0.930 . S
C1350 C1351 1.399 . S
C1350 C1355 1.399 . S
C1351 C1350 1.399 . S
C1351 C1352 1.376 . S
C1352 H1339 0.930 . S
C1352 C1351 1.376 . S
C1352 C1353 1.388 . S
C1353 H1340 0.930 . S
C1353 C1352 1.388 . S
C1353 C1354 1.390 . S
C1354 C1353 1.390 . S
C1354 C1355 1.394 . S
C1354 C1360 1.465 . S
C1355 C1350 1.399 . S
C1355 C1354 1.394 . S
C1355 C1356 1.516 . S
C1356 C1355 1.516 . S
C1356 C1357 1.502 . S
C1356 C1358 1.561 . S
C1356 C1359 1.526 . S
C1357 H1341 0.959 . S
C1357 H1342 0.959 . S
C1357 H1343 0.961 . S
C1357 C1356 1.502 . S
C1358 H1344 0.960 . S
C1358 H1345 0.961 . S
C1358 H1346 0.959 . S
C1358 C1356 1.561 . S
C1359 C1356 1.526 . S
C1359 C1360 1.396 . S
C1359 C1364 1.390 . S
C1360 C1354 1.465 . S
C1360 C1359 1.396 . S
C1360 C1361 1.399 . S
C1361 H1347 0.929 . S
C1361 C1360 1.399 . S
C1361 C1362 1.385 . S
C1362 H1348 0.931 . S
C1362 C1361 1.385 . S
C1362 C1363 1.389 . S
C1363 C1362 1.389 . S
C1363 C1364 1.387 . S
C1364 H1349 0.930 . S
C1364 C1359 1.390 . S
C1364 C1363 1.387 . S
H1365 C1377 0.930 . S
H1366 C1379 0.930 . S
H1367 C1380 0.930 . S
H1368 C1384 0.959 . S
H1369 C1384 0.959 . S
H1370 C1384 0.961 . S
H1371 C1385 0.960 . S
H1372 C1385 0.961 . S
H1373 C1385 0.959 . S
H1374 C1388 0.929 . S
H1375 C1389 0.931 . S
H1376 C1391 0.930 . S
C1377 H1365 0.930 . S
C1377 C1378 1.399 . S
C1377 C1382 1.399 . S
C1378 C1377 1.399 . S
C1378 C1379 1.376 . S
C1379 H1366 0.930 . S
C1379 C1378 1.376 . S
C1379 C1380 1.388 . S
C1380 H1367 0.930 . S
C1380 C1379 1.388 . S
C1380 C1381 1.390 . S
C1381 C1380 1.390 . S
C1381 C1382 1.394 . S
C1381 C1387 1.465 . S
C1382 C1377 1.399 . S
C1382 C1381 1.394 . S
C1382 C1383 1.516 . S
C1383 C1382 1.516 . S
C1383 C1384 1.502 . S
C1383 C1385 1.561 . S
C1383 C1386 1.526 . S
C1384 H1368 0.959 . S
C1384 H1369 0.959 . S
C1384 H1370 0.961 . S
C1384 C1383 1.502 . S
C1385 H1371 0.960 . S
C1385 H1372 0.961 . S
C1385 H1373 0.959 . S
C1385 C1383 1.561 . S
C1386 C1383 1.526 . S
C1386 C1387 1.396 . S
C1386 C1391 1.390 . S
C1387 C1381 1.465 . S
C1387 C1386 1.396 . S
C1387 C1388 1.399 . S
C1388 H1374 0.929 . S
C1388 C1387 1.399 . S
C1388 C1389 1.385 . S
C1389 H1375 0.931 . S
C1389 C1388 1.385 . S
C1389 C1390 1.389 . S
C1390 C1389 1.389 . S
C1390 C1391 1.387 . S
C1391 H1376 0.930 . S
C1391 C1386 1.390 . S
C1391 C1390 1.387 . S
H1392 C1404 0.930 . S
H1393 C1406 0.930 . S
H1394 C1407 0.930 . S
H1395 C1411 0.959 . S
H1396 C1411 0.959 . S
H1397 C1411 0.961 . S
H1398 C1412 0.960 . S
H1399 C1412 0.961 . S
H1400 C1412 0.959 . S
H1401 C1415 0.929 . S
H1402 C1416 0.931 . S
H1403 C1418 0.930 . S
C1404 H1392 0.930 . S
C1404 C1405 1.399 . S
C1404 C1409 1.399 . S
C1405 C1404 1.399 . S
C1405 C1406 1.376 . S
C1406 H1393 0.930 . S
C1406 C1405 1.376 . S
C1406 C1407 1.388 . S
C1407 H1394 0.930 . S
C1407 C1406 1.388 . S
C1407 C1408 1.390 . S
C1408 C1407 1.390 . S
C1408 C1409 1.394 . S
C1408 C1414 1.465 . S
C1409 C1404 1.399 . S
C1409 C1408 1.394 . S
C1409 C1410 1.516 . S
C1410 C1409 1.516 . S
C1410 C1411 1.502 . S
C1410 C1412 1.561 . S
C1410 C1413 1.526 . S
C1411 H1395 0.959 . S
C1411 H1396 0.959 . S
C1411 H1397 0.961 . S
C1411 C1410 1.502 . S
C1412 H1398 0.960 . S
C1412 H1399 0.961 . S
C1412 H1400 0.959 . S
C1412 C1410 1.561 . S
C1413 C1410 1.526 . S
C1413 C1414 1.396 . S
C1413 C1418 1.390 . S
C1414 C1408 1.465 . S
C1414 C1413 1.396 . S
C1414 C1415 1.399 . S
C1415 H1401 0.929 . S
C1415 C1414 1.399 . S
C1415 C1416 1.385 . S
C1416 H1402 0.931 . S
C1416 C1415 1.385 . S
C1416 C1417 1.389 . S
C1417 C1416 1.389 . S
C1417 C1418 1.387 . S
C1418 H1403 0.930 . S
C1418 C1413 1.390 . S
C1418 C1417 1.387 . S
H1419 C1431 0.930 . S
H1420 C1433 0.930 . S
H1421 C1434 0.930 . S
H1422 C1438 0.959 . S
H1423 C1438 0.959 . S
H1424 C1438 0.961 . S
H1425 C1439 0.960 . S
H1426 C1439 0.961 . S
H1427 C1439 0.959 . S
H1428 C1442 0.929 . S
H1429 C1443 0.931 . S
H1430 C1445 0.930 . S
C1431 H1419 0.930 . S
C1431 C1432 1.399 . S
C1431 C1436 1.399 . S
C1432 C1431 1.399 . S
C1432 C1433 1.376 . S
C1433 H1420 0.930 . S
C1433 C1432 1.376 . S
C1433 C1434 1.388 . S
C1434 H1421 0.930 . S
C1434 C1433 1.388 . S
C1434 C1435 1.390 . S
C1435 C1434 1.390 . S
C1435 C1436 1.394 . S
C1435 C1441 1.465 . S
C1436 C1431 1.399 . S
C1436 C1435 1.394 . S
C1436 C1437 1.516 . S
C1437 C1436 1.516 . S
C1437 C1438 1.502 . S
C1437 C1439 1.561 . S
C1437 C1440 1.526 . S
C1438 H1422 0.959 . S
C1438 H1423 0.959 . S
C1438 H1424 0.961 . S
C1438 C1437 1.502 . S
C1439 H1425 0.960 . S
C1439 H1426 0.961 . S
C1439 H1427 0.959 . S
C1439 C1437 1.561 . S
C1440 C1437 1.526 . S
C1440 C1441 1.396 . S
C1440 C1445 1.390 . S
C1441 C1435 1.465 . S
C1441 C1440 1.396 . S
C1441 C1442 1.399 . S
C1442 H1428 0.929 . S
C1442 C1441 1.399 . S
C1442 C1443 1.385 . S
C1443 H1429 0.931 . S
C1443 C1442 1.385 . S
C1443 C1444 1.389 . S
C1444 C1443 1.389 . S
C1444 C1445 1.387 . S
C1445 H1430 0.930 . S
C1445 C1440 1.390 . S
C1445 C1444 1.387 . S
H1446 C1458 0.930 . S
H1447 C1460 0.930 . S
H1448 C1461 0.930 . S
H1449 C1465 0.959 . S
H1450 C1465 0.959 . S
H1451 C1465 0.961 . S
H1452 C1466 0.960 . S
H1453 C1466 0.961 . S
H1454 C1466 0.959 . S
H1455 C1469 0.929 . S
H1456 C1470 0.931 . S
H1457 C1472 0.930 . S
C1458 H1446 0.930 . S
C1458 C1459 1.399 . S
C1458 C1463 1.399 . S
C1459 C1458 1.399 . S
C1459 C1460 1.376 . S
C1460 H1447 0.930 . S
C1460 C1459 1.376 . S
C1460 C1461 1.388 . S
C1461 H1448 0.930 . S
C1461 C1460 1.388 . S
C1461 C1462 1.390 . S
C1462 C1461 1.390 . S
C1462 C1463 1.394 . S
C1462 C1468 1.465 . S
C1463 C1458 1.399 . S
C1463 C1462 1.394 . S
C1463 C1464 1.516 . S
C1464 C1463 1.516 . S
C1464 C1465 1.502 . S
C1464 C1466 1.561 . S
C1464 C1467 1.526 . S
C1465 H1449 0.959 . S
C1465 H1450 0.959 . S
C1465 H1451 0.961 . S
C1465 C1464 1.502 . S
C1466 H1452 0.960 . S
C1466 H1453 0.961 . S
C1466 H1454 0.959 . S
C1466 C1464 1.561 . S
C1467 C1464 1.526 . S
C1467 C1468 1.396 . S
C1467 C1472 1.390 . S
C1468 C1462 1.465 . S
C1468 C1467 1.396 . S
C1468 C1469 1.399 . S
C1469 H1455 0.929 . S
C1469 C1468 1.399 . S
C1469 C1470 1.385 . S
C1470 H1456 0.931 . S
C1470 C1469 1.385 . S
C1470 C1471 1.389 . S
C1471 C1470 1.389 . S
C1471 C1472 1.387 . S
C1472 H1457 0.930 . S
C1472 C1467 1.390 . S
C1472 C1471 1.387 . S
H1473 C1485 0.930 . S
H1474 C1487 0.930 . S
H1475 C1488 0.930 . S
H1476 C1492 0.959 . S
H1477 C1492 0.959 . S
H1478 C1492 0.961 . S
H1479 C1493 0.960 . S
H1480 C1493 0.961 . S
H1481 C1493 0.959 . S
H1482 C1496 0.929 . S
H1483 C1497 0.931 . S
H1484 C1499 0.930 . S
C1485 H1473 0.930 . S
C1485 C1486 1.399 . S
C1485 C1490 1.399 . S
C1486 C1485 1.399 . S
C1486 C1487 1.376 . S
C1487 H1474 0.930 . S
C1487 C1486 1.376 . S
C1487 C1488 1.388 . S
C1488 H1475 0.930 . S
C1488 C1487 1.388 . S
C1488 C1489 1.390 . S
C1489 C1488 1.390 . S
C1489 C1490 1.394 . S
C1489 C1495 1.465 . S
C1490 C1485 1.399 . S
C1490 C1489 1.394 . S
C1490 C1491 1.516 . S
C1491 C1490 1.516 . S
C1491 C1492 1.502 . S
C1491 C1493 1.561 . S
C1491 C1494 1.526 . S
C1492 H1476 0.959 . S
C1492 H1477 0.959 . S
C1492 H1478 0.961 . S
C1492 C1491 1.502 . S
C1493 H1479 0.960 . S
C1493 H1480 0.961 . S
C1493 H1481 0.959 . S
C1493 C1491 1.561 . S
C1494 C1491 1.526 . S
C1494 C1495 1.396 . S
C1494 C1499 1.390 . S
C1495 C1489 1.465 . S
C1495 C1494 1.396 . S
C1495 C1496 1.399 . S
C1496 H1482 0.929 . S
C1496 C1495 1.399 . S
C1496 C1497 1.385 . S
C1497 H1483 0.931 . S
C1497 C1496 1.385 . S
C1497 C1498 1.389 . S
C1498 C1497 1.389 . S
C1498 C1499 1.387 . S
C1499 H1484 0.930 . S
C1499 C1494 1.390 . S
C1499 C1498 1.387 . S
H1500 C1512 0.930 . S
H1501 C1514 0.930 . S
H1502 C1515 0.930 . S
H1503 C1519 0.959 . S
H1504 C1519 0.959 . S
H1505 C1519 0.961 . S
H1506 C1520 0.960 . S
H1507 C1520 0.961 . S
H1508 C1520 0.959 . S
H1509 C1523 0.929 . S
H1510 C1524 0.931 . S
H1511 C1526 0.930 . S
C1512 H1500 0.930 . S
C1512 C1513 1.399 . S
C1512 C1517 1.399 . S
C1513 C1512 1.399 . S
C1513 C1514 1.376 . S
C1514 H1501 0.930 . S
C1514 C1513 1.376 . S
C1514 C1515 1.388 . S
C1515 H1502 0.930 . S
C1515 C1514 1.388 . S
C1515 C1516 1.390 . S
C1516 C1515 1.390 . S
C1516 C1517 1.394 . S
C1516 C1522 1.465 . S
C1517 C1512 1.399 . S
C1517 C1516 1.394 . S
C1517 C1518 1.516 . S
C1518 C1517 1.516 . S
C1518 C1519 1.502 . S
C1518 C1520 1.561 . S
C1518 C1521 1.526 . S
C1519 H1503 0.959 . S
C1519 H1504 0.959 . S
C1519 H1505 0.961 . S
C1519 C1518 1.502 . S
C1520 H1506 0.960 . S
C1520 H1507 0.961 . S
C1520 H1508 0.959 . S
C1520 C1518 1.561 . S
C1521 C1518 1.526 . S
C1521 C1522 1.396 . S
C1521 C1526 1.390 . S
C1522 C1516 1.465 . S
C1522 C1521 1.396 . S
C1522 C1523 1.399 . S
C1523 H1509 0.929 . S
C1523 C1522 1.399 . S
C1523 C1524 1.385 . S
C1524 H1510 0.931 . S
C1524 C1523 1.385 . S
C1524 C1525 1.389 . S
C1525 C1524 1.389 . S
C1525 C1526 1.387 . S
C1526 H1511 0.930 . S
C1526 C1521 1.390 . S
C1526 C1525 1.387 . S
H1527 C1539 0.930 . S
H1528 C1541 0.930 . S
H1529 C1542 0.930 . S
H1530 C1546 0.959 . S
H1531 C1546 0.959 . S
H1532 C1546 0.961 . S
H1533 C1547 0.960 . S
H1534 C1547 0.961 . S
H1535 C1547 0.959 . S
H1536 C1550 0.929 . S
H1537 C1551 0.931 . S
H1538 C1553 0.930 . S
C1539 H1527 0.930 . S
C1539 C1540 1.399 . S
C1539 C1544 1.399 . S
C1540 C1539 1.399 . S
C1540 C1541 1.376 . S
C1541 H1528 0.930 . S
C1541 C1540 1.376 . S
C1541 C1542 1.388 . S
C1542 H1529 0.930 . S
C1542 C1541 1.388 . S
C1542 C1543 1.390 . S
C1543 C1542 1.390 . S
C1543 C1544 1.394 . S
C1543 C1549 1.465 . S
C1544 C1539 1.399 . S
C1544 C1543 1.394 . S
C1544 C1545 1.516 . S
C1545 C1544 1.516 . S
C1545 C1546 1.502 . S
C1545 C1547 1.561 . S
C1545 C1548 1.526 . S
C1546 H1530 0.959 . S
C1546 H1531 0.959 . S
C1546 H1532 0.961 . S
C1546 C1545 1.502 . S
C1547 H1533 0.960 . S
C1547 H1534 0.961 . S
C1547 H1535 0.959 . S
C1547 C1545 1.561 . S
C1548 C1545 1.526 . S
C1548 C1549 1.396 . S
C1548 C1553 1.390 . S
C1549 C1543 1.465 . S
C1549 C1548 1.396 . S
C1549 C1550 1.399 . S
C1550 H1536 0.929 . S
C1550 C1549 1.399 . S
C1550 C1551 1.385 . S
C1551 H1537 0.931 . S
C1551 C1550 1.385 . S
C1551 C1552 1.389 . S
C1552 C1551 1.389 . S
C1552 C1553 1.387 . S
C1553 H1538 0.930 . S
C1553 C1548 1.390 . S
C1553 C1552 1.387 . S
H1554 C1566 0.930 . S
H1555 C1568 0.930 . S
H1556 C1569 0.930 . S
H1557 C1573 0.959 . S
H1558 C1573 0.959 . S
H1559 C1573 0.961 . S
H1560 C1574 0.960 . S
H1561 C1574 0.961 . S
H1562 C1574 0.959 . S
H1563 C1577 0.929 . S
H1564 C1578 0.931 . S
H1565 C1580 0.930 . S
C1566 H1554 0.930 . S
C1566 C1567 1.399 . S
C1566 C1571 1.399 . S
C1567 C1566 1.399 . S
C1567 C1568 1.376 . S
C1568 H1555 0.930 . S
C1568 C1567 1.376 . S
C1568 C1569 1.388 . S
C1569 H1556 0.930 . S
C1569 C1568 1.388 . S
C1569 C1570 1.390 . S
C1570 C1569 1.390 . S
C1570 C1571 1.394 . S
C1570 C1576 1.465 . S
C1571 C1566 1.399 . S
C1571 C1570 1.394 . S
C1571 C1572 1.516 . S
C1572 C1571 1.516 . S
C1572 C1573 1.502 . S
C1572 C1574 1.561 . S
C1572 C1575 1.526 . S
C1573 H1557 0.959 . S
C1573 H1558 0.959 . S
C1573 H1559 0.961 . S
C1573 C1572 1.502 . S
C1574 H1560 0.960 . S
C1574 H1561 0.961 . S
C1574 H1562 0.959 . S
C1574 C1572 1.561 . S
C1575 C1572 1.526 . S
C1575 C1576 1.396 . S
C1575 C1580 1.390 . S
C1576 C1570 1.465 . S
C1576 C1575 1.396 . S
C1576 C1577 1.399 . S
C1577 H1563 0.929 . S
C1577 C1576 1.399 . S
C1577 C1578 1.385 . S
C1578 H1564 0.931 . S
C1578 C1577 1.385 . S
C1578 C1579 1.389 . S
C1579 C1578 1.389 . S
C1579 C1580 1.387 . S
C1580 H1565 0.930 . S
C1580 C1575 1.390 . S
C1580 C1579 1.387 . S
H1581 C1593 0.930 . S
H1582 C1595 0.930 . S
H1583 C1596 0.930 . S
H1584 C1600 0.959 . S
H1585 C1600 0.959 . S
H1586 C1600 0.961 . S
H1587 C1601 0.960 . S
H1588 C1601 0.961 . S
H1589 C1601 0.959 . S
H1590 C1604 0.929 . S
H1591 C1605 0.931 . S
H1592 C1607 0.930 . S
C1593 H1581 0.930 . S
C1593 C1594 1.399 . S
C1593 C1598 1.399 . S
C1594 C1593 1.399 . S
C1594 C1595 1.376 . S
C1595 H1582 0.930 . S
C1595 C1594 1.376 . S
C1595 C1596 1.388 . S
C1596 H1583 0.930 . S
C1596 C1595 1.388 . S
C1596 C1597 1.390 . S
C1597 C1596 1.390 . S
C1597 C1598 1.394 . S
C1597 C1603 1.465 . S
C1598 C1593 1.399 . S
C1598 C1597 1.394 . S
C1598 C1599 1.516 . S
C1599 C1598 1.516 . S
C1599 C1600 1.502 . S
C1599 C1601 1.561 . S
C1599 C1602 1.526 . S
C1600 H1584 0.959 . S
C1600 H1585 0.959 . S
C1600 H1586 0.961 . S
C1600 C1599 1.502 . S
C1601 H1587 0.960 . S
C1601 H1588 0.961 . S
C1601 H1589 0.959 . S
C1601 C1599 1.561 . S
C1602 C1599 1.526 . S
C1602 C1603 1.396 . S
C1602 C1607 1.390 . S
C1603 C1597 1.465 . S
C1603 C1602 1.396 . S
C1603 C1604 1.399 . S
C1604 H1590 0.929 . S
C1604 C1603 1.399 . S
C1604 C1605 1.385 . S
C1605 H1591 0.931 . S
C1605 C1604 1.385 . S
C1605 C1606 1.389 . S
C1606 C1605 1.389 . S
C1606 C1607 1.387 . S
C1607 H1592 0.930 . S
C1607 C1602 1.390 . S
C1607 C1606 1.387 . S
C325 C290 1.613 . S
C337 C5 1.574 . S
C352 C17 1.543 . S
C364 C213 1.625 . S
C379 C309 1.584 . S
C391 C29 1.582 . S
C406 C278 1.568 . S
C418 C44 1.602 . S
C433 C239 1.619 . S
C445 C55 1.571 . S
C460 C257 1.566 . S
C472 C68 1.598 . S
C487 C265 1.585 . S
C499 C88 1.576 . S
C514 C94 1.556 . S
C526 C225 1.620 . S
C541 C173 1.621 . S
C553 C114 1.548 . S
C568 C185 1.606 . S
C580 C120 1.565 . S
C595 C134 1.575 . S
C607 C205 1.589 . S
C622 C146 1.574 . S
C634 C161 1.598 . S
C649 C95 1.577 . S
C661 C186 1.594 . S
C676 C200 1.629 . S
C688 C56 1.548 . S
C703 C69 1.545 . S
C715 C166 1.610 . S
C730 C172 1.567 . S
C742 C83 1.612 . S
C757 C133 1.569 . S
C769 C16 1.609 . S
C784 C30 1.587 . S
C796 C147 1.566 . S
C811 C49 1.587 . S
C823 C109 1.601 . S
C838 C10 1.552 . S
C850 C121 1.615 . S
C865 C270 1.603 . S
C877 C283 1.553 . S
C892 C289 1.563 . S
C904 C224 1.610 . S
C919 C244 1.561 . S
C931 C218 1.593 . S
C946 C304 1.583 . S
C958 C252 1.612 . S
C973 C4 0.807 . S
C985 C108 0.827 . S
C1000 C122 0.938 . S
C1012 C18 0.865 . S
C1027 C36 0.809 . S
C1039 C140 0.881 . S
C1054 C43 0.909 . S
C1066 C148 0.828 . S
C1081 C62 0.835 . S
C1093 C159 0.816 . S
C1108 C75 0.837 . S
C1120 C179 0.809 . S
C1135 C187 0.834 . S
C1147 C81 0.829 . S
C1162 C199 0.926 . S
C1174 C101 0.860 . S
C1189 C107 0.932 . S
C1201 C211 0.937 . S
C1216 C127 0.925 . S
C1228 C303 0.851 . S
C1243 C276 0.921 . S
C1255 C135 0.844 . S
C1270 C296 0.837 . S
C1282 C153 0.812 . S
C1297 C231 0.923 . S
C1309 C160 0.848 . S
C1324 C237 0.915 . S
C1336 C174 0.947 . S
C1351 C192 0.933 . S
C1363 C251 0.894 . S
C1378 C198 0.842 . S
C1390 C263 0.921 . S
C1405 C3 0.800 . S
C1417 C212 0.846 . S
C1432 C226 0.823 . S
C1444 C57 0.874 . S
C1459 C238 0.928 . S
C1471 C70 0.919 . S
C1486 C250 0.894 . S
C1498 C82 0.944 . S
C1513 C264 0.931 . S
C1525 C96 0.906 . S
C1540 C277 0.934 . S
C1552 C31 0.908 . S
C1567 C42 0.872 . S
C1579 C291 0.944 . S
C1594 C302 0.904 . S
C1606 C23 0.944 . S
