# Generated by pormake.
# Topology ato, (4)-cn, num edge types: 1
# Building blocks:
#     Node 0, Type 0, BuildingBlock: QUQFOY_clean_sbu_1, # of connection points: 4
#     Node 1, Type 0, BuildingBlock: QUQFOY_clean_sbu_1, # of connection points: 4
#     Node 2, Type 0, BuildingBlock: QUQFOY_clean_sbu_1, # of connection points: 4
#     Node 3, Type 0, BuildingBlock: QUQFOY_clean_sbu_1, # of connection points: 4
#     Node 4, Type 0, BuildingBlock: QUQFOY_clean_sbu_1, # of connection points: 4
#     Node 5, Type 0, BuildingBlock: QUQFOY_clean_sbu_1, # of connection points: 4
#     Node 6, Type 0, BuildingBlock: QUQFOY_clean_sbu_1, # of connection points: 4
#     Node 7, Type 0, BuildingBlock: QUQFOY_clean_sbu_1, # of connection points: 4
#     Node 8, Type 0, BuildingBlock: QUQFOY_clean_sbu_1, # of connection points: 4
#     Node 9, Type 0, BuildingBlock: QUQFOY_clean_sbu_1, # of connection points: 4
#     Node 10, Type 0, BuildingBlock: QUQFOY_clean_sbu_1, # of connection points: 4
#     Node 11, Type 0, BuildingBlock: QUQFOY_clean_sbu_1, # of connection points: 4
#     Node 12, Type 0, BuildingBlock: QUQFOY_clean_sbu_1, # of connection points: 4
#     Node 13, Type 0, BuildingBlock: QUQFOY_clean_sbu_1, # of connection points: 4
#     Node 14, Type 0, BuildingBlock: QUQFOY_clean_sbu_1, # of connection points: 4
#     Node 15, Type 0, BuildingBlock: QUQFOY_clean_sbu_1, # of connection points: 4
#     Node 16, Type 0, BuildingBlock: QUQFOY_clean_sbu_1, # of connection points: 4
#     Node 17, Type 0, BuildingBlock: QUQFOY_clean_sbu_1, # of connection points: 4
#     Node 18, Type 0, BuildingBlock: QUQFOY_clean_sbu_1, # of connection points: 4
#     Node 19, Type 0, BuildingBlock: QUQFOY_clean_sbu_1, # of connection points: 4
#     Node 20, Type 0, BuildingBlock: QUQFOY_clean_sbu_1, # of connection points: 4
#     Node 21, Type 0, BuildingBlock: QUQFOY_clean_sbu_1, # of connection points: 4
#     Node 22, Type 0, BuildingBlock: QUQFOY_clean_sbu_1, # of connection points: 4
#     Node 23, Type 0, BuildingBlock: QUQFOY_clean_sbu_1, # of connection points: 4
#     Node 24, Type 0, BuildingBlock: QUQFOY_clean_sbu_1, # of connection points: 4
#     Node 25, Type 0, BuildingBlock: QUQFOY_clean_sbu_1, # of connection points: 4
#     Node 26, Type 0, BuildingBlock: QUQFOY_clean_sbu_1, # of connection points: 4
#     Node 27, Type 0, BuildingBlock: QUQFOY_clean_sbu_1, # of connection points: 4
#     Node 28, Type 0, BuildingBlock: QUQFOY_clean_sbu_1, # of connection points: 4
#     Node 29, Type 0, BuildingBlock: QUQFOY_clean_sbu_1, # of connection points: 4
#     Node 30, Type 0, BuildingBlock: QUQFOY_clean_sbu_1, # of connection points: 4
#     Node 31, Type 0, BuildingBlock: QUQFOY_clean_sbu_1, # of connection points: 4
#     Node 32, Type 0, BuildingBlock: QUQFOY_clean_sbu_1, # of connection points: 4
#     Node 33, Type 0, BuildingBlock: QUQFOY_clean_sbu_1, # of connection points: 4
#     Node 34, Type 0, BuildingBlock: QUQFOY_clean_sbu_1, # of connection points: 4
#     Node 35, Type 0, BuildingBlock: QUQFOY_clean_sbu_1, # of connection points: 4
#     Edge 36, Type (0, 0), BuildingBlock: UVAHIK_clean_linker_0, # of connection points: 2
#     Edge 37, Type (0, 0), BuildingBlock: UVAHIK_clean_linker_0, # of connection points: 2
#     Edge 38, Type (0, 0), BuildingBlock: UVAHIK_clean_linker_0, # of connection points: 2
#     Edge 39, Type (0, 0), BuildingBlock: UVAHIK_clean_linker_0, # of connection points: 2
#     Edge 40, Type (0, 0), BuildingBlock: UVAHIK_clean_linker_0, # of connection points: 2
#     Edge 41, Type (0, 0), BuildingBlock: UVAHIK_clean_linker_0, # of connection points: 2
#     Edge 42, Type (0, 0), BuildingBlock: UVAHIK_clean_linker_0, # of connection points: 2
#     Edge 43, Type (0, 0), BuildingBlock: UVAHIK_clean_linker_0, # of connection points: 2
#     Edge 44, Type (0, 0), BuildingBlock: UVAHIK_clean_linker_0, # of connection points: 2
#     Edge 45, Type (0, 0), BuildingBlock: UVAHIK_clean_linker_0, # of connection points: 2
#     Edge 46, Type (0, 0), BuildingBlock: UVAHIK_clean_linker_0, # of connection points: 2
#     Edge 47, Type (0, 0), BuildingBlock: UVAHIK_clean_linker_0, # of connection points: 2
#     Edge 48, Type (0, 0), BuildingBlock: UVAHIK_clean_linker_0, # of connection points: 2
#     Edge 49, Type (0, 0), BuildingBlock: UVAHIK_clean_linker_0, # of connection points: 2
#     Edge 50, Type (0, 0), BuildingBlock: UVAHIK_clean_linker_0, # of connection points: 2
#     Edge 51, Type (0, 0), BuildingBlock: UVAHIK_clean_linker_0, # of connection points: 2
#     Edge 52, Type (0, 0), BuildingBlock: UVAHIK_clean_linker_0, # of connection points: 2
#     Edge 53, Type (0, 0), BuildingBlock: UVAHIK_clean_linker_0, # of connection points: 2
#     Edge 54, Type (0, 0), BuildingBlock: UVAHIK_clean_linker_0, # of connection points: 2
#     Edge 55, Type (0, 0), BuildingBlock: UVAHIK_clean_linker_0, # of connection points: 2
#     Edge 56, Type (0, 0), BuildingBlock: UVAHIK_clean_linker_0, # of connection points: 2
#     Edge 57, Type (0, 0), BuildingBlock: UVAHIK_clean_linker_0, # of connection points: 2
#     Edge 58, Type (0, 0), BuildingBlock: UVAHIK_clean_linker_0, # of connection points: 2
#     Edge 59, Type (0, 0), BuildingBlock: UVAHIK_clean_linker_0, # of connection points: 2
#     Edge 60, Type (0, 0), BuildingBlock: UVAHIK_clean_linker_0, # of connection points: 2
#     Edge 61, Type (0, 0), BuildingBlock: UVAHIK_clean_linker_0, # of connection points: 2
#     Edge 62, Type (0, 0), BuildingBlock: UVAHIK_clean_linker_0, # of connection points: 2
#     Edge 63, Type (0, 0), BuildingBlock: UVAHIK_clean_linker_0, # of connection points: 2
#     Edge 64, Type (0, 0), BuildingBlock: UVAHIK_clean_linker_0, # of connection points: 2
#     Edge 65, Type (0, 0), BuildingBlock: UVAHIK_clean_linker_0, # of connection points: 2
#     Edge 66, Type (0, 0), BuildingBlock: UVAHIK_clean_linker_0, # of connection points: 2
#     Edge 67, Type (0, 0), BuildingBlock: UVAHIK_clean_linker_0, # of connection points: 2
#     Edge 68, Type (0, 0), BuildingBlock: UVAHIK_clean_linker_0, # of connection points: 2
#     Edge 69, Type (0, 0), BuildingBlock: UVAHIK_clean_linker_0, # of connection points: 2
#     Edge 70, Type (0, 0), BuildingBlock: UVAHIK_clean_linker_0, # of connection points: 2
#     Edge 71, Type (0, 0), BuildingBlock: UVAHIK_clean_linker_0, # of connection points: 2
#     Edge 72, Type (0, 0), BuildingBlock: UVAHIK_clean_linker_0, # of connection points: 2
#     Edge 73, Type (0, 0), BuildingBlock: UVAHIK_clean_linker_0, # of connection points: 2
#     Edge 74, Type (0, 0), BuildingBlock: UVAHIK_clean_linker_0, # of connection points: 2
#     Edge 75, Type (0, 0), BuildingBlock: UVAHIK_clean_linker_0, # of connection points: 2
#     Edge 76, Type (0, 0), BuildingBlock: UVAHIK_clean_linker_0, # of connection points: 2
#     Edge 77, Type (0, 0), BuildingBlock: UVAHIK_clean_linker_0, # of connection points: 2
#     Edge 78, Type (0, 0), BuildingBlock: UVAHIK_clean_linker_0, # of connection points: 2
#     Edge 79, Type (0, 0), BuildingBlock: UVAHIK_clean_linker_0, # of connection points: 2
#     Edge 80, Type (0, 0), BuildingBlock: UVAHIK_clean_linker_0, # of connection points: 2
#     Edge 81, Type (0, 0), BuildingBlock: UVAHIK_clean_linker_0, # of connection points: 2
#     Edge 82, Type (0, 0), BuildingBlock: UVAHIK_clean_linker_0, # of connection points: 2
#     Edge 83, Type (0, 0), BuildingBlock: UVAHIK_clean_linker_0, # of connection points: 2
#     Edge 84, Type (0, 0), BuildingBlock: UVAHIK_clean_linker_0, # of connection points: 2
#     Edge 85, Type (0, 0), BuildingBlock: UVAHIK_clean_linker_0, # of connection points: 2
#     Edge 86, Type (0, 0), BuildingBlock: UVAHIK_clean_linker_0, # of connection points: 2
#     Edge 87, Type (0, 0), BuildingBlock: UVAHIK_clean_linker_0, # of connection points: 2
#     Edge 88, Type (0, 0), BuildingBlock: UVAHIK_clean_linker_0, # of connection points: 2
#     Edge 89, Type (0, 0), BuildingBlock: UVAHIK_clean_linker_0, # of connection points: 2
#     Edge 90, Type (0, 0), BuildingBlock: UVAHIK_clean_linker_0, # of connection points: 2
#     Edge 91, Type (0, 0), BuildingBlock: UVAHIK_clean_linker_0, # of connection points: 2
#     Edge 92, Type (0, 0), BuildingBlock: UVAHIK_clean_linker_0, # of connection points: 2
#     Edge 93, Type (0, 0), BuildingBlock: UVAHIK_clean_linker_0, # of connection points: 2
#     Edge 94, Type (0, 0), BuildingBlock: UVAHIK_clean_linker_0, # of connection points: 2
#     Edge 95, Type (0, 0), BuildingBlock: UVAHIK_clean_linker_0, # of connection points: 2
#     Edge 96, Type (0, 0), BuildingBlock: UVAHIK_clean_linker_0, # of connection points: 2
#     Edge 97, Type (0, 0), BuildingBlock: UVAHIK_clean_linker_0, # of connection points: 2
#     Edge 98, Type (0, 0), BuildingBlock: UVAHIK_clean_linker_0, # of connection points: 2
#     Edge 99, Type (0, 0), BuildingBlock: UVAHIK_clean_linker_0, # of connection points: 2
#     Edge 100, Type (0, 0), BuildingBlock: UVAHIK_clean_linker_0, # of connection points: 2
#     Edge 101, Type (0, 0), BuildingBlock: UVAHIK_clean_linker_0, # of connection points: 2
#     Edge 102, Type (0, 0), BuildingBlock: UVAHIK_clean_linker_0, # of connection points: 2
#     Edge 103, Type (0, 0), BuildingBlock: UVAHIK_clean_linker_0, # of connection points: 2
#     Edge 104, Type (0, 0), BuildingBlock: UVAHIK_clean_linker_0, # of connection points: 2
#     Edge 105, Type (0, 0), BuildingBlock: UVAHIK_clean_linker_0, # of connection points: 2
#     Edge 106, Type (0, 0), BuildingBlock: UVAHIK_clean_linker_0, # of connection points: 2
#     Edge 107, Type (0, 0), BuildingBlock: UVAHIK_clean_linker_0, # of connection points: 2
# Relax obj value: 0.076
# Max RMSD: 0.152
# Mean RMSD: 0.152
data_MOF--net-ato--node1-QUQFOY_clean_sbu_1--edge1-UVAHIK_clean_linker_0
_symmetry_space_group_name_H-M    P1
_symmetry_Int_Tables_number       1
_symmetry_cell_setting            triclinic
loop_
_symmetry_equiv_pos_as_xyz
'x, y, z'
_cell_length_a     141.28019
_cell_length_b     141.30322
_cell_length_c     30.997308
_cell_angle_alpha  90.003421
_cell_angle_beta   89.996646
_cell_angle_gamma 120.00398
loop_
_atom_site_label
_atom_site_type_symbol
_atom_site_fract_x
_atom_site_fract_y
_atom_site_fract_z
_atom_type_partial_charge
O0 O 0.25243 0.03862 0.20226 0.0
Cd1 Cd 0.25868 0.04822 0.25664 0.0
Cd2 Cd 0.25266 0.06064 0.21233 0.0
O3 O 0.24294 0.04619 0.18023 0.0
O4 O 0.26022 0.03845 0.2986 0.0
O5 O 0.24875 0.04463 0.30821 0.0
C6 C 0.25267 0.03861 0.32139 0.0
C7 C 0.24546 0.07205 0.22624 0.0
C8 C 0.24529 0.03864 0.17741 0.0
C9 C 0.27664 0.06866 0.2216 0.0
O10 O 0.26924 0.06882 0.19882 0.0
O11 O 0.27407 0.06174 0.25186 0.0
O12 O 0.24773 0.07041 0.18772 0.0
O13 O 0.24706 0.06698 0.25754 0.0
O14 O 0.96393 0.20989 0.19522 0.0
Cd15 Cd 0.95509 0.21037 0.24708 0.0
Cd16 Cd 0.93886 0.19127 0.20541 0.0
O17 O 0.95184 0.19419 0.16623 0.0
O18 O 0.96667 0.22253 0.2814 0.0
O19 O 0.95751 0.20557 0.30548 0.0
C20 C 0.96512 0.21558 0.3113 0.0
C21 C 0.92678 0.17306 0.22362 0.0
C22 C 0.96135 0.20254 0.16677 0.0
C23 C 0.93497 0.21039 0.21483 0.0
O24 O 0.93192 0.20104 0.1985 0.0
O25 O 0.9437 0.21523 0.23696 0.0
O26 O 0.92722 0.17672 0.18521 0.0
O27 O 0.93331 0.17978 0.25232 0.0
O28 O 0.78941 0.75404 0.19737 0.0
Cd29 Cd 0.78902 0.744 0.24622 0.0
Cd30 Cd 0.80809 0.74744 0.20291 0.0
O31 O 0.80535 0.75836 0.16874 0.0
O32 O 0.77706 0.74299 0.28309 0.0
O33 O 0.79415 0.75048 0.30551 0.0
C34 C 0.78417 0.74799 0.31295 0.0
C35 C 0.82637 0.75276 0.21634 0.0
C36 C 0.79696 0.75943 0.17026 0.0
C37 C 0.78877 0.72437 0.20768 0.0
O38 O 0.7981 0.73089 0.19177 0.0
O39 O 0.78401 0.72793 0.23203 0.0
O40 O 0.82222 0.75028 0.17825 0.0
O41 O 0.82013 0.75235 0.24755 0.0
O42 O 0.0362 0.24585 0.79771 0.0
Cd43 Cd 0.04563 0.25556 0.7477 0.0
Cd44 Cd 0.06142 0.25213 0.79167 0.0
O45 O 0.0478 0.24159 0.82704 0.0
O46 O 0.03449 0.25649 0.71162 0.0
O47 O 0.04383 0.24877 0.6887 0.0
C48 C 0.03634 0.25129 0.68179 0.0
C49 C 0.07439 0.24669 0.7801 0.0
C50 C 0.03837 0.24062 0.82555 0.0
C51 C 0.06532 0.27527 0.78447 0.0
O52 O 0.06809 0.26876 0.80073 0.0
O53 O 0.05691 0.27168 0.76057 0.0
O54 O 0.07273 0.24947 0.81763 0.0
O55 O 0.06852 0.24682 0.74844 0.0
O56 O 0.75456 0.78998 0.80148 0.0
Cd57 Cd 0.74456 0.78833 0.75071 0.0
Cd58 Cd 0.74654 0.80771 0.79054 0.0
O59 O 0.75693 0.8053 0.83016 0.0
O60 O 0.74454 0.77627 0.71781 0.0
O61 O 0.75111 0.79289 0.69119 0.0
C62 C 0.7493 0.78303 0.68665 0.0
C63 C 0.75144 0.82597 0.7786 0.0
C64 C 0.75888 0.79745 0.82973 0.0
C65 C 0.72397 0.78745 0.78207 0.0
O66 O 0.72985 0.79723 0.79513 0.0
O67 O 0.72824 0.78253 0.76307 0.0
O68 O 0.74807 0.82134 0.81552 0.0
O69 O 0.75219 0.82024 0.74772 0.0
O70 O 0.21554 0.96456 0.79458 0.0
Cd71 Cd 0.21274 0.95467 0.74178 0.0
Cd72 Cd 0.19442 0.94093 0.78839 0.0
O73 O 0.19912 0.95505 0.82321 0.0
O74 O 0.22353 0.96454 0.69847 0.0
O75 O 0.20567 0.95696 0.68927 0.0
C76 C 0.21546 0.96337 0.67522 0.0
C77 C 0.17569 0.92915 0.77818 0.0
C78 C 0.20855 0.96352 0.82272 0.0
C79 C 0.21158 0.9344 0.77534 0.0
O80 O 0.20325 0.93298 0.79646 0.0
O81 O 0.21613 0.94218 0.74841 0.0
O82 O 0.1802 0.93064 0.81551 0.0
O83 O 0.18181 0.93459 0.74602 0.0
O84 O 0.75398 0.96578 0.79707 0.0
Cd85 Cd 0.74404 0.95646 0.74731 0.0
Cd86 Cd 0.74724 0.94049 0.79026 0.0
O87 O 0.75814 0.954 0.82524 0.0
O88 O 0.74336 0.9677 0.71108 0.0
O89 O 0.7507 0.958 0.68821 0.0
C90 C 0.7484 0.96564 0.68122 0.0
C91 C 0.75218 0.92718 0.77799 0.0
C92 C 0.75925 0.96348 0.82425 0.0
C93 C 0.72425 0.93708 0.78491 0.0
O94 O 0.73071 0.93418 0.80072 0.0
O95 O 0.72787 0.94544 0.76072 0.0
O96 O 0.74962 0.92897 0.81573 0.0
O97 O 0.75213 0.93313 0.74649 0.0
O98 O 0.03777 0.79129 0.79856 0.0
Cd99 Cd 0.04754 0.79182 0.74842 0.0
Cd100 Cd 0.06269 0.81019 0.79758 0.0
O101 O 0.04888 0.80657 0.83268 0.0
O102 O 0.03654 0.77955 0.71291 0.0
O103 O 0.04523 0.79659 0.68967 0.0
C104 C 0.03795 0.78649 0.68322 0.0
C105 C 0.07522 0.82865 0.78557 0.0
C106 C 0.03954 0.7981 0.82852 0.0
C107 C 0.06705 0.79145 0.78567 0.0
O108 O 0.06951 0.80032 0.80503 0.0
O109 O 0.05897 0.78712 0.75994 0.0
O110 O 0.0738 0.82429 0.82319 0.0
O111 O 0.06936 0.82253 0.75413 0.0
O112 O 0.2139 0.24867 0.79695 0.0
Cd113 Cd 0.21255 0.25684 0.74436 0.0
Cd114 Cd 0.1939 0.25337 0.78925 0.0
O115 O 0.19802 0.24399 0.82715 0.0
O116 O 0.22365 0.25745 0.70329 0.0
O117 O 0.2059 0.2482 0.6899 0.0
C118 C 0.21575 0.25113 0.67802 0.0
C119 C 0.17527 0.247 0.77859 0.0
C120 C 0.20684 0.24366 0.82622 0.0
C121 C 0.21211 0.27667 0.77612 0.0
O122 O 0.20321 0.27014 0.79493 0.0
O123 O 0.21687 0.27302 0.75216 0.0
O124 O 0.17986 0.25033 0.81563 0.0
O125 O 0.18124 0.24703 0.747 0.0
O126 O 0.96469 0.75304 0.20172 0.0
Cd127 Cd 0.95558 0.74373 0.25273 0.0
Cd128 Cd 0.93944 0.7465 0.2088 0.0
O129 O 0.95272 0.75646 0.17034 0.0
O130 O 0.96704 0.74321 0.28796 0.0
O131 O 0.95765 0.75085 0.31118 0.0
C132 C 0.9653 0.74854 0.31758 0.0
C133 C 0.92676 0.75229 0.2203 0.0
C134 C 0.96225 0.75769 0.17228 0.0
C135 C 0.93582 0.72354 0.21964 0.0
O136 O 0.93257 0.72973 0.20389 0.0
O137 O 0.94463 0.7275 0.24124 0.0
O138 O 0.92797 0.74893 0.18323 0.0
O139 O 0.93293 0.75253 0.25153 0.0
O140 O 0.25058 0.21195 0.20274 0.0
Cd141 Cd 0.25818 0.2097 0.25552 0.0
Cd142 Cd 0.25363 0.19124 0.20968 0.0
O143 O 0.24397 0.19551 0.17478 0.0
O144 O 0.25955 0.22115 0.29644 0.0
O145 O 0.24913 0.20348 0.30947 0.0
C146 C 0.25267 0.21347 0.32123 0.0
C147 C 0.24671 0.17267 0.2236 0.0
C148 C 0.24464 0.20481 0.17501 0.0
C149 C 0.2772 0.20838 0.22079 0.0
O150 O 0.27028 0.20016 0.1993 0.0
O151 O 0.27405 0.21282 0.24857 0.0
O152 O 0.24945 0.17667 0.18536 0.0
O153 O 0.24775 0.17923 0.25462 0.0
O154 O 0.79151 0.03755 0.19433 0.0
Cd155 Cd 0.791 0.04652 0.24566 0.0
Cd156 Cd 0.81027 0.06258 0.20437 0.0
O157 O 0.8073 0.04952 0.16557 0.0
O158 O 0.77867 0.03505 0.27971 0.0
O159 O 0.79557 0.0441 0.30454 0.0
C160 C 0.78552 0.03657 0.31004 0.0
C161 C 0.82849 0.07459 0.22288 0.0
C162 C 0.79891 0.04004 0.16613 0.0
C163 C 0.79126 0.06668 0.21221 0.0
O164 O 0.80065 0.06965 0.19651 0.0
O165 O 0.78628 0.05797 0.23441 0.0
O166 O 0.8249 0.0741 0.18431 0.0
O167 O 0.8217 0.06813 0.25157 0.0
O168 O 0.91315 0.36822 0.53386 0.0
Cd169 Cd 0.92273 0.37747 0.58445 0.0
Cd170 Cd 0.91915 0.39333 0.54205 0.0
O171 O 0.90865 0.3798 0.50618 0.0
O172 O 0.92357 0.36625 0.62031 0.0
O173 O 0.91575 0.37552 0.64308 0.0
C174 C 0.91824 0.36801 0.64992 0.0
C175 C 0.91371 0.40629 0.55375 0.0
C176 C 0.90781 0.37043 0.50666 0.0
C177 C 0.94237 0.39739 0.549 0.0
O178 O 0.93579 0.40012 0.53306 0.0
O179 O 0.93886 0.3889 0.57237 0.0
O180 O 0.91649 0.40464 0.51621 0.0
O181 O 0.91382 0.4004 0.58536 0.0
O182 O 0.62817 0.5425 0.53271 0.0
Cd183 Cd 0.61848 0.54106 0.58479 0.0
Cd184 Cd 0.60335 0.52308 0.53817 0.0
O185 O 0.61676 0.52713 0.49972 0.0
O186 O 0.62893 0.55219 0.62583 0.0
O187 O 0.62037 0.53447 0.63968 0.0
C188 C 0.62728 0.54434 0.65144 0.0
C189 C 0.59178 0.50465 0.55467 0.0
C190 C 0.62607 0.53573 0.5022 0.0
C191 C 0.59849 0.54128 0.55259 0.0
O192 O 0.59591 0.53243 0.53288 0.0
O193 O 0.60686 0.54569 0.57682 0.0
O194 O 0.59219 0.50845 0.51654 0.0
O195 O 0.59811 0.51133 0.58392 0.0
O196 O 0.45403 0.08516 0.53406 0.0
Cd197 Cd 0.45504 0.07698 0.58728 0.0
Cd198 Cd 0.47382 0.08011 0.54208 0.0
O199 O 0.46984 0.08955 0.50385 0.0
O200 O 0.44353 0.07634 0.62614 0.0
O201 O 0.46111 0.08559 0.64237 0.0
C202 C 0.45114 0.08268 0.65238 0.0
C203 C 0.49246 0.0863 0.55194 0.0
C204 C 0.4611 0.09004 0.50469 0.0
C205 C 0.45529 0.05695 0.55621 0.0
O206 O 0.46423 0.06334 0.53731 0.0
O207 O 0.45063 0.06075 0.57995 0.0
O208 O 0.48773 0.08284 0.51523 0.0
O209 O 0.48662 0.08647 0.58368 0.0
O210 O 0.70143 0.5814 0.12778 0.0
Cd211 Cd 0.71072 0.58941 0.07454 0.0
Cd212 Cd 0.72615 0.58637 0.11996 0.0
O213 O 0.71266 0.57672 0.15759 0.0
O214 O 0.69991 0.58984 0.03481 0.0
O215 O 0.70831 0.58055 0.02031 0.0
C216 C 0.70125 0.58339 0.00943 0.0
C217 C 0.73871 0.58038 0.10952 0.0
C218 C 0.70349 0.57635 0.15682 0.0
C219 C 0.73086 0.6095 0.10523 0.0
O220 O 0.73329 0.60314 0.12508 0.0
O221 O 0.72251 0.60565 0.08091 0.0
O222 O 0.73738 0.5837 0.14646 0.0
O223 O 0.73268 0.5802 0.07791 0.0
O224 O 0.41771 0.12234 0.12905 0.0
Cd225 Cd 0.40981 0.12449 0.07708 0.0
Cd226 Cd 0.4143 0.14292 0.12388 0.0
O227 O 0.42412 0.13867 0.15786 0.0
O228 O 0.40844 0.11325 0.03497 0.0
O229 O 0.41861 0.131 0.02284 0.0
C230 C 0.41512 0.12108 0.01022 0.0
C231 C 0.42092 0.16149 0.1109 0.0
C232 C 0.42361 0.12945 0.15694 0.0
C233 C 0.39075 0.1256 0.11323 0.0
O234 O 0.39768 0.13385 0.13459 0.0
O235 O 0.39391 0.12121 0.0852 0.0
O236 O 0.4183 0.15737 0.14902 0.0
O237 O 0.41998 0.15506 0.07951 0.0
O238 O 0.87558 0.29603 0.13637 0.0
Cd239 Cd 0.87607 0.287 0.08521 0.0
Cd240 Cd 0.85711 0.27084 0.12822 0.0
O241 O 0.86007 0.28394 0.16669 0.0
O242 O 0.88828 0.29848 0.05075 0.0
O243 O 0.87136 0.28924 0.02628 0.0
C244 C 0.88138 0.29682 0.02048 0.0
C245 C 0.83888 0.2587 0.11034 0.0
C246 C 0.86833 0.2935 0.16525 0.0
C247 C 0.87632 0.2671 0.11911 0.0
O248 O 0.86698 0.26401 0.13554 0.0
O249 O 0.88105 0.27575 0.09645 0.0
O250 O 0.84258 0.25922 0.14875 0.0
O251 O 0.84558 0.26518 0.08145 0.0
O252 O 0.41605 0.2967 0.12604 0.0
Cd253 Cd 0.40926 0.28657 0.07332 0.0
Cd254 Cd 0.4152 0.2742 0.11937 0.0
O255 O 0.42513 0.28885 0.14987 0.0
O256 O 0.40771 0.29593 0.02929 0.0
O257 O 0.41885 0.28929 0.02128 0.0
C258 C 0.415 0.29525 0.00665 0.0
C259 C 0.42206 0.26244 0.10681 0.0
C260 C 0.42311 0.29665 0.15124 0.0
C261 C 0.39124 0.26645 0.11103 0.0
O262 O 0.39866 0.26628 0.13358 0.0
O263 O 0.39378 0.27326 0.08034 0.0
O264 O 0.41997 0.26441 0.14511 0.0
O265 O 0.42052 0.26741 0.07497 0.0
O266 O 0.70415 0.12217 0.12913 0.0
Cd267 Cd 0.71394 0.12404 0.07688 0.0
Cd268 Cd 0.72852 0.14216 0.12345 0.0
O269 O 0.71494 0.13789 0.16117 0.0
O270 O 0.70368 0.11292 0.03534 0.0
O271 O 0.71182 0.13068 0.02262 0.0
C272 C 0.70508 0.1208 0.01039 0.0
C273 C 0.73998 0.16061 0.10704 0.0
C274 C 0.70589 0.12898 0.15909 0.0
C275 C 0.7341 0.12441 0.10986 0.0
O276 O 0.73624 0.1331 0.12994 0.0
O277 O 0.72592 0.11988 0.08466 0.0
O278 O 0.73942 0.15684 0.14536 0.0
O279 O 0.73382 0.15388 0.07757 0.0
O280 O 0.87608 0.57835 0.13368 0.0
Cd281 Cd 0.87753 0.58845 0.08352 0.0
Cd282 Cd 0.8581 0.58611 0.12408 0.0
O283 O 0.86076 0.57579 0.16312 0.0
O284 O 0.88966 0.58875 0.04996 0.0
O285 O 0.87298 0.58206 0.02375 0.0
C286 C 0.88289 0.58403 0.0188 0.0
C287 C 0.83976 0.58094 0.1124 0.0
C288 C 0.86867 0.57393 0.16216 0.0
C289 C 0.87816 0.60881 0.11624 0.0
O290 O 0.86839 0.60281 0.12918 0.0
O291 O 0.88317 0.60468 0.09689 0.0
O292 O 0.84438 0.58428 0.14936 0.0
O293 O 0.84554 0.58038 0.08133 0.0
O294 O 0.63054 0.08541 0.53755 0.0
Cd295 Cd 0.62073 0.07745 0.58966 0.0
Cd296 Cd 0.60622 0.08133 0.54181 0.0
O297 O 0.62015 0.09096 0.50631 0.0
O298 O 0.63106 0.07635 0.63009 0.0
O299 O 0.6232 0.08614 0.64449 0.0
C300 C 0.62994 0.08291 0.65561 0.0
C301 C 0.59387 0.08761 0.55186 0.0
C302 C 0.62907 0.09084 0.50831 0.0
C303 C 0.60076 0.05791 0.55487 0.0
O304 O 0.59886 0.06459 0.53456 0.0
O305 O 0.60868 0.06137 0.58127 0.0
O306 O 0.59543 0.08458 0.51467 0.0
O307 O 0.59957 0.08735 0.58392 0.0
O308 O 0.91337 0.54453 0.52961 0.0
Cd309 Cd 0.92318 0.54498 0.57951 0.0
Cd310 Cd 0.9199 0.52579 0.53661 0.0
O311 O 0.9091 0.52855 0.50155 0.0
O312 O 0.92399 0.55696 0.61571 0.0
O313 O 0.91641 0.53988 0.63839 0.0
C314 C 0.91884 0.54986 0.64545 0.0
C315 C 0.91462 0.50749 0.54953 0.0
C316 C 0.90805 0.53696 0.5025 0.0
C317 C 0.94297 0.54513 0.54311 0.0
O318 O 0.93651 0.53583 0.52687 0.0
O319 O 0.93932 0.54992 0.56689 0.0
O320 O 0.91727 0.51175 0.51167 0.0
O321 O 0.91481 0.51363 0.58079 0.0
O322 O 0.45422 0.37103 0.53271 0.0
Cd323 Cd 0.4566 0.38029 0.5872 0.0
Cd324 Cd 0.47493 0.39468 0.5414 0.0
O325 O 0.47049 0.38108 0.50344 0.0
O326 O 0.4451 0.36976 0.62698 0.0
O327 O 0.46274 0.37703 0.64046 0.0
C328 C 0.45274 0.37043 0.65167 0.0
C329 C 0.49346 0.40602 0.55717 0.0
C330 C 0.46116 0.37248 0.50366 0.0
C331 C 0.45756 0.40077 0.55654 0.0
O332 O 0.46599 0.40256 0.53522 0.0
O333 O 0.45308 0.39274 0.58242 0.0
O334 O 0.48962 0.40548 0.51902 0.0
O335 O 0.48677 0.3999 0.58682 0.0
O336 O 0.5783 0.70181 0.86436 0.0
Cd337 Cd 0.58849 0.71053 0.91419 0.0
Cd338 Cd 0.58628 0.72759 0.87338 0.0
O339 O 0.57582 0.71459 0.83477 0.0
O340 O 0.58873 0.69879 0.94847 0.0
O341 O 0.58217 0.70895 0.97395 0.0
C342 C 0.58408 0.701 0.97944 0.0
C343 C 0.58119 0.7408 0.88546 0.0
C344 C 0.57388 0.70479 0.83592 0.0
C345 C 0.60891 0.73008 0.88082 0.0
O346 O 0.60297 0.73391 0.86772 0.0
O347 O 0.60473 0.72099 0.90053 0.0
O348 O 0.58445 0.7395 0.84835 0.0
O349 O 0.58069 0.73446 0.91647 0.0
O350 O 0.29643 0.87555 0.86619 0.0
Cd351 Cd 0.28737 0.87582 0.91762 0.0
Cd352 Cd 0.27138 0.85668 0.87468 0.0
O353 O 0.28458 0.85988 0.83625 0.0
O354 O 0.29877 0.88807 0.95223 0.0
O355 O 0.28976 0.8711 0.97628 0.0
C356 C 0.29725 0.88115 0.98222 0.0
C357 C 0.25923 0.83837 0.89148 0.0
C358 C 0.29404 0.8683 0.83744 0.0
C359 C 0.26726 0.87566 0.88404 0.0
O360 O 0.26434 0.86636 0.86762 0.0
O361 O 0.27591 0.88054 0.90664 0.0
O362 O 0.25988 0.84219 0.85321 0.0
O363 O 0.26561 0.84497 0.92079 0.0
O364 O 0.12085 0.41741 0.86907 0.0
Cd365 Cd 0.12274 0.40977 0.92221 0.0
Cd366 Cd 0.14095 0.41327 0.8757 0.0
O367 O 0.13665 0.42248 0.83746 0.0
O368 O 0.11138 0.40895 0.96233 0.0
O369 O 0.12906 0.41878 0.97627 0.0
C370 C 0.11911 0.41564 0.98741 0.0
C371 C 0.15944 0.42028 0.89152 0.0
C372 C 0.12768 0.4225 0.83915 0.0
C373 C 0.1232 0.38995 0.89057 0.0
O374 O 0.13184 0.39646 0.87011 0.0
O375 O 0.1187 0.39364 0.91567 0.0
O376 O 0.15558 0.41693 0.85343 0.0
O377 O 0.15279 0.41984 0.9211 0.0
O378 O 0.36914 0.9127 0.46782 0.0
Cd379 Cd 0.37841 0.92222 0.41707 0.0
Cd380 Cd 0.39425 0.91899 0.46017 0.0
O381 O 0.38093 0.90878 0.49763 0.0
O382 O 0.36715 0.92303 0.38132 0.0
O383 O 0.37641 0.91522 0.35836 0.0
C384 C 0.36889 0.91771 0.35162 0.0
C385 C 0.40646 0.9129 0.44338 0.0
C386 C 0.37147 0.90772 0.49628 0.0
C387 C 0.3983 0.9421 0.45216 0.0
O388 O 0.40119 0.93567 0.46843 0.0
O389 O 0.38975 0.93839 0.42897 0.0
O390 O 0.4057 0.91594 0.48175 0.0
O391 O 0.40017 0.91323 0.41391 0.0
O392 O 0.08482 0.45523 0.46049 0.0
Cd393 Cd 0.0769 0.45727 0.40868 0.0
Cd394 Cd 0.08028 0.47511 0.45699 0.0
O395 O 0.08961 0.47073 0.49412 0.0
O396 O 0.07601 0.44623 0.36666 0.0
O397 O 0.08562 0.46401 0.35437 0.0
C398 C 0.08247 0.45415 0.34182 0.0
C399 C 0.08723 0.49359 0.44129 0.0
C400 C 0.08982 0.46187 0.49105 0.0
C401 C 0.05701 0.45732 0.44258 0.0
O402 O 0.06349 0.46593 0.46324 0.0
O403 O 0.06074 0.45298 0.41679 0.0
O404 O 0.08401 0.48973 0.4795 0.0
O405 O 0.0867 0.48694 0.41155 0.0
O406 O 0.54355 0.63079 0.46847 0.0
Cd407 Cd 0.54401 0.62151 0.41832 0.0
Cd408 Cd 0.52461 0.60566 0.46021 0.0
O409 O 0.52742 0.61918 0.4957 0.0
O410 O 0.55614 0.63271 0.38281 0.0
O411 O 0.53911 0.62342 0.3594 0.0
C412 C 0.54913 0.63093 0.35286 0.0
C413 C 0.5063 0.59276 0.44676 0.0
C414 C 0.53592 0.62858 0.49527 0.0
C415 C 0.5438 0.60167 0.45427 0.0
O416 O 0.53448 0.59892 0.47013 0.0
O417 O 0.54874 0.61015 0.43079 0.0
O418 O 0.51049 0.5943 0.48473 0.0
O419 O 0.51251 0.59872 0.4157 0.0
O420 O 0.08783 0.62978 0.4648 0.0
Cd421 Cd 0.07858 0.62068 0.41323 0.0
Cd422 Cd 0.08118 0.60459 0.45841 0.0
O423 O 0.09116 0.61781 0.49676 0.0
O424 O 0.07787 0.63213 0.37844 0.0
O425 O 0.08577 0.62304 0.35471 0.0
C426 C 0.08327 0.63056 0.34858 0.0
C427 C 0.08729 0.59238 0.44211 0.0
C428 C 0.09243 0.62735 0.49452 0.0
C429 C 0.05828 0.60081 0.44654 0.0
O430 O 0.06445 0.59779 0.46426 0.0
O431 O 0.06231 0.60939 0.42344 0.0
O432 O 0.08398 0.59299 0.48017 0.0
O433 O 0.08722 0.59882 0.41272 0.0
O434 O 0.36786 0.45438 0.46489 0.0
Cd435 Cd 0.37707 0.45418 0.41388 0.0
Cd436 Cd 0.39283 0.47376 0.45511 0.0
O437 O 0.37935 0.47062 0.49161 0.0
O438 O 0.36588 0.44219 0.37771 0.0
O439 O 0.37505 0.45935 0.3557 0.0
C440 C 0.36758 0.44935 0.34851 0.0
C441 C 0.40557 0.49219 0.44286 0.0
C442 C 0.37005 0.46198 0.49179 0.0
C443 C 0.39723 0.45482 0.44816 0.0
O444 O 0.39988 0.46413 0.46384 0.0
O445 O 0.38866 0.44968 0.42533 0.0
O446 O 0.40407 0.48782 0.48047 0.0
O447 O 0.39965 0.4861 0.41148 0.0
O448 O 0.54233 0.9137 0.4678 0.0
Cd449 Cd 0.54176 0.92282 0.41701 0.0
Cd450 Cd 0.52361 0.9202 0.46327 0.0
O451 O 0.52763 0.91107 0.5031 0.0
O452 O 0.55309 0.92355 0.37685 0.0
O453 O 0.53549 0.91498 0.36064 0.0
C454 C 0.54538 0.91774 0.35001 0.0
C455 C 0.50521 0.91332 0.44626 0.0
C456 C 0.53576 0.9096 0.49932 0.0
C457 C 0.54212 0.94314 0.45023 0.0
O458 O 0.53295 0.93692 0.46791 0.0
O459 O 0.54676 0.93914 0.42745 0.0
O460 O 0.50898 0.91683 0.48433 0.0
O461 O 0.51192 0.91355 0.41737 0.0
O462 O 0.29556 0.42117 0.86283 0.0
Cd463 Cd 0.28643 0.4116 0.9137 0.0
Cd464 Cd 0.27037 0.41445 0.87003 0.0
O465 O 0.28355 0.42461 0.83186 0.0
O466 O 0.29788 0.41075 0.94797 0.0
O467 O 0.28868 0.41842 0.97294 0.0
C468 C 0.29623 0.41593 0.9785 0.0
C469 C 0.25816 0.42048 0.88756 0.0
C470 C 0.2931 0.42589 0.83371 0.0
C471 C 0.26664 0.39151 0.87882 0.0
O472 O 0.26357 0.39778 0.86238 0.0
O473 O 0.27522 0.3954 0.90185 0.0
O474 O 0.25877 0.41737 0.84914 0.0
O475 O 0.26459 0.42026 0.91663 0.0
O476 O 0.5801 0.87871 0.87192 0.0
Cd477 Cd 0.58907 0.87854 0.92409 0.0
Cd478 Cd 0.58677 0.85996 0.87949 0.0
O479 O 0.57727 0.86355 0.84 0.0
O480 O 0.58944 0.88997 0.96259 0.0
O481 O 0.58101 0.87247 0.98024 0.0
C482 C 0.58357 0.88237 0.98972 0.0
C483 C 0.581 0.84144 0.88982 0.0
C484 C 0.57586 0.87174 0.84176 0.0
C485 C 0.60958 0.8791 0.89274 0.0
O486 O 0.60346 0.86987 0.87528 0.0
O487 O 0.60548 0.8837 0.91514 0.0
O488 O 0.58454 0.84619 0.85319 0.0
O489 O 0.58052 0.84719 0.92123 0.0
O490 O 0.12301 0.70295 0.86303 0.0
Cd491 Cd 0.12293 0.71205 0.91471 0.0
Cd492 Cd 0.14194 0.72793 0.87176 0.0
O493 O 0.13873 0.71473 0.83328 0.0
O494 O 0.1109 0.70069 0.95027 0.0
O495 O 0.12802 0.70977 0.97273 0.0
C496 C 0.11801 0.70227 0.97953 0.0
C497 C 0.16023 0.73996 0.8892 0.0
C498 C 0.13026 0.7053 0.83434 0.0
C499 C 0.12306 0.73217 0.88191 0.0
O500 O 0.1323 0.73503 0.86498 0.0
O501 O 0.11822 0.72354 0.9046 0.0
O502 O 0.1565 0.73942 0.85084 0.0
O503 O 0.15355 0.73354 0.91823 0.0
C504 C 0.20966 0.97179 0.61704 0.0
C505 C 0.21755 0.96963 0.63474 0.0
C506 C 0.2122 0.97866 0.58111 0.0
C507 C 0.23114 0.98993 0.48945 0.0
H508 H 0.22676 0.01488 0.49745 0.0
C509 C 0.25387 0.02647 0.37678 0.0
C510 C 0.24826 0.03148 0.35973 0.0
C511 C 0.24928 0.01878 0.4098 0.0
C512 C 0.22789 0.00787 0.49437 0.0
H513 H 0.23411 0.97264 0.62792 0.0
H514 H 0.23843 0.9844 0.56498 0.0
H515 H 0.21967 0.00097 0.5542 0.0
H516 H 0.23356 0.03262 0.36488 0.0
H517 H 0.22542 0.01902 0.42244 0.0
H518 H 0.23934 0.99672 0.42991 0.0
C519 C 0.23033 0.98085 0.57888 0.0
C520 C 0.22382 0.99991 0.52685 0.0
C521 C 0.22786 0.97416 0.61504 0.0
C522 C 0.2381 0.02892 0.3775 0.0
C523 C 0.23344 0.02113 0.41048 0.0
C524 C 0.23512 0.99781 0.45692 0.0
C525 C 0.22259 0.9833 0.56187 0.0
C526 C 0.22563 0.991 0.52513 0.0
C527 C 0.23889 0.01581 0.42639 0.0
C528 C 0.2338 0.00702 0.45947 0.0
H529 H 0.20167 0.96845 0.63175 0.0
H530 H 0.20607 0.98039 0.56846 0.0
H531 H 0.2325 0.98306 0.48699 0.0
H532 H 0.26177 0.02835 0.36411 0.0
H533 H 0.25386 0.0151 0.42209 0.0
C534 C 0.03125 0.24195 0.60947 0.0
C535 C 0.02965 0.24793 0.64202 0.0
C536 C 0.02446 0.23839 0.57308 0.0
C537 C 0.00473 0.22642 0.51318 0.0
H538 H 0.99522 0.24547 0.46361 0.0
C539 C 0.9706 0.21168 0.38344 0.0
C540 C 0.97221 0.21905 0.34997 0.0
C541 C 0.97765 0.21505 0.41906 0.0
C542 C 0.99785 0.24006 0.47677 0.0
H543 H 0.01966 0.25487 0.66184 0.0
H544 H 0.00781 0.24858 0.59916 0.0
H545 H 0.00796 0.25189 0.52366 0.0
H546 H 0.98253 0.23569 0.3275 0.0
H547 H 0.99483 0.24146 0.38882 0.0
H548 H 0.99479 0.21468 0.46534 0.0
C549 C 0.0144 0.24678 0.60113 0.0
C550 C 0.00507 0.24371 0.51159 0.0
C551 C 0.02118 0.25034 0.63727 0.0
C552 C 0.98099 0.22982 0.35287 0.0
C553 C 0.98803 0.23316 0.38821 0.0
C554 C 0.99751 0.22277 0.47813 0.0
C555 C 0.01593 0.24074 0.56859 0.0
C556 C 0.00857 0.23692 0.5304 0.0
C557 C 0.98646 0.22584 0.42182 0.0
C558 C 0.99399 0.22955 0.45952 0.0
H559 H 0.0377 0.23996 0.61223 0.0
H560 H 0.02593 0.23387 0.54836 0.0
H561 H 0.00717 0.22094 0.52718 0.0
H562 H 0.96392 0.20332 0.38211 0.0
H563 H 0.97614 0.20924 0.44463 0.0
C564 C 0.78866 0.75727 0.38533 0.0
C565 C 0.78093 0.75115 0.35343 0.0
C566 C 0.78552 0.76071 0.42228 0.0
C567 C 0.77765 0.77248 0.48281 0.0
H568 H 0.74971 0.7529 0.53605 0.0
C569 C 0.75809 0.78676 0.61337 0.0
C570 C 0.75288 0.77956 0.6479 0.0
C571 C 0.76174 0.78342 0.57764 0.0
C572 C 0.75757 0.75846 0.52184 0.0
H573 H 0.76383 0.74376 0.33542 0.0
H574 H 0.75842 0.74982 0.39919 0.0
H575 H 0.75594 0.74656 0.47539 0.0
H576 H 0.7475 0.76323 0.67215 0.0
H577 H 0.75396 0.75749 0.61051 0.0
H578 H 0.77935 0.7843 0.53007 0.0
C579 C 0.76687 0.75186 0.39619 0.0
C580 C 0.7611 0.75485 0.48672 0.0
C581 C 0.77 0.74843 0.35945 0.0
C582 C 0.7514 0.76897 0.64596 0.0
C583 C 0.75507 0.76565 0.61047 0.0
C584 C 0.77413 0.77609 0.51811 0.0
C585 C 0.77458 0.75807 0.428 0.0
C586 C 0.77114 0.76183 0.46661 0.0
C587 C 0.76027 0.77281 0.57582 0.0
C588 C 0.76403 0.76911 0.53799 0.0
H589 H 0.79715 0.7595 0.38157 0.0
H590 H 0.79163 0.76539 0.44644 0.0
H591 H 0.78538 0.77809 0.46776 0.0
H592 H 0.75936 0.79498 0.61397 0.0
H593 H 0.76561 0.78909 0.55124 0.0
C594 C 0.75774 0.9705 0.60889 0.0
C595 C 0.75184 0.97227 0.64129 0.0
C596 C 0.76141 0.97726 0.57242 0.0
C597 C 0.77373 0.99692 0.51251 0.0
H598 H 0.75509 0.00685 0.46211 0.0
C599 C 0.78914 0.03104 0.38258 0.0
C600 C 0.78188 0.02952 0.34883 0.0
C601 C 0.78562 0.02401 0.41827 0.0
C602 C 0.76038 0.0041 0.4755 0.0
H603 H 0.74514 0.9825 0.66073 0.0
H604 H 0.75162 0.99427 0.59788 0.0
H605 H 0.7484 0.99413 0.52222 0.0
H606 H 0.76524 0.01939 0.32593 0.0
H607 H 0.75919 0.00713 0.3874 0.0
H608 H 0.78561 0.00673 0.46487 0.0
C609 C 0.75328 0.98759 0.60005 0.0
C610 C 0.75659 0.99689 0.51035 0.0
C611 C 0.7496 0.98085 0.63628 0.0
C612 C 0.77104 0.02086 0.35152 0.0
C613 C 0.76754 0.01384 0.38694 0.0
C614 C 0.77752 0.00413 0.47744 0.0
C615 C 0.75925 0.98591 0.56768 0.0
C616 C 0.76322 0.99325 0.52946 0.0
C617 C 0.77476 0.01532 0.42081 0.0
C618 C 0.77089 0.0078 0.45854 0.0
H619 H 0.7596 0.96397 0.61185 0.0
H620 H 0.76589 0.97567 0.54783 0.0
H621 H 0.77909 0.99437 0.52675 0.0
H622 H 0.79755 0.03763 0.38141 0.0
H623 H 0.79136 0.02545 0.44404 0.0
C624 C 0.02248 0.77198 0.64104 0.0
C625 C 0.03095 0.78289 0.6443 0.0
C626 C 0.01542 0.7685 0.60581 0.0
C627 C 0.00508 0.77845 0.5175 0.0
H628 H 0.99544 0.74954 0.47123 0.0
C629 C 0.98109 0.7503 0.35994 0.0
C630 C 0.9723 0.75226 0.35646 0.0
C631 C 0.98814 0.75419 0.3952 0.0
C632 C 0.99811 0.75767 0.48348 0.0
H633 H 0.0387 0.79871 0.6129 0.0
H634 H 0.02645 0.79255 0.55045 0.0
H635 H 0.00849 0.75635 0.53014 0.0
H636 H 0.96395 0.75978 0.38751 0.0
H637 H 0.97618 0.76641 0.44998 0.0
H638 H 0.99489 0.77984 0.46969 0.0
C639 C 0.02519 0.78674 0.57569 0.0
C640 C 0.00551 0.76153 0.51766 0.0
C641 C 0.03226 0.79025 0.61124 0.0
C642 C 0.97065 0.75813 0.38934 0.0
C643 C 0.97771 0.762 0.4249 0.0
C644 C 0.9977 0.77459 0.48303 0.0
C645 C 0.01667 0.77581 0.57265 0.0
C646 C 0.00906 0.77195 0.53525 0.0
C647 C 0.98655 0.76008 0.42816 0.0
C648 C 0.99414 0.76415 0.46558 0.0
H649 H 0.02117 0.7661 0.6661 0.0
H650 H 0.00883 0.76009 0.605 0.0
H651 H 0.00757 0.78646 0.5306 0.0
H652 H 0.98267 0.74589 0.33504 0.0
H653 H 0.99497 0.75274 0.3962 0.0
C654 C 0.25426 0.22686 0.37712 0.0
C655 C 0.24854 0.21622 0.36031 0.0
C656 C 0.24989 0.22999 0.41086 0.0
C657 C 0.22865 0.21952 0.49654 0.0
H658 H 0.23376 0.24915 0.4912 0.0
C659 C 0.21015 0.23733 0.61835 0.0
C660 C 0.21808 0.24711 0.63767 0.0
C661 C 0.21284 0.23309 0.58252 0.0
C662 C 0.23226 0.24085 0.49306 0.0
H663 H 0.23388 0.20039 0.36648 0.0
H664 H 0.22607 0.20593 0.42502 0.0
H665 H 0.2405 0.24238 0.43353 0.0
H666 H 0.2349 0.26031 0.63388 0.0
H667 H 0.23947 0.25307 0.57091 0.0
H668 H 0.2203 0.21806 0.55619 0.0
C669 C 0.23404 0.21182 0.41253 0.0
C670 C 0.23619 0.23698 0.46022 0.0
C671 C 0.2385 0.20864 0.37896 0.0
C672 C 0.22861 0.25275 0.61971 0.0
C673 C 0.23123 0.24863 0.58358 0.0
C674 C 0.2246 0.22337 0.52923 0.0
C675 C 0.2396 0.22262 0.42829 0.0
C676 C 0.23467 0.22635 0.46199 0.0
C677 C 0.22342 0.23869 0.56498 0.0
C678 C 0.22657 0.23415 0.52819 0.0
H679 H 0.26208 0.23285 0.36374 0.0
H680 H 0.25458 0.23827 0.423 0.0
H681 H 0.22737 0.21132 0.49912 0.0
H682 H 0.20199 0.23279 0.63172 0.0
H683 H 0.20667 0.22543 0.5686 0.0
C684 C 0.91697 0.35261 0.69378 0.0
C685 C 0.91472 0.36119 0.68935 0.0
C686 C 0.91324 0.34572 0.72959 0.0
C687 C 0.89275 0.33611 0.81719 0.0
H688 H 0.91146 0.32618 0.86682 0.0
C689 C 0.89577 0.31241 0.9782 0.0
C690 C 0.88493 0.30377 0.98139 0.0
C691 C 0.89919 0.31934 0.94249 0.0
C692 C 0.90615 0.32892 0.85362 0.0
H693 H 0.90686 0.36933 0.71934 0.0
H694 H 0.9005 0.35739 0.78265 0.0
H695 H 0.91807 0.33892 0.8068 0.0
H696 H 0.86919 0.29557 0.94936 0.0
H697 H 0.87524 0.30759 0.88624 0.0
H698 H 0.88094 0.3263 0.86502 0.0
C699 C 0.90502 0.3559 0.75792 0.0
C700 C 0.9099 0.33615 0.81881 0.0
C701 C 0.90873 0.3628 0.72186 0.0
C702 C 0.87759 0.30216 0.94781 0.0
C703 C 0.88104 0.30909 0.91184 0.0
C704 C 0.88901 0.32889 0.85222 0.0
C705 C 0.90721 0.34726 0.76212 0.0
C706 C 0.90325 0.33981 0.80004 0.0
C707 C 0.89189 0.31778 0.90882 0.0
C708 C 0.89567 0.32523 0.87089 0.0
H709 H 0.92149 0.35108 0.66921 0.0
H710 H 0.91493 0.33905 0.73133 0.0
H711 H 0.88737 0.33867 0.8032 0.0
H712 H 0.90163 0.31395 0.00362 0.0
H713 H 0.90754 0.32605 0.94167 0.0
C714 C 0.63557 0.53897 0.71148 0.0
C715 C 0.6335 0.54674 0.69212 0.0
C716 C 0.64242 0.54177 0.74763 0.0
C717 C 0.65324 0.56094 0.83793 0.0
H718 H 0.6789 0.55771 0.83146 0.0
C719 C 0.68887 0.5842 0.95424 0.0
C720 C 0.69435 0.57898 0.97056 0.0
C721 C 0.68139 0.57954 0.92057 0.0
C722 C 0.67169 0.55851 0.83418 0.0
H723 H 0.63659 0.56337 0.69614 0.0
H724 H 0.64823 0.56814 0.75975 0.0
H725 H 0.66517 0.5502 0.77412 0.0
H726 H 0.69654 0.56494 0.96367 0.0
H727 H 0.68323 0.5566 0.90528 0.0
H728 H 0.65956 0.56912 0.89785 0.0
C729 C 0.64469 0.55994 0.74683 0.0
C730 C 0.66384 0.55421 0.80133 0.0
C731 C 0.63806 0.55722 0.71036 0.0
C732 C 0.69247 0.56916 0.95155 0.0
C733 C 0.68484 0.5644 0.91808 0.0
C734 C 0.66098 0.5651 0.87094 0.0
C735 C 0.64706 0.55231 0.76545 0.0
C736 C 0.65467 0.55561 0.80251 0.0
C737 C 0.67905 0.56944 0.90275 0.0
C738 C 0.67045 0.56419 0.86901 0.0
H739 H 0.63221 0.53085 0.69787 0.0
H740 H 0.64411 0.53575 0.76157 0.0
H741 H 0.64616 0.562 0.83983 0.0
H742 H 0.69024 0.59184 0.96791 0.0
H743 H 0.67737 0.58384 0.90877 0.0
C744 C 0.43759 0.08159 0.70653 0.0
C745 C 0.4484 0.08687 0.69131 0.0
C746 C 0.43458 0.08603 0.74045 0.0
C747 C 0.44551 0.10651 0.82912 0.0
H748 H 0.41659 0.1032 0.82216 0.0
C749 C 0.429 0.12618 0.95115 0.0
C750 C 0.41895 0.11858 0.96973 0.0
C751 C 0.43305 0.12327 0.91534 0.0
C752 C 0.42469 0.10419 0.82448 0.0
H753 H 0.46461 0.10081 0.70035 0.0
H754 H 0.4593 0.10877 0.75907 0.0
H755 H 0.42302 0.09623 0.76416 0.0
H756 H 0.40509 0.10215 0.96459 0.0
H757 H 0.41201 0.0972 0.90157 0.0
H758 H 0.44713 0.11463 0.88949 0.0
C759 C 0.45318 0.10108 0.74529 0.0
C760 C 0.42836 0.10012 0.79145 0.0
C761 C 0.45623 0.09654 0.71159 0.0
C762 C 0.41287 0.10818 0.95099 0.0
C763 C 0.41681 0.10535 0.91484 0.0
C764 C 0.44187 0.11072 0.86198 0.0
C765 C 0.44226 0.09597 0.75962 0.0
C766 C 0.43873 0.101 0.79373 0.0
C767 C 0.427 0.1128 0.89704 0.0
C768 C 0.43135 0.10941 0.86031 0.0
H769 H 0.4314 0.07406 0.69187 0.0
H770 H 0.42618 0.08166 0.7514 0.0
H771 H 0.4535 0.10728 0.8322 0.0
H772 H 0.43389 0.13423 0.96512 0.0
H773 H 0.44092 0.12917 0.90203 0.0
C774 C 0.45765 0.36121 0.70971 0.0
C775 C 0.44994 0.36334 0.69016 0.0
C776 C 0.4545 0.35351 0.74307 0.0
C777 C 0.42955 0.32979 0.78838 0.0
H778 H 0.44791 0.33369 0.88744 0.0
C779 C 0.41307 0.30581 0.9462 0.0
C780 C 0.41911 0.30162 0.96635 0.0
C781 C 0.41725 0.31261 0.91027 0.0
C782 C 0.44277 0.33244 0.85963 0.0
H783 H 0.43305 0.35955 0.69171 0.0
H784 H 0.42768 0.3465 0.75043 0.0
H785 H 0.45461 0.34751 0.83042 0.0
H786 H 0.43423 0.30118 0.96438 0.0
H787 H 0.44164 0.31328 0.90156 0.0
H788 H 0.41759 0.31491 0.81829 0.0
C789 C 0.43606 0.35042 0.73923 0.0
C790 C 0.4466 0.34034 0.82696 0.0
C791 C 0.43916 0.358 0.70576 0.0
C792 C 0.42936 0.30424 0.94934 0.0
C793 C 0.43364 0.31121 0.91366 0.0
C794 C 0.42571 0.32197 0.82114 0.0
C795 C 0.4436 0.34787 0.75766 0.0
C796 C 0.43995 0.33921 0.79129 0.0
C797 C 0.42763 0.31551 0.89397 0.0
C798 C 0.4322 0.32329 0.8574 0.0
H799 H 0.466 0.36518 0.69822 0.0
H800 H 0.46052 0.35173 0.75641 0.0
H801 H 0.42432 0.32847 0.76084 0.0
H802 H 0.40515 0.30394 0.95856 0.0
H803 H 0.41248 0.31588 0.896 0.0
C804 C 0.69653 0.1262 0.95141 0.0
C805 C 0.6987 0.11842 0.97009 0.0
C806 C 0.68951 0.12341 0.91582 0.0
C807 C 0.67808 0.10409 0.82587 0.0
H808 H 0.65289 0.10807 0.8341 0.0
C809 C 0.64198 0.08153 0.71091 0.0
C810 C 0.63678 0.08705 0.69476 0.0
C811 C 0.6495 0.08598 0.74455 0.0
C812 C 0.65996 0.10705 0.83091 0.0
H813 H 0.69559 0.10179 0.96539 0.0
H814 H 0.68362 0.09704 0.90281 0.0
H815 H 0.66685 0.11537 0.8906 0.0
H816 H 0.63513 0.10141 0.70201 0.0
H817 H 0.64852 0.10936 0.76037 0.0
H818 H 0.67138 0.09589 0.7663 0.0
C819 C 0.68724 0.10524 0.91579 0.0
C820 C 0.66794 0.11123 0.86328 0.0
C821 C 0.69406 0.10795 0.95169 0.0
C822 C 0.63898 0.09695 0.714 0.0
C823 C 0.64665 0.10149 0.74744 0.0
C824 C 0.6702 0.10003 0.79337 0.0
C825 C 0.68477 0.11287 0.89787 0.0
C826 C 0.67696 0.10959 0.86144 0.0
C827 C 0.65217 0.09616 0.7625 0.0
C828 C 0.6609 0.10122 0.79591 0.0
H829 H 0.69995 0.13431 0.96514 0.0
H830 H 0.68776 0.12945 0.90242 0.0
H831 H 0.68503 0.10285 0.82341 0.0
H832 H 0.64037 0.07383 0.69707 0.0
H833 H 0.65333 0.08146 0.75614 0.0
C834 C 0.90939 0.54543 0.7175 0.0
C835 C 0.91546 0.55311 0.68535 0.0
C836 C 0.90579 0.54858 0.754 0.0
C837 C 0.9112 0.57307 0.81696 0.0
H838 H 0.88195 0.5544 0.8615 0.0
C839 C 0.87914 0.57534 0.94531 0.0
C840 C 0.8864 0.58065 0.97959 0.0
C841 C 0.88253 0.57184 0.90921 0.0
C842 C 0.89011 0.55974 0.84919 0.0
H843 H 0.92254 0.57011 0.66638 0.0
H844 H 0.9162 0.57553 0.72935 0.0
H845 H 0.88826 0.54846 0.79923 0.0
H846 H 0.90289 0.58642 0.00293 0.0
H847 H 0.9087 0.58023 0.94066 0.0
H848 H 0.91299 0.58447 0.86597 0.0
C849 C 0.91434 0.56712 0.72691 0.0
C850 C 0.89377 0.55627 0.8139 0.0
C851 C 0.91794 0.56399 0.69063 0.0
C852 C 0.8971 0.58242 0.97697 0.0
C853 C 0.90046 0.57892 0.94111 0.0
C854 C 0.90754 0.57654 0.85206 0.0
C855 C 0.90821 0.55947 0.75902 0.0
C856 C 0.90436 0.56292 0.79733 0.0
C857 C 0.89324 0.57359 0.90676 0.0
C858 C 0.89696 0.56992 0.86868 0.0
H859 H 0.90734 0.53698 0.71431 0.0
H860 H 0.90119 0.54251 0.7784 0.0
H861 H 0.91944 0.57834 0.80535 0.0
H862 H 0.87085 0.57385 0.94641 0.0
H863 H 0.8768 0.56786 0.88307 0.0
C864 C 0.54499 0.63614 0.28066 0.0
C865 C 0.55253 0.6377 0.31334 0.0
C866 C 0.54827 0.64299 0.24448 0.0
C867 C 0.57301 0.66233 0.18342 0.0
H868 H 0.55431 0.67264 0.13674 0.0
C869 C 0.57534 0.69627 0.05285 0.0
C870 C 0.58073 0.69427 0.01907 0.0
C871 C 0.57183 0.6895 0.08929 0.0
C872 C 0.55967 0.66991 0.14968 0.0
H873 H 0.56942 0.64768 0.33367 0.0
H874 H 0.57506 0.65963 0.27126 0.0
H875 H 0.54821 0.6604 0.19902 0.0
H876 H 0.58668 0.68359 0.99702 0.0
H877 H 0.58049 0.6718 0.05988 0.0
H878 H 0.58458 0.67201 0.13498 0.0
C879 C 0.56667 0.65303 0.27302 0.0
C880 C 0.55611 0.66278 0.18497 0.0
C881 C 0.56341 0.64619 0.30897 0.0
C882 C 0.58261 0.68542 0.02257 0.0
C883 C 0.5791 0.67868 0.05877 0.0
C884 C 0.57657 0.66946 0.14833 0.0
C885 C 0.55915 0.65153 0.24033 0.0
C886 C 0.56275 0.65891 0.20225 0.0
C887 C 0.57366 0.68061 0.09258 0.0
C888 C 0.56994 0.67331 0.1309 0.0
H889 H 0.53655 0.62967 0.28314 0.0
H890 H 0.54231 0.64155 0.21961 0.0
H891 H 0.57829 0.65943 0.1956 0.0
H892 H 0.57376 0.70302 0.05106 0.0
H893 H 0.56776 0.69128 0.11501 0.0
C894 C 0.35351 0.91651 0.30786 0.0
C895 C 0.36207 0.91423 0.31218 0.0
C896 C 0.34663 0.91284 0.27203 0.0
C897 C 0.33702 0.9096 0.1829 0.0
H898 H 0.32709 0.88068 0.13623 0.0
C899 C 0.31291 0.89555 0.02424 0.0
C900 C 0.30428 0.8847 0.0211 0.0
C901 C 0.31993 0.89896 0.05967 0.0
C902 C 0.32971 0.88873 0.14915 0.0
H903 H 0.37018 0.90637 0.28194 0.0
H904 H 0.35825 0.90011 0.21859 0.0
H905 H 0.33954 0.88705 0.19783 0.0
H906 H 0.29621 0.86893 0.05295 0.0
H907 H 0.30838 0.87497 0.11561 0.0
H908 H 0.32699 0.91121 0.13529 0.0
C909 C 0.35677 0.90461 0.24342 0.0
C910 C 0.33697 0.89245 0.18406 0.0
C911 C 0.36366 0.90827 0.27952 0.0
C912 C 0.30278 0.87735 0.05446 0.0
C913 C 0.30981 0.88079 0.09017 0.0
C914 C 0.32975 0.90588 0.14822 0.0
C915 C 0.34815 0.90684 0.23934 0.0
C916 C 0.34069 0.90293 0.20141 0.0
C917 C 0.31848 0.89164 0.09313 0.0
C918 C 0.32602 0.89542 0.13081 0.0
H919 H 0.35199 0.92102 0.33255 0.0
H920 H 0.33997 0.91455 0.27039 0.0
H921 H 0.33982 0.91777 0.19506 0.0
H922 H 0.31437 0.90142 0.99897 0.0
H923 H 0.32662 0.90732 0.06043 0.0
C924 C 0.08054 0.44141 0.28253 0.0
C925 C 0.08642 0.45183 0.30129 0.0
C926 C 0.08461 0.43873 0.24645 0.0
C927 C 0.10985 0.44459 0.194 0.0
H928 H 0.09104 0.42943 0.09685 0.0
C929 C 0.12426 0.42989 0.04508 0.0
C930 C 0.11647 0.41998 0.02614 0.0
C931 C 0.12122 0.43458 0.07825 0.0
C932 C 0.09637 0.43353 0.12395 0.0
H933 H 0.10114 0.46767 0.29675 0.0
H934 H 0.10841 0.46286 0.23369 0.0
H935 H 0.08446 0.4365 0.15397 0.0
H936 H 0.09959 0.40691 0.02868 0.0
H937 H 0.09441 0.41481 0.08724 0.0
H938 H 0.12163 0.44126 0.16485 0.0
C939 C 0.1006 0.45683 0.24696 0.0
C940 C 0.09262 0.43765 0.15646 0.0
C941 C 0.09641 0.4596 0.28274 0.0
C942 C 0.10575 0.41462 0.04228 0.0
C943 C 0.10276 0.41922 0.07562 0.0
C944 C 0.11359 0.44035 0.16162 0.0
C945 C 0.09475 0.44634 0.22868 0.0
C946 C 0.09924 0.44307 0.19213 0.0
C947 C 0.11036 0.42939 0.09331 0.0
C948 C 0.1068 0.43458 0.12657 0.0
H949 H 0.07282 0.43526 0.29612 0.0
H950 H 0.07997 0.43056 0.23322 0.0
H951 H 0.11509 0.44867 0.22139 0.0
H952 H 0.13257 0.43423 0.03311 0.0
H953 H 0.12729 0.44244 0.091 0.0
C954 C 0.08452 0.64615 0.30618 0.0
C955 C 0.08676 0.63754 0.30958 0.0
C956 C 0.08809 0.6531 0.27055 0.0
C957 C 0.09084 0.66271 0.18172 0.0
H958 H 0.1195 0.67265 0.1322 0.0
C959 C 0.1039 0.68666 0.02257 0.0
C960 C 0.11471 0.6953 0.01854 0.0
C961 C 0.10072 0.67968 0.0581 0.0
C962 C 0.11152 0.67003 0.14593 0.0
H963 H 0.09446 0.62944 0.27802 0.0
H964 H 0.10054 0.6415 0.215 0.0
H965 H 0.11349 0.66023 0.19389 0.0
H966 H 0.13067 0.70344 0.04889 0.0
H967 H 0.12505 0.69135 0.11174 0.0
H968 H 0.08894 0.6727 0.13482 0.0
C969 C 0.09615 0.64295 0.24039 0.0
C970 C 0.10801 0.66279 0.18089 0.0
C971 C 0.0926 0.636 0.2763 0.0
C972 C 0.12228 0.69686 0.05111 0.0
C973 C 0.11907 0.68988 0.08691 0.0
C974 C 0.09435 0.66996 0.147 0.0
C975 C 0.09393 0.6516 0.23715 0.0
C976 C 0.09763 0.65906 0.19925 0.0
C977 C 0.10825 0.68119 0.09077 0.0
C978 C 0.10472 0.67369 0.12855 0.0
H979 H 0.08011 0.64764 0.33138 0.0
H980 H 0.0864 0.65977 0.26957 0.0
H981 H 0.08275 0.65991 0.19466 0.0
H982 H 0.09787 0.68515 0.99792 0.0
H983 H 0.09237 0.67297 0.05955 0.0
C984 C 0.36231 0.4538 0.27702 0.0
C985 C 0.36073 0.44613 0.30916 0.0
C986 C 0.35538 0.4507 0.24106 0.0
C987 C 0.33557 0.42619 0.17963 0.0
H988 H 0.32574 0.44544 0.13473 0.0
C989 C 0.30158 0.42488 0.05149 0.0
C990 C 0.30317 0.41922 0.0176 0.0
C991 C 0.30852 0.42827 0.08747 0.0
C992 C 0.32833 0.43993 0.14716 0.0
H993 H 0.35064 0.4292 0.32877 0.0
H994 H 0.33856 0.42388 0.26684 0.0
H995 H 0.33815 0.45123 0.19643 0.0
H996 H 0.31332 0.41272 0.99482 0.0
H997 H 0.32542 0.41873 0.05676 0.0
H998 H 0.32555 0.41477 0.13137 0.0
C999 C 0.34523 0.43223 0.26877 0.0
C1000 C 0.33556 0.44331 0.18213 0.0
C1001 C 0.35215 0.43531 0.30447 0.0
C1002 C 0.3118 0.41699 0.02048 0.0
C1003 C 0.31872 0.4204 0.05619 0.0
C1004 C 0.32832 0.42281 0.14489 0.0
C1005 C 0.34674 0.43987 0.23661 0.0
C1006 C 0.33926 0.43647 0.1988 0.0
C1007 C 0.31718 0.42607 0.09017 0.0
C1008 C 0.32464 0.42964 0.12808 0.0
H1009 H 0.36885 0.4622 0.27974 0.0
H1010 H 0.35685 0.45675 0.21661 0.0
H1011 H 0.33833 0.42076 0.19127 0.0
H1012 H 0.29501 0.42673 0.05019 0.0
H1013 H 0.30703 0.43252 0.11331 0.0
C1014 C 0.55855 0.91988 0.29218 0.0
C1015 C 0.54794 0.91405 0.30933 0.0
C1016 C 0.56139 0.91603 0.25582 0.0
C1017 C 0.55562 0.89128 0.20035 0.0
H1018 H 0.5706 0.91049 0.10397 0.0
C1019 C 0.56983 0.87719 0.04937 0.0
C1020 C 0.57949 0.88504 0.02911 0.0
C1021 C 0.56534 0.8802 0.08337 0.0
C1022 C 0.56658 0.90504 0.13087 0.0
H1023 H 0.53195 0.89967 0.30182 0.0
H1024 H 0.53705 0.89275 0.2384 0.0
H1025 H 0.56368 0.91684 0.1624 0.0
H1026 H 0.59237 0.902 0.03004 0.0
H1027 H 0.5849 0.90713 0.09028 0.0
H1028 H 0.55892 0.87963 0.16992 0.0
C1029 C 0.54309 0.90037 0.25305 0.0
C1030 C 0.56253 0.90868 0.16411 0.0
C1031 C 0.54017 0.90435 0.28903 0.0
C1032 C 0.58484 0.8958 0.04471 0.0
C1033 C 0.58048 0.89876 0.07901 0.0
C1034 C 0.55984 0.88769 0.16735 0.0
C1035 C 0.55375 0.90616 0.2363 0.0
C1036 C 0.55712 0.90188 0.19936 0.0
C1037 C 0.57051 0.89109 0.0981 0.0
C1038 C 0.56552 0.89459 0.13245 0.0
H1039 H 0.56471 0.92738 0.30716 0.0
H1040 H 0.56968 0.92061 0.24368 0.0
H1041 H 0.55155 0.88593 0.22746 0.0
H1042 H 0.56551 0.86884 0.03778 0.0
H1043 H 0.55764 0.87408 0.09704 0.0
C1044 C 0.2036 0.9727 0.88045 0.0
C1045 C 0.21163 0.97192 0.85655 0.0
C1046 C 0.20659 0.98031 0.91392 0.0
C1047 C 0.23079 0.0049 0.96092 0.0
H1048 H 0.21278 0.99661 0.06389 0.0
C1049 C 0.24581 0.02506 0.12746 0.0
C1050 C 0.24032 0.03035 0.14303 0.0
C1051 C 0.24167 0.01796 0.09231 0.0
C1052 C 0.21782 0.99902 0.03514 0.0
H1053 H 0.22906 0.97844 0.84895 0.0
H1054 H 0.23426 0.9913 0.90819 0.0
H1055 H 0.20686 0.98432 0.00177 0.0
H1056 H 0.22599 0.03206 0.13521 0.0
H1057 H 0.21854 0.01927 0.0744 0.0
H1058 H 0.242 0.01934 0.99562 0.0
C1059 C 0.22567 0.98638 0.9004 0.0
C1060 C 0.21442 0.99204 -0.00059 0.0
C1061 C 0.22269 0.97893 0.86649 0.0
C1062 C 0.2304 0.02811 0.12377 0.0
C1063 C 0.22613 0.0208 0.08917 0.0
C1064 C 0.23428 0.01174 0.99694 0.0
C1065 C 0.21767 0.98716 0.92472 0.0
C1066 C 0.22092 0.99485 0.96191 0.0
C1067 C 0.23185 0.01586 0.07278 0.0
C1068 C 0.22786 0.0088 0.03434 0.0
H1069 H 0.19501 0.96744 0.87329 0.0
H1070 H 0.2002 0.9808 0.93127 0.0
H1071 H 0.23589 0.00751 0.93238 0.0
H1072 H 0.2535 0.02667 0.1415 0.0
H1073 H 0.24617 0.01418 0.08012 0.0
C1074 C 0.96672 0.19615 0.10033 0.0
C1075 C 0.96942 0.20394 0.13324 0.0
C1076 C 0.97417 0.19788 0.06734 0.0
C1077 C 0.00343 0.21496 0.03682 0.0
H1078 H 0.99211 0.20987 0.92003 0.0
C1079 C 0.03223 0.22811 0.88979 0.0
C1080 C 0.02997 0.23375 0.8577 0.0
C1081 C 0.02455 0.22234 0.92205 0.0
C1082 C 0.9954 0.21132 0.95246 0.0
H1083 H 0.9822 0.21952 0.15787 0.0
H1084 H 0.99506 0.2226 0.10024 0.0
H1085 H 0.97947 0.20393 0.98071 0.0
H1086 H 0.01772 0.23739 0.83351 0.0
H1087 H 0.00449 0.22753 0.88995 0.0
H1088 H 0.01937 0.2229 0.00865 0.0
C1089 C 0.98726 0.21508 0.10014 0.0
C1090 C 0.98815 0.2078 0.98726 0.0
C1091 C 0.97984 0.21335 0.13306 0.0
C1092 C 0.01974 0.23316 0.85774 0.0
C1093 C 0.0121 0.22742 0.88997 0.0
C1094 C 0.01068 0.21851 0.00204 0.0
C1095 C 0.98448 0.20743 0.06661 0.0
C1096 C 0.99209 0.20983 0.02985 0.0
C1097 C 0.01448 0.22208 0.9229 0.0
C1098 C 0.00676 0.21698 0.95946 0.0
H1099 H 0.95878 0.18879 0.09964 0.0
H1100 H 0.97183 0.19179 0.04223 0.0
H1101 H 0.00672 0.21649 0.06925 0.0
H1102 H 0.04 0.22833 0.89054 0.0
H1103 H 0.02657 0.2182 0.94665 0.0
C1104 C 0.76788 0.78787 0.86312 0.0
C1105 C 0.76589 0.79667 0.86342 0.0
C1106 C 0.77376 0.78656 0.89641 0.0
C1107 C 0.78039 0.79323 0.01055 0.0
H1108 H 0.79818 0.77984 0.99059 0.0
C1109 C 0.78592 0.76697 0.13761 0.0
C1110 C 0.79569 0.76665 0.13906 0.0
C1111 C 0.78432 0.77308 0.10609 0.0
C1112 C 0.79341 0.78377 0.99689 0.0
H1113 H 0.7689 0.81125 0.89816 0.0
H1114 H 0.77928 0.80899 0.95632 0.0
H1115 H 0.79227 0.78645 0.92967 0.0
H1116 H 0.81168 0.77294 0.10976 0.0
H1117 H 0.80893 0.78374 0.05501 0.0
H1118 H 0.78149 0.7905 0.07778 0.0
C1119 C 0.77615 0.80303 0.93049 0.0
C1120 C 0.78991 0.78743 0.96187 0.0
C1121 C 0.77024 0.80435 0.89709 0.0
C1122 C 0.80401 0.77293 0.10929 0.0
C1123 C 0.80243 0.77909 0.07782 0.0
C1124 C 0.78394 0.78962 0.04562 0.0
C1125 C 0.77783 0.79403 0.93082 0.0
C1126 C 0.78305 0.79187 0.96819 0.0
C1127 C 0.79248 0.77908 0.07538 0.0
C1128 C 0.7902 0.78452 0.03909 0.0
H1129 H 0.76467 0.7818 0.8377 0.0
H1130 H 0.77473 0.77943 0.89595 0.0
H1131 H 0.77508 0.79657 0.0166 0.0
H1132 H 0.77933 0.76224 0.16003 0.0
H1133 H 0.77649 0.77273 0.1048 0.0
C1134 C 0.76706 0.98209 0.85698 0.0
C1135 C 0.76633 0.9718 0.85629 0.0
C1136 C 0.77299 0.98965 0.88921 0.0
C1137 C 0.78223 0.99076 0.00054 0.0
H1138 H 0.79709 0.02201 0.98008 0.0
C1139 C 0.788 0.02154 0.13267 0.0
C1140 C 0.79744 0.03193 0.13272 0.0
C1141 C 0.78617 0.01412 0.09964 0.0
C1142 C 0.79315 0.01331 0.98637 0.0
H1143 H 0.77167 0.96157 0.88791 0.0
H1144 H 0.78214 0.97485 0.94399 0.0
H1145 H 0.79084 0.00947 0.91906 0.0
H1146 H 0.81258 0.0425 0.09886 0.0
H1147 H 0.8094 0.02945 0.04125 0.0
H1148 H 0.78449 0.9946 0.06784 0.0
C1149 C 0.77796 0.97698 0.91993 0.0
C1150 C 0.78945 0.00612 0.95138 0.0
C1151 C 0.772 0.9694 0.88768 0.0
C1152 C 0.80519 0.03459 0.09966 0.0
C1153 C 0.80335 0.02713 0.06656 0.0
C1154 C 0.78597 0.99795 0.03551 0.0
C1155 C 0.77837 0.98713 0.92146 0.0
C1156 C 0.78368 0.99476 0.9581 0.0
C1157 C 0.79375 0.01687 0.06588 0.0
C1158 C 0.79119 0.0093 0.02886 0.0
H1159 H 0.7628 0.98423 0.83331 0.0
H1160 H 0.773 0.99732 0.88975 0.0
H1161 H 0.77777 0.98206 0.00692 0.0
H1162 H 0.78186 0.01921 0.15762 0.0
H1163 H 0.77861 0.00636 0.09981 0.0
C1164 C 0.03253 0.80277 0.89504 0.0
C1165 C 0.03077 0.7957 0.86016 0.0
C1166 C 0.02457 0.79984 0.92712 0.0
C1167 C 0.00325 0.77533 0.97793 0.0
H1168 H 0.99378 0.7941 0.03079 0.0
C1169 C 0.98051 0.76423 0.13837 0.0
C1170 C 0.97045 0.76401 0.13869 0.0
C1171 C 0.98788 0.76921 0.10464 0.0
C1172 C 0.99635 0.78879 0.01613 0.0
H1173 H 0.01903 0.78032 0.8304 0.0
H1174 H 0.00527 0.77524 0.88641 0.0
H1175 H 0.00634 0.80078 0.96883 0.0
H1176 H 0.96052 0.7694 0.10492 0.0
H1177 H 0.97355 0.77822 0.04581 0.0
H1178 H 0.99346 0.76341 0.02517 0.0
C1179 C 0.01282 0.78298 0.8891 0.0
C1180 C 0.00355 0.79261 0.98098 0.0
C1181 C 0.02071 0.78591 0.85701 0.0
C1182 C 0.96817 0.76937 0.10549 0.0
C1183 C 0.97563 0.77446 0.07179 0.0
C1184 C 0.99622 0.77159 0.01321 0.0
C1185 C 0.01478 0.78978 0.92495 0.0
C1186 C 0.00702 0.78588 0.96156 0.0
C1187 C 0.98541 0.77417 0.07062 0.0
C1188 C 0.99274 0.77828 0.03276 0.0
H1189 H 0.04017 0.81039 0.89829 0.0
H1190 H 0.02628 0.8052 0.95457 0.0
H1191 H 0.00589 0.77001 0.96388 0.0
H1192 H 0.98259 0.76026 0.16353 0.0
H1193 H 0.99544 0.769 0.10471 0.0
C1194 C 0.23977 0.21784 0.14044 0.0
C1195 C 0.23887 0.20748 0.14156 0.0
C1196 C 0.23491 0.2206 0.10719 0.0
C1197 C 0.2258 0.21348 0.99503 0.0
H1198 H 0.21228 0.23115 0.01504 0.0
C1199 C 0.20191 0.23312 0.89558 0.0
C1200 C 0.20914 0.23782 0.86065 0.0
C1201 C 0.20447 0.22829 0.92957 0.0
C1202 C 0.21591 0.22611 0.00895 0.0
H1203 H 0.23185 0.19176 0.10929 0.0
H1204 H 0.22334 0.19657 0.05148 0.0
H1205 H 0.21836 0.22472 0.07629 0.0
H1206 H 0.22457 0.24086 0.8335 0.0
H1207 H 0.22904 0.2325 0.89284 0.0
H1208 H 0.22337 0.21489 0.9277 0.0
C1209 C 0.22792 0.2026 0.07603 0.0
C1210 C 0.2195 0.22252 0.044 0.0
C1211 C 0.23276 0.19984 0.10931 0.0
C1212 C 0.21882 0.23732 0.8599 0.0
C1213 C 0.22136 0.23247 0.89381 0.0
C1214 C 0.22223 0.21709 0.95998 0.0
C1215 C 0.22906 0.21306 0.07431 0.0
C1216 C 0.22459 0.21628 0.03739 0.0
C1217 C 0.21428 0.22802 0.92927 0.0
C1218 C 0.21737 0.22355 0.96653 0.0
H1219 H 0.24441 0.22392 0.16476 0.0
H1220 H 0.23604 0.22876 0.10653 0.0
H1221 H 0.22978 0.20876 0.98883 0.0
H1222 H 0.19436 0.23332 0.89713 0.0
H1223 H 0.19879 0.22481 0.95621 0.0
C1224 C 0.9004 0.35193 0.47333 0.0
C1225 C 0.90093 0.36213 0.4742 0.0
C1226 C 0.89457 0.34436 0.44102 0.0
C1227 C 0.87812 0.32773 0.37929 0.0
H1228 H 0.88272 0.33909 0.26264 0.0
C1229 C 0.86217 0.29901 0.23191 0.0
C1230 C 0.86982 0.30167 0.19846 0.0
C1231 C 0.86404 0.30652 0.26484 0.0
C1232 C 0.88135 0.33579 0.29503 0.0
H1233 H 0.89538 0.3722 0.44265 0.0
H1234 H 0.88509 0.35889 0.38638 0.0
H1235 H 0.8895 0.35172 0.3233 0.0
H1236 H 0.88525 0.31444 0.17267 0.0
H1237 H 0.88858 0.32738 0.23022 0.0
H1238 H 0.87052 0.31181 0.35093 0.0
C1239 C 0.88933 0.35684 0.41042 0.0
C1240 C 0.88511 0.34303 0.32985 0.0
C1241 C 0.8952 0.36444 0.44277 0.0
C1242 C 0.87919 0.3121 0.19794 0.0
C1243 C 0.88106 0.31958 0.23082 0.0
C1244 C 0.87439 0.32049 0.34447 0.0
C1245 C 0.88909 0.34677 0.40883 0.0
C1246 C 0.88379 0.33909 0.37235 0.0
C1247 C 0.87359 0.31683 0.26499 0.0
C1248 C 0.87621 0.32445 0.30189 0.0
H1249 H 0.90471 0.34987 0.49703 0.0
H1250 H 0.89469 0.33676 0.44043 0.0
H1251 H 0.87682 0.32443 0.41168 0.0
H1252 H 0.85483 0.29107 0.23314 0.0
H1253 H 0.85807 0.3042 0.29045 0.0
C1254 C 0.6853 0.57023 0.1913 0.0
C1255 C 0.69527 0.57028 0.19073 0.0
C1256 C 0.67776 0.56499 0.22443 0.0
C1257 C 0.6609 0.54898 0.28701 0.0
H1258 H 0.67206 0.55347 0.40399 0.0
C1259 C 0.63214 0.53096 0.43353 0.0
C1260 C 0.63438 0.53814 0.46838 0.0
C1261 C 0.63973 0.53362 0.40024 0.0
C1262 C 0.66882 0.55215 0.37151 0.0
H1263 H 0.705 0.56457 0.22401 0.0
H1264 H 0.69177 0.55533 0.28164 0.0
H1265 H 0.6848 0.56047 0.34363 0.0
H1266 H 0.6465 0.55364 0.4961 0.0
H1267 H 0.65963 0.55832 0.43791 0.0
H1268 H 0.64492 0.54107 0.31494 0.0
C1269 C 0.68987 0.55949 0.25673 0.0
C1270 C 0.67612 0.55605 0.33689 0.0
C1271 C 0.69743 0.56475 0.22358 0.0
C1272 C 0.6445 0.5479 0.46976 0.0
C1273 C 0.65208 0.55056 0.4365 0.0
C1274 C 0.6536 0.54509 0.32163 0.0
C1275 C 0.68 0.55964 0.25774 0.0
C1276 C 0.67225 0.55467 0.29427 0.0
C1277 C 0.64973 0.54352 0.40109 0.0
C1278 C 0.65748 0.54678 0.36431 0.0
H1279 H 0.68338 0.57442 0.16656 0.0
H1280 H 0.67031 0.5654 0.22455 0.0
H1281 H 0.65766 0.54766 0.25453 0.0
H1282 H 0.62444 0.52334 0.43156 0.0
H1283 H 0.63774 0.52795 0.37368 0.0
C1284 C 0.42868 0.11646 0.19072 0.0
C1285 C 0.42951 0.1268 0.18997 0.0
C1286 C 0.43358 0.1137 0.22374 0.0
C1287 C 0.44269 0.12071 0.33601 0.0
H1288 H 0.45607 0.10292 0.31565 0.0
C1289 C 0.4493 0.09657 0.47079 0.0
C1290 C 0.45891 0.09593 0.47014 0.0
C1291 C 0.44687 0.10151 0.4369 0.0
C1292 C 0.45248 0.108 0.32184 0.0
H1293 H 0.43648 0.14247 0.22258 0.0
H1294 H 0.44509 0.13765 0.27995 0.0
H1295 H 0.45008 0.10949 0.25452 0.0
H1296 H 0.47367 0.10027 0.43379 0.0
H1297 H 0.46943 0.10895 0.37471 0.0
H1298 H 0.44506 0.1192 0.4033 0.0
C1299 C 0.44051 0.13164 0.25532 0.0
C1300 C 0.44894 0.11166 0.28685 0.0
C1301 C 0.43562 0.13441 0.22229 0.0
C1302 C 0.46617 0.10058 0.43526 0.0
C1303 C 0.46372 0.1055 0.40128 0.0
C1304 C 0.4462 0.11703 0.37098 0.0
C1305 C 0.43942 0.1212 0.25675 0.0
C1306 C 0.44389 0.11794 0.29358 0.0
C1307 C 0.45399 0.10592 0.40152 0.0
C1308 C 0.45101 0.11051 0.36431 0.0
H1309 H 0.42403 0.1104 0.16634 0.0
H1310 H 0.43249 0.10555 0.22416 0.0
H1311 H 0.43874 0.12545 0.34232 0.0
H1312 H 0.44352 0.09307 0.49713 0.0
H1313 H 0.43924 0.10158 0.43782 0.0
C1314 C 0.42333 0.31109 0.19842 0.0
C1315 C 0.42839 0.30523 0.18444 0.0
C1316 C 0.42772 0.31843 0.23271 0.0
C1317 C 0.45128 0.33743 0.28878 0.0
H1318 H 0.43421 0.32858 0.3942 0.0
C1319 C 0.4661 0.36393 0.44324 0.0
C1320 C 0.4581 0.36433 0.46877 0.0
C1321 C 0.46308 0.35642 0.40937 0.0
C1322 C 0.43902 0.33128 0.36493 0.0
H1323 H 0.44224 0.3028 0.19412 0.0
H1324 H 0.45011 0.31601 0.25345 0.0
H1325 H 0.42789 0.31659 0.33142 0.0
H1326 H 0.44065 0.35727 0.47861 0.0
H1327 H 0.43538 0.34457 0.4188 0.0
H1328 H 0.46214 0.35236 0.32106 0.0
C1329 C 0.44267 0.31472 0.23806 0.0
C1330 C 0.43543 0.32436 0.32919 0.0
C1331 C 0.43816 0.30718 0.20432 0.0
C1332 C 0.44703 0.35708 0.45984 0.0
C1333 C 0.444 0.34973 0.42559 0.0
C1334 C 0.45479 0.34449 0.32429 0.0
C1335 C 0.43735 0.32023 0.25291 0.0
C1336 C 0.44149 0.32742 0.29088 0.0
C1337 C 0.45198 0.34927 0.39985 0.0
C1338 C 0.44864 0.34155 0.36275 0.0
H1339 H 0.41577 0.30971 0.1839 0.0
H1340 H 0.42352 0.32263 0.24384 0.0
H1341 H 0.45604 0.33992 0.2593 0.0
H1342 H 0.47471 0.36939 0.44955 0.0
H1343 H 0.46946 0.3562 0.39081 0.0
C1344 C 0.68791 0.11597 0.19293 0.0
C1345 C 0.69752 0.12623 0.19296 0.0
C1346 C 0.6804 0.11296 0.22662 0.0
C1347 C 0.67132 0.12345 0.31676 0.0
H1348 H 0.66124 0.0946 0.3647 0.0
C1349 C 0.63608 0.1024 0.44157 0.0
C1350 C 0.63757 0.09653 0.47497 0.0
C1351 C 0.64373 0.10695 0.40818 0.0
C1352 C 0.66403 0.10271 0.35187 0.0
H1353 H 0.70654 0.14156 0.22766 0.0
H1354 H 0.69337 0.13628 0.2866 0.0
H1355 H 0.67365 0.10074 0.30332 0.0
H1356 H 0.64851 0.09125 0.50036 0.0
H1357 H 0.66179 0.09918 0.44221 0.0
H1358 H 0.66168 0.12539 0.36572 0.0
C1359 C 0.69168 0.13058 0.26036 0.0
C1360 C 0.67104 0.10617 0.31641 0.0
C1361 C 0.69924 0.13358 0.22671 0.0
C1362 C 0.64706 0.09564 0.47502 0.0
C1363 C 0.65465 0.10014 0.4416 0.0
C1364 C 0.66421 0.11994 0.35215 0.0
C1365 C 0.68229 0.12017 0.26104 0.0
C1366 C 0.67475 0.11657 0.29845 0.0
C1367 C 0.65297 0.10567 0.40744 0.0
C1368 C 0.66054 0.10954 0.37013 0.0
H1369 H 0.68628 0.11013 0.16734 0.0
H1370 H 0.67315 0.10494 0.22598 0.0
H1371 H 0.67402 0.13149 0.30342 0.0
H1372 H 0.62889 0.10326 0.44062 0.0
H1373 H 0.6422 0.11113 0.38214 0.0
C1374 C 0.89468 0.52982 0.44109 0.0
C1375 C 0.90088 0.53817 0.47084 0.0
C1376 C 0.88848 0.53132 0.40949 0.0
C1377 C 0.87758 0.54948 0.37741 0.0
H1378 H 0.88064 0.5411 0.2614 0.0
C1379 C 0.87853 0.56513 0.1948 0.0
C1380 C 0.86964 0.56698 0.19558 0.0
C1381 C 0.88005 0.55936 0.22797 0.0
C1382 C 0.87969 0.54348 0.29362 0.0
H1383 H 0.90517 0.55451 0.49153 0.0
H1384 H 0.89462 0.55721 0.43608 0.0
H1385 H 0.88756 0.53546 0.32213 0.0
H1386 H 0.85509 0.56379 0.23103 0.0
H1387 H 0.85771 0.55359 0.28896 0.0
H1388 H 0.87033 0.55808 0.3486 0.0
C1389 C 0.89435 0.54942 0.4375 0.0
C1390 C 0.88354 0.54012 0.32853 0.0
C1391 C 0.90049 0.54791 0.46913 0.0
C1392 C 0.86206 0.56256 0.22958 0.0
C1393 C 0.86358 0.55676 0.26286 0.0
C1394 C 0.87379 0.55288 0.34246 0.0
C1395 C 0.88839 0.54121 0.40691 0.0
C1396 C 0.88282 0.54336 0.37073 0.0
C1397 C 0.8727 0.55525 0.26275 0.0
C1398 C 0.87509 0.55019 0.30006 0.0
H1399 H 0.89473 0.52218 0.44174 0.0
H1400 H 0.88387 0.52478 0.38676 0.0
H1401 H 0.87672 0.55194 0.40959 0.0
H1402 H 0.88452 0.56839 0.1691 0.0
H1403 H 0.88726 0.55852 0.22714 0.0
C1404 C 0.5289 0.63473 0.55734 0.0
C1405 C 0.53719 0.63692 0.5272 0.0
C1406 C 0.53047 0.64239 0.58922 0.0
C1407 C 0.53953 0.65609 0.67027 0.0
H1408 H 0.55731 0.68727 0.65022 0.0
C1409 C 0.565 0.68613 0.80328 0.0
C1410 C 0.56681 0.69685 0.80277 0.0
C1411 C 0.55911 0.67883 0.7703 0.0
C1412 C 0.55216 0.67861 0.65638 0.0
H1413 H 0.55348 0.64902 0.50609 0.0
H1414 H 0.55628 0.6622 0.56194 0.0
H1415 H 0.55097 0.67476 0.58915 0.0
H1416 H 0.56342 0.70817 0.76808 0.0
H1417 H 0.55301 0.69534 0.71053 0.0
H1418 H 0.54076 0.65993 0.7375 0.0
C1419 C 0.5485 0.65467 0.56066 0.0
C1420 C 0.54864 0.67142 0.62137 0.0
C1421 C 0.54692 0.64705 0.52879 0.0
C1422 C 0.56223 0.69998 0.76929 0.0
C1423 C 0.55631 0.69265 0.73623 0.0
C1424 C 0.543 0.66327 0.70525 0.0
C1425 C 0.54036 0.65238 0.59164 0.0
C1426 C 0.54259 0.66006 0.628 0.0
C1427 C 0.55484 0.68204 0.73602 0.0
C1428 C 0.54965 0.67459 0.6988 0.0
H1429 H 0.52127 0.62704 0.55682 0.0
H1430 H 0.52399 0.64043 0.61229 0.0
H1431 H 0.53492 0.64739 0.67661 0.0
H1432 H 0.56839 0.68342 0.82857 0.0
H1433 H 0.5583 0.67079 0.77086 0.0
C1434 C 0.31257 0.8795 0.80451 0.0
C1435 C 0.30226 0.86996 0.80415 0.0
C1436 C 0.32011 0.8815 0.77172 0.0
C1437 C 0.32138 0.87469 0.65845 0.0
H1438 H 0.35258 0.8903 0.68056 0.0
C1439 C 0.35291 0.90033 0.52904 0.0
C1440 C 0.36318 0.901 0.52904 0.0
C1441 C 0.34531 0.89463 0.56148 0.0
C1442 C 0.3439 0.88578 0.67376 0.0
H1443 H 0.29192 0.85486 0.76972 0.0
H1444 H 0.30516 0.85833 0.71256 0.0
H1445 H 0.33984 0.88356 0.74088 0.0
H1446 H 0.37335 0.89585 0.56233 0.0
H1447 H 0.36001 0.88578 0.61879 0.0
H1448 H 0.32544 0.87692 0.59132 0.0
C1449 C 0.30734 0.86432 0.73799 0.0
C1450 C 0.33659 0.88203 0.70837 0.0
C1451 C 0.29977 0.86232 0.77085 0.0
C1452 C 0.36554 0.89555 0.56152 0.0
C1453 C 0.35792 0.88982 0.59399 0.0
C1454 C 0.32869 0.8784 0.62382 0.0
C1455 C 0.31754 0.87401 0.73777 0.0
C1456 C 0.32525 0.8767 0.70114 0.0
C1457 C 0.34777 0.88942 0.59466 0.0
C1458 C 0.34003 0.88423 0.63109 0.0
H1459 H 0.31477 0.88558 0.82964 0.0
H1460 H 0.32781 0.88913 0.77224 0.0
H1461 H 0.3127 0.87066 0.6517 0.0
H1462 H 0.3508 0.90442 0.50454 0.0
H1463 H 0.33765 0.89464 0.56132 0.0
C1464 C 0.11452 0.42716 0.80462 0.0
C1465 C 0.12488 0.42803 0.80506 0.0
C1466 C 0.11152 0.43167 0.77094 0.0
C1467 C 0.12207 0.4517 0.68252 0.0
H1468 H 0.09349 0.43284 0.63247 0.0
C1469 C 0.10097 0.46609 0.55881 0.0
C1470 C 0.09539 0.45894 0.52448 0.0
C1471 C 0.10548 0.4629 0.59205 0.0
C1472 C 0.10152 0.43818 0.6459 0.0
H1473 H 0.14035 0.43468 0.77117 0.0
H1474 H 0.13507 0.44258 0.71226 0.0
H1475 H 0.09959 0.42637 0.69337 0.0
H1476 H 0.09054 0.44297 0.49741 0.0
H1477 H 0.09837 0.43745 0.55534 0.0
H1478 H 0.12396 0.4635 0.6347 0.0
C1479 C 0.12931 0.43841 0.73811 0.0
C1480 C 0.10496 0.43452 0.68107 0.0
C1481 C 0.1323 0.43383 0.77174 0.0
C1482 C 0.09472 0.44867 0.52345 0.0
C1483 C 0.09916 0.44547 0.55674 0.0
C1484 C 0.11858 0.45541 0.64744 0.0
C1485 C 0.11881 0.4372 0.73703 0.0
C1486 C 0.11526 0.44123 0.69979 0.0
C1487 C 0.10442 0.45248 0.59173 0.0
C1488 C 0.10828 0.44865 0.62872 0.0
H1489 H 0.10862 0.4228 0.82986 0.0
H1490 H 0.10343 0.43075 0.77126 0.0
H1491 H 0.13003 0.45706 0.69647 0.0
H1492 H 0.10167 0.47407 0.56053 0.0
H1493 H 0.10944 0.46845 0.61875 0.0
C1494 C 0.11898 0.68682 0.80112 0.0
C1495 C 0.12862 0.69706 0.80125 0.0
C1496 C 0.11707 0.67922 0.76874 0.0
C1497 C 0.12465 0.67758 0.6568 0.0
H1498 H 0.10849 0.64644 0.67989 0.0
C1499 C 0.09982 0.64599 0.52648 0.0
C1500 C 0.09895 0.63564 0.52763 0.0
C1501 C 0.10532 0.6536 0.55908 0.0
C1502 C 0.11316 0.6551 0.67285 0.0
H1503 H 0.14398 0.70717 0.76809 0.0
H1504 H 0.14069 0.69381 0.71169 0.0
H1505 H 0.11489 0.6593 0.73981 0.0
H1506 H 0.10354 0.62532 0.56323 0.0
H1507 H 0.11327 0.6387 0.62001 0.0
H1508 H 0.12293 0.67338 0.58984 0.0
C1509 C 0.13454 0.69175 0.73638 0.0
C1510 C 0.11671 0.66248 0.70722 0.0
C1511 C 0.13644 0.69939 0.76881 0.0
C1512 C 0.104 0.6332 0.5615 0.0
C1513 C 0.10954 0.64084 0.59414 0.0
C1514 C 0.12114 0.6702 0.62244 0.0
C1515 C 0.12477 0.68162 0.73572 0.0
C1516 C 0.12225 0.67381 0.69957 0.0
C1517 C 0.11013 0.65108 0.59359 0.0
C1518 C 0.11511 0.65888 0.63002 0.0
H1519 H 0.11277 0.68474 0.82557 0.0
H1520 H 0.10938 0.67158 0.76887 0.0
H1521 H 0.12884 0.68625 0.64971 0.0
H1522 H 0.09603 0.64816 0.5009 0.0
H1523 H 0.10546 0.66133 0.55794 0.0
C1524 C 0.31176 0.43356 0.80168 0.0
C1525 C 0.30132 0.43248 0.80053 0.0
C1526 C 0.31927 0.43898 0.76867 0.0
C1527 C 0.32021 0.44585 0.65417 0.0
H1528 H 0.35144 0.46214 0.67527 0.0
C1529 C 0.35167 0.45082 0.52606 0.0
C1530 C 0.36181 0.46056 0.52452 0.0
C1531 C 0.34413 0.44914 0.55841 0.0
C1532 C 0.34275 0.45778 0.66872 0.0
H1533 H 0.29075 0.43668 0.76459 0.0
H1534 H 0.30393 0.44626 0.70705 0.0
H1535 H 0.3388 0.45663 0.73586 0.0
H1536 H 0.37179 0.47635 0.555 0.0
H1537 H 0.35853 0.47343 0.61133 0.0
H1538 H 0.32415 0.44696 0.58704 0.0
C1539 C 0.30623 0.44275 0.73326 0.0
C1540 C 0.3355 0.4545 0.70351 0.0
C1541 C 0.2987 0.4373 0.76634 0.0
C1542 C 0.36408 0.46872 0.5554 0.0
C1543 C 0.35651 0.46704 0.58779 0.0
C1544 C 0.32745 0.44915 0.61937 0.0
C1545 C 0.31653 0.4435 0.73373 0.0
C1546 C 0.32416 0.44826 0.6967 0.0
C1547 C 0.3465 0.45717 0.58997 0.0
C1548 C 0.33881 0.45491 0.62632 0.0
H1549 H 0.31407 0.42996 0.82752 0.0
H1550 H 0.32706 0.43926 0.76978 0.0
H1551 H 0.31153 0.441 0.64775 0.0
H1552 H 0.34964 0.44436 0.50282 0.0
H1553 H 0.33657 0.44137 0.55949 0.0
C1554 C 0.56535 0.88038 0.81372 0.0
C1555 C 0.56971 0.87348 0.80712 0.0
C1556 C 0.56017 0.88259 0.77999 0.0
C1557 C 0.56141 0.88584 0.66515 0.0
H1558 H 0.5327 0.88295 0.67325 0.0
C1559 C 0.54398 0.8984 0.52309 0.0
C1560 C 0.53791 0.90351 0.53286 0.0
C1561 C 0.54664 0.89324 0.55543 0.0
C1562 C 0.54079 0.88396 0.67058 0.0
H1563 H 0.57191 0.86332 0.76031 0.0
H1564 H 0.56314 0.86746 0.70105 0.0
H1565 H 0.53962 0.87687 0.73301 0.0
H1566 H 0.52973 0.90714 0.58389 0.0
H1567 H 0.53481 0.89867 0.64073 0.0
H1568 H 0.563 0.89348 0.60423 0.0
C1569 C 0.56363 0.87103 0.73248 0.0
C1570 C 0.54469 0.88039 0.70471 0.0
C1571 C 0.56861 0.86865 0.7664 0.0
C1572 C 0.53436 0.90319 0.57541 0.0
C1573 C 0.53723 0.89826 0.60796 0.0
C1574 C 0.55763 0.88961 0.63145 0.0
C1575 C 0.55947 0.87809 0.73893 0.0
C1576 C 0.55504 0.88134 0.70226 0.0
C1577 C 0.54353 0.89332 0.59853 0.0
C1578 C 0.54728 0.88877 0.6337 0.0
H1579 H 0.56604 0.88418 0.84481 0.0
H1580 H 0.55707 0.88812 0.78556 0.0
H1581 H 0.56949 0.88678 0.66284 0.0
H1582 H 0.54671 0.89841 0.49041 0.0
H1583 H 0.55123 0.88929 0.54656 0.0
C1584 C 0.37549 0.12218 0.16323 0.0
C1585 C 0.37897 0.12082 0.12245 0.0
C1586 C 0.36437 0.11721 0.17297 0.0
C1587 C 0.33711 0.09525 0.13398 0.0
H1588 H 0.32655 0.1082 0.21776 0.0
C1589 C 0.29133 0.07992 0.16845 0.0
C1590 C 0.28828 0.07599 0.21079 0.0
C1591 C 0.30236 0.08603 0.15706 0.0
C1592 C 0.32943 0.10453 0.19431 0.0
H1593 H 0.37355 0.11353 0.05931 0.0
H1594 H 0.35414 0.10535 0.07528 0.0
H1595 H 0.34581 0.1179 0.19718 0.0
H1596 H 0.29435 0.07572 0.27475 0.0
H1597 H 0.3137 0.0868 0.25498 0.0
H1598 H 0.32053 0.08209 0.13022 0.0
C1599 C 0.35995 0.10986 0.10056 0.0
C1600 C 0.34048 0.11001 0.1827 0.0
C1601 C 0.3711 0.11463 0.09118 0.0
C1602 C 0.29647 0.07863 0.24188 0.0
C1603 C 0.30751 0.08497 0.23068 0.0
C1604 C 0.32603 0.08992 0.14487 0.0
C1605 C 0.35641 0.11096 0.14182 0.0
C1606 C 0.34452 0.10539 0.15271 0.0
C1607 C 0.31051 0.08855 0.18803 0.0
C1608 C 0.32214 0.09446 0.1754 0.0
H1609 H 0.38139 0.12683 0.18815 0.0
H1610 H 0.36205 0.11809 0.20538 0.0
H1611 H 0.33986 0.09126 0.11156 0.0
H1612 H 0.2852 0.07796 0.14375 0.0
H1613 H 0.30453 0.08873 0.12398 0.0
C1614 C 0.89196 0.26371 0.10781 0.0
C1615 C 0.88191 0.26078 0.12761 0.0
C1616 C 0.89744 0.25802 0.11714 0.0
C1617 C 0.89341 0.23204 0.16329 0.0
H1618 H 0.92493 0.2485 0.17575 0.0
C1619 C 0.93137 0.22589 0.2264 0.0
C1620 C 0.92846 0.21582 0.20688 0.0
C1621 C 0.92547 0.23119 0.21762 0.0
C1622 C 0.91612 0.24378 0.17281 0.0
H1623 H 0.86971 0.24948 0.17258 0.0
H1624 H 0.87935 0.23968 0.18932 0.0
H1625 H 0.91505 0.25804 0.15889 0.0
H1626 H 0.917 0.20338 0.16303 0.0
H1627 H 0.90685 0.2127 0.14724 0.0
H1628 H 0.89445 0.21781 0.17832 0.0
C1629 C 0.88292 0.24627 0.16605 0.0
C1630 C 0.91046 0.24924 0.16252 0.0
C1631 C 0.87741 0.25194 0.15659 0.0
C1632 C 0.91945 0.21111 0.17877 0.0
C1633 C 0.91358 0.21643 0.16987 0.0
C1634 C 0.89906 0.22658 0.17371 0.0
C1635 C 0.89304 0.24928 0.14664 0.0
C1636 C 0.89904 0.24344 0.15754 0.0
C1637 C 0.91655 0.22657 0.18899 0.0
C1638 C 0.91049 0.23238 0.17853 0.0
H1639 H 0.89564 0.27044 0.08516 0.0
H1640 H 0.90513 0.26044 0.10103 0.0
H1641 H 0.88462 0.2273 0.1593 0.0
H1642 H 0.93823 0.22972 0.24839 0.0
H1643 H 0.92787 0.2389 0.23347 0.0
C1644 C 0.74631 0.62578 0.1414 0.0
C1645 C 0.73756 0.62147 0.11198 0.0
C1646 C 0.75224 0.637 0.14971 0.0
C1647 C 0.74982 0.66177 0.14364 0.0
H1648 H 0.78113 0.67678 0.16287 0.0
C1649 C 0.78811 0.70857 0.16794 0.0
C1650 C 0.78328 0.71258 0.19693 0.0
C1651 C 0.78276 0.6975 0.15679 0.0
C1652 C 0.7724 0.67274 0.15725 0.0
H1653 H 0.72839 0.62565 0.06731 0.0
H1654 H 0.73884 0.64523 0.08138 0.0
H1655 H 0.77155 0.65753 0.14256 0.0
H1656 H 0.76912 0.70801 0.23748 0.0
H1657 H 0.75989 0.68871 0.21851 0.0
H1658 H 0.75068 0.67701 0.15757 0.0
C1659 C 0.74099 0.6399 0.0986 0.0
C1660 C 0.76689 0.66167 0.14606 0.0
C1661 C 0.73504 0.62868 0.09034 0.0
C1662 C 0.77305 0.70523 0.21489 0.0
C1663 C 0.76772 0.69416 0.20379 0.0
C1664 C 0.75533 0.67283 0.15479 0.0
C1665 C 0.74958 0.64418 0.12874 0.0
C1666 C 0.75553 0.65604 0.13928 0.0
C1667 C 0.77248 0.69017 0.1744 0.0
C1668 C 0.76667 0.67844 0.16195 0.0
H1669 H 0.74847 0.62047 0.15872 0.0
H1670 H 0.75872 0.64 0.17347 0.0
H1671 H 0.74105 0.65767 0.13916 0.0
H1672 H 0.79597 0.714 0.1534 0.0
H1673 H 0.7866 0.69472 0.13371 0.0
C1674 C 0.08077 0.2911 0.82277 0.0
C1675 C 0.07179 0.2871 0.79453 0.0
C1676 C 0.08663 0.30219 0.83357 0.0
C1677 C 0.08408 0.32694 0.83692 0.0
H1678 H 0.11564 0.34201 0.8478 0.0
C1679 C 0.12236 0.37384 0.85276 0.0
C1680 C 0.11801 0.37801 0.88319 0.0
C1681 C 0.11702 0.36267 0.84343 0.0
C1682 C 0.10684 0.33794 0.84467 0.0
H1683 H 0.06206 0.2917 0.75494 0.0
H1684 H 0.07238 0.31104 0.77336 0.0
H1685 H 0.10578 0.32282 0.82648 0.0
H1686 H 0.10476 0.3736 0.92868 0.0
H1687 H 0.09554 0.35411 0.91283 0.0
H1688 H 0.08514 0.3421 0.85408 0.0
C1689 C 0.07477 0.30557 0.7877 0.0
C1690 C 0.10117 0.32691 0.83288 0.0
C1691 C 0.0689 0.29448 0.77692 0.0
C1692 C 0.10833 0.37069 0.9049 0.0
C1693 C 0.10299 0.35952 0.89559 0.0
C1694 C 0.08974 0.33796 0.84869 0.0
C1695 C 0.08367 0.30954 0.81638 0.0
C1696 C 0.08972 0.32128 0.82879 0.0
C1697 C 0.10719 0.35539 0.86434 0.0
C1698 C 0.10119 0.3436 0.85268 0.0
H1699 H 0.08322 0.28566 0.83704 0.0
H1700 H 0.09336 0.30495 0.85613 0.0
H1701 H 0.07525 0.32283 0.83459 0.0
H1702 H 0.12979 0.37924 0.83536 0.0
H1703 H 0.12042 0.35979 0.81887 0.0
C1704 C 0.70597 0.77016 0.78944 0.0
C1705 C 0.71206 0.78164 0.79023 0.0
C1706 C 0.69482 0.76466 0.79916 0.0
C1707 C 0.67054 0.76741 0.79968 0.0
H1708 H 0.65974 0.74482 0.88736 0.0
C1709 C 0.62611 0.74731 0.86133 0.0
C1710 C 0.6208 0.73616 0.87198 0.0
C1711 C 0.63729 0.75298 0.85205 0.0
C1712 C 0.66255 0.75097 0.86229 0.0
H1713 H 0.71117 0.79636 0.80077 0.0
H1714 H 0.6916 0.78671 0.81674 0.0
H1715 H 0.67905 0.75428 0.86806 0.0
H1716 H 0.62302 0.72217 0.88088 0.0
H1717 H 0.64237 0.7319 0.86313 0.0
H1718 H 0.65407 0.76393 0.79265 0.0
C1719 C 0.69551 0.782 0.80899 0.0
C1720 C 0.67363 0.75642 0.85144 0.0
C1721 C 0.70671 0.78751 0.80003 0.0
C1722 C 0.6269 0.73079 0.87317 0.0
C1723 C 0.63804 0.73641 0.86321 0.0
C1724 C 0.65942 0.76184 0.80998 0.0
C1725 C 0.6895 0.77053 0.80908 0.0
C1726 C 0.67773 0.7647 0.82014 0.0
C1727 C 0.6434 0.74759 0.85251 0.0
C1728 C 0.65527 0.75355 0.84154 0.0
H1729 H 0.70986 0.76541 0.78215 0.0
H1730 H 0.69033 0.75581 0.79874 0.0
H1731 H 0.6735 0.77371 0.77514 0.0
H1732 H 0.62164 0.7517 0.86046 0.0
H1733 H 0.64114 0.76162 0.84486 0.0
C1734 C 0.21199 0.91927 0.81617 0.0
C1735 C 0.21637 0.92735 0.78394 0.0
C1736 C 0.21701 0.91318 0.82647 0.0
C1737 C 0.2437 0.91452 0.82002 0.0
H1738 H 0.22694 0.88364 0.84746 0.0
C1739 C 0.25147 0.87602 0.84862 0.0
C1740 C 0.26076 0.88106 0.8753 0.0
C1741 C 0.24568 0.88136 0.83845 0.0
C1742 C 0.23174 0.89225 0.83965 0.0
H1743 H 0.22929 0.9351 0.73629 0.0
H1744 H 0.23794 0.92439 0.7539 0.0
H1745 H 0.21748 0.89333 0.8254 0.0
H1746 H 0.27106 0.89556 0.91313 0.0
H1747 H 0.26089 0.9048 0.89577 0.0
H1748 H 0.25797 0.91343 0.83344 0.0
C1749 C 0.23073 0.9229 0.77175 0.0
C1750 C 0.22631 0.89782 0.82741 0.0
C1751 C 0.22572 0.92899 0.76146 0.0
C1752 C 0.26398 0.89146 0.8923 0.0
C1753 C 0.25819 0.8968 0.88214 0.0
C1754 C 0.24912 0.90896 0.83228 0.0
C1755 C 0.22652 0.91503 0.80477 0.0
C1756 C 0.23224 0.90902 0.81738 0.0
C1757 C 0.24904 0.89186 0.85473 0.0
C1758 C 0.24321 0.89776 0.84225 0.0
H1759 H 0.2048 0.91779 0.83418 0.0
H1760 H 0.21361 0.90725 0.85233 0.0
H1761 H 0.24851 0.92318 0.81308 0.0
H1762 H 0.24875 0.86802 0.83491 0.0
H1763 H 0.23874 0.87737 0.81691 0.0
C1764 C 0.70854 0.92222 0.82589 0.0
C1765 C 0.71246 0.93082 0.79584 0.0
C1766 C 0.6975 0.91653 0.83736 0.0
C1767 C 0.67256 0.91889 0.83717 0.0
H1768 H 0.65789 0.88757 0.85539 0.0
C1769 C 0.62858 0.89486 0.90441 0.0
C1770 C 0.62154 0.88471 0.88516 0.0
C1771 C 0.63977 0.90037 0.89528 0.0
C1772 C 0.66184 0.89631 0.85017 0.0
H1773 H 0.70777 0.94006 0.7538 0.0
H1774 H 0.68847 0.93 0.77321 0.0
H1775 H 0.67703 0.89732 0.83395 0.0
H1776 H 0.62082 0.87233 0.84157 0.0
H1777 H 0.64024 0.88199 0.82524 0.0
H1778 H 0.65727 0.91783 0.85212 0.0
C1779 C 0.69399 0.92779 0.78855 0.0
C1780 C 0.67286 0.90192 0.83835 0.0
C1781 C 0.70504 0.93351 0.77718 0.0
C1782 C 0.62599 0.88012 0.85713 0.0
C1783 C 0.63716 0.88564 0.84792 0.0
C1784 C 0.66152 0.91327 0.84887 0.0
C1785 C 0.69009 0.91927 0.81895 0.0
C1786 C 0.67835 0.91329 0.8316 0.0
C1787 C 0.64419 0.89587 0.86661 0.0
C1788 C 0.65602 0.9019 0.85541 0.0
H1789 H 0.71403 0.91995 0.84106 0.0
H1790 H 0.69482 0.91011 0.86129 0.0
H1791 H 0.67656 0.92766 0.8328 0.0
H1792 H 0.62543 0.89862 0.92628 0.0
H1793 H 0.64498 0.90816 0.91077 0.0
C1794 C 0.07086 0.77614 0.77278 0.0
C1795 C 0.07341 0.78589 0.79429 0.0
C1796 C 0.07652 0.77063 0.78225 0.0
C1797 C 0.08478 0.7572 0.82797 0.0
H1798 H 0.11605 0.77308 0.84837 0.0
C1799 C 0.10758 0.73585 0.89287 0.0
C1800 C 0.11775 0.73879 0.87405 0.0
C1801 C 0.10238 0.74184 0.88411 0.0
C1802 C 0.10732 0.76852 0.84249 0.0
H1803 H 0.08402 0.79757 0.84231 0.0
H1804 H 0.0938 0.78789 0.85913 0.0
H1805 H 0.1067 0.78307 0.82934 0.0
H1806 H 0.13046 0.75045 0.83159 0.0
H1807 H 0.12132 0.7608 0.81596 0.0
H1808 H 0.08543 0.74264 0.84013 0.0
C1809 C 0.08751 0.78457 0.83455 0.0
C1810 C 0.10194 0.77425 0.83204 0.0
C1811 C 0.08186 0.79009 0.82504 0.0
C1812 C 0.12265 0.74796 0.84674 0.0
C1813 C 0.11744 0.75394 0.83794 0.0
C1814 C 0.09015 0.75147 0.83839 0.0
C1815 C 0.08485 0.77473 0.81351 0.0
C1816 C 0.09061 0.76866 0.82458 0.0
C1817 C 0.1072 0.75091 0.85627 0.0
C1818 C 0.10149 0.75706 0.84575 0.0
H1819 H 0.06444 0.77269 0.74877 0.0
H1820 H 0.07439 0.76317 0.76493 0.0
H1821 H 0.07602 0.75265 0.82296 0.0
H1822 H 0.10359 0.72887 0.91422 0.0
H1823 H 0.09459 0.73939 0.89931 0.0
C1824 C 0.21241 0.29263 0.81278 0.0
C1825 C 0.21718 0.28859 0.78373 0.0
C1826 C 0.21747 0.30379 0.82187 0.0
C1827 C 0.22698 0.32838 0.8193 0.0
H1828 H 0.25847 0.3444 0.8334 0.0
C1829 C 0.25157 0.37532 0.84063 0.0
C1830 C 0.26041 0.37963 0.86959 0.0
C1831 C 0.24607 0.36421 0.83017 0.0
C1832 C 0.24966 0.34003 0.82995 0.0
H1833 H 0.23092 0.29319 0.74065 0.0
H1834 H 0.23965 0.31269 0.75603 0.0
H1835 H 0.24929 0.32509 0.8146 0.0
H1836 H 0.27023 0.37554 0.91107 0.0
H1837 H 0.26052 0.35615 0.89338 0.0
H1838 H 0.22734 0.34326 0.83578 0.0
C1839 C 0.23208 0.30719 0.77237 0.0
C1840 C 0.24441 0.32899 0.81856 0.0
C1841 C 0.22703 0.29601 0.76333 0.0
C1842 C 0.26349 0.37252 0.88846 0.0
C1843 C 0.25797 0.36141 0.87809 0.0
C1844 C 0.23224 0.33943 0.83076 0.0
C1845 C 0.22741 0.3112 0.80206 0.0
C1846 C 0.23301 0.32302 0.81317 0.0
C1847 C 0.24926 0.35713 0.8485 0.0
C1848 C 0.24364 0.34538 0.83633 0.0
H1849 H 0.20484 0.28715 0.82919 0.0
H1850 H 0.21371 0.30658 0.84529 0.0
H1851 H 0.2182 0.32406 0.815 0.0
H1852 H 0.249 0.38056 0.82537 0.0
H1853 H 0.23947 0.36122 0.80691 0.0
C1854 C 0.93456 0.70527 0.21459 0.0
C1855 C 0.92951 0.71164 0.2113 0.0
C1856 C 0.92879 0.69414 0.20462 0.0
C1857 C 0.90377 0.67326 0.14751 0.0
H1858 H 0.91026 0.65314 0.20788 0.0
C1859 C 0.87792 0.62596 0.13446 0.0
C1860 C 0.88387 0.62068 0.12513 0.0
C1861 C 0.88334 0.63711 0.14426 0.0
C1862 C 0.90842 0.65869 0.19066 0.0
H1863 H 0.91436 0.71129 0.19616 0.0
H1864 H 0.90413 0.69178 0.18063 0.0
H1865 H 0.91969 0.67236 0.22839 0.0
H1866 H 0.90017 0.62294 0.11877 0.0
H1867 H 0.90962 0.64238 0.13694 0.0
H1868 H 0.8922 0.65939 0.11084 0.0
C1869 C 0.91266 0.69542 0.18944 0.0
C1870 C 0.91385 0.66973 0.20219 0.0
C1871 C 0.9185 0.7066 0.19868 0.0
C1872 C 0.89536 0.62679 0.12565 0.0
C1873 C 0.90076 0.63788 0.13627 0.0
C1874 C 0.89819 0.66218 0.13655 0.0
C1875 C 0.91776 0.68905 0.19185 0.0
C1876 C 0.91168 0.6772 0.18053 0.0
C1877 C 0.8948 0.64313 0.14573 0.0
C1878 C 0.90054 0.65483 0.15778 0.0
H1879 H 0.94307 0.70894 0.22381 0.0
H1880 H 0.9331 0.68961 0.20606 0.0
H1881 H 0.902 0.67876 0.12948 0.0
H1882 H 0.86906 0.62148 0.13419 0.0
H1883 H 0.87857 0.64099 0.1516 0.0
C1884 C 0.37137 0.25644 0.09132 0.0
C1885 C 0.37962 0.25918 0.12225 0.0
C1886 C 0.36036 0.25 0.10273 0.0
C1887 C 0.34182 0.24468 0.18912 0.0
H1888 H 0.32237 0.21668 0.13621 0.0
C1889 C 0.29684 0.21932 0.24308 0.0
C1890 C 0.28899 0.21314 0.21172 0.0
C1891 C 0.30799 0.2242 0.23366 0.0
C1892 C 0.3276 0.22456 0.15088 0.0
H1893 H 0.38283 0.25732 0.18926 0.0
H1894 H 0.36353 0.24639 0.20939 0.0
H1895 H 0.3416 0.22671 0.11535 0.0
H1896 H 0.28662 0.20723 0.14588 0.0
H1897 H 0.30596 0.21616 0.1286 0.0
H1898 H 0.32791 0.243 0.22291 0.0
C1899 C 0.36564 0.24908 0.17628 0.0
C1900 C 0.33864 0.23024 0.13909 0.0
C1901 C 0.37665 0.25529 0.16468 0.0
C1902 C 0.2925 0.21187 0.17086 0.0
C1903 C 0.30363 0.21695 0.16109 0.0
C1904 C 0.33075 0.23915 0.20019 0.0
C1905 C 0.35743 0.24643 0.14543 0.0
C1906 C 0.34581 0.24032 0.15819 0.0
C1907 C 0.31156 0.22323 0.19228 0.0
C1908 C 0.32346 0.22899 0.18126 0.0
H1909 H 0.37343 0.2593 0.05837 0.0
H1910 H 0.35412 0.24807 0.07851 0.0
H1911 H 0.34723 0.25251 0.20394 0.0
H1912 H 0.29437 0.22036 0.27499 0.0
H1913 H 0.31379 0.22872 0.25897 0.0
C1914 C 0.74926 0.12353 0.14842 0.0
C1915 C 0.74082 0.11921 0.11759 0.0
C1916 C 0.75511 0.11822 0.15783 0.0
C1917 C 0.76983 0.10823 0.15653 0.0
H1918 H 0.75359 0.07661 0.16443 0.0
C1919 C 0.79093 0.0824 0.17607 0.0
C1920 C 0.78591 0.07322 0.2033 0.0
C1921 C 0.78567 0.08827 0.16605 0.0
C1922 C 0.75824 0.08544 0.16274 0.0
H1923 H 0.73217 0.10607 0.07153 0.0
H1924 H 0.74249 0.09691 0.08748 0.0
H1925 H 0.74409 0.08641 0.14563 0.0
H1926 H 0.77152 0.06317 0.2421 0.0
H1927 H 0.76244 0.07351 0.22512 0.0
H1928 H 0.78394 0.10726 0.17466 0.0
C1929 C 0.74443 0.1043 0.10499 0.0
C1930 C 0.75281 0.09106 0.15135 0.0
C1931 C 0.73857 0.1096 0.09564 0.0
C1932 C 0.7756 0.07017 0.22085 0.0
C1933 C 0.77036 0.07605 0.21089 0.0
C1934 C 0.77526 0.10261 0.16796 0.0
C1935 C 0.75269 0.10847 0.13657 0.0
C1936 C 0.75854 0.10252 0.14809 0.0
C1937 C 0.77528 0.08512 0.18308 0.0
C1938 C 0.76953 0.09114 0.17124 0.0
H1939 H 0.7512 0.13091 0.16603 0.0
H1940 H 0.76133 0.12159 0.18264 0.0
H1941 H 0.7745 0.11705 0.15395 0.0
H1942 H 0.79886 0.08497 0.16187 0.0
H1943 H 0.78965 0.09514 0.14414 0.0
C1944 C 0.04087 0.45604 0.48182 0.0
C1945 C 0.04508 0.45194 0.45047 0.0
C1946 C 0.02971 0.45051 0.49155 0.0
C1947 C 0.00525 0.42307 0.48513 0.0
H1948 H 0.9897 0.43857 0.5101 0.0
C1949 C 0.95813 0.4132 0.51191 0.0
C1950 C 0.95421 0.40405 0.53925 0.0
C1951 C 0.96923 0.41927 0.50146 0.0
C1952 C 0.9939 0.43411 0.50295 0.0
H1953 H 0.04076 0.43896 0.40377 0.0
H1954 H 0.0213 0.42941 0.42031 0.0
H1955 H 0.00888 0.4488 0.48879 0.0
H1956 H 0.95895 0.39425 0.57764 0.0
H1957 H 0.97832 0.40494 0.55981 0.0
H1958 H 0.99024 0.40837 0.49843 0.0
C1959 C 0.02666 0.4368 0.43796 0.0
C1960 C 0.00493 0.43998 0.49116 0.0
C1961 C 0.03781 0.44233 0.42827 0.0
C1962 C 0.96168 0.40122 0.55634 0.0
C1963 C 0.97278 0.4073 0.54591 0.0
C1964 C 0.99423 0.4172 0.49691 0.0
C1965 C 0.0225 0.44074 0.47012 0.0
C1966 C 0.01073 0.43453 0.48208 0.0
C1967 C 0.97667 0.41636 0.51812 0.0
C1968 C 0.98843 0.42264 0.50598 0.0
H1969 H 0.04623 0.46341 0.49962 0.0
H1970 H 0.0268 0.45371 0.51677 0.0
H1971 H 0.0095 0.41861 0.47892 0.0
H1972 H 0.95262 0.41561 0.49807 0.0
H1973 H 0.97193 0.42612 0.47957 0.0
C1974 C 0.59474 0.55655 0.56754 0.0
C1975 C 0.59204 0.54681 0.54561 0.0
C1976 C 0.58914 0.56215 0.55893 0.0
C1977 C 0.58118 0.57589 0.51374 0.0
H1978 H 0.54992 0.56055 0.49325 0.0
C1979 C 0.5592 0.59778 0.44586 0.0
C1980 C 0.54902 0.59506 0.46395 0.0
C1981 C 0.56423 0.59169 0.45583 0.0
C1982 C 0.55864 0.56497 0.49919 0.0
H1983 H 0.58115 0.53521 0.498 0.0
H1984 H 0.57147 0.54505 0.48264 0.0
H1985 H 0.5589 0.55024 0.51281 0.0
H1986 H 0.53613 0.58372 0.50657 0.0
H1987 H 0.54497 0.5732 0.52433 0.0
H1988 H 0.5809 0.59062 0.501 0.0
C1989 C 0.57784 0.54829 0.50688 0.0
C1990 C 0.56381 0.55905 0.50995 0.0
C1991 C 0.58343 0.54267 0.51556 0.0
C1992 C 0.54395 0.58604 0.49195 0.0
C1993 C 0.54899 0.57996 0.50197 0.0
C1994 C 0.57602 0.5818 0.50302 0.0
C1995 C 0.58071 0.55817 0.52811 0.0
C1996 C 0.57515 0.56444 0.51733 0.0
C1997 C 0.55922 0.58274 0.48418 0.0
C1998 C 0.56469 0.57642 0.49554 0.0
H1999 H 0.60129 0.55994 0.59107 0.0
H2000 H 0.59143 0.56963 0.57641 0.0
H2001 H 0.58994 0.58029 0.51866 0.0
H2002 H 0.56332 0.60465 0.42402 0.0
H2003 H 0.57203 0.59396 0.44104 0.0
C2004 C 0.45459 0.04079 0.5195 0.0
C2005 C 0.45001 0.045 0.54873 0.0
C2006 C 0.44929 0.02962 0.51027 0.0
C2007 C 0.42199 0.00484 0.51363 0.0
H2008 H 0.43838 0.98989 0.49517 0.0
C2009 C 0.41361 0.95808 0.49038 0.0
C2010 C 0.40472 0.95396 0.46166 0.0
C2011 C 0.41935 0.96918 0.50096 0.0
C2012 C 0.43367 0.99391 0.50053 0.0
H2013 H 0.43638 0.04068 0.59205 0.0
H2014 H 0.42722 0.02117 0.57646 0.0
H2015 H 0.44796 0.00908 0.51625 0.0
H2016 H 0.39505 0.95838 0.42083 0.0
H2017 H 0.40517 0.97776 0.43874 0.0
H2018 H 0.40767 0.98962 0.49885 0.0
C2019 C 0.43482 0.02655 0.56006 0.0
C2020 C 0.43918 0.00495 0.51217 0.0
C2021 C 0.44011 0.03773 0.56922 0.0
C2022 C 0.40182 0.96125 0.44322 0.0
C2023 C 0.40758 0.97236 0.45373 0.0
C2024 C 0.41648 0.9938 0.50207 0.0
C2025 C 0.43929 0.02237 0.53012 0.0
C2026 C 0.43341 0.01056 0.51877 0.0
C2027 C 0.41635 0.97645 0.48301 0.0
C2028 C 0.42225 0.9882 0.49526 0.0
H2029 H 0.46218 0.04615 0.503 0.0
H2030 H 0.45289 0.02672 0.48667 0.0
H2031 H 0.41731 0.00892 0.51793 0.0
H2032 H 0.41605 0.9527 0.50531 0.0
H2033 H 0.42598 0.97202 0.524 0.0
C2034 C 0.59612 0.0385 0.56733 0.0
C2035 C 0.59403 0.04604 0.54596 0.0
C2036 C 0.5902 0.02738 0.55695 0.0
C2037 C 0.5816 0.00588 0.50909 0.0
H2038 H 0.55051 0.99155 0.48537 0.0
C2039 C 0.55796 0.96214 0.43984 0.0
C2040 C 0.54765 0.95509 0.45796 0.0
C2041 C 0.56342 0.97332 0.44929 0.0
C2042 C 0.55918 0.99541 0.49213 0.0
H2043 H 0.58391 0.04774 0.49736 0.0
H2044 H 0.5737 0.02841 0.47903 0.0
H2045 H 0.56025 0.01072 0.50677 0.0
H2046 H 0.53494 0.95433 0.49969 0.0
H2047 H 0.54452 0.97374 0.51645 0.0
H2048 H 0.58049 0.99052 0.49543 0.0
C2049 C 0.57983 0.03106 0.50416 0.0
C2050 C 0.56479 0.00643 0.50397 0.0
C2051 C 0.58573 0.04217 0.51457 0.0
C2052 C 0.54286 0.95951 0.48507 0.0
C2053 C 0.54833 0.97067 0.49453 0.0
C2054 C 0.57599 0.99487 0.49726 0.0
C2055 C 0.58206 0.02355 0.52494 0.0
C2056 C 0.57606 0.0118 0.51267 0.0
C2057 C 0.55872 0.9777 0.47708 0.0
C2058 C 0.56471 0.98949 0.48869 0.0
H2059 H 0.60242 0.04118 0.59179 0.0
H2060 H 0.59201 0.02179 0.57406 0.0
H2061 H 0.59031 0.0098 0.51501 0.0
H2062 H 0.56187 0.95903 0.41871 0.0
H2063 H 0.57135 0.97853 0.43479 0.0
C2064 C 0.95891 0.54573 0.5048 0.0
C2065 C 0.95483 0.55052 0.53361 0.0
C2066 C 0.97006 0.55093 0.49504 0.0
C2067 C 0.99471 0.56072 0.49813 0.0
H2068 H 0.0106 0.59217 0.48323 0.0
C2069 C 0.0418 0.58564 0.483 0.0
C2070 C 0.04632 0.5945 0.4541 0.0
C2071 C 0.03058 0.58004 0.4917 0.0
C2072 C 0.00627 0.58337 0.48687 0.0
H2073 H 0.95935 0.56449 0.57522 0.0
H2074 H 0.97879 0.57347 0.5587 0.0
H2075 H 0.99118 0.58289 0.50008 0.0
H2076 H 0.04251 0.60423 0.41091 0.0
H2077 H 0.02296 0.59435 0.42556 0.0
H2078 H 0.00977 0.56118 0.48394 0.0
C2079 C 0.97334 0.56578 0.54305 0.0
C2080 C 0.99516 0.57806 0.49713 0.0
C2081 C 0.96219 0.56059 0.55273 0.0
C2082 C 0.03933 0.59749 0.43353 0.0
C2083 C 0.02811 0.59186 0.44214 0.0
C2084 C 0.00583 0.56603 0.48779 0.0
C2085 C 0.9774 0.56104 0.51392 0.0
C2086 C 0.98924 0.56667 0.50297 0.0
C2087 C 0.02362 0.58313 0.47164 0.0
C2088 C 0.01175 0.57743 0.48207 0.0
H2089 H 0.95348 0.538 0.48936 0.0
H2090 H 0.97288 0.54712 0.47205 0.0
H2091 H 0.99043 0.55195 0.50281 0.0
H2092 H 0.04694 0.58314 0.49953 0.0
H2093 H 0.02742 0.57344 0.51497 0.0
C2094 C 0.40119 0.43942 0.44165 0.0
C2095 C 0.40407 0.44983 0.45765 0.0
C2096 C 0.40742 0.43456 0.45207 0.0
C2097 C 0.41767 0.42351 0.5021 0.0
H2098 H 0.44933 0.44051 0.5064 0.0
C2099 C 0.44309 0.40562 0.57213 0.0
C2100 C 0.45244 0.40757 0.54888 0.0
C2101 C 0.43763 0.4113 0.56218 0.0
C2102 C 0.4405 0.43564 0.50513 0.0
H2103 H 0.4159 0.46336 0.49666 0.0
H2104 H 0.42667 0.45484 0.51511 0.0
H2105 H 0.43894 0.44924 0.48427 0.0
H2106 H 0.46358 0.4173 0.49779 0.0
H2107 H 0.45399 0.42712 0.48021 0.0
H2108 H 0.41921 0.40986 0.52206 0.0
C2109 C 0.41966 0.45048 0.49413 0.0
C2110 C 0.43454 0.44067 0.49285 0.0
C2111 C 0.41343 0.45533 0.48373 0.0
C2112 C 0.45641 0.4156 0.5164 0.0
C2113 C 0.45093 0.42126 0.5064 0.0
C2114 C 0.42362 0.41849 0.51439 0.0
C2115 C 0.41668 0.44 0.47871 0.0
C2116 C 0.42306 0.43466 0.49118 0.0
C2117 C 0.44137 0.41905 0.5287 0.0
C2118 C 0.4351 0.42449 0.51612 0.0
H2119 H 0.39406 0.43496 0.42132 0.0
H2120 H 0.40499 0.42654 0.43913 0.0
H2121 H 0.40884 0.41867 0.50166 0.0
H2122 H 0.43984 0.39955 0.59754 0.0
H2123 H 0.43041 0.40954 0.58054 0.0
C2124 C 0.23768 0.08326 0.19897 0.0
C2125 C 0.24188 0.08011 0.23362 0.0
C2126 C 0.23599 0.09212 0.20291 0.0
C2127 C 0.23466 0.11185 0.27773 0.0
H2128 H 0.24696 0.13117 0.17929 0.0
C2129 C 0.2445 0.1573 0.27123 0.0
C2130 C 0.24307 0.16103 0.23106 0.0
C2131 C 0.24269 0.14664 0.27553 0.0
C2132 C 0.24332 0.12581 0.20677 0.0
H2133 H 0.24692 0.08328 0.30059 0.0
H2134 H 0.24414 0.09903 0.30731 0.0
H2135 H 0.24661 0.11387 0.17994 0.0
H2136 H 0.23768 0.15629 0.16509 0.0
H2137 H 0.23423 0.13773 0.17284 0.0
H2138 H 0.23152 0.12404 0.30462 0.0
C2139 C 0.24207 0.09454 0.2772 0.0
C2140 C 0.24312 0.11588 0.20715 0.0
C2141 C 0.24367 0.08555 0.27334 0.0
C2142 C 0.23904 0.15371 0.19626 0.0
C2143 C 0.23711 0.14308 0.20066 0.0
C2144 C 0.23484 0.12188 0.27732 0.0
C2145 C 0.23859 0.09815 0.24145 0.0
C2146 C 0.23869 0.10871 0.24233 0.0
C2147 C 0.23933 0.13955 0.23979 0.0
C2148 C 0.23907 0.1289 0.24153 0.0
H2149 H 0.23605 0.07911 0.16816 0.0
H2150 H 0.23302 0.09452 0.17513 0.0
H2151 H 0.23122 0.1065 0.30534 0.0
H2152 H 0.2476 0.16279 0.29859 0.0
H2153 H 0.24447 0.14416 0.30611 0.0
C2154 C 0.84757 0.08751 0.19978 0.0
C2155 C 0.83998 0.08258 0.23337 0.0
C2156 C 0.85823 0.09572 0.20845 0.0
C2157 C 0.87386 0.11764 0.28434 0.0
H2158 H 0.89824 0.12057 0.21643 0.0
C2159 C 0.91554 0.15809 0.27662 0.0
C2160 C 0.91877 0.16155 0.23391 0.0
C2161 C 0.90718 0.14738 0.28515 0.0
C2162 C 0.89154 0.11984 0.23588 0.0
H2163 H 0.8377 0.08219 0.30263 0.0
H2164 H 0.85645 0.09679 0.31786 0.0
H2165 H 0.88101 0.10327 0.21636 0.0
H2166 H 0.91616 0.15641 0.16694 0.0
H2167 H 0.90177 0.13785 0.18174 0.0
H2168 H 0.88426 0.1344 0.30216 0.0
C2169 C 0.85408 0.09421 0.2848 0.0
C2170 C 0.88168 0.10995 0.23583 0.0
C2171 C 0.84339 0.08584 0.27611 0.0
C2172 C 0.91383 0.15401 0.20019 0.0
C2173 C 0.90564 0.14333 0.20871 0.0
C2174 C 0.88375 0.12756 0.2844 0.0
C2175 C 0.86158 0.0993 0.25093 0.0
C2176 C 0.8726 0.10888 0.25862 0.0
C2177 C 0.90209 0.13993 0.25116 0.0
C2178 C 0.89254 0.12889 0.25873 0.0
H2179 H 0.84522 0.08516 0.16651 0.0
H2180 H 0.86374 0.09958 0.18156 0.0
H2181 H 0.86699 0.11708 0.30206 0.0
H2182 H 0.9192 0.16375 0.30324 0.0
H2183 H 0.90462 0.14496 0.31819 0.0
C2184 C 0.91381 0.75504 0.26731 0.0
C2185 C 0.91816 0.7552 0.22634 0.0
C2186 C 0.90456 0.75622 0.27132 0.0
C2187 C 0.88079 0.75107 0.20637 0.0
H2188 H 0.87549 0.76794 0.29178 0.0
C2189 C 0.8447 0.75769 0.18758 0.0
C2190 C 0.8378 0.75543 0.22336 0.0
C2191 C 0.85501 0.75883 0.19241 0.0
C2192 C 0.87685 0.76313 0.26804 0.0
H2193 H 0.91684 0.7576 0.15798 0.0
H2194 H 0.90096 0.75985 0.16501 0.0
H2195 H 0.89291 0.76794 0.29228 0.0
H2196 H 0.83655 0.75325 0.29277 0.0
H2197 H 0.85471 0.75513 0.3012 0.0
H2198 H 0.8649 0.74624 0.18194 0.0
C2199 C 0.90443 0.7585 0.19393 0.0
C2200 C 0.88679 0.76313 0.26832 0.0
C2201 C 0.91356 0.75725 0.18992 0.0
C2202 C 0.84169 0.75495 0.2646 0.0
C2203 C 0.85207 0.75605 0.26944 0.0
C2204 C 0.87096 0.75108 0.20607 0.0
C2205 C 0.89958 0.7576 0.2344 0.0
C2206 C 0.88893 0.75727 0.23683 0.0
C2207 C 0.85867 0.75766 0.2331 0.0
C2208 C 0.86895 0.75728 0.23625 0.0
H2209 H 0.91721 0.75348 0.29594 0.0
H2210 H 0.90099 0.75551 0.30293 0.0
H2211 H 0.88204 0.7462 0.1825 0.0
H2212 H 0.84202 0.75829 0.15546 0.0
H2213 H 0.86002 0.76033 0.16396 0.0
C2214 C 0.08787 0.24209 0.81054 0.0
C2215 C 0.08316 0.244 0.77412 0.0
C2216 C 0.09704 0.2409 0.80645 0.0
C2217 C 0.11439 0.23593 0.73178 0.0
H2218 H 0.13662 0.253 0.81677 0.0
C2219 C 0.15941 0.24399 0.73196 0.0
C2220 C 0.1637 0.24395 0.77286 0.0
C2221 C 0.14896 0.24277 0.72817 0.0
C2222 C 0.13046 0.24809 0.79308 0.0
H2223 H 0.08399 0.24555 0.70445 0.0
H2224 H 0.10024 0.2436 0.6973 0.0
H2225 H 0.11951 0.25311 0.817 0.0
H2226 H 0.16011 0.2417 0.84135 0.0
H2227 H 0.14195 0.2394 0.83469 0.0
H2228 H 0.12555 0.23096 0.70793 0.0
C2229 C 0.09674 0.24297 0.729 0.0
C2230 C 0.12065 0.24815 0.7932 0.0
C2231 C 0.08747 0.24411 0.7331 0.0
C2232 C 0.15711 0.24195 0.80944 0.0
C2233 C 0.14671 0.24067 0.80566 0.0
C2234 C 0.1243 0.23586 0.73165 0.0
C2235 C 0.1018 0.24168 0.76586 0.0
C2236 C 0.11241 0.24192 0.76317 0.0
C2237 C 0.14267 0.24146 0.76523 0.0
C2238 C 0.13234 0.24179 0.76292 0.0
H2239 H 0.08465 0.24179 0.84254 0.0
H2240 H 0.10058 0.23965 0.83535 0.0
H2241 H 0.10819 0.23107 0.70817 0.0
H2242 H 0.16432 0.24551 0.7032 0.0
H2243 H 0.14604 0.2434 0.69659 0.0
C2244 C 0.75443 0.84169 0.73097 0.0
C2245 C 0.75387 0.83734 0.77234 0.0
C2246 C 0.75537 0.852 0.72624 0.0
C2247 C 0.74848 0.87005 0.78666 0.0
H2248 H 0.76757 0.89303 0.70773 0.0
C2249 C 0.75582 0.91298 0.80786 0.0
C2250 C 0.75451 0.91817 0.7716 0.0
C2251 C 0.75666 0.90362 0.80321 0.0
C2252 C 0.76212 0.88662 0.72956 0.0
H2253 H 0.75466 0.84069 0.84096 0.0
H2254 H 0.75644 0.85857 0.83272 0.0
H2255 H 0.76742 0.87554 0.70805 0.0
H2256 H 0.75367 0.91798 0.70173 0.0
H2257 H 0.75509 0.90142 0.6936 0.0
H2258 H 0.74322 0.88099 0.80859 0.0
C2259 C 0.75586 0.85396 0.80394 0.0
C2260 C 0.76204 0.87664 0.72974 0.0
C2261 C 0.75488 0.84372 0.80864 0.0
C2262 C 0.75465 0.91412 0.73026 0.0
C2263 C 0.75548 0.90468 0.72559 0.0
C2264 C 0.74858 0.87994 0.78653 0.0
C2265 C 0.75577 0.85808 0.76282 0.0
C2266 C 0.75539 0.86836 0.75911 0.0
C2267 C 0.75615 0.89917 0.76221 0.0
C2268 C 0.75558 0.88843 0.75878 0.0
H2269 H 0.7537 0.83695 0.70241 0.0
H2270 H 0.7553 0.855 0.69414 0.0
H2271 H 0.74303 0.86372 0.80878 0.0
H2272 H 0.75592 0.91596 0.84013 0.0
H2273 H 0.75743 0.89969 0.83195 0.0
C2274 C 0.15976 0.91601 0.73262 0.0
C2275 C 0.16402 0.92088 0.77285 0.0
C2276 C 0.1492 0.90691 0.72974 0.0
C2277 C 0.13029 0.88428 0.79865 0.0
H2278 H 0.10859 0.87775 0.70962 0.0
C2279 C 0.08803 0.84707 0.81522 0.0
C2280 C 0.08372 0.8402 0.77918 0.0
C2281 C 0.097 0.85754 0.81091 0.0
C2282 C 0.11462 0.87945 0.73447 0.0
H2283 H 0.16028 0.9207 0.8408 0.0
H2284 H 0.14192 0.90508 0.83565 0.0
H2285 H 0.1259 0.89524 0.70811 0.0
H2286 H 0.08501 0.83913 0.70988 0.0
H2287 H 0.10095 0.85751 0.7024 0.0
H2288 H 0.11927 0.86861 0.82487 0.0
C2289 C 0.14679 0.90803 0.80654 0.0
C2290 C 0.1245 0.88944 0.73362 0.0
C2291 C 0.15729 0.91701 0.80946 0.0
C2292 C 0.08819 0.84425 0.73823 0.0
C2293 C 0.09729 0.85477 0.73394 0.0
C2294 C 0.12051 0.87438 0.79946 0.0
C2295 C 0.14277 0.90261 0.76703 0.0
C2296 C 0.13236 0.89201 0.76617 0.0
C2297 C 0.10198 0.86139 0.77053 0.0
C2298 C 0.11248 0.87189 0.76785 0.0
H2299 H 0.16478 0.91883 0.70387 0.0
H2300 H 0.14632 0.9029 0.69885 0.0
H2301 H 0.1363 0.88585 0.82347 0.0
H2302 H 0.08465 0.84425 0.84711 0.0
H2303 H 0.10024 0.86254 0.83956 0.0
C2304 C 0.91144 0.41956 0.60075 0.0
C2305 C 0.9111 0.41511 0.5598 0.0
C2306 C 0.9105 0.42895 0.60474 0.0
C2307 C 0.91607 0.45284 0.53997 0.0
H2308 H 0.89915 0.45836 0.62444 0.0
C2309 C 0.90999 0.48929 0.52037 0.0
C2310 C 0.91198 0.49607 0.55633 0.0
C2311 C 0.90884 0.47897 0.52516 0.0
C2312 C 0.90398 0.45694 0.60098 0.0
H2313 H 0.90865 0.41646 0.49148 0.0
H2314 H 0.90686 0.43259 0.49851 0.0
H2315 H 0.89892 0.44083 0.62522 0.0
H2316 H 0.91371 0.49712 0.62593 0.0
H2317 H 0.9118 0.47896 0.63431 0.0
H2318 H 0.92117 0.46879 0.51556 0.0
C2319 C 0.90814 0.42907 0.5274 0.0
C2320 C 0.90385 0.44694 0.60143 0.0
C2321 C 0.90913 0.41979 0.52341 0.0
C2322 C 0.91221 0.49207 0.59763 0.0
C2323 C 0.9111 0.48168 0.60244 0.0
C2324 C 0.9162 0.46275 0.53953 0.0
C2325 C 0.90919 0.43398 0.56784 0.0
C2326 C 0.90972 0.44472 0.57024 0.0
C2327 C 0.90973 0.47518 0.566 0.0
C2328 C 0.90999 0.46484 0.56935 0.0
H2329 H 0.91294 0.41611 0.62937 0.0
H2330 H 0.91132 0.43257 0.63632 0.0
H2331 H 0.92093 0.45151 0.51631 0.0
H2332 H 0.90959 0.49205 0.48817 0.0
H2333 H 0.90752 0.47404 0.4966 0.0
C2334 C 0.51245 0.41862 0.53189 0.0
C2335 C 0.50511 0.41382 0.56631 0.0
C2336 C 0.5232 0.42682 0.53941 0.0
C2337 C 0.53934 0.44881 0.61479 0.0
H2338 H 0.56328 0.45206 0.5431 0.0
C2339 C 0.58082 0.48936 0.60678 0.0
C2340 C 0.58395 0.49304 0.56422 0.0
C2341 C 0.57254 0.47858 0.61478 0.0
C2342 C 0.5567 0.45125 0.56354 0.0
H2343 H 0.50336 0.41357 0.63585 0.0
H2344 H 0.52225 0.42809 0.64905 0.0
H2345 H 0.54608 0.43473 0.54364 0.0
H2346 H 0.58125 0.48821 0.4969 0.0
H2347 H 0.56696 0.46954 0.51076 0.0
H2348 H 0.54981 0.46551 0.63318 0.0
C2349 C 0.51963 0.42546 0.61622 0.0
C2350 C 0.54685 0.44134 0.56385 0.0
C2351 C 0.50885 0.41713 0.60868 0.0
C2352 C 0.579 0.48564 0.53006 0.0
C2353 C 0.57086 0.4749 0.53804 0.0
C2354 C 0.54921 0.45875 0.61451 0.0
C2355 C 0.52687 0.43049 0.58154 0.0
C2356 C 0.53792 0.44014 0.58816 0.0
C2357 C 0.56739 0.47128 0.58038 0.0
C2358 C 0.55784 0.4602 0.58758 0.0
H2359 H 0.50983 0.41624 0.49887 0.0
H2360 H 0.5285 0.43062 0.51191 0.0
H2361 H 0.53259 0.44818 0.63366 0.0
H2362 H 0.58449 0.49489 0.63375 0.0
H2363 H 0.57005 0.476 0.64776 0.0
C2364 C 0.58074 0.0926 0.52047 0.0
C2365 C 0.58526 0.09057 0.55721 0.0
C2366 C 0.57158 0.09383 0.52392 0.0
C2367 C 0.55375 0.09842 0.5977 0.0
H2368 H 0.53187 0.08127 0.5117 0.0
C2369 C 0.50852 0.08957 0.59785 0.0
C2370 C 0.50406 0.08939 0.55711 0.0
C2371 C 0.51905 0.09098 0.60126 0.0
C2372 C 0.53793 0.08622 0.53563 0.0
H2373 H 0.58413 0.08888 0.62682 0.0
H2374 H 0.56791 0.09091 0.63284 0.0
H2375 H 0.54918 0.08159 0.51173 0.0
H2376 H 0.50741 0.09141 0.48842 0.0
H2377 H 0.52571 0.09407 0.49439 0.0
H2378 H 0.5423 0.10298 0.62157 0.0
C2379 C 0.57154 0.09161 0.60138 0.0
C2380 C 0.54786 0.0864 0.53566 0.0
C2381 C 0.5808 0.09043 0.59793 0.0
C2382 C 0.51054 0.09132 0.52023 0.0
C2383 C 0.52102 0.0928 0.52363 0.0
C2384 C 0.54373 0.09825 0.59764 0.0
C2385 C 0.56664 0.09296 0.56417 0.0
C2386 C 0.55597 0.09263 0.56617 0.0
C2387 C 0.52527 0.09227 0.56397 0.0
C2388 C 0.53579 0.09228 0.56608 0.0
H2389 H 0.58408 0.09292 0.48869 0.0
H2390 H 0.56816 0.09514 0.49477 0.0
H2391 H 0.55984 0.10327 0.62167 0.0
H2392 H 0.5037 0.08811 0.62683 0.0
H2393 H 0.52211 0.09053 0.6328 0.0
C2394 C 0.75149 0.57726 0.06285 0.0
C2395 C 0.74741 0.57757 0.10389 0.0
C2396 C 0.76083 0.57622 0.05887 0.0
C2397 C 0.78531 0.5829 0.12145 0.0
H2398 H 0.79006 0.56449 0.04194 0.0
C2399 C 0.82191 0.57713 0.14273 0.0
C2400 C 0.82833 0.57834 0.10632 0.0
C2401 C 0.81158 0.57598 0.13823 0.0
C2402 C 0.78886 0.56974 0.06396 0.0
H2403 H 0.74934 0.57616 0.17262 0.0
H2404 H 0.76541 0.57423 0.16565 0.0
H2405 H 0.77252 0.56422 0.04138 0.0
H2406 H 0.82872 0.57869 0.0364 0.0
H2407 H 0.81054 0.5768 0.02849 0.0
H2408 H 0.80149 0.58847 0.14416 0.0
C2409 C 0.76162 0.57506 0.1366 0.0
C2410 C 0.77884 0.56959 0.06365 0.0
C2411 C 0.75238 0.57613 0.14056 0.0
C2412 C 0.82395 0.5778 0.06504 0.0
C2413 C 0.81356 0.5767 0.06051 0.0
C2414 C 0.79523 0.58307 0.12171 0.0
C2415 C 0.76618 0.57548 0.09589 0.0
C2416 C 0.77691 0.576 0.09315 0.0
C2417 C 0.80742 0.5761 0.09721 0.0
C2418 C 0.79705 0.57632 0.09374 0.0
H2419 H 0.74781 0.57834 0.03401 0.0
H2420 H 0.76417 0.57655 0.02708 0.0
H2421 H 0.78418 0.58817 0.1437 0.0
H2422 H 0.82496 0.57733 0.17497 0.0
H2423 H 0.80694 0.57526 0.16709 0.0
C2424 C 0.42774 0.18026 0.13932 0.0
C2425 C 0.42426 0.17309 0.10397 0.0
C2426 C 0.42943 0.1908 0.13508 0.0
C2427 C 0.43229 0.2122 0.05835 0.0
H2428 H 0.4194 0.21971 0.15331 0.0
C2429 C 0.42381 0.24879 0.06041 0.0
C2430 C 0.42534 0.25412 0.10027 0.0
C2431 C 0.42521 0.23967 0.05696 0.0
C2432 C 0.42318 0.21784 0.12679 0.0
H2433 H 0.42042 0.17154 0.03574 0.0
H2434 H 0.42316 0.19004 0.02844 0.0
H2435 H 0.41907 0.20242 0.15419 0.0
H2436 H 0.43046 0.2547 0.16665 0.0
H2437 H 0.4331 0.23904 0.16044 0.0
H2438 H 0.43621 0.22771 0.0308 0.0
C2439 C 0.42469 0.18749 0.05936 0.0
C2440 C 0.423 0.2079 0.1273 0.0
C2441 C 0.4231 0.17691 0.06355 0.0
C2442 C 0.42904 0.25066 0.13567 0.0
C2443 C 0.43051 0.24165 0.13216 0.0
C2444 C 0.43245 0.22222 0.0578 0.0
C2445 C 0.42753 0.19442 0.0955 0.0
C2446 C 0.42767 0.205 0.09346 0.0
C2447 C 0.42821 0.23579 0.09329 0.0
C2448 C 0.42802 0.22518 0.09238 0.0
H2449 H 0.42888 0.17761 0.17074 0.0
H2450 H 0.43191 0.19603 0.16327 0.0
H2451 H 0.43594 0.21019 0.03177 0.0
H2452 H 0.42096 0.25129 0.03258 0.0
H2453 H 0.42338 0.23531 0.02658 0.0
C2454 C 0.75125 0.17581 0.05506 0.0
C2455 C 0.74786 0.1722 0.09751 0.0
C2456 C 0.75967 0.18654 0.04725 0.0
C2457 C 0.77561 0.21386 0.09857 0.0
H2458 H 0.79991 0.21643 0.03115 0.0
C2459 C 0.81987 0.24571 0.13413 0.0
C2460 C 0.82735 0.2507 0.10027 0.0
C2461 C 0.80915 0.23756 0.12572 0.0
C2462 C 0.79312 0.21593 0.04926 0.0
H2463 H 0.75021 0.17711 0.16474 0.0
H2464 H 0.76473 0.19569 0.15121 0.0
H2465 H 0.78247 0.19929 0.0305 0.0
H2466 H 0.82942 0.25126 0.03085 0.0
H2467 H 0.81058 0.23678 0.0161 0.0
H2468 H 0.7864 0.2303 0.11901 0.0
C2469 C 0.76094 0.19032 0.12387 0.0
C2470 C 0.78312 0.20611 0.04888 0.0
C2471 C 0.75266 0.17963 0.13167 0.0
C2472 C 0.82381 0.24756 0.05758 0.0
C2473 C 0.81307 0.23926 0.04915 0.0
C2474 C 0.78558 0.22365 0.09898 0.0
C2475 C 0.76469 0.19386 0.0817 0.0
C2476 C 0.77441 0.20484 0.07489 0.0
C2477 C 0.80566 0.23412 0.08325 0.0
C2478 C 0.79457 0.22465 0.07568 0.0
H2479 H 0.74771 0.17025 0.0281 0.0
H2480 H 0.76236 0.18905 0.0144 0.0
H2481 H 0.76897 0.2132 0.11828 0.0
H2482 H 0.82232 0.24797 0.16737 0.0
H2483 H 0.80371 0.23366 0.15277 0.0
C2484 C 0.57731 0.75482 0.85546 0.0
C2485 C 0.57861 0.74963 0.89176 0.0
C2486 C 0.57619 0.764 0.86012 0.0
C2487 C 0.57015 0.78057 0.93466 0.0
H2488 H 0.58863 0.80365 0.85493 0.0
C2489 C 0.5778 0.82548 0.93625 0.0
C2490 C 0.5782 0.82994 0.89527 0.0
C2491 C 0.57673 0.81509 0.94009 0.0
C2492 C 0.58334 0.79726 0.87717 0.0
H2493 H 0.57912 0.74963 0.96166 0.0
H2494 H 0.57726 0.76593 0.96984 0.0
H2495 H 0.5888 0.78658 0.85423 0.0
H2496 H 0.57691 0.8267 0.82648 0.0
H2497 H 0.57489 0.80867 0.83317 0.0
H2498 H 0.56472 0.79144 0.95744 0.0
C2499 C 0.57708 0.76279 0.93779 0.0
C2500 C 0.58344 0.78747 0.87678 0.0
C2501 C 0.57817 0.75349 0.93311 0.0
C2502 C 0.57681 0.82358 0.85849 0.0
C2503 C 0.5757 0.81325 0.86231 0.0
C2504 C 0.57005 0.79045 0.93508 0.0
C2505 C 0.5764 0.7683 0.90119 0.0
C2506 C 0.57668 0.77892 0.90476 0.0
C2507 C 0.57603 0.80905 0.90297 0.0
C2508 C 0.57648 0.79879 0.90559 0.0
H2509 H 0.57744 0.75195 0.82318 0.0
H2510 H 0.5754 0.76791 0.83134 0.0
H2511 H 0.56489 0.77411 0.95669 0.0
H2512 H 0.57884 0.83021 0.96516 0.0
H2513 H 0.57699 0.81203 0.97184 0.0
C2514 C 0.17921 0.753 0.86516 0.0
C2515 C 0.17176 0.748 0.89912 0.0
C2516 C 0.1899 0.76123 0.87339 0.0
C2517 C 0.20585 0.783 0.94958 0.0
H2518 H 0.23002 0.78596 0.88012 0.0
C2519 C 0.24776 0.82322 0.94344 0.0
C2520 C 0.25111 0.82684 0.90097 0.0
C2521 C 0.23929 0.81252 0.95126 0.0
C2522 C 0.22337 0.78523 0.89995 0.0
H2523 H 0.16974 0.74751 0.96855 0.0
H2524 H 0.18853 0.76213 0.98301 0.0
H2525 H 0.21269 0.76876 0.87969 0.0
H2526 H 0.24855 0.822 0.83365 0.0
H2527 H 0.23394 0.80347 0.8472 0.0
H2528 H 0.2164 0.79968 0.96824 0.0
C2529 C 0.18604 0.7596 0.95 0.0
C2530 C 0.21346 0.77539 0.89971 0.0
C2531 C 0.17532 0.75121 0.94175 0.0
C2532 C 0.24615 0.81947 0.86674 0.0
C2533 C 0.23782 0.80881 0.87454 0.0
C2534 C 0.21579 0.79288 0.94982 0.0
C2535 C 0.1934 0.76475 0.91579 0.0
C2536 C 0.20446 0.77431 0.92317 0.0
C2537 C 0.23417 0.80524 0.91677 0.0
C2538 C 0.22451 0.79422 0.92366 0.0
H2539 H 0.17674 0.75068 0.83196 0.0
H2540 H 0.1953 0.76514 0.84626 0.0
H2541 H 0.19904 0.78244 0.96782 0.0
H2542 H 0.25143 0.82873 0.97045 0.0
H2543 H 0.23665 0.80997 0.98414 0.0
C2544 C 0.17841 0.42656 0.86628 0.0
C2545 C 0.17106 0.42404 0.90069 0.0
C2546 C 0.18914 0.42906 0.8738 0.0
C2547 C 0.20524 0.42311 0.94884 0.0
H2548 H 0.22922 0.44398 0.8777 0.0
C2549 C 0.2469 0.42432 0.94011 0.0
C2550 C 0.25007 0.42391 0.89746 0.0
C2551 C 0.23852 0.42665 0.94839 0.0
C2552 C 0.22263 0.43815 0.89799 0.0
H2553 H 0.1693 0.42251 0.97021 0.0
H2554 H 0.18816 0.42678 0.98342 0.0
H2555 H 0.21201 0.44409 0.87848 0.0
H2556 H 0.24728 0.42608 0.83028 0.0
H2557 H 0.23283 0.43018 0.84463 0.0
H2558 H 0.21573 0.41685 0.9668 0.0
C2559 C 0.18556 0.42683 0.9506 0.0
C2560 C 0.21278 0.43822 0.89843 0.0
C2561 C 0.17479 0.42444 0.94306 0.0
C2562 C 0.24501 0.42629 0.8635 0.0
C2563 C 0.23678 0.42873 0.87176 0.0
C2564 C 0.21512 0.42305 0.94841 0.0
C2565 C 0.1928 0.42903 0.91593 0.0
C2566 C 0.20384 0.43042 0.92253 0.0
C2567 C 0.23331 0.42879 0.91419 0.0
C2568 C 0.22376 0.43029 0.92165 0.0
H2569 H 0.1758 0.42636 0.83326 0.0
H2570 H 0.19444 0.43056 0.84631 0.0
H2571 H 0.19849 0.41695 0.96754 0.0
H2572 H 0.25066 0.42251 0.96693 0.0
H2573 H 0.23603 0.42667 0.98143 0.0
C2574 C 0.41787 0.90909 0.39154 0.0
C2575 C 0.41455 0.90945 0.43399 0.0
C2576 C 0.42627 0.90675 0.3838 0.0
C2577 C 0.44202 0.89524 0.43551 0.0
H2578 H 0.46637 0.9165 0.36697 0.0
C2579 C 0.48618 0.90712 0.47029 0.0
C2580 C 0.49363 0.90956 0.43634 0.0
C2581 C 0.47546 0.90458 0.462 0.0
C2582 C 0.45956 0.91033 0.38539 0.0
H2583 H 0.4171 0.9072 0.50136 0.0
H2584 H 0.43159 0.9031 0.48796 0.0
H2585 H 0.4491 0.91654 0.36647 0.0
H2586 H 0.49561 0.91093 0.36687 0.0
H2587 H 0.47678 0.9066 0.35231 0.0
H2588 H 0.45263 0.88937 0.45605 0.0
C2589 C 0.42774 0.90458 0.46056 0.0
C2590 C 0.44966 0.91035 0.38511 0.0
C2591 C 0.41948 0.90702 0.46828 0.0
C2592 C 0.49003 0.90907 0.39367 0.0
C2593 C 0.47929 0.90664 0.38536 0.0
C2594 C 0.45189 0.89522 0.4358 0.0
C2595 C 0.43135 0.90457 0.41835 0.0
C2596 C 0.44094 0.90309 0.41152 0.0
C2597 C 0.47194 0.9045 0.41955 0.0
C2598 C 0.4609 0.90304 0.41209 0.0
H2599 H 0.41422 0.91094 0.36448 0.0
H2600 H 0.42887 0.90678 0.35092 0.0
H2601 H 0.43537 0.8894 0.45553 0.0
H2602 H 0.48868 0.90741 0.50352 0.0
H2603 H 0.47007 0.90313 0.48912 0.0
C2604 C 0.0913 0.58108 0.39045 0.0
C2605 C 0.09073 0.58427 0.43291 0.0
C2606 C 0.09363 0.57267 0.38277 0.0
C2607 C 0.10486 0.55673 0.43478 0.0
H2608 H 0.08391 0.53262 0.36445 0.0
C2609 C 0.09336 0.51253 0.4666 0.0
C2610 C 0.09093 0.50521 0.43217 0.0
C2611 C 0.09582 0.52325 0.45907 0.0
C2612 C 0.09 0.53937 0.3834 0.0
H2613 H 0.09261 0.58148 0.50039 0.0
H2614 H 0.0967 0.56698 0.48707 0.0
H2615 H 0.08382 0.54986 0.36463 0.0
H2616 H 0.08951 0.50348 0.36261 0.0
H2617 H 0.09373 0.52232 0.3494 0.0
H2618 H 0.11074 0.54612 0.45501 0.0
C2619 C 0.09539 0.57094 0.45965 0.0
C2620 C 0.08994 0.54925 0.38351 0.0
C2621 C 0.09294 0.5792 0.46731 0.0
C2622 C 0.09136 0.50895 0.38978 0.0
C2623 C 0.09372 0.5197 0.38224 0.0
C2624 C 0.10493 0.54689 0.43464 0.0
C2625 C 0.0956 0.56746 0.41739 0.0
C2626 C 0.0971 0.55788 0.41049 0.0
C2627 C 0.09584 0.52692 0.41692 0.0
C2628 C 0.09722 0.53796 0.41025 0.0
H2629 H 0.08961 0.58484 0.3633 0.0
H2630 H 0.09377 0.57017 0.34985 0.0
H2631 H 0.11062 0.56332 0.45526 0.0
H2632 H 0.09313 0.50991 0.49963 0.0
H2633 H 0.09725 0.52853 0.48657 0.0
C2634 C 0.49098 0.57976 0.39827 0.0
C2635 C 0.49489 0.58401 0.43964 0.0
C2636 C 0.48062 0.57046 0.39325 0.0
C2637 C 0.46177 0.54637 0.45588 0.0
H2638 H 0.43977 0.54156 0.37031 0.0
C2639 C 0.41893 0.51038 0.47266 0.0
C2640 C 0.41429 0.50365 0.43646 0.0
C2641 C 0.42815 0.52068 0.46841 0.0
C2642 C 0.4459 0.54279 0.39406 0.0
H2643 H 0.49073 0.58239 0.50766 0.0
H2644 H 0.47277 0.56639 0.49885 0.0
H2645 H 0.45723 0.55894 0.37101 0.0
H2646 H 0.41525 0.50269 0.36693 0.0
H2647 H 0.43161 0.52083 0.35951 0.0
H2648 H 0.45062 0.53038 0.47916 0.0
C2649 C 0.47775 0.57002 0.47041 0.0
C2650 C 0.45586 0.5527 0.39446 0.0
C2651 C 0.48803 0.57921 0.47542 0.0
C2652 C 0.41869 0.50771 0.39541 0.0
C2653 C 0.42802 0.51807 0.39115 0.0
C2654 C 0.4519 0.53656 0.45549 0.0
C2655 C 0.47406 0.56531 0.42954 0.0
C2656 C 0.46378 0.55465 0.42608 0.0
C2657 C 0.43304 0.52449 0.42788 0.0
C2658 C 0.44375 0.53473 0.42529 0.0
H2659 H 0.49609 0.58331 0.37011 0.0
H2660 H 0.47797 0.567 0.36135 0.0
H2661 H 0.46783 0.5475 0.47984 0.0
H2662 H 0.41563 0.50757 0.50466 0.0
H2663 H 0.43168 0.52555 0.49717 0.0
loop_
_geom_bond_atom_site_label_1
_geom_bond_atom_site_label_2
_geom_bond_distance
_geom_bond_site_symmetry_2
_ccdc_geom_bond_type
O0 Cd1 2.223 . S
O0 C8 1.315 . S
Cd1 O0 2.223 . S
Cd1 O4 2.297 . S
Cd1 O5 2.439 . S
Cd1 O11 2.240 . S
Cd2 O3 2.240 . S
Cd2 O10 2.223 . S
Cd2 O12 2.297 . S
Cd2 O13 2.439 . S
O3 Cd2 2.240 . S
O3 C8 1.279 . S
O4 Cd1 2.297 . S
O4 C6 1.247 . S
O5 Cd1 2.439 . S
O5 C6 1.208 . S
C6 O4 1.247 . S
C6 O5 1.208 . S
C7 O12 1.247 . S
C7 O13 1.208 . S
C8 O0 1.315 . S
C8 O3 1.279 . S
C9 O10 1.315 . S
C9 O11 1.279 . S
O10 Cd2 2.223 . S
O10 C9 1.315 . S
O11 Cd1 2.240 . S
O11 C9 1.279 . S
O12 Cd2 2.297 . S
O12 C7 1.247 . S
O13 Cd2 2.439 . S
O13 C7 1.208 . S
O14 Cd15 2.223 . S
O14 C22 1.315 . S
Cd15 O14 2.223 . S
Cd15 O18 2.297 . S
Cd15 O19 2.439 . S
Cd15 O25 2.240 . S
Cd16 O17 2.240 . S
Cd16 O24 2.223 . S
Cd16 O26 2.297 . S
Cd16 O27 2.439 . S
O17 Cd16 2.240 . S
O17 C22 1.279 . S
O18 Cd15 2.297 . S
O18 C20 1.247 . S
O19 Cd15 2.439 . S
O19 C20 1.208 . S
C20 O18 1.247 . S
C20 O19 1.208 . S
C21 O26 1.247 . S
C21 O27 1.208 . S
C22 O14 1.315 . S
C22 O17 1.279 . S
C23 O24 1.315 . S
C23 O25 1.279 . S
O24 Cd16 2.223 . S
O24 C23 1.315 . S
O25 Cd15 2.240 . S
O25 C23 1.279 . S
O26 Cd16 2.297 . S
O26 C21 1.247 . S
O27 Cd16 2.439 . S
O27 C21 1.208 . S
O28 Cd29 2.223 . S
O28 C36 1.315 . S
Cd29 O28 2.223 . S
Cd29 O32 2.297 . S
Cd29 O33 2.439 . S
Cd29 O39 2.240 . S
Cd30 O31 2.240 . S
Cd30 O38 2.223 . S
Cd30 O40 2.297 . S
Cd30 O41 2.439 . S
O31 Cd30 2.240 . S
O31 C36 1.279 . S
O32 Cd29 2.297 . S
O32 C34 1.247 . S
O33 Cd29 2.439 . S
O33 C34 1.208 . S
C34 O32 1.247 . S
C34 O33 1.208 . S
C35 O40 1.247 . S
C35 O41 1.208 . S
C36 O28 1.315 . S
C36 O31 1.279 . S
C37 O38 1.315 . S
C37 O39 1.279 . S
O38 Cd30 2.223 . S
O38 C37 1.315 . S
O39 Cd29 2.240 . S
O39 C37 1.279 . S
O40 Cd30 2.297 . S
O40 C35 1.247 . S
O41 Cd30 2.439 . S
O41 C35 1.208 . S
O42 Cd43 2.223 . S
O42 C50 1.315 . S
Cd43 O42 2.223 . S
Cd43 O46 2.297 . S
Cd43 O47 2.439 . S
Cd43 O53 2.240 . S
Cd44 O45 2.240 . S
Cd44 O52 2.223 . S
Cd44 O54 2.297 . S
Cd44 O55 2.439 . S
O45 Cd44 2.240 . S
O45 C50 1.279 . S
O46 Cd43 2.297 . S
O46 C48 1.247 . S
O47 Cd43 2.439 . S
O47 C48 1.208 . S
C48 O46 1.247 . S
C48 O47 1.208 . S
C49 O54 1.247 . S
C49 O55 1.208 . S
C50 O42 1.315 . S
C50 O45 1.279 . S
C51 O52 1.315 . S
C51 O53 1.279 . S
O52 Cd44 2.223 . S
O52 C51 1.315 . S
O53 Cd43 2.240 . S
O53 C51 1.279 . S
O54 Cd44 2.297 . S
O54 C49 1.247 . S
O55 Cd44 2.439 . S
O55 C49 1.208 . S
O56 Cd57 2.223 . S
O56 C64 1.315 . S
Cd57 O56 2.223 . S
Cd57 O60 2.297 . S
Cd57 O61 2.439 . S
Cd57 O67 2.240 . S
Cd58 O59 2.240 . S
Cd58 O66 2.223 . S
Cd58 O68 2.297 . S
Cd58 O69 2.439 . S
O59 Cd58 2.240 . S
O59 C64 1.279 . S
O60 Cd57 2.297 . S
O60 C62 1.247 . S
O61 Cd57 2.439 . S
O61 C62 1.208 . S
C62 O60 1.247 . S
C62 O61 1.208 . S
C63 O68 1.247 . S
C63 O69 1.208 . S
C64 O56 1.315 . S
C64 O59 1.279 . S
C65 O66 1.315 . S
C65 O67 1.279 . S
O66 Cd58 2.223 . S
O66 C65 1.315 . S
O67 Cd57 2.240 . S
O67 C65 1.279 . S
O68 Cd58 2.297 . S
O68 C63 1.247 . S
O69 Cd58 2.439 . S
O69 C63 1.208 . S
O70 Cd71 2.223 . S
O70 C78 1.315 . S
Cd71 O70 2.223 . S
Cd71 O74 2.297 . S
Cd71 O75 2.439 . S
Cd71 O81 2.240 . S
Cd72 O73 2.240 . S
Cd72 O80 2.223 . S
Cd72 O82 2.297 . S
Cd72 O83 2.439 . S
O73 Cd72 2.240 . S
O73 C78 1.279 . S
O74 Cd71 2.297 . S
O74 C76 1.247 . S
O75 Cd71 2.439 . S
O75 C76 1.208 . S
C76 O74 1.247 . S
C76 O75 1.208 . S
C77 O82 1.247 . S
C77 O83 1.208 . S
C78 O70 1.315 . S
C78 O73 1.279 . S
C79 O80 1.315 . S
C79 O81 1.279 . S
O80 Cd72 2.223 . S
O80 C79 1.315 . S
O81 Cd71 2.240 . S
O81 C79 1.279 . S
O82 Cd72 2.297 . S
O82 C77 1.247 . S
O83 Cd72 2.439 . S
O83 C77 1.208 . S
O84 Cd85 2.223 . S
O84 C92 1.315 . S
Cd85 O84 2.223 . S
Cd85 O88 2.297 . S
Cd85 O89 2.439 . S
Cd85 O95 2.240 . S
Cd86 O87 2.240 . S
Cd86 O94 2.223 . S
Cd86 O96 2.297 . S
Cd86 O97 2.439 . S
O87 Cd86 2.240 . S
O87 C92 1.279 . S
O88 Cd85 2.297 . S
O88 C90 1.247 . S
O89 Cd85 2.439 . S
O89 C90 1.208 . S
C90 O88 1.247 . S
C90 O89 1.208 . S
C91 O96 1.247 . S
C91 O97 1.208 . S
C92 O84 1.315 . S
C92 O87 1.279 . S
C93 O94 1.315 . S
C93 O95 1.279 . S
O94 Cd86 2.223 . S
O94 C93 1.315 . S
O95 Cd85 2.240 . S
O95 C93 1.279 . S
O96 Cd86 2.297 . S
O96 C91 1.247 . S
O97 Cd86 2.439 . S
O97 C91 1.208 . S
O98 Cd99 2.223 . S
O98 C106 1.315 . S
Cd99 O98 2.223 . S
Cd99 O102 2.297 . S
Cd99 O103 2.439 . S
Cd99 O109 2.240 . S
Cd100 O101 2.240 . S
Cd100 O108 2.223 . S
Cd100 O110 2.297 . S
Cd100 O111 2.439 . S
O101 Cd100 2.240 . S
O101 C106 1.279 . S
O102 Cd99 2.297 . S
O102 C104 1.247 . S
O103 Cd99 2.439 . S
O103 C104 1.208 . S
C104 O102 1.247 . S
C104 O103 1.208 . S
C105 O110 1.247 . S
C105 O111 1.208 . S
C106 O98 1.315 . S
C106 O101 1.279 . S
C107 O108 1.315 . S
C107 O109 1.279 . S
O108 Cd100 2.223 . S
O108 C107 1.315 . S
O109 Cd99 2.240 . S
O109 C107 1.279 . S
O110 Cd100 2.297 . S
O110 C105 1.247 . S
O111 Cd100 2.439 . S
O111 C105 1.208 . S
O112 Cd113 2.223 . S
O112 C120 1.315 . S
Cd113 O112 2.223 . S
Cd113 O116 2.297 . S
Cd113 O117 2.439 . S
Cd113 O123 2.240 . S
Cd114 O115 2.240 . S
Cd114 O122 2.223 . S
Cd114 O124 2.297 . S
Cd114 O125 2.439 . S
O115 Cd114 2.240 . S
O115 C120 1.279 . S
O116 Cd113 2.297 . S
O116 C118 1.247 . S
O117 Cd113 2.439 . S
O117 C118 1.208 . S
C118 O116 1.247 . S
C118 O117 1.208 . S
C119 O124 1.247 . S
C119 O125 1.208 . S
C120 O112 1.315 . S
C120 O115 1.279 . S
C121 O122 1.315 . S
C121 O123 1.279 . S
O122 Cd114 2.223 . S
O122 C121 1.315 . S
O123 Cd113 2.240 . S
O123 C121 1.279 . S
O124 Cd114 2.297 . S
O124 C119 1.247 . S
O125 Cd114 2.439 . S
O125 C119 1.208 . S
O126 Cd127 2.223 . S
O126 C134 1.315 . S
Cd127 O126 2.223 . S
Cd127 O130 2.297 . S
Cd127 O131 2.439 . S
Cd127 O137 2.240 . S
Cd128 O129 2.240 . S
Cd128 O136 2.223 . S
Cd128 O138 2.297 . S
Cd128 O139 2.439 . S
O129 Cd128 2.240 . S
O129 C134 1.279 . S
O130 Cd127 2.297 . S
O130 C132 1.247 . S
O131 Cd127 2.439 . S
O131 C132 1.208 . S
C132 O130 1.247 . S
C132 O131 1.208 . S
C133 O138 1.247 . S
C133 O139 1.208 . S
C134 O126 1.315 . S
C134 O129 1.279 . S
C135 O136 1.315 . S
C135 O137 1.279 . S
O136 Cd128 2.223 . S
O136 C135 1.315 . S
O137 Cd127 2.240 . S
O137 C135 1.279 . S
O138 Cd128 2.297 . S
O138 C133 1.247 . S
O139 Cd128 2.439 . S
O139 C133 1.208 . S
O140 Cd141 2.223 . S
O140 C148 1.315 . S
Cd141 O140 2.223 . S
Cd141 O144 2.297 . S
Cd141 O145 2.439 . S
Cd141 O151 2.240 . S
Cd142 O143 2.240 . S
Cd142 O150 2.223 . S
Cd142 O152 2.297 . S
Cd142 O153 2.439 . S
O143 Cd142 2.240 . S
O143 C148 1.279 . S
O144 Cd141 2.297 . S
O144 C146 1.247 . S
O145 Cd141 2.439 . S
O145 C146 1.208 . S
C146 O144 1.247 . S
C146 O145 1.208 . S
C147 O152 1.247 . S
C147 O153 1.208 . S
C148 O140 1.315 . S
C148 O143 1.279 . S
C149 O150 1.315 . S
C149 O151 1.279 . S
O150 Cd142 2.223 . S
O150 C149 1.315 . S
O151 Cd141 2.240 . S
O151 C149 1.279 . S
O152 Cd142 2.297 . S
O152 C147 1.247 . S
O153 Cd142 2.439 . S
O153 C147 1.208 . S
O154 Cd155 2.223 . S
O154 C162 1.315 . S
Cd155 O154 2.223 . S
Cd155 O158 2.297 . S
Cd155 O159 2.439 . S
Cd155 O165 2.240 . S
Cd156 O157 2.240 . S
Cd156 O164 2.223 . S
Cd156 O166 2.297 . S
Cd156 O167 2.439 . S
O157 Cd156 2.240 . S
O157 C162 1.279 . S
O158 Cd155 2.297 . S
O158 C160 1.247 . S
O159 Cd155 2.439 . S
O159 C160 1.208 . S
C160 O158 1.247 . S
C160 O159 1.208 . S
C161 O166 1.247 . S
C161 O167 1.208 . S
C162 O154 1.315 . S
C162 O157 1.279 . S
C163 O164 1.315 . S
C163 O165 1.279 . S
O164 Cd156 2.223 . S
O164 C163 1.315 . S
O165 Cd155 2.240 . S
O165 C163 1.279 . S
O166 Cd156 2.297 . S
O166 C161 1.247 . S
O167 Cd156 2.439 . S
O167 C161 1.208 . S
O168 Cd169 2.223 . S
O168 C176 1.315 . S
Cd169 O168 2.223 . S
Cd169 O172 2.297 . S
Cd169 O173 2.439 . S
Cd169 O179 2.240 . S
Cd170 O171 2.240 . S
Cd170 O178 2.223 . S
Cd170 O180 2.297 . S
Cd170 O181 2.439 . S
O171 Cd170 2.240 . S
O171 C176 1.279 . S
O172 Cd169 2.297 . S
O172 C174 1.247 . S
O173 Cd169 2.439 . S
O173 C174 1.208 . S
C174 O172 1.247 . S
C174 O173 1.208 . S
C175 O180 1.247 . S
C175 O181 1.208 . S
C176 O168 1.315 . S
C176 O171 1.279 . S
C177 O178 1.315 . S
C177 O179 1.279 . S
O178 Cd170 2.223 . S
O178 C177 1.315 . S
O179 Cd169 2.240 . S
O179 C177 1.279 . S
O180 Cd170 2.297 . S
O180 C175 1.247 . S
O181 Cd170 2.439 . S
O181 C175 1.208 . S
O182 Cd183 2.223 . S
O182 C190 1.315 . S
Cd183 O182 2.223 . S
Cd183 O186 2.297 . S
Cd183 O187 2.439 . S
Cd183 O193 2.240 . S
Cd184 O185 2.240 . S
Cd184 O192 2.223 . S
Cd184 O194 2.297 . S
Cd184 O195 2.439 . S
O185 Cd184 2.240 . S
O185 C190 1.279 . S
O186 Cd183 2.297 . S
O186 C188 1.247 . S
O187 Cd183 2.439 . S
O187 C188 1.208 . S
C188 O186 1.247 . S
C188 O187 1.208 . S
C189 O194 1.247 . S
C189 O195 1.208 . S
C190 O182 1.315 . S
C190 O185 1.279 . S
C191 O192 1.315 . S
C191 O193 1.279 . S
O192 Cd184 2.223 . S
O192 C191 1.315 . S
O193 Cd183 2.240 . S
O193 C191 1.279 . S
O194 Cd184 2.297 . S
O194 C189 1.247 . S
O195 Cd184 2.439 . S
O195 C189 1.208 . S
O196 Cd197 2.223 . S
O196 C204 1.315 . S
Cd197 O196 2.223 . S
Cd197 O200 2.297 . S
Cd197 O201 2.439 . S
Cd197 O207 2.240 . S
Cd198 O199 2.240 . S
Cd198 O206 2.223 . S
Cd198 O208 2.297 . S
Cd198 O209 2.439 . S
O199 Cd198 2.240 . S
O199 C204 1.279 . S
O200 Cd197 2.297 . S
O200 C202 1.247 . S
O201 Cd197 2.439 . S
O201 C202 1.208 . S
C202 O200 1.247 . S
C202 O201 1.208 . S
C203 O208 1.247 . S
C203 O209 1.208 . S
C204 O196 1.315 . S
C204 O199 1.279 . S
C205 O206 1.315 . S
C205 O207 1.279 . S
O206 Cd198 2.223 . S
O206 C205 1.315 . S
O207 Cd197 2.240 . S
O207 C205 1.279 . S
O208 Cd198 2.297 . S
O208 C203 1.247 . S
O209 Cd198 2.439 . S
O209 C203 1.208 . S
O210 Cd211 2.223 . S
O210 C218 1.315 . S
Cd211 O210 2.223 . S
Cd211 O214 2.297 . S
Cd211 O215 2.439 . S
Cd211 O221 2.240 . S
Cd212 O213 2.240 . S
Cd212 O220 2.223 . S
Cd212 O222 2.297 . S
Cd212 O223 2.439 . S
O213 Cd212 2.240 . S
O213 C218 1.279 . S
O214 Cd211 2.297 . S
O214 C216 1.247 . S
O215 Cd211 2.439 . S
O215 C216 1.208 . S
C216 O214 1.247 . S
C216 O215 1.208 . S
C217 O222 1.247 . S
C217 O223 1.208 . S
C218 O210 1.315 . S
C218 O213 1.279 . S
C219 O220 1.315 . S
C219 O221 1.279 . S
O220 Cd212 2.223 . S
O220 C219 1.315 . S
O221 Cd211 2.240 . S
O221 C219 1.279 . S
O222 Cd212 2.297 . S
O222 C217 1.247 . S
O223 Cd212 2.439 . S
O223 C217 1.208 . S
O224 Cd225 2.223 . S
O224 C232 1.315 . S
Cd225 O224 2.223 . S
Cd225 O228 2.297 . S
Cd225 O229 2.439 . S
Cd225 O235 2.240 . S
Cd226 O227 2.240 . S
Cd226 O234 2.223 . S
Cd226 O236 2.297 . S
Cd226 O237 2.439 . S
O227 Cd226 2.240 . S
O227 C232 1.279 . S
O228 Cd225 2.297 . S
O228 C230 1.247 . S
O229 Cd225 2.439 . S
O229 C230 1.208 . S
C230 O228 1.247 . S
C230 O229 1.208 . S
C231 O236 1.247 . S
C231 O237 1.208 . S
C232 O224 1.315 . S
C232 O227 1.279 . S
C233 O234 1.315 . S
C233 O235 1.279 . S
O234 Cd226 2.223 . S
O234 C233 1.315 . S
O235 Cd225 2.240 . S
O235 C233 1.279 . S
O236 Cd226 2.297 . S
O236 C231 1.247 . S
O237 Cd226 2.439 . S
O237 C231 1.208 . S
O238 Cd239 2.223 . S
O238 C246 1.315 . S
Cd239 O238 2.223 . S
Cd239 O242 2.297 . S
Cd239 O243 2.439 . S
Cd239 O249 2.240 . S
Cd240 O241 2.240 . S
Cd240 O248 2.223 . S
Cd240 O250 2.297 . S
Cd240 O251 2.439 . S
O241 Cd240 2.240 . S
O241 C246 1.279 . S
O242 Cd239 2.297 . S
O242 C244 1.247 . S
O243 Cd239 2.439 . S
O243 C244 1.208 . S
C244 O242 1.247 . S
C244 O243 1.208 . S
C245 O250 1.247 . S
C245 O251 1.208 . S
C246 O238 1.315 . S
C246 O241 1.279 . S
C247 O248 1.315 . S
C247 O249 1.279 . S
O248 Cd240 2.223 . S
O248 C247 1.315 . S
O249 Cd239 2.240 . S
O249 C247 1.279 . S
O250 Cd240 2.297 . S
O250 C245 1.247 . S
O251 Cd240 2.439 . S
O251 C245 1.208 . S
O252 Cd253 2.223 . S
O252 C260 1.315 . S
Cd253 O252 2.223 . S
Cd253 O256 2.297 . S
Cd253 O257 2.439 . S
Cd253 O263 2.240 . S
Cd254 O255 2.240 . S
Cd254 O262 2.223 . S
Cd254 O264 2.297 . S
Cd254 O265 2.439 . S
O255 Cd254 2.240 . S
O255 C260 1.279 . S
O256 Cd253 2.297 . S
O256 C258 1.247 . S
O257 Cd253 2.439 . S
O257 C258 1.208 . S
C258 O256 1.247 . S
C258 O257 1.208 . S
C259 O264 1.247 . S
C259 O265 1.208 . S
C260 O252 1.315 . S
C260 O255 1.279 . S
C261 O262 1.315 . S
C261 O263 1.279 . S
O262 Cd254 2.223 . S
O262 C261 1.315 . S
O263 Cd253 2.240 . S
O263 C261 1.279 . S
O264 Cd254 2.297 . S
O264 C259 1.247 . S
O265 Cd254 2.439 . S
O265 C259 1.208 . S
O266 Cd267 2.223 . S
O266 C274 1.315 . S
Cd267 O266 2.223 . S
Cd267 O270 2.297 . S
Cd267 O271 2.439 . S
Cd267 O277 2.240 . S
Cd268 O269 2.240 . S
Cd268 O276 2.223 . S
Cd268 O278 2.297 . S
Cd268 O279 2.439 . S
O269 Cd268 2.240 . S
O269 C274 1.279 . S
O270 Cd267 2.297 . S
O270 C272 1.247 . S
O271 Cd267 2.439 . S
O271 C272 1.208 . S
C272 O270 1.247 . S
C272 O271 1.208 . S
C273 O278 1.247 . S
C273 O279 1.208 . S
C274 O266 1.315 . S
C274 O269 1.279 . S
C275 O276 1.315 . S
C275 O277 1.279 . S
O276 Cd268 2.223 . S
O276 C275 1.315 . S
O277 Cd267 2.240 . S
O277 C275 1.279 . S
O278 Cd268 2.297 . S
O278 C273 1.247 . S
O279 Cd268 2.439 . S
O279 C273 1.208 . S
O280 Cd281 2.223 . S
O280 C288 1.315 . S
Cd281 O280 2.223 . S
Cd281 O284 2.297 . S
Cd281 O285 2.439 . S
Cd281 O291 2.240 . S
Cd282 O283 2.240 . S
Cd282 O290 2.223 . S
Cd282 O292 2.297 . S
Cd282 O293 2.439 . S
O283 Cd282 2.240 . S
O283 C288 1.279 . S
O284 Cd281 2.297 . S
O284 C286 1.247 . S
O285 Cd281 2.439 . S
O285 C286 1.208 . S
C286 O284 1.247 . S
C286 O285 1.208 . S
C287 O292 1.247 . S
C287 O293 1.208 . S
C288 O280 1.315 . S
C288 O283 1.279 . S
C289 O290 1.315 . S
C289 O291 1.279 . S
O290 Cd282 2.223 . S
O290 C289 1.315 . S
O291 Cd281 2.240 . S
O291 C289 1.279 . S
O292 Cd282 2.297 . S
O292 C287 1.247 . S
O293 Cd282 2.439 . S
O293 C287 1.208 . S
O294 Cd295 2.223 . S
O294 C302 1.315 . S
Cd295 O294 2.223 . S
Cd295 O298 2.297 . S
Cd295 O299 2.439 . S
Cd295 O305 2.240 . S
Cd296 O297 2.240 . S
Cd296 O304 2.223 . S
Cd296 O306 2.297 . S
Cd296 O307 2.439 . S
O297 Cd296 2.240 . S
O297 C302 1.279 . S
O298 Cd295 2.297 . S
O298 C300 1.247 . S
O299 Cd295 2.439 . S
O299 C300 1.208 . S
C300 O298 1.247 . S
C300 O299 1.208 . S
C301 O306 1.247 . S
C301 O307 1.208 . S
C302 O294 1.315 . S
C302 O297 1.279 . S
C303 O304 1.315 . S
C303 O305 1.279 . S
O304 Cd296 2.223 . S
O304 C303 1.315 . S
O305 Cd295 2.240 . S
O305 C303 1.279 . S
O306 Cd296 2.297 . S
O306 C301 1.247 . S
O307 Cd296 2.439 . S
O307 C301 1.208 . S
O308 Cd309 2.223 . S
O308 C316 1.315 . S
Cd309 O308 2.223 . S
Cd309 O312 2.297 . S
Cd309 O313 2.439 . S
Cd309 O319 2.240 . S
Cd310 O311 2.240 . S
Cd310 O318 2.223 . S
Cd310 O320 2.297 . S
Cd310 O321 2.439 . S
O311 Cd310 2.240 . S
O311 C316 1.279 . S
O312 Cd309 2.297 . S
O312 C314 1.247 . S
O313 Cd309 2.439 . S
O313 C314 1.208 . S
C314 O312 1.247 . S
C314 O313 1.208 . S
C315 O320 1.247 . S
C315 O321 1.208 . S
C316 O308 1.315 . S
C316 O311 1.279 . S
C317 O318 1.315 . S
C317 O319 1.279 . S
O318 Cd310 2.223 . S
O318 C317 1.315 . S
O319 Cd309 2.240 . S
O319 C317 1.279 . S
O320 Cd310 2.297 . S
O320 C315 1.247 . S
O321 Cd310 2.439 . S
O321 C315 1.208 . S
O322 Cd323 2.223 . S
O322 C330 1.315 . S
Cd323 O322 2.223 . S
Cd323 O326 2.297 . S
Cd323 O327 2.439 . S
Cd323 O333 2.240 . S
Cd324 O325 2.240 . S
Cd324 O332 2.223 . S
Cd324 O334 2.297 . S
Cd324 O335 2.439 . S
O325 Cd324 2.240 . S
O325 C330 1.279 . S
O326 Cd323 2.297 . S
O326 C328 1.247 . S
O327 Cd323 2.439 . S
O327 C328 1.208 . S
C328 O326 1.247 . S
C328 O327 1.208 . S
C329 O334 1.247 . S
C329 O335 1.208 . S
C330 O322 1.315 . S
C330 O325 1.279 . S
C331 O332 1.315 . S
C331 O333 1.279 . S
O332 Cd324 2.223 . S
O332 C331 1.315 . S
O333 Cd323 2.240 . S
O333 C331 1.279 . S
O334 Cd324 2.297 . S
O334 C329 1.247 . S
O335 Cd324 2.439 . S
O335 C329 1.208 . S
O336 Cd337 2.223 . S
O336 C344 1.315 . S
Cd337 O336 2.223 . S
Cd337 O340 2.297 . S
Cd337 O341 2.439 . S
Cd337 O347 2.240 . S
Cd338 O339 2.240 . S
Cd338 O346 2.223 . S
Cd338 O348 2.297 . S
Cd338 O349 2.439 . S
O339 Cd338 2.240 . S
O339 C344 1.279 . S
O340 Cd337 2.297 . S
O340 C342 1.247 . S
O341 Cd337 2.439 . S
O341 C342 1.208 . S
C342 O340 1.247 . S
C342 O341 1.208 . S
C343 O348 1.247 . S
C343 O349 1.208 . S
C344 O336 1.315 . S
C344 O339 1.279 . S
C345 O346 1.315 . S
C345 O347 1.279 . S
O346 Cd338 2.223 . S
O346 C345 1.315 . S
O347 Cd337 2.240 . S
O347 C345 1.279 . S
O348 Cd338 2.297 . S
O348 C343 1.247 . S
O349 Cd338 2.439 . S
O349 C343 1.208 . S
O350 Cd351 2.223 . S
O350 C358 1.315 . S
Cd351 O350 2.223 . S
Cd351 O354 2.297 . S
Cd351 O355 2.439 . S
Cd351 O361 2.240 . S
Cd352 O353 2.240 . S
Cd352 O360 2.223 . S
Cd352 O362 2.297 . S
Cd352 O363 2.439 . S
O353 Cd352 2.240 . S
O353 C358 1.279 . S
O354 Cd351 2.297 . S
O354 C356 1.247 . S
O355 Cd351 2.439 . S
O355 C356 1.208 . S
C356 O354 1.247 . S
C356 O355 1.208 . S
C357 O362 1.247 . S
C357 O363 1.208 . S
C358 O350 1.315 . S
C358 O353 1.279 . S
C359 O360 1.315 . S
C359 O361 1.279 . S
O360 Cd352 2.223 . S
O360 C359 1.315 . S
O361 Cd351 2.240 . S
O361 C359 1.279 . S
O362 Cd352 2.297 . S
O362 C357 1.247 . S
O363 Cd352 2.439 . S
O363 C357 1.208 . S
O364 Cd365 2.223 . S
O364 C372 1.315 . S
Cd365 O364 2.223 . S
Cd365 O368 2.297 . S
Cd365 O369 2.439 . S
Cd365 O375 2.240 . S
Cd366 O367 2.240 . S
Cd366 O374 2.223 . S
Cd366 O376 2.297 . S
Cd366 O377 2.439 . S
O367 Cd366 2.240 . S
O367 C372 1.279 . S
O368 Cd365 2.297 . S
O368 C370 1.247 . S
O369 Cd365 2.439 . S
O369 C370 1.208 . S
C370 O368 1.247 . S
C370 O369 1.208 . S
C371 O376 1.247 . S
C371 O377 1.208 . S
C372 O364 1.315 . S
C372 O367 1.279 . S
C373 O374 1.315 . S
C373 O375 1.279 . S
O374 Cd366 2.223 . S
O374 C373 1.315 . S
O375 Cd365 2.240 . S
O375 C373 1.279 . S
O376 Cd366 2.297 . S
O376 C371 1.247 . S
O377 Cd366 2.439 . S
O377 C371 1.208 . S
O378 Cd379 2.223 . S
O378 C386 1.315 . S
Cd379 O378 2.223 . S
Cd379 O382 2.297 . S
Cd379 O383 2.439 . S
Cd379 O389 2.240 . S
Cd380 O381 2.240 . S
Cd380 O388 2.223 . S
Cd380 O390 2.297 . S
Cd380 O391 2.439 . S
O381 Cd380 2.240 . S
O381 C386 1.279 . S
O382 Cd379 2.297 . S
O382 C384 1.247 . S
O383 Cd379 2.439 . S
O383 C384 1.208 . S
C384 O382 1.247 . S
C384 O383 1.208 . S
C385 O390 1.247 . S
C385 O391 1.208 . S
C386 O378 1.315 . S
C386 O381 1.279 . S
C387 O388 1.315 . S
C387 O389 1.279 . S
O388 Cd380 2.223 . S
O388 C387 1.315 . S
O389 Cd379 2.240 . S
O389 C387 1.279 . S
O390 Cd380 2.297 . S
O390 C385 1.247 . S
O391 Cd380 2.439 . S
O391 C385 1.208 . S
O392 Cd393 2.223 . S
O392 C400 1.315 . S
Cd393 O392 2.223 . S
Cd393 O396 2.297 . S
Cd393 O397 2.439 . S
Cd393 O403 2.240 . S
Cd394 O395 2.240 . S
Cd394 O402 2.223 . S
Cd394 O404 2.297 . S
Cd394 O405 2.439 . S
O395 Cd394 2.240 . S
O395 C400 1.279 . S
O396 Cd393 2.297 . S
O396 C398 1.247 . S
O397 Cd393 2.439 . S
O397 C398 1.208 . S
C398 O396 1.247 . S
C398 O397 1.208 . S
C399 O404 1.247 . S
C399 O405 1.208 . S
C400 O392 1.315 . S
C400 O395 1.279 . S
C401 O402 1.315 . S
C401 O403 1.279 . S
O402 Cd394 2.223 . S
O402 C401 1.315 . S
O403 Cd393 2.240 . S
O403 C401 1.279 . S
O404 Cd394 2.297 . S
O404 C399 1.247 . S
O405 Cd394 2.439 . S
O405 C399 1.208 . S
O406 Cd407 2.223 . S
O406 C414 1.315 . S
Cd407 O406 2.223 . S
Cd407 O410 2.297 . S
Cd407 O411 2.439 . S
Cd407 O417 2.240 . S
Cd408 O409 2.240 . S
Cd408 O416 2.223 . S
Cd408 O418 2.297 . S
Cd408 O419 2.439 . S
O409 Cd408 2.240 . S
O409 C414 1.279 . S
O410 Cd407 2.297 . S
O410 C412 1.247 . S
O411 Cd407 2.439 . S
O411 C412 1.208 . S
C412 O410 1.247 . S
C412 O411 1.208 . S
C413 O418 1.247 . S
C413 O419 1.208 . S
C414 O406 1.315 . S
C414 O409 1.279 . S
C415 O416 1.315 . S
C415 O417 1.279 . S
O416 Cd408 2.223 . S
O416 C415 1.315 . S
O417 Cd407 2.240 . S
O417 C415 1.279 . S
O418 Cd408 2.297 . S
O418 C413 1.247 . S
O419 Cd408 2.439 . S
O419 C413 1.208 . S
O420 Cd421 2.223 . S
O420 C428 1.315 . S
Cd421 O420 2.223 . S
Cd421 O424 2.297 . S
Cd421 O425 2.439 . S
Cd421 O431 2.240 . S
Cd422 O423 2.240 . S
Cd422 O430 2.223 . S
Cd422 O432 2.297 . S
Cd422 O433 2.439 . S
O423 Cd422 2.240 . S
O423 C428 1.279 . S
O424 Cd421 2.297 . S
O424 C426 1.247 . S
O425 Cd421 2.439 . S
O425 C426 1.208 . S
C426 O424 1.247 . S
C426 O425 1.208 . S
C427 O432 1.247 . S
C427 O433 1.208 . S
C428 O420 1.315 . S
C428 O423 1.279 . S
C429 O430 1.315 . S
C429 O431 1.279 . S
O430 Cd422 2.223 . S
O430 C429 1.315 . S
O431 Cd421 2.240 . S
O431 C429 1.279 . S
O432 Cd422 2.297 . S
O432 C427 1.247 . S
O433 Cd422 2.439 . S
O433 C427 1.208 . S
O434 Cd435 2.223 . S
O434 C442 1.315 . S
Cd435 O434 2.223 . S
Cd435 O438 2.297 . S
Cd435 O439 2.439 . S
Cd435 O445 2.240 . S
Cd436 O437 2.240 . S
Cd436 O444 2.223 . S
Cd436 O446 2.297 . S
Cd436 O447 2.439 . S
O437 Cd436 2.240 . S
O437 C442 1.279 . S
O438 Cd435 2.297 . S
O438 C440 1.247 . S
O439 Cd435 2.439 . S
O439 C440 1.208 . S
C440 O438 1.247 . S
C440 O439 1.208 . S
C441 O446 1.247 . S
C441 O447 1.208 . S
C442 O434 1.315 . S
C442 O437 1.279 . S
C443 O444 1.315 . S
C443 O445 1.279 . S
O444 Cd436 2.223 . S
O444 C443 1.315 . S
O445 Cd435 2.240 . S
O445 C443 1.279 . S
O446 Cd436 2.297 . S
O446 C441 1.247 . S
O447 Cd436 2.439 . S
O447 C441 1.208 . S
O448 Cd449 2.223 . S
O448 C456 1.315 . S
Cd449 O448 2.223 . S
Cd449 O452 2.297 . S
Cd449 O453 2.439 . S
Cd449 O459 2.240 . S
Cd450 O451 2.240 . S
Cd450 O458 2.223 . S
Cd450 O460 2.297 . S
Cd450 O461 2.439 . S
O451 Cd450 2.240 . S
O451 C456 1.279 . S
O452 Cd449 2.297 . S
O452 C454 1.247 . S
O453 Cd449 2.439 . S
O453 C454 1.208 . S
C454 O452 1.247 . S
C454 O453 1.208 . S
C455 O460 1.247 . S
C455 O461 1.208 . S
C456 O448 1.315 . S
C456 O451 1.279 . S
C457 O458 1.315 . S
C457 O459 1.279 . S
O458 Cd450 2.223 . S
O458 C457 1.315 . S
O459 Cd449 2.240 . S
O459 C457 1.279 . S
O460 Cd450 2.297 . S
O460 C455 1.247 . S
O461 Cd450 2.439 . S
O461 C455 1.208 . S
O462 Cd463 2.223 . S
O462 C470 1.315 . S
Cd463 O462 2.223 . S
Cd463 O466 2.297 . S
Cd463 O467 2.439 . S
Cd463 O473 2.240 . S
Cd464 O465 2.240 . S
Cd464 O472 2.223 . S
Cd464 O474 2.297 . S
Cd464 O475 2.439 . S
O465 Cd464 2.240 . S
O465 C470 1.279 . S
O466 Cd463 2.297 . S
O466 C468 1.247 . S
O467 Cd463 2.439 . S
O467 C468 1.208 . S
C468 O466 1.247 . S
C468 O467 1.208 . S
C469 O474 1.247 . S
C469 O475 1.208 . S
C470 O462 1.315 . S
C470 O465 1.279 . S
C471 O472 1.315 . S
C471 O473 1.279 . S
O472 Cd464 2.223 . S
O472 C471 1.315 . S
O473 Cd463 2.240 . S
O473 C471 1.279 . S
O474 Cd464 2.297 . S
O474 C469 1.247 . S
O475 Cd464 2.439 . S
O475 C469 1.208 . S
O476 Cd477 2.223 . S
O476 C484 1.315 . S
Cd477 O476 2.223 . S
Cd477 O480 2.297 . S
Cd477 O481 2.439 . S
Cd477 O487 2.240 . S
Cd478 O479 2.240 . S
Cd478 O486 2.223 . S
Cd478 O488 2.297 . S
Cd478 O489 2.439 . S
O479 Cd478 2.240 . S
O479 C484 1.279 . S
O480 Cd477 2.297 . S
O480 C482 1.247 . S
O481 Cd477 2.439 . S
O481 C482 1.208 . S
C482 O480 1.247 . S
C482 O481 1.208 . S
C483 O488 1.247 . S
C483 O489 1.208 . S
C484 O476 1.315 . S
C484 O479 1.279 . S
C485 O486 1.315 . S
C485 O487 1.279 . S
O486 Cd478 2.223 . S
O486 C485 1.315 . S
O487 Cd477 2.240 . S
O487 C485 1.279 . S
O488 Cd478 2.297 . S
O488 C483 1.247 . S
O489 Cd478 2.439 . S
O489 C483 1.208 . S
O490 Cd491 2.223 . S
O490 C498 1.315 . S
Cd491 O490 2.223 . S
Cd491 O494 2.297 . S
Cd491 O495 2.439 . S
Cd491 O501 2.240 . S
Cd492 O493 2.240 . S
Cd492 O500 2.223 . S
Cd492 O502 2.297 . S
Cd492 O503 2.439 . S
O493 Cd492 2.240 . S
O493 C498 1.279 . S
O494 Cd491 2.297 . S
O494 C496 1.247 . S
O495 Cd491 2.439 . S
O495 C496 1.208 . S
C496 O494 1.247 . S
C496 O495 1.208 . S
C497 O502 1.247 . S
C497 O503 1.208 . S
C498 O490 1.315 . S
C498 O493 1.279 . S
C499 O500 1.315 . S
C499 O501 1.279 . S
O500 Cd492 2.223 . S
O500 C499 1.315 . S
O501 Cd491 2.240 . S
O501 C499 1.279 . S
O502 Cd492 2.297 . S
O502 C497 1.247 . S
O503 Cd492 2.439 . S
O503 C497 1.208 . S
C504 C505 1.349 . S
C504 C506 1.327 . S
C504 H529 0.950 . S
C505 C504 1.349 . S
C505 C521 1.349 . S
C506 C504 1.327 . S
C506 C525 1.429 . S
C506 H530 0.950 . S
C507 C524 1.633 . S
C507 C526 1.348 1_545 S
C507 H531 0.925 . S
H508 C512 0.925 . S
C509 C510 1.349 . S
C509 C511 1.327 . S
C509 H532 0.950 . S
C510 C509 1.349 . S
C510 C522 1.349 . S
C511 C509 1.327 . S
C511 C527 1.429 . S
C511 H533 0.950 . S
C512 H508 0.925 . S
C512 C520 1.634 . S
C512 C528 1.348 1_565 S
H513 C521 0.950 . S
H514 C519 0.950 . S
H515 C520 0.949 . S
H516 C522 0.950 . S
H517 C523 0.950 . S
H518 C524 0.949 . S
C519 H514 0.950 . S
C519 C521 1.327 . S
C519 C525 1.429 . S
C520 C512 1.634 . S
C520 H515 0.949 . S
C520 C526 1.368 . S
C521 C505 1.349 . S
C521 H513 0.950 . S
C521 C519 1.327 . S
C522 C510 1.349 . S
C522 H516 0.950 . S
C522 C523 1.327 . S
C523 H517 0.950 . S
C523 C522 1.327 . S
C523 C527 1.429 . S
C524 C507 1.633 . S
C524 H518 0.949 . S
C524 C528 1.368 . S
C525 C506 1.429 . S
C525 C519 1.429 . S
C525 C526 1.523 . S
C526 C507 1.348 1_565 S
C526 C520 1.368 . S
C526 C525 1.523 . S
C527 C511 1.429 . S
C527 C523 1.429 . S
C527 C528 1.523 . S
C528 C512 1.348 1_545 S
C528 C524 1.368 . S
C528 C527 1.523 . S
H529 C504 0.950 . S
H530 C506 0.950 . S
H531 C507 0.925 . S
H532 C509 0.950 . S
H533 C511 0.950 . S
C534 C535 1.349 . S
C534 C536 1.327 . S
C534 H559 0.950 . S
C535 C534 1.349 . S
C535 C551 1.349 . S
C536 C534 1.327 . S
C536 C555 1.429 . S
C536 H560 0.950 . S
C537 C554 1.574 . S
C537 C556 1.368 1_655 S
C537 H561 0.949 . S
H538 C542 0.949 . S
C539 C540 1.349 . S
C539 C541 1.327 . S
C539 H562 0.950 . S
C540 C539 1.349 . S
C540 C552 1.349 . S
C541 C539 1.327 . S
C541 C557 1.429 . S
C541 H563 0.950 . S
C542 H538 0.949 . S
C542 C550 1.574 . S
C542 C558 1.368 1_455 S
H543 C551 0.950 . S
H544 C549 0.950 . S
H545 C550 0.949 . S
H546 C552 0.950 . S
H547 C553 0.950 . S
H548 C554 0.949 . S
C549 H544 0.950 . S
C549 C551 1.327 . S
C549 C555 1.429 . S
C550 C542 1.574 . S
C550 H545 0.949 . S
C550 C556 1.368 . S
C551 C535 1.349 . S
C551 H543 0.950 . S
C551 C549 1.327 . S
C552 C540 1.349 . S
C552 H546 0.950 . S
C552 C553 1.327 . S
C553 H547 0.950 . S
C553 C552 1.327 . S
C553 C557 1.429 . S
C554 C537 1.574 . S
C554 H548 0.949 . S
C554 C558 1.368 . S
C555 C536 1.429 . S
C555 C549 1.429 . S
C555 C556 1.523 . S
C556 C537 1.368 1_455 S
C556 C550 1.368 . S
C556 C555 1.523 . S
C557 C541 1.429 . S
C557 C553 1.429 . S
C557 C558 1.523 . S
C558 C542 1.368 1_655 S
C558 C554 1.368 . S
C558 C557 1.523 . S
H559 C534 0.950 . S
H560 C536 0.950 . S
H561 C537 0.949 . S
H562 C539 0.950 . S
H563 C541 0.950 . S
C564 C565 1.349 . S
C564 C566 1.327 . S
C564 H589 0.950 . S
C565 C564 1.349 . S
C565 C581 1.349 . S
C566 C564 1.327 . S
C566 C585 1.429 . S
C566 H590 0.950 . S
C567 C584 1.574 . S
C567 C586 1.368 . S
C567 H591 0.949 . S
H568 C572 0.949 . S
C569 C570 1.349 . S
C569 C571 1.327 . S
C569 H592 0.950 . S
C570 C569 1.349 . S
C570 C582 1.349 . S
C571 C569 1.327 . S
C571 C587 1.429 . S
C571 H593 0.950 . S
C572 H568 0.949 . S
C572 C580 1.574 . S
C572 C588 1.368 . S
H573 C581 0.950 . S
H574 C579 0.950 . S
H575 C580 0.949 . S
H576 C582 0.950 . S
H577 C583 0.950 . S
H578 C584 0.949 . S
C579 H574 0.950 . S
C579 C581 1.327 . S
C579 C585 1.429 . S
C580 C572 1.574 . S
C580 H575 0.949 . S
C580 C586 1.368 . S
C581 C565 1.349 . S
C581 H573 0.950 . S
C581 C579 1.327 . S
C582 C570 1.349 . S
C582 H576 0.950 . S
C582 C583 1.327 . S
C583 H577 0.950 . S
C583 C582 1.327 . S
C583 C587 1.429 . S
C584 C567 1.574 . S
C584 H578 0.949 . S
C584 C588 1.368 . S
C585 C566 1.429 . S
C585 C579 1.429 . S
C585 C586 1.523 . S
C586 C567 1.368 . S
C586 C580 1.368 . S
C586 C585 1.523 . S
C587 C571 1.429 . S
C587 C583 1.429 . S
C587 C588 1.523 . S
C588 C572 1.368 . S
C588 C584 1.368 . S
C588 C587 1.523 . S
H589 C564 0.950 . S
H590 C566 0.950 . S
H591 C567 0.949 . S
H592 C569 0.950 . S
H593 C571 0.950 . S
C594 C595 1.349 . S
C594 C596 1.327 . S
C594 H619 0.950 . S
C595 C594 1.349 . S
C595 C611 1.349 . S
C596 C594 1.327 . S
C596 C615 1.429 . S
C596 H620 0.950 . S
C597 C614 1.574 . S
C597 C616 1.368 1_545 S
C597 H621 0.949 . S
H598 C602 0.949 . S
C599 C600 1.349 . S
C599 C601 1.327 . S
C599 H622 0.950 . S
C600 C599 1.349 . S
C600 C612 1.349 . S
C601 C599 1.327 . S
C601 C617 1.429 . S
C601 H623 0.950 . S
C602 H598 0.949 . S
C602 C610 1.574 . S
C602 C618 1.368 1_565 S
H603 C611 0.950 . S
H604 C609 0.950 . S
H605 C610 0.949 . S
H606 C612 0.950 . S
H607 C613 0.950 . S
H608 C614 0.949 . S
C609 H604 0.950 . S
C609 C611 1.327 . S
C609 C615 1.429 . S
C610 C602 1.574 . S
C610 H605 0.949 . S
C610 C616 1.368 . S
C611 C595 1.349 . S
C611 H603 0.950 . S
C611 C609 1.327 . S
C612 C600 1.349 . S
C612 H606 0.950 . S
C612 C613 1.327 . S
C613 H607 0.950 . S
C613 C612 1.327 . S
C613 C617 1.429 . S
C614 C597 1.574 . S
C614 H608 0.949 . S
C614 C618 1.368 . S
C615 C596 1.429 . S
C615 C609 1.429 . S
C615 C616 1.523 . S
C616 C597 1.368 1_565 S
C616 C610 1.368 . S
C616 C615 1.523 . S
C617 C601 1.429 . S
C617 C613 1.429 . S
C617 C618 1.523 . S
C618 C602 1.368 1_545 S
C618 C614 1.368 . S
C618 C617 1.523 . S
H619 C594 0.950 . S
H620 C596 0.950 . S
H621 C597 0.949 . S
H622 C599 0.950 . S
H623 C601 0.950 . S
C624 C625 1.349 . S
C624 C626 1.327 . S
C624 H649 0.950 . S
C625 C624 1.349 . S
C625 C641 1.349 . S
C626 C624 1.327 . S
C626 C645 1.429 . S
C626 H650 0.950 . S
C627 C644 1.574 . S
C627 C646 1.368 . S
C627 H651 0.949 . S
H628 C632 0.949 . S
C629 C630 1.349 . S
C629 C631 1.327 . S
C629 H652 0.950 . S
C630 C629 1.349 . S
C630 C642 1.349 . S
C631 C629 1.327 . S
C631 C647 1.429 . S
C631 H653 0.950 . S
C632 H628 0.949 . S
C632 C640 1.574 . S
C632 C648 1.368 . S
H633 C641 0.950 . S
H634 C639 0.950 . S
H635 C640 0.949 . S
H636 C642 0.950 . S
H637 C643 0.950 . S
H638 C644 0.949 . S
C639 H634 0.950 . S
C639 C641 1.327 . S
C639 C645 1.429 . S
C640 C632 1.574 . S
C640 H635 0.949 . S
C640 C646 1.368 1_655 S
C641 C625 1.349 . S
C641 H633 0.950 . S
C641 C639 1.327 . S
C642 C630 1.349 . S
C642 H636 0.950 . S
C642 C643 1.327 . S
C643 H637 0.950 . S
C643 C642 1.327 . S
C643 C647 1.429 . S
C644 C627 1.574 . S
C644 H638 0.949 . S
C644 C648 1.368 1_455 S
C645 C626 1.429 . S
C645 C639 1.429 . S
C645 C646 1.523 . S
C646 C627 1.368 . S
C646 C640 1.368 1_455 S
C646 C645 1.523 . S
C647 C631 1.429 . S
C647 C643 1.429 . S
C647 C648 1.523 . S
C648 C632 1.368 . S
C648 C644 1.368 1_655 S
C648 C647 1.523 . S
H649 C624 0.950 . S
H650 C626 0.950 . S
H651 C627 0.949 . S
H652 C629 0.950 . S
H653 C631 0.950 . S
C654 C655 1.349 . S
C654 C656 1.327 . S
C654 H679 0.950 . S
C655 C654 1.349 . S
C655 C671 1.349 . S
C656 C654 1.327 . S
C656 C675 1.429 . S
C656 H680 0.950 . S
C657 C674 1.574 . S
C657 C676 1.368 . S
C657 H681 0.949 . S
H658 C662 0.949 . S
C659 C660 1.349 . S
C659 C661 1.327 . S
C659 H682 0.950 . S
C660 C659 1.349 . S
C660 C672 1.349 . S
C661 C659 1.327 . S
C661 C677 1.429 . S
C661 H683 0.950 . S
C662 H658 0.949 . S
C662 C670 1.574 . S
C662 C678 1.368 . S
H663 C671 0.950 . S
H664 C669 0.950 . S
H665 C670 0.949 . S
H666 C672 0.950 . S
H667 C673 0.950 . S
H668 C674 0.949 . S
C669 H664 0.950 . S
C669 C671 1.327 . S
C669 C675 1.429 . S
C670 C662 1.574 . S
C670 H665 0.949 . S
C670 C676 1.368 . S
C671 C655 1.349 . S
C671 H663 0.950 . S
C671 C669 1.327 . S
C672 C660 1.349 . S
C672 H666 0.950 . S
C672 C673 1.327 . S
C673 H667 0.950 . S
C673 C672 1.327 . S
C673 C677 1.429 . S
C674 C657 1.574 . S
C674 H668 0.949 . S
C674 C678 1.368 . S
C675 C656 1.429 . S
C675 C669 1.429 . S
C675 C676 1.523 . S
C676 C657 1.368 . S
C676 C670 1.368 . S
C676 C675 1.523 . S
C677 C661 1.429 . S
C677 C673 1.429 . S
C677 C678 1.523 . S
C678 C662 1.368 . S
C678 C674 1.368 . S
C678 C677 1.523 . S
H679 C654 0.950 . S
H680 C656 0.950 . S
H681 C657 0.949 . S
H682 C659 0.950 . S
H683 C661 0.950 . S
C684 C685 1.349 . S
C684 C686 1.327 . S
C684 H709 0.950 . S
C685 C684 1.349 . S
C685 C701 1.349 . S
C686 C684 1.327 . S
C686 C705 1.429 . S
C686 H710 0.950 . S
C687 C704 1.574 . S
C687 C706 1.368 . S
C687 H711 0.949 . S
H688 C692 0.949 . S
C689 C690 1.349 . S
C689 C691 1.327 . S
C689 H712 0.950 1_556 S
C690 C689 1.349 . S
C690 C702 1.349 . S
C691 C689 1.327 . S
C691 C707 1.429 . S
C691 H713 0.950 . S
C692 H688 0.949 . S
C692 C700 1.574 . S
C692 C708 1.368 . S
H693 C701 0.950 . S
H694 C699 0.950 . S
H695 C700 0.949 . S
H696 C702 0.950 . S
H697 C703 0.950 . S
H698 C704 0.949 . S
C699 H694 0.950 . S
C699 C701 1.327 . S
C699 C705 1.429 . S
C700 C692 1.574 . S
C700 H695 0.949 . S
C700 C706 1.368 . S
C701 C685 1.349 . S
C701 H693 0.950 . S
C701 C699 1.327 . S
C702 C690 1.349 . S
C702 H696 0.950 . S
C702 C703 1.327 . S
C703 H697 0.950 . S
C703 C702 1.327 . S
C703 C707 1.429 . S
C704 C687 1.574 . S
C704 H698 0.949 . S
C704 C708 1.368 . S
C705 C686 1.429 . S
C705 C699 1.429 . S
C705 C706 1.523 . S
C706 C687 1.368 . S
C706 C700 1.368 . S
C706 C705 1.523 . S
C707 C691 1.429 . S
C707 C703 1.429 . S
C707 C708 1.523 . S
C708 C692 1.368 . S
C708 C704 1.368 . S
C708 C707 1.523 . S
H709 C684 0.950 . S
H710 C686 0.950 . S
H711 C687 0.949 . S
H712 C689 0.950 1_554 S
H713 C691 0.950 . S
C714 C715 1.349 . S
C714 C716 1.327 . S
C714 H739 0.950 . S
C715 C714 1.349 . S
C715 C731 1.349 . S
C716 C714 1.327 . S
C716 C735 1.429 . S
C716 H740 0.950 . S
C717 C734 1.574 . S
C717 C736 1.368 . S
C717 H741 0.949 . S
H718 C722 0.949 . S
C719 C720 1.349 . S
C719 C721 1.327 . S
C719 H742 0.950 . S
C720 C719 1.349 . S
C720 C732 1.349 . S
C721 C719 1.327 . S
C721 C737 1.429 . S
C721 H743 0.950 . S
C722 H718 0.949 . S
C722 C730 1.574 . S
C722 C738 1.368 . S
H723 C731 0.950 . S
H724 C729 0.950 . S
H725 C730 0.949 . S
H726 C732 0.950 . S
H727 C733 0.950 . S
H728 C734 0.949 . S
C729 H724 0.950 . S
C729 C731 1.327 . S
C729 C735 1.429 . S
C730 C722 1.574 . S
C730 H725 0.949 . S
C730 C736 1.368 . S
C731 C715 1.349 . S
C731 H723 0.950 . S
C731 C729 1.327 . S
C732 C720 1.349 . S
C732 H726 0.950 . S
C732 C733 1.327 . S
C733 H727 0.950 . S
C733 C732 1.327 . S
C733 C737 1.429 . S
C734 C717 1.574 . S
C734 H728 0.949 . S
C734 C738 1.368 . S
C735 C716 1.429 . S
C735 C729 1.429 . S
C735 C736 1.523 . S
C736 C717 1.368 . S
C736 C730 1.368 . S
C736 C735 1.523 . S
C737 C721 1.429 . S
C737 C733 1.429 . S
C737 C738 1.523 . S
C738 C722 1.368 . S
C738 C734 1.368 . S
C738 C737 1.523 . S
H739 C714 0.950 . S
H740 C716 0.950 . S
H741 C717 0.949 . S
H742 C719 0.950 . S
H743 C721 0.950 . S
C744 C745 1.349 . S
C744 C746 1.327 . S
C744 H769 0.950 . S
C745 C744 1.349 . S
C745 C761 1.349 . S
C746 C744 1.327 . S
C746 C765 1.429 . S
C746 H770 0.950 . S
C747 C764 1.574 . S
C747 C766 1.368 . S
C747 H771 0.949 . S
H748 C752 0.949 . S
C749 C750 1.349 . S
C749 C751 1.327 . S
C749 H772 0.950 . S
C750 C749 1.349 . S
C750 C762 1.349 . S
C751 C749 1.327 . S
C751 C767 1.429 . S
C751 H773 0.950 . S
C752 H748 0.949 . S
C752 C760 1.574 . S
C752 C768 1.368 . S
H753 C761 0.950 . S
H754 C759 0.950 . S
H755 C760 0.949 . S
H756 C762 0.950 . S
H757 C763 0.950 . S
H758 C764 0.949 . S
C759 H754 0.950 . S
C759 C761 1.327 . S
C759 C765 1.429 . S
C760 C752 1.574 . S
C760 H755 0.949 . S
C760 C766 1.368 . S
C761 C745 1.349 . S
C761 H753 0.950 . S
C761 C759 1.327 . S
C762 C750 1.349 . S
C762 H756 0.950 . S
C762 C763 1.327 . S
C763 H757 0.950 . S
C763 C762 1.327 . S
C763 C767 1.429 . S
C764 C747 1.574 . S
C764 H758 0.949 . S
C764 C768 1.368 . S
C765 C746 1.429 . S
C765 C759 1.429 . S
C765 C766 1.523 . S
C766 C747 1.368 . S
C766 C760 1.368 . S
C766 C765 1.523 . S
C767 C751 1.429 . S
C767 C763 1.429 . S
C767 C768 1.523 . S
C768 C752 1.368 . S
C768 C764 1.368 . S
C768 C767 1.523 . S
H769 C744 0.950 . S
H770 C746 0.950 . S
H771 C747 0.949 . S
H772 C749 0.950 . S
H773 C751 0.950 . S
C774 C775 1.349 . S
C774 C776 1.327 . S
C774 H799 0.950 . S
C775 C774 1.349 . S
C775 C791 1.349 . S
C776 C774 1.327 . S
C776 C795 1.429 . S
C776 H800 0.950 . S
C777 C794 1.574 . S
C777 C796 1.368 . S
C777 H801 0.949 . S
H778 C782 0.949 . S
C779 C780 1.349 . S
C779 C781 1.327 . S
C779 H802 0.950 . S
C780 C779 1.349 . S
C780 C792 1.349 . S
C781 C779 1.327 . S
C781 C797 1.429 . S
C781 H803 0.950 . S
C782 H778 0.949 . S
C782 C790 1.574 . S
C782 C798 1.368 . S
H783 C791 0.950 . S
H784 C789 0.950 . S
H785 C790 0.949 . S
H786 C792 0.950 . S
H787 C793 0.950 . S
H788 C794 0.949 . S
C789 H784 0.950 . S
C789 C791 1.327 . S
C789 C795 1.429 . S
C790 C782 1.574 . S
C790 H785 0.949 . S
C790 C796 1.368 . S
C791 C775 1.349 . S
C791 H783 0.950 . S
C791 C789 1.327 . S
C792 C780 1.349 . S
C792 H786 0.950 . S
C792 C793 1.327 . S
C793 H787 0.950 . S
C793 C792 1.327 . S
C793 C797 1.429 . S
C794 C777 1.574 . S
C794 H788 0.949 . S
C794 C798 1.368 . S
C795 C776 1.429 . S
C795 C789 1.429 . S
C795 C796 1.523 . S
C796 C777 1.368 . S
C796 C790 1.368 . S
C796 C795 1.523 . S
C797 C781 1.429 . S
C797 C793 1.429 . S
C797 C798 1.523 . S
C798 C782 1.368 . S
C798 C794 1.368 . S
C798 C797 1.523 . S
H799 C774 0.950 . S
H800 C776 0.950 . S
H801 C777 0.949 . S
H802 C779 0.950 . S
H803 C781 0.950 . S
C804 C805 1.349 . S
C804 C806 1.327 . S
C804 H829 0.950 . S
C805 C804 1.349 . S
C805 C821 1.349 . S
C806 C804 1.327 . S
C806 C825 1.429 . S
C806 H830 0.950 . S
C807 C824 1.574 . S
C807 C826 1.368 . S
C807 H831 0.949 . S
H808 C812 0.949 . S
C809 C810 1.349 . S
C809 C811 1.327 . S
C809 H832 0.950 . S
C810 C809 1.349 . S
C810 C822 1.349 . S
C811 C809 1.327 . S
C811 C827 1.429 . S
C811 H833 0.950 . S
C812 H808 0.949 . S
C812 C820 1.574 . S
C812 C828 1.368 . S
H813 C821 0.950 . S
H814 C819 0.950 . S
H815 C820 0.949 . S
H816 C822 0.950 . S
H817 C823 0.950 . S
H818 C824 0.949 . S
C819 H814 0.950 . S
C819 C821 1.327 . S
C819 C825 1.429 . S
C820 C812 1.574 . S
C820 H815 0.949 . S
C820 C826 1.368 . S
C821 C805 1.349 . S
C821 H813 0.950 . S
C821 C819 1.327 . S
C822 C810 1.349 . S
C822 H816 0.950 . S
C822 C823 1.327 . S
C823 H817 0.950 . S
C823 C822 1.327 . S
C823 C827 1.429 . S
C824 C807 1.574 . S
C824 H818 0.949 . S
C824 C828 1.368 . S
C825 C806 1.429 . S
C825 C819 1.429 . S
C825 C826 1.523 . S
C826 C807 1.368 . S
C826 C820 1.368 . S
C826 C825 1.523 . S
C827 C811 1.429 . S
C827 C823 1.429 . S
C827 C828 1.523 . S
C828 C812 1.368 . S
C828 C824 1.368 . S
C828 C827 1.523 . S
H829 C804 0.950 . S
H830 C806 0.950 . S
H831 C807 0.949 . S
H832 C809 0.950 . S
H833 C811 0.950 . S
C834 C835 1.349 . S
C834 C836 1.327 . S
C834 H859 0.950 . S
C835 C834 1.349 . S
C835 C851 1.349 . S
C836 C834 1.327 . S
C836 C855 1.429 . S
C836 H860 0.950 . S
C837 C854 1.574 . S
C837 C856 1.368 . S
C837 H861 0.949 . S
H838 C842 0.949 . S
C839 C840 1.349 . S
C839 C841 1.327 . S
C839 H862 0.950 . S
C840 C839 1.349 . S
C840 C852 1.349 . S
C841 C839 1.327 . S
C841 C857 1.429 . S
C841 H863 0.950 . S
C842 H838 0.949 . S
C842 C850 1.574 . S
C842 C858 1.368 . S
H843 C851 0.950 . S
H844 C849 0.950 . S
H845 C850 0.949 . S
H846 C852 0.950 1_554 S
H847 C853 0.950 . S
H848 C854 0.949 . S
C849 H844 0.950 . S
C849 C851 1.327 . S
C849 C855 1.429 . S
C850 C842 1.574 . S
C850 H845 0.949 . S
C850 C856 1.368 . S
C851 C835 1.349 . S
C851 H843 0.950 . S
C851 C849 1.327 . S
C852 C840 1.349 . S
C852 H846 0.950 1_556 S
C852 C853 1.327 . S
C853 H847 0.950 . S
C853 C852 1.327 . S
C853 C857 1.429 . S
C854 C837 1.574 . S
C854 H848 0.949 . S
C854 C858 1.368 . S
C855 C836 1.429 . S
C855 C849 1.429 . S
C855 C856 1.523 . S
C856 C837 1.368 . S
C856 C850 1.368 . S
C856 C855 1.523 . S
C857 C841 1.429 . S
C857 C853 1.429 . S
C857 C858 1.523 . S
C858 C842 1.368 . S
C858 C854 1.368 . S
C858 C857 1.523 . S
H859 C834 0.950 . S
H860 C836 0.950 . S
H861 C837 0.949 . S
H862 C839 0.950 . S
H863 C841 0.950 . S
C864 C865 1.349 . S
C864 C866 1.327 . S
C864 H889 0.950 . S
C865 C864 1.349 . S
C865 C881 1.349 . S
C866 C864 1.327 . S
C866 C885 1.429 . S
C866 H890 0.950 . S
C867 C884 1.574 . S
C867 C886 1.368 . S
C867 H891 0.949 . S
H868 C872 0.949 . S
C869 C870 1.349 . S
C869 C871 1.327 . S
C869 H892 0.950 . S
C870 C869 1.349 . S
C870 C882 1.349 . S
C871 C869 1.327 . S
C871 C887 1.429 . S
C871 H893 0.950 . S
C872 H868 0.949 . S
C872 C880 1.574 . S
C872 C888 1.368 . S
H873 C881 0.950 . S
H874 C879 0.950 . S
H875 C880 0.949 . S
H876 C882 0.950 1_556 S
H877 C883 0.950 . S
H878 C884 0.949 . S
C879 H874 0.950 . S
C879 C881 1.327 . S
C879 C885 1.429 . S
C880 C872 1.574 . S
C880 H875 0.949 . S
C880 C886 1.368 . S
C881 C865 1.349 . S
C881 H873 0.950 . S
C881 C879 1.327 . S
C882 C870 1.349 . S
C882 H876 0.950 1_554 S
C882 C883 1.327 . S
C883 H877 0.950 . S
C883 C882 1.327 . S
C883 C887 1.429 . S
C884 C867 1.574 . S
C884 H878 0.949 . S
C884 C888 1.368 . S
C885 C866 1.429 . S
C885 C879 1.429 . S
C885 C886 1.523 . S
C886 C867 1.368 . S
C886 C880 1.368 . S
C886 C885 1.523 . S
C887 C871 1.429 . S
C887 C883 1.429 . S
C887 C888 1.523 . S
C888 C872 1.368 . S
C888 C884 1.368 . S
C888 C887 1.523 . S
H889 C864 0.950 . S
H890 C866 0.950 . S
H891 C867 0.949 . S
H892 C869 0.950 . S
H893 C871 0.950 . S
C894 C895 1.349 . S
C894 C896 1.327 . S
C894 H919 0.950 . S
C895 C894 1.349 . S
C895 C911 1.349 . S
C896 C894 1.327 . S
C896 C915 1.429 . S
C896 H920 0.950 . S
C897 C914 1.574 . S
C897 C916 1.368 . S
C897 H921 0.949 . S
H898 C902 0.949 . S
C899 C900 1.349 . S
C899 C901 1.327 . S
C899 H922 0.950 1_554 S
C900 C899 1.349 . S
C900 C912 1.349 . S
C901 C899 1.327 . S
C901 C917 1.429 . S
C901 H923 0.950 . S
C902 H898 0.949 . S
C902 C910 1.574 . S
C902 C918 1.368 . S
H903 C911 0.950 . S
H904 C909 0.950 . S
H905 C910 0.949 . S
H906 C912 0.950 . S
H907 C913 0.950 . S
H908 C914 0.949 . S
C909 H904 0.950 . S
C909 C911 1.327 . S
C909 C915 1.429 . S
C910 C902 1.574 . S
C910 H905 0.949 . S
C910 C916 1.368 . S
C911 C895 1.349 . S
C911 H903 0.950 . S
C911 C909 1.327 . S
C912 C900 1.349 . S
C912 H906 0.950 . S
C912 C913 1.327 . S
C913 H907 0.950 . S
C913 C912 1.327 . S
C913 C917 1.429 . S
C914 C897 1.574 . S
C914 H908 0.949 . S
C914 C918 1.368 . S
C915 C896 1.429 . S
C915 C909 1.429 . S
C915 C916 1.523 . S
C916 C897 1.368 . S
C916 C910 1.368 . S
C916 C915 1.523 . S
C917 C901 1.429 . S
C917 C913 1.429 . S
C917 C918 1.523 . S
C918 C902 1.368 . S
C918 C914 1.368 . S
C918 C917 1.523 . S
H919 C894 0.950 . S
H920 C896 0.950 . S
H921 C897 0.949 . S
H922 C899 0.950 1_556 S
H923 C901 0.950 . S
C924 C925 1.349 . S
C924 C926 1.327 . S
C924 H949 0.950 . S
C925 C924 1.349 . S
C925 C941 1.349 . S
C926 C924 1.327 . S
C926 C945 1.429 . S
C926 H950 0.950 . S
C927 C944 1.574 . S
C927 C946 1.368 . S
C927 H951 0.949 . S
H928 C932 0.949 . S
C929 C930 1.349 . S
C929 C931 1.327 . S
C929 H952 0.950 . S
C930 C929 1.349 . S
C930 C942 1.349 . S
C931 C929 1.327 . S
C931 C947 1.429 . S
C931 H953 0.950 . S
C932 H928 0.949 . S
C932 C940 1.574 . S
C932 C948 1.368 . S
H933 C941 0.950 . S
H934 C939 0.950 . S
H935 C940 0.949 . S
H936 C942 0.950 . S
H937 C943 0.950 . S
H938 C944 0.949 . S
C939 H934 0.950 . S
C939 C941 1.327 . S
C939 C945 1.429 . S
C940 C932 1.574 . S
C940 H935 0.949 . S
C940 C946 1.368 . S
C941 C925 1.349 . S
C941 H933 0.950 . S
C941 C939 1.327 . S
C942 C930 1.349 . S
C942 H936 0.950 . S
C942 C943 1.327 . S
C943 H937 0.950 . S
C943 C942 1.327 . S
C943 C947 1.429 . S
C944 C927 1.574 . S
C944 H938 0.949 . S
C944 C948 1.368 . S
C945 C926 1.429 . S
C945 C939 1.429 . S
C945 C946 1.523 . S
C946 C927 1.368 . S
C946 C940 1.368 . S
C946 C945 1.523 . S
C947 C931 1.429 . S
C947 C943 1.429 . S
C947 C948 1.523 . S
C948 C932 1.368 . S
C948 C944 1.368 . S
C948 C947 1.523 . S
H949 C924 0.950 . S
H950 C926 0.950 . S
H951 C927 0.949 . S
H952 C929 0.950 . S
H953 C931 0.950 . S
C954 C955 1.349 . S
C954 C956 1.327 . S
C954 H979 0.950 . S
C955 C954 1.349 . S
C955 C971 1.349 . S
C956 C954 1.327 . S
C956 C975 1.429 . S
C956 H980 0.950 . S
C957 C974 1.574 . S
C957 C976 1.368 . S
C957 H981 0.949 . S
H958 C962 0.949 . S
C959 C960 1.349 . S
C959 C961 1.327 . S
C959 H982 0.950 1_554 S
C960 C959 1.349 . S
C960 C972 1.349 . S
C961 C959 1.327 . S
C961 C977 1.429 . S
C961 H983 0.950 . S
C962 H958 0.949 . S
C962 C970 1.574 . S
C962 C978 1.368 . S
H963 C971 0.950 . S
H964 C969 0.950 . S
H965 C970 0.949 . S
H966 C972 0.950 . S
H967 C973 0.950 . S
H968 C974 0.949 . S
C969 H964 0.950 . S
C969 C971 1.327 . S
C969 C975 1.429 . S
C970 C962 1.574 . S
C970 H965 0.949 . S
C970 C976 1.368 . S
C971 C955 1.349 . S
C971 H963 0.950 . S
C971 C969 1.327 . S
C972 C960 1.349 . S
C972 H966 0.950 . S
C972 C973 1.327 . S
C973 H967 0.950 . S
C973 C972 1.327 . S
C973 C977 1.429 . S
C974 C957 1.574 . S
C974 H968 0.949 . S
C974 C978 1.368 . S
C975 C956 1.429 . S
C975 C969 1.429 . S
C975 C976 1.523 . S
C976 C957 1.368 . S
C976 C970 1.368 . S
C976 C975 1.523 . S
C977 C961 1.429 . S
C977 C973 1.429 . S
C977 C978 1.523 . S
C978 C962 1.368 . S
C978 C974 1.368 . S
C978 C977 1.523 . S
H979 C954 0.950 . S
H980 C956 0.950 . S
H981 C957 0.949 . S
H982 C959 0.950 1_556 S
H983 C961 0.950 . S
C984 C985 1.349 . S
C984 C986 1.327 . S
C984 H1009 0.950 . S
C985 C984 1.349 . S
C985 C1001 1.349 . S
C986 C984 1.327 . S
C986 C1005 1.429 . S
C986 H1010 0.950 . S
C987 C1004 1.574 . S
C987 C1006 1.368 . S
C987 H1011 0.949 . S
H988 C992 0.949 . S
C989 C990 1.349 . S
C989 C991 1.327 . S
C989 H1012 0.950 . S
C990 C989 1.349 . S
C990 C1002 1.349 . S
C991 C989 1.327 . S
C991 C1007 1.429 . S
C991 H1013 0.950 . S
C992 H988 0.949 . S
C992 C1000 1.574 . S
C992 C1008 1.368 . S
H993 C1001 0.950 . S
H994 C999 0.950 . S
H995 C1000 0.949 . S
H996 C1002 0.950 1_556 S
H997 C1003 0.950 . S
H998 C1004 0.949 . S
C999 H994 0.950 . S
C999 C1001 1.327 . S
C999 C1005 1.429 . S
C1000 C992 1.574 . S
C1000 H995 0.949 . S
C1000 C1006 1.368 . S
C1001 C985 1.349 . S
C1001 H993 0.950 . S
C1001 C999 1.327 . S
C1002 C990 1.349 . S
C1002 H996 0.950 1_554 S
C1002 C1003 1.327 . S
C1003 H997 0.950 . S
C1003 C1002 1.327 . S
C1003 C1007 1.429 . S
C1004 C987 1.574 . S
C1004 H998 0.949 . S
C1004 C1008 1.368 . S
C1005 C986 1.429 . S
C1005 C999 1.429 . S
C1005 C1006 1.523 . S
C1006 C987 1.368 . S
C1006 C1000 1.368 . S
C1006 C1005 1.523 . S
C1007 C991 1.429 . S
C1007 C1003 1.429 . S
C1007 C1008 1.523 . S
C1008 C992 1.368 . S
C1008 C1004 1.368 . S
C1008 C1007 1.523 . S
H1009 C984 0.950 . S
H1010 C986 0.950 . S
H1011 C987 0.949 . S
H1012 C989 0.950 . S
H1013 C991 0.950 . S
C1014 C1015 1.349 . S
C1014 C1016 1.327 . S
C1014 H1039 0.950 . S
C1015 C1014 1.349 . S
C1015 C1031 1.349 . S
C1016 C1014 1.327 . S
C1016 C1035 1.429 . S
C1016 H1040 0.950 . S
C1017 C1034 1.574 . S
C1017 C1036 1.368 . S
C1017 H1041 0.949 . S
H1018 C1022 0.949 . S
C1019 C1020 1.349 . S
C1019 C1021 1.327 . S
C1019 H1042 0.950 1_554 S
C1020 C1019 1.349 . S
C1020 C1032 1.349 . S
C1021 C1019 1.327 . S
C1021 C1037 1.429 . S
C1021 H1043 0.950 . S
C1022 H1018 0.949 . S
C1022 C1030 1.574 . S
C1022 C1038 1.368 . S
H1023 C1031 0.950 . S
H1024 C1029 0.950 . S
H1025 C1030 0.949 . S
H1026 C1032 0.950 . S
H1027 C1033 0.950 . S
H1028 C1034 0.949 . S
C1029 H1024 0.950 . S
C1029 C1031 1.327 . S
C1029 C1035 1.429 . S
C1030 C1022 1.574 . S
C1030 H1025 0.949 . S
C1030 C1036 1.368 . S
C1031 C1015 1.349 . S
C1031 H1023 0.950 . S
C1031 C1029 1.327 . S
C1032 C1020 1.349 . S
C1032 H1026 0.950 . S
C1032 C1033 1.327 . S
C1033 H1027 0.950 . S
C1033 C1032 1.327 . S
C1033 C1037 1.429 . S
C1034 C1017 1.574 . S
C1034 H1028 0.949 . S
C1034 C1038 1.368 . S
C1035 C1016 1.429 . S
C1035 C1029 1.429 . S
C1035 C1036 1.523 . S
C1036 C1017 1.368 . S
C1036 C1030 1.368 . S
C1036 C1035 1.523 . S
C1037 C1021 1.429 . S
C1037 C1033 1.429 . S
C1037 C1038 1.523 . S
C1038 C1022 1.368 . S
C1038 C1034 1.368 . S
C1038 C1037 1.523 . S
H1039 C1014 0.950 . S
H1040 C1016 0.950 . S
H1041 C1017 0.949 . S
H1042 C1019 0.950 1_556 S
H1043 C1021 0.950 . S
C1044 C1045 1.349 . S
C1044 C1046 1.327 . S
C1044 H1069 0.950 . S
C1045 C1044 1.349 . S
C1045 C1061 1.349 . S
C1046 C1044 1.327 . S
C1046 C1065 1.429 . S
C1046 H1070 0.950 . S
C1047 C1064 1.562 1_566 S
C1047 C1066 1.371 . S
C1047 H1071 0.932 . S
H1048 C1052 0.932 . S
C1049 C1050 1.349 . S
C1049 C1051 1.327 . S
C1049 H1072 0.950 . S
C1050 C1049 1.349 . S
C1050 C1062 1.349 . S
C1051 C1049 1.327 . S
C1051 C1067 1.429 . S
C1051 H1073 0.950 . S
C1052 H1048 0.932 . S
C1052 C1060 1.562 1_544 S
C1052 C1068 1.371 . S
H1053 C1061 0.950 . S
H1054 C1059 0.950 . S
H1055 C1060 0.949 . S
H1056 C1062 0.950 . S
H1057 C1063 0.950 . S
H1058 C1064 0.949 . S
C1059 H1054 0.950 . S
C1059 C1061 1.327 . S
C1059 C1065 1.429 . S
C1060 C1052 1.562 1_566 S
C1060 H1055 0.949 . S
C1060 C1066 1.368 . S
C1061 C1045 1.349 . S
C1061 H1053 0.950 . S
C1061 C1059 1.327 . S
C1062 C1050 1.349 . S
C1062 H1056 0.950 . S
C1062 C1063 1.327 . S
C1063 H1057 0.950 . S
C1063 C1062 1.327 . S
C1063 C1067 1.429 . S
C1064 C1047 1.562 1_544 S
C1064 H1058 0.949 . S
C1064 C1068 1.368 . S
C1065 C1046 1.429 . S
C1065 C1059 1.429 . S
C1065 C1066 1.523 . S
C1066 C1047 1.371 . S
C1066 C1060 1.368 . S
C1066 C1065 1.523 . S
C1067 C1051 1.429 . S
C1067 C1063 1.429 . S
C1067 C1068 1.523 . S
C1068 C1052 1.371 . S
C1068 C1064 1.368 . S
C1068 C1067 1.523 . S
H1069 C1044 0.950 . S
H1070 C1046 0.950 . S
H1071 C1047 0.932 . S
H1072 C1049 0.950 . S
H1073 C1051 0.950 . S
C1074 C1075 1.349 . S
C1074 C1076 1.327 . S
C1074 H1099 0.950 . S
C1075 C1074 1.349 . S
C1075 C1091 1.349 . S
C1076 C1074 1.327 . S
C1076 C1095 1.429 . S
C1076 H1100 0.950 . S
C1077 C1094 1.574 . S
C1077 C1096 1.368 1_455 S
C1077 H1101 0.949 . S
H1078 C1082 0.949 . S
C1079 C1080 1.349 . S
C1079 C1081 1.327 . S
C1079 H1102 0.950 . S
C1080 C1079 1.349 . S
C1080 C1092 1.349 . S
C1081 C1079 1.327 . S
C1081 C1097 1.429 . S
C1081 H1103 0.950 . S
C1082 H1078 0.949 . S
C1082 C1090 1.574 . S
C1082 C1098 1.368 1_655 S
H1083 C1091 0.950 . S
H1084 C1089 0.950 . S
H1085 C1090 0.949 . S
H1086 C1092 0.950 . S
H1087 C1093 0.950 . S
H1088 C1094 0.949 . S
C1089 H1084 0.950 . S
C1089 C1091 1.327 . S
C1089 C1095 1.429 . S
C1090 C1082 1.574 . S
C1090 H1085 0.949 . S
C1090 C1096 1.368 1_556 S
C1091 C1075 1.349 . S
C1091 H1083 0.950 . S
C1091 C1089 1.327 . S
C1092 C1080 1.349 . S
C1092 H1086 0.950 . S
C1092 C1093 1.327 . S
C1093 H1087 0.950 . S
C1093 C1092 1.327 . S
C1093 C1097 1.429 . S
C1094 C1077 1.574 . S
C1094 H1088 0.949 . S
C1094 C1098 1.368 1_554 S
C1095 C1076 1.429 . S
C1095 C1089 1.429 . S
C1095 C1096 1.523 . S
C1096 C1077 1.368 1_655 S
C1096 C1090 1.368 1_554 S
C1096 C1095 1.523 . S
C1097 C1081 1.429 . S
C1097 C1093 1.429 . S
C1097 C1098 1.523 . S
C1098 C1082 1.368 1_455 S
C1098 C1094 1.368 1_556 S
C1098 C1097 1.523 . S
H1099 C1074 0.950 . S
H1100 C1076 0.950 . S
H1101 C1077 0.949 . S
H1102 C1079 0.950 . S
H1103 C1081 0.950 . S
C1104 C1105 1.349 . S
C1104 C1106 1.327 . S
C1104 H1129 0.950 . S
C1105 C1104 1.349 . S
C1105 C1121 1.349 . S
C1106 C1104 1.327 . S
C1106 C1125 1.429 . S
C1106 H1130 0.950 . S
C1107 C1124 1.574 . S
C1107 C1126 1.368 1_554 S
C1107 H1131 0.949 . S
H1108 C1112 0.949 . S
C1109 C1110 1.349 . S
C1109 C1111 1.327 . S
C1109 H1132 0.950 . S
C1110 C1109 1.349 . S
C1110 C1122 1.349 . S
C1111 C1109 1.327 . S
C1111 C1127 1.429 . S
C1111 H1133 0.950 . S
C1112 H1108 0.949 . S
C1112 C1120 1.574 . S
C1112 C1128 1.368 1_556 S
H1113 C1121 0.950 . S
H1114 C1119 0.950 . S
H1115 C1120 0.949 . S
H1116 C1122 0.950 . S
H1117 C1123 0.950 . S
H1118 C1124 0.949 . S
C1119 H1114 0.950 . S
C1119 C1121 1.327 . S
C1119 C1125 1.429 . S
C1120 C1112 1.574 . S
C1120 H1115 0.949 . S
C1120 C1126 1.368 . S
C1121 C1105 1.349 . S
C1121 H1113 0.950 . S
C1121 C1119 1.327 . S
C1122 C1110 1.349 . S
C1122 H1116 0.950 . S
C1122 C1123 1.327 . S
C1123 H1117 0.950 . S
C1123 C1122 1.327 . S
C1123 C1127 1.429 . S
C1124 C1107 1.574 . S
C1124 H1118 0.949 . S
C1124 C1128 1.368 . S
C1125 C1106 1.429 . S
C1125 C1119 1.429 . S
C1125 C1126 1.523 . S
C1126 C1107 1.368 1_556 S
C1126 C1120 1.368 . S
C1126 C1125 1.523 . S
C1127 C1111 1.429 . S
C1127 C1123 1.429 . S
C1127 C1128 1.523 . S
C1128 C1112 1.368 1_554 S
C1128 C1124 1.368 . S
C1128 C1127 1.523 . S
H1129 C1104 0.950 . S
H1130 C1106 0.950 . S
H1131 C1107 0.949 . S
H1132 C1109 0.950 . S
H1133 C1111 0.950 . S
C1134 C1135 1.349 . S
C1134 C1136 1.327 . S
C1134 H1159 0.950 . S
C1135 C1134 1.349 . S
C1135 C1151 1.349 . S
C1136 C1134 1.327 . S
C1136 C1155 1.429 . S
C1136 H1160 0.950 . S
C1137 C1154 1.574 . S
C1137 C1156 1.368 1_554 S
C1137 H1161 0.949 . S
H1138 C1142 0.949 . S
C1139 C1140 1.349 . S
C1139 C1141 1.327 . S
C1139 H1162 0.950 . S
C1140 C1139 1.349 . S
C1140 C1152 1.349 . S
C1141 C1139 1.327 . S
C1141 C1157 1.429 . S
C1141 H1163 0.950 . S
C1142 H1138 0.949 . S
C1142 C1150 1.574 . S
C1142 C1158 1.368 1_556 S
H1143 C1151 0.950 . S
H1144 C1149 0.950 . S
H1145 C1150 0.949 . S
H1146 C1152 0.950 . S
H1147 C1153 0.950 . S
H1148 C1154 0.949 . S
C1149 H1144 0.950 . S
C1149 C1151 1.327 . S
C1149 C1155 1.429 . S
C1150 C1142 1.574 . S
C1150 H1145 0.949 . S
C1150 C1156 1.368 1_545 S
C1151 C1135 1.349 . S
C1151 H1143 0.950 . S
C1151 C1149 1.327 . S
C1152 C1140 1.349 . S
C1152 H1146 0.950 . S
C1152 C1153 1.327 . S
C1153 H1147 0.950 . S
C1153 C1152 1.327 . S
C1153 C1157 1.429 . S
C1154 C1137 1.574 . S
C1154 H1148 0.949 . S
C1154 C1158 1.368 1_565 S
C1155 C1136 1.429 . S
C1155 C1149 1.429 . S
C1155 C1156 1.523 . S
C1156 C1137 1.368 1_556 S
C1156 C1150 1.368 1_565 S
C1156 C1155 1.523 . S
C1157 C1141 1.429 . S
C1157 C1153 1.429 . S
C1157 C1158 1.523 . S
C1158 C1142 1.368 1_554 S
C1158 C1154 1.368 1_545 S
C1158 C1157 1.523 . S
H1159 C1134 0.950 . S
H1160 C1136 0.950 . S
H1161 C1137 0.949 . S
H1162 C1139 0.950 . S
H1163 C1141 0.950 . S
C1164 C1165 1.349 . S
C1164 C1166 1.327 . S
C1164 H1189 0.950 . S
C1165 C1164 1.349 . S
C1165 C1181 1.349 . S
C1166 C1164 1.327 . S
C1166 C1185 1.429 . S
C1166 H1190 0.950 . S
C1167 C1184 1.574 1_456 S
C1167 C1186 1.368 . S
C1167 H1191 0.949 . S
H1168 C1172 0.949 . S
C1169 C1170 1.349 . S
C1169 C1171 1.327 . S
C1169 H1192 0.950 . S
C1170 C1169 1.349 . S
C1170 C1182 1.349 . S
C1171 C1169 1.327 . S
C1171 C1187 1.429 . S
C1171 H1193 0.950 . S
C1172 H1168 0.949 . S
C1172 C1180 1.574 1_654 S
C1172 C1188 1.368 . S
H1173 C1181 0.950 . S
H1174 C1179 0.950 . S
H1175 C1180 0.949 . S
H1176 C1182 0.950 . S
H1177 C1183 0.950 . S
H1178 C1184 0.949 . S
C1179 H1174 0.950 . S
C1179 C1181 1.327 . S
C1179 C1185 1.429 . S
C1180 C1172 1.574 1_456 S
C1180 H1175 0.949 . S
C1180 C1186 1.368 . S
C1181 C1165 1.349 . S
C1181 H1173 0.950 . S
C1181 C1179 1.327 . S
C1182 C1170 1.349 . S
C1182 H1176 0.950 . S
C1182 C1183 1.327 . S
C1183 H1177 0.950 . S
C1183 C1182 1.327 . S
C1183 C1187 1.429 . S
C1184 C1167 1.574 1_654 S
C1184 H1178 0.949 . S
C1184 C1188 1.368 . S
C1185 C1166 1.429 . S
C1185 C1179 1.429 . S
C1185 C1186 1.523 . S
C1186 C1167 1.368 . S
C1186 C1180 1.368 . S
C1186 C1185 1.523 . S
C1187 C1171 1.429 . S
C1187 C1183 1.429 . S
C1187 C1188 1.523 . S
C1188 C1172 1.368 . S
C1188 C1184 1.368 . S
C1188 C1187 1.523 . S
H1189 C1164 0.950 . S
H1190 C1166 0.950 . S
H1191 C1167 0.949 . S
H1192 C1169 0.950 . S
H1193 C1171 0.950 . S
C1194 C1195 1.349 . S
C1194 C1196 1.327 . S
C1194 H1219 0.950 . S
C1195 C1194 1.349 . S
C1195 C1211 1.349 . S
C1196 C1194 1.327 . S
C1196 C1215 1.429 . S
C1196 H1220 0.950 . S
C1197 C1214 1.574 1_554 S
C1197 C1216 1.368 . S
C1197 H1221 0.949 . S
H1198 C1202 0.949 . S
C1199 C1200 1.349 . S
C1199 C1201 1.327 . S
C1199 H1222 0.950 . S
C1200 C1199 1.349 . S
C1200 C1212 1.349 . S
C1201 C1199 1.327 . S
C1201 C1217 1.429 . S
C1201 H1223 0.950 . S
C1202 H1198 0.949 . S
C1202 C1210 1.574 1_556 S
C1202 C1218 1.368 . S
H1203 C1211 0.950 . S
H1204 C1209 0.950 . S
H1205 C1210 0.949 . S
H1206 C1212 0.950 . S
H1207 C1213 0.950 . S
H1208 C1214 0.949 . S
C1209 H1204 0.950 . S
C1209 C1211 1.327 . S
C1209 C1215 1.429 . S
C1210 C1202 1.574 1_554 S
C1210 H1205 0.949 . S
C1210 C1216 1.368 . S
C1211 C1195 1.349 . S
C1211 H1203 0.950 . S
C1211 C1209 1.327 . S
C1212 C1200 1.349 . S
C1212 H1206 0.950 . S
C1212 C1213 1.327 . S
C1213 H1207 0.950 . S
C1213 C1212 1.327 . S
C1213 C1217 1.429 . S
C1214 C1197 1.574 1_556 S
C1214 H1208 0.949 . S
C1214 C1218 1.368 . S
C1215 C1196 1.429 . S
C1215 C1209 1.429 . S
C1215 C1216 1.523 . S
C1216 C1197 1.368 . S
C1216 C1210 1.368 . S
C1216 C1215 1.523 . S
C1217 C1201 1.429 . S
C1217 C1213 1.429 . S
C1217 C1218 1.523 . S
C1218 C1202 1.368 . S
C1218 C1214 1.368 . S
C1218 C1217 1.523 . S
H1219 C1194 0.950 . S
H1220 C1196 0.950 . S
H1221 C1197 0.949 . S
H1222 C1199 0.950 . S
H1223 C1201 0.950 . S
C1224 C1225 1.349 . S
C1224 C1226 1.327 . S
C1224 H1249 0.950 . S
C1225 C1224 1.349 . S
C1225 C1241 1.349 . S
C1226 C1224 1.327 . S
C1226 C1245 1.429 . S
C1226 H1250 0.950 . S
C1227 C1244 1.574 . S
C1227 C1246 1.368 . S
C1227 H1251 0.949 . S
H1228 C1232 0.949 . S
C1229 C1230 1.349 . S
C1229 C1231 1.327 . S
C1229 H1252 0.950 . S
C1230 C1229 1.349 . S
C1230 C1242 1.349 . S
C1231 C1229 1.327 . S
C1231 C1247 1.429 . S
C1231 H1253 0.950 . S
C1232 H1228 0.949 . S
C1232 C1240 1.574 . S
C1232 C1248 1.368 . S
H1233 C1241 0.950 . S
H1234 C1239 0.950 . S
H1235 C1240 0.949 . S
H1236 C1242 0.950 . S
H1237 C1243 0.950 . S
H1238 C1244 0.949 . S
C1239 H1234 0.950 . S
C1239 C1241 1.327 . S
C1239 C1245 1.429 . S
C1240 C1232 1.574 . S
C1240 H1235 0.949 . S
C1240 C1246 1.368 . S
C1241 C1225 1.349 . S
C1241 H1233 0.950 . S
C1241 C1239 1.327 . S
C1242 C1230 1.349 . S
C1242 H1236 0.950 . S
C1242 C1243 1.327 . S
C1243 H1237 0.950 . S
C1243 C1242 1.327 . S
C1243 C1247 1.429 . S
C1244 C1227 1.574 . S
C1244 H1238 0.949 . S
C1244 C1248 1.368 . S
C1245 C1226 1.429 . S
C1245 C1239 1.429 . S
C1245 C1246 1.523 . S
C1246 C1227 1.368 . S
C1246 C1240 1.368 . S
C1246 C1245 1.523 . S
C1247 C1231 1.429 . S
C1247 C1243 1.429 . S
C1247 C1248 1.523 . S
C1248 C1232 1.368 . S
C1248 C1244 1.368 . S
C1248 C1247 1.523 . S
H1249 C1224 0.950 . S
H1250 C1226 0.950 . S
H1251 C1227 0.949 . S
H1252 C1229 0.950 . S
H1253 C1231 0.950 . S
C1254 C1255 1.349 . S
C1254 C1256 1.327 . S
C1254 H1279 0.950 . S
C1255 C1254 1.349 . S
C1255 C1271 1.349 . S
C1256 C1254 1.327 . S
C1256 C1275 1.429 . S
C1256 H1280 0.950 . S
C1257 C1274 1.574 . S
C1257 C1276 1.368 . S
C1257 H1281 0.949 . S
H1258 C1262 0.949 . S
C1259 C1260 1.349 . S
C1259 C1261 1.327 . S
C1259 H1282 0.950 . S
C1260 C1259 1.349 . S
C1260 C1272 1.349 . S
C1261 C1259 1.327 . S
C1261 C1277 1.429 . S
C1261 H1283 0.950 . S
C1262 H1258 0.949 . S
C1262 C1270 1.574 . S
C1262 C1278 1.368 . S
H1263 C1271 0.950 . S
H1264 C1269 0.950 . S
H1265 C1270 0.949 . S
H1266 C1272 0.950 . S
H1267 C1273 0.950 . S
H1268 C1274 0.949 . S
C1269 H1264 0.950 . S
C1269 C1271 1.327 . S
C1269 C1275 1.429 . S
C1270 C1262 1.574 . S
C1270 H1265 0.949 . S
C1270 C1276 1.368 . S
C1271 C1255 1.349 . S
C1271 H1263 0.950 . S
C1271 C1269 1.327 . S
C1272 C1260 1.349 . S
C1272 H1266 0.950 . S
C1272 C1273 1.327 . S
C1273 H1267 0.950 . S
C1273 C1272 1.327 . S
C1273 C1277 1.429 . S
C1274 C1257 1.574 . S
C1274 H1268 0.949 . S
C1274 C1278 1.368 . S
C1275 C1256 1.429 . S
C1275 C1269 1.429 . S
C1275 C1276 1.523 . S
C1276 C1257 1.368 . S
C1276 C1270 1.368 . S
C1276 C1275 1.523 . S
C1277 C1261 1.429 . S
C1277 C1273 1.429 . S
C1277 C1278 1.523 . S
C1278 C1262 1.368 . S
C1278 C1274 1.368 . S
C1278 C1277 1.523 . S
H1279 C1254 0.950 . S
H1280 C1256 0.950 . S
H1281 C1257 0.949 . S
H1282 C1259 0.950 . S
H1283 C1261 0.950 . S
C1284 C1285 1.349 . S
C1284 C1286 1.327 . S
C1284 H1309 0.950 . S
C1285 C1284 1.349 . S
C1285 C1301 1.349 . S
C1286 C1284 1.327 . S
C1286 C1305 1.429 . S
C1286 H1310 0.950 . S
C1287 C1304 1.574 . S
C1287 C1306 1.368 . S
C1287 H1311 0.949 . S
H1288 C1292 0.949 . S
C1289 C1290 1.349 . S
C1289 C1291 1.327 . S
C1289 H1312 0.950 . S
C1290 C1289 1.349 . S
C1290 C1302 1.349 . S
C1291 C1289 1.327 . S
C1291 C1307 1.429 . S
C1291 H1313 0.950 . S
C1292 H1288 0.949 . S
C1292 C1300 1.574 . S
C1292 C1308 1.368 . S
H1293 C1301 0.950 . S
H1294 C1299 0.950 . S
H1295 C1300 0.949 . S
H1296 C1302 0.950 . S
H1297 C1303 0.950 . S
H1298 C1304 0.949 . S
C1299 H1294 0.950 . S
C1299 C1301 1.327 . S
C1299 C1305 1.429 . S
C1300 C1292 1.574 . S
C1300 H1295 0.949 . S
C1300 C1306 1.368 . S
C1301 C1285 1.349 . S
C1301 H1293 0.950 . S
C1301 C1299 1.327 . S
C1302 C1290 1.349 . S
C1302 H1296 0.950 . S
C1302 C1303 1.327 . S
C1303 H1297 0.950 . S
C1303 C1302 1.327 . S
C1303 C1307 1.429 . S
C1304 C1287 1.574 . S
C1304 H1298 0.949 . S
C1304 C1308 1.368 . S
C1305 C1286 1.429 . S
C1305 C1299 1.429 . S
C1305 C1306 1.523 . S
C1306 C1287 1.368 . S
C1306 C1300 1.368 . S
C1306 C1305 1.523 . S
C1307 C1291 1.429 . S
C1307 C1303 1.429 . S
C1307 C1308 1.523 . S
C1308 C1292 1.368 . S
C1308 C1304 1.368 . S
C1308 C1307 1.523 . S
H1309 C1284 0.950 . S
H1310 C1286 0.950 . S
H1311 C1287 0.949 . S
H1312 C1289 0.950 . S
H1313 C1291 0.950 . S
C1314 C1315 1.349 . S
C1314 C1316 1.327 . S
C1314 H1339 0.950 . S
C1315 C1314 1.349 . S
C1315 C1331 1.349 . S
C1316 C1314 1.327 . S
C1316 C1335 1.429 . S
C1316 H1340 0.950 . S
C1317 C1334 1.574 . S
C1317 C1336 1.368 . S
C1317 H1341 0.949 . S
H1318 C1322 0.949 . S
C1319 C1320 1.349 . S
C1319 C1321 1.327 . S
C1319 H1342 0.950 . S
C1320 C1319 1.349 . S
C1320 C1332 1.349 . S
C1321 C1319 1.327 . S
C1321 C1337 1.429 . S
C1321 H1343 0.950 . S
C1322 H1318 0.949 . S
C1322 C1330 1.574 . S
C1322 C1338 1.368 . S
H1323 C1331 0.950 . S
H1324 C1329 0.950 . S
H1325 C1330 0.949 . S
H1326 C1332 0.950 . S
H1327 C1333 0.950 . S
H1328 C1334 0.949 . S
C1329 H1324 0.950 . S
C1329 C1331 1.327 . S
C1329 C1335 1.429 . S
C1330 C1322 1.574 . S
C1330 H1325 0.949 . S
C1330 C1336 1.368 . S
C1331 C1315 1.349 . S
C1331 H1323 0.950 . S
C1331 C1329 1.327 . S
C1332 C1320 1.349 . S
C1332 H1326 0.950 . S
C1332 C1333 1.327 . S
C1333 H1327 0.950 . S
C1333 C1332 1.327 . S
C1333 C1337 1.429 . S
C1334 C1317 1.574 . S
C1334 H1328 0.949 . S
C1334 C1338 1.368 . S
C1335 C1316 1.429 . S
C1335 C1329 1.429 . S
C1335 C1336 1.523 . S
C1336 C1317 1.368 . S
C1336 C1330 1.368 . S
C1336 C1335 1.523 . S
C1337 C1321 1.429 . S
C1337 C1333 1.429 . S
C1337 C1338 1.523 . S
C1338 C1322 1.368 . S
C1338 C1334 1.368 . S
C1338 C1337 1.523 . S
H1339 C1314 0.950 . S
H1340 C1316 0.950 . S
H1341 C1317 0.949 . S
H1342 C1319 0.950 . S
H1343 C1321 0.950 . S
C1344 C1345 1.349 . S
C1344 C1346 1.327 . S
C1344 H1369 0.950 . S
C1345 C1344 1.349 . S
C1345 C1361 1.349 . S
C1346 C1344 1.327 . S
C1346 C1365 1.429 . S
C1346 H1370 0.950 . S
C1347 C1364 1.574 . S
C1347 C1366 1.368 . S
C1347 H1371 0.949 . S
H1348 C1352 0.949 . S
C1349 C1350 1.349 . S
C1349 C1351 1.327 . S
C1349 H1372 0.950 . S
C1350 C1349 1.349 . S
C1350 C1362 1.349 . S
C1351 C1349 1.327 . S
C1351 C1367 1.429 . S
C1351 H1373 0.950 . S
C1352 H1348 0.949 . S
C1352 C1360 1.574 . S
C1352 C1368 1.368 . S
H1353 C1361 0.950 . S
H1354 C1359 0.950 . S
H1355 C1360 0.949 . S
H1356 C1362 0.950 . S
H1357 C1363 0.950 . S
H1358 C1364 0.949 . S
C1359 H1354 0.950 . S
C1359 C1361 1.327 . S
C1359 C1365 1.429 . S
C1360 C1352 1.574 . S
C1360 H1355 0.949 . S
C1360 C1366 1.368 . S
C1361 C1345 1.349 . S
C1361 H1353 0.950 . S
C1361 C1359 1.327 . S
C1362 C1350 1.349 . S
C1362 H1356 0.950 . S
C1362 C1363 1.327 . S
C1363 H1357 0.950 . S
C1363 C1362 1.327 . S
C1363 C1367 1.429 . S
C1364 C1347 1.574 . S
C1364 H1358 0.949 . S
C1364 C1368 1.368 . S
C1365 C1346 1.429 . S
C1365 C1359 1.429 . S
C1365 C1366 1.523 . S
C1366 C1347 1.368 . S
C1366 C1360 1.368 . S
C1366 C1365 1.523 . S
C1367 C1351 1.429 . S
C1367 C1363 1.429 . S
C1367 C1368 1.523 . S
C1368 C1352 1.368 . S
C1368 C1364 1.368 . S
C1368 C1367 1.523 . S
H1369 C1344 0.950 . S
H1370 C1346 0.950 . S
H1371 C1347 0.949 . S
H1372 C1349 0.950 . S
H1373 C1351 0.950 . S
C1374 C1375 1.349 . S
C1374 C1376 1.327 . S
C1374 H1399 0.950 . S
C1375 C1374 1.349 . S
C1375 C1391 1.349 . S
C1376 C1374 1.327 . S
C1376 C1395 1.429 . S
C1376 H1400 0.950 . S
C1377 C1394 1.574 . S
C1377 C1396 1.368 . S
C1377 H1401 0.949 . S
H1378 C1382 0.949 . S
C1379 C1380 1.349 . S
C1379 C1381 1.327 . S
C1379 H1402 0.950 . S
C1380 C1379 1.349 . S
C1380 C1392 1.349 . S
C1381 C1379 1.327 . S
C1381 C1397 1.429 . S
C1381 H1403 0.950 . S
C1382 H1378 0.949 . S
C1382 C1390 1.574 . S
C1382 C1398 1.368 . S
H1383 C1391 0.950 . S
H1384 C1389 0.950 . S
H1385 C1390 0.949 . S
H1386 C1392 0.950 . S
H1387 C1393 0.950 . S
H1388 C1394 0.949 . S
C1389 H1384 0.950 . S
C1389 C1391 1.327 . S
C1389 C1395 1.429 . S
C1390 C1382 1.574 . S
C1390 H1385 0.949 . S
C1390 C1396 1.368 . S
C1391 C1375 1.349 . S
C1391 H1383 0.950 . S
C1391 C1389 1.327 . S
C1392 C1380 1.349 . S
C1392 H1386 0.950 . S
C1392 C1393 1.327 . S
C1393 H1387 0.950 . S
C1393 C1392 1.327 . S
C1393 C1397 1.429 . S
C1394 C1377 1.574 . S
C1394 H1388 0.949 . S
C1394 C1398 1.368 . S
C1395 C1376 1.429 . S
C1395 C1389 1.429 . S
C1395 C1396 1.523 . S
C1396 C1377 1.368 . S
C1396 C1390 1.368 . S
C1396 C1395 1.523 . S
C1397 C1381 1.429 . S
C1397 C1393 1.429 . S
C1397 C1398 1.523 . S
C1398 C1382 1.368 . S
C1398 C1394 1.368 . S
C1398 C1397 1.523 . S
H1399 C1374 0.950 . S
H1400 C1376 0.950 . S
H1401 C1377 0.949 . S
H1402 C1379 0.950 . S
H1403 C1381 0.950 . S
C1404 C1405 1.349 . S
C1404 C1406 1.327 . S
C1404 H1429 0.950 . S
C1405 C1404 1.349 . S
C1405 C1421 1.349 . S
C1406 C1404 1.327 . S
C1406 C1425 1.429 . S
C1406 H1430 0.950 . S
C1407 C1424 1.574 . S
C1407 C1426 1.368 . S
C1407 H1431 0.949 . S
H1408 C1412 0.949 . S
C1409 C1410 1.349 . S
C1409 C1411 1.327 . S
C1409 H1432 0.950 . S
C1410 C1409 1.349 . S
C1410 C1422 1.349 . S
C1411 C1409 1.327 . S
C1411 C1427 1.429 . S
C1411 H1433 0.950 . S
C1412 H1408 0.949 . S
C1412 C1420 1.574 . S
C1412 C1428 1.368 . S
H1413 C1421 0.950 . S
H1414 C1419 0.950 . S
H1415 C1420 0.949 . S
H1416 C1422 0.950 . S
H1417 C1423 0.950 . S
H1418 C1424 0.949 . S
C1419 H1414 0.950 . S
C1419 C1421 1.327 . S
C1419 C1425 1.429 . S
C1420 C1412 1.574 . S
C1420 H1415 0.949 . S
C1420 C1426 1.368 . S
C1421 C1405 1.349 . S
C1421 H1413 0.950 . S
C1421 C1419 1.327 . S
C1422 C1410 1.349 . S
C1422 H1416 0.950 . S
C1422 C1423 1.327 . S
C1423 H1417 0.950 . S
C1423 C1422 1.327 . S
C1423 C1427 1.429 . S
C1424 C1407 1.574 . S
C1424 H1418 0.949 . S
C1424 C1428 1.368 . S
C1425 C1406 1.429 . S
C1425 C1419 1.429 . S
C1425 C1426 1.523 . S
C1426 C1407 1.368 . S
C1426 C1420 1.368 . S
C1426 C1425 1.523 . S
C1427 C1411 1.429 . S
C1427 C1423 1.429 . S
C1427 C1428 1.523 . S
C1428 C1412 1.368 . S
C1428 C1424 1.368 . S
C1428 C1427 1.523 . S
H1429 C1404 0.950 . S
H1430 C1406 0.950 . S
H1431 C1407 0.949 . S
H1432 C1409 0.950 . S
H1433 C1411 0.950 . S
C1434 C1435 1.349 . S
C1434 C1436 1.327 . S
C1434 H1459 0.950 . S
C1435 C1434 1.349 . S
C1435 C1451 1.349 . S
C1436 C1434 1.327 . S
C1436 C1455 1.429 . S
C1436 H1460 0.950 . S
C1437 C1454 1.574 . S
C1437 C1456 1.368 . S
C1437 H1461 0.949 . S
H1438 C1442 0.949 . S
C1439 C1440 1.349 . S
C1439 C1441 1.327 . S
C1439 H1462 0.950 . S
C1440 C1439 1.349 . S
C1440 C1452 1.349 . S
C1441 C1439 1.327 . S
C1441 C1457 1.429 . S
C1441 H1463 0.950 . S
C1442 H1438 0.949 . S
C1442 C1450 1.574 . S
C1442 C1458 1.368 . S
H1443 C1451 0.950 . S
H1444 C1449 0.950 . S
H1445 C1450 0.949 . S
H1446 C1452 0.950 . S
H1447 C1453 0.950 . S
H1448 C1454 0.949 . S
C1449 H1444 0.950 . S
C1449 C1451 1.327 . S
C1449 C1455 1.429 . S
C1450 C1442 1.574 . S
C1450 H1445 0.949 . S
C1450 C1456 1.368 . S
C1451 C1435 1.349 . S
C1451 H1443 0.950 . S
C1451 C1449 1.327 . S
C1452 C1440 1.349 . S
C1452 H1446 0.950 . S
C1452 C1453 1.327 . S
C1453 H1447 0.950 . S
C1453 C1452 1.327 . S
C1453 C1457 1.429 . S
C1454 C1437 1.574 . S
C1454 H1448 0.949 . S
C1454 C1458 1.368 . S
C1455 C1436 1.429 . S
C1455 C1449 1.429 . S
C1455 C1456 1.523 . S
C1456 C1437 1.368 . S
C1456 C1450 1.368 . S
C1456 C1455 1.523 . S
C1457 C1441 1.429 . S
C1457 C1453 1.429 . S
C1457 C1458 1.523 . S
C1458 C1442 1.368 . S
C1458 C1454 1.368 . S
C1458 C1457 1.523 . S
H1459 C1434 0.950 . S
H1460 C1436 0.950 . S
H1461 C1437 0.949 . S
H1462 C1439 0.950 . S
H1463 C1441 0.950 . S
C1464 C1465 1.349 . S
C1464 C1466 1.327 . S
C1464 H1489 0.950 . S
C1465 C1464 1.349 . S
C1465 C1481 1.349 . S
C1466 C1464 1.327 . S
C1466 C1485 1.429 . S
C1466 H1490 0.950 . S
C1467 C1484 1.574 . S
C1467 C1486 1.368 . S
C1467 H1491 0.949 . S
H1468 C1472 0.949 . S
C1469 C1470 1.349 . S
C1469 C1471 1.327 . S
C1469 H1492 0.950 . S
C1470 C1469 1.349 . S
C1470 C1482 1.349 . S
C1471 C1469 1.327 . S
C1471 C1487 1.429 . S
C1471 H1493 0.950 . S
C1472 H1468 0.949 . S
C1472 C1480 1.574 . S
C1472 C1488 1.368 . S
H1473 C1481 0.950 . S
H1474 C1479 0.950 . S
H1475 C1480 0.949 . S
H1476 C1482 0.950 . S
H1477 C1483 0.950 . S
H1478 C1484 0.949 . S
C1479 H1474 0.950 . S
C1479 C1481 1.327 . S
C1479 C1485 1.429 . S
C1480 C1472 1.574 . S
C1480 H1475 0.949 . S
C1480 C1486 1.368 . S
C1481 C1465 1.349 . S
C1481 H1473 0.950 . S
C1481 C1479 1.327 . S
C1482 C1470 1.349 . S
C1482 H1476 0.950 . S
C1482 C1483 1.327 . S
C1483 H1477 0.950 . S
C1483 C1482 1.327 . S
C1483 C1487 1.429 . S
C1484 C1467 1.574 . S
C1484 H1478 0.949 . S
C1484 C1488 1.368 . S
C1485 C1466 1.429 . S
C1485 C1479 1.429 . S
C1485 C1486 1.523 . S
C1486 C1467 1.368 . S
C1486 C1480 1.368 . S
C1486 C1485 1.523 . S
C1487 C1471 1.429 . S
C1487 C1483 1.429 . S
C1487 C1488 1.523 . S
C1488 C1472 1.368 . S
C1488 C1484 1.368 . S
C1488 C1487 1.523 . S
H1489 C1464 0.950 . S
H1490 C1466 0.950 . S
H1491 C1467 0.949 . S
H1492 C1469 0.950 . S
H1493 C1471 0.950 . S
C1494 C1495 1.349 . S
C1494 C1496 1.327 . S
C1494 H1519 0.950 . S
C1495 C1494 1.349 . S
C1495 C1511 1.349 . S
C1496 C1494 1.327 . S
C1496 C1515 1.429 . S
C1496 H1520 0.950 . S
C1497 C1514 1.574 . S
C1497 C1516 1.368 . S
C1497 H1521 0.949 . S
H1498 C1502 0.949 . S
C1499 C1500 1.349 . S
C1499 C1501 1.327 . S
C1499 H1522 0.950 . S
C1500 C1499 1.349 . S
C1500 C1512 1.349 . S
C1501 C1499 1.327 . S
C1501 C1517 1.429 . S
C1501 H1523 0.950 . S
C1502 H1498 0.949 . S
C1502 C1510 1.574 . S
C1502 C1518 1.368 . S
H1503 C1511 0.950 . S
H1504 C1509 0.950 . S
H1505 C1510 0.949 . S
H1506 C1512 0.950 . S
H1507 C1513 0.950 . S
H1508 C1514 0.949 . S
C1509 H1504 0.950 . S
C1509 C1511 1.327 . S
C1509 C1515 1.429 . S
C1510 C1502 1.574 . S
C1510 H1505 0.949 . S
C1510 C1516 1.368 . S
C1511 C1495 1.349 . S
C1511 H1503 0.950 . S
C1511 C1509 1.327 . S
C1512 C1500 1.349 . S
C1512 H1506 0.950 . S
C1512 C1513 1.327 . S
C1513 H1507 0.950 . S
C1513 C1512 1.327 . S
C1513 C1517 1.429 . S
C1514 C1497 1.574 . S
C1514 H1508 0.949 . S
C1514 C1518 1.368 . S
C1515 C1496 1.429 . S
C1515 C1509 1.429 . S
C1515 C1516 1.523 . S
C1516 C1497 1.368 . S
C1516 C1510 1.368 . S
C1516 C1515 1.523 . S
C1517 C1501 1.429 . S
C1517 C1513 1.429 . S
C1517 C1518 1.523 . S
C1518 C1502 1.368 . S
C1518 C1514 1.368 . S
C1518 C1517 1.523 . S
H1519 C1494 0.950 . S
H1520 C1496 0.950 . S
H1521 C1497 0.949 . S
H1522 C1499 0.950 . S
H1523 C1501 0.950 . S
C1524 C1525 1.349 . S
C1524 C1526 1.327 . S
C1524 H1549 0.950 . S
C1525 C1524 1.349 . S
C1525 C1541 1.349 . S
C1526 C1524 1.327 . S
C1526 C1545 1.429 . S
C1526 H1550 0.950 . S
C1527 C1544 1.574 . S
C1527 C1546 1.368 . S
C1527 H1551 0.949 . S
H1528 C1532 0.949 . S
C1529 C1530 1.349 . S
C1529 C1531 1.327 . S
C1529 H1552 0.950 . S
C1530 C1529 1.349 . S
C1530 C1542 1.349 . S
C1531 C1529 1.327 . S
C1531 C1547 1.429 . S
C1531 H1553 0.950 . S
C1532 H1528 0.949 . S
C1532 C1540 1.574 . S
C1532 C1548 1.368 . S
H1533 C1541 0.950 . S
H1534 C1539 0.950 . S
H1535 C1540 0.949 . S
H1536 C1542 0.950 . S
H1537 C1543 0.950 . S
H1538 C1544 0.949 . S
C1539 H1534 0.950 . S
C1539 C1541 1.327 . S
C1539 C1545 1.429 . S
C1540 C1532 1.574 . S
C1540 H1535 0.949 . S
C1540 C1546 1.368 . S
C1541 C1525 1.349 . S
C1541 H1533 0.950 . S
C1541 C1539 1.327 . S
C1542 C1530 1.349 . S
C1542 H1536 0.950 . S
C1542 C1543 1.327 . S
C1543 H1537 0.950 . S
C1543 C1542 1.327 . S
C1543 C1547 1.429 . S
C1544 C1527 1.574 . S
C1544 H1538 0.949 . S
C1544 C1548 1.368 . S
C1545 C1526 1.429 . S
C1545 C1539 1.429 . S
C1545 C1546 1.523 . S
C1546 C1527 1.368 . S
C1546 C1540 1.368 . S
C1546 C1545 1.523 . S
C1547 C1531 1.429 . S
C1547 C1543 1.429 . S
C1547 C1548 1.523 . S
C1548 C1532 1.368 . S
C1548 C1544 1.368 . S
C1548 C1547 1.523 . S
H1549 C1524 0.950 . S
H1550 C1526 0.950 . S
H1551 C1527 0.949 . S
H1552 C1529 0.950 . S
H1553 C1531 0.950 . S
C1554 C1555 1.349 . S
C1554 C1556 1.327 . S
C1554 H1579 0.950 . S
C1555 C1554 1.349 . S
C1555 C1571 1.349 . S
C1556 C1554 1.327 . S
C1556 C1575 1.429 . S
C1556 H1580 0.950 . S
C1557 C1574 1.574 . S
C1557 C1576 1.368 . S
C1557 H1581 0.949 . S
H1558 C1562 0.949 . S
C1559 C1560 1.349 . S
C1559 C1561 1.327 . S
C1559 H1582 0.950 . S
C1560 C1559 1.349 . S
C1560 C1572 1.349 . S
C1561 C1559 1.327 . S
C1561 C1577 1.429 . S
C1561 H1583 0.950 . S
C1562 H1558 0.949 . S
C1562 C1570 1.574 . S
C1562 C1578 1.368 . S
H1563 C1571 0.950 . S
H1564 C1569 0.950 . S
H1565 C1570 0.949 . S
H1566 C1572 0.950 . S
H1567 C1573 0.950 . S
H1568 C1574 0.949 . S
C1569 H1564 0.950 . S
C1569 C1571 1.327 . S
C1569 C1575 1.429 . S
C1570 C1562 1.574 . S
C1570 H1565 0.949 . S
C1570 C1576 1.368 . S
C1571 C1555 1.349 . S
C1571 H1563 0.950 . S
C1571 C1569 1.327 . S
C1572 C1560 1.349 . S
C1572 H1566 0.950 . S
C1572 C1573 1.327 . S
C1573 H1567 0.950 . S
C1573 C1572 1.327 . S
C1573 C1577 1.429 . S
C1574 C1557 1.574 . S
C1574 H1568 0.949 . S
C1574 C1578 1.368 . S
C1575 C1556 1.429 . S
C1575 C1569 1.429 . S
C1575 C1576 1.523 . S
C1576 C1557 1.368 . S
C1576 C1570 1.368 . S
C1576 C1575 1.523 . S
C1577 C1561 1.429 . S
C1577 C1573 1.429 . S
C1577 C1578 1.523 . S
C1578 C1562 1.368 . S
C1578 C1574 1.368 . S
C1578 C1577 1.523 . S
H1579 C1554 0.950 . S
H1580 C1556 0.950 . S
H1581 C1557 0.949 . S
H1582 C1559 0.950 . S
H1583 C1561 0.950 . S
C1584 C1585 1.349 . S
C1584 C1586 1.327 . S
C1584 H1609 0.950 . S
C1585 C1584 1.349 . S
C1585 C1601 1.349 . S
C1586 C1584 1.327 . S
C1586 C1605 1.429 . S
C1586 H1610 0.950 . S
C1587 C1604 1.574 . S
C1587 C1606 1.368 . S
C1587 H1611 0.949 . S
H1588 C1592 0.949 . S
C1589 C1590 1.349 . S
C1589 C1591 1.327 . S
C1589 H1612 0.950 . S
C1590 C1589 1.349 . S
C1590 C1602 1.349 . S
C1591 C1589 1.327 . S
C1591 C1607 1.429 . S
C1591 H1613 0.950 . S
C1592 H1588 0.949 . S
C1592 C1600 1.574 . S
C1592 C1608 1.368 . S
H1593 C1601 0.950 . S
H1594 C1599 0.950 . S
H1595 C1600 0.949 . S
H1596 C1602 0.950 . S
H1597 C1603 0.950 . S
H1598 C1604 0.949 . S
C1599 H1594 0.950 . S
C1599 C1601 1.327 . S
C1599 C1605 1.429 . S
C1600 C1592 1.574 . S
C1600 H1595 0.949 . S
C1600 C1606 1.368 . S
C1601 C1585 1.349 . S
C1601 H1593 0.950 . S
C1601 C1599 1.327 . S
C1602 C1590 1.349 . S
C1602 H1596 0.950 . S
C1602 C1603 1.327 . S
C1603 H1597 0.950 . S
C1603 C1602 1.327 . S
C1603 C1607 1.429 . S
C1604 C1587 1.574 . S
C1604 H1598 0.949 . S
C1604 C1608 1.368 . S
C1605 C1586 1.429 . S
C1605 C1599 1.429 . S
C1605 C1606 1.523 . S
C1606 C1587 1.368 . S
C1606 C1600 1.368 . S
C1606 C1605 1.523 . S
C1607 C1591 1.429 . S
C1607 C1603 1.429 . S
C1607 C1608 1.523 . S
C1608 C1592 1.368 . S
C1608 C1604 1.368 . S
C1608 C1607 1.523 . S
H1609 C1584 0.950 . S
H1610 C1586 0.950 . S
H1611 C1587 0.949 . S
H1612 C1589 0.950 . S
H1613 C1591 0.950 . S
C1614 C1615 1.349 . S
C1614 C1616 1.327 . S
C1614 H1639 0.950 . S
C1615 C1614 1.349 . S
C1615 C1631 1.349 . S
C1616 C1614 1.327 . S
C1616 C1635 1.429 . S
C1616 H1640 0.950 . S
C1617 C1634 1.574 . S
C1617 C1636 1.368 . S
C1617 H1641 0.949 . S
H1618 C1622 0.949 . S
C1619 C1620 1.349 . S
C1619 C1621 1.327 . S
C1619 H1642 0.950 . S
C1620 C1619 1.349 . S
C1620 C1632 1.349 . S
C1621 C1619 1.327 . S
C1621 C1637 1.429 . S
C1621 H1643 0.950 . S
C1622 H1618 0.949 . S
C1622 C1630 1.574 . S
C1622 C1638 1.368 . S
H1623 C1631 0.950 . S
H1624 C1629 0.950 . S
H1625 C1630 0.949 . S
H1626 C1632 0.950 . S
H1627 C1633 0.950 . S
H1628 C1634 0.949 . S
C1629 H1624 0.950 . S
C1629 C1631 1.327 . S
C1629 C1635 1.429 . S
C1630 C1622 1.574 . S
C1630 H1625 0.949 . S
C1630 C1636 1.368 . S
C1631 C1615 1.349 . S
C1631 H1623 0.950 . S
C1631 C1629 1.327 . S
C1632 C1620 1.349 . S
C1632 H1626 0.950 . S
C1632 C1633 1.327 . S
C1633 H1627 0.950 . S
C1633 C1632 1.327 . S
C1633 C1637 1.429 . S
C1634 C1617 1.574 . S
C1634 H1628 0.949 . S
C1634 C1638 1.368 . S
C1635 C1616 1.429 . S
C1635 C1629 1.429 . S
C1635 C1636 1.523 . S
C1636 C1617 1.368 . S
C1636 C1630 1.368 . S
C1636 C1635 1.523 . S
C1637 C1621 1.429 . S
C1637 C1633 1.429 . S
C1637 C1638 1.523 . S
C1638 C1622 1.368 . S
C1638 C1634 1.368 . S
C1638 C1637 1.523 . S
H1639 C1614 0.950 . S
H1640 C1616 0.950 . S
H1641 C1617 0.949 . S
H1642 C1619 0.950 . S
H1643 C1621 0.950 . S
C1644 C1645 1.349 . S
C1644 C1646 1.327 . S
C1644 H1669 0.950 . S
C1645 C1644 1.349 . S
C1645 C1661 1.349 . S
C1646 C1644 1.327 . S
C1646 C1665 1.429 . S
C1646 H1670 0.950 . S
C1647 C1664 1.574 . S
C1647 C1666 1.368 . S
C1647 H1671 0.949 . S
H1648 C1652 0.949 . S
C1649 C1650 1.349 . S
C1649 C1651 1.327 . S
C1649 H1672 0.950 . S
C1650 C1649 1.349 . S
C1650 C1662 1.349 . S
C1651 C1649 1.327 . S
C1651 C1667 1.429 . S
C1651 H1673 0.950 . S
C1652 H1648 0.949 . S
C1652 C1660 1.574 . S
C1652 C1668 1.368 . S
H1653 C1661 0.950 . S
H1654 C1659 0.950 . S
H1655 C1660 0.949 . S
H1656 C1662 0.950 . S
H1657 C1663 0.950 . S
H1658 C1664 0.949 . S
C1659 H1654 0.950 . S
C1659 C1661 1.327 . S
C1659 C1665 1.429 . S
C1660 C1652 1.574 . S
C1660 H1655 0.949 . S
C1660 C1666 1.368 . S
C1661 C1645 1.349 . S
C1661 H1653 0.950 . S
C1661 C1659 1.327 . S
C1662 C1650 1.349 . S
C1662 H1656 0.950 . S
C1662 C1663 1.327 . S
C1663 H1657 0.950 . S
C1663 C1662 1.327 . S
C1663 C1667 1.429 . S
C1664 C1647 1.574 . S
C1664 H1658 0.949 . S
C1664 C1668 1.368 . S
C1665 C1646 1.429 . S
C1665 C1659 1.429 . S
C1665 C1666 1.523 . S
C1666 C1647 1.368 . S
C1666 C1660 1.368 . S
C1666 C1665 1.523 . S
C1667 C1651 1.429 . S
C1667 C1663 1.429 . S
C1667 C1668 1.523 . S
C1668 C1652 1.368 . S
C1668 C1664 1.368 . S
C1668 C1667 1.523 . S
H1669 C1644 0.950 . S
H1670 C1646 0.950 . S
H1671 C1647 0.949 . S
H1672 C1649 0.950 . S
H1673 C1651 0.950 . S
C1674 C1675 1.349 . S
C1674 C1676 1.327 . S
C1674 H1699 0.950 . S
C1675 C1674 1.349 . S
C1675 C1691 1.349 . S
C1676 C1674 1.327 . S
C1676 C1695 1.429 . S
C1676 H1700 0.950 . S
C1677 C1694 1.574 . S
C1677 C1696 1.368 . S
C1677 H1701 0.949 . S
H1678 C1682 0.949 . S
C1679 C1680 1.349 . S
C1679 C1681 1.327 . S
C1679 H1702 0.950 . S
C1680 C1679 1.349 . S
C1680 C1692 1.349 . S
C1681 C1679 1.327 . S
C1681 C1697 1.429 . S
C1681 H1703 0.950 . S
C1682 H1678 0.949 . S
C1682 C1690 1.574 . S
C1682 C1698 1.368 . S
H1683 C1691 0.950 . S
H1684 C1689 0.950 . S
H1685 C1690 0.949 . S
H1686 C1692 0.950 . S
H1687 C1693 0.950 . S
H1688 C1694 0.949 . S
C1689 H1684 0.950 . S
C1689 C1691 1.327 . S
C1689 C1695 1.429 . S
C1690 C1682 1.574 . S
C1690 H1685 0.949 . S
C1690 C1696 1.368 . S
C1691 C1675 1.349 . S
C1691 H1683 0.950 . S
C1691 C1689 1.327 . S
C1692 C1680 1.349 . S
C1692 H1686 0.950 . S
C1692 C1693 1.327 . S
C1693 H1687 0.950 . S
C1693 C1692 1.327 . S
C1693 C1697 1.429 . S
C1694 C1677 1.574 . S
C1694 H1688 0.949 . S
C1694 C1698 1.368 . S
C1695 C1676 1.429 . S
C1695 C1689 1.429 . S
C1695 C1696 1.523 . S
C1696 C1677 1.368 . S
C1696 C1690 1.368 . S
C1696 C1695 1.523 . S
C1697 C1681 1.429 . S
C1697 C1693 1.429 . S
C1697 C1698 1.523 . S
C1698 C1682 1.368 . S
C1698 C1694 1.368 . S
C1698 C1697 1.523 . S
H1699 C1674 0.950 . S
H1700 C1676 0.950 . S
H1701 C1677 0.949 . S
H1702 C1679 0.950 . S
H1703 C1681 0.950 . S
C1704 C1705 1.349 . S
C1704 C1706 1.327 . S
C1704 H1729 0.950 . S
C1705 C1704 1.349 . S
C1705 C1721 1.349 . S
C1706 C1704 1.327 . S
C1706 C1725 1.429 . S
C1706 H1730 0.950 . S
C1707 C1724 1.574 . S
C1707 C1726 1.368 . S
C1707 H1731 0.949 . S
H1708 C1712 0.949 . S
C1709 C1710 1.349 . S
C1709 C1711 1.327 . S
C1709 H1732 0.950 . S
C1710 C1709 1.349 . S
C1710 C1722 1.349 . S
C1711 C1709 1.327 . S
C1711 C1727 1.429 . S
C1711 H1733 0.950 . S
C1712 H1708 0.949 . S
C1712 C1720 1.574 . S
C1712 C1728 1.368 . S
H1713 C1721 0.950 . S
H1714 C1719 0.950 . S
H1715 C1720 0.949 . S
H1716 C1722 0.950 . S
H1717 C1723 0.950 . S
H1718 C1724 0.949 . S
C1719 H1714 0.950 . S
C1719 C1721 1.327 . S
C1719 C1725 1.429 . S
C1720 C1712 1.574 . S
C1720 H1715 0.949 . S
C1720 C1726 1.368 . S
C1721 C1705 1.349 . S
C1721 H1713 0.950 . S
C1721 C1719 1.327 . S
C1722 C1710 1.349 . S
C1722 H1716 0.950 . S
C1722 C1723 1.327 . S
C1723 H1717 0.950 . S
C1723 C1722 1.327 . S
C1723 C1727 1.429 . S
C1724 C1707 1.574 . S
C1724 H1718 0.949 . S
C1724 C1728 1.368 . S
C1725 C1706 1.429 . S
C1725 C1719 1.429 . S
C1725 C1726 1.523 . S
C1726 C1707 1.368 . S
C1726 C1720 1.368 . S
C1726 C1725 1.523 . S
C1727 C1711 1.429 . S
C1727 C1723 1.429 . S
C1727 C1728 1.523 . S
C1728 C1712 1.368 . S
C1728 C1724 1.368 . S
C1728 C1727 1.523 . S
H1729 C1704 0.950 . S
H1730 C1706 0.950 . S
H1731 C1707 0.949 . S
H1732 C1709 0.950 . S
H1733 C1711 0.950 . S
C1734 C1735 1.349 . S
C1734 C1736 1.327 . S
C1734 H1759 0.950 . S
C1735 C1734 1.349 . S
C1735 C1751 1.349 . S
C1736 C1734 1.327 . S
C1736 C1755 1.429 . S
C1736 H1760 0.950 . S
C1737 C1754 1.574 . S
C1737 C1756 1.368 . S
C1737 H1761 0.949 . S
H1738 C1742 0.949 . S
C1739 C1740 1.349 . S
C1739 C1741 1.327 . S
C1739 H1762 0.950 . S
C1740 C1739 1.349 . S
C1740 C1752 1.349 . S
C1741 C1739 1.327 . S
C1741 C1757 1.429 . S
C1741 H1763 0.950 . S
C1742 H1738 0.949 . S
C1742 C1750 1.574 . S
C1742 C1758 1.368 . S
H1743 C1751 0.950 . S
H1744 C1749 0.950 . S
H1745 C1750 0.949 . S
H1746 C1752 0.950 . S
H1747 C1753 0.950 . S
H1748 C1754 0.949 . S
C1749 H1744 0.950 . S
C1749 C1751 1.327 . S
C1749 C1755 1.429 . S
C1750 C1742 1.574 . S
C1750 H1745 0.949 . S
C1750 C1756 1.368 . S
C1751 C1735 1.349 . S
C1751 H1743 0.950 . S
C1751 C1749 1.327 . S
C1752 C1740 1.349 . S
C1752 H1746 0.950 . S
C1752 C1753 1.327 . S
C1753 H1747 0.950 . S
C1753 C1752 1.327 . S
C1753 C1757 1.429 . S
C1754 C1737 1.574 . S
C1754 H1748 0.949 . S
C1754 C1758 1.368 . S
C1755 C1736 1.429 . S
C1755 C1749 1.429 . S
C1755 C1756 1.523 . S
C1756 C1737 1.368 . S
C1756 C1750 1.368 . S
C1756 C1755 1.523 . S
C1757 C1741 1.429 . S
C1757 C1753 1.429 . S
C1757 C1758 1.523 . S
C1758 C1742 1.368 . S
C1758 C1754 1.368 . S
C1758 C1757 1.523 . S
H1759 C1734 0.950 . S
H1760 C1736 0.950 . S
H1761 C1737 0.949 . S
H1762 C1739 0.950 . S
H1763 C1741 0.950 . S
C1764 C1765 1.349 . S
C1764 C1766 1.327 . S
C1764 H1789 0.950 . S
C1765 C1764 1.349 . S
C1765 C1781 1.349 . S
C1766 C1764 1.327 . S
C1766 C1785 1.429 . S
C1766 H1790 0.950 . S
C1767 C1784 1.574 . S
C1767 C1786 1.368 . S
C1767 H1791 0.949 . S
H1768 C1772 0.949 . S
C1769 C1770 1.349 . S
C1769 C1771 1.327 . S
C1769 H1792 0.950 . S
C1770 C1769 1.349 . S
C1770 C1782 1.349 . S
C1771 C1769 1.327 . S
C1771 C1787 1.429 . S
C1771 H1793 0.950 . S
C1772 H1768 0.949 . S
C1772 C1780 1.574 . S
C1772 C1788 1.368 . S
H1773 C1781 0.950 . S
H1774 C1779 0.950 . S
H1775 C1780 0.949 . S
H1776 C1782 0.950 . S
H1777 C1783 0.950 . S
H1778 C1784 0.949 . S
C1779 H1774 0.950 . S
C1779 C1781 1.327 . S
C1779 C1785 1.429 . S
C1780 C1772 1.574 . S
C1780 H1775 0.949 . S
C1780 C1786 1.368 . S
C1781 C1765 1.349 . S
C1781 H1773 0.950 . S
C1781 C1779 1.327 . S
C1782 C1770 1.349 . S
C1782 H1776 0.950 . S
C1782 C1783 1.327 . S
C1783 H1777 0.950 . S
C1783 C1782 1.327 . S
C1783 C1787 1.429 . S
C1784 C1767 1.574 . S
C1784 H1778 0.949 . S
C1784 C1788 1.368 . S
C1785 C1766 1.429 . S
C1785 C1779 1.429 . S
C1785 C1786 1.523 . S
C1786 C1767 1.368 . S
C1786 C1780 1.368 . S
C1786 C1785 1.523 . S
C1787 C1771 1.429 . S
C1787 C1783 1.429 . S
C1787 C1788 1.523 . S
C1788 C1772 1.368 . S
C1788 C1784 1.368 . S
C1788 C1787 1.523 . S
H1789 C1764 0.950 . S
H1790 C1766 0.950 . S
H1791 C1767 0.949 . S
H1792 C1769 0.950 . S
H1793 C1771 0.950 . S
C1794 C1795 1.349 . S
C1794 C1796 1.327 . S
C1794 H1819 0.950 . S
C1795 C1794 1.349 . S
C1795 C1811 1.349 . S
C1796 C1794 1.327 . S
C1796 C1815 1.429 . S
C1796 H1820 0.950 . S
C1797 C1814 1.574 . S
C1797 C1816 1.368 . S
C1797 H1821 0.949 . S
H1798 C1802 0.949 . S
C1799 C1800 1.349 . S
C1799 C1801 1.327 . S
C1799 H1822 0.950 . S
C1800 C1799 1.349 . S
C1800 C1812 1.349 . S
C1801 C1799 1.327 . S
C1801 C1817 1.429 . S
C1801 H1823 0.950 . S
C1802 H1798 0.949 . S
C1802 C1810 1.574 . S
C1802 C1818 1.368 . S
H1803 C1811 0.950 . S
H1804 C1809 0.950 . S
H1805 C1810 0.949 . S
H1806 C1812 0.950 . S
H1807 C1813 0.950 . S
H1808 C1814 0.949 . S
C1809 H1804 0.950 . S
C1809 C1811 1.327 . S
C1809 C1815 1.429 . S
C1810 C1802 1.574 . S
C1810 H1805 0.949 . S
C1810 C1816 1.368 . S
C1811 C1795 1.349 . S
C1811 H1803 0.950 . S
C1811 C1809 1.327 . S
C1812 C1800 1.349 . S
C1812 H1806 0.950 . S
C1812 C1813 1.327 . S
C1813 H1807 0.950 . S
C1813 C1812 1.327 . S
C1813 C1817 1.429 . S
C1814 C1797 1.574 . S
C1814 H1808 0.949 . S
C1814 C1818 1.368 . S
C1815 C1796 1.429 . S
C1815 C1809 1.429 . S
C1815 C1816 1.523 . S
C1816 C1797 1.368 . S
C1816 C1810 1.368 . S
C1816 C1815 1.523 . S
C1817 C1801 1.429 . S
C1817 C1813 1.429 . S
C1817 C1818 1.523 . S
C1818 C1802 1.368 . S
C1818 C1814 1.368 . S
C1818 C1817 1.523 . S
H1819 C1794 0.950 . S
H1820 C1796 0.950 . S
H1821 C1797 0.949 . S
H1822 C1799 0.950 . S
H1823 C1801 0.950 . S
C1824 C1825 1.349 . S
C1824 C1826 1.327 . S
C1824 H1849 0.950 . S
C1825 C1824 1.349 . S
C1825 C1841 1.349 . S
C1826 C1824 1.327 . S
C1826 C1845 1.429 . S
C1826 H1850 0.950 . S
C1827 C1844 1.574 . S
C1827 C1846 1.368 . S
C1827 H1851 0.949 . S
H1828 C1832 0.949 . S
C1829 C1830 1.349 . S
C1829 C1831 1.327 . S
C1829 H1852 0.950 . S
C1830 C1829 1.349 . S
C1830 C1842 1.349 . S
C1831 C1829 1.327 . S
C1831 C1847 1.429 . S
C1831 H1853 0.950 . S
C1832 H1828 0.949 . S
C1832 C1840 1.574 . S
C1832 C1848 1.368 . S
H1833 C1841 0.950 . S
H1834 C1839 0.950 . S
H1835 C1840 0.949 . S
H1836 C1842 0.950 . S
H1837 C1843 0.950 . S
H1838 C1844 0.949 . S
C1839 H1834 0.950 . S
C1839 C1841 1.327 . S
C1839 C1845 1.429 . S
C1840 C1832 1.574 . S
C1840 H1835 0.949 . S
C1840 C1846 1.368 . S
C1841 C1825 1.349 . S
C1841 H1833 0.950 . S
C1841 C1839 1.327 . S
C1842 C1830 1.349 . S
C1842 H1836 0.950 . S
C1842 C1843 1.327 . S
C1843 H1837 0.950 . S
C1843 C1842 1.327 . S
C1843 C1847 1.429 . S
C1844 C1827 1.574 . S
C1844 H1838 0.949 . S
C1844 C1848 1.368 . S
C1845 C1826 1.429 . S
C1845 C1839 1.429 . S
C1845 C1846 1.523 . S
C1846 C1827 1.368 . S
C1846 C1840 1.368 . S
C1846 C1845 1.523 . S
C1847 C1831 1.429 . S
C1847 C1843 1.429 . S
C1847 C1848 1.523 . S
C1848 C1832 1.368 . S
C1848 C1844 1.368 . S
C1848 C1847 1.523 . S
H1849 C1824 0.950 . S
H1850 C1826 0.950 . S
H1851 C1827 0.949 . S
H1852 C1829 0.950 . S
H1853 C1831 0.950 . S
C1854 C1855 1.349 . S
C1854 C1856 1.327 . S
C1854 H1879 0.950 . S
C1855 C1854 1.349 . S
C1855 C1871 1.349 . S
C1856 C1854 1.327 . S
C1856 C1875 1.429 . S
C1856 H1880 0.950 . S
C1857 C1874 1.574 . S
C1857 C1876 1.368 . S
C1857 H1881 0.949 . S
H1858 C1862 0.949 . S
C1859 C1860 1.349 . S
C1859 C1861 1.327 . S
C1859 H1882 0.950 . S
C1860 C1859 1.349 . S
C1860 C1872 1.349 . S
C1861 C1859 1.327 . S
C1861 C1877 1.429 . S
C1861 H1883 0.950 . S
C1862 H1858 0.949 . S
C1862 C1870 1.574 . S
C1862 C1878 1.368 . S
H1863 C1871 0.950 . S
H1864 C1869 0.950 . S
H1865 C1870 0.949 . S
H1866 C1872 0.950 . S
H1867 C1873 0.950 . S
H1868 C1874 0.949 . S
C1869 H1864 0.950 . S
C1869 C1871 1.327 . S
C1869 C1875 1.429 . S
C1870 C1862 1.574 . S
C1870 H1865 0.949 . S
C1870 C1876 1.368 . S
C1871 C1855 1.349 . S
C1871 H1863 0.950 . S
C1871 C1869 1.327 . S
C1872 C1860 1.349 . S
C1872 H1866 0.950 . S
C1872 C1873 1.327 . S
C1873 H1867 0.950 . S
C1873 C1872 1.327 . S
C1873 C1877 1.429 . S
C1874 C1857 1.574 . S
C1874 H1868 0.949 . S
C1874 C1878 1.368 . S
C1875 C1856 1.429 . S
C1875 C1869 1.429 . S
C1875 C1876 1.523 . S
C1876 C1857 1.368 . S
C1876 C1870 1.368 . S
C1876 C1875 1.523 . S
C1877 C1861 1.429 . S
C1877 C1873 1.429 . S
C1877 C1878 1.523 . S
C1878 C1862 1.368 . S
C1878 C1874 1.368 . S
C1878 C1877 1.523 . S
H1879 C1854 0.950 . S
H1880 C1856 0.950 . S
H1881 C1857 0.949 . S
H1882 C1859 0.950 . S
H1883 C1861 0.950 . S
C1884 C1885 1.349 . S
C1884 C1886 1.327 . S
C1884 H1909 0.950 . S
C1885 C1884 1.349 . S
C1885 C1901 1.349 . S
C1886 C1884 1.327 . S
C1886 C1905 1.429 . S
C1886 H1910 0.950 . S
C1887 C1904 1.574 . S
C1887 C1906 1.368 . S
C1887 H1911 0.949 . S
H1888 C1892 0.949 . S
C1889 C1890 1.349 . S
C1889 C1891 1.327 . S
C1889 H1912 0.950 . S
C1890 C1889 1.349 . S
C1890 C1902 1.349 . S
C1891 C1889 1.327 . S
C1891 C1907 1.429 . S
C1891 H1913 0.950 . S
C1892 H1888 0.949 . S
C1892 C1900 1.574 . S
C1892 C1908 1.368 . S
H1893 C1901 0.950 . S
H1894 C1899 0.950 . S
H1895 C1900 0.949 . S
H1896 C1902 0.950 . S
H1897 C1903 0.950 . S
H1898 C1904 0.949 . S
C1899 H1894 0.950 . S
C1899 C1901 1.327 . S
C1899 C1905 1.429 . S
C1900 C1892 1.574 . S
C1900 H1895 0.949 . S
C1900 C1906 1.368 . S
C1901 C1885 1.349 . S
C1901 H1893 0.950 . S
C1901 C1899 1.327 . S
C1902 C1890 1.349 . S
C1902 H1896 0.950 . S
C1902 C1903 1.327 . S
C1903 H1897 0.950 . S
C1903 C1902 1.327 . S
C1903 C1907 1.429 . S
C1904 C1887 1.574 . S
C1904 H1898 0.949 . S
C1904 C1908 1.368 . S
C1905 C1886 1.429 . S
C1905 C1899 1.429 . S
C1905 C1906 1.523 . S
C1906 C1887 1.368 . S
C1906 C1900 1.368 . S
C1906 C1905 1.523 . S
C1907 C1891 1.429 . S
C1907 C1903 1.429 . S
C1907 C1908 1.523 . S
C1908 C1892 1.368 . S
C1908 C1904 1.368 . S
C1908 C1907 1.523 . S
H1909 C1884 0.950 . S
H1910 C1886 0.950 . S
H1911 C1887 0.949 . S
H1912 C1889 0.950 . S
H1913 C1891 0.950 . S
C1914 C1915 1.349 . S
C1914 C1916 1.327 . S
C1914 H1939 0.950 . S
C1915 C1914 1.349 . S
C1915 C1931 1.349 . S
C1916 C1914 1.327 . S
C1916 C1935 1.429 . S
C1916 H1940 0.950 . S
C1917 C1934 1.574 . S
C1917 C1936 1.368 . S
C1917 H1941 0.949 . S
H1918 C1922 0.949 . S
C1919 C1920 1.349 . S
C1919 C1921 1.327 . S
C1919 H1942 0.950 . S
C1920 C1919 1.349 . S
C1920 C1932 1.349 . S
C1921 C1919 1.327 . S
C1921 C1937 1.429 . S
C1921 H1943 0.950 . S
C1922 H1918 0.949 . S
C1922 C1930 1.574 . S
C1922 C1938 1.368 . S
H1923 C1931 0.950 . S
H1924 C1929 0.950 . S
H1925 C1930 0.949 . S
H1926 C1932 0.950 . S
H1927 C1933 0.950 . S
H1928 C1934 0.949 . S
C1929 H1924 0.950 . S
C1929 C1931 1.327 . S
C1929 C1935 1.429 . S
C1930 C1922 1.574 . S
C1930 H1925 0.949 . S
C1930 C1936 1.368 . S
C1931 C1915 1.349 . S
C1931 H1923 0.950 . S
C1931 C1929 1.327 . S
C1932 C1920 1.349 . S
C1932 H1926 0.950 . S
C1932 C1933 1.327 . S
C1933 H1927 0.950 . S
C1933 C1932 1.327 . S
C1933 C1937 1.429 . S
C1934 C1917 1.574 . S
C1934 H1928 0.949 . S
C1934 C1938 1.368 . S
C1935 C1916 1.429 . S
C1935 C1929 1.429 . S
C1935 C1936 1.523 . S
C1936 C1917 1.368 . S
C1936 C1930 1.368 . S
C1936 C1935 1.523 . S
C1937 C1921 1.429 . S
C1937 C1933 1.429 . S
C1937 C1938 1.523 . S
C1938 C1922 1.368 . S
C1938 C1934 1.368 . S
C1938 C1937 1.523 . S
H1939 C1914 0.950 . S
H1940 C1916 0.950 . S
H1941 C1917 0.949 . S
H1942 C1919 0.950 . S
H1943 C1921 0.950 . S
C1944 C1945 1.349 . S
C1944 C1946 1.327 . S
C1944 H1969 0.950 . S
C1945 C1944 1.349 . S
C1945 C1961 1.349 . S
C1946 C1944 1.327 . S
C1946 C1965 1.429 . S
C1946 H1970 0.950 . S
C1947 C1964 1.574 1_455 S
C1947 C1966 1.368 . S
C1947 H1971 0.949 . S
H1948 C1952 0.949 . S
C1949 C1950 1.349 . S
C1949 C1951 1.327 . S
C1949 H1972 0.950 . S
C1950 C1949 1.349 . S
C1950 C1962 1.349 . S
C1951 C1949 1.327 . S
C1951 C1967 1.429 . S
C1951 H1973 0.950 . S
C1952 H1948 0.949 . S
C1952 C1960 1.574 1_655 S
C1952 C1968 1.368 . S
H1953 C1961 0.950 . S
H1954 C1959 0.950 . S
H1955 C1960 0.949 . S
H1956 C1962 0.950 . S
H1957 C1963 0.950 . S
H1958 C1964 0.949 . S
C1959 H1954 0.950 . S
C1959 C1961 1.327 . S
C1959 C1965 1.429 . S
C1960 C1952 1.574 1_455 S
C1960 H1955 0.949 . S
C1960 C1966 1.368 . S
C1961 C1945 1.349 . S
C1961 H1953 0.950 . S
C1961 C1959 1.327 . S
C1962 C1950 1.349 . S
C1962 H1956 0.950 . S
C1962 C1963 1.327 . S
C1963 H1957 0.950 . S
C1963 C1962 1.327 . S
C1963 C1967 1.429 . S
C1964 C1947 1.574 1_655 S
C1964 H1958 0.949 . S
C1964 C1968 1.368 . S
C1965 C1946 1.429 . S
C1965 C1959 1.429 . S
C1965 C1966 1.523 . S
C1966 C1947 1.368 . S
C1966 C1960 1.368 . S
C1966 C1965 1.523 . S
C1967 C1951 1.429 . S
C1967 C1963 1.429 . S
C1967 C1968 1.523 . S
C1968 C1952 1.368 . S
C1968 C1964 1.368 . S
C1968 C1967 1.523 . S
H1969 C1944 0.950 . S
H1970 C1946 0.950 . S
H1971 C1947 0.949 . S
H1972 C1949 0.950 . S
H1973 C1951 0.950 . S
C1974 C1975 1.349 . S
C1974 C1976 1.327 . S
C1974 H1999 0.950 . S
C1975 C1974 1.349 . S
C1975 C1991 1.349 . S
C1976 C1974 1.327 . S
C1976 C1995 1.429 . S
C1976 H2000 0.950 . S
C1977 C1994 1.574 . S
C1977 C1996 1.368 . S
C1977 H2001 0.949 . S
H1978 C1982 0.949 . S
C1979 C1980 1.349 . S
C1979 C1981 1.327 . S
C1979 H2002 0.950 . S
C1980 C1979 1.349 . S
C1980 C1992 1.349 . S
C1981 C1979 1.327 . S
C1981 C1997 1.429 . S
C1981 H2003 0.950 . S
C1982 H1978 0.949 . S
C1982 C1990 1.574 . S
C1982 C1998 1.368 . S
H1983 C1991 0.950 . S
H1984 C1989 0.950 . S
H1985 C1990 0.949 . S
H1986 C1992 0.950 . S
H1987 C1993 0.950 . S
H1988 C1994 0.949 . S
C1989 H1984 0.950 . S
C1989 C1991 1.327 . S
C1989 C1995 1.429 . S
C1990 C1982 1.574 . S
C1990 H1985 0.949 . S
C1990 C1996 1.368 . S
C1991 C1975 1.349 . S
C1991 H1983 0.950 . S
C1991 C1989 1.327 . S
C1992 C1980 1.349 . S
C1992 H1986 0.950 . S
C1992 C1993 1.327 . S
C1993 H1987 0.950 . S
C1993 C1992 1.327 . S
C1993 C1997 1.429 . S
C1994 C1977 1.574 . S
C1994 H1988 0.949 . S
C1994 C1998 1.368 . S
C1995 C1976 1.429 . S
C1995 C1989 1.429 . S
C1995 C1996 1.523 . S
C1996 C1977 1.368 . S
C1996 C1990 1.368 . S
C1996 C1995 1.523 . S
C1997 C1981 1.429 . S
C1997 C1993 1.429 . S
C1997 C1998 1.523 . S
C1998 C1982 1.368 . S
C1998 C1994 1.368 . S
C1998 C1997 1.523 . S
H1999 C1974 0.950 . S
H2000 C1976 0.950 . S
H2001 C1977 0.949 . S
H2002 C1979 0.950 . S
H2003 C1981 0.950 . S
C2004 C2005 1.349 . S
C2004 C2006 1.327 . S
C2004 H2029 0.950 . S
C2005 C2004 1.349 . S
C2005 C2021 1.349 . S
C2006 C2004 1.327 . S
C2006 C2025 1.429 . S
C2006 H2030 0.950 . S
C2007 C2024 1.574 1_545 S
C2007 C2026 1.368 . S
C2007 H2031 0.949 . S
H2008 C2012 0.949 . S
C2009 C2010 1.349 . S
C2009 C2011 1.327 . S
C2009 H2032 0.950 . S
C2010 C2009 1.349 . S
C2010 C2022 1.349 . S
C2011 C2009 1.327 . S
C2011 C2027 1.429 . S
C2011 H2033 0.950 . S
C2012 H2008 0.949 . S
C2012 C2020 1.574 1_565 S
C2012 C2028 1.368 . S
H2013 C2021 0.950 . S
H2014 C2019 0.950 . S
H2015 C2020 0.949 . S
H2016 C2022 0.950 . S
H2017 C2023 0.950 . S
H2018 C2024 0.949 . S
C2019 H2014 0.950 . S
C2019 C2021 1.327 . S
C2019 C2025 1.429 . S
C2020 C2012 1.574 1_545 S
C2020 H2015 0.949 . S
C2020 C2026 1.368 . S
C2021 C2005 1.349 . S
C2021 H2013 0.950 . S
C2021 C2019 1.327 . S
C2022 C2010 1.349 . S
C2022 H2016 0.950 . S
C2022 C2023 1.327 . S
C2023 H2017 0.950 . S
C2023 C2022 1.327 . S
C2023 C2027 1.429 . S
C2024 C2007 1.574 1_565 S
C2024 H2018 0.949 . S
C2024 C2028 1.368 . S
C2025 C2006 1.429 . S
C2025 C2019 1.429 . S
C2025 C2026 1.523 . S
C2026 C2007 1.368 . S
C2026 C2020 1.368 . S
C2026 C2025 1.523 . S
C2027 C2011 1.429 . S
C2027 C2023 1.429 . S
C2027 C2028 1.523 . S
C2028 C2012 1.368 . S
C2028 C2024 1.368 . S
C2028 C2027 1.523 . S
H2029 C2004 0.950 . S
H2030 C2006 0.950 . S
H2031 C2007 0.949 . S
H2032 C2009 0.950 . S
H2033 C2011 0.950 . S
C2034 C2035 1.349 . S
C2034 C2036 1.327 . S
C2034 H2059 0.950 . S
C2035 C2034 1.349 . S
C2035 C2051 1.349 . S
C2036 C2034 1.327 . S
C2036 C2055 1.429 . S
C2036 H2060 0.950 . S
C2037 C2054 1.574 1_545 S
C2037 C2056 1.368 . S
C2037 H2061 0.949 . S
H2038 C2042 0.949 . S
C2039 C2040 1.349 . S
C2039 C2041 1.327 . S
C2039 H2062 0.950 . S
C2040 C2039 1.349 . S
C2040 C2052 1.349 . S
C2041 C2039 1.327 . S
C2041 C2057 1.429 . S
C2041 H2063 0.950 . S
C2042 H2038 0.949 . S
C2042 C2050 1.574 1_565 S
C2042 C2058 1.368 . S
H2043 C2051 0.950 . S
H2044 C2049 0.950 . S
H2045 C2050 0.949 . S
H2046 C2052 0.950 . S
H2047 C2053 0.950 . S
H2048 C2054 0.949 . S
C2049 H2044 0.950 . S
C2049 C2051 1.327 . S
C2049 C2055 1.429 . S
C2050 C2042 1.574 1_545 S
C2050 H2045 0.949 . S
C2050 C2056 1.368 . S
C2051 C2035 1.349 . S
C2051 H2043 0.950 . S
C2051 C2049 1.327 . S
C2052 C2040 1.349 . S
C2052 H2046 0.950 . S
C2052 C2053 1.327 . S
C2053 H2047 0.950 . S
C2053 C2052 1.327 . S
C2053 C2057 1.429 . S
C2054 C2037 1.574 1_565 S
C2054 H2048 0.949 . S
C2054 C2058 1.368 . S
C2055 C2036 1.429 . S
C2055 C2049 1.429 . S
C2055 C2056 1.523 . S
C2056 C2037 1.368 . S
C2056 C2050 1.368 . S
C2056 C2055 1.523 . S
C2057 C2041 1.429 . S
C2057 C2053 1.429 . S
C2057 C2058 1.523 . S
C2058 C2042 1.368 . S
C2058 C2054 1.368 . S
C2058 C2057 1.523 . S
H2059 C2034 0.950 . S
H2060 C2036 0.950 . S
H2061 C2037 0.949 . S
H2062 C2039 0.950 . S
H2063 C2041 0.950 . S
C2064 C2065 1.349 . S
C2064 C2066 1.327 . S
C2064 H2089 0.950 . S
C2065 C2064 1.349 . S
C2065 C2081 1.349 . S
C2066 C2064 1.327 . S
C2066 C2085 1.429 . S
C2066 H2090 0.950 . S
C2067 C2084 1.574 1_655 S
C2067 C2086 1.368 . S
C2067 H2091 0.949 . S
H2068 C2072 0.949 . S
C2069 C2070 1.349 . S
C2069 C2071 1.327 . S
C2069 H2092 0.950 . S
C2070 C2069 1.349 . S
C2070 C2082 1.349 . S
C2071 C2069 1.327 . S
C2071 C2087 1.429 . S
C2071 H2093 0.950 . S
C2072 H2068 0.949 . S
C2072 C2080 1.574 1_455 S
C2072 C2088 1.368 . S
H2073 C2081 0.950 . S
H2074 C2079 0.950 . S
H2075 C2080 0.949 . S
H2076 C2082 0.950 . S
H2077 C2083 0.950 . S
H2078 C2084 0.949 . S
C2079 H2074 0.950 . S
C2079 C2081 1.327 . S
C2079 C2085 1.429 . S
C2080 C2072 1.574 1_655 S
C2080 H2075 0.949 . S
C2080 C2086 1.368 . S
C2081 C2065 1.349 . S
C2081 H2073 0.950 . S
C2081 C2079 1.327 . S
C2082 C2070 1.349 . S
C2082 H2076 0.950 . S
C2082 C2083 1.327 . S
C2083 H2077 0.950 . S
C2083 C2082 1.327 . S
C2083 C2087 1.429 . S
C2084 C2067 1.574 1_455 S
C2084 H2078 0.949 . S
C2084 C2088 1.368 . S
C2085 C2066 1.429 . S
C2085 C2079 1.429 . S
C2085 C2086 1.523 . S
C2086 C2067 1.368 . S
C2086 C2080 1.368 . S
C2086 C2085 1.523 . S
C2087 C2071 1.429 . S
C2087 C2083 1.429 . S
C2087 C2088 1.523 . S
C2088 C2072 1.368 . S
C2088 C2084 1.368 . S
C2088 C2087 1.523 . S
H2089 C2064 0.950 . S
H2090 C2066 0.950 . S
H2091 C2067 0.949 . S
H2092 C2069 0.950 . S
H2093 C2071 0.950 . S
C2094 C2095 1.349 . S
C2094 C2096 1.327 . S
C2094 H2119 0.950 . S
C2095 C2094 1.349 . S
C2095 C2111 1.349 . S
C2096 C2094 1.327 . S
C2096 C2115 1.429 . S
C2096 H2120 0.950 . S
C2097 C2114 1.574 . S
C2097 C2116 1.368 . S
C2097 H2121 0.949 . S
H2098 C2102 0.949 . S
C2099 C2100 1.349 . S
C2099 C2101 1.327 . S
C2099 H2122 0.950 . S
C2100 C2099 1.349 . S
C2100 C2112 1.349 . S
C2101 C2099 1.327 . S
C2101 C2117 1.429 . S
C2101 H2123 0.950 . S
C2102 H2098 0.949 . S
C2102 C2110 1.574 . S
C2102 C2118 1.368 . S
H2103 C2111 0.950 . S
H2104 C2109 0.950 . S
H2105 C2110 0.949 . S
H2106 C2112 0.950 . S
H2107 C2113 0.950 . S
H2108 C2114 0.949 . S
C2109 H2104 0.950 . S
C2109 C2111 1.327 . S
C2109 C2115 1.429 . S
C2110 C2102 1.574 . S
C2110 H2105 0.949 . S
C2110 C2116 1.368 . S
C2111 C2095 1.349 . S
C2111 H2103 0.950 . S
C2111 C2109 1.327 . S
C2112 C2100 1.349 . S
C2112 H2106 0.950 . S
C2112 C2113 1.327 . S
C2113 H2107 0.950 . S
C2113 C2112 1.327 . S
C2113 C2117 1.429 . S
C2114 C2097 1.574 . S
C2114 H2108 0.949 . S
C2114 C2118 1.368 . S
C2115 C2096 1.429 . S
C2115 C2109 1.429 . S
C2115 C2116 1.523 . S
C2116 C2097 1.368 . S
C2116 C2110 1.368 . S
C2116 C2115 1.523 . S
C2117 C2101 1.429 . S
C2117 C2113 1.429 . S
C2117 C2118 1.523 . S
C2118 C2102 1.368 . S
C2118 C2114 1.368 . S
C2118 C2117 1.523 . S
H2119 C2094 0.950 . S
H2120 C2096 0.950 . S
H2121 C2097 0.949 . S
H2122 C2099 0.950 . S
H2123 C2101 0.950 . S
C2124 C2125 1.349 . S
C2124 C2126 1.327 . S
C2124 H2149 0.950 . S
C2125 C2124 1.349 . S
C2125 C2141 1.349 . S
C2126 C2124 1.327 . S
C2126 C2145 1.429 . S
C2126 H2150 0.950 . S
C2127 C2144 1.574 . S
C2127 C2146 1.368 . S
C2127 H2151 0.949 . S
H2128 C2132 0.949 . S
C2129 C2130 1.349 . S
C2129 C2131 1.327 . S
C2129 H2152 0.950 . S
C2130 C2129 1.349 . S
C2130 C2142 1.349 . S
C2131 C2129 1.327 . S
C2131 C2147 1.429 . S
C2131 H2153 0.950 . S
C2132 H2128 0.949 . S
C2132 C2140 1.574 . S
C2132 C2148 1.368 . S
H2133 C2141 0.950 . S
H2134 C2139 0.950 . S
H2135 C2140 0.949 . S
H2136 C2142 0.950 . S
H2137 C2143 0.950 . S
H2138 C2144 0.949 . S
C2139 H2134 0.950 . S
C2139 C2141 1.327 . S
C2139 C2145 1.429 . S
C2140 C2132 1.574 . S
C2140 H2135 0.949 . S
C2140 C2146 1.368 . S
C2141 C2125 1.349 . S
C2141 H2133 0.950 . S
C2141 C2139 1.327 . S
C2142 C2130 1.349 . S
C2142 H2136 0.950 . S
C2142 C2143 1.327 . S
C2143 H2137 0.950 . S
C2143 C2142 1.327 . S
C2143 C2147 1.429 . S
C2144 C2127 1.574 . S
C2144 H2138 0.949 . S
C2144 C2148 1.368 . S
C2145 C2126 1.429 . S
C2145 C2139 1.429 . S
C2145 C2146 1.523 . S
C2146 C2127 1.368 . S
C2146 C2140 1.368 . S
C2146 C2145 1.523 . S
C2147 C2131 1.429 . S
C2147 C2143 1.429 . S
C2147 C2148 1.523 . S
C2148 C2132 1.368 . S
C2148 C2144 1.368 . S
C2148 C2147 1.523 . S
H2149 C2124 0.950 . S
H2150 C2126 0.950 . S
H2151 C2127 0.949 . S
H2152 C2129 0.950 . S
H2153 C2131 0.950 . S
C2154 C2155 1.349 . S
C2154 C2156 1.327 . S
C2154 H2179 0.950 . S
C2155 C2154 1.349 . S
C2155 C2171 1.349 . S
C2156 C2154 1.327 . S
C2156 C2175 1.429 . S
C2156 H2180 0.950 . S
C2157 C2174 1.574 . S
C2157 C2176 1.368 . S
C2157 H2181 0.949 . S
H2158 C2162 0.949 . S
C2159 C2160 1.349 . S
C2159 C2161 1.327 . S
C2159 H2182 0.950 . S
C2160 C2159 1.349 . S
C2160 C2172 1.349 . S
C2161 C2159 1.327 . S
C2161 C2177 1.429 . S
C2161 H2183 0.950 . S
C2162 H2158 0.949 . S
C2162 C2170 1.574 . S
C2162 C2178 1.368 . S
H2163 C2171 0.950 . S
H2164 C2169 0.950 . S
H2165 C2170 0.949 . S
H2166 C2172 0.950 . S
H2167 C2173 0.950 . S
H2168 C2174 0.949 . S
C2169 H2164 0.950 . S
C2169 C2171 1.327 . S
C2169 C2175 1.429 . S
C2170 C2162 1.574 . S
C2170 H2165 0.949 . S
C2170 C2176 1.368 . S
C2171 C2155 1.349 . S
C2171 H2163 0.950 . S
C2171 C2169 1.327 . S
C2172 C2160 1.349 . S
C2172 H2166 0.950 . S
C2172 C2173 1.327 . S
C2173 H2167 0.950 . S
C2173 C2172 1.327 . S
C2173 C2177 1.429 . S
C2174 C2157 1.574 . S
C2174 H2168 0.949 . S
C2174 C2178 1.368 . S
C2175 C2156 1.429 . S
C2175 C2169 1.429 . S
C2175 C2176 1.523 . S
C2176 C2157 1.368 . S
C2176 C2170 1.368 . S
C2176 C2175 1.523 . S
C2177 C2161 1.429 . S
C2177 C2173 1.429 . S
C2177 C2178 1.523 . S
C2178 C2162 1.368 . S
C2178 C2174 1.368 . S
C2178 C2177 1.523 . S
H2179 C2154 0.950 . S
H2180 C2156 0.950 . S
H2181 C2157 0.949 . S
H2182 C2159 0.950 . S
H2183 C2161 0.950 . S
C2184 C2185 1.349 . S
C2184 C2186 1.327 . S
C2184 H2209 0.950 . S
C2185 C2184 1.349 . S
C2185 C2201 1.349 . S
C2186 C2184 1.327 . S
C2186 C2205 1.429 . S
C2186 H2210 0.950 . S
C2187 C2204 1.574 . S
C2187 C2206 1.368 . S
C2187 H2211 0.949 . S
H2188 C2192 0.949 . S
C2189 C2190 1.349 . S
C2189 C2191 1.327 . S
C2189 H2212 0.950 . S
C2190 C2189 1.349 . S
C2190 C2202 1.349 . S
C2191 C2189 1.327 . S
C2191 C2207 1.429 . S
C2191 H2213 0.950 . S
C2192 H2188 0.949 . S
C2192 C2200 1.574 . S
C2192 C2208 1.368 . S
H2193 C2201 0.950 . S
H2194 C2199 0.950 . S
H2195 C2200 0.949 . S
H2196 C2202 0.950 . S
H2197 C2203 0.950 . S
H2198 C2204 0.949 . S
C2199 H2194 0.950 . S
C2199 C2201 1.327 . S
C2199 C2205 1.429 . S
C2200 C2192 1.574 . S
C2200 H2195 0.949 . S
C2200 C2206 1.368 . S
C2201 C2185 1.349 . S
C2201 H2193 0.950 . S
C2201 C2199 1.327 . S
C2202 C2190 1.349 . S
C2202 H2196 0.950 . S
C2202 C2203 1.327 . S
C2203 H2197 0.950 . S
C2203 C2202 1.327 . S
C2203 C2207 1.429 . S
C2204 C2187 1.574 . S
C2204 H2198 0.949 . S
C2204 C2208 1.368 . S
C2205 C2186 1.429 . S
C2205 C2199 1.429 . S
C2205 C2206 1.523 . S
C2206 C2187 1.368 . S
C2206 C2200 1.368 . S
C2206 C2205 1.523 . S
C2207 C2191 1.429 . S
C2207 C2203 1.429 . S
C2207 C2208 1.523 . S
C2208 C2192 1.368 . S
C2208 C2204 1.368 . S
C2208 C2207 1.523 . S
H2209 C2184 0.950 . S
H2210 C2186 0.950 . S
H2211 C2187 0.949 . S
H2212 C2189 0.950 . S
H2213 C2191 0.950 . S
C2214 C2215 1.349 . S
C2214 C2216 1.327 . S
C2214 H2239 0.950 . S
C2215 C2214 1.349 . S
C2215 C2231 1.349 . S
C2216 C2214 1.327 . S
C2216 C2235 1.429 . S
C2216 H2240 0.950 . S
C2217 C2234 1.574 . S
C2217 C2236 1.368 . S
C2217 H2241 0.949 . S
H2218 C2222 0.949 . S
C2219 C2220 1.349 . S
C2219 C2221 1.327 . S
C2219 H2242 0.950 . S
C2220 C2219 1.349 . S
C2220 C2232 1.349 . S
C2221 C2219 1.327 . S
C2221 C2237 1.429 . S
C2221 H2243 0.950 . S
C2222 H2218 0.949 . S
C2222 C2230 1.574 . S
C2222 C2238 1.368 . S
H2223 C2231 0.950 . S
H2224 C2229 0.950 . S
H2225 C2230 0.949 . S
H2226 C2232 0.950 . S
H2227 C2233 0.950 . S
H2228 C2234 0.949 . S
C2229 H2224 0.950 . S
C2229 C2231 1.327 . S
C2229 C2235 1.429 . S
C2230 C2222 1.574 . S
C2230 H2225 0.949 . S
C2230 C2236 1.368 . S
C2231 C2215 1.349 . S
C2231 H2223 0.950 . S
C2231 C2229 1.327 . S
C2232 C2220 1.349 . S
C2232 H2226 0.950 . S
C2232 C2233 1.327 . S
C2233 H2227 0.950 . S
C2233 C2232 1.327 . S
C2233 C2237 1.429 . S
C2234 C2217 1.574 . S
C2234 H2228 0.949 . S
C2234 C2238 1.368 . S
C2235 C2216 1.429 . S
C2235 C2229 1.429 . S
C2235 C2236 1.523 . S
C2236 C2217 1.368 . S
C2236 C2230 1.368 . S
C2236 C2235 1.523 . S
C2237 C2221 1.429 . S
C2237 C2233 1.429 . S
C2237 C2238 1.523 . S
C2238 C2222 1.368 . S
C2238 C2234 1.368 . S
C2238 C2237 1.523 . S
H2239 C2214 0.950 . S
H2240 C2216 0.950 . S
H2241 C2217 0.949 . S
H2242 C2219 0.950 . S
H2243 C2221 0.950 . S
C2244 C2245 1.349 . S
C2244 C2246 1.327 . S
C2244 H2269 0.950 . S
C2245 C2244 1.349 . S
C2245 C2261 1.349 . S
C2246 C2244 1.327 . S
C2246 C2265 1.429 . S
C2246 H2270 0.950 . S
C2247 C2264 1.574 . S
C2247 C2266 1.368 . S
C2247 H2271 0.949 . S
H2248 C2252 0.949 . S
C2249 C2250 1.349 . S
C2249 C2251 1.327 . S
C2249 H2272 0.950 . S
C2250 C2249 1.349 . S
C2250 C2262 1.349 . S
C2251 C2249 1.327 . S
C2251 C2267 1.429 . S
C2251 H2273 0.950 . S
C2252 H2248 0.949 . S
C2252 C2260 1.574 . S
C2252 C2268 1.368 . S
H2253 C2261 0.950 . S
H2254 C2259 0.950 . S
H2255 C2260 0.949 . S
H2256 C2262 0.950 . S
H2257 C2263 0.950 . S
H2258 C2264 0.949 . S
C2259 H2254 0.950 . S
C2259 C2261 1.327 . S
C2259 C2265 1.429 . S
C2260 C2252 1.574 . S
C2260 H2255 0.949 . S
C2260 C2266 1.368 . S
C2261 C2245 1.349 . S
C2261 H2253 0.950 . S
C2261 C2259 1.327 . S
C2262 C2250 1.349 . S
C2262 H2256 0.950 . S
C2262 C2263 1.327 . S
C2263 H2257 0.950 . S
C2263 C2262 1.327 . S
C2263 C2267 1.429 . S
C2264 C2247 1.574 . S
C2264 H2258 0.949 . S
C2264 C2268 1.368 . S
C2265 C2246 1.429 . S
C2265 C2259 1.429 . S
C2265 C2266 1.523 . S
C2266 C2247 1.368 . S
C2266 C2260 1.368 . S
C2266 C2265 1.523 . S
C2267 C2251 1.429 . S
C2267 C2263 1.429 . S
C2267 C2268 1.523 . S
C2268 C2252 1.368 . S
C2268 C2264 1.368 . S
C2268 C2267 1.523 . S
H2269 C2244 0.950 . S
H2270 C2246 0.950 . S
H2271 C2247 0.949 . S
H2272 C2249 0.950 . S
H2273 C2251 0.950 . S
C2274 C2275 1.349 . S
C2274 C2276 1.327 . S
C2274 H2299 0.950 . S
C2275 C2274 1.349 . S
C2275 C2291 1.349 . S
C2276 C2274 1.327 . S
C2276 C2295 1.429 . S
C2276 H2300 0.950 . S
C2277 C2294 1.574 . S
C2277 C2296 1.368 . S
C2277 H2301 0.949 . S
H2278 C2282 0.949 . S
C2279 C2280 1.349 . S
C2279 C2281 1.327 . S
C2279 H2302 0.950 . S
C2280 C2279 1.349 . S
C2280 C2292 1.349 . S
C2281 C2279 1.327 . S
C2281 C2297 1.429 . S
C2281 H2303 0.950 . S
C2282 H2278 0.949 . S
C2282 C2290 1.574 . S
C2282 C2298 1.368 . S
H2283 C2291 0.950 . S
H2284 C2289 0.950 . S
H2285 C2290 0.949 . S
H2286 C2292 0.950 . S
H2287 C2293 0.950 . S
H2288 C2294 0.949 . S
C2289 H2284 0.950 . S
C2289 C2291 1.327 . S
C2289 C2295 1.429 . S
C2290 C2282 1.574 . S
C2290 H2285 0.949 . S
C2290 C2296 1.368 . S
C2291 C2275 1.349 . S
C2291 H2283 0.950 . S
C2291 C2289 1.327 . S
C2292 C2280 1.349 . S
C2292 H2286 0.950 . S
C2292 C2293 1.327 . S
C2293 H2287 0.950 . S
C2293 C2292 1.327 . S
C2293 C2297 1.429 . S
C2294 C2277 1.574 . S
C2294 H2288 0.949 . S
C2294 C2298 1.368 . S
C2295 C2276 1.429 . S
C2295 C2289 1.429 . S
C2295 C2296 1.523 . S
C2296 C2277 1.368 . S
C2296 C2290 1.368 . S
C2296 C2295 1.523 . S
C2297 C2281 1.429 . S
C2297 C2293 1.429 . S
C2297 C2298 1.523 . S
C2298 C2282 1.368 . S
C2298 C2294 1.368 . S
C2298 C2297 1.523 . S
H2299 C2274 0.950 . S
H2300 C2276 0.950 . S
H2301 C2277 0.949 . S
H2302 C2279 0.950 . S
H2303 C2281 0.950 . S
C2304 C2305 1.349 . S
C2304 C2306 1.327 . S
C2304 H2329 0.950 . S
C2305 C2304 1.349 . S
C2305 C2321 1.349 . S
C2306 C2304 1.327 . S
C2306 C2325 1.429 . S
C2306 H2330 0.950 . S
C2307 C2324 1.574 . S
C2307 C2326 1.368 . S
C2307 H2331 0.949 . S
H2308 C2312 0.949 . S
C2309 C2310 1.349 . S
C2309 C2311 1.327 . S
C2309 H2332 0.950 . S
C2310 C2309 1.349 . S
C2310 C2322 1.349 . S
C2311 C2309 1.327 . S
C2311 C2327 1.429 . S
C2311 H2333 0.950 . S
C2312 H2308 0.949 . S
C2312 C2320 1.574 . S
C2312 C2328 1.368 . S
H2313 C2321 0.950 . S
H2314 C2319 0.950 . S
H2315 C2320 0.949 . S
H2316 C2322 0.950 . S
H2317 C2323 0.950 . S
H2318 C2324 0.949 . S
C2319 H2314 0.950 . S
C2319 C2321 1.327 . S
C2319 C2325 1.429 . S
C2320 C2312 1.574 . S
C2320 H2315 0.949 . S
C2320 C2326 1.368 . S
C2321 C2305 1.349 . S
C2321 H2313 0.950 . S
C2321 C2319 1.327 . S
C2322 C2310 1.349 . S
C2322 H2316 0.950 . S
C2322 C2323 1.327 . S
C2323 H2317 0.950 . S
C2323 C2322 1.327 . S
C2323 C2327 1.429 . S
C2324 C2307 1.574 . S
C2324 H2318 0.949 . S
C2324 C2328 1.368 . S
C2325 C2306 1.429 . S
C2325 C2319 1.429 . S
C2325 C2326 1.523 . S
C2326 C2307 1.368 . S
C2326 C2320 1.368 . S
C2326 C2325 1.523 . S
C2327 C2311 1.429 . S
C2327 C2323 1.429 . S
C2327 C2328 1.523 . S
C2328 C2312 1.368 . S
C2328 C2324 1.368 . S
C2328 C2327 1.523 . S
H2329 C2304 0.950 . S
H2330 C2306 0.950 . S
H2331 C2307 0.949 . S
H2332 C2309 0.950 . S
H2333 C2311 0.950 . S
C2334 C2335 1.349 . S
C2334 C2336 1.327 . S
C2334 H2359 0.950 . S
C2335 C2334 1.349 . S
C2335 C2351 1.349 . S
C2336 C2334 1.327 . S
C2336 C2355 1.429 . S
C2336 H2360 0.950 . S
C2337 C2354 1.574 . S
C2337 C2356 1.368 . S
C2337 H2361 0.949 . S
H2338 C2342 0.949 . S
C2339 C2340 1.349 . S
C2339 C2341 1.327 . S
C2339 H2362 0.950 . S
C2340 C2339 1.349 . S
C2340 C2352 1.349 . S
C2341 C2339 1.327 . S
C2341 C2357 1.429 . S
C2341 H2363 0.950 . S
C2342 H2338 0.949 . S
C2342 C2350 1.574 . S
C2342 C2358 1.368 . S
H2343 C2351 0.950 . S
H2344 C2349 0.950 . S
H2345 C2350 0.949 . S
H2346 C2352 0.950 . S
H2347 C2353 0.950 . S
H2348 C2354 0.949 . S
C2349 H2344 0.950 . S
C2349 C2351 1.327 . S
C2349 C2355 1.429 . S
C2350 C2342 1.574 . S
C2350 H2345 0.949 . S
C2350 C2356 1.368 . S
C2351 C2335 1.349 . S
C2351 H2343 0.950 . S
C2351 C2349 1.327 . S
C2352 C2340 1.349 . S
C2352 H2346 0.950 . S
C2352 C2353 1.327 . S
C2353 H2347 0.950 . S
C2353 C2352 1.327 . S
C2353 C2357 1.429 . S
C2354 C2337 1.574 . S
C2354 H2348 0.949 . S
C2354 C2358 1.368 . S
C2355 C2336 1.429 . S
C2355 C2349 1.429 . S
C2355 C2356 1.523 . S
C2356 C2337 1.368 . S
C2356 C2350 1.368 . S
C2356 C2355 1.523 . S
C2357 C2341 1.429 . S
C2357 C2353 1.429 . S
C2357 C2358 1.523 . S
C2358 C2342 1.368 . S
C2358 C2354 1.368 . S
C2358 C2357 1.523 . S
H2359 C2334 0.950 . S
H2360 C2336 0.950 . S
H2361 C2337 0.949 . S
H2362 C2339 0.950 . S
H2363 C2341 0.950 . S
C2364 C2365 1.349 . S
C2364 C2366 1.327 . S
C2364 H2389 0.950 . S
C2365 C2364 1.349 . S
C2365 C2381 1.349 . S
C2366 C2364 1.327 . S
C2366 C2385 1.429 . S
C2366 H2390 0.950 . S
C2367 C2384 1.574 . S
C2367 C2386 1.368 . S
C2367 H2391 0.949 . S
H2368 C2372 0.949 . S
C2369 C2370 1.349 . S
C2369 C2371 1.327 . S
C2369 H2392 0.950 . S
C2370 C2369 1.349 . S
C2370 C2382 1.349 . S
C2371 C2369 1.327 . S
C2371 C2387 1.429 . S
C2371 H2393 0.950 . S
C2372 H2368 0.949 . S
C2372 C2380 1.574 . S
C2372 C2388 1.368 . S
H2373 C2381 0.950 . S
H2374 C2379 0.950 . S
H2375 C2380 0.949 . S
H2376 C2382 0.950 . S
H2377 C2383 0.950 . S
H2378 C2384 0.949 . S
C2379 H2374 0.950 . S
C2379 C2381 1.327 . S
C2379 C2385 1.429 . S
C2380 C2372 1.574 . S
C2380 H2375 0.949 . S
C2380 C2386 1.368 . S
C2381 C2365 1.349 . S
C2381 H2373 0.950 . S
C2381 C2379 1.327 . S
C2382 C2370 1.349 . S
C2382 H2376 0.950 . S
C2382 C2383 1.327 . S
C2383 H2377 0.950 . S
C2383 C2382 1.327 . S
C2383 C2387 1.429 . S
C2384 C2367 1.574 . S
C2384 H2378 0.949 . S
C2384 C2388 1.368 . S
C2385 C2366 1.429 . S
C2385 C2379 1.429 . S
C2385 C2386 1.523 . S
C2386 C2367 1.368 . S
C2386 C2380 1.368 . S
C2386 C2385 1.523 . S
C2387 C2371 1.429 . S
C2387 C2383 1.429 . S
C2387 C2388 1.523 . S
C2388 C2372 1.368 . S
C2388 C2384 1.368 . S
C2388 C2387 1.523 . S
H2389 C2364 0.950 . S
H2390 C2366 0.950 . S
H2391 C2367 0.949 . S
H2392 C2369 0.950 . S
H2393 C2371 0.950 . S
C2394 C2395 1.349 . S
C2394 C2396 1.327 . S
C2394 H2419 0.950 . S
C2395 C2394 1.349 . S
C2395 C2411 1.349 . S
C2396 C2394 1.327 . S
C2396 C2415 1.429 . S
C2396 H2420 0.950 . S
C2397 C2414 1.574 . S
C2397 C2416 1.368 . S
C2397 H2421 0.949 . S
H2398 C2402 0.949 . S
C2399 C2400 1.349 . S
C2399 C2401 1.327 . S
C2399 H2422 0.950 . S
C2400 C2399 1.349 . S
C2400 C2412 1.349 . S
C2401 C2399 1.327 . S
C2401 C2417 1.429 . S
C2401 H2423 0.950 . S
C2402 H2398 0.949 . S
C2402 C2410 1.574 . S
C2402 C2418 1.368 . S
H2403 C2411 0.950 . S
H2404 C2409 0.950 . S
H2405 C2410 0.949 . S
H2406 C2412 0.950 . S
H2407 C2413 0.950 . S
H2408 C2414 0.949 . S
C2409 H2404 0.950 . S
C2409 C2411 1.327 . S
C2409 C2415 1.429 . S
C2410 C2402 1.574 . S
C2410 H2405 0.949 . S
C2410 C2416 1.368 . S
C2411 C2395 1.349 . S
C2411 H2403 0.950 . S
C2411 C2409 1.327 . S
C2412 C2400 1.349 . S
C2412 H2406 0.950 . S
C2412 C2413 1.327 . S
C2413 H2407 0.950 . S
C2413 C2412 1.327 . S
C2413 C2417 1.429 . S
C2414 C2397 1.574 . S
C2414 H2408 0.949 . S
C2414 C2418 1.368 . S
C2415 C2396 1.429 . S
C2415 C2409 1.429 . S
C2415 C2416 1.523 . S
C2416 C2397 1.368 . S
C2416 C2410 1.368 . S
C2416 C2415 1.523 . S
C2417 C2401 1.429 . S
C2417 C2413 1.429 . S
C2417 C2418 1.523 . S
C2418 C2402 1.368 . S
C2418 C2414 1.368 . S
C2418 C2417 1.523 . S
H2419 C2394 0.950 . S
H2420 C2396 0.950 . S
H2421 C2397 0.949 . S
H2422 C2399 0.950 . S
H2423 C2401 0.950 . S
C2424 C2425 1.349 . S
C2424 C2426 1.327 . S
C2424 H2449 0.950 . S
C2425 C2424 1.349 . S
C2425 C2441 1.349 . S
C2426 C2424 1.327 . S
C2426 C2445 1.429 . S
C2426 H2450 0.950 . S
C2427 C2444 1.574 . S
C2427 C2446 1.368 . S
C2427 H2451 0.949 . S
H2428 C2432 0.949 . S
C2429 C2430 1.349 . S
C2429 C2431 1.327 . S
C2429 H2452 0.950 . S
C2430 C2429 1.349 . S
C2430 C2442 1.349 . S
C2431 C2429 1.327 . S
C2431 C2447 1.429 . S
C2431 H2453 0.950 . S
C2432 H2428 0.949 . S
C2432 C2440 1.574 . S
C2432 C2448 1.368 . S
H2433 C2441 0.950 . S
H2434 C2439 0.950 . S
H2435 C2440 0.949 . S
H2436 C2442 0.950 . S
H2437 C2443 0.950 . S
H2438 C2444 0.949 . S
C2439 H2434 0.950 . S
C2439 C2441 1.327 . S
C2439 C2445 1.429 . S
C2440 C2432 1.574 . S
C2440 H2435 0.949 . S
C2440 C2446 1.368 . S
C2441 C2425 1.349 . S
C2441 H2433 0.950 . S
C2441 C2439 1.327 . S
C2442 C2430 1.349 . S
C2442 H2436 0.950 . S
C2442 C2443 1.327 . S
C2443 H2437 0.950 . S
C2443 C2442 1.327 . S
C2443 C2447 1.429 . S
C2444 C2427 1.574 . S
C2444 H2438 0.949 . S
C2444 C2448 1.368 . S
C2445 C2426 1.429 . S
C2445 C2439 1.429 . S
C2445 C2446 1.523 . S
C2446 C2427 1.368 . S
C2446 C2440 1.368 . S
C2446 C2445 1.523 . S
C2447 C2431 1.429 . S
C2447 C2443 1.429 . S
C2447 C2448 1.523 . S
C2448 C2432 1.368 . S
C2448 C2444 1.368 . S
C2448 C2447 1.523 . S
H2449 C2424 0.950 . S
H2450 C2426 0.950 . S
H2451 C2427 0.949 . S
H2452 C2429 0.950 . S
H2453 C2431 0.950 . S
C2454 C2455 1.349 . S
C2454 C2456 1.327 . S
C2454 H2479 0.950 . S
C2455 C2454 1.349 . S
C2455 C2471 1.349 . S
C2456 C2454 1.327 . S
C2456 C2475 1.429 . S
C2456 H2480 0.950 . S
C2457 C2474 1.574 . S
C2457 C2476 1.368 . S
C2457 H2481 0.949 . S
H2458 C2462 0.949 . S
C2459 C2460 1.349 . S
C2459 C2461 1.327 . S
C2459 H2482 0.950 . S
C2460 C2459 1.349 . S
C2460 C2472 1.349 . S
C2461 C2459 1.327 . S
C2461 C2477 1.429 . S
C2461 H2483 0.950 . S
C2462 H2458 0.949 . S
C2462 C2470 1.574 . S
C2462 C2478 1.368 . S
H2463 C2471 0.950 . S
H2464 C2469 0.950 . S
H2465 C2470 0.949 . S
H2466 C2472 0.950 . S
H2467 C2473 0.950 . S
H2468 C2474 0.949 . S
C2469 H2464 0.950 . S
C2469 C2471 1.327 . S
C2469 C2475 1.429 . S
C2470 C2462 1.574 . S
C2470 H2465 0.949 . S
C2470 C2476 1.368 . S
C2471 C2455 1.349 . S
C2471 H2463 0.950 . S
C2471 C2469 1.327 . S
C2472 C2460 1.349 . S
C2472 H2466 0.950 . S
C2472 C2473 1.327 . S
C2473 H2467 0.950 . S
C2473 C2472 1.327 . S
C2473 C2477 1.429 . S
C2474 C2457 1.574 . S
C2474 H2468 0.949 . S
C2474 C2478 1.368 . S
C2475 C2456 1.429 . S
C2475 C2469 1.429 . S
C2475 C2476 1.523 . S
C2476 C2457 1.368 . S
C2476 C2470 1.368 . S
C2476 C2475 1.523 . S
C2477 C2461 1.429 . S
C2477 C2473 1.429 . S
C2477 C2478 1.523 . S
C2478 C2462 1.368 . S
C2478 C2474 1.368 . S
C2478 C2477 1.523 . S
H2479 C2454 0.950 . S
H2480 C2456 0.950 . S
H2481 C2457 0.949 . S
H2482 C2459 0.950 . S
H2483 C2461 0.950 . S
C2484 C2485 1.349 . S
C2484 C2486 1.327 . S
C2484 H2509 0.950 . S
C2485 C2484 1.349 . S
C2485 C2501 1.349 . S
C2486 C2484 1.327 . S
C2486 C2505 1.429 . S
C2486 H2510 0.950 . S
C2487 C2504 1.574 . S
C2487 C2506 1.368 . S
C2487 H2511 0.949 . S
H2488 C2492 0.949 . S
C2489 C2490 1.349 . S
C2489 C2491 1.327 . S
C2489 H2512 0.950 . S
C2490 C2489 1.349 . S
C2490 C2502 1.349 . S
C2491 C2489 1.327 . S
C2491 C2507 1.429 . S
C2491 H2513 0.950 . S
C2492 H2488 0.949 . S
C2492 C2500 1.574 . S
C2492 C2508 1.368 . S
H2493 C2501 0.950 . S
H2494 C2499 0.950 . S
H2495 C2500 0.949 . S
H2496 C2502 0.950 . S
H2497 C2503 0.950 . S
H2498 C2504 0.949 . S
C2499 H2494 0.950 . S
C2499 C2501 1.327 . S
C2499 C2505 1.429 . S
C2500 C2492 1.574 . S
C2500 H2495 0.949 . S
C2500 C2506 1.368 . S
C2501 C2485 1.349 . S
C2501 H2493 0.950 . S
C2501 C2499 1.327 . S
C2502 C2490 1.349 . S
C2502 H2496 0.950 . S
C2502 C2503 1.327 . S
C2503 H2497 0.950 . S
C2503 C2502 1.327 . S
C2503 C2507 1.429 . S
C2504 C2487 1.574 . S
C2504 H2498 0.949 . S
C2504 C2508 1.368 . S
C2505 C2486 1.429 . S
C2505 C2499 1.429 . S
C2505 C2506 1.523 . S
C2506 C2487 1.368 . S
C2506 C2500 1.368 . S
C2506 C2505 1.523 . S
C2507 C2491 1.429 . S
C2507 C2503 1.429 . S
C2507 C2508 1.523 . S
C2508 C2492 1.368 . S
C2508 C2504 1.368 . S
C2508 C2507 1.523 . S
H2509 C2484 0.950 . S
H2510 C2486 0.950 . S
H2511 C2487 0.949 . S
H2512 C2489 0.950 . S
H2513 C2491 0.950 . S
C2514 C2515 1.349 . S
C2514 C2516 1.327 . S
C2514 H2539 0.950 . S
C2515 C2514 1.349 . S
C2515 C2531 1.349 . S
C2516 C2514 1.327 . S
C2516 C2535 1.429 . S
C2516 H2540 0.950 . S
C2517 C2534 1.574 . S
C2517 C2536 1.368 . S
C2517 H2541 0.949 . S
H2518 C2522 0.949 . S
C2519 C2520 1.349 . S
C2519 C2521 1.327 . S
C2519 H2542 0.950 . S
C2520 C2519 1.349 . S
C2520 C2532 1.349 . S
C2521 C2519 1.327 . S
C2521 C2537 1.429 . S
C2521 H2543 0.950 . S
C2522 H2518 0.949 . S
C2522 C2530 1.574 . S
C2522 C2538 1.368 . S
H2523 C2531 0.950 . S
H2524 C2529 0.950 . S
H2525 C2530 0.949 . S
H2526 C2532 0.950 . S
H2527 C2533 0.950 . S
H2528 C2534 0.949 . S
C2529 H2524 0.950 . S
C2529 C2531 1.327 . S
C2529 C2535 1.429 . S
C2530 C2522 1.574 . S
C2530 H2525 0.949 . S
C2530 C2536 1.368 . S
C2531 C2515 1.349 . S
C2531 H2523 0.950 . S
C2531 C2529 1.327 . S
C2532 C2520 1.349 . S
C2532 H2526 0.950 . S
C2532 C2533 1.327 . S
C2533 H2527 0.950 . S
C2533 C2532 1.327 . S
C2533 C2537 1.429 . S
C2534 C2517 1.574 . S
C2534 H2528 0.949 . S
C2534 C2538 1.368 . S
C2535 C2516 1.429 . S
C2535 C2529 1.429 . S
C2535 C2536 1.523 . S
C2536 C2517 1.368 . S
C2536 C2530 1.368 . S
C2536 C2535 1.523 . S
C2537 C2521 1.429 . S
C2537 C2533 1.429 . S
C2537 C2538 1.523 . S
C2538 C2522 1.368 . S
C2538 C2534 1.368 . S
C2538 C2537 1.523 . S
H2539 C2514 0.950 . S
H2540 C2516 0.950 . S
H2541 C2517 0.949 . S
H2542 C2519 0.950 . S
H2543 C2521 0.950 . S
C2544 C2545 1.349 . S
C2544 C2546 1.327 . S
C2544 H2569 0.950 . S
C2545 C2544 1.349 . S
C2545 C2561 1.349 . S
C2546 C2544 1.327 . S
C2546 C2565 1.429 . S
C2546 H2570 0.950 . S
C2547 C2564 1.574 . S
C2547 C2566 1.368 . S
C2547 H2571 0.949 . S
H2548 C2552 0.949 . S
C2549 C2550 1.349 . S
C2549 C2551 1.327 . S
C2549 H2572 0.950 . S
C2550 C2549 1.349 . S
C2550 C2562 1.349 . S
C2551 C2549 1.327 . S
C2551 C2567 1.429 . S
C2551 H2573 0.950 . S
C2552 H2548 0.949 . S
C2552 C2560 1.574 . S
C2552 C2568 1.368 . S
H2553 C2561 0.950 . S
H2554 C2559 0.950 . S
H2555 C2560 0.949 . S
H2556 C2562 0.950 . S
H2557 C2563 0.950 . S
H2558 C2564 0.949 . S
C2559 H2554 0.950 . S
C2559 C2561 1.327 . S
C2559 C2565 1.429 . S
C2560 C2552 1.574 . S
C2560 H2555 0.949 . S
C2560 C2566 1.368 . S
C2561 C2545 1.349 . S
C2561 H2553 0.950 . S
C2561 C2559 1.327 . S
C2562 C2550 1.349 . S
C2562 H2556 0.950 . S
C2562 C2563 1.327 . S
C2563 H2557 0.950 . S
C2563 C2562 1.327 . S
C2563 C2567 1.429 . S
C2564 C2547 1.574 . S
C2564 H2558 0.949 . S
C2564 C2568 1.368 . S
C2565 C2546 1.429 . S
C2565 C2559 1.429 . S
C2565 C2566 1.523 . S
C2566 C2547 1.368 . S
C2566 C2560 1.368 . S
C2566 C2565 1.523 . S
C2567 C2551 1.429 . S
C2567 C2563 1.429 . S
C2567 C2568 1.523 . S
C2568 C2552 1.368 . S
C2568 C2564 1.368 . S
C2568 C2567 1.523 . S
H2569 C2544 0.950 . S
H2570 C2546 0.950 . S
H2571 C2547 0.949 . S
H2572 C2549 0.950 . S
H2573 C2551 0.950 . S
C2574 C2575 1.349 . S
C2574 C2576 1.327 . S
C2574 H2599 0.950 . S
C2575 C2574 1.349 . S
C2575 C2591 1.349 . S
C2576 C2574 1.327 . S
C2576 C2595 1.429 . S
C2576 H2600 0.950 . S
C2577 C2594 1.574 . S
C2577 C2596 1.368 . S
C2577 H2601 0.949 . S
H2578 C2582 0.949 . S
C2579 C2580 1.349 . S
C2579 C2581 1.327 . S
C2579 H2602 0.950 . S
C2580 C2579 1.349 . S
C2580 C2592 1.349 . S
C2581 C2579 1.327 . S
C2581 C2597 1.429 . S
C2581 H2603 0.950 . S
C2582 H2578 0.949 . S
C2582 C2590 1.574 . S
C2582 C2598 1.368 . S
H2583 C2591 0.950 . S
H2584 C2589 0.950 . S
H2585 C2590 0.949 . S
H2586 C2592 0.950 . S
H2587 C2593 0.950 . S
H2588 C2594 0.949 . S
C2589 H2584 0.950 . S
C2589 C2591 1.327 . S
C2589 C2595 1.429 . S
C2590 C2582 1.574 . S
C2590 H2585 0.949 . S
C2590 C2596 1.368 . S
C2591 C2575 1.349 . S
C2591 H2583 0.950 . S
C2591 C2589 1.327 . S
C2592 C2580 1.349 . S
C2592 H2586 0.950 . S
C2592 C2593 1.327 . S
C2593 H2587 0.950 . S
C2593 C2592 1.327 . S
C2593 C2597 1.429 . S
C2594 C2577 1.574 . S
C2594 H2588 0.949 . S
C2594 C2598 1.368 . S
C2595 C2576 1.429 . S
C2595 C2589 1.429 . S
C2595 C2596 1.523 . S
C2596 C2577 1.368 . S
C2596 C2590 1.368 . S
C2596 C2595 1.523 . S
C2597 C2581 1.429 . S
C2597 C2593 1.429 . S
C2597 C2598 1.523 . S
C2598 C2582 1.368 . S
C2598 C2594 1.368 . S
C2598 C2597 1.523 . S
H2599 C2574 0.950 . S
H2600 C2576 0.950 . S
H2601 C2577 0.949 . S
H2602 C2579 0.950 . S
H2603 C2581 0.950 . S
C2604 C2605 1.349 . S
C2604 C2606 1.327 . S
C2604 H2629 0.950 . S
C2605 C2604 1.349 . S
C2605 C2621 1.349 . S
C2606 C2604 1.327 . S
C2606 C2625 1.429 . S
C2606 H2630 0.950 . S
C2607 C2624 1.574 . S
C2607 C2626 1.368 . S
C2607 H2631 0.949 . S
H2608 C2612 0.949 . S
C2609 C2610 1.349 . S
C2609 C2611 1.327 . S
C2609 H2632 0.950 . S
C2610 C2609 1.349 . S
C2610 C2622 1.349 . S
C2611 C2609 1.327 . S
C2611 C2627 1.429 . S
C2611 H2633 0.950 . S
C2612 H2608 0.949 . S
C2612 C2620 1.574 . S
C2612 C2628 1.368 . S
H2613 C2621 0.950 . S
H2614 C2619 0.950 . S
H2615 C2620 0.949 . S
H2616 C2622 0.950 . S
H2617 C2623 0.950 . S
H2618 C2624 0.949 . S
C2619 H2614 0.950 . S
C2619 C2621 1.327 . S
C2619 C2625 1.429 . S
C2620 C2612 1.574 . S
C2620 H2615 0.949 . S
C2620 C2626 1.368 . S
C2621 C2605 1.349 . S
C2621 H2613 0.950 . S
C2621 C2619 1.327 . S
C2622 C2610 1.349 . S
C2622 H2616 0.950 . S
C2622 C2623 1.327 . S
C2623 H2617 0.950 . S
C2623 C2622 1.327 . S
C2623 C2627 1.429 . S
C2624 C2607 1.574 . S
C2624 H2618 0.949 . S
C2624 C2628 1.368 . S
C2625 C2606 1.429 . S
C2625 C2619 1.429 . S
C2625 C2626 1.523 . S
C2626 C2607 1.368 . S
C2626 C2620 1.368 . S
C2626 C2625 1.523 . S
C2627 C2611 1.429 . S
C2627 C2623 1.429 . S
C2627 C2628 1.523 . S
C2628 C2612 1.368 . S
C2628 C2624 1.368 . S
C2628 C2627 1.523 . S
H2629 C2604 0.950 . S
H2630 C2606 0.950 . S
H2631 C2607 0.949 . S
H2632 C2609 0.950 . S
H2633 C2611 0.950 . S
C2634 C2635 1.349 . S
C2634 C2636 1.327 . S
C2634 H2659 0.950 . S
C2635 C2634 1.349 . S
C2635 C2651 1.349 . S
C2636 C2634 1.327 . S
C2636 C2655 1.429 . S
C2636 H2660 0.950 . S
C2637 C2654 1.574 . S
C2637 C2656 1.368 . S
C2637 H2661 0.949 . S
H2638 C2642 0.949 . S
C2639 C2640 1.349 . S
C2639 C2641 1.327 . S
C2639 H2662 0.950 . S
C2640 C2639 1.349 . S
C2640 C2652 1.349 . S
C2641 C2639 1.327 . S
C2641 C2657 1.429 . S
C2641 H2663 0.950 . S
C2642 H2638 0.949 . S
C2642 C2650 1.574 . S
C2642 C2658 1.368 . S
H2643 C2651 0.950 . S
H2644 C2649 0.950 . S
H2645 C2650 0.949 . S
H2646 C2652 0.950 . S
H2647 C2653 0.950 . S
H2648 C2654 0.949 . S
C2649 H2644 0.950 . S
C2649 C2651 1.327 . S
C2649 C2655 1.429 . S
C2650 C2642 1.574 . S
C2650 H2645 0.949 . S
C2650 C2656 1.368 . S
C2651 C2635 1.349 . S
C2651 H2643 0.950 . S
C2651 C2649 1.327 . S
C2652 C2640 1.349 . S
C2652 H2646 0.950 . S
C2652 C2653 1.327 . S
C2653 H2647 0.950 . S
C2653 C2652 1.327 . S
C2653 C2657 1.429 . S
C2654 C2637 1.574 . S
C2654 H2648 0.949 . S
C2654 C2658 1.368 . S
C2655 C2636 1.429 . S
C2655 C2649 1.429 . S
C2655 C2656 1.523 . S
C2656 C2637 1.368 . S
C2656 C2650 1.368 . S
C2656 C2655 1.523 . S
C2657 C2641 1.429 . S
C2657 C2653 1.429 . S
C2657 C2658 1.523 . S
C2658 C2642 1.368 . S
C2658 C2654 1.368 . S
C2658 C2657 1.523 . S
H2659 C2634 0.950 . S
H2660 C2636 0.950 . S
H2661 C2637 0.949 . S
H2662 C2639 0.950 . S
H2663 C2641 0.950 . S
C505 C76 1.211 . S
C510 C6 1.211 . S
C535 C48 1.211 . S
C540 C20 1.211 . S
C565 C34 1.211 . S
C570 C62 1.211 . S
C595 C90 1.211 . S
C600 C160 1.211 . S
C625 C104 1.211 . S
C630 C132 1.211 . S
C655 C146 1.211 . S
C660 C118 1.211 . S
C685 C174 1.211 . S
C690 C244 1.211 1_556 S
C715 C188 1.211 . S
C720 C216 1.211 1_556 S
C745 C202 1.211 . S
C750 C230 1.211 1_556 S
C775 C328 1.211 . S
C780 C258 1.211 1_556 S
C805 C272 1.211 1_556 S
C810 C300 1.211 . S
C835 C314 1.211 . S
C840 C286 1.211 1_556 S
C865 C412 1.211 . S
C870 C342 1.211 1_554 S
C895 C384 1.211 . S
C900 C356 1.211 1_554 S
C925 C398 1.211 . S
C930 C370 1.211 1_554 S
C955 C426 1.211 . S
C960 C496 1.211 1_554 S
C985 C440 1.211 . S
C990 C468 1.211 1_554 S
C1015 C454 1.211 . S
C1020 C482 1.211 1_554 S
C1045 C78 2.135 . S
C1050 C8 2.135 . S
C1075 C22 2.135 . S
C1080 C50 2.135 . S
C1105 C64 2.135 . S
C1110 C36 2.135 . S
C1135 C92 2.135 . S
C1140 C162 2.135 . S
C1165 C106 2.135 . S
C1170 C134 2.135 . S
C1195 C148 2.134 . S
C1200 C120 2.134 . S
C1225 C176 2.135 . S
C1230 C246 2.135 . S
C1255 C218 2.135 . S
C1260 C190 2.135 . S
C1285 C232 2.135 . S
C1290 C204 2.135 . S
C1315 C260 2.135 . S
C1320 C330 2.135 . S
C1345 C274 2.135 . S
C1350 C302 2.135 . S
C1375 C316 2.134 . S
C1380 C288 2.134 . S
C1405 C414 2.135 . S
C1410 C344 2.135 . S
C1435 C358 2.135 . S
C1440 C386 2.135 . S
C1465 C372 2.135 . S
C1470 C400 2.135 . S
C1495 C498 2.135 . S
C1500 C428 2.135 . S
C1525 C470 2.135 . S
C1530 C442 2.135 . S
C1555 C484 2.134 . S
C1560 C456 2.134 . S
C1585 C233 1.597 . S
C1590 C9 1.597 . S
C1615 C247 1.597 . S
C1620 C23 1.597 . S
C1645 C219 1.597 . S
C1650 C37 1.597 . S
C1675 C51 1.597 . S
C1680 C373 1.597 . S
C1705 C65 1.597 . S
C1710 C345 1.597 . S
C1735 C79 1.597 . S
C1740 C359 1.597 . S
C1765 C93 1.597 . S
C1770 C485 1.597 . S
C1795 C107 1.597 . S
C1800 C499 1.597 . S
C1825 C121 1.597 . S
C1830 C471 1.597 . S
C1855 C135 1.597 . S
C1860 C289 1.597 . S
C1885 C261 1.597 . S
C1890 C149 1.597 . S
C1915 C275 1.597 . S
C1920 C163 1.597 . S
C1945 C401 1.597 . S
C1950 C177 1.597 . S
C1975 C191 1.597 . S
C1980 C415 1.597 . S
C2005 C205 1.597 . S
C2010 C387 1.597 . S
C2035 C303 1.597 . S
C2040 C457 1.597 . S
C2065 C317 1.597 . S
C2070 C429 1.597 . S
C2095 C443 1.597 . S
C2100 C331 1.597 . S
C2125 C7 1.423 . S
C2130 C147 1.423 . S
C2155 C161 1.423 . S
C2160 C21 1.423 . S
C2185 C133 1.423 . S
C2190 C35 1.423 . S
C2215 C49 1.423 . S
C2220 C119 1.423 . S
C2245 C63 1.423 . S
C2250 C91 1.423 . S
C2275 C77 1.423 . S
C2280 C105 1.423 . S
C2305 C175 1.423 . S
C2310 C315 1.422 . S
C2335 C329 1.423 . S
C2340 C189 1.423 . S
C2365 C301 1.422 . S
C2370 C203 1.422 . S
C2395 C217 1.423 . S
C2400 C287 1.423 . S
C2425 C231 1.422 . S
C2430 C259 1.422 . S
C2455 C273 1.423 . S
C2460 C245 1.423 . S
C2485 C343 1.423 . S
C2490 C483 1.423 . S
C2515 C497 1.423 . S
C2520 C357 1.423 . S
C2545 C371 1.423 . S
C2550 C469 1.423 . S
C2575 C385 1.422 . S
C2580 C455 1.422 . S
C2605 C427 1.422 . S
C2610 C399 1.422 . S
C2635 C413 1.423 . S
C2640 C441 1.423 . S
