# Generated by pormake.
# Topology atn, (4)-cn, num edge types: 1
# Building blocks:
#     Node 0, Type 0, BuildingBlock: TATPOV_clean_sbu_0, # of connection points: 4
#     Node 1, Type 0, BuildingBlock: TATPOV_clean_sbu_0, # of connection points: 4
#     Node 2, Type 0, BuildingBlock: TATPOV_clean_sbu_0, # of connection points: 4
#     Node 3, Type 0, BuildingBlock: TATPOV_clean_sbu_0, # of connection points: 4
#     Node 4, Type 0, BuildingBlock: TATPOV_clean_sbu_0, # of connection points: 4
#     Node 5, Type 0, BuildingBlock: TATPOV_clean_sbu_0, # of connection points: 4
#     Node 6, Type 0, BuildingBlock: TATPOV_clean_sbu_0, # of connection points: 4
#     Node 7, Type 0, BuildingBlock: TATPOV_clean_sbu_0, # of connection points: 4
#     Node 8, Type 0, BuildingBlock: TATPOV_clean_sbu_0, # of connection points: 4
#     Node 9, Type 0, BuildingBlock: TATPOV_clean_sbu_0, # of connection points: 4
#     Node 10, Type 0, BuildingBlock: TATPOV_clean_sbu_0, # of connection points: 4
#     Node 11, Type 0, BuildingBlock: TATPOV_clean_sbu_0, # of connection points: 4
#     Node 12, Type 0, BuildingBlock: TATPOV_clean_sbu_0, # of connection points: 4
#     Node 13, Type 0, BuildingBlock: TATPOV_clean_sbu_0, # of connection points: 4
#     Node 14, Type 0, BuildingBlock: TATPOV_clean_sbu_0, # of connection points: 4
#     Node 15, Type 0, BuildingBlock: TATPOV_clean_sbu_0, # of connection points: 4
#     Edge 16, Type (0, 0), BuildingBlock: TEMPAE_clean_linker_10, # of connection points: 2
#     Edge 17, Type (0, 0), BuildingBlock: TEMPAE_clean_linker_10, # of connection points: 2
#     Edge 18, Type (0, 0), BuildingBlock: TEMPAE_clean_linker_10, # of connection points: 2
#     Edge 19, Type (0, 0), BuildingBlock: TEMPAE_clean_linker_10, # of connection points: 2
#     Edge 20, Type (0, 0), BuildingBlock: TEMPAE_clean_linker_10, # of connection points: 2
#     Edge 21, Type (0, 0), BuildingBlock: TEMPAE_clean_linker_10, # of connection points: 2
#     Edge 22, Type (0, 0), BuildingBlock: TEMPAE_clean_linker_10, # of connection points: 2
#     Edge 23, Type (0, 0), BuildingBlock: TEMPAE_clean_linker_10, # of connection points: 2
#     Edge 24, Type (0, 0), BuildingBlock: TEMPAE_clean_linker_10, # of connection points: 2
#     Edge 25, Type (0, 0), BuildingBlock: TEMPAE_clean_linker_10, # of connection points: 2
#     Edge 26, Type (0, 0), BuildingBlock: TEMPAE_clean_linker_10, # of connection points: 2
#     Edge 27, Type (0, 0), BuildingBlock: TEMPAE_clean_linker_10, # of connection points: 2
#     Edge 28, Type (0, 0), BuildingBlock: TEMPAE_clean_linker_10, # of connection points: 2
#     Edge 29, Type (0, 0), BuildingBlock: TEMPAE_clean_linker_10, # of connection points: 2
#     Edge 30, Type (0, 0), BuildingBlock: TEMPAE_clean_linker_10, # of connection points: 2
#     Edge 31, Type (0, 0), BuildingBlock: TEMPAE_clean_linker_10, # of connection points: 2
#     Edge 32, Type (0, 0), BuildingBlock: TEMPAE_clean_linker_10, # of connection points: 2
#     Edge 33, Type (0, 0), BuildingBlock: TEMPAE_clean_linker_10, # of connection points: 2
#     Edge 34, Type (0, 0), BuildingBlock: TEMPAE_clean_linker_10, # of connection points: 2
#     Edge 35, Type (0, 0), BuildingBlock: TEMPAE_clean_linker_10, # of connection points: 2
#     Edge 36, Type (0, 0), BuildingBlock: TEMPAE_clean_linker_10, # of connection points: 2
#     Edge 37, Type (0, 0), BuildingBlock: TEMPAE_clean_linker_10, # of connection points: 2
#     Edge 38, Type (0, 0), BuildingBlock: TEMPAE_clean_linker_10, # of connection points: 2
#     Edge 39, Type (0, 0), BuildingBlock: TEMPAE_clean_linker_10, # of connection points: 2
#     Edge 40, Type (0, 0), BuildingBlock: TEMPAE_clean_linker_10, # of connection points: 2
#     Edge 41, Type (0, 0), BuildingBlock: TEMPAE_clean_linker_10, # of connection points: 2
#     Edge 42, Type (0, 0), BuildingBlock: TEMPAE_clean_linker_10, # of connection points: 2
#     Edge 43, Type (0, 0), BuildingBlock: TEMPAE_clean_linker_10, # of connection points: 2
#     Edge 44, Type (0, 0), BuildingBlock: TEMPAE_clean_linker_10, # of connection points: 2
#     Edge 45, Type (0, 0), BuildingBlock: TEMPAE_clean_linker_10, # of connection points: 2
#     Edge 46, Type (0, 0), BuildingBlock: TEMPAE_clean_linker_10, # of connection points: 2
#     Edge 47, Type (0, 0), BuildingBlock: TEMPAE_clean_linker_10, # of connection points: 2
# Relax obj value: 0.075
# Max RMSD: 0.103
# Mean RMSD: 0.103
data_MOF--net-atn--node1-TATPOV_clean_sbu_0--edge1-TEMPAE_clean_linker_10
_symmetry_space_group_name_H-M    P1
_symmetry_Int_Tables_number       1
_symmetry_cell_setting            triclinic
loop_
_symmetry_equiv_pos_as_xyz
'x, y, z'
_cell_length_a     61.852445
_cell_length_b     61.957702
_cell_length_c     26.751306
_cell_angle_alpha  90.031714
_cell_angle_beta   90.069036
_cell_angle_gamma 89.979164
loop_
_atom_site_label
_atom_site_type_symbol
_atom_site_fract_x
_atom_site_fract_y
_atom_site_fract_z
_atom_type_partial_charge
Zn0 Zn 0.19482 0.35265 0.97607 0.0
Zn1 Zn 0.20507 0.39163 0.97678 0.0
O2 O 0.19487 0.38734 0.90357 0.0
O3 O 0.19327 0.35189 0.90207 0.0
O4 O 0.21137 0.42341 0.98253 0.0
O5 O 0.16765 0.35614 0.01461 0.0
O6 O 0.18124 0.38806 0.03093 0.0
C7 C 0.19221 0.36977 0.87948 0.0
C8 C 0.23781 0.3575 0.00848 0.0
O9 O 0.23447 0.37657 -0.00776 0.0
O10 O 0.22231 0.34422 0.01059 0.0
C11 C 0.22028 0.43497 0.94917 0.0
O12 O 0.22656 0.42595 0.90716 0.0
C13 C 0.16691 0.37364 0.03876 0.0
Zn14 Zn 0.65199 0.18742 0.04854 0.0
Zn15 Zn 0.61415 0.20212 0.05394 0.0
O16 O 0.61332 0.17864 -0.00196 0.0
O17 O 0.64394 0.16144 0.00937 0.0
O18 O 0.58296 0.21141 0.05742 0.0
O19 O 0.65511 0.18477 0.12196 0.0
O20 O 0.6203 0.19161 0.12613 0.0
C21 C 0.62586 0.16291 0.98766 0.0
C22 C 0.65046 0.23112 0.01752 0.0
O23 O 0.63146 0.22979 0.03576 0.0
O24 O 0.66211 0.21439 0.01415 0.0
C25 C 0.57339 0.21961 0.01989 0.0
O26 O 0.58442 0.22299 0.97868 0.0
C27 C 0.63799 0.18634 0.14743 0.0
Zn28 Zn 0.80898 0.65046 -0.00095 0.0
Zn29 Zn 0.79701 0.61174 -0.00465 0.0
O30 O 0.80706 0.61745 0.92293 0.0
O31 O 0.8109 0.65269 0.92525 0.0
O32 O 0.78952 0.58013 -0.00526 0.0
O33 O 0.83584 0.6446 0.03734 0.0
O34 O 0.82092 0.61298 0.05005 0.0
C35 C 0.81077 0.63525 0.90072 0.0
C36 C 0.76556 0.64653 0.02979 0.0
O37 O 0.76832 0.6276 0.01214 0.0
O38 O 0.78153 0.6592 0.03363 0.0
C39 C 0.80525 0.56719 0.98859 0.0
O40 O 0.82472 0.57518 0.98213 0.0
C41 C 0.8359 0.62656 0.05926 0.0
Zn42 Zn 0.34915 0.81119 0.96546 0.0
Zn43 Zn 0.38747 0.79756 0.97809 0.0
O44 O 0.38999 0.81952 0.91939 0.0
O45 O 0.35827 0.83542 0.92205 0.0
O46 O 0.4182 0.7879 0.98818 0.0
O47 O 0.34504 0.81709 0.03769 0.0
O48 O 0.37974 0.81055 0.04688 0.0
C49 C 0.37721 0.83438 0.90463 0.0
C50 C 0.35178 0.76652 0.94507 0.0
O51 O 0.37059 0.76931 0.96353 0.0
O52 O 0.33972 0.78267 0.93707 0.0
C53 C 0.42976 0.78188 0.9515 0.0
O54 O 0.42116 0.78137 0.90658 0.0
C55 C 0.36169 0.81663 0.06507 0.0
Zn56 Zn 0.18914 0.67829 0.03822 0.0
Zn57 Zn 0.19786 0.63727 0.01484 0.0
O58 O 0.18388 0.63507 0.08483 0.0
O59 O 0.17817 0.66914 0.10471 0.0
O60 O 0.20309 0.60613 -0.0033 0.0
O61 O 0.16869 0.68057 0.97998 0.0
O62 O 0.1767 0.64701 0.96042 0.0
C63 C 0.17716 0.6493 0.11551 0.0
C64 C 0.23413 0.67129 0.01767 0.0
O65 O 0.22808 0.65188 0.00999 0.0
O66 O 0.22046 0.68547 0.03031 0.0
C67 C 0.22003 0.59568 0.00851 0.0
O68 O 0.23545 0.6055 0.03352 0.0
C69 C 0.16632 0.66437 0.95165 0.0
Zn70 Zn 0.32799 0.19606 0.96058 0.0
Zn71 Zn 0.36929 0.2044 0.97889 0.0
O72 O 0.36032 0.1852 0.03811 0.0
O73 O 0.32634 0.17745 0.02154 0.0
O74 O 0.40129 0.20875 -0.01025 0.0
O75 O 0.33479 0.18278 0.89518 0.0
O76 O 0.3693 0.18832 0.91104 0.0
C77 C 0.34282 0.17543 0.04919 0.0
C78 C 0.33618 0.24134 0.972 0.0
O79 O 0.35563 0.23523 0.97947 0.0
O80 O 0.32155 0.22756 0.9634 0.0
C81 C 0.41055 0.22518 0.00858 0.0
O82 O 0.39878 0.24156 0.02383 0.0
C83 C 0.35441 0.18102 0.88277 0.0
Zn84 Zn 0.81548 0.3224 0.96387 0.0
Zn85 Zn 0.80497 0.36281 0.96256 0.0
O86 O 0.82879 0.36079 0.01706 0.0
O87 O 0.84129 0.32787 0.00689 0.0
O88 O 0.79818 0.39455 0.96134 0.0
O89 O 0.81947 0.32192 0.89003 0.0
O90 O 0.81559 0.3572 0.89068 0.0
C91 C 0.84258 0.34617 0.02757 0.0
C92 C 0.77165 0.32887 -0.00686 0.0
O93 O 0.77572 0.34815 0.97935 0.0
O94 O 0.7866 0.3149 -0.00632 0.0
C95 C 0.79539 0.40516 0.00149 0.0
O96 O 0.79616 0.39495 0.0445 0.0
C97 C 0.81986 0.33979 0.86728 0.0
Zn98 Zn 0.67365 0.80915 0.95122 0.0
Zn99 Zn 0.63273 0.79866 0.97285 0.0
O100 O 0.64066 0.8207 0.02705 0.0
O101 O 0.67382 0.83052 0.00781 0.0
O102 O 0.60111 0.79313 0.98508 0.0
O103 O 0.66523 0.81886 0.8831 0.0
O104 O 0.63138 0.81157 0.90203 0.0
C105 C 0.65732 0.83227 0.03545 0.0
C106 C 0.66804 0.76394 0.97419 0.0
O107 O 0.64825 0.76909 0.98034 0.0
O108 O 0.68176 0.77816 0.96204 0.0
C109 C 0.59153 0.77501 0.98286 0.0
O110 O 0.60286 0.75741 0.97478 0.0
C111 C 0.64542 0.81863 0.8714 0.0
Zn112 Zn 0.684 0.84705 0.47972 0.0
Zn113 Zn 0.69472 0.88616 0.48619 0.0
O114 O 0.68672 0.88408 0.41129 0.0
O115 O 0.6839 0.84877 0.40564 0.0
O116 O 0.70105 0.91753 0.49811 0.0
O117 O 0.65628 0.84966 0.51665 0.0
O118 O 0.66963 0.88131 0.5364 0.0
C119 C 0.68419 0.86711 0.38496 0.0
C120 C 0.72657 0.85104 0.51656 0.0
O121 O 0.72355 0.87053 0.50291 0.0
O122 O 0.71104 0.83777 0.5152 0.0
C123 C 0.71421 0.92908 0.47343 0.0
O124 O 0.72506 0.92041 0.43629 0.0
C125 C 0.65521 0.8668 0.54208 0.0
Zn126 Zn 0.14767 0.69188 0.50026 0.0
Zn127 Zn 0.10868 0.70425 0.50226 0.0
O128 O 0.10995 0.68016 0.44786 0.0
O129 O 0.1418 0.66549 0.46042 0.0
O130 O 0.07723 0.71271 0.50331 0.0
O131 O 0.14929 0.68947 0.57408 0.0
O132 O 0.11411 0.69441 0.57508 0.0
C133 C 0.12375 0.66541 0.4383 0.0
C134 C 0.14399 0.73533 0.46881 0.0
O135 O 0.12476 0.73264 0.48479 0.0
O136 O 0.15682 0.71943 0.46699 0.0
C137 C 0.06606 0.71342 0.46343 0.0
O138 O 0.07542 0.70911 0.4205 0.0
C139 C 0.13169 0.69017 0.59797 0.0
Zn140 Zn 0.30916 0.15191 0.49867 0.0
Zn141 Zn 0.29812 0.11318 0.49368 0.0
O142 O 0.3091 0.11881 0.42173 0.0
O143 O 0.31189 0.15415 0.42505 0.0
O144 O 0.29091 0.08152 0.49497 0.0
O145 O 0.33573 0.14682 0.53846 0.0
O146 O 0.32154 0.11476 0.54956 0.0
C147 C 0.31261 0.13683 0.40016 0.0
C148 C 0.26559 0.14759 0.5259 0.0
O149 O 0.26895 0.12876 0.50815 0.0
O150 O 0.2813 0.16044 0.53148 0.0
C151 C 0.28071 0.07131 0.46116 0.0
O152 O 0.27361 0.0818 0.42175 0.0
C153 C 0.33607 0.12868 0.55989 0.0
Zn154 Zn 0.847 0.28679 0.43163 0.0
Zn155 Zn 0.88775 0.28074 0.45392 0.0
O156 O 0.88853 0.29365 0.38192 0.0
O157 O 0.85393 0.29809 0.36497 0.0
O158 O 0.91933 0.27781 0.47141 0.0
O159 O 0.84272 0.30699 0.48906 0.0
O160 O 0.87684 0.30153 0.50845 0.0
C161 C 0.87351 0.29949 0.35211 0.0
C162 C 0.85623 0.24255 0.45278 0.0
O163 O 0.87523 0.24964 0.46159 0.0
O164 O 0.84147 0.25533 0.43877 0.0
C165 C 0.93223 0.26629 0.4458 0.0
O166 O 0.92466 0.25547 0.40731 0.0
C167 C 0.85872 0.31057 0.51735 0.0
Zn168 Zn 0.69621 0.1718 0.59094 0.0
Zn169 Zn 0.7018 0.1302 0.56841 0.0
O170 O 0.68643 0.12883 0.63682 0.0
O171 O 0.68357 0.16329 0.65647 0.0
O172 O 0.70507 0.09903 0.54877 0.0
O173 O 0.67687 0.17588 0.53112 0.0
O174 O 0.68247 0.14177 0.51228 0.0
C175 C 0.68055 0.14362 0.667 0.0
C176 C 0.74078 0.161 0.57431 0.0
O177 O 0.73319 0.14211 0.56709 0.0
O178 O 0.72812 0.17639 0.58497 0.0
C179 C 0.72006 0.08685 0.56494 0.0
O180 O 0.73431 0.09468 0.59659 0.0
C181 C 0.67369 0.1599 0.50257 0.0
Zn182 Zn 0.82073 0.6919 0.45805 0.0
Zn183 Zn 0.8619 0.7014 0.47913 0.0
O184 O 0.85307 0.68137 0.5364 0.0
O185 O 0.81934 0.67293 0.51884 0.0
O186 O 0.89351 0.70662 0.49195 0.0
O187 O 0.82907 0.67928 0.39264 0.0
O188 O 0.86315 0.6861 0.41077 0.0
C189 C 0.83579 0.67113 0.54674 0.0
C190 C 0.82787 0.73736 0.47303 0.0
O191 O 0.84735 0.73165 0.48165 0.0
O192 O 0.81375 0.72337 0.46196 0.0
C193 C 0.90374 0.72273 0.47448 0.0
O194 O 0.89312 0.73754 0.44929 0.0
C195 C 0.84889 0.67841 0.38139 0.0
Zn196 Zn 0.30517 0.82545 0.51257 0.0
Zn197 Zn 0.297 0.86704 0.49434 0.0
O198 O 0.31454 0.8676 0.56023 0.0
O199 O 0.3205 0.83311 0.57527 0.0
O200 O 0.29216 0.89865 0.48038 0.0
O201 O 0.32171 0.82314 0.44832 0.0
O202 O 0.31504 0.8575 0.43417 0.0
C203 C 0.32263 0.85272 0.58729 0.0
C204 C 0.25983 0.83437 0.50602 0.0
O205 O 0.26615 0.85352 0.49646 0.0
O206 O 0.27348 0.81964 0.51484 0.0
C207 C 0.27617 0.90942 0.49679 0.0
O208 O 0.26145 0.89963 0.52394 0.0
C209 C 0.32374 0.83973 0.42115 0.0
Zn210 Zn 0.17575 0.30958 0.44732 0.0
Zn211 Zn 0.1346 0.3004 0.46367 0.0
O212 O 0.14167 0.32096 0.52195 0.0
O213 O 0.17538 0.32991 0.50556 0.0
O214 O 0.10261 0.29478 0.46978 0.0
O215 O 0.16992 0.32089 0.37943 0.0
O216 O 0.1354 0.31527 0.39444 0.0
C217 C 0.15863 0.3318 0.53235 0.0
C218 C 0.16895 0.26448 0.46494 0.0
O219 O 0.14921 0.27015 0.46948 0.0
O220 O 0.1833 0.27847 0.45573 0.0
C221 C 0.09346 0.2796 0.4937 0.0
O222 O 0.10533 0.26587 0.51916 0.0
C223 C 0.15038 0.32213 0.36596 0.0
C224 C 0.20465 0.56173 0.97234 0.0
C225 C 0.22182 0.57242 -0.00388 0.0
C226 C 0.20556 0.53949 0.96271 0.0
C227 C 0.22411 0.52761 0.97705 0.0
C228 C 0.24175 0.53838 -0.00018 0.0
C229 C 0.24038 0.56066 0.00917 0.0
C230 C 0.18639 0.52859 0.9384 0.0
C231 C 0.26183 0.52627 0.01543 0.0
C232 C 0.21539 0.46797 0.00183 0.0
C233 C 0.22247 0.45857 0.957 0.0
C234 C 0.21626 0.49036 0.00914 0.0
C235 C 0.22445 0.50375 0.97073 0.0
C236 C 0.23208 0.49437 0.9258 0.0
C237 C 0.231 0.47187 0.91945 0.0
C238 C 0.20797 0.49974 0.05761 0.0
C239 C 0.24098 0.50814 0.88408 0.0
H240 H 0.19027 0.57067 0.96195 0.0
H241 H 0.25377 0.56878 0.02734 0.0
H242 H 0.19163 0.51956 0.9047 0.0
H243 H 0.17924 0.51672 0.96466 0.0
H244 H 0.17363 0.54028 0.92733 0.0
H245 H 0.27465 0.5372 0.02979 0.0
H246 H 0.25773 0.51446 0.04511 0.0
H247 H 0.2684 0.517 0.98337 0.0
H248 H 0.20884 0.45785 0.03117 0.0
H249 H 0.23655 0.46476 0.88474 0.0
H250 H 0.19397 0.51045 0.05001 0.0
H251 H 0.22067 0.50974 0.07553 0.0
H252 H 0.20283 0.48706 0.08444 0.0
H253 H 0.22811 0.51895 0.86962 0.0
H254 H 0.24728 0.4983 0.85257 0.0
H255 H 0.2542 0.51857 0.89833 0.0
C256 C 0.44517 0.2441 0.03088 0.0
C257 C 0.43448 0.22579 0.01233 0.0
C258 C 0.46786 0.24482 0.03379 0.0
C259 C 0.48012 0.22678 0.01786 0.0
C260 C 0.46942 0.20823 -0.00068 0.0
C261 C 0.44677 0.20797 -0.00324 0.0
C262 C 0.47872 0.26488 0.05371 0.0
C263 C 0.4819 0.18864 0.98207 0.0
C264 C 0.53899 0.23197 0.97939 0.0
C265 C 0.54971 0.22343 0.02119 0.0
C266 C 0.51637 0.23392 0.97852 0.0
C267 C 0.50417 0.22712 0.0204 0.0
C268 C 0.51493 0.21921 0.06337 0.0
C269 C 0.53757 0.21749 0.06329 0.0
C270 C 0.50548 0.24256 0.9321 0.0
C271 C 0.5025 0.21177 0.10875 0.0
H272 H 0.43582 0.25795 0.04296 0.0
H273 H 0.43871 0.19373 0.9824 0.0
H274 H 0.4888 0.26077 0.0867 0.0
H275 H 0.48968 0.27167 0.02495 0.0
H276 H 0.46688 0.2775 0.06474 0.0
H277 H 0.47113 0.17546 0.96887 0.0
H278 H 0.49295 0.19314 0.95116 0.0
H279 H 0.49204 0.18237 0.01308 0.0
H280 H 0.54823 0.2367 0.94679 0.0
H281 H 0.54569 0.21094 0.09584 0.0
H282 H 0.49418 0.25579 0.94197 0.0
H283 H 0.4958 0.22958 0.91432 0.0
H284 H 0.51731 0.24871 0.90431 0.0
H285 H 0.49116 0.22455 0.12124 0.0
H286 H 0.51331 0.2075 0.14042 0.0
H287 H 0.49267 0.19739 0.09897 0.0
C288 C 0.79196 0.43977 0.9539 0.0
C289 C 0.79332 0.42897 -0.0001 0.0
C290 C 0.79197 0.46239 0.95158 0.0
C291 C 0.79349 0.47451 -0.0037 0.0
C292 C 0.79404 0.46374 0.04295 0.0
C293 C 0.79389 0.44109 0.0442 0.0
C294 C 0.7912 0.4733 0.90114 0.0
C295 C 0.79571 0.47612 0.09144 0.0
C296 C 0.81988 0.52964 0.98824 0.0
C297 C 0.80197 0.54352 -0.00999 0.0
C298 C 0.81728 0.50719 -0.00963 0.0
C299 C 0.79625 0.49834 -0.00593 0.0
C300 C 0.77807 0.51221 -0.00441 0.0
C301 C 0.78115 0.53467 -0.00632 0.0
C302 C 0.8371 0.49293 -0.01114 0.0
C303 C 0.75541 0.50333 -0.00077 0.0
H304 H 0.79136 0.43054 0.91949 0.0
H305 H 0.79488 0.4329 0.07991 0.0
H306 H 0.77834 0.48579 0.90054 0.0
H307 H 0.80679 0.48159 0.89395 0.0
H308 H 0.78817 0.46168 0.87028 0.0
H309 H 0.79432 0.46544 0.12463 0.0
H310 H 0.8115 0.48459 0.09317 0.0
H311 H 0.78289 0.48861 0.09347 0.0
H312 H 0.83603 0.53631 0.98553 0.0
H313 H 0.76723 0.54529 -0.005 0.0
H314 H 0.83618 0.48185 0.95633 0.0
H315 H 0.83781 0.48279 0.02301 0.0
H316 H 0.85232 0.50237 0.9862 0.0
H317 H 0.75213 0.49244 0.96717 0.0
H318 H 0.74298 0.51627 -0.00038 0.0
H319 H 0.75373 0.49358 0.03377 0.0
C320 C 0.55563 0.79345 0.98184 0.0
C321 C 0.56759 0.77423 0.98412 0.0
C322 C 0.53301 0.79313 0.97872 0.0
C323 C 0.52202 0.7731 0.9785 0.0
C324 C 0.53391 0.75365 0.98251 0.0
C325 C 0.5566 0.75443 0.98497 0.0
C326 C 0.52094 0.81424 0.97417 0.0
C327 C 0.52269 0.73202 0.98313 0.0
C328 C 0.46205 0.777 0.00698 0.0
C329 C 0.45308 0.77735 0.95876 0.0
C330 C 0.48441 0.77462 0.01414 0.0
C331 C 0.49813 0.77272 0.97207 0.0
C332 C 0.4891 0.77224 0.92342 0.0
C333 C 0.46667 0.77447 0.91736 0.0
C334 C 0.49342 0.77497 0.06661 0.0
C335 C 0.50321 0.77033 0.87759 0.0
H336 H 0.56396 0.80883 0.98108 0.0
H337 H 0.56572 0.73951 0.98698 0.0
H338 H 0.51211 0.81475 0.93806 0.0
H339 H 0.50875 0.81563 0.00438 0.0
H340 H 0.53187 0.82844 0.97616 0.0
H341 H 0.53412 0.71849 -0.01017 0.0
H342 H 0.51009 0.73175 0.01262 0.0
H343 H 0.51442 0.72927 0.94686 0.0
H344 H 0.45165 0.77904 0.03922 0.0
H345 H 0.45988 0.77466 0.87999 0.0
H346 H 0.50296 0.78993 0.07232 0.0
H347 H 0.50452 0.76113 0.07246 0.0
H348 H 0.48049 0.77436 0.09537 0.0
H349 H 0.51361 0.78485 0.87441 0.0
H350 H 0.49359 0.76873 0.84269 0.0
H351 H 0.51406 0.75614 0.88089 0.0
C352 C 0.70614 0.05596 0.51401 0.0
C353 C 0.72104 0.06396 0.54901 0.0
C354 C 0.70624 0.03415 0.49992 0.0
C355 C 0.72158 0.01996 0.52141 0.0
C356 C 0.73699 0.028 0.55586 0.0
C357 C 0.73655 0.04992 0.56923 0.0
C358 C 0.68956 0.0262 0.46296 0.0
C359 C 0.75359 0.01333 0.57957 0.0
C360 C 0.70559 0.96094 0.52714 0.0
C361 C 0.71683 0.95221 0.48632 0.0
C362 C 0.7073 0.98287 0.53936 0.0
C363 C 0.72057 0.99648 0.51005 0.0
C364 C 0.73222 0.98776 0.46921 0.0
C365 C 0.73023 0.96569 0.45783 0.0
C366 C 0.69464 0.99155 0.58326 0.0
C367 C 0.74652 0.0018 0.43712 0.0
H368 H 0.69416 0.06669 0.49793 0.0
H369 H 0.74817 0.05597 0.59616 0.0
H370 H 0.69758 0.01774 0.43147 0.0
H371 H 0.67871 0.01438 0.4814 0.0
H372 H 0.67953 0.03952 0.44761 0.0
H373 H 0.76524 0.02232 0.60337 0.0
H374 H 0.74534 0.00107 0.60298 0.0
H375 H 0.76271 0.00452 0.55028 0.0
H376 H 0.69525 0.95066 0.54953 0.0
H377 H 0.73899 0.95908 0.42628 0.0
H378 H 0.68296 0.00392 0.57022 0.0
H379 H 0.7057 0.99952 0.61021 0.0
H380 H 0.68557 0.9787 0.60319 0.0
H381 H 0.73664 0.01445 0.41865 0.0
H382 H 0.7551 0.9924 0.40785 0.0
H383 H 0.75868 0.01017 0.46069 0.0
C384 C 0.93903 0.74191 0.46262 0.0
C385 C 0.92763 0.7235 0.47795 0.0
C386 C 0.96175 0.74212 0.46209 0.0
C387 C 0.97327 0.7234 0.47659 0.0
C388 C 0.96185 0.70497 0.49326 0.0
C389 C 0.93919 0.70529 0.49405 0.0
C390 C 0.97339 0.76219 0.44485 0.0
C391 C 0.97355 0.68462 0.50866 0.0
C392 C 0.02935 0.71311 0.42432 0.0
C393 C 0.0425 0.71754 0.46579 0.0
C394 C 0.00681 0.7154 0.42705 0.0
C395 C 0.99722 0.72257 0.47214 0.0
C396 C 0.01047 0.7278 0.51359 0.0
C397 C 0.03295 0.72508 0.51004 0.0
C398 C 0.99321 0.70945 0.38217 0.0
C399 C 0.00085 0.73579 0.56204 0.0
H400 H 0.93022 0.75608 0.45041 0.0
H401 H 0.93053 0.69098 0.50589 0.0
H402 H 0.98564 0.76711 0.47295 0.0
H403 H 0.98212 0.75878 0.40951 0.0
H404 H 0.96216 0.7759 0.43842 0.0
H405 H 0.96232 0.67193 0.52229 0.0
H406 H 0.98272 0.67808 0.47639 0.0
H407 H 0.98541 0.68822 0.53864 0.0
H408 H 0.03659 0.70724 0.39003 0.0
H409 H 0.04304 0.72869 0.54214 0.0
H410 H 0.98265 0.72317 0.3715 0.0
H411 H 0.98252 0.69568 0.39168 0.0
H412 H 0.00321 0.70488 0.34935 0.0
H413 H 0.99005 0.74976 0.5549 0.0
H414 H 0.01344 0.74071 0.58941 0.0
H415 H 0.99084 0.7229 0.57907 0.0
C416 C 0.2675 0.03581 0.42761 0.0
C417 C 0.27785 0.04761 0.46549 0.0
C418 C 0.26565 0.01323 0.4306 0.0
C419 C 0.27439 0.00223 0.47239 0.0
C420 C 0.28447 0.0141 0.51115 0.0
C421 C 0.28605 0.03661 0.50726 0.0
C422 C 0.25472 0.00111 0.38864 0.0
C423 C 0.29401 0.00298 0.55633 0.0
C424 C 0.25734 0.94507 0.50558 0.0
C425 C 0.27487 0.93298 0.48756 0.0
C426 C 0.2566 0.96759 0.49949 0.0
C427 C 0.27384 0.97825 0.475 0.0
C428 C 0.29128 0.96607 0.45556 0.0
C429 C 0.29156 0.9436 0.46198 0.0
C430 C 0.23768 0.98002 0.52048 0.0
C431 C 0.30999 0.97684 0.42929 0.0
H432 H 0.26107 0.04417 0.39526 0.0
H433 H 0.29402 0.04556 0.53683 0.0
H434 H 0.26653 0.99022 0.37024 0.0
H435 H 0.24155 0.99084 0.40367 0.0
H436 H 0.24783 0.01211 0.35996 0.0
H437 H 0.3007 0.0146 0.58395 0.0
H438 H 0.28151 0.99303 0.57508 0.0
H439 H 0.30716 0.99192 0.54446 0.0
H440 H 0.24432 0.93701 0.52515 0.0
H441 H 0.30514 0.93441 0.44777 0.0
H442 H 0.23051 0.99051 0.49122 0.0
H443 H 0.24331 0.99072 0.55113 0.0
H444 H 0.22488 0.96923 0.53535 0.0
H445 H 0.30398 0.98706 0.39819 0.0
H446 H 0.32172 0.96498 0.41399 0.0
H447 H 0.31863 0.98759 0.45581 0.0
C448 C 0.05736 0.29121 0.46114 0.0
C449 C 0.06964 0.27703 0.49065 0.0
C450 C 0.03494 0.28868 0.45614 0.0
C451 C 0.02443 0.27158 0.48137 0.0
C452 C 0.03663 0.25736 0.51176 0.0
C453 C 0.05911 0.26023 0.516 0.0
C454 C 0.02252 0.30421 0.42335 0.0
C455 C 0.02595 0.239 0.5394 0.0
C456 C 0.96379 0.27824 0.49775 0.0
C457 C 0.9557 0.26623 0.45734 0.0
C458 C 0.9861 0.27952 0.50707 0.0
C459 C 0.00069 0.26857 0.47517 0.0
C460 C 0.9926 0.25588 0.43528 0.0
C461 C 0.97021 0.25485 0.42687 0.0
C462 C 0.99408 0.29317 0.55008 0.0
C463 C 0.00765 0.24396 0.40046 0.0
H464 H 0.06531 0.30426 0.44139 0.0
H465 H 0.06844 0.24921 0.53892 0.0
H466 H 0.01446 0.29526 0.39261 0.0
H467 H 0.00966 0.31228 0.4454 0.0
H468 H 0.03308 0.3168 0.40673 0.0
H469 H 0.03763 0.22967 0.56242 0.0
H470 H 0.01304 0.24532 0.56415 0.0
H471 H 0.01816 0.22787 0.51235 0.0
H472 H 0.95271 0.28701 0.52168 0.0
H473 H 0.96413 0.24546 0.39568 0.0
H474 H 0.00337 0.30712 0.53545 0.0
H475 H 0.0052 0.28368 0.5741 0.0
H476 H 0.98063 0.29939 0.57352 0.0
H477 H 0.01764 0.25572 0.3794 0.0
H478 H 0.99878 0.2337 0.37324 0.0
H479 H 0.01888 0.2336 0.42215 0.0
C480 C 0.27722 0.35556 0.98764 0.0
C481 C 0.25985 0.3492 0.01786 0.0
C482 C 0.29587 0.34261 0.98416 0.0
C483 C 0.29688 0.32298 0.01122 0.0
C484 C 0.28077 0.31838 0.04724 0.0
C485 C 0.26241 0.33154 0.05 0.0
C486 C 0.31324 0.34865 0.94726 0.0
C487 C 0.28139 0.29797 0.07804 0.0
C488 C 0.31152 0.27091 0.94744 0.0
C489 C 0.32975 0.2643 0.97452 0.0
C490 C 0.30182 0.29092 0.95617 0.0
C491 C 0.31059 0.30484 -0.00698 0.0
C492 C 0.33025 0.29919 0.01704 0.0
C493 C 0.33964 0.27885 0.00756 0.0
C494 C 0.28106 0.29624 0.92888 0.0
C495 C 0.34058 0.3138 0.05531 0.0
H496 H 0.27543 0.36938 0.96314 0.0
H497 H 0.24918 0.32689 0.07428 0.0
H498 H 0.32944 0.34361 0.96085 0.0
H499 H 0.31017 0.34029 0.91125 0.0
H500 H 0.31336 0.36631 0.94008 0.0
H501 H 0.26954 0.29838 0.1092 0.0
H502 H 0.27753 0.28394 0.05378 0.0
H503 H 0.29776 0.29536 0.09386 0.0
H504 H 0.30411 0.25987 0.92101 0.0
H505 H 0.35387 0.27387 0.02829 0.0
H506 H 0.28206 0.31251 0.91181 0.0
H507 H 0.26739 0.29638 0.95573 0.0
H508 H 0.27732 0.28439 0.89891 0.0
H509 H 0.33721 0.33105 0.04739 0.0
H510 H 0.35836 0.3113 0.05668 0.0
H511 H 0.334 0.30995 0.09281 0.0
C512 C 0.73158 0.33069 0.97896 0.0
C513 C 0.74935 0.32174 0.00414 0.0
C514 C 0.71117 0.32063 0.98078 0.0
C515 C 0.70863 0.30136 0.00867 0.0
C516 C 0.72607 0.29356 0.03791 0.0
C517 C 0.74621 0.30377 0.03503 0.0
C518 C 0.69295 0.32965 0.94966 0.0
C519 C 0.72405 0.27332 0.06903 0.0
C520 C 0.65771 0.26986 0.03776 0.0
C521 C 0.66052 0.25212 0.00589 0.0
C522 C 0.67209 0.28746 0.03603 0.0
C523 C 0.68943 0.28718 0.00144 0.0
C524 C 0.69063 0.27046 0.96542 0.0
C525 C 0.67625 0.25306 0.96837 0.0
C526 C 0.66999 0.30515 0.07444 0.0
C527 C 0.70852 0.2697 0.92708 0.0
H528 H 0.73393 0.34462 0.95508 0.0
H529 H 0.75985 0.29702 0.05518 0.0
H530 H 0.69193 0.32058 0.91396 0.0
H531 H 0.6772 0.32789 0.96905 0.0
H532 H 0.69558 0.34696 0.94071 0.0
H533 H 0.73824 0.27086 0.09388 0.0
H534 H 0.70926 0.27395 0.0924 0.0
H535 H 0.72261 0.25909 0.04399 0.0
H536 H 0.64553 0.26917 0.06684 0.0
H537 H 0.67826 0.23943 0.94331 0.0
H538 H 0.67427 0.32108 0.0583 0.0
H539 H 0.68131 0.30193 0.10578 0.0
H540 H 0.65334 0.30598 0.08986 0.0
H541 H 0.71058 0.28568 0.90906 0.0
H542 H 0.70536 0.25747 0.89757 0.0
H543 H 0.72399 0.26556 0.94584 0.0
C544 C 0.72671 0.64991 0.0053 0.0
C545 C 0.74372 0.65562 0.03739 0.0
C546 C 0.7087 0.66359 -0.00033 0.0
C547 C 0.70789 0.68322 0.02678 0.0
C548 C 0.72342 0.68722 0.06459 0.0
C549 C 0.74122 0.6734 0.06926 0.0
C550 C 0.69203 0.65833 0.96036 0.0
C551 C 0.72288 0.70761 0.09547 0.0
C552 C 0.69516 0.73517 0.95959 0.0
C553 C 0.67576 0.74159 0.98214 0.0
C554 C 0.70492 0.71549 0.97155 0.0
C555 C 0.69509 0.70176 0.00723 0.0
C556 C 0.6747 0.70739 0.02756 0.0
C557 C 0.66521 0.72733 0.01472 0.0
C558 C 0.72651 0.71011 0.94816 0.0
C559 C 0.66347 0.6931 0.06503 0.0
H560 H 0.72844 0.63604 0.9809 0.0
H561 H 0.75416 0.67759 0.09489 0.0
H562 H 0.67568 0.66358 0.97231 0.0
H563 H 0.69605 0.66703 0.92535 0.0
H564 H 0.69166 0.64076 0.95203 0.0
H565 H 0.73369 0.70654 0.12857 0.0
H566 H 0.72826 0.72141 0.07213 0.0
H567 H 0.70621 0.7111 0.10838 0.0
H568 H 0.70317 0.74593 0.93359 0.0
H569 H 0.65014 0.73217 0.03206 0.0
H570 H 0.72607 0.69377 0.93128 0.0
H571 H 0.73928 0.7101 0.97736 0.0
H572 H 0.7312 0.72184 0.91872 0.0
H573 H 0.6665 0.67576 0.0573 0.0
H574 H 0.64574 0.69601 0.06521 0.0
H575 H 0.66975 0.69673 0.10297 0.0
C576 C 0.2639 0.69743 0.03129 0.0
C577 C 0.25676 0.67818 0.00933 0.0
C578 C 0.28354 0.70684 0.01749 0.0
C579 C 0.29652 0.69672 0.98069 0.0
C580 C 0.29033 0.67632 0.96144 0.0
C581 C 0.27041 0.66725 0.97596 0.0
C582 C 0.28954 0.72847 0.03973 0.0
C583 C 0.30391 0.6647 0.92315 0.0
C584 C 0.3235 0.74188 0.91201 0.0
C585 C 0.34209 0.74474 0.94128 0.0
C586 C 0.30968 0.72432 0.92001 0.0
C587 C 0.31457 0.70934 0.95835 0.0
C588 C 0.33485 0.71045 0.98285 0.0
C589 C 0.34845 0.72825 0.97408 0.0
C590 C 0.28851 0.72348 0.89192 0.0
C591 C 0.34108 0.69429 0.02244 0.0
H592 H 0.25363 0.70574 0.0579 0.0
H593 H 0.26504 0.65226 0.95909 0.0
H594 H 0.30624 0.72801 0.05481 0.0
H595 H 0.28902 0.74105 0.01023 0.0
H596 H 0.27844 0.73339 0.0703 0.0
H597 H 0.30093 0.64702 0.92413 0.0
H598 H 0.29958 0.67059 0.88529 0.0
H599 H 0.32141 0.66771 0.92905 0.0
H600 H 0.31878 0.75434 0.88572 0.0
H601 H 0.36296 0.73021 -0.0036 0.0
H602 H 0.27525 0.72889 0.91693 0.0
H603 H 0.28483 0.70675 0.87995 0.0
H604 H 0.28864 0.73407 0.85842 0.0
H605 H 0.33332 0.6988 0.05833 0.0
H606 H 0.35886 0.69392 0.02833 0.0
H607 H 0.33544 0.67785 0.01232 0.0
C608 C 0.80292 0.7669 0.44981 0.0
C609 C 0.82081 0.76005 0.47773 0.0
C610 C 0.79259 0.78643 0.46025 0.0
C611 C 0.8003 0.79954 0.49986 0.0
C612 C 0.81962 0.79374 0.52506 0.0
C613 C 0.82972 0.77394 0.51367 0.0
C614 C 0.77225 0.79203 0.43161 0.0
C615 C 0.82877 0.80749 0.56649 0.0
C616 C 0.76628 0.84991 0.49915 0.0
C617 C 0.74845 0.84249 0.5265 0.0
C618 C 0.78511 0.83725 0.49527 0.0
C619 C 0.78585 0.81686 0.51915 0.0
C620 C 0.76913 0.81097 0.55258 0.0
C621 C 0.75058 0.82385 0.55569 0.0
C622 C 0.80302 0.84454 0.46107 0.0
C623 C 0.76944 0.78967 0.57998 0.0
H624 H 0.79628 0.75637 0.42126 0.0
H625 H 0.84366 0.76875 0.53513 0.0
H626 H 0.75806 0.79093 0.45684 0.0
H627 H 0.77308 0.80882 0.41744 0.0
H628 H 0.7695 0.78106 0.39936 0.0
H629 H 0.84651 0.8051 0.57017 0.0
H630 H 0.82545 0.82488 0.5602 0.0
H631 H 0.8212 0.80277 0.60242 0.0
H632 H 0.76481 0.86447 0.47693 0.0
H633 H 0.73696 0.81833 0.57776 0.0
H634 H 0.80071 0.83717 0.42362 0.0
H635 H 0.81904 0.83933 0.4754 0.0
H636 H 0.80301 0.86237 0.45657 0.0
H637 H 0.76616 0.7764 0.55312 0.0
H638 H 0.75704 0.78902 0.60996 0.0
H639 H 0.78555 0.78671 0.59686 0.0
C640 C 0.22987 0.81077 0.53325 0.0
C641 C 0.23676 0.82825 0.50423 0.0
C642 C 0.20995 0.80083 0.52441 0.0
C643 C 0.19652 0.80856 0.4854 0.0
C644 C 0.20234 0.82765 0.45951 0.0
C645 C 0.22254 0.83733 0.46921 0.0
C646 C 0.20436 0.78074 0.55376 0.0
C647 C 0.1882 0.83689 0.41887 0.0
C648 C 0.17143 0.75913 0.42993 0.0
C649 C 0.15291 0.7571 0.45963 0.0
C650 C 0.18453 0.77749 0.43303 0.0
C651 C 0.17897 0.79418 0.46685 0.0
C652 C 0.1587 0.79356 0.49141 0.0
C653 C 0.14584 0.77489 0.48763 0.0
C654 C 0.20571 0.77766 0.40497 0.0
C655 C 0.15172 0.81147 0.52598 0.0
H656 H 0.24068 0.80401 0.56109 0.0
H657 H 0.22777 0.85097 0.44692 0.0
H658 H 0.18767 0.78183 0.56863 0.0
H659 H 0.2051 0.76645 0.52879 0.0
H660 H 0.21559 0.77803 0.58558 0.0
H661 H 0.19081 0.85454 0.41488 0.0
H662 H 0.19239 0.82918 0.38272 0.0
H663 H 0.17082 0.83385 0.4263 0.0
H664 H 0.17667 0.74557 0.40729 0.0
H665 H 0.13136 0.77353 0.51021 0.0
H666 H 0.21917 0.7745 0.43148 0.0
H667 H 0.20857 0.79366 0.3877 0.0
H668 H 0.20619 0.76516 0.37519 0.0
H669 H 0.15914 0.80898 0.56331 0.0
H670 H 0.13387 0.81168 0.53067 0.0
H671 H 0.1571 0.82743 0.51185 0.0
C672 C 0.2403 0.17418 0.56308 0.0
C673 C 0.2435 0.15635 0.53167 0.0
C674 C 0.22238 0.18775 0.55685 0.0
C675 C 0.20742 0.18341 0.51803 0.0
C676 C 0.20886 0.16369 0.4914 0.0
C677 C 0.22701 0.15031 0.49847 0.0
C678 C 0.22119 0.20825 0.58725 0.0
C679 C 0.19272 0.15801 0.45124 0.0
C680 C 0.16498 0.22759 0.50362 0.0
C681 C 0.17596 0.24183 0.47176 0.0
C682 C 0.17416 0.20751 0.51656 0.0
C683 C 0.1947 0.20176 0.49719 0.0
C684 C 0.20487 0.21541 0.46185 0.0
C685 C 0.19538 0.23519 0.44967 0.0
C686 C 0.16248 0.19325 0.55333 0.0
C687 C 0.22664 0.20993 0.43947 0.0
H688 H 0.25281 0.17862 0.58959 0.0
H689 H 0.22926 0.13639 0.47446 0.0
H690 H 0.22649 0.22206 0.56386 0.0
H691 H 0.20436 0.21145 0.59934 0.0
H692 H 0.23173 0.20752 0.62088 0.0
H693 H 0.1926 0.14038 0.44361 0.0
H694 H 0.17618 0.16322 0.46193 0.0
H695 H 0.19709 0.16648 0.41615 0.0
H696 H 0.14988 0.2326 0.52057 0.0
H697 H 0.20371 0.24594 0.42418 0.0
H698 H 0.16803 0.19715 0.59173 0.0
H699 H 0.16582 0.17592 0.54633 0.0
H700 H 0.14474 0.19599 0.55179 0.0
H701 H 0.23916 0.20992 0.46925 0.0
H702 H 0.23162 0.22161 0.41016 0.0
H703 H 0.2263 0.19357 0.42268 0.0
C704 C 0.83322 0.21095 0.43536 0.0
C705 C 0.84982 0.22015 0.46393 0.0
C706 C 0.82027 0.1945 0.45489 0.0
C707 C 0.82416 0.18709 0.50413 0.0
C708 C 0.84329 0.19356 0.52921 0.0
C709 C 0.85591 0.21032 0.50897 0.0
C710 C 0.80055 0.18752 0.42575 0.0
C711 C 0.84893 0.1847 0.58003 0.0
C712 C 0.77129 0.18709 0.57342 0.0
C713 C 0.76397 0.16593 0.56583 0.0
C714 C 0.79166 0.19368 0.55689 0.0
C715 C 0.80546 0.17859 0.53307 0.0
C716 C 0.79915 0.15663 0.53011 0.0
C717 C 0.7783 0.15057 0.546 0.0
C718 C 0.79754 0.21732 0.5612 0.0
C719 C 0.81369 0.13969 0.50761 0.0
H720 H 0.82888 0.21822 0.39984 0.0
H721 H 0.86901 0.21714 0.53082 0.0
H722 H 0.79886 0.16972 0.42666 0.0
H723 H 0.78585 0.19458 0.44307 0.0
H724 H 0.80125 0.1928 0.3861 0.0
H725 H 0.86655 0.18605 0.58749 0.0
H726 H 0.84026 0.19402 0.6092 0.0
H727 H 0.84398 0.16753 0.58332 0.0
H728 H 0.76057 0.199 0.58978 0.0
H729 H 0.77298 0.13405 0.54087 0.0
H730 H 0.7993 0.22444 0.52336 0.0
H731 H 0.81322 0.21919 0.58082 0.0
H732 H 0.78517 0.22678 0.58186 0.0
H733 H 0.80893 0.13689 0.46814 0.0
H734 H 0.8118 0.12411 0.5277 0.0
H735 H 0.83096 0.1445 0.50863 0.0
C736 C 0.16056 0.32987 0.27872 0.0
C737 C 0.14543 0.33187 0.31717 0.0
C738 C 0.15758 0.34034 0.23311 0.0
C739 C 0.13914 0.35362 0.22605 0.0
C740 C 0.12358 0.35555 0.26461 0.0
C741 C 0.12675 0.34428 0.30968 0.0
C742 C 0.17449 0.3374 0.19282 0.0
C743 C 0.1037 0.36945 0.25879 0.0
C744 C 0.15722 0.38873 0.12224 0.0
C745 C 0.1523 0.37496 0.08225 0.0
C746 C 0.1495 0.38413 0.17035 0.0
C747 C 0.13698 0.36529 0.17793 0.0
C748 C 0.12857 0.35407 0.13625 0.0
C749 C 0.13635 0.35909 0.08855 0.0
C750 C 0.15757 0.39735 0.21386 0.0
C751 C 0.11427 0.33456 0.14262 0.0
H752 H 0.17491 0.32009 0.28444 0.0
H753 H 0.11507 0.34585 0.33964 0.0
H754 H 0.16685 0.33147 0.15788 0.0
H755 H 0.18231 0.35309 0.18445 0.0
H756 H 0.1873 0.32576 0.20386 0.0
H757 H 0.0977 0.37514 0.29564 0.0
H758 H 0.10678 0.38368 0.23468 0.0
H759 H 0.09067 0.35975 0.24124 0.0
H760 H 0.16898 0.40153 0.11735 0.0
H761 H 0.13176 0.34896 0.05722 0.0
H762 H 0.17206 0.38943 0.23013 0.0
H763 H 0.1451 0.39848 0.24353 0.0
H764 H 0.1622 0.41389 0.20192 0.0
H765 H 0.12436 0.3205 0.15345 0.0
H766 H 0.1056 0.3305 0.10745 0.0
H767 H 0.10224 0.33728 0.17268 0.0
C768 C 0.65745 0.14523 0.42395 0.0
C769 C 0.66133 0.16282 0.45573 0.0
C770 C 0.64905 0.14837 0.37581 0.0
C771 C 0.64466 0.1696 0.35912 0.0
C772 C 0.64672 0.18717 0.39256 0.0
C773 C 0.65497 0.18356 0.44061 0.0
C774 C 0.64674 0.12918 0.34143 0.0
C775 C 0.64224 0.21006 0.37616 0.0
C776 C 0.65935 0.18105 0.22497 0.0
C777 C 0.63906 0.18224 0.20173 0.0
C778 C 0.66123 0.177 0.27609 0.0
C779 C 0.64233 0.17385 0.30489 0.0
C780 C 0.62173 0.17499 0.2819 0.0
C781 C 0.62031 0.17931 0.23039 0.0
C782 C 0.68354 0.17613 0.29925 0.0
C783 C 0.6013 0.17151 0.31159 0.0
H784 H 0.66195 0.1291 0.43568 0.0
H785 H 0.65763 0.19722 0.46518 0.0
H786 H 0.63159 0.13028 0.31933 0.0
H787 H 0.66043 0.12895 0.31468 0.0
H788 H 0.64678 0.1137 0.36239 0.0
H789 H 0.64098 0.22127 0.40846 0.0
H790 H 0.6556 0.21568 0.35176 0.0
H791 H 0.62708 0.21097 0.35411 0.0
H792 H 0.67392 0.18345 0.20319 0.0
H793 H 0.6046 0.18015 0.21252 0.0
H794 H 0.68633 0.16005 0.3163 0.0
H795 H 0.68488 0.18832 0.32949 0.0
H796 H 0.69655 0.17919 0.27157 0.0
H797 H 0.60153 0.15523 0.32885 0.0
H798 H 0.58654 0.173 0.28814 0.0
H799 H 0.60034 0.18341 0.3425 0.0
C800 C 0.8733 0.65504 0.33 0.0
C801 C 0.85501 0.6683 0.33385 0.0
C802 C 0.87739 0.64337 0.28587 0.0
C803 C 0.86296 0.64543 0.245 0.0
C804 C 0.84502 0.65965 0.24839 0.0
C805 C 0.84121 0.67069 0.29291 0.0
C806 C 0.89644 0.62818 0.28438 0.0
C807 C 0.8294 0.66291 0.20543 0.0
C808 C 0.86767 0.63834 0.10892 0.0
C809 C 0.85057 0.62372 0.10228 0.0
C810 C 0.87538 0.64305 0.1569 0.0
C811 C 0.86566 0.63281 0.19834 0.0
C812 C 0.85215 0.61469 0.19052 0.0
C813 C 0.84453 0.61037 0.14213 0.0
C814 C 0.89082 0.66166 0.16354 0.0
C815 C 0.84276 0.60234 0.23389 0.0
H816 H 0.88385 0.65306 0.36208 0.0
H817 H 0.82718 0.68113 0.29596 0.0
H818 H 0.89114 0.61204 0.29745 0.0
H819 H 0.90303 0.62633 0.24608 0.0
H820 H 0.90957 0.63377 0.30962 0.0
H821 H 0.81698 0.67536 0.21374 0.0
H822 H 0.83826 0.66794 0.17135 0.0
H823 H 0.82095 0.64755 0.19697 0.0
H824 H 0.87313 0.64804 0.07766 0.0
H825 H 0.8319 0.59845 0.13692 0.0
H826 H 0.90158 0.65906 0.19619 0.0
H827 H 0.88143 0.67666 0.17022 0.0
H828 H 0.90089 0.66409 0.12963 0.0
H829 H 0.85478 0.60074 0.26449 0.0
H830 H 0.83731 0.58601 0.22223 0.0
H831 H 0.82857 0.61124 0.24875 0.0
C832 C 0.34056 0.81762 0.35383 0.0
C833 C 0.3351 0.838 0.37284 0.0
C834 C 0.34859 0.81534 0.30526 0.0
C835 C 0.35146 0.83392 0.2753 0.0
C836 C 0.34769 0.85466 0.29565 0.0
C837 C 0.33936 0.85646 0.3442 0.0
C838 C 0.35225 0.79291 0.28472 0.0
C839 C 0.35099 0.87484 0.26503 0.0
C840 C 0.37789 0.82474 0.14907 0.0
C841 C 0.35964 0.82242 0.11836 0.0
C842 C 0.37562 0.82936 0.20021 0.0
C843 C 0.35465 0.83132 0.22082 0.0
C844 C 0.33624 0.82942 0.18973 0.0
C845 C 0.33898 0.82514 0.13891 0.0
C846 C 0.39556 0.83168 0.23233 0.0
C847 C 0.31355 0.83119 0.21038 0.0
H848 H 0.33751 0.80328 0.37591 0.0
H849 H 0.33552 0.87229 0.35901 0.0
H850 H 0.33942 0.78909 0.25705 0.0
H851 H 0.36799 0.79195 0.26506 0.0
H852 H 0.35191 0.78042 0.31449 0.0
H853 H 0.3512 0.88958 0.28872 0.0
H854 H 0.36635 0.87395 0.24376 0.0
H855 H 0.33764 0.87642 0.23751 0.0
H856 H 0.39391 0.82281 0.13327 0.0
H857 H 0.32478 0.82338 0.11548 0.0
H858 H 0.39654 0.81798 0.25892 0.0
H859 H 0.39466 0.8467 0.25483 0.0
H860 H 0.41062 0.83198 0.20973 0.0
H861 H 0.31079 0.81828 0.2384 0.0
H862 H 0.301 0.82977 0.18082 0.0
H863 H 0.3114 0.84689 0.22967 0.0
C864 C 0.1519 0.68693 0.67763 0.0
C865 C 0.13206 0.68619 0.65232 0.0
C866 C 0.1532 0.68272 0.72876 0.0
C867 C 0.13418 0.67743 0.75542 0.0
C868 C 0.11401 0.6768 0.7304 0.0
C869 C 0.11315 0.68132 0.67891 0.0
C870 C 0.17504 0.68384 0.75415 0.0
C871 C 0.09349 0.67105 0.75777 0.0
C872 C 0.15103 0.64887 0.87291 0.0
C873 C 0.15319 0.66641 0.9057 0.0
C874 C 0.1424 0.65173 0.82492 0.0
C875 C 0.136 0.67263 0.80948 0.0
C876 C 0.13603 0.68986 0.84418 0.0
C877 C 0.14459 0.68652 0.89204 0.0
C878 C 0.14223 0.63286 0.78921 0.0
C879 C 0.12927 0.71237 0.82924 0.0
H880 H 0.16655 0.69089 0.65743 0.0
H881 H 0.0978 0.68067 0.65939 0.0
H882 H 0.17457 0.69568 0.78524 0.0
H883 H 0.17918 0.6679 0.77042 0.0
H884 H 0.18815 0.68859 0.72804 0.0
H885 H 0.07896 0.67249 0.73355 0.0
H886 H 0.09456 0.65422 0.7717 0.0
H887 H 0.09138 0.68164 0.79086 0.0
H888 H 0.15722 0.63316 0.88357 0.0
H889 H 0.14583 0.70009 0.91748 0.0
H890 H 0.15623 0.6342 0.76347 0.0
H891 H 0.12732 0.63288 0.76612 0.0
H892 H 0.14342 0.6172 0.80923 0.0
H893 H 0.14235 0.71988 0.80683 0.0
H894 H 0.12619 0.72276 0.86234 0.0
H895 H 0.1145 0.712 0.80571 0.0
C896 C 0.34443 0.11292 0.64337 0.0
C897 C 0.35067 0.12591 0.60305 0.0
C898 C 0.35249 0.11714 0.69144 0.0
C899 C 0.36671 0.1348 0.69852 0.0
C900 C 0.37633 0.14472 0.65654 0.0
C901 C 0.36811 0.14015 0.60894 0.0
C902 C 0.34302 0.1052 0.73532 0.0
C903 C 0.3924 0.16285 0.66232 0.0
C904 C 0.34519 0.17356 0.79498 0.0
C905 C 0.35946 0.1706 0.83488 0.0
C906 C 0.34786 0.16234 0.75025 0.0
C907 C 0.36512 0.14738 0.74552 0.0
C908 C 0.38002 0.14471 0.78531 0.0
C909 C 0.37707 0.15654 0.82971 0.0
C910 C 0.33179 0.16624 0.70851 0.0
C911 C 0.39837 0.12873 0.78232 0.0
H912 H 0.33143 0.10136 0.63876 0.0
H913 H 0.37363 0.1496 0.57731 0.0
H914 H 0.35524 0.10315 0.76535 0.0
H915 H 0.32933 0.11466 0.75082 0.0
H916 H 0.33683 0.08909 0.72403 0.0
H917 H 0.40214 0.16503 0.62782 0.0
H918 H 0.38355 0.17811 0.6697 0.0
H919 H 0.40345 0.15988 0.69427 0.0
H920 H 0.33169 0.1846 0.79901 0.0
H921 H 0.38797 0.15412 0.86099 0.0
H922 H 0.32269 0.15121 0.7005 0.0
H923 H 0.34035 0.17102 0.67383 0.0
H924 H 0.31994 0.1791 0.71783 0.0
H925 H 0.39246 0.11269 0.7947 0.0
H926 H 0.41192 0.13348 0.80729 0.0
H927 H 0.40459 0.12698 0.74366 0.0
C928 C 0.8323 0.3592 0.79019 0.0
C929 C 0.82575 0.3401 0.81386 0.0
C930 C 0.83902 0.35901 0.74001 0.0
C931 C 0.83893 0.33931 0.71321 0.0
C932 C 0.83196 0.3201 0.7368 0.0
C933 C 0.82555 0.32073 0.78679 0.0
C934 C 0.84652 0.37972 0.71596 0.0
C935 C 0.83135 0.29876 0.70934 0.0
C936 C 0.83506 0.33196 0.57421 0.0
C937 C 0.85545 0.3231 0.56376 0.0
C938 C 0.83004 0.33953 0.62212 0.0
C939 C 0.84583 0.33828 0.66025 0.0
C940 C 0.86714 0.33165 0.64851 0.0
C941 C 0.87171 0.32406 0.60027 0.0
C942 C 0.80716 0.3466 0.63303 0.0
C943 C 0.88453 0.33047 0.68805 0.0
H944 H 0.83259 0.37419 0.81111 0.0
H945 H 0.82035 0.30594 0.80475 0.0
H946 H 0.86379 0.37826 0.70532 0.0
H947 H 0.83726 0.38281 0.68115 0.0
H948 H 0.84468 0.39384 0.74122 0.0
H949 H 0.82522 0.2854 0.73309 0.0
H950 H 0.82082 0.30007 0.67587 0.0
H951 H 0.84781 0.29445 0.69623 0.0
H952 H 0.82251 0.3317 0.54591 0.0
H953 H 0.88762 0.31758 0.59226 0.0
H954 H 0.80696 0.3609 0.65796 0.0
H955 H 0.79851 0.33337 0.65253 0.0
H956 H 0.79813 0.35053 0.59828 0.0
H957 H 0.88398 0.34484 0.71276 0.0
H958 H 0.90091 0.32921 0.67133 0.0
H959 H 0.88179 0.31602 0.71172 0.0
C960 C 0.65364 0.82548 0.78262 0.0
C961 C 0.63898 0.82695 0.82215 0.0
C962 C 0.64914 0.83487 0.73642 0.0
C963 C 0.62952 0.8464 0.72974 0.0
C964 C 0.61428 0.84744 0.76911 0.0
C965 C 0.61917 0.83753 0.81505 0.0
C966 C 0.66575 0.83283 0.6952 0.0
C967 C 0.59336 0.85977 0.76397 0.0
C968 C 0.64402 0.88205 0.62434 0.0
C969 C 0.64029 0.8675 0.58514 0.0
C970 C 0.63678 0.8773 0.67273 0.0
C971 C 0.62597 0.85753 0.6814 0.0
C972 C 0.61837 0.8453 0.6404 0.0
C973 C 0.62564 0.85048 0.59234 0.0
C974 C 0.64385 0.89153 0.71545 0.0
C975 C 0.60581 0.8247 0.6479 0.0
H976 H 0.66886 0.81708 0.78803 0.0
H977 H 0.60789 0.8388 0.8459 0.0
H978 H 0.65824 0.82581 0.6612 0.0
H979 H 0.67211 0.84901 0.68526 0.0
H980 H 0.67964 0.82246 0.70611 0.0
H981 H 0.58077 0.85324 0.7894 0.0
H982 H 0.59622 0.87687 0.7744 0.0
H983 H 0.58711 0.85946 0.7251 0.0
H984 H 0.65464 0.89575 0.6187 0.0
H985 H 0.62188 0.83967 0.56165 0.0
H986 H 0.6589 0.88488 0.73205 0.0
H987 H 0.63134 0.89199 0.74512 0.0
H988 H 0.64719 0.90825 0.70263 0.0
H989 H 0.61725 0.81141 0.65667 0.0
H990 H 0.59667 0.8202 0.61367 0.0
H991 H 0.59436 0.82621 0.6796 0.0
C992 C 0.81442 0.64913 0.60711 0.0
C993 C 0.8342 0.65851 0.59342 0.0
C994 C 0.81142 0.64056 0.65499 0.0
C995 C 0.82864 0.64133 0.68976 0.0
C996 C 0.84926 0.64868 0.67447 0.0
C997 C 0.85179 0.6573 0.6264 0.0
C998 C 0.7892 0.63278 0.66981 0.0
C999 C 0.86811 0.64942 0.71032 0.0
C1000 C 0.81327 0.65593 0.82176 0.0
C1001 C 0.81486 0.63607 0.84649 0.0
C1002 C 0.81762 0.65767 0.77078 0.0
C1003 C 0.8239 0.63908 0.74372 0.0
C1004 C 0.82542 0.61887 0.76817 0.0
C1005 C 0.82075 0.61757 0.8195 0.0
C1006 C 0.81551 0.6795 0.74596 0.0
C1007 C 0.83226 0.59882 0.74034 0.0
H1008 H 0.80083 0.64962 0.58152 0.0
H1009 H 0.86724 0.66412 0.61575 0.0
H1010 H 0.79024 0.61797 0.69292 0.0
H1011 H 0.78114 0.6454 0.69263 0.0
H1012 H 0.77889 0.62941 0.63668 0.0
H1013 H 0.88374 0.65144 0.69046 0.0
H1014 H 0.86602 0.66324 0.73627 0.0
H1015 H 0.86884 0.63451 0.73319 0.0
H1016 H 0.80853 0.67026 0.84231 0.0
H1017 H 0.82207 0.6022 0.83862 0.0
H1018 H 0.80371 0.67862 0.71476 0.0
H1019 H 0.83128 0.68444 0.72992 0.0
H1020 H 0.81012 0.69225 0.77238 0.0
H1021 H 0.82165 0.5962 0.70742 0.0
H1022 H 0.83173 0.58419 0.76432 0.0
H1023 H 0.84897 0.60087 0.7261 0.0
C1024 C 0.33076 0.84468 0.6752 0.0
C1025 C 0.33438 0.85771 0.63352 0.0
C1026 C 0.34328 0.84686 0.71826 0.0
C1027 C 0.36037 0.86216 0.71921 0.0
C1028 C 0.36393 0.87568 0.67731 0.0
C1029 C 0.35054 0.87354 0.63499 0.0
C1030 C 0.3384 0.83234 0.7623 0.0
C1031 C 0.38182 0.89221 0.67649 0.0
C1032 C 0.37054 0.86715 0.85427 0.0
C1033 C 0.38223 0.84796 0.86101 0.0
C1034 C 0.36639 0.87499 0.80616 0.0
C1035 C 0.3741 0.8632 0.76467 0.0
C1036 C 0.38984 0.84689 0.77206 0.0
C1037 C 0.39367 0.83923 0.82066 0.0
C1038 C 0.35062 0.89335 0.79982 0.0
C1039 C 0.39968 0.83505 0.72843 0.0
H1040 H 0.31815 0.83252 0.67384 0.0
H1041 H 0.35336 0.88351 0.60235 0.0
H1042 H 0.3523 0.82145 0.76945 0.0
H1043 H 0.33571 0.84212 0.79647 0.0
H1044 H 0.32384 0.82219 0.75602 0.0
H1045 H 0.3877 0.89495 0.63778 0.0
H1046 H 0.37546 0.9078 0.69066 0.0
H1047 H 0.39571 0.8874 0.70028 0.0
H1048 H 0.36237 0.87444 0.88591 0.0
H1049 H 0.40327 0.82476 0.8259 0.0
H1050 H 0.33426 0.88669 0.79242 0.0
H1051 H 0.3552 0.9036 0.76758 0.0
H1052 H 0.34977 0.90354 0.83395 0.0
H1053 H 0.38837 0.82225 0.71576 0.0
H1054 H 0.4152 0.82726 0.73905 0.0
H1055 H 0.40251 0.84618 0.6966 0.0
C1056 C 0.17791 0.35833 0.58635 0.0
C1057 C 0.15977 0.3452 0.57799 0.0
C1058 C 0.18173 0.36759 0.63326 0.0
C1059 C 0.16706 0.36358 0.67262 0.0
C1060 C 0.1475 0.35244 0.66284 0.0
C1061 C 0.14408 0.34332 0.61547 0.0
C1062 C 0.20264 0.37961 0.64194 0.0
C1063 C 0.13126 0.3482 0.70372 0.0
C1064 C 0.19172 0.35088 0.7981 0.0
C1065 C 0.18733 0.36962 0.82556 0.0
C1066 C 0.18549 0.34902 0.74816 0.0
C1067 C 0.17442 0.36633 0.72497 0.0
C1068 C 0.17048 0.38563 0.75189 0.0
C1069 C 0.1771 0.38709 0.80213 0.0
C1070 C 0.19041 0.32828 0.72057 0.0
C1071 C 0.15867 0.40435 0.72831 0.0
H1072 H 0.18987 0.36033 0.55713 0.0
H1073 H 0.12983 0.33351 0.60901 0.0
H1074 H 0.20005 0.39384 0.66636 0.0
H1075 H 0.2143 0.36878 0.66109 0.0
H1076 H 0.21002 0.38507 0.60628 0.0
H1077 H 0.11535 0.34317 0.68836 0.0
H1078 H 0.13737 0.3351 0.72825 0.0
H1079 H 0.12897 0.36277 0.72724 0.0
H1080 H 0.19987 0.33743 0.81594 0.0
H1081 H 0.1736 0.40156 0.82346 0.0
H1082 H 0.19995 0.33175 0.68643 0.0
H1083 H 0.17512 0.32046 0.70859 0.0
H1084 H 0.19963 0.31662 0.74387 0.0
H1085 H 0.16534 0.40797 0.69077 0.0
H1086 H 0.15957 0.41915 0.75168 0.0
H1087 H 0.1414 0.40002 0.72322 0.0
C1088 C 0.63451 0.13029 0.93779 0.0
C1089 C 0.62213 0.14912 0.94348 0.0
C1090 C 0.63931 0.12231 0.8901 0.0
C1091 C 0.63154 0.13356 0.8478 0.0
C1092 C 0.61546 0.14963 0.85396 0.0
C1093 C 0.61095 0.15738 0.90215 0.0
C1094 C 0.65563 0.10435 0.88516 0.0
C1095 C 0.60579 0.16108 0.80956 0.0
C1096 C 0.67411 0.15144 0.75596 0.0
C1097 C 0.66978 0.13847 0.71444 0.0
C1098 C 0.66217 0.14934 0.79989 0.0
C1099 C 0.64513 0.13404 0.80214 0.0
C1100 C 0.64119 0.12025 0.76087 0.0
C1101 C 0.65373 0.12255 0.71731 0.0
C1102 C 0.66744 0.16411 0.8433 0.0
C1103 C 0.62311 0.10392 0.76129 0.0
H1104 H 0.64256 0.12334 0.97003 0.0
H1105 H 0.60086 0.17157 0.90646 0.0
H1106 H 0.65217 0.09418 0.85195 0.0
H1107 H 0.67198 0.11144 0.88041 0.0
H1108 H 0.65586 0.09397 0.91901 0.0
H1109 H 0.59032 0.16915 0.81944 0.0
H1110 H 0.61726 0.17359 0.79622 0.0
H1111 H 0.60287 0.14963 0.77838 0.0
H1112 H 0.68665 0.16363 0.75367 0.0
H1113 H 0.65025 0.11269 0.68479 0.0
H1114 H 0.67061 0.1545 0.87751 0.0
H1115 H 0.65351 0.17489 0.85105 0.0
H1116 H 0.68183 0.17436 0.83595 0.0
H1117 H 0.62022 0.09735 0.79926 0.0
H1118 H 0.62654 0.09033 0.73537 0.0
H1119 H 0.608 0.11188 0.74859 0.0
C1120 C 0.86394 0.3016 0.26327 0.0
C1121 C 0.87807 0.30758 0.30163 0.0
C1122 C 0.86459 0.31173 0.21684 0.0
C1123 C 0.87978 0.32848 0.20848 0.0
C1124 C 0.89499 0.33382 0.2462 0.0
C1125 C 0.89408 0.32308 0.2926 0.0
C1126 C 0.84819 0.30513 0.17767 0.0
C1127 C 0.9118 0.35109 0.2381 0.0
C1128 C 0.87634 0.33553 0.0714 0.0
C1129 C 0.85802 0.34883 0.06914 0.0
C1130 C 0.88672 0.33159 0.11705 0.0
C1131 C 0.87814 0.34081 0.16108 0.0
C1132 C 0.8622 0.35719 0.15737 0.0
C1133 C 0.85227 0.36108 0.11105 0.0
C1134 C 0.90445 0.3149 0.11906 0.0
C1135 C 0.85312 0.368 0.20331 0.0
H1136 H 0.85175 0.28939 0.27031 0.0
H1137 H 0.90501 0.32763 0.3225 0.0
H1138 H 0.83751 0.31898 0.16857 0.0
H1139 H 0.85651 0.30018 0.1428 0.0
H1140 H 0.83786 0.29151 0.19017 0.0
H1141 H 0.91969 0.35602 0.27366 0.0
H1142 H 0.92446 0.34487 0.21256 0.0
H1143 H 0.9046 0.36556 0.22023 0.0
H1144 H 0.88129 0.32657 0.03849 0.0
H1145 H 0.83839 0.37175 0.10919 0.0
H1146 H 0.89732 0.29893 0.12795 0.0
H1147 H 0.9164 0.31884 0.14864 0.0
H1148 H 0.91295 0.31358 0.08262 0.0
H1149 H 0.84108 0.35712 0.22095 0.0
H1150 H 0.8449 0.38342 0.19384 0.0
H1151 H 0.86602 0.37125 0.23116 0.0
C1152 C 0.64196 0.84535 0.11633 0.0
C1153 C 0.65835 0.84619 0.08026 0.0
C1154 C 0.64498 0.85465 0.16359 0.0
C1155 C 0.66485 0.86492 0.17476 0.0
C1156 C 0.68025 0.86816 0.13652 0.0
C1157 C 0.67685 0.85869 0.08962 0.0
C1158 C 0.62794 0.85127 0.20316 0.0
C1159 C 0.70142 0.87947 0.14664 0.0
C1160 C 0.6726 0.88643 0.30687 0.0
C1161 C 0.68129 0.86816 0.33037 0.0
C1162 C 0.66764 0.88606 0.25552 0.0
C1163 C 0.67161 0.86701 0.22768 0.0
C1164 C 0.68137 0.84897 0.251 0.0
C1165 C 0.68604 0.84979 0.30195 0.0
C1166 C 0.65734 0.90561 0.23183 0.0
C1167 C 0.68624 0.82841 0.22259 0.0
H1168 H 0.62739 0.83615 0.10902 0.0
H1169 H 0.68937 0.85993 0.06145 0.0
H1170 H 0.63313 0.83807 0.22852 0.0
H1171 H 0.62586 0.86604 0.22609 0.0
H1172 H 0.61208 0.84679 0.1866 0.0
H1173 H 0.70931 0.88484 0.1115 0.0
H1174 H 0.69902 0.89368 0.17129 0.0
H1175 H 0.71255 0.8682 0.16609 0.0
H1176 H 0.6689 0.90066 0.32888 0.0
H1177 H 0.6931 0.83575 0.31985 0.0
H1178 H 0.63973 0.90276 0.22761 0.0
H1179 H 0.66403 0.90861 0.194 0.0
H1180 H 0.65964 0.92032 0.25502 0.0
H1181 H 0.67099 0.82123 0.20842 0.0
H1182 H 0.69458 0.81619 0.24609 0.0
H1183 H 0.69661 0.83196 0.18981 0.0
C1184 C 0.13529 0.63341 0.38935 0.0
C1185 C 0.12122 0.65103 0.39469 0.0
C1186 C 0.1405 0.62548 0.34185 0.0
C1187 C 0.13143 0.63557 0.29938 0.0
C1188 C 0.11396 0.65012 0.30544 0.0
C1189 C 0.10904 0.65784 0.35343 0.0
C1190 C 0.15838 0.60905 0.33708 0.0
C1191 C 0.10297 0.66024 0.26092 0.0
C1192 C 0.17128 0.65671 0.20486 0.0
C1193 C 0.16765 0.64325 0.16381 0.0
C1194 C 0.16012 0.6537 0.24958 0.0
C1195 C 0.14459 0.63692 0.25315 0.0
C1196 C 0.14152 0.6226 0.21245 0.0
C1197 C 0.15325 0.62589 0.16804 0.0
C1198 C 0.16446 0.66911 0.29235 0.0
C1199 C 0.12511 0.60462 0.21439 0.0
H1200 H 0.14414 0.6275 0.42158 0.0
H1201 H 0.09766 0.67103 0.3575 0.0
H1202 H 0.1557 0.59837 0.30436 0.0
H1203 H 0.17398 0.61758 0.33158 0.0
H1204 H 0.15974 0.59899 0.3713 0.0
H1205 H 0.08691 0.66699 0.27107 0.0
H1206 H 0.11317 0.6736 0.2465 0.0
H1207 H 0.10087 0.64828 0.23043 0.0
H1208 H 0.18258 0.67002 0.20153 0.0
H1209 H 0.15031 0.61561 0.13593 0.0
H1210 H 0.16887 0.66 0.32656 0.0
H1211 H 0.14968 0.67859 0.30069 0.0
H1212 H 0.17775 0.6806 0.28392 0.0
H1213 H 0.1232 0.59809 0.25273 0.0
H1214 H 0.12961 0.59124 0.18878 0.0
H1215 H 0.10919 0.61098 0.20215 0.0
C1216 C 0.32509 0.12012 0.31958 0.0
C1217 C 0.31763 0.1381 0.34637 0.0
C1218 C 0.33091 0.12205 0.26895 0.0
C1219 C 0.32893 0.14233 0.24498 0.0
C1220 C 0.32104 0.16037 0.27179 0.0
C1221 C 0.31558 0.15802 0.32207 0.0
C1222 C 0.33942 0.10258 0.24137 0.0
C1223 C 0.31835 0.18224 0.24746 0.0
C1224 C 0.35801 0.16255 0.13073 0.0
C1225 C 0.34103 0.16289 0.09599 0.0
C1226 C 0.35502 0.1537 0.17848 0.0
C1227 C 0.33456 0.14517 0.19158 0.0
C1228 C 0.31807 0.14365 0.15513 0.0
C1229 C 0.32152 0.1525 0.1077 0.0
C1230 C 0.37311 0.15529 0.21621 0.0
C1231 C 0.29602 0.13466 0.16757 0.0
H1232 H 0.32679 0.10472 0.33837 0.0
H1233 H 0.30963 0.17194 0.34242 0.0
H1234 H 0.3296 0.09954 0.20738 0.0
H1235 H 0.35623 0.10568 0.22884 0.0
H1236 H 0.33932 0.08782 0.26493 0.0
H1237 H 0.3118 0.19453 0.27364 0.0
H1238 H 0.33416 0.18805 0.23329 0.0
H1239 H 0.30724 0.18099 0.21498 0.0
H1240 H 0.37326 0.17022 0.12167 0.0
H1241 H 0.30842 0.15228 0.08073 0.0
H1242 H 0.37424 0.14032 0.23879 0.0
H1243 H 0.36977 0.16884 0.24223 0.0
H1244 H 0.38896 0.15828 0.198 0.0
H1245 H 0.29743 0.11974 0.19019 0.0
H1246 H 0.28645 0.13104 0.13341 0.0
H1247 H 0.28696 0.14667 0.19014 0.0
loop_
_geom_bond_atom_site_label_1
_geom_bond_atom_site_label_2
_geom_bond_distance
_geom_bond_site_symmetry_2
_ccdc_geom_bond_type
Zn0 O3 2.031 1_554 S
Zn0 O5 2.049 . S
Zn0 O10 2.067 . S
Zn1 O2 1.962 . S
Zn1 O4 1.986 1_556 S
Zn1 O6 1.996 1_556 S
Zn1 O9 1.942 1_556 S
O2 Zn1 1.962 . S
O2 C7 1.254 . S
O3 Zn0 2.031 1_556 S
O3 C7 1.269 . S
O4 Zn1 1.986 1_554 S
O4 C11 1.262 1_554 S
O5 Zn0 2.049 . S
O5 C13 1.260 . S
O6 Zn1 1.996 1_554 S
O6 C13 1.257 . S
C7 O2 1.254 . S
C7 O3 1.269 . S
C8 O9 1.250 . S
C8 O10 1.270 . S
O9 Zn1 1.942 1_554 S
O9 C8 1.250 . S
O10 Zn0 2.067 . S
O10 C8 1.270 . S
C11 O4 1.262 1_556 S
C11 O12 1.232 . S
O12 C11 1.232 . S
C13 O5 1.260 . S
C13 O6 1.257 . S
Zn14 O17 2.031 1_554 S
Zn14 O19 2.049 . S
Zn14 O24 2.067 . S
Zn15 O16 1.962 . S
Zn15 O18 1.986 1_556 S
Zn15 O20 1.996 1_556 S
Zn15 O23 1.942 1_556 S
O16 Zn15 1.962 . S
O16 C21 1.254 . S
O17 Zn14 2.031 1_556 S
O17 C21 1.269 . S
O18 Zn15 1.986 1_554 S
O18 C25 1.262 1_554 S
O19 Zn14 2.049 . S
O19 C27 1.260 . S
O20 Zn15 1.996 1_554 S
O20 C27 1.257 . S
C21 O16 1.254 . S
C21 O17 1.269 . S
C22 O23 1.250 . S
C22 O24 1.270 . S
O23 Zn15 1.942 1_554 S
O23 C22 1.250 . S
O24 Zn14 2.067 . S
O24 C22 1.270 . S
C25 O18 1.262 1_556 S
C25 O26 1.232 . S
O26 C25 1.232 . S
C27 O19 1.260 . S
C27 O20 1.257 . S
Zn28 O31 2.031 1_554 S
Zn28 O33 2.049 . S
Zn28 O38 2.067 . S
Zn29 O30 1.962 . S
Zn29 O32 1.986 1_556 S
Zn29 O34 1.996 1_556 S
Zn29 O37 1.942 1_556 S
O30 Zn29 1.962 . S
O30 C35 1.254 . S
O31 Zn28 2.031 1_556 S
O31 C35 1.269 . S
O32 Zn29 1.986 1_554 S
O32 C39 1.262 1_554 S
O33 Zn28 2.049 . S
O33 C41 1.260 . S
O34 Zn29 1.996 1_554 S
O34 C41 1.257 . S
C35 O30 1.254 . S
C35 O31 1.269 . S
C36 O37 1.250 . S
C36 O38 1.270 . S
O37 Zn29 1.942 1_554 S
O37 C36 1.250 . S
O38 Zn28 2.067 . S
O38 C36 1.270 . S
C39 O32 1.262 1_556 S
C39 O40 1.232 . S
O40 C39 1.232 . S
C41 O33 1.260 . S
C41 O34 1.257 . S
Zn42 O45 2.031 1_554 S
Zn42 O47 2.049 . S
Zn42 O52 2.067 . S
Zn43 O44 1.962 . S
Zn43 O46 1.986 1_556 S
Zn43 O48 1.996 1_556 S
Zn43 O51 1.942 1_556 S
O44 Zn43 1.962 . S
O44 C49 1.254 . S
O45 Zn42 2.031 1_556 S
O45 C49 1.269 . S
O46 Zn43 1.986 1_554 S
O46 C53 1.262 1_554 S
O47 Zn42 2.049 . S
O47 C55 1.260 . S
O48 Zn43 1.996 1_554 S
O48 C55 1.257 . S
C49 O44 1.254 . S
C49 O45 1.269 . S
C50 O51 1.250 . S
C50 O52 1.270 . S
O51 Zn43 1.942 1_554 S
O51 C50 1.250 . S
O52 Zn42 2.067 . S
O52 C50 1.270 . S
C53 O46 1.262 1_556 S
C53 O54 1.232 . S
O54 C53 1.232 . S
C55 O47 1.260 . S
C55 O48 1.257 . S
Zn56 O59 2.031 1_556 S
Zn56 O61 2.049 . S
Zn56 O66 2.067 . S
Zn57 O58 1.962 . S
Zn57 O60 1.986 1_554 S
Zn57 O62 1.996 1_554 S
Zn57 O65 1.943 . S
O58 Zn57 1.962 . S
O58 C63 1.254 . S
O59 Zn56 2.031 1_554 S
O59 C63 1.269 . S
O60 Zn57 1.986 1_556 S
O60 C67 1.262 1_556 S
O61 Zn56 2.049 . S
O61 C69 1.260 . S
O62 Zn57 1.996 1_556 S
O62 C69 1.257 . S
C63 O58 1.254 . S
C63 O59 1.269 . S
C64 O65 1.248 1_556 S
C64 O66 1.270 . S
O65 Zn57 1.943 . S
O65 C64 1.248 1_554 S
O66 Zn56 2.067 . S
O66 C64 1.270 . S
C67 O60 1.262 1_554 S
C67 O68 1.232 . S
O68 C67 1.232 . S
C69 O61 1.260 . S
C69 O62 1.257 . S
Zn70 O73 2.031 1_556 S
Zn70 O75 2.049 . S
Zn70 O80 2.067 . S
Zn71 O72 1.962 . S
Zn71 O74 1.986 1_554 S
Zn71 O76 1.996 1_554 S
Zn71 O79 1.943 . S
O72 Zn71 1.962 . S
O72 C77 1.254 . S
O73 Zn70 2.031 1_554 S
O73 C77 1.269 . S
O74 Zn71 1.986 1_556 S
O74 C81 1.262 1_556 S
O75 Zn70 2.049 . S
O75 C83 1.260 . S
O76 Zn71 1.996 1_556 S
O76 C83 1.257 . S
C77 O72 1.254 . S
C77 O73 1.269 . S
C78 O79 1.248 1_556 S
C78 O80 1.270 . S
O79 Zn71 1.943 . S
O79 C78 1.248 1_554 S
O80 Zn70 2.067 . S
O80 C78 1.270 . S
C81 O74 1.262 1_554 S
C81 O82 1.232 . S
O82 C81 1.232 . S
C83 O75 1.260 . S
C83 O76 1.257 . S
Zn84 O87 2.031 1_556 S
Zn84 O89 2.049 . S
Zn84 O94 2.067 . S
Zn85 O86 1.962 . S
Zn85 O88 1.986 1_554 S
Zn85 O90 1.996 1_554 S
Zn85 O93 1.943 . S
O86 Zn85 1.962 . S
O86 C91 1.254 . S
O87 Zn84 2.031 1_554 S
O87 C91 1.269 . S
O88 Zn85 1.986 1_556 S
O88 C95 1.262 1_556 S
O89 Zn84 2.049 . S
O89 C97 1.260 . S
O90 Zn85 1.996 1_556 S
O90 C97 1.257 . S
C91 O86 1.254 . S
C91 O87 1.269 . S
C92 O93 1.248 1_556 S
C92 O94 1.270 . S
O93 Zn85 1.943 . S
O93 C92 1.248 1_554 S
O94 Zn84 2.067 . S
O94 C92 1.270 . S
C95 O88 1.262 1_554 S
C95 O96 1.232 . S
O96 C95 1.232 . S
C97 O89 1.260 . S
C97 O90 1.257 . S
Zn98 O101 2.031 1_556 S
Zn98 O103 2.049 . S
Zn98 O108 2.067 . S
Zn99 O100 1.962 . S
Zn99 O102 1.986 1_554 S
Zn99 O104 1.996 1_554 S
Zn99 O107 1.943 . S
O100 Zn99 1.962 . S
O100 C105 1.254 . S
O101 Zn98 2.031 1_554 S
O101 C105 1.269 . S
O102 Zn99 1.986 1_556 S
O102 C109 1.262 1_556 S
O103 Zn98 2.049 . S
O103 C111 1.260 . S
O104 Zn99 1.996 1_556 S
O104 C111 1.257 . S
C105 O100 1.254 . S
C105 O101 1.269 . S
C106 O107 1.248 1_556 S
C106 O108 1.270 . S
O107 Zn99 1.943 . S
O107 C106 1.248 1_554 S
O108 Zn98 2.067 . S
O108 C106 1.270 . S
C109 O102 1.262 1_554 S
C109 O110 1.232 . S
O110 C109 1.232 . S
C111 O103 1.260 . S
C111 O104 1.257 . S
Zn112 O115 2.031 . S
Zn112 O117 2.049 . S
Zn112 O122 2.067 . S
Zn113 O114 1.962 . S
Zn113 O116 1.986 . S
Zn113 O118 1.996 . S
Zn113 O121 1.943 . S
O114 Zn113 1.962 . S
O114 C119 1.254 . S
O115 Zn112 2.031 . S
O115 C119 1.269 . S
O116 Zn113 1.986 . S
O116 C123 1.262 . S
O117 Zn112 2.049 . S
O117 C125 1.260 . S
O118 Zn113 1.996 . S
O118 C125 1.257 . S
C119 O114 1.254 . S
C119 O115 1.269 . S
C120 O121 1.249 . S
C120 O122 1.270 . S
O121 Zn113 1.943 . S
O121 C120 1.249 . S
O122 Zn112 2.067 . S
O122 C120 1.270 . S
C123 O116 1.262 . S
C123 O124 1.232 . S
O124 C123 1.232 . S
C125 O117 1.260 . S
C125 O118 1.257 . S
Zn126 O129 2.031 . S
Zn126 O131 2.049 . S
Zn126 O136 2.067 . S
Zn127 O128 1.962 . S
Zn127 O130 1.986 . S
Zn127 O132 1.996 . S
Zn127 O135 1.943 . S
O128 Zn127 1.962 . S
O128 C133 1.254 . S
O129 Zn126 2.031 . S
O129 C133 1.269 . S
O130 Zn127 1.986 . S
O130 C137 1.262 . S
O131 Zn126 2.049 . S
O131 C139 1.260 . S
O132 Zn127 1.996 . S
O132 C139 1.257 . S
C133 O128 1.254 . S
C133 O129 1.269 . S
C134 O135 1.249 . S
C134 O136 1.270 . S
O135 Zn127 1.943 . S
O135 C134 1.249 . S
O136 Zn126 2.067 . S
O136 C134 1.270 . S
C137 O130 1.262 . S
C137 O138 1.232 . S
O138 C137 1.232 . S
C139 O131 1.260 . S
C139 O132 1.257 . S
Zn140 O143 2.031 . S
Zn140 O145 2.049 . S
Zn140 O150 2.067 . S
Zn141 O142 1.962 . S
Zn141 O144 1.986 . S
Zn141 O146 1.996 . S
Zn141 O149 1.943 . S
O142 Zn141 1.962 . S
O142 C147 1.254 . S
O143 Zn140 2.031 . S
O143 C147 1.269 . S
O144 Zn141 1.986 . S
O144 C151 1.262 . S
O145 Zn140 2.049 . S
O145 C153 1.260 . S
O146 Zn141 1.996 . S
O146 C153 1.257 . S
C147 O142 1.254 . S
C147 O143 1.269 . S
C148 O149 1.249 . S
C148 O150 1.270 . S
O149 Zn141 1.943 . S
O149 C148 1.249 . S
O150 Zn140 2.067 . S
O150 C148 1.270 . S
C151 O144 1.262 . S
C151 O152 1.232 . S
O152 C151 1.232 . S
C153 O145 1.260 . S
C153 O146 1.257 . S
Zn154 O157 2.031 . S
Zn154 O159 2.049 . S
Zn154 O164 2.067 . S
Zn155 O156 1.962 . S
Zn155 O158 1.986 . S
Zn155 O160 1.996 . S
Zn155 O163 1.943 . S
O156 Zn155 1.962 . S
O156 C161 1.254 . S
O157 Zn154 2.031 . S
O157 C161 1.269 . S
O158 Zn155 1.986 . S
O158 C165 1.262 . S
O159 Zn154 2.049 . S
O159 C167 1.260 . S
O160 Zn155 1.996 . S
O160 C167 1.257 . S
C161 O156 1.254 . S
C161 O157 1.269 . S
C162 O163 1.249 . S
C162 O164 1.270 . S
O163 Zn155 1.943 . S
O163 C162 1.249 . S
O164 Zn154 2.067 . S
O164 C162 1.270 . S
C165 O158 1.262 . S
C165 O166 1.232 . S
O166 C165 1.232 . S
C167 O159 1.260 . S
C167 O160 1.257 . S
Zn168 O171 2.031 . S
Zn168 O173 2.049 . S
Zn168 O178 2.067 . S
Zn169 O170 1.962 . S
Zn169 O172 1.986 . S
Zn169 O174 1.996 . S
Zn169 O177 1.943 . S
O170 Zn169 1.962 . S
O170 C175 1.254 . S
O171 Zn168 2.031 . S
O171 C175 1.269 . S
O172 Zn169 1.986 . S
O172 C179 1.262 . S
O173 Zn168 2.049 . S
O173 C181 1.260 . S
O174 Zn169 1.996 . S
O174 C181 1.257 . S
C175 O170 1.254 . S
C175 O171 1.269 . S
C176 O177 1.249 . S
C176 O178 1.270 . S
O177 Zn169 1.943 . S
O177 C176 1.249 . S
O178 Zn168 2.067 . S
O178 C176 1.270 . S
C179 O172 1.262 . S
C179 O180 1.232 . S
O180 C179 1.232 . S
C181 O173 1.260 . S
C181 O174 1.257 . S
Zn182 O185 2.031 . S
Zn182 O187 2.049 . S
Zn182 O192 2.067 . S
Zn183 O184 1.962 . S
Zn183 O186 1.986 . S
Zn183 O188 1.996 . S
Zn183 O191 1.943 . S
O184 Zn183 1.962 . S
O184 C189 1.254 . S
O185 Zn182 2.031 . S
O185 C189 1.269 . S
O186 Zn183 1.986 . S
O186 C193 1.262 . S
O187 Zn182 2.049 . S
O187 C195 1.260 . S
O188 Zn183 1.996 . S
O188 C195 1.257 . S
C189 O184 1.254 . S
C189 O185 1.269 . S
C190 O191 1.249 . S
C190 O192 1.270 . S
O191 Zn183 1.943 . S
O191 C190 1.249 . S
O192 Zn182 2.067 . S
O192 C190 1.270 . S
C193 O186 1.262 . S
C193 O194 1.232 . S
O194 C193 1.232 . S
C195 O187 1.260 . S
C195 O188 1.257 . S
Zn196 O199 2.031 . S
Zn196 O201 2.049 . S
Zn196 O206 2.067 . S
Zn197 O198 1.962 . S
Zn197 O200 1.986 . S
Zn197 O202 1.996 . S
Zn197 O205 1.943 . S
O198 Zn197 1.962 . S
O198 C203 1.254 . S
O199 Zn196 2.031 . S
O199 C203 1.269 . S
O200 Zn197 1.986 . S
O200 C207 1.262 . S
O201 Zn196 2.049 . S
O201 C209 1.260 . S
O202 Zn197 1.996 . S
O202 C209 1.257 . S
C203 O198 1.254 . S
C203 O199 1.269 . S
C204 O205 1.249 . S
C204 O206 1.270 . S
O205 Zn197 1.943 . S
O205 C204 1.249 . S
O206 Zn196 2.067 . S
O206 C204 1.270 . S
C207 O200 1.262 . S
C207 O208 1.232 . S
O208 C207 1.232 . S
C209 O201 1.260 . S
C209 O202 1.257 . S
Zn210 O213 2.031 . S
Zn210 O215 2.049 . S
Zn210 O220 2.067 . S
Zn211 O212 1.962 . S
Zn211 O214 1.986 . S
Zn211 O216 1.996 . S
Zn211 O219 1.943 . S
O212 Zn211 1.962 . S
O212 C217 1.254 . S
O213 Zn210 2.031 . S
O213 C217 1.269 . S
O214 Zn211 1.986 . S
O214 C221 1.262 . S
O215 Zn210 2.049 . S
O215 C223 1.260 . S
O216 Zn211 1.996 . S
O216 C223 1.257 . S
C217 O212 1.254 . S
C217 O213 1.269 . S
C218 O219 1.249 . S
C218 O220 1.270 . S
O219 Zn211 1.943 . S
O219 C218 1.249 . S
O220 Zn210 2.067 . S
O220 C218 1.270 . S
C221 O214 1.262 . S
C221 O222 1.232 . S
O222 C221 1.232 . S
C223 O215 1.260 . S
C223 O216 1.257 . S
C224 C225 1.389 1_554 S
C224 C226 1.393 1_554 S
C224 H240 0.934 . S
C225 C224 1.389 1_556 S
C225 C229 1.376 . S
C226 C224 1.393 1_556 S
C226 C227 1.369 . S
C226 C230 1.531 1_556 S
C227 C226 1.369 . S
C227 C228 1.410 . S
C227 C235 1.503 . S
C228 C227 1.410 . S
C228 C229 1.392 . S
C228 C231 1.511 . S
C229 C225 1.376 . S
C229 C228 1.392 . S
C229 H241 0.929 . S
C230 C226 1.531 1_554 S
C230 H242 0.960 1_554 S
C230 H243 0.962 . S
C230 H244 0.960 1_554 S
C231 C228 1.511 . S
C231 H245 0.961 . S
C231 H246 0.961 . S
C231 H247 0.961 . S
C232 C233 1.385 . S
C232 C234 1.363 . S
C232 H248 0.931 . S
C233 C232 1.385 . S
C233 C237 1.391 1_554 S
C234 C232 1.363 . S
C234 C235 1.370 1_554 S
C234 C238 1.524 . S
C235 C227 1.503 . S
C235 C234 1.370 1_556 S
C235 C236 1.403 . S
C236 C235 1.403 . S
C236 C237 1.404 . S
C236 C239 1.539 . S
C237 C233 1.391 1_556 S
C237 C236 1.404 . S
C237 H249 0.930 . S
C238 C234 1.524 . S
C238 H250 0.956 . S
C238 H251 0.961 . S
C238 H252 0.961 . S
C239 C236 1.539 . S
C239 H253 0.958 . S
C239 H254 0.961 . S
C239 H255 0.960 . S
H240 C224 0.934 . S
H241 C229 0.929 . S
H242 C230 0.960 1_556 S
H243 C230 0.962 . S
H244 C230 0.960 1_556 S
H245 C231 0.961 . S
H246 C231 0.961 . S
H247 C231 0.961 . S
H248 C232 0.931 . S
H249 C237 0.930 . S
H250 C238 0.956 . S
H251 C238 0.961 . S
H252 C238 0.961 . S
H253 C239 0.958 . S
H254 C239 0.961 . S
H255 C239 0.960 . S
C256 C257 1.392 . S
C256 C258 1.394 . S
C256 H272 0.931 . S
C257 C256 1.392 . S
C257 C261 1.374 1_554 S
C258 C256 1.394 . S
C258 C259 1.369 . S
C258 C262 1.531 . S
C259 C258 1.369 . S
C259 C260 1.410 1_554 S
C259 C267 1.503 . S
C260 C259 1.410 1_556 S
C260 C261 1.392 . S
C260 C263 1.511 . S
C261 C257 1.374 1_556 S
C261 C260 1.392 . S
C261 H273 0.929 . S
C262 C258 1.531 . S
C262 H274 0.960 . S
C262 H275 0.962 . S
C262 H276 0.960 . S
C263 C260 1.511 . S
C263 H277 0.961 . S
C263 H278 0.961 . S
C263 H279 0.961 . S
C264 C265 1.370 1_556 S
C264 C266 1.363 . S
C264 H280 0.931 . S
C265 C264 1.370 1_554 S
C265 C269 1.408 . S
C266 C264 1.363 . S
C266 C267 1.370 1_556 S
C266 C270 1.524 . S
C267 C259 1.503 . S
C267 C266 1.370 1_554 S
C267 C268 1.403 . S
C268 C267 1.403 . S
C268 C269 1.404 . S
C268 C271 1.539 . S
C269 C265 1.408 . S
C269 C268 1.404 . S
C269 H281 0.930 . S
C270 C266 1.524 . S
C270 H282 0.956 . S
C270 H283 0.961 . S
C270 H284 0.961 . S
C271 C268 1.539 . S
C271 H285 0.958 . S
C271 H286 0.961 . S
C271 H287 0.960 . S
H272 C256 0.931 . S
H273 C261 0.929 . S
H274 C262 0.960 . S
H275 C262 0.962 . S
H276 C262 0.960 . S
H277 C263 0.961 . S
H278 C263 0.961 . S
H279 C263 0.961 . S
H280 C264 0.931 . S
H281 C269 0.930 . S
H282 C270 0.956 . S
H283 C270 0.961 . S
H284 C270 0.961 . S
H285 C271 0.958 . S
H286 C271 0.961 . S
H287 C271 0.960 . S
C288 C289 1.391 1_556 S
C288 C290 1.394 . S
C288 H304 0.931 . S
C289 C288 1.391 1_554 S
C289 C293 1.376 . S
C290 C288 1.394 . S
C290 C291 1.369 1_556 S
C290 C294 1.531 . S
C291 C290 1.369 1_554 S
C291 C292 1.410 . S
C291 C299 1.503 . S
C292 C291 1.410 . S
C292 C293 1.392 . S
C292 C295 1.511 . S
C293 C289 1.376 . S
C293 C292 1.392 . S
C293 H305 0.929 . S
C294 C290 1.531 . S
C294 H306 0.960 . S
C294 H307 0.962 . S
C294 H308 0.960 . S
C295 C292 1.511 . S
C295 H309 0.961 . S
C295 H310 0.961 . S
C295 H311 0.961 . S
C296 C297 1.370 1_556 S
C296 C298 1.363 . S
C296 H312 0.931 . S
C297 C296 1.370 1_554 S
C297 C301 1.408 . S
C298 C296 1.363 . S
C298 C299 1.370 1_556 S
C298 C302 1.524 . S
C299 C291 1.503 . S
C299 C298 1.370 1_554 S
C299 C300 1.403 . S
C300 C299 1.403 . S
C300 C301 1.404 . S
C300 C303 1.539 . S
C301 C297 1.408 . S
C301 C300 1.404 . S
C301 H313 0.930 . S
C302 C298 1.524 . S
C302 H314 0.956 . S
C302 H315 0.961 . S
C302 H316 0.961 . S
C303 C300 1.539 . S
C303 H317 0.958 . S
C303 H318 0.961 . S
C303 H319 0.960 . S
H304 C288 0.931 . S
H305 C293 0.929 . S
H306 C294 0.960 . S
H307 C294 0.962 . S
H308 C294 0.960 . S
H309 C295 0.961 . S
H310 C295 0.961 . S
H311 C295 0.961 . S
H312 C296 0.931 . S
H313 C301 0.930 . S
H314 C302 0.956 . S
H315 C302 0.961 . S
H316 C302 0.961 . S
H317 C303 0.958 . S
H318 C303 0.961 . S
H319 C303 0.960 . S
C320 C321 1.391 . S
C320 C322 1.394 . S
C320 H336 0.931 . S
C321 C320 1.391 . S
C321 C325 1.376 1_556 S
C322 C320 1.394 . S
C322 C323 1.369 . S
C322 C326 1.531 . S
C323 C322 1.369 . S
C323 C324 1.410 1_556 S
C323 C331 1.503 . S
C324 C323 1.410 1_554 S
C324 C325 1.392 . S
C324 C327 1.511 . S
C325 C321 1.376 1_554 S
C325 C324 1.392 . S
C325 H337 0.929 . S
C326 C322 1.531 . S
C326 H338 0.960 . S
C326 H339 0.962 . S
C326 H340 0.960 . S
C327 C324 1.511 . S
C327 H341 0.961 . S
C327 H342 0.961 . S
C327 H343 0.961 . S
C328 C329 1.370 . S
C328 C330 1.363 . S
C328 H344 0.931 . S
C329 C328 1.370 . S
C329 C333 1.408 1_554 S
C330 C328 1.363 . S
C330 C331 1.370 1_554 S
C330 C334 1.524 . S
C331 C323 1.503 . S
C331 C330 1.370 1_556 S
C331 C332 1.403 . S
C332 C331 1.403 . S
C332 C333 1.404 . S
C332 C335 1.539 . S
C333 C329 1.408 1_556 S
C333 C332 1.404 . S
C333 H345 0.930 . S
C334 C330 1.524 . S
C334 H346 0.956 . S
C334 H347 0.961 . S
C334 H348 0.961 . S
C335 C332 1.539 . S
C335 H349 0.958 . S
C335 H350 0.961 . S
C335 H351 0.960 . S
H336 C320 0.931 . S
H337 C325 0.929 . S
H338 C326 0.960 . S
H339 C326 0.962 . S
H340 C326 0.960 . S
H341 C327 0.961 . S
H342 C327 0.961 . S
H343 C327 0.961 . S
H344 C328 0.931 . S
H345 C333 0.930 . S
H346 C334 0.956 . S
H347 C334 0.961 . S
H348 C334 0.961 . S
H349 C335 0.958 . S
H350 C335 0.961 . S
H351 C335 0.960 . S
C352 C353 1.391 . S
C352 C354 1.394 . S
C352 H368 0.931 . S
C353 C352 1.391 . S
C353 C357 1.376 . S
C354 C352 1.394 . S
C354 C355 1.369 . S
C354 C358 1.531 . S
C355 C354 1.369 . S
C355 C356 1.410 . S
C355 C363 1.503 1_545 S
C356 C355 1.410 . S
C356 C357 1.392 . S
C356 C359 1.511 . S
C357 C353 1.376 . S
C357 C356 1.392 . S
C357 H369 0.929 . S
C358 C354 1.531 . S
C358 H370 0.960 1_545 S
C358 H371 0.962 . S
C358 H372 0.960 . S
C359 C356 1.511 . S
C359 H373 0.961 . S
C359 H374 0.961 1_545 S
C359 H375 0.961 . S
C360 C361 1.370 . S
C360 C362 1.363 . S
C360 H376 0.931 . S
C361 C360 1.370 . S
C361 C365 1.408 . S
C362 C360 1.363 . S
C362 C363 1.370 . S
C362 C366 1.524 . S
C363 C355 1.503 1_565 S
C363 C362 1.370 . S
C363 C364 1.403 . S
C364 C363 1.403 . S
C364 C365 1.404 . S
C364 C367 1.539 . S
C365 C361 1.408 . S
C365 C364 1.404 . S
C365 H377 0.930 . S
C366 C362 1.524 . S
C366 H378 0.969 . S
C366 H379 0.961 1_565 S
C366 H380 0.961 . S
C367 C364 1.539 . S
C367 H381 0.958 . S
C367 H382 0.961 . S
C367 H383 1.001 . S
H368 C352 0.931 . S
H369 C357 0.929 . S
H370 C358 0.960 1_565 S
H371 C358 0.962 . S
H372 C358 0.960 . S
H373 C359 0.961 . S
H374 C359 0.961 1_565 S
H375 C359 0.961 . S
H376 C360 0.931 . S
H377 C365 0.930 . S
H378 C366 0.969 . S
H379 C366 0.961 1_545 S
H380 C366 0.961 . S
H381 C367 0.958 . S
H382 C367 0.961 . S
H383 C367 1.001 . S
C384 C385 1.391 . S
C384 C386 1.394 . S
C384 H400 0.931 . S
C385 C384 1.391 . S
C385 C389 1.376 . S
C386 C384 1.394 . S
C386 C387 1.369 . S
C386 C390 1.531 . S
C387 C386 1.369 . S
C387 C388 1.410 . S
C387 C395 1.503 1_655 S
C388 C387 1.410 . S
C388 C389 1.392 . S
C388 C391 1.511 . S
C389 C385 1.376 . S
C389 C388 1.392 . S
C389 H401 0.929 . S
C390 C386 1.531 . S
C390 H402 0.960 1_655 S
C390 H403 0.962 . S
C390 H404 0.960 . S
C391 C388 1.511 . S
C391 H405 0.961 . S
C391 H406 0.961 1_655 S
C391 H407 0.961 . S
C392 C393 1.370 . S
C392 C394 1.363 . S
C392 H408 0.931 . S
C393 C392 1.370 . S
C393 C397 1.408 . S
C394 C392 1.363 . S
C394 C395 1.370 . S
C394 C398 1.524 . S
C395 C387 1.503 1_455 S
C395 C394 1.370 . S
C395 C396 1.403 . S
C396 C395 1.403 . S
C396 C397 1.404 . S
C396 C399 1.539 . S
C397 C393 1.408 . S
C397 C396 1.404 . S
C397 H409 0.930 . S
C398 C394 1.524 . S
C398 H410 0.956 . S
C398 H411 0.932 1_455 S
C398 H412 0.961 . S
C399 C396 1.539 . S
C399 H413 0.958 . S
C399 H414 0.961 . S
C399 H415 0.944 1_455 S
H400 C384 0.931 . S
H401 C389 0.929 . S
H402 C390 0.960 1_455 S
H403 C390 0.962 . S
H404 C390 0.960 . S
H405 C391 0.961 . S
H406 C391 0.961 1_455 S
H407 C391 0.961 . S
H408 C392 0.931 . S
H409 C397 0.930 . S
H410 C398 0.956 . S
H411 C398 0.932 1_655 S
H412 C398 0.961 . S
H413 C399 0.958 . S
H414 C399 0.961 . S
H415 C399 0.944 1_655 S
C416 C417 1.391 . S
C416 C418 1.394 . S
C416 H432 0.931 . S
C417 C416 1.391 . S
C417 C421 1.376 . S
C418 C416 1.394 . S
C418 C419 1.369 . S
C418 C422 1.531 . S
C419 C418 1.369 . S
C419 C420 1.410 . S
C419 C427 1.503 1_545 S
C420 C419 1.410 . S
C420 C421 1.392 . S
C420 C423 1.511 . S
C421 C417 1.376 . S
C421 C420 1.392 . S
C421 H433 0.929 . S
C422 C418 1.531 . S
C422 H434 0.960 1_545 S
C422 H435 0.962 . S
C422 H436 0.960 . S
C423 C420 1.511 . S
C423 H437 0.961 . S
C423 H438 0.961 1_545 S
C423 H439 0.961 . S
C424 C425 1.370 . S
C424 C426 1.363 . S
C424 H440 0.931 . S
C425 C424 1.370 . S
C425 C429 1.408 . S
C426 C424 1.363 . S
C426 C427 1.370 . S
C426 C430 1.524 . S
C427 C419 1.503 1_565 S
C427 C426 1.370 . S
C427 C428 1.403 . S
C428 C427 1.403 . S
C428 C429 1.404 . S
C428 C431 1.539 . S
C429 C425 1.408 . S
C429 C428 1.404 . S
C429 H441 0.930 . S
C430 C426 1.524 . S
C430 H442 0.982 . S
C430 H443 0.929 1_565 S
C430 H444 0.961 . S
C431 C428 1.539 . S
C431 H445 0.958 . S
C431 H446 0.961 . S
C431 H447 0.968 . S
H432 C416 0.931 . S
H433 C421 0.929 . S
H434 C422 0.960 1_565 S
H435 C422 0.962 . S
H436 C422 0.960 . S
H437 C423 0.961 . S
H438 C423 0.961 1_565 S
H439 C423 0.961 . S
H440 C424 0.931 . S
H441 C429 0.930 . S
H442 C430 0.982 . S
H443 C430 0.929 1_545 S
H444 C430 0.961 . S
H445 C431 0.958 . S
H446 C431 0.961 . S
H447 C431 0.968 . S
C448 C449 1.391 . S
C448 C450 1.394 . S
C448 H464 0.931 . S
C449 C448 1.391 . S
C449 C453 1.376 . S
C450 C448 1.394 . S
C450 C451 1.369 . S
C450 C454 1.531 . S
C451 C450 1.369 . S
C451 C452 1.410 . S
C451 C459 1.503 1_455 S
C452 C451 1.410 . S
C452 C453 1.392 . S
C452 C455 1.511 . S
C453 C449 1.376 . S
C453 C452 1.392 . S
C453 H465 0.929 . S
C454 C450 1.531 . S
C454 H466 0.960 1_455 S
C454 H467 0.962 . S
C454 H468 0.960 . S
C455 C452 1.511 . S
C455 H469 0.961 . S
C455 H470 0.961 1_455 S
C455 H471 0.961 . S
C456 C457 1.370 . S
C456 C458 1.363 . S
C456 H472 0.931 . S
C457 C456 1.370 . S
C457 C461 1.408 . S
C458 C456 1.363 . S
C458 C459 1.370 . S
C458 C462 1.524 . S
C459 C451 1.503 1_655 S
C459 C458 1.370 . S
C459 C460 1.403 . S
C460 C459 1.403 . S
C460 C461 1.404 . S
C460 C463 1.539 . S
C461 C457 1.408 . S
C461 C460 1.404 . S
C461 H473 0.930 . S
C462 C458 1.524 . S
C462 H474 0.956 . S
C462 H475 0.961 1_655 S
C462 H476 0.961 . S
C463 C460 1.539 . S
C463 H477 0.958 . S
C463 H478 0.961 . S
C463 H479 0.967 . S
H464 C448 0.931 . S
H465 C453 0.929 . S
H466 C454 0.960 1_655 S
H467 C454 0.962 . S
H468 C454 0.960 . S
H469 C455 0.961 . S
H470 C455 0.961 1_655 S
H471 C455 0.961 . S
H472 C456 0.931 . S
H473 C461 0.930 . S
H474 C462 0.956 . S
H475 C462 0.961 1_455 S
H476 C462 0.961 . S
H477 C463 0.958 . S
H478 C463 0.961 . S
H479 C463 0.967 . S
C480 C481 1.390 1_556 S
C480 C482 1.394 1_556 S
C480 H496 0.931 . S
C481 C480 1.390 1_554 S
C481 C485 1.378 . S
C482 C480 1.394 1_554 S
C482 C483 1.369 . S
C482 C486 1.531 . S
C483 C482 1.369 . S
C483 C484 1.410 . S
C483 C491 1.503 . S
C484 C483 1.410 . S
C484 C485 1.392 . S
C484 C487 1.511 . S
C485 C481 1.378 . S
C485 C484 1.392 . S
C485 H497 0.929 . S
C486 C482 1.531 . S
C486 H498 0.964 . S
C486 H499 0.955 1_554 S
C486 H500 0.963 . S
C487 C484 1.511 . S
C487 H501 0.961 . S
C487 H502 0.961 . S
C487 H503 0.961 . S
C488 C489 1.370 1_556 S
C488 C490 1.363 . S
C488 H504 0.931 . S
C489 C488 1.370 1_554 S
C489 C493 1.408 . S
C490 C488 1.363 . S
C490 C491 1.370 1_556 S
C490 C494 1.524 . S
C491 C483 1.503 . S
C491 C490 1.370 1_554 S
C491 C492 1.403 . S
C492 C491 1.403 . S
C492 C493 1.404 . S
C492 C495 1.539 . S
C493 C489 1.408 . S
C493 C492 1.404 . S
C493 H505 0.930 . S
C494 C490 1.524 . S
C494 H506 0.956 . S
C494 H507 0.961 . S
C494 H508 0.961 . S
C495 C492 1.539 . S
C495 H509 0.958 . S
C495 H510 0.961 . S
C495 H511 0.960 . S
H496 C480 0.931 . S
H497 C485 0.929 . S
H498 C486 0.964 . S
H499 C486 0.955 1_556 S
H500 C486 0.963 . S
H501 C487 0.961 . S
H502 C487 0.961 . S
H503 C487 0.961 . S
H504 C488 0.931 . S
H505 C493 0.930 . S
H506 C494 0.956 . S
H507 C494 0.961 . S
H508 C494 0.961 . S
H509 C495 0.958 . S
H510 C495 0.961 . S
H511 C495 0.960 . S
C512 C513 1.391 1_556 S
C512 C514 1.394 . S
C512 H528 0.931 . S
C513 C512 1.391 1_554 S
C513 C517 1.376 . S
C514 C512 1.394 . S
C514 C515 1.369 . S
C514 C518 1.531 . S
C515 C514 1.369 . S
C515 C516 1.410 1_556 S
C515 C523 1.503 . S
C516 C515 1.410 1_554 S
C516 C517 1.392 . S
C516 C519 1.511 . S
C517 C513 1.376 . S
C517 C516 1.392 . S
C517 H529 0.929 . S
C518 C514 1.531 . S
C518 H530 0.960 . S
C518 H531 0.962 . S
C518 H532 0.960 . S
C519 C516 1.511 . S
C519 H533 0.961 . S
C519 H534 0.961 . S
C519 H535 0.961 . S
C520 C521 1.370 1_554 S
C520 C522 1.363 . S
C520 H536 0.931 . S
C521 C520 1.370 1_556 S
C521 C525 1.408 . S
C522 C520 1.363 . S
C522 C523 1.370 1_554 S
C522 C526 1.524 . S
C523 C515 1.503 . S
C523 C522 1.370 1_556 S
C523 C524 1.403 . S
C524 C523 1.403 . S
C524 C525 1.404 . S
C524 C527 1.539 . S
C525 C521 1.408 . S
C525 C524 1.404 . S
C525 H537 0.930 . S
C526 C522 1.524 . S
C526 H538 0.956 . S
C526 H539 0.961 . S
C526 H540 0.961 . S
C527 C524 1.539 . S
C527 H541 0.958 . S
C527 H542 0.961 . S
C527 H543 0.960 . S
H528 C512 0.931 . S
H529 C517 0.929 . S
H530 C518 0.960 . S
H531 C518 0.962 . S
H532 C518 0.960 . S
H533 C519 0.961 . S
H534 C519 0.961 . S
H535 C519 0.961 . S
H536 C520 0.931 . S
H537 C525 0.930 . S
H538 C526 0.956 . S
H539 C526 0.961 . S
H540 C526 0.961 . S
H541 C527 0.958 . S
H542 C527 0.961 . S
H543 C527 0.960 . S
C544 C545 1.394 . S
C544 C546 1.394 . S
C544 H560 0.931 . S
C545 C544 1.394 . S
C545 C549 1.375 1_554 S
C546 C544 1.394 . S
C546 C547 1.369 . S
C546 C550 1.531 . S
C547 C546 1.369 . S
C547 C548 1.410 . S
C547 C555 1.503 . S
C548 C547 1.410 . S
C548 C549 1.392 1_554 S
C548 C551 1.511 1_554 S
C549 C545 1.375 1_556 S
C549 C548 1.392 1_556 S
C549 H561 0.929 . S
C550 C546 1.531 . S
C550 H562 0.960 . S
C550 H563 0.962 . S
C550 H564 0.960 . S
C551 C548 1.511 1_556 S
C551 H565 0.961 . S
C551 H566 0.961 . S
C551 H567 0.961 1_556 S
C552 C553 1.370 1_556 S
C552 C554 1.363 . S
C552 H568 0.931 . S
C553 C552 1.370 1_554 S
C553 C557 1.408 . S
C554 C552 1.363 . S
C554 C555 1.370 1_556 S
C554 C558 1.524 . S
C555 C547 1.503 . S
C555 C554 1.370 1_554 S
C555 C556 1.403 . S
C556 C555 1.403 . S
C556 C557 1.404 . S
C556 C559 1.539 . S
C557 C553 1.408 . S
C557 C556 1.404 . S
C557 H569 0.930 . S
C558 C554 1.524 . S
C558 H570 0.956 . S
C558 H571 0.961 . S
C558 H572 0.961 . S
C559 C556 1.539 . S
C559 H573 0.958 . S
C559 H574 0.961 . S
C559 H575 0.960 . S
H560 C544 0.931 . S
H561 C549 0.929 . S
H562 C550 0.960 . S
H563 C550 0.962 . S
H564 C550 0.960 . S
H565 C551 0.961 . S
H566 C551 0.961 . S
H567 C551 0.961 1_554 S
H568 C552 0.931 . S
H569 C557 0.930 . S
H570 C558 0.956 . S
H571 C558 0.961 . S
H572 C558 0.961 . S
H573 C559 0.958 . S
H574 C559 0.961 . S
H575 C559 0.960 . S
C576 C577 1.391 . S
C576 C578 1.394 . S
C576 H592 0.931 . S
C577 C576 1.391 . S
C577 C581 1.376 1_554 S
C578 C576 1.394 . S
C578 C579 1.369 . S
C578 C582 1.531 . S
C579 C578 1.369 . S
C579 C580 1.411 . S
C579 C587 1.503 . S
C580 C579 1.411 . S
C580 C581 1.392 1_554 S
C580 C583 1.510 1_554 S
C581 C577 1.376 1_556 S
C581 C580 1.392 1_556 S
C581 H593 0.929 . S
C582 C578 1.531 . S
C582 H594 0.960 . S
C582 H595 0.962 . S
C582 H596 0.960 . S
C583 C580 1.510 1_556 S
C583 H597 0.961 . S
C583 H598 0.961 . S
C583 H599 0.961 1_556 S
C584 C585 1.370 . S
C584 C586 1.363 . S
C584 H600 0.931 . S
C585 C584 1.370 . S
C585 C589 1.408 1_556 S
C586 C584 1.363 . S
C586 C587 1.370 1_556 S
C586 C590 1.524 . S
C587 C579 1.503 . S
C587 C586 1.370 1_554 S
C587 C588 1.403 . S
C588 C587 1.403 . S
C588 C589 1.404 . S
C588 C591 1.539 . S
C589 C585 1.408 1_554 S
C589 C588 1.404 . S
C589 H601 0.930 . S
C590 C586 1.524 . S
C590 H602 0.956 . S
C590 H603 0.961 . S
C590 H604 0.961 . S
C591 C588 1.539 . S
C591 H605 0.958 . S
C591 H606 0.961 . S
C591 H607 0.960 . S
H592 C576 0.931 . S
H593 C581 0.929 . S
H594 C582 0.960 . S
H595 C582 0.962 . S
H596 C582 0.960 . S
H597 C583 0.961 . S
H598 C583 0.961 . S
H599 C583 0.961 1_554 S
H600 C584 0.931 . S
H601 C589 0.930 . S
H602 C590 0.956 . S
H603 C590 0.961 . S
H604 C590 0.961 . S
H605 C591 0.958 . S
H606 C591 0.961 . S
H607 C591 0.960 . S
C608 C609 1.391 . S
C608 C610 1.394 . S
C608 H624 0.931 . S
C609 C608 1.391 . S
C609 C613 1.376 . S
C610 C608 1.394 . S
C610 C611 1.369 . S
C610 C614 1.531 . S
C611 C610 1.369 . S
C611 C612 1.410 . S
C611 C619 1.503 . S
C612 C611 1.410 . S
C612 C613 1.392 . S
C612 C615 1.511 . S
C613 C609 1.376 . S
C613 C612 1.392 . S
C613 H625 0.929 . S
C614 C610 1.531 . S
C614 H626 0.960 . S
C614 H627 0.962 . S
C614 H628 0.960 . S
C615 C612 1.511 . S
C615 H629 0.961 . S
C615 H630 0.961 . S
C615 H631 0.961 . S
C616 C617 1.370 . S
C616 C618 1.363 . S
C616 H632 0.931 . S
C617 C616 1.370 . S
C617 C621 1.408 . S
C618 C616 1.363 . S
C618 C619 1.370 . S
C618 C622 1.524 . S
C619 C611 1.503 . S
C619 C618 1.370 . S
C619 C620 1.403 . S
C620 C619 1.403 . S
C620 C621 1.404 . S
C620 C623 1.539 . S
C621 C617 1.408 . S
C621 C620 1.404 . S
C621 H633 0.930 . S
C622 C618 1.524 . S
C622 H634 0.956 . S
C622 H635 0.961 . S
C622 H636 0.961 . S
C623 C620 1.539 . S
C623 H637 0.958 . S
C623 H638 0.961 . S
C623 H639 0.960 . S
H624 C608 0.931 . S
H625 C613 0.929 . S
H626 C614 0.960 . S
H627 C614 0.962 . S
H628 C614 0.960 . S
H629 C615 0.961 . S
H630 C615 0.961 . S
H631 C615 0.961 . S
H632 C616 0.931 . S
H633 C621 0.930 . S
H634 C622 0.956 . S
H635 C622 0.961 . S
H636 C622 0.961 . S
H637 C623 0.958 . S
H638 C623 0.961 . S
H639 C623 0.960 . S
C640 C641 1.391 . S
C640 C642 1.394 . S
C640 H656 0.931 . S
C641 C640 1.391 . S
C641 C645 1.376 . S
C642 C640 1.394 . S
C642 C643 1.369 . S
C642 C646 1.531 . S
C643 C642 1.369 . S
C643 C644 1.410 . S
C643 C651 1.503 . S
C644 C643 1.410 . S
C644 C645 1.392 . S
C644 C647 1.511 . S
C645 C641 1.376 . S
C645 C644 1.392 . S
C645 H657 0.929 . S
C646 C642 1.531 . S
C646 H658 0.960 . S
C646 H659 0.962 . S
C646 H660 0.960 . S
C647 C644 1.511 . S
C647 H661 0.961 . S
C647 H662 0.961 . S
C647 H663 0.961 . S
C648 C649 1.370 . S
C648 C650 1.363 . S
C648 H664 0.931 . S
C649 C648 1.370 . S
C649 C653 1.408 . S
C650 C648 1.363 . S
C650 C651 1.370 . S
C650 C654 1.524 . S
C651 C643 1.503 . S
C651 C650 1.370 . S
C651 C652 1.403 . S
C652 C651 1.403 . S
C652 C653 1.404 . S
C652 C655 1.539 . S
C653 C649 1.408 . S
C653 C652 1.404 . S
C653 H665 0.930 . S
C654 C650 1.524 . S
C654 H666 0.956 . S
C654 H667 0.961 . S
C654 H668 0.961 . S
C655 C652 1.539 . S
C655 H669 0.958 . S
C655 H670 0.961 . S
C655 H671 0.960 . S
H656 C640 0.931 . S
H657 C645 0.929 . S
H658 C646 0.960 . S
H659 C646 0.962 . S
H660 C646 0.960 . S
H661 C647 0.961 . S
H662 C647 0.961 . S
H663 C647 0.961 . S
H664 C648 0.931 . S
H665 C653 0.930 . S
H666 C654 0.956 . S
H667 C654 0.961 . S
H668 C654 0.961 . S
H669 C655 0.958 . S
H670 C655 0.961 . S
H671 C655 0.960 . S
C672 C673 1.391 . S
C672 C674 1.394 . S
C672 H688 0.931 . S
C673 C672 1.391 . S
C673 C677 1.376 . S
C674 C672 1.394 . S
C674 C675 1.369 . S
C674 C678 1.531 . S
C675 C674 1.369 . S
C675 C676 1.410 . S
C675 C683 1.503 . S
C676 C675 1.410 . S
C676 C677 1.392 . S
C676 C679 1.511 . S
C677 C673 1.376 . S
C677 C676 1.392 . S
C677 H689 0.929 . S
C678 C674 1.531 . S
C678 H690 0.960 . S
C678 H691 0.962 . S
C678 H692 0.960 . S
C679 C676 1.511 . S
C679 H693 0.961 . S
C679 H694 0.961 . S
C679 H695 0.961 . S
C680 C681 1.370 . S
C680 C682 1.363 . S
C680 H696 0.931 . S
C681 C680 1.370 . S
C681 C685 1.408 . S
C682 C680 1.363 . S
C682 C683 1.370 . S
C682 C686 1.524 . S
C683 C675 1.503 . S
C683 C682 1.370 . S
C683 C684 1.403 . S
C684 C683 1.403 . S
C684 C685 1.404 . S
C684 C687 1.539 . S
C685 C681 1.408 . S
C685 C684 1.404 . S
C685 H697 0.930 . S
C686 C682 1.524 . S
C686 H698 0.956 . S
C686 H699 0.961 . S
C686 H700 0.961 . S
C687 C684 1.539 . S
C687 H701 0.958 . S
C687 H702 0.961 . S
C687 H703 0.960 . S
H688 C672 0.931 . S
H689 C677 0.929 . S
H690 C678 0.960 . S
H691 C678 0.962 . S
H692 C678 0.960 . S
H693 C679 0.961 . S
H694 C679 0.961 . S
H695 C679 0.961 . S
H696 C680 0.931 . S
H697 C685 0.930 . S
H698 C686 0.956 . S
H699 C686 0.961 . S
H700 C686 0.961 . S
H701 C687 0.958 . S
H702 C687 0.961 . S
H703 C687 0.960 . S
C704 C705 1.391 . S
C704 C706 1.394 . S
C704 H720 0.931 . S
C705 C704 1.391 . S
C705 C709 1.376 . S
C706 C704 1.394 . S
C706 C707 1.369 . S
C706 C710 1.531 . S
C707 C706 1.369 . S
C707 C708 1.410 . S
C707 C715 1.503 . S
C708 C707 1.410 . S
C708 C709 1.392 . S
C708 C711 1.511 . S
C709 C705 1.376 . S
C709 C708 1.392 . S
C709 H721 0.929 . S
C710 C706 1.531 . S
C710 H722 0.960 . S
C710 H723 0.962 . S
C710 H724 0.960 . S
C711 C708 1.511 . S
C711 H725 0.961 . S
C711 H726 0.961 . S
C711 H727 0.961 . S
C712 C713 1.370 . S
C712 C714 1.363 . S
C712 H728 0.931 . S
C713 C712 1.370 . S
C713 C717 1.408 . S
C714 C712 1.363 . S
C714 C715 1.370 . S
C714 C718 1.524 . S
C715 C707 1.503 . S
C715 C714 1.370 . S
C715 C716 1.403 . S
C716 C715 1.403 . S
C716 C717 1.404 . S
C716 C719 1.539 . S
C717 C713 1.408 . S
C717 C716 1.404 . S
C717 H729 0.930 . S
C718 C714 1.524 . S
C718 H730 0.956 . S
C718 H731 0.961 . S
C718 H732 0.961 . S
C719 C716 1.539 . S
C719 H733 0.958 . S
C719 H734 0.961 . S
C719 H735 0.960 . S
H720 C704 0.931 . S
H721 C709 0.929 . S
H722 C710 0.960 . S
H723 C710 0.962 . S
H724 C710 0.960 . S
H725 C711 0.961 . S
H726 C711 0.961 . S
H727 C711 0.961 . S
H728 C712 0.931 . S
H729 C717 0.930 . S
H730 C718 0.956 . S
H731 C718 0.961 . S
H732 C718 0.961 . S
H733 C719 0.958 . S
H734 C719 0.961 . S
H735 C719 0.960 . S
C736 C737 1.391 . S
C736 C738 1.394 . S
C736 H752 0.931 . S
C737 C736 1.391 . S
C737 C741 1.376 . S
C738 C736 1.394 . S
C738 C739 1.369 . S
C738 C742 1.531 . S
C739 C738 1.369 . S
C739 C740 1.410 . S
C739 C747 1.503 . S
C740 C739 1.410 . S
C740 C741 1.392 . S
C740 C743 1.511 . S
C741 C737 1.376 . S
C741 C740 1.392 . S
C741 H753 0.929 . S
C742 C738 1.531 . S
C742 H754 0.960 . S
C742 H755 0.962 . S
C742 H756 0.960 . S
C743 C740 1.511 . S
C743 H757 0.961 . S
C743 H758 0.961 . S
C743 H759 0.961 . S
C744 C745 1.370 . S
C744 C746 1.363 . S
C744 H760 0.931 . S
C745 C744 1.370 . S
C745 C749 1.408 . S
C746 C744 1.363 . S
C746 C747 1.370 . S
C746 C750 1.524 . S
C747 C739 1.503 . S
C747 C746 1.370 . S
C747 C748 1.403 . S
C748 C747 1.403 . S
C748 C749 1.404 . S
C748 C751 1.539 . S
C749 C745 1.408 . S
C749 C748 1.404 . S
C749 H761 0.930 . S
C750 C746 1.524 . S
C750 H762 0.956 . S
C750 H763 0.961 . S
C750 H764 0.961 . S
C751 C748 1.539 . S
C751 H765 0.958 . S
C751 H766 0.961 . S
C751 H767 0.960 . S
H752 C736 0.931 . S
H753 C741 0.929 . S
H754 C742 0.960 . S
H755 C742 0.962 . S
H756 C742 0.960 . S
H757 C743 0.961 . S
H758 C743 0.961 . S
H759 C743 0.961 . S
H760 C744 0.931 . S
H761 C749 0.930 . S
H762 C750 0.956 . S
H763 C750 0.961 . S
H764 C750 0.961 . S
H765 C751 0.958 . S
H766 C751 0.961 . S
H767 C751 0.960 . S
C768 C769 1.391 . S
C768 C770 1.394 . S
C768 H784 0.931 . S
C769 C768 1.391 . S
C769 C773 1.376 . S
C770 C768 1.394 . S
C770 C771 1.369 . S
C770 C774 1.531 . S
C771 C770 1.369 . S
C771 C772 1.410 . S
C771 C779 1.503 . S
C772 C771 1.410 . S
C772 C773 1.392 . S
C772 C775 1.511 . S
C773 C769 1.376 . S
C773 C772 1.392 . S
C773 H785 0.929 . S
C774 C770 1.531 . S
C774 H786 0.960 . S
C774 H787 0.962 . S
C774 H788 0.960 . S
C775 C772 1.511 . S
C775 H789 0.961 . S
C775 H790 0.961 . S
C775 H791 0.961 . S
C776 C777 1.370 . S
C776 C778 1.363 . S
C776 H792 0.931 . S
C777 C776 1.370 . S
C777 C781 1.408 . S
C778 C776 1.363 . S
C778 C779 1.370 . S
C778 C782 1.524 . S
C779 C771 1.503 . S
C779 C778 1.370 . S
C779 C780 1.403 . S
C780 C779 1.403 . S
C780 C781 1.404 . S
C780 C783 1.539 . S
C781 C777 1.408 . S
C781 C780 1.404 . S
C781 H793 0.930 . S
C782 C778 1.524 . S
C782 H794 0.956 . S
C782 H795 0.961 . S
C782 H796 0.961 . S
C783 C780 1.539 . S
C783 H797 0.958 . S
C783 H798 0.961 . S
C783 H799 0.960 . S
H784 C768 0.931 . S
H785 C773 0.929 . S
H786 C774 0.960 . S
H787 C774 0.962 . S
H788 C774 0.960 . S
H789 C775 0.961 . S
H790 C775 0.961 . S
H791 C775 0.961 . S
H792 C776 0.931 . S
H793 C781 0.930 . S
H794 C782 0.956 . S
H795 C782 0.961 . S
H796 C782 0.961 . S
H797 C783 0.958 . S
H798 C783 0.961 . S
H799 C783 0.960 . S
C800 C801 1.391 . S
C800 C802 1.394 . S
C800 H816 0.931 . S
C801 C800 1.391 . S
C801 C805 1.376 . S
C802 C800 1.394 . S
C802 C803 1.369 . S
C802 C806 1.531 . S
C803 C802 1.369 . S
C803 C804 1.410 . S
C803 C811 1.503 . S
C804 C803 1.410 . S
C804 C805 1.392 . S
C804 C807 1.511 . S
C805 C801 1.376 . S
C805 C804 1.392 . S
C805 H817 0.929 . S
C806 C802 1.531 . S
C806 H818 0.960 . S
C806 H819 0.962 . S
C806 H820 0.960 . S
C807 C804 1.511 . S
C807 H821 0.961 . S
C807 H822 0.961 . S
C807 H823 0.961 . S
C808 C809 1.370 . S
C808 C810 1.363 . S
C808 H824 0.931 . S
C809 C808 1.370 . S
C809 C813 1.408 . S
C810 C808 1.363 . S
C810 C811 1.370 . S
C810 C814 1.524 . S
C811 C803 1.503 . S
C811 C810 1.370 . S
C811 C812 1.403 . S
C812 C811 1.403 . S
C812 C813 1.404 . S
C812 C815 1.539 . S
C813 C809 1.408 . S
C813 C812 1.404 . S
C813 H825 0.930 . S
C814 C810 1.524 . S
C814 H826 0.956 . S
C814 H827 0.961 . S
C814 H828 0.961 . S
C815 C812 1.539 . S
C815 H829 0.958 . S
C815 H830 0.961 . S
C815 H831 0.960 . S
H816 C800 0.931 . S
H817 C805 0.929 . S
H818 C806 0.960 . S
H819 C806 0.962 . S
H820 C806 0.960 . S
H821 C807 0.961 . S
H822 C807 0.961 . S
H823 C807 0.961 . S
H824 C808 0.931 . S
H825 C813 0.930 . S
H826 C814 0.956 . S
H827 C814 0.961 . S
H828 C814 0.961 . S
H829 C815 0.958 . S
H830 C815 0.961 . S
H831 C815 0.960 . S
C832 C833 1.391 . S
C832 C834 1.394 . S
C832 H848 0.931 . S
C833 C832 1.391 . S
C833 C837 1.376 . S
C834 C832 1.394 . S
C834 C835 1.369 . S
C834 C838 1.531 . S
C835 C834 1.369 . S
C835 C836 1.410 . S
C835 C843 1.503 . S
C836 C835 1.410 . S
C836 C837 1.392 . S
C836 C839 1.511 . S
C837 C833 1.376 . S
C837 C836 1.392 . S
C837 H849 0.929 . S
C838 C834 1.531 . S
C838 H850 0.960 . S
C838 H851 0.962 . S
C838 H852 0.960 . S
C839 C836 1.511 . S
C839 H853 0.961 . S
C839 H854 0.961 . S
C839 H855 0.961 . S
C840 C841 1.370 . S
C840 C842 1.363 . S
C840 H856 0.931 . S
C841 C840 1.370 . S
C841 C845 1.408 . S
C842 C840 1.363 . S
C842 C843 1.370 . S
C842 C846 1.524 . S
C843 C835 1.503 . S
C843 C842 1.370 . S
C843 C844 1.403 . S
C844 C843 1.403 . S
C844 C845 1.404 . S
C844 C847 1.539 . S
C845 C841 1.408 . S
C845 C844 1.404 . S
C845 H857 0.930 . S
C846 C842 1.524 . S
C846 H858 0.956 . S
C846 H859 0.961 . S
C846 H860 0.961 . S
C847 C844 1.539 . S
C847 H861 0.958 . S
C847 H862 0.961 . S
C847 H863 0.960 . S
H848 C832 0.931 . S
H849 C837 0.929 . S
H850 C838 0.960 . S
H851 C838 0.962 . S
H852 C838 0.960 . S
H853 C839 0.961 . S
H854 C839 0.961 . S
H855 C839 0.961 . S
H856 C840 0.931 . S
H857 C845 0.930 . S
H858 C846 0.956 . S
H859 C846 0.961 . S
H860 C846 0.961 . S
H861 C847 0.958 . S
H862 C847 0.961 . S
H863 C847 0.960 . S
C864 C865 1.391 . S
C864 C866 1.394 . S
C864 H880 0.931 . S
C865 C864 1.391 . S
C865 C869 1.376 . S
C866 C864 1.394 . S
C866 C867 1.369 . S
C866 C870 1.531 . S
C867 C866 1.369 . S
C867 C868 1.410 . S
C867 C875 1.503 . S
C868 C867 1.410 . S
C868 C869 1.392 . S
C868 C871 1.511 . S
C869 C865 1.376 . S
C869 C868 1.392 . S
C869 H881 0.929 . S
C870 C866 1.531 . S
C870 H882 0.960 . S
C870 H883 0.962 . S
C870 H884 0.960 . S
C871 C868 1.511 . S
C871 H885 0.961 . S
C871 H886 0.961 . S
C871 H887 0.961 . S
C872 C873 1.370 . S
C872 C874 1.363 . S
C872 H888 0.931 . S
C873 C872 1.370 . S
C873 C877 1.408 . S
C874 C872 1.363 . S
C874 C875 1.370 . S
C874 C878 1.524 . S
C875 C867 1.503 . S
C875 C874 1.370 . S
C875 C876 1.403 . S
C876 C875 1.403 . S
C876 C877 1.404 . S
C876 C879 1.539 . S
C877 C873 1.408 . S
C877 C876 1.404 . S
C877 H889 0.930 . S
C878 C874 1.524 . S
C878 H890 0.956 . S
C878 H891 0.961 . S
C878 H892 0.961 . S
C879 C876 1.539 . S
C879 H893 0.958 . S
C879 H894 0.961 . S
C879 H895 0.960 . S
H880 C864 0.931 . S
H881 C869 0.929 . S
H882 C870 0.960 . S
H883 C870 0.962 . S
H884 C870 0.960 . S
H885 C871 0.961 . S
H886 C871 0.961 . S
H887 C871 0.961 . S
H888 C872 0.931 . S
H889 C877 0.930 . S
H890 C878 0.956 . S
H891 C878 0.961 . S
H892 C878 0.961 . S
H893 C879 0.958 . S
H894 C879 0.961 . S
H895 C879 0.960 . S
C896 C897 1.391 . S
C896 C898 1.394 . S
C896 H912 0.931 . S
C897 C896 1.391 . S
C897 C901 1.376 . S
C898 C896 1.394 . S
C898 C899 1.369 . S
C898 C902 1.531 . S
C899 C898 1.369 . S
C899 C900 1.410 . S
C899 C907 1.503 . S
C900 C899 1.410 . S
C900 C901 1.392 . S
C900 C903 1.511 . S
C901 C897 1.376 . S
C901 C900 1.392 . S
C901 H913 0.929 . S
C902 C898 1.531 . S
C902 H914 0.960 . S
C902 H915 0.962 . S
C902 H916 0.960 . S
C903 C900 1.511 . S
C903 H917 0.961 . S
C903 H918 0.961 . S
C903 H919 0.961 . S
C904 C905 1.370 . S
C904 C906 1.363 . S
C904 H920 0.931 . S
C905 C904 1.370 . S
C905 C909 1.408 . S
C906 C904 1.363 . S
C906 C907 1.370 . S
C906 C910 1.524 . S
C907 C899 1.503 . S
C907 C906 1.370 . S
C907 C908 1.403 . S
C908 C907 1.403 . S
C908 C909 1.404 . S
C908 C911 1.539 . S
C909 C905 1.408 . S
C909 C908 1.404 . S
C909 H921 0.930 . S
C910 C906 1.524 . S
C910 H922 0.956 . S
C910 H923 0.961 . S
C910 H924 0.961 . S
C911 C908 1.539 . S
C911 H925 0.958 . S
C911 H926 0.961 . S
C911 H927 0.960 . S
H912 C896 0.931 . S
H913 C901 0.929 . S
H914 C902 0.960 . S
H915 C902 0.962 . S
H916 C902 0.960 . S
H917 C903 0.961 . S
H918 C903 0.961 . S
H919 C903 0.961 . S
H920 C904 0.931 . S
H921 C909 0.930 . S
H922 C910 0.956 . S
H923 C910 0.961 . S
H924 C910 0.961 . S
H925 C911 0.958 . S
H926 C911 0.961 . S
H927 C911 0.960 . S
C928 C929 1.391 . S
C928 C930 1.394 . S
C928 H944 0.931 . S
C929 C928 1.391 . S
C929 C933 1.376 . S
C930 C928 1.394 . S
C930 C931 1.369 . S
C930 C934 1.531 . S
C931 C930 1.369 . S
C931 C932 1.410 . S
C931 C939 1.503 . S
C932 C931 1.410 . S
C932 C933 1.392 . S
C932 C935 1.511 . S
C933 C929 1.376 . S
C933 C932 1.392 . S
C933 H945 0.929 . S
C934 C930 1.531 . S
C934 H946 0.960 . S
C934 H947 0.962 . S
C934 H948 0.960 . S
C935 C932 1.511 . S
C935 H949 0.961 . S
C935 H950 0.961 . S
C935 H951 0.961 . S
C936 C937 1.370 . S
C936 C938 1.363 . S
C936 H952 0.931 . S
C937 C936 1.370 . S
C937 C941 1.408 . S
C938 C936 1.363 . S
C938 C939 1.370 . S
C938 C942 1.524 . S
C939 C931 1.503 . S
C939 C938 1.370 . S
C939 C940 1.403 . S
C940 C939 1.403 . S
C940 C941 1.404 . S
C940 C943 1.539 . S
C941 C937 1.408 . S
C941 C940 1.404 . S
C941 H953 0.930 . S
C942 C938 1.524 . S
C942 H954 0.956 . S
C942 H955 0.961 . S
C942 H956 0.961 . S
C943 C940 1.539 . S
C943 H957 0.958 . S
C943 H958 0.961 . S
C943 H959 0.960 . S
H944 C928 0.931 . S
H945 C933 0.929 . S
H946 C934 0.960 . S
H947 C934 0.962 . S
H948 C934 0.960 . S
H949 C935 0.961 . S
H950 C935 0.961 . S
H951 C935 0.961 . S
H952 C936 0.931 . S
H953 C941 0.930 . S
H954 C942 0.956 . S
H955 C942 0.961 . S
H956 C942 0.961 . S
H957 C943 0.958 . S
H958 C943 0.961 . S
H959 C943 0.960 . S
C960 C961 1.391 . S
C960 C962 1.394 . S
C960 H976 0.931 . S
C961 C960 1.391 . S
C961 C965 1.376 . S
C962 C960 1.394 . S
C962 C963 1.369 . S
C962 C966 1.531 . S
C963 C962 1.369 . S
C963 C964 1.410 . S
C963 C971 1.503 . S
C964 C963 1.410 . S
C964 C965 1.392 . S
C964 C967 1.511 . S
C965 C961 1.376 . S
C965 C964 1.392 . S
C965 H977 0.929 . S
C966 C962 1.531 . S
C966 H978 0.960 . S
C966 H979 0.962 . S
C966 H980 0.960 . S
C967 C964 1.511 . S
C967 H981 0.961 . S
C967 H982 0.961 . S
C967 H983 0.961 . S
C968 C969 1.370 . S
C968 C970 1.363 . S
C968 H984 0.931 . S
C969 C968 1.370 . S
C969 C973 1.408 . S
C970 C968 1.363 . S
C970 C971 1.370 . S
C970 C974 1.524 . S
C971 C963 1.503 . S
C971 C970 1.370 . S
C971 C972 1.403 . S
C972 C971 1.403 . S
C972 C973 1.404 . S
C972 C975 1.539 . S
C973 C969 1.408 . S
C973 C972 1.404 . S
C973 H985 0.930 . S
C974 C970 1.524 . S
C974 H986 0.956 . S
C974 H987 0.961 . S
C974 H988 0.961 . S
C975 C972 1.539 . S
C975 H989 0.958 . S
C975 H990 0.961 . S
C975 H991 0.960 . S
H976 C960 0.931 . S
H977 C965 0.929 . S
H978 C966 0.960 . S
H979 C966 0.962 . S
H980 C966 0.960 . S
H981 C967 0.961 . S
H982 C967 0.961 . S
H983 C967 0.961 . S
H984 C968 0.931 . S
H985 C973 0.930 . S
H986 C974 0.956 . S
H987 C974 0.961 . S
H988 C974 0.961 . S
H989 C975 0.958 . S
H990 C975 0.961 . S
H991 C975 0.960 . S
C992 C993 1.391 . S
C992 C994 1.394 . S
C992 H1008 0.931 . S
C993 C992 1.391 . S
C993 C997 1.376 . S
C994 C992 1.394 . S
C994 C995 1.369 . S
C994 C998 1.531 . S
C995 C994 1.369 . S
C995 C996 1.410 . S
C995 C1003 1.503 . S
C996 C995 1.410 . S
C996 C997 1.392 . S
C996 C999 1.511 . S
C997 C993 1.376 . S
C997 C996 1.392 . S
C997 H1009 0.929 . S
C998 C994 1.531 . S
C998 H1010 0.960 . S
C998 H1011 0.962 . S
C998 H1012 0.960 . S
C999 C996 1.511 . S
C999 H1013 0.961 . S
C999 H1014 0.961 . S
C999 H1015 0.961 . S
C1000 C1001 1.370 . S
C1000 C1002 1.363 . S
C1000 H1016 0.931 . S
C1001 C1000 1.370 . S
C1001 C1005 1.408 . S
C1002 C1000 1.363 . S
C1002 C1003 1.370 . S
C1002 C1006 1.524 . S
C1003 C995 1.503 . S
C1003 C1002 1.370 . S
C1003 C1004 1.403 . S
C1004 C1003 1.403 . S
C1004 C1005 1.404 . S
C1004 C1007 1.539 . S
C1005 C1001 1.408 . S
C1005 C1004 1.404 . S
C1005 H1017 0.930 . S
C1006 C1002 1.524 . S
C1006 H1018 0.956 . S
C1006 H1019 0.961 . S
C1006 H1020 0.961 . S
C1007 C1004 1.539 . S
C1007 H1021 0.958 . S
C1007 H1022 0.961 . S
C1007 H1023 0.960 . S
H1008 C992 0.931 . S
H1009 C997 0.929 . S
H1010 C998 0.960 . S
H1011 C998 0.962 . S
H1012 C998 0.960 . S
H1013 C999 0.961 . S
H1014 C999 0.961 . S
H1015 C999 0.961 . S
H1016 C1000 0.931 . S
H1017 C1005 0.930 . S
H1018 C1006 0.956 . S
H1019 C1006 0.961 . S
H1020 C1006 0.961 . S
H1021 C1007 0.958 . S
H1022 C1007 0.961 . S
H1023 C1007 0.960 . S
C1024 C1025 1.391 . S
C1024 C1026 1.394 . S
C1024 H1040 0.931 . S
C1025 C1024 1.391 . S
C1025 C1029 1.376 . S
C1026 C1024 1.394 . S
C1026 C1027 1.369 . S
C1026 C1030 1.531 . S
C1027 C1026 1.369 . S
C1027 C1028 1.410 . S
C1027 C1035 1.503 . S
C1028 C1027 1.410 . S
C1028 C1029 1.392 . S
C1028 C1031 1.511 . S
C1029 C1025 1.376 . S
C1029 C1028 1.392 . S
C1029 H1041 0.929 . S
C1030 C1026 1.531 . S
C1030 H1042 0.960 . S
C1030 H1043 0.962 . S
C1030 H1044 0.960 . S
C1031 C1028 1.511 . S
C1031 H1045 0.961 . S
C1031 H1046 0.961 . S
C1031 H1047 0.961 . S
C1032 C1033 1.370 . S
C1032 C1034 1.363 . S
C1032 H1048 0.931 . S
C1033 C1032 1.370 . S
C1033 C1037 1.408 . S
C1034 C1032 1.363 . S
C1034 C1035 1.370 . S
C1034 C1038 1.524 . S
C1035 C1027 1.503 . S
C1035 C1034 1.370 . S
C1035 C1036 1.403 . S
C1036 C1035 1.403 . S
C1036 C1037 1.404 . S
C1036 C1039 1.539 . S
C1037 C1033 1.408 . S
C1037 C1036 1.404 . S
C1037 H1049 0.930 . S
C1038 C1034 1.524 . S
C1038 H1050 0.956 . S
C1038 H1051 0.961 . S
C1038 H1052 0.961 . S
C1039 C1036 1.539 . S
C1039 H1053 0.958 . S
C1039 H1054 0.961 . S
C1039 H1055 0.960 . S
H1040 C1024 0.931 . S
H1041 C1029 0.929 . S
H1042 C1030 0.960 . S
H1043 C1030 0.962 . S
H1044 C1030 0.960 . S
H1045 C1031 0.961 . S
H1046 C1031 0.961 . S
H1047 C1031 0.961 . S
H1048 C1032 0.931 . S
H1049 C1037 0.930 . S
H1050 C1038 0.956 . S
H1051 C1038 0.961 . S
H1052 C1038 0.961 . S
H1053 C1039 0.958 . S
H1054 C1039 0.961 . S
H1055 C1039 0.960 . S
C1056 C1057 1.391 . S
C1056 C1058 1.394 . S
C1056 H1072 0.931 . S
C1057 C1056 1.391 . S
C1057 C1061 1.376 . S
C1058 C1056 1.394 . S
C1058 C1059 1.369 . S
C1058 C1062 1.531 . S
C1059 C1058 1.369 . S
C1059 C1060 1.410 . S
C1059 C1067 1.503 . S
C1060 C1059 1.410 . S
C1060 C1061 1.392 . S
C1060 C1063 1.511 . S
C1061 C1057 1.376 . S
C1061 C1060 1.392 . S
C1061 H1073 0.929 . S
C1062 C1058 1.531 . S
C1062 H1074 0.960 . S
C1062 H1075 0.962 . S
C1062 H1076 0.960 . S
C1063 C1060 1.511 . S
C1063 H1077 0.961 . S
C1063 H1078 0.961 . S
C1063 H1079 0.961 . S
C1064 C1065 1.370 . S
C1064 C1066 1.363 . S
C1064 H1080 0.931 . S
C1065 C1064 1.370 . S
C1065 C1069 1.408 . S
C1066 C1064 1.363 . S
C1066 C1067 1.370 . S
C1066 C1070 1.524 . S
C1067 C1059 1.503 . S
C1067 C1066 1.370 . S
C1067 C1068 1.403 . S
C1068 C1067 1.403 . S
C1068 C1069 1.404 . S
C1068 C1071 1.539 . S
C1069 C1065 1.408 . S
C1069 C1068 1.404 . S
C1069 H1081 0.930 . S
C1070 C1066 1.524 . S
C1070 H1082 0.956 . S
C1070 H1083 0.961 . S
C1070 H1084 0.961 . S
C1071 C1068 1.539 . S
C1071 H1085 0.958 . S
C1071 H1086 0.961 . S
C1071 H1087 0.960 . S
H1072 C1056 0.931 . S
H1073 C1061 0.929 . S
H1074 C1062 0.960 . S
H1075 C1062 0.962 . S
H1076 C1062 0.960 . S
H1077 C1063 0.961 . S
H1078 C1063 0.961 . S
H1079 C1063 0.961 . S
H1080 C1064 0.931 . S
H1081 C1069 0.930 . S
H1082 C1070 0.956 . S
H1083 C1070 0.961 . S
H1084 C1070 0.961 . S
H1085 C1071 0.958 . S
H1086 C1071 0.961 . S
H1087 C1071 0.960 . S
C1088 C1089 1.391 . S
C1088 C1090 1.394 . S
C1088 H1104 0.931 . S
C1089 C1088 1.391 . S
C1089 C1093 1.376 . S
C1090 C1088 1.394 . S
C1090 C1091 1.369 . S
C1090 C1094 1.531 . S
C1091 C1090 1.369 . S
C1091 C1092 1.410 . S
C1091 C1099 1.503 . S
C1092 C1091 1.410 . S
C1092 C1093 1.392 . S
C1092 C1095 1.511 . S
C1093 C1089 1.376 . S
C1093 C1092 1.392 . S
C1093 H1105 0.929 . S
C1094 C1090 1.531 . S
C1094 H1106 0.960 . S
C1094 H1107 0.962 . S
C1094 H1108 0.960 . S
C1095 C1092 1.511 . S
C1095 H1109 0.961 . S
C1095 H1110 0.961 . S
C1095 H1111 0.961 . S
C1096 C1097 1.370 . S
C1096 C1098 1.363 . S
C1096 H1112 0.931 . S
C1097 C1096 1.370 . S
C1097 C1101 1.408 . S
C1098 C1096 1.363 . S
C1098 C1099 1.370 . S
C1098 C1102 1.524 . S
C1099 C1091 1.503 . S
C1099 C1098 1.370 . S
C1099 C1100 1.403 . S
C1100 C1099 1.403 . S
C1100 C1101 1.404 . S
C1100 C1103 1.539 . S
C1101 C1097 1.408 . S
C1101 C1100 1.404 . S
C1101 H1113 0.930 . S
C1102 C1098 1.524 . S
C1102 H1114 0.956 . S
C1102 H1115 0.961 . S
C1102 H1116 0.961 . S
C1103 C1100 1.539 . S
C1103 H1117 0.958 . S
C1103 H1118 0.961 . S
C1103 H1119 0.960 . S
H1104 C1088 0.931 . S
H1105 C1093 0.929 . S
H1106 C1094 0.960 . S
H1107 C1094 0.962 . S
H1108 C1094 0.960 . S
H1109 C1095 0.961 . S
H1110 C1095 0.961 . S
H1111 C1095 0.961 . S
H1112 C1096 0.931 . S
H1113 C1101 0.930 . S
H1114 C1102 0.956 . S
H1115 C1102 0.961 . S
H1116 C1102 0.961 . S
H1117 C1103 0.958 . S
H1118 C1103 0.961 . S
H1119 C1103 0.960 . S
C1120 C1121 1.391 . S
C1120 C1122 1.394 . S
C1120 H1136 0.931 . S
C1121 C1120 1.391 . S
C1121 C1125 1.376 . S
C1122 C1120 1.394 . S
C1122 C1123 1.369 . S
C1122 C1126 1.531 . S
C1123 C1122 1.369 . S
C1123 C1124 1.410 . S
C1123 C1131 1.503 . S
C1124 C1123 1.410 . S
C1124 C1125 1.392 . S
C1124 C1127 1.511 . S
C1125 C1121 1.376 . S
C1125 C1124 1.392 . S
C1125 H1137 0.929 . S
C1126 C1122 1.531 . S
C1126 H1138 0.960 . S
C1126 H1139 0.962 . S
C1126 H1140 0.960 . S
C1127 C1124 1.511 . S
C1127 H1141 0.961 . S
C1127 H1142 0.961 . S
C1127 H1143 0.961 . S
C1128 C1129 1.370 . S
C1128 C1130 1.363 . S
C1128 H1144 0.931 . S
C1129 C1128 1.370 . S
C1129 C1133 1.408 . S
C1130 C1128 1.363 . S
C1130 C1131 1.370 . S
C1130 C1134 1.524 . S
C1131 C1123 1.503 . S
C1131 C1130 1.370 . S
C1131 C1132 1.403 . S
C1132 C1131 1.403 . S
C1132 C1133 1.404 . S
C1132 C1135 1.539 . S
C1133 C1129 1.408 . S
C1133 C1132 1.404 . S
C1133 H1145 0.930 . S
C1134 C1130 1.524 . S
C1134 H1146 0.956 . S
C1134 H1147 0.961 . S
C1134 H1148 0.961 . S
C1135 C1132 1.539 . S
C1135 H1149 0.958 . S
C1135 H1150 0.961 . S
C1135 H1151 0.960 . S
H1136 C1120 0.931 . S
H1137 C1125 0.929 . S
H1138 C1126 0.960 . S
H1139 C1126 0.962 . S
H1140 C1126 0.960 . S
H1141 C1127 0.961 . S
H1142 C1127 0.961 . S
H1143 C1127 0.961 . S
H1144 C1128 0.931 . S
H1145 C1133 0.930 . S
H1146 C1134 0.956 . S
H1147 C1134 0.961 . S
H1148 C1134 0.961 . S
H1149 C1135 0.958 . S
H1150 C1135 0.961 . S
H1151 C1135 0.960 . S
C1152 C1153 1.391 . S
C1152 C1154 1.394 . S
C1152 H1168 0.931 . S
C1153 C1152 1.391 . S
C1153 C1157 1.376 . S
C1154 C1152 1.394 . S
C1154 C1155 1.369 . S
C1154 C1158 1.531 . S
C1155 C1154 1.369 . S
C1155 C1156 1.410 . S
C1155 C1163 1.503 . S
C1156 C1155 1.410 . S
C1156 C1157 1.392 . S
C1156 C1159 1.511 . S
C1157 C1153 1.376 . S
C1157 C1156 1.392 . S
C1157 H1169 0.929 . S
C1158 C1154 1.531 . S
C1158 H1170 0.960 . S
C1158 H1171 0.962 . S
C1158 H1172 0.960 . S
C1159 C1156 1.511 . S
C1159 H1173 0.961 . S
C1159 H1174 0.961 . S
C1159 H1175 0.961 . S
C1160 C1161 1.370 . S
C1160 C1162 1.363 . S
C1160 H1176 0.931 . S
C1161 C1160 1.370 . S
C1161 C1165 1.408 . S
C1162 C1160 1.363 . S
C1162 C1163 1.370 . S
C1162 C1166 1.524 . S
C1163 C1155 1.503 . S
C1163 C1162 1.370 . S
C1163 C1164 1.403 . S
C1164 C1163 1.403 . S
C1164 C1165 1.404 . S
C1164 C1167 1.539 . S
C1165 C1161 1.408 . S
C1165 C1164 1.404 . S
C1165 H1177 0.930 . S
C1166 C1162 1.524 . S
C1166 H1178 0.956 . S
C1166 H1179 0.961 . S
C1166 H1180 0.961 . S
C1167 C1164 1.539 . S
C1167 H1181 0.958 . S
C1167 H1182 0.961 . S
C1167 H1183 0.960 . S
H1168 C1152 0.931 . S
H1169 C1157 0.929 . S
H1170 C1158 0.960 . S
H1171 C1158 0.962 . S
H1172 C1158 0.960 . S
H1173 C1159 0.961 . S
H1174 C1159 0.961 . S
H1175 C1159 0.961 . S
H1176 C1160 0.931 . S
H1177 C1165 0.930 . S
H1178 C1166 0.956 . S
H1179 C1166 0.961 . S
H1180 C1166 0.961 . S
H1181 C1167 0.958 . S
H1182 C1167 0.961 . S
H1183 C1167 0.960 . S
C1184 C1185 1.391 . S
C1184 C1186 1.394 . S
C1184 H1200 0.931 . S
C1185 C1184 1.391 . S
C1185 C1189 1.376 . S
C1186 C1184 1.394 . S
C1186 C1187 1.369 . S
C1186 C1190 1.531 . S
C1187 C1186 1.369 . S
C1187 C1188 1.410 . S
C1187 C1195 1.503 . S
C1188 C1187 1.410 . S
C1188 C1189 1.392 . S
C1188 C1191 1.511 . S
C1189 C1185 1.376 . S
C1189 C1188 1.392 . S
C1189 H1201 0.929 . S
C1190 C1186 1.531 . S
C1190 H1202 0.960 . S
C1190 H1203 0.962 . S
C1190 H1204 0.960 . S
C1191 C1188 1.511 . S
C1191 H1205 0.961 . S
C1191 H1206 0.961 . S
C1191 H1207 0.961 . S
C1192 C1193 1.370 . S
C1192 C1194 1.363 . S
C1192 H1208 0.931 . S
C1193 C1192 1.370 . S
C1193 C1197 1.408 . S
C1194 C1192 1.363 . S
C1194 C1195 1.370 . S
C1194 C1198 1.524 . S
C1195 C1187 1.503 . S
C1195 C1194 1.370 . S
C1195 C1196 1.403 . S
C1196 C1195 1.403 . S
C1196 C1197 1.404 . S
C1196 C1199 1.539 . S
C1197 C1193 1.408 . S
C1197 C1196 1.404 . S
C1197 H1209 0.930 . S
C1198 C1194 1.524 . S
C1198 H1210 0.956 . S
C1198 H1211 0.961 . S
C1198 H1212 0.961 . S
C1199 C1196 1.539 . S
C1199 H1213 0.958 . S
C1199 H1214 0.961 . S
C1199 H1215 0.960 . S
H1200 C1184 0.931 . S
H1201 C1189 0.929 . S
H1202 C1190 0.960 . S
H1203 C1190 0.962 . S
H1204 C1190 0.960 . S
H1205 C1191 0.961 . S
H1206 C1191 0.961 . S
H1207 C1191 0.961 . S
H1208 C1192 0.931 . S
H1209 C1197 0.930 . S
H1210 C1198 0.956 . S
H1211 C1198 0.961 . S
H1212 C1198 0.961 . S
H1213 C1199 0.958 . S
H1214 C1199 0.961 . S
H1215 C1199 0.960 . S
C1216 C1217 1.391 . S
C1216 C1218 1.394 . S
C1216 H1232 0.931 . S
C1217 C1216 1.391 . S
C1217 C1221 1.376 . S
C1218 C1216 1.394 . S
C1218 C1219 1.369 . S
C1218 C1222 1.531 . S
C1219 C1218 1.369 . S
C1219 C1220 1.410 . S
C1219 C1227 1.503 . S
C1220 C1219 1.410 . S
C1220 C1221 1.392 . S
C1220 C1223 1.511 . S
C1221 C1217 1.376 . S
C1221 C1220 1.392 . S
C1221 H1233 0.929 . S
C1222 C1218 1.531 . S
C1222 H1234 0.960 . S
C1222 H1235 0.962 . S
C1222 H1236 0.960 . S
C1223 C1220 1.511 . S
C1223 H1237 0.961 . S
C1223 H1238 0.961 . S
C1223 H1239 0.961 . S
C1224 C1225 1.370 . S
C1224 C1226 1.363 . S
C1224 H1240 0.931 . S
C1225 C1224 1.370 . S
C1225 C1229 1.408 . S
C1226 C1224 1.363 . S
C1226 C1227 1.370 . S
C1226 C1230 1.524 . S
C1227 C1219 1.503 . S
C1227 C1226 1.370 . S
C1227 C1228 1.403 . S
C1228 C1227 1.403 . S
C1228 C1229 1.404 . S
C1228 C1231 1.539 . S
C1229 C1225 1.408 . S
C1229 C1228 1.404 . S
C1229 H1241 0.930 . S
C1230 C1226 1.524 . S
C1230 H1242 0.956 . S
C1230 H1243 0.961 . S
C1230 H1244 0.961 . S
C1231 C1228 1.539 . S
C1231 H1245 0.958 . S
C1231 H1246 0.961 . S
C1231 H1247 0.960 . S
H1232 C1216 0.931 . S
H1233 C1221 0.929 . S
H1234 C1222 0.960 . S
H1235 C1222 0.962 . S
H1236 C1222 0.960 . S
H1237 C1223 0.961 . S
H1238 C1223 0.961 . S
H1239 C1223 0.961 . S
H1240 C1224 0.931 . S
H1241 C1229 0.930 . S
H1242 C1230 0.956 . S
H1243 C1230 0.961 . S
H1244 C1230 0.961 . S
H1245 C1231 0.958 . S
H1246 C1231 0.961 . S
H1247 C1231 0.960 . S
C225 C67 1.249 1_556 S
C233 C11 1.234 1_554 S
C257 C81 1.221 . S
C265 C25 1.237 1_554 S
C289 C95 1.236 . S
C297 C39 1.248 1_554 S
C321 C109 1.255 1_556 S
C329 C53 1.243 1_554 S
C353 C179 1.255 . S
C361 C123 1.239 . S
C385 C193 1.232 . S
C393 C137 1.248 . S
C417 C151 1.223 . S
C425 C207 1.236 . S
C449 C221 1.251 . S
C457 C165 1.246 . S
C481 C8 1.151 . S
C489 C78 1.183 1_554 S
C513 C92 1.123 1_554 S
C521 C22 1.161 1_556 S
C545 C36 1.138 . S
C553 C106 1.177 1_554 S
C577 C64 1.206 1_554 S
C585 C50 1.171 1_556 S
C609 C190 1.174 . S
C617 C120 1.157 . S
C641 C204 1.215 . S
C649 C134 1.178 . S
C673 C148 1.190 . S
C681 C218 1.163 . S
C705 C162 1.216 . S
C713 C176 1.181 . S
C737 C223 1.353 . S
C745 C13 1.318 . S
C769 C181 1.358 . S
C777 C27 1.354 . S
C801 C195 1.286 . S
C809 C41 1.342 . S
C833 C209 1.380 . S
C841 C55 1.330 . S
C865 C139 1.318 . S
C873 C69 1.318 . S
C897 C153 1.381 . S
C905 C83 1.332 . S
C929 C97 1.377 . S
C937 C167 1.345 . S
C961 C111 1.374 . S
C969 C125 1.325 . S
C993 C189 1.532 . S
C1001 C35 1.544 . S
C1025 C203 1.520 . S
C1033 C49 1.542 . S
C1057 C217 1.536 . S
C1065 C7 1.543 . S
C1089 C21 1.535 . S
C1097 C175 1.544 . S
C1121 C161 1.520 . S
C1129 C91 1.541 . S
C1153 C105 1.528 . S
C1161 C119 1.535 . S
C1185 C133 1.546 . S
C1193 C63 1.539 . S
C1217 C147 1.528 . S
C1225 C77 1.535 . S
