# Generated by pormake.
# Topology fnd, (5)-cn, num edge types: 1
# Building blocks:
#     Node 0, Type 0, BuildingBlock: XOMCOT_clean_sbu_0, # of connection points: 5
#     Node 1, Type 0, BuildingBlock: XOMCOT_clean_sbu_0, # of connection points: 5
#     Node 2, Type 0, BuildingBlock: XOMCOT_clean_sbu_0, # of connection points: 5
#     Node 3, Type 0, BuildingBlock: XOMCOT_clean_sbu_0, # of connection points: 5
#     Node 4, Type 0, BuildingBlock: XOMCOT_clean_sbu_0, # of connection points: 5
#     Node 5, Type 0, BuildingBlock: XOMCOT_clean_sbu_0, # of connection points: 5
#     Node 6, Type 0, BuildingBlock: XOMCOT_clean_sbu_0, # of connection points: 5
#     Node 7, Type 0, BuildingBlock: XOMCOT_clean_sbu_0, # of connection points: 5
#     Node 8, Type 0, BuildingBlock: XOMCOT_clean_sbu_0, # of connection points: 5
#     Node 9, Type 0, BuildingBlock: XOMCOT_clean_sbu_0, # of connection points: 5
#     Node 10, Type 0, BuildingBlock: XOMCOT_clean_sbu_0, # of connection points: 5
#     Node 11, Type 0, BuildingBlock: XOMCOT_clean_sbu_0, # of connection points: 5
#     Node 12, Type 0, BuildingBlock: XOMCOT_clean_sbu_0, # of connection points: 5
#     Node 13, Type 0, BuildingBlock: XOMCOT_clean_sbu_0, # of connection points: 5
#     Node 14, Type 0, BuildingBlock: XOMCOT_clean_sbu_0, # of connection points: 5
#     Node 15, Type 0, BuildingBlock: XOMCOT_clean_sbu_0, # of connection points: 5
#     Node 16, Type 0, BuildingBlock: XOMCOT_clean_sbu_0, # of connection points: 5
#     Node 17, Type 0, BuildingBlock: XOMCOT_clean_sbu_0, # of connection points: 5
#     Edge 18, Type (0, 0), None
#     Edge 19, Type (0, 0), None
#     Edge 20, Type (0, 0), None
#     Edge 21, Type (0, 0), None
#     Edge 22, Type (0, 0), None
#     Edge 23, Type (0, 0), None
#     Edge 24, Type (0, 0), None
#     Edge 25, Type (0, 0), None
#     Edge 26, Type (0, 0), None
#     Edge 27, Type (0, 0), None
#     Edge 28, Type (0, 0), None
#     Edge 29, Type (0, 0), None
#     Edge 30, Type (0, 0), None
#     Edge 31, Type (0, 0), None
#     Edge 32, Type (0, 0), None
#     Edge 33, Type (0, 0), None
#     Edge 34, Type (0, 0), None
#     Edge 35, Type (0, 0), None
#     Edge 36, Type (0, 0), None
#     Edge 37, Type (0, 0), None
#     Edge 38, Type (0, 0), None
#     Edge 39, Type (0, 0), None
#     Edge 40, Type (0, 0), None
#     Edge 41, Type (0, 0), None
#     Edge 42, Type (0, 0), None
#     Edge 43, Type (0, 0), None
#     Edge 44, Type (0, 0), None
#     Edge 45, Type (0, 0), None
#     Edge 46, Type (0, 0), None
#     Edge 47, Type (0, 0), None
#     Edge 48, Type (0, 0), None
#     Edge 49, Type (0, 0), None
#     Edge 50, Type (0, 0), None
#     Edge 51, Type (0, 0), None
#     Edge 52, Type (0, 0), None
#     Edge 53, Type (0, 0), None
#     Edge 54, Type (0, 0), None
#     Edge 55, Type (0, 0), None
#     Edge 56, Type (0, 0), None
#     Edge 57, Type (0, 0), None
#     Edge 58, Type (0, 0), None
#     Edge 59, Type (0, 0), None
#     Edge 60, Type (0, 0), None
#     Edge 61, Type (0, 0), None
#     Edge 62, Type (0, 0), None
# Relax obj value: 0.030
# Max RMSD: 0.054
# Mean RMSD: 0.054
data_MOF--net-fnd--node1-XOMCOT_clean_sbu_0--edge1-none
_symmetry_space_group_name_H-M    P1
_symmetry_Int_Tables_number       1
_symmetry_cell_setting            triclinic
loop_
_symmetry_equiv_pos_as_xyz
'x, y, z'
_cell_length_a     41.111588
_cell_length_b     41.111484
_cell_length_c     9.3434271
_cell_angle_alpha  90.001708
_cell_angle_beta   90.004389
_cell_angle_gamma 120.01389
loop_
_atom_site_label
_atom_site_type_symbol
_atom_site_fract_x
_atom_site_fract_y
_atom_site_fract_z
_atom_type_partial_charge
Co0 Co 0.10918 0.2535 0.46365 0.0
C1 C 0.11599 0.24868 0.77297 0.0
C2 C 0.11471 0.29855 0.71681 0.0
C3 C 0.11011 0.29362 0.86307 0.0
N4 N 0.11898 0.27065 0.66034 0.0
N5 N 0.11056 0.26199 0.89666 0.0
H6 H 0.11405 0.22169 0.76389 0.0
H7 H 0.11158 0.31904 0.65477 0.0
C8 C 0.17293 0.33595 0.41699 0.0
O9 O 0.18061 0.34447 0.55273 0.0
N10 N 0.09869 0.23659 0.26776 0.0
C11 C 0.0969 0.20584 0.20821 0.0
C12 C 0.09916 0.21025 0.06132 0.0
C13 C 0.10101 0.25874 0.15709 0.0
N14 N 0.10211 0.24371 0.03073 0.0
C15 C 0.12974 0.19885 0.53182 0.0
C16 C 0.2055 0.23887 0.47064 0.0
C17 C 0.18992 0.20199 0.52341 0.0
C18 C 0.15175 0.18285 0.55824 0.0
C19 C 0.18229 0.25487 0.45105 0.0
N20 N 0.1446 0.23466 0.48114 0.0
H21 H 0.10038 0.18183 0.55602 0.0
H22 H 0.19484 0.28309 0.4101 0.0
H23 H 0.09639 0.18294 0.26674 0.0
H24 H 0.10468 0.28654 0.16943 0.0
O25 O 0.06473 0.20926 0.52759 0.0
O26 O 0.06557 0.26131 0.46362 0.0
O27 O 0.14819 0.30309 0.3785 0.0
C28 C 0.0466 0.22712 0.51283 0.0
H29 H 0.10412 0.31031 0.93645 0.0
H30 H 0.10042 0.19123 0.9845 0.0
H31 H 0.23491 0.25479 0.44173 0.0
H32 H 0.1383 0.15488 0.60387 0.0
Co33 Co 0.79046 0.8643 0.46366 0.0
C34 C 0.79531 0.87591 0.77298 0.0
C35 C 0.74537 0.82481 0.71679 0.0
C36 C 0.75029 0.82514 0.86307 0.0
N37 N 0.77333 0.85696 0.66034 0.0
N38 N 0.78197 0.85719 0.89666 0.0
H39 H 0.82234 0.90093 0.7639 0.0
H40 H 0.72484 0.80122 0.65475 0.0
C41 C 0.70803 0.84565 0.41694 0.0
O42 O 0.69955 0.84496 0.55264 0.0
N43 N 0.80737 0.87072 0.26778 0.0
C44 C 0.83812 0.89967 0.20827 0.0
C45 C 0.83372 0.89752 0.06137 0.0
C46 C 0.78521 0.85088 0.15709 0.0
N47 N 0.80025 0.86702 0.03076 0.0
C48 C 0.84509 0.93953 0.53195 0.0
C49 C 0.80508 0.97525 0.47034 0.0
C50 C 0.84194 0.99657 0.52334 0.0
C51 C 0.86107 0.97754 0.55838 0.0
C52 C 0.78909 0.93604 0.45075 0.0
N53 N 0.80929 0.91857 0.48108 0.0
H54 H 0.8621 0.92721 0.55629 0.0
H55 H 0.76089 0.92036 0.40959 0.0
H56 H 0.86103 0.92207 0.26682 0.0
H57 H 0.7574 0.82675 0.16941 0.0
O58 O 0.83472 0.86413 0.5276 0.0
O59 O 0.78267 0.81289 0.46371 0.0
O60 O 0.74087 0.85367 0.37854 0.0
C61 C 0.81687 0.82813 0.51289 0.0
H62 H 0.73355 0.80248 0.93646 0.0
H63 H 0.85274 0.91781 0.98457 0.0
H64 H 0.78917 0.98874 0.44124 0.0
H65 H 0.88902 0.99208 0.60415 0.0
Co66 Co 0.17966 0.93479 0.46374 0.0
C67 C 0.16804 0.92799 0.77305 0.0
C68 C 0.21918 0.92927 0.7169 0.0
C69 C 0.21885 0.93386 0.86318 0.0
N70 N 0.18701 0.925 0.66043 0.0
N71 N 0.18677 0.93342 0.89675 0.0
H72 H 0.14299 0.92994 0.76395 0.0
H73 H 0.24279 0.93238 0.65488 0.0
C74 C 0.19836 0.87106 0.41699 0.0
O75 O 0.19919 0.86336 0.55271 0.0
N76 N 0.17324 0.94528 0.26785 0.0
C77 C 0.14427 0.94705 0.20831 0.0
C78 C 0.14642 0.9448 0.06141 0.0
C79 C 0.19307 0.94297 0.15718 0.0
N80 N 0.17693 0.94186 0.03083 0.0
C81 C 0.10444 0.91421 0.5319 0.0
C82 C 0.06869 0.83844 0.47077 0.0
C83 C 0.04739 0.85401 0.52354 0.0
C84 C 0.06643 0.89219 0.55836 0.0
C85 C 0.1079 0.86166 0.45115 0.0
N86 N 0.12538 0.89935 0.48121 0.0
H87 H 0.11677 0.94357 0.55606 0.0
H88 H 0.12358 0.84912 0.4102 0.0
H89 H 0.12188 0.94756 0.26682 0.0
H90 H 0.21721 0.93931 0.16953 0.0
O91 O 0.17985 0.97923 0.52769 0.0
O92 O 0.23108 0.97843 0.46375 0.0
O93 O 0.19025 0.8958 0.37858 0.0
C94 C 0.21585 0.99738 0.51295 0.0
H95 H 0.24152 0.93984 0.93657 0.0
H96 H 0.12614 0.94353 0.98458 0.0
H97 H 0.05519 0.80902 0.44187 0.0
H98 H 0.05191 0.90563 0.60399 0.0
Co99 Co 0.2624 0.10029 0.59345 0.0
C100 C 0.25758 0.1071 0.28412 0.0
C101 C 0.30744 0.10581 0.34031 0.0
C102 C 0.30251 0.10121 0.19404 0.0
N103 N 0.27954 0.11008 0.39676 0.0
N104 N 0.27088 0.10166 0.16044 0.0
H105 H 0.23059 0.10516 0.29319 0.0
H106 H 0.32793 0.10268 0.40236 0.0
C107 C 0.34484 0.16404 0.64013 0.0
O108 O 0.35336 0.17171 0.50438 0.0
N109 N 0.24548 0.0898 0.78932 0.0
C110 C 0.21474 0.08802 0.84885 0.0
C111 C 0.21914 0.09027 0.99575 0.0
C112 C 0.26763 0.09212 0.90001 0.0
N113 N 0.2526 0.09322 1.02635 0.0
C114 C 0.20774 0.12085 0.52524 0.0
C115 C 0.24776 0.19661 0.58648 0.0
C116 C 0.21088 0.18103 0.53371 0.0
C117 C 0.19174 0.14285 0.49883 0.0
C118 C 0.26376 0.1734 0.60606 0.0
N119 N 0.24355 0.13571 0.57595 0.0
H120 H 0.19072 0.09149 0.50103 0.0
H121 H 0.29198 0.18595 0.64702 0.0
H122 H 0.19183 0.0875 0.79032 0.0
H123 H 0.29543 0.0958 0.88768 0.0
O124 O 0.21815 0.05584 0.52949 0.0
O125 O 0.2702 0.05668 0.59348 0.0
O126 O 0.31198 0.13931 0.67861 0.0
C127 C 0.23601 0.03771 0.54427 0.0
H128 H 0.3192 0.09522 0.12067 0.0
H129 H 0.20013 0.09153 0.07257 0.0
H130 H 0.26368 0.22603 0.6154 0.0
H131 H 0.16377 0.12941 0.45319 0.0
Co132 Co 0.94369 0.17077 0.59334 0.0
C133 C 0.93689 0.15915 0.28402 0.0
C134 C 0.93814 0.21028 0.34019 0.0
C135 C 0.94274 0.20995 0.19392 0.0
N136 N 0.93389 0.17812 0.39665 0.0
N137 N 0.94231 0.17788 0.16033 0.0
H138 H 0.93885 0.13411 0.29311 0.0
H139 H 0.94125 0.23389 0.40223 0.0
C140 C 0.87995 0.18947 0.64008 0.0
O141 O 0.87223 0.19027 0.50436 0.0
N142 N 0.95418 0.16435 0.78923 0.0
C143 C 0.95595 0.13539 0.84876 0.0
C144 C 0.9537 0.13754 0.99566 0.0
C145 C 0.95187 0.18419 0.89991 0.0
N146 N 0.95075 0.16805 1.02625 0.0
C147 C 0.92309 0.09555 0.52515 0.0
C148 C 0.84734 0.0598 0.58637 0.0
C149 C 0.8629 0.0385 0.53359 0.0
C150 C 0.90107 0.05754 0.49872 0.0
C151 C 0.87055 0.09902 0.60596 0.0
N152 N 0.90824 0.1165 0.57586 0.0
H153 H 0.95245 0.10788 0.50094 0.0
H154 H 0.85802 0.1147 0.64693 0.0
H155 H 0.95646 0.113 0.79023 0.0
H156 H 0.9482 0.20832 0.88758 0.0
O157 O 0.98812 0.17096 0.5294 0.0
O158 O 0.98732 0.22219 0.59334 0.0
O159 O 0.9047 0.18137 0.67849 0.0
C160 C 1.00627 0.20695 0.54416 0.0
H161 H 0.94871 0.23263 0.12054 0.0
H162 H 0.95243 0.11726 0.07247 0.0
H163 H 0.81792 0.0463 0.61529 0.0
H164 H 0.91451 0.04301 0.45309 0.0
Co165 Co 0.87319 0.78157 0.59348 0.0
C166 C 0.88481 0.78642 0.28417 0.0
C167 C 0.8337 0.73648 0.3403 0.0
C168 C 0.83403 0.7414 0.19403 0.0
N169 N 0.86585 0.76444 0.39679 0.0
N170 N 0.86608 0.77308 0.16047 0.0
H171 H 0.90983 0.81344 0.29327 0.0
H172 H 0.81011 0.71595 0.40233 0.0
C173 C 0.85454 0.69914 0.64017 0.0
O174 O 0.85382 0.69064 0.50446 0.0
N175 N 0.87961 0.79848 0.78937 0.0
C176 C 0.90857 0.82923 0.84891 0.0
C177 C 0.90642 0.82482 0.99581 0.0
C178 C 0.85978 0.77632 0.90003 0.0
N179 N 0.87592 0.79136 1.02639 0.0
C180 C 0.94843 0.8362 0.52525 0.0
C181 C 0.98415 0.79619 0.58676 0.0
C182 C 1.00546 0.83305 0.53382 0.0
C183 C 0.98643 0.85218 0.49881 0.0
C184 C 0.94494 0.7802 0.60635 0.0
N185 N 0.92747 0.8004 0.57607 0.0
H186 H 0.9361 0.85321 0.50094 0.0
H187 H 0.92925 0.752 0.64746 0.0
H188 H 0.93097 0.85214 0.79038 0.0
H189 H 0.83564 0.74851 0.88769 0.0
O190 O 0.87303 0.82583 0.52956 0.0
O191 O 0.82178 0.77378 0.59341 0.0
O192 O 0.86257 0.73198 0.67858 0.0
C193 C 0.83703 0.80797 0.54427 0.0
H194 H 0.81137 0.72467 0.12062 0.0
H195 H 0.9267 0.84385 0.07262 0.0
H196 H 0.99764 0.78028 0.61581 0.0
H197 H 1.00097 0.88014 0.45306 0.0
Co198 Co 0.77586 0.58684 0.79699 0.0
C199 C 0.78266 0.58202 0.10632 0.0
C200 C 0.78137 0.63188 0.05015 0.0
C201 C 0.77677 0.62695 0.19641 0.0
N202 N 0.78565 0.60398 0.99368 0.0
N203 N 0.77723 0.59532 0.23 0.0
H204 H 0.78073 0.55503 0.09723 0.0
H205 H 0.77825 0.65237 0.98811 0.0
C206 C 0.8396 0.66928 0.75033 0.0
O207 O 0.84727 0.67781 0.88608 0.0
N208 N 0.76536 0.56992 0.6011 0.0
C209 C 0.76357 0.53918 0.54155 0.0
C210 C 0.76583 0.54358 0.39465 0.0
C211 C 0.76768 0.59207 0.49043 0.0
N212 N 0.76878 0.57704 0.36408 0.0
C213 C 0.79641 0.53218 0.86516 0.0
C214 C 0.87217 0.5722 0.80401 0.0
C215 C 0.85659 0.53532 0.85677 0.0
C216 C 0.81841 0.51618 0.89158 0.0
C217 C 0.84896 0.5882 0.78441 0.0
N218 N 0.81127 0.56799 0.81448 0.0
H219 H 0.76705 0.51516 0.88934 0.0
H220 H 0.86151 0.61642 0.74348 0.0
H221 H 0.76306 0.51627 0.60008 0.0
H222 H 0.77135 0.61987 0.50277 0.0
O223 O 0.7314 0.54259 0.86093 0.0
O224 O 0.73225 0.59464 0.79695 0.0
O225 O 0.81487 0.63642 0.71184 0.0
C226 C 0.71328 0.56045 0.84617 0.0
H227 H 0.77078 0.64364 0.26979 0.0
H228 H 0.76709 0.52457 0.31783 0.0
H229 H 0.90159 0.58812 0.77512 0.0
H230 H 0.80496 0.48821 0.9372 0.0
Co231 Co 0.45713 0.19764 0.797 0.0
C232 C 0.46198 0.20925 0.10632 0.0
C233 C 0.41204 0.15815 0.05013 0.0
C234 C 0.41697 0.15848 0.19641 0.0
N235 N 0.44 0.1903 0.99368 0.0
N236 N 0.44864 0.19053 0.23 0.0
H237 H 0.489 0.23428 0.09724 0.0
H238 H 0.39151 0.13455 0.98809 0.0
C239 C 0.3747 0.17899 0.75029 0.0
O240 O 0.3662 0.17828 0.88599 0.0
N241 N 0.47404 0.20406 0.60112 0.0
C242 C 0.50479 0.23301 0.54161 0.0
C243 C 0.50038 0.23087 0.39471 0.0
C244 C 0.45188 0.18422 0.49043 0.0
N245 N 0.46692 0.20036 0.3641 0.0
C246 C 0.51176 0.27287 0.86529 0.0
C247 C 0.47175 0.30859 0.80371 0.0
C248 C 0.50861 0.32991 0.8567 0.0
C249 C 0.52774 0.31088 0.89173 0.0
C250 C 0.45576 0.26938 0.78412 0.0
N251 N 0.47596 0.25191 0.81443 0.0
H252 H 0.52877 0.26055 0.88962 0.0
H253 H 0.42756 0.2537 0.74296 0.0
H254 H 0.5277 0.25541 0.60016 0.0
H255 H 0.42407 0.16009 0.50275 0.0
O256 O 0.50139 0.19747 0.86094 0.0
O257 O 0.44934 0.14623 0.79704 0.0
O258 O 0.40754 0.18702 0.71188 0.0
C259 C 0.48353 0.16147 0.84622 0.0
H260 H 0.40023 0.13581 0.2698 0.0
H261 H 0.51941 0.25115 0.31791 0.0
H262 H 0.45584 0.32208 0.77462 0.0
H263 H 0.5557 0.32542 0.93749 0.0
Co264 Co 0.84633 0.26812 0.79706 0.0
C265 C 0.83471 0.26132 0.10637 0.0
C266 C 0.88585 0.26259 0.05022 0.0
C267 C 0.88552 0.26719 0.1965 0.0
N268 N 0.85368 0.25833 0.99374 0.0
N269 N 0.85344 0.26675 0.23007 0.0
H270 H 0.80966 0.26327 0.09727 0.0
H271 H 0.90946 0.2657 0.98819 0.0
C272 C 0.86502 0.20438 0.7503 0.0
O273 O 0.86586 0.19668 0.88602 0.0
N274 N 0.8399 0.27861 0.60117 0.0
C275 C 0.81095 0.28038 0.54162 0.0
C276 C 0.81309 0.27813 0.39472 0.0
C277 C 0.85974 0.2763 0.4905 0.0
N278 N 0.8436 0.27519 0.36415 0.0
C279 C 0.77111 0.24754 0.86522 0.0
C280 C 0.73536 0.17178 0.80403 0.0
C281 C 0.71406 0.18735 0.85683 0.0
C282 C 0.7331 0.22552 0.89168 0.0
C283 C 0.77457 0.19499 0.78442 0.0
N284 N 0.79205 0.23268 0.81452 0.0
H285 H 0.78344 0.27689 0.88941 0.0
H286 H 0.79025 0.18246 0.74346 0.0
H287 H 0.78855 0.28089 0.60014 0.0
H288 H 0.88388 0.27264 0.50284 0.0
O289 O 0.84652 0.31256 0.86101 0.0
O290 O 0.89775 0.31176 0.79708 0.0
O291 O 0.85691 0.22913 0.7119 0.0
C292 C 0.88252 0.33071 0.84628 0.0
H293 H 0.90819 0.27316 0.26989 0.0
H294 H 0.79281 0.27686 0.3179 0.0
H295 H 0.72185 0.14236 0.77512 0.0
H296 H 0.71858 0.23896 0.93732 0.0
Co297 Co 0.92907 0.43362 0.92679 0.0
C298 C 0.92424 0.44042 0.61746 0.0
C299 C 0.97411 0.43914 0.67366 0.0
C300 C 0.96918 0.43454 0.52738 0.0
N301 N 0.94621 0.44341 0.73011 0.0
N302 N 0.93755 0.43499 0.49379 0.0
H303 H 0.89725 0.43849 0.62654 0.0
H304 H 0.9946 0.43602 0.7357 0.0
C305 C 1.01151 0.49737 0.97348 0.0
O306 O 1.02002 0.50505 0.83774 0.0
N307 N 0.91215 0.42313 0.12267 0.0
C308 C 0.88141 0.42134 0.18219 0.0
C309 C 0.88581 0.4236 0.3291 0.0
C310 C 0.9343 0.42545 0.23335 0.0
N311 N 0.91927 0.42655 0.35969 0.0
C312 C 0.87441 0.45417 0.85859 0.0
C313 C 0.91443 0.52993 0.91985 0.0
C314 C 0.87755 0.51435 0.86707 0.0
C315 C 0.85841 0.47618 0.83218 0.0
C316 C 0.93043 0.50673 0.93943 0.0
N317 N 0.91022 0.46904 0.9093 0.0
H318 H 0.85739 0.42482 0.83436 0.0
H319 H 0.95865 0.51927 0.9804 0.0
H320 H 0.8585 0.42082 0.12366 0.0
H321 H 0.9621 0.42912 0.22102 0.0
O322 O 0.88482 0.38917 0.86283 0.0
O323 O 0.93687 0.39001 0.92682 0.0
O324 O 0.97865 0.47263 1.01196 0.0
C325 C 0.90268 0.37104 0.87761 0.0
H326 H 0.98587 0.42856 0.45401 0.0
H327 H 0.86679 0.42485 0.40591 0.0
H328 H 0.93035 0.55935 0.94878 0.0
H329 H 0.83044 0.46273 0.78653 0.0
Co330 Co 0.61036 0.50411 0.92668 0.0
C331 C 0.60357 0.49249 0.61736 0.0
C332 C 0.60482 0.54362 0.67353 0.0
C333 C 0.60941 0.54329 0.52726 0.0
N334 N 0.60057 0.51146 0.72999 0.0
N335 N 0.60898 0.51122 0.49367 0.0
H336 H 0.60552 0.46745 0.62645 0.0
H337 H 0.60792 0.56723 0.73557 0.0
C338 C 0.54662 0.52281 0.97343 0.0
O339 O 0.5389 0.52361 0.83771 0.0
N340 N 0.62085 0.49769 0.12256 0.0
C341 C 0.62263 0.46873 0.1821 0.0
C342 C 0.62037 0.47088 0.329 0.0
C343 C 0.61854 0.51753 0.23324 0.0
N344 N 0.61743 0.50139 0.35959 0.0
C345 C 0.58976 0.42889 0.85848 0.0
C346 C 0.51401 0.39314 0.91973 0.0
C347 C 0.52957 0.37184 0.86694 0.0
C348 C 0.56774 0.39088 0.83206 0.0
C349 C 0.53723 0.43236 0.93932 0.0
N350 N 0.57491 0.44984 0.9092 0.0
H351 H 0.61912 0.44122 0.83427 0.0
H352 H 0.5247 0.44804 0.98029 0.0
H353 H 0.62313 0.44634 0.12357 0.0
H354 H 0.61488 0.54166 0.22091 0.0
O355 O 0.65479 0.5043 0.86274 0.0
O356 O 0.654 0.55553 0.92667 0.0
O357 O 0.57138 0.51471 1.01182 0.0
C358 C 0.67294 0.54029 0.87749 0.0
H359 H 0.61538 0.56597 0.45388 0.0
H360 H 0.6191 0.4506 0.40581 0.0
H361 H 0.48459 0.37965 0.94866 0.0
H362 H 0.58118 0.37635 0.78643 0.0
Co363 Co 0.53986 0.1149 0.92679 0.0
C364 C 0.55147 0.11975 0.61748 0.0
C365 C 0.50036 0.06982 0.67362 0.0
C366 C 0.50069 0.07475 0.52734 0.0
N367 N 0.53252 0.09777 0.7301 0.0
N368 N 0.53275 0.10641 0.49378 0.0
H369 H 0.5765 0.14677 0.62658 0.0
H370 H 0.47677 0.0493 0.73564 0.0
C371 C 0.52119 0.03247 0.97348 0.0
O372 O 0.52047 0.02397 0.83777 0.0
N373 N 0.54628 0.13181 0.12268 0.0
C374 C 0.57524 0.16256 0.18222 0.0
C375 C 0.57309 0.15816 0.32912 0.0
C376 C 0.52644 0.10966 0.23335 0.0
N377 N 0.54259 0.1247 0.3597 0.0
C378 C 0.61509 0.16953 0.85857 0.0
C379 C 0.65081 0.12952 0.92002 0.0
C380 C 0.67212 0.16638 0.86711 0.0
C381 C 0.6531 0.18551 0.83213 0.0
C382 C 0.6116 0.11353 0.93962 0.0
N383 N 0.59413 0.13374 0.90937 0.0
H384 H 0.60277 0.18655 0.83429 0.0
H385 H 0.59591 0.08533 0.9807 0.0
H386 H 0.59764 0.18547 0.12369 0.0
H387 H 0.50231 0.08185 0.221 0.0
O388 O 0.53969 0.15917 0.86287 0.0
O389 O 0.48845 0.10711 0.92674 0.0
O390 O 0.52924 0.06531 1.01189 0.0
C391 C 0.5037 0.14131 0.87759 0.0
H392 H 0.47803 0.05802 0.45393 0.0
H393 H 0.59338 0.17718 0.40594 0.0
H394 H 0.6643 0.1136 0.94905 0.0
H395 H 0.66764 0.21347 0.78639 0.0
Co396 Co 0.44251 0.92017 0.1303 0.0
C397 C 0.44932 0.91535 0.43963 0.0
C398 C 0.44804 0.96522 0.38346 0.0
C399 C 0.44344 0.96029 0.52973 0.0
N400 N 0.45231 0.93731 0.327 0.0
N401 N 0.44389 0.92866 0.56331 0.0
H402 H 0.44738 0.88836 0.43055 0.0
H403 H 0.44492 0.98571 0.32142 0.0
C404 C 0.50626 1.00262 0.08364 0.0
O405 O 0.51394 1.01115 0.21939 0.0
N406 N 0.43202 0.90325 0.93442 0.0
C407 C 0.43023 0.87251 0.87487 0.0
C408 C 0.43249 0.87692 0.72797 0.0
C409 C 0.43434 0.92541 0.82374 0.0
N410 N 0.43544 0.91037 0.69739 0.0
C411 C 0.46307 0.86552 0.19848 0.0
C412 C 0.53883 0.90553 0.13727 0.0
C413 C 0.52325 0.86866 0.19005 0.0
C414 C 0.48507 0.84952 0.22489 0.0
C415 C 0.51562 0.92153 0.11768 0.0
N416 N 0.47793 0.90132 0.14779 0.0
H417 H 0.43371 0.8485 0.22268 0.0
H418 H 0.52817 0.94975 0.07673 0.0
H419 H 0.42971 0.8496 0.9334 0.0
H420 H 0.43801 0.95321 0.83608 0.0
O421 O 0.39806 0.87592 0.19425 0.0
O422 O 0.3989 0.92798 0.13028 0.0
O423 O 0.48152 0.96975 0.04516 0.0
C424 C 0.37994 0.89379 0.1795 0.0
H425 H 0.43746 0.97698 0.60311 0.0
H426 H 0.43375 0.8579 0.65115 0.0
H427 H 0.56824 0.92145 0.10835 0.0
H428 H 0.47163 0.82155 0.27053 0.0
Co429 Co 0.1238 0.53097 0.13035 0.0
C430 C 0.12865 0.54258 0.43967 0.0
C431 C 0.07871 0.49148 0.38348 0.0
C432 C 0.08364 0.49181 0.52976 0.0
N433 N 0.10667 0.52363 0.32703 0.0
N434 N 0.11531 0.52386 0.56335 0.0
H435 H 0.15567 0.56761 0.43059 0.0
H436 H 0.05818 0.46788 0.32144 0.0
C437 C 0.04137 0.51232 0.08364 0.0
O438 O 0.03287 0.5116 0.21934 0.0
N439 N 0.1407 0.53739 0.93447 0.0
C440 C 0.17145 0.56635 0.87496 0.0
C441 C 0.16705 0.5642 0.72806 0.0
C442 C 0.11855 0.51755 0.82378 0.0
N443 N 0.13359 0.53369 0.69745 0.0
C444 C 0.17842 0.6062 0.19863 0.0
C445 C 0.13841 0.64192 0.13708 0.0
C446 C 0.17527 0.66324 0.19006 0.0
C447 C 0.1944 0.64421 0.22507 0.0
C448 C 0.12243 0.60271 0.11748 0.0
N449 N 0.14263 0.58524 0.14778 0.0
H450 H 0.19544 0.59388 0.22295 0.0
H451 H 0.09422 0.58702 0.07634 0.0
H452 H 0.19437 0.58874 0.93351 0.0
H453 H 0.09074 0.49342 0.8361 0.0
O454 O 0.16806 0.5308 0.19429 0.0
O455 O 0.11601 0.47956 0.13039 0.0
O456 O 0.0742 0.52035 0.04523 0.0
C457 C 0.1502 0.4948 0.17957 0.0
H458 H 0.0669 0.46914 0.60315 0.0
H459 H 0.18608 0.58448 0.65126 0.0
H460 H 0.1225 0.65541 0.10801 0.0
H461 H 0.22236 0.65875 0.27082 0.0
Co462 Co 0.513 0.60146 0.1304 0.0
C463 C 0.50138 0.59466 0.43972 0.0
C464 C 0.55252 0.59594 0.38357 0.0
C465 C 0.55219 0.60053 0.52984 0.0
N466 N 0.52035 0.59167 0.32709 0.0
N467 N 0.52011 0.60009 0.56341 0.0
H468 H 0.47633 0.59661 0.43062 0.0
H469 H 0.57613 0.59905 0.32154 0.0
C470 C 0.5317 0.53773 0.08365 0.0
O471 O 0.53254 0.53003 0.21937 0.0
N472 N 0.50657 0.61195 0.93452 0.0
C473 C 0.47761 0.61372 0.87497 0.0
C474 C 0.47976 0.61147 0.72807 0.0
C475 C 0.52641 0.60964 0.82385 0.0
N476 N 0.51027 0.60853 0.69749 0.0
C477 C 0.43778 0.58088 0.19856 0.0
C478 C 0.40203 0.50511 0.1374 0.0
C479 C 0.38073 0.52068 0.19019 0.0
C480 C 0.39977 0.55886 0.22502 0.0
C481 C 0.44124 0.52833 0.11779 0.0
N482 N 0.45872 0.56602 0.14787 0.0
H483 H 0.45011 0.61023 0.22274 0.0
H484 H 0.45692 0.51579 0.07684 0.0
H485 H 0.45521 0.61423 0.93349 0.0
H486 H 0.55055 0.60598 0.83619 0.0
O487 O 0.51319 0.6459 0.19436 0.0
O488 O 0.56442 0.6451 0.13042 0.0
O489 O 0.52358 0.56247 0.04524 0.0
C490 C 0.54918 0.66405 0.17962 0.0
H491 H 0.57486 0.60651 0.60323 0.0
H492 H 0.45948 0.6102 0.65124 0.0
H493 H 0.38853 0.47569 0.1085 0.0
H494 H 0.38524 0.5723 0.27065 0.0
Co495 Co 0.59573 0.76696 0.26011 0.0
C496 C 0.59091 0.77377 0.95078 0.0
C497 C 0.64077 0.77247 1.00697 0.0
C498 C 0.63584 0.76787 0.8607 0.0
N499 N 0.61287 0.77675 0.06342 0.0
N500 N 0.60422 0.76833 0.8271 0.0
H501 H 0.56393 0.77184 0.95985 0.0
H502 H 0.66125 0.76934 0.06902 0.0
C503 C 0.67817 0.83071 0.30678 0.0
O504 O 0.6867 0.83837 0.17104 0.0
N505 N 0.57881 0.75647 0.45598 0.0
C506 C 0.54807 0.75469 0.51551 0.0
C507 C 0.55248 0.75694 0.66242 0.0
C508 C 0.60097 0.75879 0.56666 0.0
N509 N 0.58593 0.75989 0.69301 0.0
C510 C 0.54107 0.78751 0.19191 0.0
C511 C 0.58109 0.86328 0.25311 0.0
C512 C 0.54421 0.84769 0.20035 0.0
C513 C 0.52507 0.80952 0.1655 0.0
C514 C 0.59709 0.84007 0.2727 0.0
N515 N 0.57688 0.80238 0.2426 0.0
H516 H 0.52405 0.75815 0.16771 0.0
H517 H 0.62532 0.85262 0.31364 0.0
H518 H 0.52516 0.75417 0.45698 0.0
H519 H 0.62877 0.76247 0.55434 0.0
O520 O 0.55148 0.72251 0.19615 0.0
O521 O 0.60354 0.72335 0.26015 0.0
O522 O 0.64531 0.80598 0.34527 0.0
C523 C 0.56934 0.70438 0.21094 0.0
H524 H 0.65252 0.76188 0.78733 0.0
H525 H 0.53346 0.7582 0.73923 0.0
H526 H 0.59701 0.89269 0.28202 0.0
H527 H 0.4971 0.79607 0.11986 0.0
Co528 Co 0.27702 0.83745 0.26002 0.0
C529 C 0.27023 0.82582 0.9507 0.0
C530 C 0.27147 0.87695 1.00687 0.0
C531 C 0.27607 0.87662 0.8606 0.0
N532 N 0.26722 0.84479 0.06333 0.0
N533 N 0.27564 0.84456 0.82702 0.0
H534 H 0.27218 0.80078 0.95979 0.0
H535 H 0.27458 0.90056 0.06892 0.0
C536 C 0.21327 0.85613 0.30677 0.0
O537 O 0.20555 0.85694 0.17105 0.0
N538 N 0.28751 0.83102 0.45591 0.0
C539 C 0.28929 0.80207 0.51544 0.0
C540 C 0.28703 0.80421 0.66234 0.0
C541 C 0.2852 0.85086 0.56659 0.0
N542 N 0.28409 0.83472 0.69293 0.0
C543 C 0.25643 0.76222 0.19182 0.0
C544 C 0.18067 0.72647 0.2531 0.0
C545 C 0.19624 0.70517 0.2003 0.0
C546 C 0.2344 0.72421 0.16541 0.0
C547 C 0.20389 0.76568 0.27268 0.0
N548 N 0.24158 0.78317 0.24255 0.0
H549 H 0.28578 0.77455 0.1676 0.0
H550 H 0.19136 0.78137 0.31367 0.0
H551 H 0.2898 0.77967 0.45691 0.0
H552 H 0.28153 0.87499 0.55426 0.0
O553 O 0.32145 0.83763 0.19608 0.0
O554 O 0.32065 0.88887 0.26001 0.0
O555 O 0.23803 0.84804 0.34517 0.0
C556 C 0.3396 0.87363 0.21083 0.0
H557 H 0.28203 0.89929 0.78722 0.0
H558 H 0.28576 0.78393 0.73915 0.0
H559 H 0.15126 0.71297 0.28205 0.0
H560 H 0.24784 0.70968 0.11976 0.0
Co561 Co 0.20653 0.44824 0.26014 0.0
C562 C 0.21814 0.45308 0.95083 0.0
C563 C 0.16703 0.40315 1.00696 0.0
C564 C 0.16736 0.40808 0.86069 0.0
N565 N 0.19919 0.4311 0.06344 0.0
N566 N 0.19942 0.43975 0.82713 0.0
H567 H 0.24317 0.4801 0.95993 0.0
H568 H 0.14344 0.38263 0.06899 0.0
C569 C 0.18787 0.36581 0.30682 0.0
O570 O 0.18713 0.3573 0.17111 0.0
N571 N 0.21295 0.46515 0.45603 0.0
C572 C 0.24191 0.49589 0.51557 0.0
C573 C 0.23976 0.49149 0.66247 0.0
C574 C 0.19311 0.44299 0.56669 0.0
N575 N 0.20925 0.45803 0.69305 0.0
C576 C 0.28176 0.50287 0.19191 0.0
C577 C 0.31748 0.46286 0.25339 0.0
C578 C 0.3388 0.49972 0.20046 0.0
C579 C 0.31977 0.51885 0.16547 0.0
C580 C 0.27827 0.44687 0.27298 0.0
N581 N 0.2608 0.46707 0.24272 0.0
H582 H 0.26944 0.51989 0.16762 0.0
H583 H 0.26259 0.41866 0.31408 0.0
H584 H 0.26431 0.51881 0.45704 0.0
H585 H 0.16898 0.41518 0.55435 0.0
O586 O 0.20636 0.4925 0.19622 0.0
O587 O 0.15512 0.44044 0.26008 0.0
O588 O 0.19591 0.39865 0.34524 0.0
C589 C 0.17036 0.47464 0.21094 0.0
H590 H 0.1447 0.39135 0.78728 0.0
H591 H 0.26004 0.51051 0.73929 0.0
H592 H 0.33097 0.44694 0.28243 0.0
H593 H 0.33431 0.54681 0.11973 0.0
loop_
_geom_bond_atom_site_label_1
_geom_bond_atom_site_label_2
_geom_bond_distance
_geom_bond_site_symmetry_2
_ccdc_geom_bond_type
Co0 N4 2.148 . S
Co0 N10 2.128 . S
Co0 N20 2.194 . S
Co0 O25 2.351 . S
Co0 O26 2.155 . S
Co0 O27 2.096 . S
C1 N4 1.301 . S
C1 N5 1.328 . S
C1 H6 0.930 . S
C2 C3 1.333 . S
C2 N4 1.317 . S
C2 H7 0.930 . S
C3 C2 1.333 . S
C3 N5 1.350 . S
C3 H29 0.931 . S
N4 Co0 2.148 . S
N4 C1 1.301 . S
N4 C2 1.317 . S
N5 C1 1.328 . S
N5 C3 1.350 . S
H6 C1 0.930 . S
H7 C2 0.930 . S
C8 O9 1.224 . S
C8 O27 1.247 . S
O9 C8 1.224 . S
N10 Co0 2.128 . S
N10 C11 1.355 . S
N10 C13 1.311 . S
C11 N10 1.355 . S
C11 C12 1.363 . S
C11 H23 0.929 . S
C12 C11 1.363 . S
C12 N14 1.375 . S
C12 H30 0.931 1_554 S
C13 N10 1.311 . S
C13 N14 1.347 . S
C13 H24 0.929 . S
N14 C12 1.375 . S
N14 C13 1.347 . S
C15 C18 1.365 . S
C15 N20 1.328 . S
C15 H21 0.929 . S
C16 C17 1.362 . S
C16 C19 1.378 . S
C16 H31 0.929 . S
C17 C16 1.362 . S
C17 C18 1.366 . S
C18 C15 1.365 . S
C18 C17 1.366 . S
C18 H32 0.930 . S
C19 C16 1.378 . S
C19 N20 1.315 . S
C19 H22 0.930 . S
N20 Co0 2.194 . S
N20 C15 1.328 . S
N20 C19 1.315 . S
H21 C15 0.929 . S
H22 C19 0.930 . S
H23 C11 0.929 . S
H24 C13 0.929 . S
O25 Co0 2.351 . S
O25 C28 1.244 . S
O26 Co0 2.155 . S
O26 C28 1.240 . S
O27 Co0 2.096 . S
O27 C8 1.247 . S
C28 O25 1.244 . S
C28 O26 1.240 . S
H29 C3 0.931 . S
H30 C12 0.931 1_556 S
H31 C16 0.929 . S
H32 C18 0.930 . S
Co33 N37 2.148 . S
Co33 N43 2.128 . S
Co33 N53 2.194 . S
Co33 O58 2.351 . S
Co33 O59 2.155 . S
Co33 O60 2.096 . S
C34 N37 1.301 . S
C34 N38 1.328 . S
C34 H39 0.930 . S
C35 C36 1.333 . S
C35 N37 1.317 . S
C35 H40 0.930 . S
C36 C35 1.333 . S
C36 N38 1.350 . S
C36 H62 0.931 . S
N37 Co33 2.148 . S
N37 C34 1.301 . S
N37 C35 1.317 . S
N38 C34 1.328 . S
N38 C36 1.350 . S
H39 C34 0.930 . S
H40 C35 0.930 . S
C41 O42 1.224 . S
C41 O60 1.247 . S
O42 C41 1.224 . S
N43 Co33 2.128 . S
N43 C44 1.355 . S
N43 C46 1.311 . S
C44 N43 1.355 . S
C44 C45 1.363 . S
C44 H56 0.929 . S
C45 C44 1.363 . S
C45 N47 1.375 . S
C45 H63 0.931 1_554 S
C46 N43 1.311 . S
C46 N47 1.347 . S
C46 H57 0.929 . S
N47 C45 1.375 . S
N47 C46 1.347 . S
C48 C51 1.365 . S
C48 N53 1.328 . S
C48 H54 0.929 . S
C49 C50 1.362 . S
C49 C52 1.378 . S
C49 H64 0.929 . S
C50 C49 1.362 . S
C50 C51 1.366 . S
C51 C48 1.365 . S
C51 C50 1.366 . S
C51 H65 0.930 . S
C52 C49 1.378 . S
C52 N53 1.315 . S
C52 H55 0.930 . S
N53 Co33 2.194 . S
N53 C48 1.328 . S
N53 C52 1.315 . S
H54 C48 0.929 . S
H55 C52 0.930 . S
H56 C44 0.929 . S
H57 C46 0.929 . S
O58 Co33 2.351 . S
O58 C61 1.244 . S
O59 Co33 2.155 . S
O59 C61 1.240 . S
O60 Co33 2.096 . S
O60 C41 1.247 . S
C61 O58 1.244 . S
C61 O59 1.240 . S
H62 C36 0.931 . S
H63 C45 0.931 1_556 S
H64 C49 0.929 . S
H65 C51 0.930 . S
Co66 N70 2.148 . S
Co66 N76 2.128 . S
Co66 N86 2.194 . S
Co66 O91 2.351 . S
Co66 O92 2.155 . S
Co66 O93 2.096 . S
C67 N70 1.301 . S
C67 N71 1.328 . S
C67 H72 0.930 . S
C68 C69 1.333 . S
C68 N70 1.317 . S
C68 H73 0.930 . S
C69 C68 1.333 . S
C69 N71 1.350 . S
C69 H95 0.931 . S
N70 Co66 2.148 . S
N70 C67 1.301 . S
N70 C68 1.317 . S
N71 C67 1.328 . S
N71 C69 1.350 . S
H72 C67 0.930 . S
H73 C68 0.930 . S
C74 O75 1.224 . S
C74 O93 1.247 . S
O75 C74 1.224 . S
N76 Co66 2.128 . S
N76 C77 1.355 . S
N76 C79 1.311 . S
C77 N76 1.355 . S
C77 C78 1.363 . S
C77 H89 0.929 . S
C78 C77 1.363 . S
C78 N80 1.375 . S
C78 H96 0.931 1_554 S
C79 N76 1.311 . S
C79 N80 1.347 . S
C79 H90 0.929 . S
N80 C78 1.375 . S
N80 C79 1.347 . S
C81 C84 1.365 . S
C81 N86 1.328 . S
C81 H87 0.929 . S
C82 C83 1.362 . S
C82 C85 1.378 . S
C82 H97 0.929 . S
C83 C82 1.362 . S
C83 C84 1.366 . S
C84 C81 1.365 . S
C84 C83 1.366 . S
C84 H98 0.930 . S
C85 C82 1.378 . S
C85 N86 1.315 . S
C85 H88 0.930 . S
N86 Co66 2.194 . S
N86 C81 1.328 . S
N86 C85 1.315 . S
H87 C81 0.929 . S
H88 C85 0.930 . S
H89 C77 0.929 . S
H90 C79 0.929 . S
O91 Co66 2.351 . S
O91 C94 1.244 . S
O92 Co66 2.155 . S
O92 C94 1.240 . S
O93 Co66 2.096 . S
O93 C74 1.247 . S
C94 O91 1.244 . S
C94 O92 1.240 . S
H95 C69 0.931 . S
H96 C78 0.931 1_556 S
H97 C82 0.929 . S
H98 C84 0.930 . S
Co99 N103 2.148 . S
Co99 N109 2.128 . S
Co99 N119 2.194 . S
Co99 O124 2.351 . S
Co99 O125 2.155 . S
Co99 O126 2.096 . S
C100 N103 1.301 . S
C100 N104 1.328 . S
C100 H105 0.930 . S
C101 C102 1.333 . S
C101 N103 1.317 . S
C101 H106 0.930 . S
C102 C101 1.333 . S
C102 N104 1.350 . S
C102 H128 0.931 . S
N103 Co99 2.148 . S
N103 C100 1.301 . S
N103 C101 1.317 . S
N104 C100 1.328 . S
N104 C102 1.350 . S
H105 C100 0.930 . S
H106 C101 0.930 . S
C107 O108 1.224 . S
C107 O126 1.247 . S
O108 C107 1.224 . S
N109 Co99 2.128 . S
N109 C110 1.355 . S
N109 C112 1.311 . S
C110 N109 1.355 . S
C110 C111 1.363 . S
C110 H122 0.929 . S
C111 C110 1.363 . S
C111 N113 1.375 . S
C111 H129 0.931 1_556 S
C112 N109 1.311 . S
C112 N113 1.347 . S
C112 H123 0.929 . S
N113 C111 1.375 . S
N113 C112 1.347 . S
C114 C117 1.365 . S
C114 N119 1.328 . S
C114 H120 0.929 . S
C115 C116 1.362 . S
C115 C118 1.378 . S
C115 H130 0.929 . S
C116 C115 1.362 . S
C116 C117 1.366 . S
C117 C114 1.365 . S
C117 C116 1.366 . S
C117 H131 0.930 . S
C118 C115 1.378 . S
C118 N119 1.315 . S
C118 H121 0.930 . S
N119 Co99 2.194 . S
N119 C114 1.328 . S
N119 C118 1.315 . S
H120 C114 0.929 . S
H121 C118 0.930 . S
H122 C110 0.929 . S
H123 C112 0.929 . S
O124 Co99 2.351 . S
O124 C127 1.244 . S
O125 Co99 2.155 . S
O125 C127 1.240 . S
O126 Co99 2.096 . S
O126 C107 1.247 . S
C127 O124 1.244 . S
C127 O125 1.240 . S
H128 C102 0.931 . S
H129 C111 0.931 1_554 S
H130 C115 0.929 . S
H131 C117 0.930 . S
Co132 N136 2.148 . S
Co132 N142 2.128 . S
Co132 N152 2.194 . S
Co132 O157 2.351 . S
Co132 O158 2.155 . S
Co132 O159 2.096 . S
C133 N136 1.301 . S
C133 N137 1.328 . S
C133 H138 0.930 . S
C134 C135 1.333 . S
C134 N136 1.317 . S
C134 H139 0.930 . S
C135 C134 1.333 . S
C135 N137 1.350 . S
C135 H161 0.931 . S
N136 Co132 2.148 . S
N136 C133 1.301 . S
N136 C134 1.317 . S
N137 C133 1.328 . S
N137 C135 1.350 . S
H138 C133 0.930 . S
H139 C134 0.930 . S
C140 O141 1.224 . S
C140 O159 1.247 . S
O141 C140 1.224 . S
N142 Co132 2.128 . S
N142 C143 1.355 . S
N142 C145 1.311 . S
C143 N142 1.355 . S
C143 C144 1.363 . S
C143 H155 0.929 . S
C144 C143 1.363 . S
C144 N146 1.375 . S
C144 H162 0.931 1_556 S
C145 N142 1.311 . S
C145 N146 1.347 . S
C145 H156 0.929 . S
N146 C144 1.375 . S
N146 C145 1.347 . S
C147 C150 1.365 . S
C147 N152 1.328 . S
C147 H153 0.929 . S
C148 C149 1.362 . S
C148 C151 1.378 . S
C148 H163 0.929 . S
C149 C148 1.362 . S
C149 C150 1.366 . S
C150 C147 1.365 . S
C150 C149 1.366 . S
C150 H164 0.930 . S
C151 C148 1.378 . S
C151 N152 1.315 . S
C151 H154 0.930 . S
N152 Co132 2.194 . S
N152 C147 1.328 . S
N152 C151 1.315 . S
H153 C147 0.929 . S
H154 C151 0.930 . S
H155 C143 0.929 . S
H156 C145 0.929 . S
O157 Co132 2.351 . S
O157 C160 1.244 . S
O158 Co132 2.155 . S
O158 C160 1.240 . S
O159 Co132 2.096 . S
O159 C140 1.247 . S
C160 O157 1.244 . S
C160 O158 1.240 . S
H161 C135 0.931 . S
H162 C144 0.931 1_554 S
H163 C148 0.929 . S
H164 C150 0.930 . S
Co165 N169 2.148 . S
Co165 N175 2.128 . S
Co165 N185 2.194 . S
Co165 O190 2.351 . S
Co165 O191 2.155 . S
Co165 O192 2.096 . S
C166 N169 1.301 . S
C166 N170 1.328 . S
C166 H171 0.930 . S
C167 C168 1.333 . S
C167 N169 1.317 . S
C167 H172 0.930 . S
C168 C167 1.333 . S
C168 N170 1.350 . S
C168 H194 0.931 . S
N169 Co165 2.148 . S
N169 C166 1.301 . S
N169 C167 1.317 . S
N170 C166 1.328 . S
N170 C168 1.350 . S
H171 C166 0.930 . S
H172 C167 0.930 . S
C173 O174 1.224 . S
C173 O192 1.247 . S
O174 C173 1.224 . S
N175 Co165 2.128 . S
N175 C176 1.355 . S
N175 C178 1.311 . S
C176 N175 1.355 . S
C176 C177 1.363 . S
C176 H188 0.929 . S
C177 C176 1.363 . S
C177 N179 1.375 . S
C177 H195 0.931 1_556 S
C178 N175 1.311 . S
C178 N179 1.347 . S
C178 H189 0.929 . S
N179 C177 1.375 . S
N179 C178 1.347 . S
C180 C183 1.365 . S
C180 N185 1.328 . S
C180 H186 0.929 . S
C181 C182 1.362 . S
C181 C184 1.378 . S
C181 H196 0.929 . S
C182 C181 1.362 . S
C182 C183 1.366 . S
C183 C180 1.365 . S
C183 C182 1.366 . S
C183 H197 0.930 . S
C184 C181 1.378 . S
C184 N185 1.315 . S
C184 H187 0.930 . S
N185 Co165 2.194 . S
N185 C180 1.328 . S
N185 C184 1.315 . S
H186 C180 0.929 . S
H187 C184 0.930 . S
H188 C176 0.929 . S
H189 C178 0.929 . S
O190 Co165 2.351 . S
O190 C193 1.244 . S
O191 Co165 2.155 . S
O191 C193 1.240 . S
O192 Co165 2.096 . S
O192 C173 1.247 . S
C193 O190 1.244 . S
C193 O191 1.240 . S
H194 C168 0.931 . S
H195 C177 0.931 1_554 S
H196 C181 0.929 . S
H197 C183 0.930 . S
Co198 N202 2.148 . S
Co198 N208 2.128 . S
Co198 N218 2.194 . S
Co198 O223 2.351 . S
Co198 O224 2.155 . S
Co198 O225 2.096 . S
C199 N202 1.301 1_554 S
C199 N203 1.328 . S
C199 H204 0.930 . S
C200 C201 1.333 . S
C200 N202 1.317 1_554 S
C200 H205 0.930 1_554 S
C201 C200 1.333 . S
C201 N203 1.350 . S
C201 H227 0.931 . S
N202 Co198 2.148 . S
N202 C199 1.301 1_556 S
N202 C200 1.317 1_556 S
N203 C199 1.328 . S
N203 C201 1.350 . S
H204 C199 0.930 . S
H205 C200 0.930 1_556 S
C206 O207 1.224 . S
C206 O225 1.247 . S
O207 C206 1.224 . S
N208 Co198 2.128 . S
N208 C209 1.355 . S
N208 C211 1.311 . S
C209 N208 1.355 . S
C209 C210 1.363 . S
C209 H221 0.929 . S
C210 C209 1.363 . S
C210 N212 1.375 . S
C210 H228 0.931 . S
C211 N208 1.311 . S
C211 N212 1.347 . S
C211 H222 0.929 . S
N212 C210 1.375 . S
N212 C211 1.347 . S
C213 C216 1.365 . S
C213 N218 1.328 . S
C213 H219 0.929 . S
C214 C215 1.362 . S
C214 C217 1.378 . S
C214 H229 0.929 . S
C215 C214 1.362 . S
C215 C216 1.366 . S
C216 C213 1.365 . S
C216 C215 1.366 . S
C216 H230 0.930 . S
C217 C214 1.378 . S
C217 N218 1.315 . S
C217 H220 0.930 . S
N218 Co198 2.194 . S
N218 C213 1.328 . S
N218 C217 1.315 . S
H219 C213 0.929 . S
H220 C217 0.930 . S
H221 C209 0.929 . S
H222 C211 0.929 . S
O223 Co198 2.351 . S
O223 C226 1.244 . S
O224 Co198 2.155 . S
O224 C226 1.240 . S
O225 Co198 2.096 . S
O225 C206 1.247 . S
C226 O223 1.244 . S
C226 O224 1.240 . S
H227 C201 0.931 . S
H228 C210 0.931 . S
H229 C214 0.929 . S
H230 C216 0.930 . S
Co231 N235 2.148 . S
Co231 N241 2.128 . S
Co231 N251 2.194 . S
Co231 O256 2.351 . S
Co231 O257 2.155 . S
Co231 O258 2.096 . S
C232 N235 1.301 1_554 S
C232 N236 1.328 . S
C232 H237 0.930 . S
C233 C234 1.333 . S
C233 N235 1.317 1_554 S
C233 H238 0.930 1_554 S
C234 C233 1.333 . S
C234 N236 1.350 . S
C234 H260 0.931 . S
N235 Co231 2.148 . S
N235 C232 1.301 1_556 S
N235 C233 1.317 1_556 S
N236 C232 1.328 . S
N236 C234 1.350 . S
H237 C232 0.930 . S
H238 C233 0.930 1_556 S
C239 O240 1.224 . S
C239 O258 1.247 . S
O240 C239 1.224 . S
N241 Co231 2.128 . S
N241 C242 1.355 . S
N241 C244 1.311 . S
C242 N241 1.355 . S
C242 C243 1.363 . S
C242 H254 0.929 . S
C243 C242 1.363 . S
C243 N245 1.375 . S
C243 H261 0.931 . S
C244 N241 1.311 . S
C244 N245 1.347 . S
C244 H255 0.929 . S
N245 C243 1.375 . S
N245 C244 1.347 . S
C246 C249 1.365 . S
C246 N251 1.328 . S
C246 H252 0.929 . S
C247 C248 1.362 . S
C247 C250 1.378 . S
C247 H262 0.929 . S
C248 C247 1.362 . S
C248 C249 1.366 . S
C249 C246 1.365 . S
C249 C248 1.366 . S
C249 H263 0.930 . S
C250 C247 1.378 . S
C250 N251 1.315 . S
C250 H253 0.930 . S
N251 Co231 2.194 . S
N251 C246 1.328 . S
N251 C250 1.315 . S
H252 C246 0.929 . S
H253 C250 0.930 . S
H254 C242 0.929 . S
H255 C244 0.929 . S
O256 Co231 2.351 . S
O256 C259 1.244 . S
O257 Co231 2.155 . S
O257 C259 1.240 . S
O258 Co231 2.096 . S
O258 C239 1.247 . S
C259 O256 1.244 . S
C259 O257 1.240 . S
H260 C234 0.931 . S
H261 C243 0.931 . S
H262 C247 0.929 . S
H263 C249 0.930 . S
Co264 N268 2.148 . S
Co264 N274 2.128 . S
Co264 N284 2.194 . S
Co264 O289 2.351 . S
Co264 O290 2.155 . S
Co264 O291 2.096 . S
C265 N268 1.301 1_554 S
C265 N269 1.328 . S
C265 H270 0.930 . S
C266 C267 1.333 . S
C266 N268 1.317 1_554 S
C266 H271 0.930 1_554 S
C267 C266 1.333 . S
C267 N269 1.350 . S
C267 H293 0.931 . S
N268 Co264 2.148 . S
N268 C265 1.301 1_556 S
N268 C266 1.317 1_556 S
N269 C265 1.328 . S
N269 C267 1.350 . S
H270 C265 0.930 . S
H271 C266 0.930 1_556 S
C272 O273 1.224 . S
C272 O291 1.247 . S
O273 C272 1.224 . S
N274 Co264 2.128 . S
N274 C275 1.355 . S
N274 C277 1.311 . S
C275 N274 1.355 . S
C275 C276 1.363 . S
C275 H287 0.929 . S
C276 C275 1.363 . S
C276 N278 1.375 . S
C276 H294 0.931 . S
C277 N274 1.311 . S
C277 N278 1.347 . S
C277 H288 0.929 . S
N278 C276 1.375 . S
N278 C277 1.347 . S
C279 C282 1.365 . S
C279 N284 1.328 . S
C279 H285 0.929 . S
C280 C281 1.362 . S
C280 C283 1.378 . S
C280 H295 0.929 . S
C281 C280 1.362 . S
C281 C282 1.366 . S
C282 C279 1.365 . S
C282 C281 1.366 . S
C282 H296 0.930 . S
C283 C280 1.378 . S
C283 N284 1.315 . S
C283 H286 0.930 . S
N284 Co264 2.194 . S
N284 C279 1.328 . S
N284 C283 1.315 . S
H285 C279 0.929 . S
H286 C283 0.930 . S
H287 C275 0.929 . S
H288 C277 0.929 . S
O289 Co264 2.351 . S
O289 C292 1.244 . S
O290 Co264 2.155 . S
O290 C292 1.240 . S
O291 Co264 2.096 . S
O291 C272 1.247 . S
C292 O289 1.244 . S
C292 O290 1.240 . S
H293 C267 0.931 . S
H294 C276 0.931 . S
H295 C280 0.929 . S
H296 C282 0.930 . S
Co297 N301 2.148 . S
Co297 N307 2.128 1_556 S
Co297 N317 2.194 . S
Co297 O322 2.351 . S
Co297 O323 2.155 . S
Co297 O324 2.096 . S
C298 N301 1.301 . S
C298 N302 1.328 . S
C298 H303 0.930 . S
C299 C300 1.333 . S
C299 N301 1.317 . S
C299 H304 0.930 . S
C300 C299 1.333 . S
C300 N302 1.350 . S
C300 H326 0.931 . S
N301 Co297 2.148 . S
N301 C298 1.301 . S
N301 C299 1.317 . S
N302 C298 1.328 . S
N302 C300 1.350 . S
H303 C298 0.930 . S
H304 C299 0.930 . S
C305 O306 1.224 . S
C305 O324 1.247 . S
O306 C305 1.224 . S
N307 Co297 2.128 1_554 S
N307 C308 1.355 . S
N307 C310 1.311 . S
C308 N307 1.355 . S
C308 C309 1.363 . S
C308 H320 0.929 . S
C309 C308 1.363 . S
C309 N311 1.375 . S
C309 H327 0.931 . S
C310 N307 1.311 . S
C310 N311 1.347 . S
C310 H321 0.929 . S
N311 C309 1.375 . S
N311 C310 1.347 . S
C312 C315 1.365 . S
C312 N317 1.328 . S
C312 H318 0.929 . S
C313 C314 1.362 . S
C313 C316 1.378 . S
C313 H328 0.929 . S
C314 C313 1.362 . S
C314 C315 1.366 . S
C315 C312 1.365 . S
C315 C314 1.366 . S
C315 H329 0.930 . S
C316 C313 1.378 . S
C316 N317 1.315 . S
C316 H319 0.930 . S
N317 Co297 2.194 . S
N317 C312 1.328 . S
N317 C316 1.315 . S
H318 C312 0.929 . S
H319 C316 0.930 . S
H320 C308 0.929 . S
H321 C310 0.929 . S
O322 Co297 2.351 . S
O322 C325 1.244 . S
O323 Co297 2.155 . S
O323 C325 1.240 . S
O324 Co297 2.096 . S
O324 C305 1.247 . S
C325 O322 1.244 . S
C325 O323 1.240 . S
H326 C300 0.931 . S
H327 C309 0.931 . S
H328 C313 0.929 . S
H329 C315 0.930 . S
Co330 N334 2.148 . S
Co330 N340 2.128 1_556 S
Co330 N350 2.194 . S
Co330 O355 2.351 . S
Co330 O356 2.155 . S
Co330 O357 2.096 . S
C331 N334 1.301 . S
C331 N335 1.328 . S
C331 H336 0.930 . S
C332 C333 1.333 . S
C332 N334 1.317 . S
C332 H337 0.930 . S
C333 C332 1.333 . S
C333 N335 1.350 . S
C333 H359 0.931 . S
N334 Co330 2.148 . S
N334 C331 1.301 . S
N334 C332 1.317 . S
N335 C331 1.328 . S
N335 C333 1.350 . S
H336 C331 0.930 . S
H337 C332 0.930 . S
C338 O339 1.224 . S
C338 O357 1.247 . S
O339 C338 1.224 . S
N340 Co330 2.128 1_554 S
N340 C341 1.355 . S
N340 C343 1.311 . S
C341 N340 1.355 . S
C341 C342 1.363 . S
C341 H353 0.929 . S
C342 C341 1.363 . S
C342 N344 1.375 . S
C342 H360 0.931 . S
C343 N340 1.311 . S
C343 N344 1.347 . S
C343 H354 0.929 . S
N344 C342 1.375 . S
N344 C343 1.347 . S
C345 C348 1.365 . S
C345 N350 1.328 . S
C345 H351 0.929 . S
C346 C347 1.362 . S
C346 C349 1.378 . S
C346 H361 0.929 . S
C347 C346 1.362 . S
C347 C348 1.366 . S
C348 C345 1.365 . S
C348 C347 1.366 . S
C348 H362 0.930 . S
C349 C346 1.378 . S
C349 N350 1.315 . S
C349 H352 0.930 . S
N350 Co330 2.194 . S
N350 C345 1.328 . S
N350 C349 1.315 . S
H351 C345 0.929 . S
H352 C349 0.930 . S
H353 C341 0.929 . S
H354 C343 0.929 . S
O355 Co330 2.351 . S
O355 C358 1.244 . S
O356 Co330 2.155 . S
O356 C358 1.240 . S
O357 Co330 2.096 . S
O357 C338 1.247 . S
C358 O355 1.244 . S
C358 O356 1.240 . S
H359 C333 0.931 . S
H360 C342 0.931 . S
H361 C346 0.929 . S
H362 C348 0.930 . S
Co363 N367 2.148 . S
Co363 N373 2.128 1_556 S
Co363 N383 2.194 . S
Co363 O388 2.351 . S
Co363 O389 2.155 . S
Co363 O390 2.096 . S
C364 N367 1.301 . S
C364 N368 1.328 . S
C364 H369 0.930 . S
C365 C366 1.333 . S
C365 N367 1.317 . S
C365 H370 0.930 . S
C366 C365 1.333 . S
C366 N368 1.350 . S
C366 H392 0.931 . S
N367 Co363 2.148 . S
N367 C364 1.301 . S
N367 C365 1.317 . S
N368 C364 1.328 . S
N368 C366 1.350 . S
H369 C364 0.930 . S
H370 C365 0.930 . S
C371 O372 1.224 . S
C371 O390 1.247 . S
O372 C371 1.224 . S
N373 Co363 2.128 1_554 S
N373 C374 1.355 . S
N373 C376 1.311 . S
C374 N373 1.355 . S
C374 C375 1.363 . S
C374 H386 0.929 . S
C375 C374 1.363 . S
C375 N377 1.375 . S
C375 H393 0.931 . S
C376 N373 1.311 . S
C376 N377 1.347 . S
C376 H387 0.929 . S
N377 C375 1.375 . S
N377 C376 1.347 . S
C378 C381 1.365 . S
C378 N383 1.328 . S
C378 H384 0.929 . S
C379 C380 1.362 . S
C379 C382 1.378 . S
C379 H394 0.929 . S
C380 C379 1.362 . S
C380 C381 1.366 . S
C381 C378 1.365 . S
C381 C380 1.366 . S
C381 H395 0.930 . S
C382 C379 1.378 . S
C382 N383 1.315 . S
C382 H385 0.930 . S
N383 Co363 2.194 . S
N383 C378 1.328 . S
N383 C382 1.315 . S
H384 C378 0.929 . S
H385 C382 0.930 . S
H386 C374 0.929 . S
H387 C376 0.929 . S
O388 Co363 2.351 . S
O388 C391 1.244 . S
O389 Co363 2.155 . S
O389 C391 1.240 . S
O390 Co363 2.096 . S
O390 C371 1.247 . S
C391 O388 1.244 . S
C391 O389 1.240 . S
H392 C366 0.931 . S
H393 C375 0.931 . S
H394 C379 0.929 . S
H395 C381 0.930 . S
Co396 N400 2.148 . S
Co396 N406 2.128 1_554 S
Co396 N416 2.194 . S
Co396 O421 2.351 . S
Co396 O422 2.155 . S
Co396 O423 2.096 . S
C397 N400 1.301 . S
C397 N401 1.328 . S
C397 H402 0.930 . S
C398 C399 1.333 . S
C398 N400 1.317 . S
C398 H403 0.930 . S
C399 C398 1.333 . S
C399 N401 1.350 . S
C399 H425 0.931 . S
N400 Co396 2.148 . S
N400 C397 1.301 . S
N400 C398 1.317 . S
N401 C397 1.328 . S
N401 C399 1.350 . S
H402 C397 0.930 . S
H403 C398 0.930 . S
C404 O405 1.224 . S
C404 O423 1.247 . S
O405 C404 1.224 . S
N406 Co396 2.128 1_556 S
N406 C407 1.355 . S
N406 C409 1.311 . S
C407 N406 1.355 . S
C407 C408 1.363 . S
C407 H419 0.929 . S
C408 C407 1.363 . S
C408 N410 1.375 . S
C408 H426 0.931 . S
C409 N406 1.311 . S
C409 N410 1.347 . S
C409 H420 0.929 . S
N410 C408 1.375 . S
N410 C409 1.347 . S
C411 C414 1.365 . S
C411 N416 1.328 . S
C411 H417 0.929 . S
C412 C413 1.362 . S
C412 C415 1.378 . S
C412 H427 0.929 . S
C413 C412 1.362 . S
C413 C414 1.366 . S
C414 C411 1.365 . S
C414 C413 1.366 . S
C414 H428 0.930 . S
C415 C412 1.378 . S
C415 N416 1.315 . S
C415 H418 0.930 . S
N416 Co396 2.194 . S
N416 C411 1.328 . S
N416 C415 1.315 . S
H417 C411 0.929 . S
H418 C415 0.930 . S
H419 C407 0.929 . S
H420 C409 0.929 . S
O421 Co396 2.351 . S
O421 C424 1.244 . S
O422 Co396 2.155 . S
O422 C424 1.240 . S
O423 Co396 2.096 . S
O423 C404 1.247 . S
C424 O421 1.244 . S
C424 O422 1.240 . S
H425 C399 0.931 . S
H426 C408 0.931 . S
H427 C412 0.929 . S
H428 C414 0.930 . S
Co429 N433 2.148 . S
Co429 N439 2.128 1_554 S
Co429 N449 2.194 . S
Co429 O454 2.351 . S
Co429 O455 2.155 . S
Co429 O456 2.096 . S
C430 N433 1.301 . S
C430 N434 1.328 . S
C430 H435 0.930 . S
C431 C432 1.333 . S
C431 N433 1.317 . S
C431 H436 0.930 . S
C432 C431 1.333 . S
C432 N434 1.350 . S
C432 H458 0.931 . S
N433 Co429 2.148 . S
N433 C430 1.301 . S
N433 C431 1.317 . S
N434 C430 1.328 . S
N434 C432 1.350 . S
H435 C430 0.930 . S
H436 C431 0.930 . S
C437 O438 1.224 . S
C437 O456 1.247 . S
O438 C437 1.224 . S
N439 Co429 2.128 1_556 S
N439 C440 1.355 . S
N439 C442 1.311 . S
C440 N439 1.355 . S
C440 C441 1.363 . S
C440 H452 0.929 . S
C441 C440 1.363 . S
C441 N443 1.375 . S
C441 H459 0.931 . S
C442 N439 1.311 . S
C442 N443 1.347 . S
C442 H453 0.929 . S
N443 C441 1.375 . S
N443 C442 1.347 . S
C444 C447 1.365 . S
C444 N449 1.328 . S
C444 H450 0.929 . S
C445 C446 1.362 . S
C445 C448 1.378 . S
C445 H460 0.929 . S
C446 C445 1.362 . S
C446 C447 1.366 . S
C447 C444 1.365 . S
C447 C446 1.366 . S
C447 H461 0.930 . S
C448 C445 1.378 . S
C448 N449 1.315 . S
C448 H451 0.930 . S
N449 Co429 2.194 . S
N449 C444 1.328 . S
N449 C448 1.315 . S
H450 C444 0.929 . S
H451 C448 0.930 . S
H452 C440 0.929 . S
H453 C442 0.929 . S
O454 Co429 2.351 . S
O454 C457 1.244 . S
O455 Co429 2.155 . S
O455 C457 1.240 . S
O456 Co429 2.096 . S
O456 C437 1.247 . S
C457 O454 1.244 . S
C457 O455 1.240 . S
H458 C432 0.931 . S
H459 C441 0.931 . S
H460 C445 0.929 . S
H461 C447 0.930 . S
Co462 N466 2.148 . S
Co462 N472 2.128 1_554 S
Co462 N482 2.194 . S
Co462 O487 2.351 . S
Co462 O488 2.155 . S
Co462 O489 2.096 . S
C463 N466 1.301 . S
C463 N467 1.328 . S
C463 H468 0.930 . S
C464 C465 1.333 . S
C464 N466 1.317 . S
C464 H469 0.930 . S
C465 C464 1.333 . S
C465 N467 1.350 . S
C465 H491 0.931 . S
N466 Co462 2.148 . S
N466 C463 1.301 . S
N466 C464 1.317 . S
N467 C463 1.328 . S
N467 C465 1.350 . S
H468 C463 0.930 . S
H469 C464 0.930 . S
C470 O471 1.224 . S
C470 O489 1.247 . S
O471 C470 1.224 . S
N472 Co462 2.128 1_556 S
N472 C473 1.355 . S
N472 C475 1.311 . S
C473 N472 1.355 . S
C473 C474 1.363 . S
C473 H485 0.929 . S
C474 C473 1.363 . S
C474 N476 1.375 . S
C474 H492 0.931 . S
C475 N472 1.311 . S
C475 N476 1.347 . S
C475 H486 0.929 . S
N476 C474 1.375 . S
N476 C475 1.347 . S
C477 C480 1.365 . S
C477 N482 1.328 . S
C477 H483 0.929 . S
C478 C479 1.362 . S
C478 C481 1.378 . S
C478 H493 0.929 . S
C479 C478 1.362 . S
C479 C480 1.366 . S
C480 C477 1.365 . S
C480 C479 1.366 . S
C480 H494 0.930 . S
C481 C478 1.378 . S
C481 N482 1.315 . S
C481 H484 0.930 . S
N482 Co462 2.194 . S
N482 C477 1.328 . S
N482 C481 1.315 . S
H483 C477 0.929 . S
H484 C481 0.930 . S
H485 C473 0.929 . S
H486 C475 0.929 . S
O487 Co462 2.351 . S
O487 C490 1.244 . S
O488 Co462 2.155 . S
O488 C490 1.240 . S
O489 Co462 2.096 . S
O489 C470 1.247 . S
C490 O487 1.244 . S
C490 O488 1.240 . S
H491 C465 0.931 . S
H492 C474 0.931 . S
H493 C478 0.929 . S
H494 C480 0.930 . S
Co495 N499 2.148 . S
Co495 N505 2.128 . S
Co495 N515 2.194 . S
Co495 O520 2.351 . S
Co495 O521 2.155 . S
Co495 O522 2.096 . S
C496 N499 1.301 1_556 S
C496 N500 1.328 . S
C496 H501 0.930 . S
C497 C498 1.333 . S
C497 N499 1.317 1_556 S
C497 H502 0.930 1_556 S
C498 C497 1.333 . S
C498 N500 1.350 . S
C498 H524 0.931 . S
N499 Co495 2.148 . S
N499 C496 1.301 1_554 S
N499 C497 1.317 1_554 S
N500 C496 1.328 . S
N500 C498 1.350 . S
H501 C496 0.930 . S
H502 C497 0.930 1_554 S
C503 O504 1.224 . S
C503 O522 1.247 . S
O504 C503 1.224 . S
N505 Co495 2.128 . S
N505 C506 1.355 . S
N505 C508 1.311 . S
C506 N505 1.355 . S
C506 C507 1.363 . S
C506 H518 0.929 . S
C507 C506 1.363 . S
C507 N509 1.375 . S
C507 H525 0.931 . S
C508 N505 1.311 . S
C508 N509 1.347 . S
C508 H519 0.929 . S
N509 C507 1.375 . S
N509 C508 1.347 . S
C510 C513 1.365 . S
C510 N515 1.328 . S
C510 H516 0.929 . S
C511 C512 1.362 . S
C511 C514 1.378 . S
C511 H526 0.929 . S
C512 C511 1.362 . S
C512 C513 1.366 . S
C513 C510 1.365 . S
C513 C512 1.366 . S
C513 H527 0.930 . S
C514 C511 1.378 . S
C514 N515 1.315 . S
C514 H517 0.930 . S
N515 Co495 2.194 . S
N515 C510 1.328 . S
N515 C514 1.315 . S
H516 C510 0.929 . S
H517 C514 0.930 . S
H518 C506 0.929 . S
H519 C508 0.929 . S
O520 Co495 2.351 . S
O520 C523 1.244 . S
O521 Co495 2.155 . S
O521 C523 1.240 . S
O522 Co495 2.096 . S
O522 C503 1.247 . S
C523 O520 1.244 . S
C523 O521 1.240 . S
H524 C498 0.931 . S
H525 C507 0.931 . S
H526 C511 0.929 . S
H527 C513 0.930 . S
Co528 N532 2.148 . S
Co528 N538 2.128 . S
Co528 N548 2.194 . S
Co528 O553 2.351 . S
Co528 O554 2.155 . S
Co528 O555 2.096 . S
C529 N532 1.301 1_556 S
C529 N533 1.328 . S
C529 H534 0.930 . S
C530 C531 1.333 . S
C530 N532 1.317 1_556 S
C530 H535 0.930 1_556 S
C531 C530 1.333 . S
C531 N533 1.350 . S
C531 H557 0.931 . S
N532 Co528 2.148 . S
N532 C529 1.301 1_554 S
N532 C530 1.317 1_554 S
N533 C529 1.328 . S
N533 C531 1.350 . S
H534 C529 0.930 . S
H535 C530 0.930 1_554 S
C536 O537 1.224 . S
C536 O555 1.247 . S
O537 C536 1.224 . S
N538 Co528 2.128 . S
N538 C539 1.355 . S
N538 C541 1.311 . S
C539 N538 1.355 . S
C539 C540 1.363 . S
C539 H551 0.929 . S
C540 C539 1.363 . S
C540 N542 1.375 . S
C540 H558 0.931 . S
C541 N538 1.311 . S
C541 N542 1.347 . S
C541 H552 0.929 . S
N542 C540 1.375 . S
N542 C541 1.347 . S
C543 C546 1.365 . S
C543 N548 1.328 . S
C543 H549 0.929 . S
C544 C545 1.362 . S
C544 C547 1.378 . S
C544 H559 0.929 . S
C545 C544 1.362 . S
C545 C546 1.366 . S
C546 C543 1.365 . S
C546 C545 1.366 . S
C546 H560 0.930 . S
C547 C544 1.378 . S
C547 N548 1.315 . S
C547 H550 0.930 . S
N548 Co528 2.194 . S
N548 C543 1.328 . S
N548 C547 1.315 . S
H549 C543 0.929 . S
H550 C547 0.930 . S
H551 C539 0.929 . S
H552 C541 0.929 . S
O553 Co528 2.351 . S
O553 C556 1.244 . S
O554 Co528 2.155 . S
O554 C556 1.240 . S
O555 Co528 2.096 . S
O555 C536 1.247 . S
C556 O553 1.244 . S
C556 O554 1.240 . S
H557 C531 0.931 . S
H558 C540 0.931 . S
H559 C544 0.929 . S
H560 C546 0.930 . S
Co561 N565 2.148 . S
Co561 N571 2.128 . S
Co561 N581 2.194 . S
Co561 O586 2.351 . S
Co561 O587 2.155 . S
Co561 O588 2.096 . S
C562 N565 1.301 1_556 S
C562 N566 1.328 . S
C562 H567 0.930 . S
C563 C564 1.333 . S
C563 N565 1.317 1_556 S
C563 H568 0.930 1_556 S
C564 C563 1.333 . S
C564 N566 1.350 . S
C564 H590 0.931 . S
N565 Co561 2.148 . S
N565 C562 1.301 1_554 S
N565 C563 1.317 1_554 S
N566 C562 1.328 . S
N566 C564 1.350 . S
H567 C562 0.930 . S
H568 C563 0.930 1_554 S
C569 O570 1.224 . S
C569 O588 1.247 . S
O570 C569 1.224 . S
N571 Co561 2.128 . S
N571 C572 1.355 . S
N571 C574 1.311 . S
C572 N571 1.355 . S
C572 C573 1.363 . S
C572 H584 0.929 . S
C573 C572 1.363 . S
C573 N575 1.375 . S
C573 H591 0.931 . S
C574 N571 1.311 . S
C574 N575 1.347 . S
C574 H585 0.929 . S
N575 C573 1.375 . S
N575 C574 1.347 . S
C576 C579 1.365 . S
C576 N581 1.328 . S
C576 H582 0.929 . S
C577 C578 1.362 . S
C577 C580 1.378 . S
C577 H592 0.929 . S
C578 C577 1.362 . S
C578 C579 1.366 . S
C579 C576 1.365 . S
C579 C578 1.366 . S
C579 H593 0.930 . S
C580 C577 1.378 . S
C580 N581 1.315 . S
C580 H583 0.930 . S
N581 Co561 2.194 . S
N581 C576 1.328 . S
N581 C580 1.315 . S
H582 C576 0.929 . S
H583 C580 0.930 . S
H584 C572 0.929 . S
H585 C574 0.929 . S
O586 Co561 2.351 . S
O586 C589 1.244 . S
O587 Co561 2.155 . S
O587 C589 1.240 . S
O588 Co561 2.096 . S
O588 C569 1.247 . S
C589 O586 1.244 . S
C589 O587 1.240 . S
H590 C564 0.931 . S
H591 C573 0.931 . S
H592 C577 0.929 . S
H593 C579 0.930 . S
C116 C17 1.546 . S
C149 C50 1.545 1_545 S
C182 C83 1.545 1_655 S
C61 C193 1.540 . S
C127 C94 1.540 1_545 S
C160 C28 1.540 1_655 S
C314 C215 1.546 . S
C248 C347 1.545 . S
C281 C380 1.545 . S
C259 C391 1.540 . S
C292 C325 1.540 . S
C358 C226 1.540 . S
C413 C512 1.546 . S
C545 C446 1.545 . S
C479 C578 1.545 . S
C457 C589 1.540 . S
C523 C490 1.540 . S
C424 C556 1.540 . S
C8 C569 1.492 . S
C503 C41 1.492 . S
C536 C74 1.493 . S
C239 C107 1.492 . S
C272 C140 1.493 . S
C206 C173 1.492 . S
C437 C305 1.493 1_454 S
C470 C338 1.493 1_554 S
C371 C404 1.493 1_546 S
N5 N14 1.612 1_556 S
N38 N47 1.612 1_556 S
N71 N80 1.612 1_556 S
N113 N104 1.612 1_556 S
N146 N137 1.612 1_556 S
N170 N179 1.612 1_554 S
N203 N212 1.612 . S
N245 N236 1.612 . S
N278 N269 1.612 . S
N302 N311 1.612 . S
N335 N344 1.612 . S
N368 N377 1.612 . S
N401 N410 1.612 . S
N434 N443 1.612 . S
N476 N467 1.612 . S
N500 N509 1.612 . S
N542 N533 1.612 . S
N575 N566 1.612 . S
