# Generated by pormake.
# Topology wfu, (7)-cn, num edge types: 1
# Building blocks:
#     Node 0, Type 0, BuildingBlock: HICVOG_clean_sbu_0, # of connection points: 7
#     Node 1, Type 0, BuildingBlock: HICVOG_clean_sbu_0, # of connection points: 7
#     Node 2, Type 0, BuildingBlock: HICVOG_clean_sbu_0, # of connection points: 7
#     Node 3, Type 0, BuildingBlock: HICVOG_clean_sbu_0, # of connection points: 7
#     Node 4, Type 0, BuildingBlock: HICVOG_clean_sbu_0, # of connection points: 7
#     Node 5, Type 0, BuildingBlock: HICVOG_clean_sbu_0, # of connection points: 7
#     Node 6, Type 0, BuildingBlock: HICVOG_clean_sbu_0, # of connection points: 7
#     Node 7, Type 0, BuildingBlock: HICVOG_clean_sbu_0, # of connection points: 7
#     Edge 8, Type (0, 0), BuildingBlock: KIFKEQ_clean_linker_1, # of connection points: 2
#     Edge 9, Type (0, 0), BuildingBlock: KIFKEQ_clean_linker_1, # of connection points: 2
#     Edge 10, Type (0, 0), BuildingBlock: KIFKEQ_clean_linker_1, # of connection points: 2
#     Edge 11, Type (0, 0), BuildingBlock: KIFKEQ_clean_linker_1, # of connection points: 2
#     Edge 12, Type (0, 0), BuildingBlock: KIFKEQ_clean_linker_1, # of connection points: 2
#     Edge 13, Type (0, 0), BuildingBlock: KIFKEQ_clean_linker_1, # of connection points: 2
#     Edge 14, Type (0, 0), BuildingBlock: KIFKEQ_clean_linker_1, # of connection points: 2
#     Edge 15, Type (0, 0), BuildingBlock: KIFKEQ_clean_linker_1, # of connection points: 2
#     Edge 16, Type (0, 0), BuildingBlock: KIFKEQ_clean_linker_1, # of connection points: 2
#     Edge 17, Type (0, 0), BuildingBlock: KIFKEQ_clean_linker_1, # of connection points: 2
#     Edge 18, Type (0, 0), BuildingBlock: KIFKEQ_clean_linker_1, # of connection points: 2
#     Edge 19, Type (0, 0), BuildingBlock: KIFKEQ_clean_linker_1, # of connection points: 2
#     Edge 20, Type (0, 0), BuildingBlock: KIFKEQ_clean_linker_1, # of connection points: 2
#     Edge 21, Type (0, 0), BuildingBlock: KIFKEQ_clean_linker_1, # of connection points: 2
#     Edge 22, Type (0, 0), BuildingBlock: KIFKEQ_clean_linker_1, # of connection points: 2
#     Edge 23, Type (0, 0), BuildingBlock: KIFKEQ_clean_linker_1, # of connection points: 2
#     Edge 24, Type (0, 0), BuildingBlock: KIFKEQ_clean_linker_1, # of connection points: 2
#     Edge 25, Type (0, 0), BuildingBlock: KIFKEQ_clean_linker_1, # of connection points: 2
#     Edge 26, Type (0, 0), BuildingBlock: KIFKEQ_clean_linker_1, # of connection points: 2
#     Edge 27, Type (0, 0), BuildingBlock: KIFKEQ_clean_linker_1, # of connection points: 2
#     Edge 28, Type (0, 0), BuildingBlock: KIFKEQ_clean_linker_1, # of connection points: 2
#     Edge 29, Type (0, 0), BuildingBlock: KIFKEQ_clean_linker_1, # of connection points: 2
#     Edge 30, Type (0, 0), BuildingBlock: KIFKEQ_clean_linker_1, # of connection points: 2
#     Edge 31, Type (0, 0), BuildingBlock: KIFKEQ_clean_linker_1, # of connection points: 2
#     Edge 32, Type (0, 0), BuildingBlock: KIFKEQ_clean_linker_1, # of connection points: 2
#     Edge 33, Type (0, 0), BuildingBlock: KIFKEQ_clean_linker_1, # of connection points: 2
#     Edge 34, Type (0, 0), BuildingBlock: KIFKEQ_clean_linker_1, # of connection points: 2
#     Edge 35, Type (0, 0), BuildingBlock: KIFKEQ_clean_linker_1, # of connection points: 2
# Relax obj value: 0.434
# Max RMSD: 0.288
# Mean RMSD: 0.288
data_MOF--net-wfu--node1-HICVOG_clean_sbu_0--edge1-KIFKEQ_clean_linker_1
_symmetry_space_group_name_H-M    P1
_symmetry_Int_Tables_number       1
_symmetry_cell_setting            triclinic
loop_
_symmetry_equiv_pos_as_xyz
'x, y, z'
_cell_length_a     31.552212
_cell_length_b     31.604597
_cell_length_c     31.697785
_cell_angle_alpha  89.704059
_cell_angle_beta   89.86175
_cell_angle_gamma 89.905661
loop_
_atom_site_label
_atom_site_type_symbol
_atom_site_fract_x
_atom_site_fract_y
_atom_site_fract_z
_atom_type_partial_charge
Zn0 Zn 0.26579 0.34764 0.11549 0.0
C1 C 0.27383 0.35711 0.24252 0.0
N2 N 0.26964 0.31486 0.24156 0.0
C3 C 0.26793 0.30686 0.20007 0.0
N4 N 0.27147 0.34275 0.17663 0.0
N5 N 0.27474 0.3745 0.20372 0.0
C6 C 0.25761 0.50243 0.23619 0.0
O7 O 0.22789 0.49677 0.20783 0.0
O8 O 0.31331 0.31838 0.08277 0.0
Zn9 Zn 0.29564 0.43086 0.19166 0.0
N10 N 0.21198 0.32213 0.10212 0.0
C11 C 0.14067 0.30609 0.121 0.0
C12 C 0.18076 0.32104 0.13177 0.0
C13 C 0.20474 0.30895 0.06214 0.0
N14 N 0.13313 0.29367 0.08077 0.0
C15 C 0.16423 0.29451 0.05097 0.0
O16 O 0.27448 0.4574 0.13843 0.0
C17 C 0.26461 0.44663 0.10122 0.0
O18 O 0.26246 0.40783 0.09058 0.0
H19 H 0.18662 0.33252 0.16328 0.0
H20 H 0.22983 0.31164 0.03893 0.0
C21 C 0.37823 0.42122 0.22102 0.0
C22 C 0.42159 0.41241 0.21861 0.0
C23 C 0.416 0.40706 0.14414 0.0
C24 C 0.37293 0.41668 0.1467 0.0
N25 N 0.35504 0.42303 0.18515 0.0
N26 N 0.43934 0.40531 0.18007 0.0
H27 H 0.36289 0.42685 0.25103 0.0
C28 C 0.35129 0.31448 0.09568 0.0
O29 O 0.36048 0.32585 0.13434 0.0
O30 O 0.28793 0.47575 0.23813 0.0
H31 H 0.35371 0.41776 0.11852 0.0
H32 H 0.11547 0.30522 0.1442 0.0
H33 H 0.43081 0.40123 0.11391 0.0
Zn34 Zn 0.42921 0.75085 0.80883 0.0
C35 C 0.3063 0.77464 0.79678 0.0
N36 N 0.31659 0.77713 0.75567 0.0
C37 C 0.35912 0.77758 0.75642 0.0
N38 N 0.37454 0.77465 0.79578 0.0
N39 N 0.34135 0.77287 0.82154 0.0
C40 C 0.30078 0.69067 0.89786 0.0
O41 O 0.30164 0.68479 0.8569 0.0
O42 O 0.47556 0.75401 0.76297 0.0
Zn43 Zn 0.34488 0.77428 0.88316 0.0
N44 N 0.41659 0.69233 0.81666 0.0
C45 C 0.3893 0.63482 0.85685 0.0
C46 C 0.40163 0.67707 0.85395 0.0
C47 C 0.41974 0.66738 0.78217 0.0
N48 N 0.39334 0.60954 0.82256 0.0
C49 C 0.40857 0.62462 0.78515 0.0
O50 O 0.40471 0.77582 0.90904 0.0
C51 C 0.44396 0.77672 0.89932 0.0
O52 O 0.45641 0.77159 0.86159 0.0
H53 H 0.39843 0.69766 0.88084 0.0
H54 H 0.43097 0.68095 0.75282 0.0
C55 C 0.3037 0.83262 0.93892 0.0
C56 C 0.28904 0.87271 0.95159 0.0
C57 C 0.30725 0.90034 0.88421 0.0
C58 C 0.32236 0.86074 0.87212 0.0
N59 N 0.31993 0.82761 0.89956 0.0
N60 N 0.29136 0.90551 0.92367 0.0
H61 H 0.30409 0.806 0.96051 0.0
C62 C 0.49817 0.78656 0.75535 0.0
O63 O 0.48806 0.82253 0.7734 0.0
O64 O 0.31503 0.72509 0.91296 0.0
H65 H 0.33624 0.85653 0.84121 0.0
H66 H 0.37694 0.62212 0.88614 0.0
H67 H 0.30886 0.92695 0.86268 0.0
Zn68 Zn 0.74457 0.60052 0.20733 0.0
C69 C 0.77391 0.72445 0.20199 0.0
N70 N 0.77817 0.71829 0.24371 0.0
C71 C 0.77388 0.6762 0.24756 0.0
N72 N 0.7669 0.65737 0.21033 0.0
N73 N 0.7663 0.68782 0.18133 0.0
C74 C 0.68152 0.71433 0.10147 0.0
O75 O 0.67096 0.69111 0.13429 0.0
O76 O 0.7725 0.55621 0.24614 0.0
Zn77 Zn 0.76574 0.68116 0.12038 0.0
N78 N 0.68817 0.60474 0.22935 0.0
C79 C 0.62825 0.64495 0.2508 0.0
C80 C 0.66655 0.64195 0.22901 0.0
C81 C 0.67312 0.57041 0.25028 0.0
N82 N 0.61299 0.61045 0.27152 0.0
C83 C 0.63437 0.57297 0.27176 0.0
O84 O 0.757 0.62124 0.09847 0.0
C85 C 0.74897 0.5836 0.11058 0.0
O86 O 0.74379 0.57441 0.14934 0.0
H87 H 0.67976 0.66946 0.21353 0.0
H88 H 0.69171 0.54165 0.25063 0.0
C89 C 0.82845 0.7134 0.06243 0.0
C90 C 0.86986 0.72408 0.04961 0.0
C91 C 0.89533 0.70419 0.11723 0.0
C92 C 0.85433 0.69346 0.12965 0.0
N93 N 0.8217 0.69833 0.10208 0.0
N94 N 0.9022 0.71895 0.07754 0.0
H95 H 0.80193 0.71568 0.04096 0.0
C96 C 0.79569 0.52685 0.23115 0.0
O97 O 0.80951 0.53054 0.19219 0.0
O98 O 0.72042 0.71685 0.09096 0.0
H99 H 0.84869 0.68086 0.16092 0.0
H100 H 0.61085 0.67447 0.25139 0.0
H101 H 0.92159 0.70037 0.1388 0.0
Zn102 Zn 0.60885 0.29073 0.78779 0.0
C103 C 0.73287 0.2624 0.79256 0.0
N104 N 0.72754 0.26106 0.75058 0.0
C105 C 0.68533 0.26403 0.74656 0.0
N106 N 0.66552 0.26749 0.78397 0.0
N107 N 0.69546 0.26665 0.81333 0.0
C108 C 0.71348 0.34771 0.89764 0.0
O109 O 0.69464 0.35839 0.86228 0.0
O110 O 0.56479 0.26748 0.74619 0.0
Zn111 Zn 0.68674 0.26241 0.87413 0.0
N112 N 0.61449 0.34839 0.76997 0.0
C113 C 0.65578 0.40772 0.74891 0.0
C114 C 0.65268 0.36818 0.76835 0.0
C115 C 0.57933 0.36645 0.75325 0.0
N116 N 0.62054 0.42583 0.73215 0.0
C117 C 0.58214 0.40624 0.73387 0.0
O118 O 0.6257 0.26616 0.89486 0.0
C119 C 0.58872 0.27724 0.88309 0.0
O120 O 0.5812 0.28799 0.84513 0.0
H121 H 0.68072 0.35279 0.78051 0.0
H122 H 0.54975 0.34925 0.75422 0.0
C123 C 0.71238 0.1983 0.93291 0.0
C124 C 0.72747 0.15826 0.94544 0.0
C125 C 0.73283 0.13839 0.87363 0.0
C126 C 0.71714 0.17783 0.8614 0.0
N127 N 0.7079 0.2073 0.89121 0.0
N128 N 0.73777 0.12954 0.91526 0.0
H129 H 0.70468 0.22235 0.95589 0.0
C130 C 0.53345 0.24495 0.7581 0.0
O131 O 0.53399 0.22827 0.79614 0.0
O132 O 0.71654 0.3087 0.90741 0.0
H133 H 0.71236 0.18471 0.82836 0.0
H134 H 0.68599 0.42375 0.74686 0.0
H135 H 0.74081 0.11489 0.85021 0.0
Zn136 Zn 0.7744 0.18043 0.37428 0.0
C137 C 0.77033 0.17247 0.24717 0.0
N138 N 0.77185 0.21487 0.24841 0.0
C139 C 0.77565 0.22251 0.28987 0.0
N140 N 0.77722 0.18618 0.3129 0.0
N141 N 0.77341 0.15468 0.2856 0.0
C142 C 0.74693 0.02509 0.25673 0.0
O143 O 0.72503 0.02761 0.29193 0.0
O144 O 0.82231 0.20906 0.40685 0.0
Zn145 Zn 0.79306 0.09716 0.29264 0.0
N146 N 0.72073 0.20512 0.39018 0.0
C147 C 0.6489 0.22126 0.37373 0.0
C148 C 0.68842 0.20545 0.36187 0.0
C149 C 0.71508 0.21971 0.42998 0.0
N150 N 0.64309 0.23558 0.41364 0.0
C151 C 0.6752 0.23545 0.44224 0.0
O152 O 0.78249 0.07077 0.34933 0.0
C153 C 0.77594 0.08129 0.38741 0.0
O154 O 0.77322 0.12001 0.39815 0.0
H155 H 0.69313 0.19308 0.33047 0.0
H156 H 0.7411 0.21757 0.45205 0.0
C157 C 0.87031 0.08624 0.2492 0.0
C158 C 0.91327 0.09327 0.24086 0.0
C159 C 0.91804 0.13424 0.30325 0.0
C160 C 0.87555 0.12587 0.31209 0.0
N161 N 0.85263 0.10245 0.28466 0.0
N162 N 0.936 0.11748 0.26809 0.0
H163 H 0.8511 0.06798 0.22776 0.0
C164 C 0.85904 0.22032 0.39447 0.0
O165 O 0.86904 0.21705 0.35445 0.0
O166 O 0.77395 0.05388 0.24842 0.0
H167 H 0.86057 0.1383 0.34009 0.0
H168 H 0.62288 0.22165 0.35158 0.0
H169 H 0.93675 0.1533 0.32445 0.0
Zn170 Zn 0.1098 0.24999 0.70418 0.0
C171 C 0.23147 0.28548 0.70402 0.0
N172 N 0.22286 0.29277 0.74493 0.0
C173 C 0.1807 0.28718 0.74686 0.0
N174 N 0.16428 0.27651 0.70939 0.0
N175 N 0.19614 0.27533 0.68209 0.0
C176 C 0.20475 0.18578 0.5961 0.0
O177 O 0.1676 0.1829 0.61468 0.0
O178 O 0.06423 0.26949 0.74658 0.0
Zn179 Zn 0.19171 0.27196 0.62089 0.0
N180 N 0.11952 0.19195 0.71852 0.0
C181 C 0.16469 0.13286 0.73047 0.0
C182 C 0.15805 0.17325 0.71381 0.0
C183 C 0.08742 0.17209 0.73891 0.0
N184 N 0.13246 0.1129 0.7509 0.0
C185 C 0.09374 0.13148 0.75549 0.0
O186 O 0.13153 0.26828 0.59717 0.0
C187 C 0.09329 0.2616 0.6084 0.0
O188 O 0.08344 0.25455 0.6467 0.0
H189 H 0.18376 0.19002 0.69862 0.0
H190 H 0.05755 0.18838 0.74291 0.0
C191 C 0.22913 0.32941 0.56005 0.0
C192 C 0.24319 0.3693 0.54567 0.0
C193 C 0.22775 0.39819 0.6129 0.0
C194 C 0.21334 0.35889 0.62673 0.0
N195 N 0.21461 0.32516 0.60024 0.0
N196 N 0.24201 0.40256 0.57275 0.0
H197 H 0.22816 0.30233 0.53935 0.0
C198 C 0.03368 0.29388 0.73637 0.0
O199 O 0.03519 0.31356 0.69979 0.0
O200 O 0.22361 0.22143 0.59595 0.0
H201 H 0.20056 0.35561 0.65821 0.0
H202 H 0.19524 0.11758 0.72744 0.0
H203 H 0.22693 0.42522 0.63369 0.0
Zn204 Zn 0.2692 0.8472 0.38239 0.0
C205 C 0.26461 0.85614 0.25456 0.0
N206 N 0.26995 0.81405 0.25591 0.0
C207 C 0.27075 0.80587 0.2975 0.0
N208 N 0.26566 0.84166 0.32074 0.0
N209 N 0.26219 0.87334 0.29316 0.0
C210 C 0.28322 1.00447 0.26541 0.0
O211 O 0.30593 1.0014 0.29997 0.0
O212 O 0.22203 0.8158 0.41411 0.0
Zn213 Zn 0.23982 0.93003 0.30139 0.0
N214 N 0.32389 0.82463 0.39928 0.0
C215 C 0.39289 0.79908 0.3822 0.0
C216 C 0.35363 0.81502 0.36967 0.0
C217 C 0.3326 0.82061 0.44107 0.0
N218 N 0.40148 0.79473 0.42392 0.0
C219 C 0.37259 0.80565 0.45391 0.0
O220 O 0.25053 0.95566 0.35793 0.0
C221 C 0.2602 0.94585 0.39558 0.0
O222 O 0.2671 0.90752 0.40633 0.0
H223 H 0.34723 0.81997 0.3366 0.0
H224 H 0.30848 0.82896 0.4639 0.0
C225 C 0.16293 0.93392 0.2573 0.0
C226 C 0.11979 0.92683 0.25045 0.0
C227 C 0.11398 0.89734 0.31927 0.0
C228 C 0.15665 0.90607 0.32646 0.0
N229 N 0.18026 0.92335 0.29502 0.0
N230 N 0.09644 0.90826 0.28164 0.0
H231 H 0.18255 0.94809 0.23303 0.0
C232 C 0.18465 0.80884 0.40075 0.0
O233 O 0.17495 0.81911 0.3618 0.0
O234 O 0.25649 0.97542 0.25737 0.0
H235 H 0.17111 0.89882 0.35651 0.0
H236 H 0.41658 0.79076 0.35894 0.0
H237 H 0.09474 0.88286 0.34366 0.0
Zn238 Zn 0.92956 0.7852 0.69812 0.0
C239 C 0.80609 0.76084 0.70666 0.0
N240 N 0.81512 0.7596 0.74806 0.0
C241 C 0.85766 0.75987 0.74842 0.0
N242 N 0.87424 0.76202 0.70944 0.0
N243 N 0.84185 0.76278 0.68277 0.0
C244 C 0.80324 0.84356 0.60154 0.0
O245 O 0.80074 0.85104 0.64216 0.0
O246 O 0.97489 0.77966 0.74446 0.0
Zn247 Zn 0.84716 0.76015 0.62135 0.0
N248 N 0.91803 0.84398 0.69213 0.0
C249 C 0.88799 0.9021 0.65497 0.0
C250 C 0.89965 0.85956 0.65662 0.0
C251 C 0.92543 0.86883 0.72598 0.0
N252 N 0.89627 0.92731 0.68853 0.0
C253 C 0.91506 0.91184 0.72407 0.0
O254 O 0.90754 0.75815 0.59709 0.0
C255 C 0.94652 0.75893 0.60754 0.0
O256 O 0.95778 0.76593 0.64525 0.0
H257 H 0.89343 0.83893 0.63028 0.0
H258 H 0.93939 0.85506 0.754 0.0
C259 C 0.80828 0.70123 0.56574 0.0
C260 C 0.79429 0.66107 0.55295 0.0
C261 C 0.81016 0.63394 0.62102 0.0
C262 C 0.82455 0.6737 0.63329 0.0
N263 N 0.823 0.70658 0.6055 0.0
N264 N 0.79576 0.62843 0.5811 0.0
H265 H 0.80937 0.72768 0.54396 0.0
C266 C 0.99812 0.74705 0.74972 0.0
O267 O 0.98888 0.71239 0.72899 0.0
O268 O 0.81881 0.80862 0.58892 0.0
H269 H 0.83728 0.6782 0.66458 0.0
H270 H 0.87295 0.91512 0.62714 0.0
H271 H 0.81114 0.60749 0.64278 0.0
H272 H 0.09432 0.31679 0.00595 0.0
H273 H 0.21225 0.2479 0.99687 0.0
H274 H 0.0833 0.30807 0.9299 0.0
H275 H 0.20139 0.2392 0.92144 0.0
H276 H 0.17324 0.21456 0.79081 0.0
H277 H 0.15529 0.20781 0.86547 0.0
H278 H 0.12574 0.34128 0.86942 0.0
H279 H 0.14291 0.34748 0.79425 0.0
C280 C 0.11733 0.29899 0.98782 0.0
C281 C 0.15446 0.2836 0.00692 0.0
C282 C 0.11108 0.29413 0.94445 0.0
C283 C 0.14147 0.27302 0.91986 0.0
C284 C 0.17716 0.25521 0.93965 0.0
C285 C 0.18368 0.2606 0.98273 0.0
C286 C 0.16088 0.24187 0.80723 0.0
C287 C 0.1589 0.2814 0.78716 0.0
C288 C 0.15102 0.23815 0.84997 0.0
C289 C 0.13961 0.2741 0.87326 0.0
C290 C 0.13408 0.31297 0.85214 0.0
C291 C 0.14399 0.31663 0.80929 0.0
H292 H 0.2989 0.94453 0.99775 0.0
H293 H 0.24532 0.8189 0.00403 0.0
H294 H 0.28233 0.95483 0.07238 0.0
H295 H 0.23006 0.82861 0.07835 0.0
H296 H 0.19454 0.84943 0.20702 0.0
H297 H 0.18983 0.86551 0.13173 0.0
H298 H 0.31336 0.92427 0.13659 0.0
H299 H 0.31696 0.90934 0.21224 0.0
C300 C 0.2831 0.91934 0.0149 0.0
C301 C 0.27437 0.88051 0.99527 0.0
C302 C 0.27378 0.92522 0.05763 0.0
C303 C 0.25508 0.89254 0.08138 0.0
C304 C 0.24406 0.85469 0.06098 0.0
C305 C 0.25352 0.84877 0.01844 0.0
C306 C 0.21971 0.86746 0.19213 0.0
C307 C 0.25607 0.87828 0.21489 0.0
C308 C 0.21726 0.87632 0.14908 0.0
C309 C 0.25169 0.89516 0.128 0.0
C310 C 0.28624 0.90982 0.15186 0.0
C311 C 0.2884 0.90134 0.19514 0.0
H312 H 0.90612 0.70144 0.78806 0.0
H313 H 0.85885 0.82902 0.79756 0.0
H314 H 0.92116 0.70082 0.86364 0.0
H315 H 0.87492 0.82928 0.87292 0.0
H316 H 0.82049 0.7734 0.99792 0.0
H317 H 0.8328 0.79028 0.9242 0.0
H318 H 0.95391 0.7264 0.9292 0.0
H319 H 0.94095 0.70835 0.00324 0.0
C320 C 0.90108 0.73006 0.80608 0.0
C321 C 0.88128 0.76518 0.78759 0.0
C322 C 0.9096 0.7298 0.84934 0.0
C323 C 0.89821 0.76469 0.8744 0.0
C324 C 0.88313 0.80163 0.85456 0.0
C325 C 0.87433 0.80169 0.81148 0.0
C326 C 0.84975 0.76291 0.98341 0.0
C327 C 0.87923 0.73856 0.0061 0.0
C328 C 0.85724 0.7733 0.94127 0.0
C329 C 0.89442 0.75967 0.92081 0.0
C330 C 0.92489 0.7371 0.94406 0.0
C331 C 0.91748 0.72688 0.98642 0.0
H332 H 0.8309 0.17243 0.18722 0.0
H333 H 0.70675 0.12395 0.21712 0.0
H334 H 0.82058 0.15451 0.11311 0.0
H335 H 0.69588 0.10631 0.14262 0.0
H336 H 0.67509 0.17767 0.01138 0.0
H337 H 0.68743 0.16425 0.08612 0.0
H338 H 0.80417 0.09951 0.05593 0.0
H339 H 0.79175 0.11292 0.98073 0.0
C340 C 0.80211 0.1563 0.17798 0.0
C341 C 0.76956 0.14945 0.20733 0.0
C342 C 0.79618 0.14598 0.13569 0.0
C343 C 0.75721 0.12954 0.12215 0.0
C344 C 0.72609 0.11924 0.15232 0.0
C345 C 0.73234 0.12901 0.19481 0.0
C346 C 0.70326 0.16037 0.02065 0.0
C347 C 0.73298 0.14715 0.99041 0.0
C348 C 0.70997 0.15206 0.06337 0.0
C349 C 0.74671 0.13072 0.07672 0.0
C350 C 0.77559 0.11597 0.04638 0.0
C351 C 0.76852 0.12372 0.0035 0.0
H352 H 0.6024 0.22672 0.48804 0.0
H353 H 0.72949 0.2769 0.49493 0.0
H354 H 0.59142 0.2435 0.5626 0.0
H355 H 0.71917 0.29224 0.569 0.0
H356 H 0.69706 0.33124 0.69568 0.0
H357 H 0.68263 0.3344 0.62026 0.0
H358 H 0.61955 0.21327 0.62845 0.0
H359 H 0.63229 0.21157 0.70458 0.0
C360 C 0.62778 0.24174 0.50534 0.0
C361 C 0.66714 0.24959 0.48594 0.0
C362 C 0.62154 0.25116 0.548 0.0
C363 C 0.65439 0.2691 0.57177 0.0
C364 C 0.69293 0.27893 0.55159 0.0
C365 C 0.69918 0.26941 0.5092 0.0
C366 C 0.67837 0.30635 0.68154 0.0
C367 C 0.66557 0.27125 0.70548 0.0
C368 C 0.67052 0.30786 0.63836 0.0
C369 C 0.65095 0.27357 0.61821 0.0
C370 C 0.6346 0.24025 0.64301 0.0
C371 C 0.64188 0.23916 0.68653 0.0
H372 H 0.2838 0.31404 0.4924 0.0
H373 H 0.23433 0.44147 0.49916 0.0
H374 H 0.30008 0.32463 0.41828 0.0
H375 H 0.25197 0.45252 0.42483 0.0
H376 H 0.22157 0.41183 0.28271 0.0
H377 H 0.22229 0.42461 0.35872 0.0
H378 H 0.34407 0.36237 0.36768 0.0
H379 H 0.34228 0.34855 0.29203 0.0
C380 C 0.27651 0.34439 0.47814 0.0
C381 C 0.25681 0.37655 0.50147 0.0
C382 C 0.28661 0.35078 0.43575 0.0
C383 C 0.2774 0.38953 0.41566 0.0
C384 C 0.25923 0.42229 0.43938 0.0
C385 C 0.24927 0.41594 0.48194 0.0
C386 C 0.24926 0.40275 0.3008 0.0
C387 C 0.28181 0.37924 0.28205 0.0
C388 C 0.24971 0.40989 0.34431 0.0
C389 C 0.28278 0.39348 0.36931 0.0
C390 C 0.31771 0.37446 0.34937 0.0
C391 C 0.31697 0.36697 0.30611 0.0
H392 H 0.41877 0.74318 0.4916 0.0
H393 H 0.35282 0.86005 0.51775 0.0
H394 H 0.43338 0.73423 0.56707 0.0
H395 H 0.3673 0.85112 0.59267 0.0
H396 H 0.40752 0.83978 0.72303 0.0
H397 H 0.42541 0.84672 0.64802 0.0
H398 H 0.3809 0.71942 0.62687 0.0
H399 H 0.36299 0.7129 0.70158 0.0
C400 C 0.40786 0.76714 0.51342 0.0
C401 C 0.38381 0.80177 0.49902 0.0
C402 C 0.41631 0.76206 0.55646 0.0
C403 C 0.40165 0.79205 0.58564 0.0
C404 C 0.3795 0.82776 0.57086 0.0
C405 C 0.37053 0.8325 0.52804 0.0
C406 C 0.40363 0.81271 0.70257 0.0
C407 C 0.38413 0.77581 0.7176 0.0
C408 C 0.41344 0.81676 0.65971 0.0
C409 C 0.4039 0.78383 0.63161 0.0
C410 C 0.3888 0.74522 0.64779 0.0
C411 C 0.37858 0.74141 0.69048 0.0
H412 H 0.80726 0.58985 0.50641 0.0
H413 H 0.75088 0.71441 0.50027 0.0
H414 H 0.79318 0.58017 0.43119 0.0
H415 H 0.73833 0.70552 0.42555 0.0
H416 H 0.70542 0.68577 0.29688 0.0
H417 H 0.70021 0.66937 0.37182 0.0
H418 H 0.8242 0.61103 0.36718 0.0
H419 H 0.82777 0.62527 0.29124 0.0
C420 C 0.7914 0.6149 0.48913 0.0
C421 C 0.78107 0.65327 0.50896 0.0
C422 C 0.78357 0.60943 0.44608 0.0
C423 C 0.76483 0.64208 0.42231 0.0
C424 C 0.75236 0.67944 0.44289 0.0
C425 C 0.76024 0.6849 0.48569 0.0
C426 C 0.73051 0.66755 0.31159 0.0
C427 C 0.76677 0.65632 0.28869 0.0
C428 C 0.72786 0.65868 0.35456 0.0
C429 C 0.76222 0.63985 0.37566 0.0
C430 C 0.79709 0.62541 0.35186 0.0
C431 C 0.7993 0.63361 0.3085 0.0
H432 H 0.50793 0.30693 0.87159 0.0
H433 H 0.58942 0.25071 0.96588 0.0
H434 H 0.45111 0.312 0.92318 0.0
H435 H 0.53192 0.25444 0.0173 0.0
H436 H 0.43687 0.31515 0.10961 0.0
H437 H 0.49349 0.30351 0.05874 0.0
H438 H 0.40062 0.27398 0.96335 0.0
H439 H 0.3439 0.28725 0.01397 0.0
C440 C 0.51367 0.29522 0.90324 0.0
C441 C 0.5535 0.27858 0.91449 0.0
C442 C 0.48082 0.29782 0.93288 0.0
C443 C 0.48664 0.28359 0.97464 0.0
C444 C 0.52631 0.26634 0.98571 0.0
C445 C 0.55931 0.26397 0.95609 0.0
C446 C 0.42847 0.30584 0.07788 0.0
C447 C 0.38572 0.30247 0.06588 0.0
C448 C 0.46108 0.29891 0.04864 0.0
C449 C 0.45188 0.28806 0.00661 0.0
C450 C 0.40907 0.28315 0.9951 0.0
C451 C 0.37644 0.2904 0.02428 0.0
H452 H 0.27794 0.44217 0.01567 0.0
H453 H 0.2418 0.5287 0.11435 0.0
H454 H 0.28201 0.50113 0.96571 0.0
H455 H 0.24382 0.58723 0.06436 0.0
H456 H 0.30901 0.68726 0.98361 0.0
H457 H 0.29501 0.62801 0.03046 0.0
H458 H 0.24951 0.55489 0.925 0.0
H459 H 0.26535 0.61404 0.87766 0.0
C460 C 0.26977 0.47362 0.02643 0.0
C461 C 0.25992 0.48074 0.06909 0.0
C462 C 0.27203 0.50756 0.99774 0.0
C463 C 0.26395 0.54938 0.01092 0.0
C464 C 0.25155 0.55586 0.05311 0.0
C465 C 0.24995 0.52214 0.08181 0.0
C466 C 0.29565 0.65872 0.97036 0.0
C467 C 0.28833 0.65555 0.92677 0.0
C468 C 0.2873 0.62461 0.99739 0.0
C469 C 0.27086 0.58632 0.98182 0.0
C470 C 0.26266 0.58349 0.93824 0.0
C471 C 0.27143 0.6176 0.91106 0.0
H472 H 0.52395 0.80911 0.89384 0.0
H473 H 0.43845 0.7464 0.98003 0.0
H474 H 0.58103 0.80249 0.94497 0.0
H475 H 0.4959 0.73692 0.03019 0.0
H476 H 0.60106 0.73656 0.12437 0.0
H477 H 0.54353 0.76031 0.07891 0.0
H478 H 0.62779 0.75407 0.97116 0.0
H479 H 0.68559 0.73322 0.01732 0.0
C480 C 0.51733 0.79412 0.92395 0.0
C481 C 0.47666 0.77834 0.9329 0.0
C482 C 0.55027 0.78976 0.95321 0.0
C483 C 0.54382 0.76842 0.99187 0.0
C484 C 0.50249 0.75409 0.0013 0.0
C485 C 0.46929 0.7594 0.9724 0.0
C486 C 0.60732 0.741 0.09102 0.0
C487 C 0.64787 0.73298 0.07446 0.0
C488 C 0.57415 0.75422 0.06472 0.0
C489 C 0.58031 0.75881 0.02085 0.0
C490 C 0.62144 0.75181 0.00465 0.0
C491 C 0.65481 0.73954 0.03115 0.0
H492 H 0.71385 0.34167 0.98351 0.0
H493 H 0.73739 0.42919 0.88137 0.0
H494 H 0.7229 0.39825 0.03416 0.0
H495 H 0.74987 0.48557 0.93191 0.0
H496 H 0.76699 0.49984 0.12199 0.0
H497 H 0.76419 0.44332 0.07058 0.0
H498 H 0.71919 0.53246 0.97661 0.0
H499 H 0.72548 0.5894 0.0276 0.0
C500 C 0.72216 0.3729 0.97197 0.0
C501 C 0.72491 0.38096 0.92845 0.0
C502 C 0.72759 0.40561 0.00112 0.0
C503 C 0.73706 0.44719 0.98766 0.0
C504 C 0.74149 0.45459 0.94393 0.0
C505 C 0.73489 0.42208 0.91476 0.0
C506 C 0.75673 0.50735 0.09025 0.0
C507 C 0.74649 0.54916 0.07892 0.0
C508 C 0.75471 0.47472 0.06061 0.0
C509 C 0.74116 0.48263 0.01893 0.0
C510 C 0.7307 0.52471 0.00783 0.0
C511 C 0.73389 0.55755 0.03724 0.0
H512 H 0.85717 0.20801 0.47987 0.0
H513 H 0.93582 0.25815 0.3799 0.0
H514 H 0.91351 0.22034 0.5303 0.0
H515 H 0.99173 0.27271 0.43076 0.0
H516 H 0.10077 0.24772 0.52332 0.0
H517 H 0.04397 0.24075 0.47182 0.0
H518 H 0.95177 0.26855 0.56905 0.0
H519 H 1.00838 0.27313 0.62062 0.0
C520 C 0.88625 0.22249 0.46877 0.0
C521 C 0.89195 0.232 0.42578 0.0
C522 C 0.91869 0.22984 0.49785 0.0
C523 C 0.95762 0.24759 0.48495 0.0
C524 C 0.96274 0.25823 0.442 0.0
C525 C 0.93046 0.25025 0.41278 0.0
C526 C 0.06835 0.25254 0.53356 0.0
C527 C 0.05916 0.26068 0.57616 0.0
C528 C 0.03563 0.24879 0.50394 0.0
C529 C 0.99285 0.25378 0.516 0.0
C530 C 0.984 0.26337 0.55848 0.0
C531 C 0.0166 0.26636 0.58815 0.0
H532 H 0.26855 0.18456 0.53676 0.0
H533 H 0.17793 0.10386 0.60003 0.0
H534 H 0.28897 0.12561 0.49114 0.0
H535 H 0.19801 0.04533 0.55445 0.0
H536 H 0.26064 0.93838 0.48226 0.0
H537 H 0.25429 0.99523 0.53411 0.0
H538 H 0.25395 0.08767 0.43334 0.0
H539 H 0.26055 0.0313 0.3818 0.0
C540 C 0.25344 0.15414 0.54138 0.0
C541 C 0.22138 0.14908 0.57188 0.0
C542 C 0.26493 0.1204 0.51504 0.0
C543 C 0.24496 0.0807 0.51889 0.0
C544 C 0.21435 0.07524 0.55076 0.0
C545 C 0.20263 0.10898 0.57676 0.0
C546 C 0.2598 0.97086 0.47121 0.0
C547 C 0.26081 0.98011 0.42775 0.0
C548 C 0.25591 1.00346 0.50093 0.0
C549 C 0.25344 0.04611 0.48795 0.0
C550 C 0.2562 0.05533 0.4446 0.0
C551 C 0.25968 0.02284 0.41495 0.0
H552 H 0.10669 0.77696 0.38071 0.0
H553 H 0.18624 0.80686 0.487 0.0
H554 H 0.04945 0.75719 0.42866 0.0
H555 H 0.12864 0.7894 0.53493 0.0
H556 H 0.94064 0.77893 0.52356 0.0
H557 H 0.99847 0.78602 0.473 0.0
H558 H 0.08636 0.73886 0.56669 0.0
H559 H 0.02879 0.73415 0.61767 0.0
C560 C 0.11198 0.77923 0.41438 0.0
C561 C 0.15108 0.79349 0.42999 0.0
C562 C 0.07896 0.76824 0.44198 0.0
C563 C 0.0839 0.77182 0.48599 0.0
C564 C 0.1235 0.78531 0.50146 0.0
C565 C 0.15668 0.79564 0.47388 0.0
C566 C 0.97223 0.76947 0.53309 0.0
C567 C 0.98012 0.75626 0.57473 0.0
C568 C 1.00558 0.77342 0.504 0.0
C569 C 0.04762 0.76358 0.5156 0.0
C570 C 0.05486 0.74799 0.55668 0.0
C571 C 0.02169 0.74481 0.58592 0.0
H572 H 0.78688 0.08785 0.47319 0.0
H573 H 0.75994 0.99732 0.37535 0.0
H574 H 0.78997 0.03052 0.52501 0.0
H575 H 0.76106 0.94039 0.42711 0.0
H576 H 0.81902 0.84369 0.5167 0.0
H577 H 0.80922 0.90112 0.46662 0.0
H578 H 0.75458 0.97826 0.56506 0.0
H579 H 0.76619 0.92098 0.61576 0.0
C580 C 0.78087 0.05581 0.46285 0.0
C581 C 0.77356 0.04724 0.41999 0.0
C582 C 0.78245 0.02281 0.49265 0.0
C583 C 0.77623 0.98042 0.48045 0.0
C584 C 0.76717 0.97229 0.43777 0.0
C585 C 0.76618 1.00511 0.40799 0.0
C586 C 0.80457 0.87274 0.52771 0.0
C587 C 0.79339 0.87758 0.57038 0.0
C588 C 0.79867 0.90581 0.49879 0.0
C589 C 0.78094 0.94469 0.51146 0.0
C590 C 0.76891 0.94918 0.55406 0.0
C591 C 0.77522 0.91613 0.58315 0.0
H592 H 0.41704 0.47276 0.27923 0.0
H593 H 0.48879 0.36292 0.24134 0.0
H594 H 0.47559 0.4969 0.32057 0.0
H595 H 0.54735 0.38538 0.28595 0.0
H596 H 0.58267 0.56896 0.34097 0.0
H597 H 0.53446 0.51132 0.3587 0.0
H598 H 0.59235 0.43517 0.26095 0.0
H599 H 0.64059 0.491 0.24516 0.0
C600 C 0.44465 0.45248 0.28162 0.0
C601 C 0.44924 0.41697 0.25566 0.0
C602 C 0.47863 0.46624 0.30585 0.0
C603 C 0.51768 0.44454 0.30455 0.0
C604 C 0.51873 0.40431 0.28557 0.0
C605 C 0.48517 0.39123 0.26015 0.0
C606 C 0.58576 0.5392 0.32441 0.0
C607 C 0.61441 0.5351 0.29073 0.0
C608 C 0.55813 0.50612 0.3345 0.0
C609 C 0.55759 0.46918 0.30979 0.0
C610 C 0.59079 0.46298 0.28063 0.0
C611 C 0.61879 0.4956 0.27115 0.0
H612 H 0.47553 0.62712 0.73042 0.0
H613 H 0.36458 0.55387 0.76309 0.0
H614 H 0.50463 0.56784 0.69354 0.0
H615 H 0.39315 0.49401 0.72387 0.0
H616 H 0.50193 0.40304 0.76641 0.0
H617 H 0.44571 0.45238 0.75348 0.0
H618 H 0.51837 0.50941 0.65214 0.0
H619 H 0.57619 0.46009 0.66659 0.0
C620 C 0.45618 0.599 0.72787 0.0
C621 C 0.41835 0.59467 0.75091 0.0
C622 C 0.47292 0.56461 0.70624 0.0
C623 C 0.45213 0.52525 0.70722 0.0
C624 C 0.41084 0.52334 0.72406 0.0
C625 C 0.39441 0.55759 0.74648 0.0
C626 C 0.50554 0.42494 0.74028 0.0
C627 C 0.54405 0.42847 0.71829 0.0
C628 C 0.4728 0.45339 0.73249 0.0
C629 C 0.47784 0.48607 0.70255 0.0
C630 C 0.51401 0.48562 0.67646 0.0
C631 C 0.54718 0.45747 0.68475 0.0
H632 H 0.97521 0.12221 0.18767 0.0
H633 H 0.90167 1.01128 0.21832 0.0
H634 H 0.02651 0.07823 0.15083 0.0
H635 H 0.95354 0.96722 0.18571 0.0
H636 H 0.05794 0.89141 0.20186 0.0
H637 H 1.00646 0.93076 0.16017 0.0
H638 H 0.08013 0.04478 0.17901 0.0
H639 H 0.1323 1.00475 0.2163 0.0
C640 C 0.96972 0.08844 0.18582 0.0
C641 C 0.93559 0.06992 0.20733 0.0
C642 C 0.99938 0.06295 0.16515 0.0
C643 C 0.99685 0.01845 0.16842 0.0
C644 C 0.95848 1.00095 0.18344 0.0
C645 C 0.92817 0.02649 0.20265 0.0
C646 C 0.06359 0.92461 0.19534 0.0
C647 C 0.09795 0.94548 0.21378 0.0
C648 C 0.03382 0.94751 0.17192 0.0
C649 C 0.03643 0.99206 0.16949 0.0
C650 C 0.07509 1.01105 0.18126 0.0
C651 C 0.10558 0.98789 0.20314 0.0
H652 H 0.09753 0.07487 0.82071 0.0
H653 H 1.01023 0.13378 0.73346 0.0
H654 H 0.04252 0.02465 0.84155 0.0
H655 H 0.95666 0.08364 0.7525 0.0
H656 H 0.98851 0.90824 0.76909 0.0
H657 H 0.02269 0.96691 0.80222 0.0
H658 H 0.90859 0.04186 0.7882 0.0
H659 H 0.87481 0.98273 0.75238 0.0
C660 C 0.06636 0.07761 0.80667 0.0
C661 C 0.0585 0.1076 0.77484 0.0
C662 C 0.03481 0.04896 0.81862 0.0
C663 C 0.99541 0.049 0.79783 0.0
C664 C 0.98628 0.08228 0.76958 0.0
C665 C 0.01746 0.1112 0.75822 0.0
C666 C 0.96991 0.93652 0.77452 0.0
C667 C 0.92942 0.94143 0.75685 0.0
C668 C 0.98962 0.97053 0.79399 0.0
C669 C 0.96912 1.01004 0.79626 0.0
C670 C 0.92596 1.01244 0.78522 0.0
C671 C 0.90652 0.97862 0.76479 0.0
H672 H 0.22434 0.03394 0.20809 0.0
H673 H 0.34223 0.06742 0.26805 0.0
H674 H 0.21987 0.10511 0.1773 0.0
H675 H 0.3377 0.13807 0.23777 0.0
H676 H 0.3344 0.25979 0.17266 0.0
H677 H 0.33934 0.18291 0.1759 0.0
H678 H 0.2059 0.1761 0.20556 0.0
H679 H 0.20114 0.25313 0.20099 0.0
C680 C 0.24977 0.05611 0.21401 0.0
C681 C 0.2836 0.04487 0.24076 0.0
C682 C 0.24704 0.09707 0.19657 0.0
C683 C 0.27835 0.12764 0.20499 0.0
C684 C 0.31322 0.11547 0.22995 0.0
C685 C 0.31572 0.07483 0.24764 0.0
C686 C 0.3056 0.24182 0.17701 0.0
C687 C 0.26707 0.26262 0.18496 0.0
C688 C 0.30859 0.1976 0.18003 0.0
C689 C 0.27318 0.17303 0.19169 0.0
C690 C 0.23382 0.19368 0.19615 0.0
C691 C 0.23094 0.23795 0.19318 0.0
H692 H 0.26183 0.7059 0.77631 0.0
H693 H 0.24959 0.82507 0.84037 0.0
H694 H 0.18553 0.69818 0.77541 0.0
H695 H 0.17243 0.81694 0.84135 0.0
H696 H 0.04307 0.81868 0.76921 0.0
H697 H 0.11638 0.82288 0.7928 0.0
H698 H 0.12004 0.68672 0.80598 0.0
H699 H 0.04751 0.68264 0.78021 0.0
C700 C 0.2427 0.72958 0.79209 0.0
C701 C 0.26194 0.76551 0.80942 0.0
C702 C 0.19863 0.72523 0.79158 0.0
C703 C 0.17208 0.75696 0.80816 0.0
C704 C 0.19153 0.79197 0.82778 0.0
C705 C 0.23597 0.79631 0.82814 0.0
C706 C 0.0593 0.78968 0.77786 0.0
C707 C 0.0395 0.75025 0.77218 0.0
C708 C 0.10152 0.79207 0.79167 0.0
C709 C 0.12497 0.7551 0.80075 0.0
C710 C 0.10381 0.71591 0.79815 0.0
C711 C 0.06191 0.71351 0.78368 0.0
H712 H 0.83726 0.78162 0.198 0.0
H713 H 0.70419 0.76584 0.17321 0.0
H714 H 0.82817 0.85826 0.19846 0.0
H715 H 0.69476 0.84267 0.17267 0.0
H716 H 0.68936 0.96082 0.26183 0.0
H717 H 0.69536 0.89008 0.23261 0.0
H718 H 0.80992 0.92664 0.16721 0.0
H719 H 0.80406 0.99771 0.19694 0.0
C720 C 0.80648 0.79474 0.19024 0.0
C721 C 0.77165 0.7678 0.18453 0.0
C722 C 0.80112 0.83877 0.19075 0.0
C723 C 0.76056 0.85688 0.18621 0.0
C724 C 0.72637 0.82989 0.17678 0.0
C725 C 0.73186 0.78581 0.17608 0.0
C726 C 0.71536 0.95416 0.24049 0.0
C727 C 0.74637 0.985 0.23211 0.0
C728 C 0.71868 0.91349 0.22341 0.0
C729 C 0.75329 0.90232 0.19761 0.0
C730 C 0.78307 0.93391 0.18726 0.0
C731 C 0.77954 0.97481 0.20412 0.0
H732 H 0.96754 0.34947 0.73039 0.0
H733 H 1.00734 0.23661 0.79667 0.0
H734 H 0.89668 0.34215 0.76013 0.0
H735 H 0.93608 0.22921 0.82656 0.0
H736 H 0.79097 0.19962 0.7953 0.0
H737 H 0.86757 0.20973 0.79425 0.0
H738 H 0.84986 0.34209 0.82246 0.0
H739 H 0.77299 0.33156 0.82338 0.0
C740 C 0.96146 0.32359 0.7521 0.0
C741 C 0.99323 0.29356 0.76088 0.0
C742 C 0.92075 0.3195 0.76943 0.0
C743 C 0.9104 0.28498 0.79575 0.0
C744 C 0.94278 0.25604 0.80623 0.0
C745 C 0.98376 0.26045 0.78927 0.0
C746 C 0.80358 0.23031 0.80368 0.0
C747 C 0.776 0.26455 0.81046 0.0
C748 C 0.8476 0.23627 0.80271 0.0
C749 C 0.86508 0.2769 0.80765 0.0
C750 C 0.83754 0.31046 0.81808 0.0
C751 C 0.79346 0.30431 0.81951 0.0
H752 H 0.71603 0.28064 0.3125 0.0
H753 H 0.84992 0.26403 0.2925 0.0
H754 H 0.7249 0.35739 0.30821 0.0
H755 H 0.8597 0.34023 0.29107 0.0
H756 H 0.84627 0.46034 0.20974 0.0
H757 H 0.84414 0.3886 0.23688 0.0
H758 H 0.75107 0.4259 0.3298 0.0
H759 H 0.75258 0.49822 0.30162 0.0
C760 C 0.74775 0.29346 0.31005 0.0
C761 C 0.78256 0.26619 0.30485 0.0
C762 C 0.75291 0.33759 0.3072 0.0
C763 C 0.79303 0.35538 0.29866 0.0
C764 C 0.82821 0.32795 0.29698 0.0
C765 C 0.82289 0.28404 0.29919 0.0
C766 C 0.8259 0.45361 0.23649 0.0
C767 C 0.79959 0.48525 0.25333 0.0
C768 C 0.82483 0.41224 0.25239 0.0
C769 C 0.79743 0.401 0.28578 0.0
C770 C 0.77231 0.43311 0.30388 0.0
C771 C 0.77349 0.47475 0.28796 0.0
H772 H 0.5077 0.30223 0.69781 0.0
H773 H 0.46646 0.19071 0.76545 0.0
H774 H 0.43598 0.31176 0.66998 0.0
H775 H 0.39512 0.19995 0.73727 0.0
H776 H 0.29245 0.34529 0.7075 0.0
H777 H 0.36883 0.33266 0.70793 0.0
H778 H 0.34749 0.2025 0.67332 0.0
H779 H 0.2708 0.21564 0.67248 0.0
C780 C 0.48371 0.27903 0.70579 0.0
C781 C 0.49288 0.24575 0.73407 0.0
C782 C 0.4425 0.28467 0.69001 0.0
C783 C 0.40966 0.25672 0.70145 0.0
C784 C 0.41963 0.22185 0.7274 0.0
C785 C 0.46057 0.21663 0.74374 0.0
C786 C 0.30426 0.31455 0.69799 0.0
C787 C 0.27579 0.28167 0.68923 0.0
C788 C 0.34806 0.30719 0.69841 0.0
C789 C 0.36439 0.26642 0.69108 0.0
C790 C 0.33597 0.23421 0.67935 0.0
C791 C 0.29208 0.24185 0.67817 0.0
H792 H 0.33836 0.75364 0.29095 0.0
H793 H 0.20782 0.75645 0.33009 0.0
H794 H 0.33564 0.67671 0.28713 0.0
H795 H 0.20519 0.67969 0.32852 0.0
H796 H 0.32257 0.53458 0.28469 0.0
H797 H 0.32779 0.60575 0.31449 0.0
H798 H 0.20151 0.63375 0.26987 0.0
H799 H 0.19612 0.56301 0.24115 0.0
C800 C 0.30981 0.73769 0.30141 0.0
C801 C 0.2738 0.76144 0.31262 0.0
C802 C 0.30808 0.69339 0.2989 0.0
C803 C 0.26999 0.67158 0.30697 0.0
C804 C 0.23499 0.69518 0.32151 0.0
C805 C 0.23678 0.73949 0.32381 0.0
C806 C 0.29561 0.55567 0.28207 0.0
C807 C 0.25899 0.54296 0.26022 0.0
C808 C 0.2987 0.59668 0.29892 0.0
C809 C 0.26517 0.62595 0.29462 0.0
C810 C 0.22786 0.61227 0.27457 0.0
C811 C 0.22484 0.57152 0.25769 0.0
H812 H 0.54495 0.71466 0.74108 0.0
H813 H 0.54573 0.84948 0.71931 0.0
H814 H 0.61805 0.71015 0.71666 0.0
H815 H 0.61804 0.84493 0.69262 0.0
H816 H 0.76087 0.83107 0.7203 0.0
H817 H 0.68445 0.83761 0.72165 0.0
H818 H 0.67324 0.71293 0.66728 0.0
H819 H 0.75053 0.70617 0.66792 0.0
C820 C 0.56033 0.74323 0.72992 0.0
C821 C 0.53955 0.78255 0.73278 0.0
C822 C 0.60245 0.74065 0.7156 0.0
C823 C 0.62484 0.77727 0.70312 0.0
C824 C 0.60269 0.8161 0.70306 0.0
C825 C 0.56091 0.81875 0.71807 0.0
C826 C 0.74211 0.8058 0.70689 0.0
C827 C 0.76193 0.76867 0.69275 0.0
C828 C 0.69793 0.80941 0.70777 0.0
C829 C 0.67189 0.77575 0.6948 0.0
C830 C 0.6919 0.73943 0.67812 0.0
C831 C 0.73641 0.73581 0.67746 0.0
loop_
_geom_bond_atom_site_label_1
_geom_bond_atom_site_label_2
_geom_bond_distance
_geom_bond_site_symmetry_2
_ccdc_geom_bond_type
Zn0 N4 2.020 . S
Zn0 O8 2.019 . S
Zn0 N10 2.119 . S
Zn0 O18 1.975 . S
C1 N2 1.334 . S
C1 N5 1.336 . S
N2 C1 1.334 . S
N2 C3 1.334 . S
C3 N2 1.334 . S
C3 N4 1.336 . S
N4 Zn0 2.020 . S
N4 C3 1.336 . S
N4 N5 1.354 . S
N5 C1 1.336 . S
N5 N4 1.354 . S
N5 Zn9 2.020 . S
C6 O7 1.244 . S
C6 O30 1.257 . S
O7 C6 1.244 . S
O8 Zn0 2.019 . S
O8 C28 1.257 . S
Zn9 N5 2.020 . S
Zn9 O16 1.975 . S
Zn9 N25 2.119 . S
Zn9 O30 2.019 . S
N10 Zn0 2.119 . S
N10 C12 1.334 . S
N10 C13 1.328 . S
C11 C12 1.391 . S
C11 N14 1.329 . S
C11 H32 0.930 . S
C12 N10 1.334 . S
C12 C11 1.391 . S
C12 H19 0.930 . S
C13 N10 1.328 . S
C13 C15 1.392 . S
C13 H20 0.930 . S
N14 C11 1.329 . S
N14 C15 1.331 . S
C15 C13 1.392 . S
C15 N14 1.331 . S
O16 Zn9 1.975 . S
O16 C17 1.252 . S
C17 O16 1.252 . S
C17 O18 1.252 . S
O18 Zn0 1.975 . S
O18 C17 1.252 . S
H19 C12 0.930 . S
H20 C13 0.930 . S
C21 C22 1.392 . S
C21 N25 1.328 . S
C21 H27 0.930 . S
C22 C21 1.392 . S
C22 N26 1.331 . S
C23 C24 1.391 . S
C23 N26 1.329 . S
C23 H33 0.930 . S
C24 C23 1.391 . S
C24 N25 1.334 . S
C24 H31 0.930 . S
N25 Zn9 2.119 . S
N25 C21 1.328 . S
N25 C24 1.334 . S
N26 C22 1.331 . S
N26 C23 1.329 . S
H27 C21 0.930 . S
C28 O8 1.257 . S
C28 O29 1.244 . S
O29 C28 1.244 . S
O30 C6 1.257 . S
O30 Zn9 2.019 . S
H31 C24 0.930 . S
H32 C11 0.930 . S
H33 C23 0.930 . S
Zn34 N38 2.020 . S
Zn34 O42 2.019 . S
Zn34 N44 2.119 . S
Zn34 O52 1.975 . S
C35 N36 1.334 . S
C35 N39 1.336 . S
N36 C35 1.334 . S
N36 C37 1.334 . S
C37 N36 1.334 . S
C37 N38 1.336 . S
N38 Zn34 2.020 . S
N38 C37 1.336 . S
N38 N39 1.354 . S
N39 C35 1.336 . S
N39 N38 1.354 . S
N39 Zn43 2.020 . S
C40 O41 1.244 . S
C40 O64 1.257 . S
O41 C40 1.244 . S
O42 Zn34 2.019 . S
O42 C62 1.257 . S
Zn43 N39 2.020 . S
Zn43 O50 1.975 . S
Zn43 N59 2.119 . S
Zn43 O64 2.019 . S
N44 Zn34 2.119 . S
N44 C46 1.334 . S
N44 C47 1.328 . S
C45 C46 1.391 . S
C45 N48 1.329 . S
C45 H66 0.930 . S
C46 N44 1.334 . S
C46 C45 1.391 . S
C46 H53 0.930 . S
C47 N44 1.328 . S
C47 C49 1.392 . S
C47 H54 0.930 . S
N48 C45 1.329 . S
N48 C49 1.331 . S
C49 C47 1.392 . S
C49 N48 1.331 . S
O50 Zn43 1.975 . S
O50 C51 1.252 . S
C51 O50 1.252 . S
C51 O52 1.252 . S
O52 Zn34 1.975 . S
O52 C51 1.252 . S
H53 C46 0.930 . S
H54 C47 0.930 . S
C55 C56 1.392 . S
C55 N59 1.328 . S
C55 H61 0.930 . S
C56 C55 1.392 . S
C56 N60 1.331 . S
C57 C58 1.391 . S
C57 N60 1.329 . S
C57 H67 0.930 . S
C58 C57 1.391 . S
C58 N59 1.334 . S
C58 H65 0.930 . S
N59 Zn43 2.119 . S
N59 C55 1.328 . S
N59 C58 1.334 . S
N60 C56 1.331 . S
N60 C57 1.329 . S
H61 C55 0.930 . S
C62 O42 1.257 . S
C62 O63 1.244 . S
O63 C62 1.244 . S
O64 C40 1.257 . S
O64 Zn43 2.019 . S
H65 C58 0.930 . S
H66 C45 0.930 . S
H67 C57 0.930 . S
Zn68 N72 2.020 . S
Zn68 O76 2.019 . S
Zn68 N78 2.119 . S
Zn68 O86 1.975 . S
C69 N70 1.334 . S
C69 N73 1.336 . S
N70 C69 1.334 . S
N70 C71 1.334 . S
C71 N70 1.334 . S
C71 N72 1.336 . S
N72 Zn68 2.020 . S
N72 C71 1.336 . S
N72 N73 1.354 . S
N73 C69 1.336 . S
N73 N72 1.354 . S
N73 Zn77 2.020 . S
C74 O75 1.244 . S
C74 O98 1.257 . S
O75 C74 1.244 . S
O76 Zn68 2.019 . S
O76 C96 1.257 . S
Zn77 N73 2.020 . S
Zn77 O84 1.975 . S
Zn77 N93 2.119 . S
Zn77 O98 2.019 . S
N78 Zn68 2.119 . S
N78 C80 1.334 . S
N78 C81 1.328 . S
C79 C80 1.391 . S
C79 N82 1.329 . S
C79 H100 0.930 . S
C80 N78 1.334 . S
C80 C79 1.391 . S
C80 H87 0.930 . S
C81 N78 1.328 . S
C81 C83 1.392 . S
C81 H88 0.930 . S
N82 C79 1.329 . S
N82 C83 1.331 . S
C83 C81 1.392 . S
C83 N82 1.331 . S
O84 Zn77 1.975 . S
O84 C85 1.252 . S
C85 O84 1.252 . S
C85 O86 1.252 . S
O86 Zn68 1.975 . S
O86 C85 1.252 . S
H87 C80 0.930 . S
H88 C81 0.930 . S
C89 C90 1.392 . S
C89 N93 1.328 . S
C89 H95 0.930 . S
C90 C89 1.392 . S
C90 N94 1.331 . S
C91 C92 1.391 . S
C91 N94 1.329 . S
C91 H101 0.930 . S
C92 C91 1.391 . S
C92 N93 1.334 . S
C92 H99 0.930 . S
N93 Zn77 2.119 . S
N93 C89 1.328 . S
N93 C92 1.334 . S
N94 C90 1.331 . S
N94 C91 1.329 . S
H95 C89 0.930 . S
C96 O76 1.257 . S
C96 O97 1.244 . S
O97 C96 1.244 . S
O98 C74 1.257 . S
O98 Zn77 2.019 . S
H99 C92 0.930 . S
H100 C79 0.930 . S
H101 C91 0.930 . S
Zn102 N106 2.020 . S
Zn102 O110 2.019 . S
Zn102 N112 2.119 . S
Zn102 O120 1.975 . S
C103 N104 1.334 . S
C103 N107 1.336 . S
N104 C103 1.334 . S
N104 C105 1.334 . S
C105 N104 1.334 . S
C105 N106 1.336 . S
N106 Zn102 2.020 . S
N106 C105 1.336 . S
N106 N107 1.354 . S
N107 C103 1.336 . S
N107 N106 1.354 . S
N107 Zn111 2.020 . S
C108 O109 1.244 . S
C108 O132 1.257 . S
O109 C108 1.244 . S
O110 Zn102 2.019 . S
O110 C130 1.257 . S
Zn111 N107 2.020 . S
Zn111 O118 1.975 . S
Zn111 N127 2.119 . S
Zn111 O132 2.019 . S
N112 Zn102 2.119 . S
N112 C114 1.334 . S
N112 C115 1.328 . S
C113 C114 1.391 . S
C113 N116 1.329 . S
C113 H134 0.930 . S
C114 N112 1.334 . S
C114 C113 1.391 . S
C114 H121 0.930 . S
C115 N112 1.328 . S
C115 C117 1.392 . S
C115 H122 0.930 . S
N116 C113 1.329 . S
N116 C117 1.331 . S
C117 C115 1.392 . S
C117 N116 1.331 . S
O118 Zn111 1.975 . S
O118 C119 1.252 . S
C119 O118 1.252 . S
C119 O120 1.252 . S
O120 Zn102 1.975 . S
O120 C119 1.252 . S
H121 C114 0.930 . S
H122 C115 0.930 . S
C123 C124 1.392 . S
C123 N127 1.328 . S
C123 H129 0.930 . S
C124 C123 1.392 . S
C124 N128 1.331 . S
C125 C126 1.391 . S
C125 N128 1.329 . S
C125 H135 0.930 . S
C126 C125 1.391 . S
C126 N127 1.334 . S
C126 H133 0.930 . S
N127 Zn111 2.119 . S
N127 C123 1.328 . S
N127 C126 1.334 . S
N128 C124 1.331 . S
N128 C125 1.329 . S
H129 C123 0.930 . S
C130 O110 1.257 . S
C130 O131 1.244 . S
O131 C130 1.244 . S
O132 C108 1.257 . S
O132 Zn111 2.019 . S
H133 C126 0.930 . S
H134 C113 0.930 . S
H135 C125 0.930 . S
Zn136 N140 2.020 . S
Zn136 O144 2.019 . S
Zn136 N146 2.119 . S
Zn136 O154 1.975 . S
C137 N138 1.334 . S
C137 N141 1.336 . S
N138 C137 1.334 . S
N138 C139 1.334 . S
C139 N138 1.334 . S
C139 N140 1.336 . S
N140 Zn136 2.020 . S
N140 C139 1.336 . S
N140 N141 1.354 . S
N141 C137 1.336 . S
N141 N140 1.354 . S
N141 Zn145 2.020 . S
C142 O143 1.244 1_565 S
C142 O166 1.257 . S
O143 C142 1.244 1_545 S
O144 Zn136 2.019 . S
O144 C164 1.257 . S
Zn145 N141 2.020 . S
Zn145 O152 1.975 . S
Zn145 N161 2.119 . S
Zn145 O166 2.019 1_545 S
N146 Zn136 2.119 . S
N146 C148 1.334 . S
N146 C149 1.328 . S
C147 C148 1.391 . S
C147 N150 1.329 . S
C147 H168 0.930 . S
C148 N146 1.334 . S
C148 C147 1.391 . S
C148 H155 0.930 . S
C149 N146 1.328 . S
C149 C151 1.392 . S
C149 H156 0.930 . S
N150 C147 1.329 . S
N150 C151 1.331 . S
C151 C149 1.392 . S
C151 N150 1.331 . S
O152 Zn145 1.975 . S
O152 C153 1.252 . S
C153 O152 1.252 . S
C153 O154 1.252 . S
O154 Zn136 1.975 . S
O154 C153 1.252 . S
H155 C148 0.930 . S
H156 C149 0.930 . S
C157 C158 1.392 . S
C157 N161 1.328 . S
C157 H163 0.930 1_545 S
C158 C157 1.392 . S
C158 N162 1.331 . S
C159 C160 1.391 . S
C159 N162 1.329 . S
C159 H169 0.930 . S
C160 C159 1.391 . S
C160 N161 1.334 . S
C160 H167 0.930 . S
N161 Zn145 2.119 . S
N161 C157 1.328 . S
N161 C160 1.334 . S
N162 C158 1.331 . S
N162 C159 1.329 . S
H163 C157 0.930 1_565 S
C164 O144 1.257 . S
C164 O165 1.244 . S
O165 C164 1.244 . S
O166 C142 1.257 . S
O166 Zn145 2.019 1_565 S
H167 C160 0.930 . S
H168 C147 0.930 . S
H169 C159 0.930 . S
Zn170 N174 2.020 . S
Zn170 O178 2.019 1_455 S
Zn170 N180 2.119 . S
Zn170 O188 1.975 . S
C171 N172 1.334 . S
C171 N175 1.336 . S
N172 C171 1.334 . S
N172 C173 1.334 . S
C173 N172 1.334 . S
C173 N174 1.336 . S
N174 Zn170 2.020 . S
N174 C173 1.336 . S
N174 N175 1.354 . S
N175 C171 1.336 . S
N175 N174 1.354 . S
N175 Zn179 2.020 . S
C176 O177 1.244 . S
C176 O200 1.257 . S
O177 C176 1.244 . S
O178 Zn170 2.019 1_655 S
O178 C198 1.257 . S
Zn179 N175 2.020 . S
Zn179 O186 1.975 . S
Zn179 N195 2.119 . S
Zn179 O200 2.019 . S
N180 Zn170 2.119 . S
N180 C182 1.334 . S
N180 C183 1.328 . S
C181 C182 1.391 . S
C181 N184 1.329 . S
C181 H202 0.930 . S
C182 N180 1.334 . S
C182 C181 1.391 . S
C182 H189 0.930 . S
C183 N180 1.328 . S
C183 C185 1.392 . S
C183 H190 0.930 1_455 S
N184 C181 1.329 . S
N184 C185 1.331 . S
C185 C183 1.392 . S
C185 N184 1.331 . S
O186 Zn179 1.975 . S
O186 C187 1.252 . S
C187 O186 1.252 . S
C187 O188 1.252 . S
O188 Zn170 1.975 . S
O188 C187 1.252 . S
H189 C182 0.930 . S
H190 C183 0.930 1_655 S
C191 C192 1.392 . S
C191 N195 1.328 . S
C191 H197 0.930 . S
C192 C191 1.392 . S
C192 N196 1.331 . S
C193 C194 1.391 . S
C193 N196 1.329 . S
C193 H203 0.930 . S
C194 C193 1.391 . S
C194 N195 1.334 . S
C194 H201 0.930 . S
N195 Zn179 2.119 . S
N195 C191 1.328 . S
N195 C194 1.334 . S
N196 C192 1.331 . S
N196 C193 1.329 . S
H197 C191 0.930 . S
C198 O178 1.257 . S
C198 O199 1.244 1_655 S
O199 C198 1.244 1_455 S
O200 C176 1.257 . S
O200 Zn179 2.019 . S
H201 C194 0.930 . S
H202 C181 0.930 . S
H203 C193 0.930 . S
Zn204 N208 2.020 . S
Zn204 O212 2.019 . S
Zn204 N214 2.119 . S
Zn204 O222 1.975 . S
C205 N206 1.334 . S
C205 N209 1.336 . S
N206 C205 1.334 . S
N206 C207 1.334 . S
C207 N206 1.334 . S
C207 N208 1.336 . S
N208 Zn204 2.020 . S
N208 C207 1.336 . S
N208 N209 1.354 . S
N209 C205 1.336 . S
N209 N208 1.354 . S
N209 Zn213 2.020 . S
C210 O211 1.244 1_545 S
C210 O234 1.257 . S
O211 C210 1.244 1_565 S
O212 Zn204 2.019 . S
O212 C232 1.257 . S
Zn213 N209 2.020 . S
Zn213 O220 1.975 . S
Zn213 N229 2.119 . S
Zn213 O234 2.019 1_565 S
N214 Zn204 2.119 . S
N214 C216 1.334 . S
N214 C217 1.328 . S
C215 C216 1.391 . S
C215 N218 1.329 . S
C215 H236 0.930 . S
C216 N214 1.334 . S
C216 C215 1.391 . S
C216 H223 0.930 . S
C217 N214 1.328 . S
C217 C219 1.392 . S
C217 H224 0.930 . S
N218 C215 1.329 . S
N218 C219 1.331 . S
C219 C217 1.392 . S
C219 N218 1.331 . S
O220 Zn213 1.975 . S
O220 C221 1.252 . S
C221 O220 1.252 . S
C221 O222 1.252 . S
O222 Zn204 1.975 . S
O222 C221 1.252 . S
H223 C216 0.930 . S
H224 C217 0.930 . S
C225 C226 1.392 . S
C225 N229 1.328 . S
C225 H231 0.930 1_565 S
C226 C225 1.392 . S
C226 N230 1.331 . S
C227 C228 1.391 . S
C227 N230 1.329 . S
C227 H237 0.930 . S
C228 C227 1.391 . S
C228 N229 1.334 . S
C228 H235 0.930 . S
N229 Zn213 2.119 . S
N229 C225 1.328 . S
N229 C228 1.334 . S
N230 C226 1.331 . S
N230 C227 1.329 . S
H231 C225 0.930 1_545 S
C232 O212 1.257 . S
C232 O233 1.244 . S
O233 C232 1.244 . S
O234 C210 1.257 . S
O234 Zn213 2.019 1_545 S
H235 C228 0.930 . S
H236 C215 0.930 . S
H237 C227 0.930 . S
Zn238 N242 2.020 . S
Zn238 O246 2.019 1_655 S
Zn238 N248 2.119 . S
Zn238 O256 1.975 . S
C239 N240 1.334 . S
C239 N243 1.336 . S
N240 C239 1.334 . S
N240 C241 1.334 . S
C241 N240 1.334 . S
C241 N242 1.336 . S
N242 Zn238 2.020 . S
N242 C241 1.336 . S
N242 N243 1.354 . S
N243 C239 1.336 . S
N243 N242 1.354 . S
N243 Zn247 2.020 . S
C244 O245 1.244 . S
C244 O268 1.257 . S
O245 C244 1.244 . S
O246 Zn238 2.019 1_455 S
O246 C266 1.257 . S
Zn247 N243 2.020 . S
Zn247 O254 1.975 . S
Zn247 N263 2.119 . S
Zn247 O268 2.019 . S
N248 Zn238 2.119 . S
N248 C250 1.334 . S
N248 C251 1.328 . S
C249 C250 1.391 . S
C249 N252 1.329 . S
C249 H270 0.930 . S
C250 N248 1.334 . S
C250 C249 1.391 . S
C250 H257 0.930 . S
C251 N248 1.328 . S
C251 C253 1.392 . S
C251 H258 0.930 1_655 S
N252 C249 1.329 . S
N252 C253 1.331 . S
C253 C251 1.392 . S
C253 N252 1.331 . S
O254 Zn247 1.975 . S
O254 C255 1.252 . S
C255 O254 1.252 . S
C255 O256 1.252 . S
O256 Zn238 1.975 . S
O256 C255 1.252 . S
H257 C250 0.930 . S
H258 C251 0.930 1_455 S
C259 C260 1.392 . S
C259 N263 1.328 . S
C259 H265 0.930 . S
C260 C259 1.392 . S
C260 N264 1.331 . S
C261 C262 1.391 . S
C261 N264 1.329 . S
C261 H271 0.930 . S
C262 C261 1.391 . S
C262 N263 1.334 . S
C262 H269 0.930 . S
N263 Zn247 2.119 . S
N263 C259 1.328 . S
N263 C262 1.334 . S
N264 C260 1.331 . S
N264 C261 1.329 . S
H265 C259 0.930 . S
C266 O246 1.257 . S
C266 O267 1.244 1_455 S
O267 C266 1.244 1_655 S
O268 C244 1.257 . S
O268 Zn247 2.019 . S
H269 C262 0.930 . S
H270 C249 0.930 . S
H271 C261 0.930 . S
H272 C280 0.950 . S
H273 C285 0.950 1_554 S
H274 C282 0.950 . S
H275 C284 0.950 . S
H276 C286 0.950 . S
H277 C288 0.950 . S
H278 C290 0.950 . S
H279 C291 0.950 . S
C280 H272 0.950 . S
C280 C281 1.386 . S
C280 C282 1.391 . S
C281 C280 1.386 . S
C281 C285 1.393 . S
C282 H274 0.950 . S
C282 C280 1.391 . S
C282 C283 1.400 . S
C283 C282 1.400 . S
C283 C284 1.398 . S
C283 C289 1.491 . S
C284 H275 0.950 . S
C284 C283 1.398 . S
C284 C285 1.391 . S
C285 H273 0.950 1_556 S
C285 C281 1.393 . S
C285 C284 1.391 . S
C286 H276 0.950 . S
C286 C287 1.386 . S
C286 C288 1.391 . S
C287 C286 1.386 . S
C287 C291 1.393 . S
C288 H277 0.950 . S
C288 C286 1.391 . S
C288 C289 1.400 . S
C289 C283 1.491 . S
C289 C288 1.400 . S
C289 C290 1.398 . S
C290 H278 0.950 . S
C290 C289 1.398 . S
C290 C291 1.391 . S
C291 H279 0.950 . S
C291 C287 1.393 . S
C291 C290 1.391 . S
H292 C300 0.950 . S
H293 C305 0.950 . S
H294 C302 0.950 . S
H295 C304 0.950 . S
H296 C306 0.950 . S
H297 C308 0.950 . S
H298 C310 0.950 . S
H299 C311 0.950 . S
C300 H292 0.950 . S
C300 C301 1.386 . S
C300 C302 1.391 . S
C301 C300 1.386 . S
C301 C305 1.393 . S
C302 H294 0.950 . S
C302 C300 1.391 . S
C302 C303 1.400 . S
C303 C302 1.400 . S
C303 C304 1.398 . S
C303 C309 1.491 . S
C304 H295 0.950 . S
C304 C303 1.398 . S
C304 C305 1.391 . S
C305 H293 0.950 . S
C305 C301 1.393 . S
C305 C304 1.391 . S
C306 H296 0.950 . S
C306 C307 1.386 . S
C306 C308 1.391 . S
C307 C306 1.386 . S
C307 C311 1.393 . S
C308 H297 0.950 . S
C308 C306 1.391 . S
C308 C309 1.400 . S
C309 C303 1.491 . S
C309 C308 1.400 . S
C309 C310 1.398 . S
C310 H298 0.950 . S
C310 C309 1.398 . S
C310 C311 1.391 . S
C311 H299 0.950 . S
C311 C307 1.393 . S
C311 C310 1.391 . S
H312 C320 0.950 . S
H313 C325 0.950 . S
H314 C322 0.950 . S
H315 C324 0.950 . S
H316 C326 0.950 . S
H317 C328 0.950 . S
H318 C330 0.950 . S
H319 C331 0.950 . S
C320 H312 0.950 . S
C320 C321 1.386 . S
C320 C322 1.391 . S
C321 C320 1.386 . S
C321 C325 1.393 . S
C322 H314 0.950 . S
C322 C320 1.391 . S
C322 C323 1.400 . S
C323 C322 1.400 . S
C323 C324 1.398 . S
C323 C329 1.491 . S
C324 H315 0.950 . S
C324 C323 1.398 . S
C324 C325 1.391 . S
C325 H313 0.950 . S
C325 C321 1.393 . S
C325 C324 1.391 . S
C326 H316 0.950 . S
C326 C327 1.386 . S
C326 C328 1.391 . S
C327 C326 1.386 . S
C327 C331 1.393 . S
C328 H317 0.950 . S
C328 C326 1.391 . S
C328 C329 1.400 . S
C329 C323 1.491 . S
C329 C328 1.400 . S
C329 C330 1.398 . S
C330 H318 0.950 . S
C330 C329 1.398 . S
C330 C331 1.391 . S
C331 H319 0.950 . S
C331 C327 1.393 . S
C331 C330 1.391 . S
H332 C340 0.950 . S
H333 C345 0.950 . S
H334 C342 0.950 . S
H335 C344 0.950 . S
H336 C346 0.950 . S
H337 C348 0.950 . S
H338 C350 0.950 . S
H339 C351 0.950 1_556 S
C340 H332 0.950 . S
C340 C341 1.386 . S
C340 C342 1.391 . S
C341 C340 1.386 . S
C341 C345 1.393 . S
C342 H334 0.950 . S
C342 C340 1.391 . S
C342 C343 1.400 . S
C343 C342 1.400 . S
C343 C344 1.398 . S
C343 C349 1.491 . S
C344 H335 0.950 . S
C344 C343 1.398 . S
C344 C345 1.391 . S
C345 H333 0.950 . S
C345 C341 1.393 . S
C345 C344 1.391 . S
C346 H336 0.950 . S
C346 C347 1.386 . S
C346 C348 1.391 . S
C347 C346 1.386 . S
C347 C351 1.393 . S
C348 H337 0.950 . S
C348 C346 1.391 . S
C348 C349 1.400 . S
C349 C343 1.491 . S
C349 C348 1.400 . S
C349 C350 1.398 . S
C350 H338 0.950 . S
C350 C349 1.398 . S
C350 C351 1.391 . S
C351 H339 0.950 1_554 S
C351 C347 1.393 . S
C351 C350 1.391 . S
H352 C360 0.950 . S
H353 C365 0.950 . S
H354 C362 0.950 . S
H355 C364 0.950 . S
H356 C366 0.950 . S
H357 C368 0.950 . S
H358 C370 0.950 . S
H359 C371 0.950 . S
C360 H352 0.950 . S
C360 C361 1.386 . S
C360 C362 1.391 . S
C361 C360 1.386 . S
C361 C365 1.393 . S
C362 H354 0.950 . S
C362 C360 1.391 . S
C362 C363 1.400 . S
C363 C362 1.400 . S
C363 C364 1.398 . S
C363 C369 1.491 . S
C364 H355 0.950 . S
C364 C363 1.398 . S
C364 C365 1.391 . S
C365 H353 0.950 . S
C365 C361 1.393 . S
C365 C364 1.391 . S
C366 H356 0.950 . S
C366 C367 1.386 . S
C366 C368 1.391 . S
C367 C366 1.386 . S
C367 C371 1.393 . S
C368 H357 0.950 . S
C368 C366 1.391 . S
C368 C369 1.400 . S
C369 C363 1.491 . S
C369 C368 1.400 . S
C369 C370 1.398 . S
C370 H358 0.950 . S
C370 C369 1.398 . S
C370 C371 1.391 . S
C371 H359 0.950 . S
C371 C367 1.393 . S
C371 C370 1.391 . S
H372 C380 0.950 . S
H373 C385 0.950 . S
H374 C382 0.950 . S
H375 C384 0.950 . S
H376 C386 0.950 . S
H377 C388 0.950 . S
H378 C390 0.950 . S
H379 C391 0.950 . S
C380 H372 0.950 . S
C380 C381 1.386 . S
C380 C382 1.391 . S
C381 C380 1.386 . S
C381 C385 1.393 . S
C382 H374 0.950 . S
C382 C380 1.391 . S
C382 C383 1.400 . S
C383 C382 1.400 . S
C383 C384 1.398 . S
C383 C389 1.491 . S
C384 H375 0.950 . S
C384 C383 1.398 . S
C384 C385 1.391 . S
C385 H373 0.950 . S
C385 C381 1.393 . S
C385 C384 1.391 . S
C386 H376 0.950 . S
C386 C387 1.386 . S
C386 C388 1.391 . S
C387 C386 1.386 . S
C387 C391 1.393 . S
C388 H377 0.950 . S
C388 C386 1.391 . S
C388 C389 1.400 . S
C389 C383 1.491 . S
C389 C388 1.400 . S
C389 C390 1.398 . S
C390 H378 0.950 . S
C390 C389 1.398 . S
C390 C391 1.391 . S
C391 H379 0.950 . S
C391 C387 1.393 . S
C391 C390 1.391 . S
H392 C400 0.950 . S
H393 C405 0.950 . S
H394 C402 0.950 . S
H395 C404 0.950 . S
H396 C406 0.950 . S
H397 C408 0.950 . S
H398 C410 0.950 . S
H399 C411 0.950 . S
C400 H392 0.950 . S
C400 C401 1.386 . S
C400 C402 1.391 . S
C401 C400 1.386 . S
C401 C405 1.393 . S
C402 H394 0.950 . S
C402 C400 1.391 . S
C402 C403 1.400 . S
C403 C402 1.400 . S
C403 C404 1.398 . S
C403 C409 1.491 . S
C404 H395 0.950 . S
C404 C403 1.398 . S
C404 C405 1.391 . S
C405 H393 0.950 . S
C405 C401 1.393 . S
C405 C404 1.391 . S
C406 H396 0.950 . S
C406 C407 1.386 . S
C406 C408 1.391 . S
C407 C406 1.386 . S
C407 C411 1.393 . S
C408 H397 0.950 . S
C408 C406 1.391 . S
C408 C409 1.400 . S
C409 C403 1.491 . S
C409 C408 1.400 . S
C409 C410 1.398 . S
C410 H398 0.950 . S
C410 C409 1.398 . S
C410 C411 1.391 . S
C411 H399 0.950 . S
C411 C407 1.393 . S
C411 C410 1.391 . S
H412 C420 0.950 . S
H413 C425 0.950 . S
H414 C422 0.950 . S
H415 C424 0.950 . S
H416 C426 0.950 . S
H417 C428 0.950 . S
H418 C430 0.950 . S
H419 C431 0.950 . S
C420 H412 0.950 . S
C420 C421 1.386 . S
C420 C422 1.391 . S
C421 C420 1.386 . S
C421 C425 1.393 . S
C422 H414 0.950 . S
C422 C420 1.391 . S
C422 C423 1.400 . S
C423 C422 1.400 . S
C423 C424 1.398 . S
C423 C429 1.491 . S
C424 H415 0.950 . S
C424 C423 1.398 . S
C424 C425 1.391 . S
C425 H413 0.950 . S
C425 C421 1.393 . S
C425 C424 1.391 . S
C426 H416 0.950 . S
C426 C427 1.386 . S
C426 C428 1.391 . S
C427 C426 1.386 . S
C427 C431 1.393 . S
C428 H417 0.950 . S
C428 C426 1.391 . S
C428 C429 1.400 . S
C429 C423 1.491 . S
C429 C428 1.400 . S
C429 C430 1.398 . S
C430 H418 0.950 . S
C430 C429 1.398 . S
C430 C431 1.391 . S
C431 H419 0.950 . S
C431 C427 1.393 . S
C431 C430 1.391 . S
H432 C440 0.950 . S
H433 C445 0.950 . S
H434 C442 0.950 . S
H435 C444 0.950 . S
H436 C446 0.950 . S
H437 C448 0.950 . S
H438 C450 0.950 . S
H439 C451 0.950 . S
C440 H432 0.950 . S
C440 C441 1.386 . S
C440 C442 1.391 . S
C441 C440 1.386 . S
C441 C445 1.393 . S
C442 H434 0.950 . S
C442 C440 1.391 . S
C442 C443 1.400 . S
C443 C442 1.400 . S
C443 C444 1.398 . S
C443 C449 1.491 . S
C444 H435 0.950 . S
C444 C443 1.398 . S
C444 C445 1.391 . S
C445 H433 0.950 . S
C445 C441 1.393 . S
C445 C444 1.391 . S
C446 H436 0.950 . S
C446 C447 1.386 . S
C446 C448 1.391 . S
C447 C446 1.386 . S
C447 C451 1.393 . S
C448 H437 0.950 . S
C448 C446 1.391 . S
C448 C449 1.400 1_554 S
C449 C443 1.491 . S
C449 C448 1.400 1_556 S
C449 C450 1.398 . S
C450 H438 0.950 . S
C450 C449 1.398 . S
C450 C451 1.391 1_556 S
C451 H439 0.950 . S
C451 C447 1.393 . S
C451 C450 1.391 1_554 S
H452 C460 0.950 . S
H453 C465 0.950 . S
H454 C462 0.950 1_556 S
H455 C464 0.950 . S
H456 C466 0.943 1_554 S
H457 C468 0.950 . S
H458 C470 0.950 . S
H459 C471 0.950 . S
C460 H452 0.950 . S
C460 C461 1.386 . S
C460 C462 1.391 . S
C461 C460 1.386 . S
C461 C465 1.393 . S
C462 H454 0.950 1_554 S
C462 C460 1.391 . S
C462 C463 1.400 . S
C463 C462 1.400 . S
C463 C464 1.398 . S
C463 C469 1.491 . S
C464 H455 0.950 . S
C464 C463 1.398 . S
C464 C465 1.391 . S
C465 H453 0.950 . S
C465 C461 1.393 . S
C465 C464 1.391 . S
C466 H456 0.943 1_556 S
C466 C467 1.386 . S
C466 C468 1.391 1_556 S
C467 C466 1.386 . S
C467 C471 1.393 . S
C468 H457 0.950 . S
C468 C466 1.391 1_554 S
C468 C469 1.400 . S
C469 C463 1.491 . S
C469 C468 1.400 . S
C469 C470 1.398 1_554 S
C470 H458 0.950 . S
C470 C469 1.398 1_556 S
C470 C471 1.391 . S
C471 H459 0.950 . S
C471 C467 1.393 . S
C471 C470 1.391 . S
H472 C480 0.950 . S
H473 C485 0.950 . S
H474 C482 0.950 . S
H475 C484 0.950 1_554 S
H476 C486 0.950 . S
H477 C488 0.950 . S
H478 C490 0.950 . S
H479 C491 0.950 1_556 S
C480 H472 0.950 . S
C480 C481 1.386 . S
C480 C482 1.391 . S
C481 C480 1.386 . S
C481 C485 1.393 . S
C482 H474 0.950 . S
C482 C480 1.391 . S
C482 C483 1.400 . S
C483 C482 1.400 . S
C483 C484 1.398 . S
C483 C489 1.491 . S
C484 H475 0.950 1_556 S
C484 C483 1.398 . S
C484 C485 1.391 . S
C485 H473 0.950 . S
C485 C481 1.393 . S
C485 C484 1.391 . S
C486 H476 0.950 . S
C486 C487 1.386 . S
C486 C488 1.391 . S
C487 C486 1.386 . S
C487 C491 1.393 . S
C488 H477 0.950 . S
C488 C486 1.391 . S
C488 C489 1.400 1_554 S
C489 C483 1.491 . S
C489 C488 1.400 1_556 S
C489 C490 1.398 . S
C490 H478 0.950 . S
C490 C489 1.398 . S
C490 C491 1.391 1_556 S
C491 H479 0.950 1_554 S
C491 C487 1.393 . S
C491 C490 1.391 1_554 S
H492 C500 0.950 . S
H493 C505 0.950 . S
H494 C502 0.950 1_554 S
H495 C504 0.950 . S
H496 C506 0.950 . S
H497 C508 0.950 . S
H498 C510 0.950 . S
H499 C511 0.950 . S
C500 H492 0.950 . S
C500 C501 1.386 . S
C500 C502 1.391 . S
C501 C500 1.386 . S
C501 C505 1.393 . S
C502 H494 0.950 1_556 S
C502 C500 1.391 . S
C502 C503 1.400 1_556 S
C503 C502 1.400 1_554 S
C503 C504 1.398 1_554 S
C503 C509 1.491 . S
C504 H495 0.950 . S
C504 C503 1.398 1_556 S
C504 C505 1.391 . S
C505 H493 0.950 . S
C505 C501 1.393 . S
C505 C504 1.391 . S
C506 H496 0.950 . S
C506 C507 1.386 . S
C506 C508 1.391 . S
C507 C506 1.386 . S
C507 C511 1.393 . S
C508 H497 0.950 . S
C508 C506 1.391 . S
C508 C509 1.400 . S
C509 C503 1.491 . S
C509 C508 1.400 . S
C509 C510 1.398 . S
C510 H498 0.950 . S
C510 C509 1.398 . S
C510 C511 1.391 . S
C511 H499 0.950 . S
C511 C507 1.393 . S
C511 C510 1.391 . S
H512 C520 0.950 . S
H513 C525 0.950 . S
H514 C522 0.950 . S
H515 C524 0.950 . S
H516 C526 0.950 . S
H517 C528 0.950 . S
H518 C530 0.950 . S
H519 C531 0.950 . S
C520 H512 0.950 . S
C520 C521 1.386 . S
C520 C522 1.391 . S
C521 C520 1.386 . S
C521 C525 1.393 . S
C522 H514 0.950 . S
C522 C520 1.391 . S
C522 C523 1.400 . S
C523 C522 1.400 . S
C523 C524 1.398 . S
C523 C529 1.491 . S
C524 H515 0.950 . S
C524 C523 1.398 . S
C524 C525 1.391 . S
C525 H513 0.950 . S
C525 C521 1.393 . S
C525 C524 1.391 . S
C526 H516 0.950 . S
C526 C527 1.386 . S
C526 C528 1.391 1_455 S
C527 C526 1.386 . S
C527 C531 1.393 1_455 S
C528 H517 0.950 . S
C528 C526 1.391 1_655 S
C528 C529 1.400 . S
C529 C523 1.491 . S
C529 C528 1.400 . S
C529 C530 1.398 . S
C530 H518 0.950 . S
C530 C529 1.398 . S
C530 C531 1.391 . S
C531 H519 0.950 . S
C531 C527 1.393 1_655 S
C531 C530 1.391 . S
H532 C540 0.950 . S
H533 C545 0.950 . S
H534 C542 0.950 . S
H535 C544 0.950 . S
H536 C546 0.950 . S
H537 C548 0.950 . S
H538 C550 0.950 . S
H539 C551 0.950 1_565 S
C540 H532 0.950 . S
C540 C541 1.386 . S
C540 C542 1.391 . S
C541 C540 1.386 . S
C541 C545 1.393 . S
C542 H534 0.950 . S
C542 C540 1.391 . S
C542 C543 1.400 . S
C543 C542 1.400 . S
C543 C544 1.398 . S
C543 C549 1.491 . S
C544 H535 0.950 . S
C544 C543 1.398 . S
C544 C545 1.391 . S
C545 H533 0.950 . S
C545 C541 1.393 . S
C545 C544 1.391 . S
C546 H536 0.950 . S
C546 C547 1.386 1_545 S
C546 C548 1.391 . S
C547 C546 1.386 1_565 S
C547 C551 1.393 1_565 S
C548 H537 0.950 . S
C548 C546 1.391 . S
C548 C549 1.400 . S
C549 C543 1.491 . S
C549 C548 1.400 . S
C549 C550 1.398 . S
C550 H538 0.950 . S
C550 C549 1.398 . S
C550 C551 1.391 . S
C551 H539 0.950 1_545 S
C551 C547 1.393 1_545 S
C551 C550 1.391 . S
H552 C560 0.950 . S
H553 C565 0.950 . S
H554 C562 0.950 . S
H555 C564 0.950 . S
H556 C566 0.953 . S
H557 C568 0.950 . S
H558 C570 0.950 . S
H559 C571 0.950 1_655 S
C560 H552 0.950 . S
C560 C561 1.386 . S
C560 C562 1.391 . S
C561 C560 1.386 . S
C561 C565 1.393 . S
C562 H554 0.950 . S
C562 C560 1.391 . S
C562 C563 1.400 . S
C563 C562 1.400 . S
C563 C564 1.398 . S
C563 C569 1.491 . S
C564 H555 0.950 . S
C564 C563 1.398 . S
C564 C565 1.391 . S
C565 H553 0.950 . S
C565 C561 1.393 . S
C565 C564 1.391 . S
C566 H556 0.953 . S
C566 C567 1.386 1_455 S
C566 C568 1.391 . S
C567 C566 1.386 1_655 S
C567 C571 1.393 1_655 S
C568 H557 0.950 . S
C568 C566 1.391 . S
C568 C569 1.400 . S
C569 C563 1.491 . S
C569 C568 1.400 . S
C569 C570 1.398 . S
C570 H558 0.950 . S
C570 C569 1.398 . S
C570 C571 1.391 . S
C571 H559 0.950 1_455 S
C571 C567 1.393 1_455 S
C571 C570 1.391 . S
H572 C580 0.950 . S
H573 C585 0.950 . S
H574 C582 0.950 . S
H575 C584 0.950 . S
H576 C586 0.950 . S
H577 C588 0.950 . S
H578 C590 0.950 . S
H579 C591 0.950 . S
C580 H572 0.950 . S
C580 C581 1.386 . S
C580 C582 1.391 1_545 S
C581 C580 1.386 . S
C581 C585 1.393 1_545 S
C582 H574 0.950 . S
C582 C580 1.391 1_565 S
C582 C583 1.400 . S
C583 C582 1.400 . S
C583 C584 1.398 . S
C583 C589 1.491 . S
C584 H575 0.950 . S
C584 C583 1.398 . S
C584 C585 1.391 . S
C585 H573 0.950 . S
C585 C581 1.393 1_565 S
C585 C584 1.391 . S
C586 H576 0.950 . S
C586 C587 1.386 . S
C586 C588 1.391 . S
C587 C586 1.386 . S
C587 C591 1.393 . S
C588 H577 0.950 . S
C588 C586 1.391 . S
C588 C589 1.400 . S
C589 C583 1.491 . S
C589 C588 1.400 . S
C589 C590 1.398 . S
C590 H578 0.950 . S
C590 C589 1.398 . S
C590 C591 1.391 . S
C591 H579 0.950 . S
C591 C587 1.393 . S
C591 C590 1.391 . S
H592 C600 0.950 . S
H593 C605 0.950 . S
H594 C602 0.950 . S
H595 C604 0.950 . S
H596 C606 0.950 . S
H597 C608 0.950 . S
H598 C610 0.950 . S
H599 C611 0.950 . S
C600 H592 0.950 . S
C600 C601 1.386 . S
C600 C602 1.391 . S
C601 C600 1.386 . S
C601 C605 1.393 . S
C602 H594 0.950 . S
C602 C600 1.391 . S
C602 C603 1.400 . S
C603 C602 1.400 . S
C603 C604 1.398 . S
C603 C609 1.491 . S
C604 H595 0.950 . S
C604 C603 1.398 . S
C604 C605 1.391 . S
C605 H593 0.950 . S
C605 C601 1.393 . S
C605 C604 1.391 . S
C606 H596 0.950 . S
C606 C607 1.386 . S
C606 C608 1.391 . S
C607 C606 1.386 . S
C607 C611 1.393 . S
C608 H597 0.950 . S
C608 C606 1.391 . S
C608 C609 1.400 . S
C609 C603 1.491 . S
C609 C608 1.400 . S
C609 C610 1.398 . S
C610 H598 0.950 . S
C610 C609 1.398 . S
C610 C611 1.391 . S
C611 H599 0.950 . S
C611 C607 1.393 . S
C611 C610 1.391 . S
H612 C620 0.950 . S
H613 C625 0.950 . S
H614 C622 0.950 . S
H615 C624 0.950 . S
H616 C626 0.950 . S
H617 C628 0.950 . S
H618 C630 0.950 . S
H619 C631 0.950 . S
C620 H612 0.950 . S
C620 C621 1.386 . S
C620 C622 1.391 . S
C621 C620 1.386 . S
C621 C625 1.393 . S
C622 H614 0.950 . S
C622 C620 1.391 . S
C622 C623 1.400 . S
C623 C622 1.400 . S
C623 C624 1.398 . S
C623 C629 1.491 . S
C624 H615 0.950 . S
C624 C623 1.398 . S
C624 C625 1.391 . S
C625 H613 0.950 . S
C625 C621 1.393 . S
C625 C624 1.391 . S
C626 H616 0.950 . S
C626 C627 1.386 . S
C626 C628 1.391 . S
C627 C626 1.386 . S
C627 C631 1.393 . S
C628 H617 0.950 . S
C628 C626 1.391 . S
C628 C629 1.400 . S
C629 C623 1.491 . S
C629 C628 1.400 . S
C629 C630 1.398 . S
C630 H618 0.950 . S
C630 C629 1.398 . S
C630 C631 1.391 . S
C631 H619 0.950 . S
C631 C627 1.393 . S
C631 C630 1.391 . S
H632 C640 0.950 . S
H633 C645 0.950 . S
H634 C642 0.950 . S
H635 C644 0.950 . S
H636 C646 0.950 . S
H637 C648 0.950 . S
H638 C650 0.950 . S
H639 C651 0.950 . S
C640 H632 0.950 . S
C640 C641 1.386 1_545 S
C640 C642 1.391 . S
C641 C640 1.386 1_565 S
C641 C645 1.393 . S
C642 H634 0.950 . S
C642 C640 1.391 . S
C642 C643 1.400 1_545 S
C643 C642 1.400 1_565 S
C643 C644 1.398 . S
C643 C649 1.491 1_665 S
C644 H635 0.950 . S
C644 C643 1.398 . S
C644 C645 1.391 . S
C645 H633 0.950 . S
C645 C641 1.393 . S
C645 C644 1.391 . S
C646 H636 0.950 . S
C646 C647 1.386 1_565 S
C646 C648 1.391 . S
C647 C646 1.386 1_545 S
C647 C651 1.393 . S
C648 H637 0.950 . S
C648 C646 1.391 . S
C648 C649 1.400 1_565 S
C649 C643 1.491 1_445 S
C649 C648 1.400 1_545 S
C649 C650 1.398 . S
C650 H638 0.950 . S
C650 C649 1.398 . S
C650 C651 1.391 . S
C651 H639 0.950 . S
C651 C647 1.393 . S
C651 C650 1.391 . S
H652 C660 0.950 . S
H653 C665 0.949 1_455 S
H654 C662 0.950 . S
H655 C664 0.951 . S
H656 C666 0.950 . S
H657 C668 0.950 . S
H658 C670 0.951 . S
H659 C671 0.949 1_655 S
C660 H652 0.950 . S
C660 C661 1.386 . S
C660 C662 1.391 . S
C661 C660 1.386 . S
C661 C665 1.393 . S
C662 H654 0.950 . S
C662 C660 1.391 . S
C662 C663 1.400 . S
C663 C662 1.400 . S
C663 C664 1.398 1_655 S
C663 C669 1.491 1_645 S
C664 H655 0.951 . S
C664 C663 1.398 1_455 S
C664 C665 1.390 1_455 S
C665 H653 0.949 1_655 S
C665 C661 1.393 . S
C665 C664 1.390 1_655 S
C666 H656 0.950 . S
C666 C667 1.386 . S
C666 C668 1.391 . S
C667 C666 1.386 . S
C667 C671 1.393 . S
C668 H657 0.950 . S
C668 C666 1.391 . S
C668 C669 1.400 . S
C669 C663 1.491 1_465 S
C669 C668 1.400 . S
C669 C670 1.398 1_455 S
C670 H658 0.951 . S
C670 C669 1.398 1_655 S
C670 C671 1.390 1_655 S
C671 H659 0.949 1_455 S
C671 C667 1.393 . S
C671 C670 1.390 1_455 S
H672 C680 0.950 . S
H673 C685 0.950 . S
H674 C682 0.950 . S
H675 C684 0.950 . S
H676 C686 0.950 . S
H677 C688 0.950 . S
H678 C690 0.950 . S
H679 C691 0.950 . S
C680 H672 0.950 . S
C680 C681 1.386 . S
C680 C682 1.391 . S
C681 C680 1.386 . S
C681 C685 1.393 . S
C682 H674 0.950 . S
C682 C680 1.391 . S
C682 C683 1.400 . S
C683 C682 1.400 . S
C683 C684 1.398 . S
C683 C689 1.491 . S
C684 H675 0.950 . S
C684 C683 1.398 . S
C684 C685 1.391 . S
C685 H673 0.950 . S
C685 C681 1.393 . S
C685 C684 1.391 . S
C686 H676 0.950 . S
C686 C687 1.386 . S
C686 C688 1.391 . S
C687 C686 1.386 . S
C687 C691 1.393 . S
C688 H677 0.950 . S
C688 C686 1.391 . S
C688 C689 1.400 . S
C689 C683 1.491 . S
C689 C688 1.400 . S
C689 C690 1.398 . S
C690 H678 0.950 . S
C690 C689 1.398 . S
C690 C691 1.391 . S
C691 H679 0.950 . S
C691 C687 1.393 . S
C691 C690 1.391 . S
H692 C700 0.950 . S
H693 C705 0.950 . S
H694 C702 0.950 . S
H695 C704 0.950 . S
H696 C706 0.950 . S
H697 C708 0.950 . S
H698 C710 0.950 . S
H699 C711 0.950 . S
C700 H692 0.950 . S
C700 C701 1.386 . S
C700 C702 1.391 . S
C701 C700 1.386 . S
C701 C705 1.393 . S
C702 H694 0.950 . S
C702 C700 1.391 . S
C702 C703 1.400 . S
C703 C702 1.400 . S
C703 C704 1.398 . S
C703 C709 1.491 . S
C704 H695 0.950 . S
C704 C703 1.398 . S
C704 C705 1.391 . S
C705 H693 0.950 . S
C705 C701 1.393 . S
C705 C704 1.391 . S
C706 H696 0.950 . S
C706 C707 1.386 . S
C706 C708 1.391 . S
C707 C706 1.386 . S
C707 C711 1.393 . S
C708 H697 0.950 . S
C708 C706 1.391 . S
C708 C709 1.400 . S
C709 C703 1.491 . S
C709 C708 1.400 . S
C709 C710 1.398 . S
C710 H698 0.950 . S
C710 C709 1.398 . S
C710 C711 1.391 . S
C711 H699 0.950 . S
C711 C707 1.393 . S
C711 C710 1.391 . S
H712 C720 0.950 . S
H713 C725 0.950 . S
H714 C722 0.950 . S
H715 C724 0.950 . S
H716 C726 0.950 . S
H717 C728 0.950 . S
H718 C730 0.950 . S
H719 C731 0.950 . S
C720 H712 0.950 . S
C720 C721 1.386 . S
C720 C722 1.391 . S
C721 C720 1.386 . S
C721 C725 1.393 . S
C722 H714 0.950 . S
C722 C720 1.391 . S
C722 C723 1.400 . S
C723 C722 1.400 . S
C723 C724 1.398 . S
C723 C729 1.491 . S
C724 H715 0.950 . S
C724 C723 1.398 . S
C724 C725 1.391 . S
C725 H713 0.950 . S
C725 C721 1.393 . S
C725 C724 1.391 . S
C726 H716 0.950 . S
C726 C727 1.386 . S
C726 C728 1.391 . S
C727 C726 1.386 . S
C727 C731 1.393 . S
C728 H717 0.950 . S
C728 C726 1.391 . S
C728 C729 1.400 . S
C729 C723 1.491 . S
C729 C728 1.400 . S
C729 C730 1.398 . S
C730 H718 0.950 . S
C730 C729 1.398 . S
C730 C731 1.391 . S
C731 H719 0.950 . S
C731 C727 1.393 . S
C731 C730 1.391 . S
H732 C740 0.950 . S
H733 C745 0.950 . S
H734 C742 0.950 . S
H735 C744 0.950 . S
H736 C746 0.950 . S
H737 C748 0.950 . S
H738 C750 0.950 . S
H739 C751 0.950 . S
C740 H732 0.950 . S
C740 C741 1.386 . S
C740 C742 1.391 . S
C741 C740 1.386 . S
C741 C745 1.393 . S
C742 H734 0.950 . S
C742 C740 1.391 . S
C742 C743 1.400 . S
C743 C742 1.400 . S
C743 C744 1.398 . S
C743 C749 1.491 . S
C744 H735 0.950 . S
C744 C743 1.398 . S
C744 C745 1.391 . S
C745 H733 0.950 . S
C745 C741 1.393 . S
C745 C744 1.391 . S
C746 H736 0.950 . S
C746 C747 1.386 . S
C746 C748 1.391 . S
C747 C746 1.386 . S
C747 C751 1.393 . S
C748 H737 0.950 . S
C748 C746 1.391 . S
C748 C749 1.400 . S
C749 C743 1.491 . S
C749 C748 1.400 . S
C749 C750 1.398 . S
C750 H738 0.950 . S
C750 C749 1.398 . S
C750 C751 1.391 . S
C751 H739 0.950 . S
C751 C747 1.393 . S
C751 C750 1.391 . S
H752 C760 0.950 . S
H753 C765 0.950 . S
H754 C762 0.950 . S
H755 C764 0.950 . S
H756 C766 0.950 . S
H757 C768 0.950 . S
H758 C770 0.950 . S
H759 C771 0.950 . S
C760 H752 0.950 . S
C760 C761 1.386 . S
C760 C762 1.391 . S
C761 C760 1.386 . S
C761 C765 1.393 . S
C762 H754 0.950 . S
C762 C760 1.391 . S
C762 C763 1.400 . S
C763 C762 1.400 . S
C763 C764 1.398 . S
C763 C769 1.491 . S
C764 H755 0.950 . S
C764 C763 1.398 . S
C764 C765 1.391 . S
C765 H753 0.950 . S
C765 C761 1.393 . S
C765 C764 1.391 . S
C766 H756 0.950 . S
C766 C767 1.386 . S
C766 C768 1.391 . S
C767 C766 1.386 . S
C767 C771 1.393 . S
C768 H757 0.950 . S
C768 C766 1.391 . S
C768 C769 1.400 . S
C769 C763 1.491 . S
C769 C768 1.400 . S
C769 C770 1.398 . S
C770 H758 0.950 . S
C770 C769 1.398 . S
C770 C771 1.391 . S
C771 H759 0.950 . S
C771 C767 1.393 . S
C771 C770 1.391 . S
H772 C780 0.950 . S
H773 C785 0.950 . S
H774 C782 0.950 . S
H775 C784 0.950 . S
H776 C786 0.950 . S
H777 C788 0.950 . S
H778 C790 0.950 . S
H779 C791 0.950 . S
C780 H772 0.950 . S
C780 C781 1.386 . S
C780 C782 1.391 . S
C781 C780 1.386 . S
C781 C785 1.393 . S
C782 H774 0.950 . S
C782 C780 1.391 . S
C782 C783 1.400 . S
C783 C782 1.400 . S
C783 C784 1.398 . S
C783 C789 1.491 . S
C784 H775 0.950 . S
C784 C783 1.398 . S
C784 C785 1.391 . S
C785 H773 0.950 . S
C785 C781 1.393 . S
C785 C784 1.391 . S
C786 H776 0.950 . S
C786 C787 1.386 . S
C786 C788 1.391 . S
C787 C786 1.386 . S
C787 C791 1.393 . S
C788 H777 0.950 . S
C788 C786 1.391 . S
C788 C789 1.400 . S
C789 C783 1.491 . S
C789 C788 1.400 . S
C789 C790 1.398 . S
C790 H778 0.950 . S
C790 C789 1.398 . S
C790 C791 1.391 . S
C791 H779 0.950 . S
C791 C787 1.393 . S
C791 C790 1.391 . S
H792 C800 0.950 . S
H793 C805 0.950 . S
H794 C802 0.950 . S
H795 C804 0.950 . S
H796 C806 0.950 . S
H797 C808 0.950 . S
H798 C810 0.950 . S
H799 C811 0.950 . S
C800 H792 0.950 . S
C800 C801 1.386 . S
C800 C802 1.391 . S
C801 C800 1.386 . S
C801 C805 1.393 . S
C802 H794 0.950 . S
C802 C800 1.391 . S
C802 C803 1.400 . S
C803 C802 1.400 . S
C803 C804 1.398 . S
C803 C809 1.491 . S
C804 H795 0.950 . S
C804 C803 1.398 . S
C804 C805 1.391 . S
C805 H793 0.950 . S
C805 C801 1.393 . S
C805 C804 1.391 . S
C806 H796 0.950 . S
C806 C807 1.386 . S
C806 C808 1.391 . S
C807 C806 1.386 . S
C807 C811 1.393 . S
C808 H797 0.950 . S
C808 C806 1.391 . S
C808 C809 1.400 . S
C809 C803 1.491 . S
C809 C808 1.400 . S
C809 C810 1.398 . S
C810 H798 0.950 . S
C810 C809 1.398 . S
C810 C811 1.391 . S
C811 H799 0.950 . S
C811 C807 1.393 . S
C811 C810 1.391 . S
H812 C820 0.950 . S
H813 C825 0.950 . S
H814 C822 0.950 . S
H815 C824 0.950 . S
H816 C826 0.950 . S
H817 C828 0.950 . S
H818 C830 0.950 . S
H819 C831 0.950 . S
C820 H812 0.950 . S
C820 C821 1.386 . S
C820 C822 1.391 . S
C821 C820 1.386 . S
C821 C825 1.393 . S
C822 H814 0.950 . S
C822 C820 1.391 . S
C822 C823 1.400 . S
C823 C822 1.400 . S
C823 C824 1.398 . S
C823 C829 1.491 . S
C824 H815 0.950 . S
C824 C823 1.398 . S
C824 C825 1.391 . S
C825 H813 0.950 . S
C825 C821 1.393 . S
C825 C824 1.391 . S
C826 H816 0.950 . S
C826 C827 1.386 . S
C826 C828 1.391 . S
C827 C826 1.386 . S
C827 C831 1.393 . S
C828 H817 0.950 . S
C828 C826 1.391 . S
C828 C829 1.400 . S
C829 C823 1.491 . S
C829 C828 1.400 . S
C829 C830 1.398 . S
C830 H818 0.950 . S
C830 C829 1.398 . S
C830 C831 1.391 . S
C831 H819 0.950 . S
C831 C827 1.393 . S
C831 C830 1.391 . S
C281 C15 1.562 1_556 S
C287 C173 1.518 . S
C301 C56 1.577 1_554 S
C307 C205 1.497 . S
C321 C241 1.505 . S
C327 C90 1.562 1_556 S
C341 C137 1.503 . S
C347 C124 1.574 1_554 S
C361 C151 1.560 . S
C367 C105 1.512 . S
C381 C192 1.560 . S
C387 C1 1.517 . S
C401 C219 1.571 . S
C407 C37 1.490 . S
C421 C260 1.576 . S
C427 C71 1.498 . S
C441 C119 1.188 . S
C447 C28 1.138 . S
C461 C17 1.176 . S
C467 C40 1.120 . S
C481 C51 1.183 . S
C487 C74 1.125 . S
C501 C108 1.149 . S
C507 C85 1.190 . S
C521 C164 1.122 . S
C527 C187 1.176 . S
C541 C176 1.123 . S
C547 C221 1.176 . S
C561 C232 1.148 . S
C567 C255 1.190 . S
C581 C153 1.178 . S
C587 C244 1.119 . S
C601 C22 0.805 . S
C607 C83 0.783 . S
C621 C49 0.736 . S
C627 C117 0.801 . S
C641 C158 0.756 1_565 S
C647 C226 0.809 1_545 S
C661 C185 0.786 1_655 S
C667 C253 0.803 1_455 S
C681 C210 1.875 . S
C687 C3 1.841 . S
C701 C35 1.859 . S
C707 C266 1.886 . S
C721 C69 1.838 . S
C727 C142 1.876 . S
C741 C198 1.874 . S
C747 C103 1.846 . S
C761 C139 1.858 . S
C767 C96 1.881 . S
C781 C130 1.895 . S
C787 C171 1.854 . S
C801 C207 1.857 . S
C807 C6 1.892 . S
C821 C62 1.883 . S
C827 C239 1.831 . S
