# Generated by pormake.
# Topology bcu-i, (5)-cn, num edge types: 1
# Building blocks:
#     Node 0, Type 0, BuildingBlock: BEQFEK_clean_sbu_0, # of connection points: 5
#     Node 1, Type 0, BuildingBlock: BEQFEK_clean_sbu_0, # of connection points: 5
#     Node 2, Type 0, BuildingBlock: BEQFEK_clean_sbu_0, # of connection points: 5
#     Node 3, Type 0, BuildingBlock: BEQFEK_clean_sbu_0, # of connection points: 5
#     Node 4, Type 0, BuildingBlock: BEQFEK_clean_sbu_0, # of connection points: 5
#     Node 5, Type 0, BuildingBlock: BEQFEK_clean_sbu_0, # of connection points: 5
#     Node 6, Type 0, BuildingBlock: BEQFEK_clean_sbu_0, # of connection points: 5
#     Node 7, Type 0, BuildingBlock: BEQFEK_clean_sbu_0, # of connection points: 5
#     Node 8, Type 0, BuildingBlock: BEQFEK_clean_sbu_0, # of connection points: 5
#     Node 9, Type 0, BuildingBlock: BEQFEK_clean_sbu_0, # of connection points: 5
#     Node 10, Type 0, BuildingBlock: BEQFEK_clean_sbu_0, # of connection points: 5
#     Node 11, Type 0, BuildingBlock: BEQFEK_clean_sbu_0, # of connection points: 5
#     Node 12, Type 0, BuildingBlock: BEQFEK_clean_sbu_0, # of connection points: 5
#     Node 13, Type 0, BuildingBlock: BEQFEK_clean_sbu_0, # of connection points: 5
#     Node 14, Type 0, BuildingBlock: BEQFEK_clean_sbu_0, # of connection points: 5
#     Node 15, Type 0, BuildingBlock: BEQFEK_clean_sbu_0, # of connection points: 5
#     Edge 16, Type (0, 0), BuildingBlock: CIFDUS_clean_linker_0, # of connection points: 2
#     Edge 17, Type (0, 0), BuildingBlock: CIFDUS_clean_linker_0, # of connection points: 2
#     Edge 18, Type (0, 0), BuildingBlock: CIFDUS_clean_linker_0, # of connection points: 2
#     Edge 19, Type (0, 0), BuildingBlock: CIFDUS_clean_linker_0, # of connection points: 2
#     Edge 20, Type (0, 0), BuildingBlock: CIFDUS_clean_linker_0, # of connection points: 2
#     Edge 21, Type (0, 0), BuildingBlock: CIFDUS_clean_linker_0, # of connection points: 2
#     Edge 22, Type (0, 0), BuildingBlock: CIFDUS_clean_linker_0, # of connection points: 2
#     Edge 23, Type (0, 0), BuildingBlock: CIFDUS_clean_linker_0, # of connection points: 2
#     Edge 24, Type (0, 0), BuildingBlock: CIFDUS_clean_linker_0, # of connection points: 2
#     Edge 25, Type (0, 0), BuildingBlock: CIFDUS_clean_linker_0, # of connection points: 2
#     Edge 26, Type (0, 0), BuildingBlock: CIFDUS_clean_linker_0, # of connection points: 2
#     Edge 27, Type (0, 0), BuildingBlock: CIFDUS_clean_linker_0, # of connection points: 2
#     Edge 28, Type (0, 0), BuildingBlock: CIFDUS_clean_linker_0, # of connection points: 2
#     Edge 29, Type (0, 0), BuildingBlock: CIFDUS_clean_linker_0, # of connection points: 2
#     Edge 30, Type (0, 0), BuildingBlock: CIFDUS_clean_linker_0, # of connection points: 2
#     Edge 31, Type (0, 0), BuildingBlock: CIFDUS_clean_linker_0, # of connection points: 2
#     Edge 32, Type (0, 0), BuildingBlock: CIFDUS_clean_linker_0, # of connection points: 2
#     Edge 33, Type (0, 0), BuildingBlock: CIFDUS_clean_linker_0, # of connection points: 2
#     Edge 34, Type (0, 0), BuildingBlock: CIFDUS_clean_linker_0, # of connection points: 2
#     Edge 35, Type (0, 0), BuildingBlock: CIFDUS_clean_linker_0, # of connection points: 2
#     Edge 36, Type (0, 0), BuildingBlock: CIFDUS_clean_linker_0, # of connection points: 2
#     Edge 37, Type (0, 0), BuildingBlock: CIFDUS_clean_linker_0, # of connection points: 2
#     Edge 38, Type (0, 0), BuildingBlock: CIFDUS_clean_linker_0, # of connection points: 2
#     Edge 39, Type (0, 0), BuildingBlock: CIFDUS_clean_linker_0, # of connection points: 2
#     Edge 40, Type (0, 0), BuildingBlock: CIFDUS_clean_linker_0, # of connection points: 2
#     Edge 41, Type (0, 0), BuildingBlock: CIFDUS_clean_linker_0, # of connection points: 2
#     Edge 42, Type (0, 0), BuildingBlock: CIFDUS_clean_linker_0, # of connection points: 2
#     Edge 43, Type (0, 0), BuildingBlock: CIFDUS_clean_linker_0, # of connection points: 2
#     Edge 44, Type (0, 0), BuildingBlock: CIFDUS_clean_linker_0, # of connection points: 2
#     Edge 45, Type (0, 0), BuildingBlock: CIFDUS_clean_linker_0, # of connection points: 2
#     Edge 46, Type (0, 0), BuildingBlock: CIFDUS_clean_linker_0, # of connection points: 2
#     Edge 47, Type (0, 0), BuildingBlock: CIFDUS_clean_linker_0, # of connection points: 2
#     Edge 48, Type (0, 0), BuildingBlock: CIFDUS_clean_linker_0, # of connection points: 2
#     Edge 49, Type (0, 0), BuildingBlock: CIFDUS_clean_linker_0, # of connection points: 2
#     Edge 50, Type (0, 0), BuildingBlock: CIFDUS_clean_linker_0, # of connection points: 2
#     Edge 51, Type (0, 0), BuildingBlock: CIFDUS_clean_linker_0, # of connection points: 2
#     Edge 52, Type (0, 0), BuildingBlock: CIFDUS_clean_linker_0, # of connection points: 2
#     Edge 53, Type (0, 0), BuildingBlock: CIFDUS_clean_linker_0, # of connection points: 2
#     Edge 54, Type (0, 0), BuildingBlock: CIFDUS_clean_linker_0, # of connection points: 2
#     Edge 55, Type (0, 0), BuildingBlock: CIFDUS_clean_linker_0, # of connection points: 2
# Relax obj value: 0.900
# Max RMSD: 0.186
# Mean RMSD: 0.186
data_MOF--net-bcu-i--node1-BEQFEK_clean_sbu_0--edge1-CIFDUS_clean_linker_0
_symmetry_space_group_name_H-M    P1
_symmetry_Int_Tables_number       1
_symmetry_cell_setting            triclinic
loop_
_symmetry_equiv_pos_as_xyz
'x, y, z'
_cell_length_a     42.908564
_cell_length_b     43.001461
_cell_length_c     31.699644
_cell_angle_alpha  89.950482
_cell_angle_beta   89.994322
_cell_angle_gamma 90.084264
loop_
_atom_site_label
_atom_site_type_symbol
_atom_site_fract_x
_atom_site_fract_y
_atom_site_fract_z
_atom_type_partial_charge
Co0 Co 0.22849 0.12751 0.34718 0.0
Co1 Co 0.21727 0.07459 0.28066 0.0
C2 C 0.18164 0.13524 0.27945 0.0
O3 O 0.19666 0.14619 0.31072 0.0
O4 O 0.18696 0.10797 0.26534 0.0
C5 C 0.22326 0.17918 0.40612 0.0
O6 O 0.20582 0.19257 0.37731 0.0
C7 C 0.18188 0.02294 0.24363 0.0
C8 C 0.21774 0.0 0.20465 0.0
C9 C 0.18698 -0.00272 0.21773 0.0
N10 N 0.20846 0.03946 0.246 0.0
N11 N 0.22959 0.026 0.22192 0.0
C12 C 0.15326 0.03072 0.26846 0.0
H13 H 0.15844 0.04876 0.29248 0.0
H14 H 0.14377 0.00962 0.28403 0.0
H15 H 0.13522 0.03998 0.24677 0.0
C16 C 0.20949 0.0783 0.40484 0.0
N17 N 0.2151 0.08821 0.36545 0.0
N18 N 0.21327 0.06463 0.33911 0.0
C19 C 0.20784 0.03846 0.36169 0.0
C20 C 0.20529 0.04649 0.40398 0.0
C21 C 0.20668 0.09922 0.4424 0.0
H22 H 0.23034 0.10538 0.45371 0.0
H23 H 0.19417 0.12078 0.43348 0.0
H24 H 0.19372 0.08786 0.46849 0.0
O25 O 0.26831 0.1238 0.31774 0.0
O26 O 0.26056 0.08808 0.26831 0.0
H27 H 0.22136 0.00524 0.31432 0.0
H28 H 0.21808 0.98969 0.36726 0.0
C29 C 0.2079 0.00619 0.34412 0.0
H30 H 0.18357 -0.00124 0.33805 0.0
H31 H 0.25246 0.0339 0.21856 0.0
O32 O 0.23584 0.15317 0.39798 0.0
C33 C 0.27814 0.10753 0.28706 0.0
Co34 Co 0.87157 0.19941 0.32832 0.0
Co35 Co 0.92968 0.2074 0.26973 0.0
C36 C 0.88001 0.16116 0.25058 0.0
O37 O 0.86385 0.17099 0.28129 0.0
O38 O 0.90697 0.17206 0.24283 0.0
C39 C 0.83307 0.16203 0.3789 0.0
O40 O 0.8448 0.14052 0.35417 0.0
C41 C 0.98925 0.18832 0.23544 0.0
C42 C 0.01031 0.23277 0.21513 0.0
C43 C 0.01633 0.20119 0.21898 0.0
N44 N 0.96845 0.21118 0.24124 0.0
N45 N 0.98085 0.23762 0.22818 0.0
C46 C 0.98431 0.15563 0.25045 0.0
H47 H 0.96396 0.15426 0.27197 0.0
H48 H 0.00538 0.14689 0.26689 0.0
H49 H 0.97981 0.14043 0.22285 0.0
C50 C 0.92046 0.19139 0.39216 0.0
N51 N 0.9117 0.19411 0.35162 0.0
N52 N 0.93654 0.19887 0.32804 0.0
C53 C 0.96196 0.19946 0.35324 0.0
C54 C 0.95241 0.1945 0.39448 0.0
C55 C 0.89851 0.18712 0.42835 0.0
H56 H 0.88003 0.20509 0.4273 0.0
H57 H 0.88779 0.16391 0.42539 0.0
H58 H 0.91036 0.18803 0.45937 0.0
O59 O 0.86823 0.24251 0.31111 0.0
O60 O 0.90719 0.24791 0.26518 0.0
H61 H 0.9927 0.22762 0.31579 0.0
H62 H 0.00842 0.21638 0.36648 0.0
C63 C 0.99402 0.20863 0.33936 0.0
H64 H 0.00562 0.18833 0.3247 0.0
H65 H 0.96981 0.25918 0.23019 0.0
O66 O 0.83995 0.19032 0.37195 0.0
C67 C 0.88407 0.25895 0.28555 0.0
Co68 Co 0.77223 0.85765 0.32893 0.0
Co69 Co 0.77178 0.92219 0.28177 0.0
C70 C 0.81828 0.87259 0.26106 0.0
O71 O 0.8061 0.85338 0.28689 0.0
O72 O 0.80777 0.90008 0.25654 0.0
C73 C 0.79297 0.80111 0.37091 0.0
O74 O 0.81426 0.79949 0.3412 0.0
C75 C 0.79102 0.98127 0.24065 0.0
C76 C 0.75092 0.0111 0.25676 0.0
C77 C 0.77994 0.01165 0.23749 0.0
N78 N 0.76991 0.96416 0.26195 0.0
N79 N 0.74571 0.98201 0.27052 0.0
C80 C 0.81984 0.96792 0.2212 0.0
H81 H 0.81469 0.94465 0.20797 0.0
H82 H 0.83807 0.96532 0.24578 0.0
H83 H 0.82864 0.98279 0.19518 0.0
C84 C 0.78385 0.89813 0.40162 0.0
N85 N 0.77803 0.89429 0.36029 0.0
N86 N 0.77725 0.92162 0.34157 0.0
C87 C 0.78282 0.94382 0.37075 0.0
C88 C 0.78686 0.92953 0.40972 0.0
C89 C 0.78878 0.87202 0.43218 0.0
H90 H 0.7665 0.85935 0.43658 0.0
H91 H 0.80632 0.85573 0.41922 0.0
H92 H 0.79719 0.88031 0.46327 0.0
O93 O 0.73139 0.8587 0.30237 0.0
O94 O 0.73156 0.90252 0.26515 0.0
H95 H 0.7603 0.98592 0.35256 0.0
H96 H 0.79167 0.99161 0.38928 0.0
C97 C 0.78393 0.97794 0.36155 0.0
H98 H 0.79988 0.98238 0.33468 0.0
H99 H 0.72602 0.9745 0.28697 0.0
O100 O 0.77257 0.82244 0.36916 0.0
C101 C 0.71817 0.87772 0.27752 0.0
Co102 Co 0.12195 0.78795 0.32935 0.0
Co103 Co 0.06507 0.78739 0.26724 0.0
C104 C 0.11678 0.83113 0.2539 0.0
O105 O 0.13075 0.81891 0.28513 0.0
O106 O 0.08963 0.8224 0.24284 0.0
C107 C 0.14715 0.8234 0.39157 0.0
O108 O 0.12844 0.84286 0.37211 0.0
C109 C 0.00638 0.80314 0.22283 0.0
C110 C 0.98188 0.75812 0.22783 0.0
C111 C 0.97744 0.78893 0.2162 0.0
N112 N 0.02597 0.78195 0.23935 0.0
N113 N 0.01143 0.75492 0.24097 0.0
C114 C 0.01587 0.83594 0.21349 0.0
H115 H 0.04078 0.83681 0.20448 0.0
H116 H 0.01278 0.85043 0.24213 0.0
H117 H 0.00193 0.84566 0.18713 0.0
C118 C 0.07153 0.78904 0.39116 0.0
N119 N 0.08152 0.79138 0.35111 0.0
N120 N 0.05747 0.7944 0.32576 0.0
C121 C 0.03136 0.79613 0.34948 0.0
C122 C 0.03962 0.79297 0.39167 0.0
C123 C 0.09057 0.77579 0.42652 0.0
H124 H 0.11204 0.7646 0.41455 0.0
H125 H 0.09659 0.79439 0.44913 0.0
H126 H 0.07682 0.75813 0.44409 0.0
O127 O 0.12629 0.74643 0.30802 0.0
O128 O 0.08763 0.74654 0.26107 0.0
H129 H 0.99109 0.77719 0.31934 0.0
H130 H 0.98261 0.80731 0.35718 0.0
C131 C -0.00088 0.79976 0.33228 0.0
H132 H -0.00082 0.81724 0.30663 0.0
H133 H 0.0211 0.7347 0.25361 0.0
O134 O 0.15101 0.79647 0.37605 0.0
C135 C 0.11016 0.73291 0.27985 0.0
Co136 Co 0.19333 0.88801 0.69426 0.0
Co137 Co 0.19845 0.94433 0.75591 0.0
C138 C 0.15152 0.895 0.76985 0.0
O139 O 0.16288 0.88025 0.73884 0.0
O140 O 0.16171 0.92173 0.78017 0.0
C141 C 0.15517 0.8594 0.63645 0.0
O142 O 0.13499 0.87548 0.65867 0.0
C143 C 0.18156 0.00455 0.79113 0.0
C144 C 0.22737 0.02309 0.81061 0.0
C145 C 0.19623 0.0312 0.8062 0.0
N146 N 0.20318 0.98232 0.78594 0.0
N147 N 0.23034 0.99319 0.79887 0.0
C148 C 0.14844 0.00108 0.77686 0.0
H149 H 0.14579 0.98035 0.75634 0.0
H150 H 0.14055 0.02209 0.7596 0.0
H151 H 0.13327 -0.00189 0.80492 0.0
C152 C 0.19275 0.93753 0.63147 0.0
N153 N 0.19096 0.92835 0.67195 0.0
N154 N 0.19295 0.95274 0.69688 0.0
C155 C 0.19549 0.97851 0.67251 0.0
C156 C 0.19487 0.96952 0.63037 0.0
C157 C 0.19894 0.91614 0.59506 0.0
H158 H 0.17643 0.90866 0.58125 0.0
H159 H 0.21254 0.9279 0.5699 0.0
H160 H 0.21236 0.89557 0.60551 0.0
O161 O 0.23529 0.88249 0.71476 0.0
O162 O 0.23836 0.92024 0.7628 0.0
H163 H 0.20583 0.02757 0.66346 0.0
H164 H 0.1792 0.0188 0.70483 0.0
C165 C 0.20063 0.01074 0.68895 0.0
H166 H 0.21997 0.01073 0.71212 0.0
H167 H 0.25125 0.98091 0.797 0.0
O168 O 0.18336 0.85866 0.64864 0.0
C169 C 0.25032 0.89737 0.74284 0.0
Co170 Co 0.10516 0.23091 0.68525 0.0
Co171 Co 0.04811 0.22901 0.7473 0.0
C172 C 0.1019 0.18432 0.75451 0.0
O173 O 0.11622 0.19672 0.72357 0.0
O174 O 0.07537 0.19421 0.76664 0.0
C175 C 0.16087 0.22064 0.63225 0.0
O176 O 0.17171 0.2018 0.66139 0.0
C177 C 0.99125 0.20134 0.78144 0.0
C178 C 0.96703 0.24226 0.80767 0.0
C179 C 0.96352 0.21065 0.80023 0.0
N180 N 0.00989 0.22631 0.77759 0.0
N181 N -0.00439 0.25056 0.79425 0.0
C182 C -0.00122 0.17017 0.76306 0.0
H183 H 0.01855 0.17198 0.74061 0.0
H184 H 0.97817 0.16023 0.74676 0.0
H185 H 0.00546 0.1541 0.78891 0.0
C186 C 0.05635 0.22289 0.62263 0.0
N187 N 0.06527 0.22515 0.66306 0.0
N188 N 0.0406 0.22568 0.68774 0.0
C189 C 0.01486 0.22401 0.66318 0.0
C190 C 0.02421 0.22173 0.62126 0.0
C191 C 0.07826 0.22547 0.58595 0.0
H192 H 0.09546 0.20625 0.58729 0.0
H193 H 0.06616 0.22495 0.55511 0.0
H194 H 0.09096 0.24786 0.58815 0.0
O195 O 0.10611 0.27041 0.71404 0.0
O196 O 0.06765 0.27006 0.76101 0.0
H197 H 0.98009 0.24154 0.70562 0.0
H198 H 0.96527 0.2309 0.65421 0.0
C199 C 0.98209 0.22469 0.67933 0.0
H200 H 0.97575 0.20129 0.69114 0.0
H201 H 0.0047 0.27308 0.79444 0.0
O202 O 0.13497 0.23421 0.63798 0.0
C203 C 0.09046 0.28355 0.74291 0.0
Co204 Co 0.78559 0.08868 0.68346 0.0
Co205 Co 0.78158 0.03988 0.75624 0.0
C206 C 0.82531 0.09354 0.76081 0.0
O207 O 0.81499 0.10365 0.72592 0.0
O208 O 0.81536 0.06824 0.77665 0.0
C209 C 0.82119 0.11123 0.61818 0.0
O210 O 0.84188 0.09551 0.64004 0.0
C211 C 0.80513 0.98721 0.80285 0.0
C212 C 0.76231 0.96495 0.82687 0.0
C213 C 0.7943 0.96071 0.82324 0.0
N214 N 0.78074 0.00562 0.79412 0.0
N215 N 0.75529 0.99274 0.80979 0.0
C216 C 0.83737 0.99311 0.78638 0.0
H217 H 0.83721 0.01173 0.76215 0.0
H218 H 0.84751 0.97168 0.77265 0.0
H219 H 0.85251 0.00053 0.8129 0.0
C220 C 0.79102 0.03259 0.63234 0.0
N221 N 0.79072 0.04644 0.67028 0.0
N222 N 0.78961 0.02511 0.70008 0.0
C223 C 0.79006 -0.00329 0.68151 0.0
C224 C 0.79185 0.00083 0.6381 0.0
C225 C 0.78352 0.04863 0.59153 0.0
H226 H 0.76934 0.06969 0.59706 0.0
H227 H 0.8055 0.05481 0.57527 0.0
H228 H 0.77015 0.03312 0.57017 0.0
O229 O 0.74321 0.09387 0.70215 0.0
O230 O 0.73965 0.06111 0.75652 0.0
H231 H 0.76712 0.96821 0.72764 0.0
H232 H 0.7811 0.94705 0.68218 0.0
C233 C 0.78618 0.9664 0.70419 0.0
H234 H 0.80806 0.96065 0.72086 0.0
H235 H 0.7329 0.00178 0.80603 0.0
O236 O 0.79369 0.11361 0.63256 0.0
C237 C 0.72762 0.08125 0.73168 0.0
Co238 Co 0.87334 0.76355 0.66775 0.0
Co239 Co 0.92605 0.76709 0.73614 0.0
C240 C 0.86644 0.8043 0.7423 0.0
O241 O 0.85543 0.79234 0.70874 0.0
O242 O 0.89362 0.79741 0.75575 0.0
C243 C 0.81882 0.76762 0.61212 0.0
O244 O 0.80284 0.77714 0.64501 0.0
C245 C 0.98037 0.7963 0.77639 0.0
C246 C 0.00044 0.75672 0.81145 0.0
C247 C 0.00568 0.78769 0.80127 0.0
N248 N 0.96159 0.77147 0.77177 0.0
N249 N 0.97335 0.74811 0.79361 0.0
C250 C 0.97517 0.82661 0.75425 0.0
H251 H 0.95649 0.8244 0.73024 0.0
H252 H -0.00297 0.83479 0.73914 0.0
H253 H 0.96789 0.84432 0.77767 0.0
C254 C 0.92367 0.78419 0.61338 0.0
N255 N 0.91316 0.77677 0.65191 0.0
N256 N 0.93667 0.77471 0.67836 0.0
C257 C 0.96339 0.77909 0.65647 0.0
C258 C 0.95587 0.78527 0.61457 0.0
C259 C 0.903 0.79105 0.57644 0.0
H260 H 0.88183 0.80353 0.58714 0.0
H261 H 0.91516 0.80559 0.55263 0.0
H262 H 0.89583 0.76886 0.56148 0.0
O263 O 0.87532 0.72169 0.69145 0.0
O264 O 0.91018 0.72394 0.74309 0.0
H265 H 0.01061 0.76311 0.64959 0.0
H266 H 0.00585 0.7966 0.68248 0.0
C267 C -0.0046 0.77391 0.67381 0.0
H268 H 0.99453 0.75874 0.70205 0.0
H269 H 0.96361 0.72588 0.7948 0.0
O270 O 0.84741 0.76078 0.61639 0.0
C271 C 0.89034 0.70888 0.72131 0.0
Co272 Co 0.70471 0.62975 0.81276 0.0
Co273 Co 0.6955 0.57023 0.75664 0.0
C274 C 0.66126 0.63063 0.74043 0.0
O275 O 0.67561 0.64468 0.76996 0.0
O276 O 0.66596 0.60187 0.73262 0.0
C277 C 0.69655 0.68572 0.86454 0.0
O278 O 0.67633 0.69518 0.83619 0.0
C279 C 0.66216 0.51279 0.73541 0.0
C280 C 0.69811 0.48643 0.70078 0.0
C281 C 0.66832 0.484 0.71734 0.0
N282 N 0.68741 0.53098 0.73067 0.0
N283 N 0.70856 0.51532 0.70911 0.0
C284 C 0.63271 0.52317 0.75643 0.0
H285 H 0.62914 0.54843 0.75106 0.0
H286 H 0.63435 0.51943 0.79091 0.0
H287 H 0.61243 0.50984 0.7443 0.0
C288 C 0.68357 0.58746 0.87844 0.0
N289 N 0.68914 0.59339 0.83756 0.0
N290 N 0.68974 0.56713 0.81631 0.0
C291 C 0.6866 0.54339 0.84399 0.0
C292 C 0.6821 0.55573 0.88395 0.0
C293 C 0.68155 0.61161 0.91228 0.0
H294 H 0.66824 0.63195 0.90064 0.0
H295 H 0.66988 0.60229 0.94089 0.0
H296 H 0.70542 0.6191 0.92098 0.0
O297 O 0.74569 0.62114 0.78835 0.0
O298 O 0.73942 0.5815 0.74419 0.0
H299 H 0.70487 0.50752 0.80322 0.0
H300 H 0.70969 0.50054 0.85894 0.0
C301 C 0.69377 0.51006 0.83453 0.0
H302 H 0.67201 0.49621 0.83599 0.0
H303 H 0.73072 0.52381 0.70186 0.0
O304 O 0.71125 0.66051 0.8584 0.0
C305 C 0.75655 0.60194 0.76166 0.0
Co306 Co 0.3728 0.72849 0.83024 0.0
Co307 Co 0.42158 0.72332 0.75711 0.0
C308 C 0.3662 0.6809 0.76252 0.0
O309 O 0.35619 0.69468 0.79529 0.0
O310 O 0.39151 0.68909 0.74468 0.0
C311 C 0.32132 0.71973 0.8883 0.0
O312 O 0.3067 0.70669 0.85647 0.0
C313 C 0.47249 0.69316 0.71244 0.0
C314 C 0.49456 0.73239 0.67881 0.0
C315 C 0.49797 0.7009 0.68738 0.0
N316 N 0.4554 0.71888 0.71876 0.0
N317 N 0.46822 0.7421 0.69767 0.0
C318 C 0.466 0.66282 0.73404 0.0
H319 H 0.44892 0.66595 0.75996 0.0
H320 H 0.48775 0.65261 0.74685 0.0
H321 H 0.4561 0.64626 0.71079 0.0
C322 C 0.42781 0.71864 0.88202 0.0
N323 N 0.41453 0.7214 0.84392 0.0
N324 N 0.43604 0.72023 0.81435 0.0
C325 C 0.46414 0.71692 0.83326 0.0
C326 C 0.45957 0.7152 0.87666 0.0
C327 C 0.41053 0.72229 0.92283 0.0
H328 H 0.39748 0.74452 0.92227 0.0
H329 H 0.39356 0.70297 0.92636 0.0
H330 H 0.42625 0.7227 0.95055 0.0
O331 O 0.36948 0.76807 0.80181 0.0
O332 O 0.40175 0.76489 0.7471 0.0
H333 H 0.49427 0.73062 0.78236 0.0
H334 H 0.51428 0.72243 0.83118 0.0
C335 C 0.49468 0.7154 0.81055 0.0
H336 H 0.49902 0.69114 0.80054 0.0
H337 H 0.45995 0.7649 0.69806 0.0
O338 O 0.34843 0.73082 0.88276 0.0
C339 C 0.38196 0.77985 0.76917 0.0
Co340 Co 0.28837 0.36694 0.81034 0.0
Co341 Co 0.28673 0.42679 0.75336 0.0
C342 C 0.3298 0.37354 0.73552 0.0
O343 O 0.3189 0.35731 0.76572 0.0
O344 O 0.32012 0.40094 0.72794 0.0
C345 C 0.3073 0.31172 0.85971 0.0
O346 O 0.3272 0.30514 0.82951 0.0
C347 C 0.31158 0.48587 0.72268 0.0
C348 C 0.26913 0.50936 0.69959 0.0
C349 C 0.30078 0.51381 0.70621 0.0
N350 N 0.28738 0.46619 0.72609 0.0
N351 N 0.26221 0.48008 0.7113 0.0
C352 C 0.34337 0.47903 0.73978 0.0
H353 H 0.3429 0.45793 0.75996 0.0
H354 H 0.35226 0.4991 0.75822 0.0
H355 H 0.35959 0.4749 0.71312 0.0
C356 C 0.29652 0.41337 0.8762 0.0
N357 N 0.29647 0.40597 0.83502 0.0
N358 N 0.29369 0.43144 0.8123 0.0
C359 C 0.29132 0.45599 0.83859 0.0
C360 C 0.29304 0.44527 0.87992 0.0
C361 C 0.29301 0.38979 0.9107 0.0
H362 H 0.2706 0.37734 0.90631 0.0
H363 H 0.3124 0.37283 0.90875 0.0
H364 H 0.29299 0.40009 0.94263 0.0
O365 O 0.2458 0.36836 0.7889 0.0
O366 O 0.24446 0.40886 0.74517 0.0
H367 H 0.26398 0.48816 0.80253 0.0
H368 H 0.27885 0.50401 0.85157 0.0
C369 C 0.28402 0.48846 0.82461 0.0
H370 H 0.30442 0.49819 0.80781 0.0
H371 H 0.24001 0.47012 0.71118 0.0
O372 O 0.28933 0.33497 0.85558 0.0
C373 C 0.23119 0.38613 0.76367 0.0
Co374 Co 0.61452 0.25887 0.79926 0.0
Co375 Co 0.56038 0.2617 0.73295 0.0
C376 C 0.60947 0.3093 0.73206 0.0
O377 O 0.62183 0.29673 0.76445 0.0
O378 O 0.58569 0.29762 0.71388 0.0
C379 C 0.66259 0.27941 0.85744 0.0
O380 O 0.66919 0.30055 0.82885 0.0
C381 C 0.50452 0.281 0.68504 0.0
C382 C 0.47409 0.24068 0.69804 0.0
C383 C 0.47383 0.27048 0.68121 0.0
N384 N 0.52124 0.25896 0.70489 0.0
N385 N 0.50314 0.23458 0.71131 0.0
C386 C 0.51823 0.31109 0.67008 0.0
H387 H 0.54229 0.30717 0.65853 0.0
H388 H 0.51948 0.32778 0.69669 0.0
H389 H 0.50414 0.32117 0.6441 0.0
C390 C 0.56339 0.26164 0.85766 0.0
N391 N 0.5737 0.25971 0.81801 0.0
N392 N 0.55152 0.26733 0.79161 0.0
C393 C 0.52679 0.27743 0.81414 0.0
C394 C 0.53353 0.27426 0.85716 0.0
C395 C 0.58108 0.24836 0.89427 0.0
H396 H 0.59587 0.22875 0.88352 0.0
H397 H 0.59652 0.26648 0.90779 0.0
H398 H 0.56503 0.23968 0.91909 0.0
O399 O 0.62048 0.22061 0.76979 0.0
O400 O 0.58194 0.22063 0.72285 0.0
H401 H 0.48101 0.27583 0.78763 0.0
H402 H 0.48958 0.3112 0.81623 0.0
C403 C 0.4993 0.29332 0.79476 0.0
H404 H 0.50628 0.30486 0.76503 0.0
H405 H 0.51008 0.21463 0.72751 0.0
O406 O 0.64166 0.25934 0.84973 0.0
C407 C 0.60507 0.20747 0.74071 0.0
Co408 Co 0.73054 0.38766 0.144 0.0
Co409 Co 0.73351 0.43576 0.21824 0.0
C410 C 0.68668 0.38398 0.21721 0.0
O411 O 0.69774 0.37331 0.18287 0.0
O412 O 0.69781 0.40839 0.23436 0.0
C413 C 0.71656 0.33781 0.08306 0.0
O414 O 0.70387 0.3219 0.11404 0.0
C415 C 0.71218 0.4895 0.26559 0.0
C416 C 0.75623 0.508 0.29142 0.0
C417 C 0.72481 0.51487 0.28683 0.0
N418 N 0.73521 0.46935 0.25713 0.0
N419 N 0.76129 0.47998 0.2739 0.0
C420 C 0.67976 0.48595 0.24863 0.0
H421 H 0.6789 0.46766 0.224 0.0
H422 H 0.67106 0.50817 0.23537 0.0
H423 H 0.664 0.47909 0.2748 0.0
C424 C 0.72122 0.44379 0.09469 0.0
N425 N 0.72562 0.42994 0.13209 0.0
N426 N 0.72799 0.45112 0.1619 0.0
C427 C 0.72554 0.47954 0.14372 0.0
C428 C 0.72042 0.47553 0.10081 0.0
C429 C 0.72108 0.4269 0.05336 0.0
H430 H 0.74281 0.41314 0.05079 0.0
H431 H 0.70089 0.41077 0.05225 0.0
H432 H 0.72012 0.44282 0.0259 0.0
O433 O 0.77175 0.38109 0.16727 0.0
O434 O 0.77369 0.4128 0.22254 0.0
H435 H 0.74529 0.50784 0.1928 0.0
H436 H 0.73658 0.52862 0.14491 0.0
C437 C 0.72858 0.50992 0.16637 0.0
H438 H 0.7055 0.51692 0.17865 0.0
H439 H 0.78295 0.46926 0.27063 0.0
O440 O 0.72846 0.36428 0.09047 0.0
C441 C 0.78612 0.39248 0.19866 0.0
Co442 Co 0.62139 0.70426 0.16277 0.0
Co443 Co 0.56276 0.69795 0.22153 0.0
C444 C 0.62145 0.65989 0.23389 0.0
O445 O 0.63569 0.67283 0.20328 0.0
O446 O 0.59353 0.66717 0.24344 0.0
C447 C 0.67727 0.69709 0.10967 0.0
O448 O 0.6882 0.67788 0.1383 0.0
C449 C 0.50717 0.66443 0.24873 0.0
C450 C 0.482 0.69965 0.28617 0.0
C451 C 0.4798 0.66954 0.27093 0.0
N452 N 0.52449 0.69042 0.25021 0.0
N453 N 0.50959 0.71124 0.27326 0.0
C454 C 0.51712 0.6351 0.22715 0.0
H455 H 0.54286 0.63292 0.22793 0.0
H456 H 0.50986 0.63566 0.19365 0.0
H457 H 0.5062 0.61453 0.24236 0.0
C458 C 0.57581 0.68743 0.09855 0.0
N459 N 0.58319 0.69221 0.13918 0.0
N460 N 0.5576 0.693 0.16204 0.0
C461 C 0.53285 0.69029 0.1359 0.0
C462 C 0.54377 0.68644 0.09497 0.0
C463 C 0.59907 0.68429 0.06361 0.0
H464 H 0.60735 0.70774 0.05429 0.0
H465 H 0.61925 0.67035 0.07448 0.0
H466 H 0.58864 0.67281 0.03561 0.0
O467 O 0.61675 0.74474 0.19034 0.0
O468 O 0.57684 0.74074 0.23472 0.0
H469 H 0.49835 0.70802 0.17916 0.0
H470 H 0.4879 0.71043 0.12403 0.0
C471 C 0.4997 0.69603 0.14832 0.0
H472 H 0.48704 0.67358 0.15002 0.0
H473 H 0.51781 0.73368 0.27909 0.0
O474 O 0.65124 0.71034 0.11585 0.0
C475 C 0.59873 0.75644 0.21794 0.0
Co476 Co 0.26101 0.59908 0.16062 0.0
Co477 Co 0.2659 0.54622 0.22843 0.0
C478 C 0.31714 0.59308 0.21457 0.0
O479 O 0.30203 0.60634 0.18516 0.0
O480 O 0.30592 0.57016 0.23516 0.0
C481 C 0.26776 0.65311 0.10784 0.0
O482 O 0.28445 0.66424 0.13915 0.0
C483 C 0.29282 0.48918 0.26092 0.0
C484 C 0.25277 0.46721 0.29309 0.0
C485 C 0.2833 0.46193 0.28064 0.0
N486 N 0.26893 0.50929 0.26121 0.0
N487 N 0.24532 0.4964 0.28153 0.0
C488 C 0.32235 0.49454 0.23667 0.0
H489 H 0.31909 0.51309 0.21275 0.0
H490 H 0.33017 0.47294 0.22078 0.0
H491 H 0.3409 0.50194 0.25889 0.0
C492 C 0.25997 0.54707 0.10327 0.0
N493 N 0.25932 0.55817 0.14272 0.0
N494 N 0.26014 0.53511 0.17003 0.0
C495 C 0.26036 0.50814 0.14806 0.0
C496 C 0.26041 0.51502 0.10528 0.0
C497 C 0.26494 0.56704 0.06503 0.0
H498 H 0.24305 0.57964 0.05779 0.0
H499 H 0.28345 0.58441 0.07157 0.0
H500 H 0.27196 0.55343 0.03695 0.0
O501 O 0.22711 0.60677 0.19933 0.0
O502 O 0.22961 0.57067 0.24944 0.0
H503 H 0.24716 0.47581 0.1966 0.0
H504 H 0.25029 0.45918 0.14444 0.0
C505 C 0.26058 0.47622 0.16678 0.0
H506 H 0.28492 0.46902 0.17294 0.0
H507 H 0.22344 0.50668 0.28484 0.0
O508 O 0.25513 0.62657 0.1116 0.0
C509 C 0.21657 0.59419 0.23263 0.0
Co510 Co 0.38653 0.26785 0.1549 0.0
Co511 Co 0.44467 0.27779 0.21411 0.0
C512 C 0.39092 0.31871 0.22282 0.0
O513 O 0.37704 0.30348 0.19368 0.0
O514 O 0.41847 0.31192 0.23468 0.0
C515 C 0.33137 0.28195 0.10281 0.0
O516 O 0.32139 0.29943 0.13397 0.0
C517 C 0.50614 0.29787 0.24997 0.0
C518 C 0.52836 0.25174 0.25447 0.0
C519 C 0.53456 0.28327 0.25812 0.0
N520 N 0.4849 0.27589 0.2402 0.0
N521 N 0.49819 0.2484 0.24446 0.0
C522 C 0.49953 0.33205 0.24957 0.0
H523 H 0.47578 0.33675 0.23735 0.0
H524 H 0.51711 0.34451 0.23021 0.0
H525 H 0.50105 0.34112 0.28226 0.0
C526 C 0.43429 0.27167 0.09054 0.0
N527 N 0.42603 0.27223 0.13125 0.0
N528 N 0.44949 0.2817 0.15436 0.0
C529 C 0.47271 0.29072 0.1283 0.0
C530 C 0.46397 0.28444 0.08662 0.0
C531 C 0.41527 0.25554 0.05751 0.0
H532 H 0.4007 0.23712 0.07213 0.0
H533 H 0.39974 0.2727 0.04208 0.0
H534 H 0.43038 0.24458 0.03334 0.0
O535 O 0.38541 0.22913 0.18482 0.0
O536 O 0.4245 0.23686 0.22961 0.0
H537 H 0.51803 0.29314 0.15635 0.0
H538 H 0.51065 0.32313 0.11717 0.0
C539 C 0.50028 0.30904 0.14287 0.0
H540 H 0.49258 0.3254 0.16746 0.0
H541 H 0.48718 0.22734 0.23772 0.0
O542 O 0.35654 0.26679 0.1072 0.0
C543 C 0.40251 0.22002 0.21501 0.0
H544 H 0.20802 0.93864 0.21067 0.0
H545 H 0.12271 0.99154 0.21325 0.0
H546 H 0.09249 0.94343 0.21834 0.0
H547 H 0.09113 0.88658 0.23174 0.0
H548 H 0.1773 0.83513 0.23203 0.0
H549 H 0.20629 0.88225 0.21459 0.0
C550 C 0.18277 0.93976 0.21155 0.0
C551 C 0.16776 0.96875 0.21327 0.0
C552 C 0.16568 0.91211 0.2148 0.0
C553 C 0.135 0.96962 0.21388 0.0
C554 C 0.11767 0.94206 0.21634 0.0
C555 C 0.11612 0.88567 0.22665 0.0
C556 C 0.13218 0.85761 0.23316 0.0
C557 C 0.13284 0.91319 0.21836 0.0
C558 C 0.16458 0.8566 0.22719 0.0
C559 C 0.18115 0.88352 0.2175 0.0
H560 H 0.13365 0.11472 0.23056 0.0
H561 H 0.17101 0.19721 0.28963 0.0
H562 H 0.12426 0.2261 0.27065 0.0
H563 H 0.07043 0.22616 0.24542 0.0
H564 H 0.03182 0.14353 0.18884 0.0
H565 H 0.08149 0.11649 0.19837 0.0
C566 C 0.13182 0.13917 0.23856 0.0
C567 C 0.15563 0.15367 0.26192 0.0
C568 C 0.10451 0.15551 0.22845 0.0
C569 C 0.15287 0.18537 0.27209 0.0
C570 C 0.12613 0.20194 0.26128 0.0
C571 C 0.07311 0.20245 0.23434 0.0
C572 C 0.04742 0.18658 0.21732 0.0
C573 C 0.10144 0.18698 0.24067 0.0
C574 C 0.05113 0.1559 0.20305 0.0
C575 C 0.07952 0.1405 0.20839 0.0
H576 H 0.84297 0.02419 0.23593 0.0
H577 H 0.75298 0.06534 0.2114 0.0
H578 H 0.77728 0.11638 0.20538 0.0
H579 H 0.8227 0.14976 0.21945 0.0
H580 H 0.91278 0.10814 0.23921 0.0
H581 H 0.88997 0.05627 0.23186 0.0
C582 C 0.82866 0.04372 0.22676 0.0
C583 C 0.79604 0.04059 0.22392 0.0
C584 C 0.84284 0.073 0.22254 0.0
C585 C 0.77809 0.067 0.21412 0.0
C586 C 0.79196 0.09625 0.21059 0.0
C587 C 0.83746 0.1293 0.22028 0.0
C588 C 0.8692 0.13252 0.23009 0.0
C589 C 0.82413 0.09965 0.21648 0.0
C590 C 0.88829 0.10608 0.23131 0.0
C591 C 0.87516 0.07644 0.22776 0.0
H592 H 0.8345 0.81722 0.22653 0.0
H593 H 0.86905 0.90938 0.25279 0.0
H594 H 0.92206 0.8927 0.23646 0.0
H595 H 0.95837 0.85003 0.22729 0.0
H596 H 0.92433 0.75872 0.19359 0.0
H597 H 0.87096 0.77709 0.20081 0.0
C598 C 0.85361 0.83377 0.22752 0.0
C599 C 0.84814 0.86429 0.24132 0.0
C600 C 0.88397 0.82413 0.21754 0.0
C601 C 0.87282 0.88574 0.24218 0.0
C602 C 0.90314 0.87615 0.23318 0.0
C603 C 0.93982 0.83425 0.21914 0.0
C604 C 0.94596 0.80281 0.2099 0.0
C605 C 0.9091 0.84509 0.22237 0.0
C606 C 0.92058 0.78297 0.20125 0.0
C607 C 0.88993 0.79341 0.2054 0.0
H608 H 0.16245 0.16722 0.75325 0.0
H609 H 0.07256 0.13951 0.80152 0.0
H610 H 0.09476 0.09051 0.82679 0.0
H611 H 0.13876 0.05353 0.82867 0.0
H612 H 0.22788 0.08162 0.77816 0.0
H613 H 0.20716 0.13281 0.76153 0.0
C614 C 0.14774 0.1506 0.76965 0.0
C615 C 0.11584 0.15675 0.77492 0.0
C616 C 0.16055 0.12253 0.78376 0.0
C617 C 0.0972 0.13525 0.79692 0.0
C618 C 0.10985 0.10719 0.81123 0.0
C619 C 0.1536 0.07091 0.81413 0.0
C620 C 0.18456 0.06351 0.8037 0.0
C621 C 0.14133 0.10023 0.80378 0.0
C622 C 0.20389 0.08663 0.78633 0.0
C623 C 0.19202 0.11587 0.77647 0.0
H624 H 0.83153 0.15557 0.76218 0.0
H625 H 0.87573 0.07111 0.80417 0.0
H626 H 0.92235 0.10068 0.82457 0.0
H627 H 0.95243 0.14995 0.82224 0.0
H628 H 0.9071 0.23374 0.77934 0.0
H629 H 0.85876 0.20518 0.76842 0.0
C630 C 0.8512 0.14373 0.77649 0.0
C631 C 0.85052 0.11129 0.78122 0.0
C632 C 0.87774 0.16075 0.78769 0.0
C633 C 0.87583 0.09615 0.80032 0.0
C634 C 0.90252 0.113 0.81163 0.0
C635 C 0.93189 0.16189 0.81073 0.0
C636 C 0.93352 0.19372 0.80063 0.0
C637 C 0.9041 0.14519 0.80412 0.0
C638 C 0.9065 0.2092 0.7871 0.0
C639 C 0.87888 0.19287 0.7806 0.0
H640 H 0.88647 0.84986 0.79585 0.0
H641 H 0.80376 0.81171 0.7379 0.0
H642 H 0.77293 0.85478 0.76484 0.0
H643 H 0.77088 0.90651 0.79572 0.0
H644 H 0.85337 0.94693 0.85068 0.0
H645 H 0.88282 0.89953 0.83475 0.0
C646 C 0.8616 0.85071 0.78987 0.0
C647 C 0.84752 0.82789 0.76439 0.0
C648 C 0.84403 0.87604 0.80465 0.0
C649 C 0.81526 0.82925 0.75687 0.0
C650 C 0.79757 0.85385 0.77231 0.0
C651 C 0.79507 0.90462 0.80537 0.0
C652 C 0.81013 0.93023 0.82376 0.0
C653 C 0.81191 0.87786 0.79495 0.0
C654 C 0.84149 0.92756 0.8359 0.0
C655 C 0.8583 0.90055 0.82665 0.0
H656 H 0.01688 0.85014 0.81414 0.0
H657 H 0.06282 0.76141 0.80079 0.0
H658 H 0.11317 0.78718 0.79746 0.0
H659 H 0.14319 0.8347 0.78723 0.0
H660 H 0.09849 0.924 0.79749 0.0
H661 H 0.04865 0.89837 0.81341 0.0
C662 C 0.03789 0.8365 0.81044 0.0
C663 C 0.03593 0.80395 0.80628 0.0
C664 C 0.06697 0.85158 0.80788 0.0
C665 C 0.06354 0.78651 0.80357 0.0
C666 C 0.09241 0.80122 0.80148 0.0
C667 C 0.12266 0.84854 0.794 0.0
C668 C 0.12425 0.88105 0.79082 0.0
C669 C 0.09425 0.8337 0.80203 0.0
C670 C 0.09773 0.89888 0.79999 0.0
C671 C 0.06921 0.88421 0.80858 0.0
H672 H 0.65974 0.43712 0.66102 0.0
H673 H 0.64172 0.46345 0.79001 0.0
H674 H 0.6221 0.41166 0.80535 0.0
H675 H 0.61316 0.35789 0.78369 0.0
H676 H 0.62733 0.33098 0.65432 0.0
H677 H 0.64559 0.38383 0.63731 0.0
C678 C 0.65096 0.43155 0.69221 0.0
C679 C 0.65183 0.45423 0.72418 0.0
C680 C 0.63956 0.40151 0.70085 0.0
C681 C 0.64062 0.44678 0.76457 0.0
C682 C 0.62975 0.41697 0.77356 0.0
C683 C 0.62029 0.3637 0.75178 0.0
C684 C 0.61968 0.34076 0.72041 0.0
C685 C 0.62966 0.39407 0.7422 0.0
C686 C 0.62807 0.34842 0.67893 0.0
C687 C 0.63841 0.37855 0.6693 0.0
H688 H 0.55621 0.7238 0.69243 0.0
H689 H 0.5058 0.63838 0.67157 0.0
H690 H 0.55399 0.60864 0.68019 0.0
H691 H 0.60869 0.60687 0.70451 0.0
H692 H 0.65765 0.69289 0.72796 0.0
H693 H 0.61198 0.72249 0.70636 0.0
C694 C 0.55583 0.69873 0.68872 0.0
C695 C 0.52734 0.68321 0.68279 0.0
C696 C 0.5834 0.68188 0.69444 0.0
C697 C 0.5273 0.65076 0.67767 0.0
C698 C 0.55487 0.63377 0.68242 0.0
C699 C 0.60958 0.63208 0.70376 0.0
C700 C 0.63631 0.6477 0.71832 0.0
C701 C 0.58282 0.64903 0.69257 0.0
C702 C 0.63716 0.68036 0.71737 0.0
C703 C 0.61105 0.69731 0.70513 0.0
H704 H 0.2763 0.5683 0.73078 0.0
H705 H 0.36082 0.52768 0.68232 0.0
H706 H 0.38812 0.57727 0.6917 0.0
H707 H 0.38881 0.63091 0.71965 0.0
H708 H 0.30433 0.66979 0.77128 0.0
H709 H 0.276 0.62232 0.754 0.0
C710 C 0.30057 0.57043 0.7216 0.0
C711 C 0.31669 0.54431 0.70654 0.0
C712 C 0.31612 0.5987 0.72778 0.0
C713 C 0.34814 0.54733 0.69492 0.0
C714 C 0.36369 0.57569 0.70009 0.0
C715 C 0.36408 0.62912 0.72639 0.0
C716 C 0.34869 0.65372 0.74686 0.0
C717 C 0.34808 0.60135 0.71745 0.0
C718 C 0.31673 0.65105 0.75583 0.0
C719 C 0.30051 0.62393 0.74599 0.0
H720 H 0.33701 0.31684 0.70001 0.0
H721 H 0.38403 0.4039 0.72221 0.0
H722 H 0.43367 0.38072 0.70117 0.0
H723 H 0.46383 0.33362 0.68976 0.0
H724 H 0.4169 0.24721 0.66114 0.0
H725 H 0.36668 0.27244 0.67147 0.0
C726 C 0.35805 0.33085 0.69899 0.0
C727 C 0.35722 0.36176 0.71303 0.0
C728 C 0.38636 0.31749 0.68635 0.0
C729 C 0.38433 0.37999 0.71142 0.0
C730 C 0.41268 0.3667 0.6997 0.0
C731 C 0.44299 0.3204 0.68331 0.0
C732 C 0.44455 0.28831 0.67473 0.0
C733 C 0.41413 0.33512 0.68873 0.0
C734 C 0.41656 0.27186 0.66817 0.0
C735 C 0.38775 0.28622 0.67422 0.0
H736 H 0.68337 0.64899 0.23896 0.0
H737 H 0.59428 0.61319 0.27963 0.0
H738 H 0.61952 0.56627 0.30664 0.0
H739 H 0.66602 0.53263 0.30968 0.0
H740 H 0.75436 0.56844 0.2662 0.0
H741 H 0.73053 0.61849 0.25087 0.0
C742 C 0.66952 0.6311 0.25425 0.0
C743 C 0.637 0.63424 0.25654 0.0
C744 C 0.68407 0.60417 0.26928 0.0
C745 C 0.61939 0.61121 0.27721 0.0
C746 C 0.63377 0.58432 0.29253 0.0
C747 C 0.68004 0.55155 0.29733 0.0
C748 C 0.71165 0.5466 0.288 0.0
C749 C 0.66596 0.58009 0.28736 0.0
C750 C 0.72988 0.57157 0.27338 0.0
C751 C 0.71622 0.60014 0.26418 0.0
H752 H 0.45377 0.64313 0.20274 0.0
H753 H 0.44029 0.65643 0.33611 0.0
H754 H 0.38922 0.6307 0.33181 0.0
H755 H 0.34675 0.60786 0.28826 0.0
H756 H 0.35998 0.59977 0.15387 0.0
H757 H 0.4131 0.61938 0.16033 0.0
C758 C 0.4401 0.63957 0.23108 0.0
C759 C 0.45094 0.65091 0.26983 0.0
C760 C 0.4106 0.62587 0.228 0.0
C761 C 0.43239 0.64746 0.30603 0.0
C762 C 0.40324 0.63287 0.30352 0.0
C763 C 0.36156 0.61008 0.26069 0.0
C764 C 0.34972 0.60252 0.22068 0.0
C765 C 0.39183 0.62247 0.26446 0.0
C766 C 0.36874 0.60571 0.18492 0.0
C767 C 0.39905 0.61688 0.18857 0.0
H768 H 0.34381 0.44666 0.2955 0.0
H769 H 0.25562 0.40835 0.25592 0.0
H770 H 0.28097 0.35958 0.23685 0.0
H771 H 0.32882 0.32991 0.22474 0.0
H772 H 0.41731 0.36784 0.26419 0.0
H773 H 0.3913 0.41469 0.28985 0.0
C774 C 0.33021 0.42744 0.28312 0.0
C775 C 0.29807 0.43112 0.27654 0.0
C776 C 0.34502 0.3996 0.2717 0.0
C777 C 0.28044 0.40599 0.26129 0.0
C778 C 0.29495 0.37821 0.25002 0.0
C779 C 0.34239 0.34835 0.2392 0.0
C780 C 0.37495 0.34562 0.242 0.0
C781 C 0.32732 0.3751 0.25398 0.0
C782 C 0.39219 0.36944 0.26151 0.0
C783 C 0.37736 0.39626 0.2761 0.0
H784 H 0.55671 0.3396 0.28832 0.0
H785 H 0.58491 0.25638 0.22227 0.0
H786 H 0.63534 0.27921 0.2075 0.0
H787 H 0.66945 0.32432 0.20614 0.0
H788 H 0.64238 0.40858 0.26999 0.0
H789 H 0.5935 0.38396 0.29235 0.0
C790 C 0.57375 0.32656 0.27046 0.0
C791 C 0.56645 0.29662 0.25542 0.0
C792 C 0.60291 0.34007 0.26131 0.0
C793 C 0.58957 0.27955 0.23408 0.0
C794 C 0.6185 0.29263 0.2253 0.0
C795 C 0.65298 0.33726 0.22525 0.0
C796 C 0.65927 0.36831 0.23586 0.0
C797 C 0.62506 0.32313 0.23765 0.0
C798 C 0.638 0.3846 0.26132 0.0
C799 C 0.61 0.37059 0.27393 0.0
H800 H 0.18937 0.22689 0.43877 0.0
H801 H 0.25507 0.1554 0.47354 0.0
H802 H 0.24402 0.1643 0.54796 0.0
H803 H 0.2101 0.18705 0.60234 0.0
H804 H 0.14493 0.25896 0.56719 0.0
H805 H 0.16169 0.25542 0.49406 0.0
C806 C 0.20179 0.2137 0.4626 0.0
C807 C 0.2223 0.18989 0.45049 0.0
C808 C 0.19512 0.21871 0.50541 0.0
C809 C 0.23857 0.1734 0.4819 0.0
C810 C 0.23225 0.17843 0.52456 0.0
C811 C 0.19997 0.20235 0.57885 0.0
C812 C 0.17564 0.22255 0.5901 0.0
C813 C 0.20963 0.20014 0.53659 0.0
C814 C 0.16313 0.24257 0.5593 0.0
C815 C 0.17275 0.24065 0.51737 0.0
H816 H 0.85391 0.11462 0.42561 0.0
H817 H 0.78967 0.19155 0.42769 0.0
H818 H 0.77952 0.18227 0.50292 0.0
H819 H 0.79189 0.15403 0.56892 0.0
H820 H 0.86327 0.08337 0.56708 0.0
H821 H 0.86861 0.08917 0.49106 0.0
C822 C 0.83717 0.12895 0.44233 0.0
C823 C 0.82215 0.15339 0.42127 0.0
C824 C 0.8336 0.12521 0.48584 0.0
C825 C 0.8012 0.17238 0.44341 0.0
C826 C 0.79573 0.16731 0.48638 0.0
C827 C 0.80879 0.14018 0.5518 0.0
C828 C 0.82712 0.11831 0.57347 0.0
C829 C 0.81241 0.14424 0.50813 0.0
C830 C 0.84913 0.10062 0.55117 0.0
C831 C 0.85193 0.10362 0.50763 0.0
H832 H 0.84491 0.74656 0.5396 0.0
H833 H 0.76243 0.79155 0.58795 0.0
H834 H 0.74443 0.8011 0.51597 0.0
H835 H 0.75557 0.80274 0.44018 0.0
H836 H 0.84023 0.76149 0.39251 0.0
H837 H 0.85351 0.7437 0.46338 0.0
C838 C 0.82284 0.75822 0.53448 0.0
C839 C 0.80536 0.7689 0.56915 0.0
C840 C 0.81306 0.76434 0.49311 0.0
C841 C 0.7765 0.78334 0.56188 0.0
C842 C 0.76623 0.78888 0.52071 0.0
C843 C 0.77675 0.78951 0.44511 0.0
C844 C 0.79723 0.78411 0.41117 0.0
C845 C 0.78485 0.78042 0.48617 0.0
C846 C 0.82419 0.76629 0.41806 0.0
C847 C 0.83192 0.75627 0.45866 0.0
H848 H 0.11254 0.85419 0.44791 0.0
H849 H 0.19833 0.80305 0.43495 0.0
H850 H 0.20783 0.80799 0.51106 0.0
H851 H 0.1912 0.82702 0.58097 0.0
H852 H 0.10219 0.87304 0.59322 0.0
H853 H 0.09377 0.86863 0.51761 0.0
C854 C 0.13358 0.84455 0.46165 0.0
C855 C 0.15509 0.82888 0.43602 0.0
C856 C 0.13779 0.84578 0.50531 0.0
C857 C 0.18171 0.81555 0.45425 0.0
C858 C 0.18694 0.81812 0.49766 0.0
C859 C 0.16975 0.83564 0.56717 0.0
C860 C 0.14753 0.85062 0.59267 0.0
C861 C 0.16497 0.83299 0.52353 0.0
C862 C 0.11973 0.86144 0.57439 0.0
C863 C 0.11502 0.85927 0.53105 0.0
H864 H 0.73277 0.66879 0.93112 0.0
H865 H 0.66005 0.73283 0.89508 0.0
H866 H 0.6514 0.74589 0.9691 0.0
H867 H 0.65871 0.73292 0.04365 0.0
H868 H 0.7275 0.66466 0.07955 0.0
H869 H 0.74363 0.65965 0.00597 0.0
C870 C 0.71526 0.68591 0.93933 0.0
C871 C 0.69653 0.6992 0.90758 0.0
C872 C 0.70945 0.69224 0.98201 0.0
C873 C 0.67455 0.72194 0.91881 0.0
C874 C 0.66945 0.72928 0.9612 0.0
C875 C 0.67748 0.71718 0.03555 0.0
C876 C 0.69138 0.69866 0.06703 0.0
C877 C 0.68582 0.71355 0.99305 0.0
C878 C 0.71616 0.67895 0.05598 0.0
C879 C 0.72531 0.67598 0.01385 0.0
H880 H 0.27219 0.68496 0.91514 0.0
H881 H 0.34358 0.74787 0.95924 0.0
H882 H 0.33025 0.73576 0.03214 0.0
H883 H 0.30325 0.70218 0.08284 0.0
H884 H 0.23328 0.63774 0.03861 0.0
H885 H 0.24083 0.65593 0.96649 0.0
C886 C 0.28441 0.69649 0.94068 0.0
C887 C 0.30919 0.71684 0.93174 0.0
C888 C 0.27709 0.68893 0.98259 0.0
C889 C 0.3247 0.73172 0.96523 0.0
C890 C 0.31713 0.7248 0.00699 0.0
C891 C 0.28921 0.69254 0.05757 0.0
C892 C 0.26816 0.66828 0.06601 0.0
C893 C 0.29413 0.70262 0.016 0.0
C894 C 0.25001 0.65616 0.0329 0.0
C895 C 0.25432 0.6665 0.99159 0.0
H896 H 0.27364 0.32443 0.9304 0.0
H897 H 0.34624 0.26432 0.88337 0.0
H898 H 0.35635 0.24585 0.955 0.0
H899 H 0.349 0.25172 0.03124 0.0
H900 H 0.28139 0.31727 0.07845 0.0
H901 H 0.26445 0.32827 0.0064 0.0
C902 C 0.29161 0.3072 0.93563 0.0
C903 C 0.30964 0.29635 0.90152 0.0
C904 C 0.29827 0.29779 0.97704 0.0
C905 C 0.33222 0.27335 0.90898 0.0
C906 C 0.3381 0.26287 0.94999 0.0
C907 C 0.33058 0.26844 0.0259 0.0
C908 C 0.31713 0.28429 0.06027 0.0
C909 C 0.32203 0.27577 0.98435 0.0
C910 C 0.29245 0.30501 0.05267 0.0
C911 C 0.28285 0.31142 0.01143 0.0
H912 H 0.70429 0.32182 0.88677 0.0
H913 H 0.64934 0.24267 0.92571 0.0
H914 H 0.66295 0.25237 -0.00081 0.0
H915 H 0.68618 0.28653 0.05301 0.0
H916 H 0.74211 0.36481 0.0133 0.0
H917 H 0.73254 0.35205 0.93978 0.0
C918 C 0.69563 0.3064 0.91122 0.0
C919 C 0.67525 0.28202 0.90074 0.0
C920 C 0.70348 0.31211 0.95347 0.0
C921 C 0.66464 0.262 0.93286 0.0
C922 C 0.67239 0.26751 0.97499 0.0
C923 C 0.6966 0.30055 0.02829 0.0
C924 C 0.71418 0.32705 0.03881 0.0
C925 C 0.69108 0.29304 0.98578 0.0
C926 C 0.72785 0.34471 0.00628 0.0
C927 C 0.72249 0.33739 0.96408 0.0
H928 H 0.32652 0.13357 0.3287 0.0
H929 H 0.29927 0.09796 0.20689 0.0
H930 H 0.34309 0.12492 0.17403 0.0
H931 H 0.37963 0.16864 0.17813 0.0
H932 H 0.40439 0.20705 0.29916 0.0
H933 H 0.37173 0.1683 0.33447 0.0
C934 C 0.33072 0.13105 0.29512 0.0
C935 C 0.30918 0.11482 0.26993 0.0
C936 C 0.35528 0.14739 0.27635 0.0
C937 C 0.31527 0.11081 0.22677 0.0
C938 C 0.3402 0.12639 0.20794 0.0
C939 C 0.37865 0.16776 0.21232 0.0
C940 C 0.39347 0.191 0.23614 0.0
C941 C 0.35896 0.14632 0.23208 0.0
C942 C 0.39284 0.18947 0.28032 0.0
C943 C 0.37391 0.16756 0.30042 0.0
H944 H 0.80645 0.38002 0.27711 0.0
H945 H 0.83108 0.37135 0.14584 0.0
H946 H 0.87026 0.33227 0.16331 0.0
H947 H 0.88795 0.29253 0.21345 0.0
H948 H 0.85797 0.2973 0.34314 0.0
H949 H 0.83088 0.34603 0.32917 0.0
C950 C 0.82128 0.37042 0.25265 0.0
C951 C 0.81576 0.37797 0.21035 0.0
C952 C 0.84228 0.34666 0.26262 0.0
C953 C 0.83487 0.36541 0.17867 0.0
C954 C 0.85706 0.34294 0.18859 0.0
C955 C 0.8762 0.30477 0.23878 0.0
C956 C 0.87419 0.29121 0.27887 0.0
C957 C 0.85951 0.33201 0.23008 0.0
C958 C 0.85909 0.30715 0.3117 0.0
C959 C 0.84366 0.33498 0.30378 0.0
H960 H 0.66995 0.85378 0.3206 0.0
H961 H 0.69933 0.88065 0.19577 0.0
H962 H 0.65751 0.8493 0.16489 0.0
H963 H 0.62226 0.80471 0.17401 0.0
H964 H 0.59433 0.77657 0.29903 0.0
H965 H 0.62516 0.81875 0.32953 0.0
C966 C 0.66638 0.85357 0.2867 0.0
C967 C 0.68783 0.86867 0.26025 0.0
C968 C 0.64286 0.83503 0.26938 0.0
C969 C 0.68303 0.86892 0.21652 0.0
C970 C 0.65935 0.8508 0.19893 0.0
C971 C 0.62211 0.80859 0.20784 0.0
C972 C 0.60694 0.78726 0.23446 0.0
C973 C 0.64051 0.83226 0.22505 0.0
C974 C 0.60616 0.79263 0.27808 0.0
C975 C 0.62403 0.81652 0.29551 0.0
H976 H 0.1387 0.69064 0.32927 0.0
H977 H 0.10112 0.70393 0.20425 0.0
H978 H 0.1261 0.65588 0.18079 0.0
H979 H 0.16691 0.61711 0.19253 0.0
H980 H 0.20691 0.60558 0.31627 0.0
H981 H 0.17186 0.64552 0.34423 0.0
C982 C 0.13557 0.68269 0.29706 0.0
C983 C 0.11903 0.70112 0.26804 0.0
C984 C 0.15043 0.65553 0.28375 0.0
C985 C 0.1142 0.69026 0.22686 0.0
C986 C 0.12854 0.66291 0.21346 0.0
C987 C 0.16719 0.62275 0.22591 0.0
C988 C 0.18966 0.60918 0.25232 0.0
C989 C 0.14794 0.64634 0.24111 0.0
C990 C 0.18976 0.61597 0.29554 0.0
C991 C 0.17002 0.63901 0.31129 0.0
H992 H 0.3629 0.8269 0.81843 0.0
H993 H 0.37246 0.79938 0.68829 0.0
H994 H 0.33512 0.83945 0.66728 0.0
H995 H 0.29153 0.87286 0.68844 0.0
H996 H 0.27981 0.89806 0.81915 0.0
H997 H 0.32663 0.86854 0.83767 0.0
C998 C 0.35751 0.83041 0.78531 0.0
C999 C 0.3696 0.80989 0.75495 0.0
C1000 C 0.33521 0.85252 0.77387 0.0
C1001 C 0.36317 0.81485 0.71212 0.0
C1002 C 0.34156 0.83747 0.70023 0.0
C1003 C 0.29967 0.87238 0.72085 0.0
C1004 C 0.28196 0.88666 0.75271 0.0
C1005 C 0.32606 0.85495 0.73119 0.0
C1006 C 0.29299 0.88681 0.79433 0.0
C1007 C 0.3196 0.86986 0.80487 0.0
H1008 H 0.18982 0.36509 0.82052 0.0
H1009 H 0.1986 0.39295 0.69033 0.0
H1010 H 0.14753 0.37019 0.67478 0.0
H1011 H 0.10806 0.33167 0.69503 0.0
H1012 H 0.10159 0.30076 0.82403 0.0
H1013 H 0.1433 0.33669 0.84407 0.0
C1014 C 0.18016 0.36674 0.78896 0.0
C1015 C 0.19809 0.37957 0.75617 0.0
C1016 C 0.15124 0.35318 0.78029 0.0
C1017 C 0.18523 0.38262 0.71575 0.0
C1018 C 0.15615 0.36957 0.70691 0.0
C1019 C 0.1149 0.33396 0.72785 0.0
C1020 C 0.10254 0.31338 0.75798 0.0
C1021 C 0.13992 0.35327 0.73843 0.0
C1022 C 0.11099 0.31645 0.80046 0.0
C1023 C 0.13519 0.33655 0.81168 0.0
H1024 H 0.61801 0.16123 0.79387 0.0
H1025 H 0.61542 0.18445 0.66166 0.0
H1026 H 0.64933 0.14009 0.64587 0.0
H1027 H 0.68899 0.10401 0.67236 0.0
H1028 H 0.69494 0.08431 0.80562 0.0
H1029 H 0.64966 0.11747 0.81854 0.0
C1030 C 0.62408 0.15582 0.76144 0.0
C1031 C 0.61503 0.17612 0.72893 0.0
C1032 C 0.64451 0.13133 0.75312 0.0
C1033 C 0.62237 0.16903 0.687 0.0
C1034 C 0.64199 0.14394 0.67816 0.0
C1035 C 0.67985 0.10639 0.70411 0.0
C1036 C 0.69571 0.09268 0.73825 0.0
C1037 C 0.65472 0.12633 0.71133 0.0
C1038 C 0.68329 0.09504 0.77902 0.0
C1039 C 0.65759 0.11416 0.78639 0.0
H1040 H 0.8053 0.61695 0.81079 0.0
H1041 H 0.77974 0.59768 0.68194 0.0
H1042 H 0.82713 0.62355 0.65712 0.0
H1043 H 0.86652 0.66347 0.6722 0.0
H1044 H 0.88979 0.68537 0.80117 0.0
H1045 H 0.85346 0.64567 0.82606 0.0
C1046 C 0.81079 0.61748 0.77737 0.0
C1047 C 0.78891 0.60643 0.74803 0.0
C1048 C 0.83745 0.63318 0.76347 0.0
C1049 C 0.79625 0.60643 0.70493 0.0
C1050 C 0.82317 0.62145 0.69078 0.0
C1051 C 0.86446 0.65867 0.70571 0.0
C1052 C 0.87982 0.6779 0.73493 0.0
C1053 C 0.84263 0.63677 0.7197 0.0
C1054 C 0.8778 0.6711 0.77815 0.0
C1055 C 0.85675 0.64866 0.79239 0.0
H1056 H 0.24152 0.04504 0.4728 0.0
H1057 H 0.15932 0.00394 0.4181 0.0
H1058 H 0.14779 0.97766 0.48513 0.0
H1059 H 0.15997 0.96893 0.56017 0.0
H1060 H 0.24313 0.00904 0.61375 0.0
H1061 H 0.25477 0.03474 0.54667 0.0
C1062 C 0.22121 0.03012 0.47565 0.0
C1063 C 0.20109 0.02643 0.44112 0.0
C1064 C 0.21445 0.01595 0.51426 0.0
C1065 C 0.17511 0.00682 0.44448 0.0
C1066 C 0.16836 0.99221 0.48282 0.0
C1067 C 0.18042 0.98363 0.55709 0.0
C1068 C 0.20017 0.98805 0.59193 0.0
C1069 C 0.18754 -0.00282 0.5181 0.0
C1070 C 0.22698 0.00645 0.58773 0.0
C1071 C 0.23392 0.0206 0.54924 0.0
H1072 H 0.94705 0.23828 0.45433 0.0
H1073 H -0.00233 0.15537 0.42143 0.0
H1074 H 0.02239 0.15489 0.49128 0.0
H1075 H 0.02823 0.17754 0.562 0.0
H1076 H 0.97968 0.26201 0.59357 0.0
H1077 H 0.95402 0.26177 0.52449 0.0
C1078 C 0.96379 0.22038 0.46256 0.0
C1079 C 0.97073 0.19685 0.43342 0.0
C1080 C 0.97732 0.22007 0.5027 0.0
C1081 C 0.99234 0.17371 0.4437 0.0
C1082 C 0.00609 0.17327 0.4836 0.0
C1083 C 0.01173 0.19565 0.55372 0.0
C1084 C 0.00529 0.21946 0.58269 0.0
C1085 C -0.00162 0.19609 0.51348 0.0
C1086 C 0.98424 0.24305 0.57196 0.0
C1087 C 0.97005 0.24319 0.53232 0.0
H1088 H 0.7529 0.9229 0.48049 0.0
H1089 H 0.83561 0.96667 0.43112 0.0
H1090 H 0.84727 0.98838 0.50084 0.0
H1091 H 0.83218 -0.00297 0.57443 0.0
H1092 H 0.74743 0.95658 0.6226 0.0
H1093 H 0.73902 0.92975 0.55539 0.0
C1094 C 0.77346 0.93719 0.48526 0.0
C1095 C 0.7932 0.94372 0.45104 0.0
C1096 C 0.77998 0.94931 0.5253 0.0
C1097 C 0.81987 0.96202 0.45709 0.0
C1098 C 0.82667 0.97405 0.49691 0.0
C1099 C 0.81235 0.9816 0.5704 0.0
C1100 C 0.79078 0.97814 0.60337 0.0
C1101 C 0.80677 0.96799 0.53109 0.0
C1102 C 0.76481 0.95871 0.598 0.0
C1103 C 0.75969 0.94397 0.55933 0.0
H1104 H 0.95078 0.75532 0.54048 0.0
H1105 H 0.0074 0.8223 0.60656 0.0
H1106 H 0.03806 0.83132 0.54228 0.0
H1107 H 0.04677 0.82163 0.46652 0.0
H1108 H 0.98872 0.75565 0.40069 0.0
H1109 H 0.95905 0.74602 0.46531 0.0
C1110 C 0.96964 0.77213 0.54066 0.0
C1111 C 0.97665 0.78851 0.57777 0.0
C1112 C 0.98619 0.77789 0.50351 0.0
C1113 C 0.00175 0.80942 0.57822 0.0
C1114 C 0.01896 0.8148 0.54145 0.0
C1115 C 0.02751 0.80525 0.46646 0.0
C1116 C 0.01956 0.78958 0.42908 0.0
C1117 C 0.01102 0.7995 0.5038 0.0
C1118 C 0.99467 0.76845 0.42899 0.0
C1119 C 0.97805 0.76264 0.46598 0.0
H1120 H 0.72544 0.56345 0.94403 0.0
H1121 H 0.64215 0.51201 0.91385 0.0
H1122 H 0.64387 0.48645 0.9831 0.0
H1123 H 0.67083 0.47708 0.05009 0.0
H1124 H 0.75758 0.52384 0.07621 0.0
H1125 H 0.752 0.5546 0.01161 0.0
C1126 C 0.7076 0.54678 0.95295 0.0
C1127 C 0.68362 0.53947 0.92456 0.0
C1128 C 0.70907 0.53211 0.99224 0.0
C1129 C 0.66081 0.51764 0.93557 0.0
C1130 C 0.6617 0.50333 0.97507 0.0
C1131 C 0.68812 0.49451 0.04186 0.0
C1132 C 0.71431 0.49869 0.06777 0.0
C1133 C 0.68585 0.51027 0.00345 0.0
C1134 C 0.73686 0.52094 0.05712 0.0
C1135 C 0.73396 0.53801 0.01985 0.0
H1136 H 0.45794 0.67056 0.93559 0.0
H1137 H 0.51046 0.75074 0.89529 0.0
H1138 H 0.54232 0.74786 0.95927 0.0
H1139 H 0.55165 0.72546 0.02941 0.0
H1140 H 0.49607 0.6482 0.07263 0.0
H1141 H 0.46774 0.64769 0.00538 0.0
C1142 C 0.47675 0.68704 0.94069 0.0
C1143 C 0.48232 0.71052 0.91081 0.0
C1144 C 0.49358 0.68628 0.97847 0.0
C1145 C 0.5064 0.73201 0.91748 0.0
C1146 C 0.52418 0.73068 0.95433 0.0
C1147 C 0.5335 0.70836 0.0238 0.0
C1148 C 0.52589 0.68675 0.05539 0.0
C1149 C 0.51743 0.70839 0.98542 0.0
C1150 C 0.50203 0.66508 0.04853 0.0
C1151 C 0.4861 0.66466 0.01012 0.0
H1152 H 0.22667 0.50747 0.03491 0.0
H1153 H 0.31161 0.47894 0.09599 0.0
H1154 H 0.33051 0.45644 0.02979 0.0
H1155 H 0.32429 0.44877 0.95332 0.0
H1156 H 0.23832 0.47532 0.89306 0.0
H1157 H 0.21882 0.49634 0.95968 0.0
C1158 C 0.24893 0.49554 0.03371 0.0
C1159 C 0.26776 0.49452 0.06976 0.0
C1160 C 0.2599 0.48364 0.99548 0.0
C1161 C 0.29668 0.47943 0.06843 0.0
C1162 C 0.30766 0.46713 0.03054 0.0
C1163 C 0.30141 0.45943 0.95496 0.0
C1164 C 0.28299 0.46128 0.91854 0.0
C1165 C 0.28983 0.46995 0.99366 0.0
C1166 C 0.25319 0.47458 0.92066 0.0
C1167 C 0.24185 0.48604 0.95879 0.0
H1168 H 0.55556 0.29502 0.93251 0.0
H1169 H 0.46934 0.27639 0.8668 0.0
H1170 H 0.44044 0.28784 0.93119 0.0
H1171 H 0.44064 0.29645 0.00775 0.0
H1172 H 0.52762 0.28421 0.07466 0.0
H1173 H 0.55595 0.29148 0.00914 0.0
C1174 C 0.5306 0.29177 0.93213 0.0
C1175 C 0.51503 0.28386 0.8946 0.0
C1176 C 0.5145 0.29306 0.97025 0.0
C1177 C 0.48227 0.28288 0.8947 0.0
C1178 C 0.46569 0.28884 0.93182 0.0
C1179 C 0.46566 0.29391 0.0084 0.0
C1180 C 0.48163 0.28984 0.04687 0.0
C1181 C 0.48172 0.29267 0.97007 0.0
C1182 C 0.51439 0.28877 0.04634 0.0
C1183 C 0.5307 0.29219 0.00859 0.0
loop_
_geom_bond_atom_site_label_1
_geom_bond_atom_site_label_2
_geom_bond_distance
_geom_bond_site_symmetry_2
_ccdc_geom_bond_type
Co0 O3 1.970 . S
Co0 N17 1.989 . S
Co0 O25 1.967 . S
Co0 O32 1.920 . S
Co1 O4 1.966 . S
Co1 N10 2.022 . S
Co1 N18 1.993 . S
Co1 O26 1.941 . S
C2 O3 1.258 . S
C2 O4 1.263 . S
O3 Co0 1.970 . S
O3 C2 1.258 . S
O4 Co1 1.966 . S
O4 C2 1.263 . S
C5 O6 1.235 . S
C5 O32 1.289 . S
O6 C5 1.235 . S
C7 C9 1.400 1_545 S
C7 N10 1.351 . S
C7 C12 1.501 . S
C8 C9 1.387 . S
C8 N11 1.341 1_565 S
C9 C7 1.400 1_565 S
C9 C8 1.387 . S
N10 Co1 2.022 . S
N10 C7 1.351 . S
N10 N11 1.365 . S
N11 C8 1.341 1_545 S
N11 N10 1.365 . S
N11 H31 0.862 . S
C12 C7 1.501 . S
C12 H13 0.961 . S
C12 H14 0.961 . S
C12 H15 0.960 . S
H13 C12 0.961 . S
H14 C12 0.961 . S
H15 C12 0.960 . S
C16 N17 1.342 . S
C16 C20 1.401 . S
C16 C21 1.499 . S
N17 Co0 1.989 . S
N17 C16 1.342 . S
N17 N18 1.388 . S
N18 Co1 1.993 . S
N18 N17 1.388 . S
N18 C19 1.346 . S
C19 N18 1.346 . S
C19 C20 1.396 . S
C19 C29 1.510 . S
C20 C16 1.401 . S
C20 C19 1.396 . S
C21 C16 1.499 . S
C21 H22 0.959 . S
C21 H23 0.960 . S
C21 H24 0.961 . S
H22 C21 0.959 . S
H23 C21 0.960 . S
H24 C21 0.961 . S
O25 Co0 1.967 . S
O25 C33 1.258 . S
O26 Co1 1.941 . S
O26 C33 1.266 . S
H27 C29 0.959 1_565 S
H28 C29 0.961 1_565 S
C29 C19 1.510 . S
C29 H27 0.959 1_545 S
C29 H28 0.961 1_545 S
C29 H30 0.960 . S
H30 C29 0.960 . S
H31 N11 0.862 . S
O32 Co0 1.920 . S
O32 C5 1.289 . S
C33 O25 1.258 . S
C33 O26 1.266 . S
Co34 O37 1.970 . S
Co34 N51 1.989 . S
Co34 O59 1.967 . S
Co34 O66 1.920 . S
Co35 O38 1.966 . S
Co35 N44 2.022 . S
Co35 N52 1.993 . S
Co35 O60 1.941 . S
C36 O37 1.258 . S
C36 O38 1.263 . S
O37 Co34 1.970 . S
O37 C36 1.258 . S
O38 Co35 1.966 . S
O38 C36 1.263 . S
C39 O40 1.235 . S
C39 O66 1.289 . S
O40 C39 1.235 . S
C41 C43 1.400 1_655 S
C41 N44 1.351 . S
C41 C46 1.501 . S
C42 C43 1.387 . S
C42 N45 1.341 1_455 S
C43 C41 1.400 1_455 S
C43 C42 1.387 . S
N44 Co35 2.022 . S
N44 C41 1.351 . S
N44 N45 1.365 . S
N45 C42 1.341 1_655 S
N45 N44 1.365 . S
N45 H65 0.862 . S
C46 C41 1.501 . S
C46 H47 0.961 . S
C46 H48 0.961 . S
C46 H49 0.960 . S
H47 C46 0.961 . S
H48 C46 0.961 . S
H49 C46 0.960 . S
C50 N51 1.342 . S
C50 C54 1.401 . S
C50 C55 1.499 . S
N51 Co34 1.989 . S
N51 C50 1.342 . S
N51 N52 1.388 . S
N52 Co35 1.993 . S
N52 N51 1.388 . S
N52 C53 1.346 . S
C53 N52 1.346 . S
C53 C54 1.396 . S
C53 C63 1.510 . S
C54 C50 1.401 . S
C54 C53 1.396 . S
C55 C50 1.499 . S
C55 H56 0.959 . S
C55 H57 0.960 . S
C55 H58 0.961 . S
H56 C55 0.959 . S
H57 C55 0.960 . S
H58 C55 0.961 . S
O59 Co34 1.967 . S
O59 C67 1.258 . S
O60 Co35 1.941 . S
O60 C67 1.266 . S
H61 C63 0.959 1_455 S
H62 C63 0.961 1_455 S
C63 C53 1.510 . S
C63 H61 0.959 1_655 S
C63 H62 0.961 1_655 S
C63 H64 0.960 . S
H64 C63 0.960 . S
H65 N45 0.862 . S
O66 Co34 1.920 . S
O66 C39 1.289 . S
C67 O59 1.258 . S
C67 O60 1.266 . S
Co68 O71 1.970 . S
Co68 N85 1.989 . S
Co68 O93 1.967 . S
Co68 O100 1.920 . S
Co69 O72 1.966 . S
Co69 N78 2.022 . S
Co69 N86 1.993 . S
Co69 O94 1.941 . S
C70 O71 1.258 . S
C70 O72 1.263 . S
O71 Co68 1.970 . S
O71 C70 1.258 . S
O72 Co69 1.966 . S
O72 C70 1.263 . S
C73 O74 1.235 . S
C73 O100 1.289 . S
O74 C73 1.235 . S
C75 C77 1.400 1_565 S
C75 N78 1.351 . S
C75 C80 1.501 . S
C76 C77 1.387 . S
C76 N79 1.341 1_545 S
C77 C75 1.400 1_545 S
C77 C76 1.387 . S
N78 Co69 2.022 . S
N78 C75 1.351 . S
N78 N79 1.365 . S
N79 C76 1.341 1_565 S
N79 N78 1.365 . S
N79 H99 0.862 . S
C80 C75 1.501 . S
C80 H81 0.961 . S
C80 H82 0.961 . S
C80 H83 0.960 . S
H81 C80 0.961 . S
H82 C80 0.961 . S
H83 C80 0.960 . S
C84 N85 1.342 . S
C84 C88 1.401 . S
C84 C89 1.499 . S
N85 Co68 1.989 . S
N85 C84 1.342 . S
N85 N86 1.388 . S
N86 Co69 1.993 . S
N86 N85 1.388 . S
N86 C87 1.346 . S
C87 N86 1.346 . S
C87 C88 1.396 . S
C87 C97 1.510 . S
C88 C84 1.401 . S
C88 C87 1.396 . S
C89 C84 1.499 . S
C89 H90 0.959 . S
C89 H91 0.960 . S
C89 H92 0.961 . S
H90 C89 0.959 . S
H91 C89 0.960 . S
H92 C89 0.961 . S
O93 Co68 1.967 . S
O93 C101 1.258 . S
O94 Co69 1.941 . S
O94 C101 1.266 . S
H95 C97 0.959 1_545 S
H96 C97 0.961 1_545 S
C97 C87 1.510 . S
C97 H95 0.959 1_565 S
C97 H96 0.961 1_565 S
C97 H98 0.960 . S
H98 C97 0.960 . S
H99 N79 0.862 . S
O100 Co68 1.920 . S
O100 C73 1.289 . S
C101 O93 1.258 . S
C101 O94 1.266 . S
Co102 O105 1.970 . S
Co102 N119 1.989 . S
Co102 O127 1.967 . S
Co102 O134 1.920 . S
Co103 O106 1.966 . S
Co103 N112 2.022 . S
Co103 N120 1.993 . S
Co103 O128 1.941 . S
C104 O105 1.258 . S
C104 O106 1.263 . S
O105 Co102 1.970 . S
O105 C104 1.258 . S
O106 Co103 1.966 . S
O106 C104 1.263 . S
C107 O108 1.235 . S
C107 O134 1.289 . S
O108 C107 1.235 . S
C109 C111 1.400 1_455 S
C109 N112 1.351 . S
C109 C114 1.501 . S
C110 C111 1.387 . S
C110 N113 1.341 1_655 S
C111 C109 1.400 1_655 S
C111 C110 1.387 . S
N112 Co103 2.022 . S
N112 C109 1.351 . S
N112 N113 1.365 . S
N113 C110 1.341 1_455 S
N113 N112 1.365 . S
N113 H133 0.862 . S
C114 C109 1.501 . S
C114 H115 0.961 . S
C114 H116 0.961 . S
C114 H117 0.960 . S
H115 C114 0.961 . S
H116 C114 0.961 . S
H117 C114 0.960 . S
C118 N119 1.342 . S
C118 C122 1.401 . S
C118 C123 1.499 . S
N119 Co102 1.989 . S
N119 C118 1.342 . S
N119 N120 1.388 . S
N120 Co103 1.993 . S
N120 N119 1.388 . S
N120 C121 1.346 . S
C121 N120 1.346 . S
C121 C122 1.396 . S
C121 C131 1.510 . S
C122 C118 1.401 . S
C122 C121 1.396 . S
C123 C118 1.499 . S
C123 H124 0.959 . S
C123 H125 0.960 . S
C123 H126 0.961 . S
H124 C123 0.959 . S
H125 C123 0.960 . S
H126 C123 0.961 . S
O127 Co102 1.967 . S
O127 C135 1.258 . S
O128 Co103 1.941 . S
O128 C135 1.266 . S
H129 C131 0.959 1_655 S
H130 C131 0.961 1_655 S
C131 C121 1.510 . S
C131 H129 0.959 1_455 S
C131 H130 0.961 1_455 S
C131 H132 0.960 . S
H132 C131 0.960 . S
H133 N113 0.862 . S
O134 Co102 1.920 . S
O134 C107 1.289 . S
C135 O127 1.258 . S
C135 O128 1.266 . S
Co136 O139 1.970 . S
Co136 N153 1.989 . S
Co136 O161 1.967 . S
Co136 O168 1.920 . S
Co137 O140 1.966 . S
Co137 N146 2.022 . S
Co137 N154 1.993 . S
Co137 O162 1.941 . S
C138 O139 1.258 . S
C138 O140 1.263 . S
O139 Co136 1.970 . S
O139 C138 1.258 . S
O140 Co137 1.966 . S
O140 C138 1.263 . S
C141 O142 1.235 . S
C141 O168 1.289 . S
O142 C141 1.235 . S
C143 C145 1.400 1_565 S
C143 N146 1.351 . S
C143 C148 1.501 . S
C144 C145 1.387 . S
C144 N147 1.341 1_545 S
C145 C143 1.400 1_545 S
C145 C144 1.387 . S
N146 Co137 2.022 . S
N146 C143 1.351 . S
N146 N147 1.365 . S
N147 C144 1.341 1_565 S
N147 N146 1.365 . S
N147 H167 0.862 . S
C148 C143 1.501 . S
C148 H149 0.961 . S
C148 H150 0.961 . S
C148 H151 0.960 . S
H149 C148 0.961 . S
H150 C148 0.961 . S
H151 C148 0.960 . S
C152 N153 1.342 . S
C152 C156 1.401 . S
C152 C157 1.499 . S
N153 Co136 1.989 . S
N153 C152 1.342 . S
N153 N154 1.388 . S
N154 Co137 1.993 . S
N154 N153 1.388 . S
N154 C155 1.346 . S
C155 N154 1.346 . S
C155 C156 1.396 . S
C155 C165 1.510 . S
C156 C152 1.401 . S
C156 C155 1.396 . S
C157 C152 1.499 . S
C157 H158 0.959 . S
C157 H159 0.960 . S
C157 H160 0.961 . S
H158 C157 0.959 . S
H159 C157 0.960 . S
H160 C157 0.961 . S
O161 Co136 1.967 . S
O161 C169 1.258 . S
O162 Co137 1.941 . S
O162 C169 1.266 . S
H163 C165 0.959 1_545 S
H164 C165 0.961 1_545 S
C165 C155 1.510 . S
C165 H163 0.959 1_565 S
C165 H164 0.961 1_565 S
C165 H166 0.960 . S
H166 C165 0.960 . S
H167 N147 0.862 . S
O168 Co136 1.920 . S
O168 C141 1.289 . S
C169 O161 1.258 . S
C169 O162 1.266 . S
Co170 O173 1.970 . S
Co170 N187 1.989 . S
Co170 O195 1.967 . S
Co170 O202 1.920 . S
Co171 O174 1.966 . S
Co171 N180 2.022 . S
Co171 N188 1.993 . S
Co171 O196 1.941 . S
C172 O173 1.258 . S
C172 O174 1.263 . S
O173 Co170 1.970 . S
O173 C172 1.258 . S
O174 Co171 1.966 . S
O174 C172 1.263 . S
C175 O176 1.235 . S
C175 O202 1.289 . S
O176 C175 1.235 . S
C177 C179 1.400 1_455 S
C177 N180 1.351 . S
C177 C182 1.501 . S
C178 C179 1.387 . S
C178 N181 1.341 1_655 S
C179 C177 1.400 1_655 S
C179 C178 1.387 . S
N180 Co171 2.022 . S
N180 C177 1.351 . S
N180 N181 1.365 . S
N181 C178 1.341 1_455 S
N181 N180 1.365 . S
N181 H201 0.862 . S
C182 C177 1.501 . S
C182 H183 0.961 . S
C182 H184 0.961 . S
C182 H185 0.960 . S
H183 C182 0.961 . S
H184 C182 0.961 . S
H185 C182 0.960 . S
C186 N187 1.342 . S
C186 C190 1.401 . S
C186 C191 1.499 . S
N187 Co170 1.989 . S
N187 C186 1.342 . S
N187 N188 1.388 . S
N188 Co171 1.993 . S
N188 N187 1.388 . S
N188 C189 1.346 . S
C189 N188 1.346 . S
C189 C190 1.396 . S
C189 C199 1.510 . S
C190 C186 1.401 . S
C190 C189 1.396 . S
C191 C186 1.499 . S
C191 H192 0.959 . S
C191 H193 0.960 . S
C191 H194 0.961 . S
H192 C191 0.959 . S
H193 C191 0.960 . S
H194 C191 0.961 . S
O195 Co170 1.967 . S
O195 C203 1.258 . S
O196 Co171 1.941 . S
O196 C203 1.266 . S
H197 C199 0.959 1_655 S
H198 C199 0.961 1_655 S
C199 C189 1.510 . S
C199 H197 0.959 1_455 S
C199 H198 0.961 1_455 S
C199 H200 0.960 . S
H200 C199 0.960 . S
H201 N181 0.862 . S
O202 Co170 1.920 . S
O202 C175 1.289 . S
C203 O195 1.258 . S
C203 O196 1.266 . S
Co204 O207 1.970 . S
Co204 N221 1.989 . S
Co204 O229 1.967 . S
Co204 O236 1.920 . S
Co205 O208 1.966 . S
Co205 N214 2.022 . S
Co205 N222 1.993 . S
Co205 O230 1.941 . S
C206 O207 1.258 . S
C206 O208 1.263 . S
O207 Co204 1.970 . S
O207 C206 1.258 . S
O208 Co205 1.966 . S
O208 C206 1.263 . S
C209 O210 1.235 . S
C209 O236 1.289 . S
O210 C209 1.235 . S
C211 C213 1.400 1_545 S
C211 N214 1.351 . S
C211 C216 1.501 . S
C212 C213 1.387 . S
C212 N215 1.341 1_565 S
C213 C211 1.400 1_565 S
C213 C212 1.387 . S
N214 Co205 2.022 . S
N214 C211 1.351 . S
N214 N215 1.365 . S
N215 C212 1.341 1_545 S
N215 N214 1.365 . S
N215 H235 0.862 . S
C216 C211 1.501 . S
C216 H217 0.961 . S
C216 H218 0.961 . S
C216 H219 0.960 . S
H217 C216 0.961 . S
H218 C216 0.961 . S
H219 C216 0.960 . S
C220 N221 1.342 . S
C220 C224 1.401 . S
C220 C225 1.499 . S
N221 Co204 1.989 . S
N221 C220 1.342 . S
N221 N222 1.388 . S
N222 Co205 1.993 . S
N222 N221 1.388 . S
N222 C223 1.346 . S
C223 N222 1.346 . S
C223 C224 1.396 . S
C223 C233 1.510 . S
C224 C220 1.401 . S
C224 C223 1.396 . S
C225 C220 1.499 . S
C225 H226 0.959 . S
C225 H227 0.960 . S
C225 H228 0.961 . S
H226 C225 0.959 . S
H227 C225 0.960 . S
H228 C225 0.961 . S
O229 Co204 1.967 . S
O229 C237 1.258 . S
O230 Co205 1.941 . S
O230 C237 1.266 . S
H231 C233 0.959 1_565 S
H232 C233 0.961 1_565 S
C233 C223 1.510 . S
C233 H231 0.959 1_545 S
C233 H232 0.961 1_545 S
C233 H234 0.960 . S
H234 C233 0.960 . S
H235 N215 0.862 . S
O236 Co204 1.920 . S
O236 C209 1.289 . S
C237 O229 1.258 . S
C237 O230 1.266 . S
Co238 O241 1.970 . S
Co238 N255 1.989 . S
Co238 O263 1.967 . S
Co238 O270 1.920 . S
Co239 O242 1.966 . S
Co239 N248 2.022 . S
Co239 N256 1.993 . S
Co239 O264 1.941 . S
C240 O241 1.258 . S
C240 O242 1.263 . S
O241 Co238 1.970 . S
O241 C240 1.258 . S
O242 Co239 1.966 . S
O242 C240 1.263 . S
C243 O244 1.235 . S
C243 O270 1.289 . S
O244 C243 1.235 . S
C245 C247 1.400 1_655 S
C245 N248 1.351 . S
C245 C250 1.501 . S
C246 C247 1.387 . S
C246 N249 1.341 1_455 S
C247 C245 1.400 1_455 S
C247 C246 1.387 . S
N248 Co239 2.022 . S
N248 C245 1.351 . S
N248 N249 1.365 . S
N249 C246 1.341 1_655 S
N249 N248 1.365 . S
N249 H269 0.862 . S
C250 C245 1.501 . S
C250 H251 0.961 . S
C250 H252 0.961 . S
C250 H253 0.960 . S
H251 C250 0.961 . S
H252 C250 0.961 . S
H253 C250 0.960 . S
C254 N255 1.342 . S
C254 C258 1.401 . S
C254 C259 1.499 . S
N255 Co238 1.989 . S
N255 C254 1.342 . S
N255 N256 1.388 . S
N256 Co239 1.993 . S
N256 N255 1.388 . S
N256 C257 1.346 . S
C257 N256 1.346 . S
C257 C258 1.396 . S
C257 C267 1.510 . S
C258 C254 1.401 . S
C258 C257 1.396 . S
C259 C254 1.499 . S
C259 H260 0.959 . S
C259 H261 0.960 . S
C259 H262 0.961 . S
H260 C259 0.959 . S
H261 C259 0.960 . S
H262 C259 0.961 . S
O263 Co238 1.967 . S
O263 C271 1.258 . S
O264 Co239 1.941 . S
O264 C271 1.266 . S
H265 C267 0.959 1_455 S
H266 C267 0.961 1_455 S
C267 C257 1.510 . S
C267 H265 0.959 1_655 S
C267 H266 0.961 1_655 S
C267 H268 0.960 . S
H268 C267 0.960 . S
H269 N249 0.862 . S
O270 Co238 1.920 . S
O270 C243 1.289 . S
C271 O263 1.258 . S
C271 O264 1.266 . S
Co272 O275 1.970 . S
Co272 N289 1.989 . S
Co272 O297 1.967 . S
Co272 O304 1.920 . S
Co273 O276 1.966 . S
Co273 N282 2.022 . S
Co273 N290 1.993 . S
Co273 O298 1.941 . S
C274 O275 1.258 . S
C274 O276 1.263 . S
O275 Co272 1.970 . S
O275 C274 1.258 . S
O276 Co273 1.966 . S
O276 C274 1.263 . S
C277 O278 1.235 . S
C277 O304 1.289 . S
O278 C277 1.235 . S
C279 C281 1.400 . S
C279 N282 1.351 . S
C279 C284 1.501 . S
C280 C281 1.387 . S
C280 N283 1.341 . S
C281 C279 1.400 . S
C281 C280 1.387 . S
N282 Co273 2.022 . S
N282 C279 1.351 . S
N282 N283 1.365 . S
N283 C280 1.341 . S
N283 N282 1.365 . S
N283 H303 0.862 . S
C284 C279 1.501 . S
C284 H285 0.961 . S
C284 H286 0.961 . S
C284 H287 0.960 . S
H285 C284 0.961 . S
H286 C284 0.961 . S
H287 C284 0.960 . S
C288 N289 1.342 . S
C288 C292 1.401 . S
C288 C293 1.499 . S
N289 Co272 1.989 . S
N289 C288 1.342 . S
N289 N290 1.388 . S
N290 Co273 1.993 . S
N290 N289 1.388 . S
N290 C291 1.346 . S
C291 N290 1.346 . S
C291 C292 1.396 . S
C291 C301 1.510 . S
C292 C288 1.401 . S
C292 C291 1.396 . S
C293 C288 1.499 . S
C293 H294 0.959 . S
C293 H295 0.960 . S
C293 H296 0.961 . S
H294 C293 0.959 . S
H295 C293 0.960 . S
H296 C293 0.961 . S
O297 Co272 1.967 . S
O297 C305 1.258 . S
O298 Co273 1.941 . S
O298 C305 1.266 . S
H299 C301 0.959 . S
H300 C301 0.961 . S
C301 C291 1.510 . S
C301 H299 0.959 . S
C301 H300 0.961 . S
C301 H302 0.960 . S
H302 C301 0.960 . S
H303 N283 0.862 . S
O304 Co272 1.920 . S
O304 C277 1.289 . S
C305 O297 1.258 . S
C305 O298 1.266 . S
Co306 O309 1.970 . S
Co306 N323 1.989 . S
Co306 O331 1.967 . S
Co306 O338 1.920 . S
Co307 O310 1.966 . S
Co307 N316 2.022 . S
Co307 N324 1.993 . S
Co307 O332 1.941 . S
C308 O309 1.258 . S
C308 O310 1.263 . S
O309 Co306 1.970 . S
O309 C308 1.258 . S
O310 Co307 1.966 . S
O310 C308 1.263 . S
C311 O312 1.235 . S
C311 O338 1.289 . S
O312 C311 1.235 . S
C313 C315 1.400 . S
C313 N316 1.351 . S
C313 C318 1.501 . S
C314 C315 1.387 . S
C314 N317 1.341 . S
C315 C313 1.400 . S
C315 C314 1.387 . S
N316 Co307 2.022 . S
N316 C313 1.351 . S
N316 N317 1.365 . S
N317 C314 1.341 . S
N317 N316 1.365 . S
N317 H337 0.862 . S
C318 C313 1.501 . S
C318 H319 0.961 . S
C318 H320 0.961 . S
C318 H321 0.960 . S
H319 C318 0.961 . S
H320 C318 0.961 . S
H321 C318 0.960 . S
C322 N323 1.342 . S
C322 C326 1.401 . S
C322 C327 1.499 . S
N323 Co306 1.989 . S
N323 C322 1.342 . S
N323 N324 1.388 . S
N324 Co307 1.993 . S
N324 N323 1.388 . S
N324 C325 1.346 . S
C325 N324 1.346 . S
C325 C326 1.396 . S
C325 C335 1.510 . S
C326 C322 1.401 . S
C326 C325 1.396 . S
C327 C322 1.499 . S
C327 H328 0.959 . S
C327 H329 0.960 . S
C327 H330 0.961 . S
H328 C327 0.959 . S
H329 C327 0.960 . S
H330 C327 0.961 . S
O331 Co306 1.967 . S
O331 C339 1.258 . S
O332 Co307 1.941 . S
O332 C339 1.266 . S
H333 C335 0.959 . S
H334 C335 0.961 . S
C335 C325 1.510 . S
C335 H333 0.959 . S
C335 H334 0.961 . S
C335 H336 0.960 . S
H336 C335 0.960 . S
H337 N317 0.862 . S
O338 Co306 1.920 . S
O338 C311 1.289 . S
C339 O331 1.258 . S
C339 O332 1.266 . S
Co340 O343 1.970 . S
Co340 N357 1.989 . S
Co340 O365 1.967 . S
Co340 O372 1.920 . S
Co341 O344 1.966 . S
Co341 N350 2.022 . S
Co341 N358 1.993 . S
Co341 O366 1.941 . S
C342 O343 1.258 . S
C342 O344 1.263 . S
O343 Co340 1.970 . S
O343 C342 1.258 . S
O344 Co341 1.966 . S
O344 C342 1.263 . S
C345 O346 1.235 . S
C345 O372 1.289 . S
O346 C345 1.235 . S
C347 C349 1.400 . S
C347 N350 1.351 . S
C347 C352 1.501 . S
C348 C349 1.387 . S
C348 N351 1.341 . S
C349 C347 1.400 . S
C349 C348 1.387 . S
N350 Co341 2.022 . S
N350 C347 1.351 . S
N350 N351 1.365 . S
N351 C348 1.341 . S
N351 N350 1.365 . S
N351 H371 0.862 . S
C352 C347 1.501 . S
C352 H353 0.961 . S
C352 H354 0.961 . S
C352 H355 0.960 . S
H353 C352 0.961 . S
H354 C352 0.961 . S
H355 C352 0.960 . S
C356 N357 1.342 . S
C356 C360 1.401 . S
C356 C361 1.499 . S
N357 Co340 1.989 . S
N357 C356 1.342 . S
N357 N358 1.388 . S
N358 Co341 1.993 . S
N358 N357 1.388 . S
N358 C359 1.346 . S
C359 N358 1.346 . S
C359 C360 1.396 . S
C359 C369 1.510 . S
C360 C356 1.401 . S
C360 C359 1.396 . S
C361 C356 1.499 . S
C361 H362 0.959 . S
C361 H363 0.960 . S
C361 H364 0.961 . S
H362 C361 0.959 . S
H363 C361 0.960 . S
H364 C361 0.961 . S
O365 Co340 1.967 . S
O365 C373 1.258 . S
O366 Co341 1.941 . S
O366 C373 1.266 . S
H367 C369 0.959 . S
H368 C369 0.961 . S
C369 C359 1.510 . S
C369 H367 0.959 . S
C369 H368 0.961 . S
C369 H370 0.960 . S
H370 C369 0.960 . S
H371 N351 0.862 . S
O372 Co340 1.920 . S
O372 C345 1.289 . S
C373 O365 1.258 . S
C373 O366 1.266 . S
Co374 O377 1.970 . S
Co374 N391 1.989 . S
Co374 O399 1.967 . S
Co374 O406 1.920 . S
Co375 O378 1.966 . S
Co375 N384 2.022 . S
Co375 N392 1.993 . S
Co375 O400 1.941 . S
C376 O377 1.258 . S
C376 O378 1.263 . S
O377 Co374 1.970 . S
O377 C376 1.258 . S
O378 Co375 1.966 . S
O378 C376 1.263 . S
C379 O380 1.235 . S
C379 O406 1.289 . S
O380 C379 1.235 . S
C381 C383 1.400 . S
C381 N384 1.351 . S
C381 C386 1.501 . S
C382 C383 1.387 . S
C382 N385 1.341 . S
C383 C381 1.400 . S
C383 C382 1.387 . S
N384 Co375 2.022 . S
N384 C381 1.351 . S
N384 N385 1.365 . S
N385 C382 1.341 . S
N385 N384 1.365 . S
N385 H405 0.862 . S
C386 C381 1.501 . S
C386 H387 0.961 . S
C386 H388 0.961 . S
C386 H389 0.960 . S
H387 C386 0.961 . S
H388 C386 0.961 . S
H389 C386 0.960 . S
C390 N391 1.342 . S
C390 C394 1.401 . S
C390 C395 1.499 . S
N391 Co374 1.989 . S
N391 C390 1.342 . S
N391 N392 1.388 . S
N392 Co375 1.993 . S
N392 N391 1.388 . S
N392 C393 1.346 . S
C393 N392 1.346 . S
C393 C394 1.396 . S
C393 C403 1.510 . S
C394 C390 1.401 . S
C394 C393 1.396 . S
C395 C390 1.499 . S
C395 H396 0.959 . S
C395 H397 0.960 . S
C395 H398 0.961 . S
H396 C395 0.959 . S
H397 C395 0.960 . S
H398 C395 0.961 . S
O399 Co374 1.967 . S
O399 C407 1.258 . S
O400 Co375 1.941 . S
O400 C407 1.266 . S
H401 C403 0.959 . S
H402 C403 0.961 . S
C403 C393 1.510 . S
C403 H401 0.959 . S
C403 H402 0.961 . S
C403 H404 0.960 . S
H404 C403 0.960 . S
H405 N385 0.862 . S
O406 Co374 1.920 . S
O406 C379 1.289 . S
C407 O399 1.258 . S
C407 O400 1.266 . S
Co408 O411 1.970 . S
Co408 N425 1.989 . S
Co408 O433 1.967 . S
Co408 O440 1.920 . S
Co409 O412 1.966 . S
Co409 N418 2.022 . S
Co409 N426 1.993 . S
Co409 O434 1.941 . S
C410 O411 1.258 . S
C410 O412 1.263 . S
O411 Co408 1.970 . S
O411 C410 1.258 . S
O412 Co409 1.966 . S
O412 C410 1.263 . S
C413 O414 1.235 . S
C413 O440 1.289 . S
O414 C413 1.235 . S
C415 C417 1.400 . S
C415 N418 1.351 . S
C415 C420 1.501 . S
C416 C417 1.387 . S
C416 N419 1.341 . S
C417 C415 1.400 . S
C417 C416 1.387 . S
N418 Co409 2.022 . S
N418 C415 1.351 . S
N418 N419 1.365 . S
N419 C416 1.341 . S
N419 N418 1.365 . S
N419 H439 0.862 . S
C420 C415 1.501 . S
C420 H421 0.961 . S
C420 H422 0.961 . S
C420 H423 0.960 . S
H421 C420 0.961 . S
H422 C420 0.961 . S
H423 C420 0.960 . S
C424 N425 1.342 . S
C424 C428 1.401 . S
C424 C429 1.499 . S
N425 Co408 1.989 . S
N425 C424 1.342 . S
N425 N426 1.388 . S
N426 Co409 1.993 . S
N426 N425 1.388 . S
N426 C427 1.346 . S
C427 N426 1.346 . S
C427 C428 1.396 . S
C427 C437 1.510 . S
C428 C424 1.401 . S
C428 C427 1.396 . S
C429 C424 1.499 . S
C429 H430 0.959 . S
C429 H431 0.960 . S
C429 H432 0.961 . S
H430 C429 0.959 . S
H431 C429 0.960 . S
H432 C429 0.961 . S
O433 Co408 1.967 . S
O433 C441 1.258 . S
O434 Co409 1.941 . S
O434 C441 1.266 . S
H435 C437 0.959 . S
H436 C437 0.961 . S
C437 C427 1.510 . S
C437 H435 0.959 . S
C437 H436 0.961 . S
C437 H438 0.960 . S
H438 C437 0.960 . S
H439 N419 0.862 . S
O440 Co408 1.920 . S
O440 C413 1.289 . S
C441 O433 1.258 . S
C441 O434 1.266 . S
Co442 O445 1.970 . S
Co442 N459 1.989 . S
Co442 O467 1.967 . S
Co442 O474 1.920 . S
Co443 O446 1.966 . S
Co443 N452 2.022 . S
Co443 N460 1.993 . S
Co443 O468 1.941 . S
C444 O445 1.258 . S
C444 O446 1.263 . S
O445 Co442 1.970 . S
O445 C444 1.258 . S
O446 Co443 1.966 . S
O446 C444 1.263 . S
C447 O448 1.235 . S
C447 O474 1.289 . S
O448 C447 1.235 . S
C449 C451 1.400 . S
C449 N452 1.351 . S
C449 C454 1.501 . S
C450 C451 1.387 . S
C450 N453 1.341 . S
C451 C449 1.400 . S
C451 C450 1.387 . S
N452 Co443 2.022 . S
N452 C449 1.351 . S
N452 N453 1.365 . S
N453 C450 1.341 . S
N453 N452 1.365 . S
N453 H473 0.862 . S
C454 C449 1.501 . S
C454 H455 0.961 . S
C454 H456 0.961 . S
C454 H457 0.960 . S
H455 C454 0.961 . S
H456 C454 0.961 . S
H457 C454 0.960 . S
C458 N459 1.342 . S
C458 C462 1.401 . S
C458 C463 1.499 . S
N459 Co442 1.989 . S
N459 C458 1.342 . S
N459 N460 1.388 . S
N460 Co443 1.993 . S
N460 N459 1.388 . S
N460 C461 1.346 . S
C461 N460 1.346 . S
C461 C462 1.396 . S
C461 C471 1.510 . S
C462 C458 1.401 . S
C462 C461 1.396 . S
C463 C458 1.499 . S
C463 H464 0.959 . S
C463 H465 0.960 . S
C463 H466 0.961 . S
H464 C463 0.959 . S
H465 C463 0.960 . S
H466 C463 0.961 . S
O467 Co442 1.967 . S
O467 C475 1.258 . S
O468 Co443 1.941 . S
O468 C475 1.266 . S
H469 C471 0.959 . S
H470 C471 0.961 . S
C471 C461 1.510 . S
C471 H469 0.959 . S
C471 H470 0.961 . S
C471 H472 0.960 . S
H472 C471 0.960 . S
H473 N453 0.862 . S
O474 Co442 1.920 . S
O474 C447 1.289 . S
C475 O467 1.258 . S
C475 O468 1.266 . S
Co476 O479 1.970 . S
Co476 N493 1.989 . S
Co476 O501 1.967 . S
Co476 O508 1.920 . S
Co477 O480 1.966 . S
Co477 N486 2.022 . S
Co477 N494 1.993 . S
Co477 O502 1.941 . S
C478 O479 1.258 . S
C478 O480 1.263 . S
O479 Co476 1.970 . S
O479 C478 1.258 . S
O480 Co477 1.966 . S
O480 C478 1.263 . S
C481 O482 1.235 . S
C481 O508 1.289 . S
O482 C481 1.235 . S
C483 C485 1.400 . S
C483 N486 1.351 . S
C483 C488 1.501 . S
C484 C485 1.387 . S
C484 N487 1.341 . S
C485 C483 1.400 . S
C485 C484 1.387 . S
N486 Co477 2.022 . S
N486 C483 1.351 . S
N486 N487 1.365 . S
N487 C484 1.341 . S
N487 N486 1.365 . S
N487 H507 0.862 . S
C488 C483 1.501 . S
C488 H489 0.961 . S
C488 H490 0.961 . S
C488 H491 0.960 . S
H489 C488 0.961 . S
H490 C488 0.961 . S
H491 C488 0.960 . S
C492 N493 1.342 . S
C492 C496 1.401 . S
C492 C497 1.499 . S
N493 Co476 1.989 . S
N493 C492 1.342 . S
N493 N494 1.388 . S
N494 Co477 1.993 . S
N494 N493 1.388 . S
N494 C495 1.346 . S
C495 N494 1.346 . S
C495 C496 1.396 . S
C495 C505 1.510 . S
C496 C492 1.401 . S
C496 C495 1.396 . S
C497 C492 1.499 . S
C497 H498 0.959 . S
C497 H499 0.960 . S
C497 H500 0.961 . S
H498 C497 0.959 . S
H499 C497 0.960 . S
H500 C497 0.961 . S
O501 Co476 1.967 . S
O501 C509 1.258 . S
O502 Co477 1.941 . S
O502 C509 1.266 . S
H503 C505 0.959 . S
H504 C505 0.961 . S
C505 C495 1.510 . S
C505 H503 0.959 . S
C505 H504 0.961 . S
C505 H506 0.960 . S
H506 C505 0.960 . S
H507 N487 0.862 . S
O508 Co476 1.920 . S
O508 C481 1.289 . S
C509 O501 1.258 . S
C509 O502 1.266 . S
Co510 O513 1.970 . S
Co510 N527 1.989 . S
Co510 O535 1.967 . S
Co510 O542 1.920 . S
Co511 O514 1.966 . S
Co511 N520 2.022 . S
Co511 N528 1.993 . S
Co511 O536 1.941 . S
C512 O513 1.258 . S
C512 O514 1.263 . S
O513 Co510 1.970 . S
O513 C512 1.258 . S
O514 Co511 1.966 . S
O514 C512 1.263 . S
C515 O516 1.235 . S
C515 O542 1.289 . S
O516 C515 1.235 . S
C517 C519 1.400 . S
C517 N520 1.351 . S
C517 C522 1.501 . S
C518 C519 1.387 . S
C518 N521 1.341 . S
C519 C517 1.400 . S
C519 C518 1.387 . S
N520 Co511 2.022 . S
N520 C517 1.351 . S
N520 N521 1.365 . S
N521 C518 1.341 . S
N521 N520 1.365 . S
N521 H541 0.862 . S
C522 C517 1.501 . S
C522 H523 0.961 . S
C522 H524 0.961 . S
C522 H525 0.960 . S
H523 C522 0.961 . S
H524 C522 0.961 . S
H525 C522 0.960 . S
C526 N527 1.342 . S
C526 C530 1.401 . S
C526 C531 1.499 . S
N527 Co510 1.989 . S
N527 C526 1.342 . S
N527 N528 1.388 . S
N528 Co511 1.993 . S
N528 N527 1.388 . S
N528 C529 1.346 . S
C529 N528 1.346 . S
C529 C530 1.396 . S
C529 C539 1.510 . S
C530 C526 1.401 . S
C530 C529 1.396 . S
C531 C526 1.499 . S
C531 H532 0.959 . S
C531 H533 0.960 . S
C531 H534 0.961 . S
H532 C531 0.959 . S
H533 C531 0.960 . S
H534 C531 0.961 . S
O535 Co510 1.967 . S
O535 C543 1.258 . S
O536 Co511 1.941 . S
O536 C543 1.266 . S
H537 C539 0.959 . S
H538 C539 0.961 . S
C539 C529 1.510 . S
C539 H537 0.959 . S
C539 H538 0.961 . S
C539 H540 0.960 . S
H540 C539 0.960 . S
H541 N521 0.862 . S
O542 Co510 1.920 . S
O542 C515 1.289 . S
C543 O535 1.258 . S
C543 O536 1.266 . S
H544 C550 0.930 . S
H545 C553 0.930 . S
H546 C554 0.930 . S
H547 C555 0.930 . S
H548 C558 0.930 . S
H549 C559 0.930 . S
C550 H544 0.930 . S
C550 C551 1.355 . S
C550 C552 1.415 . S
C551 C550 1.355 . S
C551 C553 1.419 . S
C552 C550 1.415 . S
C552 C557 1.425 . S
C552 C559 1.409 . S
C553 H545 0.930 . S
C553 C551 1.419 . S
C553 C554 1.362 . S
C554 H546 0.930 . S
C554 C553 1.362 . S
C554 C557 1.409 . S
C555 H547 0.930 . S
C555 C556 1.355 . S
C555 C557 1.415 . S
C556 C555 1.355 . S
C556 C558 1.419 . S
C557 C552 1.425 . S
C557 C554 1.409 . S
C557 C555 1.415 . S
C558 H548 0.930 . S
C558 C556 1.419 . S
C558 C559 1.362 . S
C559 H549 0.930 . S
C559 C552 1.409 . S
C559 C558 1.362 . S
H560 C566 0.930 . S
H561 C569 0.930 . S
H562 C570 0.930 . S
H563 C571 0.930 . S
H564 C574 0.930 . S
H565 C575 0.930 . S
C566 H560 0.930 . S
C566 C567 1.355 . S
C566 C568 1.415 . S
C567 C566 1.355 . S
C567 C569 1.419 . S
C568 C566 1.415 . S
C568 C573 1.425 . S
C568 C575 1.409 . S
C569 H561 0.930 . S
C569 C567 1.419 . S
C569 C570 1.362 . S
C570 H562 0.930 . S
C570 C569 1.362 . S
C570 C573 1.409 . S
C571 H563 0.930 . S
C571 C572 1.355 . S
C571 C573 1.415 . S
C572 C571 1.355 . S
C572 C574 1.419 . S
C573 C568 1.425 . S
C573 C570 1.409 . S
C573 C571 1.415 . S
C574 H564 0.930 . S
C574 C572 1.419 . S
C574 C575 1.362 . S
C575 H565 0.930 . S
C575 C568 1.409 . S
C575 C574 1.362 . S
H576 C582 0.930 . S
H577 C585 0.930 . S
H578 C586 0.930 . S
H579 C587 0.930 . S
H580 C590 0.930 . S
H581 C591 0.930 . S
C582 H576 0.930 . S
C582 C583 1.355 . S
C582 C584 1.415 . S
C583 C582 1.355 . S
C583 C585 1.419 . S
C584 C582 1.415 . S
C584 C589 1.425 . S
C584 C591 1.409 . S
C585 H577 0.930 . S
C585 C583 1.419 . S
C585 C586 1.362 . S
C586 H578 0.930 . S
C586 C585 1.362 . S
C586 C589 1.409 . S
C587 H579 0.930 . S
C587 C588 1.355 . S
C587 C589 1.415 . S
C588 C587 1.355 . S
C588 C590 1.419 . S
C589 C584 1.425 . S
C589 C586 1.409 . S
C589 C587 1.415 . S
C590 H580 0.930 . S
C590 C588 1.419 . S
C590 C591 1.362 . S
C591 H581 0.930 . S
C591 C584 1.409 . S
C591 C590 1.362 . S
H592 C598 0.930 . S
H593 C601 0.930 . S
H594 C602 0.930 . S
H595 C603 0.930 . S
H596 C606 0.930 . S
H597 C607 0.930 . S
C598 H592 0.930 . S
C598 C599 1.355 . S
C598 C600 1.415 . S
C599 C598 1.355 . S
C599 C601 1.419 . S
C600 C598 1.415 . S
C600 C605 1.425 . S
C600 C607 1.409 . S
C601 H593 0.930 . S
C601 C599 1.419 . S
C601 C602 1.362 . S
C602 H594 0.930 . S
C602 C601 1.362 . S
C602 C605 1.409 . S
C603 H595 0.930 . S
C603 C604 1.355 . S
C603 C605 1.415 . S
C604 C603 1.355 . S
C604 C606 1.419 . S
C605 C600 1.425 . S
C605 C602 1.409 . S
C605 C603 1.415 . S
C606 H596 0.930 . S
C606 C604 1.419 . S
C606 C607 1.362 . S
C607 H597 0.930 . S
C607 C600 1.409 . S
C607 C606 1.362 . S
H608 C614 0.930 . S
H609 C617 0.930 . S
H610 C618 0.930 . S
H611 C619 0.930 . S
H612 C622 0.930 . S
H613 C623 0.930 . S
C614 H608 0.930 . S
C614 C615 1.355 . S
C614 C616 1.415 . S
C615 C614 1.355 . S
C615 C617 1.419 . S
C616 C614 1.415 . S
C616 C621 1.425 . S
C616 C623 1.409 . S
C617 H609 0.930 . S
C617 C615 1.419 . S
C617 C618 1.362 . S
C618 H610 0.930 . S
C618 C617 1.362 . S
C618 C621 1.409 . S
C619 H611 0.930 . S
C619 C620 1.355 . S
C619 C621 1.415 . S
C620 C619 1.355 . S
C620 C622 1.419 . S
C621 C616 1.425 . S
C621 C618 1.409 . S
C621 C619 1.415 . S
C622 H612 0.930 . S
C622 C620 1.419 . S
C622 C623 1.362 . S
C623 H613 0.930 . S
C623 C616 1.409 . S
C623 C622 1.362 . S
H624 C630 0.930 . S
H625 C633 0.930 . S
H626 C634 0.930 . S
H627 C635 0.930 . S
H628 C638 0.930 . S
H629 C639 0.930 . S
C630 H624 0.930 . S
C630 C631 1.355 . S
C630 C632 1.415 . S
C631 C630 1.355 . S
C631 C633 1.419 . S
C632 C630 1.415 . S
C632 C637 1.425 . S
C632 C639 1.409 . S
C633 H625 0.930 . S
C633 C631 1.419 . S
C633 C634 1.362 . S
C634 H626 0.930 . S
C634 C633 1.362 . S
C634 C637 1.409 . S
C635 H627 0.930 . S
C635 C636 1.355 . S
C635 C637 1.415 . S
C636 C635 1.355 . S
C636 C638 1.419 . S
C637 C632 1.425 . S
C637 C634 1.409 . S
C637 C635 1.415 . S
C638 H628 0.930 . S
C638 C636 1.419 . S
C638 C639 1.362 . S
C639 H629 0.930 . S
C639 C632 1.409 . S
C639 C638 1.362 . S
H640 C646 0.930 . S
H641 C649 0.930 . S
H642 C650 0.930 . S
H643 C651 0.930 . S
H644 C654 0.930 . S
H645 C655 0.930 . S
C646 H640 0.930 . S
C646 C647 1.355 . S
C646 C648 1.415 . S
C647 C646 1.355 . S
C647 C649 1.419 . S
C648 C646 1.415 . S
C648 C653 1.425 . S
C648 C655 1.409 . S
C649 H641 0.930 . S
C649 C647 1.419 . S
C649 C650 1.362 . S
C650 H642 0.930 . S
C650 C649 1.362 . S
C650 C653 1.409 . S
C651 H643 0.930 . S
C651 C652 1.355 . S
C651 C653 1.415 . S
C652 C651 1.355 . S
C652 C654 1.419 . S
C653 C648 1.425 . S
C653 C650 1.409 . S
C653 C651 1.415 . S
C654 H644 0.930 . S
C654 C652 1.419 . S
C654 C655 1.362 . S
C655 H645 0.930 . S
C655 C648 1.409 . S
C655 C654 1.362 . S
H656 C662 0.930 . S
H657 C665 0.930 . S
H658 C666 0.930 . S
H659 C667 0.930 . S
H660 C670 0.930 . S
H661 C671 0.930 . S
C662 H656 0.930 . S
C662 C663 1.355 . S
C662 C664 1.415 . S
C663 C662 1.355 . S
C663 C665 1.419 . S
C664 C662 1.415 . S
C664 C669 1.425 . S
C664 C671 1.409 . S
C665 H657 0.930 . S
C665 C663 1.419 . S
C665 C666 1.362 . S
C666 H658 0.930 . S
C666 C665 1.362 . S
C666 C669 1.409 . S
C667 H659 0.930 . S
C667 C668 1.355 . S
C667 C669 1.415 . S
C668 C667 1.355 . S
C668 C670 1.419 . S
C669 C664 1.425 . S
C669 C666 1.409 . S
C669 C667 1.415 . S
C670 H660 0.930 . S
C670 C668 1.419 . S
C670 C671 1.362 . S
C671 H661 0.930 . S
C671 C664 1.409 . S
C671 C670 1.362 . S
H672 C678 0.930 . S
H673 C681 0.930 . S
H674 C682 0.930 . S
H675 C683 0.930 . S
H676 C686 0.930 . S
H677 C687 0.930 . S
C678 H672 0.930 . S
C678 C679 1.355 . S
C678 C680 1.415 . S
C679 C678 1.355 . S
C679 C681 1.419 . S
C680 C678 1.415 . S
C680 C685 1.425 . S
C680 C687 1.409 . S
C681 H673 0.930 . S
C681 C679 1.419 . S
C681 C682 1.362 . S
C682 H674 0.930 . S
C682 C681 1.362 . S
C682 C685 1.409 . S
C683 H675 0.930 . S
C683 C684 1.355 . S
C683 C685 1.415 . S
C684 C683 1.355 . S
C684 C686 1.419 . S
C685 C680 1.425 . S
C685 C682 1.409 . S
C685 C683 1.415 . S
C686 H676 0.930 . S
C686 C684 1.419 . S
C686 C687 1.362 . S
C687 H677 0.930 . S
C687 C680 1.409 . S
C687 C686 1.362 . S
H688 C694 0.930 . S
H689 C697 0.930 . S
H690 C698 0.930 . S
H691 C699 0.930 . S
H692 C702 0.930 . S
H693 C703 0.930 . S
C694 H688 0.930 . S
C694 C695 1.355 . S
C694 C696 1.415 . S
C695 C694 1.355 . S
C695 C697 1.419 . S
C696 C694 1.415 . S
C696 C701 1.425 . S
C696 C703 1.409 . S
C697 H689 0.930 . S
C697 C695 1.419 . S
C697 C698 1.362 . S
C698 H690 0.930 . S
C698 C697 1.362 . S
C698 C701 1.409 . S
C699 H691 0.930 . S
C699 C700 1.355 . S
C699 C701 1.415 . S
C700 C699 1.355 . S
C700 C702 1.419 . S
C701 C696 1.425 . S
C701 C698 1.409 . S
C701 C699 1.415 . S
C702 H692 0.930 . S
C702 C700 1.419 . S
C702 C703 1.362 . S
C703 H693 0.930 . S
C703 C696 1.409 . S
C703 C702 1.362 . S
H704 C710 0.930 . S
H705 C713 0.930 . S
H706 C714 0.930 . S
H707 C715 0.930 . S
H708 C718 0.930 . S
H709 C719 0.930 . S
C710 H704 0.930 . S
C710 C711 1.355 . S
C710 C712 1.415 . S
C711 C710 1.355 . S
C711 C713 1.419 . S
C712 C710 1.415 . S
C712 C717 1.425 . S
C712 C719 1.409 . S
C713 H705 0.930 . S
C713 C711 1.419 . S
C713 C714 1.362 . S
C714 H706 0.930 . S
C714 C713 1.362 . S
C714 C717 1.409 . S
C715 H707 0.930 . S
C715 C716 1.355 . S
C715 C717 1.415 . S
C716 C715 1.355 . S
C716 C718 1.419 . S
C717 C712 1.425 . S
C717 C714 1.409 . S
C717 C715 1.415 . S
C718 H708 0.930 . S
C718 C716 1.419 . S
C718 C719 1.362 . S
C719 H709 0.930 . S
C719 C712 1.409 . S
C719 C718 1.362 . S
H720 C726 0.930 . S
H721 C729 0.930 . S
H722 C730 0.930 . S
H723 C731 0.930 . S
H724 C734 0.930 . S
H725 C735 0.930 . S
C726 H720 0.930 . S
C726 C727 1.355 . S
C726 C728 1.415 . S
C727 C726 1.355 . S
C727 C729 1.419 . S
C728 C726 1.415 . S
C728 C733 1.425 . S
C728 C735 1.409 . S
C729 H721 0.930 . S
C729 C727 1.419 . S
C729 C730 1.362 . S
C730 H722 0.930 . S
C730 C729 1.362 . S
C730 C733 1.409 . S
C731 H723 0.930 . S
C731 C732 1.355 . S
C731 C733 1.415 . S
C732 C731 1.355 . S
C732 C734 1.419 . S
C733 C728 1.425 . S
C733 C730 1.409 . S
C733 C731 1.415 . S
C734 H724 0.930 . S
C734 C732 1.419 . S
C734 C735 1.362 . S
C735 H725 0.930 . S
C735 C728 1.409 . S
C735 C734 1.362 . S
H736 C742 0.930 . S
H737 C745 0.930 . S
H738 C746 0.930 . S
H739 C747 0.930 . S
H740 C750 0.930 . S
H741 C751 0.930 . S
C742 H736 0.930 . S
C742 C743 1.355 . S
C742 C744 1.415 . S
C743 C742 1.355 . S
C743 C745 1.419 . S
C744 C742 1.415 . S
C744 C749 1.425 . S
C744 C751 1.409 . S
C745 H737 0.930 . S
C745 C743 1.419 . S
C745 C746 1.362 . S
C746 H738 0.930 . S
C746 C745 1.362 . S
C746 C749 1.409 . S
C747 H739 0.930 . S
C747 C748 1.355 . S
C747 C749 1.415 . S
C748 C747 1.355 . S
C748 C750 1.419 . S
C749 C744 1.425 . S
C749 C746 1.409 . S
C749 C747 1.415 . S
C750 H740 0.930 . S
C750 C748 1.419 . S
C750 C751 1.362 . S
C751 H741 0.930 . S
C751 C744 1.409 . S
C751 C750 1.362 . S
H752 C758 0.930 . S
H753 C761 0.930 . S
H754 C762 0.930 . S
H755 C763 0.930 . S
H756 C766 0.930 . S
H757 C767 0.930 . S
C758 H752 0.930 . S
C758 C759 1.355 . S
C758 C760 1.415 . S
C759 C758 1.355 . S
C759 C761 1.419 . S
C760 C758 1.415 . S
C760 C765 1.425 . S
C760 C767 1.409 . S
C761 H753 0.930 . S
C761 C759 1.419 . S
C761 C762 1.362 . S
C762 H754 0.930 . S
C762 C761 1.362 . S
C762 C765 1.409 . S
C763 H755 0.930 . S
C763 C764 1.355 . S
C763 C765 1.415 . S
C764 C763 1.355 . S
C764 C766 1.419 . S
C765 C760 1.425 . S
C765 C762 1.409 . S
C765 C763 1.415 . S
C766 H756 0.930 . S
C766 C764 1.419 . S
C766 C767 1.362 . S
C767 H757 0.930 . S
C767 C760 1.409 . S
C767 C766 1.362 . S
H768 C774 0.930 . S
H769 C777 0.930 . S
H770 C778 0.930 . S
H771 C779 0.930 . S
H772 C782 0.930 . S
H773 C783 0.930 . S
C774 H768 0.930 . S
C774 C775 1.355 . S
C774 C776 1.415 . S
C775 C774 1.355 . S
C775 C777 1.419 . S
C776 C774 1.415 . S
C776 C781 1.425 . S
C776 C783 1.409 . S
C777 H769 0.930 . S
C777 C775 1.419 . S
C777 C778 1.362 . S
C778 H770 0.930 . S
C778 C777 1.362 . S
C778 C781 1.409 . S
C779 H771 0.930 . S
C779 C780 1.355 . S
C779 C781 1.415 . S
C780 C779 1.355 . S
C780 C782 1.419 . S
C781 C776 1.425 . S
C781 C778 1.409 . S
C781 C779 1.415 . S
C782 H772 0.930 . S
C782 C780 1.419 . S
C782 C783 1.362 . S
C783 H773 0.930 . S
C783 C776 1.409 . S
C783 C782 1.362 . S
H784 C790 0.930 . S
H785 C793 0.930 . S
H786 C794 0.930 . S
H787 C795 0.930 . S
H788 C798 0.930 . S
H789 C799 0.930 . S
C790 H784 0.930 . S
C790 C791 1.355 . S
C790 C792 1.415 . S
C791 C790 1.355 . S
C791 C793 1.419 . S
C792 C790 1.415 . S
C792 C797 1.425 . S
C792 C799 1.409 . S
C793 H785 0.930 . S
C793 C791 1.419 . S
C793 C794 1.362 . S
C794 H786 0.930 . S
C794 C793 1.362 . S
C794 C797 1.409 . S
C795 H787 0.930 . S
C795 C796 1.355 . S
C795 C797 1.415 . S
C796 C795 1.355 . S
C796 C798 1.419 . S
C797 C792 1.425 . S
C797 C794 1.409 . S
C797 C795 1.415 . S
C798 H788 0.930 . S
C798 C796 1.419 . S
C798 C799 1.362 . S
C799 H789 0.930 . S
C799 C792 1.409 . S
C799 C798 1.362 . S
H800 C806 0.930 . S
H801 C809 0.930 . S
H802 C810 0.930 . S
H803 C811 0.930 . S
H804 C814 0.930 . S
H805 C815 0.930 . S
C806 H800 0.930 . S
C806 C807 1.355 . S
C806 C808 1.415 . S
C807 C806 1.355 . S
C807 C809 1.419 . S
C808 C806 1.415 . S
C808 C813 1.425 . S
C808 C815 1.409 . S
C809 H801 0.930 . S
C809 C807 1.419 . S
C809 C810 1.362 . S
C810 H802 0.930 . S
C810 C809 1.362 . S
C810 C813 1.409 . S
C811 H803 0.930 . S
C811 C812 1.355 . S
C811 C813 1.415 . S
C812 C811 1.355 . S
C812 C814 1.419 . S
C813 C808 1.425 . S
C813 C810 1.409 . S
C813 C811 1.415 . S
C814 H804 0.930 . S
C814 C812 1.419 . S
C814 C815 1.362 . S
C815 H805 0.930 . S
C815 C808 1.409 . S
C815 C814 1.362 . S
H816 C822 0.930 . S
H817 C825 0.930 . S
H818 C826 0.930 . S
H819 C827 0.930 . S
H820 C830 0.930 . S
H821 C831 0.930 . S
C822 H816 0.930 . S
C822 C823 1.355 . S
C822 C824 1.415 . S
C823 C822 1.355 . S
C823 C825 1.419 . S
C824 C822 1.415 . S
C824 C829 1.425 . S
C824 C831 1.409 . S
C825 H817 0.930 . S
C825 C823 1.419 . S
C825 C826 1.362 . S
C826 H818 0.930 . S
C826 C825 1.362 . S
C826 C829 1.409 . S
C827 H819 0.930 . S
C827 C828 1.355 . S
C827 C829 1.415 . S
C828 C827 1.355 . S
C828 C830 1.419 . S
C829 C824 1.425 . S
C829 C826 1.409 . S
C829 C827 1.415 . S
C830 H820 0.930 . S
C830 C828 1.419 . S
C830 C831 1.362 . S
C831 H821 0.930 . S
C831 C824 1.409 . S
C831 C830 1.362 . S
H832 C838 0.930 . S
H833 C841 0.930 . S
H834 C842 0.930 . S
H835 C843 0.930 . S
H836 C846 0.930 . S
H837 C847 0.930 . S
C838 H832 0.930 . S
C838 C839 1.355 . S
C838 C840 1.415 . S
C839 C838 1.355 . S
C839 C841 1.419 . S
C840 C838 1.415 . S
C840 C845 1.425 . S
C840 C847 1.409 . S
C841 H833 0.930 . S
C841 C839 1.419 . S
C841 C842 1.362 . S
C842 H834 0.930 . S
C842 C841 1.362 . S
C842 C845 1.409 . S
C843 H835 0.930 . S
C843 C844 1.355 . S
C843 C845 1.415 . S
C844 C843 1.355 . S
C844 C846 1.419 . S
C845 C840 1.425 . S
C845 C842 1.409 . S
C845 C843 1.415 . S
C846 H836 0.930 . S
C846 C844 1.419 . S
C846 C847 1.362 . S
C847 H837 0.930 . S
C847 C840 1.409 . S
C847 C846 1.362 . S
H848 C854 0.930 . S
H849 C857 0.930 . S
H850 C858 0.930 . S
H851 C859 0.930 . S
H852 C862 0.930 . S
H853 C863 0.930 . S
C854 H848 0.930 . S
C854 C855 1.355 . S
C854 C856 1.415 . S
C855 C854 1.355 . S
C855 C857 1.419 . S
C856 C854 1.415 . S
C856 C861 1.425 . S
C856 C863 1.409 . S
C857 H849 0.930 . S
C857 C855 1.419 . S
C857 C858 1.362 . S
C858 H850 0.930 . S
C858 C857 1.362 . S
C858 C861 1.409 . S
C859 H851 0.930 . S
C859 C860 1.355 . S
C859 C861 1.415 . S
C860 C859 1.355 . S
C860 C862 1.419 . S
C861 C856 1.425 . S
C861 C858 1.409 . S
C861 C859 1.415 . S
C862 H852 0.930 . S
C862 C860 1.419 . S
C862 C863 1.362 . S
C863 H853 0.930 . S
C863 C856 1.409 . S
C863 C862 1.362 . S
H864 C870 0.930 . S
H865 C873 0.930 . S
H866 C874 0.930 . S
H867 C875 0.930 . S
H868 C878 0.930 . S
H869 C879 0.930 . S
C870 H864 0.930 . S
C870 C871 1.355 . S
C870 C872 1.412 1_556 S
C871 C870 1.355 . S
C871 C873 1.419 . S
C872 C870 1.412 1_554 S
C872 C877 1.425 1_554 S
C872 C879 1.412 . S
C873 H865 0.930 . S
C873 C871 1.419 . S
C873 C874 1.362 . S
C874 H866 0.930 . S
C874 C873 1.362 . S
C874 C877 1.412 . S
C875 H867 0.930 . S
C875 C876 1.355 . S
C875 C877 1.412 1_554 S
C876 C875 1.355 . S
C876 C878 1.419 . S
C877 C872 1.425 1_556 S
C877 C874 1.412 . S
C877 C875 1.412 1_556 S
C878 H868 0.930 . S
C878 C876 1.419 . S
C878 C879 1.362 . S
C879 H869 0.930 . S
C879 C872 1.412 . S
C879 C878 1.362 . S
H880 C886 0.930 . S
H881 C889 0.930 . S
H882 C890 0.930 1_554 S
H883 C891 0.930 . S
H884 C894 0.930 . S
H885 C895 0.930 1_556 S
C886 H880 0.930 . S
C886 C887 1.355 . S
C886 C888 1.415 . S
C887 C886 1.355 . S
C887 C889 1.419 . S
C888 C886 1.415 . S
C888 C893 1.425 1_556 S
C888 C895 1.409 1_556 S
C889 H881 0.930 . S
C889 C887 1.419 . S
C889 C890 1.362 . S
C890 H882 0.930 1_556 S
C890 C889 1.362 . S
C890 C893 1.409 1_556 S
C891 H883 0.930 . S
C891 C892 1.355 . S
C891 C893 1.415 . S
C892 C891 1.355 . S
C892 C894 1.419 . S
C893 C888 1.425 1_554 S
C893 C890 1.409 1_554 S
C893 C891 1.415 . S
C894 H884 0.930 . S
C894 C892 1.419 . S
C894 C895 1.362 . S
C895 H885 0.930 1_554 S
C895 C888 1.409 1_554 S
C895 C894 1.362 . S
H896 C902 0.930 . S
H897 C905 0.930 . S
H898 C906 0.930 . S
H899 C907 0.930 . S
H900 C910 0.930 . S
H901 C911 0.930 . S
C902 H896 0.930 . S
C902 C903 1.355 . S
C902 C904 1.415 1_556 S
C903 C902 1.355 . S
C903 C905 1.419 . S
C904 C902 1.415 1_554 S
C904 C909 1.425 1_554 S
C904 C911 1.409 . S
C905 H897 0.930 . S
C905 C903 1.419 . S
C905 C906 1.362 . S
C906 H898 0.930 . S
C906 C905 1.362 . S
C906 C909 1.409 . S
C907 H899 0.930 . S
C907 C908 1.355 . S
C907 C909 1.415 1_554 S
C908 C907 1.355 . S
C908 C910 1.419 . S
C909 C904 1.425 1_556 S
C909 C906 1.409 . S
C909 C907 1.415 1_556 S
C910 H900 0.930 . S
C910 C908 1.419 . S
C910 C911 1.362 . S
C911 H901 0.930 . S
C911 C904 1.409 . S
C911 C910 1.362 . S
H912 C918 0.930 . S
H913 C921 0.930 . S
H914 C922 0.930 . S
H915 C923 0.930 . S
H916 C926 0.930 . S
H917 C927 0.930 . S
C918 H912 0.930 . S
C918 C919 1.355 . S
C918 C920 1.415 . S
C919 C918 1.355 . S
C919 C921 1.419 . S
C920 C918 1.415 . S
C920 C925 1.425 1_556 S
C920 C927 1.409 . S
C921 H913 0.930 . S
C921 C919 1.419 . S
C921 C922 1.362 1_556 S
C922 H914 0.930 . S
C922 C921 1.362 1_554 S
C922 C925 1.409 . S
C923 H915 0.930 . S
C923 C924 1.355 . S
C923 C925 1.415 . S
C924 C923 1.355 . S
C924 C926 1.419 . S
C925 C920 1.425 1_554 S
C925 C922 1.409 . S
C925 C923 1.415 . S
C926 H916 0.930 . S
C926 C924 1.419 . S
C926 C927 1.362 1_554 S
C927 H917 0.930 . S
C927 C920 1.409 . S
C927 C926 1.362 1_556 S
H928 C934 0.930 . S
H929 C937 0.930 . S
H930 C938 0.930 . S
H931 C939 0.930 . S
H932 C942 0.930 . S
H933 C943 0.930 . S
C934 H928 0.930 . S
C934 C935 1.355 . S
C934 C936 1.415 . S
C935 C934 1.355 . S
C935 C937 1.419 . S
C936 C934 1.415 . S
C936 C941 1.425 . S
C936 C943 1.409 . S
C937 H929 0.930 . S
C937 C935 1.419 . S
C937 C938 1.362 . S
C938 H930 0.930 . S
C938 C937 1.362 . S
C938 C941 1.409 . S
C939 H931 0.930 . S
C939 C940 1.355 . S
C939 C941 1.415 . S
C940 C939 1.355 . S
C940 C942 1.419 . S
C941 C936 1.425 . S
C941 C938 1.409 . S
C941 C939 1.415 . S
C942 H932 0.930 . S
C942 C940 1.419 . S
C942 C943 1.362 . S
C943 H933 0.930 . S
C943 C936 1.409 . S
C943 C942 1.362 . S
H944 C950 0.930 . S
H945 C953 0.930 . S
H946 C954 0.930 . S
H947 C955 0.930 . S
H948 C958 0.930 . S
H949 C959 0.930 . S
C950 H944 0.930 . S
C950 C951 1.355 . S
C950 C952 1.415 . S
C951 C950 1.355 . S
C951 C953 1.419 . S
C952 C950 1.415 . S
C952 C957 1.425 . S
C952 C959 1.409 . S
C953 H945 0.930 . S
C953 C951 1.419 . S
C953 C954 1.362 . S
C954 H946 0.930 . S
C954 C953 1.362 . S
C954 C957 1.409 . S
C955 H947 0.930 . S
C955 C956 1.355 . S
C955 C957 1.415 . S
C956 C955 1.355 . S
C956 C958 1.419 . S
C957 C952 1.425 . S
C957 C954 1.409 . S
C957 C955 1.415 . S
C958 H948 0.930 . S
C958 C956 1.419 . S
C958 C959 1.362 . S
C959 H949 0.930 . S
C959 C952 1.409 . S
C959 C958 1.362 . S
H960 C966 0.930 . S
H961 C969 0.930 . S
H962 C970 0.930 . S
H963 C971 0.930 . S
H964 C974 0.930 . S
H965 C975 0.930 . S
C966 H960 0.930 . S
C966 C967 1.355 . S
C966 C968 1.415 . S
C967 C966 1.355 . S
C967 C969 1.419 . S
C968 C966 1.415 . S
C968 C973 1.425 . S
C968 C975 1.409 . S
C969 H961 0.930 . S
C969 C967 1.419 . S
C969 C970 1.362 . S
C970 H962 0.930 . S
C970 C969 1.362 . S
C970 C973 1.409 . S
C971 H963 0.930 . S
C971 C972 1.355 . S
C971 C973 1.415 . S
C972 C971 1.355 . S
C972 C974 1.419 . S
C973 C968 1.425 . S
C973 C970 1.409 . S
C973 C971 1.415 . S
C974 H964 0.930 . S
C974 C972 1.419 . S
C974 C975 1.362 . S
C975 H965 0.930 . S
C975 C968 1.409 . S
C975 C974 1.362 . S
H976 C982 0.930 . S
H977 C985 0.930 . S
H978 C986 0.930 . S
H979 C987 0.930 . S
H980 C990 0.930 . S
H981 C991 0.930 . S
C982 H976 0.930 . S
C982 C983 1.355 . S
C982 C984 1.415 . S
C983 C982 1.355 . S
C983 C985 1.419 . S
C984 C982 1.415 . S
C984 C989 1.425 . S
C984 C991 1.409 . S
C985 H977 0.930 . S
C985 C983 1.419 . S
C985 C986 1.362 . S
C986 H978 0.930 . S
C986 C985 1.362 . S
C986 C989 1.409 . S
C987 H979 0.930 . S
C987 C988 1.355 . S
C987 C989 1.415 . S
C988 C987 1.355 . S
C988 C990 1.419 . S
C989 C984 1.425 . S
C989 C986 1.409 . S
C989 C987 1.415 . S
C990 H980 0.930 . S
C990 C988 1.419 . S
C990 C991 1.362 . S
C991 H981 0.930 . S
C991 C984 1.409 . S
C991 C990 1.362 . S
H992 C998 0.930 . S
H993 C1001 0.930 . S
H994 C1002 0.930 . S
H995 C1003 0.930 . S
H996 C1006 0.930 . S
H997 C1007 0.930 . S
C998 H992 0.930 . S
C998 C999 1.355 . S
C998 C1000 1.415 . S
C999 C998 1.355 . S
C999 C1001 1.419 . S
C1000 C998 1.415 . S
C1000 C1005 1.425 . S
C1000 C1007 1.409 . S
C1001 H993 0.930 . S
C1001 C999 1.419 . S
C1001 C1002 1.362 . S
C1002 H994 0.930 . S
C1002 C1001 1.362 . S
C1002 C1005 1.409 . S
C1003 H995 0.930 . S
C1003 C1004 1.355 . S
C1003 C1005 1.415 . S
C1004 C1003 1.355 . S
C1004 C1006 1.419 . S
C1005 C1000 1.425 . S
C1005 C1002 1.409 . S
C1005 C1003 1.415 . S
C1006 H996 0.930 . S
C1006 C1004 1.419 . S
C1006 C1007 1.362 . S
C1007 H997 0.930 . S
C1007 C1000 1.409 . S
C1007 C1006 1.362 . S
H1008 C1014 0.930 . S
H1009 C1017 0.930 . S
H1010 C1018 0.930 . S
H1011 C1019 0.930 . S
H1012 C1022 0.930 . S
H1013 C1023 0.930 . S
C1014 H1008 0.930 . S
C1014 C1015 1.355 . S
C1014 C1016 1.415 . S
C1015 C1014 1.355 . S
C1015 C1017 1.419 . S
C1016 C1014 1.415 . S
C1016 C1021 1.425 . S
C1016 C1023 1.409 . S
C1017 H1009 0.930 . S
C1017 C1015 1.419 . S
C1017 C1018 1.362 . S
C1018 H1010 0.930 . S
C1018 C1017 1.362 . S
C1018 C1021 1.409 . S
C1019 H1011 0.930 . S
C1019 C1020 1.355 . S
C1019 C1021 1.415 . S
C1020 C1019 1.355 . S
C1020 C1022 1.419 . S
C1021 C1016 1.425 . S
C1021 C1018 1.409 . S
C1021 C1019 1.415 . S
C1022 H1012 0.930 . S
C1022 C1020 1.419 . S
C1022 C1023 1.362 . S
C1023 H1013 0.930 . S
C1023 C1016 1.409 . S
C1023 C1022 1.362 . S
H1024 C1030 0.930 . S
H1025 C1033 0.930 . S
H1026 C1034 0.930 . S
H1027 C1035 0.930 . S
H1028 C1038 0.930 . S
H1029 C1039 0.930 . S
C1030 H1024 0.930 . S
C1030 C1031 1.355 . S
C1030 C1032 1.415 . S
C1031 C1030 1.355 . S
C1031 C1033 1.419 . S
C1032 C1030 1.415 . S
C1032 C1037 1.425 . S
C1032 C1039 1.409 . S
C1033 H1025 0.930 . S
C1033 C1031 1.419 . S
C1033 C1034 1.362 . S
C1034 H1026 0.930 . S
C1034 C1033 1.362 . S
C1034 C1037 1.409 . S
C1035 H1027 0.930 . S
C1035 C1036 1.355 . S
C1035 C1037 1.415 . S
C1036 C1035 1.355 . S
C1036 C1038 1.419 . S
C1037 C1032 1.425 . S
C1037 C1034 1.409 . S
C1037 C1035 1.415 . S
C1038 H1028 0.930 . S
C1038 C1036 1.419 . S
C1038 C1039 1.362 . S
C1039 H1029 0.930 . S
C1039 C1032 1.409 . S
C1039 C1038 1.362 . S
H1040 C1046 0.930 . S
H1041 C1049 0.930 . S
H1042 C1050 0.930 . S
H1043 C1051 0.930 . S
H1044 C1054 0.930 . S
H1045 C1055 0.930 . S
C1046 H1040 0.930 . S
C1046 C1047 1.355 . S
C1046 C1048 1.415 . S
C1047 C1046 1.355 . S
C1047 C1049 1.419 . S
C1048 C1046 1.415 . S
C1048 C1053 1.425 . S
C1048 C1055 1.409 . S
C1049 H1041 0.930 . S
C1049 C1047 1.419 . S
C1049 C1050 1.362 . S
C1050 H1042 0.930 . S
C1050 C1049 1.362 . S
C1050 C1053 1.409 . S
C1051 H1043 0.930 . S
C1051 C1052 1.355 . S
C1051 C1053 1.415 . S
C1052 C1051 1.355 . S
C1052 C1054 1.419 . S
C1053 C1048 1.425 . S
C1053 C1050 1.409 . S
C1053 C1051 1.415 . S
C1054 H1044 0.930 . S
C1054 C1052 1.419 . S
C1054 C1055 1.362 . S
C1055 H1045 0.930 . S
C1055 C1048 1.409 . S
C1055 C1054 1.362 . S
H1056 C1062 0.930 . S
H1057 C1065 0.930 . S
H1058 C1066 0.930 . S
H1059 C1067 0.930 . S
H1060 C1070 0.930 . S
H1061 C1071 0.930 . S
C1062 H1056 0.930 . S
C1062 C1063 1.355 1_565 S
C1062 C1064 1.415 . S
C1063 C1062 1.355 1_545 S
C1063 C1065 1.419 . S
C1064 C1062 1.415 . S
C1064 C1069 1.425 1_565 S
C1064 C1071 1.409 . S
C1065 H1057 0.930 . S
C1065 C1063 1.419 . S
C1065 C1066 1.362 . S
C1066 H1058 0.930 . S
C1066 C1065 1.362 . S
C1066 C1069 1.409 . S
C1067 H1059 0.930 . S
C1067 C1068 1.355 1_545 S
C1067 C1069 1.415 . S
C1068 C1067 1.355 1_565 S
C1068 C1070 1.419 . S
C1069 C1064 1.425 1_545 S
C1069 C1066 1.409 . S
C1069 C1067 1.415 . S
C1070 H1060 0.930 . S
C1070 C1068 1.419 . S
C1070 C1071 1.362 . S
C1071 H1061 0.930 . S
C1071 C1064 1.409 . S
C1071 C1070 1.362 . S
H1072 C1078 0.930 1_455 S
H1073 C1081 0.930 . S
H1074 C1082 0.930 . S
H1075 C1083 0.930 1_655 S
H1076 C1086 0.930 . S
H1077 C1087 0.930 . S
C1078 H1072 0.930 1_655 S
C1078 C1079 1.355 . S
C1078 C1080 1.415 1_655 S
C1079 C1078 1.355 . S
C1079 C1081 1.419 . S
C1080 C1078 1.415 1_455 S
C1080 C1085 1.425 1_455 S
C1080 C1087 1.409 . S
C1081 H1073 0.930 . S
C1081 C1079 1.419 . S
C1081 C1082 1.362 . S
C1082 H1074 0.930 . S
C1082 C1081 1.362 . S
C1082 C1085 1.409 . S
C1083 H1075 0.930 1_455 S
C1083 C1084 1.355 . S
C1083 C1085 1.415 1_455 S
C1084 C1083 1.355 . S
C1084 C1086 1.419 . S
C1085 C1080 1.425 1_655 S
C1085 C1082 1.409 . S
C1085 C1083 1.415 1_655 S
C1086 H1076 0.930 . S
C1086 C1084 1.419 . S
C1086 C1087 1.362 . S
C1087 H1077 0.930 . S
C1087 C1080 1.409 . S
C1087 C1086 1.362 . S
H1088 C1094 0.930 1_545 S
H1089 C1097 0.930 . S
H1090 C1098 0.930 . S
H1091 C1099 0.930 1_565 S
H1092 C1102 0.930 . S
H1093 C1103 0.930 . S
C1094 H1088 0.930 1_565 S
C1094 C1095 1.355 . S
C1094 C1096 1.415 1_565 S
C1095 C1094 1.355 . S
C1095 C1097 1.419 . S
C1096 C1094 1.415 1_545 S
C1096 C1101 1.425 1_545 S
C1096 C1103 1.409 . S
C1097 H1089 0.930 . S
C1097 C1095 1.419 . S
C1097 C1098 1.362 . S
C1098 H1090 0.930 . S
C1098 C1097 1.362 . S
C1098 C1101 1.409 . S
C1099 H1091 0.930 1_545 S
C1099 C1100 1.355 . S
C1099 C1101 1.415 1_545 S
C1100 C1099 1.355 . S
C1100 C1102 1.419 . S
C1101 C1096 1.425 1_565 S
C1101 C1098 1.409 . S
C1101 C1099 1.415 1_565 S
C1102 H1092 0.930 . S
C1102 C1100 1.419 . S
C1102 C1103 1.362 . S
C1103 H1093 0.930 . S
C1103 C1096 1.409 . S
C1103 C1102 1.362 . S
H1104 C1110 0.930 . S
H1105 C1113 0.930 . S
H1106 C1114 0.930 . S
H1107 C1115 0.930 . S
H1108 C1118 0.930 . S
H1109 C1119 0.930 . S
C1110 H1104 0.930 . S
C1110 C1111 1.355 . S
C1110 C1112 1.415 . S
C1111 C1110 1.355 . S
C1111 C1113 1.419 1_655 S
C1112 C1110 1.415 . S
C1112 C1117 1.425 1_655 S
C1112 C1119 1.409 . S
C1113 H1105 0.930 . S
C1113 C1111 1.419 1_455 S
C1113 C1114 1.362 . S
C1114 H1106 0.930 . S
C1114 C1113 1.362 . S
C1114 C1117 1.409 . S
C1115 H1107 0.930 . S
C1115 C1116 1.355 . S
C1115 C1117 1.415 . S
C1116 C1115 1.355 . S
C1116 C1118 1.419 1_455 S
C1117 C1112 1.425 1_455 S
C1117 C1114 1.409 . S
C1117 C1115 1.415 . S
C1118 H1108 0.930 . S
C1118 C1116 1.419 1_655 S
C1118 C1119 1.362 . S
C1119 H1109 0.930 . S
C1119 C1112 1.409 . S
C1119 C1118 1.362 . S
H1120 C1126 0.930 . S
H1121 C1129 0.930 . S
H1122 C1130 0.930 . S
H1123 C1131 0.930 . S
H1124 C1134 0.930 . S
H1125 C1135 0.930 . S
C1126 H1120 0.930 . S
C1126 C1127 1.355 . S
C1126 C1128 1.415 . S
C1127 C1126 1.355 . S
C1127 C1129 1.419 . S
C1128 C1126 1.415 . S
C1128 C1133 1.425 1_556 S
C1128 C1135 1.409 1_556 S
C1129 H1121 0.930 . S
C1129 C1127 1.419 . S
C1129 C1130 1.362 . S
C1130 H1122 0.930 . S
C1130 C1129 1.362 . S
C1130 C1133 1.409 1_556 S
C1131 H1123 0.930 . S
C1131 C1132 1.355 . S
C1131 C1133 1.415 . S
C1132 C1131 1.355 . S
C1132 C1134 1.419 . S
C1133 C1128 1.425 1_554 S
C1133 C1130 1.409 1_554 S
C1133 C1131 1.415 . S
C1134 H1124 0.930 . S
C1134 C1132 1.419 . S
C1134 C1135 1.362 . S
C1135 H1125 0.930 . S
C1135 C1128 1.409 1_554 S
C1135 C1134 1.362 . S
H1136 C1142 0.930 . S
H1137 C1145 0.930 . S
H1138 C1146 0.930 1_554 S
H1139 C1147 0.930 . S
H1140 C1150 0.930 . S
H1141 C1151 0.930 1_556 S
C1142 H1136 0.930 . S
C1142 C1143 1.355 . S
C1142 C1144 1.415 . S
C1143 C1142 1.355 . S
C1143 C1145 1.419 . S
C1144 C1142 1.415 . S
C1144 C1149 1.425 1_556 S
C1144 C1151 1.409 1_556 S
C1145 H1137 0.930 . S
C1145 C1143 1.419 . S
C1145 C1146 1.362 . S
C1146 H1138 0.930 1_556 S
C1146 C1145 1.362 . S
C1146 C1149 1.409 1_556 S
C1147 H1139 0.930 . S
C1147 C1148 1.355 . S
C1147 C1149 1.415 . S
C1148 C1147 1.355 . S
C1148 C1150 1.419 . S
C1149 C1144 1.425 1_554 S
C1149 C1146 1.409 1_554 S
C1149 C1147 1.415 . S
C1150 H1140 0.930 . S
C1150 C1148 1.419 . S
C1150 C1151 1.362 . S
C1151 H1141 0.930 1_554 S
C1151 C1144 1.409 1_554 S
C1151 C1150 1.362 . S
H1152 C1158 0.930 . S
H1153 C1161 0.930 . S
H1154 C1162 0.930 1_556 S
H1155 C1163 0.930 . S
H1156 C1166 0.930 . S
H1157 C1167 0.930 1_554 S
C1158 H1152 0.930 . S
C1158 C1159 1.355 . S
C1158 C1160 1.415 . S
C1159 C1158 1.355 . S
C1159 C1161 1.419 . S
C1160 C1158 1.415 . S
C1160 C1165 1.425 1_554 S
C1160 C1167 1.409 1_554 S
C1161 H1153 0.930 . S
C1161 C1159 1.419 . S
C1161 C1162 1.362 . S
C1162 H1154 0.930 1_554 S
C1162 C1161 1.362 . S
C1162 C1165 1.409 1_554 S
C1163 H1155 0.930 . S
C1163 C1164 1.355 . S
C1163 C1165 1.415 . S
C1164 C1163 1.355 . S
C1164 C1166 1.419 . S
C1165 C1160 1.425 1_556 S
C1165 C1162 1.409 1_556 S
C1165 C1163 1.415 . S
C1166 H1156 0.930 . S
C1166 C1164 1.419 . S
C1166 C1167 1.362 . S
C1167 H1157 0.930 1_556 S
C1167 C1160 1.409 1_556 S
C1167 C1166 1.362 . S
H1168 C1174 0.930 . S
H1169 C1177 0.930 . S
H1170 C1178 0.930 . S
H1171 C1179 0.930 . S
H1172 C1182 0.930 . S
H1173 C1183 0.930 . S
C1174 H1168 0.930 . S
C1174 C1175 1.355 . S
C1174 C1176 1.415 1_556 S
C1175 C1174 1.355 . S
C1175 C1177 1.419 . S
C1176 C1174 1.415 1_554 S
C1176 C1181 1.425 1_554 S
C1176 C1183 1.409 . S
C1177 H1169 0.930 . S
C1177 C1175 1.419 . S
C1177 C1178 1.362 . S
C1178 H1170 0.930 . S
C1178 C1177 1.362 . S
C1178 C1181 1.409 . S
C1179 H1171 0.930 . S
C1179 C1180 1.355 . S
C1179 C1181 1.415 1_554 S
C1180 C1179 1.355 . S
C1180 C1182 1.419 . S
C1181 C1176 1.425 1_556 S
C1181 C1178 1.409 . S
C1181 C1179 1.415 1_556 S
C1182 H1172 0.930 . S
C1182 C1180 1.419 . S
C1182 C1183 1.362 . S
C1183 H1173 0.930 . S
C1183 C1176 1.409 . S
C1183 C1182 1.362 . S
C551 C9 2.129 . S
C556 C104 2.155 . S
C567 C2 2.150 . S
C572 C43 2.140 . S
C583 C77 2.114 . S
C588 C36 2.171 . S
C599 C70 2.153 . S
C604 C111 2.142 . S
C615 C172 2.166 . S
C620 C145 2.124 . S
C631 C206 2.170 . S
C636 C179 2.117 . S
C647 C240 2.155 . S
C652 C213 2.129 . S
C663 C247 2.108 . S
C668 C138 2.174 . S
C679 C281 2.120 . S
C684 C376 2.160 . S
C695 C315 2.136 . S
C700 C274 2.152 . S
C711 C349 2.140 . S
C716 C308 2.155 . S
C727 C342 2.163 . S
C732 C383 2.129 . S
C743 C444 2.176 . S
C748 C417 2.102 . S
C759 C451 2.143 . S
C764 C478 2.152 . S
C775 C485 2.102 . S
C780 C512 2.176 . S
C791 C519 2.105 . S
C796 C410 2.170 . S
C807 C5 1.157 . S
C812 C175 1.123 . S
C823 C39 1.185 . S
C828 C209 1.108 . S
C839 C243 1.195 . S
C844 C73 1.095 . S
C855 C107 1.205 . S
C860 C141 1.079 . S
C871 C277 1.184 . S
C876 C447 1.108 . S
C887 C311 1.205 . S
C892 C481 1.079 . S
C903 C345 1.131 . S
C908 C515 1.164 . S
C919 C379 1.197 . S
C924 C413 1.084 . S
C935 C33 0.507 . S
C940 C543 0.516 . S
C951 C441 0.325 . S
C956 C67 0.270 . S
C967 C101 0.395 . S
C972 C475 0.330 . S
C983 C135 0.371 . S
C988 C509 0.306 . S
C999 C339 0.500 . S
C1004 C169 0.516 . S
C1015 C373 0.450 . S
C1020 C203 0.391 . S
C1031 C407 0.516 . S
C1036 C237 0.509 . S
C1047 C305 0.307 . S
C1052 C271 0.371 . S
C1063 C20 1.253 . S
C1068 C156 1.281 . S
C1079 C54 1.249 . S
C1084 C190 1.305 . S
C1095 C88 1.249 . S
C1100 C224 1.304 . S
C1111 C258 1.302 . S
C1116 C122 1.311 . S
C1127 C292 1.286 . S
C1132 C428 1.320 . S
C1143 C326 1.284 . S
C1148 C462 1.251 . S
C1159 C496 1.251 . S
C1164 C360 1.310 . S
C1175 C394 1.313 . S
C1180 C530 1.299 . S
