# Generated by pormake.
# Topology unv, (4)-cn, num edge types: 1
# Building blocks:
#     Node 0, Type 0, BuildingBlock: CEKHIL_clean_sbu_0, # of connection points: 4
#     Node 1, Type 0, BuildingBlock: CEKHIL_clean_sbu_0, # of connection points: 4
#     Node 2, Type 0, BuildingBlock: CEKHIL_clean_sbu_0, # of connection points: 4
#     Node 3, Type 0, BuildingBlock: CEKHIL_clean_sbu_0, # of connection points: 4
#     Node 4, Type 0, BuildingBlock: CEKHIL_clean_sbu_0, # of connection points: 4
#     Node 5, Type 0, BuildingBlock: CEKHIL_clean_sbu_0, # of connection points: 4
#     Node 6, Type 0, BuildingBlock: CEKHIL_clean_sbu_0, # of connection points: 4
#     Node 7, Type 0, BuildingBlock: CEKHIL_clean_sbu_0, # of connection points: 4
#     Node 8, Type 0, BuildingBlock: CEKHIL_clean_sbu_0, # of connection points: 4
#     Node 9, Type 0, BuildingBlock: CEKHIL_clean_sbu_0, # of connection points: 4
#     Node 10, Type 0, BuildingBlock: CEKHIL_clean_sbu_0, # of connection points: 4
#     Node 11, Type 0, BuildingBlock: CEKHIL_clean_sbu_0, # of connection points: 4
#     Node 12, Type 0, BuildingBlock: CEKHIL_clean_sbu_0, # of connection points: 4
#     Node 13, Type 0, BuildingBlock: CEKHIL_clean_sbu_0, # of connection points: 4
#     Node 14, Type 0, BuildingBlock: CEKHIL_clean_sbu_0, # of connection points: 4
#     Node 15, Type 0, BuildingBlock: CEKHIL_clean_sbu_0, # of connection points: 4
#     Node 16, Type 0, BuildingBlock: CEKHIL_clean_sbu_0, # of connection points: 4
#     Node 17, Type 0, BuildingBlock: CEKHIL_clean_sbu_0, # of connection points: 4
#     Node 18, Type 0, BuildingBlock: CEKHIL_clean_sbu_0, # of connection points: 4
#     Node 19, Type 0, BuildingBlock: CEKHIL_clean_sbu_0, # of connection points: 4
#     Node 20, Type 0, BuildingBlock: CEKHIL_clean_sbu_0, # of connection points: 4
#     Node 21, Type 0, BuildingBlock: CEKHIL_clean_sbu_0, # of connection points: 4
#     Node 22, Type 0, BuildingBlock: CEKHIL_clean_sbu_0, # of connection points: 4
#     Node 23, Type 0, BuildingBlock: CEKHIL_clean_sbu_0, # of connection points: 4
#     Edge 24, Type (0, 0), BuildingBlock: KIFKEQ_clean_linker_1, # of connection points: 2
#     Edge 25, Type (0, 0), BuildingBlock: KIFKEQ_clean_linker_1, # of connection points: 2
#     Edge 26, Type (0, 0), BuildingBlock: KIFKEQ_clean_linker_1, # of connection points: 2
#     Edge 27, Type (0, 0), BuildingBlock: KIFKEQ_clean_linker_1, # of connection points: 2
#     Edge 28, Type (0, 0), BuildingBlock: KIFKEQ_clean_linker_1, # of connection points: 2
#     Edge 29, Type (0, 0), BuildingBlock: KIFKEQ_clean_linker_1, # of connection points: 2
#     Edge 30, Type (0, 0), BuildingBlock: KIFKEQ_clean_linker_1, # of connection points: 2
#     Edge 31, Type (0, 0), BuildingBlock: KIFKEQ_clean_linker_1, # of connection points: 2
#     Edge 32, Type (0, 0), BuildingBlock: KIFKEQ_clean_linker_1, # of connection points: 2
#     Edge 33, Type (0, 0), BuildingBlock: KIFKEQ_clean_linker_1, # of connection points: 2
#     Edge 34, Type (0, 0), BuildingBlock: KIFKEQ_clean_linker_1, # of connection points: 2
#     Edge 35, Type (0, 0), BuildingBlock: KIFKEQ_clean_linker_1, # of connection points: 2
#     Edge 36, Type (0, 0), BuildingBlock: KIFKEQ_clean_linker_1, # of connection points: 2
#     Edge 37, Type (0, 0), BuildingBlock: KIFKEQ_clean_linker_1, # of connection points: 2
#     Edge 38, Type (0, 0), BuildingBlock: KIFKEQ_clean_linker_1, # of connection points: 2
#     Edge 39, Type (0, 0), BuildingBlock: KIFKEQ_clean_linker_1, # of connection points: 2
#     Edge 40, Type (0, 0), BuildingBlock: KIFKEQ_clean_linker_1, # of connection points: 2
#     Edge 41, Type (0, 0), BuildingBlock: KIFKEQ_clean_linker_1, # of connection points: 2
#     Edge 42, Type (0, 0), BuildingBlock: KIFKEQ_clean_linker_1, # of connection points: 2
#     Edge 43, Type (0, 0), BuildingBlock: KIFKEQ_clean_linker_1, # of connection points: 2
#     Edge 44, Type (0, 0), BuildingBlock: KIFKEQ_clean_linker_1, # of connection points: 2
#     Edge 45, Type (0, 0), BuildingBlock: KIFKEQ_clean_linker_1, # of connection points: 2
#     Edge 46, Type (0, 0), BuildingBlock: KIFKEQ_clean_linker_1, # of connection points: 2
#     Edge 47, Type (0, 0), BuildingBlock: KIFKEQ_clean_linker_1, # of connection points: 2
#     Edge 48, Type (0, 0), BuildingBlock: KIFKEQ_clean_linker_1, # of connection points: 2
#     Edge 49, Type (0, 0), BuildingBlock: KIFKEQ_clean_linker_1, # of connection points: 2
#     Edge 50, Type (0, 0), BuildingBlock: KIFKEQ_clean_linker_1, # of connection points: 2
#     Edge 51, Type (0, 0), BuildingBlock: KIFKEQ_clean_linker_1, # of connection points: 2
#     Edge 52, Type (0, 0), BuildingBlock: KIFKEQ_clean_linker_1, # of connection points: 2
#     Edge 53, Type (0, 0), BuildingBlock: KIFKEQ_clean_linker_1, # of connection points: 2
#     Edge 54, Type (0, 0), BuildingBlock: KIFKEQ_clean_linker_1, # of connection points: 2
#     Edge 55, Type (0, 0), BuildingBlock: KIFKEQ_clean_linker_1, # of connection points: 2
#     Edge 56, Type (0, 0), BuildingBlock: KIFKEQ_clean_linker_1, # of connection points: 2
#     Edge 57, Type (0, 0), BuildingBlock: KIFKEQ_clean_linker_1, # of connection points: 2
#     Edge 58, Type (0, 0), BuildingBlock: KIFKEQ_clean_linker_1, # of connection points: 2
#     Edge 59, Type (0, 0), BuildingBlock: KIFKEQ_clean_linker_1, # of connection points: 2
#     Edge 60, Type (0, 0), BuildingBlock: KIFKEQ_clean_linker_1, # of connection points: 2
#     Edge 61, Type (0, 0), BuildingBlock: KIFKEQ_clean_linker_1, # of connection points: 2
#     Edge 62, Type (0, 0), BuildingBlock: KIFKEQ_clean_linker_1, # of connection points: 2
#     Edge 63, Type (0, 0), BuildingBlock: KIFKEQ_clean_linker_1, # of connection points: 2
#     Edge 64, Type (0, 0), BuildingBlock: KIFKEQ_clean_linker_1, # of connection points: 2
#     Edge 65, Type (0, 0), BuildingBlock: KIFKEQ_clean_linker_1, # of connection points: 2
#     Edge 66, Type (0, 0), BuildingBlock: KIFKEQ_clean_linker_1, # of connection points: 2
#     Edge 67, Type (0, 0), BuildingBlock: KIFKEQ_clean_linker_1, # of connection points: 2
#     Edge 68, Type (0, 0), BuildingBlock: KIFKEQ_clean_linker_1, # of connection points: 2
#     Edge 69, Type (0, 0), BuildingBlock: KIFKEQ_clean_linker_1, # of connection points: 2
#     Edge 70, Type (0, 0), BuildingBlock: KIFKEQ_clean_linker_1, # of connection points: 2
#     Edge 71, Type (0, 0), BuildingBlock: KIFKEQ_clean_linker_1, # of connection points: 2
# Relax obj value: 0.327
# Max RMSD: 0.239
# Mean RMSD: 0.214
data_MOF--net-unv--node1-CEKHIL_clean_sbu_0--edge1-KIFKEQ_clean_linker_1
_symmetry_space_group_name_H-M    P1
_symmetry_Int_Tables_number       1
_symmetry_cell_setting            triclinic
loop_
_symmetry_equiv_pos_as_xyz
'x, y, z'
_cell_length_a     48.671563
_cell_length_b     48.664537
_cell_length_c     48.67725
_cell_angle_alpha  89.98897
_cell_angle_beta   89.981412
_cell_angle_gamma 89.990936
loop_
_atom_site_label
_atom_site_type_symbol
_atom_site_fract_x
_atom_site_fract_y
_atom_site_fract_z
_atom_type_partial_charge
Co0 Co 0.02315 0.10934 0.37676 0.0
O1 O 0.03948 0.13975 0.35708 0.0
O2 O 0.99498 0.13098 0.35868 0.0
C3 C 0.04645 0.11582 0.4165 0.0
O4 O 0.99848 0.08118 0.39574 0.0
Co5 Co 0.05788 0.06082 0.40026 0.0
O6 O 0.02449 0.0541 0.42265 0.0
C7 C 0.03922 0.05976 0.34193 0.0
C8 C 0.01466 0.14738 0.35101 0.0
C9 C 1.00115 0.06284 0.41466 0.0
O10 O 0.02731 0.08346 0.34406 0.0
O11 O 0.05303 0.04863 0.36137 0.0
O12 O 0.02475 0.13034 0.41109 0.0
O13 O 0.05471 0.10006 0.3969 0.0
Co14 Co 0.97597 0.38667 0.37213 0.0
O15 O 0.95963 0.35607 0.35284 0.0
O16 O 0.0039 0.36601 0.35256 0.0
C17 C 0.95467 0.37851 0.41272 0.0
O18 O 1.0006 0.4152 0.39041 0.0
Co19 Co 0.94052 0.43354 0.3976 0.0
O20 O 0.97486 0.44204 0.41785 0.0
C21 C 0.95548 0.43553 0.33828 0.0
C22 C 0.98437 0.34904 0.34581 0.0
C23 C 0.99812 0.4337 0.40916 0.0
O24 O 0.96957 0.413 0.34008 0.0
O25 O 0.94141 0.44532 0.35826 0.0
O26 O 0.97672 0.36508 0.40614 0.0
O27 O 0.94504 0.39446 0.3939 0.0
Co28 Co 0.02771 0.8924 0.13634 0.0
O29 O 0.04323 0.86121 0.15545 0.0
O30 O 0.99898 0.87122 0.1541 0.0
C31 C 0.05062 0.88622 0.09631 0.0
O32 O 0.00385 0.92152 0.11788 0.0
Co33 Co 0.06408 0.94036 0.11421 0.0
O34 O 0.03079 0.94903 0.09231 0.0
C35 C 0.04657 0.93993 0.17281 0.0
C36 C 0.01822 0.85418 0.1615 0.0
C37 C 0.00716 0.94045 0.09967 0.0
O38 O 0.03258 0.91754 0.16951 0.0
O39 O 0.06149 0.95052 0.15389 0.0
O40 O 0.02865 0.87206 0.10159 0.0
O41 O 0.05946 0.90118 0.11626 0.0
Co42 Co 0.97492 0.61486 0.14125 0.0
O43 O 0.95921 0.64509 0.16176 0.0
O44 O 0.00362 0.63632 0.15858 0.0
C45 C 0.95002 0.62214 0.10255 0.0
O46 O 0.99925 0.58727 0.1212 0.0
Co47 Co 0.94025 0.56661 0.11738 0.0
O48 O 0.97326 0.56027 0.0943 0.0
C49 C 0.96011 0.56444 0.1754 0.0
C50 C 0.98424 0.6528 0.16682 0.0
C51 C 0.9966 0.56918 0.10209 0.0
O52 O 0.9718 0.58832 0.17368 0.0
O53 O 0.94603 0.55373 0.15592 0.0
O54 O 0.97205 0.6364 0.10721 0.0
O55 O 0.94277 0.60576 0.12203 0.0
Co56 Co 0.37615 0.02353 0.11154 0.0
O57 O 0.35761 0.0384 0.14329 0.0
O58 O 0.35996 0.99419 0.13315 0.0
C59 C 0.41566 0.04754 0.11617 0.0
O60 O 0.39435 1.00059 0.08158 0.0
Co61 Co 0.39409 0.06159 0.06307 0.0
O62 O 0.41667 0.02911 0.05278 0.0
C63 C 0.33627 0.0435 0.06745 0.0
C64 C 0.35232 0.01323 0.15032 0.0
C65 C 0.41119 0.00505 0.06165 0.0
O66 O 0.342 0.0274 0.08777 0.0
O67 O 0.35345 0.06033 0.05681 0.0
O68 O 0.41157 0.02546 0.13058 0.0
O69 O 0.39479 0.0559 0.10219 0.0
Co70 Co 0.62357 0.48717 0.1072 0.0
O71 O 0.64288 0.46989 0.13726 0.0
O72 O 0.64176 0.51463 0.12969 0.0
C73 C 0.58364 0.46405 0.11297 0.0
O74 O 0.60497 0.51262 0.07943 0.0
Co75 Co 0.60015 0.45357 0.05786 0.0
O76 O 0.57796 0.48721 0.0519 0.0
C77 C 0.65851 0.47209 0.05745 0.0
C78 C 0.64915 0.49443 0.14558 0.0
C79 C 0.58605 0.51036 0.06105 0.0
O80 O 0.65641 0.48328 0.08148 0.0
O81 O 0.63902 0.45883 0.04578 0.0
O82 O 0.58907 0.48543 0.12793 0.0
O83 O 0.60327 0.45598 0.09715 0.0
Co84 Co 0.3732 0.97192 0.3888 0.0
O85 O 0.3527 0.95544 0.35905 0.0
O86 O 0.35449 0.99998 0.36769 0.0
C87 C 0.41277 0.94874 0.381 0.0
O88 O 0.39312 0.99688 0.41595 0.0
Co89 Co 0.39843 0.93785 0.43674 0.0
O90 O 0.42116 0.97126 0.44217 0.0
C91 C 0.33986 0.95559 0.43942 0.0
C92 C 0.34668 0.98028 0.3514 0.0
C93 C 0.41288 0.99449 0.43339 0.0
O94 O 0.34134 0.96776 0.41579 0.0
O95 O 0.35972 0.94185 0.44988 0.0
O96 O 0.40673 0.97033 0.36659 0.0
O97 O 0.39381 0.9405 0.39757 0.0
Co98 Co 0.62828 0.52148 0.38695 0.0
O99 O 0.64755 0.5395 0.35726 0.0
O100 O 0.64705 0.49465 0.36424 0.0
C101 C 0.58797 0.54394 0.38108 0.0
O102 O 0.60978 0.49525 0.41401 0.0
Co103 Co 0.60377 0.55368 0.43663 0.0
O104 O 0.5818 0.51969 0.44144 0.0
C105 C 0.66237 0.53598 0.43753 0.0
C106 C 0.65402 0.51515 0.34853 0.0
C107 C 0.59044 0.49684 0.43202 0.0
O108 O 0.66079 0.52543 0.41316 0.0
O109 O 0.64249 0.54856 0.44932 0.0
O110 O 0.59408 0.52296 0.36582 0.0
O111 O 0.60723 0.55214 0.3973 0.0
Co112 Co 0.10899 0.37887 0.02702 0.0
O113 O 0.13976 0.35931 0.04274 0.0
O114 O 0.12964 0.36025 0.99849 0.0
C115 C 0.11616 0.41904 0.0493 0.0
O116 O 0.08026 0.39767 0.00293 0.0
Co117 Co 0.06156 0.40267 0.06294 0.0
O118 O 0.05387 0.42471 0.02952 0.0
C119 C 0.06014 0.34407 0.04548 0.0
C120 C 0.14656 0.35278 0.01779 0.0
C121 C 0.06208 0.41667 0.00599 0.0
O122 O 0.08322 0.34631 0.03245 0.0
O123 O 0.04949 0.36358 0.05957 0.0
O124 O 0.13013 0.41312 0.02737 0.0
O125 O 0.10071 0.39958 0.05847 0.0
Co126 Co 0.1106 0.62588 0.48541 0.0
O127 O 0.14082 0.6451 0.46828 0.0
O128 O 0.13326 0.64354 0.51302 0.0
C129 C 0.11573 0.5861 0.46192 0.0
O130 O 0.08268 0.60728 0.5107 0.0
Co131 Co 0.06072 0.60384 0.45178 0.0
O132 O 0.05498 0.58083 0.4849 0.0
C133 C 0.06123 0.66178 0.47128 0.0
C134 C 0.14913 0.65113 0.49288 0.0
C135 C 0.06421 0.58847 0.50817 0.0
O136 O 0.08537 0.65908 0.48204 0.0
O137 O 0.04888 0.64269 0.45806 0.0
O138 O 0.13094 0.59122 0.4832 0.0
O139 O 0.10014 0.60602 0.45405 0.0
Co140 Co 0.8923 0.86633 0.48693 0.0
O141 O 0.86235 0.84758 0.46887 0.0
O142 O 0.86942 0.84766 0.51371 0.0
C143 C 0.88721 0.90687 0.46476 0.0
O144 O 0.9199 0.88418 0.51306 0.0
Co145 Co 0.94238 0.88957 0.45438 0.0
O146 O 0.94765 0.91155 0.48825 0.0
C147 C 0.94196 0.83107 0.47215 0.0
C148 C 0.85379 0.8407 0.49316 0.0
C149 C 0.93828 0.90316 0.51121 0.0
O150 O 0.9177 0.83335 0.48274 0.0
O151 O 0.95435 0.8506 0.4596 0.0
O152 O 0.87182 0.90095 0.48571 0.0
O153 O 0.90295 0.88729 0.45633 0.0
Co154 Co 0.38914 0.62996 0.52135 0.0
O155 O 0.35959 0.64948 0.53927 0.0
O156 O 0.36738 0.64984 0.49455 0.0
C157 C 0.38186 0.58932 0.5428 0.0
O158 O 0.41625 0.61148 0.49523 0.0
Co159 Co 0.43752 0.60348 0.55395 0.0
O160 O 0.44288 0.58251 0.51941 0.0
C161 C 0.43982 0.66272 0.5384 0.0
C162 C 0.35146 0.65667 0.51492 0.0
C163 C 0.43398 0.59187 0.49664 0.0
O164 O 0.41601 0.66173 0.52656 0.0
O165 O 0.45047 0.64235 0.55122 0.0
O166 O 0.36719 0.5962 0.52164 0.0
O167 O 0.39836 0.60801 0.55169 0.0
Co168 Co 0.51739 0.61364 0.86169 0.0
O169 O 0.53548 0.64377 0.84319 0.0
O170 O 0.49082 0.63596 0.84188 0.0
C171 C 0.53809 0.62028 0.90286 0.0
O172 O 0.4913 0.58568 0.87916 0.0
Co173 Co 0.55053 0.56514 0.88752 0.0
O174 O 0.5158 0.55908 0.90796 0.0
C175 C 0.53535 0.56372 0.82814 0.0
C176 C 0.51127 0.65211 0.83581 0.0
C177 C 0.49294 0.5676 0.89846 0.0
O178 O 0.52334 0.58747 0.82939 0.0
O179 O 0.54811 0.55287 0.84843 0.0
O180 O 0.51688 0.63484 0.89595 0.0
O181 O 0.54749 0.60431 0.88396 0.0
Co182 Co 0.4862 0.89525 0.86496 0.0
O183 O 0.46835 0.86408 0.84809 0.0
O184 O 0.51287 0.8724 0.84578 0.0
C185 C 0.46605 0.89059 0.90667 0.0
O186 O 0.51187 0.92464 0.88056 0.0
Co187 Co 0.45122 0.94421 0.8881 0.0
O188 O 0.48679 0.95573 0.90412 0.0
C189 C 0.4672 0.94303 0.829 0.0
C190 C 0.4925 0.85591 0.84037 0.0
C191 C 0.50973 0.94585 0.89627 0.0
O192 O 0.47963 0.91962 0.83144 0.0
O193 O 0.45387 0.95456 0.84853 0.0
O194 O 0.48742 0.87596 0.90037 0.0
O195 O 0.4561 0.90513 0.88696 0.0
Co196 Co 0.52111 0.38982 0.62747 0.0
O197 O 0.53884 0.35986 0.64659 0.0
O198 O 0.49419 0.36801 0.64716 0.0
C199 C 0.54232 0.3829 0.58664 0.0
O200 O 0.49519 0.41734 0.60936 0.0
Co201 Co 0.55423 0.43826 0.60174 0.0
O202 O 0.51968 0.4443 0.58095 0.0
C203 C 0.5398 0.43943 0.66124 0.0
C204 C 0.51444 0.35183 0.65374 0.0
C205 C 0.4968 0.43535 0.59003 0.0
O206 O 0.52669 0.4163 0.65955 0.0
O207 O 0.55313 0.44991 0.6411 0.0
O208 O 0.5211 0.36829 0.59343 0.0
O209 O 0.55145 0.39905 0.60553 0.0
Co210 Co 0.48554 0.11015 0.62392 0.0
O211 O 0.46778 0.14137 0.64078 0.0
O212 O 0.51218 0.13237 0.64364 0.0
C213 C 0.46605 0.11516 0.58201 0.0
O214 O 0.51129 0.08087 0.60852 0.0
Co215 Co 0.45129 0.0613 0.6 0.0
O216 O 0.4869 0.05066 0.58329 0.0
C217 C 0.46381 0.06336 0.65981 0.0
C218 C 0.49195 0.14906 0.64894 0.0
C219 C 0.50962 0.06043 0.59182 0.0
O220 O 0.4781 0.08566 0.6571 0.0
O221 O 0.45035 0.05238 0.64005 0.0
O222 O 0.48742 0.12964 0.58865 0.0
O223 O 0.4558 0.10048 0.60148 0.0
Co224 Co 0.86295 0.51924 0.61209 0.0
O225 O 0.84586 0.5392 0.64187 0.0
O226 O 0.84324 0.49426 0.6361 0.0
C227 C 0.90468 0.53937 0.61622 0.0
O228 O 0.87863 0.49124 0.58506 0.0
Co229 Co 0.88789 0.54871 0.56084 0.0
O230 O 0.9065 0.51292 0.55521 0.0
C231 C 0.82838 0.53413 0.56205 0.0
C232 C 0.83804 0.51556 0.65142 0.0
C233 C 0.89687 0.49109 0.56592 0.0
O234 O 0.82994 0.52454 0.58682 0.0
O235 O 0.84863 0.54501 0.54926 0.0
O236 O 0.89789 0.51905 0.63207 0.0
O237 O 0.8855 0.54828 0.60027 0.0
Co238 Co 0.13814 0.97265 0.61184 0.0
O239 O 0.15718 0.95531 0.64207 0.0
O240 O 0.15779 0.99984 0.63328 0.0
C241 C 0.09731 0.9515 0.61896 0.0
O242 O 0.12005 0.9983 0.58403 0.0
Co243 Co 0.11261 0.93909 0.56368 0.0
O244 O 0.09166 0.97352 0.55736 0.0
C245 C 0.17213 0.95341 0.56259 0.0
C246 C 0.16432 0.97982 0.64977 0.0
C247 C 0.10069 0.99649 0.56609 0.0
O248 O 0.17031 0.96676 0.58556 0.0
O249 O 0.15203 0.94001 0.55214 0.0
O250 O 0.10408 0.9729 0.63333 0.0
O251 O 0.11621 0.94221 0.60289 0.0
Co252 Co 0.86587 0.48866 0.89407 0.0
O253 O 0.84993 0.47275 0.86153 0.0
O254 O 0.84734 0.51675 0.87236 0.0
C255 C 0.9078 0.46898 0.88974 0.0
O256 O 0.8807 0.51211 0.92565 0.0
Co257 Co 0.88572 0.44911 0.9409 0.0
O258 O 0.90045 0.48366 0.95654 0.0
C259 C 0.82689 0.46439 0.93721 0.0
C260 C 0.84218 0.49728 0.85473 0.0
C261 C 0.89421 0.50766 0.94802 0.0
O262 O 0.83152 0.48064 0.91667 0.0
O263 O 0.84526 0.44867 0.94758 0.0
O264 O 0.90191 0.49111 0.87609 0.0
O265 O 0.88747 0.45796 0.90257 0.0
Co266 Co 0.13892 0.0219 0.8913 0.0
O267 O 0.15598 0.03667 0.85867 0.0
O268 O 0.15448 0.99253 0.86921 0.0
C269 C 0.09894 0.04544 0.88821 0.0
O270 O 0.12223 0.99911 0.92228 0.0
Co271 Co 0.12303 0.06052 0.94007 0.0
O272 O 0.10157 0.02788 0.95207 0.0
C273 C 0.18067 0.04274 0.93323 0.0
C274 C 0.16125 0.01151 0.85163 0.0
C275 C 0.10661 0.00374 0.94316 0.0
O276 O 0.17403 0.02624 0.91353 0.0
O277 O 0.16395 0.05975 0.9443 0.0
O278 O 0.10271 0.02334 0.87376 0.0
O279 O 0.12033 0.05417 0.90116 0.0
Co280 Co 0.61367 0.86256 0.51851 0.0
O281 O 0.64366 0.8439 0.53652 0.0
O282 O 0.63518 0.84197 0.49197 0.0
C283 C 0.6212 0.90382 0.5386 0.0
O284 O 0.58582 0.87992 0.49243 0.0
Co285 Co 0.56583 0.88919 0.55176 0.0
O286 O 0.55879 0.90857 0.5166 0.0
C287 C 0.56448 0.82932 0.53905 0.0
C288 C 0.65142 0.83586 0.51233 0.0
C289 C 0.56755 0.89902 0.49385 0.0
O290 O 0.5873 0.8307 0.52541 0.0
O291 O 0.55424 0.84977 0.55207 0.0
O292 O 0.63524 0.89659 0.51715 0.0
O293 O 0.60499 0.88532 0.54839 0.0
Co294 Co 0.61704 0.14164 0.97864 0.0
O295 O 0.64897 0.15958 0.96336 0.0
O296 O 0.63881 0.1584 0.00758 0.0
C297 C 0.62212 0.10162 0.95551 0.0
O298 O 0.58697 0.12417 0.002 0.0
Co299 Co 0.5688 0.12253 0.94101 0.0
O300 O 0.55845 0.10084 0.97406 0.0
C301 C 0.57266 0.18088 0.95778 0.0
C302 C 0.65617 0.1652 0.98839 0.0
C303 C 0.56713 0.10714 0.99797 0.0
O304 O 0.59325 0.17578 0.97379 0.0
O305 O 0.56203 0.16313 0.94155 0.0
O306 O 0.63605 0.1061 0.97777 0.0
O307 O 0.60792 0.12216 0.94667 0.0
Co308 Co 0.38628 0.36998 0.97344 0.0
O309 O 0.35488 0.35123 0.95798 0.0
O310 O 0.3645 0.35333 0.0023 0.0
C311 C 0.38131 0.40975 0.94981 0.0
O312 O 0.4154 0.38836 0.99716 0.0
Co313 Co 0.43523 0.3894 0.93686 0.0
O314 O 0.44426 0.41188 0.96977 0.0
C315 C 0.43189 0.33122 0.95432 0.0
C316 C 0.34745 0.34599 0.98306 0.0
C317 C 0.43497 0.40576 0.9935 0.0
O318 O 0.41079 0.33622 0.96969 0.0
O319 O 0.4427 0.34893 0.93814 0.0
O320 O 0.36662 0.40505 0.97155 0.0
O321 O 0.39594 0.38928 0.94146 0.0
Co322 Co 0.89667 0.13595 0.02795 0.0
O323 O 0.86526 0.15377 0.04442 0.0
O324 O 0.87522 0.15494 1.00016 0.0
C325 C 0.89078 0.09476 0.0487 0.0
O326 O 0.92627 0.11907 0.00338 0.0
Co327 Co 0.9446 0.11283 0.06372 0.0
O328 O 0.95339 0.09233 0.0296 0.0
C329 C 0.94352 0.17216 0.04891 0.0
C330 C 0.85812 0.16105 0.01981 0.0
C331 C 0.94517 0.10072 0.0062 0.0
O332 O 0.92126 0.16917 0.03467 0.0
O333 O 0.95434 0.15272 0.06298 0.0
O334 O 0.87673 0.10097 0.02692 0.0
O335 O 0.90547 0.1144 0.05865 0.0
H336 H 0.05089 0.00433 0.54182 0.0
H337 H 0.12767 0.04531 0.55918 0.0
H338 H 0.0375 0.04208 0.51175 0.0
H339 H 0.11426 0.08311 0.52881 0.0
H340 H 0.09738 0.10127 0.4331 0.0
H341 H 0.10956 0.07954 0.47654 0.0
H342 H 0.02729 0.09356 0.50668 0.0
H343 H 0.01525 0.11583 0.46315 0.0
C344 C 0.06463 0.02172 0.53968 0.0
C345 C 0.09048 0.0217 0.55254 0.0
C346 C 0.05685 0.04346 0.52266 0.0
C347 C 0.07491 0.06547 0.51786 0.0
C348 C 0.10001 0.06634 0.53212 0.0
C349 C 0.10762 0.04475 0.54953 0.0
C350 C 0.08225 0.10068 0.44942 0.0
C351 C 0.05543 0.11019 0.44484 0.0
C352 C 0.08922 0.0883 0.47432 0.0
C353 C 0.06931 0.08472 0.49492 0.0
C354 C 0.043 0.09604 0.4911 0.0
C355 C 0.03618 0.10896 0.46631 0.0
H356 H 0.9034 0.37412 0.4338 0.0
H357 H 0.98702 0.3932 0.45556 0.0
H358 H 0.88766 0.39177 0.4779 0.0
H359 H 0.97148 0.41376 0.49825 0.0
H360 H 0.94047 0.45618 0.57211 0.0
H361 H 0.95331 0.41878 0.54096 0.0
H362 H 0.87965 0.43442 0.49342 0.0
H363 H 0.8664 0.46974 0.52569 0.0
C364 C 0.91841 0.38176 0.44836 0.0
C365 C 0.9463 0.38249 0.44142 0.0
C366 C 0.90944 0.39236 0.47347 0.0
C367 C 0.92804 0.40532 0.49152 0.0
C368 C 0.95633 0.40397 0.48529 0.0
C369 C 0.96537 0.39225 0.46065 0.0
C370 C 0.92675 0.45066 0.55548 0.0
C371 C 0.90241 0.46541 0.55124 0.0
C372 C 0.9342 0.42954 0.53735 0.0
C373 C 0.91781 0.42347 0.51418 0.0
C374 C 0.89273 0.43767 0.51108 0.0
C375 C 0.88508 0.4582 0.5295 0.0
H376 H 0.01807 0.8904 0.05093 0.0
H377 H 0.10185 0.89873 0.07868 0.0
H378 H 0.03004 0.91384 0.00799 0.0
H379 H 0.11398 0.92133 0.03548 0.0
H380 H 0.06046 0.00268 0.97478 0.0
H381 H 0.04608 0.96661 0.00654 0.0
H382 H 0.11412 0.91614 0.98036 0.0
H383 H 0.12836 0.95211 0.94805 0.0
C384 C 0.03927 0.89612 0.04732 0.0
C385 C 0.05911 0.89273 0.068 0.0
C386 C 0.04605 0.90969 0.02288 0.0
C387 C 0.0729 0.91936 0.01852 0.0
C388 C 0.09321 0.91382 0.03824 0.0
C389 C 0.08629 0.90091 0.06291 0.0
C390 C 0.07202 0.98366 0.97535 0.0
C391 C 0.09565 0.98028 0.95908 0.0
C392 C 0.06366 0.96295 0.99336 0.0
C393 C 0.07899 0.93863 0.9958 0.0
C394 C 0.10195 0.93471 0.97875 0.0
C395 C 0.11003 0.95524 0.96028 0.0
H396 H 0.97751 0.62192 0.0534 0.0
H397 H 0.89731 0.6114 0.08969 0.0
H398 H 0.96107 0.60013 0.01098 0.0
H399 H 0.88083 0.59028 0.04739 0.0
H400 H 0.89051 0.50632 0.00297 0.0
H401 H 0.90113 0.54224 0.03572 0.0
H402 H 0.92252 0.59714 0.96939 0.0
H403 H 0.91119 0.56062 0.9359 0.0
C404 C 0.95605 0.61622 0.0518 0.0
C405 C 0.93867 0.61804 0.0748 0.0
C406 C 0.94667 0.60376 0.02756 0.0
C407 C 0.91981 0.59322 0.02613 0.0
C408 C 0.9017 0.598 0.04809 0.0
C409 C 0.9111 0.61011 0.07226 0.0
C410 C 0.89738 0.52605 0.99523 0.0
C411 C 0.90018 0.53065 0.9669 0.0
C412 C 0.90321 0.54672 0.014 0.0
C413 C 0.91236 0.57255 0.00507 0.0
C414 C 0.91532 0.57739 0.97672 0.0
C415 C 0.90882 0.55664 0.95766 0.0
H416 H 0.46272 0.01717 0.11335 0.0
H417 H 0.4306 0.0989 0.10091 0.0
H418 H 0.50538 0.03047 0.09012 0.0
H419 H 0.47337 0.11235 0.07835 0.0
H420 H 0.55872 0.13178 0.04769 0.0
H421 H 0.52679 0.11705 0.08375 0.0
H422 H 0.50911 0.04323 0.0379 0.0
H423 H 0.54058 0.05808 0.00173 0.0
C424 C 0.46522 0.03825 0.10664 0.0
C425 C 0.44345 0.05708 0.10891 0.0
C426 C 0.48951 0.04577 0.0932 0.0
C427 C 0.4926 0.0724 0.08244 0.0
C428 C 0.47165 0.09178 0.0867 0.0
C429 C 0.44717 0.08409 0.09955 0.0
C430 C 0.54851 0.11211 0.04566 0.0
C431 C 0.55189 0.09618 0.02182 0.0
C432 C 0.53022 0.10376 0.06623 0.0
C433 C 0.51553 0.07905 0.06356 0.0
C434 C 0.52037 0.06225 0.0406 0.0
C435 C 0.5382 0.07084 0.01982 0.0
H436 H 0.53793 0.49626 0.10948 0.0
H437 H 0.56641 0.41275 0.10087 0.0
H438 H 0.49502 0.48398 0.08612 0.0
H439 H 0.52342 0.4003 0.0783 0.0
H440 H 0.46281 0.45424 0.99691 0.0
H441 H 0.49266 0.4695 0.03422 0.0
H442 H 0.46989 0.39817 0.08179 0.0
H443 H 0.43966 0.38301 0.04458 0.0
C444 C 0.53446 0.47504 0.10375 0.0
C445 C 0.55533 0.45536 0.10697 0.0
C446 C 0.51006 0.46808 0.09021 0.0
C447 C 0.50599 0.44123 0.08039 0.0
C448 C 0.52589 0.42107 0.08591 0.0
C449 C 0.55048 0.42816 0.0988 0.0
C450 C 0.46371 0.44214 0.01558 0.0
C451 C 0.44919 0.41727 0.01772 0.0
C452 C 0.48058 0.451 0.03702 0.0
C453 C 0.48357 0.43496 0.06083 0.0
C454 C 0.46789 0.41088 0.06362 0.0
C455 C 0.4506 0.40226 0.04236 0.0
H456 H 0.55877 0.86979 0.44672 0.0
H457 H 0.54419 0.94886 0.48426 0.0
H458 H 0.52684 0.88162 0.40967 0.0
H459 H 0.51259 0.9607 0.44728 0.0
H460 H 0.43006 0.89844 0.3971 0.0
H461 H 0.47489 0.88696 0.41623 0.0
H462 H 0.50444 0.96809 0.39581 0.0
H463 H 0.45951 0.97945 0.37621 0.0
C464 C 0.54945 0.89 0.44658 0.0
C465 C 0.5536 0.90827 0.46854 0.0
C466 C 0.53114 0.89672 0.42544 0.0
C467 C 0.51715 0.92199 0.4257 0.0
C468 C 0.52324 0.94117 0.44639 0.0
C469 C 0.54115 0.9343 0.4677 0.0
C470 C 0.44647 0.91344 0.39577 0.0
C471 C 0.44136 0.93981 0.38532 0.0
C472 C 0.47217 0.90685 0.40661 0.0
C473 C 0.49309 0.92671 0.40766 0.0
C474 C 0.48863 0.95244 0.39529 0.0
C475 C 0.463 0.95887 0.38394 0.0
H476 H 0.45813 0.54217 0.4877 0.0
H477 H 0.44134 0.62012 0.44867 0.0
H478 H 0.48957 0.5303 0.45054 0.0
H479 H 0.47306 0.60824 0.41151 0.0
H480 H 0.56997 0.59372 0.39791 0.0
H481 H 0.52533 0.60421 0.41808 0.0
H482 H 0.49724 0.52232 0.39872 0.0
H483 H 0.54195 0.51199 0.37796 0.0
C484 C 0.46062 0.55645 0.47079 0.0
C485 C 0.44761 0.58223 0.47128 0.0
C486 C 0.47845 0.54956 0.4494 0.0
C487 C 0.48388 0.56846 0.42827 0.0
C488 C 0.46928 0.59337 0.42764 0.0
C489 C 0.45108 0.6001 0.44886 0.0
C490 C 0.5539 0.57833 0.39705 0.0
C491 C 0.55933 0.5521 0.38644 0.0
C492 C 0.52832 0.58434 0.4085 0.0
C493 C 0.50787 0.56403 0.41004 0.0
C494 C 0.51267 0.53833 0.39776 0.0
C495 C 0.53816 0.5325 0.38575 0.0
H496 H 0.10299 0.43744 0.1 0.0
H497 H 0.11431 0.46434 0.01628 0.0
H498 H 0.08083 0.481 0.11109 0.0
H499 H 0.09149 0.50787 0.02723 0.0
H500 H 0.00222 0.54227 0.05323 0.0
H501 H 0.03982 0.51207 0.03952 0.0
H502 H 0.08437 0.53391 0.11301 0.0
H503 H 0.04685 0.56441 0.12669 0.0
C504 C 0.1016 0.45312 0.08425 0.0
C505 C 0.11036 0.44762 0.05735 0.0
C506 C 0.08895 0.47806 0.09058 0.0
C507 C 0.08432 0.49773 0.06996 0.0
C508 C 0.09482 0.49302 0.04347 0.0
C509 C 0.10806 0.46824 0.03728 0.0
C510 C 0.02033 0.54116 0.06613 0.0
C511 C 0.02143 0.55543 0.0912 0.0
C512 C 0.04196 0.52405 0.05816 0.0
C513 C 0.06493 0.52059 0.07529 0.0
C514 C 0.06684 0.5362 0.09949 0.0
C515 C 0.04539 0.55368 0.10725 0.0
H516 H 0.00525 0.45879 0.45865 0.0
H517 H 0.04658 0.44174 0.38198 0.0
H518 H 0.04223 0.49003 0.47165 0.0
H519 H 0.08352 0.47332 0.39495 0.0
H520 H 0.09933 0.56974 0.41146 0.0
H521 H 0.07784 0.52604 0.39962 0.0
H522 H 0.09438 0.49566 0.4813 0.0
H523 H 0.1165 0.53937 0.49297 0.0
C524 C 0.02255 0.46127 0.44486 0.0
C525 C 0.02288 0.44812 0.41916 0.0
C526 C 0.04383 0.47897 0.4524 0.0
C527 C 0.06565 0.48415 0.43423 0.0
C528 C 0.06687 0.46969 0.40928 0.0
C529 C 0.04579 0.45159 0.40192 0.0
C530 C 0.09929 0.55334 0.42651 0.0
C531 C 0.10956 0.55784 0.45305 0.0
C532 C 0.08706 0.52831 0.41975 0.0
C533 C 0.08437 0.50753 0.4396 0.0
C534 C 0.09623 0.51138 0.46564 0.0
C535 C 0.10904 0.53627 0.47223 0.0
H536 H 0.90374 0.92492 0.41488 0.0
H537 H 0.88568 0.95267 0.49713 0.0
H538 H 0.92407 0.9695 0.40421 0.0
H539 H 0.90668 0.99725 0.48664 0.0
H540 H 0.9948 0.03735 0.4641 0.0
H541 H 0.95871 0.00497 0.47686 0.0
H542 H 0.91631 0.02215 0.40089 0.0
H543 H 0.95232 0.05486 0.38817 0.0
C544 C 0.90337 0.9409 0.43038 0.0
C545 C 0.89312 0.93546 0.45675 0.0
C546 C 0.91492 0.96643 0.42427 0.0
C547 C 0.91697 0.98679 0.44463 0.0
C548 C 0.90528 0.9819 0.47059 0.0
C549 C 0.89313 0.9565 0.47651 0.0
C550 C 0.97738 0.03479 0.45047 0.0
C551 C 0.97653 0.04836 0.42499 0.0
C552 C 0.95662 0.0164 0.45787 0.0
C553 C 0.93483 0.01095 0.43976 0.0
C554 C 0.93296 0.02595 0.41516 0.0
C555 C 0.95351 0.04473 0.40795 0.0
H556 H 0.39642 0.57 0.59272 0.0
H557 H 0.37949 0.54411 0.50966 0.0
H558 H 0.41632 0.52516 0.60277 0.0
H559 H 0.39994 0.49916 0.51955 0.0
H560 H 0.44816 0.44161 0.61744 0.0
H561 H 0.41078 0.47298 0.60538 0.0
H562 H 0.45128 0.49168 0.5287 0.0
H563 H 0.48862 0.46055 0.54073 0.0
C564 C 0.3961 0.55431 0.57693 0.0
C565 C 0.38649 0.56044 0.55047 0.0
C566 C 0.4074 0.52861 0.58267 0.0
C567 C 0.4098 0.50873 0.56188 0.0
C568 C 0.39834 0.51416 0.53592 0.0
C569 C 0.38649 0.53977 0.53033 0.0
C570 C 0.44865 0.45178 0.59765 0.0
C571 C 0.47151 0.44901 0.58022 0.0
C572 C 0.4273 0.46977 0.59081 0.0
C573 C 0.42824 0.48488 0.56621 0.0
C574 C 0.44988 0.48015 0.54769 0.0
C575 C 0.47139 0.46251 0.5547 0.0
H576 H 0.61313 0.55885 0.0528 0.0
H577 H 0.53638 0.51746 0.03638 0.0
H578 H 0.60082 0.59465 0.01969 0.0
H579 H 0.52406 0.55325 0.00356 0.0
H580 H 0.58777 0.60486 0.92233 0.0
H581 H 0.59784 0.58629 0.96774 0.0
H582 H 0.51491 0.60434 0.99363 0.0
H583 H 0.50498 0.62346 0.9481 0.0
C584 C 0.59325 0.55791 0.04286 0.0
C585 C 0.57587 0.53519 0.04684 0.0
C586 C 0.58627 0.57833 0.02384 0.0
C587 C 0.5616 0.57659 0.00892 0.0
C588 C 0.54312 0.55524 0.01488 0.0
C589 C 0.55026 0.53464 0.03353 0.0
C590 C 0.57201 0.60574 0.93804 0.0
C591 C 0.54565 0.61554 0.93178 0.0
C592 C 0.57779 0.59522 0.96407 0.0
C593 C 0.55712 0.59381 0.98419 0.0
C594 C 0.5312 0.60521 0.97848 0.0
C595 C 0.52558 0.61628 0.95252 0.0
H596 H 0.4593 0.0032 0.03308 0.0
H597 H 0.38888 0.95393 0.05528 0.0
H598 H 0.47417 0.96757 1.00107 0.0
H599 H 0.40369 0.91836 0.02293 0.0
H600 H 0.50011 0.89459 0.95105 0.0
H601 H 0.48908 0.91652 0.99508 0.0
H602 H 0.40433 0.924 0.96997 0.0
H603 H 0.41548 0.90274 0.92596 0.0
C604 C 0.44732 0.98449 0.03152 0.0
C605 C 0.42275 0.98147 0.0464 0.0
C606 C 0.45596 0.964 0.01338 0.0
C607 C 0.43999 0.94028 0.00947 0.0
C608 C 0.41631 0.9365 0.02556 0.0
C609 C 0.40791 0.95681 0.04409 0.0
C610 C 0.47898 0.90005 0.95542 0.0
C611 C 0.45857 0.89697 0.93526 0.0
C612 C 0.47272 0.91275 0.98047 0.0
C613 C 0.44587 0.92195 0.98588 0.0
C614 C 0.42512 0.91683 0.9665 0.0
C615 C 0.43149 0.90474 0.9413 0.0
H616 H 0.50928 0.3805 0.54134 0.0
H617 H 0.59221 0.39786 0.56741 0.0
H618 H 0.51931 0.40062 0.49627 0.0
H619 H 0.60238 0.41744 0.52246 0.0
H620 H 0.54076 0.48876 0.45645 0.0
H621 H 0.52845 0.4518 0.48792 0.0
H622 H 0.60535 0.41114 0.47042 0.0
H623 H 0.61767 0.44816 0.4387 0.0
C624 C 0.52994 0.38757 0.53704 0.0
C625 C 0.55001 0.38774 0.55777 0.0
C626 C 0.53562 0.39922 0.51135 0.0
C627 C 0.56159 0.41065 0.5059 0.0
C628 C 0.58228 0.40852 0.52591 0.0
C629 C 0.57646 0.39741 0.55169 0.0
C630 C 0.55469 0.47153 0.45872 0.0
C631 C 0.58035 0.47154 0.44546 0.0
C632 C 0.54755 0.45024 0.47657 0.0
C633 C 0.56607 0.42871 0.48178 0.0
C634 C 0.59078 0.42759 0.46686 0.0
C635 C 0.59776 0.44872 0.44864 0.0
H636 H 0.50065 0.11077 0.53803 0.0
H637 H 0.41565 0.1036 0.56215 0.0
H638 H 0.49012 0.08794 0.49435 0.0
H639 H 0.40502 0.0813 0.51864 0.0
H640 H 0.46209 0.99986 0.45967 0.0
H641 H 0.47658 0.03763 0.48914 0.0
H642 H 0.40392 0.08329 0.46665 0.0
H643 H 0.38932 0.04543 0.43705 0.0
C644 C 0.47954 0.10537 0.53347 0.0
C645 C 0.45889 0.1089 0.55332 0.0
C646 C 0.47357 0.09214 0.50863 0.0
C647 C 0.44678 0.08276 0.50315 0.0
C648 C 0.42578 0.08855 0.5221 0.0
C649 C 0.43185 0.10124 0.54705 0.0
C650 C 0.44951 0.01821 0.46051 0.0
C651 C 0.42431 0.01946 0.44645 0.0
C652 C 0.45796 0.03997 0.47719 0.0
C653 C 0.44125 0.06331 0.48035 0.0
C654 C 0.41708 0.06544 0.4647 0.0
C655 C 0.40878 0.04379 0.44772 0.0
H656 H 0.05485 0.61544 0.55645 0.0
H657 H 0.04027 0.5384 0.51493 0.0
H658 H 0.02112 0.60279 0.59156 0.0
H659 H 0.00688 0.5257 0.55009 0.0
H660 H 0.92367 0.58873 0.59934 0.0
H661 H 0.96926 0.59905 0.58132 0.0
H662 H 0.99593 0.51684 0.6014 0.0
H663 H 0.95019 0.50668 0.62004 0.0
C664 C 0.04521 0.59541 0.55538 0.0
C665 C 0.04987 0.57805 0.5328 0.0
C666 C 0.02584 0.58824 0.57539 0.0
C667 C 0.01125 0.56339 0.57339 0.0
C668 C 0.01793 0.54491 0.55226 0.0
C669 C 0.03691 0.55225 0.53203 0.0
C670 C 0.93955 0.57318 0.60071 0.0
C671 C 0.9335 0.54696 0.61103 0.0
C672 C 0.96568 0.57911 0.59054 0.0
C673 C 0.98613 0.55873 0.58997 0.0
C674 C 0.98053 0.53291 0.60168 0.0
C675 C 0.95446 0.52716 0.61244 0.0
H676 H 0.94777 0.8748 0.55871 0.0
H677 H 0.96151 0.95326 0.51959 0.0
H678 H 0.98122 0.88679 0.59431 0.0
H679 H 0.99465 0.96527 0.55516 0.0
H680 H 0.05145 0.98351 0.62415 0.0
H681 H 0.00564 0.97306 0.60604 0.0
H682 H 0.03281 0.89122 0.58509 0.0
H683 H 0.07847 0.9018 0.60271 0.0
C684 C 0.95716 0.89498 0.55829 0.0
C685 C 0.95236 0.91297 0.53623 0.0
C686 C 0.97638 0.90177 0.57857 0.0
C687 C 0.99067 0.92685 0.57736 0.0
C688 C 0.98383 0.94588 0.55676 0.0
C689 C 0.96499 0.93893 0.53629 0.0
C690 C 0.04729 0.96301 0.61653 0.0
C691 C 0.06844 0.94345 0.61468 0.0
C692 C 0.02116 0.9571 0.60606 0.0
C693 C 0.0157 0.93136 0.59412 0.0
C694 C 0.03629 0.91112 0.59445 0.0
C695 C 0.06247 0.9172 0.60441 0.0
H696 H 0.03613 0.46602 1.00087 0.0
H697 H 0.05458 0.39144 0.95639 0.0
H698 H 0.00425 0.47973 0.96473 0.0
H699 H 0.02246 0.40517 0.92025 0.0
H700 H 0.95294 0.50231 0.89188 0.0
H701 H 0.99703 0.49147 0.9137 0.0
H702 H 0.97019 0.40781 0.92605 0.0
H703 H 0.92619 0.41873 0.90474 0.0
C704 C 0.03384 0.45286 0.98305 0.0
C705 C 0.04752 0.42746 0.98163 0.0
C706 C 0.01576 0.46083 0.96225 0.0
C707 C 0.01076 0.4434 0.9398 0.0
C708 C 0.02587 0.4189 0.93743 0.0
C709 C 0.0443 0.41111 0.95806 0.0
C710 C 0.95687 0.48142 0.89848 0.0
C711 C 0.93623 0.46132 0.89673 0.0
C712 C 0.98199 0.47528 0.91108 0.0
C713 C 0.98698 0.44883 0.92159 0.0
C714 C 0.96706 0.42828 0.91787 0.0
C715 C 0.94183 0.43454 0.90579 0.0
H716 H 0.05113 0.01602 0.88827 0.0
H717 H 0.08482 0.09578 0.9075 0.0
H718 H 0.00807 0.0288 0.91101 0.0
H719 H 0.04173 0.10868 0.92973 0.0
H720 H 0.9691 0.05075 0.999 0.0
H721 H 1.0016 0.0376 0.96314 0.0
H722 H 0.98924 0.11578 0.9231 0.0
H723 H 0.95631 0.12889 0.9589 0.0
C724 C 0.049 0.03658 0.89651 0.0
C725 C 0.07127 0.05494 0.89619 0.0
C726 C 0.02444 0.04381 0.90965 0.0
C727 C 0.02161 0.0697 0.92214 0.0
C728 C 0.04323 0.08871 0.92002 0.0
C729 C 0.06791 0.0813 0.90739 0.0
C730 C 0.97281 0.06486 0.98216 0.0
C731 C 0.96037 0.09092 0.98182 0.0
C732 C 0.99127 0.05726 0.96155 0.0
C733 C 0.998 0.07573 0.94042 0.0
C734 C 0.98442 0.10121 0.93922 0.0
C735 C 0.96551 0.10863 0.9596 0.0
H736 H 0.54773 0.06645 0.55082 0.0
H737 H 0.52545 0.01649 0.62039 0.0
H738 H 0.58426 0.03367 0.53893 0.0
H739 H 0.5604 0.98324 0.60827 0.0
H740 H 0.62358 0.92527 0.58969 0.0
H741 H 0.60523 0.96949 0.60433 0.0
H742 H 0.58772 0.98983 0.51954 0.0
H743 H 0.60851 0.94662 0.50512 0.0
C744 C 0.55113 0.04868 0.5638 0.0
C745 C 0.5342 0.04387 0.58659 0.0
C746 C 0.57179 0.02977 0.55692 0.0
C747 C 0.57549 0.00563 0.57257 0.0
C748 C 0.55892 1.00173 0.596 0.0
C749 C 0.53863 0.02066 0.60292 0.0
C750 C 0.61681 0.9398 0.57424 0.0
C751 C 0.6173 0.9327 0.54639 0.0
C752 C 0.6059 0.96498 0.58256 0.0
C753 C 0.59402 0.983 0.56325 0.0
C754 C 0.59669 0.97672 0.5351 0.0
C755 C 0.60857 0.95189 0.52675 0.0
H756 H 0.61884 0.08533 0.90254 0.0
H757 H 0.61131 0.05576 0.98568 0.0
H758 H 0.59967 0.04237 0.88537 0.0
H759 H 0.5902 0.01346 0.96888 0.0
H760 H 0.5527 0.93719 0.93191 0.0
H761 H 0.58828 0.97091 0.94443 0.0
H762 H 0.55425 0.02774 0.88509 0.0
H763 H 0.51994 0.99402 0.87246 0.0
C764 C 0.61349 0.06932 0.91707 0.0
C765 C 0.61644 0.07373 0.94534 0.0
C766 C 0.60223 0.04481 0.90733 0.0
C767 C 0.59264 0.02462 0.92573 0.0
C768 C 0.59748 0.02833 0.95402 0.0
C769 C 0.60953 0.05261 0.96372 0.0
C770 C 0.55361 0.95666 0.92115 0.0
C771 C 0.53393 0.96315 0.90115 0.0
C772 C 0.57371 0.97606 0.92843 0.0
C773 C 0.5743 0.00215 0.91577 0.0
C774 C 0.55506 0.00781 0.89494 0.0
C775 C 0.53518 0.98857 0.88777 0.0
H776 H 0.44738 0.55514 0.86815 0.0
H777 H 0.48284 0.54593 0.94893 0.0
H778 H 0.41203 0.52128 0.87993 0.0
H779 H 0.44746 0.51246 0.96075 0.0
H780 H 0.40172 0.42509 0.90025 0.0
H781 H 0.42111 0.46968 0.88801 0.0
H782 H 0.3959 0.50229 0.96656 0.0
H783 H 0.37605 0.45765 0.97866 0.0
C784 C 0.44704 0.54663 0.88871 0.0
C785 C 0.46797 0.55294 0.90756 0.0
C786 C 0.42693 0.52715 0.89538 0.0
C787 C 0.42713 0.51414 0.92117 0.0
C788 C 0.44665 0.5223 0.94079 0.0
C789 C 0.46699 0.54135 0.93398 0.0
C790 C 0.39957 0.44202 0.91454 0.0
C791 C 0.38749 0.43792 0.9404 0.0
C792 C 0.41055 0.46758 0.9075 0.0
C793 C 0.41007 0.48942 0.92638 0.0
C794 C 0.39655 0.48577 0.95165 0.0
C795 C 0.3851 0.46029 0.9585 0.0
H796 H 0.90439 0.07556 0.099 0.0
H797 H 0.89294 0.05007 0.01487 0.0
H798 H 0.92586 0.0315 0.10952 0.0
H799 H 0.91503 0.00601 0.02526 0.0
H800 H 0.0027 0.96812 0.05119 0.0
H801 H 0.96632 0.99988 0.03775 0.0
H802 H 0.9207 0.97876 0.11084 0.0
H803 H 0.95705 0.94672 0.12427 0.0
C804 C 0.90568 0.06012 0.08301 0.0
C805 C 0.89699 0.06611 0.0562 0.0
C806 C 0.9179 0.03489 0.08901 0.0
C807 C 0.92218 0.0154 0.06816 0.0
C808 C 0.91195 0.02071 0.04168 0.0
C809 C 0.89914 0.04579 0.03581 0.0
C810 C 0.9846 0.96976 0.06406 0.0
C811 C 0.98288 0.95523 0.08896 0.0
C812 C 0.96367 0.98776 0.05625 0.0
C813 C 0.94078 0.99185 0.07335 0.0
C814 C 0.9382 0.97602 0.09736 0.0
C815 C 0.95896 0.95765 0.10497 0.0
H816 H 0.9662 0.17573 0.35205 0.0
H817 H 0.05087 0.18298 0.32683 0.0
H818 H 0.95951 0.22453 0.34401 0.0
H819 H 0.04397 0.23168 0.31732 0.0
H820 H 0.03318 0.32133 0.34724 0.0
H821 H 0.04005 0.27217 0.342 0.0
H822 H 0.95542 0.26314 0.31651 0.0
H823 H 0.94836 0.31226 0.32325 0.0
C824 C 0.98318 0.18759 0.34391 0.0
C825 C 0.00912 0.17546 0.3403 0.0
C826 C 0.97935 0.21575 0.33916 0.0
C827 C 1.00128 0.23252 0.33028 0.0
C828 C 0.02673 0.21981 0.32483 0.0
C829 C 0.03065 0.19173 0.32999 0.0
C830 C 0.01622 0.30896 0.33987 0.0
C831 C 0.99017 0.32074 0.33589 0.0
C832 C 0.02014 0.28058 0.33679 0.0
C833 C 0.99819 0.26323 0.32923 0.0
C834 C 0.97267 0.2755 0.32313 0.0
C835 C 0.96867 0.30382 0.32665 0.0
H836 H 0.03333 0.67997 0.16511 0.0
H837 H 0.94853 0.6904 0.1888 0.0
H838 H 0.0409 0.729 0.17019 0.0
H839 H 0.9563 0.73947 0.19528 0.0
H840 H 0.96918 0.82685 0.15984 0.0
H841 H 0.96138 0.77815 0.16775 0.0
H842 H 0.04538 0.76921 0.19527 0.0
H843 H 0.0534 0.81776 0.1859 0.0
C844 C 0.01649 0.69262 0.17231 0.0
C845 C 0.99027 0.68122 0.17631 0.0
C846 C 0.02083 0.72093 0.17533 0.0
C847 C 0.99914 0.73864 0.1828 0.0
C848 C 0.97339 0.7268 0.18878 0.0
C849 C 0.96897 0.69852 0.18539 0.0
C850 C 0.98582 0.8146 0.16813 0.0
C851 C 0.01197 0.82618 0.17201 0.0
C852 C 0.98135 0.78652 0.17279 0.0
C853 C 0.00283 0.76929 0.18185 0.0
C854 C 0.02848 0.78145 0.18759 0.0
C855 C 0.03304 0.80944 0.18251 0.0
H856 H 0.3556 0.96443 0.178 0.0
H857 H 0.32632 0.04771 0.18616 0.0
H858 H 0.34729 0.95666 0.22666 0.0
H859 H 0.3166 0.03968 0.23461 0.0
H860 H 0.34677 0.02929 0.32405 0.0
H861 H 0.34171 0.03636 0.27497 0.0
H862 H 0.31914 0.951 0.26499 0.0
H863 H 0.32558 0.94376 0.31414 0.0
C864 C 0.34655 0.98083 0.19003 0.0
C865 C 0.34187 0.00676 0.17825 0.0
C866 C 0.34165 0.97638 0.21806 0.0
C867 C 0.33157 0.99764 0.23499 0.0
C868 C 0.32506 0.02299 0.22259 0.0
C869 C 0.33037 0.02755 0.19467 0.0
C870 C 0.34008 0.01217 0.31151 0.0
C871 C 0.33682 0.98591 0.32305 0.0
C872 C 0.33709 0.01622 0.28318 0.0
C873 C 0.33039 0.99418 0.26561 0.0
C874 C 0.32504 0.96836 0.27759 0.0
C875 C 0.3284 0.96424 0.3059 0.0
H876 H 0.67398 0.45717 0.1795 0.0
H877 H 0.64725 0.54162 0.17599 0.0
H878 H 0.68324 0.462 0.22846 0.0
H879 H 0.65505 0.54622 0.2251 0.0
H880 H 0.67578 0.55336 0.31347 0.0
H881 H 0.68245 0.5489 0.26403 0.0
H882 H 0.65808 0.46358 0.26885 0.0
H883 H 0.65285 0.46786 0.31828 0.0
C884 C 0.67044 0.47692 0.18914 0.0
C885 C 0.65978 0.49898 0.17384 0.0
C886 C 0.67545 0.47963 0.21737 0.0
C887 C 0.66947 0.50437 0.2312 0.0
C888 C 0.66027 0.52689 0.21543 0.0
C889 C 0.65569 0.52427 0.18711 0.0
C890 C 0.67259 0.53347 0.30401 0.0
C891 C 0.66369 0.511 0.31985 0.0
C892 C 0.67608 0.53095 0.27553 0.0
C893 C 0.67034 0.506 0.26201 0.0
C894 C 0.66304 0.48311 0.27824 0.0
C895 C 0.65995 0.48554 0.30677 0.0
H896 H 0.3097 0.32364 0.94789 0.0
H897 H 0.32048 0.34881 0.03219 0.0
H898 H 0.26068 0.31723 0.956 0.0
H899 H 0.27147 0.34387 0.04007 0.0
H900 H 0.18284 0.32855 0.05321 0.0
H901 H 0.2313 0.31879 0.04514 0.0
H902 H 0.22215 0.34493 0.96071 0.0
H903 H 0.17356 0.35322 0.96858 0.0
C904 C 0.30165 0.32742 0.96829 0.0
C905 C 0.31901 0.33686 0.98935 0.0
C906 C 0.27341 0.32406 0.9729 0.0
C907 C 0.26169 0.33048 0.99859 0.0
C908 C 0.27947 0.33837 0.02007 0.0
C909 C 0.30775 0.34132 0.01555 0.0
C910 C 0.19109 0.33152 0.03275 0.0
C911 C 0.17435 0.34179 0.01158 0.0
C912 C 0.21902 0.32622 0.02816 0.0
C913 C 0.23109 0.33151 0.00237 0.0
C914 C 0.21383 0.34026 0.9808 0.0
C915 C 0.18581 0.34513 0.98531 0.0
H916 H 0.17936 0.6493 0.54015 0.0
H917 H 0.18297 0.6764 0.45584 0.0
H918 H 0.22833 0.65768 0.54503 0.0
H919 H 0.2318 0.68625 0.46096 0.0
H920 H 0.3163 0.67873 0.55284 0.0
H921 H 0.26691 0.68551 0.548 0.0
H922 H 0.2724 0.66146 0.46264 0.0
H923 H 0.32178 0.65616 0.4673 0.0
C924 C 0.19046 0.65793 0.52289 0.0
C925 C 0.17728 0.66195 0.49755 0.0
C926 C 0.21869 0.66287 0.52568 0.0
C927 C 0.23446 0.67236 0.50327 0.0
C928 C 0.2207 0.67826 0.4785 0.0
C929 C 0.19256 0.67289 0.47561 0.0
C930 C 0.30701 0.67567 0.53285 0.0
C931 C 0.32299 0.66678 0.51049 0.0
C932 C 0.27856 0.67922 0.53012 0.0
C933 C 0.26524 0.67351 0.50506 0.0
C934 C 0.28164 0.66636 0.48226 0.0
C935 C 0.31014 0.66324 0.4849 0.0
H936 H 0.68157 0.83679 0.46501 0.0
H937 H 0.6858 0.81269 0.55018 0.0
H938 H 0.73098 0.83113 0.46083 0.0
H939 H 0.73515 0.80547 0.54581 0.0
H940 H 0.82052 0.81634 0.45504 0.0
H941 H 0.7716 0.80647 0.4592 0.0
H942 H 0.77388 0.83294 0.544 0.0
H943 H 0.82292 0.84128 0.54004 0.0
C944 C 0.69294 0.82927 0.4826 0.0
C945 C 0.67976 0.82544 0.50798 0.0
C946 C 0.72145 0.82594 0.48024 0.0
C947 C 0.73751 0.81827 0.50312 0.0
C948 C 0.72381 0.8122 0.5279 0.0
C949 C 0.69538 0.816 0.53036 0.0
C950 C 0.81064 0.81936 0.47475 0.0
C951 C 0.8256 0.82972 0.49717 0.0
C952 C 0.78244 0.81399 0.4771 0.0
C953 C 0.76832 0.81932 0.50181 0.0
C954 C 0.78378 0.82819 0.52467 0.0
C955 C 0.81206 0.83311 0.52242 0.0
H956 H 0.45434 0.8219 0.81724 0.0
H957 H 0.53951 0.82502 0.84145 0.0
H958 H 0.45848 0.77282 0.80839 0.0
H959 H 0.54348 0.77572 0.83412 0.0
H960 H 0.54939 0.687 0.8137 0.0
H961 H 0.54526 0.73651 0.80735 0.0
H962 H 0.46027 0.7323 0.83294 0.0
H963 H 0.46421 0.68276 0.83778 0.0
C964 C 0.4741 0.81212 0.82034 0.0
C965 C 0.49658 0.8274 0.83011 0.0
C966 C 0.47642 0.7838 0.81558 0.0
C967 C 0.50119 0.76979 0.82096 0.0
C968 C 0.52409 0.7855 0.82936 0.0
C969 C 0.52185 0.81393 0.83367 0.0
C970 C 0.52962 0.69661 0.81723 0.0
C971 C 0.50714 0.68088 0.82629 0.0
C972 C 0.52731 0.72516 0.81394 0.0
C973 C 0.50257 0.7389 0.82011 0.0
C974 C 0.47965 0.72278 0.82764 0.0
C975 C 0.48187 0.69418 0.83048 0.0
H976 H 0.55189 0.31647 0.67632 0.0
H977 H 0.46685 0.32217 0.65207 0.0
H978 H 0.54677 0.26711 0.68311 0.0
H979 H 0.46194 0.27281 0.65724 0.0
H980 H 0.45421 0.18349 0.67219 0.0
H981 H 0.45927 0.23239 0.68164 0.0
H982 H 0.54439 0.22802 0.65639 0.0
H983 H 0.5395 0.17893 0.6486 0.0
C984 C 0.53195 0.30722 0.67286 0.0
C985 C 0.50981 0.32328 0.66358 0.0
C986 C 0.52906 0.27877 0.6764 0.0
C987 C 0.50407 0.26549 0.67024 0.0
C988 C 0.48148 0.28198 0.66255 0.0
C989 C 0.48427 0.31048 0.65949 0.0
C990 C 0.47417 0.19292 0.66935 0.0
C991 C 0.49643 0.17733 0.65956 0.0
C992 C 0.47704 0.22111 0.67445 0.0
C993 C 0.50212 0.23467 0.66934 0.0
C994 C 0.52478 0.2186 0.66096 0.0
C995 C 0.522 0.19028 0.65637 0.0
H996 H 0.84699 0.54433 0.82428 0.0
H997 H 0.81492 0.46181 0.82122 0.0
H998 H 0.83964 0.54909 0.77499 0.0
H999 H 0.80596 0.46688 0.77228 0.0
H1000 H 0.81981 0.55607 0.68596 0.0
H1001 H 0.81318 0.55307 0.73553 0.0
H1002 H 0.83113 0.46609 0.73223 0.0
H1003 H 0.83627 0.46901 0.68274 0.0
C1004 C 0.83744 0.52755 0.81321 0.0
C1005 C 0.83174 0.50264 0.82659 0.0
C1006 C 0.83314 0.53023 0.78482 0.0
C1007 C 0.82259 0.50818 0.76918 0.0
C1008 C 0.81491 0.48405 0.78321 0.0
C1009 C 0.81972 0.48122 0.81143 0.0
C1010 C 0.82162 0.53618 0.6958 0.0
C1011 C 0.82863 0.51279 0.68035 0.0
C1012 C 0.81814 0.5345 0.72436 0.0
C1013 C 0.82202 0.50942 0.73833 0.0
C1014 C 0.82757 0.48577 0.72251 0.0
C1015 C 0.83062 0.4874 0.69393 0.0
H1016 H 0.1839 0.94237 0.68692 0.0
H1017 H 0.16562 0.02861 0.67748 0.0
H1018 H 0.19057 0.94908 0.7361 0.0
H1019 H 0.17085 0.03521 0.72661 0.0
H1020 H 0.18728 0.04559 0.81545 0.0
H1021 H 0.19603 0.03762 0.76682 0.0
H1022 H 0.16333 0.95537 0.77481 0.0
H1023 H 0.15609 0.96304 0.82367 0.0
C1024 C 0.18174 0.96288 0.69529 0.0
C1025 C 0.17412 0.98493 0.67824 0.0
C1026 C 0.18523 0.9667 0.72363 0.0
C1027 C 0.18079 0.99262 0.73576 0.0
C1028 C 0.17479 0.01497 0.7183 0.0
C1029 C 0.1717 0.0112 0.68994 0.0
C1030 C 0.18256 0.0256 0.80689 0.0
C1031 C 0.17088 0.00499 0.82341 0.0
C1032 C 0.1873 0.02108 0.77886 0.0
C1033 C 0.17998 0.99598 0.76643 0.0
C1034 C 0.1696 0.97488 0.78341 0.0
C1035 C 0.16532 0.97928 0.81156 0.0
H1036 H 0.82178 0.18335 0.05639 0.0
H1037 H 0.83024 0.16103 0.97104 0.0
H1038 H 0.77297 0.19205 0.04943 0.0
H1039 H 0.7813 0.16829 0.96422 0.0
H1040 H 0.68388 0.16132 0.0371 0.0
H1041 H 0.73301 0.16657 0.04437 0.0
H1042 H 0.74226 0.1954 0.96083 0.0
H1043 H 0.69322 0.18872 0.95333 0.0
C1044 C 0.81326 0.18066 0.03601 0.0
C1045 C 0.82992 0.1714 0.01429 0.0
C1046 C 0.78512 0.18534 0.03205 0.0
C1047 C 0.77273 0.18045 0.00635 0.0
C1048 C 0.78984 0.17265 0.98428 0.0
C1049 C 0.81807 0.16838 0.98816 0.0
C1050 C 0.69631 0.16936 0.02048 0.0
C1051 C 0.68462 0.17438 0.99459 0.0
C1052 C 0.72465 0.17247 0.02463 0.0
C1053 C 0.74204 0.18107 0.00308 0.0
C1054 C 0.72987 0.188 0.97775 0.0
C1055 C 0.7016 0.18448 0.97351 0.0
H1056 H 0.07181 0.98852 0.18484 0.0
H1057 H 0.01509 0.92924 0.21907 0.0
H1058 H 0.06557 0.01778 0.22447 0.0
H1059 H 0.00904 0.95901 0.25932 0.0
H1060 H 0.03932 0.00424 0.33892 0.0
H1061 H 0.03804 0.97524 0.29841 0.0
H1062 H 0.02997 0.04721 0.24716 0.0
H1063 H 0.0313 0.07665 0.28821 0.0
C1064 C 0.05801 0.98155 0.20084 0.0
C1065 C 0.04402 0.95625 0.19862 0.0
C1066 C 0.05422 0.99865 0.22349 0.0
C1067 C 0.03654 0.99098 0.24486 0.0
C1068 C 0.0228 0.96552 0.24309 0.0
C1069 C 0.02637 0.94839 0.22012 0.0
C1070 C 0.03715 0.01402 0.31904 0.0
C1071 C 0.03592 0.04287 0.31675 0.0
C1072 C 0.0361 0.99727 0.29583 0.0
C1073 C 0.03405 0.00886 0.26956 0.0
C1074 C 0.03182 0.03769 0.26718 0.0
C1075 C 0.03249 0.05456 0.29061 0.0
H1076 H 0.9275 0.48311 0.32811 0.0
H1077 H 0.98757 0.42864 0.29174 0.0
H1078 H 0.93288 0.51481 0.29018 0.0
H1079 H 0.99279 0.46082 0.2533 0.0
H1080 H 0.96379 0.50911 0.1756 0.0
H1081 H 0.96502 0.47803 0.2145 0.0
H1082 H 0.96677 0.54737 0.26981 0.0
H1083 H 0.96539 0.57894 0.23029 0.0
C1084 C 0.94184 0.47771 0.31197 0.0
C1085 C 0.95708 0.45305 0.31314 0.0
C1086 C 0.94513 0.49622 0.29032 0.0
C1087 C 0.96356 0.49066 0.2689 0.0
C1088 C 0.97842 0.46576 0.26955 0.0
C1089 C 0.97531 0.44721 0.29149 0.0
C1090 C 0.96463 0.51787 0.19604 0.0
C1091 C 0.96407 0.54658 0.19986 0.0
C1092 C 0.96561 0.49994 0.21837 0.0
C1093 C 0.96584 0.51011 0.24529 0.0
C1094 C 0.96632 0.53888 0.24925 0.0
C1095 C 0.9657 0.55698 0.2267 0.0
H1096 H 0.20072 0.99698 0.95773 0.0
H1097 H 0.21887 0.08225 0.94248 0.0
H1098 H 0.23655 0.99538 0.99269 0.0
H1099 H 0.25618 0.08048 0.97574 0.0
H1100 H 0.29886 0.08317 0.05612 0.0
H1101 H 0.26222 0.08102 0.02218 0.0
H1102 H 0.28141 0.99542 0.00742 0.0
H1103 H 0.31662 0.99746 0.04304 0.0
C1104 C 0.21332 0.01504 0.96102 0.0
C1105 C 0.20731 0.03965 0.94726 0.0
C1106 C 0.23382 0.01425 0.98125 0.0
C1107 C 0.24907 0.038 0.9878 0.0
C1108 C 0.2443 0.06201 0.97226 0.0
C1109 C 0.22335 0.06295 0.95264 0.0
C1110 C 0.29446 0.06371 0.04625 0.0
C1111 C 0.31013 0.04038 0.05251 0.0
C1112 C 0.27389 0.06254 0.02625 0.0
C1113 C 0.26913 0.03822 0.0112 0.0
C1114 C 0.28413 0.01451 0.01848 0.0
C1115 C 0.30425 0.01555 0.03908 0.0
H1116 H 0.6609 0.4801 0.00269 0.0
H1117 H 0.71275 0.47213 0.07419 0.0
H1118 H 0.70113 0.48042 0.97307 0.0
H1119 H 0.75348 0.47233 0.04421 0.0
H1120 H 0.81001 0.4316 0.97946 0.0
H1121 H 0.77066 0.43768 0.00932 0.0
H1122 H 0.74395 0.50673 0.96053 0.0
H1123 H 0.78393 0.50098 0.93039 0.0
C1124 C 0.68102 0.47867 0.01211 0.0
C1125 C 0.6837 0.4757 0.04076 0.0
C1126 C 0.70407 0.47908 0.99509 0.0
C1127 C 0.73044 0.47617 0.00623 0.0
C1128 C 0.73331 0.47432 0.03504 0.0
C1129 C 0.71011 0.47436 0.05221 0.0
C1130 C 0.79579 0.44806 0.9748 0.0
C1131 C 0.80033 0.46585 0.95237 0.0
C1132 C 0.77334 0.4517 0.99224 0.0
C1133 C 0.75452 0.473 0.98766 0.0
C1134 C 0.75826 0.49019 0.96467 0.0
C1135 C 0.78103 0.48676 0.94726 0.0
H1136 H 0.33725 0.9505 0.49488 0.0
H1137 H 0.28628 0.96753 0.42422 0.0
H1138 H 0.29736 0.9525 0.5246 0.0
H1139 H 0.24586 0.96961 0.45446 0.0
H1140 H 0.18056 0.9308 0.51197 0.0
H1141 H 0.22012 0.93494 0.4822 0.0
H1142 H 0.26152 0.9837 0.54357 0.0
H1143 H 0.22141 0.97971 0.57389 0.0
C1144 C 0.31747 0.95473 0.4856 0.0
C1145 C 0.31496 0.95842 0.45697 0.0
C1146 C 0.2946 0.95619 0.50283 0.0
C1147 C 0.26841 0.96116 0.49198 0.0
C1148 C 0.2658 0.96552 0.46342 0.0
C1149 C 0.28891 0.96441 0.44609 0.0
C1150 C 0.198 0.94243 0.51941 0.0
C1151 C 0.19765 0.95484 0.54563 0.0
C1152 C 0.22064 0.94504 0.50202 0.0
C1153 C 0.24386 0.95989 0.51029 0.0
C1154 C 0.24388 0.97208 0.53659 0.0
C1155 C 0.22095 0.96972 0.55402 0.0
H1156 H 0.77467 0.5458 0.57595 0.0
H1157 H 0.82551 0.51436 0.51058 0.0
H1158 H 0.73483 0.54482 0.54523 0.0
H1159 H 0.78591 0.51178 0.48038 0.0
H1160 H 0.71705 0.5401 0.42287 0.0
H1161 H 0.75671 0.53818 0.45377 0.0
H1162 H 0.70262 0.51913 0.52171 0.0
H1163 H 0.66341 0.52265 0.49121 0.0
C1164 C 0.77713 0.53811 0.55521 0.0
C1165 C 0.80312 0.53037 0.54557 0.0
C1166 C 0.75433 0.53745 0.5375 0.0
C1167 C 0.757 0.52848 0.50996 0.0
C1168 C 0.78296 0.51959 0.50099 0.0
C1169 C 0.80568 0.52078 0.51844 0.0
C1170 C 0.71385 0.53533 0.44437 0.0
C1171 C 0.68719 0.53183 0.45467 0.0
C1172 C 0.73654 0.53411 0.46219 0.0
C1173 C 0.73305 0.52877 0.49057 0.0
C1174 C 0.7063 0.52411 0.50035 0.0
C1175 C 0.68376 0.52587 0.48274 0.0
H1176 H 0.00493 0.33962 0.05176 0.0
H1177 H 0.07704 0.29114 0.03341 0.0
H1178 H 0.97659 0.29866 0.05014 0.0
H1179 H 0.04824 0.24968 0.03184 0.0
H1180 H 0.93035 0.22071 0.02226 0.0
H1181 H 0.95904 0.26199 0.0182 0.0
H1182 H 0.02165 0.22347 0.06777 0.0
H1183 H 0.99346 0.18277 0.07206 0.0
C1184 C 0.01481 0.32016 0.04736 0.0
C1185 C 0.04343 0.31862 0.04314 0.0
C1186 C 0.9984 0.29671 0.04612 0.0
C1187 C 0.01012 0.27095 0.04091 0.0
C1188 C 0.03866 0.26931 0.0361 0.0
C1189 C 0.05515 0.29299 0.03694 0.0
C1190 C 0.95013 0.22114 0.03243 0.0
C1191 C 0.95937 0.19833 0.04758 0.0
C1192 C 0.96661 0.24472 0.03002 0.0
C1193 C 0.99278 0.24581 0.04239 0.0
C1194 C 0.00188 0.2231 0.05755 0.0
C1195 C 0.98541 0.19982 0.06024 0.0
H1196 H 0.00871 0.6648 0.48822 0.0
H1197 H 0.07727 0.71551 0.46427 0.0
H1198 H 0.97961 0.70516 0.49205 0.0
H1199 H 0.04777 0.75616 0.46626 0.0
H1200 H 0.99465 0.82794 0.48855 0.0
H1201 H 0.02375 0.78758 0.49207 0.0
H1202 H 0.95549 0.73668 0.46642 0.0
H1203 H 0.92597 0.77734 0.46475 0.0
C1204 C 0.0175 0.68476 0.48371 0.0
C1205 C 0.04518 0.68712 0.47587 0.0
C1206 C 1.00071 0.70794 0.48561 0.0
C1207 C 0.01097 0.73413 0.47908 0.0
C1208 C 0.03903 0.73649 0.47185 0.0
C1209 C 0.05604 0.71323 0.47058 0.0
C1210 C 0.98584 0.808 0.48396 0.0
C1211 C 0.95811 0.8057 0.47625 0.0
C1212 C 0.00263 0.78483 0.4857 0.0
C1213 C 0.99234 0.75865 0.47914 0.0
C1214 C 0.96425 0.75633 0.47202 0.0
C1215 C 0.94723 0.7796 0.47091 0.0
H1216 H 0.57461 0.78002 0.5124 0.0
H1217 H 0.51467 0.82117 0.56354 0.0
H1218 H 0.5438 0.74025 0.50914 0.0
H1219 H 0.48438 0.78193 0.56008 0.0
H1220 H 0.42482 0.71667 0.52781 0.0
H1221 H 0.4554 0.75684 0.5257 0.0
H1222 H 0.52537 0.70445 0.5408 0.0
H1223 H 0.49534 0.66482 0.54286 0.0
C1224 C 0.55509 0.7806 0.52306 0.0
C1225 C 0.54737 0.80389 0.53831 0.0
C1226 C 0.53737 0.75787 0.52111 0.0
C1227 C 0.51145 0.7581 0.53408 0.0
C1228 C 0.50389 0.78128 0.54938 0.0
C1229 C 0.52157 0.80372 0.55158 0.0
C1230 C 0.44672 0.7138 0.53055 0.0
C1231 C 0.45748 0.68757 0.53595 0.0
C1232 C 0.46424 0.73675 0.5294 0.0
C1233 C 0.49286 0.7338 0.53312 0.0
C1234 C 0.50355 0.70746 0.5376 0.0
C1235 C 0.48615 0.68475 0.53911 0.0
H1236 H 0.53944 0.50822 0.82577 0.0
H1237 H 0.52557 0.57907 0.77406 0.0
H1238 H 0.53802 0.4784 0.78601 0.0
H1239 H 0.52407 0.54868 0.7337 0.0
H1240 H 0.56327 0.48965 0.66984 0.0
H1241 H 0.55861 0.51991 0.70896 0.0
H1242 H 0.50756 0.45987 0.74961 0.0
H1243 H 0.51207 0.42907 0.70995 0.0
C1244 C 0.53607 0.51754 0.80584 0.0
C1245 C 0.5331 0.54625 0.80312 0.0
C1246 C 0.53492 0.50025 0.78303 0.0
C1247 C 0.53097 0.51106 0.75666 0.0
C1248 C 0.52736 0.53972 0.7538 0.0
C1249 C 0.52816 0.55715 0.77686 0.0
C1250 C 0.55102 0.48261 0.68703 0.0
C1251 C 0.53814 0.45661 0.6866 0.0
C1252 C 0.54812 0.50028 0.70941 0.0
C1253 C 0.53248 0.49254 0.73229 0.0
C1254 C 0.5198 0.46645 0.73223 0.0
C1255 C 0.52247 0.44873 0.70957 0.0
H1256 H 0.47215 0.92589 0.77487 0.0
H1257 H 0.46941 0.99834 0.82605 0.0
H1258 H 0.47352 0.95551 0.73385 0.0
H1259 H 0.47071 0.02747 0.78567 0.0
H1260 H 0.49543 0.07238 0.7062 0.0
H1261 H 0.49981 0.04221 0.74632 0.0
H1262 H 0.43927 0.98735 0.71191 0.0
H1263 H 0.43464 0.01712 0.67233 0.0
C1264 C 0.47206 0.94801 0.77736 0.0
C1265 C 0.47013 0.95972 0.80363 0.0
C1266 C 0.47275 0.96498 0.75397 0.0
C1267 C 0.47209 0.99388 0.75655 0.0
C1268 C 0.47142 0.00539 0.78291 0.0
C1269 C 0.47034 0.98858 0.80606 0.0
C1270 C 0.48282 0.05409 0.70736 0.0
C1271 C 0.46466 0.04738 0.68593 0.0
C1272 C 0.48546 0.03669 0.73025 0.0
C1273 C 0.4702 0.01212 0.73205 0.0
C1274 C 0.4518 0.00572 0.71087 0.0
C1275 C 0.44895 0.02311 0.68827 0.0
H1276 H 0.45624 0.31232 1.00072 0.0
H1277 H 0.44499 0.29401 0.91492 0.0
H1278 H 0.49305 0.2784 0.00333 0.0
H1279 H 0.48017 0.25855 0.91761 0.0
H1280 H 0.56169 0.21801 0.91766 0.0
H1281 H 0.52661 0.25366 0.91862 0.0
H1282 H 0.50999 0.23448 0.00386 0.0
H1283 H 0.5467 0.20036 0.00304 0.0
C1284 C 0.46086 0.30006 0.98272 0.0
C1285 C 0.44754 0.30545 0.95772 0.0
C1286 C 0.48216 0.28067 0.98409 0.0
C1287 C 0.49035 0.26587 0.96053 0.0
C1288 C 0.47544 0.27008 0.93602 0.0
C1289 C 0.45471 0.28996 0.93453 0.0
C1290 C 0.55119 0.22227 0.93683 0.0
C1291 C 0.55727 0.20689 0.9604 0.0
C1292 C 0.53051 0.24226 0.9373 0.0
C1293 C 0.51457 0.24669 0.96113 0.0
C1294 C 0.52169 0.23204 0.98512 0.0
C1295 C 0.54294 0.21254 0.98478 0.0
loop_
_geom_bond_atom_site_label_1
_geom_bond_atom_site_label_2
_geom_bond_distance
_geom_bond_site_symmetry_2
_ccdc_geom_bond_type
Co0 O1 2.216 1_655 S
Co0 O2 2.091 . S
Co0 O4 2.004 . S
Co0 O10 2.021 . S
Co0 O12 2.137 1_655 S
Co0 O13 2.244 1_655 S
O1 Co0 2.216 1_455 S
O1 C8 1.247 1_455 S
O2 Co0 2.091 . S
O2 C8 1.261 . S
C3 O12 1.247 . S
C3 O13 1.272 . S
O4 Co0 2.004 . S
O4 C9 1.259 . S
Co5 O6 2.061 1_455 S
Co5 O11 2.052 . S
Co5 O13 2.135 . S
O6 Co5 2.061 1_655 S
O6 C9 1.235 . S
C7 O10 1.238 1_455 S
C7 O11 1.241 . S
C8 O1 1.247 1_655 S
C8 O2 1.261 . S
C9 O4 1.259 . S
C9 O6 1.235 . S
O10 Co0 2.021 . S
O10 C7 1.238 1_655 S
O11 Co5 2.052 . S
O11 C7 1.241 . S
O12 Co0 2.137 1_455 S
O12 C3 1.247 . S
O13 Co0 2.244 1_455 S
O13 C3 1.272 . S
O13 Co5 2.135 . S
Co14 O15 2.216 1_455 S
Co14 O16 2.091 . S
Co14 O18 2.004 . S
Co14 O24 2.021 . S
Co14 O26 2.137 1_455 S
Co14 O27 2.244 1_455 S
O15 Co14 2.216 1_655 S
O15 C22 1.247 1_655 S
O16 Co14 2.091 . S
O16 C22 1.261 . S
C17 O26 1.247 . S
C17 O27 1.272 . S
O18 Co14 2.004 . S
O18 C23 1.259 . S
Co19 O20 2.061 1_655 S
Co19 O25 2.052 . S
Co19 O27 2.135 . S
O20 Co19 2.061 1_455 S
O20 C23 1.235 . S
C21 O24 1.238 1_655 S
C21 O25 1.241 . S
C22 O15 1.247 1_455 S
C22 O16 1.261 . S
C23 O18 1.259 . S
C23 O20 1.235 . S
O24 Co14 2.021 . S
O24 C21 1.238 1_455 S
O25 Co19 2.052 . S
O25 C21 1.241 . S
O26 Co14 2.137 1_655 S
O26 C17 1.247 . S
O27 Co14 2.244 1_655 S
O27 C17 1.272 . S
O27 Co19 2.135 . S
Co28 O29 2.216 1_655 S
Co28 O30 2.091 . S
Co28 O32 2.004 . S
Co28 O38 2.021 . S
Co28 O40 2.137 1_655 S
Co28 O41 2.244 1_655 S
O29 Co28 2.216 1_455 S
O29 C36 1.247 1_455 S
O30 Co28 2.091 . S
O30 C36 1.261 . S
C31 O40 1.247 . S
C31 O41 1.272 . S
O32 Co28 2.004 . S
O32 C37 1.259 . S
Co33 O34 2.061 1_455 S
Co33 O39 2.052 . S
Co33 O41 2.135 . S
O34 Co33 2.061 1_655 S
O34 C37 1.235 . S
C35 O38 1.238 1_455 S
C35 O39 1.241 . S
C36 O29 1.247 1_655 S
C36 O30 1.261 . S
C37 O32 1.259 . S
C37 O34 1.235 . S
O38 Co28 2.021 . S
O38 C35 1.238 1_655 S
O39 Co33 2.052 . S
O39 C35 1.241 . S
O40 Co28 2.137 1_455 S
O40 C31 1.247 . S
O41 Co28 2.244 1_455 S
O41 C31 1.272 . S
O41 Co33 2.135 . S
Co42 O43 2.216 1_455 S
Co42 O44 2.091 . S
Co42 O46 2.004 . S
Co42 O52 2.021 . S
Co42 O54 2.137 1_455 S
Co42 O55 2.244 1_455 S
O43 Co42 2.216 1_655 S
O43 C50 1.247 1_655 S
O44 Co42 2.091 . S
O44 C50 1.261 . S
C45 O54 1.247 . S
C45 O55 1.272 . S
O46 Co42 2.004 . S
O46 C51 1.259 . S
Co47 O48 2.061 1_655 S
Co47 O53 2.052 . S
Co47 O55 2.135 . S
O48 Co47 2.061 1_455 S
O48 C51 1.235 . S
C49 O52 1.238 1_655 S
C49 O53 1.241 . S
C50 O43 1.247 1_455 S
C50 O44 1.261 . S
C51 O46 1.259 . S
C51 O48 1.235 . S
O52 Co42 2.021 . S
O52 C49 1.238 1_455 S
O53 Co47 2.052 . S
O53 C49 1.241 . S
O54 Co42 2.137 1_655 S
O54 C45 1.247 . S
O55 Co42 2.244 1_655 S
O55 C45 1.272 . S
O55 Co47 2.135 . S
Co56 O57 2.216 1_565 S
Co56 O58 2.091 . S
Co56 O60 2.004 . S
Co56 O66 2.021 . S
Co56 O68 2.137 1_565 S
Co56 O69 2.244 1_565 S
O57 Co56 2.216 1_545 S
O57 C64 1.247 1_545 S
O58 Co56 2.091 . S
O58 C64 1.261 . S
C59 O68 1.247 . S
C59 O69 1.272 . S
O60 Co56 2.004 . S
O60 C65 1.259 . S
Co61 O62 2.061 1_545 S
Co61 O67 2.052 . S
Co61 O69 2.135 . S
O62 Co61 2.061 1_565 S
O62 C65 1.235 . S
C63 O66 1.238 1_545 S
C63 O67 1.241 . S
C64 O57 1.247 1_565 S
C64 O58 1.261 . S
C65 O60 1.259 . S
C65 O62 1.235 . S
O66 Co56 2.021 . S
O66 C63 1.238 1_565 S
O67 Co61 2.052 . S
O67 C63 1.241 . S
O68 Co56 2.137 1_545 S
O68 C59 1.247 . S
O69 Co56 2.244 1_545 S
O69 C59 1.272 . S
O69 Co61 2.135 . S
Co70 O71 2.216 . S
Co70 O72 2.091 . S
Co70 O74 2.004 . S
Co70 O80 2.021 . S
Co70 O82 2.137 . S
Co70 O83 2.244 . S
O71 Co70 2.216 . S
O71 C78 1.247 . S
O72 Co70 2.091 . S
O72 C78 1.261 . S
C73 O82 1.247 . S
C73 O83 1.272 . S
O74 Co70 2.004 . S
O74 C79 1.259 . S
Co75 O76 2.061 . S
Co75 O81 2.052 . S
Co75 O83 2.135 . S
O76 Co75 2.061 . S
O76 C79 1.235 . S
C77 O80 1.238 . S
C77 O81 1.241 . S
C78 O71 1.247 . S
C78 O72 1.261 . S
C79 O74 1.259 . S
C79 O76 1.235 . S
O80 Co70 2.021 . S
O80 C77 1.238 . S
O81 Co75 2.052 . S
O81 C77 1.241 . S
O82 Co70 2.137 . S
O82 C73 1.247 . S
O83 Co70 2.244 . S
O83 C73 1.272 . S
O83 Co75 2.135 . S
Co84 O85 2.216 1_545 S
Co84 O86 2.091 . S
Co84 O88 2.004 . S
Co84 O94 2.021 . S
Co84 O96 2.137 1_545 S
Co84 O97 2.244 1_545 S
O85 Co84 2.216 1_565 S
O85 C92 1.247 1_565 S
O86 Co84 2.091 . S
O86 C92 1.261 . S
C87 O96 1.247 . S
C87 O97 1.272 . S
O88 Co84 2.004 . S
O88 C93 1.259 . S
Co89 O90 2.061 1_565 S
Co89 O95 2.052 . S
Co89 O97 2.135 . S
O90 Co89 2.061 1_545 S
O90 C93 1.235 . S
C91 O94 1.238 1_565 S
C91 O95 1.241 . S
C92 O85 1.247 1_545 S
C92 O86 1.261 . S
C93 O88 1.259 . S
C93 O90 1.235 . S
O94 Co84 2.021 . S
O94 C91 1.238 1_545 S
O95 Co89 2.052 . S
O95 C91 1.241 . S
O96 Co84 2.137 1_565 S
O96 C87 1.247 . S
O97 Co84 2.244 1_565 S
O97 C87 1.272 . S
O97 Co89 2.135 . S
Co98 O99 2.216 . S
Co98 O100 2.091 . S
Co98 O102 2.004 . S
Co98 O108 2.021 . S
Co98 O110 2.137 . S
Co98 O111 2.244 . S
O99 Co98 2.216 . S
O99 C106 1.247 . S
O100 Co98 2.091 . S
O100 C106 1.261 . S
C101 O110 1.247 . S
C101 O111 1.272 . S
O102 Co98 2.004 . S
O102 C107 1.259 . S
Co103 O104 2.061 . S
Co103 O109 2.052 . S
Co103 O111 2.135 . S
O104 Co103 2.061 . S
O104 C107 1.235 . S
C105 O108 1.238 . S
C105 O109 1.241 . S
C106 O99 1.247 . S
C106 O100 1.261 . S
C107 O102 1.259 . S
C107 O104 1.235 . S
O108 Co98 2.021 . S
O108 C105 1.238 . S
O109 Co103 2.052 . S
O109 C105 1.241 . S
O110 Co98 2.137 . S
O110 C101 1.247 . S
O111 Co98 2.244 . S
O111 C101 1.272 . S
O111 Co103 2.135 . S
Co112 O113 2.216 1_556 S
Co112 O114 2.091 . S
Co112 O116 2.004 . S
Co112 O122 2.021 . S
Co112 O124 2.137 1_556 S
Co112 O125 2.244 1_556 S
O113 Co112 2.216 1_554 S
O113 C120 1.247 1_554 S
O114 Co112 2.091 . S
O114 C120 1.261 . S
C115 O124 1.247 . S
C115 O125 1.272 . S
O116 Co112 2.004 . S
O116 C121 1.259 . S
Co117 O118 2.061 1_554 S
Co117 O123 2.052 . S
Co117 O125 2.135 . S
O118 Co117 2.061 1_556 S
O118 C121 1.235 . S
C119 O122 1.238 1_554 S
C119 O123 1.241 . S
C120 O113 1.247 1_556 S
C120 O114 1.261 . S
C121 O116 1.259 . S
C121 O118 1.235 . S
O122 Co112 2.021 . S
O122 C119 1.238 1_556 S
O123 Co117 2.052 . S
O123 C119 1.241 . S
O124 Co112 2.137 1_554 S
O124 C115 1.247 . S
O125 Co112 2.244 1_554 S
O125 C115 1.272 . S
O125 Co117 2.135 . S
Co126 O127 2.216 . S
Co126 O128 2.091 . S
Co126 O130 2.004 . S
Co126 O136 2.021 . S
Co126 O138 2.137 . S
Co126 O139 2.244 . S
O127 Co126 2.216 . S
O127 C134 1.247 . S
O128 Co126 2.091 . S
O128 C134 1.261 . S
C129 O138 1.247 . S
C129 O139 1.272 . S
O130 Co126 2.004 . S
O130 C135 1.259 . S
Co131 O132 2.061 . S
Co131 O137 2.052 . S
Co131 O139 2.135 . S
O132 Co131 2.061 . S
O132 C135 1.235 . S
C133 O136 1.238 . S
C133 O137 1.241 . S
C134 O127 1.247 . S
C134 O128 1.261 . S
C135 O130 1.259 . S
C135 O132 1.235 . S
O136 Co126 2.021 . S
O136 C133 1.238 . S
O137 Co131 2.052 . S
O137 C133 1.241 . S
O138 Co126 2.137 . S
O138 C129 1.247 . S
O139 Co126 2.244 . S
O139 C129 1.272 . S
O139 Co131 2.135 . S
Co140 O141 2.216 . S
Co140 O142 2.091 . S
Co140 O144 2.004 . S
Co140 O150 2.021 . S
Co140 O152 2.137 . S
Co140 O153 2.244 . S
O141 Co140 2.216 . S
O141 C148 1.247 . S
O142 Co140 2.091 . S
O142 C148 1.261 . S
C143 O152 1.247 . S
C143 O153 1.272 . S
O144 Co140 2.004 . S
O144 C149 1.259 . S
Co145 O146 2.061 . S
Co145 O151 2.052 . S
Co145 O153 2.135 . S
O146 Co145 2.061 . S
O146 C149 1.235 . S
C147 O150 1.238 . S
C147 O151 1.241 . S
C148 O141 1.247 . S
C148 O142 1.261 . S
C149 O144 1.259 . S
C149 O146 1.235 . S
O150 Co140 2.021 . S
O150 C147 1.238 . S
O151 Co145 2.052 . S
O151 C147 1.241 . S
O152 Co140 2.137 . S
O152 C143 1.247 . S
O153 Co140 2.244 . S
O153 C143 1.272 . S
O153 Co145 2.135 . S
Co154 O155 2.216 . S
Co154 O156 2.091 . S
Co154 O158 2.004 . S
Co154 O164 2.021 . S
Co154 O166 2.137 . S
Co154 O167 2.244 . S
O155 Co154 2.216 . S
O155 C162 1.247 . S
O156 Co154 2.091 . S
O156 C162 1.261 . S
C157 O166 1.247 . S
C157 O167 1.272 . S
O158 Co154 2.004 . S
O158 C163 1.259 . S
Co159 O160 2.061 . S
Co159 O165 2.052 . S
Co159 O167 2.135 . S
O160 Co159 2.061 . S
O160 C163 1.235 . S
C161 O164 1.238 . S
C161 O165 1.241 . S
C162 O155 1.247 . S
C162 O156 1.261 . S
C163 O158 1.259 . S
C163 O160 1.235 . S
O164 Co154 2.021 . S
O164 C161 1.238 . S
O165 Co159 2.052 . S
O165 C161 1.241 . S
O166 Co154 2.137 . S
O166 C157 1.247 . S
O167 Co154 2.244 . S
O167 C157 1.272 . S
O167 Co159 2.135 . S
Co168 O169 2.216 . S
Co168 O170 2.091 . S
Co168 O172 2.004 . S
Co168 O178 2.021 . S
Co168 O180 2.137 . S
Co168 O181 2.244 . S
O169 Co168 2.216 . S
O169 C176 1.247 . S
O170 Co168 2.091 . S
O170 C176 1.261 . S
C171 O180 1.247 . S
C171 O181 1.272 . S
O172 Co168 2.004 . S
O172 C177 1.259 . S
Co173 O174 2.061 . S
Co173 O179 2.052 . S
Co173 O181 2.135 . S
O174 Co173 2.061 . S
O174 C177 1.235 . S
C175 O178 1.238 . S
C175 O179 1.241 . S
C176 O169 1.247 . S
C176 O170 1.261 . S
C177 O172 1.259 . S
C177 O174 1.235 . S
O178 Co168 2.021 . S
O178 C175 1.238 . S
O179 Co173 2.052 . S
O179 C175 1.241 . S
O180 Co168 2.137 . S
O180 C171 1.247 . S
O181 Co168 2.244 . S
O181 C171 1.272 . S
O181 Co173 2.135 . S
Co182 O183 2.216 . S
Co182 O184 2.091 . S
Co182 O186 2.004 . S
Co182 O192 2.021 . S
Co182 O194 2.137 . S
Co182 O195 2.244 . S
O183 Co182 2.216 . S
O183 C190 1.247 . S
O184 Co182 2.091 . S
O184 C190 1.261 . S
C185 O194 1.247 . S
C185 O195 1.272 . S
O186 Co182 2.004 . S
O186 C191 1.259 . S
Co187 O188 2.061 . S
Co187 O193 2.052 . S
Co187 O195 2.135 . S
O188 Co187 2.061 . S
O188 C191 1.235 . S
C189 O192 1.238 . S
C189 O193 1.241 . S
C190 O183 1.247 . S
C190 O184 1.261 . S
C191 O186 1.259 . S
C191 O188 1.235 . S
O192 Co182 2.021 . S
O192 C189 1.238 . S
O193 Co187 2.052 . S
O193 C189 1.241 . S
O194 Co182 2.137 . S
O194 C185 1.247 . S
O195 Co182 2.244 . S
O195 C185 1.272 . S
O195 Co187 2.135 . S
Co196 O197 2.216 . S
Co196 O198 2.091 . S
Co196 O200 2.004 . S
Co196 O206 2.021 . S
Co196 O208 2.137 . S
Co196 O209 2.244 . S
O197 Co196 2.216 . S
O197 C204 1.247 . S
O198 Co196 2.091 . S
O198 C204 1.261 . S
C199 O208 1.247 . S
C199 O209 1.272 . S
O200 Co196 2.004 . S
O200 C205 1.259 . S
Co201 O202 2.061 . S
Co201 O207 2.052 . S
Co201 O209 2.135 . S
O202 Co201 2.061 . S
O202 C205 1.235 . S
C203 O206 1.238 . S
C203 O207 1.241 . S
C204 O197 1.247 . S
C204 O198 1.261 . S
C205 O200 1.259 . S
C205 O202 1.235 . S
O206 Co196 2.021 . S
O206 C203 1.238 . S
O207 Co201 2.052 . S
O207 C203 1.241 . S
O208 Co196 2.137 . S
O208 C199 1.247 . S
O209 Co196 2.244 . S
O209 C199 1.272 . S
O209 Co201 2.135 . S
Co210 O211 2.216 . S
Co210 O212 2.091 . S
Co210 O214 2.004 . S
Co210 O220 2.021 . S
Co210 O222 2.137 . S
Co210 O223 2.244 . S
O211 Co210 2.216 . S
O211 C218 1.247 . S
O212 Co210 2.091 . S
O212 C218 1.261 . S
C213 O222 1.247 . S
C213 O223 1.272 . S
O214 Co210 2.004 . S
O214 C219 1.259 . S
Co215 O216 2.061 . S
Co215 O221 2.052 . S
Co215 O223 2.135 . S
O216 Co215 2.061 . S
O216 C219 1.235 . S
C217 O220 1.238 . S
C217 O221 1.241 . S
C218 O211 1.247 . S
C218 O212 1.261 . S
C219 O214 1.259 . S
C219 O216 1.235 . S
O220 Co210 2.021 . S
O220 C217 1.238 . S
O221 Co215 2.052 . S
O221 C217 1.241 . S
O222 Co210 2.137 . S
O222 C213 1.247 . S
O223 Co210 2.244 . S
O223 C213 1.272 . S
O223 Co215 2.135 . S
Co224 O225 2.216 . S
Co224 O226 2.091 . S
Co224 O228 2.004 . S
Co224 O234 2.021 . S
Co224 O236 2.137 . S
Co224 O237 2.244 . S
O225 Co224 2.216 . S
O225 C232 1.247 . S
O226 Co224 2.091 . S
O226 C232 1.261 . S
C227 O236 1.247 . S
C227 O237 1.272 . S
O228 Co224 2.004 . S
O228 C233 1.259 . S
Co229 O230 2.061 . S
Co229 O235 2.052 . S
Co229 O237 2.135 . S
O230 Co229 2.061 . S
O230 C233 1.235 . S
C231 O234 1.238 . S
C231 O235 1.241 . S
C232 O225 1.247 . S
C232 O226 1.261 . S
C233 O228 1.259 . S
C233 O230 1.235 . S
O234 Co224 2.021 . S
O234 C231 1.238 . S
O235 Co229 2.052 . S
O235 C231 1.241 . S
O236 Co224 2.137 . S
O236 C227 1.247 . S
O237 Co224 2.244 . S
O237 C227 1.272 . S
O237 Co229 2.135 . S
Co238 O239 2.216 1_545 S
Co238 O240 2.091 . S
Co238 O242 2.004 . S
Co238 O248 2.021 . S
Co238 O250 2.137 1_545 S
Co238 O251 2.244 1_545 S
O239 Co238 2.216 1_565 S
O239 C246 1.247 1_565 S
O240 Co238 2.091 . S
O240 C246 1.261 . S
C241 O250 1.247 . S
C241 O251 1.272 . S
O242 Co238 2.004 . S
O242 C247 1.259 . S
Co243 O244 2.061 1_565 S
Co243 O249 2.052 . S
Co243 O251 2.135 . S
O244 Co243 2.061 1_545 S
O244 C247 1.235 . S
C245 O248 1.238 1_565 S
C245 O249 1.241 . S
C246 O239 1.247 1_545 S
C246 O240 1.261 . S
C247 O242 1.259 . S
C247 O244 1.235 . S
O248 Co238 2.021 . S
O248 C245 1.238 1_545 S
O249 Co243 2.052 . S
O249 C245 1.241 . S
O250 Co238 2.137 1_565 S
O250 C241 1.247 . S
O251 Co238 2.244 1_565 S
O251 C241 1.272 . S
O251 Co243 2.135 . S
Co252 O253 2.216 . S
Co252 O254 2.091 . S
Co252 O256 2.004 . S
Co252 O262 2.021 . S
Co252 O264 2.137 . S
Co252 O265 2.244 . S
O253 Co252 2.216 . S
O253 C260 1.247 . S
O254 Co252 2.091 . S
O254 C260 1.261 . S
C255 O264 1.247 . S
C255 O265 1.272 . S
O256 Co252 2.004 . S
O256 C261 1.259 . S
Co257 O258 2.061 . S
Co257 O263 2.052 . S
Co257 O265 2.135 . S
O258 Co257 2.061 . S
O258 C261 1.235 . S
C259 O262 1.238 . S
C259 O263 1.241 . S
C260 O253 1.247 . S
C260 O254 1.261 . S
C261 O256 1.259 . S
C261 O258 1.235 . S
O262 Co252 2.021 . S
O262 C259 1.238 . S
O263 Co257 2.052 . S
O263 C259 1.241 . S
O264 Co252 2.137 . S
O264 C255 1.247 . S
O265 Co252 2.244 . S
O265 C255 1.272 . S
O265 Co257 2.135 . S
Co266 O267 2.216 1_565 S
Co266 O268 2.091 . S
Co266 O270 2.004 . S
Co266 O276 2.021 . S
Co266 O278 2.137 1_565 S
Co266 O279 2.244 1_565 S
O267 Co266 2.216 1_545 S
O267 C274 1.247 1_545 S
O268 Co266 2.091 . S
O268 C274 1.261 . S
C269 O278 1.247 . S
C269 O279 1.272 . S
O270 Co266 2.004 . S
O270 C275 1.259 . S
Co271 O272 2.061 1_545 S
Co271 O277 2.052 . S
Co271 O279 2.135 . S
O272 Co271 2.061 1_565 S
O272 C275 1.235 . S
C273 O276 1.238 1_545 S
C273 O277 1.241 . S
C274 O267 1.247 1_565 S
C274 O268 1.261 . S
C275 O270 1.259 . S
C275 O272 1.235 . S
O276 Co266 2.021 . S
O276 C273 1.238 1_565 S
O277 Co271 2.052 . S
O277 C273 1.241 . S
O278 Co266 2.137 1_545 S
O278 C269 1.247 . S
O279 Co266 2.244 1_545 S
O279 C269 1.272 . S
O279 Co271 2.135 . S
Co280 O281 2.216 . S
Co280 O282 2.091 . S
Co280 O284 2.004 . S
Co280 O290 2.021 . S
Co280 O292 2.137 . S
Co280 O293 2.244 . S
O281 Co280 2.216 . S
O281 C288 1.247 . S
O282 Co280 2.091 . S
O282 C288 1.261 . S
C283 O292 1.247 . S
C283 O293 1.272 . S
O284 Co280 2.004 . S
O284 C289 1.259 . S
Co285 O286 2.061 . S
Co285 O291 2.052 . S
Co285 O293 2.135 . S
O286 Co285 2.061 . S
O286 C289 1.235 . S
C287 O290 1.238 . S
C287 O291 1.241 . S
C288 O281 1.247 . S
C288 O282 1.261 . S
C289 O284 1.259 . S
C289 O286 1.235 . S
O290 Co280 2.021 . S
O290 C287 1.238 . S
O291 Co285 2.052 . S
O291 C287 1.241 . S
O292 Co280 2.137 . S
O292 C283 1.247 . S
O293 Co280 2.244 . S
O293 C283 1.272 . S
O293 Co285 2.135 . S
Co294 O295 2.216 1_554 S
Co294 O296 2.091 . S
Co294 O298 2.004 . S
Co294 O304 2.021 . S
Co294 O306 2.137 1_554 S
Co294 O307 2.244 1_554 S
O295 Co294 2.216 1_556 S
O295 C302 1.247 1_556 S
O296 Co294 2.091 . S
O296 C302 1.261 . S
C297 O306 1.247 . S
C297 O307 1.272 . S
O298 Co294 2.004 . S
O298 C303 1.259 . S
Co299 O300 2.061 1_556 S
Co299 O305 2.052 . S
Co299 O307 2.135 . S
O300 Co299 2.061 1_554 S
O300 C303 1.235 . S
C301 O304 1.238 1_556 S
C301 O305 1.241 . S
C302 O295 1.247 1_554 S
C302 O296 1.261 . S
C303 O298 1.259 . S
C303 O300 1.235 . S
O304 Co294 2.021 . S
O304 C301 1.238 1_554 S
O305 Co299 2.052 . S
O305 C301 1.241 . S
O306 Co294 2.137 1_556 S
O306 C297 1.247 . S
O307 Co294 2.244 1_556 S
O307 C297 1.272 . S
O307 Co299 2.135 . S
Co308 O309 2.216 1_554 S
Co308 O310 2.091 . S
Co308 O312 2.004 . S
Co308 O318 2.021 . S
Co308 O320 2.137 1_554 S
Co308 O321 2.244 1_554 S
O309 Co308 2.216 1_556 S
O309 C316 1.247 1_556 S
O310 Co308 2.091 . S
O310 C316 1.261 . S
C311 O320 1.247 . S
C311 O321 1.272 . S
O312 Co308 2.004 . S
O312 C317 1.259 . S
Co313 O314 2.061 1_556 S
Co313 O319 2.052 . S
Co313 O321 2.135 . S
O314 Co313 2.061 1_554 S
O314 C317 1.235 . S
C315 O318 1.238 1_556 S
C315 O319 1.241 . S
C316 O309 1.247 1_554 S
C316 O310 1.261 . S
C317 O312 1.259 . S
C317 O314 1.235 . S
O318 Co308 2.021 . S
O318 C315 1.238 1_554 S
O319 Co313 2.052 . S
O319 C315 1.241 . S
O320 Co308 2.137 1_556 S
O320 C311 1.247 . S
O321 Co308 2.244 1_556 S
O321 C311 1.272 . S
O321 Co313 2.135 . S
Co322 O323 2.216 1_556 S
Co322 O324 2.091 . S
Co322 O326 2.004 . S
Co322 O332 2.021 . S
Co322 O334 2.137 1_556 S
Co322 O335 2.244 1_556 S
O323 Co322 2.216 1_554 S
O323 C330 1.247 1_554 S
O324 Co322 2.091 . S
O324 C330 1.261 . S
C325 O334 1.247 . S
C325 O335 1.272 . S
O326 Co322 2.004 . S
O326 C331 1.259 . S
Co327 O328 2.061 1_554 S
Co327 O333 2.052 . S
Co327 O335 2.135 . S
O328 Co327 2.061 1_556 S
O328 C331 1.235 . S
C329 O332 1.238 1_554 S
C329 O333 1.241 . S
C330 O323 1.247 1_556 S
C330 O324 1.261 . S
C331 O326 1.259 . S
C331 O328 1.235 . S
O332 Co322 2.021 . S
O332 C329 1.238 1_556 S
O333 Co327 2.052 . S
O333 C329 1.241 . S
O334 Co322 2.137 1_554 S
O334 C325 1.247 . S
O335 Co322 2.244 1_554 S
O335 C325 1.272 . S
O335 Co327 2.135 . S
H336 C344 0.950 . S
H337 C349 0.950 . S
H338 C346 0.950 . S
H339 C348 0.950 . S
H340 C350 0.950 . S
H341 C352 0.950 . S
H342 C354 0.950 . S
H343 C355 0.950 . S
C344 H336 0.950 . S
C344 C345 1.386 . S
C344 C346 1.391 . S
C345 C344 1.386 . S
C345 C349 1.393 . S
C346 H338 0.950 . S
C346 C344 1.391 . S
C346 C347 1.400 . S
C347 C346 1.400 . S
C347 C348 1.398 . S
C347 C353 1.491 . S
C348 H339 0.950 . S
C348 C347 1.398 . S
C348 C349 1.391 . S
C349 H337 0.950 . S
C349 C345 1.393 . S
C349 C348 1.391 . S
C350 H340 0.950 . S
C350 C351 1.386 . S
C350 C352 1.391 . S
C351 C350 1.386 . S
C351 C355 1.393 . S
C352 H341 0.950 . S
C352 C350 1.391 . S
C352 C353 1.400 . S
C353 C347 1.491 . S
C353 C352 1.400 . S
C353 C354 1.398 . S
C354 H342 0.950 . S
C354 C353 1.398 . S
C354 C355 1.391 . S
C355 H343 0.950 . S
C355 C351 1.393 . S
C355 C354 1.391 . S
H356 C364 0.950 . S
H357 C369 0.950 . S
H358 C366 0.950 . S
H359 C368 0.950 . S
H360 C370 0.950 . S
H361 C372 0.950 . S
H362 C374 0.950 . S
H363 C375 0.950 . S
C364 H356 0.950 . S
C364 C365 1.386 . S
C364 C366 1.391 . S
C365 C364 1.386 . S
C365 C369 1.393 . S
C366 H358 0.950 . S
C366 C364 1.391 . S
C366 C367 1.400 . S
C367 C366 1.400 . S
C367 C368 1.398 . S
C367 C373 1.491 . S
C368 H359 0.950 . S
C368 C367 1.398 . S
C368 C369 1.391 . S
C369 H357 0.950 . S
C369 C365 1.393 . S
C369 C368 1.391 . S
C370 H360 0.950 . S
C370 C371 1.386 . S
C370 C372 1.391 . S
C371 C370 1.386 . S
C371 C375 1.393 . S
C372 H361 0.950 . S
C372 C370 1.391 . S
C372 C373 1.400 . S
C373 C367 1.491 . S
C373 C372 1.400 . S
C373 C374 1.398 . S
C374 H362 0.950 . S
C374 C373 1.398 . S
C374 C375 1.391 . S
C375 H363 0.950 . S
C375 C371 1.393 . S
C375 C374 1.391 . S
H376 C384 0.950 . S
H377 C389 0.950 . S
H378 C386 0.950 . S
H379 C388 0.950 . S
H380 C390 0.950 . S
H381 C392 0.950 . S
H382 C394 0.950 1_554 S
H383 C395 0.950 . S
C384 H376 0.950 . S
C384 C385 1.386 . S
C384 C386 1.391 . S
C385 C384 1.386 . S
C385 C389 1.393 . S
C386 H378 0.950 . S
C386 C384 1.391 . S
C386 C387 1.400 . S
C387 C386 1.400 . S
C387 C388 1.398 . S
C387 C393 1.491 . S
C388 H379 0.950 . S
C388 C387 1.398 . S
C388 C389 1.391 . S
C389 H377 0.950 . S
C389 C385 1.393 . S
C389 C388 1.391 . S
C390 H380 0.950 . S
C390 C391 1.386 . S
C390 C392 1.391 1_556 S
C391 C390 1.386 . S
C391 C395 1.393 . S
C392 H381 0.950 . S
C392 C390 1.391 1_554 S
C392 C393 1.400 . S
C393 C387 1.491 . S
C393 C392 1.400 . S
C393 C394 1.398 1_554 S
C394 H382 0.950 1_556 S
C394 C393 1.398 1_556 S
C394 C395 1.391 . S
C395 H383 0.950 . S
C395 C391 1.393 . S
C395 C394 1.391 . S
H396 C404 0.950 . S
H397 C409 0.950 . S
H398 C406 0.950 . S
H399 C408 0.950 . S
H400 C410 0.950 . S
H401 C412 0.950 . S
H402 C414 0.950 . S
H403 C415 0.950 . S
C404 H396 0.950 . S
C404 C405 1.386 . S
C404 C406 1.391 . S
C405 C404 1.386 . S
C405 C409 1.393 . S
C406 H398 0.950 . S
C406 C404 1.391 . S
C406 C407 1.400 . S
C407 C406 1.400 . S
C407 C408 1.398 . S
C407 C413 1.491 . S
C408 H399 0.950 . S
C408 C407 1.398 . S
C408 C409 1.391 . S
C409 H397 0.950 . S
C409 C405 1.393 . S
C409 C408 1.391 . S
C410 H400 0.950 . S
C410 C411 1.386 . S
C410 C412 1.391 1_556 S
C411 C410 1.386 . S
C411 C415 1.393 . S
C412 H401 0.950 . S
C412 C410 1.391 1_554 S
C412 C413 1.400 . S
C413 C407 1.491 . S
C413 C412 1.400 . S
C413 C414 1.398 1_554 S
C414 H402 0.950 . S
C414 C413 1.398 1_556 S
C414 C415 1.391 . S
C415 H403 0.950 . S
C415 C411 1.393 . S
C415 C414 1.391 . S
H416 C424 0.950 . S
H417 C429 0.950 . S
H418 C426 0.950 . S
H419 C428 0.950 . S
H420 C430 0.950 . S
H421 C432 0.950 . S
H422 C434 0.950 . S
H423 C435 0.950 . S
C424 H416 0.950 . S
C424 C425 1.386 . S
C424 C426 1.391 . S
C425 C424 1.386 . S
C425 C429 1.393 . S
C426 H418 0.950 . S
C426 C424 1.391 . S
C426 C427 1.400 . S
C427 C426 1.400 . S
C427 C428 1.398 . S
C427 C433 1.491 . S
C428 H419 0.950 . S
C428 C427 1.398 . S
C428 C429 1.391 . S
C429 H417 0.950 . S
C429 C425 1.393 . S
C429 C428 1.391 . S
C430 H420 0.950 . S
C430 C431 1.386 . S
C430 C432 1.391 . S
C431 C430 1.386 . S
C431 C435 1.393 . S
C432 H421 0.950 . S
C432 C430 1.391 . S
C432 C433 1.400 . S
C433 C427 1.491 . S
C433 C432 1.400 . S
C433 C434 1.398 . S
C434 H422 0.950 . S
C434 C433 1.398 . S
C434 C435 1.391 . S
C435 H423 0.950 . S
C435 C431 1.393 . S
C435 C434 1.391 . S
H436 C444 0.950 . S
H437 C449 0.950 . S
H438 C446 0.950 . S
H439 C448 0.950 . S
H440 C450 0.950 . S
H441 C452 0.950 . S
H442 C454 0.950 . S
H443 C455 0.950 . S
C444 H436 0.950 . S
C444 C445 1.386 . S
C444 C446 1.391 . S
C445 C444 1.386 . S
C445 C449 1.393 . S
C446 H438 0.950 . S
C446 C444 1.391 . S
C446 C447 1.400 . S
C447 C446 1.400 . S
C447 C448 1.398 . S
C447 C453 1.491 . S
C448 H439 0.950 . S
C448 C447 1.398 . S
C448 C449 1.391 . S
C449 H437 0.950 . S
C449 C445 1.393 . S
C449 C448 1.391 . S
C450 H440 0.950 . S
C450 C451 1.386 . S
C450 C452 1.391 . S
C451 C450 1.386 . S
C451 C455 1.393 . S
C452 H441 0.950 . S
C452 C450 1.391 . S
C452 C453 1.400 . S
C453 C447 1.491 . S
C453 C452 1.400 . S
C453 C454 1.398 . S
C454 H442 0.950 . S
C454 C453 1.398 . S
C454 C455 1.391 . S
C455 H443 0.950 . S
C455 C451 1.393 . S
C455 C454 1.391 . S
H456 C464 0.950 . S
H457 C469 0.950 . S
H458 C466 0.950 . S
H459 C468 0.950 . S
H460 C470 0.950 . S
H461 C472 0.950 . S
H462 C474 0.950 . S
H463 C475 0.950 . S
C464 H456 0.950 . S
C464 C465 1.386 . S
C464 C466 1.391 . S
C465 C464 1.386 . S
C465 C469 1.393 . S
C466 H458 0.950 . S
C466 C464 1.391 . S
C466 C467 1.400 . S
C467 C466 1.400 . S
C467 C468 1.398 . S
C467 C473 1.491 . S
C468 H459 0.950 . S
C468 C467 1.398 . S
C468 C469 1.391 . S
C469 H457 0.950 . S
C469 C465 1.393 . S
C469 C468 1.391 . S
C470 H460 0.950 . S
C470 C471 1.386 . S
C470 C472 1.391 . S
C471 C470 1.386 . S
C471 C475 1.393 . S
C472 H461 0.950 . S
C472 C470 1.391 . S
C472 C473 1.400 . S
C473 C467 1.491 . S
C473 C472 1.400 . S
C473 C474 1.398 . S
C474 H462 0.950 . S
C474 C473 1.398 . S
C474 C475 1.391 . S
C475 H463 0.950 . S
C475 C471 1.393 . S
C475 C474 1.391 . S
H476 C484 0.950 . S
H477 C489 0.950 . S
H478 C486 0.950 . S
H479 C488 0.950 . S
H480 C490 0.950 . S
H481 C492 0.950 . S
H482 C494 0.950 . S
H483 C495 0.950 . S
C484 H476 0.950 . S
C484 C485 1.386 . S
C484 C486 1.391 . S
C485 C484 1.386 . S
C485 C489 1.393 . S
C486 H478 0.950 . S
C486 C484 1.391 . S
C486 C487 1.400 . S
C487 C486 1.400 . S
C487 C488 1.398 . S
C487 C493 1.491 . S
C488 H479 0.950 . S
C488 C487 1.398 . S
C488 C489 1.391 . S
C489 H477 0.950 . S
C489 C485 1.393 . S
C489 C488 1.391 . S
C490 H480 0.950 . S
C490 C491 1.386 . S
C490 C492 1.391 . S
C491 C490 1.386 . S
C491 C495 1.393 . S
C492 H481 0.950 . S
C492 C490 1.391 . S
C492 C493 1.400 . S
C493 C487 1.491 . S
C493 C492 1.400 . S
C493 C494 1.398 . S
C494 H482 0.950 . S
C494 C493 1.398 . S
C494 C495 1.391 . S
C495 H483 0.950 . S
C495 C491 1.393 . S
C495 C494 1.391 . S
H496 C504 0.950 . S
H497 C509 0.950 . S
H498 C506 0.950 . S
H499 C508 0.950 . S
H500 C510 0.950 . S
H501 C512 0.950 . S
H502 C514 0.950 . S
H503 C515 0.950 . S
C504 H496 0.950 . S
C504 C505 1.386 . S
C504 C506 1.391 . S
C505 C504 1.386 . S
C505 C509 1.393 . S
C506 H498 0.950 . S
C506 C504 1.391 . S
C506 C507 1.400 . S
C507 C506 1.400 . S
C507 C508 1.398 . S
C507 C513 1.491 . S
C508 H499 0.950 . S
C508 C507 1.398 . S
C508 C509 1.391 . S
C509 H497 0.950 . S
C509 C505 1.393 . S
C509 C508 1.391 . S
C510 H500 0.950 . S
C510 C511 1.386 . S
C510 C512 1.391 . S
C511 C510 1.386 . S
C511 C515 1.393 . S
C512 H501 0.950 . S
C512 C510 1.391 . S
C512 C513 1.400 . S
C513 C507 1.491 . S
C513 C512 1.400 . S
C513 C514 1.398 . S
C514 H502 0.950 . S
C514 C513 1.398 . S
C514 C515 1.391 . S
C515 H503 0.950 . S
C515 C511 1.393 . S
C515 C514 1.391 . S
H516 C524 0.950 . S
H517 C529 0.950 . S
H518 C526 0.950 . S
H519 C528 0.950 . S
H520 C530 0.950 . S
H521 C532 0.950 . S
H522 C534 0.950 . S
H523 C535 0.950 . S
C524 H516 0.950 . S
C524 C525 1.386 . S
C524 C526 1.391 . S
C525 C524 1.386 . S
C525 C529 1.393 . S
C526 H518 0.950 . S
C526 C524 1.391 . S
C526 C527 1.400 . S
C527 C526 1.400 . S
C527 C528 1.398 . S
C527 C533 1.491 . S
C528 H519 0.950 . S
C528 C527 1.398 . S
C528 C529 1.391 . S
C529 H517 0.950 . S
C529 C525 1.393 . S
C529 C528 1.391 . S
C530 H520 0.950 . S
C530 C531 1.386 . S
C530 C532 1.391 . S
C531 C530 1.386 . S
C531 C535 1.393 . S
C532 H521 0.950 . S
C532 C530 1.391 . S
C532 C533 1.400 . S
C533 C527 1.491 . S
C533 C532 1.400 . S
C533 C534 1.398 . S
C534 H522 0.950 . S
C534 C533 1.398 . S
C534 C535 1.391 . S
C535 H523 0.950 . S
C535 C531 1.393 . S
C535 C534 1.391 . S
H536 C544 0.950 . S
H537 C549 0.950 . S
H538 C546 0.950 . S
H539 C548 0.950 . S
H540 C550 0.950 . S
H541 C552 0.950 . S
H542 C554 0.950 . S
H543 C555 0.950 . S
C544 H536 0.950 . S
C544 C545 1.386 . S
C544 C546 1.391 . S
C545 C544 1.386 . S
C545 C549 1.393 . S
C546 H538 0.950 . S
C546 C544 1.391 . S
C546 C547 1.400 . S
C547 C546 1.400 . S
C547 C548 1.398 . S
C547 C553 1.491 . S
C548 H539 0.950 . S
C548 C547 1.398 . S
C548 C549 1.391 . S
C549 H537 0.950 . S
C549 C545 1.393 . S
C549 C548 1.391 . S
C550 H540 0.950 . S
C550 C551 1.386 . S
C550 C552 1.391 . S
C551 C550 1.386 . S
C551 C555 1.393 . S
C552 H541 0.950 . S
C552 C550 1.391 . S
C552 C553 1.400 1_545 S
C553 C547 1.491 . S
C553 C552 1.400 1_565 S
C553 C554 1.398 . S
C554 H542 0.950 . S
C554 C553 1.398 . S
C554 C555 1.391 1_565 S
C555 H543 0.950 . S
C555 C551 1.393 . S
C555 C554 1.391 1_545 S
H556 C564 0.950 . S
H557 C569 0.950 . S
H558 C566 0.950 . S
H559 C568 0.950 . S
H560 C570 0.950 . S
H561 C572 0.950 . S
H562 C574 0.950 . S
H563 C575 0.950 . S
C564 H556 0.950 . S
C564 C565 1.386 . S
C564 C566 1.391 . S
C565 C564 1.386 . S
C565 C569 1.393 . S
C566 H558 0.950 . S
C566 C564 1.391 . S
C566 C567 1.400 . S
C567 C566 1.400 . S
C567 C568 1.398 . S
C567 C573 1.491 . S
C568 H559 0.950 . S
C568 C567 1.398 . S
C568 C569 1.391 . S
C569 H557 0.950 . S
C569 C565 1.393 . S
C569 C568 1.391 . S
C570 H560 0.950 . S
C570 C571 1.386 . S
C570 C572 1.391 . S
C571 C570 1.386 . S
C571 C575 1.393 . S
C572 H561 0.950 . S
C572 C570 1.391 . S
C572 C573 1.400 . S
C573 C567 1.491 . S
C573 C572 1.400 . S
C573 C574 1.398 . S
C574 H562 0.950 . S
C574 C573 1.398 . S
C574 C575 1.391 . S
C575 H563 0.950 . S
C575 C571 1.393 . S
C575 C574 1.391 . S
H576 C584 0.950 . S
H577 C589 0.950 . S
H578 C586 0.950 . S
H579 C588 0.950 . S
H580 C590 0.950 . S
H581 C592 0.950 . S
H582 C594 0.950 . S
H583 C595 0.950 . S
C584 H576 0.950 . S
C584 C585 1.386 . S
C584 C586 1.391 1_554 S
C585 C584 1.386 . S
C585 C589 1.393 . S
C586 H578 0.950 . S
C586 C584 1.391 1_556 S
C586 C587 1.400 . S
C587 C586 1.400 . S
C587 C588 1.398 . S
C587 C593 1.491 . S
C588 H579 0.950 . S
C588 C587 1.398 . S
C588 C589 1.391 1_556 S
C589 H577 0.950 . S
C589 C585 1.393 . S
C589 C588 1.391 1_554 S
C590 H580 0.950 . S
C590 C591 1.386 . S
C590 C592 1.391 . S
C591 C590 1.386 . S
C591 C595 1.393 . S
C592 H581 0.950 . S
C592 C590 1.391 . S
C592 C593 1.400 . S
C593 C587 1.491 . S
C593 C592 1.400 . S
C593 C594 1.398 . S
C594 H582 0.950 . S
C594 C593 1.398 . S
C594 C595 1.391 . S
C595 H583 0.950 . S
C595 C591 1.393 . S
C595 C594 1.391 . S
H596 C604 0.950 . S
H597 C609 0.950 . S
H598 C606 0.950 . S
H599 C608 0.950 . S
H600 C610 0.950 . S
H601 C612 0.950 . S
H602 C614 0.950 . S
H603 C615 0.950 . S
C604 H596 0.950 . S
C604 C605 1.386 . S
C604 C606 1.391 1_554 S
C605 C604 1.386 . S
C605 C609 1.393 . S
C606 H598 0.950 . S
C606 C604 1.391 1_556 S
C606 C607 1.400 . S
C607 C606 1.400 . S
C607 C608 1.398 . S
C607 C613 1.491 . S
C608 H599 0.950 . S
C608 C607 1.398 . S
C608 C609 1.391 1_556 S
C609 H597 0.950 . S
C609 C605 1.393 . S
C609 C608 1.391 1_554 S
C610 H600 0.950 . S
C610 C611 1.386 . S
C610 C612 1.391 . S
C611 C610 1.386 . S
C611 C615 1.393 . S
C612 H601 0.950 . S
C612 C610 1.391 . S
C612 C613 1.400 . S
C613 C607 1.491 . S
C613 C612 1.400 . S
C613 C614 1.398 . S
C614 H602 0.950 . S
C614 C613 1.398 . S
C614 C615 1.391 . S
C615 H603 0.950 . S
C615 C611 1.393 . S
C615 C614 1.391 . S
H616 C624 0.950 . S
H617 C629 0.950 . S
H618 C626 0.950 . S
H619 C628 0.950 . S
H620 C630 0.950 . S
H621 C632 0.950 . S
H622 C634 0.950 . S
H623 C635 0.950 . S
C624 H616 0.950 . S
C624 C625 1.386 . S
C624 C626 1.391 . S
C625 C624 1.386 . S
C625 C629 1.393 . S
C626 H618 0.950 . S
C626 C624 1.391 . S
C626 C627 1.400 . S
C627 C626 1.400 . S
C627 C628 1.398 . S
C627 C633 1.491 . S
C628 H619 0.950 . S
C628 C627 1.398 . S
C628 C629 1.391 . S
C629 H617 0.950 . S
C629 C625 1.393 . S
C629 C628 1.391 . S
C630 H620 0.950 . S
C630 C631 1.386 . S
C630 C632 1.391 . S
C631 C630 1.386 . S
C631 C635 1.393 . S
C632 H621 0.950 . S
C632 C630 1.391 . S
C632 C633 1.400 . S
C633 C627 1.491 . S
C633 C632 1.400 . S
C633 C634 1.398 . S
C634 H622 0.950 . S
C634 C633 1.398 . S
C634 C635 1.391 . S
C635 H623 0.950 . S
C635 C631 1.393 . S
C635 C634 1.391 . S
H636 C644 0.950 . S
H637 C649 0.950 . S
H638 C646 0.950 . S
H639 C648 0.950 . S
H640 C650 0.950 . S
H641 C652 0.950 . S
H642 C654 0.950 . S
H643 C655 0.950 . S
C644 H636 0.950 . S
C644 C645 1.386 . S
C644 C646 1.391 . S
C645 C644 1.386 . S
C645 C649 1.393 . S
C646 H638 0.950 . S
C646 C644 1.391 . S
C646 C647 1.400 . S
C647 C646 1.400 . S
C647 C648 1.398 . S
C647 C653 1.491 . S
C648 H639 0.950 . S
C648 C647 1.398 . S
C648 C649 1.391 . S
C649 H637 0.950 . S
C649 C645 1.393 . S
C649 C648 1.391 . S
C650 H640 0.950 . S
C650 C651 1.386 . S
C650 C652 1.391 . S
C651 C650 1.386 . S
C651 C655 1.393 . S
C652 H641 0.950 . S
C652 C650 1.391 . S
C652 C653 1.400 . S
C653 C647 1.491 . S
C653 C652 1.400 . S
C653 C654 1.398 . S
C654 H642 0.950 . S
C654 C653 1.398 . S
C654 C655 1.391 . S
C655 H643 0.950 . S
C655 C651 1.393 . S
C655 C654 1.391 . S
H656 C664 0.950 . S
H657 C669 0.950 . S
H658 C666 0.949 1_655 S
H659 C668 0.950 . S
H660 C670 0.950 . S
H661 C672 0.950 . S
H662 C674 0.950 . S
H663 C675 0.950 . S
C664 H656 0.950 . S
C664 C665 1.386 . S
C664 C666 1.391 . S
C665 C664 1.386 . S
C665 C669 1.393 . S
C666 H658 0.949 1_455 S
C666 C664 1.391 . S
C666 C667 1.400 1_455 S
C667 C666 1.400 1_655 S
C667 C668 1.398 . S
C667 C673 1.491 . S
C668 H659 0.950 . S
C668 C667 1.398 . S
C668 C669 1.391 1_655 S
C669 H657 0.950 . S
C669 C665 1.393 . S
C669 C668 1.391 1_455 S
C670 H660 0.950 . S
C670 C671 1.386 . S
C670 C672 1.391 . S
C671 C670 1.386 . S
C671 C675 1.393 . S
C672 H661 0.950 . S
C672 C670 1.391 . S
C672 C673 1.400 . S
C673 C667 1.491 . S
C673 C672 1.400 . S
C673 C674 1.398 . S
C674 H662 0.950 . S
C674 C673 1.398 . S
C674 C675 1.391 . S
C675 H663 0.950 . S
C675 C671 1.393 . S
C675 C674 1.391 . S
H676 C684 0.950 . S
H677 C689 0.950 . S
H678 C686 0.950 . S
H679 C688 0.950 . S
H680 C690 0.950 . S
H681 C692 0.950 . S
H682 C694 0.950 . S
H683 C695 0.950 . S
C684 H676 0.950 . S
C684 C685 1.386 . S
C684 C686 1.391 1_655 S
C685 C684 1.386 . S
C685 C689 1.393 . S
C686 H678 0.950 . S
C686 C684 1.391 1_455 S
C686 C687 1.400 . S
C687 C686 1.400 . S
C687 C688 1.398 1_455 S
C687 C693 1.491 . S
C688 H679 0.950 . S
C688 C687 1.398 1_655 S
C688 C689 1.391 . S
C689 H677 0.950 . S
C689 C685 1.393 . S
C689 C688 1.391 . S
C690 H680 0.950 . S
C690 C691 1.386 . S
C690 C692 1.391 . S
C691 C690 1.386 . S
C691 C695 1.393 . S
C692 H681 0.950 . S
C692 C690 1.391 . S
C692 C693 1.400 . S
C693 C687 1.491 . S
C693 C692 1.400 . S
C693 C694 1.398 . S
C694 H682 0.950 . S
C694 C693 1.398 . S
C694 C695 1.391 . S
C695 H683 0.950 . S
C695 C691 1.393 . S
C695 C694 1.391 . S
H696 C704 0.950 . S
H697 C709 0.950 . S
H698 C706 0.950 . S
H699 C708 0.950 . S
H700 C710 0.950 . S
H701 C712 0.950 . S
H702 C714 0.950 . S
H703 C715 0.950 . S
C704 H696 0.950 . S
C704 C705 1.386 . S
C704 C706 1.391 1_455 S
C705 C704 1.386 . S
C705 C709 1.393 . S
C706 H698 0.950 . S
C706 C704 1.391 1_655 S
C706 C707 1.400 . S
C707 C706 1.400 . S
C707 C708 1.398 1_655 S
C707 C713 1.491 . S
C708 H699 0.950 . S
C708 C707 1.398 1_455 S
C708 C709 1.391 . S
C709 H697 0.950 . S
C709 C705 1.393 . S
C709 C708 1.391 . S
C710 H700 0.950 . S
C710 C711 1.386 . S
C710 C712 1.391 . S
C711 C710 1.386 . S
C711 C715 1.393 . S
C712 H701 0.950 . S
C712 C710 1.391 . S
C712 C713 1.400 . S
C713 C707 1.491 . S
C713 C712 1.400 . S
C713 C714 1.398 . S
C714 H702 0.950 . S
C714 C713 1.398 . S
C714 C715 1.391 . S
C715 H703 0.950 . S
C715 C711 1.393 . S
C715 C714 1.391 . S
H716 C724 0.950 . S
H717 C729 0.950 . S
H718 C726 0.950 . S
H719 C728 0.950 . S
H720 C730 0.950 . S
H721 C732 0.950 . S
H722 C734 0.950 . S
H723 C735 0.950 . S
C724 H716 0.950 . S
C724 C725 1.386 . S
C724 C726 1.391 . S
C725 C724 1.386 . S
C725 C729 1.393 . S
C726 H718 0.950 . S
C726 C724 1.391 . S
C726 C727 1.400 . S
C727 C726 1.400 . S
C727 C728 1.398 . S
C727 C733 1.491 . S
C728 H719 0.950 . S
C728 C727 1.398 . S
C728 C729 1.391 . S
C729 H717 0.950 . S
C729 C725 1.393 . S
C729 C728 1.391 . S
C730 H720 0.950 . S
C730 C731 1.386 . S
C730 C732 1.391 1_655 S
C731 C730 1.386 . S
C731 C735 1.393 . S
C732 H721 0.950 . S
C732 C730 1.391 1_455 S
C732 C733 1.400 . S
C733 C727 1.491 . S
C733 C732 1.400 . S
C733 C734 1.398 . S
C734 H722 0.950 . S
C734 C733 1.398 . S
C734 C735 1.391 1_455 S
C735 H723 0.950 . S
C735 C731 1.393 . S
C735 C734 1.391 1_655 S
H736 C744 0.950 . S
H737 C749 0.950 . S
H738 C746 0.950 . S
H739 C748 0.950 . S
H740 C750 0.950 . S
H741 C752 0.950 . S
H742 C754 0.950 . S
H743 C755 0.950 . S
C744 H736 0.950 . S
C744 C745 1.386 . S
C744 C746 1.391 . S
C745 C744 1.386 . S
C745 C749 1.393 . S
C746 H738 0.950 . S
C746 C744 1.391 . S
C746 C747 1.400 1_545 S
C747 C746 1.400 1_565 S
C747 C748 1.398 . S
C747 C753 1.491 . S
C748 H739 0.950 . S
C748 C747 1.398 . S
C748 C749 1.391 1_565 S
C749 H737 0.950 . S
C749 C745 1.393 . S
C749 C748 1.391 1_545 S
C750 H740 0.950 . S
C750 C751 1.386 . S
C750 C752 1.391 . S
C751 C750 1.386 . S
C751 C755 1.393 . S
C752 H741 0.950 . S
C752 C750 1.391 . S
C752 C753 1.400 . S
C753 C747 1.491 . S
C753 C752 1.400 . S
C753 C754 1.398 . S
C754 H742 0.950 . S
C754 C753 1.398 . S
C754 C755 1.391 . S
C755 H743 0.950 . S
C755 C751 1.393 . S
C755 C754 1.391 . S
H756 C764 0.950 . S
H757 C769 0.950 . S
H758 C766 0.950 . S
H759 C768 0.950 . S
H760 C770 0.950 . S
H761 C772 0.950 . S
H762 C774 0.950 . S
H763 C775 0.950 . S
C764 H756 0.950 . S
C764 C765 1.386 . S
C764 C766 1.391 . S
C765 C764 1.386 . S
C765 C769 1.393 . S
C766 H758 0.950 . S
C766 C764 1.391 . S
C766 C767 1.400 . S
C767 C766 1.400 . S
C767 C768 1.398 . S
C767 C773 1.491 . S
C768 H759 0.950 . S
C768 C767 1.398 . S
C768 C769 1.391 . S
C769 H757 0.950 . S
C769 C765 1.393 . S
C769 C768 1.391 . S
C770 H760 0.950 . S
C770 C771 1.386 . S
C770 C772 1.391 . S
C771 C770 1.386 . S
C771 C775 1.393 . S
C772 H761 0.950 . S
C772 C770 1.391 . S
C772 C773 1.400 1_565 S
C773 C767 1.491 . S
C773 C772 1.400 1_545 S
C773 C774 1.398 . S
C774 H762 0.950 . S
C774 C773 1.398 . S
C774 C775 1.391 1_545 S
C775 H763 0.950 . S
C775 C771 1.393 . S
C775 C774 1.391 1_565 S
H776 C784 0.950 . S
H777 C789 0.950 . S
H778 C786 0.950 . S
H779 C788 0.950 . S
H780 C790 0.950 . S
H781 C792 0.950 . S
H782 C794 0.950 . S
H783 C795 0.950 . S
C784 H776 0.950 . S
C784 C785 1.386 . S
C784 C786 1.391 . S
C785 C784 1.386 . S
C785 C789 1.393 . S
C786 H778 0.950 . S
C786 C784 1.391 . S
C786 C787 1.400 . S
C787 C786 1.400 . S
C787 C788 1.398 . S
C787 C793 1.491 . S
C788 H779 0.950 . S
C788 C787 1.398 . S
C788 C789 1.391 . S
C789 H777 0.950 . S
C789 C785 1.393 . S
C789 C788 1.391 . S
C790 H780 0.950 . S
C790 C791 1.386 . S
C790 C792 1.391 . S
C791 C790 1.386 . S
C791 C795 1.393 . S
C792 H781 0.950 . S
C792 C790 1.391 . S
C792 C793 1.400 . S
C793 C787 1.491 . S
C793 C792 1.400 . S
C793 C794 1.398 . S
C794 H782 0.950 . S
C794 C793 1.398 . S
C794 C795 1.391 . S
C795 H783 0.950 . S
C795 C791 1.393 . S
C795 C794 1.391 . S
H796 C804 0.950 . S
H797 C809 0.950 . S
H798 C806 0.950 . S
H799 C808 0.950 . S
H800 C810 0.950 . S
H801 C812 0.950 . S
H802 C814 0.950 . S
H803 C815 0.950 . S
C804 H796 0.950 . S
C804 C805 1.386 . S
C804 C806 1.391 . S
C805 C804 1.386 . S
C805 C809 1.393 . S
C806 H798 0.950 . S
C806 C804 1.391 . S
C806 C807 1.400 . S
C807 C806 1.400 . S
C807 C808 1.398 . S
C807 C813 1.491 . S
C808 H799 0.950 . S
C808 C807 1.398 . S
C808 C809 1.391 . S
C809 H797 0.950 . S
C809 C805 1.393 . S
C809 C808 1.391 . S
C810 H800 0.950 . S
C810 C811 1.386 . S
C810 C812 1.391 . S
C811 C810 1.386 . S
C811 C815 1.393 . S
C812 H801 0.950 . S
C812 C810 1.391 . S
C812 C813 1.400 1_565 S
C813 C807 1.491 . S
C813 C812 1.400 1_545 S
C813 C814 1.398 . S
C814 H802 0.950 . S
C814 C813 1.398 . S
C814 C815 1.391 1_545 S
C815 H803 0.950 . S
C815 C811 1.393 . S
C815 C814 1.391 1_565 S
H816 C824 0.950 . S
H817 C829 0.950 . S
H818 C826 0.950 . S
H819 C828 0.950 . S
H820 C830 0.950 . S
H821 C832 0.950 . S
H822 C834 0.950 . S
H823 C835 0.950 . S
C824 H816 0.950 . S
C824 C825 1.386 . S
C824 C826 1.391 . S
C825 C824 1.386 . S
C825 C829 1.393 1_655 S
C826 H818 0.950 . S
C826 C824 1.391 . S
C826 C827 1.397 . S
C827 C826 1.397 . S
C827 C828 1.401 1_655 S
C827 C833 1.491 1_655 S
C828 H819 0.950 . S
C828 C827 1.401 1_455 S
C828 C829 1.391 . S
C829 H817 0.950 . S
C829 C825 1.393 1_455 S
C829 C828 1.391 . S
C830 H820 0.950 . S
C830 C831 1.386 . S
C830 C832 1.391 . S
C831 C830 1.386 . S
C831 C835 1.393 1_455 S
C832 H821 0.950 . S
C832 C830 1.391 . S
C832 C833 1.400 . S
C833 C827 1.491 1_455 S
C833 C832 1.400 . S
C833 C834 1.398 1_455 S
C834 H822 0.950 . S
C834 C833 1.398 1_655 S
C834 C835 1.391 . S
C835 H823 0.950 . S
C835 C831 1.393 1_655 S
C835 C834 1.391 . S
H836 C844 0.950 . S
H837 C849 0.950 . S
H838 C846 0.950 . S
H839 C848 0.950 . S
H840 C850 0.950 . S
H841 C852 0.950 . S
H842 C854 0.950 . S
H843 C855 0.950 . S
C844 H836 0.950 . S
C844 C845 1.386 . S
C844 C846 1.391 . S
C845 C844 1.386 . S
C845 C849 1.393 1_455 S
C846 H838 0.950 . S
C846 C844 1.391 . S
C846 C847 1.400 . S
C847 C846 1.400 . S
C847 C848 1.398 1_455 S
C847 C853 1.490 1_455 S
C848 H839 0.950 . S
C848 C847 1.398 1_655 S
C848 C849 1.391 . S
C849 H837 0.950 . S
C849 C845 1.393 1_655 S
C849 C848 1.391 . S
C850 H840 0.950 . S
C850 C851 1.386 . S
C850 C852 1.391 . S
C851 C850 1.386 . S
C851 C855 1.393 1_655 S
C852 H841 0.950 . S
C852 C850 1.391 . S
C852 C853 1.407 . S
C853 C847 1.490 1_655 S
C853 C852 1.407 . S
C853 C854 1.392 1_655 S
C854 H842 0.950 . S
C854 C853 1.392 1_455 S
C854 C855 1.391 . S
C855 H843 0.950 . S
C855 C851 1.393 1_455 S
C855 C854 1.391 . S
H856 C864 0.950 . S
H857 C869 0.950 . S
H858 C866 0.950 . S
H859 C868 0.950 . S
H860 C870 0.950 . S
H861 C872 0.950 . S
H862 C874 0.950 . S
H863 C875 0.950 . S
C864 H856 0.950 . S
C864 C865 1.386 . S
C864 C866 1.391 . S
C865 C864 1.386 . S
C865 C869 1.393 1_565 S
C866 H858 0.950 . S
C866 C864 1.391 . S
C866 C867 1.393 1_565 S
C867 C866 1.393 1_545 S
C867 C868 1.405 . S
C867 C873 1.491 . S
C868 H859 0.950 . S
C868 C867 1.405 . S
C868 C869 1.391 . S
C869 H857 0.950 . S
C869 C865 1.393 1_545 S
C869 C868 1.391 . S
C870 H860 0.950 . S
C870 C871 1.386 . S
C870 C872 1.391 . S
C871 C870 1.386 . S
C871 C875 1.393 1_545 S
C872 H861 0.950 . S
C872 C870 1.391 . S
C872 C873 1.400 . S
C873 C867 1.491 . S
C873 C872 1.400 . S
C873 C874 1.398 1_545 S
C874 H862 0.950 . S
C874 C873 1.398 1_565 S
C874 C875 1.391 . S
C875 H863 0.950 . S
C875 C871 1.393 1_565 S
C875 C874 1.391 . S
H876 C884 0.950 . S
H877 C889 0.950 . S
H878 C886 0.950 . S
H879 C888 0.950 . S
H880 C890 0.950 . S
H881 C892 0.950 . S
H882 C894 0.950 . S
H883 C895 0.950 . S
C884 H876 0.950 . S
C884 C885 1.386 . S
C884 C886 1.391 . S
C885 C884 1.386 . S
C885 C889 1.393 . S
C886 H878 0.950 . S
C886 C884 1.391 . S
C886 C887 1.400 . S
C887 C886 1.400 . S
C887 C888 1.398 . S
C887 C893 1.491 . S
C888 H879 0.950 . S
C888 C887 1.398 . S
C888 C889 1.391 . S
C889 H877 0.950 . S
C889 C885 1.393 . S
C889 C888 1.391 . S
C890 H880 0.950 . S
C890 C891 1.386 . S
C890 C892 1.391 . S
C891 C890 1.386 . S
C891 C895 1.393 . S
C892 H881 0.950 . S
C892 C890 1.391 . S
C892 C893 1.400 . S
C893 C887 1.491 . S
C893 C892 1.400 . S
C893 C894 1.398 . S
C894 H882 0.950 . S
C894 C893 1.398 . S
C894 C895 1.391 . S
C895 H883 0.950 . S
C895 C891 1.393 . S
C895 C894 1.391 . S
H896 C904 0.950 . S
H897 C909 0.950 . S
H898 C906 0.950 . S
H899 C908 0.950 . S
H900 C910 0.950 . S
H901 C912 0.950 . S
H902 C914 0.950 . S
H903 C915 0.950 . S
C904 H896 0.950 . S
C904 C905 1.386 1_556 S
C904 C906 1.391 . S
C905 C904 1.386 1_554 S
C905 C909 1.393 . S
C906 H898 0.950 . S
C906 C904 1.391 . S
C906 C907 1.400 1_556 S
C907 C906 1.400 1_554 S
C907 C908 1.398 . S
C907 C913 1.489 1_554 S
C908 H899 0.950 . S
C908 C907 1.398 . S
C908 C909 1.391 . S
C909 H897 0.950 . S
C909 C905 1.393 . S
C909 C908 1.391 . S
C910 H900 0.950 . S
C910 C911 1.386 1_554 S
C910 C912 1.391 . S
C911 C910 1.386 1_556 S
C911 C915 1.393 . S
C912 H901 0.950 . S
C912 C910 1.391 . S
C912 C913 1.386 1_554 S
C913 C907 1.489 1_556 S
C913 C912 1.386 1_556 S
C913 C914 1.414 . S
C914 H902 0.950 . S
C914 C913 1.414 . S
C914 C915 1.391 . S
C915 H903 0.950 . S
C915 C911 1.393 . S
C915 C914 1.391 . S
H916 C924 0.950 . S
H917 C929 0.950 . S
H918 C926 0.950 . S
H919 C928 0.950 . S
H920 C930 0.950 . S
H921 C932 0.950 . S
H922 C934 0.950 . S
H923 C935 0.950 . S
C924 H916 0.950 . S
C924 C925 1.386 . S
C924 C926 1.391 . S
C925 C924 1.386 . S
C925 C929 1.393 . S
C926 H918 0.950 . S
C926 C924 1.391 . S
C926 C927 1.400 . S
C927 C926 1.400 . S
C927 C928 1.398 . S
C927 C933 1.491 . S
C928 H919 0.950 . S
C928 C927 1.398 . S
C928 C929 1.391 . S
C929 H917 0.950 . S
C929 C925 1.393 . S
C929 C928 1.391 . S
C930 H920 0.950 . S
C930 C931 1.386 . S
C930 C932 1.391 . S
C931 C930 1.386 . S
C931 C935 1.393 . S
C932 H921 0.950 . S
C932 C930 1.391 . S
C932 C933 1.400 . S
C933 C927 1.491 . S
C933 C932 1.400 . S
C933 C934 1.398 . S
C934 H922 0.950 . S
C934 C933 1.398 . S
C934 C935 1.391 . S
C935 H923 0.950 . S
C935 C931 1.393 . S
C935 C934 1.391 . S
H936 C944 0.950 . S
H937 C949 0.950 . S
H938 C946 0.950 . S
H939 C948 0.950 . S
H940 C950 0.950 . S
H941 C952 0.950 . S
H942 C954 0.950 . S
H943 C955 0.950 . S
C944 H936 0.950 . S
C944 C945 1.386 . S
C944 C946 1.391 . S
C945 C944 1.386 . S
C945 C949 1.393 . S
C946 H938 0.950 . S
C946 C944 1.391 . S
C946 C947 1.400 . S
C947 C946 1.400 . S
C947 C948 1.398 . S
C947 C953 1.491 . S
C948 H939 0.950 . S
C948 C947 1.398 . S
C948 C949 1.391 . S
C949 H937 0.950 . S
C949 C945 1.393 . S
C949 C948 1.391 . S
C950 H940 0.950 . S
C950 C951 1.386 . S
C950 C952 1.391 . S
C951 C950 1.386 . S
C951 C955 1.393 . S
C952 H941 0.950 . S
C952 C950 1.391 . S
C952 C953 1.400 . S
C953 C947 1.491 . S
C953 C952 1.400 . S
C953 C954 1.398 . S
C954 H942 0.950 . S
C954 C953 1.398 . S
C954 C955 1.391 . S
C955 H943 0.950 . S
C955 C951 1.393 . S
C955 C954 1.391 . S
H956 C964 0.950 . S
H957 C969 0.950 . S
H958 C966 0.950 . S
H959 C968 0.950 . S
H960 C970 0.950 . S
H961 C972 0.950 . S
H962 C974 0.950 . S
H963 C975 0.950 . S
C964 H956 0.950 . S
C964 C965 1.386 . S
C964 C966 1.391 . S
C965 C964 1.386 . S
C965 C969 1.393 . S
C966 H958 0.950 . S
C966 C964 1.391 . S
C966 C967 1.400 . S
C967 C966 1.400 . S
C967 C968 1.398 . S
C967 C973 1.491 . S
C968 H959 0.950 . S
C968 C967 1.398 . S
C968 C969 1.391 . S
C969 H957 0.950 . S
C969 C965 1.393 . S
C969 C968 1.391 . S
C970 H960 0.950 . S
C970 C971 1.386 . S
C970 C972 1.391 . S
C971 C970 1.386 . S
C971 C975 1.393 . S
C972 H961 0.950 . S
C972 C970 1.391 . S
C972 C973 1.400 . S
C973 C967 1.491 . S
C973 C972 1.400 . S
C973 C974 1.398 . S
C974 H962 0.950 . S
C974 C973 1.398 . S
C974 C975 1.391 . S
C975 H963 0.950 . S
C975 C971 1.393 . S
C975 C974 1.391 . S
H976 C984 0.950 . S
H977 C989 0.950 . S
H978 C986 0.950 . S
H979 C988 0.950 . S
H980 C990 0.950 . S
H981 C992 0.950 . S
H982 C994 0.950 . S
H983 C995 0.950 . S
C984 H976 0.950 . S
C984 C985 1.386 . S
C984 C986 1.391 . S
C985 C984 1.386 . S
C985 C989 1.393 . S
C986 H978 0.950 . S
C986 C984 1.391 . S
C986 C987 1.400 . S
C987 C986 1.400 . S
C987 C988 1.398 . S
C987 C993 1.491 . S
C988 H979 0.950 . S
C988 C987 1.398 . S
C988 C989 1.391 . S
C989 H977 0.950 . S
C989 C985 1.393 . S
C989 C988 1.391 . S
C990 H980 0.950 . S
C990 C991 1.386 . S
C990 C992 1.391 . S
C991 C990 1.386 . S
C991 C995 1.393 . S
C992 H981 0.950 . S
C992 C990 1.391 . S
C992 C993 1.400 . S
C993 C987 1.491 . S
C993 C992 1.400 . S
C993 C994 1.398 . S
C994 H982 0.950 . S
C994 C993 1.398 . S
C994 C995 1.391 . S
C995 H983 0.950 . S
C995 C991 1.393 . S
C995 C994 1.391 . S
H996 C1004 0.950 . S
H997 C1009 0.950 . S
H998 C1006 0.950 . S
H999 C1008 0.950 . S
H1000 C1010 0.950 . S
H1001 C1012 0.950 . S
H1002 C1014 0.950 . S
H1003 C1015 0.950 . S
C1004 H996 0.950 . S
C1004 C1005 1.386 . S
C1004 C1006 1.391 . S
C1005 C1004 1.386 . S
C1005 C1009 1.393 . S
C1006 H998 0.950 . S
C1006 C1004 1.391 . S
C1006 C1007 1.400 . S
C1007 C1006 1.400 . S
C1007 C1008 1.398 . S
C1007 C1013 1.491 . S
C1008 H999 0.950 . S
C1008 C1007 1.398 . S
C1008 C1009 1.391 . S
C1009 H997 0.950 . S
C1009 C1005 1.393 . S
C1009 C1008 1.391 . S
C1010 H1000 0.950 . S
C1010 C1011 1.386 . S
C1010 C1012 1.391 . S
C1011 C1010 1.386 . S
C1011 C1015 1.393 . S
C1012 H1001 0.950 . S
C1012 C1010 1.391 . S
C1012 C1013 1.400 . S
C1013 C1007 1.491 . S
C1013 C1012 1.400 . S
C1013 C1014 1.398 . S
C1014 H1002 0.950 . S
C1014 C1013 1.398 . S
C1014 C1015 1.391 . S
C1015 H1003 0.950 . S
C1015 C1011 1.393 . S
C1015 C1014 1.391 . S
H1016 C1024 0.950 . S
H1017 C1029 0.950 . S
H1018 C1026 0.950 . S
H1019 C1028 0.950 . S
H1020 C1030 0.950 . S
H1021 C1032 0.950 . S
H1022 C1034 0.950 . S
H1023 C1035 0.950 . S
C1024 H1016 0.950 . S
C1024 C1025 1.386 1_565 S
C1024 C1026 1.391 . S
C1025 C1024 1.386 1_545 S
C1025 C1029 1.393 . S
C1026 H1018 0.950 . S
C1026 C1024 1.391 . S
C1026 C1027 1.400 1_565 S
C1027 C1026 1.400 1_545 S
C1027 C1028 1.398 . S
C1027 C1033 1.487 1_545 S
C1028 H1019 0.950 . S
C1028 C1027 1.398 . S
C1028 C1029 1.391 . S
C1029 H1017 0.950 . S
C1029 C1025 1.393 . S
C1029 C1028 1.391 . S
C1030 H1020 0.950 . S
C1030 C1031 1.386 1_545 S
C1030 C1032 1.391 . S
C1031 C1030 1.386 1_565 S
C1031 C1035 1.393 . S
C1032 H1021 0.950 . S
C1032 C1030 1.391 . S
C1032 C1033 1.381 1_545 S
C1033 C1027 1.487 1_565 S
C1033 C1032 1.381 1_565 S
C1033 C1034 1.423 . S
C1034 H1022 0.950 . S
C1034 C1033 1.423 . S
C1034 C1035 1.391 . S
C1035 H1023 0.950 . S
C1035 C1031 1.393 . S
C1035 C1034 1.391 . S
H1036 C1044 0.950 . S
H1037 C1049 0.950 . S
H1038 C1046 0.950 . S
H1039 C1048 0.950 . S
H1040 C1050 0.950 . S
H1041 C1052 0.950 . S
H1042 C1054 0.950 . S
H1043 C1055 0.950 . S
C1044 H1036 0.950 . S
C1044 C1045 1.386 1_554 S
C1044 C1046 1.391 . S
C1045 C1044 1.386 1_556 S
C1045 C1049 1.393 . S
C1046 H1038 0.950 . S
C1046 C1044 1.391 . S
C1046 C1047 1.392 1_554 S
C1047 C1046 1.392 1_556 S
C1047 C1048 1.411 . S
C1047 C1053 1.487 1_556 S
C1048 H1039 0.950 . S
C1048 C1047 1.411 . S
C1048 C1049 1.391 . S
C1049 H1037 0.950 . S
C1049 C1045 1.393 . S
C1049 C1048 1.391 . S
C1050 H1040 0.950 . S
C1050 C1051 1.386 1_556 S
C1050 C1052 1.391 . S
C1051 C1050 1.386 1_554 S
C1051 C1055 1.393 . S
C1052 H1041 0.950 . S
C1052 C1050 1.391 . S
C1052 C1053 1.400 1_556 S
C1053 C1047 1.487 1_554 S
C1053 C1052 1.400 1_554 S
C1053 C1054 1.398 . S
C1054 H1042 0.950 . S
C1054 C1053 1.398 . S
C1054 C1055 1.391 . S
C1055 H1043 0.950 . S
C1055 C1051 1.393 . S
C1055 C1054 1.391 . S
H1056 C1064 0.950 . S
H1057 C1069 0.950 . S
H1058 C1066 0.950 . S
H1059 C1068 0.950 . S
H1060 C1070 0.950 . S
H1061 C1072 0.950 . S
H1062 C1074 0.950 . S
H1063 C1075 0.950 . S
C1064 H1056 0.950 . S
C1064 C1065 1.386 . S
C1064 C1066 1.391 . S
C1065 C1064 1.386 . S
C1065 C1069 1.393 1_455 S
C1066 H1058 0.950 . S
C1066 C1064 1.391 . S
C1066 C1067 1.400 . S
C1067 C1066 1.400 . S
C1067 C1068 1.398 1_455 S
C1067 C1073 1.491 1_565 S
C1068 H1059 0.950 . S
C1068 C1067 1.398 1_655 S
C1068 C1069 1.391 . S
C1069 H1057 0.950 . S
C1069 C1065 1.393 1_655 S
C1069 C1068 1.391 . S
C1070 H1060 0.950 . S
C1070 C1071 1.351 1_655 S
C1070 C1072 1.391 . S
C1071 C1070 1.351 1_455 S
C1071 C1075 1.428 . S
C1072 H1061 0.950 . S
C1072 C1070 1.391 . S
C1072 C1073 1.400 1_655 S
C1073 C1067 1.491 1_545 S
C1073 C1072 1.400 1_455 S
C1073 C1074 1.398 . S
C1074 H1062 0.950 . S
C1074 C1073 1.398 . S
C1074 C1075 1.391 . S
C1075 H1063 0.950 . S
C1075 C1071 1.428 . S
C1075 C1074 1.391 . S
H1076 C1084 0.950 . S
H1077 C1089 0.950 . S
H1078 C1086 0.950 . S
H1079 C1088 0.950 . S
H1080 C1090 0.950 . S
H1081 C1092 0.950 . S
H1082 C1094 0.950 . S
H1083 C1095 0.950 . S
C1084 H1076 0.950 . S
C1084 C1085 1.386 . S
C1084 C1086 1.391 . S
C1085 C1084 1.386 . S
C1085 C1089 1.393 1_655 S
C1086 H1078 0.950 . S
C1086 C1084 1.391 . S
C1086 C1087 1.400 . S
C1087 C1086 1.400 . S
C1087 C1088 1.398 1_655 S
C1087 C1093 1.491 . S
C1088 H1079 0.950 . S
C1088 C1087 1.398 1_455 S
C1088 C1089 1.391 . S
C1089 H1077 0.950 . S
C1089 C1085 1.393 1_455 S
C1089 C1088 1.391 . S
C1090 H1080 0.950 . S
C1090 C1091 1.386 1_455 S
C1090 C1092 1.391 . S
C1091 C1090 1.386 1_655 S
C1091 C1095 1.393 . S
C1092 H1081 0.950 . S
C1092 C1090 1.391 . S
C1092 C1093 1.400 1_455 S
C1093 C1087 1.491 . S
C1093 C1092 1.400 1_655 S
C1093 C1094 1.398 . S
C1094 H1082 0.950 . S
C1094 C1093 1.398 . S
C1094 C1095 1.391 . S
C1095 H1083 0.950 . S
C1095 C1091 1.393 . S
C1095 C1094 1.391 . S
H1096 C1104 0.950 . S
H1097 C1109 0.950 . S
H1098 C1106 0.950 1_554 S
H1099 C1108 0.950 . S
H1100 C1110 0.950 . S
H1101 C1112 0.950 1_556 S
H1102 C1114 0.950 . S
H1103 C1115 0.950 . S
C1104 H1096 0.950 . S
C1104 C1105 1.386 1_565 S
C1104 C1106 1.391 . S
C1105 C1104 1.386 1_545 S
C1105 C1109 1.393 . S
C1106 H1098 0.950 1_556 S
C1106 C1104 1.391 . S
C1106 C1107 1.400 1_565 S
C1107 C1106 1.400 1_545 S
C1107 C1108 1.398 . S
C1107 C1113 1.491 1_556 S
C1108 H1099 0.950 . S
C1108 C1107 1.398 . S
C1108 C1109 1.391 . S
C1109 H1097 0.950 . S
C1109 C1105 1.393 . S
C1109 C1108 1.391 . S
C1110 H1100 0.950 . S
C1110 C1111 1.386 . S
C1110 C1112 1.391 . S
C1111 C1110 1.386 . S
C1111 C1115 1.393 1_545 S
C1112 H1101 0.950 1_554 S
C1112 C1110 1.391 . S
C1112 C1113 1.400 . S
C1113 C1107 1.491 1_554 S
C1113 C1112 1.400 . S
C1113 C1114 1.398 1_545 S
C1114 H1102 0.950 . S
C1114 C1113 1.398 1_565 S
C1114 C1115 1.391 . S
C1115 H1103 0.950 . S
C1115 C1111 1.393 1_565 S
C1115 C1114 1.391 . S
H1116 C1124 0.950 . S
H1117 C1129 0.950 . S
H1118 C1126 0.950 1_556 S
H1119 C1128 0.950 . S
H1120 C1130 0.950 . S
H1121 C1132 0.950 . S
H1122 C1134 0.950 . S
H1123 C1135 0.950 . S
C1124 H1116 0.950 . S
C1124 C1125 1.386 . S
C1124 C1126 1.391 . S
C1125 C1124 1.386 . S
C1125 C1129 1.393 . S
C1126 H1118 0.950 1_554 S
C1126 C1124 1.391 . S
C1126 C1127 1.400 . S
C1127 C1126 1.400 . S
C1127 C1128 1.398 . S
C1127 C1133 1.491 1_554 S
C1128 H1119 0.950 . S
C1128 C1127 1.398 . S
C1128 C1129 1.391 . S
C1129 H1117 0.950 . S
C1129 C1125 1.393 . S
C1129 C1128 1.391 . S
C1130 H1120 0.950 . S
C1130 C1131 1.386 . S
C1130 C1132 1.391 . S
C1131 C1130 1.386 . S
C1131 C1135 1.393 . S
C1132 H1121 0.950 . S
C1132 C1130 1.391 . S
C1132 C1133 1.400 . S
C1133 C1127 1.491 1_556 S
C1133 C1132 1.400 . S
C1133 C1134 1.398 . S
C1134 H1122 0.950 . S
C1134 C1133 1.398 . S
C1134 C1135 1.391 . S
C1135 H1123 0.950 . S
C1135 C1131 1.393 . S
C1135 C1134 1.391 . S
H1136 C1144 0.950 . S
H1137 C1149 0.950 . S
H1138 C1146 0.950 . S
H1139 C1148 0.950 . S
H1140 C1150 0.950 . S
H1141 C1152 0.950 . S
H1142 C1154 0.950 . S
H1143 C1155 0.950 . S
C1144 H1136 0.950 . S
C1144 C1145 1.386 1_545 S
C1144 C1146 1.391 . S
C1145 C1144 1.386 1_565 S
C1145 C1149 1.393 . S
C1146 H1138 0.950 . S
C1146 C1144 1.391 . S
C1146 C1147 1.400 1_545 S
C1147 C1146 1.400 1_565 S
C1147 C1148 1.398 . S
C1147 C1153 1.491 . S
C1148 H1139 0.950 . S
C1148 C1147 1.398 . S
C1148 C1149 1.391 . S
C1149 H1137 0.950 . S
C1149 C1145 1.393 . S
C1149 C1148 1.391 . S
C1150 H1140 0.950 . S
C1150 C1151 1.386 . S
C1150 C1152 1.391 . S
C1151 C1150 1.386 . S
C1151 C1155 1.393 1_565 S
C1152 H1141 0.950 . S
C1152 C1150 1.391 . S
C1152 C1153 1.400 . S
C1153 C1147 1.491 . S
C1153 C1152 1.400 . S
C1153 C1154 1.398 1_565 S
C1154 H1142 0.950 . S
C1154 C1153 1.398 1_545 S
C1154 C1155 1.391 . S
C1155 H1143 0.950 . S
C1155 C1151 1.393 1_545 S
C1155 C1154 1.391 . S
H1156 C1164 0.950 . S
H1157 C1169 0.950 . S
H1158 C1166 0.950 . S
H1159 C1168 0.950 . S
H1160 C1170 0.950 . S
H1161 C1172 0.950 . S
H1162 C1174 0.950 . S
H1163 C1175 0.950 . S
C1164 H1156 0.950 . S
C1164 C1165 1.386 . S
C1164 C1166 1.391 . S
C1165 C1164 1.386 . S
C1165 C1169 1.393 . S
C1166 H1158 0.950 . S
C1166 C1164 1.391 . S
C1166 C1167 1.400 . S
C1167 C1166 1.400 . S
C1167 C1168 1.398 . S
C1167 C1173 1.491 . S
C1168 H1159 0.950 . S
C1168 C1167 1.398 . S
C1168 C1169 1.391 . S
C1169 H1157 0.950 . S
C1169 C1165 1.393 . S
C1169 C1168 1.391 . S
C1170 H1160 0.950 . S
C1170 C1171 1.386 . S
C1170 C1172 1.391 . S
C1171 C1170 1.386 . S
C1171 C1175 1.393 . S
C1172 H1161 0.950 . S
C1172 C1170 1.391 . S
C1172 C1173 1.400 . S
C1173 C1167 1.491 . S
C1173 C1172 1.400 . S
C1173 C1174 1.398 . S
C1174 H1162 0.950 . S
C1174 C1173 1.398 . S
C1174 C1175 1.391 . S
C1175 H1163 0.950 . S
C1175 C1171 1.393 . S
C1175 C1174 1.391 . S
H1176 C1184 0.950 . S
H1177 C1189 0.950 . S
H1178 C1186 0.950 1_655 S
H1179 C1188 0.950 . S
H1180 C1190 0.950 . S
H1181 C1192 0.950 1_455 S
H1182 C1194 0.950 . S
H1183 C1195 0.950 . S
C1184 H1176 0.950 . S
C1184 C1185 1.382 1_554 S
C1184 C1186 1.391 . S
C1185 C1184 1.382 1_556 S
C1185 C1189 1.397 . S
C1186 H1178 0.950 1_455 S
C1186 C1184 1.391 . S
C1186 C1187 1.419 . S
C1187 C1186 1.419 . S
C1187 C1188 1.379 1_554 S
C1187 C1193 1.493 1_455 S
C1188 H1179 0.950 . S
C1188 C1187 1.379 1_556 S
C1188 C1189 1.391 . S
C1189 H1177 0.950 . S
C1189 C1185 1.397 . S
C1189 C1188 1.391 . S
C1190 H1180 0.950 . S
C1190 C1191 1.386 1_556 S
C1190 C1192 1.391 . S
C1191 C1190 1.386 1_554 S
C1191 C1195 1.393 . S
C1192 H1181 0.950 1_655 S
C1192 C1190 1.391 . S
C1192 C1193 1.400 1_556 S
C1193 C1187 1.493 1_655 S
C1193 C1192 1.400 1_554 S
C1193 C1194 1.398 . S
C1194 H1182 0.950 . S
C1194 C1193 1.398 . S
C1194 C1195 1.391 . S
C1195 H1183 0.950 . S
C1195 C1191 1.393 . S
C1195 C1194 1.391 . S
H1196 C1204 0.950 . S
H1197 C1209 0.950 . S
H1198 C1206 0.950 1_655 S
H1199 C1208 0.950 . S
H1200 C1210 0.950 . S
H1201 C1212 0.950 1_455 S
H1202 C1214 0.950 . S
H1203 C1215 0.950 . S
C1204 H1196 0.950 . S
C1204 C1205 1.386 . S
C1204 C1206 1.391 . S
C1205 C1204 1.386 . S
C1205 C1209 1.393 . S
C1206 H1198 0.950 1_455 S
C1206 C1204 1.391 . S
C1206 C1207 1.400 . S
C1207 C1206 1.400 . S
C1207 C1208 1.398 . S
C1207 C1213 1.491 1_455 S
C1208 H1199 0.950 . S
C1208 C1207 1.398 . S
C1208 C1209 1.391 . S
C1209 H1197 0.950 . S
C1209 C1205 1.393 . S
C1209 C1208 1.391 . S
C1210 H1200 0.950 . S
C1210 C1211 1.386 . S
C1210 C1212 1.391 . S
C1211 C1210 1.386 . S
C1211 C1215 1.393 . S
C1212 H1201 0.950 1_655 S
C1212 C1210 1.391 . S
C1212 C1213 1.400 . S
C1213 C1207 1.491 1_655 S
C1213 C1212 1.400 . S
C1213 C1214 1.398 . S
C1214 H1202 0.950 . S
C1214 C1213 1.398 . S
C1214 C1215 1.391 . S
C1215 H1203 0.950 . S
C1215 C1211 1.393 . S
C1215 C1214 1.391 . S
H1216 C1224 0.950 . S
H1217 C1229 0.950 . S
H1218 C1226 0.950 . S
H1219 C1228 0.950 . S
H1220 C1230 0.950 . S
H1221 C1232 0.950 . S
H1222 C1234 0.950 . S
H1223 C1235 0.950 . S
C1224 H1216 0.950 . S
C1224 C1225 1.386 . S
C1224 C1226 1.391 . S
C1225 C1224 1.386 . S
C1225 C1229 1.393 . S
C1226 H1218 0.950 . S
C1226 C1224 1.391 . S
C1226 C1227 1.400 . S
C1227 C1226 1.400 . S
C1227 C1228 1.398 . S
C1227 C1233 1.491 . S
C1228 H1219 0.950 . S
C1228 C1227 1.398 . S
C1228 C1229 1.391 . S
C1229 H1217 0.950 . S
C1229 C1225 1.393 . S
C1229 C1228 1.391 . S
C1230 H1220 0.950 . S
C1230 C1231 1.386 . S
C1230 C1232 1.391 . S
C1231 C1230 1.386 . S
C1231 C1235 1.393 . S
C1232 H1221 0.950 . S
C1232 C1230 1.391 . S
C1232 C1233 1.400 . S
C1233 C1227 1.491 . S
C1233 C1232 1.400 . S
C1233 C1234 1.398 . S
C1234 H1222 0.950 . S
C1234 C1233 1.398 . S
C1234 C1235 1.391 . S
C1235 H1223 0.950 . S
C1235 C1231 1.393 . S
C1235 C1234 1.391 . S
H1236 C1244 0.950 . S
H1237 C1249 0.950 . S
H1238 C1246 0.950 . S
H1239 C1248 0.950 . S
H1240 C1250 0.950 . S
H1241 C1252 0.950 . S
H1242 C1254 0.950 . S
H1243 C1255 0.950 . S
C1244 H1236 0.950 . S
C1244 C1245 1.386 . S
C1244 C1246 1.391 . S
C1245 C1244 1.386 . S
C1245 C1249 1.393 . S
C1246 H1238 0.950 . S
C1246 C1244 1.391 . S
C1246 C1247 1.400 . S
C1247 C1246 1.400 . S
C1247 C1248 1.398 . S
C1247 C1253 1.491 . S
C1248 H1239 0.950 . S
C1248 C1247 1.398 . S
C1248 C1249 1.391 . S
C1249 H1237 0.950 . S
C1249 C1245 1.393 . S
C1249 C1248 1.391 . S
C1250 H1240 0.950 . S
C1250 C1251 1.386 . S
C1250 C1252 1.391 . S
C1251 C1250 1.386 . S
C1251 C1255 1.393 . S
C1252 H1241 0.950 . S
C1252 C1250 1.391 . S
C1252 C1253 1.400 . S
C1253 C1247 1.491 . S
C1253 C1252 1.400 . S
C1253 C1254 1.398 . S
C1254 H1242 0.950 . S
C1254 C1253 1.398 . S
C1254 C1255 1.391 . S
C1255 H1243 0.950 . S
C1255 C1251 1.393 . S
C1255 C1254 1.391 . S
H1256 C1264 0.950 . S
H1257 C1269 0.950 . S
H1258 C1266 0.950 . S
H1259 C1268 0.950 . S
H1260 C1270 0.950 . S
H1261 C1272 0.950 . S
H1262 C1274 0.950 1_565 S
H1263 C1275 0.950 . S
C1264 H1256 0.950 . S
C1264 C1265 1.386 . S
C1264 C1266 1.391 . S
C1265 C1264 1.386 . S
C1265 C1269 1.393 . S
C1266 H1258 0.950 . S
C1266 C1264 1.391 . S
C1266 C1267 1.400 . S
C1267 C1266 1.400 . S
C1267 C1268 1.398 . S
C1267 C1273 1.491 1_565 S
C1268 H1259 0.950 . S
C1268 C1267 1.398 . S
C1268 C1269 1.391 . S
C1269 H1257 0.950 . S
C1269 C1265 1.393 . S
C1269 C1268 1.391 . S
C1270 H1260 0.950 . S
C1270 C1271 1.386 . S
C1270 C1272 1.391 . S
C1271 C1270 1.386 . S
C1271 C1275 1.393 . S
C1272 H1261 0.950 . S
C1272 C1270 1.391 . S
C1272 C1273 1.400 . S
C1273 C1267 1.491 1_545 S
C1273 C1272 1.400 . S
C1273 C1274 1.398 . S
C1274 H1262 0.950 1_545 S
C1274 C1273 1.398 . S
C1274 C1275 1.391 . S
C1275 H1263 0.950 . S
C1275 C1271 1.393 . S
C1275 C1274 1.391 . S
H1276 C1284 0.950 . S
H1277 C1289 0.950 . S
H1278 C1286 0.950 . S
H1279 C1288 0.950 . S
H1280 C1290 0.950 . S
H1281 C1292 0.950 . S
H1282 C1294 0.950 . S
H1283 C1295 0.950 . S
C1284 H1276 0.950 . S
C1284 C1285 1.386 1_554 S
C1284 C1286 1.391 . S
C1285 C1284 1.386 1_556 S
C1285 C1289 1.393 . S
C1286 H1278 0.950 . S
C1286 C1284 1.391 . S
C1286 C1287 1.400 1_554 S
C1287 C1286 1.400 1_556 S
C1287 C1288 1.398 . S
C1287 C1293 1.491 . S
C1288 H1279 0.950 . S
C1288 C1287 1.398 . S
C1288 C1289 1.391 . S
C1289 H1277 0.950 . S
C1289 C1285 1.393 . S
C1289 C1288 1.391 . S
C1290 H1280 0.950 . S
C1290 C1291 1.386 . S
C1290 C1292 1.391 . S
C1291 C1290 1.386 . S
C1291 C1295 1.393 1_556 S
C1292 H1281 0.950 . S
C1292 C1290 1.391 . S
C1292 C1293 1.400 . S
C1293 C1287 1.491 . S
C1293 C1292 1.400 . S
C1293 C1294 1.398 1_556 S
C1294 H1282 0.950 . S
C1294 C1293 1.398 1_554 S
C1294 C1295 1.391 . S
C1295 H1283 0.950 . S
C1295 C1291 1.393 1_554 S
C1295 C1294 1.391 . S
C345 C247 0.633 . S
C351 C3 0.549 . S
C365 C17 0.631 . S
C371 C233 0.640 . S
C385 C31 0.748 . S
C391 C275 0.769 . S
C405 C45 0.814 . S
C411 C261 0.821 . S
C425 C59 0.566 . S
C431 C303 0.647 . S
C445 C73 0.725 . S
C451 C317 0.750 . S
C465 C289 0.676 . S
C471 C87 0.612 . S
C485 C163 0.799 . S
C491 C101 0.771 . S
C505 C115 0.597 . S
C511 C51 0.591 . S
C525 C23 0.735 . S
C531 C129 0.702 . S
C545 C143 0.888 . S
C551 C9 0.845 . S
C565 C157 0.784 . S
C571 C205 0.759 . S
C585 C79 0.869 . S
C591 C171 0.931 . S
C605 C65 0.874 . S
C611 C185 0.904 . S
C625 C199 0.756 . S
C631 C107 0.736 . S
C645 C213 0.704 . S
C651 C93 0.707 . S
C665 C135 0.892 . S
C671 C227 0.933 . S
C685 C149 0.765 . S
C691 C241 0.813 . S
C705 C121 0.860 . S
C711 C255 0.904 . S
C725 C269 0.725 . S
C731 C331 0.722 . S
C745 C219 0.918 . S
C751 C283 0.952 . S
C765 C297 0.790 . S
C771 C191 0.754 . S
C785 C177 0.647 . S
C791 C311 0.620 . S
C805 C325 0.754 . S
C811 C37 0.720 . S
C825 C8 1.763 . S
C831 C22 1.760 . S
C845 C50 1.654 . S
C851 C36 1.676 . S
C865 C64 1.762 . S
C871 C92 1.755 . S
C885 C78 1.964 . S
C891 C106 1.939 . S
C905 C316 1.761 . S
C911 C120 1.764 . S
C925 C134 1.959 . S
C931 C162 1.941 . S
C945 C288 1.865 . S
C951 C148 1.884 . S
C965 C190 1.892 . S
C971 C176 1.866 . S
C985 C204 1.954 . S
C991 C218 1.962 . S
C1005 C260 1.886 . S
C1011 C232 1.864 . S
C1025 C246 1.668 . S
C1031 C274 1.674 . S
C1045 C330 1.678 . S
C1051 C302 1.664 . S
C1065 C35 1.105 . S
C1071 C7 1.109 . S
C1085 C21 1.333 . S
C1091 C49 1.325 . S
C1105 C273 1.148 . S
C1111 C63 1.145 . S
C1125 C77 1.307 . S
C1131 C259 1.303 . S
C1145 C91 1.359 . S
C1151 C245 1.352 . S
C1165 C231 1.492 . S
C1171 C105 1.500 . S
C1185 C119 1.122 1_556 S
C1191 C329 1.115 . S
C1205 C133 1.285 . S
C1211 C147 1.277 . S
C1225 C287 1.517 . S
C1231 C161 1.522 . S
C1245 C175 1.520 . S
C1251 C203 1.521 . S
C1265 C189 1.263 . S
C1271 C217 1.268 . S
C1285 C315 1.360 . S
C1291 C301 1.360 . S
