# Generated by pormake.
# Topology umj, (4)-cn, num edge types: 1
# Building blocks:
#     Node 0, Type 0, BuildingBlock: NAWXER_clean_sbu_0, # of connection points: 4
#     Node 1, Type 0, BuildingBlock: NAWXER_clean_sbu_0, # of connection points: 4
#     Node 2, Type 0, BuildingBlock: NAWXER_clean_sbu_0, # of connection points: 4
#     Node 3, Type 0, BuildingBlock: NAWXER_clean_sbu_0, # of connection points: 4
#     Node 4, Type 0, BuildingBlock: NAWXER_clean_sbu_0, # of connection points: 4
#     Node 5, Type 0, BuildingBlock: NAWXER_clean_sbu_0, # of connection points: 4
#     Node 6, Type 0, BuildingBlock: NAWXER_clean_sbu_0, # of connection points: 4
#     Node 7, Type 0, BuildingBlock: NAWXER_clean_sbu_0, # of connection points: 4
#     Node 8, Type 0, BuildingBlock: NAWXER_clean_sbu_0, # of connection points: 4
#     Node 9, Type 0, BuildingBlock: NAWXER_clean_sbu_0, # of connection points: 4
#     Node 10, Type 0, BuildingBlock: NAWXER_clean_sbu_0, # of connection points: 4
#     Node 11, Type 0, BuildingBlock: NAWXER_clean_sbu_0, # of connection points: 4
#     Edge 12, Type (0, 0), BuildingBlock: TEMPAE_clean_linker_10, # of connection points: 2
#     Edge 13, Type (0, 0), BuildingBlock: TEMPAE_clean_linker_10, # of connection points: 2
#     Edge 14, Type (0, 0), BuildingBlock: TEMPAE_clean_linker_10, # of connection points: 2
#     Edge 15, Type (0, 0), BuildingBlock: TEMPAE_clean_linker_10, # of connection points: 2
#     Edge 16, Type (0, 0), BuildingBlock: TEMPAE_clean_linker_10, # of connection points: 2
#     Edge 17, Type (0, 0), BuildingBlock: TEMPAE_clean_linker_10, # of connection points: 2
#     Edge 18, Type (0, 0), BuildingBlock: TEMPAE_clean_linker_10, # of connection points: 2
#     Edge 19, Type (0, 0), BuildingBlock: TEMPAE_clean_linker_10, # of connection points: 2
#     Edge 20, Type (0, 0), BuildingBlock: TEMPAE_clean_linker_10, # of connection points: 2
#     Edge 21, Type (0, 0), BuildingBlock: TEMPAE_clean_linker_10, # of connection points: 2
#     Edge 22, Type (0, 0), BuildingBlock: TEMPAE_clean_linker_10, # of connection points: 2
#     Edge 23, Type (0, 0), BuildingBlock: TEMPAE_clean_linker_10, # of connection points: 2
#     Edge 24, Type (0, 0), BuildingBlock: TEMPAE_clean_linker_10, # of connection points: 2
#     Edge 25, Type (0, 0), BuildingBlock: TEMPAE_clean_linker_10, # of connection points: 2
#     Edge 26, Type (0, 0), BuildingBlock: TEMPAE_clean_linker_10, # of connection points: 2
#     Edge 27, Type (0, 0), BuildingBlock: TEMPAE_clean_linker_10, # of connection points: 2
#     Edge 28, Type (0, 0), BuildingBlock: TEMPAE_clean_linker_10, # of connection points: 2
#     Edge 29, Type (0, 0), BuildingBlock: TEMPAE_clean_linker_10, # of connection points: 2
#     Edge 30, Type (0, 0), BuildingBlock: TEMPAE_clean_linker_10, # of connection points: 2
#     Edge 31, Type (0, 0), BuildingBlock: TEMPAE_clean_linker_10, # of connection points: 2
#     Edge 32, Type (0, 0), BuildingBlock: TEMPAE_clean_linker_10, # of connection points: 2
#     Edge 33, Type (0, 0), BuildingBlock: TEMPAE_clean_linker_10, # of connection points: 2
#     Edge 34, Type (0, 0), BuildingBlock: TEMPAE_clean_linker_10, # of connection points: 2
#     Edge 35, Type (0, 0), BuildingBlock: TEMPAE_clean_linker_10, # of connection points: 2
# Relax obj value: 0.019
# Max RMSD: 0.124
# Mean RMSD: 0.123
data_MOF--net-umj--node1-NAWXER_clean_sbu_0--edge1-TEMPAE_clean_linker_10
_symmetry_space_group_name_H-M    P1
_symmetry_Int_Tables_number       1
_symmetry_cell_setting            triclinic
loop_
_symmetry_equiv_pos_as_xyz
'x, y, z'
_cell_length_a     29.847691
_cell_length_b     29.923359
_cell_length_c     85.865541
_cell_angle_alpha  89.966007
_cell_angle_beta   90.117038
_cell_angle_gamma 119.86902
loop_
_atom_site_label
_atom_site_type_symbol
_atom_site_fract_x
_atom_site_fract_y
_atom_site_fract_z
_atom_type_partial_charge
C0 C 0.06169 0.27245 0.12303 0.0
C1 C 0.10763 0.30396 0.06769 0.0
O2 O 0.10728 0.29892 0.11763 0.0
Zn3 Zn 0.08805 0.28964 0.09572 0.0
O4 O 0.02288 0.25195 0.11375 0.0
Zn5 Zn 0.00724 0.24761 0.08933 0.0
O6 O 0.97441 0.17409 0.08539 0.0
O7 O 0.0561 0.20839 0.09265 0.0
O8 O 0.05918 0.27754 0.07045 0.0
O9 O 0.13942 0.31928 0.07903 0.0
O10 O 0.0513 0.3344 0.09419 0.0
O11 O 0.9698 0.28527 0.08716 0.0
C12 C 0.01317 0.16888 0.0887 0.0
C13 C 0.00722 0.32935 0.09087 0.0
C14 C 0.75061 0.02753 0.39329 0.0
C15 C 0.73551 0.98243 0.44851 0.0
O16 O 0.77164 0.06662 0.40237 0.0
Zn17 Zn 0.78584 0.08334 0.42654 0.0
O18 O 0.73118 0.98242 0.39896 0.0
Zn19 Zn 0.74482 0.00349 0.42082 0.0
O20 O 0.69785 0.03942 0.42438 0.0
O21 O 0.75053 0.12213 0.42936 0.0
O22 O 0.72068 0.9517 0.43697 0.0
O23 O 0.75947 0.03132 0.44618 0.0
O24 O 0.86106 0.11867 0.42767 0.0
O25 O 0.82689 0.03574 0.42262 0.0
C26 C 0.705 0.08459 0.42733 0.0
C27 C 0.86667 0.07994 0.42511 0.0
C28 C 0.72775 0.77344 0.78748 0.0
C29 C 0.69816 0.79583 0.73238 0.0
O30 O 0.70087 0.79272 0.78245 0.0
Zn31 Zn 0.70987 0.78514 0.7603 0.0
O32 O 0.74825 0.75619 0.77785 0.0
Zn33 Zn 0.75262 0.74758 0.75329 0.0
O34 O 0.82646 0.78854 0.74968 0.0
O35 O 0.79133 0.83468 0.75742 0.0
O36 O 0.72446 0.77338 0.73481 0.0
O37 O 0.68084 0.80928 0.74393 0.0
O38 O 0.66508 0.70426 0.7578 0.0
O39 O 0.71461 0.67302 0.75017 0.0
C40 C 0.83122 0.83195 0.75335 0.0
C41 C 0.67026 0.66583 0.75392 0.0
C42 C 0.99499 0.65955 0.0911 0.0
C43 C 0.99366 0.82247 0.08966 0.0
O44 O 0.03318 0.70341 0.08765 0.0
Zn45 Zn 0.99735 0.74255 0.09004 0.0
O46 O 0.95134 0.65549 0.0944 0.0
Zn47 Zn 0.91643 0.70188 0.09621 0.0
O48 O 0.86518 0.67426 0.07933 0.0
O49 O 0.9456 0.71486 0.07099 0.0
O50 O 0.9502 0.78345 0.09345 0.0
O51 O 0.03185 0.81631 0.08641 0.0
O52 O 0.98162 0.73733 0.11447 0.0
O53 O 0.89709 0.69196 0.11812 0.0
C54 C 0.89715 0.6897 0.06807 0.0
C55 C 0.94268 0.71713 0.12366 0.0
C56 C 0.19994 0.07249 0.4168 0.0
C57 C 0.36781 0.0803 0.41754 0.0
O58 O 0.24435 0.11148 0.41459 0.0
Zn59 Zn 0.28389 0.07667 0.41682 0.0
O60 O 0.19569 0.02829 0.41945 0.0
Zn61 Zn 0.24763 0.99753 0.42212 0.0
O62 O 0.23759 0.97418 0.44346 0.0
O63 O 0.27338 0.05856 0.44123 0.0
O64 O 0.3301 0.03471 0.4199 0.0
O65 O 0.3589 0.11717 0.41541 0.0
O66 O 0.26091 0.02506 0.39674 0.0
O67 O 0.22548 0.94616 0.40626 0.0
C68 C 0.25571 0.01819 0.44978 0.0
C69 C 0.23941 0.9761 0.39457 0.0
C70 C 0.30677 0.1875 0.73419 0.0
C71 C 0.27945 0.21912 0.78847 0.0
O72 O 0.32329 0.17472 0.7461 0.0
Zn73 Zn 0.29646 0.20324 0.7617 0.0
O74 O 0.28245 0.21226 0.73597 0.0
Zn75 Zn 0.25661 0.24277 0.75373 0.0
O76 O 0.29737 0.31677 0.74984 0.0
O77 O 0.34421 0.28345 0.75834 0.0
O78 O 0.26026 0.23659 0.77842 0.0
O79 O 0.30482 0.19763 0.78398 0.0
O80 O 0.21462 0.15616 0.75877 0.0
O81 O 0.18264 0.20408 0.74999 0.0
C82 C 0.34101 0.32251 0.75384 0.0
C83 C 0.17591 0.16036 0.75425 0.0
C84 C 0.65609 0.96483 0.59305 0.0
C85 C 0.81818 0.96196 0.59514 0.0
O86 O 0.70104 0.00281 0.5955 0.0
Zn87 Zn 0.73795 0.96485 0.59428 0.0
O88 O 0.65005 0.91977 0.59098 0.0
Zn89 Zn 0.69615 0.88352 0.59048 0.0
O90 O 0.67009 0.83753 0.60847 0.0
O91 O 0.71256 0.91969 0.61488 0.0
O92 O 0.7789 0.91737 0.59248 0.0
O93 O 0.81188 1.00057 0.59716 0.0
O94 O 0.72922 0.94097 0.57029 0.0
O95 O 0.68252 0.85589 0.56948 0.0
C96 C 0.6872 0.87228 0.61893 0.0
C97 C 0.7072 0.89887 0.56245 0.0
C98 C 0.80632 0.69677 0.95586 0.0
C99 C 0.78238 0.72702 0.90096 0.0
O100 O 0.81971 0.67985 0.94419 0.0
Zn101 Zn 0.79541 0.70931 0.92804 0.0
O102 O 0.78381 0.72309 0.95362 0.0
Zn103 Zn 0.75753 0.75151 0.93533 0.0
O104 O 0.68281 0.71318 0.93858 0.0
O105 O 0.71454 0.66444 0.93061 0.0
O106 O 0.76527 0.74728 0.91073 0.0
O107 O 0.80234 0.7006 0.90584 0.0
O108 O 0.8449 0.79044 0.93113 0.0
O109 O 0.79858 0.82511 0.93912 0.0
C110 C 0.67591 0.66917 0.93465 0.0
C111 C 0.84211 0.83005 0.93538 0.0
C112 C 0.11429 0.80739 0.28996 0.0
C113 C 0.04531 0.75826 0.23694 0.0
O114 O 0.14072 0.81469 0.27764 0.0
Zn115 Zn 0.08228 0.77952 0.26325 0.0
O116 O 0.06493 0.78099 0.28919 0.0
Zn117 Zn 0.00529 0.74277 0.27239 0.0
O118 O 0.97314 0.67024 0.27814 0.0
O119 O 0.05124 0.69995 0.26852 0.0
O120 O 0.01032 0.74296 0.24747 0.0
O121 O 0.09273 0.78031 0.24088 0.0
O122 O 0.04726 0.82711 0.2652 0.0
O123 O 0.96911 0.781 0.27525 0.0
C124 C 0.00966 0.66251 0.27409 0.0
C125 C 0.00495 0.82371 0.26995 0.0
C126 C 0.30599 0.08952 0.62244 0.0
C127 C 0.28177 0.05933 0.56635 0.0
O128 O 0.32232 0.12315 0.61168 0.0
Zn129 Zn 0.29479 0.07594 0.59413 0.0
O130 O 0.28002 0.0417 0.61884 0.0
Zn131 Zn 0.25301 0.99506 0.59851 0.0
O132 O 0.28986 0.95685 0.59959 0.0
O133 O 0.34045 0.03936 0.59428 0.0
O134 O 0.26014 0.01757 0.57435 0.0
O135 O 0.30716 0.10265 0.57318 0.0
O136 O 0.21224 0.04252 0.59611 0.0
O137 O 0.17902 0.95977 0.60154 0.0
C138 C 0.33448 0.99441 0.59651 0.0
C139 C 0.17286 0.99824 0.59897 0.0
C140 C 0.22793 0.27615 0.90109 0.0
C141 C 0.2028 0.30556 0.95581 0.0
O142 O 0.20717 0.30189 0.90586 0.0
Zn143 Zn 0.21473 0.29391 0.92807 0.0
O144 O 0.24614 0.25702 0.91091 0.0
Zn145 Zn 0.25475 0.25376 0.93549 0.0
O146 O 0.2156 0.18002 0.93932 0.0
O147 O 0.16739 0.21248 0.93113 0.0
O148 O 0.22677 0.28064 0.95365 0.0
O149 O 0.18867 0.32178 0.94412 0.0
O150 O 0.29532 0.34094 0.93079 0.0
O151 O 0.32943 0.29425 0.93875 0.0
C152 C 0.17158 0.17368 0.93543 0.0
C153 C 0.33484 0.33775 0.93488 0.0
C154 C 0.94723 0.218 0.23497 0.0
C155 C 0.86882 0.16269 0.28653 0.0
O156 O 0.89918 0.19477 0.23808 0.0
Zn157 Zn 0.90567 0.19315 0.26053 0.0
O158 O 0.98037 0.23246 0.24607 0.0
Zn159 Zn 0.98087 0.22964 0.27101 0.0
O160 O 0.01694 0.19163 0.27454 0.0
O161 O 0.94091 0.14592 0.26309 0.0
O162 O 0.9182 0.18969 0.28666 0.0
O163 O 0.84461 0.15585 0.27374 0.0
O164 O 0.93492 0.27211 0.26655 0.0
O165 O 0.01131 0.30126 0.2775 0.0
C166 C 0.98241 0.14927 0.26864 0.0
C167 C 0.97526 0.30905 0.27291 0.0
C168 C 0.01132 0.22675 0.21496 0.0
C169 C 0.96573 0.22701 0.2187 0.0
C170 C 0.02979 0.23471 0.19962 0.0
C171 C 1.00287 0.24477 0.1878 0.0
C172 C 0.9573 0.24609 0.19158 0.0
C173 C 0.93877 0.23632 0.20697 0.0
C174 C 0.07745 0.23122 0.19599 0.0
C175 C 0.9282 0.25791 0.17938 0.0
C176 C 0.07396 0.30707 0.15013 0.0
C177 C 0.05184 0.2651 0.13989 0.0
C178 C 0.05841 0.30113 0.16581 0.0
C179 C 0.02117 0.25177 0.17138 0.0
C180 C 1.00062 0.20893 0.16117 0.0
C181 C 0.01553 0.21633 0.14549 0.0
C182 C 0.08023 0.34793 0.17624 0.0
C183 C 0.9622 0.15539 0.16674 0.0
H184 H 0.03201 0.21911 0.22401 0.0
H185 H 0.90376 0.23695 0.20988 0.0
H186 H 0.0679 0.20029 0.1873 0.0
H187 H 0.10758 0.26782 0.19077 0.0
H188 H 0.09382 0.22296 0.20652 0.0
H189 H 0.89547 0.26081 0.1844 0.0
H190 H 0.95471 0.29474 0.17346 0.0
H191 H 0.91281 0.2273 0.17036 0.0
H192 H 0.10142 0.34491 0.14569 0.0
H193 H 0.99848 0.18391 0.13751 0.0
H194 H 0.09847 0.34183 0.18667 0.0
H195 H 0.0485 0.35406 0.18039 0.0
H196 H 0.10937 0.3834 0.17019 0.0
H197 H 0.97758 0.14531 0.17712 0.0
H198 H 0.95296 0.12572 0.15762 0.0
H199 H 0.92583 0.15402 0.17029 0.0
C200 C 0.71412 0.98836 0.47615 0.0
C201 C 0.72575 0.96262 0.46463 0.0
C202 C 0.70744 0.97212 0.49173 0.0
C203 C 0.71441 0.93023 0.49599 0.0
C204 C 0.72552 0.90363 0.48434 0.0
C205 C 0.73022 0.91966 0.46872 0.0
C206 C 0.69408 1.00063 0.50368 0.0
C207 C 0.73476 0.85983 0.48846 0.0
C208 C 0.75618 0.93761 0.5381 0.0
C209 C 0.7101 0.90158 0.54529 0.0
C210 C 0.75876 0.94501 0.52193 0.0
C211 C 0.71362 0.91702 0.51278 0.0
C212 C 0.66719 0.8796 0.51996 0.0
C213 C 0.66621 0.87174 0.53615 0.0
C214 C 0.80944 0.98414 0.51472 0.0
C215 C 0.61792 0.85002 0.5107 0.0
H216 H 0.71017 0.0213 0.47295 0.0
H217 H 0.7396 0.89999 0.45981 0.0
H218 H 0.66052 0.97299 0.51074 0.0
H219 H 0.72711 0.02177 0.51177 0.0
H220 H 0.68478 0.02874 0.49825 0.0
H221 H 0.74004 0.84123 0.47797 0.0
H222 H 0.76987 0.87455 0.49584 0.0
H223 H 0.70199 0.83021 0.49534 0.0
H224 H 0.79021 0.96047 0.5452 0.0
H225 H 0.63044 0.84425 0.54176 0.0
H226 H 0.80659 0.01771 0.51052 0.0
H227 H 0.81835 0.96725 0.5045 0.0
H228 H 0.84206 0.99818 0.52311 0.0
H229 H 0.60533 0.87701 0.50639 0.0
H230 H 0.5862 0.81961 0.51775 0.0
H231 H 0.62444 0.83184 0.50036 0.0
C232 C 0.69663 0.75636 0.81509 0.0
C233 C 0.73655 0.77063 0.80429 0.0
C234 C 0.70395 0.74854 0.83085 0.0
C235 C 0.7528 0.75686 0.83593 0.0
C236 C 0.79365 0.77304 0.82509 0.0
C237 C 0.78475 0.77888 0.80938 0.0
C238 C 0.65913 0.73016 0.84198 0.0
C239 C 0.84677 0.78409 0.83008 0.0
C240 C 0.7839 0.78209 0.87906 0.0
C241 C 0.77808 0.73498 0.88417 0.0
C242 C 0.77665 0.78998 0.86336 0.0
C243 C 0.76152 0.74916 0.85258 0.0
C244 C 0.75554 0.70139 0.85769 0.0
C245 C 0.76472 0.69512 0.87341 0.0
C246 C 0.78521 0.84204 0.85833 0.0
C247 C 0.73834 0.65658 0.84663 0.0
H248 H 0.6592 0.74938 0.81111 0.0
H249 H 0.81573 0.79018 0.80101 0.0
H250 H 0.65113 0.69315 0.84735 0.0
H251 H 0.66896 0.75838 0.85157 0.0
H252 H 0.62341 0.72449 0.83615 0.0
H253 H 0.87495 0.79874 0.82034 0.0
H254 H 0.86147 0.81304 0.8396 0.0
H255 H 0.84473 0.74852 0.83471 0.0
H256 H 0.79447 0.81304 0.88738 0.0
H257 H 0.75957 0.65848 0.87741 0.0
H258 H 0.74873 0.83819 0.85371 0.0
H259 H 0.81403 0.85758 0.84879 0.0
H260 H 0.79901 0.87035 0.86804 0.0
H261 H 0.70073 0.64712 0.84129 0.0
H262 H 0.73412 0.62161 0.85251 0.0
H263 H 0.76662 0.6671 0.83702 0.0
C264 C 0.99069 0.77053 0.14649 0.0
C265 C 0.95233 0.72308 0.14059 0.0
C266 C 0.00453 0.77638 0.16229 0.0
C267 C 0.98074 0.73319 0.17233 0.0
C268 C 0.94167 0.68513 0.16643 0.0
C269 C 0.92729 0.68086 0.15064 0.0
C270 C 0.045 0.82869 0.16819 0.0
C271 C 0.91634 0.6379 0.17666 0.0
C272 C 0.05656 0.7413 0.20902 0.0
C273 C 0.0296 0.75195 0.22039 0.0
C274 C 0.04018 0.73361 0.19338 0.0
C275 C 0.997 0.73853 0.18898 0.0
C276 C 0.97031 0.7502 0.20042 0.0
C277 C 0.98642 0.75591 0.21601 0.0
C278 C 0.06885 0.71991 0.18159 0.0
C279 C 0.92531 0.75761 0.19616 0.0
H280 H 0.00999 0.8032 0.13869 0.0
H281 H 0.8982 0.64398 0.14599 0.0
H282 H 0.02988 0.84009 0.17832 0.0
H283 H 0.0795 0.82712 0.17223 0.0
H284 H 0.05727 0.85899 0.15911 0.0
H285 H 0.88681 0.6034 0.17029 0.0
H286 H 0.94609 0.62952 0.18132 0.0
H287 H 0.89762 0.64489 0.18678 0.0
H288 H 0.08969 0.73782 0.21243 0.0
H289 H 0.96579 0.76462 0.22478 0.0
H290 H 0.08675 0.75074 0.1727 0.0
H291 H 0.04148 0.68387 0.17543 0.0
H292 H 0.09966 0.71457 0.18704 0.0
H293 H 0.93775 0.78898 0.18745 0.0
H294 H 0.90922 0.76738 0.20642 0.0
H295 H 0.89408 0.72205 0.19073 0.0
C296 C 0.31928 0.08763 0.5398 0.0
C297 C 0.27697 0.05618 0.54926 0.0
C298 C 0.316 0.08168 0.52354 0.0
C299 C 0.26873 0.04469 0.51662 0.0
C300 C 0.22541 0.01414 0.52616 0.0
C301 C 0.23036 0.01961 0.54239 0.0
C302 C 0.36344 0.11392 0.51379 0.0
C303 C 0.17388 0.97554 0.51923 0.0
C304 C 0.24979 0.06179 0.47372 0.0
C305 C 0.25733 0.02357 0.46686 0.0
C306 C 0.2524 0.06844 0.48994 0.0
C307 C 0.26472 0.03735 0.49944 0.0
C308 C 0.27288 0.99901 0.49252 0.0
C309 C 0.26817 0.99196 0.4763 0.0
C310 C 0.24164 0.10848 0.49691 0.0
C311 C 0.2875 0.96607 0.50221 0.0
H312 H 0.35546 0.11551 0.54517 0.0
H313 H 0.19755 0.99554 0.54975 0.0
H314 H 0.3734 0.08841 0.50706 0.0
H315 H 0.35564 0.13704 0.50525 0.0
H316 H 0.39736 0.14048 0.52097 0.0
H317 H 0.14322 0.95727 0.5282 0.0
H318 H 0.16161 0.99466 0.51049 0.0
H319 H 0.17738 0.94483 0.51309 0.0
H320 H 0.24107 0.08602 0.4664 0.0
H321 H 0.27453 0.96277 0.47095 0.0
H322 H 0.27638 0.13813 0.50313 0.0
H323 H 0.21008 0.09023 0.50559 0.0
H324 H 0.23043 0.12792 0.48795 0.0
H325 H 0.32305 0.99101 0.509 0.0
H326 H 0.29437 0.93929 0.49498 0.0
H327 H 0.25643 0.94308 0.51069 0.0
C328 C 0.22324 0.21797 0.80991 0.0
C329 C 0.27087 0.22413 0.80514 0.0
C330 C 0.21459 0.22554 0.82548 0.0
C331 C 0.25517 0.24138 0.83645 0.0
C332 C 0.30349 0.24778 0.83167 0.0
C333 C 0.31051 0.23822 0.81607 0.0
C334 C 0.16197 0.21647 0.83019 0.0
C335 C 0.34806 0.26578 0.84294 0.0
C336 C 0.24551 0.30647 0.87343 0.0
C337 C 0.23129 0.267 0.88437 0.0
C338 C 0.2541 0.29893 0.85778 0.0
C339 C 0.24661 0.25032 0.85297 0.0
C340 C 0.23044 0.20989 0.86394 0.0
C341 C 0.22383 0.21902 0.87955 0.0
C342 C 0.27247 0.3433 0.84649 0.0
C343 C 0.22026 0.15702 0.85921 0.0
H344 H 0.19249 0.20681 0.80143 0.0
H345 H 0.34752 0.24358 0.81231 0.0
H346 H 0.14628 0.18792 0.8398 0.0
H347 H 0.16517 0.25277 0.83462 0.0
H348 H 0.13398 0.2022 0.82037 0.0
H349 H 0.38355 0.27039 0.83728 0.0
H350 H 0.3568 0.30326 0.84812 0.0
H351 H 0.3375 0.23785 0.85264 0.0
H352 H 0.25189 0.34374 0.87723 0.0
H353 H 0.21258 0.18842 0.88804 0.0
H354 H 0.24453 0.33291 0.83676 0.0
H355 H 0.30996 0.35165 0.84136 0.0
H356 H 0.27741 0.37889 0.85214 0.0
H357 H 0.19167 0.14182 0.84957 0.0
H358 H 0.20542 0.12913 0.86902 0.0
H359 H 0.25634 0.15943 0.85485 0.0
C360 C 0.17698 0.34528 0.04722 0.0
C361 C 0.12479 0.31456 0.05124 0.0
C362 C 0.1925 0.3522 0.03151 0.0
C363 C 0.155 0.32722 0.01965 0.0
C364 C 0.10218 0.29797 0.02364 0.0
C365 C 0.08778 0.29227 0.03932 0.0
C366 C 0.24914 0.38434 0.02764 0.0
C367 C 0.06095 0.26993 0.01142 0.0
C368 C 0.1817 0.35285 0.9762 0.0
C369 C 0.1911 0.31299 0.97202 0.0
C370 C 0.17212 0.35966 0.99184 0.0
C371 C 0.17088 0.32512 1.00338 0.0
C372 C 0.18047 0.285 0.99915 0.0
C373 C 0.19078 0.27971 0.9836 0.0
C374 C 0.16279 0.40333 0.996 0.0
C375 C 0.17832 0.2465 0.01097 0.0
H376 H 0.20575 0.3631 0.05632 0.0
H377 H 0.04724 0.26871 0.04223 0.0
H378 H 0.26408 0.35881 0.02382 0.0
H379 H 0.25491 0.41101 0.01788 0.0
H380 H 0.27232 0.40717 0.0378 0.0
H381 H 0.02132 0.25257 0.0163 0.0
H382 H 0.06466 0.2965 1.00187 0.0
H383 H 0.06586 0.23868 1.00623 0.0
H384 H 0.18241 0.37893 0.96731 0.0
H385 H 0.19768 0.24856 0.98046 0.0
H386 H 0.18858 0.42623 1.00572 0.0
H387 H 0.12246 0.38764 1.00007 0.0
H388 H 0.1694 0.42934 0.98597 0.0
H389 H 0.20539 0.26676 0.02071 0.0
H390 H 0.18824 0.21847 1.00583 0.0
H391 H 0.13889 0.22476 0.01597 0.0
C392 C 0.75381 0.00349 0.36546 0.0
C393 C 0.75078 0.03667 0.37636 0.0
C394 C 0.76366 0.01768 0.34966 0.0
C395 C 0.76999 0.06578 0.34476 0.0
C396 C 0.76222 0.09701 0.35553 0.0
C397 C 0.75306 0.08223 0.3712 0.0
C398 C 0.77161 0.98326 0.33853 0.0
C399 C 0.76804 0.14829 0.35084 0.0
C400 C 0.87157 0.14254 0.31452 0.0
C401 C 0.84193 0.13745 0.30122 0.0
C402 C 0.84846 0.1182 0.32853 0.0
C403 C 0.79402 0.08803 0.32943 0.0
C404 C 0.76358 0.08227 0.31608 0.0
C405 C 0.78794 0.10701 0.30207 0.0
C406 C 0.88255 0.12547 0.34245 0.0
C407 C 0.70543 0.05055 0.31666 0.0
H408 H 0.75185 0.96814 0.36941 0.0
H409 H 0.74975 0.10758 0.37957 0.0
H410 H 0.75255 0.98061 0.3272 0.0
H411 H 0.81354 0.99996 0.33628 0.0
H412 H 0.75645 0.9438 0.3433 0.0
H413 H 0.75277 0.1638 0.35985 0.0
H414 H 0.80957 0.17656 0.34905 0.0
H415 H 0.74773 0.14485 0.33969 0.0
H416 H 0.91333 0.16559 0.31403 0.0
H417 H 0.76476 0.1026 0.29184 0.0
H418 H 0.87434 0.08749 0.34706 0.0
H419 H 0.87423 0.14558 0.35189 0.0
H420 H 0.92434 0.14829 0.33961 0.0
H421 H 0.69332 0.01116 0.32094 0.0
H422 H 0.68741 0.0476 0.30509 0.0
H423 H 0.69027 0.0681 0.32499 0.0
C424 C 0.72182 0.80402 0.70438 0.0
C425 C 0.69007 0.80627 0.71604 0.0
C426 C 0.71572 0.81291 0.68874 0.0
C427 C 0.6764 0.82384 0.68448 0.0
C428 C 0.64364 0.82563 0.69611 0.0
C429 C 0.65114 0.81722 0.71183 0.0
C430 C 0.75222 0.8116 0.6768 0.0
C431 C 0.60095 0.83664 0.69195 0.0
C432 C 0.70558 0.8988 0.64681 0.0
C433 C 0.67984 0.85942 0.63577 0.0
C434 C 0.70249 0.88799 0.66277 0.0
C435 C 0.67245 0.8365 0.66794 0.0
C436 C 0.64429 0.79678 0.65696 0.0
C437 C 0.64859 0.80865 0.64097 0.0
C438 C 0.73383 0.93144 0.67402 0.0
C439 C 0.61134 0.74148 0.66206 0.0
H440 H 0.75229 0.79594 0.70751 0.0
H441 H 0.62627 0.81866 0.72076 0.0
H442 H 0.73009 0.78298 0.66759 0.0
H443 H 0.77421 0.84978 0.67107 0.0
H444 H 0.7802 0.80162 0.68202 0.0
H445 H 0.57699 0.8338 0.70219 0.0
H446 H 0.61767 0.87593 0.68697 0.0
H447 H 0.5756 0.80919 0.68289 0.0
H448 H 0.7297 0.93826 0.64297 0.0
H449 H 0.62815 0.77808 0.63255 0.0
H450 H 0.76526 0.92635 0.67907 0.0
H451 H 0.70935 0.93088 0.6838 0.0
H452 H 0.75146 0.96982 0.66831 0.0
H453 H 0.63654 0.72641 0.66618 0.0
H454 H 0.58665 0.7164 0.65245 0.0
H455 H 0.58625 0.73886 0.67194 0.0
C456 C 0.82809 0.65127 0.0473 0.0
C457 C 0.88028 0.68082 0.05153 0.0
C458 C 0.81298 0.64585 0.03154 0.0
C459 C 0.85088 0.67116 0.01984 0.0
C460 C 0.90365 0.69939 0.02405 0.0
C461 C 0.91763 0.7036 0.03977 0.0
C462 C 0.75636 0.61478 0.02745 0.0
C463 C 0.94533 0.72775 0.01203 0.0
C464 C 0.82545 0.64773 0.97623 0.0
C465 C 0.81703 0.6883 0.97212 0.0
C466 C 0.83423 0.63998 0.99188 0.0
C467 C 0.83565 0.67427 1.00353 0.0
C468 C 0.82697 0.71507 0.99938 0.0
C469 C 0.81745 0.7213 0.9838 0.0
C470 C 0.84258 0.59561 0.99595 0.0
C471 C 0.82934 0.75332 0.01132 0.0
H472 H 0.79904 0.63311 0.05628 0.0
H473 H 0.95816 0.72633 0.04284 0.0
H474 H 0.74227 0.64106 0.02365 0.0
H475 H 0.75037 0.58835 0.01761 0.0
H476 H 0.73263 0.5918 0.03749 0.0
H477 H 0.98479 0.74455 0.01706 0.0
H478 H 0.94165 0.70152 1.00238 0.0
H479 H 0.94092 0.75945 1.00694 0.0
H480 H 0.82464 0.62183 0.96727 0.0
H481 H 0.81127 0.75298 0.98073 0.0
H482 H 0.8164 0.57259 1.00555 0.0
H483 H 0.88274 0.61056 1.00013 0.0
H484 H 0.83581 0.56986 0.98583 0.0
H485 H 0.80193 0.7329 0.02094 0.0
H486 H 0.82001 0.78188 1.00624 0.0
H487 H 0.86865 0.77444 0.01647 0.0
C488 C 0.10726 0.83272 0.31708 0.0
C489 C 0.13866 0.83228 0.30499 0.0
C490 C 0.12841 0.85803 0.33118 0.0
C491 C 0.1825 0.88314 0.33346 0.0
C492 C 0.21462 0.88242 0.32142 0.0
C493 C 0.19233 0.85729 0.30725 0.0
C494 C 0.09269 0.85821 0.3436 0.0
C495 C 0.27239 0.90817 0.32354 0.0
C496 C 0.23061 0.98345 0.36574 0.0
C497 C 0.23009 0.95429 0.37861 0.0
C498 C 0.21762 0.96154 0.35077 0.0
C499 C 0.20456 0.90947 0.34859 0.0
C500 C 0.20664 0.88076 0.3614 0.0
C501 C 0.21895 0.90335 0.37626 0.0
C502 C 0.21519 0.99326 0.33747 0.0
C503 C 0.19361 0.82538 0.35956 0.0
H504 H 0.06577 0.81396 0.31546 0.0
H505 H 0.21686 0.8572 0.29797 0.0
H506 H 0.09614 0.83945 0.35433 0.0
H507 H 0.10384 0.89845 0.34668 0.0
H508 H 0.05159 0.83782 0.33985 0.0
H509 H 0.29194 0.90353 0.31318 0.0
H510 H 0.28852 0.94991 0.32581 0.0
H511 H 0.28159 0.89173 0.33383 0.0
H512 H 0.23926 0.02285 0.36746 0.0
H513 H 0.21913 0.88074 0.3861 0.0
H514 H 0.17439 0.97757 0.3338 0.0
H515 H 0.23668 0.99099 0.32726 0.0
H516 H 0.23129 0.0344 0.34071 0.0
H517 H 0.15171 0.80086 0.35713 0.0
H518 H 0.2031 0.81046 0.37017 0.0
H519 H 0.21477 0.82144 0.34953 0.0
C520 C 0.34806 0.15566 0.64364 0.0
C521 C 0.31503 0.10445 0.6391 0.0
C522 C 0.35396 0.16993 0.65944 0.0
C523 C 0.32556 0.13223 0.67089 0.0
C524 C 0.2938 0.08019 0.66641 0.0
C525 C 0.28917 0.06693 0.65061 0.0
C526 C 0.38871 0.22572 0.6638 0.0
C527 C 0.26217 0.0389 0.6782 0.0
C528 C 0.35026 0.15945 0.71442 0.0
C529 C 0.313 0.17316 0.71816 0.0
C530 C 0.35596 0.14722 0.69896 0.0
C531 C 0.32302 0.14794 0.68716 0.0
C532 C 0.28527 0.16151 0.69096 0.0
C533 C 0.28098 0.17419 0.70633 0.0
C534 C 0.39703 0.1335 0.69525 0.0
C535 C 0.24866 0.16186 0.67882 0.0
H536 H 0.36865 0.18477 0.63484 0.0
H537 H 0.26368 0.02717 0.64726 0.0
H538 H 0.36483 0.24273 0.6675 0.0
H539 H 0.41385 0.22895 0.67377 0.0
H540 H 0.41346 0.24876 0.65392 0.0
H541 H 0.24346 0.99963 0.67306 0.0
H542 H 0.28671 0.04034 0.68812 0.0
H543 H 0.23156 0.04577 0.68295 0.0
H544 H 0.37528 0.15889 0.72349 0.0
H545 H 0.25173 0.18431 0.70912 0.0
H546 H 0.42264 0.15905 0.68591 0.0
H547 H 0.37879 0.0934 0.69081 0.0
H548 H 0.421 0.13691 0.70558 0.0
H549 H 0.27079 0.18867 0.66924 0.0
H550 H 0.22169 0.17368 0.68371 0.0
H551 H 0.22555 0.12288 0.67366 0.0
C552 C 0.9648 0.57074 0.1006 0.0
C553 C 0.99904 0.61237 0.0913 0.0
C554 C 0.96486 0.52401 0.10043 0.0
C555 C 0.99945 0.51839 0.0905 0.0
C556 C 0.03428 0.56029 0.08108 0.0
C557 C 0.03404 0.60714 0.08171 0.0
C558 C 0.92806 0.48076 0.11095 0.0
C559 C 0.07135 0.55539 0.07024 0.0
C560 C 0.03458 0.41679 0.10104 0.0
C561 C 1.0019 0.37579 0.09126 0.0
C562 C 0.03399 0.46325 0.10092 0.0
C563 C 1.00049 0.46926 0.09056 0.0
C564 C 0.96705 0.42788 0.08071 0.0
C565 C 0.96776 0.38125 0.0813 0.0
C566 C 0.06925 0.5059 0.11189 0.0
C567 C 0.93119 0.43321 0.06941 0.0
H568 H 0.93787 0.57476 0.10813 0.0
H569 H 0.06016 0.63911 0.0744 0.0
H570 H 0.90231 0.44626 0.10391 0.0
H571 H 0.95009 0.46965 0.11896 0.0
H572 H 0.90375 0.49153 0.11802 0.0
H573 H 0.09472 0.59095 0.06331 0.0
H574 H 0.09795 0.54696 0.07702 0.0
H575 H 0.04966 0.52265 0.06213 0.0
H576 H 0.06082 0.41254 0.10885 0.0
H577 H 0.9429 0.34976 0.07362 0.0
H578 H 0.04616 0.51672 0.1195 0.0
H579 H 0.09608 0.54071 0.10517 0.0
H580 H 0.09244 0.49468 0.11938 0.0
H581 H 0.90403 0.44165 0.07582 0.0
H582 H 0.90844 0.39785 0.06233 0.0
H583 H 0.95382 0.46611 0.06145 0.0
C584 C 0.61718 0.06213 0.43649 0.0
C585 C 0.66026 0.09282 0.42722 0.0
C586 C 0.57208 0.06566 0.43532 0.0
C587 C 0.56927 0.09899 0.42411 0.0
C588 C 0.61313 0.13056 0.41485 0.0
C589 C 0.65849 0.12773 0.41672 0.0
C590 C 0.52693 0.03259 0.4458 0.0
C591 C 0.61123 0.16515 0.40237 0.0
C592 C 0.43261 0.05499 0.41013 0.0
C593 C 0.42108 0.08916 0.41789 0.0
C594 C 0.48158 0.05948 0.41146 0.0
C595 C 0.51925 0.09774 0.42134 0.0
C596 C 0.50788 0.13275 0.42908 0.0
C597 C 0.45913 0.1286 0.42704 0.0
C598 C 0.49255 0.02248 0.40256 0.0
C599 C 0.54622 0.1729 0.44012 0.0
H600 H 0.61872 0.03508 0.44458 0.0
H601 H 0.69168 0.15079 0.40938 0.0
H602 H 0.51212 0.05621 0.45131 0.0
H603 H 0.49497 0.00225 0.43881 0.0
H604 H 0.53743 0.01361 0.4551 0.0
H605 H 0.6494 0.18933 0.39676 0.0
H606 H 0.58292 0.14123 0.39327 0.0
H607 H 0.59793 0.19076 0.40732 0.0
H608 H 0.40309 0.02452 0.40304 0.0
H609 H 0.44984 0.15453 0.43322 0.0
H610 H 0.49681 0.99628 0.4108 0.0
H611 H 0.52944 0.04393 0.39608 0.0
H612 H 0.46125 0.9987 0.39416 0.0
H613 H 0.55324 0.15355 0.45009 0.0
H614 H 0.53244 0.19864 0.4447 0.0
H615 H 0.58382 0.19679 0.43423 0.0
C616 C 0.39344 0.41293 0.74369 0.0
C617 C 0.38873 0.37335 0.75348 0.0
C618 C 0.44012 0.46011 0.74291 0.0
C619 C 0.48245 0.46799 0.75238 0.0
C620 C 0.47756 0.42827 0.76238 0.0
C621 C 0.43098 0.38139 0.76271 0.0
C622 C 0.44423 0.50149 0.73198 0.0
C623 C 0.52126 0.43553 0.77294 0.0
C624 C 0.61943 0.57532 0.74374 0.0
C625 C 0.62378 0.61411 0.75381 0.0
C626 C 0.57317 0.52773 0.74288 0.0
C627 C 0.531 0.51867 0.75255 0.0
C628 C 0.53577 0.55744 0.76295 0.0
C629 C 0.58188 0.60475 0.76334 0.0
C630 C 0.56916 0.48739 0.73154 0.0
C631 C 0.49227 0.5489 0.77374 0.0
H632 H 0.36104 0.40667 0.73645 0.0
H633 H 0.42747 0.35103 0.77039 0.0
H634 H 0.45117 0.53597 0.73873 0.0
H635 H 0.47767 0.51359 0.72407 0.0
H636 H 0.40877 0.48841 0.72484 0.0
H637 H 0.51136 0.4005 0.7799 0.0
H638 H 0.55625 0.44553 0.76596 0.0
H639 H 0.53131 0.46803 0.78106 0.0
H640 H 0.65158 0.58267 0.73625 0.0
H641 H 0.58521 0.63455 0.77123 0.0
H642 H 0.53606 0.47643 0.72353 0.0
H643 H 0.56166 0.45208 0.73792 0.0
H644 H 0.60483 0.50098 0.72451 0.0
H645 H 0.45727 0.54003 0.76688 0.0
H646 H 0.50239 0.58298 0.7812 0.0
H647 H 0.48213 0.51528 0.78138 0.0
C648 C 0.42055 0.0192 0.58539 0.0
C649 C 0.38003 0.98756 0.59543 0.0
C650 C 0.46557 0.01566 0.58463 0.0
C651 C 0.47081 0.9806 0.59447 0.0
C652 C 0.42996 0.94848 0.60466 0.0
C653 C 0.38461 0.95182 0.60485 0.0
C654 C 0.50752 0.04945 0.57328 0.0
C655 C 0.43462 0.91138 0.61555 0.0
C656 C 0.56723 0.93812 0.58379 0.0
C657 C 0.61015 0.97122 0.5929 0.0
C658 C 0.52191 0.94124 0.58405 0.0
C659 C 0.51894 0.97738 0.59398 0.0
C660 C 0.56219 0.01091 0.60322 0.0
C661 C 0.60765 0.00792 0.6024 0.0
C662 C 0.47727 0.90591 0.57366 0.0
C663 C 0.56008 0.04926 0.61418 0.0
H664 H 0.41687 0.04663 0.57801 0.0
H665 H 0.35348 0.92772 0.61272 0.0
H666 H 0.54352 0.07557 0.57969 0.0
H667 H 0.51635 0.02531 0.56547 0.0
H668 H 0.49651 0.07321 0.56601 0.0
H669 H 0.39982 0.88986 0.62296 0.0
H670 H 0.44065 0.88325 0.60879 0.0
H671 H 0.46883 0.93271 0.62322 0.0
H672 H 0.56924 0.90988 0.57637 0.0
H673 H 0.64064 0.03313 0.60957 0.0
H674 H 0.46649 0.92897 0.566 0.0
H675 H 0.44296 0.88073 0.58084 0.0
H676 H 0.48647 0.88115 0.56624 0.0
H677 H 0.5525 0.07662 0.60755 0.0
H678 H 0.59653 0.07159 0.62087 0.0
H679 H 0.52775 0.02885 0.62252 0.0
C680 C 0.42606 0.39057 0.94459 0.0
C681 C 0.38566 0.38549 0.93506 0.0
C682 C 0.47293 0.43759 0.94538 0.0
C683 C 0.47958 0.47987 0.93619 0.0
C684 C 0.43906 0.47456 0.92642 0.0
C685 C 0.39258 0.42763 0.92605 0.0
C686 C 0.51528 0.44212 0.95604 0.0
C687 C 0.44498 0.51826 0.91617 0.0
C688 C 0.58574 0.61701 0.94507 0.0
C689 C 0.62435 0.62248 0.93472 0.0
C690 C 0.5386 0.5703 0.94595 0.0
C691 C 0.52984 0.52884 0.93602 0.0
C692 C 0.56838 0.53477 0.92533 0.0
C693 C 0.61523 0.58131 0.92491 0.0
C694 C 0.49842 0.56505 0.95758 0.0
C695 C 0.56011 0.49203 0.91427 0.0
H696 H 0.42065 0.35825 0.95167 0.0
H697 H 0.36157 0.42385 0.91857 0.0
H698 H 0.54982 0.45019 0.9491 0.0
H699 H 0.52703 0.47496 0.96416 0.0
H700 H 0.50319 0.40652 0.96294 0.0
H701 H 0.4094 0.508 0.90939 0.0
H702 H 0.45465 0.55269 0.92336 0.0
H703 H 0.47733 0.52924 0.9079 0.0
H704 H 0.59296 0.64861 0.95278 0.0
H705 H 0.64491 0.58553 0.9168 0.0
H706 H 0.48856 0.53195 0.96543 0.0
H707 H 0.46244 0.55699 0.95143 0.0
H708 H 0.51175 0.60033 0.96476 0.0
H709 H 0.5522 0.45708 0.92093 0.0
H710 H 0.59404 0.503 0.90664 0.0
H711 H 0.5259 0.48158 0.9068 0.0
C712 C 0.03746 0.59953 0.26643 0.0
C713 C 0.00451 0.61065 0.27518 0.0
C714 C 0.03285 0.55055 0.26683 0.0
C715 C 0.99496 0.51174 0.27644 0.0
C716 C 0.96224 0.52295 0.28557 0.0
C717 C 0.96703 0.57215 0.28471 0.0
C718 C 0.0678 0.54 0.25666 0.0
C719 C 0.92195 0.48285 0.29615 0.0
C720 C 0.94922 0.37306 0.26482 0.0
C721 C 0.97966 0.3605 0.27433 0.0
C722 C 0.95341 0.42184 0.26554 0.0
C723 C 0.98816 0.45885 0.27627 0.0
C724 C 0.01816 0.44606 0.28618 0.0
C725 C 0.01399 0.3972 0.28497 0.0
C726 C 0.92157 0.43421 0.25452 0.0
C727 C 0.05496 0.48415 0.29795 0.0
H728 H 0.06635 0.62893 0.25896 0.0
H729 H 0.94167 0.58056 0.29157 0.0
H730 H 0.08975 0.5267 0.26388 0.0
H731 H 0.04423 0.50868 0.24829 0.0
H732 H 0.09572 0.57454 0.24999 0.0
H733 H 0.90175 0.49854 0.3032 0.0
H734 H 0.89282 0.45008 0.28913 0.0
H735 H 0.94016 0.46733 0.30414 0.0
H736 H 0.92281 0.34504 0.2565 0.0
H737 H 0.03733 0.38761 0.29243 0.0
H738 H 0.9475 0.46689 0.24689 0.0
H739 H 0.8976 0.44634 0.26116 0.0
H740 H 0.89573 0.40087 0.24704 0.0
H741 H 0.08613 0.51809 0.29187 0.0
H742 H 0.0729 0.46714 0.3055 0.0
H743 H 0.03434 0.49827 0.30544 0.0
C744 C 0.97415 0.07826 0.0787 0.0
C745 C 0.00964 0.11781 0.08838 0.0
C746 C 0.97233 0.03039 0.07811 0.0
C747 C 0.00589 0.02165 0.08773 0.0
C748 C 0.04133 0.06136 0.09764 0.0
C749 C 0.04316 0.10907 0.09772 0.0
C750 C 0.93466 0.98924 0.06719 0.0
C751 C 0.07679 0.05321 0.10838 0.0
C752 C 0.96555 0.88377 0.09857 0.0
C753 C 0.99822 0.87396 0.08924 0.0
C754 C 0.96776 0.93165 0.09819 0.0
C755 C 1.00267 0.97038 0.08795 0.0
C756 C 0.03551 0.96061 0.07838 0.0
C757 C 0.03336 0.91264 0.07929 0.0
C758 C 0.93309 0.94094 0.10889 0.0
C759 C 0.07258 1.0007 0.06713 0.0
H760 H 0.9485 0.08505 0.07138 0.0
H761 H 0.07041 0.13943 0.10532 0.0
H762 H 0.95555 0.97627 0.05938 0.0
H763 H 0.90651 0.95517 0.07394 0.0
H764 H 0.91304 0.00295 0.05994 0.0
H765 H 0.10203 0.08803 0.11541 0.0
H766 H 0.0536 0.02077 0.11644 0.0
H767 H 0.10161 0.04265 0.10153 0.0
H768 H 0.93856 0.85406 0.10637 0.0
H769 H 0.0583 0.90497 0.07196 0.0
H770 H 0.90764 0.95058 0.10197 0.0
H771 H 0.95683 0.97433 0.11659 0.0
H772 H 0.90851 0.90693 0.11628 0.0
H773 H 0.05121 0.01269 0.05914 0.0
H774 H 0.09399 0.98637 0.06006 0.0
H775 H 0.10094 0.03552 0.07358 0.0
C776 C 0.95497 0.1172 0.41368 0.0
C777 C 0.91847 0.08509 0.42466 0.0
C778 C 1.00214 0.11771 0.41194 0.0
C779 C 0.01368 0.08675 0.42182 0.0
C780 C 0.97754 0.05586 0.43337 0.0
C781 C 0.92989 0.05455 0.4344 0.0
C782 C 0.03863 0.14973 0.39913 0.0
C783 C 0.98887 0.02366 0.4445 0.0
C784 C 0.10785 0.04194 0.4098 0.0
C785 C 0.15347 0.07816 0.41721 0.0
C786 C 0.06272 0.04558 0.41067 0.0
C787 C 0.06258 0.08506 0.41977 0.0
C788 C 0.10867 0.1216 0.42735 0.0
C789 C 0.15385 0.11831 0.42571 0.0
C790 C 0.01508 0.00692 0.40195 0.0
C791 C 0.10978 0.16301 0.43765 0.0
H792 H 0.94563 0.14018 0.40599 0.0
H793 H 0.90145 0.02964 0.44287 0.0
H794 H 0.07719 0.17689 0.40404 0.0
H795 H 0.04389 0.12421 0.39087 0.0
H796 H 0.0243 0.17213 0.39257 0.0
H797 H 0.95896 0.00571 0.45371 0.0
H798 H 0.99079 0.9926 0.43804 0.0
H799 H 0.02701 0.04775 0.45016 0.0
H800 H 0.10766 0.01097 0.40318 0.0
H801 H 0.189 0.14592 0.43161 0.0
H802 H 0.99983 0.02715 0.39472 0.0
H803 H 0.98438 0.98226 0.41033 0.0
H804 H 0.02288 0.98169 0.39428 0.0
H805 H 0.09761 0.1869 0.43097 0.0
H806 H 0.14873 0.18862 0.44265 0.0
H807 H 0.08192 0.14492 0.44735 0.0
C808 C 0.08579 0.10902 0.74366 0.0
C809 C 0.12424 0.11367 0.754 0.0
C810 C 0.03798 0.06302 0.74281 0.0
C811 C 0.02824 0.02136 0.75278 0.0
C812 C 0.06668 0.02638 0.76344 0.0
C813 C 0.11431 0.07223 0.76381 0.0
C814 C 0.9981 0.05876 0.73115 0.0
C815 C 0.05741 0.98341 0.77453 0.0
C816 C 0.88954 0.92207 0.76215 0.0
C817 C 0.88205 0.87977 0.75314 0.0
C818 C 0.93678 0.96839 0.76205 0.0
C819 C 0.97736 0.97295 0.75248 0.0
C820 C 0.96996 0.93059 0.74322 0.0
C821 C 0.92247 0.8842 0.74378 0.0
C822 C 0.94348 0.01216 0.77238 0.0
C823 C 0.01219 0.93433 0.73272 0.0
H824 H 0.09354 0.14082 0.73597 0.0
H825 H 0.14383 0.07578 0.77191 0.0
H826 H 0.98732 0.0254 0.72333 0.0
H827 H 0.96249 0.05169 0.73728 0.0
H828 H 0.01218 0.09407 0.72394 0.0
H829 H 0.09114 0.99375 0.78224 0.0
H830 H 0.02329 0.97365 0.78192 0.0
H831 H 0.04883 0.94821 0.7679 0.0
H832 H 0.85852 0.91877 0.76949 0.0
H833 H 0.91667 0.85174 0.73671 0.0
H834 H 0.954 0.04696 0.76527 0.0
H835 H 0.97556 0.02228 0.78074 0.0
H836 H 0.90795 0.00244 0.77907 0.0
H837 H 0.02499 0.96755 0.72468 0.0
H838 H 0.9995 0.89881 0.72571 0.0
H839 H 0.04622 0.94128 0.73978 0.0
C840 C 0.90864 0.00505 0.60548 0.0
C841 C 0.87033 0.96781 0.59583 0.0
C842 C 0.95769 0.00948 0.60659 0.0
C843 C 0.9691 0.97697 0.59746 0.0
C844 C 0.93071 0.93988 0.58751 0.0
C845 C 0.88155 0.93523 0.587 0.0
C846 C 0.99716 0.04862 0.61762 0.0
C847 C 0.94176 0.90557 0.57723 0.0
C848 C 0.1104 0.02353 0.58884 0.0
C849 C 0.12066 0.99233 0.59871 0.0
C850 C 0.06112 0.01851 0.5882 0.0
C851 C 0.02152 0.98249 0.59803 0.0
C852 C 0.03189 0.95137 0.60819 0.0
C853 C 0.0812 0.95609 0.60823 0.0
C854 C 0.05128 0.0513 0.57687 0.0
C855 C 0.99106 0.91346 0.61912 0.0
H856 H 0.89985 0.02993 0.61243 0.0
H857 H 0.85207 0.90663 0.57944 0.0
H858 H 0.01071 0.02927 0.62587 0.0
H859 H 0.03136 0.07733 0.61102 0.0
H860 H 0.98147 0.06934 0.62441 0.0
H861 H 0.90804 0.8795 0.5699 0.0
H862 H 0.97497 0.9295 0.5695 0.0
H863 H 0.95268 0.88177 0.58447 0.0
H864 H 0.14075 0.05126 0.58135 0.0
H865 H 0.0892 0.9322 0.61594 0.0
H866 H 0.03951 0.07599 0.58325 0.0
H867 H 0.01902 0.02627 0.56893 0.0
H868 H 0.08585 0.07644 0.56973 0.0
H869 H 0.97645 0.93368 0.62659 0.0
H870 H 0.00589 0.89363 0.62672 0.0
H871 H 0.95774 0.88394 0.61236 0.0
C872 C 0.93251 0.8886 0.92677 0.0
C873 C 0.89005 0.88076 0.93579 0.0
C874 C 0.97897 0.93569 0.92707 0.0
C875 C 0.98351 0.97575 0.93685 0.0
C876 C 0.94099 0.96798 0.94614 0.0
C877 C 0.89445 0.92066 0.94537 0.0
C878 C 0.02291 0.94281 0.91671 0.0
C879 C 0.9447 0.00964 0.95687 0.0
C880 C 0.12004 0.08364 0.94587 0.0
C881 C 0.1246 0.12227 0.93568 0.0
C882 C 0.07387 0.03597 0.94663 0.0
C883 C 0.032 0.02656 0.93673 0.0
C884 C 0.03692 0.06521 0.92624 0.0
C885 C 0.08292 0.1127 0.92596 0.0
C886 C 0.0697 0.99586 0.95812 0.0
C887 C 0.99375 0.05631 0.9152 0.0
H888 H 0.92923 0.85798 0.91927 0.0
H889 H 0.86188 0.91458 0.95246 0.0
H890 H 0.03304 0.97509 0.9085 0.0
H891 H 0.05778 0.95307 0.92383 0.0
H892 H 0.01322 0.90762 0.90987 0.0
H893 H 0.90911 0.99664 0.96389 0.0
H894 H 0.97804 0.02214 0.96489 0.0
H895 H 0.95158 0.04384 0.94997 0.0
H896 H 0.15204 0.09112 0.95349 0.0
H897 H 0.08642 0.14235 0.91797 0.0
H898 H 0.06275 0.96059 0.95183 0.0
H899 H 0.0362 0.98473 0.96593 0.0
H900 H 0.10509 0.00975 0.96534 0.0
H901 H 0.98401 0.02259 0.90764 0.0
H902 H 0.004 0.09024 0.90766 0.0
H903 H 0.95847 0.04739 0.92187 0.0
C904 C 0.96363 0.87463 0.27889 0.0
C905 C 0.99967 0.87034 0.26951 0.0
C906 C 0.96125 0.92041 0.27914 0.0
C907 C 0.99518 0.96242 0.2696 0.0
C908 C 0.03098 0.95787 0.25992 0.0
C909 C 0.03299 0.91208 0.26007 0.0
C910 C 0.92282 0.92406 0.2897 0.0
C911 C 0.06714 0.00136 0.24937 0.0
C912 C 0.95675 0.06157 0.25863 0.0
C913 C 0.98804 0.10283 0.26854 0.0
C914 C 0.95879 0.01579 0.25885 0.0
C915 C 0.9925 0.01077 0.26939 0.0
C916 C 0.02443 0.05233 0.27939 0.0
C917 C 0.02211 0.09811 0.27876 0.0
C918 C 0.92485 0.97279 0.24779 0.0
C919 C 0.0606 0.04819 0.29086 0.0
H920 H 0.93808 0.84267 0.28629 0.0
H921 H 0.06077 0.90895 0.25271 0.0
H922 H 0.94332 0.95697 0.29783 0.0
H923 H 0.89592 0.93149 0.2827 0.0
H924 H 0.89984 0.88836 0.2966 0.0
H925 H 0.09246 0.99148 0.24247 0.0
H926 H 0.04458 0.01131 0.24121 0.0
H927 H 0.0919 0.03631 0.25638 0.0
H928 H 0.9305 0.06503 0.25062 0.0
H929 H 0.04606 0.1297 0.28653 0.0
H930 H 0.89864 0.93756 0.25446 0.0
H931 H 0.94903 0.96314 0.24027 0.0
H932 H 0.90108 0.98303 0.24022 0.0
H933 H 0.03843 0.01497 0.29875 0.0
H934 H 0.08219 0.08361 0.29801 0.0
H935 H 0.08882 0.04098 0.28457 0.0
loop_
_geom_bond_atom_site_label_1
_geom_bond_atom_site_label_2
_geom_bond_distance
_geom_bond_site_symmetry_2
_ccdc_geom_bond_type
C0 O2 1.247 . S
C0 O4 1.258 1_455 S
C1 O8 1.247 . S
C1 O9 1.258 . S
O2 C0 1.247 . S
O2 Zn3 2.028 . S
Zn3 O2 2.028 . S
Zn3 O7 2.035 . S
Zn3 O9 2.035 . S
Zn3 O10 2.028 . S
O4 C0 1.258 1_655 S
O4 Zn5 2.035 . S
Zn5 O4 2.035 . S
Zn5 O6 2.028 1_655 S
Zn5 O8 2.028 1_655 S
Zn5 O11 2.035 1_655 S
O6 Zn5 2.028 1_455 S
O6 C12 1.247 . S
O7 Zn3 2.035 . S
O7 C12 1.258 . S
O8 C1 1.247 . S
O8 Zn5 2.028 1_455 S
O9 C1 1.258 . S
O9 Zn3 2.035 . S
O10 Zn3 2.028 . S
O10 C13 1.247 . S
O11 Zn5 2.035 1_455 S
O11 C13 1.258 . S
C12 O6 1.247 . S
C12 O7 1.258 . S
C13 O10 1.247 . S
C13 O11 1.258 . S
C14 O16 1.247 . S
C14 O18 1.258 . S
C15 O22 1.247 1_545 S
C15 O23 1.258 . S
O16 C14 1.247 . S
O16 Zn17 2.028 . S
Zn17 O16 2.028 . S
Zn17 O21 2.035 . S
Zn17 O23 2.035 . S
Zn17 O24 2.028 . S
O18 C14 1.258 . S
O18 Zn19 2.035 1_545 S
Zn19 O18 2.035 1_565 S
Zn19 O20 2.028 1_565 S
Zn19 O22 2.028 . S
Zn19 O25 2.035 1_565 S
O20 Zn19 2.028 1_545 S
O20 C26 1.247 . S
O21 Zn17 2.035 . S
O21 C26 1.258 . S
O22 C15 1.247 1_565 S
O22 Zn19 2.028 . S
O23 C15 1.258 . S
O23 Zn17 2.035 . S
O24 Zn17 2.028 . S
O24 C27 1.247 . S
O25 Zn19 2.035 1_545 S
O25 C27 1.258 . S
C26 O20 1.247 . S
C26 O21 1.258 . S
C27 O24 1.247 . S
C27 O25 1.258 . S
C28 O30 1.247 . S
C28 O32 1.258 . S
C29 O36 1.247 . S
C29 O37 1.258 . S
O30 C28 1.247 . S
O30 Zn31 2.028 . S
Zn31 O30 2.028 . S
Zn31 O35 2.035 . S
Zn31 O37 2.035 . S
Zn31 O38 2.028 . S
O32 C28 1.258 . S
O32 Zn33 2.035 . S
Zn33 O32 2.035 . S
Zn33 O34 2.028 . S
Zn33 O36 2.028 . S
Zn33 O39 2.035 . S
O34 Zn33 2.028 . S
O34 C40 1.247 . S
O35 Zn31 2.035 . S
O35 C40 1.258 . S
O36 C29 1.247 . S
O36 Zn33 2.028 . S
O37 C29 1.258 . S
O37 Zn31 2.035 . S
O38 Zn31 2.028 . S
O38 C41 1.247 . S
O39 Zn33 2.035 . S
O39 C41 1.258 . S
C40 O34 1.247 . S
C40 O35 1.258 . S
C41 O38 1.247 . S
C41 O39 1.258 . S
C42 O44 1.247 . S
C42 O46 1.258 . S
C43 O50 1.247 . S
C43 O51 1.258 . S
O44 C42 1.247 . S
O44 Zn45 2.028 1_655 S
Zn45 O44 2.028 1_455 S
Zn45 O49 2.035 1_455 S
Zn45 O51 2.035 1_455 S
Zn45 O52 2.028 . S
O46 C42 1.258 . S
O46 Zn47 2.035 . S
Zn47 O46 2.035 . S
Zn47 O48 2.028 . S
Zn47 O50 2.028 . S
Zn47 O53 2.035 . S
O48 Zn47 2.028 . S
O48 C54 1.247 . S
O49 Zn45 2.035 1_655 S
O49 C54 1.258 . S
O50 C43 1.247 . S
O50 Zn47 2.028 . S
O51 C43 1.258 . S
O51 Zn45 2.035 1_655 S
O52 Zn45 2.028 . S
O52 C55 1.247 1_455 S
O53 Zn47 2.035 . S
O53 C55 1.258 . S
C54 O48 1.247 . S
C54 O49 1.258 . S
C55 O52 1.247 1_655 S
C55 O53 1.258 . S
C56 O58 1.247 . S
C56 O60 1.258 . S
C57 O64 1.247 . S
C57 O65 1.258 . S
O58 C56 1.247 . S
O58 Zn59 2.028 1_565 S
Zn59 O58 2.028 1_545 S
Zn59 O63 2.035 . S
Zn59 O65 2.035 1_545 S
Zn59 O66 2.028 1_545 S
O60 C56 1.258 . S
O60 Zn61 2.035 . S
Zn61 O60 2.035 . S
Zn61 O62 2.028 . S
Zn61 O64 2.028 . S
Zn61 O67 2.035 . S
O62 Zn61 2.028 . S
O62 C68 1.247 . S
O63 Zn59 2.035 . S
O63 C68 1.258 1_545 S
O64 C57 1.247 . S
O64 Zn61 2.028 . S
O65 C57 1.258 . S
O65 Zn59 2.035 1_565 S
O66 Zn59 2.028 1_565 S
O66 C69 1.247 . S
O67 Zn61 2.035 . S
O67 C69 1.258 . S
C68 O62 1.247 . S
C68 O63 1.258 1_565 S
C69 O66 1.247 . S
C69 O67 1.258 . S
C70 O72 1.247 . S
C70 O74 1.258 . S
C71 O78 1.247 . S
C71 O79 1.258 . S
O72 C70 1.247 . S
O72 Zn73 2.028 . S
Zn73 O72 2.028 . S
Zn73 O77 2.035 . S
Zn73 O79 2.035 . S
Zn73 O80 2.028 . S
O74 C70 1.258 . S
O74 Zn75 2.035 . S
Zn75 O74 2.035 . S
Zn75 O76 2.028 . S
Zn75 O78 2.028 . S
Zn75 O81 2.035 . S
O76 Zn75 2.028 . S
O76 C82 1.247 . S
O77 Zn73 2.035 . S
O77 C82 1.258 . S
O78 C71 1.247 . S
O78 Zn75 2.028 . S
O79 C71 1.258 . S
O79 Zn73 2.035 . S
O80 Zn73 2.028 . S
O80 C83 1.247 . S
O81 Zn75 2.035 . S
O81 C83 1.258 . S
C82 O76 1.247 . S
C82 O77 1.258 . S
C83 O80 1.247 . S
C83 O81 1.258 . S
C84 O86 1.247 . S
C84 O88 1.258 . S
C85 O92 1.247 . S
C85 O93 1.258 . S
O86 C84 1.247 . S
O86 Zn87 2.028 1_565 S
Zn87 O86 2.028 1_545 S
Zn87 O91 2.035 1_545 S
Zn87 O93 2.035 1_545 S
Zn87 O94 2.028 . S
O88 C84 1.258 . S
O88 Zn89 2.035 . S
Zn89 O88 2.035 . S
Zn89 O90 2.028 . S
Zn89 O92 2.028 . S
Zn89 O95 2.035 . S
O90 Zn89 2.028 . S
O90 C96 1.247 . S
O91 Zn87 2.035 1_565 S
O91 C96 1.258 . S
O92 C85 1.247 . S
O92 Zn89 2.028 . S
O93 C85 1.258 . S
O93 Zn87 2.035 1_565 S
O94 Zn87 2.028 . S
O94 C97 1.247 1_545 S
O95 Zn89 2.035 . S
O95 C97 1.258 . S
C96 O90 1.247 . S
C96 O91 1.258 . S
C97 O94 1.247 1_565 S
C97 O95 1.258 . S
C98 O100 1.247 . S
C98 O102 1.258 . S
C99 O106 1.247 . S
C99 O107 1.258 . S
O100 C98 1.247 . S
O100 Zn101 2.028 . S
Zn101 O100 2.028 . S
Zn101 O105 2.035 . S
Zn101 O107 2.035 . S
Zn101 O108 2.028 . S
O102 C98 1.258 . S
O102 Zn103 2.035 . S
Zn103 O102 2.035 . S
Zn103 O104 2.028 . S
Zn103 O106 2.028 . S
Zn103 O109 2.035 . S
O104 Zn103 2.028 . S
O104 C110 1.247 . S
O105 Zn101 2.035 . S
O105 C110 1.258 . S
O106 C99 1.247 . S
O106 Zn103 2.028 . S
O107 C99 1.258 . S
O107 Zn101 2.035 . S
O108 Zn101 2.028 . S
O108 C111 1.247 . S
O109 Zn103 2.035 . S
O109 C111 1.258 . S
C110 O104 1.247 . S
C110 O105 1.258 . S
C111 O108 1.247 . S
C111 O109 1.258 . S
C112 O114 1.247 . S
C112 O116 1.258 . S
C113 O120 1.247 1_455 S
C113 O121 1.258 . S
O114 C112 1.247 . S
O114 Zn115 2.028 . S
Zn115 O114 2.028 . S
Zn115 O119 2.035 . S
Zn115 O121 2.035 . S
Zn115 O122 2.028 . S
O116 C112 1.258 . S
O116 Zn117 2.035 1_455 S
Zn117 O116 2.035 1_655 S
Zn117 O118 2.028 1_655 S
Zn117 O120 2.028 . S
Zn117 O123 2.035 1_655 S
O118 Zn117 2.028 1_455 S
O118 C124 1.247 . S
O119 Zn115 2.035 . S
O119 C124 1.258 . S
O120 C113 1.247 1_655 S
O120 Zn117 2.028 . S
O121 C113 1.258 . S
O121 Zn115 2.035 . S
O122 Zn115 2.028 . S
O122 C125 1.247 . S
O123 Zn117 2.035 1_455 S
O123 C125 1.258 . S
C124 O118 1.247 . S
C124 O119 1.258 . S
C125 O122 1.247 . S
C125 O123 1.258 . S
C126 O128 1.247 . S
C126 O130 1.258 . S
C127 O134 1.247 1_545 S
C127 O135 1.258 . S
O128 C126 1.247 . S
O128 Zn129 2.028 . S
Zn129 O128 2.028 . S
Zn129 O133 2.035 . S
Zn129 O135 2.035 . S
Zn129 O136 2.028 . S
O130 C126 1.258 . S
O130 Zn131 2.035 1_545 S
Zn131 O130 2.035 1_565 S
Zn131 O132 2.028 1_565 S
Zn131 O134 2.028 . S
Zn131 O137 2.035 1_565 S
O132 Zn131 2.028 1_545 S
O132 C138 1.247 . S
O133 Zn129 2.035 . S
O133 C138 1.258 . S
O134 C127 1.247 1_565 S
O134 Zn131 2.028 . S
O135 C127 1.258 . S
O135 Zn129 2.035 . S
O136 Zn129 2.028 . S
O136 C139 1.247 . S
O137 Zn131 2.035 1_545 S
O137 C139 1.258 . S
C138 O132 1.247 . S
C138 O133 1.258 . S
C139 O136 1.247 . S
C139 O137 1.258 . S
C140 O142 1.247 . S
C140 O144 1.258 . S
C141 O148 1.247 . S
C141 O149 1.258 . S
O142 C140 1.247 . S
O142 Zn143 2.028 . S
Zn143 O142 2.028 . S
Zn143 O147 2.035 . S
Zn143 O149 2.035 . S
Zn143 O150 2.028 . S
O144 C140 1.258 . S
O144 Zn145 2.035 . S
Zn145 O144 2.035 . S
Zn145 O146 2.028 . S
Zn145 O148 2.028 . S
Zn145 O151 2.035 . S
O146 Zn145 2.028 . S
O146 C152 1.247 . S
O147 Zn143 2.035 . S
O147 C152 1.258 . S
O148 C141 1.247 . S
O148 Zn145 2.028 . S
O149 C141 1.258 . S
O149 Zn143 2.035 . S
O150 Zn143 2.028 . S
O150 C153 1.247 . S
O151 Zn145 2.035 . S
O151 C153 1.258 . S
C152 O146 1.247 . S
C152 O147 1.258 . S
C153 O150 1.247 . S
C153 O151 1.258 . S
C154 O156 1.247 . S
C154 O158 1.258 1_655 S
C155 O162 1.247 . S
C155 O163 1.258 . S
O156 C154 1.247 . S
O156 Zn157 2.028 . S
Zn157 O156 2.028 . S
Zn157 O161 2.035 . S
Zn157 O163 2.035 . S
Zn157 O164 2.028 . S
O158 C154 1.258 1_455 S
O158 Zn159 2.035 . S
Zn159 O158 2.035 . S
Zn159 O160 2.028 1_455 S
Zn159 O162 2.028 1_455 S
Zn159 O165 2.035 1_455 S
O160 Zn159 2.028 1_655 S
O160 C166 1.247 . S
O161 Zn157 2.035 . S
O161 C166 1.258 . S
O162 C155 1.247 . S
O162 Zn159 2.028 1_655 S
O163 C155 1.258 . S
O163 Zn157 2.035 . S
O164 Zn157 2.028 . S
O164 C167 1.247 . S
O165 Zn159 2.035 1_655 S
O165 C167 1.258 . S
C166 O160 1.247 . S
C166 O161 1.258 . S
C167 O164 1.247 . S
C167 O165 1.258 . S
C168 C169 1.391 1_455 S
C168 C170 1.394 . S
C168 H184 0.931 . S
C169 C168 1.391 1_655 S
C169 C173 1.376 . S
C170 C168 1.394 . S
C170 C171 1.369 1_455 S
C170 C174 1.531 . S
C171 C170 1.369 1_655 S
C171 C172 1.410 . S
C171 C179 1.503 . S
C172 C171 1.410 . S
C172 C173 1.392 . S
C172 C175 1.511 . S
C173 C169 1.376 . S
C173 C172 1.392 . S
C173 H185 0.929 . S
C174 C170 1.531 . S
C174 H186 0.960 . S
C174 H187 0.962 . S
C174 H188 0.960 . S
C175 C172 1.511 . S
C175 H189 0.961 . S
C175 H190 0.961 . S
C175 H191 0.961 . S
C176 C177 1.370 . S
C176 C178 1.363 . S
C176 H192 0.931 . S
C177 C176 1.370 . S
C177 C181 1.408 1_455 S
C178 C176 1.363 . S
C178 C179 1.370 1_455 S
C178 C182 1.524 . S
C179 C171 1.503 . S
C179 C178 1.370 1_655 S
C179 C180 1.403 . S
C180 C179 1.403 . S
C180 C181 1.404 . S
C180 C183 1.539 . S
C181 C177 1.408 1_655 S
C181 C180 1.404 . S
C181 H193 0.930 . S
C182 C178 1.524 . S
C182 H194 0.956 . S
C182 H195 0.961 . S
C182 H196 0.961 . S
C183 C180 1.539 . S
C183 H197 0.958 . S
C183 H198 0.961 . S
C183 H199 0.960 . S
H184 C168 0.931 . S
H185 C173 0.929 . S
H186 C174 0.960 . S
H187 C174 0.962 . S
H188 C174 0.960 . S
H189 C175 0.961 . S
H190 C175 0.961 . S
H191 C175 0.961 . S
H192 C176 0.931 . S
H193 C181 0.930 . S
H194 C182 0.956 . S
H195 C182 0.961 . S
H196 C182 0.961 . S
H197 C183 0.958 . S
H198 C183 0.961 . S
H199 C183 0.960 . S
C200 C201 1.391 . S
C200 C202 1.394 . S
C200 H216 0.931 . S
C201 C200 1.391 . S
C201 C205 1.376 1_545 S
C202 C200 1.394 . S
C202 C203 1.369 1_545 S
C202 C206 1.531 . S
C203 C202 1.369 1_565 S
C203 C204 1.410 . S
C203 C211 1.503 . S
C204 C203 1.410 . S
C204 C205 1.392 . S
C204 C207 1.511 . S
C205 C201 1.376 1_565 S
C205 C204 1.392 . S
C205 H217 0.929 . S
C206 C202 1.531 . S
C206 H218 0.960 . S
C206 H219 0.962 . S
C206 H220 0.960 . S
C207 C204 1.511 . S
C207 H221 0.961 . S
C207 H222 0.961 . S
C207 H223 0.961 . S
C208 C209 1.370 1_545 S
C208 C210 1.363 . S
C208 H224 0.931 . S
C209 C208 1.370 1_565 S
C209 C213 1.408 . S
C210 C208 1.363 . S
C210 C211 1.370 1_545 S
C210 C214 1.524 . S
C211 C203 1.503 . S
C211 C210 1.370 1_565 S
C211 C212 1.403 . S
C212 C211 1.403 . S
C212 C213 1.404 . S
C212 C215 1.539 . S
C213 C209 1.408 . S
C213 C212 1.404 . S
C213 H225 0.930 . S
C214 C210 1.524 . S
C214 H226 0.956 . S
C214 H227 0.961 . S
C214 H228 0.961 . S
C215 C212 1.539 . S
C215 H229 0.958 . S
C215 H230 0.961 . S
C215 H231 0.960 . S
H216 C200 0.931 . S
H217 C205 0.929 . S
H218 C206 0.960 . S
H219 C206 0.962 . S
H220 C206 0.960 . S
H221 C207 0.961 . S
H222 C207 0.961 . S
H223 C207 0.961 . S
H224 C208 0.931 . S
H225 C213 0.930 . S
H226 C214 0.956 . S
H227 C214 0.961 . S
H228 C214 0.961 . S
H229 C215 0.958 . S
H230 C215 0.961 . S
H231 C215 0.960 . S
C232 C233 1.391 . S
C232 C234 1.394 . S
C232 H248 0.931 . S
C233 C232 1.391 . S
C233 C237 1.376 . S
C234 C232 1.394 . S
C234 C235 1.369 . S
C234 C238 1.531 . S
C235 C234 1.369 . S
C235 C236 1.410 . S
C235 C243 1.503 . S
C236 C235 1.410 . S
C236 C237 1.392 . S
C236 C239 1.511 . S
C237 C233 1.376 . S
C237 C236 1.392 . S
C237 H249 0.929 . S
C238 C234 1.531 . S
C238 H250 0.960 . S
C238 H251 0.962 . S
C238 H252 0.960 . S
C239 C236 1.511 . S
C239 H253 0.961 . S
C239 H254 0.961 . S
C239 H255 0.961 . S
C240 C241 1.370 . S
C240 C242 1.363 . S
C240 H256 0.931 . S
C241 C240 1.370 . S
C241 C245 1.408 . S
C242 C240 1.363 . S
C242 C243 1.370 . S
C242 C246 1.524 . S
C243 C235 1.503 . S
C243 C242 1.370 . S
C243 C244 1.403 . S
C244 C243 1.403 . S
C244 C245 1.404 . S
C244 C247 1.539 . S
C245 C241 1.408 . S
C245 C244 1.404 . S
C245 H257 0.930 . S
C246 C242 1.524 . S
C246 H258 0.956 . S
C246 H259 0.961 . S
C246 H260 0.961 . S
C247 C244 1.539 . S
C247 H261 0.958 . S
C247 H262 0.961 . S
C247 H263 0.960 . S
H248 C232 0.931 . S
H249 C237 0.929 . S
H250 C238 0.960 . S
H251 C238 0.962 . S
H252 C238 0.960 . S
H253 C239 0.961 . S
H254 C239 0.961 . S
H255 C239 0.961 . S
H256 C240 0.931 . S
H257 C245 0.930 . S
H258 C246 0.956 . S
H259 C246 0.961 . S
H260 C246 0.961 . S
H261 C247 0.958 . S
H262 C247 0.961 . S
H263 C247 0.960 . S
C264 C265 1.391 1_455 S
C264 C266 1.394 . S
C264 H280 0.931 . S
C265 C264 1.391 1_655 S
C265 C269 1.376 . S
C266 C264 1.394 . S
C266 C267 1.369 1_455 S
C266 C270 1.531 . S
C267 C266 1.369 1_655 S
C267 C268 1.410 . S
C267 C275 1.503 1_655 S
C268 C267 1.410 . S
C268 C269 1.392 . S
C268 C271 1.511 . S
C269 C265 1.376 . S
C269 C268 1.392 . S
C269 H281 0.929 . S
C270 C266 1.531 . S
C270 H282 0.960 . S
C270 H283 0.962 . S
C270 H284 0.960 . S
C271 C268 1.511 . S
C271 H285 0.961 . S
C271 H286 0.961 . S
C271 H287 0.961 . S
C272 C273 1.370 . S
C272 C274 1.363 . S
C272 H288 0.931 . S
C273 C272 1.370 . S
C273 C277 1.408 . S
C274 C272 1.363 . S
C274 C275 1.370 . S
C274 C278 1.524 . S
C275 C267 1.503 1_455 S
C275 C274 1.370 . S
C275 C276 1.403 1_455 S
C276 C275 1.403 1_655 S
C276 C277 1.404 1_655 S
C276 C279 1.539 . S
C277 C273 1.408 . S
C277 C276 1.404 1_455 S
C277 H289 0.930 1_455 S
C278 C274 1.524 . S
C278 H290 0.956 . S
C278 H291 0.961 1_455 S
C278 H292 0.961 . S
C279 C276 1.539 . S
C279 H293 0.958 1_655 S
C279 H294 0.961 . S
C279 H295 0.960 . S
H280 C264 0.931 . S
H281 C269 0.929 . S
H282 C270 0.960 . S
H283 C270 0.962 . S
H284 C270 0.960 . S
H285 C271 0.961 . S
H286 C271 0.961 . S
H287 C271 0.961 . S
H288 C272 0.931 . S
H289 C277 0.930 1_655 S
H290 C278 0.956 . S
H291 C278 0.961 1_655 S
H292 C278 0.961 . S
H293 C279 0.958 1_455 S
H294 C279 0.961 . S
H295 C279 0.960 . S
C296 C297 1.391 . S
C296 C298 1.394 . S
C296 H312 0.931 . S
C297 C296 1.391 . S
C297 C301 1.376 1_545 S
C298 C296 1.394 . S
C298 C299 1.369 . S
C298 C302 1.531 . S
C299 C298 1.369 . S
C299 C300 1.410 1_545 S
C299 C307 1.503 1_545 S
C300 C299 1.410 1_565 S
C300 C301 1.392 . S
C300 C303 1.511 . S
C301 C297 1.376 1_565 S
C301 C300 1.392 . S
C301 H313 0.929 . S
C302 C298 1.531 . S
C302 H314 0.960 . S
C302 H315 0.962 . S
C302 H316 0.960 . S
C303 C300 1.511 . S
C303 H317 0.961 . S
C303 H318 0.961 . S
C303 H319 0.961 . S
C304 C305 1.370 . S
C304 C306 1.363 . S
C304 H320 0.931 . S
C305 C304 1.370 . S
C305 C309 1.408 . S
C306 C304 1.363 . S
C306 C307 1.370 . S
C306 C310 1.524 1_565 S
C307 C299 1.503 1_565 S
C307 C306 1.370 . S
C307 C308 1.403 . S
C308 C307 1.403 . S
C308 C309 1.404 . S
C308 C311 1.539 . S
C309 C305 1.408 . S
C309 C308 1.404 . S
C309 H321 0.930 . S
C310 C306 1.524 1_545 S
C310 H322 0.956 . S
C310 H323 0.961 1_545 S
C310 H324 0.960 1_545 S
C311 C308 1.539 . S
C311 H325 0.958 1_565 S
C311 H326 0.961 . S
C311 H327 0.960 . S
H312 C296 0.931 . S
H313 C301 0.929 . S
H314 C302 0.960 . S
H315 C302 0.962 . S
H316 C302 0.960 . S
H317 C303 0.961 . S
H318 C303 0.961 . S
H319 C303 0.961 . S
H320 C304 0.931 . S
H321 C309 0.930 . S
H322 C310 0.956 . S
H323 C310 0.961 1_565 S
H324 C310 0.960 1_565 S
H325 C311 0.958 1_545 S
H326 C311 0.961 . S
H327 C311 0.960 . S
C328 C329 1.391 . S
C328 C330 1.394 . S
C328 H344 0.931 . S
C329 C328 1.391 . S
C329 C333 1.376 . S
C330 C328 1.394 . S
C330 C331 1.369 . S
C330 C334 1.531 . S
C331 C330 1.369 . S
C331 C332 1.410 . S
C331 C339 1.503 . S
C332 C331 1.410 . S
C332 C333 1.392 . S
C332 C335 1.511 . S
C333 C329 1.376 . S
C333 C332 1.392 . S
C333 H345 0.929 . S
C334 C330 1.531 . S
C334 H346 0.960 . S
C334 H347 0.962 . S
C334 H348 0.960 . S
C335 C332 1.511 . S
C335 H349 0.961 . S
C335 H350 0.961 . S
C335 H351 0.961 . S
C336 C337 1.370 . S
C336 C338 1.363 . S
C336 H352 0.931 . S
C337 C336 1.370 . S
C337 C341 1.408 . S
C338 C336 1.363 . S
C338 C339 1.370 . S
C338 C342 1.524 . S
C339 C331 1.503 . S
C339 C338 1.370 . S
C339 C340 1.403 . S
C340 C339 1.403 . S
C340 C341 1.404 . S
C340 C343 1.539 . S
C341 C337 1.408 . S
C341 C340 1.404 . S
C341 H353 0.930 . S
C342 C338 1.524 . S
C342 H354 0.956 . S
C342 H355 0.961 . S
C342 H356 0.961 . S
C343 C340 1.539 . S
C343 H357 0.958 . S
C343 H358 0.961 . S
C343 H359 0.960 . S
H344 C328 0.931 . S
H345 C333 0.929 . S
H346 C334 0.960 . S
H347 C334 0.962 . S
H348 C334 0.960 . S
H349 C335 0.961 . S
H350 C335 0.961 . S
H351 C335 0.961 . S
H352 C336 0.931 . S
H353 C341 0.930 . S
H354 C342 0.956 . S
H355 C342 0.961 . S
H356 C342 0.961 . S
H357 C343 0.958 . S
H358 C343 0.961 . S
H359 C343 0.960 . S
C360 C361 1.391 . S
C360 C362 1.394 . S
C360 H376 0.931 . S
C361 C360 1.391 . S
C361 C365 1.376 . S
C362 C360 1.394 . S
C362 C363 1.369 . S
C362 C366 1.531 . S
C363 C362 1.369 . S
C363 C364 1.410 . S
C363 C371 1.503 1_554 S
C364 C363 1.410 . S
C364 C365 1.392 . S
C364 C367 1.511 1_554 S
C365 C361 1.376 . S
C365 C364 1.392 . S
C365 H377 0.929 . S
C366 C362 1.531 . S
C366 H378 0.960 . S
C366 H379 0.962 . S
C366 H380 0.960 . S
C367 C364 1.511 1_556 S
C367 H381 0.960 . S
C367 H382 0.961 . S
C367 H383 0.961 . S
C368 C369 1.370 . S
C368 C370 1.363 . S
C368 H384 0.931 . S
C369 C368 1.370 . S
C369 C373 1.408 . S
C370 C368 1.363 . S
C370 C371 1.370 . S
C370 C374 1.524 1_556 S
C371 C363 1.503 1_556 S
C371 C370 1.370 . S
C371 C372 1.403 . S
C372 C371 1.403 . S
C372 C373 1.404 . S
C372 C375 1.539 . S
C373 C369 1.408 . S
C373 C372 1.404 . S
C373 H385 0.930 . S
C374 C370 1.524 1_554 S
C374 H386 0.956 . S
C374 H387 0.961 . S
C374 H388 0.961 1_554 S
C375 C372 1.539 . S
C375 H389 0.958 . S
C375 H390 0.961 . S
C375 H391 0.960 . S
H376 C360 0.931 . S
H377 C365 0.929 . S
H378 C366 0.960 . S
H379 C366 0.962 . S
H380 C366 0.960 . S
H381 C367 0.960 . S
H382 C367 0.961 . S
H383 C367 0.961 . S
H384 C368 0.931 . S
H385 C373 0.930 . S
H386 C374 0.956 . S
H387 C374 0.961 . S
H388 C374 0.961 1_556 S
H389 C375 0.958 . S
H390 C375 0.961 . S
H391 C375 0.960 . S
C392 C393 1.391 . S
C392 C394 1.394 . S
C392 H408 0.931 . S
C393 C392 1.391 . S
C393 C397 1.376 . S
C394 C392 1.394 . S
C394 C395 1.369 . S
C394 C398 1.531 . S
C395 C394 1.369 . S
C395 C396 1.410 . S
C395 C403 1.503 . S
C396 C395 1.410 . S
C396 C397 1.392 . S
C396 C399 1.511 . S
C397 C393 1.376 . S
C397 C396 1.392 . S
C397 H409 0.929 . S
C398 C394 1.531 . S
C398 H410 0.960 . S
C398 H411 0.962 . S
C398 H412 0.960 . S
C399 C396 1.511 . S
C399 H413 0.961 . S
C399 H414 0.961 . S
C399 H415 0.961 . S
C400 C401 1.370 . S
C400 C402 1.363 . S
C400 H416 0.931 . S
C401 C400 1.370 . S
C401 C405 1.408 . S
C402 C400 1.363 . S
C402 C403 1.370 . S
C402 C406 1.524 . S
C403 C395 1.503 . S
C403 C402 1.370 . S
C403 C404 1.403 . S
C404 C403 1.403 . S
C404 C405 1.404 . S
C404 C407 1.539 . S
C405 C401 1.408 . S
C405 C404 1.404 . S
C405 H417 0.930 . S
C406 C402 1.524 . S
C406 H418 0.956 . S
C406 H419 0.961 . S
C406 H420 0.961 . S
C407 C404 1.539 . S
C407 H421 0.958 . S
C407 H422 0.961 . S
C407 H423 0.960 . S
H408 C392 0.931 . S
H409 C397 0.929 . S
H410 C398 0.960 . S
H411 C398 0.962 . S
H412 C398 0.960 . S
H413 C399 0.961 . S
H414 C399 0.961 . S
H415 C399 0.961 . S
H416 C400 0.931 . S
H417 C405 0.930 . S
H418 C406 0.956 . S
H419 C406 0.961 . S
H420 C406 0.961 . S
H421 C407 0.958 . S
H422 C407 0.961 . S
H423 C407 0.960 . S
C424 C425 1.391 . S
C424 C426 1.394 . S
C424 H440 0.931 . S
C425 C424 1.391 . S
C425 C429 1.376 . S
C426 C424 1.394 . S
C426 C427 1.369 . S
C426 C430 1.531 . S
C427 C426 1.369 . S
C427 C428 1.410 . S
C427 C435 1.503 . S
C428 C427 1.410 . S
C428 C429 1.392 . S
C428 C431 1.511 . S
C429 C425 1.376 . S
C429 C428 1.392 . S
C429 H441 0.929 . S
C430 C426 1.531 . S
C430 H442 0.960 . S
C430 H443 0.962 . S
C430 H444 0.960 . S
C431 C428 1.511 . S
C431 H445 0.961 . S
C431 H446 0.961 . S
C431 H447 0.961 . S
C432 C433 1.370 . S
C432 C434 1.363 . S
C432 H448 0.931 . S
C433 C432 1.370 . S
C433 C437 1.408 . S
C434 C432 1.363 . S
C434 C435 1.370 . S
C434 C438 1.524 . S
C435 C427 1.503 . S
C435 C434 1.370 . S
C435 C436 1.403 . S
C436 C435 1.403 . S
C436 C437 1.404 . S
C436 C439 1.539 . S
C437 C433 1.408 . S
C437 C436 1.404 . S
C437 H449 0.930 . S
C438 C434 1.524 . S
C438 H450 0.956 . S
C438 H451 0.961 . S
C438 H452 0.961 . S
C439 C436 1.539 . S
C439 H453 0.958 . S
C439 H454 0.961 . S
C439 H455 0.960 . S
H440 C424 0.931 . S
H441 C429 0.929 . S
H442 C430 0.960 . S
H443 C430 0.962 . S
H444 C430 0.960 . S
H445 C431 0.961 . S
H446 C431 0.961 . S
H447 C431 0.961 . S
H448 C432 0.931 . S
H449 C437 0.930 . S
H450 C438 0.956 . S
H451 C438 0.961 . S
H452 C438 0.961 . S
H453 C439 0.958 . S
H454 C439 0.961 . S
H455 C439 0.960 . S
C456 C457 1.391 . S
C456 C458 1.394 . S
C456 H472 0.931 . S
C457 C456 1.391 . S
C457 C461 1.376 . S
C458 C456 1.394 . S
C458 C459 1.369 . S
C458 C462 1.531 . S
C459 C458 1.369 . S
C459 C460 1.410 . S
C459 C467 1.503 1_554 S
C460 C459 1.410 . S
C460 C461 1.392 . S
C460 C463 1.511 1_554 S
C461 C457 1.376 . S
C461 C460 1.392 . S
C461 H473 0.929 . S
C462 C458 1.531 . S
C462 H474 0.960 . S
C462 H475 0.962 . S
C462 H476 0.960 . S
C463 C460 1.511 1_556 S
C463 H477 0.954 1_556 S
C463 H478 0.961 . S
C463 H479 0.961 . S
C464 C465 1.370 . S
C464 C466 1.363 . S
C464 H480 0.931 . S
C465 C464 1.370 . S
C465 C469 1.408 . S
C466 C464 1.363 . S
C466 C467 1.370 . S
C466 C470 1.524 1_556 S
C467 C459 1.503 1_556 S
C467 C466 1.370 . S
C467 C468 1.403 . S
C468 C467 1.403 . S
C468 C469 1.404 . S
C468 C471 1.539 . S
C469 C465 1.408 . S
C469 C468 1.404 . S
C469 H481 0.930 . S
C470 C466 1.524 1_554 S
C470 H482 0.956 . S
C470 H483 0.961 . S
C470 H484 0.961 1_554 S
C471 C468 1.539 . S
C471 H485 0.958 . S
C471 H486 0.961 . S
C471 H487 0.960 . S
H472 C456 0.931 . S
H473 C461 0.929 . S
H474 C462 0.960 . S
H475 C462 0.962 . S
H476 C462 0.960 . S
H477 C463 0.954 1_554 S
H478 C463 0.961 . S
H479 C463 0.961 . S
H480 C464 0.931 . S
H481 C469 0.930 . S
H482 C470 0.956 . S
H483 C470 0.961 . S
H484 C470 0.961 1_556 S
H485 C471 0.958 . S
H486 C471 0.961 . S
H487 C471 0.960 . S
C488 C489 1.391 . S
C488 C490 1.394 . S
C488 H504 0.931 . S
C489 C488 1.391 . S
C489 C493 1.376 . S
C490 C488 1.394 . S
C490 C491 1.369 . S
C490 C494 1.531 . S
C491 C490 1.369 . S
C491 C492 1.410 . S
C491 C499 1.503 . S
C492 C491 1.410 . S
C492 C493 1.392 . S
C492 C495 1.511 . S
C493 C489 1.376 . S
C493 C492 1.392 . S
C493 H505 0.929 . S
C494 C490 1.531 . S
C494 H506 0.960 . S
C494 H507 0.962 . S
C494 H508 0.960 . S
C495 C492 1.511 . S
C495 H509 0.961 . S
C495 H510 0.961 . S
C495 H511 0.961 . S
C496 C497 1.370 . S
C496 C498 1.363 . S
C496 H512 0.931 . S
C497 C496 1.370 . S
C497 C501 1.408 . S
C498 C496 1.363 . S
C498 C499 1.370 . S
C498 C502 1.524 . S
C499 C491 1.503 . S
C499 C498 1.370 . S
C499 C500 1.403 . S
C500 C499 1.403 . S
C500 C501 1.404 . S
C500 C503 1.539 . S
C501 C497 1.408 . S
C501 C500 1.404 . S
C501 H513 0.930 . S
C502 C498 1.524 . S
C502 H514 0.956 . S
C502 H515 0.961 . S
C502 H516 0.961 . S
C503 C500 1.539 . S
C503 H517 0.958 . S
C503 H518 0.961 . S
C503 H519 0.960 . S
H504 C488 0.931 . S
H505 C493 0.929 . S
H506 C494 0.960 . S
H507 C494 0.962 . S
H508 C494 0.960 . S
H509 C495 0.961 . S
H510 C495 0.961 . S
H511 C495 0.961 . S
H512 C496 0.931 . S
H513 C501 0.930 . S
H514 C502 0.956 . S
H515 C502 0.961 . S
H516 C502 0.961 . S
H517 C503 0.958 . S
H518 C503 0.961 . S
H519 C503 0.960 . S
C520 C521 1.391 . S
C520 C522 1.394 . S
C520 H536 0.931 . S
C521 C520 1.391 . S
C521 C525 1.376 . S
C522 C520 1.394 . S
C522 C523 1.369 . S
C522 C526 1.531 . S
C523 C522 1.369 . S
C523 C524 1.410 . S
C523 C531 1.503 . S
C524 C523 1.410 . S
C524 C525 1.392 . S
C524 C527 1.511 . S
C525 C521 1.376 . S
C525 C524 1.392 . S
C525 H537 0.929 . S
C526 C522 1.531 . S
C526 H538 0.960 . S
C526 H539 0.962 . S
C526 H540 0.960 . S
C527 C524 1.511 . S
C527 H541 0.961 . S
C527 H542 0.961 . S
C527 H543 0.961 . S
C528 C529 1.370 . S
C528 C530 1.363 . S
C528 H544 0.931 . S
C529 C528 1.370 . S
C529 C533 1.408 . S
C530 C528 1.363 . S
C530 C531 1.370 . S
C530 C534 1.524 . S
C531 C523 1.503 . S
C531 C530 1.370 . S
C531 C532 1.403 . S
C532 C531 1.403 . S
C532 C533 1.404 . S
C532 C535 1.539 . S
C533 C529 1.408 . S
C533 C532 1.404 . S
C533 H545 0.930 . S
C534 C530 1.524 . S
C534 H546 0.956 . S
C534 H547 0.961 . S
C534 H548 0.961 . S
C535 C532 1.539 . S
C535 H549 0.958 . S
C535 H550 0.961 . S
C535 H551 0.960 . S
H536 C520 0.931 . S
H537 C525 0.929 . S
H538 C526 0.960 . S
H539 C526 0.962 . S
H540 C526 0.960 . S
H541 C527 0.961 . S
H542 C527 0.961 . S
H543 C527 0.961 . S
H544 C528 0.931 . S
H545 C533 0.930 . S
H546 C534 0.956 . S
H547 C534 0.961 . S
H548 C534 0.961 . S
H549 C535 0.958 . S
H550 C535 0.961 . S
H551 C535 0.960 . S
C552 C553 1.391 . S
C552 C554 1.394 . S
C552 H568 0.931 . S
C553 C552 1.391 . S
C553 C557 1.376 . S
C554 C552 1.394 . S
C554 C555 1.369 . S
C554 C558 1.531 . S
C555 C554 1.369 . S
C555 C556 1.410 . S
C555 C563 1.515 . S
C556 C555 1.410 . S
C556 C557 1.392 . S
C556 C559 1.501 1_655 S
C557 C553 1.376 . S
C557 C556 1.392 . S
C557 H569 0.929 . S
C558 C554 1.531 . S
C558 H570 0.960 . S
C558 H571 0.962 . S
C558 H572 0.960 . S
C559 C556 1.501 1_455 S
C559 H573 0.962 . S
C559 H574 0.983 . S
C559 H575 0.948 1_455 S
C560 C561 1.370 . S
C560 C562 1.363 . S
C560 H576 0.931 . S
C561 C560 1.370 . S
C561 C565 1.408 1_455 S
C562 C560 1.363 . S
C562 C563 1.356 1_455 S
C562 C566 1.524 . S
C563 C555 1.515 . S
C563 C562 1.356 1_655 S
C563 C564 1.406 . S
C564 C563 1.406 . S
C564 C565 1.404 . S
C564 C567 1.539 . S
C565 C561 1.408 1_655 S
C565 C564 1.404 . S
C565 H577 0.930 . S
C566 C562 1.524 . S
C566 H578 0.956 . S
C566 H579 0.961 . S
C566 H580 0.961 . S
C567 C564 1.539 . S
C567 H581 0.958 . S
C567 H582 0.961 . S
C567 H583 0.960 . S
H568 C552 0.931 . S
H569 C557 0.929 . S
H570 C558 0.960 . S
H571 C558 0.962 . S
H572 C558 0.960 . S
H573 C559 0.962 . S
H574 C559 0.983 . S
H575 C559 0.948 1_655 S
H576 C560 0.931 . S
H577 C565 0.930 . S
H578 C566 0.956 . S
H579 C566 0.961 . S
H580 C566 0.961 . S
H581 C567 0.958 . S
H582 C567 0.961 . S
H583 C567 0.960 . S
C584 C585 1.391 1_565 S
C584 C586 1.394 . S
C584 H600 0.931 . S
C585 C584 1.391 1_545 S
C585 C589 1.376 . S
C586 C584 1.394 . S
C586 C587 1.369 1_565 S
C586 C590 1.531 . S
C587 C586 1.369 1_545 S
C587 C588 1.410 . S
C587 C595 1.503 1_545 S
C588 C587 1.410 . S
C588 C589 1.392 . S
C588 C591 1.511 . S
C589 C585 1.376 . S
C589 C588 1.392 . S
C589 H601 0.929 . S
C590 C586 1.531 . S
C590 H602 0.960 . S
C590 H603 0.962 . S
C590 H604 0.960 . S
C591 C588 1.511 . S
C591 H605 0.961 . S
C591 H606 0.961 . S
C591 H607 0.961 . S
C592 C593 1.370 . S
C592 C594 1.363 . S
C592 H608 0.931 . S
C593 C592 1.370 . S
C593 C597 1.408 . S
C594 C592 1.363 . S
C594 C595 1.370 . S
C594 C598 1.524 . S
C595 C587 1.503 1_565 S
C595 C594 1.370 . S
C595 C596 1.403 1_565 S
C596 C595 1.403 1_545 S
C596 C597 1.404 1_545 S
C596 C599 1.539 . S
C597 C593 1.408 . S
C597 C596 1.404 1_565 S
C597 H609 0.930 1_565 S
C598 C594 1.524 . S
C598 H610 0.956 . S
C598 H611 0.961 . S
C598 H612 0.961 . S
C599 C596 1.539 . S
C599 H613 0.958 . S
C599 H614 0.961 . S
C599 H615 0.960 . S
H600 C584 0.931 . S
H601 C589 0.929 . S
H602 C590 0.960 . S
H603 C590 0.962 . S
H604 C590 0.960 . S
H605 C591 0.961 . S
H606 C591 0.961 . S
H607 C591 0.961 . S
H608 C592 0.931 . S
H609 C597 0.930 1_545 S
H610 C598 0.956 . S
H611 C598 0.961 . S
H612 C598 0.961 . S
H613 C599 0.958 . S
H614 C599 0.961 . S
H615 C599 0.960 . S
C616 C617 1.391 . S
C616 C618 1.394 . S
C616 H632 0.931 . S
C617 C616 1.391 . S
C617 C621 1.376 . S
C618 C616 1.394 . S
C618 C619 1.369 . S
C618 C622 1.531 . S
C619 C618 1.369 . S
C619 C620 1.410 . S
C619 C627 1.503 . S
C620 C619 1.410 . S
C620 C621 1.392 . S
C620 C623 1.511 . S
C621 C617 1.376 . S
C621 C620 1.392 . S
C621 H633 0.929 . S
C622 C618 1.531 . S
C622 H634 0.960 . S
C622 H635 0.962 . S
C622 H636 0.960 . S
C623 C620 1.511 . S
C623 H637 0.961 . S
C623 H638 0.961 . S
C623 H639 0.961 . S
C624 C625 1.370 . S
C624 C626 1.363 . S
C624 H640 0.931 . S
C625 C624 1.370 . S
C625 C629 1.408 . S
C626 C624 1.363 . S
C626 C627 1.370 . S
C626 C630 1.524 . S
C627 C619 1.503 . S
C627 C626 1.370 . S
C627 C628 1.403 . S
C628 C627 1.403 . S
C628 C629 1.404 . S
C628 C631 1.539 . S
C629 C625 1.408 . S
C629 C628 1.404 . S
C629 H641 0.930 . S
C630 C626 1.524 . S
C630 H642 0.956 . S
C630 H643 0.961 . S
C630 H644 0.961 . S
C631 C628 1.539 . S
C631 H645 0.958 . S
C631 H646 0.961 . S
C631 H647 0.960 . S
H632 C616 0.931 . S
H633 C621 0.929 . S
H634 C622 0.960 . S
H635 C622 0.962 . S
H636 C622 0.960 . S
H637 C623 0.961 . S
H638 C623 0.961 . S
H639 C623 0.961 . S
H640 C624 0.931 . S
H641 C629 0.930 . S
H642 C630 0.956 . S
H643 C630 0.961 . S
H644 C630 0.961 . S
H645 C631 0.958 . S
H646 C631 0.961 . S
H647 C631 0.960 . S
C648 C649 1.391 . S
C648 C650 1.394 . S
C648 H664 0.931 . S
C649 C648 1.391 . S
C649 C653 1.376 1_545 S
C650 C648 1.394 . S
C650 C651 1.369 . S
C650 C654 1.531 . S
C651 C650 1.369 . S
C651 C652 1.410 1_545 S
C651 C659 1.503 1_545 S
C652 C651 1.410 1_565 S
C652 C653 1.392 . S
C652 C655 1.511 . S
C653 C649 1.376 1_565 S
C653 C652 1.392 . S
C653 H665 0.929 . S
C654 C650 1.531 . S
C654 H666 0.960 . S
C654 H667 0.962 . S
C654 H668 0.960 . S
C655 C652 1.511 . S
C655 H669 0.961 . S
C655 H670 0.961 . S
C655 H671 0.961 . S
C656 C657 1.370 . S
C656 C658 1.363 . S
C656 H672 0.931 . S
C657 C656 1.370 . S
C657 C661 1.408 . S
C658 C656 1.363 . S
C658 C659 1.370 . S
C658 C662 1.524 1_565 S
C659 C651 1.503 1_565 S
C659 C658 1.370 . S
C659 C660 1.403 . S
C660 C659 1.403 . S
C660 C661 1.404 . S
C660 C663 1.539 . S
C661 C657 1.408 . S
C661 C660 1.404 . S
C661 H673 0.930 . S
C662 C658 1.524 1_545 S
C662 H674 0.956 . S
C662 H675 0.961 1_545 S
C662 H676 0.966 . S
C663 C660 1.539 . S
C663 H677 0.958 1_565 S
C663 H678 0.961 . S
C663 H679 0.960 . S
H664 C648 0.931 . S
H665 C653 0.929 . S
H666 C654 0.960 . S
H667 C654 0.962 . S
H668 C654 0.960 . S
H669 C655 0.961 . S
H670 C655 0.961 . S
H671 C655 0.961 . S
H672 C656 0.931 . S
H673 C661 0.930 . S
H674 C662 0.956 . S
H675 C662 0.961 1_565 S
H676 C662 0.966 . S
H677 C663 0.958 1_545 S
H678 C663 0.961 . S
H679 C663 0.960 . S
C680 C681 1.391 . S
C680 C682 1.394 . S
C680 H696 0.931 . S
C681 C680 1.391 . S
C681 C685 1.376 . S
C682 C680 1.394 . S
C682 C683 1.369 . S
C682 C686 1.531 . S
C683 C682 1.369 . S
C683 C684 1.410 . S
C683 C691 1.503 . S
C684 C683 1.410 . S
C684 C685 1.392 . S
C684 C687 1.511 . S
C685 C681 1.376 . S
C685 C684 1.392 . S
C685 H697 0.929 . S
C686 C682 1.531 . S
C686 H698 0.960 . S
C686 H699 0.962 . S
C686 H700 0.960 . S
C687 C684 1.511 . S
C687 H701 0.961 . S
C687 H702 0.961 . S
C687 H703 0.961 . S
C688 C689 1.370 . S
C688 C690 1.363 . S
C688 H704 0.931 . S
C689 C688 1.370 . S
C689 C693 1.408 . S
C690 C688 1.363 . S
C690 C691 1.370 . S
C690 C694 1.524 . S
C691 C683 1.503 . S
C691 C690 1.370 . S
C691 C692 1.403 . S
C692 C691 1.403 . S
C692 C693 1.404 . S
C692 C695 1.539 . S
C693 C689 1.408 . S
C693 C692 1.404 . S
C693 H705 0.930 . S
C694 C690 1.524 . S
C694 H706 0.956 . S
C694 H707 0.961 . S
C694 H708 0.961 . S
C695 C692 1.539 . S
C695 H709 0.958 . S
C695 H710 0.961 . S
C695 H711 0.960 . S
H696 C680 0.931 . S
H697 C685 0.929 . S
H698 C686 0.960 . S
H699 C686 0.962 . S
H700 C686 0.960 . S
H701 C687 0.961 . S
H702 C687 0.961 . S
H703 C687 0.961 . S
H704 C688 0.931 . S
H705 C693 0.930 . S
H706 C694 0.956 . S
H707 C694 0.961 . S
H708 C694 0.961 . S
H709 C695 0.958 . S
H710 C695 0.961 . S
H711 C695 0.960 . S
C712 C713 1.391 . S
C712 C714 1.394 . S
C712 H728 0.931 . S
C713 C712 1.391 . S
C713 C717 1.376 1_455 S
C714 C712 1.394 . S
C714 C715 1.369 . S
C714 C718 1.531 . S
C715 C714 1.369 . S
C715 C716 1.410 1_455 S
C715 C723 1.503 1_455 S
C716 C715 1.410 1_655 S
C716 C717 1.392 . S
C716 C719 1.511 . S
C717 C713 1.376 1_655 S
C717 C716 1.392 . S
C717 H729 0.929 . S
C718 C714 1.531 . S
C718 H730 0.960 . S
C718 H731 0.962 . S
C718 H732 0.960 . S
C719 C716 1.511 . S
C719 H733 0.961 . S
C719 H734 0.961 . S
C719 H735 0.961 . S
C720 C721 1.370 . S
C720 C722 1.363 1_655 S
C720 H736 0.931 1_655 S
C721 C720 1.370 . S
C721 C725 1.408 . S
C722 C720 1.363 1_455 S
C722 C723 1.370 1_455 S
C722 C726 1.524 . S
C723 C715 1.503 1_655 S
C723 C722 1.370 1_655 S
C723 C724 1.403 . S
C724 C723 1.403 . S
C724 C725 1.404 . S
C724 C727 1.539 . S
C725 C721 1.408 . S
C725 C724 1.404 . S
C725 H737 0.930 . S
C726 C722 1.524 . S
C726 H738 0.956 . S
C726 H739 0.961 . S
C726 H740 0.961 . S
C727 C724 1.539 . S
C727 H741 0.958 . S
C727 H742 0.961 . S
C727 H743 0.960 . S
H728 C712 0.931 . S
H729 C717 0.929 . S
H730 C718 0.960 . S
H731 C718 0.962 . S
H732 C718 0.960 . S
H733 C719 0.961 . S
H734 C719 0.961 . S
H735 C719 0.961 . S
H736 C720 0.931 1_455 S
H737 C725 0.930 . S
H738 C726 0.956 . S
H739 C726 0.961 . S
H740 C726 0.961 . S
H741 C727 0.958 . S
H742 C727 0.961 . S
H743 C727 0.960 . S
C744 C745 1.391 . S
C744 C746 1.394 1_455 S
C744 H760 0.931 1_455 S
C745 C744 1.391 . S
C745 C749 1.376 . S
C746 C744 1.394 1_655 S
C746 C747 1.369 1_655 S
C746 C750 1.531 . S
C747 C746 1.369 1_455 S
C747 C748 1.410 . S
C747 C755 1.503 1_445 S
C748 C747 1.410 . S
C748 C749 1.392 . S
C748 C751 1.511 . S
C749 C745 1.376 . S
C749 C748 1.392 . S
C749 H761 0.929 . S
C750 C746 1.531 . S
C750 H762 0.960 1_545 S
C750 H763 0.962 1_545 S
C750 H764 0.960 . S
C751 C748 1.511 . S
C751 H765 0.961 . S
C751 H766 0.961 . S
C751 H767 0.961 . S
C752 C753 1.370 . S
C752 C754 1.363 . S
C752 H768 0.931 . S
C753 C752 1.370 . S
C753 C757 1.408 1_655 S
C754 C752 1.363 . S
C754 C755 1.370 . S
C754 C758 1.524 . S
C755 C747 1.503 1_665 S
C755 C754 1.370 . S
C755 C756 1.403 1_655 S
C756 C755 1.403 1_455 S
C756 C757 1.404 . S
C756 C759 1.539 . S
C757 C753 1.408 1_455 S
C757 C756 1.404 . S
C757 H769 0.930 . S
C758 C754 1.524 . S
C758 H770 0.956 . S
C758 H771 0.961 . S
C758 H772 0.961 . S
C759 C756 1.539 . S
C759 H773 0.958 . S
C759 H774 0.961 . S
C759 H775 0.960 1_565 S
H760 C744 0.931 1_655 S
H761 C749 0.929 . S
H762 C750 0.960 1_565 S
H763 C750 0.962 1_565 S
H764 C750 0.960 . S
H765 C751 0.961 . S
H766 C751 0.961 . S
H767 C751 0.961 . S
H768 C752 0.931 . S
H769 C757 0.930 . S
H770 C758 0.956 . S
H771 C758 0.961 . S
H772 C758 0.961 . S
H773 C759 0.958 . S
H774 C759 0.961 . S
H775 C759 0.960 1_545 S
C776 C777 1.391 . S
C776 C778 1.394 . S
C776 H792 0.931 . S
C777 C776 1.391 . S
C777 C781 1.376 1_545 S
C778 C776 1.394 . S
C778 C779 1.369 . S
C778 C782 1.531 1_655 S
C779 C778 1.369 . S
C779 C780 1.410 1_545 S
C779 C787 1.503 1_645 S
C780 C779 1.410 1_565 S
C780 C781 1.392 . S
C780 C783 1.511 . S
C781 C777 1.376 1_565 S
C781 C780 1.392 . S
C781 H793 0.929 . S
C782 C778 1.531 1_455 S
C782 H794 0.960 . S
C782 H795 0.962 . S
C782 H796 0.960 . S
C783 C780 1.511 . S
C783 H797 0.961 . S
C783 H798 0.961 . S
C783 H799 0.961 . S
C784 C785 1.370 . S
C784 C786 1.363 . S
C784 H800 0.931 . S
C785 C784 1.370 . S
C785 C789 1.408 . S
C786 C784 1.363 . S
C786 C787 1.370 . S
C786 C790 1.524 1_455 S
C787 C779 1.503 1_465 S
C787 C786 1.370 . S
C787 C788 1.403 1_565 S
C788 C787 1.403 1_545 S
C788 C789 1.404 1_545 S
C788 C791 1.539 . S
C789 C785 1.408 . S
C789 C788 1.404 1_565 S
C789 H801 0.930 1_565 S
C790 C786 1.524 1_655 S
C790 H802 0.956 . S
C790 H803 0.961 . S
C790 H804 0.961 . S
C791 C788 1.539 . S
C791 H805 0.958 . S
C791 H806 0.961 . S
C791 H807 0.960 . S
H792 C776 0.931 . S
H793 C781 0.929 . S
H794 C782 0.960 . S
H795 C782 0.962 . S
H796 C782 0.960 . S
H797 C783 0.961 . S
H798 C783 0.961 . S
H799 C783 0.961 . S
H800 C784 0.931 . S
H801 C789 0.930 1_545 S
H802 C790 0.956 . S
H803 C790 0.961 . S
H804 C790 0.961 . S
H805 C791 0.958 . S
H806 C791 0.961 . S
H807 C791 0.960 . S
C808 C809 1.391 . S
C808 C810 1.394 . S
C808 H824 0.931 . S
C809 C808 1.391 . S
C809 C813 1.376 . S
C810 C808 1.394 . S
C810 C811 1.369 . S
C810 C814 1.531 . S
C811 C810 1.369 . S
C811 C812 1.410 . S
C811 C819 1.503 1_445 S
C812 C811 1.410 . S
C812 C813 1.392 . S
C812 C815 1.511 1_545 S
C813 C809 1.376 . S
C813 C812 1.392 . S
C813 H825 0.929 . S
C814 C810 1.531 . S
C814 H826 0.960 1_455 S
C814 H827 0.962 1_455 S
C814 H828 0.960 . S
C815 C812 1.511 1_565 S
C815 H829 0.961 . S
C815 H830 0.961 . S
C815 H831 0.961 . S
C816 C817 1.370 . S
C816 C818 1.363 . S
C816 H832 0.931 . S
C817 C816 1.370 . S
C817 C821 1.408 . S
C818 C816 1.363 . S
C818 C819 1.370 . S
C818 C822 1.524 1_565 S
C819 C811 1.503 1_665 S
C819 C818 1.370 . S
C819 C820 1.403 . S
C820 C819 1.403 . S
C820 C821 1.404 . S
C820 C823 1.539 . S
C821 C817 1.408 . S
C821 C820 1.404 . S
C821 H833 0.930 . S
C822 C818 1.524 1_545 S
C822 H834 0.956 . S
C822 H835 0.961 . S
C822 H836 0.961 . S
C823 C820 1.539 . S
C823 H837 0.958 . S
C823 H838 0.961 . S
C823 H839 0.960 1_655 S
H824 C808 0.931 . S
H825 C813 0.929 . S
H826 C814 0.960 1_655 S
H827 C814 0.962 1_655 S
H828 C814 0.960 . S
H829 C815 0.961 . S
H830 C815 0.961 . S
H831 C815 0.961 . S
H832 C816 0.931 . S
H833 C821 0.930 . S
H834 C822 0.956 . S
H835 C822 0.961 . S
H836 C822 0.961 . S
H837 C823 0.958 . S
H838 C823 0.961 . S
H839 C823 0.960 1_455 S
C840 C841 1.391 1_545 S
C840 C842 1.394 . S
C840 H856 0.931 . S
C841 C840 1.391 1_565 S
C841 C845 1.376 . S
C842 C840 1.394 . S
C842 C843 1.369 1_545 S
C842 C846 1.531 . S
C843 C842 1.369 1_565 S
C843 C844 1.410 . S
C843 C851 1.503 1_665 S
C844 C843 1.410 . S
C844 C845 1.392 . S
C844 C847 1.511 . S
C845 C841 1.376 . S
C845 C844 1.392 . S
C845 H857 0.929 . S
C846 C842 1.531 . S
C846 H858 0.960 1_655 S
C846 H859 0.962 1_655 S
C846 H860 0.960 . S
C847 C844 1.511 . S
C847 H861 0.961 . S
C847 H862 0.961 . S
C847 H863 0.961 . S
C848 C849 1.370 . S
C848 C850 1.363 . S
C848 H864 0.931 . S
C849 C848 1.370 . S
C849 C853 1.408 . S
C850 C848 1.363 . S
C850 C851 1.370 . S
C850 C854 1.524 . S
C851 C843 1.503 1_445 S
C851 C850 1.370 . S
C851 C852 1.403 1_545 S
C852 C851 1.403 1_565 S
C852 C853 1.404 1_565 S
C852 C855 1.539 . S
C853 C849 1.408 . S
C853 C852 1.404 1_545 S
C853 H865 0.930 . S
C854 C850 1.524 . S
C854 H866 0.956 . S
C854 H867 0.961 1_455 S
C854 H868 0.961 . S
C855 C852 1.539 . S
C855 H869 0.958 . S
C855 H870 0.961 . S
C855 H871 0.960 1_455 S
H856 C840 0.931 . S
H857 C845 0.929 . S
H858 C846 0.960 1_455 S
H859 C846 0.962 1_455 S
H860 C846 0.960 . S
H861 C847 0.961 . S
H862 C847 0.961 . S
H863 C847 0.961 . S
H864 C848 0.931 . S
H865 C853 0.930 . S
H866 C854 0.956 . S
H867 C854 0.961 1_655 S
H868 C854 0.961 . S
H869 C855 0.958 . S
H870 C855 0.961 . S
H871 C855 0.960 1_655 S
C872 C873 1.391 . S
C872 C874 1.394 . S
C872 H888 0.931 . S
C873 C872 1.391 . S
C873 C877 1.376 . S
C874 C872 1.394 . S
C874 C875 1.369 . S
C874 C878 1.531 1_655 S
C875 C874 1.369 . S
C875 C876 1.410 . S
C875 C883 1.503 1_665 S
C876 C875 1.410 . S
C876 C877 1.392 . S
C876 C879 1.511 . S
C877 C873 1.376 . S
C877 C876 1.392 . S
C877 H889 0.929 . S
C878 C874 1.531 1_455 S
C878 H890 0.960 . S
C878 H891 0.962 . S
C878 H892 0.960 . S
C879 C876 1.511 . S
C879 H893 0.961 . S
C879 H894 0.961 1_565 S
C879 H895 0.961 1_565 S
C880 C881 1.370 . S
C880 C882 1.363 . S
C880 H896 0.931 . S
C881 C880 1.370 . S
C881 C885 1.408 . S
C882 C880 1.363 . S
C882 C883 1.370 . S
C882 C886 1.524 . S
C883 C875 1.503 1_445 S
C883 C882 1.370 . S
C883 C884 1.403 . S
C884 C883 1.403 . S
C884 C885 1.404 . S
C884 C887 1.539 1_455 S
C885 C881 1.408 . S
C885 C884 1.404 . S
C885 H897 0.930 . S
C886 C882 1.524 . S
C886 H898 0.956 1_545 S
C886 H899 0.961 1_545 S
C886 H900 0.961 . S
C887 C884 1.539 1_655 S
C887 H901 0.958 . S
C887 H902 0.961 . S
C887 H903 0.960 . S
H888 C872 0.931 . S
H889 C877 0.929 . S
H890 C878 0.960 . S
H891 C878 0.962 . S
H892 C878 0.960 . S
H893 C879 0.961 . S
H894 C879 0.961 1_545 S
H895 C879 0.961 1_545 S
H896 C880 0.931 . S
H897 C885 0.930 . S
H898 C886 0.956 1_565 S
H899 C886 0.961 1_565 S
H900 C886 0.961 . S
H901 C887 0.958 . S
H902 C887 0.961 . S
H903 C887 0.960 . S
C904 C905 1.391 1_655 S
C904 C906 1.394 . S
C904 H920 0.931 . S
C905 C904 1.391 1_455 S
C905 C909 1.376 . S
C906 C904 1.394 . S
C906 C907 1.369 1_655 S
C906 C910 1.531 . S
C907 C906 1.369 1_455 S
C907 C908 1.410 . S
C907 C915 1.503 1_465 S
C908 C907 1.410 . S
C908 C909 1.392 . S
C908 C911 1.511 1_565 S
C909 C905 1.376 . S
C909 C908 1.392 . S
C909 H921 0.929 . S
C910 C906 1.531 . S
C910 H922 0.960 . S
C910 H923 0.962 . S
C910 H924 0.960 . S
C911 C908 1.511 1_545 S
C911 H925 0.961 . S
C911 H926 0.961 . S
C911 H927 0.961 . S
C912 C913 1.370 . S
C912 C914 1.362 1_655 S
C912 H928 0.931 . S
C913 C912 1.370 . S
C913 C917 1.408 . S
C914 C912 1.362 1_455 S
C914 C915 1.371 1_455 S
C914 C918 1.525 . S
C915 C907 1.503 1_645 S
C915 C914 1.371 1_655 S
C915 C916 1.403 . S
C916 C915 1.403 . S
C916 C917 1.404 . S
C916 C919 1.539 1_545 S
C917 C913 1.408 . S
C917 C916 1.404 . S
C917 H929 0.930 . S
C918 C914 1.525 . S
C918 H930 0.956 . S
C918 H931 0.961 . S
C918 H932 0.961 . S
C919 C916 1.539 1_565 S
C919 H933 0.958 . S
C919 H934 0.961 1_565 S
C919 H935 0.960 . S
H920 C904 0.931 . S
H921 C909 0.929 . S
H922 C910 0.960 . S
H923 C910 0.962 . S
H924 C910 0.960 . S
H925 C911 0.961 . S
H926 C911 0.961 . S
H927 C911 0.961 . S
H928 C912 0.931 . S
H929 C917 0.930 . S
H930 C918 0.956 . S
H931 C918 0.961 . S
H932 C918 0.961 . S
H933 C919 0.958 . S
H934 C919 0.961 1_545 S
H935 C919 0.960 . S
C169 C154 1.547 . S
C177 C0 1.564 . S
C201 C15 1.574 . S
C209 C97 1.564 . S
C233 C28 1.574 . S
C241 C99 1.564 . S
C265 C55 1.549 . S
C273 C113 1.563 . S
C297 C127 1.574 . S
C305 C68 1.569 . S
C329 C71 1.551 . S
C337 C140 1.568 . S
C361 C1 1.576 . S
C369 C141 1.571 . S
C393 C14 1.571 . S
C401 C155 1.570 . S
C425 C29 1.570 . S
C433 C96 1.570 . S
C457 C54 1.576 . S
C465 C98 1.570 . S
C489 C112 1.572 . S
C497 C69 1.570 . S
C521 C126 1.560 . S
C529 C70 1.576 . S
C553 C42 1.600 . S
C561 C13 1.587 . S
C585 C26 1.600 . S
C593 C57 1.591 . S
C617 C82 1.590 . S
C625 C41 1.595 . S
C649 C138 1.580 . S
C657 C84 1.591 . S
C681 C153 1.598 . S
C689 C110 1.590 . S
C713 C124 1.574 . S
C721 C167 1.595 . S
C745 C12 1.572 . S
C753 C43 1.557 . S
C777 C27 1.558 . S
C785 C56 1.554 . S
C809 C83 1.571 . S
C817 C40 1.556 . S
C841 C85 1.568 . S
C849 C139 1.560 . S
C873 C111 1.543 . S
C881 C152 1.561 . S
C905 C125 1.556 . S
C913 C166 1.563 . S
