# Generated by pormake.
# Topology smc, (6)-cn, num edge types: 1
# Building blocks:
#     Node 0, Type 0, BuildingBlock: VOLQOD_clean_sbu_1, # of connection points: 6
#     Node 1, Type 0, BuildingBlock: VOLQOD_clean_sbu_1, # of connection points: 6
#     Node 2, Type 0, BuildingBlock: VOLQOD_clean_sbu_1, # of connection points: 6
#     Node 3, Type 0, BuildingBlock: VOLQOD_clean_sbu_1, # of connection points: 6
#     Node 4, Type 0, BuildingBlock: VOLQOD_clean_sbu_1, # of connection points: 6
#     Node 5, Type 0, BuildingBlock: VOLQOD_clean_sbu_1, # of connection points: 6
#     Node 6, Type 0, BuildingBlock: VOLQOD_clean_sbu_1, # of connection points: 6
#     Node 7, Type 0, BuildingBlock: VOLQOD_clean_sbu_1, # of connection points: 6
#     Node 8, Type 0, BuildingBlock: VOLQOD_clean_sbu_1, # of connection points: 6
#     Edge 9, Type (0, 0), BuildingBlock: CIFDUS_clean_linker_0, # of connection points: 2
#     Edge 10, Type (0, 0), BuildingBlock: CIFDUS_clean_linker_0, # of connection points: 2
#     Edge 11, Type (0, 0), BuildingBlock: CIFDUS_clean_linker_0, # of connection points: 2
#     Edge 12, Type (0, 0), BuildingBlock: CIFDUS_clean_linker_0, # of connection points: 2
#     Edge 13, Type (0, 0), BuildingBlock: CIFDUS_clean_linker_0, # of connection points: 2
#     Edge 14, Type (0, 0), BuildingBlock: CIFDUS_clean_linker_0, # of connection points: 2
#     Edge 15, Type (0, 0), BuildingBlock: CIFDUS_clean_linker_0, # of connection points: 2
#     Edge 16, Type (0, 0), BuildingBlock: CIFDUS_clean_linker_0, # of connection points: 2
#     Edge 17, Type (0, 0), BuildingBlock: CIFDUS_clean_linker_0, # of connection points: 2
#     Edge 18, Type (0, 0), BuildingBlock: CIFDUS_clean_linker_0, # of connection points: 2
#     Edge 19, Type (0, 0), BuildingBlock: CIFDUS_clean_linker_0, # of connection points: 2
#     Edge 20, Type (0, 0), BuildingBlock: CIFDUS_clean_linker_0, # of connection points: 2
#     Edge 21, Type (0, 0), BuildingBlock: CIFDUS_clean_linker_0, # of connection points: 2
#     Edge 22, Type (0, 0), BuildingBlock: CIFDUS_clean_linker_0, # of connection points: 2
#     Edge 23, Type (0, 0), BuildingBlock: CIFDUS_clean_linker_0, # of connection points: 2
#     Edge 24, Type (0, 0), BuildingBlock: CIFDUS_clean_linker_0, # of connection points: 2
#     Edge 25, Type (0, 0), BuildingBlock: CIFDUS_clean_linker_0, # of connection points: 2
#     Edge 26, Type (0, 0), BuildingBlock: CIFDUS_clean_linker_0, # of connection points: 2
#     Edge 27, Type (0, 0), BuildingBlock: CIFDUS_clean_linker_0, # of connection points: 2
#     Edge 28, Type (0, 0), BuildingBlock: CIFDUS_clean_linker_0, # of connection points: 2
#     Edge 29, Type (0, 0), BuildingBlock: CIFDUS_clean_linker_0, # of connection points: 2
#     Edge 30, Type (0, 0), BuildingBlock: CIFDUS_clean_linker_0, # of connection points: 2
#     Edge 31, Type (0, 0), BuildingBlock: CIFDUS_clean_linker_0, # of connection points: 2
#     Edge 32, Type (0, 0), BuildingBlock: CIFDUS_clean_linker_0, # of connection points: 2
#     Edge 33, Type (0, 0), BuildingBlock: CIFDUS_clean_linker_0, # of connection points: 2
#     Edge 34, Type (0, 0), BuildingBlock: CIFDUS_clean_linker_0, # of connection points: 2
#     Edge 35, Type (0, 0), BuildingBlock: CIFDUS_clean_linker_0, # of connection points: 2
# Relax obj value: 0.338
# Max RMSD: 0.273
# Mean RMSD: 0.261
data_MOF--net-smc--node1-VOLQOD_clean_sbu_1--edge1-CIFDUS_clean_linker_0
_symmetry_space_group_name_H-M    P1
_symmetry_Int_Tables_number       1
_symmetry_cell_setting            triclinic
loop_
_symmetry_equiv_pos_as_xyz
'x, y, z'
_cell_length_a     27.428022
_cell_length_b     27.709937
_cell_length_c     43.453282
_cell_angle_alpha  90.349662
_cell_angle_beta   90.063348
_cell_angle_gamma 120.64641
loop_
_atom_site_label
_atom_site_type_symbol
_atom_site_fract_x
_atom_site_fract_y
_atom_site_fract_z
_atom_type_partial_charge
O0 O 0.92336 0.49134 0.01724 0.0
Zn1 Zn -0.015 0.47494 0.0082 0.0
O2 O -0.00311 0.44156 0.04411 0.0
Zn3 Zn -0.01282 0.36871 0.03497 0.0
Zn4 Zn 0.94824 0.43613 0.07676 0.0
Zn5 Zn 0.07123 0.49007 0.05861 0.0
O6 O 0.06068 0.36911 0.04073 0.0
O7 O 0.11854 0.46218 0.04133 0.0
O8 O 0.96675 0.42484 0.97054 0.0
O9 O 0.97175 0.35352 0.99004 0.0
O10 O 0.91652 0.30644 0.05542 0.0
O11 O 0.88409 0.3582 0.07609 0.0
O12 O -0.01309 0.44917 0.11805 0.0
O13 O 0.0522 0.55192 0.00037 0.0
O14 O 0.07661 0.48602 0.10423 0.0
O15 O 0.0984 0.56846 0.04488 0.0
C16 C 0.90441 0.49915 0.04241 0.0
C17 C 0.10983 0.41268 0.03844 0.0
C18 C 0.87701 0.31073 0.06827 0.0
C19 C 0.96422 0.3778 0.96736 0.0
C20 C 0.03876 0.46796 0.12493 0.0
C21 C 0.08945 0.58552 0.01952 0.0
O22 O 0.91523 0.48511 0.06834 0.0
O23 O 0.48693 0.4612 0.95255 0.0
Zn24 Zn 0.50777 0.54087 0.94563 0.0
O25 O 0.55894 0.58831 0.97788 0.0
Zn26 Zn 0.63031 0.64558 0.961 0.0
Zn27 Zn 0.5659 0.5438 0.00911 0.0
Zn28 Zn 0.52418 0.62282 0.99857 0.0
O29 O 0.63828 0.72306 0.96666 0.0
O30 O 0.54882 0.69533 0.97918 0.0
O31 O 0.54228 0.56582 0.90353 0.0
O32 O 0.63037 0.63308 0.91496 0.0
O33 O 0.69381 0.63735 0.97975 0.0
O34 O 0.64467 0.55909 0.0072 0.0
O35 O 0.55898 0.56728 0.0522 0.0
O36 O 0.43146 0.53432 0.94883 0.0
O37 O 0.54556 0.63811 0.04331 0.0
O38 O 0.44115 0.57151 0.99551 0.0
C39 C 0.48453 0.43532 0.97716 0.0
C40 C 0.59791 0.7329 0.97049 0.0
C41 C 0.69131 0.59844 0.99658 0.0
C42 C 0.59255 0.60183 0.89531 0.0
C43 C 0.55517 0.60869 0.0619 0.0
C44 C 0.41024 0.54111 0.97333 0.0
O45 O 0.50975 0.46165 0.00175 0.0
O46 O 0.48016 0.94579 0.00028 0.0
Zn47 Zn 0.45606 -0.00369 0.02042 0.0
O48 O 0.41647 0.01697 0.99074 0.0
Zn49 Zn 0.34436 0.00284 0.00734 0.0
Zn50 Zn 0.40289 0.97414 0.95317 0.0
Zn51 Zn 0.4626 0.0947 0.98027 0.0
O52 O 0.33575 0.07177 0.00614 0.0
O53 O 0.42477 0.13479 0.99409 0.0
O54 O 0.40942 0.96407 0.05949 0.0
O55 O 0.33758 0.97833 0.05116 0.0
O56 O 0.28026 0.9351 0.98694 0.0
O57 O 0.3236 0.90826 0.95369 0.0
O58 O 0.4154 0.02105 0.91558 0.0
O59 O 0.52947 0.06393 0.03306 0.0
O60 O 0.46817 0.10741 0.93451 0.0
O61 O 0.53775 0.13098 0.00175 0.0
C62 C 0.48039 0.93246 0.97213 0.0
C63 C 0.37525 0.12232 0.00202 0.0
C64 C 0.27928 0.89941 0.96793 0.0
C65 C 0.36408 0.96219 0.06834 0.0
C66 C 0.44432 0.07394 0.91193 0.0
C67 C 0.55704 0.1138 0.02301 0.0
O68 O 0.45474 0.94343 0.95138 0.0
O69 O 0.59232 0.82072 0.30571 0.0
Zn70 Zn 0.65642 0.81462 0.28774 0.0
O71 O 0.66929 0.76449 0.3132 0.0
Zn72 Zn 0.65265 0.69619 0.29254 0.0
Zn73 Zn 0.62897 0.75011 0.35083 0.0
Zn74 Zn 0.74668 0.80103 0.32383 0.0
O75 O 0.72321 0.68905 0.29054 0.0
O76 O 0.78711 0.78012 0.29412 0.0
O77 O 0.63916 0.78513 0.24314 0.0
O78 O 0.63245 0.70214 0.24923 0.0
O79 O 0.58402 0.62937 0.31186 0.0
O80 O 0.56567 0.67203 0.34976 0.0
O81 O 0.6761 0.75524 0.38737 0.0
O82 O 0.72026 0.89591 0.29336 0.0
O83 O 0.75994 0.78216 0.36654 0.0
O84 O 0.77494 0.88145 0.32507 0.0
C85 C 0.57978 0.82088 0.33397 0.0
C86 C 0.77355 0.73026 0.28691 0.0
C87 C 0.55335 0.62817 0.33428 0.0
C88 C 0.62935 0.73788 0.23229 0.0
C89 C 0.72705 0.76636 0.38962 0.0
C90 C 0.76129 0.91412 0.31249 0.0
O91 O 0.59602 0.79989 0.35481 0.0
O92 O 0.18634 0.78318 0.31113 0.0
Zn93 Zn 0.19961 0.85712 0.29515 0.0
O94 O 0.23935 0.91466 0.32631 0.0
Zn95 Zn 0.30588 0.97894 0.30997 0.0
Zn96 Zn 0.25809 0.88523 0.36084 0.0
Zn97 Zn 0.18895 0.93607 0.34223 0.0
O98 O 0.29859 0.04873 0.31511 0.0
O99 O 0.20484 0.00561 0.32149 0.0
O100 O 0.24168 0.87911 0.25422 0.0
O101 O 0.31193 0.96573 0.26499 0.0
O102 O 0.37657 0.98322 0.32802 0.0
O103 O 0.33766 0.90521 0.35591 0.0
O104 O 0.25294 0.91903 0.40091 0.0
O105 O 0.11911 0.83968 0.28999 0.0
O106 O 0.20159 0.95637 0.38753 0.0
O107 O 0.10952 0.87428 0.33442 0.0
C108 C 0.18524 0.76684 0.33866 0.0
C109 C 0.25235 0.04949 0.31615 0.0
C110 C 0.38074 0.9466 0.34371 0.0
C111 C 0.28578 0.92482 0.24621 0.0
C112 C 0.22914 0.94685 0.40776 0.0
C113 C 0.08817 0.84218 0.31105 0.0
O114 O 0.20792 0.80168 0.36087 0.0
O115 O 0.20732 0.40754 0.35005 0.0
Zn116 Zn 0.129 0.34768 0.33921 0.0
O117 O 0.07987 0.33918 0.37362 0.0
Zn118 Zn 0.01765 0.34802 0.36011 0.0
Zn119 Zn 0.12124 0.39055 0.40671 0.0
Zn120 Zn 0.0507 0.26653 0.3899 0.0
O121 O 0.942 0.27488 0.36052 0.0
O122 O 0.97451 0.21819 0.37241 0.0
O123 O 0.10413 0.36747 0.29922 0.0
O124 O 0.02734 0.36665 0.316 0.0
O125 O 0.02259 0.41684 0.37954 0.0
O126 O 0.10515 0.45279 0.40444 0.0
O127 O 0.09554 0.3545 0.44856 0.0
O128 O 0.13895 0.28037 0.33453 0.0
O129 O 0.04179 0.26499 0.43546 0.0
O130 O 0.10113 0.23716 0.37855 0.0
C131 C 0.23255 0.42967 0.37535 0.0
C132 C 0.9349 0.22592 0.36332 0.0
C133 C 0.06392 0.45692 0.39422 0.0
C134 C 0.06143 0.37322 0.29453 0.0
C135 C 0.06243 0.30341 0.45588 0.0
C136 C 0.1313 0.24422 0.35487 0.0
O137 O 0.20529 0.4236 0.40021 0.0
O138 O 0.25736 0.15394 0.64572 0.0
Zn139 Zn 0.32046 0.14322 0.62952 0.0
O140 O 0.3422 0.10864 0.66097 0.0
Zn141 Zn 0.33783 0.04131 0.64738 0.0
Zn142 Zn 0.30081 0.09837 0.69787 0.0
Zn143 Zn 0.41877 0.15586 0.67115 0.0
O144 O 0.41324 0.04534 0.65346 0.0
O145 O 0.46551 0.13666 0.64459 0.0
O146 O 0.30218 0.09909 0.58867 0.0
O147 O 0.32134 0.03319 0.60236 0.0
O148 O 0.27104 0.97608 0.66736 0.0
O149 O 0.23952 0.01811 0.6988 0.0
O150 O 0.34915 0.11347 0.73572 0.0
O151 O 0.38243 0.22411 0.62471 0.0
O152 O 0.43372 0.14359 0.71497 0.0
O153 O 0.4364 0.23399 0.6654 0.0
C154 C 0.24824 0.16251 0.67352 0.0
C155 C 0.46013 0.08833 0.64579 0.0
C156 C 0.2345 0.97412 0.68624 0.0
C157 C 0.30689 0.05656 0.58206 0.0
C158 C 0.40125 0.12849 0.73824 0.0
C159 C 0.42032 0.25477 0.64444 0.0
O160 O 0.26665 0.14733 0.69625 0.0
O161 O 0.87064 0.12675 0.68839 0.0
Zn162 Zn 0.8827 0.20106 0.67744 0.0
O163 O 0.92017 0.25021 0.71191 0.0
Zn164 Zn -0.01327 0.31821 0.69861 0.0
Zn165 Zn 0.93709 0.21528 0.74492 0.0
Zn166 Zn 0.86724 0.2676 0.72767 0.0
O167 O 0.97586 0.38553 0.70269 0.0
O168 O 0.88167 0.33637 0.70686 0.0
O169 O 0.92742 0.2295 0.63795 0.0
O170 O -0.00348 0.31319 0.65343 0.0
O171 O 0.0574 0.32231 0.71612 0.0
O172 O 0.01915 0.24171 0.7418 0.0
O173 O 0.92326 0.2398 0.78666 0.0
O174 O 0.80283 0.18492 0.67156 0.0
O175 O 0.87788 0.28332 0.77257 0.0
O176 O 0.78817 0.20652 0.71853 0.0
C177 C 0.87275 0.10346 0.7131 0.0
C178 C 0.92742 0.38152 0.70065 0.0
C179 C 0.06202 0.28494 0.73075 0.0
C180 C 0.97184 0.27649 0.63237 0.0
C181 C 0.9005 0.26884 0.7933 0.0
C182 C 0.76936 0.18174 0.69279 0.0
O183 O 0.89423 0.13103 0.73801 0.0
O184 O 0.81834 0.60616 0.6689 0.0
Zn185 Zn 0.8066 0.67016 0.67638 0.0
O186 O 0.7612 0.67282 0.64329 0.0
Zn187 Zn 0.69559 0.67216 0.66061 0.0
Zn188 Zn 0.74012 0.61359 0.61383 0.0
Zn189 Zn 0.80857 0.74065 0.62169 0.0
O190 O 0.70697 0.75011 0.65888 0.0
O191 O 0.79518 0.79819 0.64059 0.0
O192 O 0.7712 0.6622 0.71799 0.0
O193 O 0.68886 0.65458 0.7061 0.0
O194 O 0.62331 0.61124 0.6408 0.0
O195 O 0.65686 0.56436 0.61516 0.0
O196 O 0.75396 0.64145 0.57044 0.0
O197 O 0.88526 0.73612 0.67631 0.0
O198 O 0.7916 0.7333 0.57617 0.0
O199 O 0.89008 0.76461 0.62819 0.0
C200 C 0.80746 0.57155 0.64692 0.0
C201 C 0.75234 0.79623 0.65319 0.0
C202 C 0.61582 0.56971 0.62433 0.0
C203 C 0.72307 0.65448 0.72592 0.0
C204 C 0.77131 0.68972 0.55909 0.0
C205 C 0.91395 0.76388 0.65317 0.0
O206 O 0.77835 0.5695 0.6235 0.0
H207 H 0.36027 0.49035 0.02575 0.0
H208 H 0.32427 0.51191 0.93188 0.0
H209 H 0.22222 0.45859 0.94261 0.0
H210 H 0.14586 0.41972 0.98105 0.0
H211 H 0.18357 0.40278 0.07519 0.0
H212 H 0.28279 0.43823 0.06186 0.0
C213 C 0.32994 0.48318 0.00764 0.0
C214 C 0.34911 0.50641 0.97841 0.0
C215 C 0.27205 0.45243 0.01396 0.0
C216 C 0.30996 0.49526 0.95472 0.0
C217 C 0.2519 0.46466 0.96083 0.0
C218 C 0.1755 0.42134 0.99818 0.0
C219 C 0.15816 0.40828 0.02887 0.0
C220 C 0.23268 0.4446 0.99061 0.0
C221 C 0.19638 0.41162 0.05133 0.0
C222 C 0.2531 0.43291 0.04381 0.0
H223 H 0.56529 0.92952 0.00301 0.0
H224 H 0.462 0.86856 0.92086 0.0
H225 H 0.50231 0.81021 0.90861 0.0
H226 H 0.55394 0.7648 0.92601 0.0
H227 H 0.65457 0.82224 0.00875 0.0
H228 H 0.63029 0.89539 0.01547 0.0
C229 C 0.5521 0.90387 0.98228 0.0
C230 C 0.50968 0.90221 0.9633 0.0
C231 C 0.57554 0.87038 0.97531 0.0
C232 C 0.49401 0.86997 0.93609 0.0
C233 C 0.51711 0.83666 0.929 0.0
C234 C 0.5727 0.79527 0.94462 0.0
C235 C 0.60625 0.78895 0.96671 0.0
C236 C 0.55637 0.83512 0.94899 0.0
C237 C 0.62958 0.82742 0.99118 0.0
C238 C 0.61469 0.86836 0.99533 0.0
H239 H 0.22068 0.84817 0.01831 0.0
H240 H 0.23527 0.81991 0.92196 0.0
H241 H 0.17269 0.71851 0.92903 0.0
H242 H 0.12297 0.63775 0.96419 0.0
H243 H 0.12178 0.66857 0.06158 0.0
H244 H 0.17077 0.76934 0.0527 0.0
C245 C 0.20878 0.82001 0.99863 0.0
C246 C 0.23158 0.8413 0.96955 0.0
C247 C 0.17651 0.76218 0.00332 0.0
C248 C 0.2174 0.80427 0.94446 0.0
C249 C 0.18226 0.74642 0.9486 0.0
C250 C 0.13334 0.66672 0.98334 0.0
C251 C 0.1194 0.6461 0.01349 0.0
C252 C 0.16316 0.72482 0.97816 0.0
C253 C 0.13301 0.68371 0.03823 0.0
C254 C 0.16054 0.74122 0.03316 0.0
H255 H 0.36526 0.17596 0.95438 0.0
H256 H 0.3712 0.17637 0.05332 0.0
H257 H 0.40249 0.2765 0.05448 0.0
H258 H 0.44578 0.36623 0.02676 0.0
H259 H 0.44545 0.36532 0.92734 0.0
H260 H 0.39494 0.26317 0.92683 0.0
C261 C 0.37064 0.19757 0.97617 0.0
C262 C 0.36539 0.16928 0.00372 0.0
C263 C 0.39197 0.25544 0.97646 0.0
C264 C 0.37382 0.19739 0.03191 0.0
C265 C 0.39297 0.25483 0.03249 0.0
C266 C 0.43434 0.34365 0.005 0.0
C267 C 0.45067 0.37338 0.97714 0.0
C268 C 0.40532 0.28478 0.00484 0.0
C269 C 0.43424 0.34352 0.94912 0.0
C270 C 0.40508 0.28507 0.94878 0.0
H271 H 0.64359 0.09616 0.03525 0.0
H272 H 0.59238 0.21943 0.04171 0.0
H273 H 0.68513 0.28808 0.06268 0.0
H274 H 0.78206 0.31548 0.07379 0.0
H275 H 0.84002 0.19836 0.06016 0.0
H276 H 0.74268 0.12392 0.04821 0.0
C277 C 0.65293 0.13797 0.04161 0.0
C278 C 0.61192 0.1533 0.03695 0.0
C279 C 0.70718 0.17789 0.0524 0.0
C280 C 0.62391 0.20735 0.0449 0.0
C281 C 0.67666 0.24634 0.05697 0.0
C282 C 0.77361 0.27346 0.06885 0.0
C283 C 0.81835 0.26252 0.06779 0.0
C284 C 0.71887 0.23241 0.06012 0.0
C285 C 0.8063 0.20783 0.06111 0.0
C286 C 0.75081 0.16547 0.05403 0.0
H287 H 0.89984 0.56391 0.99735 0.0
H288 H 0.82616 0.48847 0.08463 0.0
H289 H 0.75716 0.51882 0.07946 0.0
H290 H 0.71203 0.55777 0.04773 0.0
H291 H 0.78497 0.63349 0.96051 0.0
H292 H 0.86109 0.61293 0.96831 0.0
C293 C 0.86892 0.55451 0.01534 0.0
C294 C 0.86733 0.52316 0.04108 0.0
C295 C 0.82947 0.57207 0.01221 0.0
C296 C 0.82796 0.51228 0.06454 0.0
C297 C 0.78845 0.52946 0.06156 0.0
C298 C 0.74507 0.57043 0.03061 0.0
C299 C 0.74269 0.59627 0.00339 0.0
C300 C 0.78797 0.55804 0.03514 0.0
C301 C 0.78609 0.61349 0.98163 0.0
C302 C 0.82923 0.60135 0.98598 0.0
H303 H 0.82676 0.70999 0.33087 0.0
H304 H 0.82905 0.7386 0.2336 0.0
H305 H 0.93011 0.76918 0.23165 0.0
H306 H 0.0207 0.80742 0.26006 0.0
H307 H 0.01788 0.79258 0.35891 0.0
H308 H 0.91468 0.73763 0.35817 0.0
C309 C 0.849 0.7202 0.30905 0.0
C310 C 0.82103 0.72135 0.28236 0.0
C311 C 0.90761 0.74255 0.30878 0.0
C312 C 0.84996 0.73634 0.25425 0.0
C313 C 0.90788 0.75496 0.25332 0.0
C314 C -0.00274 0.79129 0.28128 0.0
C315 C 0.02638 0.80486 0.30954 0.0
C316 C 0.93774 0.76153 0.2808 0.0
C317 C -0.00399 0.78371 0.33697 0.0
C318 C 0.93712 0.75195 0.33655 0.0
H319 H 0.1828 0.23007 0.30431 0.0
H320 H 0.14777 0.18784 0.40051 0.0
H321 H 0.19465 0.13369 0.39781 0.0
H322 H 0.23593 0.08995 0.36742 0.0
H323 H 0.2633 0.12211 0.27039 0.0
H324 H 0.23125 0.19033 0.27416 0.0
C325 C 0.18575 0.20922 0.32466 0.0
C326 C 0.1609 0.21228 0.35243 0.0
C327 C 0.21216 0.17708 0.32288 0.0
C328 C 0.16543 0.18536 0.37868 0.0
C329 C 0.19268 0.1547 0.37728 0.0
C330 C 0.23671 0.11353 0.34735 0.0
C331 C 0.25267 0.10227 0.31884 0.0
C332 C 0.2151 0.1494 0.34944 0.0
C333 C 0.25235 0.13148 0.29269 0.0
C334 C 0.23309 0.16956 0.29481 0.0
H335 H 0.87957 0.13068 0.39385 0.0
H336 H 0.87692 0.20875 0.30911 0.0
H337 H 0.81618 0.11606 0.28527 0.0
H338 H 0.77886 0.01267 0.28646 0.0
H339 H 0.79361 0.94025 0.37129 0.0
H340 H 0.83492 0.03024 0.39689 0.0
C341 C 0.86391 0.12723 0.37049 0.0
C342 C 0.88248 0.17578 0.35317 0.0
C343 C 0.83286 0.07458 0.35658 0.0
C344 C 0.86238 0.1715 0.32294 0.0
C345 C 0.8287 0.11856 0.30916 0.0
C346 C 0.79106 0.01692 0.31051 0.0
C347 C 0.78499 0.97025 0.32657 0.0
C348 C 0.81629 0.06977 0.3253 0.0
C349 C 0.79977 0.97588 0.35798 0.0
C350 C 0.82279 0.02723 0.37288 0.0
H351 H 0.17673 0.71656 0.3936 0.0
H352 H 0.12144 0.68043 0.29876 0.0
H353 H 0.06854 0.58034 0.30975 0.0
H354 H 0.04524 0.50302 0.34495 0.0
H355 H 0.10735 0.53852 0.43837 0.0
H356 H 0.14848 0.63913 0.42965 0.0
C357 C 0.15303 0.68688 0.37531 0.0
C358 C 0.15377 0.70607 0.3453 0.0
C359 C 0.12306 0.62932 0.3817 0.0
C360 C 0.12238 0.6669 0.32198 0.0
C361 C 0.09171 0.60962 0.32827 0.0
C362 C 0.06599 0.53273 0.36369 0.0
C363 C 0.07269 0.51369 0.39237 0.0
C364 C 0.0924 0.59035 0.35792 0.0
C365 C 0.10115 0.55249 0.41624 0.0
C366 C 0.12529 0.6099 0.41111 0.0
H367 H 0.30268 0.43046 0.33131 0.0
H368 H 0.30266 0.50319 0.41953 0.0
H369 H 0.40531 0.56527 0.41655 0.0
H370 H 0.49197 0.60598 0.38619 0.0
H371 H 0.49142 0.53665 0.29684 0.0
H372 H 0.39178 0.46456 0.30343 0.0
C373 C 0.3251 0.45969 0.35 0.0
C374 C 0.29499 0.46318 0.37531 0.0
C375 C 0.3838 0.4955 0.34797 0.0
C376 C 0.3248 0.50019 0.39966 0.0
C377 C 0.38342 0.53565 0.39796 0.0
C378 C 0.47034 0.57459 0.3683 0.0
C379 C 0.4986 0.57723 0.34079 0.0
C380 C 0.41293 0.53471 0.37182 0.0
C381 C 0.47048 0.53563 0.31815 0.0
C382 C 0.41342 0.4948 0.32179 0.0
H383 H 0.41252 0.89401 0.38401 0.0
H384 H 0.46595 -0.00698 0.30131 0.0
H385 H 0.53589 0.96489 0.29188 0.0
H386 H 0.57126 0.90113 0.30317 0.0
H387 H 0.51546 0.80043 0.38529 0.0
H388 H 0.4563 0.83976 0.39872 0.0
C389 C 0.4404 0.9105 0.36429 0.0
C390 C 0.43354 0.9448 0.34314 0.0
C391 C 0.4789 0.89263 0.35848 0.0
C392 C 0.47045 0.96659 0.31796 0.0
C393 C 0.50986 0.94986 0.31232 0.0
C394 C 0.54621 0.88792 0.32404 0.0
C395 C 0.54659 0.847 0.34286 0.0
C396 C 0.51255 0.9109 0.33169 0.0
C397 C 0.51527 0.83138 0.37025 0.0
C398 C 0.48158 0.85393 0.37798 0.0
H399 H 0.71412 0.16155 0.63821 0.0
H400 H 0.68689 0.1307 0.73565 0.0
H401 H 0.58468 0.08593 0.72796 0.0
H402 H 0.50502 0.06819 0.69477 0.0
H403 H 0.53344 0.11092 0.59881 0.0
H404 H 0.63288 0.13676 0.6042 0.0
C405 C 0.68564 0.14415 0.65762 0.0
C406 C 0.70776 0.14992 0.68746 0.0
C407 C 0.62713 0.1203 0.65317 0.0
C408 C 0.67067 0.12747 0.71252 0.0
C409 C 0.6123 0.10168 0.70814 0.0
C410 C 0.5327 0.08108 0.67489 0.0
C411 C 0.51247 0.08675 0.64636 0.0
C412 C 0.59026 0.09943 0.67872 0.0
C413 C 0.5485 0.10537 0.62081 0.0
C414 C 0.6053 0.12078 0.62402 0.0
H415 H 0.85136 0.37201 0.65929 0.0
H416 H -0.00967 0.49344 0.71532 0.0
H417 H 0.96744 0.56549 0.70125 0.0
H418 H 0.90111 0.58971 0.67758 0.0
H419 H 0.7626 0.46732 0.62138 0.0
H420 H 0.7924 0.39921 0.6308 0.0
C421 C 0.87705 0.41455 0.66809 0.0
C422 C 0.92177 0.42771 0.68862 0.0
C423 C 0.86339 0.45494 0.66009 0.0
C424 C 0.95565 0.48279 0.69951 0.0
C425 C 0.94228 0.5236 0.69164 0.0
C426 C 0.87775 0.54822 0.66722 0.0
C427 C 0.82914 0.53293 0.6493 0.0
C428 C 0.89517 0.50954 0.67271 0.0
C429 C 0.79993 0.47972 0.63537 0.0
C430 C 0.81683 0.44084 0.64083 0.0
H431 H 0.54837 0.51191 0.67043 0.0
H432 H 0.56203 0.51506 0.57173 0.0
H433 H 0.49193 0.41463 0.56887 0.0
H434 H 0.44459 0.32364 0.59545 0.0
H435 H 0.44558 0.32093 0.69467 0.0
H436 H 0.49216 0.42289 0.69664 0.0
C437 C 0.53375 0.49091 0.64829 0.0
C438 C 0.55945 0.52014 0.62135 0.0
C439 C 0.49779 0.43271 0.64713 0.0
C440 C 0.54185 0.49289 0.59269 0.0
C441 C 0.50267 0.43543 0.59113 0.0
C442 C 0.45433 0.3456 0.61739 0.0
C443 C 0.44319 0.31548 0.64483 0.0
C444 C 0.48325 0.4044 0.61833 0.0
C445 C 0.45539 0.34379 0.67325 0.0
C446 C 0.48154 0.40194 0.6744 0.0
H447 H 0.83224 0.8629 0.69321 0.0
H448 H 0.68882 0.84462 0.64227 0.0
H449 H 0.71024 0.93785 0.66005 0.0
H450 H 0.77637 0.02763 0.6853 0.0
H451 H 0.91849 0.04477 0.73722 0.0
H452 H 0.8903 0.94757 0.72452 0.0
C453 C 0.80548 0.87937 0.68634 0.0
C454 C 0.75989 0.84834 0.66611 0.0
C455 C 0.81775 0.93213 0.69689 0.0
C456 C 0.72441 0.86863 0.65766 0.0
C457 C 0.73672 0.92165 0.66778 0.0
C458 C 0.8004 0.0095 0.69429 0.0
C459 C 0.84968 0.04284 0.71177 0.0
C460 C 0.78416 0.95422 0.6867 0.0
C461 C 0.88035 0.01941 0.72377 0.0
C462 C 0.86455 0.96424 0.71627 0.0
H463 H 0.97786 0.80461 0.70473 0.0
H464 H -0.01125 0.7919 0.6062 0.0
H465 H 0.09203 0.8466 0.60928 0.0
H466 H 0.17767 0.90669 0.639 0.0
H467 H 0.16635 0.93035 0.7363 0.0
H468 H 0.06471 0.86091 0.73505 0.0
C469 C 0.00297 0.81341 0.68401 0.0
C470 C 0.97605 0.79498 0.65526 0.0
C471 C 0.06209 0.84623 0.68585 0.0
C472 C 0.00875 0.80658 0.62852 0.0
C473 C 0.06769 0.83745 0.63029 0.0
C474 C 0.15323 0.89514 0.6601 0.0
C475 C 0.179 0.92274 0.68776 0.0
C476 C 0.09465 0.85852 0.65872 0.0
C477 C 0.147 0.90891 0.71485 0.0
C478 C 0.089 0.86984 0.71403 0.0
H479 H 0.2216 0.18807 0.72924 0.0
H480 H 0.2102 0.2093 0.63158 0.0
H481 H 0.16237 0.26163 0.64174 0.0
H482 H 0.11525 0.29265 0.67796 0.0
H483 H 0.11835 0.26321 0.77497 0.0
H484 H 0.18031 0.22503 0.76565 0.0
C485 C 0.20883 0.2042 0.71012 0.0
C486 C 0.21876 0.1939 0.67965 0.0
C487 C 0.1809 0.23384 0.7161 0.0
C488 C 0.20236 0.21576 0.65524 0.0
C489 C 0.17538 0.2461 0.66103 0.0
C490 C 0.13151 0.28 0.69714 0.0
C491 C 0.11342 0.28162 0.72716 0.0
C492 C 0.16366 0.25462 0.69133 0.0
C493 C 0.13285 0.26328 0.75177 0.0
C494 C 0.16737 0.2406 0.74636 0.0
H495 H 0.13613 0.42844 0.24789 0.0
H496 H 0.95975 0.35155 0.27281 0.0
H497 H 0.93823 0.37844 0.22382 0.0
H498 H 0.96823 0.42131 0.17347 0.0
H499 H 0.14413 0.49866 0.14751 0.0
H500 H 0.16706 0.47513 0.19744 0.0
C501 C 0.09302 0.41733 0.24242 0.0
C502 C 0.04966 0.38781 0.26388 0.0
C503 C 0.08081 0.43355 0.21417 0.0
C504 C -0.00597 0.37434 0.25671 0.0
C505 C 0.98158 0.38977 0.22871 0.0
C506 C 0.01176 0.43372 0.17879 0.0
C507 C 0.05422 0.46153 0.15667 0.0
C508 C 0.02455 0.41933 0.20728 0.0
C509 C 0.11044 0.47721 0.16409 0.0
C510 C 0.12361 0.46344 0.19258 0.0
H511 H 0.60528 0.64083 0.20411 0.0
H512 H 0.61868 0.80031 0.18626 0.0
H513 H 0.5945 0.77347 0.13204 0.0
H514 H 0.57181 0.70508 0.08955 0.0
H515 H 0.56066 0.54694 0.10879 0.0
H516 H 0.58152 0.57313 0.16282 0.0
C517 C 0.60295 0.67003 0.18852 0.0
C518 C 0.61405 0.72273 0.19938 0.0
C519 C 0.58933 0.65448 0.15759 0.0
C520 C 0.61052 0.75956 0.17861 0.0
C521 C 0.59666 0.74419 0.1476 0.0
C522 C 0.57352 0.67618 0.10562 0.0
C523 C 0.56468 0.62405 0.09502 0.0
C524 C 0.58622 0.69178 0.13681 0.0
C525 C 0.56741 0.58732 0.11617 0.0
C526 C 0.57939 0.60226 0.14713 0.0
H527 H 0.42317 -0.0116 0.12193 0.0
H528 H 0.25428 0.89349 0.08428 0.0
H529 H 0.21478 0.86893 0.13616 0.0
H530 H 0.22786 0.88041 0.19251 0.0
H531 H 0.39633 0.98341 0.22974 0.0
H532 H 0.43635 -0.00123 0.17812 0.0
C533 C 0.37786 0.96158 0.1252 0.0
C534 C 0.34165 0.94244 0.09949 0.0
C535 C 0.35531 0.94961 0.1551 0.0
C536 C 0.28288 0.90864 0.10387 0.0
C537 C 0.2603 0.89471 0.13349 0.0
C538 C 0.27332 0.90571 0.18925 0.0
C539 C 0.30904 0.93084 0.21484 0.0
C540 C 0.29599 0.91587 0.15933 0.0
C541 C 0.36788 0.96402 0.21033 0.0
C542 C 0.39086 0.97273 0.18083 0.0
H543 H 0.47135 0.04861 0.85648 0.0
H544 H 0.41348 0.15019 0.90033 0.0
H545 H 0.39681 0.17861 0.85005 0.0
H546 H 0.39093 0.16765 0.79354 0.0
H547 H 0.45773 0.07397 0.74947 0.0
H548 H 0.47951 0.04977 0.79975 0.0
C549 C 0.45601 0.07768 0.85485 0.0
C550 C 0.44317 0.09706 0.88178 0.0
C551 C 0.44795 0.09494 0.8259 0.0
C552 C 0.42377 0.13504 0.87971 0.0
C553 C 0.41395 0.15101 0.85103 0.0
C554 C 0.41111 0.14274 0.79509 0.0
C555 C 0.42231 0.12206 0.76814 0.0
C556 C 0.42473 0.13025 0.82398 0.0
C557 C 0.44894 0.09032 0.77011 0.0
C558 C 0.46106 0.07625 0.79879 0.0
H559 H 0.91668 0.39633 0.91715 0.0
H560 H -0.01225 0.29779 0.94897 0.0
H561 H 0.97226 0.25355 0.89844 0.0
H562 H 0.94124 0.24477 0.84468 0.0
H563 H 0.86801 0.34175 0.81326 0.0
H564 H 0.88115 0.38395 0.86411 0.0
C565 C 0.92879 0.36521 0.913 0.0
C566 C 0.9536 0.3507 0.93672 0.0
C567 C 0.91922 0.33937 0.88395 0.0
C568 C 0.96846 0.30975 0.9311 0.0
C569 C 0.9597 0.2844 0.90219 0.0
C570 C 0.92777 0.27481 0.84899 0.0
C571 C 0.904 0.29015 0.82506 0.0
C572 C 0.9354 0.2991 0.87837 0.0
C573 C 0.88652 0.32903 0.83118 0.0
C574 C 0.89418 0.35347 0.86027 0.0
H575 H 0.61752 0.61031 0.7505 0.0
H576 H 0.79361 0.68203 0.77555 0.0
H577 H 0.76888 0.67299 0.82998 0.0
H578 H 0.69754 0.64557 0.87055 0.0
H579 H 0.52094 0.5698 0.84577 0.0
H580 H 0.54562 0.57961 0.79121 0.0
C581 C 0.65049 0.62397 0.76787 0.0
C582 C 0.70737 0.64702 0.75891 0.0
C583 C 0.63591 0.61801 0.7992 0.0
C584 C 0.74947 0.66397 0.78175 0.0
C585 C 0.73541 0.65899 0.81291 0.0
C586 C 0.66445 0.63135 0.85322 0.0
C587 C 0.60752 0.60732 0.86224 0.0
C588 C 0.67882 0.63626 0.82191 0.0
C589 C 0.5651 0.5884 0.83947 0.0
C590 C 0.57917 0.59407 0.80826 0.0
H591 H 0.67585 0.67594 0.42577 0.0
H592 H 0.8237 0.84107 0.42 0.0
H593 H 0.85234 0.83189 0.47221 0.0
H594 H 0.83139 0.77821 0.52064 0.0
H595 H 0.68692 0.60994 0.52386 0.0
H596 H 0.66117 0.61858 0.47137 0.0
C597 C 0.71454 0.70964 0.43597 0.0
C598 C 0.74737 0.7593 0.41957 0.0
C599 C 0.73123 0.70342 0.46545 0.0
C600 C 0.7979 0.80252 0.43249 0.0
C601 C 0.81408 0.79731 0.46228 0.0
C602 C 0.79467 0.74336 0.50966 0.0
C603 C 0.76086 0.69373 0.52615 0.0
C604 C 0.78055 0.7482 0.47916 0.0
C605 C 0.71375 0.64854 0.51161 0.0
C606 C 0.69875 0.6535 0.48165 0.0
H607 H 0.27899 0.92904 0.45677 0.0
H608 H 0.1965 0.01954 0.42956 0.0
H609 H 0.2138 0.06265 0.48078 0.0
H610 H 0.25386 0.07547 0.53355 0.0
H611 H 0.33564 0.98323 0.55921 0.0
H612 H 0.31734 0.94064 0.50846 0.0
C613 C 0.26452 0.95803 0.46196 0.0
C614 C 0.23643 0.97085 0.43926 0.0
C615 C 0.27477 0.98278 0.49129 0.0
C616 C 0.218 0.00856 0.44659 0.0
C617 C 0.2281 0.03348 0.47588 0.0
C618 C 0.2678 0.04623 0.52796 0.0
C619 C 0.29607 0.03274 0.55036 0.0
C620 C 0.25678 0.02114 0.49844 0.0
C621 C 0.31355 -0.00559 0.54266 0.0
C622 C 0.30315 0.96987 0.51354 0.0
H623 H 0.9457 0.20468 0.58364 0.0
H624 H 0.05262 0.37827 0.6106 0.0
H625 H 0.09209 0.40139 0.55901 0.0
H626 H 0.09436 0.3733 0.50574 0.0
H627 H -0.01182 0.19963 0.4787 0.0
H628 H 0.95101 0.17581 0.53077 0.0
C629 C 0.97758 0.24756 0.57822 0.0
C630 C -0.00422 0.28962 0.60095 0.0
C631 C 0.00052 0.26069 0.54847 0.0
C632 C 0.03766 0.34492 0.59359 0.0
C633 C 0.06035 0.35831 0.56405 0.0
C634 C 0.06343 0.33015 0.51125 0.0
C635 C 0.04401 0.28851 0.48822 0.0
C636 C 0.04188 0.31662 0.54125 0.0
C637 C 0.00395 0.23273 0.49589 0.0
C638 C 0.98243 0.21897 0.52569 0.0
loop_
_geom_bond_atom_site_label_1
_geom_bond_atom_site_label_2
_geom_bond_distance
_geom_bond_site_symmetry_2
_ccdc_geom_bond_type
O0 Zn1 1.953 . S
O0 C16 1.225 1_556 S
Zn1 O0 1.953 . S
Zn1 O2 1.949 1_656 S
Zn1 O8 1.919 . S
Zn1 O13 1.924 1_655 S
O2 Zn1 1.949 1_454 S
O2 Zn3 1.923 1_454 S
O2 Zn4 1.950 1_455 S
O2 Zn5 1.945 . S
Zn3 O2 1.923 1_656 S
Zn3 O6 1.933 1_655 S
Zn3 O9 1.941 . S
Zn3 O10 1.965 1_556 S
Zn4 O2 1.950 1_655 S
Zn4 O11 1.938 . S
Zn4 O12 1.906 . S
Zn4 O22 1.953 . S
Zn5 O2 1.945 . S
Zn5 O7 1.932 . S
Zn5 O14 1.977 . S
Zn5 O15 1.910 . S
O6 Zn3 1.933 1_455 S
O6 C17 1.226 1_556 S
O7 Zn5 1.932 . S
O7 C17 1.307 . S
O8 Zn1 1.919 . S
O8 C19 1.253 . S
O9 Zn3 1.941 . S
O9 C19 1.283 . S
O10 Zn3 1.965 1_554 S
O10 C18 1.303 . S
O11 Zn4 1.938 . S
O11 C18 1.247 . S
O12 Zn4 1.906 . S
O12 C20 1.304 1_655 S
O13 Zn1 1.924 1_455 S
O13 C21 1.294 1_556 S
O14 Zn5 1.977 . S
O14 C20 1.272 . S
O15 Zn5 1.910 . S
O15 C21 1.246 . S
C16 O0 1.225 1_554 S
C16 O22 1.298 . S
C17 O6 1.226 1_554 S
C17 O7 1.307 . S
C18 O10 1.303 . S
C18 O11 1.247 . S
C19 O8 1.253 . S
C19 O9 1.283 . S
C20 O12 1.304 1_455 S
C20 O14 1.272 . S
C21 O13 1.294 1_554 S
C21 O15 1.246 . S
O22 Zn4 1.953 . S
O22 C16 1.298 . S
O23 Zn24 1.953 . S
O23 C39 1.225 1_556 S
Zn24 O23 1.953 . S
Zn24 O25 1.949 1_556 S
Zn24 O31 1.919 . S
Zn24 O36 1.924 . S
O25 Zn24 1.949 1_554 S
O25 Zn26 1.923 1_554 S
O25 Zn27 1.950 . S
O25 Zn28 1.945 . S
Zn26 O25 1.923 1_556 S
Zn26 O29 1.933 . S
Zn26 O32 1.941 . S
Zn26 O33 1.975 . S
Zn27 O25 1.950 . S
Zn27 O34 1.938 . S
Zn27 O35 1.906 . S
Zn27 O45 1.953 . S
Zn28 O25 1.945 . S
Zn28 O30 1.932 . S
Zn28 O37 1.977 . S
Zn28 O38 1.910 . S
O29 Zn26 1.933 . S
O29 C40 1.225 . S
O30 Zn28 1.932 . S
O30 C40 1.308 1_554 S
O31 Zn24 1.919 . S
O31 C42 1.253 . S
O32 Zn26 1.941 . S
O32 C42 1.283 . S
O33 Zn26 1.975 . S
O33 C41 1.288 1_556 S
O34 Zn27 1.938 . S
O34 C41 1.247 . S
O35 Zn27 1.906 . S
O35 C43 1.304 . S
O36 Zn24 1.924 . S
O36 C44 1.310 1_556 S
O37 Zn28 1.977 . S
O37 C43 1.272 . S
O38 Zn28 1.910 . S
O38 C44 1.232 . S
C39 O23 1.225 1_554 S
C39 O45 1.298 . S
C40 O29 1.225 . S
C40 O30 1.308 1_556 S
C41 O33 1.288 1_554 S
C41 O34 1.247 . S
C42 O31 1.253 . S
C42 O32 1.283 . S
C43 O35 1.304 . S
C43 O37 1.272 . S
C44 O36 1.310 1_554 S
C44 O38 1.232 . S
O45 Zn27 1.953 . S
O45 C39 1.298 . S
O46 Zn47 1.953 1_565 S
O46 C62 1.225 . S
Zn47 O46 1.953 1_545 S
Zn47 O48 1.949 . S
Zn47 O54 1.919 . S
Zn47 O59 1.924 . S
O48 Zn47 1.949 . S
O48 Zn49 1.923 . S
O48 Zn50 1.950 1_544 S
O48 Zn51 1.945 1_554 S
Zn49 O48 1.923 . S
Zn49 O52 1.933 . S
Zn49 O55 1.943 . S
Zn49 O56 1.965 1_545 S
Zn50 O48 1.950 1_566 S
Zn50 O57 1.938 . S
Zn50 O58 1.906 . S
Zn50 O68 1.953 . S
Zn51 O48 1.945 1_556 S
Zn51 O53 1.932 . S
Zn51 O60 1.977 . S
Zn51 O61 1.910 . S
O52 Zn49 1.933 . S
O52 C63 1.226 . S
O53 Zn51 1.932 . S
O53 C63 1.307 1_556 S
O54 Zn47 1.919 . S
O54 C65 1.253 . S
O55 Zn49 1.943 . S
O55 C65 1.281 . S
O56 Zn49 1.965 1_565 S
O56 C64 1.303 1_554 S
O57 Zn50 1.938 . S
O57 C64 1.247 . S
O58 Zn50 1.906 . S
O58 C66 1.304 1_565 S
O59 Zn47 1.924 . S
O59 C67 1.311 . S
O60 Zn51 1.977 . S
O60 C66 1.272 . S
O61 Zn51 1.910 . S
O61 C67 1.231 1_556 S
C62 O46 1.225 . S
C62 O68 1.298 1_554 S
C63 O52 1.226 . S
C63 O53 1.307 1_554 S
C64 O56 1.303 1_556 S
C64 O57 1.247 . S
C65 O54 1.253 . S
C65 O55 1.281 . S
C66 O58 1.304 1_545 S
C66 O60 1.272 . S
C67 O59 1.311 . S
C67 O61 1.231 1_554 S
O68 Zn50 1.953 . S
O68 C62 1.298 1_556 S
O69 Zn70 1.953 . S
O69 C85 1.225 . S
Zn70 O69 1.953 . S
Zn70 O71 1.949 . S
Zn70 O77 1.919 . S
Zn70 O82 1.924 . S
O71 Zn70 1.949 . S
O71 Zn72 1.923 . S
O71 Zn73 1.950 . S
O71 Zn74 1.945 . S
Zn72 O71 1.923 . S
Zn72 O75 1.933 . S
Zn72 O78 1.941 . S
Zn72 O79 1.965 . S
Zn73 O71 1.950 . S
Zn73 O80 1.938 . S
Zn73 O81 1.906 . S
Zn73 O91 1.953 . S
Zn74 O71 1.945 . S
Zn74 O76 1.932 . S
Zn74 O83 1.977 . S
Zn74 O84 1.910 . S
O75 Zn72 1.933 . S
O75 C86 1.226 . S
O76 Zn74 1.932 . S
O76 C86 1.307 . S
O77 Zn70 1.919 . S
O77 C88 1.253 . S
O78 Zn72 1.941 . S
O78 C88 1.283 . S
O79 Zn72 1.965 . S
O79 C87 1.303 . S
O80 Zn73 1.938 . S
O80 C87 1.247 . S
O81 Zn73 1.906 . S
O81 C89 1.304 . S
O82 Zn70 1.924 . S
O82 C90 1.311 . S
O83 Zn74 1.977 . S
O83 C89 1.272 . S
O84 Zn74 1.910 . S
O84 C90 1.231 . S
C85 O69 1.225 . S
C85 O91 1.298 . S
C86 O75 1.226 . S
C86 O76 1.307 . S
C87 O79 1.303 . S
C87 O80 1.247 . S
C88 O77 1.253 . S
C88 O78 1.283 . S
C89 O81 1.304 . S
C89 O83 1.272 . S
C90 O82 1.311 . S
C90 O84 1.231 . S
O91 Zn73 1.953 . S
O91 C85 1.298 . S
O92 Zn93 1.953 . S
O92 C108 1.225 . S
Zn93 O92 1.953 . S
Zn93 O94 1.949 . S
Zn93 O100 1.919 . S
Zn93 O105 1.924 . S
O94 Zn93 1.949 . S
O94 Zn95 1.923 1_565 S
O94 Zn96 1.950 . S
O94 Zn97 1.945 . S
Zn95 O94 1.923 1_545 S
Zn95 O98 1.933 . S
Zn95 O101 1.941 1_545 S
Zn95 O102 1.965 . S
Zn96 O94 1.950 . S
Zn96 O103 1.938 . S
Zn96 O104 1.906 . S
Zn96 O114 1.953 . S
Zn97 O94 1.945 . S
Zn97 O99 1.932 1_565 S
Zn97 O106 1.977 . S
Zn97 O107 1.910 . S
O98 Zn95 1.933 . S
O98 C109 1.226 . S
O99 Zn97 1.932 1_545 S
O99 C109 1.307 . S
O100 Zn93 1.919 . S
O100 C111 1.253 . S
O101 Zn95 1.941 1_565 S
O101 C111 1.283 . S
O102 Zn95 1.965 . S
O102 C110 1.303 1_545 S
O103 Zn96 1.938 . S
O103 C110 1.247 . S
O104 Zn96 1.906 . S
O104 C112 1.304 . S
O105 Zn93 1.924 . S
O105 C113 1.311 . S
O106 Zn97 1.977 . S
O106 C112 1.272 . S
O107 Zn97 1.910 . S
O107 C113 1.231 . S
C108 O92 1.225 . S
C108 O114 1.298 . S
C109 O98 1.226 . S
C109 O99 1.307 . S
C110 O102 1.303 1_565 S
C110 O103 1.247 . S
C111 O100 1.253 . S
C111 O101 1.283 . S
C112 O104 1.304 . S
C112 O106 1.272 . S
C113 O105 1.311 . S
C113 O107 1.231 . S
O114 Zn96 1.953 . S
O114 C108 1.298 . S
O115 Zn116 1.953 . S
O115 C131 1.225 . S
Zn116 O115 1.953 . S
Zn116 O117 1.949 . S
Zn116 O123 1.919 . S
Zn116 O128 1.924 . S
O117 Zn116 1.949 . S
O117 Zn118 1.923 . S
O117 Zn119 1.950 . S
O117 Zn120 1.945 . S
Zn118 O117 1.923 . S
Zn118 O121 1.933 1_455 S
Zn118 O124 1.941 . S
Zn118 O125 1.965 . S
Zn119 O117 1.950 . S
Zn119 O126 1.938 . S
Zn119 O127 1.906 . S
Zn119 O137 1.953 . S
Zn120 O117 1.945 . S
Zn120 O122 1.932 . S
Zn120 O129 1.977 . S
Zn120 O130 1.910 . S
O121 Zn118 1.933 1_655 S
O121 C132 1.226 . S
O122 Zn120 1.932 . S
O122 C132 1.307 1_455 S
O123 Zn116 1.919 . S
O123 C134 1.253 . S
O124 Zn118 1.941 . S
O124 C134 1.283 . S
O125 Zn118 1.965 . S
O125 C133 1.303 . S
O126 Zn119 1.938 . S
O126 C133 1.247 . S
O127 Zn119 1.906 . S
O127 C135 1.304 . S
O128 Zn116 1.924 . S
O128 C136 1.311 . S
O129 Zn120 1.977 . S
O129 C135 1.272 . S
O130 Zn120 1.910 . S
O130 C136 1.231 . S
C131 O115 1.225 . S
C131 O137 1.298 . S
C132 O121 1.226 . S
C132 O122 1.307 1_655 S
C133 O125 1.303 . S
C133 O126 1.247 . S
C134 O123 1.253 . S
C134 O124 1.283 . S
C135 O127 1.304 . S
C135 O129 1.272 . S
C136 O128 1.311 . S
C136 O130 1.231 . S
O137 Zn119 1.953 . S
O137 C131 1.298 . S
O138 Zn139 1.953 . S
O138 C154 1.225 . S
Zn139 O138 1.953 . S
Zn139 O140 1.949 . S
Zn139 O146 1.919 . S
Zn139 O151 1.924 . S
O140 Zn139 1.949 . S
O140 Zn141 1.923 . S
O140 Zn142 1.950 . S
O140 Zn143 1.945 . S
Zn141 O140 1.923 . S
Zn141 O144 1.933 . S
Zn141 O147 1.941 . S
Zn141 O148 1.965 1_545 S
Zn142 O140 1.950 . S
Zn142 O149 1.938 . S
Zn142 O150 1.906 . S
Zn142 O160 1.953 . S
Zn143 O140 1.945 . S
Zn143 O145 1.932 . S
Zn143 O152 1.977 . S
Zn143 O153 1.910 . S
O144 Zn141 1.933 . S
O144 C155 1.226 . S
O145 Zn143 1.932 . S
O145 C155 1.307 . S
O146 Zn139 1.919 . S
O146 C157 1.253 . S
O147 Zn141 1.941 . S
O147 C157 1.283 . S
O148 Zn141 1.965 1_565 S
O148 C156 1.303 . S
O149 Zn142 1.938 . S
O149 C156 1.247 1_545 S
O150 Zn142 1.906 . S
O150 C158 1.304 . S
O151 Zn139 1.924 . S
O151 C159 1.311 . S
O152 Zn143 1.977 . S
O152 C158 1.272 . S
O153 Zn143 1.910 . S
O153 C159 1.231 . S
C154 O138 1.225 . S
C154 O160 1.298 . S
C155 O144 1.226 . S
C155 O145 1.307 . S
C156 O148 1.303 . S
C156 O149 1.247 1_565 S
C157 O146 1.253 . S
C157 O147 1.283 . S
C158 O150 1.304 . S
C158 O152 1.272 . S
C159 O151 1.311 . S
C159 O153 1.231 . S
O160 Zn142 1.953 . S
O160 C154 1.298 . S
O161 Zn162 1.953 . S
O161 C177 1.225 . S
Zn162 O161 1.953 . S
Zn162 O163 1.949 . S
Zn162 O169 1.919 . S
Zn162 O174 1.924 . S
O163 Zn162 1.949 . S
O163 Zn164 1.923 . S
O163 Zn165 1.950 . S
O163 Zn166 1.945 . S
Zn164 O163 1.923 . S
Zn164 O167 1.933 . S
Zn164 O170 1.941 . S
Zn164 O171 1.965 1_655 S
Zn165 O163 1.950 . S
Zn165 O172 1.938 1_655 S
Zn165 O173 1.906 . S
Zn165 O183 1.953 . S
Zn166 O163 1.945 . S
Zn166 O168 1.932 . S
Zn166 O175 1.977 . S
Zn166 O176 1.910 . S
O167 Zn164 1.933 . S
O167 C178 1.226 . S
O168 Zn166 1.932 . S
O168 C178 1.307 . S
O169 Zn162 1.919 . S
O169 C180 1.253 . S
O170 Zn164 1.941 . S
O170 C180 1.283 . S
O171 Zn164 1.965 1_455 S
O171 C179 1.303 . S
O172 Zn165 1.938 1_455 S
O172 C179 1.247 . S
O173 Zn165 1.906 . S
O173 C181 1.304 . S
O174 Zn162 1.924 . S
O174 C182 1.311 . S
O175 Zn166 1.977 . S
O175 C181 1.272 . S
O176 Zn166 1.910 . S
O176 C182 1.231 . S
C177 O161 1.225 . S
C177 O183 1.298 . S
C178 O167 1.226 . S
C178 O168 1.307 . S
C179 O171 1.303 . S
C179 O172 1.247 . S
C180 O169 1.253 . S
C180 O170 1.283 . S
C181 O173 1.304 . S
C181 O175 1.272 . S
C182 O174 1.311 . S
C182 O176 1.231 . S
O183 Zn165 1.953 . S
O183 C177 1.298 . S
O184 Zn185 1.953 . S
O184 C200 1.225 . S
Zn185 O184 1.953 . S
Zn185 O186 1.949 . S
Zn185 O192 1.919 . S
Zn185 O197 1.924 . S
O186 Zn185 1.949 . S
O186 Zn187 1.923 . S
O186 Zn188 1.950 . S
O186 Zn189 1.945 . S
Zn187 O186 1.923 . S
Zn187 O190 1.933 . S
Zn187 O193 1.941 . S
Zn187 O194 1.965 . S
Zn188 O186 1.950 . S
Zn188 O195 1.938 . S
Zn188 O196 1.906 . S
Zn188 O206 1.953 . S
Zn189 O186 1.945 . S
Zn189 O191 1.932 . S
Zn189 O198 1.977 . S
Zn189 O199 1.910 . S
O190 Zn187 1.933 . S
O190 C201 1.226 . S
O191 Zn189 1.932 . S
O191 C201 1.307 . S
O192 Zn185 1.919 . S
O192 C203 1.253 . S
O193 Zn187 1.941 . S
O193 C203 1.283 . S
O194 Zn187 1.965 . S
O194 C202 1.303 . S
O195 Zn188 1.938 . S
O195 C202 1.247 . S
O196 Zn188 1.906 . S
O196 C204 1.304 . S
O197 Zn185 1.924 . S
O197 C205 1.311 . S
O198 Zn189 1.977 . S
O198 C204 1.272 . S
O199 Zn189 1.910 . S
O199 C205 1.231 . S
C200 O184 1.225 . S
C200 O206 1.298 . S
C201 O190 1.226 . S
C201 O191 1.307 . S
C202 O194 1.303 . S
C202 O195 1.247 . S
C203 O192 1.253 . S
C203 O193 1.283 . S
C204 O196 1.304 . S
C204 O198 1.272 . S
C205 O197 1.311 . S
C205 O199 1.231 . S
O206 Zn188 1.953 . S
O206 C200 1.298 . S
H207 C213 0.930 . S
H208 C216 0.930 . S
H209 C217 0.930 . S
H210 C218 0.933 . S
H211 C221 0.930 . S
H212 C222 0.930 . S
C213 H207 0.930 . S
C213 C214 1.358 . S
C213 C215 1.415 . S
C214 C213 1.358 . S
C214 C216 1.416 1_554 S
C215 C213 1.415 . S
C215 C220 1.422 1_554 S
C215 C222 1.409 . S
C216 H208 0.930 . S
C216 C214 1.416 1_556 S
C216 C217 1.362 . S
C217 H209 0.930 . S
C217 C216 1.362 . S
C217 C220 1.412 . S
C218 H210 0.933 . S
C218 C219 1.352 1_556 S
C218 C220 1.415 . S
C219 C218 1.352 1_554 S
C219 C221 1.419 . S
C220 C215 1.422 1_556 S
C220 C217 1.412 . S
C220 C218 1.415 . S
C221 H211 0.930 . S
C221 C219 1.419 . S
C221 C222 1.362 . S
C222 H212 0.930 . S
C222 C215 1.409 . S
C222 C221 1.362 . S
H223 C229 0.930 . S
H224 C232 0.930 . S
H225 C233 0.930 . S
H226 C234 0.930 . S
H227 C237 0.930 . S
H228 C238 0.930 . S
C229 H223 0.930 . S
C229 C230 1.343 1_554 S
C229 C231 1.415 . S
C230 C229 1.343 1_556 S
C230 C232 1.436 . S
C231 C229 1.415 . S
C231 C236 1.425 1_554 S
C231 C238 1.409 . S
C232 H224 0.930 . S
C232 C230 1.436 . S
C232 C233 1.362 . S
C233 H225 0.930 . S
C233 C232 1.362 . S
C233 C236 1.409 . S
C234 H226 0.930 . S
C234 C235 1.343 1_556 S
C234 C236 1.415 . S
C235 C234 1.343 1_554 S
C235 C237 1.435 . S
C236 C231 1.425 1_556 S
C236 C233 1.409 . S
C236 C234 1.415 . S
C237 H227 0.930 . S
C237 C235 1.435 . S
C237 C238 1.362 . S
C238 H228 0.930 . S
C238 C231 1.409 . S
C238 C237 1.362 . S
H239 C245 0.930 . S
H240 C248 0.930 . S
H241 C249 0.930 . S
H242 C250 0.930 . S
H243 C253 0.930 . S
H244 C254 0.930 . S
C245 H239 0.930 . S
C245 C246 1.375 . S
C245 C247 1.415 . S
C246 C245 1.375 . S
C246 C248 1.394 1_554 S
C247 C245 1.415 . S
C247 C252 1.425 1_554 S
C247 C254 1.409 . S
C248 H240 0.930 . S
C248 C246 1.394 1_556 S
C248 C249 1.362 . S
C249 H241 0.930 . S
C249 C248 1.362 . S
C249 C252 1.409 . S
C250 H242 0.930 . S
C250 C251 1.355 1_556 S
C250 C252 1.415 . S
C251 C250 1.355 1_554 S
C251 C253 1.419 . S
C252 C247 1.425 1_556 S
C252 C249 1.409 . S
C252 C250 1.415 . S
C253 H243 0.930 . S
C253 C251 1.419 . S
C253 C254 1.362 . S
C254 H244 0.930 . S
C254 C247 1.409 . S
C254 C253 1.362 . S
H255 C261 0.930 . S
H256 C264 0.930 . S
H257 C265 0.930 . S
H258 C266 0.930 . S
H259 C269 0.930 . S
H260 C270 0.930 . S
C261 H255 0.930 . S
C261 C262 1.355 1_556 S
C261 C263 1.417 . S
C262 C261 1.355 1_554 S
C262 C264 1.419 . S
C263 C261 1.417 . S
C263 C268 1.409 1_556 S
C263 C270 1.423 . S
C264 H256 0.930 . S
C264 C262 1.419 . S
C264 C265 1.362 . S
C265 H257 0.930 . S
C265 C264 1.362 . S
C265 C268 1.409 . S
C266 H258 0.930 . S
C266 C267 1.355 . S
C266 C268 1.415 . S
C267 C266 1.355 . S
C267 C269 1.419 1_554 S
C268 C263 1.409 1_554 S
C268 C265 1.409 . S
C268 C266 1.415 . S
C269 H259 0.930 . S
C269 C267 1.419 1_556 S
C269 C270 1.362 . S
C270 H260 0.930 . S
C270 C263 1.423 . S
C270 C269 1.362 . S
H271 C277 0.930 1_556 S
H272 C280 0.930 . S
H273 C281 0.930 . S
H274 C282 0.930 . S
H275 C285 0.930 . S
H276 C286 0.930 . S
C277 H271 0.930 1_554 S
C277 C278 1.355 . S
C277 C279 1.415 . S
C278 C277 1.355 . S
C278 C280 1.419 . S
C279 C277 1.415 . S
C279 C284 1.425 . S
C279 C286 1.409 1_554 S
C280 H272 0.930 . S
C280 C278 1.419 . S
C280 C281 1.362 . S
C281 H273 0.930 . S
C281 C280 1.362 . S
C281 C284 1.409 . S
C282 H274 0.930 . S
C282 C283 1.355 . S
C282 C284 1.415 . S
C283 C282 1.355 . S
C283 C285 1.419 1_554 S
C284 C279 1.425 . S
C284 C281 1.409 . S
C284 C282 1.415 . S
C285 H275 0.930 . S
C285 C283 1.419 1_556 S
C285 C286 1.362 . S
C286 H276 0.930 . S
C286 C279 1.409 1_556 S
C286 C285 1.362 . S
H287 C293 0.930 1_556 S
H288 C296 0.930 . S
H289 C297 0.930 . S
H290 C298 0.930 . S
H291 C301 0.930 . S
H292 C302 0.930 . S
C293 H287 0.930 1_554 S
C293 C294 1.355 . S
C293 C295 1.415 . S
C294 C293 1.355 . S
C294 C296 1.419 . S
C295 C293 1.415 . S
C295 C300 1.425 . S
C295 C302 1.409 1_554 S
C296 H288 0.930 . S
C296 C294 1.419 . S
C296 C297 1.362 . S
C297 H289 0.930 . S
C297 C296 1.362 . S
C297 C300 1.409 . S
C298 H290 0.930 . S
C298 C299 1.355 . S
C298 C300 1.415 . S
C299 C298 1.355 . S
C299 C301 1.419 1_554 S
C300 C295 1.425 . S
C300 C297 1.409 . S
C300 C298 1.415 . S
C301 H291 0.930 . S
C301 C299 1.419 1_556 S
C301 C302 1.362 . S
C302 H292 0.930 . S
C302 C295 1.409 1_556 S
C302 C301 1.362 . S
H303 C309 0.930 . S
H304 C312 0.930 . S
H305 C313 0.930 . S
H306 C314 0.930 . S
H307 C317 0.930 . S
H308 C318 0.930 . S
C309 H303 0.930 . S
C309 C310 1.355 . S
C309 C311 1.415 . S
C310 C309 1.355 . S
C310 C312 1.419 . S
C311 C309 1.415 . S
C311 C316 1.425 . S
C311 C318 1.409 . S
C312 H304 0.930 . S
C312 C310 1.419 . S
C312 C313 1.362 . S
C313 H305 0.930 . S
C313 C312 1.362 . S
C313 C316 1.409 . S
C314 H306 0.930 . S
C314 C315 1.355 . S
C314 C316 1.415 1_455 S
C315 C314 1.355 . S
C315 C317 1.419 . S
C316 C311 1.425 . S
C316 C313 1.409 . S
C316 C314 1.415 1_655 S
C317 H307 0.930 . S
C317 C315 1.419 . S
C317 C318 1.362 1_455 S
C318 H308 0.930 . S
C318 C311 1.409 . S
C318 C317 1.362 1_655 S
H319 C325 0.930 . S
H320 C328 0.930 . S
H321 C329 0.930 . S
H322 C330 0.930 . S
H323 C333 0.930 . S
H324 C334 0.930 . S
C325 H319 0.930 . S
C325 C326 1.355 . S
C325 C327 1.415 . S
C326 C325 1.355 . S
C326 C328 1.419 . S
C327 C325 1.415 . S
C327 C332 1.425 . S
C327 C334 1.409 . S
C328 H320 0.930 . S
C328 C326 1.419 . S
C328 C329 1.362 . S
C329 H321 0.930 . S
C329 C328 1.362 . S
C329 C332 1.409 . S
C330 H322 0.930 . S
C330 C331 1.355 . S
C330 C332 1.415 . S
C331 C330 1.355 . S
C331 C333 1.419 . S
C332 C327 1.425 . S
C332 C329 1.409 . S
C332 C330 1.415 . S
C333 H323 0.930 . S
C333 C331 1.419 . S
C333 C334 1.362 . S
C334 H324 0.930 . S
C334 C327 1.409 . S
C334 C333 1.362 . S
H335 C341 0.930 . S
H336 C344 0.930 1_455 S
H337 C345 0.930 . S
H338 C346 0.930 . S
H339 C349 0.930 1_565 S
H340 C350 0.930 . S
C341 H335 0.930 . S
C341 C342 1.355 . S
C341 C343 1.415 . S
C342 C341 1.355 . S
C342 C344 1.419 . S
C343 C341 1.415 . S
C343 C348 1.425 . S
C343 C350 1.409 . S
C344 H336 0.930 1_655 S
C344 C342 1.419 . S
C344 C345 1.362 . S
C345 H337 0.930 . S
C345 C344 1.362 . S
C345 C348 1.409 . S
C346 H338 0.930 . S
C346 C347 1.355 . S
C346 C348 1.415 . S
C347 C346 1.355 . S
C347 C349 1.419 . S
C348 C343 1.425 . S
C348 C345 1.409 . S
C348 C346 1.415 . S
C349 H339 0.930 1_545 S
C349 C347 1.419 . S
C349 C350 1.362 . S
C350 H340 0.930 . S
C350 C343 1.409 . S
C350 C349 1.362 . S
H351 C357 0.930 . S
H352 C360 0.930 . S
H353 C361 0.930 . S
H354 C362 0.930 . S
H355 C365 0.930 . S
H356 C366 0.930 . S
C357 H351 0.930 . S
C357 C358 1.355 . S
C357 C359 1.415 . S
C358 C357 1.355 . S
C358 C360 1.419 . S
C359 C357 1.415 . S
C359 C364 1.425 . S
C359 C366 1.409 . S
C360 H352 0.930 . S
C360 C358 1.419 . S
C360 C361 1.362 . S
C361 H353 0.930 . S
C361 C360 1.362 . S
C361 C364 1.409 . S
C362 H354 0.930 . S
C362 C363 1.355 . S
C362 C364 1.415 . S
C363 C362 1.355 . S
C363 C365 1.419 . S
C364 C359 1.425 . S
C364 C361 1.409 . S
C364 C362 1.415 . S
C365 H355 0.930 . S
C365 C363 1.419 . S
C365 C366 1.362 . S
C366 H356 0.930 . S
C366 C359 1.409 . S
C366 C365 1.362 . S
H367 C373 0.930 . S
H368 C376 0.930 . S
H369 C377 0.930 . S
H370 C378 0.930 . S
H371 C381 0.930 . S
H372 C382 0.930 . S
C373 H367 0.930 . S
C373 C374 1.355 . S
C373 C375 1.415 . S
C374 C373 1.355 . S
C374 C376 1.419 . S
C375 C373 1.415 . S
C375 C380 1.425 . S
C375 C382 1.409 . S
C376 H368 0.930 . S
C376 C374 1.419 . S
C376 C377 1.362 . S
C377 H369 0.930 . S
C377 C376 1.362 . S
C377 C380 1.409 . S
C378 H370 0.930 . S
C378 C379 1.355 . S
C378 C380 1.415 . S
C379 C378 1.355 . S
C379 C381 1.419 . S
C380 C375 1.425 . S
C380 C377 1.409 . S
C380 C378 1.415 . S
C381 H371 0.930 . S
C381 C379 1.419 . S
C381 C382 1.362 . S
C382 H372 0.930 . S
C382 C375 1.409 . S
C382 C381 1.362 . S
H383 C389 0.930 . S
H384 C392 0.930 . S
H385 C393 0.930 1_545 S
H386 C394 0.930 . S
H387 C397 0.930 . S
H388 C398 0.930 . S
C389 H383 0.930 . S
C389 C390 1.355 . S
C389 C391 1.415 . S
C390 C389 1.355 . S
C390 C392 1.419 1_565 S
C391 C389 1.415 . S
C391 C396 1.425 . S
C391 C398 1.409 . S
C392 H384 0.930 . S
C392 C390 1.419 1_545 S
C392 C393 1.362 1_545 S
C393 H385 0.930 1_565 S
C393 C392 1.362 1_565 S
C393 C396 1.409 . S
C394 H386 0.930 . S
C394 C395 1.355 . S
C394 C396 1.415 . S
C395 C394 1.355 . S
C395 C397 1.419 . S
C396 C391 1.425 . S
C396 C393 1.409 . S
C396 C394 1.415 . S
C397 H387 0.930 . S
C397 C395 1.419 . S
C397 C398 1.362 . S
C398 H388 0.930 . S
C398 C391 1.409 . S
C398 C397 1.362 . S
H399 C405 0.930 . S
H400 C408 0.930 . S
H401 C409 0.930 . S
H402 C410 0.930 . S
H403 C413 0.930 . S
H404 C414 0.930 . S
C405 H399 0.930 . S
C405 C406 1.355 . S
C405 C407 1.415 . S
C406 C405 1.355 . S
C406 C408 1.419 . S
C407 C405 1.415 . S
C407 C412 1.425 . S
C407 C414 1.409 . S
C408 H400 0.930 . S
C408 C406 1.419 . S
C408 C409 1.362 . S
C409 H401 0.930 . S
C409 C408 1.362 . S
C409 C412 1.409 . S
C410 H402 0.930 . S
C410 C411 1.355 . S
C410 C412 1.415 . S
C411 C410 1.355 . S
C411 C413 1.419 . S
C412 C407 1.425 . S
C412 C409 1.409 . S
C412 C410 1.415 . S
C413 H403 0.930 . S
C413 C411 1.419 . S
C413 C414 1.362 . S
C414 H404 0.930 . S
C414 C407 1.409 . S
C414 C413 1.362 . S
H415 C421 0.930 1_455 S
H416 C424 0.930 . S
H417 C425 0.930 . S
H418 C426 0.930 . S
H419 C429 0.930 . S
H420 C430 0.930 . S
C421 H415 0.930 1_655 S
C421 C422 1.355 . S
C421 C423 1.415 . S
C422 C421 1.355 . S
C422 C424 1.419 . S
C423 C421 1.415 . S
C423 C428 1.425 . S
C423 C430 1.409 . S
C424 H416 0.930 . S
C424 C422 1.419 . S
C424 C425 1.362 . S
C425 H417 0.930 . S
C425 C424 1.362 . S
C425 C428 1.409 . S
C426 H418 0.930 . S
C426 C427 1.355 . S
C426 C428 1.415 . S
C427 C426 1.355 . S
C427 C429 1.419 . S
C428 C423 1.425 . S
C428 C425 1.409 . S
C428 C426 1.415 . S
C429 H419 0.930 . S
C429 C427 1.419 . S
C429 C430 1.362 . S
C430 H420 0.930 . S
C430 C423 1.409 . S
C430 C429 1.362 . S
H431 C437 0.930 . S
H432 C440 0.930 . S
H433 C441 0.930 . S
H434 C442 0.930 . S
H435 C445 0.930 . S
H436 C446 0.930 . S
C437 H431 0.930 . S
C437 C438 1.355 . S
C437 C439 1.415 . S
C438 C437 1.355 . S
C438 C440 1.419 . S
C439 C437 1.415 . S
C439 C444 1.425 . S
C439 C446 1.409 . S
C440 H432 0.930 . S
C440 C438 1.419 . S
C440 C441 1.362 . S
C441 H433 0.930 . S
C441 C440 1.362 . S
C441 C444 1.409 . S
C442 H434 0.930 . S
C442 C443 1.355 . S
C442 C444 1.415 . S
C443 C442 1.355 . S
C443 C445 1.419 . S
C444 C439 1.425 . S
C444 C441 1.409 . S
C444 C442 1.415 . S
C445 H435 0.930 . S
C445 C443 1.419 . S
C445 C446 1.362 . S
C446 H436 0.930 . S
C446 C439 1.409 . S
C446 C445 1.362 . S
H447 C453 0.930 . S
H448 C456 0.930 . S
H449 C457 0.930 . S
H450 C458 0.930 . S
H451 C461 0.930 . S
H452 C462 0.930 . S
C453 H447 0.930 . S
C453 C454 1.355 . S
C453 C455 1.415 . S
C454 C453 1.355 . S
C454 C456 1.419 . S
C455 C453 1.415 . S
C455 C460 1.425 . S
C455 C462 1.409 . S
C456 H448 0.930 . S
C456 C454 1.419 . S
C456 C457 1.362 . S
C457 H449 0.930 . S
C457 C456 1.362 . S
C457 C460 1.409 . S
C458 H450 0.930 . S
C458 C459 1.355 . S
C458 C460 1.415 1_545 S
C459 C458 1.355 . S
C459 C461 1.419 . S
C460 C455 1.425 . S
C460 C457 1.409 . S
C460 C458 1.415 1_565 S
C461 H451 0.930 . S
C461 C459 1.419 . S
C461 C462 1.362 1_545 S
C462 H452 0.930 . S
C462 C455 1.409 . S
C462 C461 1.362 1_565 S
H463 C469 0.930 1_655 S
H464 C472 0.930 . S
H465 C473 0.930 . S
H466 C474 0.930 . S
H467 C477 0.930 . S
H468 C478 0.930 . S
C469 H463 0.930 1_455 S
C469 C470 1.355 1_455 S
C469 C471 1.415 . S
C470 C469 1.355 1_655 S
C470 C472 1.419 . S
C471 C469 1.415 . S
C471 C476 1.425 . S
C471 C478 1.409 . S
C472 H464 0.930 . S
C472 C470 1.419 . S
C472 C473 1.362 1_655 S
C473 H465 0.930 . S
C473 C472 1.362 1_455 S
C473 C476 1.409 . S
C474 H466 0.930 . S
C474 C475 1.355 . S
C474 C476 1.415 . S
C475 C474 1.355 . S
C475 C477 1.419 . S
C476 C471 1.425 . S
C476 C473 1.409 . S
C476 C474 1.415 . S
C477 H467 0.930 . S
C477 C475 1.419 . S
C477 C478 1.362 . S
C478 H468 0.930 . S
C478 C471 1.409 . S
C478 C477 1.362 . S
H479 C485 0.930 . S
H480 C488 0.930 . S
H481 C489 0.930 . S
H482 C490 0.930 . S
H483 C493 0.930 . S
H484 C494 0.930 . S
C485 H479 0.930 . S
C485 C486 1.355 . S
C485 C487 1.415 . S
C486 C485 1.355 . S
C486 C488 1.419 . S
C487 C485 1.415 . S
C487 C492 1.425 . S
C487 C494 1.409 . S
C488 H480 0.930 . S
C488 C486 1.419 . S
C488 C489 1.362 . S
C489 H481 0.930 . S
C489 C488 1.362 . S
C489 C492 1.409 . S
C490 H482 0.930 . S
C490 C491 1.355 . S
C490 C492 1.415 . S
C491 C490 1.355 . S
C491 C493 1.419 . S
C492 C487 1.425 . S
C492 C489 1.409 . S
C492 C490 1.415 . S
C493 H483 0.930 . S
C493 C491 1.419 . S
C493 C494 1.362 . S
C494 H484 0.930 . S
C494 C487 1.409 . S
C494 C493 1.362 . S
H495 C501 0.930 . S
H496 C504 0.930 1_655 S
H497 C505 0.915 1_655 S
H498 C506 0.930 1_655 S
H499 C509 0.930 . S
H500 C510 0.930 . S
C501 H495 0.930 . S
C501 C502 1.355 . S
C501 C503 1.415 . S
C502 C501 1.355 . S
C502 C504 1.419 . S
C503 C501 1.415 . S
C503 C508 1.425 . S
C503 C510 1.409 . S
C504 H496 0.930 1_455 S
C504 C502 1.419 . S
C504 C505 1.372 . S
C505 H497 0.915 1_455 S
C505 C504 1.372 . S
C505 C508 1.415 . S
C506 H498 0.930 1_455 S
C506 C507 1.355 . S
C506 C508 1.415 . S
C507 C506 1.355 . S
C507 C509 1.419 . S
C508 C503 1.425 . S
C508 C505 1.415 . S
C508 C506 1.415 . S
C509 H499 0.930 . S
C509 C507 1.419 . S
C509 C510 1.362 . S
C510 H500 0.930 . S
C510 C503 1.409 . S
C510 C509 1.362 . S
H511 C517 0.930 . S
H512 C520 0.930 . S
H513 C521 0.930 . S
H514 C522 0.930 . S
H515 C525 0.930 . S
H516 C526 0.930 . S
C517 H511 0.930 . S
C517 C518 1.355 . S
C517 C519 1.415 . S
C518 C517 1.355 . S
C518 C520 1.419 . S
C519 C517 1.415 . S
C519 C524 1.425 . S
C519 C526 1.409 . S
C520 H512 0.930 . S
C520 C518 1.419 . S
C520 C521 1.362 . S
C521 H513 0.930 . S
C521 C520 1.362 . S
C521 C524 1.409 . S
C522 H514 0.930 . S
C522 C523 1.355 . S
C522 C524 1.415 . S
C523 C522 1.355 . S
C523 C525 1.419 . S
C524 C519 1.425 . S
C524 C521 1.409 . S
C524 C522 1.415 . S
C525 H515 0.930 . S
C525 C523 1.419 . S
C525 C526 1.362 . S
C526 H516 0.930 . S
C526 C519 1.409 . S
C526 C525 1.362 . S
H527 C533 0.930 . S
H528 C536 0.930 . S
H529 C537 0.931 . S
H530 C538 0.930 . S
H531 C541 0.930 . S
H532 C542 0.930 . S
C533 H527 0.930 . S
C533 C534 1.355 . S
C533 C535 1.412 . S
C534 C533 1.355 . S
C534 C536 1.419 . S
C535 C533 1.412 . S
C535 C540 1.435 1_545 S
C535 C542 1.403 1_545 S
C536 H528 0.930 . S
C536 C534 1.419 . S
C536 C537 1.362 . S
C537 H529 0.931 . S
C537 C536 1.362 . S
C537 C540 1.409 1_545 S
C538 H530 0.930 . S
C538 C539 1.355 . S
C538 C540 1.415 . S
C539 C538 1.355 . S
C539 C541 1.419 . S
C540 C535 1.435 1_565 S
C540 C537 1.409 1_565 S
C540 C538 1.415 . S
C541 H531 0.930 . S
C541 C539 1.419 . S
C541 C542 1.362 . S
C542 H532 0.930 . S
C542 C535 1.403 1_565 S
C542 C541 1.362 . S
H543 C549 0.930 . S
H544 C552 0.930 . S
H545 C553 0.930 . S
H546 C554 0.930 . S
H547 C557 0.930 . S
H548 C558 0.930 . S
C549 H543 0.930 . S
C549 C550 1.355 . S
C549 C551 1.415 . S
C550 C549 1.355 . S
C550 C552 1.419 . S
C551 C549 1.415 . S
C551 C556 1.425 . S
C551 C558 1.409 . S
C552 H544 0.930 . S
C552 C550 1.419 . S
C552 C553 1.362 . S
C553 H545 0.930 . S
C553 C552 1.362 . S
C553 C556 1.409 . S
C554 H546 0.930 . S
C554 C555 1.355 . S
C554 C556 1.415 . S
C555 C554 1.355 . S
C555 C557 1.419 . S
C556 C551 1.425 . S
C556 C553 1.409 . S
C556 C554 1.415 . S
C557 H547 0.930 . S
C557 C555 1.419 . S
C557 C558 1.362 . S
C558 H548 0.930 . S
C558 C551 1.409 . S
C558 C557 1.362 . S
H559 C565 0.930 . S
H560 C568 0.930 . S
H561 C569 0.930 . S
H562 C570 0.930 1_455 S
H563 C573 0.930 . S
H564 C574 0.930 . S
C565 H559 0.930 . S
C565 C566 1.354 1_655 S
C565 C567 1.415 . S
C566 C565 1.354 1_455 S
C566 C568 1.420 . S
C567 C565 1.415 . S
C567 C572 1.425 . S
C567 C574 1.409 . S
C568 H560 0.930 . S
C568 C566 1.420 . S
C568 C569 1.362 . S
C569 H561 0.930 . S
C569 C568 1.362 . S
C569 C572 1.409 1_455 S
C570 H562 0.930 1_655 S
C570 C571 1.355 . S
C570 C572 1.415 . S
C571 C570 1.355 . S
C571 C573 1.419 . S
C572 C567 1.425 . S
C572 C569 1.409 1_655 S
C572 C570 1.415 . S
C573 H563 0.930 . S
C573 C571 1.419 . S
C573 C574 1.362 . S
C574 H564 0.930 . S
C574 C567 1.409 . S
C574 C573 1.362 . S
H575 C581 0.930 . S
H576 C584 0.930 . S
H577 C585 0.930 . S
H578 C586 0.930 . S
H579 C589 0.930 . S
H580 C590 0.930 . S
C581 H575 0.930 . S
C581 C582 1.355 . S
C581 C583 1.415 . S
C582 C581 1.355 . S
C582 C584 1.419 . S
C583 C581 1.415 . S
C583 C588 1.425 . S
C583 C590 1.409 . S
C584 H576 0.930 . S
C584 C582 1.419 . S
C584 C585 1.362 . S
C585 H577 0.930 . S
C585 C584 1.362 . S
C585 C588 1.409 . S
C586 H578 0.930 . S
C586 C587 1.355 . S
C586 C588 1.415 . S
C587 C586 1.355 . S
C587 C589 1.419 . S
C588 C583 1.425 . S
C588 C585 1.409 . S
C588 C586 1.415 . S
C589 H579 0.930 . S
C589 C587 1.419 . S
C589 C590 1.362 . S
C590 H580 0.930 . S
C590 C583 1.409 . S
C590 C589 1.362 . S
H591 C597 0.930 . S
H592 C600 0.930 . S
H593 C601 0.930 . S
H594 C602 0.930 . S
H595 C605 0.930 . S
H596 C606 0.930 . S
C597 H591 0.930 . S
C597 C598 1.355 . S
C597 C599 1.415 . S
C598 C597 1.355 . S
C598 C600 1.419 . S
C599 C597 1.415 . S
C599 C604 1.425 . S
C599 C606 1.409 . S
C600 H592 0.930 . S
C600 C598 1.419 . S
C600 C601 1.362 . S
C601 H593 0.930 . S
C601 C600 1.362 . S
C601 C604 1.409 . S
C602 H594 0.930 . S
C602 C603 1.355 . S
C602 C604 1.415 . S
C603 C602 1.355 . S
C603 C605 1.419 . S
C604 C599 1.425 . S
C604 C601 1.409 . S
C604 C602 1.415 . S
C605 H595 0.930 . S
C605 C603 1.419 . S
C605 C606 1.362 . S
C606 H596 0.930 . S
C606 C599 1.409 . S
C606 C605 1.362 . S
H607 C613 0.930 . S
H608 C616 0.930 . S
H609 C617 0.930 . S
H610 C618 0.930 . S
H611 C621 0.930 . S
H612 C622 0.945 . S
C613 H607 0.930 . S
C613 C614 1.355 . S
C613 C615 1.415 1_565 S
C614 C613 1.355 . S
C614 C616 1.419 1_565 S
C615 C613 1.415 1_545 S
C615 C620 1.425 . S
C615 C622 1.409 . S
C616 H608 0.930 . S
C616 C614 1.419 1_545 S
C616 C617 1.362 . S
C617 H609 0.930 . S
C617 C616 1.362 . S
C617 C620 1.409 . S
C618 H610 0.930 . S
C618 C619 1.355 . S
C618 C620 1.415 . S
C619 C618 1.355 . S
C619 C621 1.419 . S
C620 C615 1.425 . S
C620 C617 1.409 . S
C620 C618 1.415 . S
C621 H611 0.930 . S
C621 C619 1.419 . S
C621 C622 1.362 . S
C622 H612 0.945 . S
C622 C615 1.409 . S
C622 C621 1.362 . S
H623 C629 0.930 . S
H624 C632 0.930 . S
H625 C633 0.930 . S
H626 C634 0.930 . S
H627 C637 0.930 . S
H628 C638 0.930 . S
C629 H623 0.930 . S
C629 C630 1.355 . S
C629 C631 1.415 . S
C630 C629 1.355 . S
C630 C632 1.419 1_655 S
C631 C629 1.415 . S
C631 C636 1.425 1_655 S
C631 C638 1.409 . S
C632 H624 0.930 . S
C632 C630 1.419 1_455 S
C632 C633 1.362 . S
C633 H625 0.930 . S
C633 C632 1.362 . S
C633 C636 1.409 . S
C634 H626 0.930 . S
C634 C635 1.355 . S
C634 C636 1.415 . S
C635 C634 1.355 . S
C635 C637 1.419 1_455 S
C636 C631 1.425 1_455 S
C636 C633 1.409 . S
C636 C634 1.415 . S
C637 H627 0.930 . S
C637 C635 1.419 1_655 S
C637 C638 1.362 . S
C638 H628 0.930 . S
C638 C631 1.409 . S
C638 C637 1.362 . S
C214 C44 1.170 . S
C219 C17 1.172 . S
C230 C62 1.416 1_556 S
C235 C40 1.343 1_554 S
C246 C64 1.157 1_554 S
C251 C21 1.220 . S
C262 C63 1.201 . S
C267 C39 1.241 . S
C278 C67 0.796 . S
C283 C18 0.870 . S
C294 C16 1.242 . S
C299 C41 1.240 . S
C310 C86 1.178 . S
C315 C113 1.289 . S
C326 C136 1.383 . S
C331 C109 1.369 . S
C342 C132 1.011 . S
C347 C90 1.133 1_545 S
C358 C108 1.155 . S
C363 C133 1.124 . S
C374 C131 0.923 . S
C379 C87 0.934 . S
C390 C110 1.032 . S
C395 C85 1.039 . S
C406 C182 1.046 . S
C411 C155 1.079 . S
C422 C178 1.322 . S
C427 C200 1.440 . S
C438 C202 1.033 . S
C443 C159 1.088 . S
C454 C201 1.048 . S
C459 C177 1.094 . S
C470 C205 0.908 . S
C475 C156 0.866 . S
C486 C154 1.104 . S
C491 C179 1.077 . S
C502 C134 1.568 . S
C507 C20 1.629 . S
C518 C88 1.725 . S
C523 C43 1.844 . S
C534 C65 1.622 . S
C539 C111 1.595 . S
C550 C66 1.579 . S
C555 C158 1.576 . S
C566 C19 1.664 1_455 S
C571 C181 1.730 . S
C582 C203 1.787 . S
C587 C42 1.756 . S
C598 C89 1.713 . S
C603 C204 1.711 . S
C614 C112 1.611 . S
C619 C157 1.559 . S
C630 C180 1.666 . S
C635 C135 1.786 . S
