# Generated by pormake.
# Topology snp, (6)-cn, num edge types: 1
# Building blocks:
#     Node 0, Type 0, BuildingBlock: BETDAH_clean_sbu_0, # of connection points: 6
#     Node 1, Type 0, BuildingBlock: BETDAH_clean_sbu_0, # of connection points: 6
#     Node 2, Type 0, BuildingBlock: BETDAH_clean_sbu_0, # of connection points: 6
#     Node 3, Type 0, BuildingBlock: BETDAH_clean_sbu_0, # of connection points: 6
#     Edge 4, Type (0, 0), BuildingBlock: MIFKUJ_clean_linker_0, # of connection points: 2
#     Edge 5, Type (0, 0), BuildingBlock: MIFKUJ_clean_linker_0, # of connection points: 2
#     Edge 6, Type (0, 0), BuildingBlock: MIFKUJ_clean_linker_0, # of connection points: 2
#     Edge 7, Type (0, 0), BuildingBlock: MIFKUJ_clean_linker_0, # of connection points: 2
#     Edge 8, Type (0, 0), BuildingBlock: MIFKUJ_clean_linker_0, # of connection points: 2
#     Edge 9, Type (0, 0), BuildingBlock: MIFKUJ_clean_linker_0, # of connection points: 2
#     Edge 10, Type (0, 0), BuildingBlock: MIFKUJ_clean_linker_0, # of connection points: 2
#     Edge 11, Type (0, 0), BuildingBlock: MIFKUJ_clean_linker_0, # of connection points: 2
#     Edge 12, Type (0, 0), BuildingBlock: MIFKUJ_clean_linker_0, # of connection points: 2
#     Edge 13, Type (0, 0), BuildingBlock: MIFKUJ_clean_linker_0, # of connection points: 2
#     Edge 14, Type (0, 0), BuildingBlock: MIFKUJ_clean_linker_0, # of connection points: 2
#     Edge 15, Type (0, 0), BuildingBlock: MIFKUJ_clean_linker_0, # of connection points: 2
# Relax obj value: 0.531
# Max RMSD: 0.174
# Mean RMSD: 0.174
data_MOF--net-snp--node1-BETDAH_clean_sbu_0--edge1-MIFKUJ_clean_linker_0
_symmetry_space_group_name_H-M    P1
_symmetry_Int_Tables_number       1
_symmetry_cell_setting            triclinic
loop_
_symmetry_equiv_pos_as_xyz
'x, y, z'
_cell_length_a     31.900976
_cell_length_b     31.82535
_cell_length_c     37.649051
_cell_angle_alpha  88.96189
_cell_angle_beta   89.537006
_cell_angle_gamma 89.111343
loop_
_atom_site_label
_atom_site_type_symbol
_atom_site_fract_x
_atom_site_fract_y
_atom_site_fract_z
_atom_type_partial_charge
Ho0 Ho 0.24454 0.97371 0.13663 0.0
Ho1 Ho 0.22708 0.0616 1.11169 0.0
C2 C 0.21185 0.04376 0.1952 0.0
C3 C 0.27999 0.905 0.15978 0.0
C4 C 0.30879 0.8881 0.18681 0.0
C5 C 0.31092 0.90541 0.22068 0.0
C6 C 0.33638 0.88641 0.24659 0.0
C7 C 0.36021 0.84995 0.23895 0.0
C8 C 0.35916 0.83386 0.20448 0.0
C9 C 0.33363 0.85281 0.17866 0.0
C10 C 0.16463 0.98579 1.11563 0.0
C11 C 0.22858 0.98849 1.05059 0.0
C12 C 0.2042 0.13452 1.08668 0.0
C13 C 0.22491 0.17317 1.07409 0.0
C14 C 0.24904 0.17381 1.04281 0.0
C15 C 0.26545 0.21145 1.0298 0.0
C16 C 0.25847 0.24932 1.04793 0.0
C17 C 0.23615 0.24811 1.08028 0.0
C18 C 0.2193 0.21045 1.09307 0.0
C19 C 0.31001 0.04619 0.12836 0.0
O20 O 0.23674 0.00993 0.19016 0.0
O21 O 0.19773 0.06458 0.16683 0.0
O22 O 0.24298 0.91815 0.17046 0.0
O23 O 0.29647 0.92942 0.13535 0.0
O24 O 0.18409 0.94969 1.11559 0.0
O25 O 0.18703 0.01148 0.13187 0.0
O26 O 0.22036 0.02833 1.05858 0.0
O27 O 0.2414 0.9615 1.07609 0.0
O28 O 0.20759 0.12586 0.12052 0.0
O29 O 0.20808 0.10112 1.0671 0.0
O30 O 0.28988 0.0811 0.13323 0.0
O31 O 0.28563 0.02197 1.11269 0.0
H32 H 0.2921 0.93281 0.22737 0.0
H33 H 0.33596 0.89928 0.27302 0.0
H34 H 0.37743 0.80616 0.19767 0.0
H35 H 0.33255 0.83929 0.15247 0.0
H36 H 0.25405 0.14558 1.0276 0.0
H37 H 0.28157 0.21102 1.0044 0.0
H38 H 0.23053 0.27648 1.09515 0.0
H39 H 0.201 0.21067 1.11744 0.0
Ho40 Ho 0.07161 0.23044 0.62657 0.0
Ho41 Ho 0.99035 0.25634 0.60252 0.0
C42 C 0.99663 0.23535 0.68684 0.0
C43 C 0.14498 0.22726 0.65532 0.0
C44 C 0.16396 0.24931 0.68477 0.0
C45 C 0.14026 0.27868 0.70402 0.0
C46 C 0.15905 0.30194 0.73041 0.0
C47 C 0.20194 0.2964 0.7378 0.0
C48 C 0.22559 0.26696 0.71829 0.0
C49 C 0.20669 0.24363 0.6919 0.0
C50 C 0.01809 0.16701 0.61096 0.0
C51 C 0.06279 0.22246 0.54251 0.0
C52 C 0.9184 0.26787 0.572 0.0
C53 C 0.87588 0.2505 0.56939 0.0
C54 C 0.86635 0.22505 0.54063 0.0
C55 C 0.82506 0.21452 0.53377 0.0
C56 C 0.792 0.22971 0.55521 0.0
C57 C 0.80165 0.25346 0.5851 0.0
C58 C 0.84325 0.26378 0.59214 0.0
C59 C 0.03579 0.32392 0.62199 0.0
O60 O 0.03739 0.2413 0.68053 0.0
O61 O 0.97151 0.23322 0.65875 0.0
O62 O 0.11525 0.20091 0.66356 0.0
O63 O 0.13533 0.25155 0.62823 0.0
O64 O 0.05741 0.16689 0.60162 0.0
O65 O 0.01127 0.19933 0.62792 0.0
O66 O 0.02296 0.23411 0.54937 0.0
O67 O 0.08972 0.2215 0.56895 0.0
O68 O 0.94929 0.246 0.55836 0.0
O69 O 0.92873 0.28592 0.60142 0.0
O70 O 0.99674 0.31795 0.62867 0.0
O71 O 0.04996 0.29308 0.60415 0.0
H72 H 0.10731 0.28385 0.69845 0.0
H73 H 0.13979 0.32371 0.74545 0.0
H74 H 0.25872 0.26216 0.7233 0.0
H75 H 0.22549 0.2215 0.67682 0.0
H76 H 0.89058 0.21503 0.52217 0.0
H77 H 0.81899 0.19689 0.51008 0.0
H78 H 0.77694 0.26542 0.60221 0.0
H79 H 0.84955 0.28379 0.61437 0.0
Ho80 Ho 0.82955 0.10899 0.13533 0.0
Ho81 Ho 0.85302 0.02361 1.10924 0.0
C82 C 0.86689 0.03771 0.19302 0.0
C83 C 0.7874 0.17005 0.16346 0.0
C84 C 0.76207 0.17597 0.19588 0.0
C85 C 0.72157 0.19352 0.19322 0.0
C86 C 0.69673 0.19887 0.22362 0.0
C87 C 0.71205 0.18676 0.25725 0.0
C88 C 0.75275 0.16923 0.25971 0.0
C89 C 0.77739 0.16364 0.22936 0.0
C90 C 0.90966 0.10395 1.11367 0.0
C91 C 0.84759 0.10076 1.04937 0.0
C92 C 0.88148 0.95483 1.08168 0.0
C93 C 0.86503 0.91561 1.06715 0.0
C94 C 0.85024 0.91433 1.03219 0.0
C95 C 0.83928 0.87616 1.01744 0.0
C96 C 0.84243 0.83842 1.03743 0.0
C97 C 0.85532 0.8401 1.07297 0.0
C98 C 0.86681 0.87823 1.08757 0.0
C99 C 0.76907 0.03318 0.12564 0.0
O100 O 0.84141 0.07123 0.18839 0.0
O101 O 0.881 0.01792 0.16453 0.0
O102 O 0.82787 0.16459 0.16744 0.0
O103 O 0.77175 0.14476 0.14024 0.0
O104 O 0.88778 0.13874 1.11434 0.0
O105 O 0.88938 0.07532 0.12972 0.0
O106 O 0.85854 0.06116 1.05703 0.0
O107 O 0.83212 0.12544 1.07498 0.0
O108 O 0.8765 0.95999 1.11575 0.0
O109 O 0.87539 0.98965 1.06336 0.0
O110 O 0.79089 0.99904 0.13016 0.0
O111 O 0.79248 0.05963 1.11041 0.0
H112 H 0.70906 0.20292 0.16756 0.0
H113 H 0.66543 0.21204 0.22069 0.0
H114 H 0.76597 0.16034 0.28521 0.0
H115 H 0.80844 0.14978 0.23218 0.0
H116 H 0.84851 0.94255 1.01574 0.0
H117 H 0.83037 0.87612 0.98976 0.0
H118 H 0.85771 0.81176 1.08924 0.0
H119 H 0.87817 0.87825 1.11461 0.0
Ho120 Ho 0.01875 0.84017 0.62599 0.0
Ho121 Ho 0.10355 0.86203 0.60381 0.0
C122 C 0.08565 0.86771 0.68825 0.0
C123 C 0.95512 0.79713 0.64793 0.0
C124 C 0.94441 0.76756 0.67667 0.0
C125 C 0.9062 0.74657 0.67558 0.0
C126 C 0.89429 0.71991 0.7036 0.0
C127 C 0.92048 0.71393 0.73317 0.0
C128 C 0.95968 0.7337 0.73334 0.0
C129 C 0.9716 0.76025 0.70522 0.0
C130 C 0.02385 0.92196 0.61085 0.0
C131 C 0.02926 0.868 0.54249 0.0
C132 C 0.17528 0.88616 0.57892 0.0
C133 C 0.21435 0.86404 0.56929 0.0
C134 C 0.21352 0.82376 0.55482 0.0
C135 C 0.25068 0.80401 0.54395 0.0
C136 C 0.28945 0.82398 0.54769 0.0
C137 C 0.29023 0.86329 0.56421 0.0
C138 C 0.25293 0.8832 0.57477 0.0
C139 C 0.09246 0.77727 0.61545 0.0
O140 O 0.05145 0.84565 0.68103 0.0
O141 O 0.10841 0.8825 0.66132 0.0
O142 O 0.96153 0.83599 0.65697 0.0
O143 O 0.98272 0.7834 0.62495 0.0
O144 O 0.99025 0.90012 0.60699 0.0
O145 O 0.05263 0.90076 0.62611 0.0
O146 O 0.06817 0.87742 0.55185 0.0
O147 O 0.00429 0.8492 0.56629 0.0
O148 O 0.16586 0.88558 0.61263 0.0
O149 O 0.14282 0.87943 0.55901 0.0
O150 O 0.1255 0.79747 0.62392 0.0
O151 O 0.06805 0.80277 0.5999 0.0
H152 H 0.88515 0.75155 0.6534 0.0
H153 H 0.8641 0.70489 0.70261 0.0
H154 H 0.98029 0.73031 0.75596 0.0
H155 H 1.00144 0.77597 0.70622 0.0
H156 H 0.18405 0.80806 0.55095 0.0
H157 H 0.24863 0.77408 0.5309 0.0
H158 H 0.31954 0.87927 0.56795 0.0
H159 H 0.25415 0.91397 0.58655 0.0
H160 H 0.95101 0.03092 1.09763 0.0
H161 H 0.98983 0.01622 1.04341 0.0
H162 H 0.96553 0.14306 1.00534 0.0
H163 H 0.93143 0.15912 1.06122 0.0
H164 H 0.03422 0.1325 0.98606 0.0
H165 H 1.0022 0.95122 1.00659 0.0
H166 H 0.94334 0.90376 0.99638 0.0
H167 H 0.89013 0.99284 0.92175 0.0
H168 H 0.94914 0.04065 0.93162 0.0
H169 H 0.13908 0.93658 1.0619 0.0
H170 H 0.11427 0.96062 1.0044 0.0
H171 H 0.10294 0.08709 1.04476 0.0
H172 H 0.13172 0.06326 1.10061 0.0
H173 H 0.06168 0.98129 0.96883 0.0
H174 H 0.15031 0.07583 0.93742 0.0
H175 H 0.21038 0.12334 0.93199 0.0
H176 H 0.15243 0.20667 1.0068 0.0
H177 H 0.09271 0.15919 1.01343 0.0
C178 C 0.9547 0.05575 1.07782 0.0
C179 C 0.93836 0.09606 1.08368 0.0
C180 C 0.97546 0.04699 1.046 0.0
C181 C 0.97909 0.07796 1.01883 0.0
C182 C 0.96303 0.11838 1.0252 0.0
C183 C 0.94391 0.12764 1.05755 0.0
C184 C 0.00739 0.07041 0.98795 0.0
C185 C 0.03986 0.09929 0.98242 0.0
C186 C 0.0143 0.02901 0.97591 0.0
C187 C 0.97923 1.00002 0.97045 0.0
C188 C 0.97787 0.96071 0.98807 0.0
C189 C 0.94459 0.93368 0.98231 0.0
C190 C 0.91299 0.94524 0.9584 0.0
C191 C 0.91444 0.98402 0.94047 0.0
C192 C 0.94749 0.01128 0.94643 0.0
C193 C 0.13092 0.96955 1.05836 0.0
C194 C 0.138 0.99831 1.08545 0.0
C195 C 0.11716 0.98353 1.02508 0.0
C196 C 0.10828 0.02642 1.01849 0.0
C197 C 0.11206 0.05438 1.04709 0.0
C198 C 0.12708 0.04056 1.07996 0.0
C199 C 0.08781 0.04053 0.98457 0.0
C200 C 0.05576 0.01443 0.97301 0.0
C201 C 0.08117 0.08416 0.97887 0.0
C202 C 0.11706 0.11339 0.97603 0.0
C203 C 0.15077 0.10381 0.95322 0.0
C204 C 0.18465 0.13095 0.94977 0.0
C205 C 0.18514 0.16808 0.96895 0.0
C206 C 0.15186 0.17801 0.99176 0.0
C207 C 0.11786 0.15098 0.99525 0.0
H208 H 0.2113 0.18916 0.96609 0.0
H209 H 0.88744 0.92411 0.9537 0.0
H210 H 0.05315 0.95147 0.54632 0.0
H211 H 0.99648 0.98387 0.51244 0.0
H212 H 0.94832 0.0372 0.60981 0.0
H213 H 0.9967 0.99276 0.64342 0.0
H214 H 0.88481 0.01104 0.58248 0.0
H215 H 0.00976 0.07397 0.51253 0.0
H216 H 0.06101 0.08171 0.46426 0.0
H217 H 0.97312 0.03286 0.39036 0.0
H218 H 0.92092 0.02517 0.43872 0.0
H219 H 0.01608 0.14972 0.54062 0.0
H220 H 0.95477 0.13726 0.50564 0.0
H221 H 0.87921 0.13207 0.60161 0.0
H222 H 0.94011 0.1519 0.63539 0.0
H223 H 0.89892 0.10265 0.47762 0.0
H224 H 0.78929 0.0958 0.53147 0.0
H225 H 0.72413 0.10629 0.56644 0.0
H226 H 0.78772 0.06498 0.66114 0.0
H227 H 0.85301 0.05448 0.62691 0.0
C228 C 0.02942 0.9691 0.56025 0.0
C229 C 0.02567 0.96518 0.59725 0.0
C230 C 0.99744 0.98876 0.54069 0.0
C231 C 0.96587 0.01154 0.55828 0.0
C232 C 0.97006 0.01732 0.59527 0.0
C233 C 0.99927 0.99361 0.6147 0.0
C234 C 0.92795 0.02902 0.54003 0.0
C235 C 0.89083 0.03277 0.56061 0.0
C236 C 0.92803 0.05061 0.50636 0.0
C237 C 0.96176 0.04797 0.47936 0.0
C238 C 1.00162 0.06395 0.4862 0.0
C239 C 0.03084 0.06849 0.45872 0.0
C240 C 0.02059 0.05734 0.42416 0.0
C241 C 0.98123 0.04097 0.4172 0.0
C242 C 0.95185 0.0364 0.44466 0.0
C243 C 0.98634 0.14596 0.55408 0.0
C244 C 0.98336 0.14962 0.5908 0.0
C245 C 0.95066 0.13861 0.53413 0.0
C246 C 0.91196 0.12846 0.55085 0.0
C247 C 0.90854 0.13602 0.58756 0.0
C248 C 0.94376 0.14652 0.60718 0.0
C249 C 0.88102 0.10013 0.53267 0.0
C250 C 0.89751 0.08288 0.50136 0.0
C251 C 0.86482 0.06831 0.55526 0.0
C252 C 0.82609 0.07481 0.57654 0.0
C253 C 0.78942 0.08958 0.55985 0.0
C254 C 0.75244 0.09528 0.57951 0.0
C255 C 0.75187 0.08656 0.616 0.0
C256 C 0.78817 0.07173 0.63286 0.0
C257 C 0.8251 0.0656 0.61326 0.0
H258 H 0.72326 0.09114 0.63118 0.0
H259 H 0.04276 0.06201 0.40263 0.0
H260 H 0.71512 0.10062 1.11205 0.0
H261 H 0.63809 0.10191 1.11413 0.0
H262 H 0.63852 0.96976 0.14085 0.0
H263 H 0.7154 0.96877 0.14056 0.0
H264 H 0.58097 0.99509 1.08371 0.0
H265 H 0.61482 0.02943 0.20344 0.0
H266 H 0.64464 0.06811 0.25321 0.0
H267 H 0.58112 0.18096 0.2178 0.0
H268 H 0.55139 0.14313 0.16744 0.0
H269 H 0.3612 0.97569 0.12093 0.0
H270 H 0.43796 0.9716 0.12155 0.0
H271 H 0.44248 0.10606 0.13345 0.0
H272 H 0.36606 0.10954 0.13537 0.0
H273 H 0.4991 0.07771 0.17125 0.0
H274 H 0.46589 0.04536 1.05045 0.0
H275 H 0.43215 0.00655 1.00257 0.0
H276 H 0.49337 0.89239 1.03799 0.0
H277 H 0.52709 0.93044 1.08634 0.0
C278 C 0.69896 0.07199 0.11897 0.0
C279 C 0.72188 0.03475 0.12661 0.0
C280 C 0.65471 0.07269 0.11994 0.0
C281 C 0.63208 0.03591 0.12768 0.0
C282 C 0.65492 0.99859 0.13476 0.0
C283 C 0.69907 0.99813 0.13466 0.0
C284 C 0.58478 0.03623 0.1282 0.0
C285 C 0.56305 0.01292 1.10305 0.0
C286 C 0.56097 0.06003 0.15283 0.0
C287 C 0.58122 0.08353 0.18147 0.0
C288 C 0.60781 0.06266 0.20587 0.0
C289 C 0.62452 0.08437 0.23428 0.0
C290 C 0.61458 0.12685 0.23869 0.0
C291 C 0.58863 0.14799 0.21436 0.0
C292 C 0.57189 0.12645 0.18587 0.0
C293 C 0.37855 0.00431 0.12387 0.0
C294 C 0.35709 0.04289 0.12817 0.0
C295 C 0.42279 1.0021 0.12378 0.0
C296 C 0.44704 0.03865 0.12678 0.0
C297 C 0.42532 0.07715 0.13111 0.0
C298 C 0.38125 0.07918 0.13207 0.0
C299 C 0.49466 0.03719 0.12623 0.0
C300 C 0.51668 0.06019 0.15152 0.0
C301 C 0.51868 0.01353 1.10137 0.0
C302 C 0.49867 0.99067 1.0722 0.0
C303 C 0.47196 0.01194 1.04814 0.0
C304 C 0.45287 0.99008 1.02091 0.0
C305 C 0.46053 0.94701 1.0173 0.0
C306 C 0.48742 0.92574 1.04084 0.0
C307 C 0.50655 0.94744 1.06814 0.0
H308 H 0.4457 0.93014 0.99621 0.0
H309 H 0.62661 0.14327 0.26116 0.0
H310 H 0.00776 0.38546 0.66444 0.0
H311 H 0.02256 0.45998 0.66209 0.0
H312 H 0.11565 0.43855 0.58038 0.0
H313 H 0.09933 0.3629 0.58181 0.0
H314 H 0.08002 0.50857 0.67531 0.0
H315 H 0.12487 0.52792 0.52731 0.0
H316 H 0.11287 0.49356 0.4701 0.0
H317 H 0.99636 0.44506 0.50982 0.0
H318 H 0.00745 0.47953 0.56708 0.0
H319 H 0.1456 0.71944 0.64657 0.0
H320 H 0.14156 0.64262 0.64688 0.0
H321 H 0.02838 0.6512 0.58523 0.0
H322 H 0.03262 0.72826 0.5846 0.0
H323 H 0.0768 0.5881 0.56089 0.0
H324 H 0.02493 0.62846 0.67417 0.0
H325 H 0.02502 0.66408 0.73173 0.0
H326 H 0.13571 0.59451 0.76236 0.0
H327 H 0.1367 0.55888 0.70466 0.0
C328 C 0.03175 0.39632 0.64608 0.0
C329 C 0.05211 0.36787 0.62317 0.0
C330 C 0.04034 0.43934 0.64483 0.0
C331 C 0.06986 0.4559 0.62071 0.0
C332 C 0.09201 0.42724 0.59883 0.0
C333 C 0.08311 0.38372 0.59993 0.0
C334 C 0.07579 0.50306 0.61846 0.0
C335 C 0.07969 0.52566 0.65012 0.0
C336 C 0.07442 0.52642 0.58593 0.0
C337 C 0.06728 0.50585 0.55158 0.0
C338 C 0.09667 0.50998 0.52378 0.0
C339 C 0.09003 0.49049 0.49136 0.0
C340 C 0.05396 0.467 0.48638 0.0
C341 C 0.02436 0.46311 0.51376 0.0
C342 C 0.03083 0.48258 0.54621 0.0
C343 C 0.11979 0.70503 0.63308 0.0
C344 C 0.08929 0.73026 0.61576 0.0
C345 C 0.11744 0.6609 0.63332 0.0
C346 C 0.08448 0.64052 0.61629 0.0
C347 C 0.05423 0.66573 0.59856 0.0
C348 C 0.05649 0.70996 0.59843 0.0
C349 C 0.08119 0.59319 0.61767 0.0
C350 C 0.07772 0.57076 0.58595 0.0
C351 C 0.08154 0.57 0.65022 0.0
C352 C 0.08117 0.59135 0.68493 0.0
C353 C 0.04952 0.62101 0.69305 0.0
C354 C 0.04932 0.64116 0.72572 0.0
C355 C 0.08039 0.63165 0.75067 0.0
C356 C 0.1117 0.60189 0.74299 0.0
C357 C 0.11209 0.5817 0.7103 0.0
H358 H 0.08016 0.64726 0.77597 0.0
H359 H 0.04889 0.45191 0.46128 0.0
H360 H 0.01686 0.19204 0.48428 0.0
H361 H 0.04329 0.15911 0.4294 0.0
H362 H 0.16971 0.18407 0.46025 0.0
H363 H 0.1439 0.21418 0.51588 0.0
H364 H 0.118 0.20424 0.37575 0.0
H365 H 0.17908 0.11184 0.46717 0.0
H366 H 0.17774 0.06191 0.51764 0.0
H367 H 0.10985 0.97466 0.45535 0.0
H368 H 0.10883 0.02511 0.40514 0.0
H369 H 0.14587 0.09725 0.21201 0.0
H370 H 0.12225 0.12429 0.2689 0.0
H371 H 0.22182 0.05538 0.32148 0.0
H372 H 0.24426 0.02612 0.264 0.0
H373 H 0.1655 0.05586 0.36695 0.0
H374 H 0.08194 0.20674 0.31223 0.0
H375 H 0.08907 0.25775 0.26248 0.0
H376 H 0.21994 0.22606 0.2528 0.0
H377 H 0.21371 0.17526 0.30275 0.0
C378 C 0.05039 0.19021 0.47984 0.0
C379 C 0.07778 0.2058 0.5059 0.0
C380 C 0.06573 0.17086 0.44807 0.0
C381 C 0.10922 0.16636 0.44042 0.0
C382 C 0.13627 0.18431 0.46538 0.0
C383 C 0.12114 0.20245 0.49748 0.0
C384 C 0.12613 0.14659 0.4055 0.0
C385 C 0.12782 0.17156 0.3741 0.0
C386 C 0.141 0.10398 0.40224 0.0
C387 C 0.14146 0.07381 0.43293 0.0
C388 C 0.16199 0.0831 0.46468 0.0
C389 C 0.16215 0.0543 0.4932 0.0
C390 C 0.14288 0.01546 0.49002 0.0
C391 C 0.12405 0.00506 0.45809 0.0
C392 C 0.12362 0.03385 0.42962 0.0
C393 C 0.16311 0.08754 0.23549 0.0
C394 C 0.19761 0.05917 0.23227 0.0
C395 C 0.14961 0.1038 0.26869 0.0
C396 C 0.17046 0.09386 0.30092 0.0
C397 C 0.20455 0.06469 0.29792 0.0
C398 C 0.2177 0.0477 0.26453 0.0
C399 C 0.15635 0.11327 0.33702 0.0
C400 C 0.15523 0.08839 0.36856 0.0
C401 C 0.14312 0.15616 0.34081 0.0
C402 C 0.14722 0.18688 0.31098 0.0
C403 C 0.11226 0.21078 0.29956 0.0
C404 C 0.11614 0.23963 0.27131 0.0
C405 C 0.1549 0.24503 0.25441 0.0
C406 C 0.18991 0.22173 0.26582 0.0
C407 C 0.18621 0.19288 0.29408 0.0
H408 H 0.15783 0.26735 0.23253 0.0
H409 H 0.14312 0.99317 0.51208 0.0
H410 H 0.0392 0.23151 0.7516 0.0
H411 H 0.01297 0.21137 0.81099 0.0
H412 H 0.88954 0.19579 0.76815 0.0
H413 H 0.91583 0.21506 0.70887 0.0
H414 H 0.96309 0.23669 0.85978 0.0
H415 H 0.83046 0.12799 0.81472 0.0
H416 H 0.81563 0.07996 0.76576 0.0
H417 H 0.94765 0.06088 0.74798 0.0
H418 H 0.96322 0.10852 0.79694 0.0
H419 H 0.85119 0.18413 1.02276 0.0
H420 H 0.8734 0.20953 0.96368 0.0
H421 H 0.89043 0.0818 0.93031 0.0
H422 H 0.86871 0.05654 0.98895 0.0
H423 H 0.872 0.11316 0.87622 0.0
H424 H 0.985 0.17014 0.94678 0.0
H425 H 0.01527 0.21025 0.99587 0.0
H426 H 0.94342 0.31939 0.96355 0.0
H427 H 0.91286 0.2797 0.91449 0.0
C428 C 0.00639 0.22389 0.75464 0.0
C429 C 0.98005 0.22513 0.72451 0.0
C430 C 0.99115 0.21227 0.7891 0.0
C431 C 0.94887 0.20091 0.79523 0.0
C432 C 0.92243 0.20304 0.76517 0.0
C433 C 0.93762 0.21464 0.73078 0.0
C434 C 0.93265 0.18695 0.8325 0.0
C435 C 0.94302 0.20968 0.86304 0.0
C436 C 0.90709 0.15107 0.83846 0.0
C437 C 0.89794 0.1222 0.80919 0.0
C438 C 0.85629 0.11347 0.80038 0.0
C439 C 0.84777 0.08635 0.77262 0.0
C440 C 0.88067 0.06753 0.75366 0.0
C441 C 0.92218 0.07565 0.76253 0.0
C442 C 0.93087 0.10277 0.79023 0.0
C443 C 0.85957 0.16126 1.00287 0.0
C444 C 0.85773 0.11786 1.01165 0.0
C445 C 0.87334 0.17599 0.96867 0.0
C446 C 0.88611 0.14813 0.94135 0.0
C447 C 0.88252 0.10486 0.95001 0.0
C448 C 0.86936 0.09017 0.98412 0.0
C449 C 0.90218 0.16298 0.904 0.0
C450 C 0.89181 0.14035 0.87323 0.0
C451 C 0.92896 0.19809 0.89798 0.0
C452 C 0.94608 0.22176 0.92775 0.0
C453 C 0.97538 0.20252 0.95062 0.0
C454 C 0.9927 0.2252 0.97823 0.0
C455 C 0.98102 0.26724 0.98299 0.0
C456 C 0.95225 0.28676 0.95998 0.0
C457 C 0.93499 0.26421 0.93225 0.0
H458 H 0.99442 0.28476 1.00438 0.0
H459 H 0.874 0.04658 0.73217 0.0
H460 H 0.95144 0.85468 0.51002 0.0
H461 H 0.92462 0.88211 0.45302 0.0
H462 H 0.03912 0.95001 0.43669 0.0
H463 H 0.06755 0.91862 0.49087 0.0
H464 H 0.89888 0.94355 0.42118 0.0
H465 H 0.05505 0.99073 0.35664 0.0
H466 H 0.12967 0.96906 0.35588 0.0
H467 H 0.0957 0.84217 0.38232 0.0
H468 H 0.02084 0.86304 0.38282 0.0
H469 H 0.84931 0.06824 0.26187 0.0
H470 H 0.87482 0.04143 0.31973 0.0
H471 H 0.94361 0.94292 0.26694 0.0
H472 H 0.91906 0.96992 0.20962 0.0
H473 H 0.99108 0.96313 0.31595 0.0
H474 H 0.84506 0.93076 0.32172 0.0
H475 H 0.76907 0.94607 0.31956 0.0
H476 H 0.78033 0.03159 0.40577 0.0
H477 H 0.85639 0.01716 0.40814 0.0
C478 C 0.97152 0.87457 0.49389 0.0
C479 C 0.01236 0.88347 0.50595 0.0
C480 C 0.95577 0.89097 0.46089 0.0
C481 C 0.97958 0.91794 0.43828 0.0
C482 C 0.01988 0.9278 0.45115 0.0
C483 C 0.03622 0.91007 0.48325 0.0
C484 C 0.96241 0.93572 0.40213 0.0
C485 C 0.91954 0.94754 0.39842 0.0
C486 C 0.98775 0.9416 0.37089 0.0
C487 C 0.03246 0.9285 0.37 0.0
C488 C 0.06353 0.95816 0.36206 0.0
C489 C 0.10584 0.94604 0.36174 0.0
C490 C 0.11742 0.90429 0.36915 0.0
C491 C 0.08669 0.87451 0.37669 0.0
C492 C 0.04432 0.88645 0.37698 0.0
C493 C 0.86979 0.04079 0.26241 0.0
C494 C 0.88158 0.0217 0.23003 0.0
C495 C 0.88441 0.025 0.29603 0.0
C496 C 0.9114 0.98912 0.2991 0.0
C497 C 0.92322 0.97044 0.26663 0.0
C498 C 0.90872 0.98612 0.23324 0.0
C499 C 0.92788 0.97114 0.33522 0.0
C500 C 0.97054 0.95911 0.3388 0.0
C501 C 0.90224 0.96454 0.36605 0.0
C502 C 0.85651 0.97314 0.3649 0.0
C503 C 0.83135 0.953 0.34008 0.0
C504 C 0.78825 0.96151 0.33883 0.0
C505 C 0.76989 0.98986 0.36245 0.0
C506 C 0.79459 0.00967 0.38746 0.0
C507 C 0.83771 1.00129 0.38879 0.0
H508 H 0.73653 0.99643 0.36143 0.0
H509 H 0.15019 0.89498 0.36899 0.0
H510 H 0.04068 0.86193 0.75314 0.0
H511 H 0.06317 0.88053 0.81337 0.0
H512 H 0.18424 0.91452 0.77179 0.0
H513 H 0.1618 0.89679 0.71195 0.0
H514 H 0.1971 0.87358 0.83294 0.0
H515 H 0.10445 0.98763 0.79855 0.0
H516 H 0.03832 0.02302 0.78087 0.0
H517 H 0.97825 0.97683 0.87594 0.0
H518 H 0.04381 0.94074 0.89403 0.0
H519 H 0.2229 0.90673 1.02388 0.0
H520 H 0.19893 0.88439 0.96519 0.0
H521 H 0.18544 0.01353 0.93168 0.0
H522 H 0.20849 0.03619 0.99028 0.0
H523 H 0.1176 0.97267 0.909 0.0
H524 H 0.21653 0.82249 0.88958 0.0
H525 H 0.28476 0.79184 0.90775 0.0
H526 H 0.33412 0.91556 0.91939 0.0
H527 H 0.26637 0.94691 0.90087 0.0
C528 C 0.07216 0.87332 0.75663 0.0
C529 C 0.09903 0.87758 0.72662 0.0
C530 C 0.08514 0.88433 0.79154 0.0
C531 C 0.12586 0.89961 0.79836 0.0
C532 C 0.15277 0.90306 0.76843 0.0
C533 C 0.13963 0.89281 0.73362 0.0
C534 C 0.14088 0.91168 0.83597 0.0
C535 C 0.17915 0.89501 0.84942 0.0
C536 C 0.11869 0.94006 0.85868 0.0
C537 C 0.07894 0.96085 0.84734 0.0
C538 C 0.077 0.98453 0.81547 0.0
C539 C 0.03964 0.00487 0.80544 0.0
C540 C 0.00407 1.00206 0.82721 0.0
C541 C 0.00579 0.97893 0.85908 0.0
C542 C 0.04304 0.9585 0.86921 0.0
C543 C 0.21537 0.93064 1.00404 0.0
C544 C 0.21827 0.97364 1.0128 0.0
C545 C 0.20129 0.91769 0.97004 0.0
C546 C 0.18942 0.94704 0.94298 0.0
C547 C 0.19315 0.98983 0.95157 0.0
C548 C 0.20716 1.00282 0.9854 0.0
C549 C 0.17323 0.93384 0.9061 0.0
C550 C 0.13502 0.95061 0.8927 0.0
C551 C 0.19526 0.90541 0.88351 0.0
C552 C 0.23626 0.88698 0.89421 0.0
C553 C 0.242 0.84312 0.89591 0.0
C554 C 0.28058 0.82564 0.90628 0.0
C555 C 0.31371 0.85174 0.91483 0.0
C556 C 0.30838 0.89538 0.91289 0.0
C557 C 0.26989 0.91302 0.9025 0.0
H558 H 0.34353 0.83814 0.92289 0.0
H559 H 0.97522 0.0179 0.81944 0.0
H560 H 0.88866 0.76593 1.04751 0.0
H561 H 0.89308 0.70674 1.00762 0.0
H562 H 0.79143 0.75979 0.9458 0.0
H563 H 0.785 0.81797 0.98685 0.0
H564 H 0.79792 0.67342 0.93783 0.0
H565 H 0.88756 0.79675 0.92858 0.0
H566 H 0.93751 0.84708 0.95249 0.0
H567 H 0.02271 0.74566 0.97891 0.0
H568 H 0.97304 0.69467 0.95497 0.0
H569 H 0.84295 0.72123 0.76317 0.0
H570 H 0.82336 0.70237 0.82358 0.0
H571 H 0.943 0.63953 0.83833 0.0
H572 H 0.96305 0.65881 0.77737 0.0
H573 H 0.93511 0.70245 0.88025 0.0
H574 H 0.84836 0.58775 0.85814 0.0
H575 H 0.7952 0.54634 0.8278 0.0
H576 H 0.70038 0.63794 0.85435 0.0
H577 H 0.75299 0.68029 0.88437 0.0
C578 C 0.86577 0.76412 1.02655 0.0
C579 C 0.83729 0.79748 1.01971 0.0
C580 C 0.86845 0.73014 1.00367 0.0
C581 C 0.8434 0.72953 0.97324 0.0
C582 C 0.81134 0.75983 0.96898 0.0
C583 C 0.80819 0.79349 0.99215 0.0
C584 C 0.85684 0.70482 0.94212 0.0
C585 C 0.82803 0.67912 0.92522 0.0
C586 C 0.89651 0.71167 0.92617 0.0
C587 C 0.92652 0.74199 0.94046 0.0
C588 C 0.91689 0.78523 0.93965 0.0
C589 C 0.94513 0.81386 0.9532 0.0
C590 C 0.98319 0.7996 0.96746 0.0
C591 C 0.99316 0.75665 0.96797 0.0
C592 C 0.96502 0.72787 0.95437 0.0
C593 C 0.86444 0.70174 0.77861 0.0
C594 C 0.90489 0.69221 0.76574 0.0
C595 C 0.85302 0.69063 0.81329 0.0
C596 C 0.88169 0.66951 0.83567 0.0
C597 C 0.92038 0.65586 0.82155 0.0
C598 C 0.93195 0.66722 0.78685 0.0
C599 C 0.87556 0.67209 0.87466 0.0
C600 C 0.90579 0.69425 0.89326 0.0
C601 C 0.83683 0.66267 0.89146 0.0
C602 C 0.80477 0.63723 0.87361 0.0
C603 C 0.81623 0.59922 0.85738 0.0
C604 C 0.78615 0.57555 0.84024 0.0
C605 C 0.74444 0.58949 0.83917 0.0
C606 C 0.73269 0.62712 0.85527 0.0
C607 C 0.76263 0.65092 0.87246 0.0
H608 H 0.72121 0.57113 0.82586 0.0
H609 H 0.005 0.82184 0.97797 0.0
H610 H 0.40666 0.8825 0.29238 0.0
H611 H 0.42781 0.84651 0.347 0.0
H612 H 0.38676 0.72866 0.3054 0.0
H613 H 0.36377 0.76496 0.2512 0.0
H614 H 0.34581 0.74495 0.36201 0.0
H615 H 0.48889 0.7373 0.33871 0.0
H616 H 0.5587 0.75782 0.31671 0.0
H617 H 0.56098 0.85805 0.39143 0.0
H618 H 0.4909 0.83867 0.41354 0.0
H619 H 0.31517 0.74122 0.54188 0.0
H620 H 0.36175 0.71389 0.4955 0.0
H621 H 0.39575 0.84044 0.46592 0.0
H622 H 0.34917 0.86788 0.51119 0.0
H623 H 0.45788 0.78081 0.44631 0.0
H624 H 0.30224 0.80606 0.43546 0.0
H625 H 0.23026 0.79101 0.45613 0.0
H626 H 0.2537 0.65878 0.4438 0.0
H627 H 0.32597 0.67321 0.42332 0.0
C628 C 0.40298 0.84877 0.29454 0.0
C629 C 0.38264 0.8268 0.26782 0.0
C630 C 0.41586 0.82797 0.32559 0.0
C631 C 0.40899 0.7847 0.33041 0.0
C632 C 0.39252 0.76199 0.30226 0.0
C633 C 0.3794 0.78285 0.27123 0.0
C634 C 0.40929 0.76653 0.367 0.0
C635 C 0.37121 0.75091 0.38017 0.0
C636 C 0.44219 0.77425 0.39092 0.0
C637 C 0.4845 0.78637 0.37788 0.0
C638 C 0.50413 0.76386 0.35036 0.0
C639 C 0.5438 0.7753 0.33787 0.0
C640 C 0.56428 0.80919 0.35269 0.0
C641 C 0.54512 0.83172 0.38005 0.0
C642 C 0.50544 0.82043 0.39265 0.0
C643 C 0.33365 0.76314 0.52625 0.0
C644 C 0.32731 0.80681 0.52944 0.0
C645 C 0.36066 0.7474 0.50006 0.0
C646 C 0.38139 0.77521 0.47678 0.0
C647 C 0.37999 0.81838 0.48356 0.0
C648 C 0.35303 0.83411 0.50956 0.0
C649 C 0.3938 0.76225 0.44061 0.0
C650 C 0.4339 0.77214 0.42767 0.0
C651 C 0.36284 0.74935 0.4166 0.0
C652 C 0.31936 0.74063 0.42819 0.0
C653 C 0.29193 0.77381 0.43719 0.0
C654 C 0.25117 0.7654 0.44888 0.0
C655 C 0.23744 0.72395 0.45134 0.0
C656 C 0.26441 0.69085 0.44196 0.0
C657 C 0.30526 0.69911 0.43031 0.0
H658 H 0.20589 0.71749 0.46046 0.0
H659 H 0.59499 0.818 0.34297 0.0
H660 H 0.25561 0.26486 0.78781 0.0
H661 H 0.27608 0.29802 0.84271 0.0
H662 H 0.211 0.41205 0.81081 0.0
H663 H 0.19058 0.3792 0.75522 0.0
H664 H 0.30853 0.39625 0.86247 0.0
H665 H 0.15056 0.39854 0.85514 0.0
H666 H 0.08628 0.36631 0.83261 0.0
H667 H 0.12497 0.24677 0.877 0.0
H668 H 0.18974 0.27825 0.89924 0.0
H669 H 0.21312 0.32338 1.04867 0.0
H670 H 0.21599 0.37842 1.00337 0.0
H671 H 0.32773 0.3208 0.95932 0.0
H672 H 0.32717 0.26795 1.00638 0.0
H673 H 0.19751 0.34698 0.94543 0.0
H674 H 0.37082 0.36914 0.89291 0.0
H675 H 0.43752 0.39536 0.91556 0.0
H676 H 0.37113 0.46468 0.99561 0.0
H677 H 0.30387 0.4395 0.97313 0.0
C678 C 0.24694 0.29749 0.79173 0.0
C679 C 0.22095 0.31922 0.76745 0.0
C680 C 0.25882 0.31645 0.82307 0.0
C681 C 0.24499 0.35736 0.83061 0.0
C682 C 0.22205 0.38048 0.80522 0.0
C683 C 0.21002 0.36148 0.77379 0.0
C684 C 0.24669 0.37098 0.86771 0.0
C685 C 0.28418 0.38659 0.88099 0.0
C686 C 0.21423 0.35938 0.89136 0.0
C687 C 0.17497 0.34067 0.87859 0.0
C688 C 0.14538 0.36536 0.8599 0.0
C689 C 0.1089 0.34722 0.84718 0.0
C690 C 0.10158 0.30449 0.8533 0.0
C691 C 0.13069 0.27984 0.87222 0.0
C692 C 0.16727 0.2978 0.88487 0.0
C693 C 0.23984 0.32374 1.03077 0.0
C694 C 0.26888 0.29 1.03013 0.0
C695 C 0.24138 0.35544 1.00469 0.0
C696 C 0.27119 0.35317 0.9771 0.0
C697 C 0.30414 0.32351 0.98002 0.0
C698 C 0.30327 0.29249 1.00664 0.0
C699 C 0.26067 0.37055 0.94133 0.0
C700 C 0.2214 0.35976 0.92782 0.0
C701 C 0.29156 0.38687 0.91783 0.0
C702 C 0.33211 0.40241 0.93122 0.0
C703 C 0.37029 0.39032 0.9151 0.0
C704 C 0.40827 0.40491 0.928 0.0
C705 C 0.40857 0.43167 0.957 0.0
C706 C 0.37087 0.4439 0.97318 0.0
C707 C 0.33279 0.4294 0.9604 0.0
H708 H 0.43801 0.44291 0.96694 0.0
H709 H 0.07332 0.29051 0.84345 0.0
H710 H 0.65858 0.25274 0.27305 0.0
H711 H 0.62501 0.26699 0.33026 0.0
H712 H 0.67549 0.15008 0.3727 0.0
H713 H 0.70634 0.1343 0.31524 0.0
H714 H 0.60474 0.16875 0.40659 0.0
H715 H 0.7338 0.24789 0.37082 0.0
H716 H 0.77004 0.29928 0.33191 0.0
H717 H 0.6731 0.39109 0.35228 0.0
H718 H 0.63622 0.34002 0.3911 0.0
H719 H 0.75678 0.16177 0.52508 0.0
H720 H 0.69605 0.16224 0.48758 0.0
H721 H 0.66626 0.28927 0.51856 0.0
H722 H 0.72848 0.28901 0.55591 0.0
H723 H 0.68313 0.28901 0.45291 0.0
H724 H 0.58622 0.2104 0.51718 0.0
H725 H 0.5588 0.15615 0.55831 0.0
H726 H 0.60019 0.05951 0.48749 0.0
H727 H 0.62851 0.11294 0.44618 0.0
C728 C 0.66139 0.22943 0.29423 0.0
C729 C 0.68646 0.19304 0.28995 0.0
C730 C 0.64221 0.2377 0.32698 0.0
C731 C 0.64864 0.21019 0.35609 0.0
C732 C 0.67026 0.17204 0.35079 0.0
C733 C 0.68875 0.16345 0.31805 0.0
C734 C 0.64061 0.22354 0.39313 0.0
C735 C 0.62128 0.1953 0.417 0.0
C736 C 0.66003 0.25956 0.40658 0.0
C737 C 0.68211 0.29015 0.38339 0.0
C738 C 0.72024 0.27903 0.36685 0.0
C739 C 0.74085 0.30805 0.34484 0.0
C740 C 0.72381 0.34838 0.33954 0.0
C741 C 0.68618 0.3598 0.35632 0.0
C742 C 0.66541 0.33085 0.3783 0.0
C743 C 0.73636 0.18907 0.52535 0.0
C744 C 0.74809 0.22542 0.54302 0.0
C745 C 0.70097 0.18926 0.50403 0.0
C746 C 0.67632 0.22595 0.4999 0.0
C747 C 0.68476 0.26057 0.52125 0.0
C748 C 0.72044 0.26034 0.54267 0.0
C749 C 0.65165 0.23136 0.46677 0.0
C750 C 0.66427 0.26359 0.44327 0.0
C751 C 0.62673 0.1986 0.45388 0.0
C752 C 0.60926 0.16593 0.47835 0.0
C753 C 0.58958 0.17759 0.51035 0.0
C754 C 0.57389 0.14693 0.53374 0.0
C755 C 0.57765 0.10443 0.52547 0.0
C756 C 0.59711 0.09247 0.49378 0.0
C757 C 0.61286 0.12298 0.47028 0.0
H758 H 0.56554 0.08074 0.54364 0.0
H759 H 0.7398 0.37082 0.3225 0.0
loop_
_geom_bond_atom_site_label_1
_geom_bond_atom_site_label_2
_geom_bond_distance
_geom_bond_site_symmetry_2
_ccdc_geom_bond_type
Ho0 C3 2.811 1_545 S
Ho0 O20 2.322 . S
Ho0 O22 2.378 1_545 S
Ho0 O23 2.524 . S
Ho0 O24 2.381 . S
Ho0 O25 2.669 1_554 S
Ho0 O27 2.346 1_554 S
Ho0 O31 2.305 . S
Ho1 C12 2.811 . S
Ho1 O21 2.346 1_556 S
Ho1 O25 2.305 . S
Ho1 O26 2.322 . S
Ho1 O28 2.378 . S
Ho1 O29 2.524 . S
Ho1 O30 2.381 . S
Ho1 O31 2.669 1_556 S
C2 O20 1.259 . S
C2 O21 1.268 . S
C3 Ho0 2.811 1_565 S
C3 C4 1.488 . S
C3 O22 1.215 . S
C3 O23 1.289 1_565 S
C4 C3 1.488 . S
C4 C5 1.348 . S
C4 C9 1.413 . S
C5 C4 1.348 . S
C5 C6 1.442 . S
C5 H32 0.933 . S
C6 C5 1.442 . S
C6 C7 1.381 . S
C6 H33 0.931 . S
C7 C6 1.381 . S
C7 C8 1.321 . S
C8 C7 1.321 . S
C8 C9 1.403 . S
C8 H34 0.934 . S
C9 C4 1.413 . S
C9 C8 1.403 . S
C9 H35 0.930 . S
C10 O24 1.275 . S
C10 O25 1.256 1_554 S
C11 O26 1.259 . S
C11 O27 1.268 . S
C12 Ho1 2.811 . S
C12 C13 1.488 . S
C12 O28 1.215 . S
C12 O29 1.289 . S
C13 C12 1.488 . S
C13 C14 1.348 . S
C13 C18 1.413 . S
C14 C13 1.348 . S
C14 C15 1.442 . S
C14 H36 0.930 . S
C15 C14 1.442 . S
C15 C16 1.381 . S
C15 H37 0.931 . S
C16 C15 1.381 . S
C16 C17 1.321 . S
C17 C16 1.321 . S
C17 C18 1.403 . S
C17 H38 0.934 . S
C18 C13 1.413 . S
C18 C17 1.403 . S
C18 H39 0.930 . S
C19 O30 1.275 1_554 S
C19 O31 1.256 . S
O20 Ho0 2.322 . S
O20 C2 1.259 . S
O21 Ho1 2.346 1_554 S
O21 C2 1.268 . S
O22 Ho0 2.378 1_565 S
O22 C3 1.215 . S
O23 Ho0 2.524 . S
O23 C3 1.289 1_545 S
O24 Ho0 2.381 . S
O24 C10 1.275 . S
O25 Ho0 2.669 1_556 S
O25 Ho1 2.305 . S
O25 C10 1.256 1_556 S
O26 Ho1 2.322 . S
O26 C11 1.259 . S
O27 Ho0 2.346 1_556 S
O27 C11 1.268 . S
O28 Ho1 2.378 . S
O28 C12 1.215 . S
O29 Ho1 2.524 . S
O29 C12 1.289 . S
O30 Ho1 2.381 . S
O30 C19 1.275 1_556 S
O31 Ho0 2.305 . S
O31 Ho1 2.669 1_554 S
O31 C19 1.256 . S
H32 C5 0.933 . S
H33 C6 0.931 . S
H34 C8 0.934 . S
H35 C9 0.930 . S
H36 C14 0.930 . S
H37 C15 0.931 . S
H38 C17 0.934 . S
H39 C18 0.930 . S
Ho40 C43 2.811 . S
Ho40 O60 2.322 1_455 S
Ho40 O62 2.378 . S
Ho40 O63 2.524 . S
Ho40 O64 2.381 . S
Ho40 O65 2.669 1_455 S
Ho40 O67 2.346 . S
Ho40 O71 2.305 . S
Ho41 C52 2.811 . S
Ho41 O61 2.346 . S
Ho41 O65 2.305 . S
Ho41 O66 2.322 1_655 S
Ho41 O68 2.378 . S
Ho41 O69 2.524 . S
Ho41 O70 2.381 . S
Ho41 O71 2.669 1_655 S
C42 O60 1.259 . S
C42 O61 1.268 . S
C43 Ho40 2.811 . S
C43 C44 1.488 . S
C43 O62 1.215 . S
C43 O63 1.289 . S
C44 C43 1.488 . S
C44 C45 1.348 . S
C44 C49 1.413 . S
C45 C44 1.348 . S
C45 C46 1.442 . S
C45 H72 0.930 . S
C46 C45 1.442 . S
C46 C47 1.381 . S
C46 H73 0.931 . S
C47 C46 1.381 . S
C47 C48 1.321 . S
C48 C47 1.321 . S
C48 C49 1.403 . S
C48 H74 0.934 . S
C49 C44 1.413 . S
C49 C48 1.403 . S
C49 H75 0.930 . S
C50 O64 1.275 . S
C50 O65 1.256 1_455 S
C51 O66 1.259 . S
C51 O67 1.268 . S
C52 Ho41 2.811 . S
C52 C53 1.488 . S
C52 O68 1.215 . S
C52 O69 1.289 . S
C53 C52 1.488 . S
C53 C54 1.348 . S
C53 C58 1.413 . S
C54 C53 1.348 . S
C54 C55 1.442 . S
C54 H76 0.930 . S
C55 C54 1.442 . S
C55 C56 1.381 . S
C55 H77 0.931 . S
C56 C55 1.381 . S
C56 C57 1.321 . S
C57 C56 1.321 . S
C57 C58 1.403 . S
C57 H78 0.934 . S
C58 C53 1.413 . S
C58 C57 1.403 . S
C58 H79 0.930 . S
C59 O70 1.275 . S
C59 O71 1.256 1_655 S
O60 Ho40 2.322 1_655 S
O60 C42 1.259 . S
O61 Ho41 2.346 . S
O61 C42 1.268 . S
O62 Ho40 2.378 . S
O62 C43 1.215 . S
O63 Ho40 2.524 . S
O63 C43 1.289 . S
O64 Ho40 2.381 . S
O64 C50 1.275 . S
O65 Ho40 2.669 1_655 S
O65 Ho41 2.305 . S
O65 C50 1.256 1_655 S
O66 Ho41 2.322 1_455 S
O66 C51 1.259 . S
O67 Ho40 2.346 . S
O67 C51 1.268 . S
O68 Ho41 2.378 . S
O68 C52 1.215 . S
O69 Ho41 2.524 . S
O69 C52 1.289 . S
O70 Ho41 2.381 . S
O70 C59 1.275 . S
O71 Ho40 2.305 . S
O71 Ho41 2.669 1_455 S
O71 C59 1.256 1_455 S
H72 C45 0.930 . S
H73 C46 0.931 . S
H74 C48 0.934 . S
H75 C49 0.930 . S
H76 C54 0.930 . S
H77 C55 0.931 . S
H78 C57 0.934 . S
H79 C58 0.930 . S
Ho80 C83 2.811 . S
Ho80 O100 2.322 1_545 S
Ho80 O102 2.378 . S
Ho80 O103 2.524 . S
Ho80 O104 2.381 . S
Ho80 O105 2.669 1_544 S
Ho80 O107 2.346 1_554 S
Ho80 O111 2.305 . S
Ho81 C92 2.811 . S
Ho81 O101 2.346 1_556 S
Ho81 O105 2.305 . S
Ho81 O106 2.322 1_565 S
Ho81 O108 2.378 . S
Ho81 O109 2.524 . S
Ho81 O110 2.381 . S
Ho81 O111 2.669 1_566 S
C82 O100 1.259 . S
C82 O101 1.268 . S
C83 Ho80 2.811 . S
C83 C84 1.488 . S
C83 O102 1.215 . S
C83 O103 1.289 . S
C84 C83 1.488 . S
C84 C85 1.348 . S
C84 C89 1.413 . S
C85 C84 1.348 . S
C85 C86 1.442 . S
C85 H112 0.930 . S
C86 C85 1.442 . S
C86 C87 1.381 . S
C86 H113 0.931 . S
C87 C86 1.381 . S
C87 C88 1.321 . S
C88 C87 1.321 . S
C88 C89 1.403 . S
C88 H114 0.934 . S
C89 C84 1.413 . S
C89 C88 1.403 . S
C89 H115 0.930 . S
C90 O104 1.275 . S
C90 O105 1.256 1_544 S
C91 O106 1.259 . S
C91 O107 1.268 . S
C92 Ho81 2.811 . S
C92 C93 1.488 . S
C92 O108 1.215 . S
C92 O109 1.289 . S
C93 C92 1.488 . S
C93 C94 1.348 . S
C93 C98 1.413 . S
C94 C93 1.348 . S
C94 C95 1.442 . S
C94 H116 0.930 . S
C95 C94 1.442 . S
C95 C96 1.381 . S
C95 H117 0.931 . S
C96 C95 1.381 . S
C96 C97 1.321 . S
C97 C96 1.321 . S
C97 C98 1.403 . S
C97 H118 0.934 . S
C98 C93 1.413 . S
C98 C97 1.403 . S
C98 H119 0.930 . S
C99 O110 1.275 1_554 S
C99 O111 1.256 1_565 S
O100 Ho80 2.322 1_565 S
O100 C82 1.259 . S
O101 Ho81 2.346 1_554 S
O101 C82 1.268 . S
O102 Ho80 2.378 . S
O102 C83 1.215 . S
O103 Ho80 2.524 . S
O103 C83 1.289 . S
O104 Ho80 2.381 . S
O104 C90 1.275 . S
O105 Ho80 2.669 1_566 S
O105 Ho81 2.305 . S
O105 C90 1.256 1_566 S
O106 Ho81 2.322 1_545 S
O106 C91 1.259 . S
O107 Ho80 2.346 1_556 S
O107 C91 1.268 . S
O108 Ho81 2.378 . S
O108 C92 1.215 . S
O109 Ho81 2.524 . S
O109 C92 1.289 . S
O110 Ho81 2.381 . S
O110 C99 1.275 1_556 S
O111 Ho80 2.305 . S
O111 Ho81 2.669 1_544 S
O111 C99 1.256 1_545 S
H112 C85 0.930 . S
H113 C86 0.931 . S
H114 C88 0.934 . S
H115 C89 0.930 . S
H116 C94 0.930 . S
H117 C95 0.931 . S
H118 C97 0.934 . S
H119 C98 0.930 . S
Ho120 C123 2.811 1_455 S
Ho120 O140 2.322 . S
Ho120 O142 2.378 1_455 S
Ho120 O143 2.524 . S
Ho120 O144 2.381 . S
Ho120 O145 2.669 . S
Ho120 O147 2.346 . S
Ho120 O151 2.305 . S
Ho121 C132 2.811 . S
Ho121 O141 2.346 . S
Ho121 O145 2.305 . S
Ho121 O146 2.322 . S
Ho121 O148 2.378 . S
Ho121 O149 2.524 . S
Ho121 O150 2.381 . S
Ho121 O151 2.669 . S
C122 O140 1.259 . S
C122 O141 1.268 . S
C123 Ho120 2.811 1_655 S
C123 C124 1.488 . S
C123 O142 1.215 . S
C123 O143 1.289 1_655 S
C124 C123 1.488 . S
C124 C125 1.348 . S
C124 C129 1.413 . S
C125 C124 1.348 . S
C125 C126 1.442 . S
C125 H152 0.933 . S
C126 C125 1.442 . S
C126 C127 1.381 . S
C126 H153 0.931 . S
C127 C126 1.381 . S
C127 C128 1.321 . S
C128 C127 1.321 . S
C128 C129 1.403 . S
C128 H154 0.934 . S
C129 C124 1.413 . S
C129 C128 1.403 . S
C129 H155 0.930 . S
C130 O144 1.275 . S
C130 O145 1.256 . S
C131 O146 1.259 . S
C131 O147 1.268 . S
C132 Ho121 2.811 . S
C132 C133 1.488 . S
C132 O148 1.215 . S
C132 O149 1.289 . S
C133 C132 1.488 . S
C133 C134 1.348 . S
C133 C138 1.413 . S
C134 C133 1.348 . S
C134 C135 1.442 . S
C134 H156 0.930 . S
C135 C134 1.442 . S
C135 C136 1.381 . S
C135 H157 0.931 . S
C136 C135 1.381 . S
C136 C137 1.321 . S
C137 C136 1.321 . S
C137 C138 1.403 . S
C137 H158 0.934 . S
C138 C133 1.413 . S
C138 C137 1.403 . S
C138 H159 0.930 . S
C139 O150 1.275 . S
C139 O151 1.256 . S
O140 Ho120 2.322 . S
O140 C122 1.259 . S
O141 Ho121 2.346 . S
O141 C122 1.268 . S
O142 Ho120 2.378 1_655 S
O142 C123 1.215 . S
O143 Ho120 2.524 . S
O143 C123 1.289 1_455 S
O144 Ho120 2.381 . S
O144 C130 1.275 . S
O145 Ho120 2.669 . S
O145 Ho121 2.305 . S
O145 C130 1.256 . S
O146 Ho121 2.322 . S
O146 C131 1.259 . S
O147 Ho120 2.346 . S
O147 C131 1.268 . S
O148 Ho121 2.378 . S
O148 C132 1.215 . S
O149 Ho121 2.524 . S
O149 C132 1.289 . S
O150 Ho121 2.381 . S
O150 C139 1.275 . S
O151 Ho120 2.305 . S
O151 Ho121 2.669 . S
O151 C139 1.256 . S
H152 C125 0.933 . S
H153 C126 0.931 . S
H154 C128 0.934 . S
H155 C129 0.930 . S
H156 C134 0.930 . S
H157 C135 0.931 . S
H158 C137 0.934 . S
H159 C138 0.930 . S
H160 C178 0.951 . S
H161 C180 0.956 . S
H162 C182 0.950 . S
H163 C183 0.950 . S
H164 C185 0.943 1_565 S
H165 C188 0.950 . S
H166 C189 0.950 . S
H167 C191 0.950 . S
H168 C192 0.950 . S
H169 C193 0.951 . S
H170 C195 0.951 1_565 S
H171 C197 0.950 . S
H172 C198 0.950 . S
H173 C200 0.950 . S
H174 C203 0.950 . S
H175 C204 0.950 1_545 S
H176 C206 0.950 . S
H177 C207 0.950 . S
C178 H160 0.951 . S
C178 C179 1.366 1_544 S
C178 C180 1.389 . S
C179 C178 1.366 1_566 S
C179 C183 1.385 . S
C180 H161 0.956 . S
C180 C178 1.389 . S
C180 C181 1.361 1_554 S
C181 C180 1.361 1_556 S
C181 C182 1.414 1_545 S
C181 C184 1.499 . S
C182 H162 0.950 . S
C182 C181 1.414 1_565 S
C182 C183 1.374 . S
C183 H163 0.950 . S
C183 C179 1.385 . S
C183 C182 1.374 . S
C184 C181 1.499 . S
C184 C185 1.379 1_656 S
C184 C186 1.389 1_655 S
C185 H164 0.943 1_545 S
C185 C184 1.379 1_454 S
C185 C201 1.379 . S
C186 C184 1.389 1_455 S
C186 C187 1.524 1_455 S
C186 C200 1.377 . S
C187 C186 1.524 1_655 S
C187 C188 1.397 . S
C187 C192 1.363 . S
C188 H165 0.950 . S
C188 C187 1.397 . S
C188 C189 1.334 . S
C189 H166 0.950 . S
C189 C188 1.334 . S
C189 C190 1.287 . S
C190 C189 1.287 . S
C190 C191 1.524 . S
C190 H209 0.913 . S
C191 H167 0.950 . S
C191 C190 1.524 . S
C191 C192 1.415 . S
C192 H168 0.950 . S
C192 C187 1.363 . S
C192 C191 1.415 . S
C193 H169 0.951 . S
C193 C194 1.366 . S
C193 C195 1.388 . S
C194 C193 1.366 . S
C194 C198 1.385 1_556 S
C195 H170 0.951 1_545 S
C195 C193 1.388 . S
C195 C196 1.366 . S
C196 C195 1.366 . S
C196 C197 1.414 1_556 S
C196 C199 1.499 . S
C197 H171 0.950 . S
C197 C196 1.414 1_554 S
C197 C198 1.374 . S
C198 H172 0.950 . S
C198 C194 1.385 1_554 S
C198 C197 1.374 . S
C199 C196 1.499 . S
C199 C200 1.393 . S
C199 C201 1.372 1_556 S
C200 H173 0.950 . S
C200 C186 1.377 . S
C200 C199 1.393 . S
C201 C185 1.379 . S
C201 C199 1.372 1_554 S
C201 C202 1.524 1_545 S
C202 C201 1.524 1_565 S
C202 C203 1.397 1_565 S
C202 C207 1.363 . S
C203 H174 0.950 . S
C203 C202 1.397 1_545 S
C203 C204 1.334 1_545 S
C204 H175 0.950 1_565 S
C204 C203 1.334 1_565 S
C204 C205 1.287 . S
C205 C204 1.287 . S
C205 C206 1.524 . S
C205 H208 0.999 . S
C206 H176 0.950 . S
C206 C205 1.524 . S
C206 C207 1.415 . S
C207 H177 0.950 . S
C207 C202 1.363 . S
C207 C206 1.415 . S
H208 C205 0.999 . S
H209 C190 0.913 . S
H210 C228 0.951 . S
H211 C230 0.951 1_655 S
H212 C232 0.950 . S
H213 C233 0.950 . S
H214 C235 0.950 . S
H215 C238 0.950 . S
H216 C239 0.950 . S
H217 C241 0.950 . S
H218 C242 0.950 1_545 S
H219 C243 0.951 . S
H220 C245 0.951 . S
H221 C247 0.950 . S
H222 C248 0.950 . S
H223 C250 0.950 1_655 S
H224 C253 0.950 1_655 S
H225 C254 0.950 . S
H226 C256 0.950 . S
H227 C257 0.950 . S
C228 H210 0.951 . S
C228 C229 1.366 . S
C228 C230 1.388 . S
C229 C228 1.366 . S
C229 C233 1.385 . S
C230 H211 0.951 1_455 S
C230 C228 1.388 . S
C230 C231 1.366 . S
C231 C230 1.366 . S
C231 C232 1.414 . S
C231 C234 1.499 . S
C232 H212 0.950 . S
C232 C231 1.414 . S
C232 C233 1.374 . S
C233 H213 0.950 . S
C233 C229 1.385 . S
C233 C232 1.374 . S
C234 C231 1.499 . S
C234 C235 1.373 1_565 S
C234 C236 1.389 1_565 S
C235 H214 0.950 . S
C235 C234 1.373 1_545 S
C235 C251 1.377 . S
C236 C234 1.389 1_545 S
C236 C237 1.524 1_545 S
C236 C250 1.377 . S
C237 C236 1.524 1_565 S
C237 C238 1.397 . S
C237 C242 1.363 1_455 S
C238 H215 0.950 . S
C238 C237 1.397 . S
C238 C239 1.334 . S
C239 H216 0.950 . S
C239 C238 1.334 . S
C239 C240 1.287 . S
C240 C239 1.287 . S
C240 C241 1.524 1_455 S
C240 H259 0.913 1_455 S
C241 H217 0.950 . S
C241 C240 1.524 1_655 S
C241 C242 1.415 . S
C242 H218 0.950 1_565 S
C242 C237 1.363 1_655 S
C242 C241 1.415 . S
C243 H219 0.951 . S
C243 C244 1.366 1_455 S
C243 C245 1.388 . S
C244 C243 1.366 1_655 S
C244 C248 1.385 . S
C245 H220 0.951 . S
C245 C243 1.388 . S
C245 C246 1.366 . S
C246 C245 1.366 . S
C246 C247 1.414 1_455 S
C246 C249 1.499 . S
C247 H221 0.950 . S
C247 C246 1.414 1_655 S
C247 C248 1.374 . S
C248 H222 0.950 . S
C248 C244 1.385 . S
C248 C247 1.374 . S
C249 C246 1.499 . S
C249 C250 1.373 . S
C249 C251 1.389 . S
C250 H223 0.950 1_455 S
C250 C236 1.377 . S
C250 C249 1.373 . S
C251 C235 1.377 . S
C251 C249 1.389 . S
C251 C252 1.524 . S
C252 C251 1.524 . S
C252 C253 1.397 . S
C252 C257 1.363 . S
C253 H224 0.950 1_455 S
C253 C252 1.397 . S
C253 C254 1.334 . S
C254 H225 0.950 . S
C254 C253 1.334 . S
C254 C255 1.287 . S
C255 C254 1.287 . S
C255 C256 1.524 . S
C255 H258 0.999 . S
C256 H226 0.950 . S
C256 C255 1.524 . S
C256 C257 1.415 . S
C257 H227 0.950 . S
C257 C252 1.363 . S
C257 C256 1.415 . S
H258 C255 0.999 . S
H259 C240 0.913 1_655 S
H260 C278 0.951 . S
H261 C280 0.951 . S
H262 C282 0.950 . S
H263 C283 0.950 . S
H264 C285 0.950 . S
H265 C288 0.950 . S
H266 C289 0.950 . S
H267 C291 0.950 . S
H268 C292 0.950 . S
H269 C293 0.951 . S
H270 C295 0.951 1_565 S
H271 C297 0.950 . S
H272 C298 0.950 . S
H273 C300 0.950 . S
H274 C303 0.950 1_545 S
H275 C304 0.950 . S
H276 C306 0.950 . S
H277 C307 0.950 . S
C278 H260 0.951 . S
C278 C279 1.366 1_546 S
C278 C280 1.388 . S
C279 C278 1.366 1_564 S
C279 C283 1.385 . S
C280 H261 0.951 . S
C280 C278 1.388 . S
C280 C281 1.366 1_556 S
C281 C280 1.366 1_554 S
C281 C282 1.414 1_545 S
C281 C284 1.499 . S
C282 H262 0.950 . S
C282 C281 1.414 1_565 S
C282 C283 1.374 . S
C283 H263 0.950 . S
C283 C279 1.385 . S
C283 C282 1.374 . S
C284 C281 1.499 . S
C284 C285 1.373 1_544 S
C284 C286 1.389 . S
C285 H264 0.950 . S
C285 C284 1.373 1_566 S
C285 C301 1.377 1_565 S
C286 C284 1.389 . S
C286 C287 1.524 . S
C286 C300 1.377 . S
C287 C286 1.524 . S
C287 C288 1.397 . S
C287 C292 1.363 . S
C288 H265 0.950 . S
C288 C287 1.397 . S
C288 C289 1.334 . S
C289 H266 0.950 . S
C289 C288 1.334 . S
C289 C290 1.287 . S
C290 C289 1.287 . S
C290 C291 1.524 . S
C290 H309 0.913 . S
C291 H267 0.950 . S
C291 C290 1.524 . S
C291 C292 1.415 . S
C292 H268 0.950 . S
C292 C287 1.363 . S
C292 C291 1.415 . S
C293 H269 0.951 . S
C293 C294 1.366 . S
C293 C295 1.388 . S
C294 C293 1.366 . S
C294 C298 1.385 1_554 S
C295 H270 0.951 1_545 S
C295 C293 1.388 . S
C295 C296 1.366 . S
C296 C295 1.366 . S
C296 C297 1.414 1_554 S
C296 C299 1.499 . S
C297 H271 0.950 . S
C297 C296 1.414 1_556 S
C297 C298 1.374 . S
C298 H272 0.950 . S
C298 C294 1.385 1_556 S
C298 C297 1.374 . S
C299 C296 1.499 . S
C299 C300 1.373 . S
C299 C301 1.389 1_554 S
C300 H273 0.950 . S
C300 C286 1.377 . S
C300 C299 1.373 . S
C301 C285 1.377 1_545 S
C301 C299 1.389 1_556 S
C301 C302 1.524 1_545 S
C302 C301 1.524 1_565 S
C302 C303 1.397 . S
C302 C307 1.363 . S
C303 H274 0.950 1_565 S
C303 C302 1.397 . S
C303 C304 1.334 . S
C304 H275 0.950 . S
C304 C303 1.334 . S
C304 C305 1.287 . S
C305 C304 1.287 . S
C305 C306 1.524 . S
C305 H308 0.999 . S
C306 H276 0.950 . S
C306 C305 1.524 . S
C306 C307 1.415 . S
C307 H277 0.950 . S
C307 C302 1.363 . S
C307 C306 1.415 . S
H308 C305 0.999 . S
H309 C290 0.913 . S
H310 C328 0.951 . S
H311 C330 0.951 . S
H312 C332 0.950 . S
H313 C333 0.950 . S
H314 C335 0.950 . S
H315 C338 0.950 . S
H316 C339 0.950 . S
H317 C341 0.950 . S
H318 C342 0.950 . S
H319 C343 0.951 . S
H320 C345 0.951 . S
H321 C347 0.950 1_655 S
H322 C348 0.950 . S
H323 C350 0.950 . S
H324 C353 0.950 . S
H325 C354 0.950 . S
H326 C356 0.950 . S
H327 C357 0.950 . S
C328 H310 0.951 . S
C328 C329 1.366 . S
C328 C330 1.388 . S
C329 C328 1.366 . S
C329 C333 1.385 1_655 S
C330 H311 0.951 . S
C330 C328 1.388 . S
C330 C331 1.366 1_655 S
C331 C330 1.366 1_455 S
C331 C332 1.414 . S
C331 C334 1.499 . S
C332 H312 0.950 . S
C332 C331 1.414 . S
C332 C333 1.374 . S
C333 H313 0.950 . S
C333 C329 1.385 1_455 S
C333 C332 1.374 . S
C334 C331 1.499 . S
C334 C335 1.373 . S
C334 C336 1.389 . S
C335 H314 0.950 . S
C335 C334 1.373 . S
C335 C351 1.377 . S
C336 C334 1.389 . S
C336 C337 1.524 . S
C336 C350 1.377 . S
C337 C336 1.524 . S
C337 C338 1.397 . S
C337 C342 1.363 1_455 S
C338 H315 0.950 . S
C338 C337 1.397 . S
C338 C339 1.334 . S
C339 H316 0.950 . S
C339 C338 1.334 . S
C339 C340 1.287 1_455 S
C340 C339 1.287 1_655 S
C340 C341 1.524 . S
C340 H359 0.913 . S
C341 H317 0.950 . S
C341 C340 1.524 . S
C341 C342 1.415 . S
C342 H318 0.950 . S
C342 C337 1.363 1_655 S
C342 C341 1.415 . S
C343 H319 0.951 . S
C343 C344 1.366 . S
C343 C345 1.388 . S
C344 C343 1.366 . S
C344 C348 1.385 . S
C345 H320 0.951 . S
C345 C343 1.388 . S
C345 C346 1.366 . S
C346 C345 1.366 . S
C346 C347 1.414 . S
C346 C349 1.499 . S
C347 H321 0.950 1_455 S
C347 C346 1.414 . S
C347 C348 1.374 . S
C348 H322 0.950 . S
C348 C344 1.385 . S
C348 C347 1.374 . S
C349 C346 1.499 . S
C349 C350 1.373 . S
C349 C351 1.389 . S
C350 H323 0.950 . S
C350 C336 1.377 . S
C350 C349 1.373 . S
C351 C335 1.377 . S
C351 C349 1.389 . S
C351 C352 1.524 . S
C352 C351 1.524 . S
C352 C353 1.397 . S
C352 C357 1.363 . S
C353 H324 0.950 . S
C353 C352 1.397 . S
C353 C354 1.334 . S
C354 H325 0.950 . S
C354 C353 1.334 . S
C354 C355 1.287 . S
C355 C354 1.287 . S
C355 C356 1.524 . S
C355 H358 0.999 . S
C356 H326 0.950 . S
C356 C355 1.524 . S
C356 C357 1.415 . S
C357 H327 0.950 . S
C357 C352 1.363 . S
C357 C356 1.415 . S
H358 C355 0.999 . S
H359 C340 0.913 . S
H360 C378 0.951 . S
H361 C380 0.951 . S
H362 C382 0.950 . S
H363 C383 0.950 . S
H364 C385 0.950 . S
H365 C388 0.950 . S
H366 C389 0.950 . S
H367 C391 0.950 . S
H368 C392 0.950 . S
H369 C393 0.951 . S
H370 C395 0.951 . S
H371 C397 0.950 . S
H372 C398 0.950 . S
H373 C400 0.950 . S
H374 C403 0.950 . S
H375 C404 0.950 . S
H376 C406 0.950 . S
H377 C407 0.950 . S
C378 H360 0.951 . S
C378 C379 1.366 . S
C378 C380 1.388 . S
C379 C378 1.366 . S
C379 C383 1.385 . S
C380 H361 0.951 . S
C380 C378 1.388 . S
C380 C381 1.366 . S
C381 C380 1.366 . S
C381 C382 1.414 . S
C381 C384 1.499 . S
C382 H362 0.950 . S
C382 C381 1.414 . S
C382 C383 1.374 . S
C383 H363 0.950 . S
C383 C379 1.385 . S
C383 C382 1.374 . S
C384 C381 1.499 . S
C384 C385 1.373 . S
C384 C386 1.389 . S
C385 H364 0.950 . S
C385 C384 1.373 . S
C385 C401 1.377 . S
C386 C384 1.389 . S
C386 C387 1.524 . S
C386 C400 1.377 . S
C387 C386 1.524 . S
C387 C388 1.397 . S
C387 C392 1.363 . S
C388 H365 0.950 . S
C388 C387 1.397 . S
C388 C389 1.334 . S
C389 H366 0.950 . S
C389 C388 1.334 . S
C389 C390 1.287 . S
C390 C389 1.287 . S
C390 C391 1.524 . S
C390 H409 0.913 . S
C391 H367 0.950 . S
C391 C390 1.524 . S
C391 C392 1.415 . S
C392 H368 0.950 . S
C392 C387 1.363 . S
C392 C391 1.415 . S
C393 H369 0.951 . S
C393 C394 1.366 . S
C393 C395 1.388 . S
C394 C393 1.366 . S
C394 C398 1.385 . S
C395 H370 0.951 . S
C395 C393 1.388 . S
C395 C396 1.366 . S
C396 C395 1.366 . S
C396 C397 1.414 . S
C396 C399 1.499 . S
C397 H371 0.950 . S
C397 C396 1.414 . S
C397 C398 1.374 . S
C398 H372 0.950 . S
C398 C394 1.385 . S
C398 C397 1.374 . S
C399 C396 1.499 . S
C399 C400 1.373 . S
C399 C401 1.389 . S
C400 H373 0.950 . S
C400 C386 1.377 . S
C400 C399 1.373 . S
C401 C385 1.377 . S
C401 C399 1.389 . S
C401 C402 1.524 . S
C402 C401 1.524 . S
C402 C403 1.397 . S
C402 C407 1.363 . S
C403 H374 0.950 . S
C403 C402 1.397 . S
C403 C404 1.334 . S
C404 H375 0.950 . S
C404 C403 1.334 . S
C404 C405 1.287 . S
C405 C404 1.287 . S
C405 C406 1.524 . S
C405 H408 0.999 . S
C406 H376 0.950 . S
C406 C405 1.524 . S
C406 C407 1.415 . S
C407 H377 0.950 . S
C407 C402 1.363 . S
C407 C406 1.415 . S
H408 C405 0.999 . S
H409 C390 0.913 . S
H410 C428 0.951 . S
H411 C430 0.951 . S
H412 C432 0.950 . S
H413 C433 0.950 . S
H414 C435 0.950 . S
H415 C438 0.950 . S
H416 C439 0.950 . S
H417 C441 0.950 . S
H418 C442 0.950 . S
H419 C443 0.951 . S
H420 C445 0.951 . S
H421 C447 0.950 . S
H422 C448 0.950 . S
H423 C450 0.950 . S
H424 C453 0.950 . S
H425 C454 0.950 . S
H426 C456 0.950 . S
H427 C457 0.950 . S
C428 H410 0.951 . S
C428 C429 1.366 . S
C428 C430 1.388 . S
C429 C428 1.366 . S
C429 C433 1.385 . S
C430 H411 0.951 . S
C430 C428 1.388 . S
C430 C431 1.366 . S
C431 C430 1.366 . S
C431 C432 1.414 . S
C431 C434 1.499 . S
C432 H412 0.950 . S
C432 C431 1.414 . S
C432 C433 1.374 . S
C433 H413 0.950 . S
C433 C429 1.385 . S
C433 C432 1.374 . S
C434 C431 1.499 . S
C434 C435 1.373 . S
C434 C436 1.389 . S
C435 H414 0.950 . S
C435 C434 1.373 . S
C435 C451 1.377 . S
C436 C434 1.389 . S
C436 C437 1.524 . S
C436 C450 1.377 . S
C437 C436 1.524 . S
C437 C438 1.397 . S
C437 C442 1.363 . S
C438 H415 0.950 . S
C438 C437 1.397 . S
C438 C439 1.334 . S
C439 H416 0.950 . S
C439 C438 1.334 . S
C439 C440 1.287 . S
C440 C439 1.287 . S
C440 C441 1.524 . S
C440 H459 0.913 . S
C441 H417 0.950 . S
C441 C440 1.524 . S
C441 C442 1.415 . S
C442 H418 0.950 . S
C442 C437 1.363 . S
C442 C441 1.415 . S
C443 H419 0.951 . S
C443 C444 1.366 . S
C443 C445 1.388 . S
C444 C443 1.366 . S
C444 C448 1.385 . S
C445 H420 0.951 . S
C445 C443 1.388 . S
C445 C446 1.366 . S
C446 C445 1.366 . S
C446 C447 1.414 . S
C446 C449 1.499 . S
C447 H421 0.950 . S
C447 C446 1.414 . S
C447 C448 1.374 . S
C448 H422 0.950 . S
C448 C444 1.385 . S
C448 C447 1.374 . S
C449 C446 1.499 . S
C449 C450 1.373 . S
C449 C451 1.389 . S
C450 H423 0.950 . S
C450 C436 1.377 . S
C450 C449 1.373 . S
C451 C435 1.377 . S
C451 C449 1.389 . S
C451 C452 1.524 . S
C452 C451 1.524 . S
C452 C453 1.397 . S
C452 C457 1.363 . S
C453 H424 0.950 . S
C453 C452 1.397 . S
C453 C454 1.334 . S
C454 H425 0.950 . S
C454 C453 1.334 . S
C454 C455 1.287 . S
C455 C454 1.287 . S
C455 C456 1.524 . S
C455 H458 0.999 . S
C456 H426 0.950 . S
C456 C455 1.524 . S
C456 C457 1.415 . S
C457 H427 0.950 . S
C457 C452 1.363 . S
C457 C456 1.415 . S
H458 C455 0.999 . S
H459 C440 0.913 . S
H460 C478 0.951 . S
H461 C480 0.951 . S
H462 C482 0.950 . S
H463 C483 0.950 . S
H464 C485 0.950 . S
H465 C488 0.950 . S
H466 C489 0.950 . S
H467 C491 0.950 . S
H468 C492 0.950 . S
H469 C493 0.951 . S
H470 C495 0.951 . S
H471 C497 0.950 . S
H472 C498 0.950 . S
H473 C500 0.950 . S
H474 C503 0.950 . S
H475 C504 0.950 . S
H476 C506 0.950 . S
H477 C507 0.950 . S
C478 H460 0.951 . S
C478 C479 1.366 . S
C478 C480 1.388 . S
C479 C478 1.366 . S
C479 C483 1.385 . S
C480 H461 0.951 . S
C480 C478 1.388 . S
C480 C481 1.366 . S
C481 C480 1.366 . S
C481 C482 1.414 . S
C481 C484 1.499 . S
C482 H462 0.950 . S
C482 C481 1.414 . S
C482 C483 1.374 . S
C483 H463 0.950 . S
C483 C479 1.385 . S
C483 C482 1.374 . S
C484 C481 1.499 . S
C484 C485 1.373 . S
C484 C486 1.389 . S
C485 H464 0.950 . S
C485 C484 1.373 . S
C485 C501 1.377 . S
C486 C484 1.389 . S
C486 C487 1.524 . S
C486 C500 1.377 . S
C487 C486 1.524 . S
C487 C488 1.397 1_655 S
C487 C492 1.363 . S
C488 H465 0.950 . S
C488 C487 1.397 1_455 S
C488 C489 1.334 . S
C489 H466 0.950 . S
C489 C488 1.334 . S
C489 C490 1.287 . S
C490 C489 1.287 . S
C490 C491 1.524 1_455 S
C490 H509 0.913 . S
C491 H467 0.950 . S
C491 C490 1.524 1_655 S
C491 C492 1.415 . S
C492 H468 0.950 . S
C492 C487 1.363 . S
C492 C491 1.415 . S
C493 H469 0.951 . S
C493 C494 1.366 . S
C493 C495 1.388 . S
C494 C493 1.366 . S
C494 C498 1.385 . S
C495 H470 0.951 . S
C495 C493 1.388 . S
C495 C496 1.366 . S
C496 C495 1.366 . S
C496 C497 1.414 . S
C496 C499 1.499 . S
C497 H471 0.950 . S
C497 C496 1.414 . S
C497 C498 1.374 . S
C498 H472 0.950 . S
C498 C494 1.385 . S
C498 C497 1.374 . S
C499 C496 1.499 . S
C499 C500 1.373 . S
C499 C501 1.389 . S
C500 H473 0.950 . S
C500 C486 1.377 . S
C500 C499 1.373 . S
C501 C485 1.377 . S
C501 C499 1.389 . S
C501 C502 1.524 . S
C502 C501 1.524 . S
C502 C503 1.397 . S
C502 C507 1.363 . S
C503 H474 0.950 . S
C503 C502 1.397 . S
C503 C504 1.334 . S
C504 H475 0.950 . S
C504 C503 1.334 . S
C504 C505 1.287 . S
C505 C504 1.287 . S
C505 C506 1.524 1_565 S
C505 H508 0.999 1_565 S
C506 H476 0.950 . S
C506 C505 1.524 1_545 S
C506 C507 1.415 1_545 S
C507 H477 0.950 . S
C507 C502 1.363 . S
C507 C506 1.415 1_565 S
H508 C505 0.999 1_545 S
H509 C490 0.913 . S
H510 C528 0.951 . S
H511 C530 0.951 . S
H512 C532 0.950 . S
H513 C533 0.950 . S
H514 C535 0.950 . S
H515 C538 0.950 . S
H516 C539 0.950 . S
H517 C541 0.950 . S
H518 C542 0.950 . S
H519 C543 0.951 . S
H520 C545 0.951 . S
H521 C547 0.950 . S
H522 C548 0.950 . S
H523 C550 0.950 . S
H524 C553 0.950 . S
H525 C554 0.950 . S
H526 C556 0.950 . S
H527 C557 0.950 . S
C528 H510 0.951 . S
C528 C529 1.366 . S
C528 C530 1.388 . S
C529 C528 1.366 . S
C529 C533 1.385 . S
C530 H511 0.951 . S
C530 C528 1.388 . S
C530 C531 1.366 . S
C531 C530 1.366 . S
C531 C532 1.414 . S
C531 C534 1.499 . S
C532 H512 0.950 . S
C532 C531 1.414 . S
C532 C533 1.374 . S
C533 H513 0.950 . S
C533 C529 1.385 . S
C533 C532 1.374 . S
C534 C531 1.499 . S
C534 C535 1.373 . S
C534 C536 1.389 . S
C535 H514 0.950 . S
C535 C534 1.373 . S
C535 C551 1.377 . S
C536 C534 1.389 . S
C536 C537 1.524 . S
C536 C550 1.377 . S
C537 C536 1.524 . S
C537 C538 1.397 . S
C537 C542 1.363 . S
C538 H515 0.950 . S
C538 C537 1.397 . S
C538 C539 1.334 1_565 S
C539 H516 0.950 . S
C539 C538 1.334 1_545 S
C539 C540 1.287 . S
C540 C539 1.287 . S
C540 C541 1.524 . S
C540 H559 0.913 . S
C541 H517 0.950 . S
C541 C540 1.524 . S
C541 C542 1.415 1_545 S
C542 H518 0.950 . S
C542 C537 1.363 . S
C542 C541 1.415 1_565 S
C543 H519 0.951 . S
C543 C544 1.366 . S
C543 C545 1.388 . S
C544 C543 1.366 . S
C544 C548 1.385 . S
C545 H520 0.951 . S
C545 C543 1.388 . S
C545 C546 1.366 . S
C546 C545 1.366 . S
C546 C547 1.414 . S
C546 C549 1.499 . S
C547 H521 0.950 . S
C547 C546 1.414 . S
C547 C548 1.374 . S
C548 H522 0.950 . S
C548 C544 1.385 . S
C548 C547 1.374 . S
C549 C546 1.499 . S
C549 C550 1.373 . S
C549 C551 1.389 . S
C550 H523 0.950 . S
C550 C536 1.377 . S
C550 C549 1.373 . S
C551 C535 1.377 . S
C551 C549 1.389 . S
C551 C552 1.524 . S
C552 C551 1.524 . S
C552 C553 1.397 . S
C552 C557 1.363 . S
C553 H524 0.950 . S
C553 C552 1.397 . S
C553 C554 1.334 . S
C554 H525 0.950 . S
C554 C553 1.334 . S
C554 C555 1.287 . S
C555 C554 1.287 . S
C555 C556 1.524 . S
C555 H558 0.999 . S
C556 H526 0.950 . S
C556 C555 1.524 . S
C556 C557 1.415 . S
C557 H527 0.950 . S
C557 C552 1.363 . S
C557 C556 1.415 . S
H558 C555 0.999 . S
H559 C540 0.913 . S
H560 C578 0.951 . S
H561 C580 0.951 . S
H562 C582 0.950 . S
H563 C583 0.950 . S
H564 C585 0.950 . S
H565 C588 0.950 . S
H566 C589 0.950 . S
H567 C591 0.950 1_455 S
H568 C592 0.950 . S
H569 C593 0.951 . S
H570 C595 0.951 . S
H571 C597 0.950 . S
H572 C598 0.950 1_455 S
H573 C600 0.950 . S
H574 C603 0.950 . S
H575 C604 0.950 . S
H576 C606 0.950 . S
H577 C607 0.950 . S
C578 H560 0.951 . S
C578 C579 1.366 . S
C578 C580 1.388 . S
C579 C578 1.366 . S
C579 C583 1.385 . S
C580 H561 0.951 . S
C580 C578 1.388 . S
C580 C581 1.366 . S
C581 C580 1.366 . S
C581 C582 1.414 . S
C581 C584 1.499 . S
C582 H562 0.950 . S
C582 C581 1.414 . S
C582 C583 1.374 . S
C583 H563 0.950 . S
C583 C579 1.385 . S
C583 C582 1.374 . S
C584 C581 1.499 . S
C584 C585 1.373 . S
C584 C586 1.389 . S
C585 H564 0.950 . S
C585 C584 1.373 . S
C585 C601 1.377 . S
C586 C584 1.389 . S
C586 C587 1.524 . S
C586 C600 1.377 . S
C587 C586 1.524 . S
C587 C588 1.397 . S
C587 C592 1.363 . S
C588 H565 0.950 . S
C588 C587 1.397 . S
C588 C589 1.334 . S
C589 H566 0.950 . S
C589 C588 1.334 . S
C589 C590 1.287 . S
C590 C589 1.287 . S
C590 C591 1.524 . S
C590 H609 0.913 . S
C591 H567 0.950 1_655 S
C591 C590 1.524 . S
C591 C592 1.415 . S
C592 H568 0.950 . S
C592 C587 1.363 . S
C592 C591 1.415 . S
C593 H569 0.951 . S
C593 C594 1.366 . S
C593 C595 1.388 . S
C594 C593 1.366 . S
C594 C598 1.385 . S
C595 H570 0.951 . S
C595 C593 1.388 . S
C595 C596 1.366 . S
C596 C595 1.366 . S
C596 C597 1.414 . S
C596 C599 1.499 . S
C597 H571 0.950 . S
C597 C596 1.414 . S
C597 C598 1.374 . S
C598 H572 0.950 1_655 S
C598 C594 1.385 . S
C598 C597 1.374 . S
C599 C596 1.499 . S
C599 C600 1.373 . S
C599 C601 1.389 . S
C600 H573 0.950 . S
C600 C586 1.377 . S
C600 C599 1.373 . S
C601 C585 1.377 . S
C601 C599 1.389 . S
C601 C602 1.524 . S
C602 C601 1.524 . S
C602 C603 1.397 . S
C602 C607 1.363 . S
C603 H574 0.950 . S
C603 C602 1.397 . S
C603 C604 1.334 . S
C604 H575 0.950 . S
C604 C603 1.334 . S
C604 C605 1.287 . S
C605 C604 1.287 . S
C605 C606 1.524 . S
C605 H608 0.999 . S
C606 H576 0.950 . S
C606 C605 1.524 . S
C606 C607 1.415 . S
C607 H577 0.950 . S
C607 C602 1.363 . S
C607 C606 1.415 . S
H608 C605 0.999 . S
H609 C590 0.913 . S
H610 C628 0.951 . S
H611 C630 0.951 . S
H612 C632 0.950 . S
H613 C633 0.950 . S
H614 C635 0.950 . S
H615 C638 0.950 . S
H616 C639 0.950 . S
H617 C641 0.950 . S
H618 C642 0.950 . S
H619 C643 0.951 . S
H620 C645 0.951 . S
H621 C647 0.950 . S
H622 C648 0.950 . S
H623 C650 0.950 . S
H624 C653 0.950 . S
H625 C654 0.950 . S
H626 C656 0.950 . S
H627 C657 0.950 . S
C628 H610 0.951 . S
C628 C629 1.366 . S
C628 C630 1.388 . S
C629 C628 1.366 . S
C629 C633 1.385 . S
C630 H611 0.951 . S
C630 C628 1.388 . S
C630 C631 1.366 . S
C631 C630 1.366 . S
C631 C632 1.414 . S
C631 C634 1.499 . S
C632 H612 0.950 . S
C632 C631 1.414 . S
C632 C633 1.374 . S
C633 H613 0.950 . S
C633 C629 1.385 . S
C633 C632 1.374 . S
C634 C631 1.499 . S
C634 C635 1.373 . S
C634 C636 1.389 . S
C635 H614 0.950 . S
C635 C634 1.373 . S
C635 C651 1.377 . S
C636 C634 1.389 . S
C636 C637 1.524 . S
C636 C650 1.377 . S
C637 C636 1.524 . S
C637 C638 1.397 . S
C637 C642 1.363 . S
C638 H615 0.950 . S
C638 C637 1.397 . S
C638 C639 1.334 . S
C639 H616 0.950 . S
C639 C638 1.334 . S
C639 C640 1.287 . S
C640 C639 1.287 . S
C640 C641 1.524 . S
C640 H659 0.913 . S
C641 H617 0.950 . S
C641 C640 1.524 . S
C641 C642 1.415 . S
C642 H618 0.950 . S
C642 C637 1.363 . S
C642 C641 1.415 . S
C643 H619 0.951 . S
C643 C644 1.366 . S
C643 C645 1.388 . S
C644 C643 1.366 . S
C644 C648 1.385 . S
C645 H620 0.951 . S
C645 C643 1.388 . S
C645 C646 1.366 . S
C646 C645 1.366 . S
C646 C647 1.414 . S
C646 C649 1.499 . S
C647 H621 0.950 . S
C647 C646 1.414 . S
C647 C648 1.374 . S
C648 H622 0.950 . S
C648 C644 1.385 . S
C648 C647 1.374 . S
C649 C646 1.499 . S
C649 C650 1.373 . S
C649 C651 1.389 . S
C650 H623 0.950 . S
C650 C636 1.377 . S
C650 C649 1.373 . S
C651 C635 1.377 . S
C651 C649 1.389 . S
C651 C652 1.524 . S
C652 C651 1.524 . S
C652 C653 1.397 . S
C652 C657 1.363 . S
C653 H624 0.950 . S
C653 C652 1.397 . S
C653 C654 1.334 . S
C654 H625 0.950 . S
C654 C653 1.334 . S
C654 C655 1.287 . S
C655 C654 1.287 . S
C655 C656 1.524 . S
C655 H658 0.999 . S
C656 H626 0.950 . S
C656 C655 1.524 . S
C656 C657 1.415 . S
C657 H627 0.950 . S
C657 C652 1.363 . S
C657 C656 1.415 . S
H658 C655 0.999 . S
H659 C640 0.913 . S
H660 C678 0.951 . S
H661 C680 0.951 . S
H662 C682 0.950 . S
H663 C683 0.950 . S
H664 C685 0.950 . S
H665 C688 0.950 . S
H666 C689 0.950 . S
H667 C691 0.950 . S
H668 C692 0.950 . S
H669 C693 0.951 . S
H670 C695 0.951 . S
H671 C697 0.950 . S
H672 C698 0.950 . S
H673 C700 0.950 . S
H674 C703 0.950 . S
H675 C704 0.950 . S
H676 C706 0.950 . S
H677 C707 0.950 . S
C678 H660 0.951 . S
C678 C679 1.366 . S
C678 C680 1.388 . S
C679 C678 1.366 . S
C679 C683 1.385 . S
C680 H661 0.951 . S
C680 C678 1.388 . S
C680 C681 1.366 . S
C681 C680 1.366 . S
C681 C682 1.414 . S
C681 C684 1.499 . S
C682 H662 0.950 . S
C682 C681 1.414 . S
C682 C683 1.374 . S
C683 H663 0.950 . S
C683 C679 1.385 . S
C683 C682 1.374 . S
C684 C681 1.499 . S
C684 C685 1.373 . S
C684 C686 1.389 . S
C685 H664 0.950 . S
C685 C684 1.373 . S
C685 C701 1.377 . S
C686 C684 1.389 . S
C686 C687 1.524 . S
C686 C700 1.377 . S
C687 C686 1.524 . S
C687 C688 1.397 . S
C687 C692 1.363 . S
C688 H665 0.950 . S
C688 C687 1.397 . S
C688 C689 1.334 . S
C689 H666 0.950 . S
C689 C688 1.334 . S
C689 C690 1.287 . S
C690 C689 1.287 . S
C690 C691 1.524 . S
C690 H709 0.913 . S
C691 H667 0.950 . S
C691 C690 1.524 . S
C691 C692 1.415 . S
C692 H668 0.950 . S
C692 C687 1.363 . S
C692 C691 1.415 . S
C693 H669 0.951 . S
C693 C694 1.366 . S
C693 C695 1.388 . S
C694 C693 1.366 . S
C694 C698 1.385 . S
C695 H670 0.951 . S
C695 C693 1.388 . S
C695 C696 1.366 . S
C696 C695 1.366 . S
C696 C697 1.414 . S
C696 C699 1.499 . S
C697 H671 0.950 . S
C697 C696 1.414 . S
C697 C698 1.374 . S
C698 H672 0.950 . S
C698 C694 1.385 . S
C698 C697 1.374 . S
C699 C696 1.499 . S
C699 C700 1.373 . S
C699 C701 1.389 . S
C700 H673 0.950 . S
C700 C686 1.377 . S
C700 C699 1.373 . S
C701 C685 1.377 . S
C701 C699 1.389 . S
C701 C702 1.524 . S
C702 C701 1.524 . S
C702 C703 1.397 . S
C702 C707 1.363 . S
C703 H674 0.950 . S
C703 C702 1.397 . S
C703 C704 1.334 . S
C704 H675 0.950 . S
C704 C703 1.334 . S
C704 C705 1.287 . S
C705 C704 1.287 . S
C705 C706 1.524 . S
C705 H708 0.999 . S
C706 H676 0.950 . S
C706 C705 1.524 . S
C706 C707 1.415 . S
C707 H677 0.950 . S
C707 C702 1.363 . S
C707 C706 1.415 . S
H708 C705 0.999 . S
H709 C690 0.913 . S
H710 C728 0.951 . S
H711 C730 0.951 . S
H712 C732 0.950 . S
H713 C733 0.950 . S
H714 C735 0.950 . S
H715 C738 0.950 . S
H716 C739 0.950 . S
H717 C741 0.950 . S
H718 C742 0.950 . S
H719 C743 0.951 . S
H720 C745 0.951 . S
H721 C747 0.950 . S
H722 C748 0.950 . S
H723 C750 0.950 . S
H724 C753 0.950 . S
H725 C754 0.950 . S
H726 C756 0.950 . S
H727 C757 0.950 . S
C728 H710 0.951 . S
C728 C729 1.366 . S
C728 C730 1.388 . S
C729 C728 1.366 . S
C729 C733 1.385 . S
C730 H711 0.951 . S
C730 C728 1.388 . S
C730 C731 1.366 . S
C731 C730 1.366 . S
C731 C732 1.414 . S
C731 C734 1.499 . S
C732 H712 0.950 . S
C732 C731 1.414 . S
C732 C733 1.374 . S
C733 H713 0.950 . S
C733 C729 1.385 . S
C733 C732 1.374 . S
C734 C731 1.499 . S
C734 C735 1.373 . S
C734 C736 1.389 . S
C735 H714 0.950 . S
C735 C734 1.373 . S
C735 C751 1.377 . S
C736 C734 1.389 . S
C736 C737 1.524 . S
C736 C750 1.377 . S
C737 C736 1.524 . S
C737 C738 1.397 . S
C737 C742 1.363 . S
C738 H715 0.950 . S
C738 C737 1.397 . S
C738 C739 1.334 . S
C739 H716 0.950 . S
C739 C738 1.334 . S
C739 C740 1.287 . S
C740 C739 1.287 . S
C740 C741 1.524 . S
C740 H759 0.913 . S
C741 H717 0.950 . S
C741 C740 1.524 . S
C741 C742 1.415 . S
C742 H718 0.950 . S
C742 C737 1.363 . S
C742 C741 1.415 . S
C743 H719 0.951 . S
C743 C744 1.366 . S
C743 C745 1.388 . S
C744 C743 1.366 . S
C744 C748 1.385 . S
C745 H720 0.951 . S
C745 C743 1.388 . S
C745 C746 1.366 . S
C746 C745 1.366 . S
C746 C747 1.414 . S
C746 C749 1.499 . S
C747 H721 0.950 . S
C747 C746 1.414 . S
C747 C748 1.374 . S
C748 H722 0.950 . S
C748 C744 1.385 . S
C748 C747 1.374 . S
C749 C746 1.499 . S
C749 C750 1.373 . S
C749 C751 1.389 . S
C750 H723 0.950 . S
C750 C736 1.377 . S
C750 C749 1.373 . S
C751 C735 1.377 . S
C751 C749 1.389 . S
C751 C752 1.524 . S
C752 C751 1.524 . S
C752 C753 1.397 . S
C752 C757 1.363 . S
C753 H724 0.950 . S
C753 C752 1.397 . S
C753 C754 1.334 . S
C754 H725 0.950 . S
C754 C753 1.334 . S
C754 C755 1.287 . S
C755 C754 1.287 . S
C755 C756 1.524 . S
C755 H758 0.999 . S
C756 H726 0.950 . S
C756 C755 1.524 . S
C756 C757 1.415 . S
C757 H727 0.950 . S
C757 C752 1.363 . S
C757 C756 1.415 . S
H758 C755 0.999 . S
H759 C740 0.913 . S
C179 C90 0.986 1_566 S
C194 C10 0.989 1_556 S
C229 C130 0.986 . S
C244 C50 0.988 1_655 S
C279 C99 0.794 . S
C294 C19 0.794 . S
C329 C59 0.796 . S
C344 C139 0.793 . S
C379 C51 4.595 . S
C394 C2 4.491 . S
C429 C42 4.492 . S
C444 C91 4.595 . S
C479 C131 4.595 1_655 S
C494 C82 4.492 . S
C529 C122 4.492 . S
C544 C11 4.596 1_565 S
C579 C96 1.046 . S
C594 C127 1.068 . S
C629 C7 1.070 . S
C644 C136 1.046 . S
C679 C47 1.070 . S
C694 C16 1.047 . S
C729 C87 1.071 . S
C744 C56 1.046 . S
