# Generated by pormake.
# Topology mok, (4)-cn, num edge types: 1
# Building blocks:
#     Node 0, Type 0, BuildingBlock: GALJAG_clean_sbu_0, # of connection points: 4
#     Node 1, Type 0, BuildingBlock: GALJAG_clean_sbu_0, # of connection points: 4
#     Node 2, Type 0, BuildingBlock: GALJAG_clean_sbu_0, # of connection points: 4
#     Node 3, Type 0, BuildingBlock: GALJAG_clean_sbu_0, # of connection points: 4
#     Node 4, Type 0, BuildingBlock: GALJAG_clean_sbu_0, # of connection points: 4
#     Node 5, Type 0, BuildingBlock: GALJAG_clean_sbu_0, # of connection points: 4
#     Node 6, Type 0, BuildingBlock: GALJAG_clean_sbu_0, # of connection points: 4
#     Node 7, Type 0, BuildingBlock: GALJAG_clean_sbu_0, # of connection points: 4
#     Edge 8, Type (0, 0), BuildingBlock: MIFKUJ_clean_linker_0, # of connection points: 2
#     Edge 9, Type (0, 0), BuildingBlock: MIFKUJ_clean_linker_0, # of connection points: 2
#     Edge 10, Type (0, 0), BuildingBlock: MIFKUJ_clean_linker_0, # of connection points: 2
#     Edge 11, Type (0, 0), BuildingBlock: MIFKUJ_clean_linker_0, # of connection points: 2
#     Edge 12, Type (0, 0), BuildingBlock: MIFKUJ_clean_linker_0, # of connection points: 2
#     Edge 13, Type (0, 0), BuildingBlock: MIFKUJ_clean_linker_0, # of connection points: 2
#     Edge 14, Type (0, 0), BuildingBlock: MIFKUJ_clean_linker_0, # of connection points: 2
#     Edge 15, Type (0, 0), BuildingBlock: MIFKUJ_clean_linker_0, # of connection points: 2
#     Edge 16, Type (0, 0), BuildingBlock: MIFKUJ_clean_linker_0, # of connection points: 2
#     Edge 17, Type (0, 0), BuildingBlock: MIFKUJ_clean_linker_0, # of connection points: 2
#     Edge 18, Type (0, 0), BuildingBlock: MIFKUJ_clean_linker_0, # of connection points: 2
#     Edge 19, Type (0, 0), BuildingBlock: MIFKUJ_clean_linker_0, # of connection points: 2
#     Edge 20, Type (0, 0), BuildingBlock: MIFKUJ_clean_linker_0, # of connection points: 2
#     Edge 21, Type (0, 0), BuildingBlock: MIFKUJ_clean_linker_0, # of connection points: 2
#     Edge 22, Type (0, 0), BuildingBlock: MIFKUJ_clean_linker_0, # of connection points: 2
#     Edge 23, Type (0, 0), BuildingBlock: MIFKUJ_clean_linker_0, # of connection points: 2
# Relax obj value: 0.070
# Max RMSD: 0.103
# Mean RMSD: 0.103
data_MOF--net-mok--node1-GALJAG_clean_sbu_0--edge1-MIFKUJ_clean_linker_0
_symmetry_space_group_name_H-M    P1
_symmetry_Int_Tables_number       1
_symmetry_cell_setting            triclinic
loop_
_symmetry_equiv_pos_as_xyz
'x, y, z'
_cell_length_a     70.957377
_cell_length_b     17.969584
_cell_length_c     36.900337
_cell_angle_alpha  89.984718
_cell_angle_beta   90.048435
_cell_angle_gamma 90.033812
loop_
_atom_site_label
_atom_site_type_symbol
_atom_site_fract_x
_atom_site_fract_y
_atom_site_fract_z
_atom_type_partial_charge
In0 In 0.61178 0.31915 0.01519 0.0
O1 O 0.59875 0.41353 0.98214 0.0
O2 O 0.6208 0.3495 0.95835 0.0
C3 C 0.60365 0.36406 0.08288 0.0
C4 C 0.58529 0.2151 0.00294 0.0
C5 C 0.64911 0.29591 0.01861 0.0
O6 O 0.60569 0.40965 0.05711 0.0
O7 O 0.60562 0.2967 0.0743 0.0
O8 O 0.63788 0.24762 0.00606 0.0
O9 O 0.64142 0.35511 0.02957 0.0
C10 C 0.60906 0.40168 0.95485 0.0
O11 O 0.60122 0.19872 0.01598 0.0
O12 O 0.58309 0.28283 0.99536 0.0
In13 In 0.38823 0.69147 0.02854 0.0
O14 O 0.40104 0.80765 0.02534 0.0
O15 O 0.41828 0.71794 0.04377 0.0
C16 C 0.35122 0.71374 0.01745 0.0
C17 C 0.39857 0.63298 0.96464 0.0
C18 C 0.38766 0.63589 0.09596 0.0
O19 O 0.36234 0.7668 0.02458 0.0
O20 O 0.35887 0.65054 0.01566 0.0
O21 O 0.39372 0.59845 0.06936 0.0
O22 O 0.38181 0.70026 0.08823 0.0
C23 C 0.41706 0.78631 0.03628 0.0
O24 O 0.39507 0.59233 0.99181 0.0
O25 O 0.39683 0.7019 0.96996 0.0
In26 In 0.60753 0.6619 0.51723 0.0
O27 O 0.5981 0.57449 0.55861 0.0
O28 O 0.61497 0.66566 0.57648 0.0
C29 C 0.60088 0.60355 0.45159 0.0
C30 C 0.57863 0.7571 0.52326 0.0
C31 C 0.64465 0.68487 0.50988 0.0
O32 O 0.60219 0.56293 0.47951 0.0
O33 O 0.60289 0.67233 0.45716 0.0
O34 O 0.63304 0.73817 0.5118 0.0
O35 O 0.63744 0.62066 0.51145 0.0
C36 C 0.60614 0.6072 0.58473 0.0
O37 O 0.59546 0.77964 0.52043 0.0
O38 O 0.57661 0.68739 0.52303 0.0
In39 In 0.38819 0.33088 0.53149 0.0
O40 O 0.4007 0.21408 0.53271 0.0
O41 O 0.41936 0.30724 0.53399 0.0
C42 C 0.35085 0.30689 0.52811 0.0
C43 C 0.3924 0.38674 0.59842 0.0
C44 C 0.39311 0.38836 0.46505 0.0
O45 O 0.36257 0.25389 0.5288 0.0
O46 O 0.35804 0.37105 0.52934 0.0
O47 O 0.39163 0.4294 0.49275 0.0
O48 O 0.39224 0.31941 0.47116 0.0
C49 C 0.41753 0.23737 0.53403 0.0
O50 O 0.39693 0.42348 0.5705 0.0
O51 O 0.38551 0.32327 0.59227 0.0
In52 In 0.11278 0.81634 0.01288 0.0
O53 O 0.09935 0.70109 0.01558 0.0
O54 O 0.08148 0.79578 0.00962 0.0
C55 C 0.15014 0.79294 0.01487 0.0
C56 C 0.11001 0.86915 0.94508 0.0
C57 C 0.1076 0.8757 0.07878 0.0
O58 O 0.1385 0.73975 0.01275 0.0
O59 O 0.14285 0.85688 0.01627 0.0
O60 O 0.1067 0.91476 0.05028 0.0
O61 O 0.11117 0.80771 0.07374 0.0
C62 C 0.08274 0.72599 0.01259 0.0
O63 O 0.10712 0.91012 0.97242 0.0
O64 O 0.11423 0.80258 0.95223 0.0
In65 In 0.88692 0.17844 0.00711 0.0
O66 O 0.89126 0.08287 0.96716 0.0
O67 O 0.88967 0.19348 0.9465 0.0
C68 C 0.89032 0.11596 0.07295 0.0
C69 C 0.91712 0.26777 0.00999 0.0
C70 C 0.84976 0.20802 0.00626 0.0
O71 O 0.89185 0.07796 0.04425 0.0
O72 O 0.88696 0.18412 0.06813 0.0
O73 O 0.8619 0.25847 0.01123 0.0
O74 O 0.85642 0.14372 0.0017 0.0
C75 C 0.89153 0.12508 0.93972 0.0
O76 O 0.90056 0.29324 0.00715 0.0
O77 O 0.9183 0.19767 0.01101 0.0
In78 In 0.11276 0.19068 0.51195 0.0
O79 O 0.10848 0.09264 0.55053 0.0
O80 O 0.11228 0.20132 0.57273 0.0
C81 C 0.10796 0.13937 0.44438 0.0
C82 C 0.08197 0.27635 0.5144 0.0
C83 C 0.15009 0.21496 0.51126 0.0
O84 O 0.10668 0.09704 0.47171 0.0
O85 O 0.11172 0.20647 0.45143 0.0
O86 O 0.13839 0.2681 0.51222 0.0
O87 O 0.14286 0.15086 0.51058 0.0
C88 C 0.10952 0.13301 0.57859 0.0
O89 O 0.09838 0.30419 0.51365 0.0
O90 O 0.08132 0.20614 0.51377 0.0
In91 In 0.88274 0.80202 0.50702 0.0
O92 O 0.89648 0.68748 0.51123 0.0
O93 O 0.91407 0.78385 0.51099 0.0
C94 C 0.84544 0.7787 0.50336 0.0
C95 C 0.88454 0.86303 0.57328 0.0
C96 C 0.88827 0.8507 0.43915 0.0
O97 O 0.85704 0.72544 0.50593 0.0
O98 O 0.85275 0.84273 0.50265 0.0
O99 O 0.88944 0.89388 0.46618 0.0
O100 O 0.88435 0.78396 0.44665 0.0
C101 C 0.91302 0.71382 0.51251 0.0
O102 O 0.88808 0.9005 0.54502 0.0
O103 O 0.88007 0.79603 0.56774 0.0
H104 H 0.82214 0.11272 0.98527 0.0
H105 H 0.78813 0.13292 0.98697 0.0
H106 H 0.79698 0.35382 0.02944 0.0
H107 H 0.83122 0.33412 0.0276 0.0
H108 H 0.76982 0.26932 0.06767 0.0
H109 H 0.78401 0.33979 0.94551 0.0
H110 H 0.79784 0.32464 0.8847 0.0
H111 H 0.76433 0.12881 0.86739 0.0
H112 H 0.75049 0.14214 0.92836 0.0
H113 H 0.67543 0.39187 0.04499 0.0
H114 H 0.70966 0.37848 0.04329 0.0
H115 H 0.70367 0.16442 0.99158 0.0
H116 H 0.66931 0.17786 0.99282 0.0
H117 H 0.72967 0.24974 0.95788 0.0
H118 H 0.7161 0.17564 0.07967 0.0
H119 H 0.70241 0.18737 0.14079 0.0
H120 H 0.73479 0.38571 0.15926 0.0
H121 H 0.74849 0.37576 0.098 0.0
C122 C 0.81687 0.16577 0.99482 0.0
C123 C 0.82929 0.22195 0.00628 0.0
C124 C 0.79745 0.17724 0.99566 0.0
C125 C 0.79011 0.24496 0.00812 0.0
C126 C 0.80245 0.30123 0.01968 0.0
C127 C 0.82194 0.29004 0.01849 0.0
C128 C 0.76948 0.2558 0.0097 0.0
C129 C 0.76103 0.26638 0.04364 0.0
C130 C 0.75808 0.2497 0.97839 0.0
C131 C 0.76634 0.24159 0.94166 0.0
C132 C 0.77971 0.29311 0.92887 0.0
C133 C 0.78753 0.28493 0.89435 0.0
C134 C 0.782 0.22569 0.87223 0.0
C135 C 0.76861 0.17461 0.88457 0.0
C136 C 0.76076 0.1825 0.9191 0.0
C137 C 0.68139 0.34172 0.03345 0.0
C138 C 0.66972 0.28581 0.01908 0.0
C139 C 0.70095 0.33407 0.0326 0.0
C140 C 0.70918 0.27021 0.01757 0.0
C141 C 0.69756 0.21412 0.00332 0.0
C142 C 0.67797 0.22172 0.00417 0.0
C143 C 0.72994 0.26297 0.01591 0.0
C144 C 0.73844 0.25301 0.98194 0.0
C145 C 0.74137 0.26922 0.04723 0.0
C146 C 0.73317 0.27538 0.08409 0.0
C147 C 0.72018 0.22213 0.09664 0.0
C148 C 0.71244 0.22839 0.13133 0.0
C149 C 0.71769 0.28737 0.15385 0.0
C150 C 0.73072 0.34012 0.14175 0.0
C151 C 0.73849 0.33416 0.10706 0.0
H152 H 0.71168 0.2921 0.18071 0.0
H153 H 0.78807 0.21946 0.8455 0.0
H154 H 0.17704 0.89912 0.02354 0.0
H155 H 0.21116 0.88347 0.02161 0.0
H156 H 0.20406 0.64792 0.00336 0.0
H157 H 0.16973 0.66305 0.00597 0.0
H158 H 0.23123 0.67444 0.05229 0.0
H159 H 0.2158 0.76392 0.93386 0.0
H160 H 0.2013 0.84819 0.88909 0.0
H161 H 0.23438 0.03008 0.9298 0.0
H162 H 0.24889 0.94711 0.97519 0.0
H163 H 0.32542 0.60709 0.00101 0.0
H164 H 0.29122 0.62024 -0.002 0.0
H165 H 0.29632 0.85446 0.02174 0.0
H166 H 0.33071 0.84188 0.02442 0.0
H167 H 0.27015 0.8259 0.96829 0.0
H168 H 0.28481 0.73575 0.08789 0.0
H169 H 0.29936 0.65038 0.13211 0.0
H170 H 0.26762 0.468 0.08809 0.0
H171 H 0.25308 0.55215 0.04323 0.0
C172 C 0.18272 0.84392 0.01917 0.0
C173 C 0.17074 0.78229 0.01474 0.0
C174 C 0.20222 0.83515 0.01788 0.0
C175 C 0.21013 0.76477 0.01171 0.0
C176 C 0.19822 0.70279 0.00797 0.0
C177 C 0.17865 0.71148 0.00943 0.0
C178 C 0.23085 0.75613 0.00956 0.0
C179 C 0.23971 0.70667 0.03352 0.0
C180 C 0.24193 0.79941 0.98557 0.0
C181 C 0.23332 0.8494 0.95815 0.0
C182 C 0.21989 0.82201 0.93345 0.0
C183 C 0.21168 0.86952 0.90793 0.0
C184 C 0.21688 0.94448 0.90665 0.0
C185 C 0.23035 0.97202 0.93084 0.0
C186 C 0.23858 0.92476 0.95645 0.0
C187 C 0.31929 0.66155 0.00536 0.0
C188 C 0.3307 0.72342 0.01323 0.0
C189 C 0.29975 0.66887 0.00373 0.0
C190 C 0.29126 0.73805 0.0102 0.0
C191 C 0.30264 0.80054 0.0168 0.0
C192 C 0.32224 0.79326 0.0184 0.0
C193 C 0.27048 0.74449 0.01109 0.0
C194 C 0.26163 0.79353 0.98693 0.0
C195 C 0.2594 0.70066 0.0348 0.0
C196 C 0.26799 0.65012 0.06198 0.0
C197 C 0.28104 0.67734 0.08747 0.0
C198 C 0.28927 0.62919 0.11268 0.0
C199 C 0.28446 0.55378 0.11286 0.0
C200 C 0.27136 0.52641 0.08789 0.0
C201 C 0.2631 0.57432 0.06259 0.0
H202 H 0.29085 0.51659 0.13239 0.0
H203 H 0.21051 0.98118 0.88688 0.0
H204 H 0.81859 0.88591 0.49793 0.0
H205 H 0.78445 0.86964 0.49709 0.0
H206 H 0.79147 0.63169 0.50474 0.0
H207 H 0.82582 0.64753 0.50524 0.0
H208 H 0.76444 0.67247 0.45448 0.0
H209 H 0.77993 0.72887 0.57857 0.0
H210 H 0.79455 0.80244 0.62754 0.0
H211 H 0.76117 0.99196 0.59759 0.0
H212 H 0.74655 0.91985 0.54809 0.0
H213 H 0.67181 0.57823 0.50756 0.0
H214 H 0.70586 0.59592 0.50446 0.0
H215 H 0.69807 0.83402 0.50236 0.0
H216 H 0.66385 0.81667 0.50609 0.0
H217 H 0.72551 0.79473 0.54897 0.0
H218 H 0.70967 0.7408 0.42592 0.0
H219 H 0.69492 0.66991 0.37626 0.0
H220 H 0.72878 0.47953 0.40274 0.0
H221 H 0.74353 0.54894 0.453 0.0
C222 C 0.81289 0.83005 0.49935 0.0
C223 C 0.82485 0.76794 0.50187 0.0
C224 C 0.79338 0.82091 0.49896 0.0
C225 C 0.78546 0.74956 0.50132 0.0
C226 C 0.79735 0.68723 0.503 0.0
C227 C 0.81692 0.69635 0.50339 0.0
C228 C 0.76475 0.74043 0.50254 0.0
C229 C 0.75593 0.69829 0.4754 0.0
C230 C 0.75367 0.77599 0.5293 0.0
C231 C 0.76227 0.81912 0.5594 0.0
C232 C 0.7758 0.78638 0.58227 0.0
C233 C 0.78408 0.8278 0.61014 0.0
C234 C 0.77883 0.90187 0.61561 0.0
C235 C 0.76524 0.9346 0.59329 0.0
C236 C 0.75694 0.89346 0.56535 0.0
C237 C 0.67733 0.63439 0.5063 0.0
C238 C 0.66519 0.69612 0.50696 0.0
C239 C 0.69679 0.64438 0.50439 0.0
C240 C 0.70448 0.71625 0.50276 0.0
C241 C 0.6924 0.77808 0.50353 0.0
C242 C 0.67288 0.76811 0.50553 0.0
C243 C 0.72517 0.72657 0.50095 0.0
C244 C 0.734 0.76894 0.528 0.0
C245 C 0.73624 0.69157 0.47399 0.0
C246 C 0.72759 0.6499 0.44346 0.0
C247 C 0.71388 0.68365 0.42133 0.0
C248 C 0.70553 0.64375 0.39304 0.0
C249 C 0.71087 0.5702 0.38639 0.0
C250 C 0.72463 0.53649 0.40795 0.0
C251 C 0.73301 0.57611 0.43633 0.0
H252 H 0.70436 0.5394 0.36449 0.0
H253 H 0.78526 0.93389 0.63716 0.0
H254 H 0.177 0.10762 0.50948 0.0
H255 H 0.21111 0.12369 0.51133 0.0
H256 H 0.20406 0.36197 0.51565 0.0
H257 H 0.16971 0.3463 0.51343 0.0
H258 H 0.23194 0.31891 0.46799 0.0
H259 H 0.2143 0.26731 0.59138 0.0
H260 H 0.19909 0.19623 0.64052 0.0
H261 H 0.23302 0.00565 0.6149 0.0
H262 H 0.24823 0.0752 0.56523 0.0
H263 H 0.32373 0.41355 0.52572 0.0
H264 H 0.2897 0.39613 0.5215 0.0
H265 H 0.29736 0.15795 0.52061 0.0
H266 H 0.33158 0.17502 0.52527 0.0
H267 H 0.26921 0.19957 0.56592 0.0
H268 H 0.2869 0.24771 0.44334 0.0
H269 H 0.30235 0.3156 0.39347 0.0
H270 H 0.26859 0.50828 0.41611 0.0
H271 H 0.25312 0.44185 0.46649 0.0
C272 C 0.18268 0.16353 0.51077 0.0
C273 C 0.1707 0.22578 0.51151 0.0
C274 C 0.20218 0.17254 0.51194 0.0
C275 C 0.21008 0.24392 0.51412 0.0
C276 C 0.1982 0.30638 0.5141 0.0
C277 C 0.17862 0.29739 0.51292 0.0
C278 C 0.23077 0.25294 0.51666 0.0
C279 C 0.24008 0.2938 0.48967 0.0
C280 C 0.24139 0.21812 0.54439 0.0
C281 C 0.23229 0.17631 0.57437 0.0
C282 C 0.21841 0.21006 0.59603 0.0
C283 C 0.2098 0.17007 0.62401 0.0
C284 C 0.21507 0.09645 0.63078 0.0
C285 C 0.22895 0.06267 0.60961 0.0
C286 C 0.23758 0.10237 0.58156 0.0
C287 C 0.3182 0.35741 0.52461 0.0
C288 C 0.3303 0.29558 0.52574 0.0
C289 C 0.29875 0.34759 0.52204 0.0
C290 C 0.29104 0.27579 0.52029 0.0
C291 C 0.30306 0.21383 0.52183 0.0
C292 C 0.32257 0.22364 0.52441 0.0
C293 C 0.27038 0.26579 0.51732 0.0
C294 C 0.26108 0.22471 0.54422 0.0
C295 C 0.25979 0.29996 0.48938 0.0
C296 C 0.26897 0.34 0.45893 0.0
C297 C 0.28287 0.30475 0.43788 0.0
C298 C 0.29162 0.34294 0.40948 0.0
C299 C 0.28649 0.41628 0.40169 0.0
C300 C 0.27257 0.4515 0.42221 0.0
C301 C 0.26378 0.41357 0.45067 0.0
H302 H 0.29329 0.44576 0.3797 0.0
H303 H 0.20844 0.06565 0.65252 0.0
H304 H 0.59938 0.27438 0.14166 0.0
H305 H 0.59614 0.31193 0.20489 0.0
H306 H 0.5968 0.5428 0.17267 0.0
H307 H 0.60039 0.50552 0.1092 0.0
H308 H 0.62109 0.51567 0.227 0.0
H309 H 0.55625 0.45846 0.20121 0.0
H310 H 0.53034 0.37902 0.17903 0.0
H311 H 0.54369 0.21443 0.25939 0.0
H312 H 0.56987 0.29243 0.28173 0.0
H313 H 0.59597 0.68322 0.38995 0.0
H314 H 0.5938 0.63657 0.32813 0.0
H315 H 0.59723 0.41097 0.36756 0.0
H316 H 0.59928 0.45753 0.43007 0.0
H317 H 0.57083 0.43005 0.31074 0.0
H318 H 0.63562 0.48491 0.33607 0.0
H319 H 0.66233 0.56121 0.35736 0.0
H320 H 0.64961 0.72702 0.2772 0.0
H321 H 0.62266 0.6522 0.25575 0.0
C322 C 0.59866 0.33316 0.14799 0.0
C323 C 0.6002 0.38714 0.12058 0.0
C324 C 0.59672 0.35448 0.18412 0.0
C325 C 0.59609 0.43009 0.1934 0.0
C326 C 0.59725 0.48412 0.16599 0.0
C327 C 0.59924 0.46282 0.12981 0.0
C328 C 0.59536 0.45283 0.23188 0.0
C329 C 0.60994 0.49792 0.24515 0.0
C330 C 0.58115 0.42728 0.25578 0.0
C331 C 0.56513 0.38105 0.24295 0.0
C332 C 0.55373 0.40514 0.21403 0.0
C333 C 0.53899 0.36039 0.20143 0.0
C334 C 0.5354 0.29166 0.21774 0.0
C335 C 0.5465 0.26768 0.24678 0.0
C336 C 0.56128 0.31218 0.25944 0.0
C337 C 0.59611 0.62361 0.38559 0.0
C338 C 0.598 0.57394 0.41477 0.0
C339 C 0.59487 0.59711 0.35024 0.0
C340 C 0.59563 0.52049 0.34335 0.0
C341 C 0.59667 0.47037 0.37246 0.0
C342 C 0.5979 0.49697 0.40803 0.0
C343 C 0.59639 0.49386 0.30551 0.0
C344 C 0.58193 0.44781 0.29247 0.0
C345 C 0.61075 0.51817 0.28172 0.0
C346 C 0.62701 0.56322 0.29451 0.0
C347 C 0.63842 0.53792 0.32317 0.0
C348 C 0.65363 0.58085 0.33523 0.0
C349 C 0.65763 0.64899 0.31869 0.0
C350 C 0.64647 0.67426 0.29 0.0
C351 C 0.63125 0.63158 0.27786 0.0
H352 H 0.6694 0.68216 0.32803 0.0
H353 H 0.52401 0.25702 0.2079 0.0
H354 H 0.37594 0.70913 0.15629 0.0
H355 H 0.37781 0.66711 0.21908 0.0
H356 H 0.40225 0.45965 0.18384 0.0
H357 H 0.40031 0.50124 0.12063 0.0
H358 H 0.37436 0.44137 0.2356 0.0
H359 H 0.43 0.59148 0.21881 0.0
H360 H 0.44731 0.70492 0.20127 0.0
H361 H 0.41681 0.83092 0.28078 0.0
H362 H 0.39911 0.71842 0.29843 0.0
H363 H 0.40427 0.3128 0.40522 0.0
H364 H 0.40455 0.35685 0.34269 0.0
H365 H 0.38539 0.57279 0.37817 0.0
H366 H 0.38571 0.52947 0.44121 0.0
H367 H 0.4107 0.58741 0.326 0.0
H368 H 0.3545 0.44393 0.34227 0.0
H369 H 0.33573 0.33432 0.36002 0.0
H370 H 0.36525 0.2007 0.28209 0.0
H371 H 0.38437 0.30937 0.26419 0.0
C372 C 0.38166 0.65443 0.16185 0.0
C373 C 0.38807 0.60851 0.13361 0.0
C374 C 0.38279 0.63069 0.19775 0.0
C375 C 0.39041 0.56079 0.20606 0.0
C376 C 0.3964 0.51396 0.17789 0.0
C377 C 0.3953 0.53776 0.14188 0.0
C378 C 0.39214 0.53683 0.24425 0.0
C379 C 0.38253 0.47257 0.25529 0.0
C380 C 0.40232 0.57911 0.27004 0.0
C381 C 0.41312 0.64663 0.25973 0.0
C382 C 0.42689 0.64348 0.23238 0.0
C383 C 0.43679 0.7076 0.22244 0.0
C384 C 0.43314 0.77511 0.23985 0.0
C385 C 0.41962 0.7786 0.2673 0.0
C386 C 0.40966 0.71466 0.27731 0.0
C387 C 0.40027 0.36989 0.39972 0.0
C388 C 0.3948 0.41764 0.42793 0.0
C389 C 0.40035 0.39486 0.36398 0.0
C390 C 0.39455 0.46753 0.35569 0.0
C391 C 0.3898 0.51633 0.38398 0.0
C392 C 0.38998 0.4916 0.41992 0.0
C393 C 0.39298 0.49162 0.31741 0.0
C394 C 0.40256 0.55601 0.30634 0.0
C395 C 0.38257 0.44999 0.29164 0.0
C396 C 0.37098 0.38465 0.30212 0.0
C397 C 0.35707 0.39106 0.32908 0.0
C398 C 0.34636 0.32912 0.33914 0.0
C399 C 0.34932 0.26055 0.32225 0.0
C400 C 0.36297 0.25384 0.29517 0.0
C401 C 0.37374 0.31561 0.28503 0.0
H402 H 0.34102 0.21264 0.33009 0.0
H403 H 0.44081 0.8247 0.2321 0.0
H404 H 0.39227 0.49271 0.93876 0.0
H405 H 0.39586 0.45053 0.87607 0.0
H406 H 0.41914 0.66431 0.84681 0.0
H407 H 0.41494 0.70733 0.90902 0.0
H408 H 0.39246 0.63041 0.80234 0.0
H409 H 0.44615 0.50074 0.84813 0.0
H410 H 0.46393 0.41803 0.88906 0.0
H411 H 0.42842 0.23448 0.85911 0.0
H412 H 0.41025 0.3163 0.81836 0.0
H413 H 0.4092 0.51672 0.61984 0.0
H414 H 0.41462 0.55917 0.68213 0.0
H415 H 0.38777 0.3606 0.72293 0.0
H416 H 0.3826 0.31748 0.66105 0.0
H417 H 0.41958 0.39144 0.7601 0.0
H418 H 0.36426 0.52572 0.71933 0.0
H419 H 0.3466 0.60887 0.67837 0.0
H420 H 0.38609 0.78491 0.69926 0.0
H421 H 0.40412 0.70244 0.74002 0.0
C422 C 0.39846 0.53008 0.91903 0.0
C423 C 0.40319 0.60335 0.92855 0.0
C424 C 0.40059 0.5059 0.88326 0.0
C425 C 0.40785 0.55419 0.85672 0.0
C426 C 0.41342 0.62622 0.86675 0.0
C427 C 0.41104 0.65068 0.90229 0.0
C428 C 0.40798 0.53229 0.81798 0.0
C429 C 0.39876 0.57883 0.79304 0.0
C430 C 0.41583 0.4643 0.8059 0.0
C431 C 0.42674 0.41487 0.83039 0.0
C432 C 0.44203 0.44288 0.85047 0.0
C433 C 0.4522 0.39612 0.87361 0.0
C434 C 0.44728 0.32109 0.87674 0.0
C435 C 0.43221 0.29262 0.85668 0.0
C436 C 0.42198 0.33915 0.83352 0.0
C437 C 0.40444 0.48231 0.64213 0.0
C438 C 0.39539 0.41405 0.63564 0.0
C439 C 0.40754 0.50654 0.67764 0.0
C440 C 0.4015 0.46314 0.7071 0.0
C441 C 0.39261 0.39475 0.70059 0.0
C442 C 0.38957 0.37046 0.66521 0.0
C443 C 0.40394 0.48926 0.74484 0.0
C444 C 0.41357 0.44347 0.7695 0.0
C445 C 0.39653 0.55804 0.75673 0.0
C446 C 0.38564 0.60769 0.73239 0.0
C447 C 0.36925 0.58199 0.71498 0.0
C448 C 0.35916 0.62902 0.69184 0.0
C449 C 0.36525 0.70206 0.68614 0.0
C450 C 0.38141 0.72829 0.70365 0.0
C451 C 0.39156 0.68146 0.72679 0.0
H452 H 0.35743 0.73838 0.66821 0.0
H453 H 0.45518 0.28498 0.89466 0.0
H454 H 0.5766 0.4587 0.92683 0.0
H455 H 0.57178 0.50377 0.86453 0.0
H456 H 0.63109 0.47669 0.84297 0.0
H457 H 0.63587 0.42908 0.90449 0.0
H458 H 0.604 0.62667 0.8184 0.0
H459 H 0.6182 0.35012 0.81163 0.0
H460 H 0.61074 0.22331 0.83302 0.0
H461 H 0.5523 0.2577 0.80765 0.0
H462 H 0.55944 0.38519 0.78663 0.0
H463 H 0.63092 0.63408 0.63877 0.0
H464 H 0.62722 0.60589 0.70295 0.0
H465 H 0.57354 0.50189 0.68088 0.0
H466 H 0.57773 0.52691 0.61594 0.0
H467 H 0.59045 0.42575 0.72968 0.0
H468 H 0.57676 0.68123 0.71822 0.0
H469 H 0.58071 0.8115 0.69866 0.0
H470 H 0.63192 0.82768 0.76024 0.0
H471 H 0.62844 0.69715 0.77978 0.0
C472 C 0.58863 0.46392 0.90894 0.0
C473 C 0.60659 0.4404 0.92016 0.0
C474 C 0.58585 0.48939 0.87353 0.0
C475 C 0.6011 0.49309 0.84948 0.0
C476 C 0.61921 0.47404 0.86137 0.0
C477 C 0.62191 0.44687 0.89635 0.0
C478 C 0.59812 0.51036 0.81095 0.0
C479 C 0.60105 0.58317 0.79882 0.0
C480 C 0.59348 0.45386 0.78597 0.0
C481 C 0.58931 0.37711 0.79798 0.0
C482 C 0.60375 0.33073 0.8109 0.0
C483 C 0.59959 0.25877 0.8229 0.0
C484 C 0.58105 0.23253 0.82179 0.0
C485 C 0.56665 0.27814 0.80857 0.0
C486 C 0.57074 0.35021 0.79662 0.0
C487 C 0.61842 0.60453 0.64759 0.0
C488 C 0.60456 0.5829 0.62262 0.0
C489 C 0.61621 0.58915 0.6843 0.0
C490 C 0.5998 0.554 0.69693 0.0
C491 C 0.58622 0.52979 0.6718 0.0
C492 C 0.58864 0.54381 0.63478 0.0
C493 C 0.59715 0.54221 0.73637 0.0
C494 C 0.59308 0.47023 0.74891 0.0
C495 C 0.60024 0.60029 0.76176 0.0
C496 C 0.60238 0.67915 0.75032 0.0
C497 C 0.58893 0.7124 0.72744 0.0
C498 C 0.59108 0.78633 0.71636 0.0
C499 C 0.60657 0.8278 0.72816 0.0
C500 C 0.61992 0.79548 0.75113 0.0
C501 C 0.61785 0.72154 0.76226 0.0
H502 H 0.60821 0.88502 0.71955 0.0
H503 H 0.57785 0.17681 0.83109 0.0
H504 H 0.10519 0.79846 0.14186 0.0
H505 H 0.10226 0.8482 0.2031 0.0
H506 H 0.10129 0.07155 0.16023 0.0
H507 H 0.10427 0.02194 0.09852 0.0
H508 H 0.12649 0.05398 0.21644 0.0
H509 H 0.0617 0.99864 0.19292 0.0
H510 H 0.03476 0.92118 0.17392 0.0
H511 H 0.0469 0.76519 0.25894 0.0
H512 H 0.0741 0.84117 0.27814 0.0
H513 H 0.1063 0.22417 0.38357 0.0
H514 H 0.10357 0.18213 0.32096 0.0
H515 H 0.10168 0.95399 0.35732 0.0
H516 H 0.104 0.99601 0.42043 0.0
H517 H 0.07663 0.97878 0.30335 0.0
H518 H 0.14224 0.02789 0.3245 0.0
H519 H 0.16965 0.10266 0.34363 0.0
H520 H 0.15653 0.26689 0.26293 0.0
H521 H 0.12887 0.19356 0.24364 0.0
C522 C 0.10423 0.85818 0.1454 0.0
C523 C 0.10499 0.90643 0.11546 0.0
C524 C 0.10245 0.88644 0.1804 0.0
C525 C 0.10138 0.96344 0.18611 0.0
C526 C 0.10202 0.01189 0.15627 0.0
C527 C 0.10369 0.98355 0.12113 0.0
C528 C 0.10062 0.993 0.22347 0.0
C529 C 0.1154 0.03876 0.23528 0.0
C530 C 0.08643 0.97113 0.2482 0.0
C531 C 0.07005 0.92533 0.23678 0.0
C532 C 0.05873 0.9475 0.20739 0.0
C533 C 0.04339 0.90392 0.19661 0.0
C534 C 0.03915 0.83822 0.21516 0.0
C535 C 0.05021 0.81606 0.24458 0.0
C536 C 0.06558 0.85942 0.25544 0.0
C537 C 0.10523 0.16502 0.37829 0.0
C538 C 0.10553 0.11323 0.40682 0.0
C539 C 0.10372 0.14111 0.34249 0.0
C540 C 0.10275 0.06492 0.33449 0.0
C541 C 0.10248 0.01307 0.36297 0.0
C542 C 0.10386 0.03705 0.39892 0.0
C543 C 0.10254 0.03957 0.29632 0.0
C544 C 0.08763 0.99447 0.28442 0.0
C545 C 0.11668 0.06162 0.27149 0.0
C546 C 0.13338 0.1056 0.28288 0.0
C547 C 0.14512 0.08022 0.31101 0.0
C548 C 0.16071 0.1223 0.32186 0.0
C549 C 0.1648 0.18958 0.30457 0.0
C550 C 0.15333 0.21482 0.27633 0.0
C551 C 0.1377 0.173 0.26541 0.0
H552 H 0.17688 0.22208 0.31301 0.0
H553 H 0.02726 0.80456 0.20678 0.0
H554 H 0.89603 0.99136 0.41497 0.0
H555 H 0.89854 0.03268 0.35188 0.0
H556 H 0.88841 0.80813 0.31529 0.0
H557 H 0.88618 0.76635 0.37811 0.0
H558 H 0.91556 0.87413 0.27539 0.0
H559 H 0.85304 0.93242 0.3159 0.0
H560 H 0.82926 0.9873 0.35659 0.0
H561 H 0.85158 0.20541 0.33604 0.0
H562 H 0.87568 0.15167 0.29559 0.0
H563 H 0.88956 0.96914 0.09306 0.0
H564 H 0.89099 0.91935 0.15492 0.0
H565 H 0.89751 0.14223 0.1968 0.0
H566 H 0.89539 0.19202 0.13553 0.0
H567 H 0.87201 0.07237 0.23372 0.0
H568 H 0.93482 0.01162 0.19217 0.0
H569 H 0.95805 0.95419 0.15112 0.0
H570 H 0.93459 0.73834 0.17258 0.0
H571 H 0.91107 0.79461 0.21349 0.0
C572 C 0.89447 0.95082 0.39346 0.0
C573 C 0.89076 0.87582 0.40141 0.0
C574 C 0.89587 0.97444 0.35748 0.0
C575 C 0.89343 0.92353 0.32894 0.0
C576 C 0.89032 0.84826 0.3369 0.0
C577 C 0.88896 0.82461 0.37281 0.0
C578 C 0.8933 0.94915 0.29081 0.0
C579 C 0.90595 0.91705 0.26612 0.0
C580 C 0.88083 0.00542 0.27889 0.0
C581 C 0.86628 0.03794 0.303 0.0
C582 C 0.85296 0.99203 0.32027 0.0
C583 C 0.83942 0.02293 0.34325 0.0
C584 C 0.83894 0.09977 0.34897 0.0
C585 C 0.85199 0.14589 0.33162 0.0
C586 C 0.86558 0.11525 0.30864 0.0
C587 C 0.89141 0.00723 0.11553 0.0
C588 C 0.89227 0.08436 0.1096 0.0
C589 C 0.89233 0.9788 0.1508 0.0
C590 C 0.89451 0.02706 0.18051 0.0
C591 C 0.89575 0.10394 0.17436 0.0
C592 C 0.89457 0.13231 0.13932 0.0
C593 C 0.89458 0.99865 0.21825 0.0
C594 C 0.88176 0.02981 0.2429 0.0
C595 C 0.90684 0.94134 0.22999 0.0
C596 C 0.92107 0.90744 0.20562 0.0
C597 C 0.93454 0.95198 0.18795 0.0
C598 C 0.94777 0.91961 0.16475 0.0
C599 C 0.94777 0.84269 0.15917 0.0
C600 C 0.93456 0.79792 0.1769 0.0
C601 C 0.9213 0.83001 0.20013 0.0
H602 H 0.95801 0.81774 0.14118 0.0
H603 H 0.82844 0.12359 0.36678 0.0
H604 H 0.87694 0.79105 0.63624 0.0
H605 H 0.87895 0.83979 0.69771 0.0
H606 H 0.89661 0.05297 0.65595 0.0
H607 H 0.89483 0.00398 0.59389 0.0
H608 H 0.91787 0.00854 0.71409 0.0
H609 H 0.85252 0.03145 0.68559 0.0
H610 H 0.82147 0.98932 0.6636 0.0
H611 H 0.81929 0.82487 0.74792 0.0
H612 H 0.85048 0.86517 0.77008 0.0
H613 H 0.89935 0.20517 0.87906 0.0
H614 H 0.89956 0.16121 0.81633 0.0
H615 H 0.88668 0.93893 0.85288 0.0
H616 H 0.88668 0.98242 0.91592 0.0
H617 H 0.86286 0.99302 0.79674 0.0
H618 H 0.92874 0.96928 0.82398 0.0
H619 H 0.95988 0.01171 0.84533 0.0
H620 H 0.96071 0.18069 0.76305 0.0
H621 H 0.92943 0.13994 0.74152 0.0
C622 C 0.88122 0.84839 0.64004 0.0
C623 C 0.88565 0.89388 0.61026 0.0
C624 C 0.8823 0.8762 0.67521 0.0
C625 C 0.8877 0.95021 0.68133 0.0
C626 C 0.89236 0.99572 0.65171 0.0
C627 C 0.89127 0.96782 0.61636 0.0
C628 C 0.88853 0.97924 0.71883 0.0
C629 C 0.90577 0.00638 0.73201 0.0
C630 C 0.87281 0.97486 0.74233 0.0
C631 C 0.85393 0.95094 0.72931 0.0
C632 C 0.84549 0.98592 0.69929 0.0
C633 C 0.82785 0.96242 0.68681 0.0
C634 C 0.81843 0.90433 0.7043 0.0
C635 C 0.82661 0.8698 0.73438 0.0
C636 C 0.84426 0.893 0.74693 0.0
C637 C 0.89674 0.14677 0.87376 0.0
C638 C 0.89298 0.09711 0.90228 0.0
C639 C 0.89691 0.12179 0.83796 0.0
C640 C 0.89317 0.04691 0.8301 0.0
C641 C 0.88961 0.99696 0.85853 0.0
C642 C 0.88969 0.02175 0.89443 0.0
C643 C 0.89222 0.02159 0.79203 0.0
C644 C 0.87493 0.99539 0.77875 0.0
C645 C 0.90785 0.02726 0.76844 0.0
C646 C 0.92664 0.05208 0.7814 0.0
C647 C 0.93547 0.01599 0.81067 0.0
C648 C 0.95317 0.03962 0.82275 0.0
C649 C 0.96224 0.09901 0.80563 0.0
C650 C 0.95365 0.13478 0.77633 0.0
C651 C 0.93594 0.1114 0.76416 0.0
H652 H 0.97595 0.11717 0.815 0.0
H653 H 0.80479 0.88616 0.69459 0.0
H654 H 0.10225 0.01043 0.92158 0.0
H655 H 0.10075 0.05398 0.85868 0.0
H656 H 0.11312 0.83197 0.82105 0.0
H657 H 0.11492 0.78851 0.88358 0.0
H658 H 0.13413 0.93222 0.7864 0.0
H659 H 0.06865 0.90254 0.81582 0.0
H660 H 0.03962 0.92145 0.85134 0.0
H661 H 0.0427 0.15678 0.83197 0.0
H662 H 0.0719 0.13938 0.79672 0.0
H663 H 0.11074 0.98761 0.60049 0.0
H664 H 0.10942 0.94091 0.66297 0.0
H665 H 0.10299 0.16541 0.70241 0.0
H666 H 0.10445 0.21238 0.64035 0.0
H667 H 0.07847 0.06281 0.73551 0.0
H668 H 0.14419 0.09266 0.70752 0.0
H669 H 0.17296 0.07419 0.67126 0.0
H670 H 0.16925 0.83811 0.68795 0.0
H671 H 0.14023 0.85514 0.72381 0.0
C672 C 0.1046 0.97101 0.89985 0.0
C673 C 0.10869 0.89615 0.90743 0.0
C674 C 0.10366 0.99582 0.86398 0.0
C675 C 0.10668 0.94599 0.83522 0.0
C676 C 0.11077 0.8713 0.84283 0.0
C677 C 0.11174 0.84657 0.87858 0.0
C678 C 0.10599 0.9717 0.79713 0.0
C679 C 0.12184 0.9598 0.77515 0.0
C680 C 0.09011 0.00907 0.7827 0.0
C681 C 0.07257 0.01972 0.80393 0.0
C682 C 0.06323 0.9584 0.81939 0.0
C683 C 0.04672 0.96883 0.83943 0.0
C684 C 0.03935 0.04029 0.84399 0.0
C685 C 0.04844 0.10146 0.82846 0.0
C686 C 0.06496 0.09134 0.80842 0.0
C687 C 0.10893 0.0268 0.62251 0.0
C688 C 0.10781 0.10354 0.61568 0.0
C689 C 0.10821 0.00017 0.65808 0.0
C690 C 0.1062 0.04992 0.68716 0.0
C691 C 0.10452 0.12627 0.68027 0.0
C692 C 0.10546 0.15294 0.64485 0.0
C693 C 0.10654 0.02291 0.72496 0.0
C694 C 0.09067 0.03482 0.74683 0.0
C695 C 0.12239 0.98551 0.73932 0.0
C696 C 0.13991 0.97511 0.71799 0.0
C697 C 0.14941 0.03675 0.70318 0.0
C698 C 0.16578 0.02655 0.68275 0.0
C699 C 0.17291 0.95498 0.67722 0.0
C700 C 0.1637 0.8935 0.6922 0.0
C701 C 0.14728 0.90339 0.71259 0.0
H702 H 0.18559 0.94718 0.66139 0.0
H703 H 0.02656 0.04825 0.85948 0.0
H704 H 0.42112 0.92259 0.00457 0.0
H705 H 0.45027 0.99508 -0.00075 0.0
H706 H 0.47958 0.83238 0.06418 0.0
H707 H 0.45059 0.75945 0.06939 0.0
H708 H 0.48898 0.9821 0.08093 0.0
H709 H 0.48361 0.81822 0.97803 0.0
H710 H 0.46737 0.76359 0.92526 0.0
H711 H 0.46458 0.97872 0.87487 0.0
H712 H 0.48052 0.03489 0.92768 0.0
H713 H 0.58249 0.07898 0.0354 0.0
H714 H 0.55404 0.00213 0.04027 0.0
H715 H 0.52408 0.15599 0.97141 0.0
H716 H 0.55237 0.23291 0.96648 0.0
H717 H 0.51517 0.00909 0.95686 0.0
H718 H 0.51965 0.1743 0.05877 0.0
H719 H 0.53497 0.23239 0.1117 0.0
H720 H 0.53872 0.01931 0.16388 0.0
H721 H 0.52366 0.95974 0.11099 0.0
C722 C 0.4337 0.90303 0.01821 0.0
C723 C 0.43368 0.83527 0.03716 0.0
C724 C 0.45032 0.94423 0.01503 0.0
C725 C 0.46704 0.91841 0.03101 0.0
C726 C 0.46679 0.85295 0.05163 0.0
C727 C 0.45026 0.81137 0.05447 0.0
C728 C 0.48507 0.95704 0.02436 0.0
C729 C 0.49485 0.98731 0.0539 0.0
C730 C 0.49246 0.96466 0.98896 0.0
C731 C 0.48308 0.93088 0.95698 0.0
C732 C 0.47939 0.85399 0.95584 0.0
C733 C 0.47026 0.82272 0.9259 0.0
C734 C 0.4649 0.86768 0.89677 0.0
C735 C 0.46871 0.94398 0.89748 0.0
C736 C 0.4778 0.97556 0.9274 0.0
C737 C 0.56995 0.09543 0.02069 0.0
C738 C 0.56953 0.16206 0.00082 0.0
C739 C 0.55372 0.05184 0.02366 0.0
C740 C 0.53695 0.07421 0.00663 0.0
C741 C 0.53689 0.13808 0.98484 0.0
C742 C 0.55303 0.18194 0.98212 0.0
C743 C 0.51912 0.03416 0.01344 0.0
C744 C 0.50936 0.00368 0.98392 0.0
C745 C 0.51169 0.02677 0.04884 0.0
C746 C 0.52073 0.06242 0.08072 0.0
C747 C 0.5239 0.13971 0.08138 0.0
C748 C 0.53251 0.17294 0.1114 0.0
C749 C 0.53787 0.12953 0.14108 0.0
C750 C 0.53459 0.05284 0.14083 0.0
C751 C 0.52601 0.01932 0.11085 0.0
H752 H 0.54454 0.15534 0.1643 0.0
H753 H 0.45783 0.84337 0.87362 0.0
H754 H 0.57879 0.90927 0.52708 0.0
H755 H 0.55131 0.99165 0.53094 0.0
H756 H 0.51444 0.80061 0.52982 0.0
H757 H 0.54169 0.71834 0.5258 0.0
H758 H 0.503 0.90782 0.48273 0.0
H759 H 0.52237 0.89065 0.60721 0.0
H760 H 0.54477 0.89903 0.65817 0.0
H761 H 0.55256 0.13209 0.63723 0.0
H762 H 0.53041 0.12485 0.58576 0.0
H763 H 0.41769 0.08523 0.533 0.0
H764 H 0.44529 0.00333 0.53314 0.0
H765 H 0.4819 0.195 0.53701 0.0
H766 H 0.45447 0.27693 0.53736 0.0
H767 H 0.49359 0.08778 0.58306 0.0
H768 H 0.47467 0.10487 0.45824 0.0
H769 H 0.45258 0.09669 0.40677 0.0
H770 H 0.44424 0.86402 0.42797 0.0
H771 H 0.46609 0.87106 0.47992 0.0
C772 C 0.56482 0.88501 0.52774 0.0
C773 C 0.56235 0.80753 0.52615 0.0
C774 C 0.54917 0.93198 0.53006 0.0
C775 C 0.53089 0.902 0.53086 0.0
C776 C 0.52844 0.82472 0.5292 0.0
C777 C 0.54403 0.77787 0.527 0.0
C778 C 0.5142 0.95098 0.53278 0.0
C779 C 0.5008 0.94653 0.5049 0.0
C780 C 0.51163 0.00244 0.56132 0.0
C781 C 0.52488 0.00702 0.59238 0.0
C782 C 0.52898 0.94356 0.61327 0.0
C783 C 0.54161 0.94812 0.64229 0.0
C784 C 0.55012 0.016 0.65087 0.0
C785 C 0.54598 0.07951 0.63051 0.0
C786 C 0.53338 0.07522 0.60143 0.0
C787 C 0.43163 0.10977 0.534 0.0
C788 C 0.43396 0.18735 0.53499 0.0
C789 C 0.44736 0.06304 0.53398 0.0
C790 C 0.46561 0.09327 0.53471 0.0
C791 C 0.46793 0.17065 0.53643 0.0
C792 C 0.45224 0.21731 0.53648 0.0
C793 C 0.48235 0.04446 0.53305 0.0
C794 C 0.49578 0.049 0.56093 0.0
C795 C 0.48499 0.99309 0.50447 0.0
C796 C 0.47187 0.98869 0.4732 0.0
C797 C 0.46801 0.0521 0.45211 0.0
C798 C 0.45555 0.04765 0.42282 0.0
C799 C 0.44697 0.97992 0.41417 0.0
C800 C 0.45087 0.91647 0.43474 0.0
C801 C 0.4633 0.92065 0.46409 0.0
H802 H 0.43734 0.97658 0.39147 0.0
H803 H 0.5599 0.01942 0.67335 0.0
H804 H 0.08121 0.57488 0.02113 0.0
H805 H 0.05294 0.49648 0.02213 0.0
H806 H 0.01819 0.69049 0.00538 0.0
H807 H 0.04625 0.76904 0.00493 0.0
H808 H 0.00383 0.60303 0.05713 0.0
H809 H 0.02763 0.57157 0.93621 0.0
H810 H 0.05143 0.54154 0.88982 0.0
H811 H 0.05601 0.31938 0.93179 0.0
H812 H 0.03242 0.34845 0.9788 0.0
H813 H 0.91876 0.41951 0.00506 0.0
H814 H 0.94699 0.4979 0.00755 0.0
H815 H 0.98146 0.30257 0.02283 0.0
H816 H 0.95343 0.22407 0.01971 0.0
H817 H 0.99608 0.39055 0.97264 0.0
H818 H 0.97123 0.42173 0.09266 0.0
H819 H 0.94766 0.4533 0.13924 0.0
H820 H 0.94501 0.6774 0.09916 0.0
H821 H 0.9683 0.64681 0.05186 0.0
C822 C 0.06753 0.60066 0.01762 0.0
C823 C 0.06591 0.67793 0.01285 0.0
C824 C 0.05143 0.55589 0.0181 0.0
C825 C 0.0335 0.58771 0.01351 0.0
C826 C 0.03189 0.66489 0.009 0.0
C827 C 0.04794 0.7096 0.00861 0.0
C828 C 0.01636 0.54081 0.01348 0.0
C829 C 0.002 0.55707 0.03838 0.0
C830 C 0.01422 0.48003 0.9895 0.0
C831 C 0.02841 0.46245 0.96126 0.0
C832 C 0.03383 0.51652 0.93575 0.0
C833 C 0.04726 0.49963 0.9093 0.0
C834 C 0.05527 0.42867 0.90792 0.0
C835 C 0.04982 0.37437 0.93294 0.0
C836 C 0.03642 0.39101 0.95947 0.0
C837 C 0.93237 0.39344 0.00904 0.0
C838 C 0.93393 0.31576 0.01212 0.0
C839 C 0.94845 0.43824 0.01066 0.0
C840 C 0.9663 0.40604 0.01571 0.0
C841 C 0.96783 0.32851 0.01891 0.0
C842 C 0.9518 0.28378 0.01716 0.0
C843 C 0.98351 0.45261 0.01635 0.0
C844 C 0.99789 0.43638 0.99148 0.0
C845 C 0.98562 0.51353 0.04032 0.0
C846 C 0.97136 0.53168 0.06841 0.0
C847 C 0.96546 0.4775 0.09348 0.0
C848 C 0.95218 0.49527 0.12007 0.0
C849 C 0.9448 0.56724 0.12207 0.0
C850 C 0.9507 0.62161 0.0975 0.0
C851 C 0.96394 0.60407 0.07079 0.0
H852 H 0.93455 0.58093 0.14273 0.0
H853 H 0.06566 0.41569 0.88742 0.0
H854 H 0.07896 0.42826 0.5149 0.0
H855 H 0.04988 0.50178 0.51693 0.0
H856 H 0.01706 0.29964 0.51996 0.0
H857 H 0.04591 0.22614 0.51742 0.0
H858 H 0.00292 0.39599 0.47196 0.0
H859 H 0.02344 0.40312 0.59591 0.0
H860 H 0.0458 0.42566 0.6459 0.0
H861 H 0.04895 0.65672 0.61683 0.0
H862 H 0.0268 0.63534 0.56631 0.0
H863 H 0.91504 0.56193 0.51671 0.0
H864 H 0.94363 0.48564 0.51964 0.0
H865 H 0.9778 0.68427 0.5166 0.0
H866 H 0.94941 0.76057 0.51428 0.0
H867 H 0.99093 0.58766 0.56589 0.0
H868 H 0.97122 0.57967 0.44095 0.0
H869 H 0.94891 0.55732 0.39084 0.0
H870 H 0.94434 0.32767 0.42184 0.0
H871 H 0.96645 0.34893 0.47247 0.0
C872 C 0.06553 0.39966 0.51605 0.0
C873 C 0.06467 0.32158 0.516 0.0
C874 C 0.04896 0.44162 0.51737 0.0
C875 C 0.03134 0.40604 0.5189 0.0
C876 C 0.03051 0.32812 0.51877 0.0
C877 C 0.04701 0.28627 0.5174 0.0
C878 C 0.01369 0.44974 0.5199 0.0
C879 C 0.00018 0.43719 0.49279 0.0
C880 C 0.01031 0.50442 0.54668 0.0
C881 C 0.0236 0.51746 0.5771 0.0
C882 C 0.02902 0.45861 0.59999 0.0
C883 C 0.04164 0.4712 0.62845 0.0
C884 C 0.04883 0.54253 0.63448 0.0
C885 C 0.04339 0.60147 0.6121 0.0
C886 C 0.03079 0.58916 0.58356 0.0
C887 C 0.92866 0.58918 0.51679 0.0
C888 C 0.93002 0.66707 0.51509 0.0
C889 C 0.94495 0.54564 0.51836 0.0
C890 C 0.96282 0.57939 0.51796 0.0
C891 C 0.96416 0.65718 0.51695 0.0
C892 C 0.94792 0.70063 0.51548 0.0
C893 C 0.9802 0.53397 0.51791 0.0
C894 C 0.99366 0.54624 0.54516 0.0
C895 C 0.98355 0.47903 0.49124 0.0
C896 C 0.97033 0.46608 0.46071 0.0
C897 C 0.96535 0.52454 0.43724 0.0
C898 C 0.95276 0.51205 0.40872 0.0
C899 C 0.94517 0.44117 0.40322 0.0
C900 C 0.95021 0.38257 0.42617 0.0
C901 C 0.96277 0.3948 0.45476 0.0
H902 H 0.93543 0.4316 0.38112 0.0
H903 H 0.0586 0.55217 0.65654 0.0
loop_
_geom_bond_atom_site_label_1
_geom_bond_atom_site_label_2
_geom_bond_distance
_geom_bond_site_symmetry_2
_ccdc_geom_bond_type
In0 O1 2.294 1_554 S
In0 O2 2.326 1_554 S
In0 O6 2.266 . S
In0 O7 2.326 . S
In0 O8 2.266 . S
In0 O9 2.326 . S
In0 O11 2.294 . S
In0 O12 2.326 . S
O1 In0 2.294 1_556 S
O1 C10 1.240 . S
O2 In0 2.326 1_556 S
O2 C10 1.252 . S
C3 O6 1.252 . S
C3 O7 1.260 . S
C4 O11 1.240 . S
C4 O12 1.252 . S
C5 O8 1.252 . S
C5 O9 1.260 . S
O6 In0 2.266 . S
O6 C3 1.252 . S
O7 In0 2.326 . S
O7 C3 1.260 . S
O8 In0 2.266 . S
O8 C5 1.252 . S
O9 In0 2.326 . S
O9 C5 1.260 . S
C10 O1 1.240 . S
C10 O2 1.252 . S
O11 In0 2.294 . S
O11 C4 1.240 . S
O12 In0 2.326 . S
O12 C4 1.252 . S
In13 O14 2.294 . S
In13 O15 2.326 . S
In13 O19 2.266 . S
In13 O20 2.326 . S
In13 O21 2.266 . S
In13 O22 2.326 . S
In13 O24 2.294 1_554 S
In13 O25 2.326 1_554 S
O14 In13 2.294 . S
O14 C23 1.240 . S
O15 In13 2.326 . S
O15 C23 1.252 . S
C16 O19 1.252 . S
C16 O20 1.260 . S
C17 O24 1.240 . S
C17 O25 1.252 . S
C18 O21 1.252 . S
C18 O22 1.260 . S
O19 In13 2.266 . S
O19 C16 1.252 . S
O20 In13 2.326 . S
O20 C16 1.260 . S
O21 In13 2.266 . S
O21 C18 1.252 . S
O22 In13 2.326 . S
O22 C18 1.260 . S
C23 O14 1.240 . S
C23 O15 1.252 . S
O24 In13 2.294 1_556 S
O24 C17 1.240 . S
O25 In13 2.326 1_556 S
O25 C17 1.252 . S
In26 O27 2.294 . S
In26 O28 2.326 . S
In26 O32 2.266 . S
In26 O33 2.326 . S
In26 O34 2.266 . S
In26 O35 2.326 . S
In26 O37 2.294 . S
In26 O38 2.326 . S
O27 In26 2.294 . S
O27 C36 1.240 . S
O28 In26 2.326 . S
O28 C36 1.252 . S
C29 O32 1.252 . S
C29 O33 1.260 . S
C30 O37 1.240 . S
C30 O38 1.252 . S
C31 O34 1.252 . S
C31 O35 1.260 . S
O32 In26 2.266 . S
O32 C29 1.252 . S
O33 In26 2.326 . S
O33 C29 1.260 . S
O34 In26 2.266 . S
O34 C31 1.252 . S
O35 In26 2.326 . S
O35 C31 1.260 . S
C36 O27 1.240 . S
C36 O28 1.252 . S
O37 In26 2.294 . S
O37 C30 1.240 . S
O38 In26 2.326 . S
O38 C30 1.252 . S
In39 O40 2.294 . S
In39 O41 2.326 . S
In39 O45 2.266 . S
In39 O46 2.326 . S
In39 O47 2.266 . S
In39 O48 2.326 . S
In39 O50 2.294 . S
In39 O51 2.326 . S
O40 In39 2.294 . S
O40 C49 1.240 . S
O41 In39 2.326 . S
O41 C49 1.252 . S
C42 O45 1.252 . S
C42 O46 1.260 . S
C43 O50 1.240 . S
C43 O51 1.252 . S
C44 O47 1.252 . S
C44 O48 1.260 . S
O45 In39 2.266 . S
O45 C42 1.252 . S
O46 In39 2.326 . S
O46 C42 1.260 . S
O47 In39 2.266 . S
O47 C44 1.252 . S
O48 In39 2.326 . S
O48 C44 1.260 . S
C49 O40 1.240 . S
C49 O41 1.252 . S
O50 In39 2.294 . S
O50 C43 1.240 . S
O51 In39 2.326 . S
O51 C43 1.252 . S
In52 O53 2.294 . S
In52 O54 2.326 . S
In52 O58 2.266 . S
In52 O59 2.326 . S
In52 O60 2.266 . S
In52 O61 2.326 . S
In52 O63 2.294 1_554 S
In52 O64 2.326 1_554 S
O53 In52 2.294 . S
O53 C62 1.240 . S
O54 In52 2.326 . S
O54 C62 1.252 . S
C55 O58 1.252 . S
C55 O59 1.260 . S
C56 O63 1.240 . S
C56 O64 1.252 . S
C57 O60 1.252 . S
C57 O61 1.260 . S
O58 In52 2.266 . S
O58 C55 1.252 . S
O59 In52 2.326 . S
O59 C55 1.260 . S
O60 In52 2.266 . S
O60 C57 1.252 . S
O61 In52 2.326 . S
O61 C57 1.260 . S
C62 O53 1.240 . S
C62 O54 1.252 . S
O63 In52 2.294 1_556 S
O63 C56 1.240 . S
O64 In52 2.326 1_556 S
O64 C56 1.252 . S
In65 O66 2.294 1_554 S
In65 O67 2.326 1_554 S
In65 O71 2.266 . S
In65 O72 2.326 . S
In65 O73 2.266 . S
In65 O74 2.326 . S
In65 O76 2.294 . S
In65 O77 2.326 . S
O66 In65 2.294 1_556 S
O66 C75 1.240 . S
O67 In65 2.326 1_556 S
O67 C75 1.252 . S
C68 O71 1.252 . S
C68 O72 1.260 . S
C69 O76 1.240 . S
C69 O77 1.252 . S
C70 O73 1.252 . S
C70 O74 1.260 . S
O71 In65 2.266 . S
O71 C68 1.252 . S
O72 In65 2.326 . S
O72 C68 1.260 . S
O73 In65 2.266 . S
O73 C70 1.252 . S
O74 In65 2.326 . S
O74 C70 1.260 . S
C75 O66 1.240 . S
C75 O67 1.252 . S
O76 In65 2.294 . S
O76 C69 1.240 . S
O77 In65 2.326 . S
O77 C69 1.252 . S
In78 O79 2.294 . S
In78 O80 2.326 . S
In78 O84 2.266 . S
In78 O85 2.326 . S
In78 O86 2.266 . S
In78 O87 2.326 . S
In78 O89 2.294 . S
In78 O90 2.326 . S
O79 In78 2.294 . S
O79 C88 1.240 . S
O80 In78 2.326 . S
O80 C88 1.252 . S
C81 O84 1.252 . S
C81 O85 1.260 . S
C82 O89 1.240 . S
C82 O90 1.252 . S
C83 O86 1.252 . S
C83 O87 1.260 . S
O84 In78 2.266 . S
O84 C81 1.252 . S
O85 In78 2.326 . S
O85 C81 1.260 . S
O86 In78 2.266 . S
O86 C83 1.252 . S
O87 In78 2.326 . S
O87 C83 1.260 . S
C88 O79 1.240 . S
C88 O80 1.252 . S
O89 In78 2.294 . S
O89 C82 1.240 . S
O90 In78 2.326 . S
O90 C82 1.252 . S
In91 O92 2.294 . S
In91 O93 2.326 . S
In91 O97 2.266 . S
In91 O98 2.326 . S
In91 O99 2.266 . S
In91 O100 2.326 . S
In91 O102 2.294 . S
In91 O103 2.326 . S
O92 In91 2.294 . S
O92 C101 1.240 . S
O93 In91 2.326 . S
O93 C101 1.252 . S
C94 O97 1.252 . S
C94 O98 1.260 . S
C95 O102 1.240 . S
C95 O103 1.252 . S
C96 O99 1.252 . S
C96 O100 1.260 . S
O97 In91 2.266 . S
O97 C94 1.252 . S
O98 In91 2.326 . S
O98 C94 1.260 . S
O99 In91 2.266 . S
O99 C96 1.252 . S
O100 In91 2.326 . S
O100 C96 1.260 . S
C101 O92 1.240 . S
C101 O93 1.252 . S
O102 In91 2.294 . S
O102 C95 1.240 . S
O103 In91 2.326 . S
O103 C95 1.252 . S
H104 C122 0.951 . S
H105 C124 0.951 . S
H106 C126 0.950 . S
H107 C127 0.950 . S
H108 C129 0.950 . S
H109 C132 0.950 1_554 S
H110 C133 0.950 . S
H111 C135 0.950 . S
H112 C136 0.950 . S
H113 C137 0.951 . S
H114 C139 0.951 . S
H115 C141 0.950 . S
H116 C142 0.950 . S
H117 C144 0.950 . S
H118 C147 0.950 . S
H119 C148 0.950 . S
H120 C150 0.950 . S
H121 C151 0.950 . S
C122 H104 0.951 . S
C122 C123 1.366 1_556 S
C122 C124 1.388 . S
C123 C122 1.366 1_554 S
C123 C127 1.385 . S
C124 H105 0.951 . S
C124 C122 1.388 . S
C124 C125 1.366 1_556 S
C125 C124 1.366 1_554 S
C125 C126 1.414 . S
C125 C128 1.499 . S
C126 H106 0.950 . S
C126 C125 1.414 . S
C126 C127 1.374 . S
C127 H107 0.950 . S
C127 C123 1.385 . S
C127 C126 1.374 . S
C128 C125 1.499 . S
C128 C129 1.373 . S
C128 C130 1.371 1_554 S
C129 H108 0.950 . S
C129 C128 1.373 . S
C129 C145 1.377 . S
C130 C128 1.371 1_556 S
C130 C131 1.543 . S
C130 C144 1.377 . S
C131 C130 1.543 . S
C131 C132 1.397 . S
C131 C136 1.363 . S
C132 H109 0.950 1_556 S
C132 C131 1.397 . S
C132 C133 1.334 . S
C133 H110 0.950 . S
C133 C132 1.334 . S
C133 C134 1.287 . S
C134 C133 1.287 . S
C134 C135 1.524 . S
C134 H153 0.913 . S
C135 H111 0.950 . S
C135 C134 1.524 . S
C135 C136 1.415 . S
C136 H112 0.950 . S
C136 C131 1.363 . S
C136 C135 1.415 . S
C137 H113 0.951 . S
C137 C138 1.366 . S
C137 C139 1.388 . S
C138 C137 1.366 . S
C138 C142 1.385 1_554 S
C139 H114 0.951 . S
C139 C137 1.388 . S
C139 C140 1.366 . S
C140 C139 1.366 . S
C140 C141 1.414 1_554 S
C140 C143 1.499 . S
C141 H115 0.950 . S
C141 C140 1.414 1_556 S
C141 C142 1.374 . S
C142 H116 0.950 . S
C142 C138 1.385 1_556 S
C142 C141 1.374 . S
C143 C140 1.499 . S
C143 C144 1.373 1_554 S
C143 C145 1.389 . S
C144 H117 0.950 . S
C144 C130 1.377 . S
C144 C143 1.373 1_556 S
C145 C129 1.377 . S
C145 C143 1.389 . S
C145 C146 1.524 . S
C146 C145 1.524 . S
C146 C147 1.397 . S
C146 C151 1.363 . S
C147 H118 0.950 . S
C147 C146 1.397 . S
C147 C148 1.334 . S
C148 H119 0.950 . S
C148 C147 1.334 . S
C148 C149 1.287 . S
C149 C148 1.287 . S
C149 C150 1.524 . S
C149 H152 0.999 . S
C150 H120 0.950 . S
C150 C149 1.524 . S
C150 C151 1.415 . S
C151 H121 0.950 . S
C151 C146 1.363 . S
C151 C150 1.415 . S
H152 C149 0.999 . S
H153 C134 0.913 . S
H154 C172 0.951 . S
H155 C174 0.951 . S
H156 C176 0.950 . S
H157 C177 0.950 . S
H158 C179 0.950 . S
H159 C182 0.950 . S
H160 C183 0.950 . S
H161 C185 0.950 . S
H162 C186 0.950 1_554 S
H163 C187 0.951 . S
H164 C189 0.951 . S
H165 C191 0.950 . S
H166 C192 0.950 . S
H167 C194 0.958 . S
H168 C197 0.950 . S
H169 C198 0.950 . S
H170 C200 0.950 . S
H171 C201 0.950 . S
C172 H154 0.951 . S
C172 C173 1.366 . S
C172 C174 1.388 . S
C173 C172 1.366 . S
C173 C177 1.385 . S
C174 H155 0.951 . S
C174 C172 1.388 . S
C174 C175 1.366 . S
C175 C174 1.366 . S
C175 C176 1.414 . S
C175 C178 1.499 . S
C176 H156 0.950 . S
C176 C175 1.414 . S
C176 C177 1.374 . S
C177 H157 0.950 . S
C177 C173 1.385 . S
C177 C176 1.374 . S
C178 C175 1.499 . S
C178 C179 1.373 . S
C178 C180 1.389 . S
C179 H158 0.950 . S
C179 C178 1.373 . S
C179 C195 1.377 . S
C180 C178 1.389 . S
C180 C181 1.524 1_554 S
C180 C194 1.377 . S
C181 C180 1.524 1_556 S
C181 C182 1.397 . S
C181 C186 1.363 . S
C182 H159 0.950 . S
C182 C181 1.397 . S
C182 C183 1.334 . S
C183 H160 0.950 . S
C183 C182 1.334 . S
C183 C184 1.287 . S
C184 C183 1.287 . S
C184 C185 1.524 1_565 S
C184 H203 0.913 1_565 S
C185 H161 0.950 . S
C185 C184 1.524 1_545 S
C185 C186 1.415 1_545 S
C186 H162 0.950 1_556 S
C186 C181 1.363 . S
C186 C185 1.415 1_565 S
C187 H163 0.951 . S
C187 C188 1.366 . S
C187 C189 1.388 . S
C188 C187 1.366 . S
C188 C192 1.385 . S
C189 H164 0.951 . S
C189 C187 1.388 . S
C189 C190 1.366 . S
C190 C189 1.366 . S
C190 C191 1.414 . S
C190 C193 1.499 . S
C191 H165 0.950 . S
C191 C190 1.414 . S
C191 C192 1.374 . S
C192 H166 0.950 . S
C192 C188 1.385 . S
C192 C191 1.374 . S
C193 C190 1.499 . S
C193 C194 1.373 . S
C193 C195 1.389 . S
C194 H167 0.958 . S
C194 C180 1.377 . S
C194 C193 1.373 . S
C195 C179 1.377 . S
C195 C193 1.389 . S
C195 C196 1.524 . S
C196 C195 1.524 . S
C196 C197 1.397 . S
C196 C201 1.363 . S
C197 H168 0.950 . S
C197 C196 1.397 . S
C197 C198 1.334 . S
C198 H169 0.950 . S
C198 C197 1.334 . S
C198 C199 1.287 . S
C199 C198 1.287 . S
C199 C200 1.524 . S
C199 H202 0.999 . S
C200 H170 0.950 . S
C200 C199 1.524 . S
C200 C201 1.415 . S
C201 H171 0.950 . S
C201 C196 1.363 . S
C201 C200 1.415 . S
H202 C199 0.999 . S
H203 C184 0.913 1_545 S
H204 C222 0.951 . S
H205 C224 0.951 . S
H206 C226 0.950 . S
H207 C227 0.950 . S
H208 C229 0.950 . S
H209 C232 0.950 . S
H210 C233 0.950 . S
H211 C235 0.950 . S
H212 C236 0.950 . S
H213 C237 0.951 . S
H214 C239 0.951 . S
H215 C241 0.950 . S
H216 C242 0.950 . S
H217 C244 0.950 . S
H218 C247 0.950 . S
H219 C248 0.950 . S
H220 C250 0.950 . S
H221 C251 0.950 . S
C222 H204 0.951 . S
C222 C223 1.366 . S
C222 C224 1.388 . S
C223 C222 1.366 . S
C223 C227 1.385 . S
C224 H205 0.951 . S
C224 C222 1.388 . S
C224 C225 1.366 . S
C225 C224 1.366 . S
C225 C226 1.414 . S
C225 C228 1.499 . S
C226 H206 0.950 . S
C226 C225 1.414 . S
C226 C227 1.374 . S
C227 H207 0.950 . S
C227 C223 1.385 . S
C227 C226 1.374 . S
C228 C225 1.499 . S
C228 C229 1.373 . S
C228 C230 1.389 . S
C229 H208 0.950 . S
C229 C228 1.373 . S
C229 C245 1.377 . S
C230 C228 1.389 . S
C230 C231 1.524 . S
C230 C244 1.377 . S
C231 C230 1.524 . S
C231 C232 1.397 . S
C231 C236 1.363 . S
C232 H209 0.950 . S
C232 C231 1.397 . S
C232 C233 1.334 . S
C233 H210 0.950 . S
C233 C232 1.334 . S
C233 C234 1.287 1_565 S
C234 C233 1.287 1_545 S
C234 C235 1.524 . S
C234 H253 0.913 . S
C235 H211 0.950 . S
C235 C234 1.524 . S
C235 C236 1.415 1_545 S
C236 H212 0.950 . S
C236 C231 1.363 . S
C236 C235 1.415 1_565 S
C237 H213 0.951 . S
C237 C238 1.366 . S
C237 C239 1.388 . S
C238 C237 1.366 . S
C238 C242 1.385 . S
C239 H214 0.951 . S
C239 C237 1.388 . S
C239 C240 1.366 . S
C240 C239 1.366 . S
C240 C241 1.414 . S
C240 C243 1.499 . S
C241 H215 0.950 . S
C241 C240 1.414 . S
C241 C242 1.374 . S
C242 H216 0.950 . S
C242 C238 1.385 . S
C242 C241 1.374 . S
C243 C240 1.499 . S
C243 C244 1.373 . S
C243 C245 1.389 . S
C244 H217 0.950 . S
C244 C230 1.377 . S
C244 C243 1.373 . S
C245 C229 1.377 . S
C245 C243 1.389 . S
C245 C246 1.524 . S
C246 C245 1.524 . S
C246 C247 1.397 . S
C246 C251 1.363 . S
C247 H218 0.950 . S
C247 C246 1.397 . S
C247 C248 1.334 . S
C248 H219 0.950 . S
C248 C247 1.334 . S
C248 C249 1.287 . S
C249 C248 1.287 . S
C249 C250 1.524 . S
C249 H252 0.999 . S
C250 H220 0.950 . S
C250 C249 1.524 . S
C250 C251 1.415 . S
C251 H221 0.950 . S
C251 C246 1.363 . S
C251 C250 1.415 . S
H252 C249 0.999 . S
H253 C234 0.913 . S
H254 C272 0.951 . S
H255 C274 0.951 . S
H256 C276 0.950 . S
H257 C277 0.950 . S
H258 C279 0.950 . S
H259 C282 0.950 . S
H260 C283 0.950 . S
H261 C285 0.950 1_565 S
H262 C286 0.950 . S
H263 C287 0.951 . S
H264 C289 0.951 . S
H265 C291 0.950 . S
H266 C292 0.950 . S
H267 C294 0.950 . S
H268 C297 0.950 . S
H269 C298 0.950 . S
H270 C300 0.950 . S
H271 C301 0.950 . S
C272 H254 0.951 . S
C272 C273 1.366 . S
C272 C274 1.388 . S
C273 C272 1.366 . S
C273 C277 1.385 . S
C274 H255 0.951 . S
C274 C272 1.388 . S
C274 C275 1.366 . S
C275 C274 1.366 . S
C275 C276 1.414 . S
C275 C278 1.499 . S
C276 H256 0.950 . S
C276 C275 1.414 . S
C276 C277 1.374 . S
C277 H257 0.950 . S
C277 C273 1.385 . S
C277 C276 1.374 . S
C278 C275 1.499 . S
C278 C279 1.373 . S
C278 C280 1.389 . S
C279 H258 0.950 . S
C279 C278 1.373 . S
C279 C295 1.377 . S
C280 C278 1.389 . S
C280 C281 1.524 . S
C280 C294 1.377 . S
C281 C280 1.524 . S
C281 C282 1.397 . S
C281 C286 1.363 . S
C282 H259 0.950 . S
C282 C281 1.397 . S
C282 C283 1.334 . S
C283 H260 0.950 . S
C283 C282 1.334 . S
C283 C284 1.287 . S
C284 C283 1.287 . S
C284 C285 1.524 . S
C284 H303 0.913 . S
C285 H261 0.950 1_545 S
C285 C284 1.524 . S
C285 C286 1.415 . S
C286 H262 0.950 . S
C286 C281 1.363 . S
C286 C285 1.415 . S
C287 H263 0.951 . S
C287 C288 1.366 . S
C287 C289 1.388 . S
C288 C287 1.366 . S
C288 C292 1.385 . S
C289 H264 0.951 . S
C289 C287 1.388 . S
C289 C290 1.366 . S
C290 C289 1.366 . S
C290 C291 1.414 . S
C290 C293 1.499 . S
C291 H265 0.950 . S
C291 C290 1.414 . S
C291 C292 1.374 . S
C292 H266 0.950 . S
C292 C288 1.385 . S
C292 C291 1.374 . S
C293 C290 1.499 . S
C293 C294 1.373 . S
C293 C295 1.389 . S
C294 H267 0.950 . S
C294 C280 1.377 . S
C294 C293 1.373 . S
C295 C279 1.377 . S
C295 C293 1.389 . S
C295 C296 1.524 . S
C296 C295 1.524 . S
C296 C297 1.397 . S
C296 C301 1.363 . S
C297 H268 0.950 . S
C297 C296 1.397 . S
C297 C298 1.334 . S
C298 H269 0.950 . S
C298 C297 1.334 . S
C298 C299 1.287 . S
C299 C298 1.287 . S
C299 C300 1.524 . S
C299 H302 0.999 . S
C300 H270 0.950 . S
C300 C299 1.524 . S
C300 C301 1.415 . S
C301 H271 0.950 . S
C301 C296 1.363 . S
C301 C300 1.415 . S
H302 C299 0.999 . S
H303 C284 0.913 . S
H304 C322 0.951 . S
H305 C324 0.951 . S
H306 C326 0.950 . S
H307 C327 0.950 . S
H308 C329 0.950 . S
H309 C332 0.950 . S
H310 C333 0.950 . S
H311 C335 0.950 . S
H312 C336 0.950 . S
H313 C337 0.951 . S
H314 C339 0.951 . S
H315 C341 0.950 . S
H316 C342 0.950 . S
H317 C344 0.950 . S
H318 C347 0.950 . S
H319 C348 0.950 . S
H320 C350 0.950 . S
H321 C351 0.950 . S
C322 H304 0.951 . S
C322 C323 1.366 . S
C322 C324 1.388 . S
C323 C322 1.366 . S
C323 C327 1.385 . S
C324 H305 0.951 . S
C324 C322 1.388 . S
C324 C325 1.366 . S
C325 C324 1.366 . S
C325 C326 1.414 . S
C325 C328 1.499 . S
C326 H306 0.950 . S
C326 C325 1.414 . S
C326 C327 1.374 . S
C327 H307 0.950 . S
C327 C323 1.385 . S
C327 C326 1.374 . S
C328 C325 1.499 . S
C328 C329 1.373 . S
C328 C330 1.389 . S
C329 H308 0.950 . S
C329 C328 1.373 . S
C329 C345 1.377 . S
C330 C328 1.389 . S
C330 C331 1.524 . S
C330 C344 1.377 . S
C331 C330 1.524 . S
C331 C332 1.397 . S
C331 C336 1.363 . S
C332 H309 0.950 . S
C332 C331 1.397 . S
C332 C333 1.334 . S
C333 H310 0.950 . S
C333 C332 1.334 . S
C333 C334 1.287 . S
C334 C333 1.287 . S
C334 C335 1.524 . S
C334 H353 0.913 . S
C335 H311 0.950 . S
C335 C334 1.524 . S
C335 C336 1.415 . S
C336 H312 0.950 . S
C336 C331 1.363 . S
C336 C335 1.415 . S
C337 H313 0.951 . S
C337 C338 1.366 . S
C337 C339 1.388 . S
C338 C337 1.366 . S
C338 C342 1.385 . S
C339 H314 0.951 . S
C339 C337 1.388 . S
C339 C340 1.366 . S
C340 C339 1.366 . S
C340 C341 1.414 . S
C340 C343 1.499 . S
C341 H315 0.950 . S
C341 C340 1.414 . S
C341 C342 1.374 . S
C342 H316 0.950 . S
C342 C338 1.385 . S
C342 C341 1.374 . S
C343 C340 1.499 . S
C343 C344 1.373 . S
C343 C345 1.389 . S
C344 H317 0.950 . S
C344 C330 1.377 . S
C344 C343 1.373 . S
C345 C329 1.377 . S
C345 C343 1.389 . S
C345 C346 1.524 . S
C346 C345 1.524 . S
C346 C347 1.397 . S
C346 C351 1.363 . S
C347 H318 0.950 . S
C347 C346 1.397 . S
C347 C348 1.334 . S
C348 H319 0.950 . S
C348 C347 1.334 . S
C348 C349 1.287 . S
C349 C348 1.287 . S
C349 C350 1.524 . S
C349 H352 0.999 . S
C350 H320 0.950 . S
C350 C349 1.524 . S
C350 C351 1.415 . S
C351 H321 0.950 . S
C351 C346 1.363 . S
C351 C350 1.415 . S
H352 C349 0.999 . S
H353 C334 0.913 . S
H354 C372 0.951 . S
H355 C374 0.951 . S
H356 C376 0.950 . S
H357 C377 0.950 . S
H358 C379 0.950 . S
H359 C382 0.950 . S
H360 C383 0.950 . S
H361 C385 0.950 . S
H362 C386 0.950 . S
H363 C387 0.951 . S
H364 C389 0.951 . S
H365 C391 0.950 . S
H366 C392 0.950 . S
H367 C394 0.950 . S
H368 C397 0.950 . S
H369 C398 0.950 . S
H370 C400 0.950 . S
H371 C401 0.950 . S
C372 H354 0.951 . S
C372 C373 1.366 . S
C372 C374 1.388 . S
C373 C372 1.366 . S
C373 C377 1.385 . S
C374 H355 0.951 . S
C374 C372 1.388 . S
C374 C375 1.366 . S
C375 C374 1.366 . S
C375 C376 1.414 . S
C375 C378 1.499 . S
C376 H356 0.950 . S
C376 C375 1.414 . S
C376 C377 1.374 . S
C377 H357 0.950 . S
C377 C373 1.385 . S
C377 C376 1.374 . S
C378 C375 1.499 . S
C378 C379 1.373 . S
C378 C380 1.389 . S
C379 H358 0.950 . S
C379 C378 1.373 . S
C379 C395 1.377 . S
C380 C378 1.389 . S
C380 C381 1.524 . S
C380 C394 1.377 . S
C381 C380 1.524 . S
C381 C382 1.397 . S
C381 C386 1.363 . S
C382 H359 0.950 . S
C382 C381 1.397 . S
C382 C383 1.334 . S
C383 H360 0.950 . S
C383 C382 1.334 . S
C383 C384 1.287 . S
C384 C383 1.287 . S
C384 C385 1.524 . S
C384 H403 0.913 . S
C385 H361 0.950 . S
C385 C384 1.524 . S
C385 C386 1.415 . S
C386 H362 0.950 . S
C386 C381 1.363 . S
C386 C385 1.415 . S
C387 H363 0.951 . S
C387 C388 1.366 . S
C387 C389 1.388 . S
C388 C387 1.366 . S
C388 C392 1.385 . S
C389 H364 0.951 . S
C389 C387 1.388 . S
C389 C390 1.366 . S
C390 C389 1.366 . S
C390 C391 1.414 . S
C390 C393 1.499 . S
C391 H365 0.950 . S
C391 C390 1.414 . S
C391 C392 1.374 . S
C392 H366 0.950 . S
C392 C388 1.385 . S
C392 C391 1.374 . S
C393 C390 1.499 . S
C393 C394 1.373 . S
C393 C395 1.389 . S
C394 H367 0.950 . S
C394 C380 1.377 . S
C394 C393 1.373 . S
C395 C379 1.377 . S
C395 C393 1.389 . S
C395 C396 1.524 . S
C396 C395 1.524 . S
C396 C397 1.397 . S
C396 C401 1.363 . S
C397 H368 0.950 . S
C397 C396 1.397 . S
C397 C398 1.334 . S
C398 H369 0.950 . S
C398 C397 1.334 . S
C398 C399 1.287 . S
C399 C398 1.287 . S
C399 C400 1.524 . S
C399 H402 0.999 . S
C400 H370 0.950 . S
C400 C399 1.524 . S
C400 C401 1.415 . S
C401 H371 0.950 . S
C401 C396 1.363 . S
C401 C400 1.415 . S
H402 C399 0.999 . S
H403 C384 0.913 . S
H404 C422 0.951 . S
H405 C424 0.951 . S
H406 C426 0.950 . S
H407 C427 0.950 . S
H408 C429 0.950 . S
H409 C432 0.950 . S
H410 C433 0.950 . S
H411 C435 0.950 . S
H412 C436 0.950 . S
H413 C437 0.951 . S
H414 C439 0.951 . S
H415 C441 0.950 . S
H416 C442 0.950 . S
H417 C444 0.950 . S
H418 C447 0.950 . S
H419 C448 0.950 . S
H420 C450 0.950 . S
H421 C451 0.950 . S
C422 H404 0.951 . S
C422 C423 1.366 . S
C422 C424 1.388 . S
C423 C422 1.366 . S
C423 C427 1.385 . S
C424 H405 0.951 . S
C424 C422 1.388 . S
C424 C425 1.366 . S
C425 C424 1.366 . S
C425 C426 1.414 . S
C425 C428 1.499 . S
C426 H406 0.950 . S
C426 C425 1.414 . S
C426 C427 1.374 . S
C427 H407 0.950 . S
C427 C423 1.385 . S
C427 C426 1.374 . S
C428 C425 1.499 . S
C428 C429 1.373 . S
C428 C430 1.389 . S
C429 H408 0.950 . S
C429 C428 1.373 . S
C429 C445 1.377 . S
C430 C428 1.389 . S
C430 C431 1.524 . S
C430 C444 1.377 . S
C431 C430 1.524 . S
C431 C432 1.397 . S
C431 C436 1.363 . S
C432 H409 0.950 . S
C432 C431 1.397 . S
C432 C433 1.334 . S
C433 H410 0.950 . S
C433 C432 1.334 . S
C433 C434 1.287 . S
C434 C433 1.287 . S
C434 C435 1.524 . S
C434 H453 0.913 . S
C435 H411 0.950 . S
C435 C434 1.524 . S
C435 C436 1.415 . S
C436 H412 0.950 . S
C436 C431 1.363 . S
C436 C435 1.415 . S
C437 H413 0.951 . S
C437 C438 1.366 . S
C437 C439 1.388 . S
C438 C437 1.366 . S
C438 C442 1.385 . S
C439 H414 0.951 . S
C439 C437 1.388 . S
C439 C440 1.366 . S
C440 C439 1.366 . S
C440 C441 1.414 . S
C440 C443 1.499 . S
C441 H415 0.950 . S
C441 C440 1.414 . S
C441 C442 1.374 . S
C442 H416 0.950 . S
C442 C438 1.385 . S
C442 C441 1.374 . S
C443 C440 1.499 . S
C443 C444 1.373 . S
C443 C445 1.389 . S
C444 H417 0.950 . S
C444 C430 1.377 . S
C444 C443 1.373 . S
C445 C429 1.377 . S
C445 C443 1.389 . S
C445 C446 1.524 . S
C446 C445 1.524 . S
C446 C447 1.397 . S
C446 C451 1.363 . S
C447 H418 0.950 . S
C447 C446 1.397 . S
C447 C448 1.334 . S
C448 H419 0.950 . S
C448 C447 1.334 . S
C448 C449 1.287 . S
C449 C448 1.287 . S
C449 C450 1.524 . S
C449 H452 0.999 . S
C450 H420 0.950 . S
C450 C449 1.524 . S
C450 C451 1.415 . S
C451 H421 0.950 . S
C451 C446 1.363 . S
C451 C450 1.415 . S
H452 C449 0.999 . S
H453 C434 0.913 . S
H454 C472 0.951 . S
H455 C474 0.951 . S
H456 C476 0.950 . S
H457 C477 0.950 . S
H458 C479 0.950 . S
H459 C482 0.950 . S
H460 C483 0.950 . S
H461 C485 0.950 . S
H462 C486 0.950 . S
H463 C487 0.951 . S
H464 C489 0.951 . S
H465 C491 0.950 . S
H466 C492 0.950 . S
H467 C494 0.950 . S
H468 C497 0.950 . S
H469 C498 0.950 . S
H470 C500 0.950 . S
H471 C501 0.950 . S
C472 H454 0.951 . S
C472 C473 1.366 . S
C472 C474 1.388 . S
C473 C472 1.366 . S
C473 C477 1.385 . S
C474 H455 0.951 . S
C474 C472 1.388 . S
C474 C475 1.366 . S
C475 C474 1.366 . S
C475 C476 1.414 . S
C475 C478 1.499 . S
C476 H456 0.950 . S
C476 C475 1.414 . S
C476 C477 1.374 . S
C477 H457 0.950 . S
C477 C473 1.385 . S
C477 C476 1.374 . S
C478 C475 1.499 . S
C478 C479 1.373 . S
C478 C480 1.389 . S
C479 H458 0.950 . S
C479 C478 1.373 . S
C479 C495 1.377 . S
C480 C478 1.389 . S
C480 C481 1.524 . S
C480 C494 1.377 . S
C481 C480 1.524 . S
C481 C482 1.397 . S
C481 C486 1.363 . S
C482 H459 0.950 . S
C482 C481 1.397 . S
C482 C483 1.334 . S
C483 H460 0.950 . S
C483 C482 1.334 . S
C483 C484 1.287 . S
C484 C483 1.287 . S
C484 C485 1.524 . S
C484 H503 0.913 . S
C485 H461 0.950 . S
C485 C484 1.524 . S
C485 C486 1.415 . S
C486 H462 0.950 . S
C486 C481 1.363 . S
C486 C485 1.415 . S
C487 H463 0.951 . S
C487 C488 1.366 . S
C487 C489 1.388 . S
C488 C487 1.366 . S
C488 C492 1.385 . S
C489 H464 0.951 . S
C489 C487 1.388 . S
C489 C490 1.366 . S
C490 C489 1.366 . S
C490 C491 1.414 . S
C490 C493 1.499 . S
C491 H465 0.950 . S
C491 C490 1.414 . S
C491 C492 1.374 . S
C492 H466 0.950 . S
C492 C488 1.385 . S
C492 C491 1.374 . S
C493 C490 1.499 . S
C493 C494 1.373 . S
C493 C495 1.389 . S
C494 H467 0.950 . S
C494 C480 1.377 . S
C494 C493 1.373 . S
C495 C479 1.377 . S
C495 C493 1.389 . S
C495 C496 1.524 . S
C496 C495 1.524 . S
C496 C497 1.397 . S
C496 C501 1.363 . S
C497 H468 0.950 . S
C497 C496 1.397 . S
C497 C498 1.334 . S
C498 H469 0.950 . S
C498 C497 1.334 . S
C498 C499 1.287 . S
C499 C498 1.287 . S
C499 C500 1.524 . S
C499 H502 0.999 . S
C500 H470 0.950 . S
C500 C499 1.524 . S
C500 C501 1.415 . S
C501 H471 0.950 . S
C501 C496 1.363 . S
C501 C500 1.415 . S
H502 C499 0.999 . S
H503 C484 0.913 . S
H504 C522 0.951 . S
H505 C524 0.951 . S
H506 C526 0.950 . S
H507 C527 0.950 1_545 S
H508 C529 0.950 . S
H509 C532 0.950 . S
H510 C533 0.950 . S
H511 C535 0.950 . S
H512 C536 0.950 . S
H513 C537 0.951 . S
H514 C539 0.951 . S
H515 C541 0.950 . S
H516 C542 0.950 1_565 S
H517 C544 0.950 . S
H518 C547 0.950 . S
H519 C548 0.950 . S
H520 C550 0.950 . S
H521 C551 0.950 . S
C522 H504 0.951 . S
C522 C523 1.366 . S
C522 C524 1.388 . S
C523 C522 1.366 . S
C523 C527 1.385 . S
C524 H505 0.951 . S
C524 C522 1.388 . S
C524 C525 1.366 . S
C525 C524 1.366 . S
C525 C526 1.414 1_565 S
C525 C528 1.499 . S
C526 H506 0.950 . S
C526 C525 1.414 1_545 S
C526 C527 1.374 1_545 S
C527 H507 0.950 1_565 S
C527 C523 1.385 . S
C527 C526 1.374 1_565 S
C528 C525 1.499 . S
C528 C529 1.373 1_565 S
C528 C530 1.389 . S
C529 H508 0.950 . S
C529 C528 1.373 1_545 S
C529 C545 1.377 . S
C530 C528 1.389 . S
C530 C531 1.524 . S
C530 C544 1.377 . S
C531 C530 1.524 . S
C531 C532 1.397 . S
C531 C536 1.363 . S
C532 H509 0.950 . S
C532 C531 1.397 . S
C532 C533 1.334 . S
C533 H510 0.950 . S
C533 C532 1.334 . S
C533 C534 1.287 . S
C534 C533 1.287 . S
C534 C535 1.524 . S
C534 H553 0.913 . S
C535 H511 0.950 . S
C535 C534 1.524 . S
C535 C536 1.415 . S
C536 H512 0.950 . S
C536 C531 1.363 . S
C536 C535 1.415 . S
C537 H513 0.951 . S
C537 C538 1.366 . S
C537 C539 1.388 . S
C538 C537 1.366 . S
C538 C542 1.385 . S
C539 H514 0.951 . S
C539 C537 1.388 . S
C539 C540 1.366 . S
C540 C539 1.366 . S
C540 C541 1.414 1_545 S
C540 C543 1.499 . S
C541 H515 0.950 . S
C541 C540 1.414 1_565 S
C541 C542 1.374 1_565 S
C542 H516 0.950 1_545 S
C542 C538 1.385 . S
C542 C541 1.374 1_545 S
C543 C540 1.499 . S
C543 C544 1.373 1_545 S
C543 C545 1.389 . S
C544 H517 0.950 . S
C544 C530 1.377 . S
C544 C543 1.373 1_565 S
C545 C529 1.377 . S
C545 C543 1.389 . S
C545 C546 1.524 . S
C546 C545 1.524 . S
C546 C547 1.397 . S
C546 C551 1.363 . S
C547 H518 0.950 . S
C547 C546 1.397 . S
C547 C548 1.334 . S
C548 H519 0.950 . S
C548 C547 1.334 . S
C548 C549 1.287 . S
C549 C548 1.287 . S
C549 C550 1.524 . S
C549 H552 0.999 . S
C550 H520 0.950 . S
C550 C549 1.524 . S
C550 C551 1.415 . S
C551 H521 0.950 . S
C551 C546 1.363 . S
C551 C550 1.415 . S
H552 C549 0.999 . S
H553 C534 0.913 . S
H554 C572 0.951 1_545 S
H555 C574 0.939 1_545 S
H556 C576 0.950 . S
H557 C577 0.950 . S
H558 C579 0.950 . S
H559 C582 0.950 . S
H560 C583 0.950 . S
H561 C585 0.950 . S
H562 C586 0.950 . S
H563 C587 0.951 1_565 S
H564 C589 0.939 1_565 S
H565 C591 0.950 . S
H566 C592 0.950 . S
H567 C594 0.950 . S
H568 C597 0.950 . S
H569 C598 0.950 . S
H570 C600 0.950 . S
H571 C601 0.950 . S
C572 H554 0.951 1_565 S
C572 C573 1.366 . S
C572 C574 1.392 . S
C573 C572 1.366 . S
C573 C577 1.385 . S
C574 H555 0.939 1_565 S
C574 C572 1.392 . S
C574 C575 1.373 . S
C575 C574 1.373 . S
C575 C576 1.414 . S
C575 C578 1.499 . S
C576 H556 0.950 . S
C576 C575 1.414 . S
C576 C577 1.374 . S
C577 H557 0.950 . S
C577 C573 1.385 . S
C577 C576 1.374 . S
C578 C575 1.499 . S
C578 C579 1.373 . S
C578 C580 1.389 1_565 S
C579 H558 0.950 . S
C579 C578 1.373 . S
C579 C595 1.377 . S
C580 C578 1.389 1_545 S
C580 C581 1.524 . S
C580 C594 1.377 . S
C581 C580 1.524 . S
C581 C582 1.397 . S
C581 C586 1.363 . S
C582 H559 0.950 . S
C582 C581 1.397 . S
C582 C583 1.334 . S
C583 H560 0.950 . S
C583 C582 1.334 . S
C583 C584 1.287 . S
C584 C583 1.287 . S
C584 C585 1.524 . S
C584 H603 0.913 . S
C585 H561 0.950 . S
C585 C584 1.524 . S
C585 C586 1.415 . S
C586 H562 0.950 . S
C586 C581 1.363 . S
C586 C585 1.415 . S
C587 H563 0.951 1_545 S
C587 C588 1.366 . S
C587 C589 1.392 . S
C588 C587 1.366 . S
C588 C592 1.385 . S
C589 H564 0.939 1_545 S
C589 C587 1.392 . S
C589 C590 1.374 . S
C590 C589 1.374 . S
C590 C591 1.414 . S
C590 C593 1.499 . S
C591 H565 0.950 . S
C591 C590 1.414 . S
C591 C592 1.374 . S
C592 H566 0.950 . S
C592 C588 1.385 . S
C592 C591 1.374 . S
C593 C590 1.499 . S
C593 C594 1.373 . S
C593 C595 1.389 1_545 S
C594 H567 0.950 . S
C594 C580 1.377 . S
C594 C593 1.373 . S
C595 C579 1.377 . S
C595 C593 1.389 1_565 S
C595 C596 1.524 . S
C596 C595 1.524 . S
C596 C597 1.397 . S
C596 C601 1.363 . S
C597 H568 0.950 . S
C597 C596 1.397 . S
C597 C598 1.334 . S
C598 H569 0.950 . S
C598 C597 1.334 . S
C598 C599 1.287 . S
C599 C598 1.287 . S
C599 C600 1.524 . S
C599 H602 0.999 . S
C600 H570 0.950 . S
C600 C599 1.524 . S
C600 C601 1.415 . S
C601 H571 0.950 . S
C601 C596 1.363 . S
C601 C600 1.415 . S
H602 C599 0.999 . S
H603 C584 0.913 . S
H604 C622 0.951 . S
H605 C624 0.951 . S
H606 C626 0.950 . S
H607 C627 0.950 . S
H608 C629 0.950 . S
H609 C632 0.950 . S
H610 C633 0.950 . S
H611 C635 0.950 . S
H612 C636 0.950 . S
H613 C637 0.951 . S
H614 C639 0.951 . S
H615 C641 0.950 . S
H616 C642 0.950 . S
H617 C644 0.950 . S
H618 C647 0.950 . S
H619 C648 0.950 . S
H620 C650 0.950 . S
H621 C651 0.950 . S
C622 H604 0.951 . S
C622 C623 1.366 . S
C622 C624 1.388 . S
C623 C622 1.366 . S
C623 C627 1.385 . S
C624 H605 0.951 . S
C624 C622 1.388 . S
C624 C625 1.366 . S
C625 C624 1.366 . S
C625 C626 1.414 . S
C625 C628 1.499 . S
C626 H606 0.950 . S
C626 C625 1.414 . S
C626 C627 1.374 . S
C627 H607 0.950 . S
C627 C623 1.385 . S
C627 C626 1.374 . S
C628 C625 1.499 . S
C628 C629 1.373 . S
C628 C630 1.389 1_565 S
C629 H608 0.950 . S
C629 C628 1.373 . S
C629 C645 1.377 . S
C630 C628 1.389 1_545 S
C630 C631 1.524 . S
C630 C644 1.377 . S
C631 C630 1.524 . S
C631 C632 1.397 . S
C631 C636 1.363 . S
C632 H609 0.950 . S
C632 C631 1.397 . S
C632 C633 1.334 . S
C633 H610 0.950 . S
C633 C632 1.334 . S
C633 C634 1.287 . S
C634 C633 1.287 . S
C634 C635 1.524 . S
C634 H653 0.913 . S
C635 H611 0.950 . S
C635 C634 1.524 . S
C635 C636 1.415 . S
C636 H612 0.950 . S
C636 C631 1.363 . S
C636 C635 1.415 . S
C637 H613 0.951 . S
C637 C638 1.366 . S
C637 C639 1.388 . S
C638 C637 1.366 . S
C638 C642 1.385 . S
C639 H614 0.951 . S
C639 C637 1.388 . S
C639 C640 1.366 . S
C640 C639 1.366 . S
C640 C641 1.414 . S
C640 C643 1.499 . S
C641 H615 0.950 . S
C641 C640 1.414 . S
C641 C642 1.374 . S
C642 H616 0.950 . S
C642 C638 1.385 . S
C642 C641 1.374 . S
C643 C640 1.499 . S
C643 C644 1.373 . S
C643 C645 1.389 1_545 S
C644 H617 0.950 . S
C644 C630 1.377 . S
C644 C643 1.373 . S
C645 C629 1.377 . S
C645 C643 1.389 1_565 S
C645 C646 1.524 . S
C646 C645 1.524 . S
C646 C647 1.397 . S
C646 C651 1.363 . S
C647 H618 0.950 . S
C647 C646 1.397 . S
C647 C648 1.334 . S
C648 H619 0.950 . S
C648 C647 1.334 . S
C648 C649 1.287 . S
C649 C648 1.287 . S
C649 C650 1.524 . S
C649 H652 0.999 . S
C650 H620 0.950 . S
C650 C649 1.524 . S
C650 C651 1.415 . S
C651 H621 0.950 . S
C651 C646 1.363 . S
C651 C650 1.415 . S
H652 C649 0.999 . S
H653 C634 0.913 . S
H654 C672 0.951 . S
H655 C674 0.951 1_545 S
H656 C676 0.950 . S
H657 C677 0.950 . S
H658 C679 0.950 . S
H659 C682 0.950 . S
H660 C683 0.950 . S
H661 C685 0.950 . S
H662 C686 0.950 . S
H663 C687 0.951 . S
H664 C689 0.951 1_565 S
H665 C691 0.950 . S
H666 C692 0.950 . S
H667 C694 0.950 . S
H668 C697 0.950 . S
H669 C698 0.950 . S
H670 C700 0.950 . S
H671 C701 0.950 . S
C672 H654 0.951 . S
C672 C673 1.366 . S
C672 C674 1.388 . S
C673 C672 1.366 . S
C673 C677 1.385 . S
C674 H655 0.951 1_565 S
C674 C672 1.388 . S
C674 C675 1.366 . S
C675 C674 1.366 . S
C675 C676 1.414 . S
C675 C678 1.499 . S
C676 H656 0.950 . S
C676 C675 1.414 . S
C676 C677 1.374 . S
C677 H657 0.950 . S
C677 C673 1.385 . S
C677 C676 1.374 . S
C678 C675 1.499 . S
C678 C679 1.373 . S
C678 C680 1.389 . S
C679 H658 0.950 . S
C679 C678 1.373 . S
C679 C695 1.377 1_565 S
C680 C678 1.389 . S
C680 C681 1.524 . S
C680 C694 1.377 1_565 S
C681 C680 1.524 . S
C681 C682 1.397 . S
C681 C686 1.363 1_565 S
C682 H659 0.950 . S
C682 C681 1.397 . S
C682 C683 1.334 . S
C683 H660 0.950 . S
C683 C682 1.334 . S
C683 C684 1.287 . S
C684 C683 1.287 . S
C684 C685 1.524 1_565 S
C684 H703 0.913 . S
C685 H661 0.950 . S
C685 C684 1.524 1_545 S
C685 C686 1.415 . S
C686 H662 0.950 . S
C686 C681 1.363 1_545 S
C686 C685 1.415 . S
C687 H663 0.951 . S
C687 C688 1.366 . S
C687 C689 1.388 . S
C688 C687 1.366 . S
C688 C692 1.385 . S
C689 H664 0.951 1_545 S
C689 C687 1.388 . S
C689 C690 1.366 . S
C690 C689 1.366 . S
C690 C691 1.414 . S
C690 C693 1.499 . S
C691 H665 0.950 . S
C691 C690 1.414 . S
C691 C692 1.374 . S
C692 H666 0.950 . S
C692 C688 1.385 . S
C692 C691 1.374 . S
C693 C690 1.499 . S
C693 C694 1.373 . S
C693 C695 1.389 . S
C694 H667 0.950 . S
C694 C680 1.377 1_545 S
C694 C693 1.373 . S
C695 C679 1.377 1_545 S
C695 C693 1.389 . S
C695 C696 1.524 . S
C696 C695 1.524 . S
C696 C697 1.397 . S
C696 C701 1.363 1_545 S
C697 H668 0.950 . S
C697 C696 1.397 . S
C697 C698 1.334 . S
C698 H669 0.950 . S
C698 C697 1.334 . S
C698 C699 1.287 . S
C699 C698 1.287 . S
C699 C700 1.524 1_545 S
C699 H702 0.999 . S
C700 H670 0.950 . S
C700 C699 1.524 1_565 S
C700 C701 1.415 . S
C701 H671 0.950 . S
C701 C696 1.363 1_565 S
C701 C700 1.415 . S
H702 C699 0.999 . S
H703 C684 0.913 . S
H704 C722 0.951 . S
H705 C724 0.951 . S
H706 C726 0.950 . S
H707 C727 0.950 . S
H708 C729 0.950 . S
H709 C732 0.950 1_554 S
H710 C733 0.950 . S
H711 C735 0.950 . S
H712 C736 0.950 . S
H713 C737 0.951 . S
H714 C739 0.951 . S
H715 C741 0.950 . S
H716 C742 0.950 . S
H717 C744 0.950 . S
H718 C747 0.950 . S
H719 C748 0.950 . S
H720 C750 0.950 . S
H721 C751 0.950 . S
C722 H704 0.951 . S
C722 C723 1.366 1_556 S
C722 C724 1.388 . S
C723 C722 1.366 1_554 S
C723 C727 1.385 . S
C724 H705 0.951 . S
C724 C722 1.388 . S
C724 C725 1.366 1_556 S
C725 C724 1.366 1_554 S
C725 C726 1.414 . S
C725 C728 1.499 . S
C726 H706 0.950 . S
C726 C725 1.414 . S
C726 C727 1.374 . S
C727 H707 0.950 . S
C727 C723 1.385 . S
C727 C726 1.374 . S
C728 C725 1.499 . S
C728 C729 1.373 1_565 S
C728 C730 1.389 1_554 S
C729 H708 0.950 . S
C729 C728 1.373 1_545 S
C729 C745 1.377 . S
C730 C728 1.389 1_556 S
C730 C731 1.524 . S
C730 C744 1.377 . S
C731 C730 1.524 . S
C731 C732 1.397 . S
C731 C736 1.363 . S
C732 H709 0.950 1_556 S
C732 C731 1.397 . S
C732 C733 1.334 . S
C733 H710 0.950 . S
C733 C732 1.334 . S
C733 C734 1.287 . S
C734 C733 1.287 . S
C734 C735 1.524 . S
C734 H753 0.913 . S
C735 H711 0.950 . S
C735 C734 1.524 . S
C735 C736 1.415 . S
C736 H712 0.950 . S
C736 C731 1.363 . S
C736 C735 1.415 . S
C737 H713 0.951 . S
C737 C738 1.366 . S
C737 C739 1.388 . S
C738 C737 1.366 . S
C738 C742 1.385 1_554 S
C739 H714 0.951 . S
C739 C737 1.388 . S
C739 C740 1.366 . S
C740 C739 1.366 . S
C740 C741 1.414 1_554 S
C740 C743 1.499 . S
C741 H715 0.950 . S
C741 C740 1.414 1_556 S
C741 C742 1.374 . S
C742 H716 0.950 . S
C742 C738 1.385 1_556 S
C742 C741 1.374 . S
C743 C740 1.499 . S
C743 C744 1.373 1_544 S
C743 C745 1.389 . S
C744 H717 0.950 . S
C744 C730 1.377 . S
C744 C743 1.373 1_566 S
C745 C729 1.377 . S
C745 C743 1.389 . S
C745 C746 1.524 . S
C746 C745 1.524 . S
C746 C747 1.397 . S
C746 C751 1.363 . S
C747 H718 0.950 . S
C747 C746 1.397 . S
C747 C748 1.334 . S
C748 H719 0.950 . S
C748 C747 1.334 . S
C748 C749 1.287 . S
C749 C748 1.287 . S
C749 C750 1.524 . S
C749 H752 0.999 . S
C750 H720 0.950 . S
C750 C749 1.524 . S
C750 C751 1.415 . S
C751 H721 0.950 . S
C751 C746 1.363 . S
C751 C750 1.415 . S
H752 C749 0.999 . S
H753 C734 0.913 . S
H754 C772 0.951 . S
H755 C774 0.951 . S
H756 C776 0.950 . S
H757 C777 0.950 . S
H758 C779 0.950 . S
H759 C782 0.950 . S
H760 C783 0.950 . S
H761 C785 0.950 . S
H762 C786 0.950 . S
H763 C787 0.951 . S
H764 C789 0.951 . S
H765 C791 0.950 . S
H766 C792 0.950 . S
H767 C794 0.950 . S
H768 C797 0.950 . S
H769 C798 0.950 . S
H770 C800 0.950 . S
H771 C801 0.950 . S
C772 H754 0.951 . S
C772 C773 1.366 . S
C772 C774 1.388 . S
C773 C772 1.366 . S
C773 C777 1.385 . S
C774 H755 0.951 . S
C774 C772 1.388 . S
C774 C775 1.366 . S
C775 C774 1.366 . S
C775 C776 1.414 . S
C775 C778 1.499 . S
C776 H756 0.950 . S
C776 C775 1.414 . S
C776 C777 1.374 . S
C777 H757 0.950 . S
C777 C773 1.385 . S
C777 C776 1.374 . S
C778 C775 1.499 . S
C778 C779 1.373 . S
C778 C780 1.389 1_565 S
C779 H758 0.950 . S
C779 C778 1.373 . S
C779 C795 1.377 . S
C780 C778 1.389 1_545 S
C780 C781 1.524 . S
C780 C794 1.377 . S
C781 C780 1.524 . S
C781 C782 1.397 1_545 S
C781 C786 1.363 . S
C782 H759 0.950 . S
C782 C781 1.397 1_565 S
C782 C783 1.334 . S
C783 H760 0.950 . S
C783 C782 1.334 . S
C783 C784 1.287 1_565 S
C784 C783 1.287 1_545 S
C784 C785 1.524 . S
C784 H803 0.913 . S
C785 H761 0.950 . S
C785 C784 1.524 . S
C785 C786 1.415 . S
C786 H762 0.950 . S
C786 C781 1.363 . S
C786 C785 1.415 . S
C787 H763 0.951 . S
C787 C788 1.366 . S
C787 C789 1.388 . S
C788 C787 1.366 . S
C788 C792 1.385 . S
C789 H764 0.951 . S
C789 C787 1.388 . S
C789 C790 1.366 . S
C790 C789 1.366 . S
C790 C791 1.414 . S
C790 C793 1.499 . S
C791 H765 0.950 . S
C791 C790 1.414 . S
C791 C792 1.374 . S
C792 H766 0.950 . S
C792 C788 1.385 . S
C792 C791 1.374 . S
C793 C790 1.499 . S
C793 C794 1.373 . S
C793 C795 1.389 1_545 S
C794 H767 0.950 . S
C794 C780 1.377 . S
C794 C793 1.373 . S
C795 C779 1.377 . S
C795 C793 1.389 1_565 S
C795 C796 1.524 . S
C796 C795 1.524 . S
C796 C797 1.397 1_565 S
C796 C801 1.363 . S
C797 H768 0.950 . S
C797 C796 1.397 1_545 S
C797 C798 1.334 . S
C798 H769 0.950 . S
C798 C797 1.334 . S
C798 C799 1.287 1_545 S
C799 C798 1.287 1_565 S
C799 C800 1.524 . S
C799 H802 0.999 . S
C800 H770 0.950 . S
C800 C799 1.524 . S
C800 C801 1.415 . S
C801 H771 0.950 . S
C801 C796 1.363 . S
C801 C800 1.415 . S
H802 C799 0.999 . S
H803 C784 0.913 . S
H804 C822 0.951 . S
H805 C824 0.951 . S
H806 C826 0.950 . S
H807 C827 0.950 . S
H808 C829 0.950 . S
H809 C832 0.950 . S
H810 C833 0.950 . S
H811 C835 0.950 . S
H812 C836 0.950 . S
H813 C837 0.951 . S
H814 C839 0.951 . S
H815 C841 0.950 . S
H816 C842 0.950 . S
H817 C844 0.950 . S
H818 C847 0.950 . S
H819 C848 0.950 . S
H820 C850 0.950 . S
H821 C851 0.950 . S
C822 H804 0.951 . S
C822 C823 1.366 . S
C822 C824 1.388 . S
C823 C822 1.366 . S
C823 C827 1.385 . S
C824 H805 0.951 . S
C824 C822 1.388 . S
C824 C825 1.366 . S
C825 C824 1.366 . S
C825 C826 1.414 . S
C825 C828 1.499 . S
C826 H806 0.950 . S
C826 C825 1.414 . S
C826 C827 1.374 . S
C827 H807 0.950 . S
C827 C823 1.385 . S
C827 C826 1.374 . S
C828 C825 1.499 . S
C828 C829 1.373 . S
C828 C830 1.389 1_554 S
C829 H808 0.950 . S
C829 C828 1.373 . S
C829 C845 1.377 1_455 S
C830 C828 1.389 1_556 S
C830 C831 1.524 . S
C830 C844 1.377 1_455 S
C831 C830 1.524 . S
C831 C832 1.397 . S
C831 C836 1.363 . S
C832 H809 0.950 . S
C832 C831 1.397 . S
C832 C833 1.334 . S
C833 H810 0.950 . S
C833 C832 1.334 . S
C833 C834 1.287 . S
C834 C833 1.287 . S
C834 C835 1.524 . S
C834 H853 0.913 . S
C835 H811 0.950 . S
C835 C834 1.524 . S
C835 C836 1.415 . S
C836 H812 0.950 . S
C836 C831 1.363 . S
C836 C835 1.415 . S
C837 H813 0.951 . S
C837 C838 1.366 . S
C837 C839 1.388 . S
C838 C837 1.366 . S
C838 C842 1.385 . S
C839 H814 0.951 . S
C839 C837 1.388 . S
C839 C840 1.366 . S
C840 C839 1.366 . S
C840 C841 1.414 . S
C840 C843 1.499 . S
C841 H815 0.950 . S
C841 C840 1.414 . S
C841 C842 1.374 . S
C842 H816 0.950 . S
C842 C838 1.385 . S
C842 C841 1.374 . S
C843 C840 1.499 . S
C843 C844 1.373 1_554 S
C843 C845 1.389 . S
C844 H817 0.950 . S
C844 C830 1.377 1_655 S
C844 C843 1.373 1_556 S
C845 C829 1.377 1_655 S
C845 C843 1.389 . S
C845 C846 1.524 . S
C846 C845 1.524 . S
C846 C847 1.397 . S
C846 C851 1.363 . S
C847 H818 0.950 . S
C847 C846 1.397 . S
C847 C848 1.334 . S
C848 H819 0.950 . S
C848 C847 1.334 . S
C848 C849 1.287 . S
C849 C848 1.287 . S
C849 C850 1.524 . S
C849 H852 0.999 . S
C850 H820 0.950 . S
C850 C849 1.524 . S
C850 C851 1.415 . S
C851 H821 0.950 . S
C851 C846 1.363 . S
C851 C850 1.415 . S
H852 C849 0.999 . S
H853 C834 0.913 . S
H854 C872 0.951 . S
H855 C874 0.951 . S
H856 C876 0.950 . S
H857 C877 0.950 . S
H858 C879 0.952 . S
H859 C882 0.950 . S
H860 C883 0.950 . S
H861 C885 0.950 . S
H862 C886 0.950 . S
H863 C887 0.951 . S
H864 C889 0.951 . S
H865 C891 0.950 . S
H866 C892 0.950 . S
H867 C894 0.952 . S
H868 C897 0.950 . S
H869 C898 0.950 . S
H870 C900 0.950 . S
H871 C901 0.950 . S
C872 H854 0.951 . S
C872 C873 1.366 . S
C872 C874 1.388 . S
C873 C872 1.366 . S
C873 C877 1.385 . S
C874 H855 0.951 . S
C874 C872 1.388 . S
C874 C875 1.366 . S
C875 C874 1.366 . S
C875 C876 1.414 . S
C875 C878 1.499 . S
C876 H856 0.950 . S
C876 C875 1.414 . S
C876 C877 1.374 . S
C877 H857 0.950 . S
C877 C873 1.385 . S
C877 C876 1.374 . S
C878 C875 1.499 . S
C878 C879 1.352 1_455 S
C878 C880 1.389 . S
C879 H858 0.952 . S
C879 C878 1.352 1_655 S
C879 C895 1.397 . S
C880 C878 1.389 . S
C880 C881 1.524 . S
C880 C894 1.397 . S
C881 C880 1.524 . S
C881 C882 1.397 . S
C881 C886 1.363 . S
C882 H859 0.950 . S
C882 C881 1.397 . S
C882 C883 1.334 . S
C883 H860 0.950 . S
C883 C882 1.334 . S
C883 C884 1.287 . S
C884 C883 1.287 . S
C884 C885 1.524 . S
C884 H903 0.913 . S
C885 H861 0.950 . S
C885 C884 1.524 . S
C885 C886 1.415 . S
C886 H862 0.950 . S
C886 C881 1.363 . S
C886 C885 1.415 . S
C887 H863 0.951 . S
C887 C888 1.366 . S
C887 C889 1.388 . S
C888 C887 1.366 . S
C888 C892 1.385 . S
C889 H864 0.951 . S
C889 C887 1.388 . S
C889 C890 1.366 . S
C890 C889 1.366 . S
C890 C891 1.414 . S
C890 C893 1.499 . S
C891 H865 0.950 . S
C891 C890 1.414 . S
C891 C892 1.374 . S
C892 H866 0.950 . S
C892 C888 1.385 . S
C892 C891 1.374 . S
C893 C890 1.499 . S
C893 C894 1.352 1_655 S
C893 C895 1.389 . S
C894 H867 0.952 . S
C894 C880 1.397 . S
C894 C893 1.352 1_455 S
C895 C879 1.397 . S
C895 C893 1.389 . S
C895 C896 1.524 . S
C896 C895 1.524 . S
C896 C897 1.397 . S
C896 C901 1.363 . S
C897 H868 0.950 . S
C897 C896 1.397 . S
C897 C898 1.334 . S
C898 H869 0.950 . S
C898 C897 1.334 . S
C898 C899 1.287 . S
C899 C898 1.287 . S
C899 C900 1.524 . S
C899 H902 0.999 . S
C900 H870 0.950 . S
C900 C899 1.524 . S
C900 C901 1.415 . S
C901 H871 0.950 . S
C901 C896 1.363 . S
C901 C900 1.415 . S
H902 C899 0.999 . S
H903 C884 0.913 . S
C123 C70 1.515 . S
C138 C5 1.515 . S
C173 C55 1.515 . S
C188 C16 1.515 . S
C223 C94 1.515 . S
C238 C31 1.515 . S
C273 C83 1.515 . S
C288 C42 1.515 . S
C323 C3 1.390 . S
C338 C29 1.390 . S
C373 C18 1.390 . S
C388 C44 1.390 . S
C423 C17 1.432 . S
C438 C43 1.432 . S
C473 C10 1.432 . S
C488 C36 1.432 . S
C523 C57 1.390 . S
C538 C81 1.390 . S
C573 C96 1.389 . S
C588 C68 1.389 . S
C623 C95 1.432 . S
C638 C75 1.432 . S
C673 C56 1.432 . S
C688 C88 1.432 . S
C723 C23 1.514 . S
C738 C4 1.514 . S
C773 C30 1.514 . S
C788 C49 1.514 . S
C823 C62 1.514 . S
C838 C69 1.514 . S
C873 C82 1.514 . S
C888 C101 1.514 . S
