# Generated by pormake.
# Topology umr, (4)-cn, num edge types: 1
# Building blocks:
#     Node 0, Type 0, BuildingBlock: TATPOV_clean_sbu_0, # of connection points: 4
#     Node 1, Type 0, BuildingBlock: TATPOV_clean_sbu_0, # of connection points: 4
#     Node 2, Type 0, BuildingBlock: TATPOV_clean_sbu_0, # of connection points: 4
#     Node 3, Type 0, BuildingBlock: TATPOV_clean_sbu_0, # of connection points: 4
#     Node 4, Type 0, BuildingBlock: TATPOV_clean_sbu_0, # of connection points: 4
#     Node 5, Type 0, BuildingBlock: TATPOV_clean_sbu_0, # of connection points: 4
#     Node 6, Type 0, BuildingBlock: TATPOV_clean_sbu_0, # of connection points: 4
#     Node 7, Type 0, BuildingBlock: TATPOV_clean_sbu_0, # of connection points: 4
#     Node 8, Type 0, BuildingBlock: TATPOV_clean_sbu_0, # of connection points: 4
#     Node 9, Type 0, BuildingBlock: TATPOV_clean_sbu_0, # of connection points: 4
#     Node 10, Type 0, BuildingBlock: TATPOV_clean_sbu_0, # of connection points: 4
#     Node 11, Type 0, BuildingBlock: TATPOV_clean_sbu_0, # of connection points: 4
#     Node 12, Type 0, BuildingBlock: TATPOV_clean_sbu_0, # of connection points: 4
#     Node 13, Type 0, BuildingBlock: TATPOV_clean_sbu_0, # of connection points: 4
#     Node 14, Type 0, BuildingBlock: TATPOV_clean_sbu_0, # of connection points: 4
#     Node 15, Type 0, BuildingBlock: TATPOV_clean_sbu_0, # of connection points: 4
#     Node 16, Type 0, BuildingBlock: TATPOV_clean_sbu_0, # of connection points: 4
#     Node 17, Type 0, BuildingBlock: TATPOV_clean_sbu_0, # of connection points: 4
#     Node 18, Type 0, BuildingBlock: TATPOV_clean_sbu_0, # of connection points: 4
#     Node 19, Type 0, BuildingBlock: TATPOV_clean_sbu_0, # of connection points: 4
#     Node 20, Type 0, BuildingBlock: TATPOV_clean_sbu_0, # of connection points: 4
#     Node 21, Type 0, BuildingBlock: TATPOV_clean_sbu_0, # of connection points: 4
#     Node 22, Type 0, BuildingBlock: TATPOV_clean_sbu_0, # of connection points: 4
#     Node 23, Type 0, BuildingBlock: TATPOV_clean_sbu_0, # of connection points: 4
#     Node 24, Type 0, BuildingBlock: TATPOV_clean_sbu_0, # of connection points: 4
#     Node 25, Type 0, BuildingBlock: TATPOV_clean_sbu_0, # of connection points: 4
#     Node 26, Type 0, BuildingBlock: TATPOV_clean_sbu_0, # of connection points: 4
#     Node 27, Type 0, BuildingBlock: TATPOV_clean_sbu_0, # of connection points: 4
#     Node 28, Type 0, BuildingBlock: TATPOV_clean_sbu_0, # of connection points: 4
#     Node 29, Type 0, BuildingBlock: TATPOV_clean_sbu_0, # of connection points: 4
#     Node 30, Type 0, BuildingBlock: TATPOV_clean_sbu_0, # of connection points: 4
#     Node 31, Type 0, BuildingBlock: TATPOV_clean_sbu_0, # of connection points: 4
#     Edge 32, Type (0, 0), BuildingBlock: ZUJKAS_clean_linker_0, # of connection points: 2
#     Edge 33, Type (0, 0), BuildingBlock: ZUJKAS_clean_linker_0, # of connection points: 2
#     Edge 34, Type (0, 0), BuildingBlock: ZUJKAS_clean_linker_0, # of connection points: 2
#     Edge 35, Type (0, 0), BuildingBlock: ZUJKAS_clean_linker_0, # of connection points: 2
#     Edge 36, Type (0, 0), BuildingBlock: ZUJKAS_clean_linker_0, # of connection points: 2
#     Edge 37, Type (0, 0), BuildingBlock: ZUJKAS_clean_linker_0, # of connection points: 2
#     Edge 38, Type (0, 0), BuildingBlock: ZUJKAS_clean_linker_0, # of connection points: 2
#     Edge 39, Type (0, 0), BuildingBlock: ZUJKAS_clean_linker_0, # of connection points: 2
#     Edge 40, Type (0, 0), BuildingBlock: ZUJKAS_clean_linker_0, # of connection points: 2
#     Edge 41, Type (0, 0), BuildingBlock: ZUJKAS_clean_linker_0, # of connection points: 2
#     Edge 42, Type (0, 0), BuildingBlock: ZUJKAS_clean_linker_0, # of connection points: 2
#     Edge 43, Type (0, 0), BuildingBlock: ZUJKAS_clean_linker_0, # of connection points: 2
#     Edge 44, Type (0, 0), BuildingBlock: ZUJKAS_clean_linker_0, # of connection points: 2
#     Edge 45, Type (0, 0), BuildingBlock: ZUJKAS_clean_linker_0, # of connection points: 2
#     Edge 46, Type (0, 0), BuildingBlock: ZUJKAS_clean_linker_0, # of connection points: 2
#     Edge 47, Type (0, 0), BuildingBlock: ZUJKAS_clean_linker_0, # of connection points: 2
#     Edge 48, Type (0, 0), BuildingBlock: ZUJKAS_clean_linker_0, # of connection points: 2
#     Edge 49, Type (0, 0), BuildingBlock: ZUJKAS_clean_linker_0, # of connection points: 2
#     Edge 50, Type (0, 0), BuildingBlock: ZUJKAS_clean_linker_0, # of connection points: 2
#     Edge 51, Type (0, 0), BuildingBlock: ZUJKAS_clean_linker_0, # of connection points: 2
#     Edge 52, Type (0, 0), BuildingBlock: ZUJKAS_clean_linker_0, # of connection points: 2
#     Edge 53, Type (0, 0), BuildingBlock: ZUJKAS_clean_linker_0, # of connection points: 2
#     Edge 54, Type (0, 0), BuildingBlock: ZUJKAS_clean_linker_0, # of connection points: 2
#     Edge 55, Type (0, 0), BuildingBlock: ZUJKAS_clean_linker_0, # of connection points: 2
#     Edge 56, Type (0, 0), BuildingBlock: ZUJKAS_clean_linker_0, # of connection points: 2
#     Edge 57, Type (0, 0), BuildingBlock: ZUJKAS_clean_linker_0, # of connection points: 2
#     Edge 58, Type (0, 0), BuildingBlock: ZUJKAS_clean_linker_0, # of connection points: 2
#     Edge 59, Type (0, 0), BuildingBlock: ZUJKAS_clean_linker_0, # of connection points: 2
#     Edge 60, Type (0, 0), BuildingBlock: ZUJKAS_clean_linker_0, # of connection points: 2
#     Edge 61, Type (0, 0), BuildingBlock: ZUJKAS_clean_linker_0, # of connection points: 2
#     Edge 62, Type (0, 0), BuildingBlock: ZUJKAS_clean_linker_0, # of connection points: 2
#     Edge 63, Type (0, 0), BuildingBlock: ZUJKAS_clean_linker_0, # of connection points: 2
#     Edge 64, Type (0, 0), BuildingBlock: ZUJKAS_clean_linker_0, # of connection points: 2
#     Edge 65, Type (0, 0), BuildingBlock: ZUJKAS_clean_linker_0, # of connection points: 2
#     Edge 66, Type (0, 0), BuildingBlock: ZUJKAS_clean_linker_0, # of connection points: 2
#     Edge 67, Type (0, 0), BuildingBlock: ZUJKAS_clean_linker_0, # of connection points: 2
#     Edge 68, Type (0, 0), BuildingBlock: ZUJKAS_clean_linker_0, # of connection points: 2
#     Edge 69, Type (0, 0), BuildingBlock: ZUJKAS_clean_linker_0, # of connection points: 2
#     Edge 70, Type (0, 0), BuildingBlock: ZUJKAS_clean_linker_0, # of connection points: 2
#     Edge 71, Type (0, 0), BuildingBlock: ZUJKAS_clean_linker_0, # of connection points: 2
#     Edge 72, Type (0, 0), BuildingBlock: ZUJKAS_clean_linker_0, # of connection points: 2
#     Edge 73, Type (0, 0), BuildingBlock: ZUJKAS_clean_linker_0, # of connection points: 2
#     Edge 74, Type (0, 0), BuildingBlock: ZUJKAS_clean_linker_0, # of connection points: 2
#     Edge 75, Type (0, 0), BuildingBlock: ZUJKAS_clean_linker_0, # of connection points: 2
#     Edge 76, Type (0, 0), BuildingBlock: ZUJKAS_clean_linker_0, # of connection points: 2
#     Edge 77, Type (0, 0), BuildingBlock: ZUJKAS_clean_linker_0, # of connection points: 2
#     Edge 78, Type (0, 0), BuildingBlock: ZUJKAS_clean_linker_0, # of connection points: 2
#     Edge 79, Type (0, 0), BuildingBlock: ZUJKAS_clean_linker_0, # of connection points: 2
#     Edge 80, Type (0, 0), BuildingBlock: ZUJKAS_clean_linker_0, # of connection points: 2
#     Edge 81, Type (0, 0), BuildingBlock: ZUJKAS_clean_linker_0, # of connection points: 2
#     Edge 82, Type (0, 0), BuildingBlock: ZUJKAS_clean_linker_0, # of connection points: 2
#     Edge 83, Type (0, 0), BuildingBlock: ZUJKAS_clean_linker_0, # of connection points: 2
#     Edge 84, Type (0, 0), BuildingBlock: ZUJKAS_clean_linker_0, # of connection points: 2
#     Edge 85, Type (0, 0), BuildingBlock: ZUJKAS_clean_linker_0, # of connection points: 2
#     Edge 86, Type (0, 0), BuildingBlock: ZUJKAS_clean_linker_0, # of connection points: 2
#     Edge 87, Type (0, 0), BuildingBlock: ZUJKAS_clean_linker_0, # of connection points: 2
#     Edge 88, Type (0, 0), BuildingBlock: ZUJKAS_clean_linker_0, # of connection points: 2
#     Edge 89, Type (0, 0), BuildingBlock: ZUJKAS_clean_linker_0, # of connection points: 2
#     Edge 90, Type (0, 0), BuildingBlock: ZUJKAS_clean_linker_0, # of connection points: 2
#     Edge 91, Type (0, 0), BuildingBlock: ZUJKAS_clean_linker_0, # of connection points: 2
#     Edge 92, Type (0, 0), BuildingBlock: ZUJKAS_clean_linker_0, # of connection points: 2
#     Edge 93, Type (0, 0), BuildingBlock: ZUJKAS_clean_linker_0, # of connection points: 2
#     Edge 94, Type (0, 0), BuildingBlock: ZUJKAS_clean_linker_0, # of connection points: 2
#     Edge 95, Type (0, 0), BuildingBlock: ZUJKAS_clean_linker_0, # of connection points: 2
# Relax obj value: 0.103
# Max RMSD: 0.117
# Mean RMSD: 0.117
data_MOF--net-umr--node1-TATPOV_clean_sbu_0--edge1-ZUJKAS_clean_linker_0
_symmetry_space_group_name_H-M    P1
_symmetry_Int_Tables_number       1
_symmetry_cell_setting            triclinic
loop_
_symmetry_equiv_pos_as_xyz
'x, y, z'
_cell_length_a     110.42285
_cell_length_b     110.453
_cell_length_c     32.647635
_cell_angle_alpha  90.008936
_cell_angle_beta   90.014777
_cell_angle_gamma 89.995041
loop_
_atom_site_label
_atom_site_type_symbol
_atom_site_fract_x
_atom_site_fract_y
_atom_site_fract_z
_atom_type_partial_charge
Zn0 Zn 0.18886 0.28171 0.12755 0.0
Zn1 Zn 0.17356 0.29958 0.11882 0.0
O2 O 0.16827 0.28867 0.07087 0.0
O3 O 0.1801 0.27295 0.08224 0.0
O4 O 0.16185 0.31363 0.11928 0.0
O5 O 0.18417 0.27823 0.185 0.0
O6 O 0.16977 0.29166 0.17526 0.0
C7 C 0.17171 0.27797 0.06194 0.0
C8 C 0.20116 0.30349 0.10788 0.0
O9 O 0.19038 0.3077 0.10858 0.0
O10 O 0.20297 0.29239 0.11529 0.0
C11 C 0.15709 0.31849 0.08788 0.0
O12 O 0.15989 0.31439 0.05131 0.0
C13 C 0.17478 0.2836 0.19754 0.0
Zn14 Zn 0.96414 0.94813 0.41988 0.0
Zn15 Zn 0.95089 0.92859 0.4108 0.0
O16 O 0.96482 0.92468 0.37093 0.0
O17 O 0.97514 0.94168 0.37549 0.0
O18 O 0.93974 0.9141 0.40832 0.0
O19 O 0.96784 0.94455 0.47825 0.0
O20 O 0.95612 0.92857 0.47221 0.0
C21 C 0.97371 0.93128 0.35984 0.0
C22 C 0.94097 0.95415 0.39025 0.0
O23 O 0.94012 0.94264 0.3888 0.0
O24 O 0.95029 0.95907 0.40538 0.0
C25 C 0.93387 0.91122 0.37626 0.0
O26 O 0.93529 0.91769 0.34284 0.0
C27 C 0.96299 0.93529 0.49396 0.0
Zn28 Zn 0.31012 0.71763 0.64148 0.0
Zn29 Zn 0.32649 0.70121 0.62363 0.0
O30 O 0.33067 0.71465 0.58223 0.0
O31 O 0.31848 0.72923 0.60279 0.0
O32 O 0.33933 0.68842 0.61479 0.0
O33 O 0.31424 0.71771 0.7009 0.0
O34 O 0.32963 0.70601 0.68447 0.0
C35 C 0.32682 0.7255 0.57933 0.0
C36 C 0.29937 0.69621 0.60854 0.0
O37 O 0.31032 0.69252 0.60863 0.0
O38 O 0.29692 0.7068 0.62088 0.0
C39 C 0.33814 0.67816 0.63197 0.0
O40 O 0.32835 0.67602 0.65369 0.0
C41 C 0.32382 0.71221 0.71096 0.0
Zn42 Zn 0.53578 0.0579 0.87491 0.0
Zn43 Zn 0.55261 0.07437 0.87002 0.0
O44 O 0.54081 0.08023 0.82482 0.0
O45 O 0.52634 0.06667 0.83159 0.0
O46 O 0.56578 0.08705 0.87209 0.0
O47 O 0.53215 0.06113 0.9334 0.0
O48 O 0.54538 0.07593 0.9288 0.0
C49 C 0.5305 0.07605 0.81428 0.0
C50 C 0.55824 0.04745 0.85179 0.0
O51 O 0.56178 0.05843 0.85446 0.0
O52 O 0.54733 0.04482 0.85955 0.0
C53 C 0.57173 0.09086 0.84134 0.0
O54 O 0.56937 0.0864 0.80489 0.0
C55 C 0.53753 0.07004 0.94944 0.0
Zn56 Zn 0.18917 0.71893 0.38054 0.0
Zn57 Zn 0.17421 0.70087 0.37217 0.0
O58 O 0.1666 0.71042 0.42049 0.0
O59 O 0.18079 0.72403 0.43214 0.0
O60 O 0.16256 0.68697 0.36394 0.0
O61 O 0.18435 0.72609 0.32676 0.0
O62 O 0.17326 0.70985 0.31627 0.0
C63 C 0.17082 0.71915 0.44163 0.0
C64 C 0.20143 0.69657 0.38884 0.0
O65 O 0.19064 0.69246 0.38657 0.0
O66 O 0.20334 0.70779 0.38434 0.0
C67 C 0.16014 0.67953 0.39251 0.0
O68 O 0.16551 0.68081 0.42818 0.0
C69 C 0.17746 0.71997 0.30378 0.0
Zn70 Zn 0.53556 0.94226 0.61515 0.0
Zn71 Zn 0.5519 0.92545 0.61676 0.0
O72 O 0.54025 0.91963 0.66284 0.0
O73 O 0.52705 0.93454 0.66234 0.0
O74 O 0.56477 0.91245 0.61336 0.0
O75 O 0.53016 0.93849 0.55865 0.0
O76 O 0.54434 0.92452 0.55816 0.0
C77 C 0.53074 0.92463 0.67723 0.0
C78 C 0.55851 0.95226 0.6331 0.0
O79 O 0.5616 0.94112 0.63207 0.0
O80 O 0.5477 0.95522 0.62515 0.0
C81 C 0.57055 0.90835 0.64406 0.0
O82 O 0.56818 0.91268 0.68068 0.0
C83 C 0.53572 0.93011 0.54018 0.0
Zn84 Zn 0.31329 0.27992 0.88724 0.0
Zn85 Zn 0.32912 0.29745 0.892 0.0
O86 O 0.33456 0.28678 0.94045 0.0
O87 O 0.32193 0.27149 0.93329 0.0
O88 O 0.34127 0.3111 0.88959 0.0
O89 O 0.31757 0.27554 0.83023 0.0
O90 O 0.3321 0.28904 0.83576 0.0
C91 C 0.33076 0.2764 0.95164 0.0
C92 C 0.30174 0.30226 0.90467 0.0
O93 O 0.31262 0.30615 0.903 0.0
O94 O 0.29957 0.29117 0.89851 0.0
C95 C 0.34532 0.31675 0.92064 0.0
O96 O 0.34142 0.31378 0.9573 0.0
C97 C 0.32679 0.28072 0.81547 0.0
Zn98 Zn 0.96518 0.05129 0.08738 0.0
Zn99 Zn 0.94991 0.06947 0.098 0.0
O100 O 0.96328 0.07437 0.13862 0.0
O101 O 0.97607 0.05932 0.12933 0.0
O102 O 0.93721 0.08259 0.10179 0.0
O103 O 0.96738 0.05507 0.02814 0.0
O104 O 0.95545 0.07078 0.03728 0.0
C105 C 0.97326 0.06914 0.14708 0.0
C106 C 0.94286 0.04289 0.11864 0.0
O107 O 0.94056 0.05422 0.1179 0.0
O108 O 0.95291 0.03903 0.10539 0.0
C109 C 0.93978 0.09379 0.10377 0.0
O110 O 0.95121 0.09712 0.10448 0.0
C111 C 0.96227 0.06445 0.01416 0.0
Zn112 Zn 0.80634 0.72008 0.8467 0.0
Zn113 Zn 0.8226 0.70304 0.85486 0.0
O114 O 0.82874 0.71537 0.89766 0.0
O115 O 0.81538 0.72991 0.88865 0.0
O116 O 0.83492 0.68952 0.8552 0.0
O117 O 0.80965 0.72258 0.78747 0.0
O118 O 0.82435 0.70934 0.79501 0.0
C119 C 0.82471 0.72586 0.90661 0.0
C120 C 0.79554 0.69832 0.87466 0.0
O121 O 0.80647 0.69458 0.87264 0.0
O122 O 0.79304 0.70907 0.86435 0.0
C123 C 0.83933 0.68467 0.88721 0.0
O124 O 0.83575 0.68847 0.92337 0.0
C125 C 0.81856 0.71687 0.77276 0.0
Zn126 Zn 0.03232 0.05255 0.5884 0.0
Zn127 Zn 0.04675 0.07134 0.59827 0.0
O128 O 0.03336 0.07594 0.63908 0.0
O129 O 0.02144 0.06011 0.63141 0.0
O130 O 0.05871 0.08519 0.59924 0.0
O131 O 0.02927 0.05601 0.52953 0.0
O132 O 0.04088 0.07199 0.53763 0.0
C133 C 0.02375 0.07016 0.64845 0.0
C134 C 0.05511 0.0452 0.61867 0.0
O135 O 0.05681 0.05663 0.61931 0.0
O136 O 0.04536 0.04089 0.60456 0.0
C137 C 0.06423 0.08895 0.63095 0.0
O138 O 0.06206 0.08378 0.66644 0.0
C139 C 0.03409 0.06546 0.51502 0.0
Zn140 Zn 0.68565 0.28076 0.34523 0.0
Zn141 Zn 0.66911 0.29694 0.36317 0.0
O142 O 0.66558 0.284 0.4071 0.0
O143 O 0.6779 0.26953 0.3865 0.0
O144 O 0.65609 0.30963 0.37019 0.0
O145 O 0.68098 0.27975 0.28646 0.0
O146 O 0.66544 0.29114 0.3037 0.0
C147 C 0.66973 0.27327 0.41059 0.0
C148 C 0.69627 0.30277 0.37352 0.0
O149 O 0.68523 0.30619 0.37465 0.0
O150 O 0.69882 0.2921 0.36232 0.0
C151 C 0.65581 0.3177 0.39794 0.0
O152 O 0.66438 0.31793 0.42585 0.0
C153 C 0.67109 0.28481 0.27721 0.0
Zn154 Zn 0.46892 0.93773 0.09514 0.0
Zn155 Zn 0.45381 0.91984 0.11274 0.0
O156 O 0.46675 0.91635 0.15611 0.0
O157 O 0.47991 0.93049 0.13882 0.0
O158 O 0.44145 0.90642 0.11665 0.0
O159 O 0.47105 0.93283 0.03689 0.0
O160 O 0.4601 0.91692 0.05344 0.0
C161 C 0.47694 0.92157 0.16117 0.0
C162 C 0.44637 0.9467 0.12388 0.0
O163 O 0.44409 0.93542 0.12737 0.0
O164 O 0.45642 0.95019 0.10961 0.0
C165 C 0.43463 0.90396 0.14689 0.0
O166 O 0.43555 0.91037 0.18066 0.0
C167 C 0.46647 0.92273 0.02744 0.0
Zn168 Zn 0.80984 0.28126 0.59204 0.0
Zn169 Zn 0.82423 0.29993 0.59667 0.0
O170 O 0.83252 0.28971 0.55121 0.0
O171 O 0.82024 0.27404 0.54844 0.0
O172 O 0.83546 0.31419 0.60416 0.0
O173 O 0.81279 0.27626 0.64945 0.0
O174 O 0.82509 0.29184 0.65423 0.0
C175 C 0.82969 0.27942 0.53627 0.0
C176 C 0.79722 0.30306 0.57423 0.0
O177 O 0.80769 0.30771 0.57974 0.0
O178 O 0.79576 0.29177 0.57822 0.0
C179 C 0.8385 0.3213 0.57533 0.0
O180 O 0.83407 0.31953 0.53846 0.0
C181 C 0.82016 0.28251 0.67016 0.0
Zn182 Zn 0.47093 0.0555 0.38072 0.0
Zn183 Zn 0.45496 0.07301 0.3711 0.0
O184 O 0.46733 0.07801 0.32726 0.0
O185 O 0.48067 0.06337 0.33548 0.0
O186 O 0.442 0.08598 0.37 0.0
O187 O 0.47442 0.05987 0.43862 0.0
O188 O 0.46189 0.07513 0.42998 0.0
C189 C 0.4773 0.07296 0.31739 0.0
C190 C 0.44848 0.04591 0.35572 0.0
O191 O 0.44579 0.05715 0.35497 0.0
O192 O 0.45886 0.04259 0.36763 0.0
C193 C 0.43269 0.0857 0.34708 0.0
O194 O 0.43136 0.07673 0.32104 0.0
C195 C 0.46939 0.06932 0.4523 0.0
Zn196 Zn 0.6879 0.7188 0.14446 0.0
Zn197 Zn 0.67226 0.70189 0.12531 0.0
O198 O 0.66788 0.71506 0.08314 0.0
O199 O 0.67932 0.73006 0.1051 0.0
O200 O 0.66012 0.68846 0.11587 0.0
O201 O 0.68342 0.71878 0.2036 0.0
O202 O 0.66835 0.70689 0.18547 0.0
C203 C 0.67133 0.72605 0.08076 0.0
C204 C 0.69969 0.69789 0.11245 0.0
O205 O 0.68887 0.6938 0.11202 0.0
O206 O 0.70168 0.70857 0.12475 0.0
C207 C 0.66022 0.67957 0.14061 0.0
O208 O 0.66836 0.67937 0.16996 0.0
C209 C 0.6738 0.71319 0.21254 0.0
Zn210 Zn 0.03127 0.94578 0.92517 0.0
Zn211 Zn 0.04651 0.92776 0.90956 0.0
O212 O 0.03264 0.92338 0.87049 0.0
O213 O 0.01922 0.93725 0.88789 0.0
O214 O 0.05862 0.91414 0.90445 0.0
O215 O 0.03105 0.94252 0.98533 0.0
O216 O 0.04189 0.92635 0.97111 0.0
C217 C 0.02213 0.92805 0.86686 0.0
C218 C 0.05312 0.95415 0.88763 0.0
O219 O 0.0558 0.94292 0.88888 0.0
O220 O 0.04309 0.9578 0.90181 0.0
C221 C 0.06572 0.91256 0.87429 0.0
O222 O 0.06521 0.92002 0.84301 0.0
C223 C 0.03612 0.93284 -0.00317 0.0
Zn224 Zn 0.69456 0.7801 0.62889 0.0
Zn225 Zn 0.67804 0.79699 0.62306 0.0
O226 O 0.67184 0.78459 0.58007 0.0
O227 O 0.68593 0.77059 0.58555 0.0
O228 O 0.66549 0.81034 0.62396 0.0
O229 O 0.69114 0.7768 0.68766 0.0
O230 O 0.67701 0.79075 0.68319 0.0
C231 C 0.67628 0.77442 0.56911 0.0
C232 C 0.70493 0.80236 0.60314 0.0
O233 O 0.69391 0.80585 0.60511 0.0
O234 O 0.70764 0.79162 0.61295 0.0
C235 C 0.66045 0.81491 0.59253 0.0
O236 O 0.66341 0.81087 0.55602 0.0
C237 C 0.68269 0.7828 0.70408 0.0
Zn238 Zn 0.46586 0.44796 0.91376 0.0
Zn239 Zn 0.45139 0.42924 0.9047 0.0
O240 O 0.46466 0.42444 0.86367 0.0
O241 O 0.47679 0.44009 0.87163 0.0
O242 O 0.43929 0.41553 0.90461 0.0
O243 O 0.46869 0.44492 0.97309 0.0
O244 O 0.45745 0.42866 0.96504 0.0
C245 C 0.47436 0.43007 0.85449 0.0
C246 C 0.44323 0.45537 0.88234 0.0
O247 O 0.44137 0.44396 0.88339 0.0
O248 O 0.45308 0.45965 0.89573 0.0
C249 C 0.43468 0.41075 0.87281 0.0
O250 O 0.43795 0.41469 0.83649 0.0
C251 C 0.46408 0.43537 0.98763 0.0
Zn252 Zn 0.81459 0.22045 0.12646 0.0
Zn253 Zn 0.83127 0.20432 0.11023 0.0
O254 O 0.83412 0.21652 0.06349 0.0
O255 O 0.82129 0.23087 0.08123 0.0
O256 O 0.84454 0.19177 0.10298 0.0
O257 O 0.82025 0.2232 0.1833 0.0
O258 O 0.83567 0.21151 0.16742 0.0
C259 C 0.82951 0.22696 0.05763 0.0
C260 C 0.80389 0.19803 0.10522 0.0
O261 O 0.81499 0.19486 0.10285 0.0
O262 O 0.80124 0.20878 0.1151 0.0
C263 C 0.84293 0.18096 0.09065 0.0
O264 O 0.832 0.1774 0.08035 0.0
C265 C 0.83035 0.21858 0.19256 0.0
Zn266 Zn 0.03072 0.55785 0.3952 0.0
Zn267 Zn 0.04698 0.57479 0.38367 0.0
O268 O 0.03445 0.57936 0.33941 0.0
O269 O 0.0206 0.56542 0.35073 0.0
O270 O 0.05986 0.58775 0.37984 0.0
O271 O 0.02783 0.56245 0.45329 0.0
O272 O 0.04042 0.57755 0.44277 0.0
C273 C 0.02423 0.57459 0.33093 0.0
C274 C 0.05305 0.54761 0.37034 0.0
O275 O 0.0562 0.55874 0.36994 0.0
O276 O 0.04243 0.54476 0.38117 0.0
C277 C 0.06829 0.58783 0.3533 0.0
O278 O 0.06873 0.57916 0.32576 0.0
C279 C 0.03305 0.57191 0.46603 0.0
Zn280 Zn 0.69591 0.21887 0.86302 0.0
Zn281 Zn 0.67996 0.20135 0.86727 0.0
O282 O 0.67324 0.21329 0.91068 0.0
O283 O 0.68689 0.22777 0.90699 0.0
O284 O 0.66783 0.18766 0.8653 0.0
O285 O 0.69238 0.22245 0.80448 0.0
O286 O 0.67883 0.20791 0.8076 0.0
C287 C 0.6773 0.22352 0.92263 0.0
C288 C 0.70697 0.19677 0.88725 0.0
O289 O 0.69608 0.19292 0.8851 0.0
O290 O 0.70934 0.20764 0.87809 0.0
C291 C 0.66249 0.18319 0.89632 0.0
O292 O 0.66492 0.18751 0.93292 0.0
C293 C 0.6842 0.21622 0.78745 0.0
Zn294 Zn 0.03036 0.44382 0.10547 0.0
Zn295 Zn 0.04743 0.42752 0.11131 0.0
O296 O 0.03547 0.42125 0.15506 0.0
O297 O 0.02081 0.43457 0.14756 0.0
O298 O 0.06085 0.41512 0.10954 0.0
O299 O 0.02729 0.44076 0.04639 0.0
O300 O 0.04053 0.426 0.05217 0.0
C301 C 0.025 0.4252 0.16482 0.0
C302 C 0.05242 0.45445 0.13182 0.0
O303 O 0.05615 0.44354 0.12876 0.0
O304 O 0.04157 0.45699 0.1229 0.0
C305 C 0.06645 0.41101 0.14058 0.0
O306 O 0.06357 0.41498 0.17724 0.0
C307 C 0.03281 0.43185 0.03086 0.0
Zn308 Zn 0.80918 0.78411 0.34044 0.0
Zn309 Zn 0.82593 0.80042 0.35252 0.0
O310 O 0.8308 0.78762 0.39562 0.0
O311 O 0.81707 0.77364 0.38321 0.0
O312 O 0.83864 0.81355 0.35641 0.0
O313 O 0.81329 0.78185 0.28175 0.0
O314 O 0.82843 0.79438 0.29257 0.0
C315 C 0.82622 0.77725 0.40321 0.0
C316 C 0.79876 0.80606 0.36789 0.0
O317 O 0.80985 0.80939 0.36792 0.0
O318 O 0.79602 0.79546 0.35649 0.0
C319 C 0.84404 0.8167 0.38914 0.0
O320 O 0.84132 0.81126 0.42371 0.0
C321 C 0.82263 0.78725 0.2689 0.0
Zn322 Zn 0.46523 0.55357 0.58982 0.0
Zn323 Zn 0.45092 0.57236 0.60165 0.0
O324 O 0.46411 0.57632 0.6439 0.0
O325 O 0.4758 0.56036 0.63519 0.0
O326 O 0.43888 0.58609 0.60474 0.0
O327 O 0.46871 0.55801 0.53192 0.0
O328 O 0.45716 0.57397 0.54171 0.0
C329 C 0.47353 0.57026 0.65337 0.0
C330 C 0.44229 0.54595 0.61711 0.0
O331 O 0.44075 0.55737 0.61956 0.0
O332 O 0.45204 0.54172 0.60273 0.0
C333 C 0.43297 0.58873 0.63695 0.0
O334 O 0.43493 0.58251 0.6706 0.0
C335 C 0.46409 0.56772 0.51865 0.0
Zn336 Zn 0.31264 0.21676 0.39469 0.0
Zn337 Zn 0.32798 0.19888 0.39722 0.0
O338 O 0.33364 0.20943 0.44621 0.0
O339 O 0.31962 0.22359 0.44597 0.0
O340 O 0.34023 0.18521 0.39545 0.0
O341 O 0.31916 0.22315 0.34247 0.0
O342 O 0.33126 0.20729 0.3412 0.0
C343 C 0.32908 0.21904 0.4615 0.0
C344 C 0.30027 0.19457 0.40411 0.0
O345 O 0.31112 0.1906 0.40632 0.0
O346 O 0.29841 0.20565 0.39672 0.0
C347 C 0.33825 0.17418 0.40433 0.0
O348 O 0.32744 0.17091 0.41693 0.0
C349 C 0.32737 0.21707 0.32511 0.0
Zn350 Zn 0.53247 0.55505 0.09668 0.0
Zn351 Zn 0.54877 0.57212 0.10466 0.0
O352 O 0.53581 0.57766 0.14634 0.0
O353 O 0.52176 0.56383 0.1367 0.0
O354 O 0.56152 0.58525 0.10689 0.0
O355 O 0.53048 0.55787 0.03691 0.0
O356 O 0.54298 0.57323 0.04395 0.0
C357 C 0.52539 0.57333 0.15464 0.0
C358 C 0.55461 0.54549 0.12693 0.0
O359 O 0.55793 0.55652 0.12359 0.0
O360 O 0.54397 0.54247 0.11682 0.0
C361 C 0.56924 0.5861 0.13566 0.0
O362 O 0.56895 0.57821 0.16577 0.0
C363 C 0.53592 0.56687 0.02168 0.0
Zn364 Zn 0.18857 0.78375 0.84443 0.0
Zn365 Zn 0.17097 0.79913 0.86268 0.0
O366 O 0.16808 0.78642 0.90736 0.0
O367 O 0.18204 0.77309 0.89017 0.0
O368 O 0.15759 0.81147 0.86907 0.0
O369 O 0.18288 0.78137 0.78695 0.0
O370 O 0.16729 0.79268 0.80418 0.0
C371 C 0.1734 0.77632 0.9133 0.0
C372 C 0.19799 0.8064 0.87062 0.0
O373 O 0.18674 0.80884 0.87432 0.0
O374 O 0.20127 0.79619 0.85698 0.0
C375 C 0.15739 0.81993 0.89546 0.0
O376 O 0.16623 0.82077 0.92225 0.0
C377 C 0.17277 0.78606 0.7781 0.0
Zn378 Zn 0.96734 0.44323 0.59891 0.0
Zn379 Zn 0.95068 0.42671 0.60847 0.0
O380 O 0.96292 0.42161 0.65311 0.0
O381 O 0.97726 0.4351 0.6426 0.0
O382 O 0.93763 0.41387 0.61024 0.0
O383 O 0.97032 0.43919 0.54052 0.0
O384 O 0.95744 0.42425 0.54947 0.0
C385 C 0.9733 0.42598 0.66191 0.0
C386 C 0.94516 0.45386 0.62367 0.0
O387 O 0.94165 0.44285 0.62277 0.0
O388 O 0.95594 0.45646 0.61396 0.0
C389 C 0.92847 0.41401 0.63385 0.0
O390 O 0.92721 0.42291 0.66019 0.0
C391 C 0.96498 0.42991 0.52688 0.0
Zn392 Zn 0.30386 0.78248 0.12839 0.0
Zn393 Zn 0.32239 0.7974 0.12236 0.0
O394 O 0.32752 0.78445 0.0802 0.0
O395 O 0.31141 0.77272 0.08272 0.0
O396 O 0.33604 0.80958 0.12435 0.0
O397 O 0.30748 0.77818 0.18635 0.0
O398 O 0.32256 0.79111 0.18244 0.0
C399 C 0.3217 0.77519 0.06768 0.0
C400 C 0.29624 0.80576 0.10324 0.0
O401 O 0.30765 0.80758 0.10228 0.0
O402 O 0.29207 0.79577 0.11583 0.0
C403 C 0.34221 0.81324 0.09392 0.0
O404 O 0.33984 0.80893 0.05727 0.0
C405 C 0.31636 0.78348 0.20296 0.0
Zn406 Zn 0.96702 0.56032 0.88512 0.0
Zn407 Zn 0.94982 0.57627 0.87861 0.0
O408 O 0.96211 0.58271 0.83598 0.0
O409 O 0.97706 0.56982 0.8452 0.0
O410 O 0.93631 0.5886 0.87895 0.0
O411 O 0.96929 0.56282 0.94482 0.0
O412 O 0.95607 0.5776 0.93874 0.0
C413 C 0.97278 0.57907 0.82741 0.0
C414 C 0.94538 0.54943 0.85605 0.0
O415 O 0.94135 0.56021 0.86004 0.0
O416 O 0.95628 0.54713 0.86507 0.0
C417 C 0.93128 0.59284 0.847 0.0
O418 O 0.93486 0.58904 0.81084 0.0
C419 C 0.96354 0.57156 0.96047 0.0
Zn420 Zn 0.1859 0.21939 0.60829 0.0
Zn421 Zn 0.17044 0.20175 0.60926 0.0
O422 O 0.16376 0.21248 0.56202 0.0
O423 O 0.17765 0.22676 0.56026 0.0
O424 O 0.15854 0.18788 0.61344 0.0
O425 O 0.18104 0.22546 0.66282 0.0
O426 O 0.16853 0.20998 0.66651 0.0
C427 C 0.16792 0.22226 0.54663 0.0
C428 C 0.19781 0.19715 0.59469 0.0
O429 O 0.18692 0.19324 0.59588 0.0
O430 O 0.19992 0.20824 0.60103 0.0
C431 C 0.15363 0.18289 0.58251 0.0
O432 O 0.15644 0.18672 0.54562 0.0
C433 C 0.17309 0.21955 0.68208 0.0
Zn434 Zn 0.53361 0.448 0.41666 0.0
Zn435 Zn 0.54966 0.43078 0.4062 0.0
O436 O 0.53661 0.42575 0.36407 0.0
O437 O 0.52286 0.4398 0.37526 0.0
O438 O 0.56261 0.41781 0.40389 0.0
O439 O 0.53147 0.44455 0.47598 0.0
O440 O 0.54378 0.42915 0.46663 0.0
C441 C 0.52629 0.43041 0.35622 0.0
C442 C 0.55572 0.45759 0.38676 0.0
O443 O 0.55885 0.44646 0.38832 0.0
O444 O 0.54523 0.46068 0.3982 0.0
C445 C 0.56409 0.41024 0.37494 0.0
O446 O 0.55691 0.41068 0.34289 0.0
C447 C 0.53679 0.43529 0.48983 0.0
H448 H 0.27778 0.2976 0.89638 0.0
H449 H 0.26108 0.30795 0.92888 0.0
H450 H 0.2855 0.33533 0.97448 0.0
H451 H 0.30259 0.32458 0.94273 0.0
H452 H 0.27272 0.32742 0.03437 0.0
H453 H 0.23996 0.33619 0.9128 0.0
H454 H 0.24451 0.32077 0.90656 0.0
H455 H 0.25558 0.33274 0.90122 0.0
C456 C 0.27964 0.30597 0.91248 0.0
C457 C 0.29156 0.31019 0.91727 0.0
C458 C 0.26998 0.31202 0.93067 0.0
C459 C 0.2719 0.32259 0.95364 0.0
C460 C 0.28374 0.32725 0.9566 0.0
H461 H 0.20106 0.32592 0.07049 0.0
H462 H 0.21847 0.33618 0.03896 0.0
C463 C 0.2935 0.32113 0.93836 0.0
C464 C 0.26183 0.3273 0.97945 0.0
H465 H 0.23098 0.32823 0.97846 0.0
C466 C 0.26363 0.32804 0.02197 0.0
C467 C 0.24995 0.3287 0.96378 0.0
C468 C 0.24746 0.3297 0.91849 0.0
C469 C 0.25377 0.32835 0.04911 0.0
C470 C 0.24186 0.32741 0.03334 0.0
C471 C 0.24008 0.3285 0.99089 0.0
C472 C 0.23163 0.32288 0.05884 0.0
C473 C 0.25628 0.32897 0.09446 0.0
C474 C 0.23321 0.31213 0.08112 0.0
C475 C 0.22338 0.30635 0.09923 0.0
C476 C 0.2116 0.31102 0.09499 0.0
C477 C 0.21002 0.32211 0.07443 0.0
C478 C 0.21996 0.32796 0.05631 0.0
H479 H 0.264 0.33516 0.10064 0.0
H480 H 0.24827 0.33215 0.11197 0.0
H481 H 0.25894 0.31986 0.10569 0.0
H482 H 0.24196 0.30773 0.08252 0.0
H483 H 0.22496 0.29784 0.11487 0.0
H484 H 0.93123 0.97534 0.4165 0.0
H485 H 0.92234 0.99104 0.37313 0.0
H486 H 0.9241 0.96683 0.26945 0.0
H487 H 0.93214 0.95092 0.31353 0.0
H488 H 0.93551 0.00047 0.3196 0.0
H489 H 0.89515 0.98499 0.23587 0.0
H490 H 0.90069 0.9771 0.28053 0.0
H491 H 0.90688 0.97393 0.23048 0.0
C492 C 0.92911 0.97322 0.3849 0.0
C493 C 0.93232 0.96195 0.36827 0.0
C494 C 0.92408 0.9822 0.36003 0.0
C495 C 0.92254 0.98022 0.31779 0.0
C496 C 0.92486 0.96859 0.30196 0.0
H497 H 0.94207 0.01837 0.1105 0.0
H498 H 0.93314 0.00403 0.15865 0.0
C499 C 0.92954 0.95947 0.32718 0.0
C500 C 0.92108 0.99073 0.28957 0.0
H501 H 0.90798 0.99976 0.19964 0.0
C502 C 0.92918 0.00045 0.29419 0.0
C503 C 0.91292 0.99078 0.25604 0.0
C504 C 0.90335 0.98118 0.25078 0.0
C505 C 0.9299 0.00975 0.26514 0.0
C506 C 0.92231 0.00936 0.23031 0.0
C507 C 0.91379 1.00001 0.22641 0.0
C508 C 0.92445 0.01773 0.19566 0.0
C509 C 0.93934 0.01953 0.27054 0.0
C510 C 0.92197 0.03015 0.19937 0.0
C511 C 0.92706 0.03842 0.17172 0.0
C512 C 0.93478 0.03434 0.14036 0.0
C513 C 0.93626 0.0218 0.13459 0.0
C514 C 0.93111 0.01357 0.16195 0.0
H515 H 0.94525 0.01789 0.29751 0.0
H516 H 0.94512 0.02015 0.2428 0.0
H517 H 0.93478 0.0284 0.27466 0.0
H518 H 0.91685 0.03351 0.22529 0.0
H519 H 0.92575 0.04801 0.17698 0.0
H520 H 0.22529 0.70198 0.38251 0.0
H521 H 0.24206 0.69189 0.41547 0.0
H522 H 0.21823 0.66329 0.45573 0.0
H523 H 0.20104 0.6738 0.42372 0.0
H524 H 0.22999 0.6709 0.51754 0.0
H525 H 0.26454 0.66484 0.40004 0.0
H526 H 0.25953 0.68015 0.39491 0.0
H527 H 0.24898 0.66787 0.38646 0.0
C528 C 0.22359 0.69339 0.39748 0.0
C529 C 0.21178 0.68878 0.40085 0.0
C530 C 0.2333 0.68749 0.41592 0.0
C531 C 0.23155 0.67666 0.43765 0.0
C532 C 0.21986 0.67158 0.43889 0.0
H533 H 0.30089 0.67462 0.56607 0.0
H534 H 0.28442 0.66435 0.52915 0.0
C535 C 0.21004 0.67757 0.42048 0.0
C536 C 0.24152 0.67212 0.46431 0.0
H537 H 0.27238 0.67257 0.46785 0.0
C538 C 0.23924 0.67082 0.50641 0.0
C539 C 0.25364 0.67143 0.45027 0.0
C540 C 0.25674 0.671 0.40531 0.0
C541 C 0.24876 0.67063 0.53493 0.0
C542 C 0.2608 0.67228 0.5211 0.0
C543 C 0.26315 0.67177 0.47885 0.0
C544 C 0.27049 0.67688 0.54877 0.0
C545 C 0.24571 0.66934 0.57974 0.0
C546 C 0.26817 0.68723 0.57247 0.0
C547 C 0.27747 0.693 0.59363 0.0
C548 C 0.28944 0.68875 0.59113 0.0
C549 C 0.29176 0.67811 0.56872 0.0
C550 C 0.28236 0.67225 0.54756 0.0
H551 H 0.23819 0.66278 0.58392 0.0
H552 H 0.25362 0.66626 0.59797 0.0
H553 H 0.24255 0.67819 0.59183 0.0
H554 H 0.25925 0.6913 0.57293 0.0
H555 H 0.2753 0.70116 0.61052 0.0
H556 H 0.5538 0.02335 0.85355 0.0
H557 H 0.56465 0.00745 0.8188 0.0
H558 H 0.59208 0.03298 0.78123 0.0
H559 H 0.58075 0.04934 0.81509 0.0
H560 H 0.58574 0.02094 0.71852 0.0
H561 H 0.59272 0.98638 0.83495 0.0
H562 H 0.57718 0.99064 0.84002 0.0
H563 H 0.58894 0.00174 0.84902 0.0
C564 C 0.56226 0.02563 0.83867 0.0
C565 C 0.56633 0.03767 0.83684 0.0
C566 C 0.56862 0.01641 0.81922 0.0
C567 C 0.5794 0.01885 0.79801 0.0
C568 C 0.58386 0.0308 0.79774 0.0
H569 H 0.58052 0.94989 0.67274 0.0
H570 H 0.59195 0.96612 0.70681 0.0
C571 C 0.57739 0.04015 0.81716 0.0
C572 C 0.5846 0.00922 0.77131 0.0
H573 H 0.58493 0.97841 0.76696 0.0
C574 C 0.58602 0.01166 0.72937 0.0
C575 C 0.58569 0.9971 0.78499 0.0
C576 C 0.5862 0.9939 0.82986 0.0
C577 C 0.58653 0.00223 0.70058 0.0
C578 C 0.58499 0.99012 0.71397 0.0
C579 C 0.58558 0.98767 0.75615 0.0
C580 C 0.58011 0.98055 0.6863 0.0
C581 C 0.58799 0.00542 0.65595 0.0
C582 C 0.56984 0.9832 0.66255 0.0
C583 C 0.56345 0.97404 0.64289 0.0
C584 C 0.56694 0.96187 0.64708 0.0
C585 C 0.57761 0.95918 0.66887 0.0
C586 C 0.58412 0.96846 0.68844 0.0
H587 H 0.59481 0.01273 0.65238 0.0
H588 H 0.59084 0.9975 0.63734 0.0
H589 H 0.57928 0.00897 0.64387 0.0
H590 H 0.5662 0.99229 0.66134 0.0
H591 H 0.55532 0.97648 0.62625 0.0
H592 H 0.6992 0.67564 0.07374 0.0
H593 H 0.71598 0.66586 0.03699 0.0
H594 H 0.73973 0.69496 0.07348 0.0
H595 H 0.72342 0.70434 0.11112 0.0
H596 H 0.72685 0.67362 0.97338 0.0
H597 H 0.76278 0.66822 0.08679 0.0
H598 H 0.74732 0.67106 0.1021 0.0
H599 H 0.75757 0.68347 0.09188 0.0
C600 C 0.70811 0.67973 0.07487 0.0
C601 C 0.70993 0.69081 0.09528 0.0
C602 C 0.71769 0.67414 0.0538 0.0
C603 C 0.72925 0.67951 0.05297 0.0
C604 C 0.7311 0.69033 0.07467 0.0
H605 H 0.77144 0.70298 0.87283 0.0
H606 H 0.75565 0.69334 0.9122 0.0
C607 C 0.72163 0.69582 0.09586 0.0
C608 C 0.73897 0.67509 0.02505 0.0
H609 H 0.76976 0.6754 0.01772 0.0
C610 C 0.73622 0.67359 0.98334 0.0
C611 C 0.75123 0.67445 0.03763 0.0
C612 C 0.75483 0.67424 0.08219 0.0
C613 C 0.74542 0.67318 0.95369 0.0
C614 C 0.75762 0.67482 0.96592 0.0
C615 C 0.76042 0.67458 0.00789 0.0
C616 C 0.76707 0.67913 0.93677 0.0
C617 C 0.74188 0.6716 0.90939 0.0
C618 C 0.77895 0.67451 0.9374 0.0
C619 C 0.78822 0.68025 0.91521 0.0
C620 C 0.78574 0.69076 0.89233 0.0
C621 C 0.77372 0.69493 0.89014 0.0
C622 C 0.76457 0.68927 0.91232 0.0
H623 H 0.73432 0.66501 0.90667 0.0
H624 H 0.73858 0.68036 0.89706 0.0
H625 H 0.74958 0.66838 0.89041 0.0
H626 H 0.78116 0.66675 0.9563 0.0
H627 H 0.79739 0.67684 0.91765 0.0
H628 H 0.05365 0.97865 0.89624 0.0
H629 H 0.06205 0.99326 0.84786 0.0
H630 H 0.07783 0.96416 0.77798 0.0
H631 H 0.06951 0.94939 0.82662 0.0
H632 H 0.08747 0.99723 0.8046 0.0
H633 H 0.04864 0.98093 0.71005 0.0
H634 H 0.04907 0.97857 0.76471 0.0
H635 H 0.05888 0.97001 0.73189 0.0
C636 C 0.05923 0.97536 0.87132 0.0
C637 C 0.06078 0.96286 0.8649 0.0
C638 C 0.06408 0.98373 0.84383 0.0
C639 C 0.07048 0.97977 0.8093 0.0
C640 C 0.07294 0.96737 0.8046 0.0
H641 H 0.06348 0.02357 0.59134 0.0
H642 H 0.07177 0.00729 0.63362 0.0
C643 C 0.06818 0.95896 0.83241 0.0
C644 C 0.07246 0.98835 0.77515 0.0
H645 H 0.05861 0.99828 0.68825 0.0
C646 C 0.08135 0.99738 0.7786 0.0
C647 C 0.06447 0.98847 0.74135 0.0
C648 C 0.05468 0.97903 0.73651 0.0
C649 C 0.08223 0.00675 0.7495 0.0
C650 C 0.07373 0.0073 0.717 0.0
C651 C 0.0652 0.99792 0.71286 0.0
C652 C 0.07248 0.01795 0.68928 0.0
C653 C 0.09222 0.01595 0.75413 0.0
C654 C 0.07084 0.02963 0.70563 0.0
C655 C 0.06651 0.03906 0.681 0.0
C656 C 0.0634 0.03686 0.64 0.0
C657 C 0.06589 0.02548 0.62286 0.0
C658 C 0.07056 0.01617 0.64712 0.0
H659 H 0.10039 0.01178 0.7681 0.0
H660 H 0.09477 0.02002 0.72426 0.0
H661 H 0.08914 0.02327 0.77498 0.0
H662 H 0.0719 0.03125 0.73813 0.0
H663 H 0.06445 0.04771 0.69507 0.0
H664 H 0.69482 0.32416 0.41716 0.0
H665 H 0.71168 0.33493 0.45026 0.0
H666 H 0.73683 0.30937 0.39769 0.0
H667 H 0.72036 0.29903 0.36388 0.0
H668 H 0.72513 0.3266 0.50756 0.0
H669 H 0.7568 0.33861 0.38601 0.0
H670 H 0.74125 0.3348 0.37468 0.0
H671 H 0.75277 0.32317 0.37685 0.0
C672 C 0.704 0.32111 0.41169 0.0
C673 C 0.70623 0.31068 0.3881 0.0
C674 C 0.71363 0.32726 0.43066 0.0
C675 C 0.72562 0.32314 0.426 0.0
C676 C 0.7278 0.31307 0.40082 0.0
H677 H 0.77364 0.29648 0.57722 0.0
H678 H 0.75642 0.30665 0.54728 0.0
C679 C 0.71828 0.307 0.38188 0.0
C680 C 0.73567 0.32779 0.45203 0.0
H681 H 0.76648 0.32969 0.4493 0.0
C682 C 0.73411 0.32774 0.49473 0.0
C683 C 0.7474 0.32986 0.43593 0.0
C684 C 0.74957 0.33176 0.39079 0.0
C685 C 0.74413 0.32784 0.52122 0.0
C686 C 0.75596 0.32752 0.50451 0.0
C687 C 0.75744 0.32947 0.46231 0.0
C688 C 0.76637 0.32259 0.52817 0.0
C689 C 0.7419 0.3275 0.56677 0.0
C690 C 0.77791 0.32801 0.52713 0.0
C691 C 0.78798 0.32202 0.54396 0.0
C692 C 0.78666 0.31046 0.56151 0.0
C693 C 0.77503 0.30535 0.56384 0.0
C694 C 0.76507 0.31127 0.54719 0.0
H695 H 0.73404 0.33331 0.57486 0.0
H696 H 0.7396 0.31811 0.57611 0.0
H697 H 0.74993 0.33058 0.58439 0.0
H698 H 0.77918 0.33667 0.51216 0.0
H699 H 0.79684 0.32617 0.54157 0.0
H700 H 0.43652 0.9469 0.20001 0.0
H701 H 0.42906 0.96476 0.23611 0.0
H702 H 0.43056 0.98526 0.1236 0.0
H703 H 0.43887 0.96758 0.08834 0.0
H704 H 0.44319 0.99589 0.17593 0.0
H705 H 0.40059 0.98532 0.25572 0.0
H706 H 0.41165 0.97405 0.26806 0.0
H707 H 0.40652 0.97568 0.21584 0.0
C708 C 0.43477 0.95509 0.18273 0.0
C709 C 0.43825 0.95591 0.14149 0.0
C710 C 0.43043 0.96533 0.20335 0.0
C711 C 0.42914 0.97644 0.1827 0.0
C712 C 0.43149 0.97685 0.14037 0.0
H713 H 0.43183 0.04897 0.29434 0.0
H714 H 0.42331 0.03282 0.25138 0.0
C715 C 0.43618 0.96673 0.12012 0.0
C716 C 0.42775 0.98794 0.20622 0.0
H717 H 0.41334 0.00085 0.28813 0.0
C718 C 0.43639 0.99709 0.19954 0.0
C719 C 0.41896 0.9896 0.23739 0.0
C720 C 0.40884 0.98067 0.2443 0.0
C721 C 0.43694 0.0074 0.22443 0.0
C722 C 0.42867 0.00865 0.25716 0.0
C723 C 0.41968 0.99984 0.26298 0.0
C724 C 0.4305 0.01823 0.28827 0.0
C725 C 0.44685 0.01658 0.21712 0.0
C726 C 0.43683 0.01532 0.32415 0.0
C727 C 0.44179 0.02448 0.34837 0.0
C728 C 0.44041 0.03671 0.33731 0.0
C729 C 0.43299 0.03963 0.30371 0.0
C730 C 0.42814 0.03042 0.27912 0.0
H731 H 0.45302 0.01388 0.19183 0.0
H732 H 0.44275 0.02546 0.20927 0.0
H733 H 0.4523 0.01782 0.24541 0.0
H734 H 0.43879 0.00597 0.33159 0.0
H735 H 0.4474 0.02196 0.37424 0.0
H736 H 0.72898 0.79747 0.60028 0.0
H737 H 0.74454 0.80826 0.56358 0.0
H738 H 0.71892 0.83619 0.53138 0.0
H739 H 0.70288 0.82495 0.56716 0.0
H740 H 0.73018 0.8301 0.46671 0.0
H741 H 0.766 0.83605 0.57969 0.0
H742 H 0.76169 0.8205 0.5835 0.0
H743 H 0.75078 0.83222 0.59513 0.0
C744 C 0.72661 0.80602 0.58615 0.0
C745 C 0.71461 0.81028 0.58649 0.0
C746 C 0.73565 0.81233 0.56555 0.0
C747 C 0.73308 0.82325 0.54536 0.0
C748 C 0.7212 0.82786 0.54707 0.0
H749 H 0.80082 0.82741 0.41156 0.0
H750 H 0.78461 0.83766 0.44973 0.0
C751 C 0.71203 0.82144 0.56757 0.0
C752 C 0.74246 0.82855 0.51791 0.0
H753 H 0.77321 0.82927 0.50993 0.0
C754 C 0.73956 0.83035 0.47645 0.0
C755 C 0.75472 0.82957 0.53026 0.0
C756 C 0.7584 0.82963 0.57475 0.0
C757 C 0.74868 0.83129 0.44665 0.0
C758 C 0.76095 0.82981 0.45841 0.0
C759 C 0.76383 0.82991 0.50032 0.0
C760 C 0.77037 0.82565 0.42886 0.0
C761 C 0.745 0.83319 0.40264 0.0
C762 C 0.76779 0.81569 0.4036 0.0
C763 C 0.77694 0.80998 0.38156 0.0
C764 C 0.78903 0.81385 0.38483 0.0
C765 C 0.7916 0.82421 0.40833 0.0
C766 C 0.78233 0.83006 0.43025 0.0
H767 H 0.73747 0.83984 0.40083 0.0
H768 H 0.75264 0.8365 0.38358 0.0
H769 H 0.74158 0.82455 0.38975 0.0
H770 H 0.75882 0.81176 0.40285 0.0
H771 H 0.77458 0.80205 0.36372 0.0
H772 H 0.42757 0.44972 0.82004 0.0
H773 H 0.41894 0.4641 0.77071 0.0
H774 H 0.43202 0.49388 0.84368 0.0
H775 H 0.44068 0.47965 0.89281 0.0
H776 H 0.40782 0.49729 0.79635 0.0
H777 H 0.44804 0.48159 0.7075 0.0
H778 H 0.43757 0.47045 0.7265 0.0
H779 H 0.44673 0.47887 0.76179 0.0
C780 C 0.42817 0.45933 0.82642 0.0
C781 C 0.43496 0.46357 0.85993 0.0
C782 C 0.42326 0.46753 0.79817 0.0
C783 C 0.42497 0.48004 0.80342 0.0
C784 C 0.43059 0.48427 0.83914 0.0
H785 H 0.43193 0.5481 0.69214 0.0
H786 H 0.42396 0.53147 0.73327 0.0
C787 C 0.43558 0.47612 0.86709 0.0
C788 C 0.42324 0.48855 0.76889 0.0
H789 H 0.43804 0.49872 0.68414 0.0
C790 C 0.41424 0.4975 0.77121 0.0
C791 C 0.43162 0.48878 0.73621 0.0
C792 C 0.44159 0.47947 0.73261 0.0
C793 C 0.41364 0.50691 0.74217 0.0
C794 C 0.42253 0.50758 0.71094 0.0
C795 C 0.43115 0.49826 0.70778 0.0
C796 C 0.4241 0.51834 0.68385 0.0
C797 C 0.40354 0.51604 0.74558 0.0
C798 C 0.42662 0.51671 0.64198 0.0
C799 C 0.4316 0.52613 0.61888 0.0
C800 C 0.43382 0.53745 0.63687 0.0
C801 C 0.43011 0.5395 0.6774 0.0
C802 C 0.42547 0.52997 0.70092 0.0
H803 H 0.39522 0.51178 0.7581 0.0
H804 H 0.40629 0.52331 0.76717 0.0
H805 H 0.40136 0.52019 0.71549 0.0
H806 H 0.42563 0.50788 0.62794 0.0
H807 H 0.43443 0.52433 0.58769 0.0
H808 H 0.73099 0.20174 0.88513 0.0
H809 H 0.74712 0.19158 0.92123 0.0
H810 H 0.72214 0.16407 0.96215 0.0
H811 H 0.70556 0.17467 0.9268 0.0
H812 H 0.73416 0.17155 0.02417 0.0
H813 H 0.76851 0.16351 0.90744 0.0
H814 H 0.76399 0.17893 0.90083 0.0
H815 H 0.75304 0.16693 0.89355 0.0
C816 C 0.72889 0.1934 0.90105 0.0
C817 C 0.71693 0.18909 0.90329 0.0
C818 C 0.73823 0.18745 0.92131 0.0
C819 C 0.736 0.17686 0.94382 0.0
C820 C 0.72415 0.17216 0.94464 0.0
H821 H 0.80546 0.17575 0.06707 0.0
H822 H 0.78881 0.16459 0.03454 0.0
C823 C 0.71468 0.1782 0.92437 0.0
C824 C 0.74575 0.17209 0.97094 0.0
H825 H 0.77657 0.17166 0.97438 0.0
C826 C 0.74341 0.17113 0.0131 0.0
C827 C 0.75783 0.17087 0.957 0.0
C828 C 0.76091 0.16996 0.91211 0.0
C829 C 0.75293 0.17086 0.04166 0.0
C830 C 0.76501 0.17214 0.02772 0.0
C831 C 0.76733 0.17118 0.98553 0.0
C832 C 0.77479 0.17695 0.0547 0.0
C833 C 0.74985 0.16987 0.08652 0.0
C834 C 0.7725 0.18742 0.07785 0.0
C835 C 0.78191 0.19367 0.09675 0.0
C836 C 0.79397 0.18982 0.09229 0.0
C837 C 0.79627 0.17896 0.07111 0.0
C838 C 0.78675 0.17259 0.05241 0.0
H839 H 0.7424 0.16324 0.09107 0.0
H840 H 0.75776 0.16701 0.10514 0.0
H841 H 0.74653 0.17875 0.09781 0.0
H842 H 0.76351 0.19131 0.07914 0.0
H843 H 0.77975 0.20196 0.11288 0.0
H844 H 0.04739 0.47846 0.13405 0.0
H845 H 0.05768 0.49404 0.17234 0.0
H846 H 0.08552 0.46859 0.20703 0.0
H847 H 0.07477 0.45254 0.16959 0.0
H848 H 0.07856 0.47952 0.27137 0.0
H849 H 0.0854 0.51585 0.16091 0.0
H850 H 0.06995 0.51141 0.1549 0.0
H851 H 0.0819 0.50065 0.14428 0.0
C852 C 0.05583 0.47615 0.14904 0.0
C853 C 0.06018 0.46419 0.14896 0.0
C854 C 0.06186 0.48519 0.17058 0.0
C855 C 0.07259 0.48266 0.19201 0.0
C856 C 0.07733 0.47084 0.19043 0.0
H857 H 0.0748 0.54992 0.32924 0.0
H858 H 0.08551 0.5339 0.2916 0.0
C859 C 0.0712 0.46167 0.16894 0.0
C860 C 0.07747 0.49199 0.22057 0.0
H861 H 0.0778 0.5227 0.23008 0.0
C862 C 0.07883 0.48894 0.2621 0.0
C863 C 0.0785 0.5043 0.20894 0.0
C864 C 0.07901 0.50816 0.16467 0.0
C865 C 0.07935 0.49795 0.29243 0.0
C866 C 0.07789 0.51024 0.28107 0.0
C867 C 0.07841 0.51329 0.23932 0.0
C868 C 0.07339 0.51953 0.31055 0.0
C869 C 0.08081 0.4941 0.33647 0.0
C870 C 0.06321 0.51681 0.33463 0.0
C871 C 0.05724 0.52584 0.35642 0.0
C872 C 0.06106 0.53796 0.35403 0.0
C873 C 0.07163 0.54067 0.33176 0.0
C874 C 0.07774 0.53152 0.31014 0.0
H875 H 0.08749 0.48661 0.33876 0.0
H876 H 0.08386 0.50168 0.35628 0.0
H877 H 0.07205 0.49057 0.34813 0.0
H878 H 0.05932 0.50782 0.33457 0.0
H879 H 0.04916 0.52338 0.37326 0.0
H880 H 0.3 0.17233 0.44268 0.0
H881 H 0.2822 0.16212 0.4718 0.0
H882 H 0.25917 0.18984 0.42053 0.0
H883 H 0.27659 0.19961 0.39042 0.0
H884 H 0.26904 0.1705 0.52898 0.0
H885 H 0.23726 0.16238 0.40412 0.0
H886 H 0.25307 0.16537 0.39408 0.0
H887 H 0.24227 0.17764 0.39772 0.0
C888 C 0.29107 0.17595 0.43642 0.0
C889 C 0.28973 0.18684 0.41451 0.0
C890 C 0.2809 0.17014 0.45319 0.0
C891 C 0.26924 0.17507 0.44803 0.0
C892 C 0.26792 0.18554 0.42405 0.0
H893 H 0.22172 0.20203 0.60324 0.0
H894 H 0.23861 0.19148 0.57264 0.0
C895 C 0.27799 0.19127 0.40722 0.0
C896 C 0.25873 0.17083 0.47279 0.0
H897 H 0.22788 0.171 0.46834 0.0
C898 C 0.26007 0.17016 0.51553 0.0
C899 C 0.24696 0.1698 0.45583 0.0
C900 C 0.24488 0.16868 0.41034 0.0
C901 C 0.24994 0.17029 0.54153 0.0
C902 C 0.23823 0.17161 0.52439 0.0
C903 C 0.23684 0.17045 0.4818 0.0
C904 C 0.22795 0.17661 0.5486 0.0
C905 C 0.25198 0.16972 0.58716 0.0
C906 C 0.21614 0.17191 0.54523 0.0
C907 C 0.20627 0.17815 0.56237 0.0
C908 C 0.20807 0.18924 0.58273 0.0
C909 C 0.21996 0.19354 0.58772 0.0
C910 C 0.22972 0.18738 0.57063 0.0
H911 H 0.25941 0.16328 0.59441 0.0
H912 H 0.25483 0.17876 0.59843 0.0
H913 H 0.24369 0.16687 0.60383 0.0
H914 H 0.2145 0.16369 0.52803 0.0
H915 H 0.19721 0.17463 0.55786 0.0
H916 H 0.57748 0.45454 0.34616 0.0
H917 H 0.58813 0.46976 0.30478 0.0
H918 H 0.56167 0.49651 0.34064 0.0
H919 H 0.55157 0.48177 0.383 0.0
H920 H 0.58063 0.47964 0.24053 0.0
H921 H 0.58969 0.51792 0.34093 0.0
H922 H 0.5861 0.50321 0.36178 0.0
H923 H 0.57425 0.51406 0.3507 0.0
C924 C 0.57422 0.46378 0.34625 0.0
C925 C 0.56362 0.4669 0.36771 0.0
C926 C 0.5803 0.47248 0.3225 0.0
C927 C 0.57587 0.48442 0.3199 0.0
C928 C 0.56562 0.48757 0.343 0.0
H929 H 0.55014 0.52142 0.13321 0.0
H930 H 0.56057 0.50675 0.17497 0.0
C931 C 0.55969 0.479 0.36692 0.0
C932 C 0.58042 0.49311 0.28852 0.0
H933 H 0.58086 0.52356 0.27183 0.0
C934 C 0.58112 0.48922 0.2476 0.0
C935 C 0.58175 0.50562 0.29708 0.0
C936 C 0.58306 0.51036 0.34017 0.0
C937 C 0.58125 0.49759 0.21522 0.0
C938 C 0.58005 0.51009 0.22395 0.0
C939 C 0.58125 0.51398 0.26473 0.0
C940 C 0.57514 0.51877 0.19318 0.0
C941 C 0.582 0.49284 0.17198 0.0
C942 C 0.57963 0.53066 0.18952 0.0
C943 C 0.57339 0.53931 0.16608 0.0
C944 C 0.56253 0.53622 0.14608 0.0
C945 C 0.55846 0.52417 0.14813 0.0
C946 C 0.56458 0.51564 0.17169 0.0
H947 H 0.58856 0.48523 0.1703 0.0
H948 H 0.57305 0.48921 0.16265 0.0
H949 H 0.58483 0.49997 0.14999 0.0
H950 H 0.58769 0.53336 0.20606 0.0
H951 H 0.57675 0.54852 0.16521 0.0
H952 H 0.2968 0.81483 0.02617 0.0
H953 H 0.27949 0.82312 0.989 0.0
H954 H 0.25895 0.82428 0.10147 0.0
H955 H 0.27601 0.81514 0.13788 0.0
H956 H 0.24762 0.81163 0.05072 0.0
H957 H 0.26068 0.85255 0.96534 0.0
H958 H 0.27129 0.84071 0.95469 0.0
H959 H 0.26995 0.84655 0.00613 0.0
C960 C 0.28875 0.81735 0.04315 0.0
C961 C 0.28769 0.8144 0.08478 0.0
C962 C 0.27884 0.82216 0.02191 0.0
C963 C 0.26784 0.82443 0.04231 0.0
C964 C 0.26728 0.8226 0.08491 0.0
H965 H 0.19534 0.82335 0.93129 0.0
H966 H 0.21172 0.83175 0.97338 0.0
C967 C 0.27705 0.81745 0.10581 0.0
C968 C 0.25645 0.82622 0.01851 0.0
H969 H 0.24444 0.84034 0.93451 0.0
C970 C 0.24683 0.8182 0.02619 0.0
C971 C 0.25533 0.8347 0.98613 0.0
C972 C 0.26484 0.84418 0.97795 0.0
C973 C 0.23653 0.81791 0.00119 0.0
C974 C 0.23576 0.82586 0.96738 0.0
C975 C 0.24507 0.83427 0.96051 0.0
C976 C 0.22611 0.82422 0.93637 0.0
C977 C 0.22685 0.80857 0.00959 0.0
C978 C 0.22883 0.81782 0.90049 0.0
C979 C 0.21953 0.81295 0.87664 0.0
C980 C 0.20736 0.81447 0.88817 0.0
C981 C 0.20463 0.82203 0.92161 0.0
C982 C 0.21397 0.82682 0.94573 0.0
H983 H 0.22937 0.80233 0.03489 0.0
H984 H 0.21829 0.81319 0.01808 0.0
H985 H 0.22508 0.80311 0.98166 0.0
H986 H 0.23814 0.8157 0.89283 0.0
H987 H 0.22191 0.80725 0.85085 0.0
H988 H 0.95022 0.47788 0.62521 0.0
H989 H 0.93999 0.49353 0.66346 0.0
H990 H 0.91171 0.46837 0.6963 0.0
H991 H 0.92245 0.4522 0.65938 0.0
H992 H 0.91925 0.50488 0.66474 0.0
H993 H 0.92281 0.47745 0.80776 0.0
H994 H 0.92969 0.47243 0.76076 0.0
H995 H 0.91352 0.47172 0.76703 0.0
C996 C 0.94177 0.4756 0.64016 0.0
C997 C 0.93733 0.46367 0.64001 0.0
C998 C 0.93584 0.48465 0.66192 0.0
C999 C 0.9252 0.48213 0.6838 0.0
C1000 C 0.9201 0.47048 0.68079 0.0
H1001 H 0.92221 0.55054 0.82347 0.0
H1002 H 0.91156 0.53433 0.78633 0.0
C1003 C 0.92619 0.46127 0.65932 0.0
C1004 C 0.92059 0.49155 0.71255 0.0
H1005 H 0.92093 0.49823 0.81464 0.0
C1006 C 0.91931 0.50342 0.6976 0.0
C1007 C 0.9204 0.48962 0.75546 0.0
C1008 C 0.92172 0.47715 0.77394 0.0
C1009 C 0.91972 0.51348 0.72396 0.0
C1010 C 0.92088 0.51155 0.76667 0.0
C1011 C 0.92024 0.49966 0.78185 0.0
C1012 C 0.92584 0.52108 0.7943 0.0
C1013 C 0.92025 0.52599 0.70542 0.0
C1014 C 0.93704 0.51886 0.81315 0.0
C1015 C 0.94295 0.52793 0.83486 0.0
C1016 C 0.93793 0.53958 0.83808 0.0
C1017 C 0.92638 0.54169 0.8212 0.0
C1018 C 0.92033 0.53246 0.79967 0.0
H1019 H 0.92053 0.52575 0.67141 0.0
H1020 H 0.91212 0.53119 0.71474 0.0
H1021 H 0.92838 0.53091 0.71651 0.0
H1022 H 0.94153 0.5102 0.8096 0.0
H1023 H 0.95176 0.52587 0.84774 0.0
H1024 H 0.16121 0.28752 0.99314 0.0
H1025 H 0.15654 0.2766 0.92949 0.0
H1026 H 0.1661 0.24285 0.98736 0.0
H1027 H 0.17094 0.25364 0.05061 0.0
H1028 H 0.17904 0.25928 0.90189 0.0
H1029 H 0.13298 0.23877 0.90899 0.0
H1030 H 0.1363 0.25316 0.93298 0.0
H1031 H 0.14222 0.23949 0.95456 0.0
C1032 C 0.16197 0.27774 0.9926 0.0
C1033 C 0.16659 0.27143 0.02654 0.0
C1034 C 0.15927 0.27153 0.95636 0.0
C1035 C 0.1609 0.25895 0.95409 0.0
C1036 C 0.16465 0.25255 0.98883 0.0
H1037 H 0.1666 0.20731 0.7522 0.0
H1038 H 0.16228 0.21648 0.81957 0.0
C1039 C 0.1675 0.25874 0.02476 0.0
C1040 C 0.16103 0.25282 0.91403 0.0
H1041 H 0.14502 0.23403 0.85107 0.0
C1042 C 0.17159 0.25382 0.89058 0.0
C1043 C 0.15139 0.24549 0.90024 0.0
C1044 C 0.14002 0.2441 0.92528 0.0
C1045 C 0.17278 0.24769 0.85334 0.0
C1046 C 0.16299 0.24066 0.8386 0.0
C1047 C 0.15246 0.23949 0.86239 0.0
C1048 C 0.16356 0.23494 0.7977 0.0
C1049 C 0.18463 0.24866 0.83045 0.0
C1050 C 0.16519 0.24229 0.76319 0.0
C1051 C 0.16789 0.23713 0.72545 0.0
C1052 C 0.1687 0.22451 0.7212 0.0
C1053 C 0.16609 0.21707 0.75492 0.0
C1054 C 0.1636 0.22228 0.79321 0.0
H1055 H 0.19219 0.25129 0.8511 0.0
H1056 H 0.187 0.23997 0.81536 0.0
H1057 H 0.18382 0.25573 0.80646 0.0
H1058 H 0.16492 0.25206 0.76588 0.0
H1059 H 0.16963 0.24306 0.69966 0.0
H1060 H 0.03322 0.94684 0.06432 0.0
H1061 H 0.02626 0.94038 0.13186 0.0
H1062 H 0.02688 0.90314 0.0924 0.0
H1063 H 0.03417 0.90955 0.02458 0.0
H1064 H 0.00332 0.91396 0.12257 0.0
H1065 H 0.04179 0.92015 0.22959 0.0
H1066 H 0.04005 0.93203 0.19238 0.0
H1067 H 0.04381 0.917 0.17563 0.0
C1068 C 0.03221 0.93725 0.07037 0.0
C1069 C 0.03422 0.92869 0.03929 0.0
C1070 C 0.02828 0.93357 0.10898 0.0
C1071 C 0.02614 0.92129 0.11709 0.0
C1072 C 0.02862 0.91264 0.08674 0.0
H1073 H 0.97514 0.90893 0.32245 0.0
H1074 H 0.98878 0.90297 0.26656 0.0
C1075 C 0.0328 0.91631 0.04817 0.0
C1076 C 0.01974 0.91797 0.15521 0.0
H1077 H 0.02184 0.92122 0.25875 0.0
C1078 C 0.00738 0.91518 0.15255 0.0
C1079 C 0.02513 0.9196 0.19399 0.0
C1080 C 0.03846 0.92226 0.19828 0.0
C1081 C 0.99999 0.91512 0.18754 0.0
C1082 C 0.00523 0.9176 0.22625 0.0
C1083 C 0.01781 0.91936 0.22909 0.0
C1084 C 0.99769 0.9204 0.26266 0.0
C1085 C 0.98651 0.91344 0.18224 0.0
C1086 C 0.99848 0.93198 0.28002 0.0
C1087 C 0.99087 0.93533 0.3121 0.0
C1088 C 0.98221 0.92719 0.32754 0.0
C1089 C 0.98163 0.91544 0.31097 0.0
C1090 C 0.98938 0.91204 0.27894 0.0
H1091 H 0.98374 0.91366 0.14953 0.0
H1092 H 0.9838 0.90454 0.19507 0.0
H1093 H 0.98145 0.9206 0.19889 0.0
H1094 H 0.00479 0.9386 0.26797 0.0
H1095 H 0.99162 0.94444 0.32408 0.0
H1096 H 0.33496 0.71905 0.5035 0.0
H1097 H 0.33765 0.73241 0.44462 0.0
H1098 H 0.33116 0.7635 0.52171 0.0
H1099 H 0.32784 0.7501 0.58016 0.0
H1100 H 0.31674 0.76424 0.46114 0.0
H1101 H 0.36185 0.75479 0.39673 0.0
H1102 H 0.3537 0.74088 0.4027 0.0
H1103 H 0.35754 0.74975 0.44728 0.0
C1104 C 0.33446 0.72875 0.50808 0.0
C1105 C 0.3311 0.73354 0.54625 0.0
C1106 C 0.33609 0.73641 0.47442 0.0
C1107 C 0.33473 0.74901 0.47865 0.0
C1108 C 0.33226 0.75382 0.51759 0.0
H1109 H 0.33573 0.79161 0.24858 0.0
H1110 H 0.34129 0.78538 0.31842 0.0
C1111 C 0.33036 0.74616 0.55097 0.0
C1112 C 0.33393 0.75688 0.4418 0.0
H1113 H 0.34663 0.76208 0.34804 0.0
C1114 C 0.32346 0.76397 0.43692 0.0
C1115 C 0.34272 0.75676 0.41022 0.0
C1116 C 0.35464 0.75023 0.41477 0.0
C1117 C 0.32115 0.77023 0.40046 0.0
C1118 C 0.32935 0.7691 0.36745 0.0
C1119 C 0.34024 0.76276 0.37317 0.0
C1120 C 0.32607 0.77324 0.32577 0.0
C1121 C 0.30975 0.77771 0.39724 0.0
C1122 C 0.31577 0.76839 0.30679 0.0
C1123 C 0.31256 0.77193 0.26733 0.0
C1124 C 0.31966 0.78033 0.24563 0.0
C1125 C 0.33003 0.78518 0.26458 0.0
C1126 C 0.33325 0.78161 0.30436 0.0
H1127 H 0.30686 0.78108 0.42778 0.0
H1128 H 0.31102 0.78558 0.3765 0.0
H1129 H 0.30234 0.77199 0.38491 0.0
H1130 H 0.31026 0.76171 0.32239 0.0
H1131 H 0.30457 0.76793 0.2537 0.0
H1132 H 0.53753 0.09366 0.75935 0.0
H1133 H 0.52619 0.10062 0.69901 0.0
H1134 H 0.49633 0.07753 0.73301 0.0
H1135 H 0.5073 0.07087 0.79307 0.0
H1136 H 0.5202 0.08656 0.63802 0.0
H1137 H 0.47777 0.10619 0.69478 0.0
H1138 H 0.49074 0.10406 0.72778 0.0
H1139 H 0.47998 0.09197 0.71996 0.0
C1140 C 0.52842 0.09034 0.75442 0.0
C1141 C 0.52337 0.08163 0.7808 0.0
C1142 C 0.52194 0.09433 0.72002 0.0
C1143 C 0.5103 0.08978 0.71178 0.0
C1144 C 0.50511 0.0815 0.73919 0.0
H1145 H 0.48078 0.05692 0.51278 0.0
H1146 H 0.49047 0.06516 0.57366 0.0
C1147 C 0.51152 0.07754 0.77335 0.0
C1148 C 0.50427 0.09189 0.67176 0.0
H1149 H 0.476 0.09436 0.63007 0.0
C1150 C 0.51062 0.08868 0.63615 0.0
C1151 C 0.49183 0.09489 0.6688 0.0
C1152 C 0.48476 0.09961 0.70495 0.0
C1153 C 0.50459 0.08707 0.59881 0.0
C1154 C 0.49186 0.08845 0.59731 0.0
C1155 C 0.48572 0.09299 0.6316 0.0
C1156 C 0.48479 0.08362 0.56247 0.0
C1157 C 0.51179 0.0832 0.56179 0.0
C1158 C 0.47779 0.09117 0.53731 0.0
C1159 C 0.47209 0.08643 0.5024 0.0
C1160 C 0.47335 0.07409 0.49244 0.0
C1161 C 0.47975 0.06649 0.51927 0.0
C1162 C 0.48536 0.07119 0.55397 0.0
H1163 H 0.52131 0.08641 0.56379 0.0
H1164 H 0.51197 0.07316 0.56023 0.0
H1165 H 0.5077 0.0867 0.53306 0.0
H1166 H 0.47713 0.10077 0.54376 0.0
H1167 H 0.46721 0.09252 0.48226 0.0
H1168 H 0.18397 0.78129 0.7061 0.0
H1169 H 0.17511 0.77188 0.6455 0.0
H1170 H 0.1398 0.77305 0.70176 0.0
H1171 H 0.14864 0.78279 0.7626 0.0
H1172 H 0.14899 0.74916 0.67727 0.0
H1173 H 0.15172 0.78252 0.55126 0.0
H1174 H 0.16509 0.78231 0.5826 0.0
H1175 H 0.15087 0.78689 0.60461 0.0
C1176 C 0.17426 0.77989 0.70508 0.0
C1177 C 0.16699 0.78275 0.73896 0.0
C1178 C 0.1692 0.77456 0.67037 0.0
C1179 C 0.15679 0.77187 0.66905 0.0
C1180 C 0.14937 0.7752 0.70208 0.0
H1181 H 0.14793 0.72849 0.44496 0.0
H1182 H 0.13944 0.74059 0.50162 0.0
C1183 C 0.15442 0.78078 0.73666 0.0
C1184 C 0.15226 0.76399 0.63581 0.0
H1185 H 0.15379 0.76133 0.53195 0.0
C1186 C 0.14958 0.75189 0.64542 0.0
C1187 C 0.15292 0.76758 0.59436 0.0
C1188 C 0.15519 0.78057 0.58252 0.0
C1189 C 0.14892 0.74305 0.61464 0.0
C1190 C 0.151 0.74644 0.57353 0.0
C1191 C 0.15227 0.75873 0.56359 0.0
C1192 C 0.15457 0.73741 0.54236 0.0
C1193 C 0.14695 0.73002 0.62654 0.0
C1194 C 0.16575 0.73153 0.54691 0.0
C1195 C 0.17065 0.7249 0.51466 0.0
C1196 C 0.16436 0.72383 0.47756 0.0
C1197 C 0.15281 0.72905 0.47369 0.0
C1198 C 0.148 0.73596 0.50583 0.0
H1199 H 0.14184 0.72931 0.65576 0.0
H1200 H 0.14197 0.72505 0.60223 0.0
H1201 H 0.15587 0.72557 0.63094 0.0
H1202 H 0.17106 0.73273 0.57453 0.0
H1203 H 0.17962 0.72105 0.51803 0.0
H1204 H 0.46955 0.93461 0.95578 0.0
H1205 H 0.47843 0.92665 0.89279 0.0
H1206 H 0.48022 0.89103 0.9465 0.0
H1207 H 0.47096 0.89894 0.00971 0.0
H1208 H 0.50357 0.90375 0.91523 0.0
H1209 H 0.46619 0.901 0.80241 0.0
H1210 H 0.46559 0.91404 0.83536 0.0
H1211 H 0.46389 0.89917 0.85696 0.0
C1212 C 0.47151 0.92501 0.95376 0.0
C1213 C 0.46957 0.91738 0.98746 0.0
C1214 C 0.47655 0.92047 0.9178 0.0
C1215 C 0.47991 0.90826 0.91506 0.0
C1216 C 0.47756 0.90046 0.94802 0.0
H1217 H 0.53374 0.90223 0.71391 0.0
H1218 H 0.52155 0.89365 0.77007 0.0
C1219 C 0.47224 0.90497 0.98391 0.0
C1220 C 0.48721 0.90436 0.87954 0.0
H1221 H 0.48613 0.905 0.77536 0.0
C1222 C 0.4998 0.90355 0.88455 0.0
C1223 C 0.4822 0.90407 0.83982 0.0
C1224 C 0.4687 0.90451 0.83316 0.0
C1225 C 0.50761 0.90391 0.85058 0.0
C1226 C 0.5026 0.90491 0.81084 0.0
C1227 C 0.48997 0.90431 0.80587 0.0
C1228 C 0.50989 0.90933 0.77582 0.0
C1229 C 0.5211 0.90449 0.85765 0.0
C1230 C 0.5073 0.92086 0.76029 0.0
C1231 C 0.51411 0.92569 0.72849 0.0
C1232 C 0.52376 0.91914 0.71127 0.0
C1233 C 0.5264 0.90752 0.72668 0.0
C1234 C 0.51946 0.90262 0.75873 0.0
H1235 H 0.52346 0.90449 0.89074 0.0
H1236 H 0.5255 0.89655 0.84309 0.0
H1237 H 0.52491 0.91278 0.84338 0.0
H1238 H 0.50003 0.92624 0.77324 0.0
H1239 H 0.5118 0.93467 0.71763 0.0
H1240 H 0.32944 0.25241 0.96913 0.0
H1241 H 0.33485 0.24248 0.03327 0.0
H1242 H 0.34929 0.27608 0.07941 0.0
H1243 H 0.34391 0.28618 0.01487 0.0
H1244 H 0.35766 0.24123 0.08642 0.0
H1245 H 0.31808 0.26648 0.14944 0.0
H1246 H 0.32038 0.26464 0.09508 0.0
H1247 H 0.32963 0.27503 0.12342 0.0
C1248 C 0.33399 0.25766 0.99257 0.0
C1249 C 0.33605 0.27013 0.98734 0.0
C1250 C 0.33716 0.25193 0.02903 0.0
C1251 C 0.34238 0.25858 0.06097 0.0
C1252 C 0.34526 0.27083 0.05492 0.0
H1253 H 0.33518 0.23989 0.31604 0.0
H1254 H 0.34192 0.24977 0.25329 0.0
C1255 C 0.34217 0.27658 0.01815 0.0
C1256 C 0.34292 0.2531 0.10213 0.0
H1257 H 0.32722 0.25216 0.19176 0.0
C1258 C 0.35116 0.2437 0.10986 0.0
C1259 C 0.33432 0.25631 0.13221 0.0
C1260 C 0.32503 0.26611 0.12484 0.0
C1261 C 0.35098 0.23737 0.14723 0.0
C1262 C 0.34213 0.24035 0.17687 0.0
C1263 C 0.33405 0.24991 0.16914 0.0
C1264 C 0.34065 0.23364 0.21587 0.0
C1265 C 0.36028 0.2276 0.15458 0.0
C1266 C 0.33812 0.22114 0.21612 0.0
C1267 C 0.3345 0.2154 0.25242 0.0
C1268 C 0.33307 0.22219 0.28838 0.0
C1269 C 0.33613 0.23452 0.28845 0.0
C1270 C 0.34001 0.24015 0.25268 0.0
H1271 H 0.36852 0.22908 0.13571 0.0
H1272 H 0.36295 0.22719 0.18733 0.0
H1273 H 0.35638 0.21871 0.14582 0.0
H1274 H 0.33828 0.21598 0.18794 0.0
H1275 H 0.33211 0.20589 0.25179 0.0
H1276 H 0.03717 0.08779 0.47894 0.0
H1277 H 0.02855 0.09456 0.41328 0.0
H1278 H 0.01481 0.05861 0.3915 0.0
H1279 H 0.02328 0.05179 0.45633 0.0
H1280 H 0.03078 0.08385 0.32655 0.0
H1281 H 0.98473 0.08275 0.39379 0.0
H1282 H 0.9983 0.08382 0.4246 0.0
H1283 H 0.99351 0.06943 0.40455 0.0
C1284 C 0.0325 0.08129 0.45974 0.0
C1285 C 0.03078 0.06929 0.47305 0.0
C1286 C 0.02757 0.08519 0.4224 0.0
C1287 C 0.02088 0.07711 0.39812 0.0
C1288 C 0.01979 0.065 0.41022 0.0
H1289 H 0.9953 0.06036 0.16989 0.0
H1290 H 0.00749 0.06639 0.22826 0.0
C1291 C 0.02467 0.06112 0.44728 0.0
C1292 C 0.01439 0.08118 0.36103 0.0
H1293 H 0.98596 0.08116 0.32053 0.0
C1294 C 0.02097 0.08358 0.32525 0.0
C1295 C 0.0016 0.08112 0.3597 0.0
C1296 C 0.99409 0.07926 0.39781 0.0
C1297 C 0.01507 0.08483 0.28735 0.0
C1298 C 0.00233 0.08339 0.28536 0.0
C1299 C 0.99572 0.08214 0.32183 0.0
C1300 C 0.99587 0.08127 0.24614 0.0
C1301 C 0.02258 0.08726 0.24967 0.0
C1302 C 0.98516 0.08755 0.23671 0.0
C1303 C 0.97799 0.08398 0.20342 0.0
C1304 C 0.98139 0.074 0.17925 0.0
C1305 C 0.99238 0.06808 0.18783 0.0
C1306 C 0.99948 0.07163 0.221 0.0
H1307 H 0.03063 0.09285 0.25735 0.0
H1308 H 0.02592 0.07853 0.23714 0.0
H1309 H 0.01725 0.09196 0.2256 0.0
H1310 H 0.98212 0.09494 0.25596 0.0
H1311 H 0.96959 0.08874 0.19759 0.0
H1312 H 0.84414 0.72016 0.95612 0.0
H1313 H 0.85155 0.73177 0.01523 0.0
H1314 H 0.82509 0.75957 0.99053 0.0
H1315 H 0.81798 0.74838 0.93134 0.0
H1316 H 0.84644 0.76923 0.01754 0.0
H1317 H 0.83129 0.73136 0.11847 0.0
H1318 H 0.84286 0.72804 0.08149 0.0
H1319 H 0.8278 0.73164 0.06458 0.0
C1320 C 0.84005 0.72884 0.96299 0.0
C1321 C 0.83032 0.73323 0.93944 0.0
C1322 C 0.84427 0.73544 -0.00319 0.0
C1323 C 0.83872 0.74643 0.00773 0.0
C1324 C 0.82952 0.75112 0.98276 0.0
H1325 H 0.80938 0.77948 0.20438 0.0
H1326 H 0.81685 0.77056 0.14102 0.0
C1327 C 0.82539 0.74462 0.949 0.0
C1328 C 0.84128 0.75258 0.04718 0.0
H1329 H 0.83508 0.74998 0.14918 0.0
C1330 C 0.8443 0.76495 0.04656 0.0
C1331 C 0.83844 0.74697 0.08499 0.0
C1332 C 0.83485 0.7338 0.08772 0.0
C1333 C 0.84358 0.77206 0.08217 0.0
C1334 C 0.83987 0.76661 0.11912 0.0
C1335 C 0.83791 0.75407 0.12053 0.0
C1336 C 0.83574 0.77384 0.15451 0.0
C1337 C 0.84579 0.7855 0.07959 0.0
C1338 C 0.84392 0.77905 0.18232 0.0
C1339 C 0.83963 0.7843 0.21868 0.0
C1340 C 0.82716 0.78422 0.22763 0.0
C1341 C 0.81903 0.7796 0.19847 0.0
C1342 C 0.82328 0.77449 0.16228 0.0
H1343 H 0.84897 0.78832 0.04876 0.0
H1344 H 0.83729 0.79044 0.0868 0.0
H1345 H 0.85266 0.78821 0.10267 0.0
H1346 H 0.85358 0.77856 0.1768 0.0
H1347 H 0.84609 0.78773 0.2408 0.0
H1348 H 0.97277 0.05108 0.9541 0.0
H1349 H 0.98109 0.05828 0.8895 0.0
H1350 H 0.96747 0.09411 0.91415 0.0
H1351 H 0.95901 0.08696 0.97958 0.0
H1352 H 0.96525 0.08321 0.82552 0.0
H1353 H 0.01107 0.08318 0.89506 0.0
H1354 H 0.00234 0.06981 0.90577 0.0
H1355 H 0.99736 0.08421 0.92513 0.0
C1356 C 0.97136 0.06046 0.94568 0.0
C1357 C 0.96535 0.06848 0.97221 0.0
C1358 C 0.97614 0.06455 0.90875 0.0
C1359 C 0.97504 0.07674 0.89754 0.0
C1360 C 0.96843 0.08468 0.92255 0.0
H1361 H 0.02671 0.08987 0.69908 0.0
H1362 H 0.01383 0.09571 0.75704 0.0
C1363 C 0.96359 0.08057 0.95976 0.0
C1364 C 0.98157 0.08104 0.86085 0.0
H1365 H 0.01016 0.08181 0.82184 0.0
C1366 C 0.97507 0.08323 0.82473 0.0
C1367 C 0.99436 0.08132 0.86019 0.0
C1368 C 0.00172 0.07962 0.89869 0.0
C1369 C 0.9811 0.08464 0.78713 0.0
C1370 C 0.99389 0.08357 0.78582 0.0
C1371 C 0.00037 0.08252 0.82263 0.0
C1372 C 0.00056 0.08159 0.74696 0.0
C1373 C 0.9737 0.08682 0.74904 0.0
C1374 C 0.99735 0.07179 0.72188 0.0
C1375 C 0.00465 0.06844 0.68898 0.0
C1376 C 0.01545 0.07473 0.68057 0.0
C1377 C 0.01846 0.08484 0.70474 0.0
C1378 C 0.0111 0.0882 0.7378 0.0
H1379 H 0.96544 0.09217 0.75626 0.0
H1380 H 0.97899 0.09168 0.72525 0.0
H1381 H 0.97069 0.078 0.73637 0.0
H1382 H 0.9895 0.06631 0.72895 0.0
H1383 H 0.00203 0.06062 0.67103 0.0
H1384 H 0.66891 0.24871 0.41086 0.0
H1385 H 0.66641 0.23547 0.47017 0.0
H1386 H 0.66051 0.26674 0.54697 0.0
H1387 H 0.66241 0.27995 0.48724 0.0
H1388 H 0.68165 0.23524 0.52902 0.0
H1389 H 0.637 0.24409 0.59822 0.0
H1390 H 0.64072 0.249 0.54699 0.0
H1391 H 0.64493 0.25806 0.59069 0.0
C1392 C 0.6667 0.25272 0.44022 0.0
C1393 C 0.66591 0.26535 0.44458 0.0
C1394 C 0.66527 0.24515 0.47409 0.0
C1395 C 0.66321 0.25006 0.51314 0.0
C1396 C 0.66177 0.26266 0.51712 0.0
H1397 H 0.69526 0.23208 0.73596 0.0
H1398 H 0.68901 0.23809 0.66761 0.0
C1399 C 0.66295 0.27024 0.48299 0.0
C1400 C 0.66451 0.2423 0.55006 0.0
H1401 H 0.6527 0.23685 0.64498 0.0
C1402 C 0.67514 0.23539 0.5539 0.0
C1403 C 0.656 0.24228 0.58249 0.0
C1404 C 0.64397 0.24866 0.57915 0.0
C1405 C 0.67786 0.22917 0.5901 0.0
C1406 C 0.66991 0.23012 0.62383 0.0
C1407 C 0.65888 0.23629 0.61923 0.0
C1408 C 0.6736 0.22601 0.66513 0.0
C1409 C 0.68944 0.22193 0.5923 0.0
C1410 C 0.66687 0.21733 0.68682 0.0
C1411 C 0.67043 0.21386 0.72635 0.0
C1412 C 0.68068 0.21912 0.7448 0.0
C1413 C 0.68735 0.22778 0.72274 0.0
C1414 C 0.68383 0.23121 0.68348 0.0
H1415 H 0.69225 0.21873 0.56147 0.0
H1416 H 0.69679 0.22777 0.60446 0.0
H1417 H 0.68845 0.21397 0.6128 0.0
H1418 H 0.6589 0.21329 0.6732 0.0
H1419 H 0.66505 0.20722 0.74266 0.0
H1420 H 0.50141 0.92392 0.16352 0.0
H1421 H 0.51472 0.92088 0.22234 0.0
H1422 H 0.48421 0.90875 0.29403 0.0
H1423 H 0.47096 0.91125 0.23455 0.0
H1424 H 0.51311 0.93368 0.28751 0.0
H1425 H 0.50932 0.88594 0.33549 0.0
H1426 H 0.50408 0.89112 0.2861 0.0
H1427 H 0.4946 0.89262 0.33076 0.0
C1428 C 0.49761 0.9203 0.19155 0.0
C1429 C 0.48515 0.91789 0.19461 0.0
C1430 C 0.50523 0.91854 0.22512 0.0
C1431 C 0.50052 0.91451 0.26266 0.0
C1432 C 0.48815 0.91156 0.26521 0.0
H1433 H 0.51671 0.93943 0.49786 0.0
H1434 H 0.51001 0.93443 0.42912 0.0
C1435 C 0.48055 0.91309 0.23128 0.0
C1436 C 0.50809 0.91518 0.30024 0.0
H1437 H 0.51526 0.90026 0.3887 0.0
C1438 C 0.51378 0.92625 0.30909 0.0
C1439 C 0.50914 0.90548 0.32841 0.0
C1440 C 0.50406 0.89309 0.31945 0.0
C1441 C 0.51986 0.92812 0.34618 0.0
C1442 C 0.51999 0.91879 0.37576 0.0
C1443 C 0.51499 0.90746 0.36611 0.0
C1444 C 0.52407 0.92119 0.41815 0.0
C1445 C 0.52577 0.94023 0.35387 0.0
C1446 C 0.53403 0.91512 0.43529 0.0
C1447 C 0.53792 0.91794 0.47509 0.0
C1448 C 0.53184 0.92683 0.49818 0.0
C1449 C 0.52172 0.93265 0.48093 0.0
C1450 C 0.51786 0.92981 0.44152 0.0
H1451 H 0.52824 0.94478 0.32468 0.0
H1452 H 0.51931 0.94619 0.37035 0.0
H1453 H 0.53404 0.93926 0.37291 0.0
H1454 H 0.53888 0.90836 0.4177 0.0
H1455 H 0.54569 0.91324 0.48762 0.0
H1456 H 0.8194 0.22745 0.26026 0.0
H1457 H 0.82887 0.23814 0.31704 0.0
H1458 H 0.86423 0.23021 0.26785 0.0
H1459 H 0.85472 0.21934 0.2102 0.0
H1460 H 0.85946 0.22815 0.3631 0.0
H1461 H 0.84736 0.27173 0.29051 0.0
H1462 H 0.83536 0.26078 0.28765 0.0
H1463 H 0.84944 0.25789 0.26167 0.0
C1464 C 0.8292 0.22777 0.26177 0.0
C1465 C 0.83632 0.22267 0.2306 0.0
C1466 C 0.83459 0.23391 0.29415 0.0
C1467 C 0.84721 0.23515 0.29601 0.0
C1468 C 0.85446 0.2294 0.26657 0.0
H1469 H 0.84776 0.2893 0.48821 0.0
H1470 H 0.85836 0.27933 0.4311 0.0
C1471 C 0.84903 0.22315 0.23393 0.0
C1472 C 0.85234 0.24305 0.32804 0.0
H1473 H 0.84742 0.27143 0.36496 0.0
C1474 C 0.85729 0.23773 0.3632 0.0
C1475 C 0.84989 0.2556 0.32768 0.0
C1476 C 0.84534 0.26188 0.28965 0.0
C1477 C 0.85828 0.24436 0.39975 0.0
C1478 C 0.85385 0.2564 0.40108 0.0
C1479 C 0.8506 0.26214 0.36437 0.0
C1480 C 0.84964 0.26196 0.43991 0.0
C1481 C 0.86323 0.23813 0.43727 0.0
C1482 C 0.84128 0.25554 0.46383 0.0
C1483 C 0.83522 0.26117 0.49587 0.0
C1484 C 0.83725 0.27346 0.50474 0.0
C1485 C 0.846 0.27983 0.48204 0.0
C1486 C 0.85209 0.27413 0.44958 0.0
H1487 H 0.8709 0.23212 0.42885 0.0
H1488 H 0.86636 0.24473 0.46065 0.0
H1489 H 0.85607 0.23233 0.45088 0.0
H1490 H 0.83887 0.24629 0.4563 0.0
H1491 H 0.82861 0.25595 0.51286 0.0
H1492 H 0.49899 0.0643 0.29089 0.0
H1493 H 0.51068 0.07086 0.23213 0.0
H1494 H 0.48492 0.09943 0.20912 0.0
H1495 H 0.47286 0.09267 0.26795 0.0
H1496 H 0.4887 0.08665 0.14258 0.0
H1497 H 0.53349 0.09774 0.20557 0.0
H1498 H 0.529 0.08321 0.22453 0.0
H1499 H 0.52024 0.09645 0.23774 0.0
C1500 C 0.49586 0.07211 0.27386 0.0
C1501 C 0.48492 0.0779 0.28401 0.0
C1502 C 0.50268 0.07597 0.24047 0.0
C1503 C 0.49886 0.08583 0.21667 0.0
C1504 C 0.48813 0.0919 0.22739 0.0
H1505 H 0.54181 0.09192 0.98739 0.0
H1506 H 0.53282 0.09905 0.05208 0.0
C1507 C 0.48123 0.088 0.2609 0.0
C1508 C 0.50518 0.08842 0.17755 0.0
H1509 H 0.53354 0.08886 0.13587 0.0
C1510 C 0.49847 0.08754 0.14116 0.0
C1511 C 0.51791 0.08983 0.17537 0.0
C1512 C 0.52552 0.092 0.21301 0.0
C1513 C 0.50426 0.0867 0.1031 0.0
C1514 C 0.51705 0.08653 0.10155 0.0
C1515 C 0.52373 0.08872 0.1373 0.0
C1516 C 0.52344 0.08226 0.06448 0.0
C1517 C 0.49664 0.08528 0.06503 0.0
C1518 C 0.52152 0.07035 0.05127 0.0
C1519 C 0.5266 0.06627 0.01482 0.0
C1520 C 0.5338 0.07401 0.99081 0.0
C1521 C 0.5363 0.08576 0.00523 0.0
C1522 C 0.53114 0.08986 0.04198 0.0
H1523 H 0.48755 0.08941 0.0691 0.0
H1524 H 0.5011 0.08948 0.03807 0.0
H1525 H 0.49535 0.07549 0.05862 0.0
H1526 H 0.51582 0.06427 0.06877 0.0
H1527 H 0.52461 0.05713 0.00492 0.0
H1528 H 0.66956 0.7506 0.08169 0.0
H1529 H 0.66622 0.76395 0.02311 0.0
H1530 H 0.6611 0.73275 0.94535 0.0
H1531 H 0.66384 0.71942 0.0043 0.0
H1532 H 0.68103 0.76509 0.96353 0.0
H1533 H 0.63658 0.75454 0.89594 0.0
H1534 H 0.64069 0.74962 0.94681 0.0
H1535 H 0.64501 0.74084 0.90256 0.0
C1536 C 0.66735 0.74662 0.0523 0.0
C1537 C 0.66702 0.73398 0.04742 0.0
C1538 C 0.66543 0.75425 0.01884 0.0
C1539 C 0.66333 0.7494 0.97971 0.0
C1540 C 0.66236 0.73677 0.97529 0.0
H1541 H 0.69436 0.7678 0.75692 0.0
H1542 H 0.68835 0.76206 0.82575 0.0
C1543 C 0.66403 0.72913 0.00899 0.0
C1544 C 0.66415 0.75731 0.94298 0.0
H1545 H 0.65195 0.76212 0.84821 0.0
C1546 C 0.67448 0.76465 0.93882 0.0
C1547 C 0.65557 0.75697 0.91077 0.0
C1548 C 0.64378 0.75016 0.9145 0.0
C1549 C 0.67688 0.7709 0.90242 0.0
C1550 C 0.66893 0.76954 0.86882 0.0
C1551 C 0.65814 0.76299 0.87383 0.0
C1552 C 0.67247 0.77353 0.82723 0.0
C1553 C 0.68816 0.77859 0.89985 0.0
C1554 C 0.6654 0.78176 0.80479 0.0
C1555 C 0.66881 0.78507 0.76496 0.0
C1556 C 0.67926 0.78008 0.74696 0.0
C1557 C 0.68628 0.77187 0.76977 0.0
C1558 C 0.6829 0.76861 0.80931 0.0
H1559 H 0.6908 0.78207 0.9305 0.0
H1560 H 0.69575 0.77298 0.88818 0.0
H1561 H 0.68687 0.78638 0.87881 0.0
H1562 H 0.65726 0.78558 0.81806 0.0
H1563 H 0.66317 0.79135 0.74808 0.0
H1564 H 0.95508 0.91578 0.5396 0.0
H1565 H 0.96089 0.91067 0.61028 0.0
H1566 H 0.98361 0.9424 0.61497 0.0
H1567 H 0.97774 0.94767 0.5457 0.0
H1568 H 0.98349 0.90583 0.64253 0.0
H1569 H 0.96421 0.94588 0.71897 0.0
H1570 H 0.96003 0.94162 0.66747 0.0
H1571 H 0.97346 0.95051 0.67671 0.0
C1572 C 0.96119 0.92173 0.55597 0.0
C1573 C 0.96586 0.93219 0.53705 0.0
C1574 C 0.96452 0.91878 0.59625 0.0
C1575 C 0.97249 0.9263 0.61816 0.0
C1576 C 0.97718 0.93665 0.59913 0.0
H1577 H 0.02753 0.91857 0.79204 0.0
H1578 H 0.0135 0.91529 0.73534 0.0
C1579 C 0.97386 0.93961 0.55927 0.0
C1580 C 0.97651 0.92328 0.66026 0.0
H1581 H 0.98167 0.9368 0.7523 0.0
C1582 C 0.98286 0.91245 0.66698 0.0
C1583 C 0.97541 0.93173 0.69255 0.0
C1584 C 0.96778 0.94301 0.68866 0.0
C1585 C 0.98899 0.91034 0.70406 0.0
C1586 C 0.98906 0.91947 0.73455 0.0
C1587 C 0.98186 0.92983 0.72891 0.0
C1588 C 0.99731 0.91917 0.77062 0.0
C1589 C 0.99545 0.89843 0.70973 0.0
C1590 C 0.99299 0.92247 0.80956 0.0
C1591 C 0.00107 0.92478 0.84157 0.0
C1592 C 0.0136 0.92356 0.83556 0.0
C1593 C 0.01789 0.91943 0.7976 0.0
C1594 C 0.00983 0.91744 0.76522 0.0
H1595 H 0.99057 0.89103 0.69362 0.0
H1596 H 0.00464 0.89904 0.69608 0.0
H1597 H 0.99633 0.89599 0.74258 0.0
H1598 H 0.9834 0.92387 0.81465 0.0
H1599 H 0.99753 0.92791 0.87066 0.0
H1600 H 0.68516 0.75378 0.53551 0.0
H1601 H 0.67698 0.74206 0.4793 0.0
H1602 H 0.64619 0.76602 0.4723 0.0
H1603 H 0.65463 0.77823 0.52851 0.0
H1604 H 0.6562 0.7295 0.46852 0.0
H1605 H 0.65904 0.76757 0.35656 0.0
H1606 H 0.66578 0.76859 0.40673 0.0
H1607 H 0.64964 0.76972 0.40088 0.0
C1608 C 0.67662 0.75661 0.5223 0.0
C1609 C 0.67062 0.76705 0.53633 0.0
C1610 C 0.67191 0.74982 0.49017 0.0
C1611 C 0.66103 0.75319 0.47125 0.0
C1612 C 0.65472 0.76336 0.48597 0.0
H1613 H 0.65014 0.71764 0.23157 0.0
H1614 H 0.64257 0.7259 0.29682 0.0
C1615 C 0.65952 0.7703 0.51816 0.0
C1616 C 0.65702 0.74625 0.43473 0.0
H1617 H 0.65655 0.7481 0.33035 0.0
C1618 C 0.65594 0.73361 0.43835 0.0
C1619 C 0.65659 0.75161 0.39534 0.0
C1620 C 0.65788 0.7651 0.38931 0.0
C1621 C 0.65562 0.72614 0.40361 0.0
C1622 C 0.65626 0.73146 0.36442 0.0
C1623 C 0.65605 0.7441 0.36065 0.0
C1624 C 0.65977 0.72431 0.32805 0.0
C1625 C 0.65549 0.71259 0.4089 0.0
C1626 C 0.67184 0.72051 0.32454 0.0
C1627 C 0.67619 0.71606 0.28742 0.0
C1628 C 0.6685 0.71514 0.25337 0.0
C1629 C 0.65618 0.71812 0.25765 0.0
C1630 C 0.65187 0.72286 0.29472 0.0
H1631 H 0.65193 0.70994 0.43945 0.0
H1632 H 0.6499 0.70823 0.38473 0.0
H1633 H 0.66487 0.70908 0.40611 0.0
H1634 H 0.67809 0.72171 0.34981 0.0
H1635 H 0.68573 0.71388 0.28474 0.0
H1636 H 0.49573 0.43995 0.82981 0.0
H1637 H 0.50796 0.43429 0.77105 0.0
H1638 H 0.4843 0.40403 0.74718 0.0
H1639 H 0.47168 0.40986 0.80585 0.0
H1640 H 0.52057 0.41404 0.74544 0.0
H1641 H 0.48137 0.42401 0.64304 0.0
H1642 H 0.48117 0.42777 0.69674 0.0
H1643 H 0.4793 0.41233 0.68067 0.0
C1644 C 0.49314 0.432 0.81243 0.0
C1645 C 0.48257 0.42549 0.82212 0.0
C1646 C 0.50022 0.42873 0.77893 0.0
C1647 C 0.49695 0.41885 0.75434 0.0
C1648 C 0.48686 0.41182 0.76536 0.0
H1649 H 0.53885 0.4124 0.52243 0.0
H1650 H 0.53026 0.40536 0.58784 0.0
C1651 C 0.47968 0.41514 0.79894 0.0
C1652 C 0.50348 0.41696 0.71518 0.0
H1653 H 0.50029 0.42172 0.61246 0.0
C1654 C 0.51612 0.41539 0.71619 0.0
C1655 C 0.49763 0.41882 0.67709 0.0
C1656 C 0.48415 0.42091 0.67402 0.0
C1657 C 0.52313 0.41643 0.68045 0.0
C1658 C 0.51732 0.41903 0.64299 0.0
C1659 C 0.50465 0.41971 0.64145 0.0
C1660 C 0.52413 0.42311 0.6066 0.0
C1661 C 0.53673 0.41566 0.68319 0.0
C1662 C 0.52376 0.43541 0.59631 0.0
C1663 C 0.52856 0.43942 0.55931 0.0
C1664 C 0.53385 0.4312 0.53178 0.0
C1665 C 0.53487 0.41895 0.54316 0.0
C1666 C 0.52996 0.41491 0.58037 0.0
H1667 H 0.53987 0.41334 0.71456 0.0
H1668 H 0.54012 0.40869 0.66152 0.0
H1669 H 0.54078 0.42446 0.6741 0.0
H1670 H 0.51932 0.44187 0.61631 0.0
H1671 H 0.52771 0.44893 0.5516 0.0
H1672 H 0.83466 0.29385 0.72734 0.0
H1673 H 0.83948 0.28664 0.79674 0.0
H1674 H 0.81775 0.25478 0.77599 0.0
H1675 H 0.81276 0.26189 0.70775 0.0
H1676 H 0.81233 0.26694 0.84813 0.0
H1677 H 0.86178 0.25815 0.83232 0.0
H1678 H 0.85638 0.2729 0.81758 0.0
H1679 H 0.85192 0.25985 0.78853 0.0
C1680 C 0.83094 0.28531 0.73765 0.0
C1681 C 0.82327 0.27849 0.71209 0.0
C1682 C 0.83377 0.28116 0.77711 0.0
C1683 C 0.82905 0.27012 0.79123 0.0
C1684 C 0.82149 0.26331 0.76562 0.0
H1685 H 0.8392 0.21932 0.98482 0.0
H1686 H 0.841 0.23128 0.92175 0.0
C1687 C 0.81863 0.26744 0.72658 0.0
C1688 C 0.83128 0.26573 0.83333 0.0
H1689 H 0.85279 0.2534 0.89594 0.0
C1690 C 0.8212 0.26411 0.85882 0.0
C1691 C 0.84284 0.26194 0.84679 0.0
C1692 C 0.85388 0.26319 0.81993 0.0
C1693 C 0.82227 0.25844 0.89696 0.0
C1694 C 0.83382 0.25461 0.91052 0.0
C1695 C 0.84398 0.25646 0.88548 0.0
C1696 C 0.83521 0.24807 0.94975 0.0
C1697 C 0.81091 0.25613 0.92156 0.0
C1698 C 0.83191 0.2537 0.98654 0.0
C1699 C 0.8307 0.24689 0.02224 0.0
C1700 C 0.83298 0.23437 0.0219 0.0
C1701 C 0.83735 0.22895 0.98588 0.0
C1702 C 0.8384 0.23576 0.94992 0.0
H1703 H 0.80259 0.25713 0.9027 0.0
H1704 H 0.811 0.24689 0.93492 0.0
H1705 H 0.81039 0.26275 0.94706 0.0
H1706 H 0.82963 0.26324 0.98712 0.0
H1707 H 0.82751 0.25135 0.04976 0.0
H1708 H 0.00253 0.56579 0.3051 0.0
H1709 H 0.99109 0.57162 0.24476 0.0
H1710 H 0.01692 0.59994 0.21931 0.0
H1711 H 0.02876 0.59388 0.2796 0.0
H1712 H 0.98 0.59228 0.21668 0.0
H1713 H 0.0189 0.57914 0.11716 0.0
H1714 H 0.01869 0.57586 0.17122 0.0
H1715 H 0.02155 0.59101 0.15367 0.0
C1716 C 0.00579 0.57333 0.28699 0.0
C1717 C 0.0167 0.57923 0.29681 0.0
C1718 C 0.99916 0.57672 0.25257 0.0
C1719 C 0.00323 0.5861 0.22718 0.0
C1720 C 0.01373 0.59252 0.23811 0.0
H1721 H 0.9613 0.59403 0.99593 0.0
H1722 H 0.97009 0.60048 0.06171 0.0
C1723 C 0.02047 0.58907 0.27259 0.0
C1724 C 0.997 0.58809 0.18754 0.0
H1725 H 0.00032 0.58251 0.08538 0.0
C1726 C 0.98448 0.59043 0.18778 0.0
C1727 C 0.00287 0.58562 0.14993 0.0
C1728 C 0.01622 0.58269 0.14769 0.0
C1729 C 0.97755 0.58954 0.15179 0.0
C1730 C 0.98334 0.58637 0.11482 0.0
C1731 C 0.99596 0.58493 0.11401 0.0
C1732 C 0.97647 0.58261 0.0781 0.0
C1733 C 0.964 0.59113 0.15391 0.0
C1734 C 0.97691 0.57042 0.06629 0.0
C1735 C 0.97201 0.56676 0.02904 0.0
C1736 C 0.96652 0.57521 0.0028 0.0
C1737 C 0.96541 0.58732 0.01571 0.0
C1738 C 0.97044 0.59102 0.05314 0.0
H1739 H 0.96081 0.59305 0.18552 0.0
H1740 H 0.96122 0.59872 0.13373 0.0
H1741 H 0.95943 0.58282 0.1426 0.0
H1742 H 0.98148 0.5638 0.0853 0.0
H1743 H 0.97293 0.55736 0.02008 0.0
H1744 H 0.683 0.28429 0.20505 0.0
H1745 H 0.67565 0.27596 0.14031 0.0
H1746 H 0.64039 0.27037 0.19375 0.0
H1747 H 0.64765 0.27913 0.25869 0.0
H1748 H 0.65513 0.24874 0.16029 0.0
H1749 H 0.64909 0.28657 0.05076 0.0
H1750 H 0.662 0.28802 0.08399 0.0
H1751 H 0.64703 0.28826 0.10547 0.0
C1752 C 0.67357 0.28167 0.20254 0.0
C1753 C 0.66586 0.28236 0.23661 0.0
C1754 C 0.66937 0.27695 0.16561 0.0
C1755 C 0.65747 0.27263 0.16231 0.0
C1756 C 0.64956 0.2738 0.19569 0.0
H1757 H 0.65557 0.21873 0.96134 0.0
H1758 H 0.64624 0.23044 0.01713 0.0
C1759 C 0.65369 0.27883 0.23257 0.0
C1760 C 0.65424 0.26533 0.12603 0.0
H1761 H 0.65452 0.26722 0.02195 0.0
C1762 C 0.65456 0.25269 0.12994 0.0
C1763 C 0.65349 0.27059 0.08678 0.0
C1764 C 0.65277 0.28412 0.08133 0.0
C1765 C 0.65556 0.24519 0.09535 0.0
C1766 C 0.65595 0.25055 0.05596 0.0
C1767 C 0.65429 0.26312 0.05214 0.0
C1768 C 0.66056 0.24381 0.01988 0.0
C1769 C 0.65741 0.23178 0.1015 0.0
C1770 C 0.67147 0.24763 0.00217 0.0
C1771 C 0.6767 0.2411 0.97034 0.0
C1772 C 0.67119 0.23051 0.95537 0.0
C1773 C 0.66009 0.22679 0.97243 0.0
C1774 C 0.65477 0.23345 0.00435 0.0
H1775 H 0.65836 0.22934 0.13437 0.0
H1776 H 0.64952 0.22679 0.08894 0.0
H1777 H 0.66563 0.22867 0.08498 0.0
H1778 H 0.67615 0.25555 0.01374 0.0
H1779 H 0.68523 0.24429 0.95801 0.0
H1780 H 0.9623 0.40682 0.49647 0.0
H1781 H 0.97171 0.39861 0.43397 0.0
H1782 H 0.98524 0.43414 0.40411 0.0
H1783 H 0.97604 0.44233 0.46589 0.0
H1784 H 0.97023 0.40585 0.34663 0.0
H1785 H 0.01582 0.41193 0.41331 0.0
H1786 H 0.00223 0.41153 0.44415 0.0
H1787 H 0.0067 0.42529 0.41875 0.0
C1788 C 0.96709 0.41289 0.4761 0.0
C1789 C 0.96857 0.42519 0.48631 0.0
C1790 C 0.9725 0.40818 0.44063 0.0
C1791 C 0.97941 0.41573 0.41517 0.0
C1792 C 0.98018 0.42812 0.42396 0.0
H1793 H 0.00189 0.43054 0.18681 0.0
H1794 H 0.9908 0.4233 0.24583 0.0
C1795 C 0.97486 0.4328 0.45919 0.0
C1796 C 0.98629 0.41092 0.37991 0.0
H1797 H 0.01462 0.41252 0.33918 0.0
C1798 C 0.97999 0.40695 0.34516 0.0
C1799 C 0.99904 0.41197 0.37847 0.0
C1800 C 0.00636 0.41528 0.41585 0.0
C1801 C 0.98601 0.40531 0.30766 0.0
C1802 C 0.99852 0.40803 0.30494 0.0
C1803 C 0.005 0.41062 0.34088 0.0
C1804 C 0.00454 0.41053 0.26519 0.0
C1805 C 0.97878 0.40123 0.271 0.0
C1806 C 0.01611 0.40588 0.25628 0.0
C1807 C 0.02266 0.41022 0.22256 0.0
C1808 C 0.01777 0.41935 0.19749 0.0
C1809 C 0.00598 0.42354 0.2055 0.0
C1810 C 0.9995 0.41925 0.23904 0.0
H1811 H 0.97167 0.39467 0.28035 0.0
H1812 H 0.97412 0.40915 0.25724 0.0
H1813 H 0.98462 0.39694 0.2474 0.0
H1814 H 0.02025 0.39925 0.27632 0.0
H1815 H 0.03171 0.4068 0.21716 0.0
H1816 H 0.80513 0.7266 0.71164 0.0
H1817 H 0.81239 0.73515 0.64743 0.0
H1818 H 0.84867 0.72333 0.67556 0.0
H1819 H 0.84139 0.7145 0.7402 0.0
H1820 H 0.83053 0.75373 0.64843 0.0
H1821 H 0.84342 0.71411 0.5521 0.0
H1822 H 0.83301 0.71266 0.59447 0.0
H1823 H 0.84883 0.71489 0.60412 0.0
C1824 C 0.81462 0.72559 0.70388 0.0
C1825 C 0.82271 0.71995 0.73104 0.0
C1826 C 0.81875 0.7305 0.6672 0.0
C1827 C 0.83106 0.72993 0.65691 0.0
C1828 C 0.83912 0.72377 0.68286 0.0
H1829 H 0.84471 0.7822 0.45747 0.0
H1830 H 0.85018 0.77045 0.51856 0.0
C1831 C 0.83494 0.71872 0.71967 0.0
C1832 C 0.83531 0.73674 0.62066 0.0
H1833 H 0.84345 0.73323 0.52061 0.0
C1834 C 0.83361 0.74932 0.62061 0.0
C1835 C 0.83937 0.7309 0.58473 0.0
C1836 C 0.84126 0.71739 0.58342 0.0
C1837 C 0.8349 0.75614 0.58469 0.0
C1838 C 0.83831 0.75022 0.54799 0.0
C1839 C 0.8409 0.73775 0.54882 0.0
C1840 C 0.837 0.75629 0.50772 0.0
C1841 C 0.83161 0.76941 0.58574 0.0
C1842 C 0.82831 0.75188 0.48025 0.0
C1843 C 0.82528 0.75844 0.44533 0.0
C1844 C 0.83085 0.76964 0.43711 0.0
C1845 C 0.84014 0.77369 0.46321 0.0
C1846 C 0.84325 0.76701 0.49819 0.0
H1847 H 0.82732 0.77208 0.61517 0.0
H1848 H 0.83993 0.77493 0.5818 0.0
H1849 H 0.82528 0.77167 0.56045 0.0
H1850 H 0.82338 0.74362 0.48689 0.0
H1851 H 0.81818 0.75495 0.42571 0.0
H1852 H 0.52677 0.55245 0.96211 0.0
H1853 H 0.5185 0.55864 0.8962 0.0
H1854 H 0.52978 0.59541 0.91874 0.0
H1855 H 0.53823 0.58924 0.98538 0.0
H1856 H 0.49968 0.5794 0.89693 0.0
H1857 H 0.53936 0.58496 0.79313 0.0
H1858 H 0.53996 0.57438 0.83527 0.0
H1859 H 0.53984 0.59032 0.8454 0.0
C1860 C 0.52772 0.56182 0.95285 0.0
C1861 C 0.53306 0.57038 0.97908 0.0
C1862 C 0.52299 0.56533 0.91517 0.0
C1863 C 0.52349 0.57747 0.90287 0.0
C1864 C 0.52938 0.58598 0.9278 0.0
H1865 H 0.47163 0.59065 0.70149 0.0
H1866 H 0.48434 0.59609 0.76036 0.0
C1867 C 0.53421 0.58244 0.9657 0.0
C1868 C 0.51675 0.58109 0.86579 0.0
H1869 H 0.52 0.58439 0.76257 0.0
C1870 C 0.50406 0.58082 0.86758 0.0
C1871 C 0.52258 0.58288 0.82786 0.0
C1872 C 0.53619 0.58318 0.82486 0.0
C1873 C 0.49702 0.58141 0.83191 0.0
C1874 C 0.50286 0.58252 0.7935 0.0
C1875 C 0.51555 0.58361 0.79206 0.0
C1876 C 0.49617 0.58055 0.75471 0.0
C1877 C 0.48347 0.57985 0.83544 0.0
C1878 C 0.49892 0.57032 0.73108 0.0
C1879 C 0.49177 0.56725 0.69746 0.0
C1880 C 0.48168 0.57434 0.68671 0.0
C1881 C 0.47926 0.58493 0.70922 0.0
C1882 C 0.48649 0.58804 0.7429 0.0
H1883 H 0.48065 0.57719 0.86683 0.0
H1884 H 0.47894 0.58853 0.82782 0.0
H1885 H 0.4802 0.57287 0.81361 0.0
H1886 H 0.50633 0.5644 0.73963 0.0
H1887 H 0.49398 0.55908 0.68068 0.0
H1888 H 0.32253 0.24071 0.49353 0.0
H1889 H 0.33113 0.2512 0.55157 0.0
H1890 H 0.35742 0.22268 0.56728 0.0
H1891 H 0.34864 0.21183 0.50842 0.0
H1892 H 0.34591 0.22801 0.63767 0.0
H1893 H 0.36111 0.27096 0.57086 0.0
H1894 H 0.3462 0.26783 0.55201 0.0
H1895 H 0.35847 0.25764 0.53986 0.0
C1896 C 0.33022 0.23664 0.50885 0.0
C1897 C 0.33485 0.22537 0.49637 0.0
C1898 C 0.33527 0.24279 0.54178 0.0
C1899 C 0.34516 0.23793 0.56305 0.0
C1900 C 0.34993 0.2267 0.55072 0.0
H1901 H 0.34971 0.28406 0.78405 0.0
H1902 H 0.35864 0.27345 0.72493 0.0
C1903 C 0.34487 0.22049 0.51733 0.0
C1904 C 0.3491 0.24398 0.60128 0.0
H1905 H 0.35131 0.27261 0.63972 0.0
C1906 C 0.34759 0.23768 0.63821 0.0
C1907 C 0.35163 0.25654 0.6023 0.0
C1908 C 0.35459 0.26357 0.564 0.0
C1909 C 0.34681 0.24392 0.67549 0.0
C1910 C 0.34734 0.25671 0.67546 0.0
C1911 C 0.35058 0.26282 0.63949 0.0
C1912 C 0.34222 0.26376 0.70978 0.0
C1913 C 0.34444 0.23684 0.71416 0.0
C1914 C 0.32994 0.26224 0.7193 0.0
C1915 C 0.32484 0.26827 0.75243 0.0
C1916 C 0.33189 0.27605 0.77674 0.0
C1917 C 0.34406 0.27813 0.76584 0.0
C1918 C 0.34919 0.27202 0.73238 0.0
H1919 H 0.34851 0.22765 0.71233 0.0
H1920 H 0.34812 0.24158 0.74147 0.0
H1921 H 0.33452 0.23573 0.71821 0.0
H1922 H 0.32432 0.25618 0.7014 0.0
H1923 H 0.31542 0.26658 0.75964 0.0
H1924 H 0.47479 0.55473 0.45806 0.0
H1925 H 0.48396 0.56237 0.39542 0.0
H1926 H 0.47137 0.59837 0.42361 0.0
H1927 H 0.46202 0.59074 0.487 0.0
H1928 H 0.46933 0.59033 0.33624 0.0
H1929 H 0.51501 0.58427 0.40276 0.0
H1930 H 0.50562 0.57113 0.4091 0.0
H1931 H 0.50148 0.58511 0.43376 0.0
C1932 C 0.47382 0.56426 0.45086 0.0
C1933 C 0.4678 0.57216 0.47778 0.0
C1934 C 0.4791 0.56861 0.41508 0.0
C1935 C 0.47856 0.58096 0.40549 0.0
C1936 C 0.47196 0.58881 0.43083 0.0
H1937 H 0.53104 0.59167 0.20847 0.0
H1938 H 0.51908 0.59829 0.26771 0.0
C1939 C 0.4666 0.58444 0.46687 0.0
C1940 C 0.48541 0.58544 0.36967 0.0
H1941 H 0.51378 0.58404 0.329 0.0
C1942 C 0.47909 0.58927 0.33478 0.0
C1943 C 0.49817 0.5844 0.3682 0.0
C1944 C 0.50549 0.58113 0.40562 0.0
C1945 C 0.48511 0.59094 0.29728 0.0
C1946 C 0.49767 0.58844 0.2947 0.0
C1947 C 0.50413 0.58581 0.33065 0.0
C1948 C 0.50389 0.58647 0.25494 0.0
C1949 C 0.47786 0.59493 0.26054 0.0
C1950 C 0.49928 0.57778 0.22776 0.0
C1951 C 0.50605 0.57402 0.19408 0.0
C1952 C 0.5177 0.57873 0.187 0.0
C1953 C 0.52211 0.58786 0.21309 0.0
C1954 C 0.51528 0.59166 0.24691 0.0
H1955 H 0.47047 0.60118 0.26987 0.0
H1956 H 0.48362 0.59952 0.23742 0.0
H1957 H 0.47357 0.58689 0.24616 0.0
H1958 H 0.49072 0.57335 0.23381 0.0
H1959 H 0.50233 0.56701 0.17461 0.0
H1960 H 0.18235 0.74242 0.27403 0.0
H1961 H 0.17871 0.75015 0.20542 0.0
H1962 H 0.16248 0.71616 0.17066 0.0
H1963 H 0.16595 0.7083 0.2401 0.0
H1964 H 0.1886 0.74004 0.13533 0.0
H1965 H 0.1383 0.74179 0.12684 0.0
H1966 H 0.14636 0.74069 0.17485 0.0
H1967 H 0.14485 0.72762 0.14261 0.0
C1968 C 0.17791 0.73657 0.25204 0.0
C1969 C 0.17451 0.72469 0.26252 0.0
C1970 C 0.17581 0.74104 0.2128 0.0
C1971 C 0.17027 0.73377 0.18304 0.0
C1972 C 0.1666 0.72198 0.19341 0.0
H1973 H 0.1795 0.7527 0.92615 0.0
H1974 H 0.17721 0.74109 0.9893 0.0
C1975 C 0.16866 0.71749 0.23298 0.0
C1976 C 0.16924 0.73841 0.14062 0.0
H1977 H 0.14911 0.74756 0.0674 0.0
C1978 C 0.17997 0.74161 0.12034 0.0
C1979 C 0.15796 0.74053 0.12142 0.0
C1980 C 0.14618 0.73758 0.14251 0.0
C1981 C 0.17975 0.74709 0.08169 0.0
C1982 C 0.16848 0.74917 0.06227 0.0
C1983 C 0.15772 0.74585 0.08227 0.0
C1984 C 0.16784 0.7553 0.02201 0.0
C1985 C 0.19158 0.75101 0.06265 0.0
C1986 C 0.16271 0.76689 0.0188 0.0
C1987 C 0.16389 0.77354 0.98252 0.0
C1988 C 0.17028 0.7687 0.94906 0.0
C1989 C 0.17468 0.75677 0.95158 0.0
C1990 C 0.1734 0.75011 0.98764 0.0
H1991 H 0.19904 0.75131 0.08548 0.0
H1992 H 0.19417 0.74447 0.03839 0.0
H1993 H 0.19072 0.76009 0.04839 0.0
H1994 H 0.15835 0.77104 0.045 0.0
H1995 H 0.16037 0.78269 0.98149 0.0
H1996 H 0.99591 0.43296 0.68487 0.0
H1997 H 0.00713 0.42685 0.74511 0.0
H1998 H 0.97899 0.40138 0.77639 0.0
H1999 H 0.96737 0.40778 0.71603 0.0
H2000 H 0.98379 0.41535 0.83862 0.0
H2001 H 0.02765 0.39926 0.78105 0.0
H2002 H 0.02445 0.41356 0.75766 0.0
H2003 H 0.01463 0.40081 0.74793 0.0
C2004 C 0.99214 0.4259 0.70403 0.0
C2005 C 0.98066 0.42094 0.69578 0.0
C2006 C 0.9987 0.42227 0.7383 0.0
C2007 C 0.99406 0.41346 0.76495 0.0
C2008 C 0.98281 0.4081 0.75599 0.0
H2009 H 0.03638 0.40949 0.99577 0.0
H2010 H 0.0272 0.40199 0.93191 0.0
C2011 C 0.97617 0.41178 0.72157 0.0
C2012 C 1.00014 0.41145 0.80492 0.0
H2013 H 0.02835 0.41008 0.84764 0.0
C2014 C 0.99348 0.4138 0.84065 0.0
C2015 C 0.01274 0.4092 0.80801 0.0
C2016 C 0.02021 0.40543 0.77152 0.0
C2017 C 0.99926 0.41522 0.87852 0.0
C2018 C 0.01204 0.41453 0.88049 0.0
C2019 C 0.01858 0.41092 0.84579 0.0
C2020 C 0.01867 0.41904 0.91676 0.0
C2021 C 0.99169 0.41808 0.91575 0.0
C2022 C 0.01736 0.43121 0.9281 0.0
C2023 C 0.02254 0.43549 0.96418 0.0
C2024 C 0.02925 0.4277 0.98955 0.0
C2025 C 0.03125 0.41569 0.97681 0.0
C2026 C 0.02598 0.41138 0.94054 0.0
H2027 H 0.98237 0.4144 0.91259 0.0
H2028 H 0.99584 0.41434 0.94404 0.0
H2029 H 0.99095 0.42805 0.91916 0.0
H2030 H 0.01201 0.43734 0.90954 0.0
H2031 H 0.02095 0.44482 0.97282 0.0
H2032 H 0.34421 0.77599 0.031 0.0
H2033 H 0.35174 0.76284 0.97584 0.0
H2034 H 0.31774 0.74361 0.97541 0.0
H2035 H 0.31035 0.75632 0.03058 0.0
H2036 H 0.3371 0.7282 0.96995 0.0
H2037 H 0.34122 0.76591 0.85709 0.0
H2038 H 0.34985 0.76709 0.9036 0.0
H2039 H 0.33362 0.76789 0.9055 0.0
C2040 C 0.33839 0.76891 0.01919 0.0
C2041 C 0.32665 0.76726 0.03507 0.0
C2042 C 0.34268 0.76144 0.98761 0.0
C2043 C 0.33525 0.75231 0.97122 0.0
C2044 C 0.32366 0.75055 0.98765 0.0
H2045 H 0.31088 0.71339 0.78105 0.0
H2046 H 0.31781 0.7209 0.84737 0.0
C2047 C 0.31942 0.75789 0.01917 0.0
C2048 C 0.33901 0.74479 0.93576 0.0
H2049 H 0.34216 0.74617 0.83185 0.0
C2050 C 0.33853 0.73213 0.93988 0.0
C2051 C 0.34096 0.74991 0.89655 0.0
C2052 C 0.34139 0.76343 0.89007 0.0
C2053 C 0.33889 0.72453 0.90548 0.0
C2054 C 0.3398 0.72971 0.86613 0.0
C2055 C 0.34147 0.74225 0.86223 0.0
C2056 C 0.33654 0.7228 0.82894 0.0
C2057 C 0.33752 0.71105 0.91119 0.0
C2058 C 0.34485 0.7211 0.79692 0.0
C2059 C 0.34092 0.71657 0.75905 0.0
C2060 C 0.32859 0.71405 0.75262 0.0
C2061 C 0.32044 0.71523 0.78535 0.0
C2062 C 0.3244 0.71948 0.82324 0.0
H2063 H 0.34044 0.70819 0.94229 0.0
H2064 H 0.32785 0.70856 0.90741 0.0
H2065 H 0.34286 0.70601 0.88797 0.0
H2066 H 0.35423 0.72377 0.80068 0.0
H2067 H 0.34734 0.71589 0.73405 0.0
H2068 H 0.99627 0.5745 0.80823 0.0
H2069 H 0.00737 0.58125 0.74858 0.0
H2070 H 0.97726 0.60382 0.71287 0.0
H2071 H 0.9658 0.59671 0.7726 0.0
H2072 H 0.98331 0.58977 0.65292 0.0
H2073 H 0.02578 0.60962 0.70837 0.0
H2074 H 0.02373 0.59544 0.73393 0.0
H2075 H 0.01291 0.60749 0.74179 0.0
C2076 C 0.99204 0.5811 0.78827 0.0
C2077 C 0.98007 0.58494 0.79494 0.0
C2078 C 0.99852 0.58512 0.75433 0.0
C2079 C 0.99328 0.59324 0.72644 0.0
C2080 C 0.98155 0.59765 0.73418 0.0
H2081 H 0.03522 0.5953 0.49424 0.0
H2082 H 0.02574 0.60378 0.5562 0.0
C2083 C 0.975 0.59356 0.76827 0.0
C2084 C 0.99928 0.59521 0.68629 0.0
H2085 H 0.0275 0.59755 0.64404 0.0
C2086 C 0.99289 0.5919 0.65086 0.0
C2087 C 0.01173 0.59819 0.68304 0.0
C2088 C 0.01885 0.60302 0.71889 0.0
C2089 C 0.99886 0.59018 0.61349 0.0
C2090 C 0.01158 0.59156 0.61174 0.0
C2091 C 0.01778 0.59618 0.64579 0.0
C2092 C 0.01856 0.58662 0.57691 0.0
C2093 C 0.99161 0.58617 0.57674 0.0
C2094 C 0.01812 0.57414 0.56934 0.0
C2095 C 0.02346 0.56931 0.53437 0.0
C2096 C 0.02947 0.57686 0.50633 0.0
C2097 C 0.03065 0.58927 0.51534 0.0
C2098 C 0.02521 0.59413 0.55052 0.0
H2099 H 0.98206 0.58927 0.57891 0.0
H2100 H 0.9956 0.58967 0.54785 0.0
H2101 H 0.99156 0.57613 0.57534 0.0
H2102 H 0.01326 0.56816 0.58991 0.0
H2103 H 0.02252 0.5597 0.5286 0.0
H2104 H 0.18549 0.27107 0.25899 0.0
H2105 H 0.17563 0.26071 0.31561 0.0
H2106 H 0.14115 0.27555 0.27914 0.0
H2107 H 0.15106 0.28615 0.22186 0.0
H2108 H 0.14566 0.27532 0.36667 0.0
H2109 H 0.15382 0.23065 0.29666 0.0
H2110 H 0.16737 0.2396 0.29609 0.0
H2111 H 0.15431 0.24457 0.26756 0.0
C2112 C 0.17583 0.27228 0.26317 0.0
C2113 C 0.16903 0.27931 0.23571 0.0
C2114 C 0.17019 0.26628 0.29536 0.0
C2115 C 0.15762 0.26707 0.30065 0.0
C2116 C 0.15085 0.27469 0.27503 0.0
H2117 H 0.14981 0.21389 0.49549 0.0
H2118 H 0.14115 0.22458 0.43611 0.0
C2119 C 0.15653 0.28079 0.24262 0.0
C2120 C 0.1519 0.25973 0.33315 0.0
H2121 H 0.15377 0.23115 0.37167 0.0
C2122 C 0.14702 0.2656 0.36742 0.0
C2123 C 0.1532 0.24699 0.33355 0.0
C2124 C 0.15733 0.24008 0.29623 0.0
C2125 C 0.14501 0.25924 0.40401 0.0
C2126 C 0.1483 0.24686 0.40634 0.0
C2127 C 0.15149 0.2407 0.37034 0.0
C2128 C 0.15139 0.24105 0.44593 0.0
C2129 C 0.14017 0.26603 0.44055 0.0
C2130 C 0.15996 0.24674 0.47109 0.0
C2131 C 0.16492 0.24069 0.50438 0.0
C2132 C 0.16155 0.22871 0.51332 0.0
C2133 C 0.15259 0.22311 0.48926 0.0
C2134 C 0.14761 0.22922 0.45551 0.0
H2135 H 0.13321 0.2727 0.4308 0.0
H2136 H 0.13612 0.25983 0.46356 0.0
H2137 H 0.14764 0.27117 0.45517 0.0
H2138 H 0.16337 0.25567 0.46371 0.0
H2139 H 0.17172 0.24534 0.52241 0.0
H2140 H 0.53129 0.41202 0.30171 0.0
H2141 H 0.5194 0.40644 0.24101 0.0
H2142 H 0.49218 0.43265 0.27444 0.0
H2143 H 0.50369 0.43798 0.33519 0.0
H2144 H 0.48214 0.41217 0.24056 0.0
H2145 H 0.5201 0.42986 0.14516 0.0
H2146 H 0.52351 0.41731 0.17818 0.0
H2147 H 0.51976 0.43178 0.19995 0.0
C2148 C 0.52266 0.41642 0.29648 0.0
C2149 C 0.51856 0.42561 0.32289 0.0
C2150 C 0.5159 0.41325 0.26172 0.0
C2151 C 0.50503 0.41931 0.25278 0.0
C2152 C 0.50056 0.42787 0.28062 0.0
H2153 H 0.47314 0.44959 0.0481 0.0
H2154 H 0.48218 0.44309 0.1125 0.0
C2155 C 0.50722 0.43097 0.31529 0.0
C2156 C 0.49884 0.41796 0.21272 0.0
H2157 H 0.50181 0.42589 0.11222 0.0
C2158 C 0.48648 0.41491 0.21224 0.0
C2159 C 0.50453 0.42164 0.17591 0.0
C2160 C 0.51767 0.42542 0.17457 0.0
C2161 C 0.4795 0.41614 0.17646 0.0
C2162 C 0.48509 0.42039 0.14035 0.0
C2163 C 0.49759 0.42266 0.14015 0.0
C2164 C 0.47804 0.42412 0.10392 0.0
C2165 C 0.46608 0.41367 0.17805 0.0
C2166 C 0.47236 0.41562 0.07837 0.0
C2167 C 0.46707 0.41934 0.04141 0.0
C2168 C 0.46753 0.43158 0.02947 0.0
C2169 C 0.47271 0.44009 0.05624 0.0
C2170 C 0.47789 0.43639 0.09305 0.0
H2171 H 0.46294 0.41146 0.2095 0.0
H2172 H 0.46097 0.42167 0.16678 0.0
H2173 H 0.46389 0.40593 0.15766 0.0
H2174 H 0.47248 0.40609 0.08612 0.0
H2175 H 0.46321 0.41257 0.02126 0.0
H2176 H 0.14444 0.33044 0.02794 0.0
H2177 H 0.12952 0.34664 0.03676 0.0
H2178 H 0.13459 0.3452 0.16762 0.0
H2179 H 0.14957 0.32912 0.15917 0.0
H2180 H 0.1078 0.34567 0.08171 0.0
H2181 H 0.13837 0.38135 0.14214 0.0
H2182 H 0.14395 0.36795 0.11666 0.0
H2183 H 0.13917 0.36722 0.16924 0.0
C2184 C 0.14245 0.33362 0.05859 0.0
C2185 C 0.14824 0.3285 0.09283 0.0
C2186 C 0.13391 0.34287 0.06356 0.0
C2187 C 0.13107 0.34724 0.10279 0.0
C2188 C 0.13682 0.34214 0.13701 0.0
H2189 H 0.08005 0.39988 0.19997 0.0
H2190 H 0.0956 0.3843 0.19058 0.0
C2191 C 0.14534 0.33289 0.1321 0.0
C2192 C 0.12177 0.3568 0.10812 0.0
H2193 H 0.11726 0.38534 0.14546 0.0
C2194 C 0.10987 0.35438 0.0954 0.0
C2195 C 0.12449 0.36812 0.1262 0.0
C2196 C 0.1372 0.3714 0.13904 0.0
C2197 C 0.10057 0.36289 0.10095 0.0
C2198 C 0.10329 0.37422 0.119 0.0
C2199 C 0.11519 0.37665 0.13171 0.0
C2200 C 0.09393 0.38371 0.12458 0.0
C2201 C 0.08785 0.35957 0.08829 0.0
C2202 C 0.08797 0.38868 0.09055 0.0
C2203 C 0.07908 0.39756 0.09579 0.0
C2204 C 0.07602 0.40172 0.1352 0.0
C2205 C 0.08215 0.39686 0.16922 0.0
C2206 C 0.09105 0.38796 0.16392 0.0
H2207 H 0.0867 0.34961 0.08528 0.0
H2208 H 0.08112 0.36301 0.11073 0.0
H2209 H 0.08584 0.36372 0.05808 0.0
H2210 H 0.09023 0.38572 0.05986 0.0
H2211 H 0.07461 0.40115 0.06887 0.0
H2212 H 0.85793 0.82518 0.45258 0.0
H2213 H 0.87329 0.84116 0.45032 0.0
H2214 H 0.86674 0.84595 0.32115 0.0
H2215 H 0.85133 0.83009 0.32308 0.0
H2216 H 0.8946 0.8422 0.40157 0.0
H2217 H 0.86349 0.88042 0.36781 0.0
H2218 H 0.85819 0.86599 0.3866 0.0
H2219 H 0.86215 0.86777 0.33354 0.0
C2220 C 0.85971 0.82966 0.42371 0.0
C2221 C 0.85334 0.82639 0.38805 0.0
C2222 C 0.86851 0.83878 0.42248 0.0
C2223 C 0.87103 0.84485 0.3857 0.0
C2224 C 0.86478 0.84154 0.35001 0.0
H2225 H 0.91987 0.90265 0.31338 0.0
H2226 H 0.90507 0.88617 0.31564 0.0
C2227 C 0.85601 0.83242 0.35117 0.0
C2228 C 0.88037 0.85451 0.38443 0.0
H2229 H 0.88453 0.88454 0.364 0.0
C2230 C 0.89241 0.85148 0.39356 0.0
C2231 C 0.87747 0.86658 0.37383 0.0
C2232 C 0.86461 0.87046 0.36522 0.0
C2233 C 0.90169 0.86016 0.39163 0.0
C2234 C 0.8988 0.87225 0.38105 0.0
C2235 C 0.88674 0.87527 0.37199 0.0
C2236 C 0.9081 0.88194 0.37953 0.0
C2237 C 0.91455 0.85625 0.4 0.0
C2238 C 0.91468 0.88508 0.41476 0.0
C2239 C 0.92317 0.89447 0.41356 0.0
C2240 C 0.92518 0.90098 0.37714 0.0
C2241 C 0.91857 0.89781 0.3419 0.0
C2242 C 0.91009 0.8884 0.34314 0.0
H2243 H 0.91568 0.84631 0.39651 0.0
H2244 H 0.92099 0.86088 0.3791 0.0
H2245 H 0.91698 0.85867 0.43195 0.0
H2246 H 0.91311 0.8804 0.44341 0.0
H2247 H 0.92803 0.89672 0.44134 0.0
H2248 H 0.33762 0.65489 0.66033 0.0
H2249 H 0.35404 0.64002 0.65959 0.0
H2250 H 0.37715 0.66563 0.59781 0.0
H2251 H 0.36078 0.6806 0.59841 0.0
H2252 H 0.36734 0.63055 0.59019 0.0
H2253 H 0.39652 0.65499 0.70178 0.0
H2254 H 0.38058 0.65823 0.69586 0.0
H2255 H 0.39126 0.66373 0.65881 0.0
C2256 C 0.34618 0.65737 0.64647 0.0
C2257 C 0.3479 0.66897 0.62961 0.0
C2258 C 0.35554 0.64885 0.64605 0.0
C2259 C 0.36684 0.65179 0.62913 0.0
C2260 C 0.36854 0.66326 0.61155 0.0
H2261 H 0.42568 0.6022 0.57103 0.0
H2262 H 0.40974 0.61757 0.56881 0.0
C2263 C 0.35915 0.67177 0.61174 0.0
C2264 C 0.37683 0.64283 0.63007 0.0
H2265 H 0.40467 0.6373 0.67171 0.0
C2266 C 0.37551 0.63202 0.60792 0.0
C2267 C 0.3874 0.64473 0.65365 0.0
C2268 C 0.38905 0.65599 0.67919 0.0
C2269 C 0.38458 0.62309 0.60839 0.0
C2270 C 0.39525 0.62509 0.63139 0.0
C2271 C 0.39651 0.63585 0.65388 0.0
C2272 C 0.40513 0.61601 0.63298 0.0
C2273 C 0.38257 0.6115 0.58488 0.0
C2274 C 0.40802 0.61026 0.67004 0.0
C2275 C 0.41714 0.60147 0.67147 0.0
C2276 C 0.42361 0.59835 0.63588 0.0
C2277 C 0.42085 0.60434 0.59898 0.0
C2278 C 0.4117 0.61309 0.59758 0.0
H2279 H 0.37291 0.61026 0.57636 0.0
H2280 H 0.388 0.61174 0.55628 0.0
H2281 H 0.38556 0.60356 0.6031 0.0
H2282 H 0.40308 0.61244 0.69775 0.0
H2283 H 0.41905 0.59707 0.7004 0.0
H2284 H 0.64885 0.17201 0.95539 0.0
H2285 H 0.63377 0.15599 0.94593 0.0
H2286 H 0.64044 0.1563 0.81582 0.0
H2287 H 0.65558 0.1722 0.82493 0.0
H2288 H 0.61261 0.15679 0.89789 0.0
H2289 H 0.64354 0.12034 0.84534 0.0
H2290 H 0.64893 0.1339 0.87029 0.0
H2291 H 0.64479 0.13423 0.81706 0.0
C2292 C 0.64717 0.16862 0.92478 0.0
C2293 C 0.65347 0.17336 0.89094 0.0
C2294 C 0.63854 0.15948 0.91944 0.0
C2295 C 0.63611 0.15484 0.88026 0.0
C2296 C 0.64234 0.15958 0.84643 0.0
H2297 H 0.58598 0.10138 0.78248 0.0
H2298 H 0.6014 0.11707 0.79197 0.0
C2299 C 0.65096 0.16872 0.8517 0.0
C2300 C 0.62677 0.14532 0.87456 0.0
H2301 H 0.62246 0.11646 0.83986 0.0
C2302 C 0.61476 0.14795 0.88542 0.0
C2303 C 0.62961 0.13381 0.8581 0.0
C2304 C 0.64243 0.13032 0.84733 0.0
C2305 C 0.60545 0.13945 0.87961 0.0
C2306 C 0.60829 0.12793 0.86321 0.0
C2307 C 0.6203 0.1253 0.85233 0.0
C2308 C 0.59893 0.11842 0.85755 0.0
C2309 C 0.59263 0.14298 0.89023 0.0
C2310 C 0.59255 0.11386 0.89134 0.0
C2311 C 0.58372 0.10492 0.88603 0.0
C2312 C 0.58116 0.10029 0.84681 0.0
C2313 C 0.58769 0.10476 0.81307 0.0
C2314 C 0.59652 0.11373 0.81843 0.0
H2315 H 0.59153 0.15297 0.89181 0.0
H2316 H 0.58612 0.13933 0.86742 0.0
H2317 H 0.59027 0.13919 0.92067 0.0
H2318 H 0.59444 0.11716 0.92191 0.0
H2319 H 0.57894 0.10163 0.91275 0.0
H2320 H 0.06992 0.60701 0.40605 0.0
H2321 H 0.08569 0.6225 0.40886 0.0
H2322 H 0.10372 0.60594 0.30599 0.0
H2323 H 0.08803 0.5903 0.30315 0.0
H2324 H 0.11929 0.61146 0.37093 0.0
H2325 H 0.09072 0.65098 0.33025 0.0
H2326 H 0.08491 0.64222 0.3722 0.0
H2327 H 0.08588 0.63555 0.32205 0.0
C2328 C 0.07719 0.60668 0.38383 0.0
C2329 C 0.07768 0.59742 0.35426 0.0
C2330 C 0.08617 0.61559 0.38536 0.0
C2331 C 0.09579 0.61547 0.35727 0.0
C2332 C 0.09634 0.60623 0.32782 0.0
H2333 H 0.14702 0.67472 0.32317 0.0
H2334 H 0.13187 0.65883 0.31309 0.0
C2335 C 0.08735 0.59731 0.32621 0.0
C2336 C 0.10546 0.62478 0.35953 0.0
H2337 H 0.11043 0.65528 0.35614 0.0
C2338 C 0.11738 0.62104 0.36745 0.0
C2339 C 0.10296 0.63726 0.35449 0.0
C2340 C 0.09045 0.64177 0.34388 0.0
C2341 C 0.12683 0.62947 0.37152 0.0
C2342 C 0.12424 0.64198 0.36813 0.0
C2343 C 0.11238 0.6457 0.35914 0.0
C2344 C 0.13369 0.65138 0.37405 0.0
C2345 C 0.13952 0.62491 0.37906 0.0
C2346 C 0.13968 0.65251 0.41178 0.0
C2347 C 0.14835 0.66158 0.41766 0.0
C2348 C 0.15115 0.66974 0.38596 0.0
C2349 C 0.14511 0.66858 0.3482 0.0
C2350 C 0.13644 0.65951 0.34238 0.0
H2351 H 0.14053 0.61528 0.36989 0.0
H2352 H 0.14627 0.63041 0.36203 0.0
H2353 H 0.1416 0.62561 0.41223 0.0
H2354 H 0.13753 0.64649 0.43692 0.0
H2355 H 0.15278 0.66225 0.44718 0.0
H2356 H 0.64746 0.82638 0.53236 0.0
H2357 H 0.63241 0.84249 0.54071 0.0
H2358 H 0.63759 0.84151 0.67156 0.0
H2359 H 0.65269 0.82551 0.66359 0.0
H2360 H 0.61066 0.84192 0.58619 0.0
H2361 H 0.64175 0.87753 0.64392 0.0
H2362 H 0.64712 0.86397 0.61893 0.0
H2363 H 0.64247 0.86351 0.67166 0.0
C2364 C 0.64544 0.82962 0.56292 0.0
C2365 C 0.65133 0.82468 0.59728 0.0
C2366 C 0.63683 0.83882 0.56762 0.0
C2367 C 0.63402 0.84332 0.60669 0.0
C2368 C 0.6398 0.83834 0.64105 0.0
H2369 H 0.58428 0.8972 0.70297 0.0
H2370 H 0.59944 0.88127 0.69341 0.0
C2371 C 0.64839 0.82914 0.63642 0.0
C2372 C 0.6248 0.853 0.61168 0.0
H2373 H 0.62071 0.88178 0.64744 0.0
C2374 C 0.61285 0.85066 0.59935 0.0
C2375 C 0.6277 0.86439 0.629 0.0
C2376 C 0.64047 0.86758 0.64133 0.0
C2377 C 0.60366 0.85931 0.60463 0.0
C2378 C 0.60654 0.8707 0.622 0.0
C2379 C 0.6185 0.87305 0.63422 0.0
C2380 C 0.59729 0.88032 0.62762 0.0
C2381 C 0.59087 0.85607 0.59251 0.0
C2382 C 0.59116 0.88519 0.59375 0.0
C2383 C 0.58248 0.89427 0.5991 0.0
C2384 C 0.57981 0.89874 0.63845 0.0
C2385 C 0.58608 0.89395 0.67228 0.0
C2386 C 0.59476 0.88485 0.66687 0.0
H2387 H 0.58961 0.84612 0.59014 0.0
H2388 H 0.58423 0.8597 0.61491 0.0
H2389 H 0.58884 0.86008 0.5621 0.0
H2390 H 0.59315 0.88202 0.56309 0.0
H2391 H 0.57789 0.8978 0.57233 0.0
H2392 H 0.42339 0.39795 0.81175 0.0
H2393 H 0.40803 0.38208 0.81929 0.0
H2394 H 0.41002 0.38552 0.95066 0.0
H2395 H 0.42527 0.4014 0.94353 0.0
H2396 H 0.40986 0.35967 0.86248 0.0
H2397 H 0.37356 0.389 0.9258 0.0
H2398 H 0.3867 0.39504 0.90001 0.0
H2399 H 0.3878 0.39001 0.95222 0.0
C2400 C 0.42054 0.39535 0.84225 0.0
C2401 C 0.42552 0.401 0.87702 0.0
C2402 C 0.41178 0.38628 0.84648 0.0
C2403 C 0.40776 0.38277 0.8855 0.0
C2404 C 0.41282 0.38826 0.92024 0.0
H2405 H 0.35629 0.33039 0.98018 0.0
H2406 H 0.3716 0.34619 0.97107 0.0
C2407 C 0.4216 0.3973 0.91607 0.0
C2408 C 0.39844 0.3732 0.89003 0.0
H2409 H 0.37002 0.36782 0.92716 0.0
C2410 C 0.40112 0.36145 0.87639 0.0
C2411 C 0.38707 0.37555 0.90833 0.0
C2412 C 0.38352 0.3881 0.92214 0.0
C2413 C 0.39282 0.35192 0.88133 0.0
C2414 C 0.38145 0.35427 0.89969 0.0
C2415 C 0.37876 0.36603 0.9132 0.0
C2416 C 0.37219 0.34466 0.90504 0.0
C2417 C 0.39643 0.33936 0.8678 0.0
C2418 C 0.36731 0.33867 0.8709 0.0
C2419 C 0.35858 0.32963 0.87598 0.0
C2420 C 0.35448 0.32645 0.91534 0.0
C2421 C 0.35926 0.33258 0.94947 0.0
C2422 C 0.36801 0.34163 0.94433 0.0
H2423 H 0.40641 0.33847 0.86462 0.0
H2424 H 0.39317 0.33243 0.88982 0.0
H2425 H 0.3923 0.33744 0.83751 0.0
H2426 H 0.37021 0.34105 0.84024 0.0
H2427 H 0.35505 0.32515 0.849 0.0
H2428 H 0.86677 0.18543 0.10838 0.0
H2429 H 0.88355 0.17097 0.1089 0.0
H2430 H 0.85911 0.14244 0.0728 0.0
H2431 H 0.84234 0.15685 0.07144 0.0
H2432 H 0.88618 0.15055 0.15581 0.0
H2433 H 0.88647 0.13839 0.99104 0.0
H2434 H 0.87833 0.15134 0.01054 0.0
H2435 H 0.87195 0.13641 0.01479 0.0
C2436 C 0.86497 0.1761 0.10018 0.0
C2437 C 0.85321 0.17232 0.08968 0.0
C2438 C 0.87458 0.16784 0.10056 0.0
C2439 C 0.87263 0.15566 0.09031 0.0
C2440 C 0.86089 0.15185 0.0799 0.0
H2441 H 0.91547 0.09009 0.09344 0.0
H2442 H 0.89942 0.10534 0.09123 0.0
C2443 C 0.85129 0.1601 0.07937 0.0
C2444 C 0.88276 0.14684 0.09207 0.0
H2445 H 0.89827 0.12596 0.03539 0.0
C2446 C 0.88889 0.14524 0.1294 0.0
C2447 C 0.88629 0.13992 0.05757 0.0
C2448 C 0.8805 0.14166 0.01612 0.0
C2449 C 0.89825 0.13672 0.1334 0.0
C2450 C 0.90165 0.12969 0.09908 0.0
C2451 C 0.8956 0.13133 0.06169 0.0
C2452 C 0.91141 0.12052 0.10138 0.0
C2453 C 0.90427 0.13507 0.17451 0.0
C2454 C 0.92348 0.12403 0.10764 0.0
C2455 C 0.9327 0.11535 0.10876 0.0
C2456 C 0.93 0.10299 0.10369 0.0
C2457 C 0.91787 0.09952 0.09761 0.0
C2458 C 0.90868 0.10821 0.09624 0.0
H2459 H 0.89903 0.13939 0.19961 0.0
H2460 H 0.90541 0.1253 0.1816 0.0
H2461 H 0.91341 0.13925 0.17373 0.0
H2462 H 0.92578 0.13351 0.11114 0.0
H2463 H 0.94194 0.11833 0.1134 0.0
H2464 H 0.84848 0.67473 0.81698 0.0
H2465 H 0.86372 0.6588 0.81072 0.0
H2466 H 0.86645 0.65676 0.94228 0.0
H2467 H 0.85107 0.6726 0.94893 0.0
H2468 H 0.88749 0.65892 0.83893 0.0
H2469 H 0.86137 0.62138 0.90946 0.0
H2470 H 0.85435 0.63532 0.89301 0.0
H2471 H 0.86248 0.63472 0.94069 0.0
C2472 C 0.85226 0.67086 0.84465 0.0
C2473 C 0.84851 0.67492 0.8835 0.0
C2474 C 0.86099 0.66176 0.84098 0.0
C2475 C 0.8661 0.65647 0.87601 0.0
C2476 C 0.86244 0.66054 0.91484 0.0
H2477 H 0.92181 0.60249 0.91724 0.0
H2478 H 0.90611 0.61799 0.92343 0.0
C2479 C 0.8537 0.66965 0.91857 0.0
C2480 C 0.87553 0.64697 0.87174 0.0
H2481 H 0.88209 0.61755 0.89516 0.0
C2482 C 0.88629 0.64985 0.85105 0.0
C2483 C 0.87394 0.63516 0.88762 0.0
C2484 C 0.86238 0.63138 0.90863 0.0
C2485 C 0.89561 0.64131 0.84641 0.0
C2486 C 0.89403 0.6295 0.86231 0.0
C2487 C 0.88327 0.62661 0.88301 0.0
C2488 C 0.9035 0.62004 0.85814 0.0
C2489 C 0.90718 0.64508 0.82538 0.0
C2490 C 0.90713 0.61593 0.81935 0.0
C2491 C 0.91612 0.60706 0.81565 0.0
C2492 C 0.92161 0.6021 0.85074 0.0
C2493 C 0.91781 0.60614 0.88956 0.0
C2494 C 0.90882 0.61499 0.8932 0.0
H2495 H 0.90814 0.65509 0.82416 0.0
H2496 H 0.9152 0.64124 0.84125 0.0
H2497 H 0.90713 0.64163 0.79346 0.0
H2498 H 0.90297 0.61954 0.7919 0.0
H2499 H 0.91877 0.60412 0.78531 0.0
H2500 H 0.14618 0.17251 0.65441 0.0
H2501 H 0.13128 0.15634 0.66352 0.0
H2502 H 0.12567 0.15496 0.5329 0.0
H2503 H 0.14068 0.17098 0.52338 0.0
H2504 H 0.10704 0.15603 0.64211 0.0
H2505 H 0.13194 0.11959 0.56102 0.0
H2506 H 0.13907 0.13356 0.57645 0.0
H2507 H 0.1299 0.13304 0.53096 0.0
C2508 C 0.14183 0.16872 0.62755 0.0
C2509 C 0.14468 0.17301 0.58812 0.0
C2510 C 0.13331 0.15949 0.63285 0.0
C2511 C 0.1275 0.15431 0.59887 0.0
C2512 C 0.13024 0.15863 0.5595 0.0
H2513 H 0.07152 0.1007 0.56147 0.0
H2514 H 0.08669 0.1167 0.55531 0.0
C2515 C 0.13878 0.16785 0.55415 0.0
C2516 C 0.11834 0.14462 0.6047 0.0
H2517 H 0.11142 0.11549 0.57839 0.0
C2518 C 0.10803 0.14714 0.62843 0.0
C2519 C 0.11965 0.13302 0.58684 0.0
C2520 C 0.13079 0.12957 0.56271 0.0
C2521 C 0.09887 0.13846 0.63395 0.0
C2522 C 0.10013 0.12692 0.61571 0.0
C2523 C 0.11047 0.12437 0.59224 0.0
C2524 C 0.09075 0.11739 0.62007 0.0
C2525 C 0.08776 0.14182 0.65836 0.0
C2526 C 0.08804 0.11241 0.65856 0.0
C2527 C 0.07936 0.10323 0.66223 0.0
C2528 C 0.07326 0.09885 0.62743 0.0
C2529 C 0.07601 0.10388 0.58894 0.0
C2530 C 0.0847 0.11301 0.58531 0.0
H2531 H 0.08691 0.15178 0.66229 0.0
H2532 H 0.07943 0.13836 0.64334 0.0
H2533 H 0.08837 0.13766 0.68923 0.0
H2534 H 0.09275 0.11551 0.6857 0.0
H2535 H 0.0775 0.09953 0.6923 0.0
H2536 H 0.56898 0.39192 0.32084 0.0
H2537 H 0.5845 0.37621 0.32674 0.0
H2538 H 0.59651 0.39168 0.44101 0.0
H2539 H 0.58092 0.4073 0.43577 0.0
H2540 H 0.60941 0.37854 0.33148 0.0
H2541 H 0.59152 0.35626 0.47133 0.0
H2542 H 0.58274 0.36693 0.44182 0.0
H2543 H 0.59411 0.37222 0.47696 0.0
C2544 C 0.5749 0.39197 0.34731 0.0
C2545 C 0.57365 0.40084 0.37795 0.0
C2546 C 0.58377 0.38298 0.35062 0.0
C2547 C 0.59153 0.38264 0.38466 0.0
C2548 C 0.59044 0.39159 0.41496 0.0
H2549 H 0.65226 0.33629 0.4524 0.0
H2550 H 0.63677 0.35217 0.44939 0.0
C2551 C 0.58156 0.40057 0.41175 0.0
C2552 C 0.60094 0.37309 0.38794 0.0
H2553 H 0.61083 0.34976 0.44808 0.0
C2554 C 0.60969 0.37222 0.35688 0.0
C2555 C 0.60132 0.36487 0.42119 0.0
C2556 C 0.59186 0.36501 0.45456 0.0
C2557 C 0.61888 0.36345 0.35839 0.0
C2558 C 0.61923 0.35521 0.39156 0.0
C2559 C 0.61055 0.35611 0.42275 0.0
C2560 C 0.62843 0.34545 0.39391 0.0
C2561 C 0.62826 0.36318 0.3248 0.0
C2562 C 0.62871 0.33629 0.36417 0.0
C2563 C 0.6375 0.32721 0.36582 0.0
C2564 C 0.64619 0.32708 0.39737 0.0
C2565 C 0.64573 0.33614 0.42762 0.0
C2566 C 0.63689 0.34522 0.42598 0.0
H2567 H 0.62852 0.37183 0.30743 0.0
H2568 H 0.63742 0.36138 0.33751 0.0
H2569 H 0.62604 0.3558 0.30299 0.0
H2570 H 0.62212 0.33618 0.33959 0.0
H2571 H 0.63754 0.32035 0.34213 0.0
H2572 H 0.35762 0.82273 0.03641 0.0
H2573 H 0.3736 0.83777 0.04698 0.0
H2574 H 0.3646 0.83959 0.17534 0.0
H2575 H 0.34876 0.82445 0.16528 0.0
H2576 H 0.37159 0.86125 0.0757 0.0
H2577 H 0.40104 0.83418 0.17857 0.0
H2578 H 0.38896 0.82751 0.14892 0.0
H2579 H 0.38565 0.83538 0.19583 0.0
C2580 C 0.35908 0.82628 0.06695 0.0
C2581 C 0.35194 0.82233 0.10003 0.0
C2582 C 0.36821 0.83488 0.07292 0.0
C2583 C 0.37043 0.83966 0.11208 0.0
C2584 C 0.36324 0.83583 0.14505 0.0
H2585 H 0.41889 0.8956 0.20553 0.0
H2586 H 0.40319 0.88006 0.19752 0.0
C2587 C 0.35413 0.82722 0.13915 0.0
C2588 C 0.37999 0.84894 0.11819 0.0
H2589 H 0.40599 0.85502 0.17124 0.0
C2590 C 0.37914 0.85987 0.09643 0.0
C2591 C 0.38982 0.84713 0.14538 0.0
C2592 C 0.39152 0.83538 0.16825 0.0
C2593 C 0.38776 0.86909 0.10149 0.0
C2594 C 0.39758 0.86728 0.12864 0.0
C2595 C 0.39842 0.85639 0.15056 0.0
C2596 C 0.40723 0.87648 0.13383 0.0
C2597 C 0.38621 0.88079 0.07821 0.0
C2598 C 0.41482 0.87943 0.1009 0.0
C2599 C 0.4238 0.88824 0.10538 0.0
C2600 C 0.42538 0.89429 0.14296 0.0
C2601 C 0.41789 0.89116 0.17616 0.0
C2602 C 0.40892 0.88228 0.17166 0.0
H2603 H 0.37683 0.88188 0.06646 0.0
H2604 H 0.38844 0.88868 0.09788 0.0
H2605 H 0.39247 0.88085 0.05162 0.0
H2606 H 0.41379 0.87491 0.07165 0.0
H2607 H 0.42942 0.89038 0.07919 0.0
H2608 H 0.90737 0.41184 0.67745 0.0
H2609 H 0.89185 0.39612 0.67075 0.0
H2610 H 0.91279 0.37889 0.57576 0.0
H2611 H 0.92839 0.39444 0.58248 0.0
H2612 H 0.87822 0.38997 0.60138 0.0
H2613 H 0.90568 0.35102 0.65504 0.0
H2614 H 0.91019 0.36654 0.66335 0.0
H2615 H 0.91263 0.35949 0.61441 0.0
C2616 C 0.90872 0.40466 0.65532 0.0
C2617 C 0.91916 0.40438 0.63063 0.0
C2618 C 0.89983 0.3957 0.65149 0.0
C2619 C 0.90125 0.38625 0.62315 0.0
C2620 C 0.91163 0.38596 0.59839 0.0
H2621 H 0.84714 0.33806 0.52078 0.0
H2622 H 0.86195 0.3541 0.5336 0.0
C2623 C 0.92051 0.39491 0.60215 0.0
C2624 C 0.89173 0.37686 0.61858 0.0
H2625 H 0.88683 0.34636 0.62333 0.0
C2626 C 0.88007 0.38044 0.6064 0.0
C2627 C 0.89413 0.36445 0.62561 0.0
C2628 C 0.9063 0.36012 0.64071 0.0
C2629 C 0.87083 0.3719 0.60009 0.0
C2630 C 0.87336 0.35945 0.60558 0.0
C2631 C 0.88494 0.3559 0.61873 0.0
C2632 C 0.86414 0.34994 0.59795 0.0
C2633 C 0.85839 0.3763 0.58802 0.0
C2634 C 0.86061 0.34214 0.62969 0.0
C2635 C 0.8522 0.33292 0.62243 0.0
C2636 C 0.8472 0.33127 0.58317 0.0
C2637 C 0.85076 0.33911 0.55141 0.0
C2638 C 0.85918 0.34833 0.55873 0.0
H2639 H 0.8571 0.38602 0.59557 0.0
H2640 H 0.85722 0.37521 0.55446 0.0
H2641 H 0.85122 0.37095 0.60356 0.0
H2642 H 0.86438 0.34318 0.66013 0.0
H2643 H 0.84968 0.32705 0.64758 0.0
H2644 H 0.36158 0.17793 0.37898 0.0
H2645 H 0.37744 0.1628 0.36865 0.0
H2646 H 0.35288 0.13463 0.40673 0.0
H2647 H 0.33697 0.14972 0.41771 0.0
H2648 H 0.3756 0.13265 0.44231 0.0
H2649 H 0.37943 0.13863 0.27411 0.0
H2650 H 0.38117 0.15242 0.30261 0.0
H2651 H 0.3669 0.14458 0.30333 0.0
C2652 C 0.35952 0.16852 0.38517 0.0
C2653 C 0.34797 0.16503 0.39899 0.0
C2654 C 0.36859 0.15987 0.37898 0.0
C2655 C 0.36628 0.14756 0.3862 0.0
C2656 C 0.35483 0.14407 0.4007 0.0
H2657 H 0.41089 0.08691 0.30722 0.0
H2658 H 0.39473 0.10179 0.31708 0.0
C2659 C 0.34575 0.15272 0.40695 0.0
C2660 C 0.37586 0.13836 0.37927 0.0
H2661 H 0.3946 0.1266 0.30612 0.0
C2662 C 0.37973 0.13129 0.41252 0.0
C2663 C 0.38111 0.13649 0.34024 0.0
C2664 C 0.37688 0.14334 0.30291 0.0
C2665 C 0.38888 0.12256 0.40798 0.0
C2666 C 0.39445 0.12101 0.36928 0.0
C2667 C 0.39041 0.1279 0.33586 0.0
C2668 C 0.4044 0.11217 0.36279 0.0
C2669 C 0.39236 0.11496 0.44453 0.0
C2670 C 0.41531 0.1132 0.38459 0.0
C2671 C 0.42455 0.1047 0.37911 0.0
C2672 C 0.42312 0.09504 0.35143 0.0
C2673 C 0.41229 0.09422 0.32885 0.0
C2674 C 0.40304 0.10271 0.33444 0.0
H2675 H 0.38516 0.11495 0.46827 0.0
H2676 H 0.39422 0.10546 0.43534 0.0
H2677 H 0.4007 0.11872 0.45855 0.0
H2678 H 0.41667 0.12059 0.40592 0.0
H2679 H 0.4328 0.10567 0.39679 0.0
H2680 H 0.64194 0.67707 0.08417 0.0
H2681 H 0.62629 0.66134 0.08198 0.0
H2682 H 0.64202 0.64433 0.18827 0.0
H2683 H 0.65761 0.65999 0.19093 0.0
H2684 H 0.62898 0.63557 0.07611 0.0
H2685 H 0.60622 0.64937 0.22037 0.0
H2686 H 0.61669 0.6591 0.19353 0.0
H2687 H 0.62225 0.64696 0.22501 0.0
C2688 C 0.64208 0.66998 0.10706 0.0
C2689 C 0.65099 0.66984 0.13788 0.0
C2690 C 0.63314 0.661 0.10574 0.0
C2691 C 0.63289 0.65179 0.13536 0.0
C2692 C 0.64191 0.65149 0.16559 0.0
H2693 H 0.58759 0.58996 0.19053 0.0
H2694 H 0.60301 0.60585 0.18883 0.0
C2695 C 0.65085 0.66043 0.1669 0.0
C2696 C 0.62325 0.64243 0.13467 0.0
H2697 H 0.59999 0.63073 0.19105 0.0
C2698 C 0.62258 0.63454 0.10107 0.0
C2699 C 0.61494 0.64112 0.16734 0.0
C2700 C 0.61495 0.64964 0.20348 0.0
C2701 C 0.61399 0.62515 0.09974 0.0
C2702 C 0.60573 0.62379 0.13256 0.0
C2703 C 0.60635 0.63176 0.16599 0.0
C2704 C 0.5964 0.6141 0.13305 0.0
C2705 C 0.61409 0.61657 0.06378 0.0
C2706 C 0.58747 0.61356 0.10252 0.0
C2707 C 0.57865 0.60446 0.10334 0.0
C2708 C 0.57853 0.59579 0.13492 0.0
C2709 C 0.58742 0.59646 0.16573 0.0
C2710 C 0.59624 0.60555 0.16482 0.0
H2711 H 0.62284 0.61686 0.04702 0.0
H2712 H 0.61239 0.60712 0.07386 0.0
H2713 H 0.60681 0.61918 0.04207 0.0
H2714 H 0.58724 0.62022 0.07822 0.0
H2715 H 0.5719 0.60427 0.07927 0.0
H2716 H 0.08225 0.90639 0.81521 0.0
H2717 H 0.09741 0.89022 0.81798 0.0
H2718 H 0.08504 0.88035 0.93871 0.0
H2719 H 0.06978 0.89632 0.93601 0.0
H2720 H 0.11615 0.88718 0.87298 0.0
H2721 H 0.08484 0.84797 0.87908 0.0
H2722 H 0.07989 0.86298 0.86502 0.0
H2723 H 0.08199 0.85908 0.91804 0.0
C2724 C 0.0827 0.90072 0.84224 0.0
C2725 C 0.07475 0.90262 0.8753 0.0
C2726 C 0.09138 0.8915 0.84379 0.0
C2727 C 0.09224 0.88396 0.8783 0.0
C2728 C 0.08437 0.88587 0.91141 0.0
H2729 H 0.15403 0.83927 0.94693 0.0
H2730 H 0.13824 0.85478 0.94309 0.0
C2731 C 0.07568 0.89506 0.90987 0.0
C2732 C 0.10162 0.87436 0.88028 0.0
H2733 H 0.10561 0.84392 0.89305 0.0
C2734 C 0.11385 0.87771 0.87719 0.0
C2735 C 0.0986 0.86199 0.88533 0.0
C2736 C 0.08562 0.85775 0.88667 0.0
C2737 C 0.12315 0.86906 0.87969 0.0
C2738 C 0.12014 0.85676 0.88619 0.0
C2739 C 0.10791 0.85338 0.88858 0.0
C2740 C 0.12954 0.84719 0.88947 0.0
C2741 C 0.1361 0.87316 0.87459 0.0
C2742 C 0.12967 0.83756 0.86146 0.0
C2743 C 0.13861 0.82863 0.8638 0.0
C2744 C 0.1476 0.82912 0.89432 0.0
C2745 C 0.1473 0.83865 0.9229 0.0
C2746 C 0.13832 0.84757 0.92058 0.0
H2747 H 0.13666 0.88214 0.85932 0.0
H2748 H 0.14039 0.87398 0.90521 0.0
H2749 H 0.14139 0.86652 0.85638 0.0
H2750 H 0.12295 0.83705 0.83735 0.0
H2751 H 0.13854 0.82141 0.84133 0.0
loop_
_geom_bond_atom_site_label_1
_geom_bond_atom_site_label_2
_geom_bond_distance
_geom_bond_site_symmetry_2
_ccdc_geom_bond_type
Zn0 O3 2.031 . S
Zn0 O5 2.049 . S
Zn0 O10 2.067 . S
Zn1 O2 1.962 . S
Zn1 O4 1.986 . S
Zn1 O6 1.996 . S
Zn1 O9 1.943 . S
O2 Zn1 1.962 . S
O2 C7 1.254 . S
O3 Zn0 2.031 . S
O3 C7 1.269 . S
O4 Zn1 1.986 . S
O4 C11 1.262 . S
O5 Zn0 2.049 . S
O5 C13 1.260 . S
O6 Zn1 1.996 . S
O6 C13 1.257 . S
C7 O2 1.254 . S
C7 O3 1.269 . S
C8 O9 1.249 . S
C8 O10 1.270 . S
O9 Zn1 1.943 . S
O9 C8 1.249 . S
O10 Zn0 2.067 . S
O10 C8 1.270 . S
C11 O4 1.262 . S
C11 O12 1.232 . S
O12 C11 1.232 . S
C13 O5 1.260 . S
C13 O6 1.257 . S
Zn14 O17 2.031 . S
Zn14 O19 2.049 . S
Zn14 O24 2.067 . S
Zn15 O16 1.962 . S
Zn15 O18 1.986 . S
Zn15 O20 1.996 . S
Zn15 O23 1.943 . S
O16 Zn15 1.962 . S
O16 C21 1.254 . S
O17 Zn14 2.031 . S
O17 C21 1.269 . S
O18 Zn15 1.986 . S
O18 C25 1.262 . S
O19 Zn14 2.049 . S
O19 C27 1.260 . S
O20 Zn15 1.996 . S
O20 C27 1.257 . S
C21 O16 1.254 . S
C21 O17 1.269 . S
C22 O23 1.249 . S
C22 O24 1.270 . S
O23 Zn15 1.943 . S
O23 C22 1.249 . S
O24 Zn14 2.067 . S
O24 C22 1.270 . S
C25 O18 1.262 . S
C25 O26 1.232 . S
O26 C25 1.232 . S
C27 O19 1.260 . S
C27 O20 1.257 . S
Zn28 O31 2.031 . S
Zn28 O33 2.049 . S
Zn28 O38 2.067 . S
Zn29 O30 1.962 . S
Zn29 O32 1.986 . S
Zn29 O34 1.996 . S
Zn29 O37 1.943 . S
O30 Zn29 1.962 . S
O30 C35 1.254 . S
O31 Zn28 2.031 . S
O31 C35 1.269 . S
O32 Zn29 1.986 . S
O32 C39 1.262 . S
O33 Zn28 2.049 . S
O33 C41 1.260 . S
O34 Zn29 1.996 . S
O34 C41 1.257 . S
C35 O30 1.254 . S
C35 O31 1.269 . S
C36 O37 1.249 . S
C36 O38 1.270 . S
O37 Zn29 1.943 . S
O37 C36 1.249 . S
O38 Zn28 2.067 . S
O38 C36 1.270 . S
C39 O32 1.262 . S
C39 O40 1.232 . S
O40 C39 1.232 . S
C41 O33 1.260 . S
C41 O34 1.257 . S
Zn42 O45 2.031 . S
Zn42 O47 2.049 . S
Zn42 O52 2.067 . S
Zn43 O44 1.962 . S
Zn43 O46 1.986 . S
Zn43 O48 1.996 . S
Zn43 O51 1.943 . S
O44 Zn43 1.962 . S
O44 C49 1.254 . S
O45 Zn42 2.031 . S
O45 C49 1.269 . S
O46 Zn43 1.986 . S
O46 C53 1.262 . S
O47 Zn42 2.049 . S
O47 C55 1.260 . S
O48 Zn43 1.996 . S
O48 C55 1.257 . S
C49 O44 1.254 . S
C49 O45 1.269 . S
C50 O51 1.249 . S
C50 O52 1.270 . S
O51 Zn43 1.943 . S
O51 C50 1.249 . S
O52 Zn42 2.067 . S
O52 C50 1.270 . S
C53 O46 1.262 . S
C53 O54 1.232 . S
O54 C53 1.232 . S
C55 O47 1.260 . S
C55 O48 1.257 . S
Zn56 O59 2.031 . S
Zn56 O61 2.049 . S
Zn56 O66 2.067 . S
Zn57 O58 1.962 . S
Zn57 O60 1.986 . S
Zn57 O62 1.996 . S
Zn57 O65 1.943 . S
O58 Zn57 1.962 . S
O58 C63 1.254 . S
O59 Zn56 2.031 . S
O59 C63 1.269 . S
O60 Zn57 1.986 . S
O60 C67 1.262 . S
O61 Zn56 2.049 . S
O61 C69 1.260 . S
O62 Zn57 1.996 . S
O62 C69 1.257 . S
C63 O58 1.254 . S
C63 O59 1.269 . S
C64 O65 1.249 . S
C64 O66 1.270 . S
O65 Zn57 1.943 . S
O65 C64 1.249 . S
O66 Zn56 2.067 . S
O66 C64 1.270 . S
C67 O60 1.262 . S
C67 O68 1.232 . S
O68 C67 1.232 . S
C69 O61 1.260 . S
C69 O62 1.257 . S
Zn70 O73 2.031 . S
Zn70 O75 2.049 . S
Zn70 O80 2.067 . S
Zn71 O72 1.962 . S
Zn71 O74 1.986 . S
Zn71 O76 1.996 . S
Zn71 O79 1.943 . S
O72 Zn71 1.962 . S
O72 C77 1.254 . S
O73 Zn70 2.031 . S
O73 C77 1.269 . S
O74 Zn71 1.986 . S
O74 C81 1.262 . S
O75 Zn70 2.049 . S
O75 C83 1.260 . S
O76 Zn71 1.996 . S
O76 C83 1.257 . S
C77 O72 1.254 . S
C77 O73 1.269 . S
C78 O79 1.249 . S
C78 O80 1.270 . S
O79 Zn71 1.943 . S
O79 C78 1.249 . S
O80 Zn70 2.067 . S
O80 C78 1.270 . S
C81 O74 1.262 . S
C81 O82 1.232 . S
O82 C81 1.232 . S
C83 O75 1.260 . S
C83 O76 1.257 . S
Zn84 O87 2.031 . S
Zn84 O89 2.049 . S
Zn84 O94 2.067 . S
Zn85 O86 1.962 . S
Zn85 O88 1.986 . S
Zn85 O90 1.996 . S
Zn85 O93 1.943 . S
O86 Zn85 1.962 . S
O86 C91 1.254 . S
O87 Zn84 2.031 . S
O87 C91 1.269 . S
O88 Zn85 1.986 . S
O88 C95 1.262 . S
O89 Zn84 2.049 . S
O89 C97 1.260 . S
O90 Zn85 1.996 . S
O90 C97 1.257 . S
C91 O86 1.254 . S
C91 O87 1.269 . S
C92 O93 1.249 . S
C92 O94 1.270 . S
O93 Zn85 1.943 . S
O93 C92 1.249 . S
O94 Zn84 2.067 . S
O94 C92 1.270 . S
C95 O88 1.262 . S
C95 O96 1.232 . S
O96 C95 1.232 . S
C97 O89 1.260 . S
C97 O90 1.257 . S
Zn98 O101 2.031 . S
Zn98 O103 2.049 . S
Zn98 O108 2.067 . S
Zn99 O100 1.962 . S
Zn99 O102 1.986 . S
Zn99 O104 1.996 . S
Zn99 O107 1.943 . S
O100 Zn99 1.962 . S
O100 C105 1.254 . S
O101 Zn98 2.031 . S
O101 C105 1.269 . S
O102 Zn99 1.986 . S
O102 C109 1.262 . S
O103 Zn98 2.049 . S
O103 C111 1.260 . S
O104 Zn99 1.996 . S
O104 C111 1.257 . S
C105 O100 1.254 . S
C105 O101 1.269 . S
C106 O107 1.249 . S
C106 O108 1.270 . S
O107 Zn99 1.943 . S
O107 C106 1.249 . S
O108 Zn98 2.067 . S
O108 C106 1.270 . S
C109 O102 1.262 . S
C109 O110 1.232 . S
O110 C109 1.232 . S
C111 O103 1.260 . S
C111 O104 1.257 . S
Zn112 O115 2.031 . S
Zn112 O117 2.049 . S
Zn112 O122 2.067 . S
Zn113 O114 1.962 . S
Zn113 O116 1.986 . S
Zn113 O118 1.996 . S
Zn113 O121 1.943 . S
O114 Zn113 1.962 . S
O114 C119 1.254 . S
O115 Zn112 2.031 . S
O115 C119 1.269 . S
O116 Zn113 1.986 . S
O116 C123 1.262 . S
O117 Zn112 2.049 . S
O117 C125 1.260 . S
O118 Zn113 1.996 . S
O118 C125 1.257 . S
C119 O114 1.254 . S
C119 O115 1.269 . S
C120 O121 1.249 . S
C120 O122 1.270 . S
O121 Zn113 1.943 . S
O121 C120 1.249 . S
O122 Zn112 2.067 . S
O122 C120 1.270 . S
C123 O116 1.262 . S
C123 O124 1.232 . S
O124 C123 1.232 . S
C125 O117 1.260 . S
C125 O118 1.257 . S
Zn126 O129 2.031 . S
Zn126 O131 2.049 . S
Zn126 O136 2.067 . S
Zn127 O128 1.962 . S
Zn127 O130 1.986 . S
Zn127 O132 1.996 . S
Zn127 O135 1.943 . S
O128 Zn127 1.962 . S
O128 C133 1.254 . S
O129 Zn126 2.031 . S
O129 C133 1.269 . S
O130 Zn127 1.986 . S
O130 C137 1.262 . S
O131 Zn126 2.049 . S
O131 C139 1.260 . S
O132 Zn127 1.996 . S
O132 C139 1.257 . S
C133 O128 1.254 . S
C133 O129 1.269 . S
C134 O135 1.249 . S
C134 O136 1.270 . S
O135 Zn127 1.943 . S
O135 C134 1.249 . S
O136 Zn126 2.067 . S
O136 C134 1.270 . S
C137 O130 1.262 . S
C137 O138 1.232 . S
O138 C137 1.232 . S
C139 O131 1.260 . S
C139 O132 1.257 . S
Zn140 O143 2.031 . S
Zn140 O145 2.049 . S
Zn140 O150 2.067 . S
Zn141 O142 1.962 . S
Zn141 O144 1.986 . S
Zn141 O146 1.996 . S
Zn141 O149 1.943 . S
O142 Zn141 1.962 . S
O142 C147 1.254 . S
O143 Zn140 2.031 . S
O143 C147 1.269 . S
O144 Zn141 1.986 . S
O144 C151 1.262 . S
O145 Zn140 2.049 . S
O145 C153 1.260 . S
O146 Zn141 1.996 . S
O146 C153 1.257 . S
C147 O142 1.254 . S
C147 O143 1.269 . S
C148 O149 1.249 . S
C148 O150 1.270 . S
O149 Zn141 1.943 . S
O149 C148 1.249 . S
O150 Zn140 2.067 . S
O150 C148 1.270 . S
C151 O144 1.262 . S
C151 O152 1.232 . S
O152 C151 1.232 . S
C153 O145 1.260 . S
C153 O146 1.257 . S
Zn154 O157 2.031 . S
Zn154 O159 2.049 . S
Zn154 O164 2.067 . S
Zn155 O156 1.962 . S
Zn155 O158 1.986 . S
Zn155 O160 1.996 . S
Zn155 O163 1.943 . S
O156 Zn155 1.962 . S
O156 C161 1.254 . S
O157 Zn154 2.031 . S
O157 C161 1.269 . S
O158 Zn155 1.986 . S
O158 C165 1.262 . S
O159 Zn154 2.049 . S
O159 C167 1.260 . S
O160 Zn155 1.996 . S
O160 C167 1.257 . S
C161 O156 1.254 . S
C161 O157 1.269 . S
C162 O163 1.249 . S
C162 O164 1.270 . S
O163 Zn155 1.943 . S
O163 C162 1.249 . S
O164 Zn154 2.067 . S
O164 C162 1.270 . S
C165 O158 1.262 . S
C165 O166 1.232 . S
O166 C165 1.232 . S
C167 O159 1.260 . S
C167 O160 1.257 . S
Zn168 O171 2.031 . S
Zn168 O173 2.049 . S
Zn168 O178 2.067 . S
Zn169 O170 1.962 . S
Zn169 O172 1.986 . S
Zn169 O174 1.996 . S
Zn169 O177 1.943 . S
O170 Zn169 1.962 . S
O170 C175 1.254 . S
O171 Zn168 2.031 . S
O171 C175 1.269 . S
O172 Zn169 1.986 . S
O172 C179 1.262 . S
O173 Zn168 2.049 . S
O173 C181 1.260 . S
O174 Zn169 1.996 . S
O174 C181 1.257 . S
C175 O170 1.254 . S
C175 O171 1.269 . S
C176 O177 1.249 . S
C176 O178 1.270 . S
O177 Zn169 1.943 . S
O177 C176 1.249 . S
O178 Zn168 2.067 . S
O178 C176 1.270 . S
C179 O172 1.262 . S
C179 O180 1.232 . S
O180 C179 1.232 . S
C181 O173 1.260 . S
C181 O174 1.257 . S
Zn182 O185 2.031 . S
Zn182 O187 2.049 . S
Zn182 O192 2.067 . S
Zn183 O184 1.962 . S
Zn183 O186 1.986 . S
Zn183 O188 1.996 . S
Zn183 O191 1.943 . S
O184 Zn183 1.962 . S
O184 C189 1.254 . S
O185 Zn182 2.031 . S
O185 C189 1.269 . S
O186 Zn183 1.986 . S
O186 C193 1.262 . S
O187 Zn182 2.049 . S
O187 C195 1.260 . S
O188 Zn183 1.996 . S
O188 C195 1.257 . S
C189 O184 1.254 . S
C189 O185 1.269 . S
C190 O191 1.249 . S
C190 O192 1.270 . S
O191 Zn183 1.943 . S
O191 C190 1.249 . S
O192 Zn182 2.067 . S
O192 C190 1.270 . S
C193 O186 1.262 . S
C193 O194 1.232 . S
O194 C193 1.232 . S
C195 O187 1.260 . S
C195 O188 1.257 . S
Zn196 O199 2.031 . S
Zn196 O201 2.049 . S
Zn196 O206 2.067 . S
Zn197 O198 1.962 . S
Zn197 O200 1.986 . S
Zn197 O202 1.996 . S
Zn197 O205 1.943 . S
O198 Zn197 1.962 . S
O198 C203 1.254 . S
O199 Zn196 2.031 . S
O199 C203 1.269 . S
O200 Zn197 1.986 . S
O200 C207 1.262 . S
O201 Zn196 2.049 . S
O201 C209 1.260 . S
O202 Zn197 1.996 . S
O202 C209 1.257 . S
C203 O198 1.254 . S
C203 O199 1.269 . S
C204 O205 1.249 . S
C204 O206 1.270 . S
O205 Zn197 1.943 . S
O205 C204 1.249 . S
O206 Zn196 2.067 . S
O206 C204 1.270 . S
C207 O200 1.262 . S
C207 O208 1.232 . S
O208 C207 1.232 . S
C209 O201 1.260 . S
C209 O202 1.257 . S
Zn210 O213 2.031 . S
Zn210 O215 2.049 . S
Zn210 O220 2.067 . S
Zn211 O212 1.962 . S
Zn211 O214 1.986 . S
Zn211 O216 1.996 . S
Zn211 O219 1.943 . S
O212 Zn211 1.962 . S
O212 C217 1.254 . S
O213 Zn210 2.031 . S
O213 C217 1.269 . S
O214 Zn211 1.986 . S
O214 C221 1.262 . S
O215 Zn210 2.049 . S
O215 C223 1.260 . S
O216 Zn211 1.996 . S
O216 C223 1.257 . S
C217 O212 1.254 . S
C217 O213 1.269 . S
C218 O219 1.249 . S
C218 O220 1.270 . S
O219 Zn211 1.943 . S
O219 C218 1.249 . S
O220 Zn210 2.067 . S
O220 C218 1.270 . S
C221 O214 1.262 . S
C221 O222 1.232 . S
O222 C221 1.232 . S
C223 O215 1.260 . S
C223 O216 1.257 . S
Zn224 O227 2.031 . S
Zn224 O229 2.049 . S
Zn224 O234 2.067 . S
Zn225 O226 1.962 . S
Zn225 O228 1.986 . S
Zn225 O230 1.996 . S
Zn225 O233 1.943 . S
O226 Zn225 1.962 . S
O226 C231 1.254 . S
O227 Zn224 2.031 . S
O227 C231 1.269 . S
O228 Zn225 1.986 . S
O228 C235 1.262 . S
O229 Zn224 2.049 . S
O229 C237 1.260 . S
O230 Zn225 1.996 . S
O230 C237 1.257 . S
C231 O226 1.254 . S
C231 O227 1.269 . S
C232 O233 1.249 . S
C232 O234 1.270 . S
O233 Zn225 1.943 . S
O233 C232 1.249 . S
O234 Zn224 2.067 . S
O234 C232 1.270 . S
C235 O228 1.262 . S
C235 O236 1.232 . S
O236 C235 1.232 . S
C237 O229 1.260 . S
C237 O230 1.257 . S
Zn238 O241 2.031 . S
Zn238 O243 2.049 . S
Zn238 O248 2.067 . S
Zn239 O240 1.962 . S
Zn239 O242 1.986 . S
Zn239 O244 1.996 . S
Zn239 O247 1.943 . S
O240 Zn239 1.962 . S
O240 C245 1.254 . S
O241 Zn238 2.031 . S
O241 C245 1.269 . S
O242 Zn239 1.986 . S
O242 C249 1.262 . S
O243 Zn238 2.049 . S
O243 C251 1.260 . S
O244 Zn239 1.996 . S
O244 C251 1.257 . S
C245 O240 1.254 . S
C245 O241 1.269 . S
C246 O247 1.249 . S
C246 O248 1.270 . S
O247 Zn239 1.943 . S
O247 C246 1.249 . S
O248 Zn238 2.067 . S
O248 C246 1.270 . S
C249 O242 1.262 . S
C249 O250 1.232 . S
O250 C249 1.232 . S
C251 O243 1.260 . S
C251 O244 1.257 . S
Zn252 O255 2.031 . S
Zn252 O257 2.049 . S
Zn252 O262 2.067 . S
Zn253 O254 1.962 . S
Zn253 O256 1.986 . S
Zn253 O258 1.996 . S
Zn253 O261 1.943 . S
O254 Zn253 1.962 . S
O254 C259 1.254 . S
O255 Zn252 2.031 . S
O255 C259 1.269 . S
O256 Zn253 1.986 . S
O256 C263 1.262 . S
O257 Zn252 2.049 . S
O257 C265 1.260 . S
O258 Zn253 1.996 . S
O258 C265 1.257 . S
C259 O254 1.254 . S
C259 O255 1.269 . S
C260 O261 1.249 . S
C260 O262 1.270 . S
O261 Zn253 1.943 . S
O261 C260 1.249 . S
O262 Zn252 2.067 . S
O262 C260 1.270 . S
C263 O256 1.262 . S
C263 O264 1.232 . S
O264 C263 1.232 . S
C265 O257 1.260 . S
C265 O258 1.257 . S
Zn266 O269 2.031 . S
Zn266 O271 2.049 . S
Zn266 O276 2.067 . S
Zn267 O268 1.962 . S
Zn267 O270 1.986 . S
Zn267 O272 1.996 . S
Zn267 O275 1.943 . S
O268 Zn267 1.962 . S
O268 C273 1.254 . S
O269 Zn266 2.031 . S
O269 C273 1.269 . S
O270 Zn267 1.986 . S
O270 C277 1.262 . S
O271 Zn266 2.049 . S
O271 C279 1.260 . S
O272 Zn267 1.996 . S
O272 C279 1.257 . S
C273 O268 1.254 . S
C273 O269 1.269 . S
C274 O275 1.249 . S
C274 O276 1.270 . S
O275 Zn267 1.943 . S
O275 C274 1.249 . S
O276 Zn266 2.067 . S
O276 C274 1.270 . S
C277 O270 1.262 . S
C277 O278 1.232 . S
O278 C277 1.232 . S
C279 O271 1.260 . S
C279 O272 1.257 . S
Zn280 O283 2.031 . S
Zn280 O285 2.049 . S
Zn280 O290 2.067 . S
Zn281 O282 1.962 . S
Zn281 O284 1.986 . S
Zn281 O286 1.996 . S
Zn281 O289 1.943 . S
O282 Zn281 1.962 . S
O282 C287 1.254 . S
O283 Zn280 2.031 . S
O283 C287 1.269 . S
O284 Zn281 1.986 . S
O284 C291 1.262 . S
O285 Zn280 2.049 . S
O285 C293 1.260 . S
O286 Zn281 1.996 . S
O286 C293 1.257 . S
C287 O282 1.254 . S
C287 O283 1.269 . S
C288 O289 1.249 . S
C288 O290 1.270 . S
O289 Zn281 1.943 . S
O289 C288 1.249 . S
O290 Zn280 2.067 . S
O290 C288 1.270 . S
C291 O284 1.262 . S
C291 O292 1.232 . S
O292 C291 1.232 . S
C293 O285 1.260 . S
C293 O286 1.257 . S
Zn294 O297 2.031 . S
Zn294 O299 2.049 . S
Zn294 O304 2.067 . S
Zn295 O296 1.962 . S
Zn295 O298 1.986 . S
Zn295 O300 1.996 . S
Zn295 O303 1.943 . S
O296 Zn295 1.962 . S
O296 C301 1.254 . S
O297 Zn294 2.031 . S
O297 C301 1.269 . S
O298 Zn295 1.986 . S
O298 C305 1.262 . S
O299 Zn294 2.049 . S
O299 C307 1.260 . S
O300 Zn295 1.996 . S
O300 C307 1.257 . S
C301 O296 1.254 . S
C301 O297 1.269 . S
C302 O303 1.249 . S
C302 O304 1.270 . S
O303 Zn295 1.943 . S
O303 C302 1.249 . S
O304 Zn294 2.067 . S
O304 C302 1.270 . S
C305 O298 1.262 . S
C305 O306 1.232 . S
O306 C305 1.232 . S
C307 O299 1.260 . S
C307 O300 1.257 . S
Zn308 O311 2.031 . S
Zn308 O313 2.049 . S
Zn308 O318 2.067 . S
Zn309 O310 1.962 . S
Zn309 O312 1.986 . S
Zn309 O314 1.996 . S
Zn309 O317 1.943 . S
O310 Zn309 1.962 . S
O310 C315 1.254 . S
O311 Zn308 2.031 . S
O311 C315 1.269 . S
O312 Zn309 1.986 . S
O312 C319 1.262 . S
O313 Zn308 2.049 . S
O313 C321 1.260 . S
O314 Zn309 1.996 . S
O314 C321 1.257 . S
C315 O310 1.254 . S
C315 O311 1.269 . S
C316 O317 1.249 . S
C316 O318 1.270 . S
O317 Zn309 1.943 . S
O317 C316 1.249 . S
O318 Zn308 2.067 . S
O318 C316 1.270 . S
C319 O312 1.262 . S
C319 O320 1.232 . S
O320 C319 1.232 . S
C321 O313 1.260 . S
C321 O314 1.257 . S
Zn322 O325 2.031 . S
Zn322 O327 2.049 . S
Zn322 O332 2.067 . S
Zn323 O324 1.962 . S
Zn323 O326 1.986 . S
Zn323 O328 1.996 . S
Zn323 O331 1.943 . S
O324 Zn323 1.962 . S
O324 C329 1.254 . S
O325 Zn322 2.031 . S
O325 C329 1.269 . S
O326 Zn323 1.986 . S
O326 C333 1.262 . S
O327 Zn322 2.049 . S
O327 C335 1.260 . S
O328 Zn323 1.996 . S
O328 C335 1.257 . S
C329 O324 1.254 . S
C329 O325 1.269 . S
C330 O331 1.249 . S
C330 O332 1.270 . S
O331 Zn323 1.943 . S
O331 C330 1.249 . S
O332 Zn322 2.067 . S
O332 C330 1.270 . S
C333 O326 1.262 . S
C333 O334 1.232 . S
O334 C333 1.232 . S
C335 O327 1.260 . S
C335 O328 1.257 . S
Zn336 O339 2.031 . S
Zn336 O341 2.049 . S
Zn336 O346 2.067 . S
Zn337 O338 1.962 . S
Zn337 O340 1.986 . S
Zn337 O342 1.996 . S
Zn337 O345 1.943 . S
O338 Zn337 1.962 . S
O338 C343 1.254 . S
O339 Zn336 2.031 . S
O339 C343 1.269 . S
O340 Zn337 1.986 . S
O340 C347 1.262 . S
O341 Zn336 2.049 . S
O341 C349 1.260 . S
O342 Zn337 1.996 . S
O342 C349 1.257 . S
C343 O338 1.254 . S
C343 O339 1.269 . S
C344 O345 1.249 . S
C344 O346 1.270 . S
O345 Zn337 1.943 . S
O345 C344 1.249 . S
O346 Zn336 2.067 . S
O346 C344 1.270 . S
C347 O340 1.262 . S
C347 O348 1.232 . S
O348 C347 1.232 . S
C349 O341 1.260 . S
C349 O342 1.257 . S
Zn350 O353 2.031 . S
Zn350 O355 2.049 . S
Zn350 O360 2.067 . S
Zn351 O352 1.962 . S
Zn351 O354 1.986 . S
Zn351 O356 1.996 . S
Zn351 O359 1.943 . S
O352 Zn351 1.962 . S
O352 C357 1.254 . S
O353 Zn350 2.031 . S
O353 C357 1.269 . S
O354 Zn351 1.986 . S
O354 C361 1.262 . S
O355 Zn350 2.049 . S
O355 C363 1.260 . S
O356 Zn351 1.996 . S
O356 C363 1.257 . S
C357 O352 1.254 . S
C357 O353 1.269 . S
C358 O359 1.249 . S
C358 O360 1.270 . S
O359 Zn351 1.943 . S
O359 C358 1.249 . S
O360 Zn350 2.067 . S
O360 C358 1.270 . S
C361 O354 1.262 . S
C361 O362 1.232 . S
O362 C361 1.232 . S
C363 O355 1.260 . S
C363 O356 1.257 . S
Zn364 O367 2.031 . S
Zn364 O369 2.049 . S
Zn364 O374 2.067 . S
Zn365 O366 1.962 . S
Zn365 O368 1.986 . S
Zn365 O370 1.996 . S
Zn365 O373 1.943 . S
O366 Zn365 1.962 . S
O366 C371 1.254 . S
O367 Zn364 2.031 . S
O367 C371 1.269 . S
O368 Zn365 1.986 . S
O368 C375 1.262 . S
O369 Zn364 2.049 . S
O369 C377 1.260 . S
O370 Zn365 1.996 . S
O370 C377 1.257 . S
C371 O366 1.254 . S
C371 O367 1.269 . S
C372 O373 1.249 . S
C372 O374 1.270 . S
O373 Zn365 1.943 . S
O373 C372 1.249 . S
O374 Zn364 2.067 . S
O374 C372 1.270 . S
C375 O368 1.262 . S
C375 O376 1.232 . S
O376 C375 1.232 . S
C377 O369 1.260 . S
C377 O370 1.257 . S
Zn378 O381 2.031 . S
Zn378 O383 2.049 . S
Zn378 O388 2.067 . S
Zn379 O380 1.962 . S
Zn379 O382 1.986 . S
Zn379 O384 1.996 . S
Zn379 O387 1.943 . S
O380 Zn379 1.962 . S
O380 C385 1.254 . S
O381 Zn378 2.031 . S
O381 C385 1.269 . S
O382 Zn379 1.986 . S
O382 C389 1.262 . S
O383 Zn378 2.049 . S
O383 C391 1.260 . S
O384 Zn379 1.996 . S
O384 C391 1.257 . S
C385 O380 1.254 . S
C385 O381 1.269 . S
C386 O387 1.249 . S
C386 O388 1.270 . S
O387 Zn379 1.943 . S
O387 C386 1.249 . S
O388 Zn378 2.067 . S
O388 C386 1.270 . S
C389 O382 1.262 . S
C389 O390 1.232 . S
O390 C389 1.232 . S
C391 O383 1.260 . S
C391 O384 1.257 . S
Zn392 O395 2.031 . S
Zn392 O397 2.049 . S
Zn392 O402 2.067 . S
Zn393 O394 1.962 . S
Zn393 O396 1.986 . S
Zn393 O398 1.996 . S
Zn393 O401 1.943 . S
O394 Zn393 1.962 . S
O394 C399 1.254 . S
O395 Zn392 2.031 . S
O395 C399 1.269 . S
O396 Zn393 1.986 . S
O396 C403 1.262 . S
O397 Zn392 2.049 . S
O397 C405 1.260 . S
O398 Zn393 1.996 . S
O398 C405 1.257 . S
C399 O394 1.254 . S
C399 O395 1.269 . S
C400 O401 1.249 . S
C400 O402 1.270 . S
O401 Zn393 1.943 . S
O401 C400 1.249 . S
O402 Zn392 2.067 . S
O402 C400 1.270 . S
C403 O396 1.262 . S
C403 O404 1.232 . S
O404 C403 1.232 . S
C405 O397 1.260 . S
C405 O398 1.257 . S
Zn406 O409 2.031 . S
Zn406 O411 2.049 . S
Zn406 O416 2.067 . S
Zn407 O408 1.962 . S
Zn407 O410 1.986 . S
Zn407 O412 1.996 . S
Zn407 O415 1.943 . S
O408 Zn407 1.962 . S
O408 C413 1.254 . S
O409 Zn406 2.031 . S
O409 C413 1.269 . S
O410 Zn407 1.986 . S
O410 C417 1.262 . S
O411 Zn406 2.049 . S
O411 C419 1.260 . S
O412 Zn407 1.996 . S
O412 C419 1.257 . S
C413 O408 1.254 . S
C413 O409 1.269 . S
C414 O415 1.249 . S
C414 O416 1.270 . S
O415 Zn407 1.943 . S
O415 C414 1.249 . S
O416 Zn406 2.067 . S
O416 C414 1.270 . S
C417 O410 1.262 . S
C417 O418 1.232 . S
O418 C417 1.232 . S
C419 O411 1.260 . S
C419 O412 1.257 . S
Zn420 O423 2.031 . S
Zn420 O425 2.049 . S
Zn420 O430 2.067 . S
Zn421 O422 1.962 . S
Zn421 O424 1.986 . S
Zn421 O426 1.996 . S
Zn421 O429 1.943 . S
O422 Zn421 1.962 . S
O422 C427 1.254 . S
O423 Zn420 2.031 . S
O423 C427 1.269 . S
O424 Zn421 1.986 . S
O424 C431 1.262 . S
O425 Zn420 2.049 . S
O425 C433 1.260 . S
O426 Zn421 1.996 . S
O426 C433 1.257 . S
C427 O422 1.254 . S
C427 O423 1.269 . S
C428 O429 1.249 . S
C428 O430 1.270 . S
O429 Zn421 1.943 . S
O429 C428 1.249 . S
O430 Zn420 2.067 . S
O430 C428 1.270 . S
C431 O424 1.262 . S
C431 O432 1.232 . S
O432 C431 1.232 . S
C433 O425 1.260 . S
C433 O426 1.257 . S
Zn434 O437 2.031 . S
Zn434 O439 2.049 . S
Zn434 O444 2.067 . S
Zn435 O436 1.962 . S
Zn435 O438 1.986 . S
Zn435 O440 1.996 . S
Zn435 O443 1.943 . S
O436 Zn435 1.962 . S
O436 C441 1.254 . S
O437 Zn434 2.031 . S
O437 C441 1.269 . S
O438 Zn435 1.986 . S
O438 C445 1.262 . S
O439 Zn434 2.049 . S
O439 C447 1.260 . S
O440 Zn435 1.996 . S
O440 C447 1.257 . S
C441 O436 1.254 . S
C441 O437 1.269 . S
C442 O443 1.249 . S
C442 O444 1.270 . S
O443 Zn435 1.943 . S
O443 C442 1.249 . S
O444 Zn434 2.067 . S
O444 C442 1.270 . S
C445 O438 1.262 . S
C445 O446 1.232 . S
O446 C445 1.232 . S
C447 O439 1.260 . S
C447 O440 1.257 . S
H448 C456 0.929 . S
H449 C458 0.930 . S
H450 C460 0.930 . S
H451 C463 0.929 . S
H452 C466 0.930 . S
H453 C468 0.960 . S
H454 C468 0.960 . S
H455 C468 0.960 . S
C456 H448 0.929 . S
C456 C457 1.377 . S
C456 C458 1.384 . S
C457 C456 1.377 . S
C457 C463 1.390 . S
C458 H449 0.930 . S
C458 C456 1.384 . S
C458 C459 1.372 . S
C459 C458 1.372 . S
C459 C460 1.400 . S
C459 C464 1.490 . S
C460 H450 0.930 . S
C460 C459 1.400 . S
C460 C463 1.386 . S
H461 C477 0.930 . S
H462 C478 0.931 . S
C463 H451 0.929 . S
C463 C457 1.390 . S
C463 C460 1.386 . S
C464 C459 1.490 . S
C464 C466 1.395 1_556 S
C464 C467 1.403 . S
H465 C471 0.930 . S
C466 H452 0.930 . S
C466 C464 1.395 1_554 S
C466 C469 1.403 . S
C467 C464 1.403 . S
C467 C468 1.524 . S
C467 C471 1.400 . S
C468 H453 0.960 . S
C468 H454 0.960 . S
C468 H455 0.960 . S
C468 C467 1.524 . S
C469 C466 1.403 . S
C469 C470 1.392 . S
C469 C473 1.495 . S
C470 C469 1.392 . S
C470 C471 1.385 1_554 S
C470 C472 1.478 . S
C471 H465 0.930 . S
C471 C467 1.400 . S
C471 C470 1.385 1_556 S
C472 C470 1.478 . S
C472 C474 1.381 . S
C472 C478 1.383 . S
C473 C469 1.495 . S
C473 H479 0.959 . S
C473 H480 0.961 . S
C473 H481 0.960 . S
C474 C472 1.381 . S
C474 C475 1.394 . S
C474 H482 0.930 . S
C475 C474 1.394 . S
C475 C476 1.383 . S
C475 H483 0.929 . S
C476 C475 1.383 . S
C476 C477 1.377 . S
C477 H461 0.930 . S
C477 C476 1.377 . S
C477 C478 1.379 . S
C478 H462 0.931 . S
C478 C472 1.383 . S
C478 C477 1.379 . S
H479 C473 0.959 . S
H480 C473 0.961 . S
H481 C473 0.960 . S
H482 C474 0.930 . S
H483 C475 0.929 . S
H484 C492 0.929 . S
H485 C494 0.930 . S
H486 C496 0.930 . S
H487 C499 0.929 . S
H488 C502 0.930 . S
H489 C504 0.960 . S
H490 C504 0.960 . S
H491 C504 0.960 . S
C492 H484 0.929 . S
C492 C493 1.377 . S
C492 C494 1.384 . S
C493 C492 1.377 . S
C493 C499 1.390 . S
C494 H485 0.930 . S
C494 C492 1.384 . S
C494 C495 1.372 . S
C495 C494 1.372 . S
C495 C496 1.400 . S
C495 C500 1.490 . S
C496 H486 0.930 . S
C496 C495 1.400 . S
C496 C499 1.386 . S
H497 C513 0.930 . S
H498 C514 0.931 . S
C499 H487 0.929 . S
C499 C493 1.390 . S
C499 C496 1.386 . S
C500 C495 1.490 . S
C500 C502 1.395 . S
C500 C503 1.403 . S
H501 C507 0.930 . S
C502 H488 0.930 . S
C502 C500 1.395 . S
C502 C505 1.403 1_565 S
C503 C500 1.403 . S
C503 C504 1.524 . S
C503 C507 1.400 1_565 S
C504 H489 0.960 . S
C504 H490 0.960 . S
C504 H491 0.960 . S
C504 C503 1.524 . S
C505 C502 1.403 1_545 S
C505 C506 1.392 . S
C505 C509 1.495 . S
C506 C505 1.392 . S
C506 C507 1.385 . S
C506 C508 1.478 . S
C507 H501 0.930 . S
C507 C503 1.400 1_545 S
C507 C506 1.385 . S
C508 C506 1.478 . S
C508 C510 1.381 . S
C508 C514 1.383 . S
C509 C505 1.495 . S
C509 H515 0.959 . S
C509 H516 0.961 . S
C509 H517 0.960 . S
C510 C508 1.381 . S
C510 C511 1.394 . S
C510 H518 0.930 . S
C511 C510 1.394 . S
C511 C512 1.383 . S
C511 H519 0.929 . S
C512 C511 1.383 . S
C512 C513 1.377 . S
C513 H497 0.930 . S
C513 C512 1.377 . S
C513 C514 1.379 . S
C514 H498 0.931 . S
C514 C508 1.383 . S
C514 C513 1.379 . S
H515 C509 0.959 . S
H516 C509 0.961 . S
H517 C509 0.960 . S
H518 C510 0.930 . S
H519 C511 0.929 . S
H520 C528 0.929 . S
H521 C530 0.930 . S
H522 C532 0.930 . S
H523 C535 0.929 . S
H524 C538 0.930 . S
H525 C540 0.960 . S
H526 C540 0.960 . S
H527 C540 0.960 . S
C528 H520 0.929 . S
C528 C529 1.377 . S
C528 C530 1.384 . S
C529 C528 1.377 . S
C529 C535 1.390 . S
C530 H521 0.930 . S
C530 C528 1.384 . S
C530 C531 1.372 . S
C531 C530 1.372 . S
C531 C532 1.400 . S
C531 C536 1.490 . S
C532 H522 0.930 . S
C532 C531 1.400 . S
C532 C535 1.386 . S
H533 C549 0.930 . S
H534 C550 0.931 . S
C535 H523 0.929 . S
C535 C529 1.390 . S
C535 C532 1.386 . S
C536 C531 1.490 . S
C536 C538 1.395 . S
C536 C539 1.403 . S
H537 C543 0.930 . S
C538 H524 0.930 . S
C538 C536 1.395 . S
C538 C541 1.403 . S
C539 C536 1.403 . S
C539 C540 1.524 . S
C539 C543 1.400 . S
C540 H525 0.960 . S
C540 H526 0.960 . S
C540 H527 0.960 . S
C540 C539 1.524 . S
C541 C538 1.403 . S
C541 C542 1.392 . S
C541 C545 1.495 . S
C542 C541 1.392 . S
C542 C543 1.385 . S
C542 C544 1.478 . S
C543 H537 0.930 . S
C543 C539 1.400 . S
C543 C542 1.385 . S
C544 C542 1.478 . S
C544 C546 1.381 . S
C544 C550 1.383 . S
C545 C541 1.495 . S
C545 H551 0.959 . S
C545 H552 0.961 . S
C545 H553 0.960 . S
C546 C544 1.381 . S
C546 C547 1.394 . S
C546 H554 0.930 . S
C547 C546 1.394 . S
C547 C548 1.383 . S
C547 H555 0.929 . S
C548 C547 1.383 . S
C548 C549 1.377 . S
C549 H533 0.930 . S
C549 C548 1.377 . S
C549 C550 1.379 . S
C550 H534 0.931 . S
C550 C544 1.383 . S
C550 C549 1.379 . S
H551 C545 0.959 . S
H552 C545 0.961 . S
H553 C545 0.960 . S
H554 C546 0.930 . S
H555 C547 0.929 . S
H556 C564 0.929 . S
H557 C566 0.930 . S
H558 C568 0.930 . S
H559 C571 0.929 . S
H560 C574 0.930 . S
H561 C576 0.960 1_565 S
H562 C576 0.960 . S
H563 C576 0.960 . S
C564 H556 0.929 . S
C564 C565 1.377 . S
C564 C566 1.384 . S
C565 C564 1.377 . S
C565 C571 1.390 . S
C566 H557 0.930 . S
C566 C564 1.384 . S
C566 C567 1.372 . S
C567 C566 1.372 . S
C567 C568 1.400 . S
C567 C572 1.490 . S
C568 H558 0.930 . S
C568 C567 1.400 . S
C568 C571 1.386 . S
H569 C585 0.930 . S
H570 C586 0.931 . S
C571 H559 0.929 . S
C571 C565 1.390 . S
C571 C568 1.386 . S
C572 C567 1.490 . S
C572 C574 1.395 . S
C572 C575 1.403 . S
H573 C579 0.930 . S
C574 H560 0.930 . S
C574 C572 1.395 . S
C574 C577 1.403 1_545 S
C575 C572 1.403 . S
C575 C576 1.524 . S
C575 C579 1.400 1_545 S
C576 H561 0.960 1_545 S
C576 H562 0.960 . S
C576 H563 0.960 . S
C576 C575 1.524 . S
C577 C574 1.403 1_565 S
C577 C578 1.392 . S
C577 C581 1.495 . S
C578 C577 1.392 . S
C578 C579 1.385 . S
C578 C580 1.478 . S
C579 H573 0.930 . S
C579 C575 1.400 1_565 S
C579 C578 1.385 . S
C580 C578 1.478 . S
C580 C582 1.381 . S
C580 C586 1.383 . S
C581 C577 1.495 . S
C581 H587 0.959 1_565 S
C581 H588 0.961 . S
C581 H589 0.960 . S
C582 C580 1.381 . S
C582 C583 1.394 . S
C582 H590 0.930 . S
C583 C582 1.394 . S
C583 C584 1.383 . S
C583 H591 0.929 . S
C584 C583 1.383 . S
C584 C585 1.377 . S
C585 H569 0.930 . S
C585 C584 1.377 . S
C585 C586 1.379 . S
C586 H570 0.931 . S
C586 C580 1.383 . S
C586 C585 1.379 . S
H587 C581 0.959 1_545 S
H588 C581 0.961 . S
H589 C581 0.960 . S
H590 C582 0.930 . S
H591 C583 0.929 . S
H592 C600 0.929 . S
H593 C602 0.930 . S
H594 C604 0.930 . S
H595 C607 0.929 . S
H596 C610 0.930 . S
H597 C612 0.960 . S
H598 C612 0.960 . S
H599 C612 0.960 . S
C600 H592 0.929 . S
C600 C601 1.377 . S
C600 C602 1.384 . S
C601 C600 1.377 . S
C601 C607 1.390 . S
C602 H593 0.930 . S
C602 C600 1.384 . S
C602 C603 1.372 . S
C603 C602 1.372 . S
C603 C604 1.400 . S
C603 C608 1.490 . S
C604 H594 0.930 . S
C604 C603 1.400 . S
C604 C607 1.386 . S
H605 C621 0.930 . S
H606 C622 0.931 . S
C607 H595 0.929 . S
C607 C601 1.390 . S
C607 C604 1.386 . S
C608 C603 1.490 . S
C608 C610 1.395 1_554 S
C608 C611 1.403 . S
H609 C615 0.930 . S
C610 H596 0.930 . S
C610 C608 1.395 1_556 S
C610 C613 1.403 . S
C611 C608 1.403 . S
C611 C612 1.524 . S
C611 C615 1.400 . S
C612 H597 0.960 . S
C612 H598 0.960 . S
C612 H599 0.960 . S
C612 C611 1.524 . S
C613 C610 1.403 . S
C613 C614 1.392 . S
C613 C617 1.495 . S
C614 C613 1.392 . S
C614 C615 1.385 1_556 S
C614 C616 1.478 . S
C615 H609 0.930 . S
C615 C611 1.400 . S
C615 C614 1.385 1_554 S
C616 C614 1.478 . S
C616 C618 1.381 . S
C616 C622 1.383 . S
C617 C613 1.495 . S
C617 H623 0.959 . S
C617 H624 0.961 . S
C617 H625 0.960 . S
C618 C616 1.381 . S
C618 C619 1.394 . S
C618 H626 0.930 . S
C619 C618 1.394 . S
C619 C620 1.383 . S
C619 H627 0.929 . S
C620 C619 1.383 . S
C620 C621 1.377 . S
C621 H605 0.930 . S
C621 C620 1.377 . S
C621 C622 1.379 . S
C622 H606 0.931 . S
C622 C616 1.383 . S
C622 C621 1.379 . S
H623 C617 0.959 . S
H624 C617 0.961 . S
H625 C617 0.960 . S
H626 C618 0.930 . S
H627 C619 0.929 . S
H628 C636 0.929 . S
H629 C638 0.930 . S
H630 C640 0.930 . S
H631 C643 0.929 . S
H632 C646 0.930 . S
H633 C648 0.960 . S
H634 C648 0.960 . S
H635 C648 0.960 . S
C636 H628 0.929 . S
C636 C637 1.377 . S
C636 C638 1.384 . S
C637 C636 1.377 . S
C637 C643 1.390 . S
C638 H629 0.930 . S
C638 C636 1.384 . S
C638 C639 1.372 . S
C639 C638 1.372 . S
C639 C640 1.400 . S
C639 C644 1.490 . S
C640 H630 0.930 . S
C640 C639 1.400 . S
C640 C643 1.386 . S
H641 C657 0.930 . S
H642 C658 0.931 . S
C643 H631 0.929 . S
C643 C637 1.390 . S
C643 C640 1.386 . S
C644 C639 1.490 . S
C644 C646 1.395 . S
C644 C647 1.403 . S
H645 C651 0.930 . S
C646 H632 0.930 . S
C646 C644 1.395 . S
C646 C649 1.403 1_565 S
C647 C644 1.403 . S
C647 C648 1.524 . S
C647 C651 1.400 1_565 S
C648 H633 0.960 . S
C648 H634 0.960 . S
C648 H635 0.960 . S
C648 C647 1.524 . S
C649 C646 1.403 1_545 S
C649 C650 1.392 . S
C649 C653 1.495 . S
C650 C649 1.392 . S
C650 C651 1.385 . S
C650 C652 1.478 . S
C651 H645 0.930 . S
C651 C647 1.400 1_545 S
C651 C650 1.385 . S
C652 C650 1.478 . S
C652 C654 1.381 . S
C652 C658 1.383 . S
C653 C649 1.495 . S
C653 H659 0.959 . S
C653 H660 0.961 . S
C653 H661 0.960 . S
C654 C652 1.381 . S
C654 C655 1.394 . S
C654 H662 0.930 . S
C655 C654 1.394 . S
C655 C656 1.383 . S
C655 H663 0.929 . S
C656 C655 1.383 . S
C656 C657 1.377 . S
C657 H641 0.930 . S
C657 C656 1.377 . S
C657 C658 1.379 . S
C658 H642 0.931 . S
C658 C652 1.383 . S
C658 C657 1.379 . S
H659 C653 0.959 . S
H660 C653 0.961 . S
H661 C653 0.960 . S
H662 C654 0.930 . S
H663 C655 0.929 . S
H664 C672 0.929 . S
H665 C674 0.930 . S
H666 C676 0.930 . S
H667 C679 0.929 . S
H668 C682 0.930 . S
H669 C684 0.960 . S
H670 C684 0.960 . S
H671 C684 0.960 . S
C672 H664 0.929 . S
C672 C673 1.377 . S
C672 C674 1.384 . S
C673 C672 1.377 . S
C673 C679 1.390 . S
C674 H665 0.930 . S
C674 C672 1.384 . S
C674 C675 1.372 . S
C675 C674 1.372 . S
C675 C676 1.400 . S
C675 C680 1.490 . S
C676 H666 0.930 . S
C676 C675 1.400 . S
C676 C679 1.386 . S
H677 C693 0.930 . S
H678 C694 0.931 . S
C679 H667 0.929 . S
C679 C673 1.390 . S
C679 C676 1.386 . S
C680 C675 1.490 . S
C680 C682 1.395 . S
C680 C683 1.403 . S
H681 C687 0.930 . S
C682 H668 0.930 . S
C682 C680 1.395 . S
C682 C685 1.403 . S
C683 C680 1.403 . S
C683 C684 1.524 . S
C683 C687 1.400 . S
C684 H669 0.960 . S
C684 H670 0.960 . S
C684 H671 0.960 . S
C684 C683 1.524 . S
C685 C682 1.403 . S
C685 C686 1.392 . S
C685 C689 1.495 . S
C686 C685 1.392 . S
C686 C687 1.385 . S
C686 C688 1.478 . S
C687 H681 0.930 . S
C687 C683 1.400 . S
C687 C686 1.385 . S
C688 C686 1.478 . S
C688 C690 1.381 . S
C688 C694 1.383 . S
C689 C685 1.495 . S
C689 H695 0.959 . S
C689 H696 0.961 . S
C689 H697 0.960 . S
C690 C688 1.381 . S
C690 C691 1.394 . S
C690 H698 0.930 . S
C691 C690 1.394 . S
C691 C692 1.383 . S
C691 H699 0.929 . S
C692 C691 1.383 . S
C692 C693 1.377 . S
C693 H677 0.930 . S
C693 C692 1.377 . S
C693 C694 1.379 . S
C694 H678 0.931 . S
C694 C688 1.383 . S
C694 C693 1.379 . S
H695 C689 0.959 . S
H696 C689 0.961 . S
H697 C689 0.960 . S
H698 C690 0.930 . S
H699 C691 0.929 . S
H700 C708 0.929 . S
H701 C710 0.930 . S
H702 C712 0.930 . S
H703 C715 0.929 . S
H704 C718 0.930 . S
H705 C720 0.960 . S
H706 C720 0.960 . S
H707 C720 0.960 . S
C708 H700 0.929 . S
C708 C709 1.377 . S
C708 C710 1.384 . S
C709 C708 1.377 . S
C709 C715 1.390 . S
C710 H701 0.930 . S
C710 C708 1.384 . S
C710 C711 1.372 . S
C711 C710 1.372 . S
C711 C712 1.400 . S
C711 C716 1.490 . S
C712 H702 0.930 . S
C712 C711 1.400 . S
C712 C715 1.386 . S
H713 C729 0.930 . S
H714 C730 0.931 . S
C715 H703 0.929 . S
C715 C709 1.390 . S
C715 C712 1.386 . S
C716 C711 1.490 . S
C716 C718 1.395 . S
C716 C719 1.403 . S
H717 C723 0.930 . S
C718 H704 0.930 . S
C718 C716 1.395 . S
C718 C721 1.403 1_565 S
C719 C716 1.403 . S
C719 C720 1.524 . S
C719 C723 1.400 1_565 S
C720 H705 0.960 . S
C720 H706 0.960 . S
C720 H707 0.960 . S
C720 C719 1.524 . S
C721 C718 1.403 1_545 S
C721 C722 1.392 . S
C721 C725 1.495 . S
C722 C721 1.392 . S
C722 C723 1.385 . S
C722 C724 1.478 . S
C723 H717 0.930 . S
C723 C719 1.400 1_545 S
C723 C722 1.385 . S
C724 C722 1.478 . S
C724 C726 1.381 . S
C724 C730 1.383 . S
C725 C721 1.495 . S
C725 H731 0.959 . S
C725 H732 0.961 . S
C725 H733 0.960 . S
C726 C724 1.381 . S
C726 C727 1.394 . S
C726 H734 0.930 . S
C727 C726 1.394 . S
C727 C728 1.383 . S
C727 H735 0.929 . S
C728 C727 1.383 . S
C728 C729 1.377 . S
C729 H713 0.930 . S
C729 C728 1.377 . S
C729 C730 1.379 . S
C730 H714 0.931 . S
C730 C724 1.383 . S
C730 C729 1.379 . S
H731 C725 0.959 . S
H732 C725 0.961 . S
H733 C725 0.960 . S
H734 C726 0.930 . S
H735 C727 0.929 . S
H736 C744 0.929 . S
H737 C746 0.930 . S
H738 C748 0.930 . S
H739 C751 0.929 . S
H740 C754 0.930 . S
H741 C756 0.960 . S
H742 C756 0.960 . S
H743 C756 0.960 . S
C744 H736 0.929 . S
C744 C745 1.377 . S
C744 C746 1.384 . S
C745 C744 1.377 . S
C745 C751 1.390 . S
C746 H737 0.930 . S
C746 C744 1.384 . S
C746 C747 1.372 . S
C747 C746 1.372 . S
C747 C748 1.400 . S
C747 C752 1.490 . S
C748 H738 0.930 . S
C748 C747 1.400 . S
C748 C751 1.386 . S
H749 C765 0.930 . S
H750 C766 0.931 . S
C751 H739 0.929 . S
C751 C745 1.390 . S
C751 C748 1.386 . S
C752 C747 1.490 . S
C752 C754 1.395 . S
C752 C755 1.403 . S
H753 C759 0.930 . S
C754 H740 0.930 . S
C754 C752 1.395 . S
C754 C757 1.403 . S
C755 C752 1.403 . S
C755 C756 1.524 . S
C755 C759 1.400 . S
C756 H741 0.960 . S
C756 H742 0.960 . S
C756 H743 0.960 . S
C756 C755 1.524 . S
C757 C754 1.403 . S
C757 C758 1.392 . S
C757 C761 1.495 . S
C758 C757 1.392 . S
C758 C759 1.385 . S
C758 C760 1.478 . S
C759 H753 0.930 . S
C759 C755 1.400 . S
C759 C758 1.385 . S
C760 C758 1.478 . S
C760 C762 1.381 . S
C760 C766 1.383 . S
C761 C757 1.495 . S
C761 H767 0.959 . S
C761 H768 0.961 . S
C761 H769 0.960 . S
C762 C760 1.381 . S
C762 C763 1.394 . S
C762 H770 0.930 . S
C763 C762 1.394 . S
C763 C764 1.383 . S
C763 H771 0.929 . S
C764 C763 1.383 . S
C764 C765 1.377 . S
C765 H749 0.930 . S
C765 C764 1.377 . S
C765 C766 1.379 . S
C766 H750 0.931 . S
C766 C760 1.383 . S
C766 C765 1.379 . S
H767 C761 0.959 . S
H768 C761 0.961 . S
H769 C761 0.960 . S
H770 C762 0.930 . S
H771 C763 0.929 . S
H772 C780 0.929 . S
H773 C782 0.930 . S
H774 C784 0.930 . S
H775 C787 0.929 . S
H776 C790 0.930 . S
H777 C792 0.960 . S
H778 C792 0.960 . S
H779 C792 0.960 . S
C780 H772 0.929 . S
C780 C781 1.377 . S
C780 C782 1.384 . S
C781 C780 1.377 . S
C781 C787 1.390 . S
C782 H773 0.930 . S
C782 C780 1.384 . S
C782 C783 1.372 . S
C783 C782 1.372 . S
C783 C784 1.400 . S
C783 C788 1.490 . S
C784 H774 0.930 . S
C784 C783 1.400 . S
C784 C787 1.386 . S
H785 C801 0.930 . S
H786 C802 0.931 . S
C787 H775 0.929 . S
C787 C781 1.390 . S
C787 C784 1.386 . S
C788 C783 1.490 . S
C788 C790 1.395 . S
C788 C791 1.403 . S
H789 C795 0.930 . S
C790 H776 0.930 . S
C790 C788 1.395 . S
C790 C793 1.403 . S
C791 C788 1.403 . S
C791 C792 1.524 . S
C791 C795 1.400 . S
C792 H777 0.960 . S
C792 H778 0.960 . S
C792 H779 0.960 . S
C792 C791 1.524 . S
C793 C790 1.403 . S
C793 C794 1.392 . S
C793 C797 1.495 . S
C794 C793 1.392 . S
C794 C795 1.385 . S
C794 C796 1.478 . S
C795 H789 0.930 . S
C795 C791 1.400 . S
C795 C794 1.385 . S
C796 C794 1.478 . S
C796 C798 1.381 . S
C796 C802 1.383 . S
C797 C793 1.495 . S
C797 H803 0.959 . S
C797 H804 0.961 . S
C797 H805 0.960 . S
C798 C796 1.381 . S
C798 C799 1.394 . S
C798 H806 0.930 . S
C799 C798 1.394 . S
C799 C800 1.383 . S
C799 H807 0.929 . S
C800 C799 1.383 . S
C800 C801 1.377 . S
C801 H785 0.930 . S
C801 C800 1.377 . S
C801 C802 1.379 . S
C802 H786 0.931 . S
C802 C796 1.383 . S
C802 C801 1.379 . S
H803 C797 0.959 . S
H804 C797 0.961 . S
H805 C797 0.960 . S
H806 C798 0.930 . S
H807 C799 0.929 . S
H808 C816 0.929 . S
H809 C818 0.930 . S
H810 C820 0.930 . S
H811 C823 0.929 . S
H812 C826 0.930 . S
H813 C828 0.960 . S
H814 C828 0.960 . S
H815 C828 0.960 . S
C816 H808 0.929 . S
C816 C817 1.377 . S
C816 C818 1.384 . S
C817 C816 1.377 . S
C817 C823 1.390 . S
C818 H809 0.930 . S
C818 C816 1.384 . S
C818 C819 1.372 . S
C819 C818 1.372 . S
C819 C820 1.400 . S
C819 C824 1.490 . S
C820 H810 0.930 . S
C820 C819 1.400 . S
C820 C823 1.386 . S
H821 C837 0.930 . S
H822 C838 0.931 . S
C823 H811 0.929 . S
C823 C817 1.390 . S
C823 C820 1.386 . S
C824 C819 1.490 . S
C824 C826 1.395 1_556 S
C824 C827 1.403 . S
H825 C831 0.930 . S
C826 H812 0.930 . S
C826 C824 1.395 1_554 S
C826 C829 1.403 . S
C827 C824 1.403 . S
C827 C828 1.524 . S
C827 C831 1.400 . S
C828 H813 0.960 . S
C828 H814 0.960 . S
C828 H815 0.960 . S
C828 C827 1.524 . S
C829 C826 1.403 . S
C829 C830 1.392 . S
C829 C833 1.495 . S
C830 C829 1.392 . S
C830 C831 1.385 1_554 S
C830 C832 1.478 . S
C831 H825 0.930 . S
C831 C827 1.400 . S
C831 C830 1.385 1_556 S
C832 C830 1.478 . S
C832 C834 1.381 . S
C832 C838 1.383 . S
C833 C829 1.495 . S
C833 H839 0.959 . S
C833 H840 0.961 . S
C833 H841 0.960 . S
C834 C832 1.381 . S
C834 C835 1.394 . S
C834 H842 0.930 . S
C835 C834 1.394 . S
C835 C836 1.383 . S
C835 H843 0.929 . S
C836 C835 1.383 . S
C836 C837 1.377 . S
C837 H821 0.930 . S
C837 C836 1.377 . S
C837 C838 1.379 . S
C838 H822 0.931 . S
C838 C832 1.383 . S
C838 C837 1.379 . S
H839 C833 0.959 . S
H840 C833 0.961 . S
H841 C833 0.960 . S
H842 C834 0.930 . S
H843 C835 0.929 . S
H844 C852 0.929 . S
H845 C854 0.930 . S
H846 C856 0.930 . S
H847 C859 0.929 . S
H848 C862 0.930 . S
H849 C864 0.960 . S
H850 C864 0.960 . S
H851 C864 0.960 . S
C852 H844 0.929 . S
C852 C853 1.377 . S
C852 C854 1.384 . S
C853 C852 1.377 . S
C853 C859 1.390 . S
C854 H845 0.930 . S
C854 C852 1.384 . S
C854 C855 1.372 . S
C855 C854 1.372 . S
C855 C856 1.400 . S
C855 C860 1.490 . S
C856 H846 0.930 . S
C856 C855 1.400 . S
C856 C859 1.386 . S
H857 C873 0.930 . S
H858 C874 0.931 . S
C859 H847 0.929 . S
C859 C853 1.390 . S
C859 C856 1.386 . S
C860 C855 1.490 . S
C860 C862 1.395 . S
C860 C863 1.403 . S
H861 C867 0.930 . S
C862 H848 0.930 . S
C862 C860 1.395 . S
C862 C865 1.403 . S
C863 C860 1.403 . S
C863 C864 1.524 . S
C863 C867 1.400 . S
C864 H849 0.960 . S
C864 H850 0.960 . S
C864 H851 0.960 . S
C864 C863 1.524 . S
C865 C862 1.403 . S
C865 C866 1.392 . S
C865 C869 1.495 . S
C866 C865 1.392 . S
C866 C867 1.385 . S
C866 C868 1.478 . S
C867 H861 0.930 . S
C867 C863 1.400 . S
C867 C866 1.385 . S
C868 C866 1.478 . S
C868 C870 1.381 . S
C868 C874 1.383 . S
C869 C865 1.495 . S
C869 H875 0.959 . S
C869 H876 0.961 . S
C869 H877 0.960 . S
C870 C868 1.381 . S
C870 C871 1.394 . S
C870 H878 0.930 . S
C871 C870 1.394 . S
C871 C872 1.383 . S
C871 H879 0.929 . S
C872 C871 1.383 . S
C872 C873 1.377 . S
C873 H857 0.930 . S
C873 C872 1.377 . S
C873 C874 1.379 . S
C874 H858 0.931 . S
C874 C868 1.383 . S
C874 C873 1.379 . S
H875 C869 0.959 . S
H876 C869 0.961 . S
H877 C869 0.960 . S
H878 C870 0.930 . S
H879 C871 0.929 . S
H880 C888 0.929 . S
H881 C890 0.930 . S
H882 C892 0.930 . S
H883 C895 0.929 . S
H884 C898 0.930 . S
H885 C900 0.960 . S
H886 C900 0.960 . S
H887 C900 0.960 . S
C888 H880 0.929 . S
C888 C889 1.377 . S
C888 C890 1.384 . S
C889 C888 1.377 . S
C889 C895 1.390 . S
C890 H881 0.930 . S
C890 C888 1.384 . S
C890 C891 1.372 . S
C891 C890 1.372 . S
C891 C892 1.400 . S
C891 C896 1.490 . S
C892 H882 0.930 . S
C892 C891 1.400 . S
C892 C895 1.386 . S
H893 C909 0.930 . S
H894 C910 0.931 . S
C895 H883 0.929 . S
C895 C889 1.390 . S
C895 C892 1.386 . S
C896 C891 1.490 . S
C896 C898 1.395 . S
C896 C899 1.403 . S
H897 C903 0.930 . S
C898 H884 0.930 . S
C898 C896 1.395 . S
C898 C901 1.403 . S
C899 C896 1.403 . S
C899 C900 1.524 . S
C899 C903 1.400 . S
C900 H885 0.960 . S
C900 H886 0.960 . S
C900 H887 0.960 . S
C900 C899 1.524 . S
C901 C898 1.403 . S
C901 C902 1.392 . S
C901 C905 1.495 . S
C902 C901 1.392 . S
C902 C903 1.385 . S
C902 C904 1.478 . S
C903 H897 0.930 . S
C903 C899 1.400 . S
C903 C902 1.385 . S
C904 C902 1.478 . S
C904 C906 1.381 . S
C904 C910 1.383 . S
C905 C901 1.495 . S
C905 H911 0.959 . S
C905 H912 0.961 . S
C905 H913 0.960 . S
C906 C904 1.381 . S
C906 C907 1.394 . S
C906 H914 0.930 . S
C907 C906 1.394 . S
C907 C908 1.383 . S
C907 H915 0.929 . S
C908 C907 1.383 . S
C908 C909 1.377 . S
C909 H893 0.930 . S
C909 C908 1.377 . S
C909 C910 1.379 . S
C910 H894 0.931 . S
C910 C904 1.383 . S
C910 C909 1.379 . S
H911 C905 0.959 . S
H912 C905 0.961 . S
H913 C905 0.960 . S
H914 C906 0.930 . S
H915 C907 0.929 . S
H916 C924 0.929 . S
H917 C926 0.930 . S
H918 C928 0.930 . S
H919 C931 0.929 . S
H920 C934 0.930 . S
H921 C936 0.960 . S
H922 C936 0.960 . S
H923 C936 0.960 . S
C924 H916 0.929 . S
C924 C925 1.377 . S
C924 C926 1.384 . S
C925 C924 1.377 . S
C925 C931 1.390 . S
C926 H917 0.930 . S
C926 C924 1.384 . S
C926 C927 1.372 . S
C927 C926 1.372 . S
C927 C928 1.400 . S
C927 C932 1.490 . S
C928 H918 0.930 . S
C928 C927 1.400 . S
C928 C931 1.386 . S
H929 C945 0.930 . S
H930 C946 0.931 . S
C931 H919 0.929 . S
C931 C925 1.390 . S
C931 C928 1.386 . S
C932 C927 1.490 . S
C932 C934 1.395 . S
C932 C935 1.403 . S
H933 C939 0.930 . S
C934 H920 0.930 . S
C934 C932 1.395 . S
C934 C937 1.403 . S
C935 C932 1.403 . S
C935 C936 1.524 . S
C935 C939 1.400 . S
C936 H921 0.960 . S
C936 H922 0.960 . S
C936 H923 0.960 . S
C936 C935 1.524 . S
C937 C934 1.403 . S
C937 C938 1.392 . S
C937 C941 1.495 . S
C938 C937 1.392 . S
C938 C939 1.385 . S
C938 C940 1.478 . S
C939 H933 0.930 . S
C939 C935 1.400 . S
C939 C938 1.385 . S
C940 C938 1.478 . S
C940 C942 1.381 . S
C940 C946 1.383 . S
C941 C937 1.495 . S
C941 H947 0.959 . S
C941 H948 0.961 . S
C941 H949 0.960 . S
C942 C940 1.381 . S
C942 C943 1.394 . S
C942 H950 0.930 . S
C943 C942 1.394 . S
C943 C944 1.383 . S
C943 H951 0.929 . S
C944 C943 1.383 . S
C944 C945 1.377 . S
C945 H929 0.930 . S
C945 C944 1.377 . S
C945 C946 1.379 . S
C946 H930 0.931 . S
C946 C940 1.383 . S
C946 C945 1.379 . S
H947 C941 0.959 . S
H948 C941 0.961 . S
H949 C941 0.960 . S
H950 C942 0.930 . S
H951 C943 0.929 . S
H952 C960 0.929 1_556 S
H953 C962 0.930 . S
H954 C964 0.930 . S
H955 C967 0.929 . S
H956 C970 0.930 . S
H957 C972 0.960 . S
H958 C972 0.960 . S
H959 C972 0.960 . S
C960 H952 0.929 1_554 S
C960 C961 1.377 . S
C960 C962 1.384 1_554 S
C961 C960 1.377 . S
C961 C967 1.390 . S
C962 H953 0.930 . S
C962 C960 1.384 1_556 S
C962 C963 1.372 1_556 S
C963 C962 1.372 1_554 S
C963 C964 1.400 . S
C963 C968 1.490 . S
C964 H954 0.930 . S
C964 C963 1.400 . S
C964 C967 1.386 . S
H965 C981 0.930 1_554 S
H966 C982 0.937 . S
C967 H955 0.929 . S
C967 C961 1.390 . S
C967 C964 1.386 . S
C968 C963 1.490 . S
C968 C970 1.395 1_554 S
C968 C971 1.403 . S
H969 C975 0.930 . S
C970 H956 0.930 . S
C970 C968 1.395 1_556 S
C970 C973 1.403 . S
C971 C968 1.403 . S
C971 C972 1.524 . S
C971 C975 1.400 1_554 S
C972 H957 0.960 . S
C972 H958 0.960 . S
C972 H959 0.960 . S
C972 C971 1.524 . S
C973 C970 1.403 . S
C973 C974 1.392 . S
C973 C977 1.495 . S
C974 C973 1.392 . S
C974 C975 1.385 . S
C974 C976 1.478 . S
C975 H969 0.930 . S
C975 C971 1.400 1_556 S
C975 C974 1.385 . S
C976 C974 1.478 . S
C976 C978 1.381 . S
C976 C982 1.379 1_556 S
C977 C973 1.495 . S
C977 H983 0.959 . S
C977 H984 0.961 . S
C977 H985 0.960 . S
C978 C976 1.381 . S
C978 C979 1.394 . S
C978 H986 0.930 . S
C979 C978 1.394 . S
C979 C980 1.383 . S
C979 H987 0.929 . S
C980 C979 1.383 . S
C980 C981 1.377 . S
C981 H965 0.930 1_556 S
C981 C980 1.377 . S
C981 C982 1.378 1_556 S
C982 H966 0.937 . S
C982 C976 1.379 1_554 S
C982 C981 1.378 1_554 S
H983 C977 0.959 . S
H984 C977 0.961 . S
H985 C977 0.960 . S
H986 C978 0.930 . S
H987 C979 0.929 . S
H988 C996 0.929 . S
H989 C998 0.930 . S
H990 C1000 0.930 . S
H991 C1003 0.929 . S
H992 C1006 0.930 . S
H993 C1008 0.960 . S
H994 C1008 0.960 . S
H995 C1008 0.960 . S
C996 H988 0.929 . S
C996 C997 1.377 . S
C996 C998 1.384 . S
C997 C996 1.377 . S
C997 C1003 1.390 . S
C998 H989 0.930 . S
C998 C996 1.384 . S
C998 C999 1.372 . S
C999 C998 1.372 . S
C999 C1000 1.400 . S
C999 C1004 1.490 . S
C1000 H990 0.930 . S
C1000 C999 1.400 . S
C1000 C1003 1.386 . S
H1001 C1017 0.930 . S
H1002 C1018 0.931 . S
C1003 H991 0.929 . S
C1003 C997 1.390 . S
C1003 C1000 1.386 . S
C1004 C999 1.490 . S
C1004 C1006 1.395 . S
C1004 C1007 1.403 . S
H1005 C1011 0.930 . S
C1006 H992 0.930 . S
C1006 C1004 1.395 . S
C1006 C1009 1.403 . S
C1007 C1004 1.403 . S
C1007 C1008 1.524 . S
C1007 C1011 1.400 . S
C1008 H993 0.960 . S
C1008 H994 0.960 . S
C1008 H995 0.960 . S
C1008 C1007 1.524 . S
C1009 C1006 1.403 . S
C1009 C1010 1.392 . S
C1009 C1013 1.495 . S
C1010 C1009 1.392 . S
C1010 C1011 1.385 . S
C1010 C1012 1.478 . S
C1011 H1005 0.930 . S
C1011 C1007 1.400 . S
C1011 C1010 1.385 . S
C1012 C1010 1.478 . S
C1012 C1014 1.381 . S
C1012 C1018 1.383 . S
C1013 C1009 1.495 . S
C1013 H1019 0.959 . S
C1013 H1020 0.961 . S
C1013 H1021 0.960 . S
C1014 C1012 1.381 . S
C1014 C1015 1.394 . S
C1014 H1022 0.930 . S
C1015 C1014 1.394 . S
C1015 C1016 1.383 . S
C1015 H1023 0.929 . S
C1016 C1015 1.383 . S
C1016 C1017 1.377 . S
C1017 H1001 0.930 . S
C1017 C1016 1.377 . S
C1017 C1018 1.379 . S
C1018 H1002 0.931 . S
C1018 C1012 1.383 . S
C1018 C1017 1.379 . S
H1019 C1013 0.959 . S
H1020 C1013 0.961 . S
H1021 C1013 0.960 . S
H1022 C1014 0.930 . S
H1023 C1015 0.929 . S
H1024 C1032 0.929 . S
H1025 C1034 0.930 . S
H1026 C1036 0.930 . S
H1027 C1039 0.929 . S
H1028 C1042 0.930 . S
H1029 C1044 0.960 . S
H1030 C1044 0.960 . S
H1031 C1044 0.960 . S
C1032 H1024 0.929 . S
C1032 C1033 1.377 . S
C1032 C1034 1.384 . S
C1033 C1032 1.377 . S
C1033 C1039 1.390 . S
C1034 H1025 0.930 . S
C1034 C1032 1.384 . S
C1034 C1035 1.372 . S
C1035 C1034 1.372 . S
C1035 C1036 1.400 . S
C1035 C1040 1.490 . S
C1036 H1026 0.930 . S
C1036 C1035 1.400 . S
C1036 C1039 1.386 . S
H1037 C1053 0.930 . S
H1038 C1054 0.931 . S
C1039 H1027 0.929 . S
C1039 C1033 1.390 . S
C1039 C1036 1.386 . S
C1040 C1035 1.490 . S
C1040 C1042 1.395 . S
C1040 C1043 1.403 . S
H1041 C1047 0.930 . S
C1042 H1028 0.930 . S
C1042 C1040 1.395 . S
C1042 C1045 1.403 . S
C1043 C1040 1.403 . S
C1043 C1044 1.524 . S
C1043 C1047 1.400 . S
C1044 H1029 0.960 . S
C1044 H1030 0.960 . S
C1044 H1031 0.960 . S
C1044 C1043 1.524 . S
C1045 C1042 1.403 . S
C1045 C1046 1.392 . S
C1045 C1049 1.495 . S
C1046 C1045 1.392 . S
C1046 C1047 1.385 . S
C1046 C1048 1.478 . S
C1047 H1041 0.930 . S
C1047 C1043 1.400 . S
C1047 C1046 1.385 . S
C1048 C1046 1.478 . S
C1048 C1050 1.381 . S
C1048 C1054 1.383 . S
C1049 C1045 1.495 . S
C1049 H1055 0.959 . S
C1049 H1056 0.961 . S
C1049 H1057 0.960 . S
C1050 C1048 1.381 . S
C1050 C1051 1.394 . S
C1050 H1058 0.930 . S
C1051 C1050 1.394 . S
C1051 C1052 1.383 . S
C1051 H1059 0.929 . S
C1052 C1051 1.383 . S
C1052 C1053 1.377 . S
C1053 H1037 0.930 . S
C1053 C1052 1.377 . S
C1053 C1054 1.379 . S
C1054 H1038 0.931 . S
C1054 C1048 1.383 . S
C1054 C1053 1.379 . S
H1055 C1049 0.959 . S
H1056 C1049 0.961 . S
H1057 C1049 0.960 . S
H1058 C1050 0.930 . S
H1059 C1051 0.929 . S
H1060 C1068 0.929 . S
H1061 C1070 0.930 . S
H1062 C1072 0.930 1_554 S
H1063 C1075 0.929 . S
H1064 C1078 0.930 . S
H1065 C1080 0.960 . S
H1066 C1080 0.960 . S
H1067 C1080 0.960 . S
C1068 H1060 0.929 . S
C1068 C1069 1.377 . S
C1068 C1070 1.384 . S
C1069 C1068 1.377 . S
C1069 C1075 1.390 . S
C1070 H1061 0.930 . S
C1070 C1068 1.384 . S
C1070 C1071 1.372 . S
C1071 C1070 1.372 . S
C1071 C1072 1.400 . S
C1071 C1076 1.490 1_556 S
C1072 H1062 0.930 1_556 S
C1072 C1071 1.400 . S
C1072 C1075 1.386 . S
H1073 C1089 0.930 . S
H1074 C1090 0.931 . S
C1075 H1063 0.929 . S
C1075 C1069 1.390 . S
C1075 C1072 1.386 . S
C1076 C1071 1.490 1_554 S
C1076 C1078 1.395 1_455 S
C1076 C1079 1.403 . S
H1077 C1083 0.930 . S
C1078 H1064 0.930 . S
C1078 C1076 1.395 1_655 S
C1078 C1081 1.403 . S
C1079 C1076 1.403 . S
C1079 C1080 1.524 . S
C1079 C1083 1.400 . S
C1080 H1065 0.960 . S
C1080 H1066 0.960 . S
C1080 H1067 0.960 . S
C1080 C1079 1.524 . S
C1081 C1078 1.403 . S
C1081 C1082 1.392 . S
C1081 C1085 1.495 . S
C1082 C1081 1.392 . S
C1082 C1083 1.385 1_655 S
C1082 C1084 1.478 . S
C1083 H1077 0.930 . S
C1083 C1079 1.400 . S
C1083 C1082 1.385 1_455 S
C1084 C1082 1.478 . S
C1084 C1086 1.381 . S
C1084 C1090 1.383 . S
C1085 C1081 1.495 . S
C1085 H1091 0.959 . S
C1085 H1092 0.961 . S
C1085 H1093 0.960 . S
C1086 C1084 1.381 . S
C1086 C1087 1.394 . S
C1086 H1094 0.930 . S
C1087 C1086 1.394 . S
C1087 C1088 1.383 . S
C1087 H1095 0.929 . S
C1088 C1087 1.383 . S
C1088 C1089 1.377 . S
C1089 H1073 0.930 . S
C1089 C1088 1.377 . S
C1089 C1090 1.379 . S
C1090 H1074 0.931 . S
C1090 C1084 1.383 . S
C1090 C1089 1.379 . S
H1091 C1085 0.959 . S
H1092 C1085 0.961 . S
H1093 C1085 0.960 . S
H1094 C1086 0.930 . S
H1095 C1087 0.929 . S
H1096 C1104 0.929 . S
H1097 C1106 0.930 . S
H1098 C1108 0.930 . S
H1099 C1111 0.929 . S
H1100 C1114 0.930 . S
H1101 C1116 0.960 . S
H1102 C1116 0.960 . S
H1103 C1116 0.960 . S
C1104 H1096 0.929 . S
C1104 C1105 1.377 . S
C1104 C1106 1.384 . S
C1105 C1104 1.377 . S
C1105 C1111 1.390 . S
C1106 H1097 0.930 . S
C1106 C1104 1.384 . S
C1106 C1107 1.372 . S
C1107 C1106 1.372 . S
C1107 C1108 1.400 . S
C1107 C1112 1.490 . S
C1108 H1098 0.930 . S
C1108 C1107 1.400 . S
C1108 C1111 1.386 . S
H1109 C1125 0.930 . S
H1110 C1126 0.931 . S
C1111 H1099 0.929 . S
C1111 C1105 1.390 . S
C1111 C1108 1.386 . S
C1112 C1107 1.490 . S
C1112 C1114 1.395 . S
C1112 C1115 1.403 . S
H1113 C1119 0.930 . S
C1114 H1100 0.930 . S
C1114 C1112 1.395 . S
C1114 C1117 1.403 . S
C1115 C1112 1.403 . S
C1115 C1116 1.524 . S
C1115 C1119 1.400 . S
C1116 H1101 0.960 . S
C1116 H1102 0.960 . S
C1116 H1103 0.960 . S
C1116 C1115 1.524 . S
C1117 C1114 1.403 . S
C1117 C1118 1.392 . S
C1117 C1121 1.495 . S
C1118 C1117 1.392 . S
C1118 C1119 1.385 . S
C1118 C1120 1.478 . S
C1119 H1113 0.930 . S
C1119 C1115 1.400 . S
C1119 C1118 1.385 . S
C1120 C1118 1.478 . S
C1120 C1122 1.381 . S
C1120 C1126 1.383 . S
C1121 C1117 1.495 . S
C1121 H1127 0.959 . S
C1121 H1128 0.961 . S
C1121 H1129 0.960 . S
C1122 C1120 1.381 . S
C1122 C1123 1.394 . S
C1122 H1130 0.930 . S
C1123 C1122 1.394 . S
C1123 C1124 1.383 . S
C1123 H1131 0.929 . S
C1124 C1123 1.383 . S
C1124 C1125 1.377 . S
C1125 H1109 0.930 . S
C1125 C1124 1.377 . S
C1125 C1126 1.379 . S
C1126 H1110 0.931 . S
C1126 C1120 1.383 . S
C1126 C1125 1.379 . S
H1127 C1121 0.959 . S
H1128 C1121 0.961 . S
H1129 C1121 0.960 . S
H1130 C1122 0.930 . S
H1131 C1123 0.929 . S
H1132 C1140 0.929 . S
H1133 C1142 0.930 . S
H1134 C1144 0.930 . S
H1135 C1147 0.929 . S
H1136 C1150 0.930 . S
H1137 C1152 0.960 . S
H1138 C1152 0.960 . S
H1139 C1152 0.960 . S
C1140 H1132 0.929 . S
C1140 C1141 1.377 . S
C1140 C1142 1.384 . S
C1141 C1140 1.377 . S
C1141 C1147 1.390 . S
C1142 H1133 0.930 . S
C1142 C1140 1.384 . S
C1142 C1143 1.372 . S
C1143 C1142 1.372 . S
C1143 C1144 1.400 . S
C1143 C1148 1.490 . S
C1144 H1134 0.930 . S
C1144 C1143 1.400 . S
C1144 C1147 1.386 . S
H1145 C1161 0.930 . S
H1146 C1162 0.931 . S
C1147 H1135 0.929 . S
C1147 C1141 1.390 . S
C1147 C1144 1.386 . S
C1148 C1143 1.490 . S
C1148 C1150 1.395 . S
C1148 C1151 1.403 . S
H1149 C1155 0.930 . S
C1150 H1136 0.930 . S
C1150 C1148 1.395 . S
C1150 C1153 1.403 . S
C1151 C1148 1.403 . S
C1151 C1152 1.524 . S
C1151 C1155 1.400 . S
C1152 H1137 0.960 . S
C1152 H1138 0.960 . S
C1152 H1139 0.960 . S
C1152 C1151 1.524 . S
C1153 C1150 1.403 . S
C1153 C1154 1.392 . S
C1153 C1157 1.495 . S
C1154 C1153 1.392 . S
C1154 C1155 1.385 . S
C1154 C1156 1.478 . S
C1155 H1149 0.930 . S
C1155 C1151 1.400 . S
C1155 C1154 1.385 . S
C1156 C1154 1.478 . S
C1156 C1158 1.381 . S
C1156 C1162 1.383 . S
C1157 C1153 1.495 . S
C1157 H1163 0.959 . S
C1157 H1164 0.961 . S
C1157 H1165 0.960 . S
C1158 C1156 1.381 . S
C1158 C1159 1.394 . S
C1158 H1166 0.930 . S
C1159 C1158 1.394 . S
C1159 C1160 1.383 . S
C1159 H1167 0.929 . S
C1160 C1159 1.383 . S
C1160 C1161 1.377 . S
C1161 H1145 0.930 . S
C1161 C1160 1.377 . S
C1161 C1162 1.379 . S
C1162 H1146 0.931 . S
C1162 C1156 1.383 . S
C1162 C1161 1.379 . S
H1163 C1157 0.959 . S
H1164 C1157 0.961 . S
H1165 C1157 0.960 . S
H1166 C1158 0.930 . S
H1167 C1159 0.929 . S
H1168 C1176 0.929 . S
H1169 C1178 0.930 . S
H1170 C1180 0.930 . S
H1171 C1183 0.929 . S
H1172 C1186 0.930 . S
H1173 C1188 0.960 . S
H1174 C1188 0.960 . S
H1175 C1188 0.960 . S
C1176 H1168 0.929 . S
C1176 C1177 1.377 . S
C1176 C1178 1.384 . S
C1177 C1176 1.377 . S
C1177 C1183 1.390 . S
C1178 H1169 0.930 . S
C1178 C1176 1.384 . S
C1178 C1179 1.372 . S
C1179 C1178 1.372 . S
C1179 C1180 1.400 . S
C1179 C1184 1.490 . S
C1180 H1170 0.930 . S
C1180 C1179 1.400 . S
C1180 C1183 1.386 . S
H1181 C1197 0.930 . S
H1182 C1198 0.931 . S
C1183 H1171 0.929 . S
C1183 C1177 1.390 . S
C1183 C1180 1.386 . S
C1184 C1179 1.490 . S
C1184 C1186 1.395 . S
C1184 C1187 1.403 . S
H1185 C1191 0.930 . S
C1186 H1172 0.930 . S
C1186 C1184 1.395 . S
C1186 C1189 1.403 . S
C1187 C1184 1.403 . S
C1187 C1188 1.524 . S
C1187 C1191 1.400 . S
C1188 H1173 0.960 . S
C1188 H1174 0.960 . S
C1188 H1175 0.960 . S
C1188 C1187 1.524 . S
C1189 C1186 1.403 . S
C1189 C1190 1.392 . S
C1189 C1193 1.495 . S
C1190 C1189 1.392 . S
C1190 C1191 1.385 . S
C1190 C1192 1.478 . S
C1191 H1185 0.930 . S
C1191 C1187 1.400 . S
C1191 C1190 1.385 . S
C1192 C1190 1.478 . S
C1192 C1194 1.381 . S
C1192 C1198 1.383 . S
C1193 C1189 1.495 . S
C1193 H1199 0.959 . S
C1193 H1200 0.961 . S
C1193 H1201 0.960 . S
C1194 C1192 1.381 . S
C1194 C1195 1.394 . S
C1194 H1202 0.930 . S
C1195 C1194 1.394 . S
C1195 C1196 1.383 . S
C1195 H1203 0.929 . S
C1196 C1195 1.383 . S
C1196 C1197 1.377 . S
C1197 H1181 0.930 . S
C1197 C1196 1.377 . S
C1197 C1198 1.379 . S
C1198 H1182 0.931 . S
C1198 C1192 1.383 . S
C1198 C1197 1.379 . S
H1199 C1193 0.959 . S
H1200 C1193 0.961 . S
H1201 C1193 0.960 . S
H1202 C1194 0.930 . S
H1203 C1195 0.929 . S
H1204 C1212 0.929 . S
H1205 C1214 0.930 . S
H1206 C1216 0.926 1_556 S
H1207 C1219 0.929 . S
H1208 C1222 0.930 . S
H1209 C1224 0.960 . S
H1210 C1224 0.960 . S
H1211 C1224 0.960 . S
C1212 H1204 0.929 . S
C1212 C1213 1.377 . S
C1212 C1214 1.384 . S
C1213 C1212 1.377 . S
C1213 C1219 1.390 . S
C1214 H1205 0.930 . S
C1214 C1212 1.384 . S
C1214 C1215 1.372 . S
C1215 C1214 1.372 . S
C1215 C1216 1.400 . S
C1215 C1220 1.490 1_554 S
C1216 H1206 0.926 1_554 S
C1216 C1215 1.400 . S
C1216 C1219 1.389 . S
H1217 C1233 0.930 . S
H1218 C1234 0.931 . S
C1219 H1207 0.929 . S
C1219 C1213 1.390 . S
C1219 C1216 1.389 . S
C1220 C1215 1.490 1_556 S
C1220 C1222 1.395 . S
C1220 C1223 1.403 . S
H1221 C1227 0.930 . S
C1222 H1208 0.930 . S
C1222 C1220 1.395 . S
C1222 C1225 1.403 . S
C1223 C1220 1.403 . S
C1223 C1224 1.524 . S
C1223 C1227 1.400 . S
C1224 H1209 0.960 . S
C1224 H1210 0.960 . S
C1224 H1211 0.960 . S
C1224 C1223 1.524 . S
C1225 C1222 1.403 . S
C1225 C1226 1.392 . S
C1225 C1229 1.495 . S
C1226 C1225 1.392 . S
C1226 C1227 1.385 . S
C1226 C1228 1.478 . S
C1227 H1221 0.930 . S
C1227 C1223 1.400 . S
C1227 C1226 1.385 . S
C1228 C1226 1.478 . S
C1228 C1230 1.381 . S
C1228 C1234 1.383 . S
C1229 C1225 1.495 . S
C1229 H1235 0.959 . S
C1229 H1236 0.961 . S
C1229 H1237 0.960 . S
C1230 C1228 1.381 . S
C1230 C1231 1.394 . S
C1230 H1238 0.930 . S
C1231 C1230 1.394 . S
C1231 C1232 1.383 . S
C1231 H1239 0.929 . S
C1232 C1231 1.383 . S
C1232 C1233 1.377 . S
C1233 H1217 0.930 . S
C1233 C1232 1.377 . S
C1233 C1234 1.379 . S
C1234 H1218 0.931 . S
C1234 C1228 1.383 . S
C1234 C1233 1.379 . S
H1235 C1229 0.959 . S
H1236 C1229 0.961 . S
H1237 C1229 0.960 . S
H1238 C1230 0.930 . S
H1239 C1231 0.929 . S
H1240 C1248 0.929 . S
H1241 C1250 0.930 . S
H1242 C1252 0.930 . S
H1243 C1255 0.929 . S
H1244 C1258 0.930 . S
H1245 C1260 0.960 . S
H1246 C1260 0.960 . S
H1247 C1260 0.960 . S
C1248 H1240 0.929 . S
C1248 C1249 1.377 . S
C1248 C1250 1.384 . S
C1249 C1248 1.377 . S
C1249 C1255 1.390 . S
C1250 H1241 0.930 . S
C1250 C1248 1.384 . S
C1250 C1251 1.372 . S
C1251 C1250 1.372 . S
C1251 C1252 1.400 . S
C1251 C1256 1.490 . S
C1252 H1242 0.930 . S
C1252 C1251 1.400 . S
C1252 C1255 1.386 . S
H1253 C1269 0.930 . S
H1254 C1270 0.931 . S
C1255 H1243 0.929 . S
C1255 C1249 1.390 . S
C1255 C1252 1.386 . S
C1256 C1251 1.490 . S
C1256 C1258 1.395 . S
C1256 C1259 1.403 . S
H1257 C1263 0.930 . S
C1258 H1244 0.930 . S
C1258 C1256 1.395 . S
C1258 C1261 1.403 . S
C1259 C1256 1.403 . S
C1259 C1260 1.524 . S
C1259 C1263 1.400 . S
C1260 H1245 0.960 . S
C1260 H1246 0.960 . S
C1260 H1247 0.960 . S
C1260 C1259 1.524 . S
C1261 C1258 1.403 . S
C1261 C1262 1.392 . S
C1261 C1265 1.495 . S
C1262 C1261 1.392 . S
C1262 C1263 1.385 . S
C1262 C1264 1.478 . S
C1263 H1257 0.930 . S
C1263 C1259 1.400 . S
C1263 C1262 1.385 . S
C1264 C1262 1.478 . S
C1264 C1266 1.381 . S
C1264 C1270 1.383 . S
C1265 C1261 1.495 . S
C1265 H1271 0.959 . S
C1265 H1272 0.961 . S
C1265 H1273 0.960 . S
C1266 C1264 1.381 . S
C1266 C1267 1.394 . S
C1266 H1274 0.930 . S
C1267 C1266 1.394 . S
C1267 C1268 1.383 . S
C1267 H1275 0.929 . S
C1268 C1267 1.383 . S
C1268 C1269 1.377 . S
C1269 H1253 0.930 . S
C1269 C1268 1.377 . S
C1269 C1270 1.379 . S
C1270 H1254 0.931 . S
C1270 C1264 1.383 . S
C1270 C1269 1.379 . S
H1271 C1265 0.959 . S
H1272 C1265 0.961 . S
H1273 C1265 0.960 . S
H1274 C1266 0.930 . S
H1275 C1267 0.929 . S
H1276 C1284 0.929 . S
H1277 C1286 0.930 . S
H1278 C1288 0.930 . S
H1279 C1291 0.929 . S
H1280 C1294 0.930 . S
H1281 C1296 0.960 . S
H1282 C1296 0.960 . S
H1283 C1296 0.960 . S
C1284 H1276 0.929 . S
C1284 C1285 1.377 . S
C1284 C1286 1.384 . S
C1285 C1284 1.377 . S
C1285 C1291 1.390 . S
C1286 H1277 0.930 . S
C1286 C1284 1.384 . S
C1286 C1287 1.372 . S
C1287 C1286 1.372 . S
C1287 C1288 1.400 . S
C1287 C1292 1.490 . S
C1288 H1278 0.930 . S
C1288 C1287 1.400 . S
C1288 C1291 1.386 . S
H1289 C1305 0.930 . S
H1290 C1306 0.931 . S
C1291 H1279 0.929 . S
C1291 C1285 1.390 . S
C1291 C1288 1.386 . S
C1292 C1287 1.490 . S
C1292 C1294 1.395 . S
C1292 C1295 1.403 1_455 S
H1293 C1299 0.930 . S
C1294 H1280 0.930 . S
C1294 C1292 1.395 . S
C1294 C1297 1.403 . S
C1295 C1292 1.403 1_655 S
C1295 C1296 1.524 . S
C1295 C1299 1.400 . S
C1296 H1281 0.960 . S
C1296 H1282 0.960 . S
C1296 H1283 0.960 . S
C1296 C1295 1.524 . S
C1297 C1294 1.403 . S
C1297 C1298 1.392 1_455 S
C1297 C1301 1.495 . S
C1298 C1297 1.392 1_655 S
C1298 C1299 1.385 . S
C1298 C1300 1.478 . S
C1299 H1293 0.930 . S
C1299 C1295 1.400 . S
C1299 C1298 1.385 . S
C1300 C1298 1.478 . S
C1300 C1302 1.381 . S
C1300 C1306 1.383 . S
C1301 C1297 1.495 . S
C1301 H1307 0.959 . S
C1301 H1308 0.961 . S
C1301 H1309 0.960 . S
C1302 C1300 1.381 . S
C1302 C1303 1.394 . S
C1302 H1310 0.930 . S
C1303 C1302 1.394 . S
C1303 C1304 1.383 . S
C1303 H1311 0.929 . S
C1304 C1303 1.383 . S
C1304 C1305 1.377 . S
C1305 H1289 0.930 . S
C1305 C1304 1.377 . S
C1305 C1306 1.379 . S
C1306 H1290 0.931 . S
C1306 C1300 1.383 . S
C1306 C1305 1.379 . S
H1307 C1301 0.959 . S
H1308 C1301 0.961 . S
H1309 C1301 0.960 . S
H1310 C1302 0.930 . S
H1311 C1303 0.929 . S
H1312 C1320 0.929 . S
H1313 C1322 0.930 . S
H1314 C1324 0.930 . S
H1315 C1327 0.929 . S
H1316 C1330 0.930 . S
H1317 C1332 0.960 . S
H1318 C1332 0.960 . S
H1319 C1332 0.960 . S
C1320 H1312 0.929 . S
C1320 C1321 1.377 . S
C1320 C1322 1.384 . S
C1321 C1320 1.377 . S
C1321 C1327 1.390 . S
C1322 H1313 0.930 . S
C1322 C1320 1.384 . S
C1322 C1323 1.372 . S
C1323 C1322 1.372 . S
C1323 C1324 1.400 . S
C1323 C1328 1.490 . S
C1324 H1314 0.930 . S
C1324 C1323 1.400 . S
C1324 C1327 1.386 . S
H1325 C1341 0.930 . S
H1326 C1342 0.931 . S
C1327 H1315 0.929 . S
C1327 C1321 1.390 . S
C1327 C1324 1.386 . S
C1328 C1323 1.490 . S
C1328 C1330 1.395 . S
C1328 C1331 1.403 . S
H1329 C1335 0.930 . S
C1330 H1316 0.930 . S
C1330 C1328 1.395 . S
C1330 C1333 1.403 . S
C1331 C1328 1.403 . S
C1331 C1332 1.524 . S
C1331 C1335 1.400 . S
C1332 H1317 0.960 . S
C1332 H1318 0.960 . S
C1332 H1319 0.960 . S
C1332 C1331 1.524 . S
C1333 C1330 1.403 . S
C1333 C1334 1.392 . S
C1333 C1337 1.495 . S
C1334 C1333 1.392 . S
C1334 C1335 1.385 . S
C1334 C1336 1.478 . S
C1335 H1329 0.930 . S
C1335 C1331 1.400 . S
C1335 C1334 1.385 . S
C1336 C1334 1.478 . S
C1336 C1338 1.381 . S
C1336 C1342 1.383 . S
C1337 C1333 1.495 . S
C1337 H1343 0.959 . S
C1337 H1344 0.961 . S
C1337 H1345 0.960 . S
C1338 C1336 1.381 . S
C1338 C1339 1.394 . S
C1338 H1346 0.930 . S
C1339 C1338 1.394 . S
C1339 C1340 1.383 . S
C1339 H1347 0.929 . S
C1340 C1339 1.383 . S
C1340 C1341 1.377 . S
C1341 H1325 0.930 . S
C1341 C1340 1.377 . S
C1341 C1342 1.379 . S
C1342 H1326 0.931 . S
C1342 C1336 1.383 . S
C1342 C1341 1.379 . S
H1343 C1337 0.959 . S
H1344 C1337 0.961 . S
H1345 C1337 0.960 . S
H1346 C1338 0.930 . S
H1347 C1339 0.929 . S
H1348 C1356 0.929 . S
H1349 C1358 0.930 . S
H1350 C1360 0.930 1_556 S
H1351 C1363 0.929 . S
H1352 C1366 0.930 . S
H1353 C1368 0.960 . S
H1354 C1368 0.960 1_554 S
H1355 C1368 0.960 1_655 S
C1356 H1348 0.929 . S
C1356 C1357 1.377 . S
C1356 C1358 1.384 . S
C1357 C1356 1.377 . S
C1357 C1363 1.390 . S
C1358 H1349 0.930 . S
C1358 C1356 1.384 . S
C1358 C1359 1.372 . S
C1359 C1358 1.372 . S
C1359 C1360 1.400 . S
C1359 C1364 1.490 1_554 S
C1360 H1350 0.930 1_554 S
C1360 C1359 1.400 . S
C1360 C1363 1.386 . S
H1361 C1377 0.930 . S
H1362 C1378 0.931 . S
C1363 H1351 0.929 . S
C1363 C1357 1.390 . S
C1363 C1360 1.386 . S
C1364 C1359 1.490 1_556 S
C1364 C1366 1.395 . S
C1364 C1367 1.403 1_655 S
H1365 C1371 0.930 . S
C1366 H1352 0.930 . S
C1366 C1364 1.395 . S
C1366 C1369 1.431 . S
C1367 C1364 1.403 1_455 S
C1367 C1368 1.524 . S
C1367 C1371 1.400 . S
C1368 H1353 0.960 . S
C1368 H1354 0.960 1_556 S
C1368 H1355 0.960 1_455 S
C1368 C1367 1.524 . S
C1369 C1366 1.431 . S
C1369 C1370 1.361 1_655 S
C1369 C1373 1.502 . S
C1370 C1369 1.361 1_455 S
C1370 C1371 1.385 . S
C1370 C1372 1.478 . S
C1371 H1365 0.930 . S
C1371 C1367 1.400 . S
C1371 C1370 1.385 . S
C1372 C1370 1.478 . S
C1372 C1374 1.381 . S
C1372 C1378 1.383 . S
C1373 C1369 1.502 . S
C1373 H1379 0.959 . S
C1373 H1380 0.961 . S
C1373 H1381 0.960 1_655 S
C1374 C1372 1.381 . S
C1374 C1375 1.394 . S
C1374 H1382 0.930 . S
C1375 C1374 1.394 . S
C1375 C1376 1.383 . S
C1375 H1383 0.929 . S
C1376 C1375 1.383 . S
C1376 C1377 1.377 . S
C1377 H1361 0.930 . S
C1377 C1376 1.377 . S
C1377 C1378 1.379 . S
C1378 H1362 0.931 . S
C1378 C1372 1.383 . S
C1378 C1377 1.379 . S
H1379 C1373 0.959 . S
H1380 C1373 0.961 . S
H1381 C1373 0.960 1_455 S
H1382 C1374 0.930 . S
H1383 C1375 0.929 . S
H1384 C1392 0.929 . S
H1385 C1394 0.930 . S
H1386 C1396 0.930 . S
H1387 C1399 0.929 . S
H1388 C1402 0.930 . S
H1389 C1404 0.960 . S
H1390 C1404 0.960 . S
H1391 C1404 0.960 . S
C1392 H1384 0.929 . S
C1392 C1393 1.377 . S
C1392 C1394 1.384 . S
C1393 C1392 1.377 . S
C1393 C1399 1.390 . S
C1394 H1385 0.930 . S
C1394 C1392 1.384 . S
C1394 C1395 1.372 . S
C1395 C1394 1.372 . S
C1395 C1396 1.400 . S
C1395 C1400 1.490 . S
C1396 H1386 0.930 . S
C1396 C1395 1.400 . S
C1396 C1399 1.386 . S
H1397 C1413 0.930 . S
H1398 C1414 0.931 . S
C1399 H1387 0.929 . S
C1399 C1393 1.390 . S
C1399 C1396 1.386 . S
C1400 C1395 1.490 . S
C1400 C1402 1.395 . S
C1400 C1403 1.403 . S
H1401 C1407 0.930 . S
C1402 H1388 0.930 . S
C1402 C1400 1.395 . S
C1402 C1405 1.403 . S
C1403 C1400 1.403 . S
C1403 C1404 1.524 . S
C1403 C1407 1.400 . S
C1404 H1389 0.960 . S
C1404 H1390 0.960 . S
C1404 H1391 0.960 . S
C1404 C1403 1.524 . S
C1405 C1402 1.403 . S
C1405 C1406 1.392 . S
C1405 C1409 1.495 . S
C1406 C1405 1.392 . S
C1406 C1407 1.385 . S
C1406 C1408 1.478 . S
C1407 H1401 0.930 . S
C1407 C1403 1.400 . S
C1407 C1406 1.385 . S
C1408 C1406 1.478 . S
C1408 C1410 1.381 . S
C1408 C1414 1.383 . S
C1409 C1405 1.495 . S
C1409 H1415 0.959 . S
C1409 H1416 0.961 . S
C1409 H1417 0.960 . S
C1410 C1408 1.381 . S
C1410 C1411 1.394 . S
C1410 H1418 0.930 . S
C1411 C1410 1.394 . S
C1411 C1412 1.383 . S
C1411 H1419 0.929 . S
C1412 C1411 1.383 . S
C1412 C1413 1.377 . S
C1413 H1397 0.930 . S
C1413 C1412 1.377 . S
C1413 C1414 1.379 . S
C1414 H1398 0.931 . S
C1414 C1408 1.383 . S
C1414 C1413 1.379 . S
H1415 C1409 0.959 . S
H1416 C1409 0.961 . S
H1417 C1409 0.960 . S
H1418 C1410 0.930 . S
H1419 C1411 0.929 . S
H1420 C1428 0.929 . S
H1421 C1430 0.930 . S
H1422 C1432 0.930 . S
H1423 C1435 0.929 . S
H1424 C1438 0.930 . S
H1425 C1440 0.960 . S
H1426 C1440 0.960 . S
H1427 C1440 0.960 . S
C1428 H1420 0.929 . S
C1428 C1429 1.377 . S
C1428 C1430 1.384 . S
C1429 C1428 1.377 . S
C1429 C1435 1.390 . S
C1430 H1421 0.930 . S
C1430 C1428 1.384 . S
C1430 C1431 1.372 . S
C1431 C1430 1.372 . S
C1431 C1432 1.400 . S
C1431 C1436 1.490 . S
C1432 H1422 0.930 . S
C1432 C1431 1.400 . S
C1432 C1435 1.386 . S
H1433 C1449 0.930 . S
H1434 C1450 0.931 . S
C1435 H1423 0.929 . S
C1435 C1429 1.390 . S
C1435 C1432 1.386 . S
C1436 C1431 1.490 . S
C1436 C1438 1.395 . S
C1436 C1439 1.403 . S
H1437 C1443 0.930 . S
C1438 H1424 0.930 . S
C1438 C1436 1.395 . S
C1438 C1441 1.403 . S
C1439 C1436 1.403 . S
C1439 C1440 1.524 . S
C1439 C1443 1.400 . S
C1440 H1425 0.960 . S
C1440 H1426 0.960 . S
C1440 H1427 0.960 . S
C1440 C1439 1.524 . S
C1441 C1438 1.403 . S
C1441 C1442 1.392 . S
C1441 C1445 1.495 . S
C1442 C1441 1.392 . S
C1442 C1443 1.385 . S
C1442 C1444 1.478 . S
C1443 H1437 0.930 . S
C1443 C1439 1.400 . S
C1443 C1442 1.385 . S
C1444 C1442 1.478 . S
C1444 C1446 1.381 . S
C1444 C1450 1.383 . S
C1445 C1441 1.495 . S
C1445 H1451 0.959 . S
C1445 H1452 0.961 . S
C1445 H1453 0.960 . S
C1446 C1444 1.381 . S
C1446 C1447 1.394 . S
C1446 H1454 0.930 . S
C1447 C1446 1.394 . S
C1447 C1448 1.383 . S
C1447 H1455 0.929 . S
C1448 C1447 1.383 . S
C1448 C1449 1.377 . S
C1449 H1433 0.930 . S
C1449 C1448 1.377 . S
C1449 C1450 1.379 . S
C1450 H1434 0.931 . S
C1450 C1444 1.383 . S
C1450 C1449 1.379 . S
H1451 C1445 0.959 . S
H1452 C1445 0.961 . S
H1453 C1445 0.960 . S
H1454 C1446 0.930 . S
H1455 C1447 0.929 . S
H1456 C1464 0.929 . S
H1457 C1466 0.930 . S
H1458 C1468 0.930 . S
H1459 C1471 0.929 . S
H1460 C1474 0.930 . S
H1461 C1476 0.960 . S
H1462 C1476 0.960 . S
H1463 C1476 0.960 . S
C1464 H1456 0.929 . S
C1464 C1465 1.377 . S
C1464 C1466 1.384 . S
C1465 C1464 1.377 . S
C1465 C1471 1.390 . S
C1466 H1457 0.930 . S
C1466 C1464 1.384 . S
C1466 C1467 1.372 . S
C1467 C1466 1.372 . S
C1467 C1468 1.400 . S
C1467 C1472 1.490 . S
C1468 H1458 0.930 . S
C1468 C1467 1.400 . S
C1468 C1471 1.386 . S
H1469 C1485 0.930 . S
H1470 C1486 0.931 . S
C1471 H1459 0.929 . S
C1471 C1465 1.390 . S
C1471 C1468 1.386 . S
C1472 C1467 1.490 . S
C1472 C1474 1.395 . S
C1472 C1475 1.403 . S
H1473 C1479 0.930 . S
C1474 H1460 0.930 . S
C1474 C1472 1.395 . S
C1474 C1477 1.403 . S
C1475 C1472 1.403 . S
C1475 C1476 1.524 . S
C1475 C1479 1.400 . S
C1476 H1461 0.960 . S
C1476 H1462 0.960 . S
C1476 H1463 0.960 . S
C1476 C1475 1.524 . S
C1477 C1474 1.403 . S
C1477 C1478 1.392 . S
C1477 C1481 1.495 . S
C1478 C1477 1.392 . S
C1478 C1479 1.385 . S
C1478 C1480 1.478 . S
C1479 H1473 0.930 . S
C1479 C1475 1.400 . S
C1479 C1478 1.385 . S
C1480 C1478 1.478 . S
C1480 C1482 1.381 . S
C1480 C1486 1.383 . S
C1481 C1477 1.495 . S
C1481 H1487 0.959 . S
C1481 H1488 0.961 . S
C1481 H1489 0.960 . S
C1482 C1480 1.381 . S
C1482 C1483 1.394 . S
C1482 H1490 0.930 . S
C1483 C1482 1.394 . S
C1483 C1484 1.383 . S
C1483 H1491 0.929 . S
C1484 C1483 1.383 . S
C1484 C1485 1.377 . S
C1485 H1469 0.930 . S
C1485 C1484 1.377 . S
C1485 C1486 1.379 . S
C1486 H1470 0.931 . S
C1486 C1480 1.383 . S
C1486 C1485 1.379 . S
H1487 C1481 0.959 . S
H1488 C1481 0.961 . S
H1489 C1481 0.960 . S
H1490 C1482 0.930 . S
H1491 C1483 0.929 . S
H1492 C1500 0.929 . S
H1493 C1502 0.930 . S
H1494 C1504 0.930 . S
H1495 C1507 0.929 . S
H1496 C1510 0.930 . S
H1497 C1512 0.960 . S
H1498 C1512 0.960 . S
H1499 C1512 0.960 . S
C1500 H1492 0.929 . S
C1500 C1501 1.377 . S
C1500 C1502 1.384 . S
C1501 C1500 1.377 . S
C1501 C1507 1.390 . S
C1502 H1493 0.930 . S
C1502 C1500 1.384 . S
C1502 C1503 1.372 . S
C1503 C1502 1.372 . S
C1503 C1504 1.400 . S
C1503 C1508 1.490 . S
C1504 H1494 0.930 . S
C1504 C1503 1.400 . S
C1504 C1507 1.386 . S
H1505 C1521 0.930 . S
H1506 C1522 0.931 1_554 S
C1507 H1495 0.929 . S
C1507 C1501 1.390 . S
C1507 C1504 1.386 . S
C1508 C1503 1.490 . S
C1508 C1510 1.395 . S
C1508 C1511 1.403 . S
H1509 C1515 0.930 . S
C1510 H1496 0.930 . S
C1510 C1508 1.395 . S
C1510 C1513 1.403 . S
C1511 C1508 1.403 . S
C1511 C1512 1.524 . S
C1511 C1515 1.400 . S
C1512 H1497 0.960 . S
C1512 H1498 0.960 . S
C1512 H1499 0.960 . S
C1512 C1511 1.524 . S
C1513 C1510 1.403 . S
C1513 C1514 1.392 . S
C1513 C1517 1.495 1_554 S
C1514 C1513 1.392 . S
C1514 C1515 1.385 . S
C1514 C1516 1.478 1_554 S
C1515 H1509 0.930 . S
C1515 C1511 1.400 . S
C1515 C1514 1.385 . S
C1516 C1514 1.478 1_556 S
C1516 C1518 1.381 . S
C1516 C1522 1.383 . S
C1517 C1513 1.495 1_556 S
C1517 H1523 0.959 1_556 S
C1517 H1524 0.961 . S
C1517 H1525 0.960 . S
C1518 C1516 1.381 . S
C1518 C1519 1.394 . S
C1518 H1526 0.930 . S
C1519 C1518 1.394 . S
C1519 C1520 1.383 . S
C1519 H1527 0.929 . S
C1520 C1519 1.383 . S
C1520 C1521 1.377 . S
C1521 H1505 0.930 . S
C1521 C1520 1.377 . S
C1521 C1522 1.379 . S
C1522 H1506 0.931 1_556 S
C1522 C1516 1.383 . S
C1522 C1521 1.379 . S
H1523 C1517 0.959 1_554 S
H1524 C1517 0.961 . S
H1525 C1517 0.960 . S
H1526 C1518 0.930 . S
H1527 C1519 0.929 . S
H1528 C1536 0.929 . S
H1529 C1538 0.930 . S
H1530 C1540 0.930 . S
H1531 C1543 0.929 . S
H1532 C1546 0.930 . S
H1533 C1548 0.960 . S
H1534 C1548 0.960 . S
H1535 C1548 0.960 . S
C1536 H1528 0.929 . S
C1536 C1537 1.377 . S
C1536 C1538 1.384 . S
C1537 C1536 1.377 . S
C1537 C1543 1.390 . S
C1538 H1529 0.930 . S
C1538 C1536 1.384 . S
C1538 C1539 1.372 . S
C1539 C1538 1.372 . S
C1539 C1540 1.400 . S
C1539 C1544 1.490 . S
C1540 H1530 0.930 . S
C1540 C1539 1.400 . S
C1540 C1543 1.386 . S
H1541 C1557 0.930 . S
H1542 C1558 0.931 . S
C1543 H1531 0.929 . S
C1543 C1537 1.390 . S
C1543 C1540 1.386 . S
C1544 C1539 1.490 . S
C1544 C1546 1.395 . S
C1544 C1547 1.403 . S
H1545 C1551 0.930 . S
C1546 H1532 0.930 . S
C1546 C1544 1.395 . S
C1546 C1549 1.403 . S
C1547 C1544 1.403 . S
C1547 C1548 1.524 . S
C1547 C1551 1.400 . S
C1548 H1533 0.960 . S
C1548 H1534 0.960 . S
C1548 H1535 0.960 . S
C1548 C1547 1.524 . S
C1549 C1546 1.403 . S
C1549 C1550 1.392 . S
C1549 C1553 1.495 . S
C1550 C1549 1.392 . S
C1550 C1551 1.385 . S
C1550 C1552 1.478 . S
C1551 H1545 0.930 . S
C1551 C1547 1.400 . S
C1551 C1550 1.385 . S
C1552 C1550 1.478 . S
C1552 C1554 1.381 . S
C1552 C1558 1.383 . S
C1553 C1549 1.495 . S
C1553 H1559 0.959 . S
C1553 H1560 0.961 . S
C1553 H1561 0.960 . S
C1554 C1552 1.381 . S
C1554 C1555 1.394 . S
C1554 H1562 0.930 . S
C1555 C1554 1.394 . S
C1555 C1556 1.383 . S
C1555 H1563 0.929 . S
C1556 C1555 1.383 . S
C1556 C1557 1.377 . S
C1557 H1541 0.930 . S
C1557 C1556 1.377 . S
C1557 C1558 1.379 . S
C1558 H1542 0.931 . S
C1558 C1552 1.383 . S
C1558 C1557 1.379 . S
H1559 C1553 0.959 . S
H1560 C1553 0.961 . S
H1561 C1553 0.960 . S
H1562 C1554 0.930 . S
H1563 C1555 0.929 . S
H1564 C1572 0.929 . S
H1565 C1574 0.930 . S
H1566 C1576 0.930 . S
H1567 C1579 0.929 . S
H1568 C1582 0.930 . S
H1569 C1584 0.960 . S
H1570 C1584 0.960 . S
H1571 C1584 0.960 . S
C1572 H1564 0.929 . S
C1572 C1573 1.377 . S
C1572 C1574 1.384 . S
C1573 C1572 1.377 . S
C1573 C1579 1.390 . S
C1574 H1565 0.930 . S
C1574 C1572 1.384 . S
C1574 C1575 1.372 . S
C1575 C1574 1.372 . S
C1575 C1576 1.400 . S
C1575 C1580 1.490 . S
C1576 H1566 0.930 . S
C1576 C1575 1.400 . S
C1576 C1579 1.386 . S
H1577 C1593 0.930 . S
H1578 C1594 0.931 . S
C1579 H1567 0.929 . S
C1579 C1573 1.390 . S
C1579 C1576 1.386 . S
C1580 C1575 1.490 . S
C1580 C1582 1.395 . S
C1580 C1583 1.403 1_655 S
H1581 C1587 0.930 . S
C1582 H1568 0.930 . S
C1582 C1580 1.395 . S
C1582 C1585 1.403 . S
C1583 C1580 1.403 1_455 S
C1583 C1584 1.524 . S
C1583 C1587 1.400 . S
C1584 H1569 0.960 . S
C1584 H1570 0.960 . S
C1584 H1571 0.960 . S
C1584 C1583 1.524 . S
C1585 C1582 1.403 . S
C1585 C1586 1.392 1_655 S
C1585 C1589 1.495 . S
C1586 C1585 1.392 1_455 S
C1586 C1587 1.385 . S
C1586 C1588 1.478 . S
C1587 H1581 0.930 . S
C1587 C1583 1.400 . S
C1587 C1586 1.385 . S
C1588 C1586 1.478 . S
C1588 C1590 1.381 . S
C1588 C1594 1.383 . S
C1589 C1585 1.495 . S
C1589 H1595 0.959 . S
C1589 H1596 0.961 . S
C1589 H1597 0.960 . S
C1590 C1588 1.381 . S
C1590 C1591 1.394 . S
C1590 H1598 0.930 . S
C1591 C1590 1.394 . S
C1591 C1592 1.383 . S
C1591 H1599 0.929 . S
C1592 C1591 1.383 . S
C1592 C1593 1.377 . S
C1593 H1577 0.930 . S
C1593 C1592 1.377 . S
C1593 C1594 1.379 . S
C1594 H1578 0.931 . S
C1594 C1588 1.383 . S
C1594 C1593 1.379 . S
H1595 C1589 0.959 . S
H1596 C1589 0.961 . S
H1597 C1589 0.960 . S
H1598 C1590 0.930 . S
H1599 C1591 0.929 . S
H1600 C1608 0.929 . S
H1601 C1610 0.930 . S
H1602 C1612 0.930 . S
H1603 C1615 0.929 . S
H1604 C1618 0.930 . S
H1605 C1620 0.960 . S
H1606 C1620 0.960 . S
H1607 C1620 0.960 . S
C1608 H1600 0.929 . S
C1608 C1609 1.377 . S
C1608 C1610 1.384 . S
C1609 C1608 1.377 . S
C1609 C1615 1.390 . S
C1610 H1601 0.930 . S
C1610 C1608 1.384 . S
C1610 C1611 1.372 . S
C1611 C1610 1.372 . S
C1611 C1612 1.400 . S
C1611 C1616 1.490 . S
C1612 H1602 0.930 . S
C1612 C1611 1.400 . S
C1612 C1615 1.386 . S
H1613 C1629 0.930 . S
H1614 C1630 0.931 . S
C1615 H1603 0.929 . S
C1615 C1609 1.390 . S
C1615 C1612 1.386 . S
C1616 C1611 1.490 . S
C1616 C1618 1.395 . S
C1616 C1619 1.403 . S
H1617 C1623 0.930 . S
C1618 H1604 0.930 . S
C1618 C1616 1.395 . S
C1618 C1621 1.403 . S
C1619 C1616 1.403 . S
C1619 C1620 1.524 . S
C1619 C1623 1.400 . S
C1620 H1605 0.960 . S
C1620 H1606 0.960 . S
C1620 H1607 0.960 . S
C1620 C1619 1.524 . S
C1621 C1618 1.403 . S
C1621 C1622 1.392 . S
C1621 C1625 1.495 . S
C1622 C1621 1.392 . S
C1622 C1623 1.385 . S
C1622 C1624 1.478 . S
C1623 H1617 0.930 . S
C1623 C1619 1.400 . S
C1623 C1622 1.385 . S
C1624 C1622 1.478 . S
C1624 C1626 1.381 . S
C1624 C1630 1.383 . S
C1625 C1621 1.495 . S
C1625 H1631 0.959 . S
C1625 H1632 0.961 . S
C1625 H1633 0.960 . S
C1626 C1624 1.381 . S
C1626 C1627 1.394 . S
C1626 H1634 0.930 . S
C1627 C1626 1.394 . S
C1627 C1628 1.383 . S
C1627 H1635 0.929 . S
C1628 C1627 1.383 . S
C1628 C1629 1.377 . S
C1629 H1613 0.930 . S
C1629 C1628 1.377 . S
C1629 C1630 1.379 . S
C1630 H1614 0.931 . S
C1630 C1624 1.383 . S
C1630 C1629 1.379 . S
H1631 C1625 0.959 . S
H1632 C1625 0.961 . S
H1633 C1625 0.960 . S
H1634 C1626 0.930 . S
H1635 C1627 0.929 . S
H1636 C1644 0.929 . S
H1637 C1646 0.930 . S
H1638 C1648 0.930 . S
H1639 C1651 0.929 . S
H1640 C1654 0.930 . S
H1641 C1656 0.960 . S
H1642 C1656 0.960 . S
H1643 C1656 0.960 . S
C1644 H1636 0.929 . S
C1644 C1645 1.377 . S
C1644 C1646 1.384 . S
C1645 C1644 1.377 . S
C1645 C1651 1.390 . S
C1646 H1637 0.930 . S
C1646 C1644 1.384 . S
C1646 C1647 1.372 . S
C1647 C1646 1.372 . S
C1647 C1648 1.400 . S
C1647 C1652 1.490 . S
C1648 H1638 0.930 . S
C1648 C1647 1.400 . S
C1648 C1651 1.386 . S
H1649 C1665 0.930 . S
H1650 C1666 0.931 . S
C1651 H1639 0.929 . S
C1651 C1645 1.390 . S
C1651 C1648 1.386 . S
C1652 C1647 1.490 . S
C1652 C1654 1.395 . S
C1652 C1655 1.403 . S
H1653 C1659 0.930 . S
C1654 H1640 0.930 . S
C1654 C1652 1.395 . S
C1654 C1657 1.403 . S
C1655 C1652 1.403 . S
C1655 C1656 1.524 . S
C1655 C1659 1.400 . S
C1656 H1641 0.960 . S
C1656 H1642 0.960 . S
C1656 H1643 0.960 . S
C1656 C1655 1.524 . S
C1657 C1654 1.403 . S
C1657 C1658 1.392 . S
C1657 C1661 1.495 . S
C1658 C1657 1.392 . S
C1658 C1659 1.385 . S
C1658 C1660 1.478 . S
C1659 H1653 0.930 . S
C1659 C1655 1.400 . S
C1659 C1658 1.385 . S
C1660 C1658 1.478 . S
C1660 C1662 1.381 . S
C1660 C1666 1.383 . S
C1661 C1657 1.495 . S
C1661 H1667 0.959 . S
C1661 H1668 0.961 . S
C1661 H1669 0.960 . S
C1662 C1660 1.381 . S
C1662 C1663 1.394 . S
C1662 H1670 0.930 . S
C1663 C1662 1.394 . S
C1663 C1664 1.383 . S
C1663 H1671 0.929 . S
C1664 C1663 1.383 . S
C1664 C1665 1.377 . S
C1665 H1649 0.930 . S
C1665 C1664 1.377 . S
C1665 C1666 1.379 . S
C1666 H1650 0.931 . S
C1666 C1660 1.383 . S
C1666 C1665 1.379 . S
H1667 C1661 0.959 . S
H1668 C1661 0.961 . S
H1669 C1661 0.960 . S
H1670 C1662 0.930 . S
H1671 C1663 0.929 . S
H1672 C1680 0.929 . S
H1673 C1682 0.930 . S
H1674 C1684 0.930 . S
H1675 C1687 0.929 . S
H1676 C1690 0.930 . S
H1677 C1692 0.960 . S
H1678 C1692 0.960 . S
H1679 C1692 0.960 . S
C1680 H1672 0.929 . S
C1680 C1681 1.377 . S
C1680 C1682 1.384 . S
C1681 C1680 1.377 . S
C1681 C1687 1.390 . S
C1682 H1673 0.930 . S
C1682 C1680 1.384 . S
C1682 C1683 1.372 . S
C1683 C1682 1.372 . S
C1683 C1684 1.400 . S
C1683 C1688 1.490 . S
C1684 H1674 0.930 . S
C1684 C1683 1.400 . S
C1684 C1687 1.386 . S
H1685 C1701 0.930 . S
H1686 C1702 0.931 . S
C1687 H1675 0.929 . S
C1687 C1681 1.390 . S
C1687 C1684 1.386 . S
C1688 C1683 1.490 . S
C1688 C1690 1.395 . S
C1688 C1691 1.403 . S
H1689 C1695 0.930 . S
C1690 H1676 0.930 . S
C1690 C1688 1.395 . S
C1690 C1693 1.403 . S
C1691 C1688 1.403 . S
C1691 C1692 1.524 . S
C1691 C1695 1.400 . S
C1692 H1677 0.960 . S
C1692 H1678 0.960 . S
C1692 H1679 0.960 . S
C1692 C1691 1.524 . S
C1693 C1690 1.403 . S
C1693 C1694 1.392 . S
C1693 C1697 1.495 . S
C1694 C1693 1.392 . S
C1694 C1695 1.385 . S
C1694 C1696 1.478 . S
C1695 H1689 0.930 . S
C1695 C1691 1.400 . S
C1695 C1694 1.385 . S
C1696 C1694 1.478 . S
C1696 C1698 1.381 . S
C1696 C1702 1.383 . S
C1697 C1693 1.495 . S
C1697 H1703 0.959 . S
C1697 H1704 0.961 . S
C1697 H1705 0.960 . S
C1698 C1696 1.381 . S
C1698 C1699 1.394 . S
C1698 H1706 0.930 . S
C1699 C1698 1.394 . S
C1699 C1700 1.383 . S
C1699 H1707 0.929 . S
C1700 C1699 1.383 . S
C1700 C1701 1.377 . S
C1701 H1685 0.930 . S
C1701 C1700 1.377 . S
C1701 C1702 1.379 . S
C1702 H1686 0.931 . S
C1702 C1696 1.383 . S
C1702 C1701 1.379 . S
H1703 C1697 0.959 . S
H1704 C1697 0.961 . S
H1705 C1697 0.960 . S
H1706 C1698 0.930 . S
H1707 C1699 0.929 . S
H1708 C1716 0.929 . S
H1709 C1718 0.930 . S
H1710 C1720 0.930 . S
H1711 C1723 0.929 . S
H1712 C1726 0.930 . S
H1713 C1728 0.960 . S
H1714 C1728 0.960 . S
H1715 C1728 0.960 . S
C1716 H1708 0.929 . S
C1716 C1717 1.377 . S
C1716 C1718 1.384 . S
C1717 C1716 1.377 . S
C1717 C1723 1.390 . S
C1718 H1709 0.930 . S
C1718 C1716 1.384 . S
C1718 C1719 1.372 . S
C1719 C1718 1.372 . S
C1719 C1720 1.400 . S
C1719 C1724 1.490 . S
C1720 H1710 0.930 . S
C1720 C1719 1.400 . S
C1720 C1723 1.386 . S
H1721 C1737 0.930 . S
H1722 C1738 0.931 . S
C1723 H1711 0.929 . S
C1723 C1717 1.390 . S
C1723 C1720 1.386 . S
C1724 C1719 1.490 . S
C1724 C1726 1.395 1_455 S
C1724 C1727 1.403 . S
H1725 C1731 0.930 . S
C1726 H1712 0.930 . S
C1726 C1724 1.395 1_655 S
C1726 C1729 1.403 . S
C1727 C1724 1.403 . S
C1727 C1728 1.524 . S
C1727 C1731 1.400 . S
C1728 H1713 0.960 . S
C1728 H1714 0.960 . S
C1728 H1715 0.960 . S
C1728 C1727 1.524 . S
C1729 C1726 1.403 . S
C1729 C1730 1.392 . S
C1729 C1733 1.495 . S
C1730 C1729 1.392 . S
C1730 C1731 1.385 1_655 S
C1730 C1732 1.478 . S
C1731 H1725 0.930 . S
C1731 C1727 1.400 . S
C1731 C1730 1.385 1_455 S
C1732 C1730 1.478 . S
C1732 C1734 1.381 1_554 S
C1732 C1738 1.383 1_554 S
C1733 C1729 1.495 . S
C1733 H1739 0.959 . S
C1733 H1740 0.961 . S
C1733 H1741 0.960 . S
C1734 C1732 1.381 1_556 S
C1734 C1735 1.394 . S
C1734 H1742 0.934 . S
C1735 C1734 1.394 . S
C1735 C1736 1.383 . S
C1735 H1743 0.929 . S
C1736 C1735 1.383 . S
C1736 C1737 1.377 . S
C1737 H1721 0.930 . S
C1737 C1736 1.377 . S
C1737 C1738 1.379 . S
C1738 H1722 0.931 . S
C1738 C1732 1.383 1_556 S
C1738 C1737 1.379 . S
H1739 C1733 0.959 . S
H1740 C1733 0.961 . S
H1741 C1733 0.960 . S
H1742 C1734 0.934 . S
H1743 C1735 0.929 . S
H1744 C1752 0.929 . S
H1745 C1754 0.930 . S
H1746 C1756 0.930 . S
H1747 C1759 0.929 . S
H1748 C1762 0.930 . S
H1749 C1764 0.960 . S
H1750 C1764 0.960 . S
H1751 C1764 0.960 . S
C1752 H1744 0.929 . S
C1752 C1753 1.377 . S
C1752 C1754 1.384 . S
C1753 C1752 1.377 . S
C1753 C1759 1.390 . S
C1754 H1745 0.930 . S
C1754 C1752 1.384 . S
C1754 C1755 1.372 . S
C1755 C1754 1.372 . S
C1755 C1756 1.400 . S
C1755 C1760 1.490 . S
C1756 H1746 0.930 . S
C1756 C1755 1.400 . S
C1756 C1759 1.386 . S
H1757 C1773 0.930 . S
H1758 C1774 0.931 . S
C1759 H1747 0.929 . S
C1759 C1753 1.390 . S
C1759 C1756 1.386 . S
C1760 C1755 1.490 . S
C1760 C1762 1.395 . S
C1760 C1763 1.403 . S
H1761 C1767 0.930 . S
C1762 H1748 0.930 . S
C1762 C1760 1.395 . S
C1762 C1765 1.403 . S
C1763 C1760 1.403 . S
C1763 C1764 1.524 . S
C1763 C1767 1.400 . S
C1764 H1749 0.960 . S
C1764 H1750 0.960 . S
C1764 H1751 0.960 . S
C1764 C1763 1.524 . S
C1765 C1762 1.403 . S
C1765 C1766 1.392 . S
C1765 C1769 1.495 . S
C1766 C1765 1.392 . S
C1766 C1767 1.385 . S
C1766 C1768 1.478 . S
C1767 H1761 0.930 . S
C1767 C1763 1.400 . S
C1767 C1766 1.385 . S
C1768 C1766 1.478 . S
C1768 C1770 1.381 . S
C1768 C1774 1.383 . S
C1769 C1765 1.495 . S
C1769 H1775 0.959 . S
C1769 H1776 0.961 . S
C1769 H1777 0.960 . S
C1770 C1768 1.381 . S
C1770 C1771 1.394 . S
C1770 H1778 0.930 . S
C1771 C1770 1.394 . S
C1771 C1772 1.383 . S
C1771 H1779 0.929 . S
C1772 C1771 1.383 . S
C1772 C1773 1.377 . S
C1773 H1757 0.930 . S
C1773 C1772 1.377 . S
C1773 C1774 1.379 . S
C1774 H1758 0.931 . S
C1774 C1768 1.383 . S
C1774 C1773 1.379 . S
H1775 C1769 0.959 . S
H1776 C1769 0.961 . S
H1777 C1769 0.960 . S
H1778 C1770 0.930 . S
H1779 C1771 0.929 . S
H1780 C1788 0.929 . S
H1781 C1790 0.930 . S
H1782 C1792 0.930 . S
H1783 C1795 0.929 . S
H1784 C1798 0.930 . S
H1785 C1800 0.960 . S
H1786 C1800 0.960 . S
H1787 C1800 0.960 . S
C1788 H1780 0.929 . S
C1788 C1789 1.377 . S
C1788 C1790 1.384 . S
C1789 C1788 1.377 . S
C1789 C1795 1.390 . S
C1790 H1781 0.930 . S
C1790 C1788 1.384 . S
C1790 C1791 1.372 . S
C1791 C1790 1.372 . S
C1791 C1792 1.400 . S
C1791 C1796 1.490 . S
C1792 H1782 0.930 . S
C1792 C1791 1.400 . S
C1792 C1795 1.386 . S
H1793 C1809 0.930 . S
H1794 C1810 0.931 . S
C1795 H1783 0.929 . S
C1795 C1789 1.390 . S
C1795 C1792 1.386 . S
C1796 C1791 1.490 . S
C1796 C1798 1.395 . S
C1796 C1799 1.403 1_655 S
H1797 C1803 0.930 . S
C1798 H1784 0.930 . S
C1798 C1796 1.395 . S
C1798 C1801 1.403 . S
C1799 C1796 1.403 1_455 S
C1799 C1800 1.524 . S
C1799 C1803 1.400 . S
C1800 H1785 0.960 . S
C1800 H1786 0.960 . S
C1800 H1787 0.960 . S
C1800 C1799 1.524 . S
C1801 C1798 1.403 . S
C1801 C1802 1.392 1_655 S
C1801 C1805 1.495 . S
C1802 C1801 1.392 1_455 S
C1802 C1803 1.385 . S
C1802 C1804 1.478 . S
C1803 H1797 0.930 . S
C1803 C1799 1.400 . S
C1803 C1802 1.385 . S
C1804 C1802 1.478 . S
C1804 C1806 1.381 . S
C1804 C1810 1.383 . S
C1805 C1801 1.495 . S
C1805 H1811 0.959 . S
C1805 H1812 0.961 . S
C1805 H1813 0.960 . S
C1806 C1804 1.381 . S
C1806 C1807 1.394 . S
C1806 H1814 0.930 . S
C1807 C1806 1.394 . S
C1807 C1808 1.383 . S
C1807 H1815 0.929 . S
C1808 C1807 1.383 . S
C1808 C1809 1.377 . S
C1809 H1793 0.930 . S
C1809 C1808 1.377 . S
C1809 C1810 1.379 . S
C1810 H1794 0.931 . S
C1810 C1804 1.383 . S
C1810 C1809 1.379 . S
H1811 C1805 0.959 . S
H1812 C1805 0.961 . S
H1813 C1805 0.960 . S
H1814 C1806 0.930 . S
H1815 C1807 0.929 . S
H1816 C1824 0.929 . S
H1817 C1826 0.930 . S
H1818 C1828 0.930 . S
H1819 C1831 0.929 . S
H1820 C1834 0.930 . S
H1821 C1836 0.960 . S
H1822 C1836 0.960 . S
H1823 C1836 0.960 . S
C1824 H1816 0.929 . S
C1824 C1825 1.377 . S
C1824 C1826 1.384 . S
C1825 C1824 1.377 . S
C1825 C1831 1.390 . S
C1826 H1817 0.930 . S
C1826 C1824 1.384 . S
C1826 C1827 1.372 . S
C1827 C1826 1.372 . S
C1827 C1828 1.400 . S
C1827 C1832 1.490 . S
C1828 H1818 0.930 . S
C1828 C1827 1.400 . S
C1828 C1831 1.386 . S
H1829 C1845 0.930 . S
H1830 C1846 0.931 . S
C1831 H1819 0.929 . S
C1831 C1825 1.390 . S
C1831 C1828 1.386 . S
C1832 C1827 1.490 . S
C1832 C1834 1.395 . S
C1832 C1835 1.403 . S
H1833 C1839 0.930 . S
C1834 H1820 0.930 . S
C1834 C1832 1.395 . S
C1834 C1837 1.403 . S
C1835 C1832 1.403 . S
C1835 C1836 1.524 . S
C1835 C1839 1.400 . S
C1836 H1821 0.960 . S
C1836 H1822 0.960 . S
C1836 H1823 0.960 . S
C1836 C1835 1.524 . S
C1837 C1834 1.403 . S
C1837 C1838 1.392 . S
C1837 C1841 1.495 . S
C1838 C1837 1.392 . S
C1838 C1839 1.385 . S
C1838 C1840 1.478 . S
C1839 H1833 0.930 . S
C1839 C1835 1.400 . S
C1839 C1838 1.385 . S
C1840 C1838 1.478 . S
C1840 C1842 1.381 . S
C1840 C1846 1.383 . S
C1841 C1837 1.495 . S
C1841 H1847 0.959 . S
C1841 H1848 0.961 . S
C1841 H1849 0.960 . S
C1842 C1840 1.381 . S
C1842 C1843 1.394 . S
C1842 H1850 0.930 . S
C1843 C1842 1.394 . S
C1843 C1844 1.383 . S
C1843 H1851 0.929 . S
C1844 C1843 1.383 . S
C1844 C1845 1.377 . S
C1845 H1829 0.930 . S
C1845 C1844 1.377 . S
C1845 C1846 1.379 . S
C1846 H1830 0.931 . S
C1846 C1840 1.383 . S
C1846 C1845 1.379 . S
H1847 C1841 0.959 . S
H1848 C1841 0.961 . S
H1849 C1841 0.960 . S
H1850 C1842 0.930 . S
H1851 C1843 0.929 . S
H1852 C1860 0.929 . S
H1853 C1862 0.930 . S
H1854 C1864 0.930 1_556 S
H1855 C1867 0.929 . S
H1856 C1870 0.930 . S
H1857 C1872 0.960 . S
H1858 C1872 0.960 . S
H1859 C1872 0.960 . S
C1860 H1852 0.929 . S
C1860 C1861 1.377 . S
C1860 C1862 1.384 . S
C1861 C1860 1.377 . S
C1861 C1867 1.390 . S
C1862 H1853 0.930 . S
C1862 C1860 1.384 . S
C1862 C1863 1.372 . S
C1863 C1862 1.372 . S
C1863 C1864 1.400 . S
C1863 C1868 1.490 1_554 S
C1864 H1854 0.930 1_554 S
C1864 C1863 1.400 . S
C1864 C1867 1.386 . S
H1865 C1881 0.930 . S
H1866 C1882 0.931 . S
C1867 H1855 0.929 . S
C1867 C1861 1.390 . S
C1867 C1864 1.386 . S
C1868 C1863 1.490 1_556 S
C1868 C1870 1.395 . S
C1868 C1871 1.403 . S
H1869 C1875 0.930 . S
C1870 H1856 0.930 . S
C1870 C1868 1.395 . S
C1870 C1873 1.403 . S
C1871 C1868 1.403 . S
C1871 C1872 1.524 . S
C1871 C1875 1.400 . S
C1872 H1857 0.960 . S
C1872 H1858 0.960 . S
C1872 H1859 0.960 . S
C1872 C1871 1.524 . S
C1873 C1870 1.403 . S
C1873 C1874 1.392 . S
C1873 C1877 1.495 . S
C1874 C1873 1.392 . S
C1874 C1875 1.385 . S
C1874 C1876 1.478 . S
C1875 H1869 0.930 . S
C1875 C1871 1.400 . S
C1875 C1874 1.385 . S
C1876 C1874 1.478 . S
C1876 C1878 1.381 . S
C1876 C1882 1.383 . S
C1877 C1873 1.495 . S
C1877 H1883 0.959 . S
C1877 H1884 0.961 . S
C1877 H1885 0.960 . S
C1878 C1876 1.381 . S
C1878 C1879 1.394 . S
C1878 H1886 0.930 . S
C1879 C1878 1.394 . S
C1879 C1880 1.383 . S
C1879 H1887 0.929 . S
C1880 C1879 1.383 . S
C1880 C1881 1.377 . S
C1881 H1865 0.930 . S
C1881 C1880 1.377 . S
C1881 C1882 1.379 . S
C1882 H1866 0.931 . S
C1882 C1876 1.383 . S
C1882 C1881 1.379 . S
H1883 C1877 0.959 . S
H1884 C1877 0.961 . S
H1885 C1877 0.960 . S
H1886 C1878 0.930 . S
H1887 C1879 0.929 . S
H1888 C1896 0.929 . S
H1889 C1898 0.930 . S
H1890 C1900 0.930 . S
H1891 C1903 0.929 . S
H1892 C1906 0.930 . S
H1893 C1908 0.960 . S
H1894 C1908 0.960 . S
H1895 C1908 0.960 . S
C1896 H1888 0.929 . S
C1896 C1897 1.377 . S
C1896 C1898 1.384 . S
C1897 C1896 1.377 . S
C1897 C1903 1.390 . S
C1898 H1889 0.930 . S
C1898 C1896 1.384 . S
C1898 C1899 1.372 . S
C1899 C1898 1.372 . S
C1899 C1900 1.400 . S
C1899 C1904 1.490 . S
C1900 H1890 0.930 . S
C1900 C1899 1.400 . S
C1900 C1903 1.386 . S
H1901 C1917 0.930 . S
H1902 C1918 0.931 . S
C1903 H1891 0.929 . S
C1903 C1897 1.390 . S
C1903 C1900 1.386 . S
C1904 C1899 1.490 . S
C1904 C1906 1.395 . S
C1904 C1907 1.403 . S
H1905 C1911 0.930 . S
C1906 H1892 0.930 . S
C1906 C1904 1.395 . S
C1906 C1909 1.403 . S
C1907 C1904 1.403 . S
C1907 C1908 1.524 . S
C1907 C1911 1.400 . S
C1908 H1893 0.960 . S
C1908 H1894 0.960 . S
C1908 H1895 0.960 . S
C1908 C1907 1.524 . S
C1909 C1906 1.403 . S
C1909 C1910 1.392 . S
C1909 C1913 1.495 . S
C1910 C1909 1.392 . S
C1910 C1911 1.385 . S
C1910 C1912 1.478 . S
C1911 H1905 0.930 . S
C1911 C1907 1.400 . S
C1911 C1910 1.385 . S
C1912 C1910 1.478 . S
C1912 C1914 1.381 . S
C1912 C1918 1.383 . S
C1913 C1909 1.495 . S
C1913 H1919 0.959 . S
C1913 H1920 0.961 . S
C1913 H1921 0.960 . S
C1914 C1912 1.381 . S
C1914 C1915 1.394 . S
C1914 H1922 0.930 . S
C1915 C1914 1.394 . S
C1915 C1916 1.383 . S
C1915 H1923 0.929 . S
C1916 C1915 1.383 . S
C1916 C1917 1.377 . S
C1917 H1901 0.930 . S
C1917 C1916 1.377 . S
C1917 C1918 1.379 . S
C1918 H1902 0.931 . S
C1918 C1912 1.383 . S
C1918 C1917 1.379 . S
H1919 C1913 0.959 . S
H1920 C1913 0.961 . S
H1921 C1913 0.960 . S
H1922 C1914 0.930 . S
H1923 C1915 0.929 . S
H1924 C1932 0.929 . S
H1925 C1934 0.930 . S
H1926 C1936 0.930 . S
H1927 C1939 0.929 . S
H1928 C1942 0.930 . S
H1929 C1944 0.960 . S
H1930 C1944 0.960 . S
H1931 C1944 0.960 . S
C1932 H1924 0.929 . S
C1932 C1933 1.377 . S
C1932 C1934 1.384 . S
C1933 C1932 1.377 . S
C1933 C1939 1.390 . S
C1934 H1925 0.930 . S
C1934 C1932 1.384 . S
C1934 C1935 1.372 . S
C1935 C1934 1.372 . S
C1935 C1936 1.400 . S
C1935 C1940 1.490 . S
C1936 H1926 0.930 . S
C1936 C1935 1.400 . S
C1936 C1939 1.386 . S
H1937 C1953 0.930 . S
H1938 C1954 0.931 . S
C1939 H1927 0.929 . S
C1939 C1933 1.390 . S
C1939 C1936 1.386 . S
C1940 C1935 1.490 . S
C1940 C1942 1.395 . S
C1940 C1943 1.403 . S
H1941 C1947 0.930 . S
C1942 H1928 0.930 . S
C1942 C1940 1.395 . S
C1942 C1945 1.403 . S
C1943 C1940 1.403 . S
C1943 C1944 1.524 . S
C1943 C1947 1.400 . S
C1944 H1929 0.960 . S
C1944 H1930 0.960 . S
C1944 H1931 0.960 . S
C1944 C1943 1.524 . S
C1945 C1942 1.403 . S
C1945 C1946 1.392 . S
C1945 C1949 1.495 . S
C1946 C1945 1.392 . S
C1946 C1947 1.385 . S
C1946 C1948 1.478 . S
C1947 H1941 0.930 . S
C1947 C1943 1.400 . S
C1947 C1946 1.385 . S
C1948 C1946 1.478 . S
C1948 C1950 1.381 . S
C1948 C1954 1.383 . S
C1949 C1945 1.495 . S
C1949 H1955 0.959 . S
C1949 H1956 0.961 . S
C1949 H1957 0.960 . S
C1950 C1948 1.381 . S
C1950 C1951 1.394 . S
C1950 H1958 0.930 . S
C1951 C1950 1.394 . S
C1951 C1952 1.383 . S
C1951 H1959 0.929 . S
C1952 C1951 1.383 . S
C1952 C1953 1.377 . S
C1953 H1937 0.930 . S
C1953 C1952 1.377 . S
C1953 C1954 1.379 . S
C1954 H1938 0.931 . S
C1954 C1948 1.383 . S
C1954 C1953 1.379 . S
H1955 C1949 0.959 . S
H1956 C1949 0.961 . S
H1957 C1949 0.960 . S
H1958 C1950 0.930 . S
H1959 C1951 0.929 . S
H1960 C1968 0.929 . S
H1961 C1970 0.930 . S
H1962 C1972 0.930 . S
H1963 C1975 0.929 . S
H1964 C1978 0.930 . S
H1965 C1980 0.960 . S
H1966 C1980 0.960 . S
H1967 C1980 0.960 . S
C1968 H1960 0.929 . S
C1968 C1969 1.377 . S
C1968 C1970 1.384 . S
C1969 C1968 1.377 . S
C1969 C1975 1.390 . S
C1970 H1961 0.930 . S
C1970 C1968 1.384 . S
C1970 C1971 1.372 . S
C1971 C1970 1.372 . S
C1971 C1972 1.400 . S
C1971 C1976 1.490 . S
C1972 H1962 0.930 . S
C1972 C1971 1.400 . S
C1972 C1975 1.386 . S
H1973 C1989 0.930 . S
H1974 C1990 0.931 . S
C1975 H1963 0.929 . S
C1975 C1969 1.390 . S
C1975 C1972 1.386 . S
C1976 C1971 1.490 . S
C1976 C1978 1.395 . S
C1976 C1979 1.403 . S
H1977 C1983 0.930 . S
C1978 H1964 0.930 . S
C1978 C1976 1.395 . S
C1978 C1981 1.403 . S
C1979 C1976 1.403 . S
C1979 C1980 1.524 . S
C1979 C1983 1.400 . S
C1980 H1965 0.960 . S
C1980 H1966 0.960 . S
C1980 H1967 0.960 . S
C1980 C1979 1.524 . S
C1981 C1978 1.403 . S
C1981 C1982 1.392 . S
C1981 C1985 1.495 . S
C1982 C1981 1.392 . S
C1982 C1983 1.385 . S
C1982 C1984 1.478 . S
C1983 H1977 0.930 . S
C1983 C1979 1.400 . S
C1983 C1982 1.385 . S
C1984 C1982 1.478 . S
C1984 C1986 1.381 . S
C1984 C1990 1.383 . S
C1985 C1981 1.495 . S
C1985 H1991 0.959 . S
C1985 H1992 0.961 . S
C1985 H1993 0.960 . S
C1986 C1984 1.381 . S
C1986 C1987 1.394 . S
C1986 H1994 0.930 . S
C1987 C1986 1.394 . S
C1987 C1988 1.383 . S
C1987 H1995 0.929 . S
C1988 C1987 1.383 . S
C1988 C1989 1.377 . S
C1989 H1973 0.930 . S
C1989 C1988 1.377 . S
C1989 C1990 1.379 . S
C1990 H1974 0.931 . S
C1990 C1984 1.383 . S
C1990 C1989 1.379 . S
H1991 C1985 0.959 . S
H1992 C1985 0.961 . S
H1993 C1985 0.960 . S
H1994 C1986 0.930 . S
H1995 C1987 0.929 . S
H1996 C2004 0.929 . S
H1997 C2006 0.930 . S
H1998 C2008 0.930 . S
H1999 C2011 0.929 . S
H2000 C2014 0.930 . S
H2001 C2016 0.960 . S
H2002 C2016 0.960 . S
H2003 C2016 0.960 . S
C2004 H1996 0.929 . S
C2004 C2005 1.377 . S
C2004 C2006 1.384 . S
C2005 C2004 1.377 . S
C2005 C2011 1.390 . S
C2006 H1997 0.930 . S
C2006 C2004 1.384 . S
C2006 C2007 1.372 . S
C2007 C2006 1.372 . S
C2007 C2008 1.400 . S
C2007 C2012 1.490 . S
C2008 H1998 0.930 . S
C2008 C2007 1.400 . S
C2008 C2011 1.386 . S
H2009 C2025 0.930 . S
H2010 C2026 0.931 1_556 S
C2011 H1999 0.929 . S
C2011 C2005 1.390 . S
C2011 C2008 1.386 . S
C2012 C2007 1.490 . S
C2012 C2014 1.395 . S
C2012 C2015 1.403 1_655 S
H2013 C2019 0.930 . S
C2014 H2000 0.930 . S
C2014 C2012 1.395 . S
C2014 C2017 1.403 . S
C2015 C2012 1.403 1_455 S
C2015 C2016 1.524 . S
C2015 C2019 1.400 . S
C2016 H2001 0.960 . S
C2016 H2002 0.960 . S
C2016 H2003 0.960 . S
C2016 C2015 1.524 . S
C2017 C2014 1.403 . S
C2017 C2018 1.392 1_655 S
C2017 C2021 1.495 1_556 S
C2018 C2017 1.392 1_455 S
C2018 C2019 1.385 . S
C2018 C2020 1.478 1_556 S
C2019 H2013 0.930 . S
C2019 C2015 1.400 . S
C2019 C2018 1.385 . S
C2020 C2018 1.478 1_554 S
C2020 C2022 1.381 . S
C2020 C2026 1.383 . S
C2021 C2017 1.495 1_554 S
C2021 H2027 0.959 1_554 S
C2021 H2028 0.961 . S
C2021 H2029 0.960 . S
C2022 C2020 1.381 . S
C2022 C2023 1.394 . S
C2022 H2030 0.930 . S
C2023 C2022 1.394 . S
C2023 C2024 1.383 . S
C2023 H2031 0.929 . S
C2024 C2023 1.383 . S
C2024 C2025 1.377 . S
C2025 H2009 0.930 . S
C2025 C2024 1.377 . S
C2025 C2026 1.379 . S
C2026 H2010 0.931 1_554 S
C2026 C2020 1.383 . S
C2026 C2025 1.379 . S
H2027 C2021 0.959 1_556 S
H2028 C2021 0.961 . S
H2029 C2021 0.960 . S
H2030 C2022 0.930 . S
H2031 C2023 0.929 . S
H2032 C2040 0.929 . S
H2033 C2042 0.930 . S
H2034 C2044 0.930 . S
H2035 C2047 0.929 . S
H2036 C2050 0.930 . S
H2037 C2052 0.960 . S
H2038 C2052 0.960 . S
H2039 C2052 0.960 . S
C2040 H2032 0.929 . S
C2040 C2041 1.377 . S
C2040 C2042 1.384 . S
C2041 C2040 1.377 . S
C2041 C2047 1.390 . S
C2042 H2033 0.930 . S
C2042 C2040 1.384 . S
C2042 C2043 1.372 . S
C2043 C2042 1.372 . S
C2043 C2044 1.400 . S
C2043 C2048 1.490 . S
C2044 H2034 0.930 . S
C2044 C2043 1.400 . S
C2044 C2047 1.386 . S
H2045 C2061 0.930 . S
H2046 C2062 0.931 . S
C2047 H2035 0.929 . S
C2047 C2041 1.390 . S
C2047 C2044 1.386 . S
C2048 C2043 1.490 . S
C2048 C2050 1.395 . S
C2048 C2051 1.403 . S
H2049 C2055 0.930 . S
C2050 H2036 0.930 . S
C2050 C2048 1.395 . S
C2050 C2053 1.403 . S
C2051 C2048 1.403 . S
C2051 C2052 1.524 . S
C2051 C2055 1.400 . S
C2052 H2037 0.960 . S
C2052 H2038 0.960 . S
C2052 H2039 0.960 . S
C2052 C2051 1.524 . S
C2053 C2050 1.403 . S
C2053 C2054 1.392 . S
C2053 C2057 1.495 . S
C2054 C2053 1.392 . S
C2054 C2055 1.385 . S
C2054 C2056 1.478 . S
C2055 H2049 0.930 . S
C2055 C2051 1.400 . S
C2055 C2054 1.385 . S
C2056 C2054 1.478 . S
C2056 C2058 1.381 . S
C2056 C2062 1.383 . S
C2057 C2053 1.495 . S
C2057 H2063 0.959 . S
C2057 H2064 0.961 . S
C2057 H2065 0.960 . S
C2058 C2056 1.381 . S
C2058 C2059 1.394 . S
C2058 H2066 0.930 . S
C2059 C2058 1.394 . S
C2059 C2060 1.383 . S
C2059 H2067 0.929 . S
C2060 C2059 1.383 . S
C2060 C2061 1.377 . S
C2061 H2045 0.930 . S
C2061 C2060 1.377 . S
C2061 C2062 1.379 . S
C2062 H2046 0.931 . S
C2062 C2056 1.383 . S
C2062 C2061 1.379 . S
H2063 C2057 0.959 . S
H2064 C2057 0.961 . S
H2065 C2057 0.960 . S
H2066 C2058 0.930 . S
H2067 C2059 0.929 . S
H2068 C2076 0.929 . S
H2069 C2078 0.930 . S
H2070 C2080 0.930 . S
H2071 C2083 0.929 . S
H2072 C2086 0.930 . S
H2073 C2088 0.960 . S
H2074 C2088 0.960 . S
H2075 C2088 0.960 . S
C2076 H2068 0.929 . S
C2076 C2077 1.377 . S
C2076 C2078 1.384 . S
C2077 C2076 1.377 . S
C2077 C2083 1.390 . S
C2078 H2069 0.930 . S
C2078 C2076 1.384 . S
C2078 C2079 1.372 . S
C2079 C2078 1.372 . S
C2079 C2080 1.400 . S
C2079 C2084 1.490 . S
C2080 H2070 0.930 . S
C2080 C2079 1.400 . S
C2080 C2083 1.386 . S
H2081 C2097 0.930 . S
H2082 C2098 0.931 . S
C2083 H2071 0.929 . S
C2083 C2077 1.390 . S
C2083 C2080 1.386 . S
C2084 C2079 1.490 . S
C2084 C2086 1.395 . S
C2084 C2087 1.403 1_655 S
H2085 C2091 0.930 . S
C2086 H2072 0.930 . S
C2086 C2084 1.395 . S
C2086 C2089 1.403 . S
C2087 C2084 1.403 1_455 S
C2087 C2088 1.524 . S
C2087 C2091 1.400 . S
C2088 H2073 0.960 . S
C2088 H2074 0.960 . S
C2088 H2075 0.960 . S
C2088 C2087 1.524 . S
C2089 C2086 1.403 . S
C2089 C2090 1.392 1_655 S
C2089 C2093 1.495 . S
C2090 C2089 1.392 1_455 S
C2090 C2091 1.385 . S
C2090 C2092 1.478 . S
C2091 H2085 0.930 . S
C2091 C2087 1.400 . S
C2091 C2090 1.385 . S
C2092 C2090 1.478 . S
C2092 C2094 1.381 . S
C2092 C2098 1.383 . S
C2093 C2089 1.495 . S
C2093 H2099 0.959 . S
C2093 H2100 0.961 . S
C2093 H2101 0.960 . S
C2094 C2092 1.381 . S
C2094 C2095 1.394 . S
C2094 H2102 0.930 . S
C2095 C2094 1.394 . S
C2095 C2096 1.383 . S
C2095 H2103 0.929 . S
C2096 C2095 1.383 . S
C2096 C2097 1.377 . S
C2097 H2081 0.930 . S
C2097 C2096 1.377 . S
C2097 C2098 1.379 . S
C2098 H2082 0.931 . S
C2098 C2092 1.383 . S
C2098 C2097 1.379 . S
H2099 C2093 0.959 . S
H2100 C2093 0.961 . S
H2101 C2093 0.960 . S
H2102 C2094 0.930 . S
H2103 C2095 0.929 . S
H2104 C2112 0.929 . S
H2105 C2114 0.930 . S
H2106 C2116 0.930 . S
H2107 C2119 0.929 . S
H2108 C2122 0.930 . S
H2109 C2124 0.960 . S
H2110 C2124 0.960 . S
H2111 C2124 0.960 . S
C2112 H2104 0.929 . S
C2112 C2113 1.377 . S
C2112 C2114 1.384 . S
C2113 C2112 1.377 . S
C2113 C2119 1.390 . S
C2114 H2105 0.930 . S
C2114 C2112 1.384 . S
C2114 C2115 1.372 . S
C2115 C2114 1.372 . S
C2115 C2116 1.400 . S
C2115 C2120 1.490 . S
C2116 H2106 0.930 . S
C2116 C2115 1.400 . S
C2116 C2119 1.386 . S
H2117 C2133 0.930 . S
H2118 C2134 0.931 . S
C2119 H2107 0.929 . S
C2119 C2113 1.390 . S
C2119 C2116 1.386 . S
C2120 C2115 1.490 . S
C2120 C2122 1.395 . S
C2120 C2123 1.403 . S
H2121 C2127 0.930 . S
C2122 H2108 0.930 . S
C2122 C2120 1.395 . S
C2122 C2125 1.403 . S
C2123 C2120 1.403 . S
C2123 C2124 1.524 . S
C2123 C2127 1.400 . S
C2124 H2109 0.960 . S
C2124 H2110 0.960 . S
C2124 H2111 0.960 . S
C2124 C2123 1.524 . S
C2125 C2122 1.403 . S
C2125 C2126 1.392 . S
C2125 C2129 1.495 . S
C2126 C2125 1.392 . S
C2126 C2127 1.385 . S
C2126 C2128 1.478 . S
C2127 H2121 0.930 . S
C2127 C2123 1.400 . S
C2127 C2126 1.385 . S
C2128 C2126 1.478 . S
C2128 C2130 1.381 . S
C2128 C2134 1.383 . S
C2129 C2125 1.495 . S
C2129 H2135 0.959 . S
C2129 H2136 0.961 . S
C2129 H2137 0.960 . S
C2130 C2128 1.381 . S
C2130 C2131 1.394 . S
C2130 H2138 0.930 . S
C2131 C2130 1.394 . S
C2131 C2132 1.383 . S
C2131 H2139 0.929 . S
C2132 C2131 1.383 . S
C2132 C2133 1.377 . S
C2133 H2117 0.930 . S
C2133 C2132 1.377 . S
C2133 C2134 1.379 . S
C2134 H2118 0.931 . S
C2134 C2128 1.383 . S
C2134 C2133 1.379 . S
H2135 C2129 0.959 . S
H2136 C2129 0.961 . S
H2137 C2129 0.960 . S
H2138 C2130 0.930 . S
H2139 C2131 0.929 . S
H2140 C2148 0.929 . S
H2141 C2150 0.930 . S
H2142 C2152 0.930 . S
H2143 C2155 0.929 . S
H2144 C2158 0.930 . S
H2145 C2160 0.960 . S
H2146 C2160 0.960 . S
H2147 C2160 0.960 . S
C2148 H2140 0.929 . S
C2148 C2149 1.377 . S
C2148 C2150 1.384 . S
C2149 C2148 1.377 . S
C2149 C2155 1.390 . S
C2150 H2141 0.930 . S
C2150 C2148 1.384 . S
C2150 C2151 1.372 . S
C2151 C2150 1.372 . S
C2151 C2152 1.400 . S
C2151 C2156 1.490 . S
C2152 H2142 0.930 . S
C2152 C2151 1.400 . S
C2152 C2155 1.386 . S
H2153 C2169 0.930 . S
H2154 C2170 0.931 . S
C2155 H2143 0.929 . S
C2155 C2149 1.390 . S
C2155 C2152 1.386 . S
C2156 C2151 1.490 . S
C2156 C2158 1.395 . S
C2156 C2159 1.403 . S
H2157 C2163 0.930 . S
C2158 H2144 0.930 . S
C2158 C2156 1.395 . S
C2158 C2161 1.403 . S
C2159 C2156 1.403 . S
C2159 C2160 1.524 . S
C2159 C2163 1.400 . S
C2160 H2145 0.960 . S
C2160 H2146 0.960 . S
C2160 H2147 0.960 . S
C2160 C2159 1.524 . S
C2161 C2158 1.403 . S
C2161 C2162 1.392 . S
C2161 C2165 1.495 . S
C2162 C2161 1.392 . S
C2162 C2163 1.385 . S
C2162 C2164 1.478 . S
C2163 H2157 0.930 . S
C2163 C2159 1.400 . S
C2163 C2162 1.385 . S
C2164 C2162 1.478 . S
C2164 C2166 1.381 1_554 S
C2164 C2170 1.383 1_554 S
C2165 C2161 1.495 . S
C2165 H2171 0.959 . S
C2165 H2172 0.961 . S
C2165 H2173 0.960 . S
C2166 C2164 1.381 1_556 S
C2166 C2167 1.394 . S
C2166 H2174 0.930 1_556 S
C2167 C2166 1.394 . S
C2167 C2168 1.383 . S
C2167 H2175 0.929 . S
C2168 C2167 1.383 . S
C2168 C2169 1.377 . S
C2169 H2153 0.930 . S
C2169 C2168 1.377 . S
C2169 C2170 1.379 . S
C2170 H2154 0.931 . S
C2170 C2164 1.383 1_556 S
C2170 C2169 1.379 . S
H2171 C2165 0.959 . S
H2172 C2165 0.961 . S
H2173 C2165 0.960 . S
H2174 C2166 0.930 1_554 S
H2175 C2167 0.929 . S
H2176 C2184 0.929 . S
H2177 C2186 0.930 . S
H2178 C2188 0.930 . S
H2179 C2191 0.929 . S
H2180 C2194 0.930 . S
H2181 C2196 0.960 . S
H2182 C2196 0.960 . S
H2183 C2196 0.960 . S
C2184 H2176 0.929 . S
C2184 C2185 1.377 . S
C2184 C2186 1.384 . S
C2185 C2184 1.377 . S
C2185 C2191 1.390 . S
C2186 H2177 0.930 . S
C2186 C2184 1.384 . S
C2186 C2187 1.372 . S
C2187 C2186 1.372 . S
C2187 C2188 1.400 . S
C2187 C2192 1.490 . S
C2188 H2178 0.930 . S
C2188 C2187 1.400 . S
C2188 C2191 1.386 . S
H2189 C2205 0.930 . S
H2190 C2206 0.931 . S
C2191 H2179 0.929 . S
C2191 C2185 1.390 . S
C2191 C2188 1.386 . S
C2192 C2187 1.490 . S
C2192 C2194 1.395 . S
C2192 C2195 1.403 . S
H2193 C2199 0.930 . S
C2194 H2180 0.930 . S
C2194 C2192 1.395 . S
C2194 C2197 1.403 . S
C2195 C2192 1.403 . S
C2195 C2196 1.524 . S
C2195 C2199 1.400 . S
C2196 H2181 0.960 . S
C2196 H2182 0.960 . S
C2196 H2183 0.960 . S
C2196 C2195 1.524 . S
C2197 C2194 1.403 . S
C2197 C2198 1.392 . S
C2197 C2201 1.495 . S
C2198 C2197 1.392 . S
C2198 C2199 1.385 . S
C2198 C2200 1.478 . S
C2199 H2193 0.930 . S
C2199 C2195 1.400 . S
C2199 C2198 1.385 . S
C2200 C2198 1.478 . S
C2200 C2202 1.381 . S
C2200 C2206 1.383 . S
C2201 C2197 1.495 . S
C2201 H2207 0.959 . S
C2201 H2208 0.961 . S
C2201 H2209 0.960 . S
C2202 C2200 1.381 . S
C2202 C2203 1.394 . S
C2202 H2210 0.930 . S
C2203 C2202 1.394 . S
C2203 C2204 1.383 . S
C2203 H2211 0.929 . S
C2204 C2203 1.383 . S
C2204 C2205 1.377 . S
C2205 H2189 0.930 . S
C2205 C2204 1.377 . S
C2205 C2206 1.379 . S
C2206 H2190 0.931 . S
C2206 C2200 1.383 . S
C2206 C2205 1.379 . S
H2207 C2201 0.959 . S
H2208 C2201 0.961 . S
H2209 C2201 0.960 . S
H2210 C2202 0.930 . S
H2211 C2203 0.929 . S
H2212 C2220 0.929 . S
H2213 C2222 0.930 . S
H2214 C2224 0.930 . S
H2215 C2227 0.929 . S
H2216 C2230 0.930 . S
H2217 C2232 0.960 . S
H2218 C2232 0.960 . S
H2219 C2232 0.960 . S
C2220 H2212 0.929 . S
C2220 C2221 1.377 . S
C2220 C2222 1.384 . S
C2221 C2220 1.377 . S
C2221 C2227 1.390 . S
C2222 H2213 0.930 . S
C2222 C2220 1.384 . S
C2222 C2223 1.372 . S
C2223 C2222 1.372 . S
C2223 C2224 1.400 . S
C2223 C2228 1.490 . S
C2224 H2214 0.930 . S
C2224 C2223 1.400 . S
C2224 C2227 1.386 . S
H2225 C2241 0.930 . S
H2226 C2242 0.931 . S
C2227 H2215 0.929 . S
C2227 C2221 1.390 . S
C2227 C2224 1.386 . S
C2228 C2223 1.490 . S
C2228 C2230 1.395 . S
C2228 C2231 1.403 . S
H2229 C2235 0.930 . S
C2230 H2216 0.930 . S
C2230 C2228 1.395 . S
C2230 C2233 1.403 . S
C2231 C2228 1.403 . S
C2231 C2232 1.524 . S
C2231 C2235 1.400 . S
C2232 H2217 0.960 . S
C2232 H2218 0.960 . S
C2232 H2219 0.960 . S
C2232 C2231 1.524 . S
C2233 C2230 1.403 . S
C2233 C2234 1.392 . S
C2233 C2237 1.495 . S
C2234 C2233 1.392 . S
C2234 C2235 1.385 . S
C2234 C2236 1.478 . S
C2235 H2229 0.930 . S
C2235 C2231 1.400 . S
C2235 C2234 1.385 . S
C2236 C2234 1.478 . S
C2236 C2238 1.381 . S
C2236 C2242 1.383 . S
C2237 C2233 1.495 . S
C2237 H2243 0.959 . S
C2237 H2244 0.961 . S
C2237 H2245 0.960 . S
C2238 C2236 1.381 . S
C2238 C2239 1.394 . S
C2238 H2246 0.930 . S
C2239 C2238 1.394 . S
C2239 C2240 1.383 . S
C2239 H2247 0.929 . S
C2240 C2239 1.383 . S
C2240 C2241 1.377 . S
C2241 H2225 0.930 . S
C2241 C2240 1.377 . S
C2241 C2242 1.379 . S
C2242 H2226 0.931 . S
C2242 C2236 1.383 . S
C2242 C2241 1.379 . S
H2243 C2237 0.959 . S
H2244 C2237 0.961 . S
H2245 C2237 0.960 . S
H2246 C2238 0.930 . S
H2247 C2239 0.929 . S
H2248 C2256 0.929 . S
H2249 C2258 0.930 . S
H2250 C2260 0.930 . S
H2251 C2263 0.929 . S
H2252 C2266 0.930 . S
H2253 C2268 0.960 . S
H2254 C2268 0.960 . S
H2255 C2268 0.960 . S
C2256 H2248 0.929 . S
C2256 C2257 1.377 . S
C2256 C2258 1.384 . S
C2257 C2256 1.377 . S
C2257 C2263 1.390 . S
C2258 H2249 0.930 . S
C2258 C2256 1.384 . S
C2258 C2259 1.372 . S
C2259 C2258 1.372 . S
C2259 C2260 1.400 . S
C2259 C2264 1.490 . S
C2260 H2250 0.930 . S
C2260 C2259 1.400 . S
C2260 C2263 1.386 . S
H2261 C2277 0.930 . S
H2262 C2278 0.931 . S
C2263 H2251 0.929 . S
C2263 C2257 1.390 . S
C2263 C2260 1.386 . S
C2264 C2259 1.490 . S
C2264 C2266 1.395 . S
C2264 C2267 1.403 . S
H2265 C2271 0.930 . S
C2266 H2252 0.930 . S
C2266 C2264 1.395 . S
C2266 C2269 1.403 . S
C2267 C2264 1.403 . S
C2267 C2268 1.524 . S
C2267 C2271 1.400 . S
C2268 H2253 0.960 . S
C2268 H2254 0.960 . S
C2268 H2255 0.960 . S
C2268 C2267 1.524 . S
C2269 C2266 1.403 . S
C2269 C2270 1.392 . S
C2269 C2273 1.495 . S
C2270 C2269 1.392 . S
C2270 C2271 1.385 . S
C2270 C2272 1.478 . S
C2271 H2265 0.930 . S
C2271 C2267 1.400 . S
C2271 C2270 1.385 . S
C2272 C2270 1.478 . S
C2272 C2274 1.381 . S
C2272 C2278 1.383 . S
C2273 C2269 1.495 . S
C2273 H2279 0.959 . S
C2273 H2280 0.961 . S
C2273 H2281 0.960 . S
C2274 C2272 1.381 . S
C2274 C2275 1.394 . S
C2274 H2282 0.930 . S
C2275 C2274 1.394 . S
C2275 C2276 1.383 . S
C2275 H2283 0.929 . S
C2276 C2275 1.383 . S
C2276 C2277 1.377 . S
C2277 H2261 0.930 . S
C2277 C2276 1.377 . S
C2277 C2278 1.379 . S
C2278 H2262 0.931 . S
C2278 C2272 1.383 . S
C2278 C2277 1.379 . S
H2279 C2273 0.959 . S
H2280 C2273 0.961 . S
H2281 C2273 0.960 . S
H2282 C2274 0.930 . S
H2283 C2275 0.929 . S
H2284 C2292 0.929 . S
H2285 C2294 0.930 . S
H2286 C2296 0.930 . S
H2287 C2299 0.929 . S
H2288 C2302 0.930 . S
H2289 C2304 0.960 . S
H2290 C2304 0.960 . S
H2291 C2304 0.960 . S
C2292 H2284 0.929 . S
C2292 C2293 1.377 . S
C2292 C2294 1.384 . S
C2293 C2292 1.377 . S
C2293 C2299 1.390 . S
C2294 H2285 0.930 . S
C2294 C2292 1.384 . S
C2294 C2295 1.372 . S
C2295 C2294 1.372 . S
C2295 C2296 1.400 . S
C2295 C2300 1.490 . S
C2296 H2286 0.930 . S
C2296 C2295 1.400 . S
C2296 C2299 1.386 . S
H2297 C2313 0.930 . S
H2298 C2314 0.931 . S
C2299 H2287 0.929 . S
C2299 C2293 1.390 . S
C2299 C2296 1.386 . S
C2300 C2295 1.490 . S
C2300 C2302 1.395 . S
C2300 C2303 1.403 . S
H2301 C2307 0.930 . S
C2302 H2288 0.930 . S
C2302 C2300 1.395 . S
C2302 C2305 1.403 . S
C2303 C2300 1.403 . S
C2303 C2304 1.524 . S
C2303 C2307 1.400 . S
C2304 H2289 0.960 . S
C2304 H2290 0.960 . S
C2304 H2291 0.960 . S
C2304 C2303 1.524 . S
C2305 C2302 1.403 . S
C2305 C2306 1.392 . S
C2305 C2309 1.495 . S
C2306 C2305 1.392 . S
C2306 C2307 1.385 . S
C2306 C2308 1.478 . S
C2307 H2301 0.930 . S
C2307 C2303 1.400 . S
C2307 C2306 1.385 . S
C2308 C2306 1.478 . S
C2308 C2310 1.381 . S
C2308 C2314 1.383 . S
C2309 C2305 1.495 . S
C2309 H2315 0.959 . S
C2309 H2316 0.961 . S
C2309 H2317 0.960 . S
C2310 C2308 1.381 . S
C2310 C2311 1.394 . S
C2310 H2318 0.930 . S
C2311 C2310 1.394 . S
C2311 C2312 1.383 . S
C2311 H2319 0.929 . S
C2312 C2311 1.383 . S
C2312 C2313 1.377 . S
C2313 H2297 0.930 . S
C2313 C2312 1.377 . S
C2313 C2314 1.379 . S
C2314 H2298 0.931 . S
C2314 C2308 1.383 . S
C2314 C2313 1.379 . S
H2315 C2309 0.959 . S
H2316 C2309 0.961 . S
H2317 C2309 0.960 . S
H2318 C2310 0.930 . S
H2319 C2311 0.929 . S
H2320 C2328 0.929 . S
H2321 C2330 0.930 . S
H2322 C2332 0.930 . S
H2323 C2335 0.929 . S
H2324 C2338 0.930 . S
H2325 C2340 0.960 . S
H2326 C2340 0.960 . S
H2327 C2340 0.960 . S
C2328 H2320 0.929 . S
C2328 C2329 1.377 . S
C2328 C2330 1.384 . S
C2329 C2328 1.377 . S
C2329 C2335 1.390 . S
C2330 H2321 0.930 . S
C2330 C2328 1.384 . S
C2330 C2331 1.372 . S
C2331 C2330 1.372 . S
C2331 C2332 1.400 . S
C2331 C2336 1.490 . S
C2332 H2322 0.930 . S
C2332 C2331 1.400 . S
C2332 C2335 1.386 . S
H2333 C2349 0.930 . S
H2334 C2350 0.931 . S
C2335 H2323 0.929 . S
C2335 C2329 1.390 . S
C2335 C2332 1.386 . S
C2336 C2331 1.490 . S
C2336 C2338 1.395 . S
C2336 C2339 1.403 . S
H2337 C2343 0.930 . S
C2338 H2324 0.930 . S
C2338 C2336 1.395 . S
C2338 C2341 1.403 . S
C2339 C2336 1.403 . S
C2339 C2340 1.524 . S
C2339 C2343 1.400 . S
C2340 H2325 0.960 . S
C2340 H2326 0.960 . S
C2340 H2327 0.960 . S
C2340 C2339 1.524 . S
C2341 C2338 1.403 . S
C2341 C2342 1.392 . S
C2341 C2345 1.495 . S
C2342 C2341 1.392 . S
C2342 C2343 1.385 . S
C2342 C2344 1.478 . S
C2343 H2337 0.930 . S
C2343 C2339 1.400 . S
C2343 C2342 1.385 . S
C2344 C2342 1.478 . S
C2344 C2346 1.381 . S
C2344 C2350 1.383 . S
C2345 C2341 1.495 . S
C2345 H2351 0.959 . S
C2345 H2352 0.961 . S
C2345 H2353 0.960 . S
C2346 C2344 1.381 . S
C2346 C2347 1.394 . S
C2346 H2354 0.930 . S
C2347 C2346 1.394 . S
C2347 C2348 1.383 . S
C2347 H2355 0.929 . S
C2348 C2347 1.383 . S
C2348 C2349 1.377 . S
C2349 H2333 0.930 . S
C2349 C2348 1.377 . S
C2349 C2350 1.379 . S
C2350 H2334 0.931 . S
C2350 C2344 1.383 . S
C2350 C2349 1.379 . S
H2351 C2345 0.959 . S
H2352 C2345 0.961 . S
H2353 C2345 0.960 . S
H2354 C2346 0.930 . S
H2355 C2347 0.929 . S
H2356 C2364 0.929 . S
H2357 C2366 0.930 . S
H2358 C2368 0.930 . S
H2359 C2371 0.929 . S
H2360 C2374 0.930 . S
H2361 C2376 0.960 . S
H2362 C2376 0.960 . S
H2363 C2376 0.960 . S
C2364 H2356 0.929 . S
C2364 C2365 1.377 . S
C2364 C2366 1.384 . S
C2365 C2364 1.377 . S
C2365 C2371 1.390 . S
C2366 H2357 0.930 . S
C2366 C2364 1.384 . S
C2366 C2367 1.372 . S
C2367 C2366 1.372 . S
C2367 C2368 1.400 . S
C2367 C2372 1.490 . S
C2368 H2358 0.930 . S
C2368 C2367 1.400 . S
C2368 C2371 1.386 . S
H2369 C2385 0.930 . S
H2370 C2386 0.931 . S
C2371 H2359 0.929 . S
C2371 C2365 1.390 . S
C2371 C2368 1.386 . S
C2372 C2367 1.490 . S
C2372 C2374 1.395 . S
C2372 C2375 1.403 . S
H2373 C2379 0.930 . S
C2374 H2360 0.930 . S
C2374 C2372 1.395 . S
C2374 C2377 1.403 . S
C2375 C2372 1.403 . S
C2375 C2376 1.524 . S
C2375 C2379 1.400 . S
C2376 H2361 0.960 . S
C2376 H2362 0.960 . S
C2376 H2363 0.960 . S
C2376 C2375 1.524 . S
C2377 C2374 1.403 . S
C2377 C2378 1.392 . S
C2377 C2381 1.495 . S
C2378 C2377 1.392 . S
C2378 C2379 1.385 . S
C2378 C2380 1.478 . S
C2379 H2373 0.930 . S
C2379 C2375 1.400 . S
C2379 C2378 1.385 . S
C2380 C2378 1.478 . S
C2380 C2382 1.381 . S
C2380 C2386 1.383 . S
C2381 C2377 1.495 . S
C2381 H2387 0.959 . S
C2381 H2388 0.961 . S
C2381 H2389 0.960 . S
C2382 C2380 1.381 . S
C2382 C2383 1.394 . S
C2382 H2390 0.930 . S
C2383 C2382 1.394 . S
C2383 C2384 1.383 . S
C2383 H2391 0.929 . S
C2384 C2383 1.383 . S
C2384 C2385 1.377 . S
C2385 H2369 0.930 . S
C2385 C2384 1.377 . S
C2385 C2386 1.379 . S
C2386 H2370 0.931 . S
C2386 C2380 1.383 . S
C2386 C2385 1.379 . S
H2387 C2381 0.959 . S
H2388 C2381 0.961 . S
H2389 C2381 0.960 . S
H2390 C2382 0.930 . S
H2391 C2383 0.929 . S
H2392 C2400 0.929 . S
H2393 C2402 0.930 . S
H2394 C2404 0.930 . S
H2395 C2407 0.929 . S
H2396 C2410 0.930 . S
H2397 C2412 0.960 . S
H2398 C2412 0.960 . S
H2399 C2412 0.960 . S
C2400 H2392 0.929 . S
C2400 C2401 1.377 . S
C2400 C2402 1.384 . S
C2401 C2400 1.377 . S
C2401 C2407 1.390 . S
C2402 H2393 0.930 . S
C2402 C2400 1.384 . S
C2402 C2403 1.372 . S
C2403 C2402 1.372 . S
C2403 C2404 1.400 . S
C2403 C2408 1.490 . S
C2404 H2394 0.930 . S
C2404 C2403 1.400 . S
C2404 C2407 1.386 . S
H2405 C2421 0.930 . S
H2406 C2422 0.931 . S
C2407 H2395 0.929 . S
C2407 C2401 1.390 . S
C2407 C2404 1.386 . S
C2408 C2403 1.490 . S
C2408 C2410 1.395 . S
C2408 C2411 1.403 . S
H2409 C2415 0.930 . S
C2410 H2396 0.930 . S
C2410 C2408 1.395 . S
C2410 C2413 1.403 . S
C2411 C2408 1.403 . S
C2411 C2412 1.524 . S
C2411 C2415 1.400 . S
C2412 H2397 0.960 . S
C2412 H2398 0.960 . S
C2412 H2399 0.960 . S
C2412 C2411 1.524 . S
C2413 C2410 1.403 . S
C2413 C2414 1.392 . S
C2413 C2417 1.495 . S
C2414 C2413 1.392 . S
C2414 C2415 1.385 . S
C2414 C2416 1.478 . S
C2415 H2409 0.930 . S
C2415 C2411 1.400 . S
C2415 C2414 1.385 . S
C2416 C2414 1.478 . S
C2416 C2418 1.381 . S
C2416 C2422 1.383 . S
C2417 C2413 1.495 . S
C2417 H2423 0.959 . S
C2417 H2424 0.961 . S
C2417 H2425 0.960 . S
C2418 C2416 1.381 . S
C2418 C2419 1.394 . S
C2418 H2426 0.930 . S
C2419 C2418 1.394 . S
C2419 C2420 1.383 . S
C2419 H2427 0.929 . S
C2420 C2419 1.383 . S
C2420 C2421 1.377 . S
C2421 H2405 0.930 . S
C2421 C2420 1.377 . S
C2421 C2422 1.379 . S
C2422 H2406 0.931 . S
C2422 C2416 1.383 . S
C2422 C2421 1.379 . S
H2423 C2417 0.959 . S
H2424 C2417 0.961 . S
H2425 C2417 0.960 . S
H2426 C2418 0.930 . S
H2427 C2419 0.929 . S
H2428 C2436 0.929 . S
H2429 C2438 0.930 . S
H2430 C2440 0.930 . S
H2431 C2443 0.929 . S
H2432 C2446 0.930 . S
H2433 C2448 0.960 . S
H2434 C2448 0.960 . S
H2435 C2448 0.960 . S
C2436 H2428 0.929 . S
C2436 C2437 1.377 . S
C2436 C2438 1.384 . S
C2437 C2436 1.377 . S
C2437 C2443 1.390 . S
C2438 H2429 0.930 . S
C2438 C2436 1.384 . S
C2438 C2439 1.372 . S
C2439 C2438 1.372 . S
C2439 C2440 1.400 . S
C2439 C2444 1.490 . S
C2440 H2430 0.930 . S
C2440 C2439 1.400 . S
C2440 C2443 1.386 . S
H2441 C2457 0.930 . S
H2442 C2458 0.931 . S
C2443 H2431 0.929 . S
C2443 C2437 1.390 . S
C2443 C2440 1.386 . S
C2444 C2439 1.490 . S
C2444 C2446 1.395 . S
C2444 C2447 1.403 . S
H2445 C2451 0.930 . S
C2446 H2432 0.930 . S
C2446 C2444 1.395 . S
C2446 C2449 1.403 . S
C2447 C2444 1.403 . S
C2447 C2448 1.524 . S
C2447 C2451 1.400 . S
C2448 H2433 0.960 . S
C2448 H2434 0.960 . S
C2448 H2435 0.960 . S
C2448 C2447 1.524 . S
C2449 C2446 1.403 . S
C2449 C2450 1.392 . S
C2449 C2453 1.495 . S
C2450 C2449 1.392 . S
C2450 C2451 1.385 . S
C2450 C2452 1.478 . S
C2451 H2445 0.930 . S
C2451 C2447 1.400 . S
C2451 C2450 1.385 . S
C2452 C2450 1.478 . S
C2452 C2454 1.381 . S
C2452 C2458 1.383 . S
C2453 C2449 1.495 . S
C2453 H2459 0.959 . S
C2453 H2460 0.961 . S
C2453 H2461 0.960 . S
C2454 C2452 1.381 . S
C2454 C2455 1.394 . S
C2454 H2462 0.930 . S
C2455 C2454 1.394 . S
C2455 C2456 1.383 . S
C2455 H2463 0.929 . S
C2456 C2455 1.383 . S
C2456 C2457 1.377 . S
C2457 H2441 0.930 . S
C2457 C2456 1.377 . S
C2457 C2458 1.379 . S
C2458 H2442 0.931 . S
C2458 C2452 1.383 . S
C2458 C2457 1.379 . S
H2459 C2453 0.959 . S
H2460 C2453 0.961 . S
H2461 C2453 0.960 . S
H2462 C2454 0.930 . S
H2463 C2455 0.929 . S
H2464 C2472 0.929 . S
H2465 C2474 0.930 . S
H2466 C2476 0.930 . S
H2467 C2479 0.929 . S
H2468 C2482 0.930 . S
H2469 C2484 0.960 . S
H2470 C2484 0.960 . S
H2471 C2484 0.960 . S
C2472 H2464 0.929 . S
C2472 C2473 1.377 . S
C2472 C2474 1.384 . S
C2473 C2472 1.377 . S
C2473 C2479 1.390 . S
C2474 H2465 0.930 . S
C2474 C2472 1.384 . S
C2474 C2475 1.372 . S
C2475 C2474 1.372 . S
C2475 C2476 1.400 . S
C2475 C2480 1.490 . S
C2476 H2466 0.930 . S
C2476 C2475 1.400 . S
C2476 C2479 1.386 . S
H2477 C2493 0.930 . S
H2478 C2494 0.931 . S
C2479 H2467 0.929 . S
C2479 C2473 1.390 . S
C2479 C2476 1.386 . S
C2480 C2475 1.490 . S
C2480 C2482 1.395 . S
C2480 C2483 1.403 . S
H2481 C2487 0.930 . S
C2482 H2468 0.930 . S
C2482 C2480 1.395 . S
C2482 C2485 1.403 . S
C2483 C2480 1.403 . S
C2483 C2484 1.524 . S
C2483 C2487 1.400 . S
C2484 H2469 0.960 . S
C2484 H2470 0.960 . S
C2484 H2471 0.960 . S
C2484 C2483 1.524 . S
C2485 C2482 1.403 . S
C2485 C2486 1.392 . S
C2485 C2489 1.495 . S
C2486 C2485 1.392 . S
C2486 C2487 1.385 . S
C2486 C2488 1.478 . S
C2487 H2481 0.930 . S
C2487 C2483 1.400 . S
C2487 C2486 1.385 . S
C2488 C2486 1.478 . S
C2488 C2490 1.381 . S
C2488 C2494 1.383 . S
C2489 C2485 1.495 . S
C2489 H2495 0.959 . S
C2489 H2496 0.961 . S
C2489 H2497 0.960 . S
C2490 C2488 1.381 . S
C2490 C2491 1.394 . S
C2490 H2498 0.930 . S
C2491 C2490 1.394 . S
C2491 C2492 1.383 . S
C2491 H2499 0.929 . S
C2492 C2491 1.383 . S
C2492 C2493 1.377 . S
C2493 H2477 0.930 . S
C2493 C2492 1.377 . S
C2493 C2494 1.379 . S
C2494 H2478 0.931 . S
C2494 C2488 1.383 . S
C2494 C2493 1.379 . S
H2495 C2489 0.959 . S
H2496 C2489 0.961 . S
H2497 C2489 0.960 . S
H2498 C2490 0.930 . S
H2499 C2491 0.929 . S
H2500 C2508 0.929 . S
H2501 C2510 0.930 . S
H2502 C2512 0.930 . S
H2503 C2515 0.929 . S
H2504 C2518 0.930 . S
H2505 C2520 0.960 . S
H2506 C2520 0.960 . S
H2507 C2520 0.960 . S
C2508 H2500 0.929 . S
C2508 C2509 1.377 . S
C2508 C2510 1.384 . S
C2509 C2508 1.377 . S
C2509 C2515 1.390 . S
C2510 H2501 0.930 . S
C2510 C2508 1.384 . S
C2510 C2511 1.372 . S
C2511 C2510 1.372 . S
C2511 C2512 1.400 . S
C2511 C2516 1.490 . S
C2512 H2502 0.930 . S
C2512 C2511 1.400 . S
C2512 C2515 1.386 . S
H2513 C2529 0.930 . S
H2514 C2530 0.931 . S
C2515 H2503 0.929 . S
C2515 C2509 1.390 . S
C2515 C2512 1.386 . S
C2516 C2511 1.490 . S
C2516 C2518 1.395 . S
C2516 C2519 1.403 . S
H2517 C2523 0.930 . S
C2518 H2504 0.930 . S
C2518 C2516 1.395 . S
C2518 C2521 1.403 . S
C2519 C2516 1.403 . S
C2519 C2520 1.524 . S
C2519 C2523 1.400 . S
C2520 H2505 0.960 . S
C2520 H2506 0.960 . S
C2520 H2507 0.960 . S
C2520 C2519 1.524 . S
C2521 C2518 1.403 . S
C2521 C2522 1.392 . S
C2521 C2525 1.495 . S
C2522 C2521 1.392 . S
C2522 C2523 1.385 . S
C2522 C2524 1.478 . S
C2523 H2517 0.930 . S
C2523 C2519 1.400 . S
C2523 C2522 1.385 . S
C2524 C2522 1.478 . S
C2524 C2526 1.381 . S
C2524 C2530 1.383 . S
C2525 C2521 1.495 . S
C2525 H2531 0.959 . S
C2525 H2532 0.961 . S
C2525 H2533 0.960 . S
C2526 C2524 1.381 . S
C2526 C2527 1.394 . S
C2526 H2534 0.930 . S
C2527 C2526 1.394 . S
C2527 C2528 1.383 . S
C2527 H2535 0.929 . S
C2528 C2527 1.383 . S
C2528 C2529 1.377 . S
C2529 H2513 0.930 . S
C2529 C2528 1.377 . S
C2529 C2530 1.379 . S
C2530 H2514 0.931 . S
C2530 C2524 1.383 . S
C2530 C2529 1.379 . S
H2531 C2525 0.959 . S
H2532 C2525 0.961 . S
H2533 C2525 0.960 . S
H2534 C2526 0.930 . S
H2535 C2527 0.929 . S
H2536 C2544 0.929 . S
H2537 C2546 0.930 . S
H2538 C2548 0.930 . S
H2539 C2551 0.929 . S
H2540 C2554 0.930 . S
H2541 C2556 0.960 . S
H2542 C2556 0.960 . S
H2543 C2556 0.960 . S
C2544 H2536 0.929 . S
C2544 C2545 1.377 . S
C2544 C2546 1.384 . S
C2545 C2544 1.377 . S
C2545 C2551 1.390 . S
C2546 H2537 0.930 . S
C2546 C2544 1.384 . S
C2546 C2547 1.372 . S
C2547 C2546 1.372 . S
C2547 C2548 1.400 . S
C2547 C2552 1.490 . S
C2548 H2538 0.930 . S
C2548 C2547 1.400 . S
C2548 C2551 1.386 . S
H2549 C2565 0.930 . S
H2550 C2566 0.931 . S
C2551 H2539 0.929 . S
C2551 C2545 1.390 . S
C2551 C2548 1.386 . S
C2552 C2547 1.490 . S
C2552 C2554 1.395 . S
C2552 C2555 1.403 . S
H2553 C2559 0.930 . S
C2554 H2540 0.930 . S
C2554 C2552 1.395 . S
C2554 C2557 1.403 . S
C2555 C2552 1.403 . S
C2555 C2556 1.524 . S
C2555 C2559 1.400 . S
C2556 H2541 0.960 . S
C2556 H2542 0.960 . S
C2556 H2543 0.960 . S
C2556 C2555 1.524 . S
C2557 C2554 1.403 . S
C2557 C2558 1.392 . S
C2557 C2561 1.495 . S
C2558 C2557 1.392 . S
C2558 C2559 1.385 . S
C2558 C2560 1.478 . S
C2559 H2553 0.930 . S
C2559 C2555 1.400 . S
C2559 C2558 1.385 . S
C2560 C2558 1.478 . S
C2560 C2562 1.381 . S
C2560 C2566 1.383 . S
C2561 C2557 1.495 . S
C2561 H2567 0.959 . S
C2561 H2568 0.961 . S
C2561 H2569 0.960 . S
C2562 C2560 1.381 . S
C2562 C2563 1.394 . S
C2562 H2570 0.930 . S
C2563 C2562 1.394 . S
C2563 C2564 1.383 . S
C2563 H2571 0.929 . S
C2564 C2563 1.383 . S
C2564 C2565 1.377 . S
C2565 H2549 0.930 . S
C2565 C2564 1.377 . S
C2565 C2566 1.379 . S
C2566 H2550 0.931 . S
C2566 C2560 1.383 . S
C2566 C2565 1.379 . S
H2567 C2561 0.959 . S
H2568 C2561 0.961 . S
H2569 C2561 0.960 . S
H2570 C2562 0.930 . S
H2571 C2563 0.929 . S
H2572 C2580 0.929 . S
H2573 C2582 0.930 . S
H2574 C2584 0.930 . S
H2575 C2587 0.929 . S
H2576 C2590 0.930 . S
H2577 C2592 0.960 . S
H2578 C2592 0.960 . S
H2579 C2592 0.960 . S
C2580 H2572 0.929 . S
C2580 C2581 1.377 . S
C2580 C2582 1.384 . S
C2581 C2580 1.377 . S
C2581 C2587 1.390 . S
C2582 H2573 0.930 . S
C2582 C2580 1.384 . S
C2582 C2583 1.372 . S
C2583 C2582 1.372 . S
C2583 C2584 1.400 . S
C2583 C2588 1.490 . S
C2584 H2574 0.930 . S
C2584 C2583 1.400 . S
C2584 C2587 1.386 . S
H2585 C2601 0.930 . S
H2586 C2602 0.931 . S
C2587 H2575 0.929 . S
C2587 C2581 1.390 . S
C2587 C2584 1.386 . S
C2588 C2583 1.490 . S
C2588 C2590 1.395 . S
C2588 C2591 1.403 . S
H2589 C2595 0.930 . S
C2590 H2576 0.930 . S
C2590 C2588 1.395 . S
C2590 C2593 1.403 . S
C2591 C2588 1.403 . S
C2591 C2592 1.524 . S
C2591 C2595 1.400 . S
C2592 H2577 0.960 . S
C2592 H2578 0.960 . S
C2592 H2579 0.960 . S
C2592 C2591 1.524 . S
C2593 C2590 1.403 . S
C2593 C2594 1.392 . S
C2593 C2597 1.495 . S
C2594 C2593 1.392 . S
C2594 C2595 1.385 . S
C2594 C2596 1.478 . S
C2595 H2589 0.930 . S
C2595 C2591 1.400 . S
C2595 C2594 1.385 . S
C2596 C2594 1.478 . S
C2596 C2598 1.381 . S
C2596 C2602 1.383 . S
C2597 C2593 1.495 . S
C2597 H2603 0.959 . S
C2597 H2604 0.961 . S
C2597 H2605 0.960 . S
C2598 C2596 1.381 . S
C2598 C2599 1.394 . S
C2598 H2606 0.930 . S
C2599 C2598 1.394 . S
C2599 C2600 1.383 . S
C2599 H2607 0.929 . S
C2600 C2599 1.383 . S
C2600 C2601 1.377 . S
C2601 H2585 0.930 . S
C2601 C2600 1.377 . S
C2601 C2602 1.379 . S
C2602 H2586 0.931 . S
C2602 C2596 1.383 . S
C2602 C2601 1.379 . S
H2603 C2597 0.959 . S
H2604 C2597 0.961 . S
H2605 C2597 0.960 . S
H2606 C2598 0.930 . S
H2607 C2599 0.929 . S
H2608 C2616 0.929 . S
H2609 C2618 0.930 . S
H2610 C2620 0.930 . S
H2611 C2623 0.929 . S
H2612 C2626 0.930 . S
H2613 C2628 0.960 . S
H2614 C2628 0.960 . S
H2615 C2628 0.960 . S
C2616 H2608 0.929 . S
C2616 C2617 1.377 . S
C2616 C2618 1.384 . S
C2617 C2616 1.377 . S
C2617 C2623 1.390 . S
C2618 H2609 0.930 . S
C2618 C2616 1.384 . S
C2618 C2619 1.372 . S
C2619 C2618 1.372 . S
C2619 C2620 1.400 . S
C2619 C2624 1.490 . S
C2620 H2610 0.930 . S
C2620 C2619 1.400 . S
C2620 C2623 1.386 . S
H2621 C2637 0.930 . S
H2622 C2638 0.931 . S
C2623 H2611 0.929 . S
C2623 C2617 1.390 . S
C2623 C2620 1.386 . S
C2624 C2619 1.490 . S
C2624 C2626 1.395 . S
C2624 C2627 1.403 . S
H2625 C2631 0.930 . S
C2626 H2612 0.930 . S
C2626 C2624 1.395 . S
C2626 C2629 1.403 . S
C2627 C2624 1.403 . S
C2627 C2628 1.524 . S
C2627 C2631 1.400 . S
C2628 H2613 0.960 . S
C2628 H2614 0.960 . S
C2628 H2615 0.960 . S
C2628 C2627 1.524 . S
C2629 C2626 1.403 . S
C2629 C2630 1.392 . S
C2629 C2633 1.495 . S
C2630 C2629 1.392 . S
C2630 C2631 1.385 . S
C2630 C2632 1.478 . S
C2631 H2625 0.930 . S
C2631 C2627 1.400 . S
C2631 C2630 1.385 . S
C2632 C2630 1.478 . S
C2632 C2634 1.381 . S
C2632 C2638 1.383 . S
C2633 C2629 1.495 . S
C2633 H2639 0.959 . S
C2633 H2640 0.961 . S
C2633 H2641 0.960 . S
C2634 C2632 1.381 . S
C2634 C2635 1.394 . S
C2634 H2642 0.930 . S
C2635 C2634 1.394 . S
C2635 C2636 1.383 . S
C2635 H2643 0.929 . S
C2636 C2635 1.383 . S
C2636 C2637 1.377 . S
C2637 H2621 0.930 . S
C2637 C2636 1.377 . S
C2637 C2638 1.379 . S
C2638 H2622 0.931 . S
C2638 C2632 1.383 . S
C2638 C2637 1.379 . S
H2639 C2633 0.959 . S
H2640 C2633 0.961 . S
H2641 C2633 0.960 . S
H2642 C2634 0.930 . S
H2643 C2635 0.929 . S
H2644 C2652 0.929 . S
H2645 C2654 0.930 . S
H2646 C2656 0.930 . S
H2647 C2659 0.929 . S
H2648 C2662 0.930 . S
H2649 C2664 0.960 . S
H2650 C2664 0.960 . S
H2651 C2664 0.960 . S
C2652 H2644 0.929 . S
C2652 C2653 1.377 . S
C2652 C2654 1.384 . S
C2653 C2652 1.377 . S
C2653 C2659 1.390 . S
C2654 H2645 0.930 . S
C2654 C2652 1.384 . S
C2654 C2655 1.372 . S
C2655 C2654 1.372 . S
C2655 C2656 1.400 . S
C2655 C2660 1.490 . S
C2656 H2646 0.930 . S
C2656 C2655 1.400 . S
C2656 C2659 1.386 . S
H2657 C2673 0.930 . S
H2658 C2674 0.931 . S
C2659 H2647 0.929 . S
C2659 C2653 1.390 . S
C2659 C2656 1.386 . S
C2660 C2655 1.490 . S
C2660 C2662 1.395 . S
C2660 C2663 1.403 . S
H2661 C2667 0.930 . S
C2662 H2648 0.930 . S
C2662 C2660 1.395 . S
C2662 C2665 1.403 . S
C2663 C2660 1.403 . S
C2663 C2664 1.524 . S
C2663 C2667 1.400 . S
C2664 H2649 0.960 . S
C2664 H2650 0.960 . S
C2664 H2651 0.960 . S
C2664 C2663 1.524 . S
C2665 C2662 1.403 . S
C2665 C2666 1.392 . S
C2665 C2669 1.495 . S
C2666 C2665 1.392 . S
C2666 C2667 1.385 . S
C2666 C2668 1.478 . S
C2667 H2661 0.930 . S
C2667 C2663 1.400 . S
C2667 C2666 1.385 . S
C2668 C2666 1.478 . S
C2668 C2670 1.381 . S
C2668 C2674 1.383 . S
C2669 C2665 1.495 . S
C2669 H2675 0.959 . S
C2669 H2676 0.961 . S
C2669 H2677 0.960 . S
C2670 C2668 1.381 . S
C2670 C2671 1.394 . S
C2670 H2678 0.930 . S
C2671 C2670 1.394 . S
C2671 C2672 1.383 . S
C2671 H2679 0.929 . S
C2672 C2671 1.383 . S
C2672 C2673 1.377 . S
C2673 H2657 0.930 . S
C2673 C2672 1.377 . S
C2673 C2674 1.379 . S
C2674 H2658 0.931 . S
C2674 C2668 1.383 . S
C2674 C2673 1.379 . S
H2675 C2669 0.959 . S
H2676 C2669 0.961 . S
H2677 C2669 0.960 . S
H2678 C2670 0.930 . S
H2679 C2671 0.929 . S
H2680 C2688 0.929 . S
H2681 C2690 0.930 . S
H2682 C2692 0.930 . S
H2683 C2695 0.929 . S
H2684 C2698 0.930 . S
H2685 C2700 0.960 . S
H2686 C2700 0.960 . S
H2687 C2700 0.960 . S
C2688 H2680 0.929 . S
C2688 C2689 1.377 . S
C2688 C2690 1.384 . S
C2689 C2688 1.377 . S
C2689 C2695 1.390 . S
C2690 H2681 0.930 . S
C2690 C2688 1.384 . S
C2690 C2691 1.372 . S
C2691 C2690 1.372 . S
C2691 C2692 1.400 . S
C2691 C2696 1.490 . S
C2692 H2682 0.930 . S
C2692 C2691 1.400 . S
C2692 C2695 1.386 . S
H2693 C2709 0.930 . S
H2694 C2710 0.931 . S
C2695 H2683 0.929 . S
C2695 C2689 1.390 . S
C2695 C2692 1.386 . S
C2696 C2691 1.490 . S
C2696 C2698 1.395 . S
C2696 C2699 1.403 . S
H2697 C2703 0.930 . S
C2698 H2684 0.930 . S
C2698 C2696 1.395 . S
C2698 C2701 1.403 . S
C2699 C2696 1.403 . S
C2699 C2700 1.524 . S
C2699 C2703 1.400 . S
C2700 H2685 0.960 . S
C2700 H2686 0.960 . S
C2700 H2687 0.960 . S
C2700 C2699 1.524 . S
C2701 C2698 1.403 . S
C2701 C2702 1.392 . S
C2701 C2705 1.495 . S
C2702 C2701 1.392 . S
C2702 C2703 1.385 . S
C2702 C2704 1.478 . S
C2703 H2697 0.930 . S
C2703 C2699 1.400 . S
C2703 C2702 1.385 . S
C2704 C2702 1.478 . S
C2704 C2706 1.381 . S
C2704 C2710 1.383 . S
C2705 C2701 1.495 . S
C2705 H2711 0.959 . S
C2705 H2712 0.961 . S
C2705 H2713 0.960 . S
C2706 C2704 1.381 . S
C2706 C2707 1.394 . S
C2706 H2714 0.930 . S
C2707 C2706 1.394 . S
C2707 C2708 1.383 . S
C2707 H2715 0.929 . S
C2708 C2707 1.383 . S
C2708 C2709 1.377 . S
C2709 H2693 0.930 . S
C2709 C2708 1.377 . S
C2709 C2710 1.379 . S
C2710 H2694 0.931 . S
C2710 C2704 1.383 . S
C2710 C2709 1.379 . S
H2711 C2705 0.959 . S
H2712 C2705 0.961 . S
H2713 C2705 0.960 . S
H2714 C2706 0.930 . S
H2715 C2707 0.929 . S
H2716 C2724 0.929 . S
H2717 C2726 0.930 . S
H2718 C2728 0.930 . S
H2719 C2731 0.929 . S
H2720 C2734 0.930 . S
H2721 C2736 0.960 . S
H2722 C2736 0.960 . S
H2723 C2736 0.960 . S
C2724 H2716 0.929 . S
C2724 C2725 1.377 . S
C2724 C2726 1.384 . S
C2725 C2724 1.377 . S
C2725 C2731 1.390 . S
C2726 H2717 0.930 . S
C2726 C2724 1.384 . S
C2726 C2727 1.372 . S
C2727 C2726 1.372 . S
C2727 C2728 1.400 . S
C2727 C2732 1.490 . S
C2728 H2718 0.930 . S
C2728 C2727 1.400 . S
C2728 C2731 1.386 . S
H2729 C2745 0.930 . S
H2730 C2746 0.931 . S
C2731 H2719 0.929 . S
C2731 C2725 1.390 . S
C2731 C2728 1.386 . S
C2732 C2727 1.490 . S
C2732 C2734 1.395 . S
C2732 C2735 1.403 . S
H2733 C2739 0.930 . S
C2734 H2720 0.930 . S
C2734 C2732 1.395 . S
C2734 C2737 1.403 . S
C2735 C2732 1.403 . S
C2735 C2736 1.524 . S
C2735 C2739 1.400 . S
C2736 H2721 0.960 . S
C2736 H2722 0.960 . S
C2736 H2723 0.960 . S
C2736 C2735 1.524 . S
C2737 C2734 1.403 . S
C2737 C2738 1.392 . S
C2737 C2741 1.495 . S
C2738 C2737 1.392 . S
C2738 C2739 1.385 . S
C2738 C2740 1.478 . S
C2739 H2733 0.930 . S
C2739 C2735 1.400 . S
C2739 C2738 1.385 . S
C2740 C2738 1.478 . S
C2740 C2742 1.381 . S
C2740 C2746 1.383 . S
C2741 C2737 1.495 . S
C2741 H2747 0.959 . S
C2741 H2748 0.961 . S
C2741 H2749 0.960 . S
C2742 C2740 1.381 . S
C2742 C2743 1.394 . S
C2742 H2750 0.930 . S
C2743 C2742 1.394 . S
C2743 C2744 1.383 . S
C2743 H2751 0.929 . S
C2744 C2743 1.383 . S
C2744 C2745 1.377 . S
C2745 H2729 0.930 . S
C2745 C2744 1.377 . S
C2745 C2746 1.379 . S
C2746 H2730 0.931 . S
C2746 C2740 1.383 . S
C2746 C2745 1.379 . S
H2747 C2741 0.959 . S
H2748 C2741 0.961 . S
H2749 C2741 0.960 . S
H2750 C2742 0.930 . S
H2751 C2743 0.929 . S
C457 C92 1.096 . S
C476 C8 1.084 . S
C493 C22 1.109 . S
C512 C106 1.075 . S
C529 C64 1.097 . S
C548 C36 1.077 . S
C565 C50 1.096 . S
C584 C78 1.111 . S
C601 C204 1.109 . S
C620 C120 1.092 . S
C637 C218 1.098 . S
C656 C134 1.138 . S
C673 C148 1.111 . S
C692 C176 1.078 . S
C709 C162 1.106 . S
C728 C190 1.073 . S
C745 C232 1.098 . S
C764 C316 1.074 . S
C781 C246 1.106 . S
C800 C330 1.138 . S
C817 C288 1.096 . S
C836 C260 1.092 . S
C853 C302 1.099 . S
C872 C274 1.069 . S
C889 C344 1.107 . S
C908 C428 1.105 . S
C925 C442 1.107 . S
C944 C358 1.105 . S
C961 C400 1.110 . S
C980 C372 1.064 . S
C997 C386 1.099 . S
C1016 C414 1.108 . S
C1033 C7 1.336 1_556 S
C1052 C433 1.227 . S
C1069 C223 1.264 . S
C1088 C21 1.344 . S
C1105 C35 1.336 . S
C1124 C405 1.238 . S
C1141 C49 1.336 . S
C1160 C195 1.225 . S
C1177 C377 1.258 . S
C1196 C63 1.351 . S
C1213 C167 1.258 . S
C1232 C77 1.351 . S
C1249 C91 1.328 1_554 S
C1268 C349 1.284 . S
C1285 C139 1.260 . S
C1304 C105 1.325 . S
C1321 C119 1.336 1_554 S
C1340 C321 1.296 . S
C1357 C111 1.257 . S
C1376 C133 1.308 . S
C1393 C147 1.333 . S
C1412 C293 1.262 . S
C1429 C161 1.330 . S
C1448 C83 1.231 . S
C1465 C265 1.256 . S
C1484 C175 1.309 . S
C1501 C189 1.329 . S
C1520 C55 1.241 . S
C1537 C203 1.332 1_556 S
C1556 C237 1.247 . S
C1573 C27 1.260 . S
C1592 C217 1.324 . S
C1609 C231 1.329 . S
C1628 C209 1.302 . S
C1645 C245 1.331 . S
C1664 C447 1.292 . S
C1681 C181 1.272 . S
C1700 C259 1.319 1_556 S
C1717 C273 1.331 . S
C1736 C419 1.292 . S
C1753 C153 1.267 . S
C1772 C287 1.336 1_554 S
C1789 C391 1.265 . S
C1808 C301 1.314 . S
C1825 C125 1.269 . S
C1844 C315 1.332 . S
C1861 C363 1.263 . S
C1880 C329 1.346 . S
C1897 C343 1.329 . S
C1916 C97 1.246 . S
C1933 C335 1.260 . S
C1952 C357 1.323 . S
C1969 C69 1.269 . S
C1988 C371 1.336 1_554 S
C2005 C385 1.329 . S
C2024 C307 1.242 . S
C2041 C399 1.336 1_556 S
C2060 C41 1.299 . S
C2077 C413 1.328 . S
C2096 C279 1.228 . S
C2113 C13 1.256 . S
C2132 C427 1.308 . S
C2149 C441 1.336 . S
C2168 C251 1.296 . S
C2185 C11 1.164 . S
C2204 C305 1.149 . S
C2221 C319 1.163 . S
C2240 C25 1.149 . S
C2257 C39 1.165 . S
C2276 C333 1.164 . S
C2293 C291 1.165 . S
C2312 C53 1.152 . S
C2329 C277 1.163 . S
C2348 C67 1.172 . S
C2365 C235 1.164 . S
C2384 C81 1.150 . S
C2401 C249 1.163 . S
C2420 C95 1.149 . S
C2437 C263 1.161 . S
C2456 C109 1.163 . S
C2473 C123 1.165 . S
C2492 C417 1.149 . S
C2509 C431 1.164 . S
C2528 C137 1.150 . S
C2545 C445 1.161 . S
C2564 C151 1.169 . S
C2581 C403 1.161 . S
C2600 C165 1.172 . S
C2617 C389 1.162 . S
C2636 C179 1.171 . S
C2653 C347 1.162 . S
C2672 C193 1.160 . S
C2689 C207 1.161 . S
C2708 C361 1.163 . S
C2725 C221 1.161 . S
C2744 C375 1.172 . S
