# Generated by pormake.
# Topology pcb, (4)-cn, num edge types: 1
# Building blocks:
#     Node 0, Type 0, BuildingBlock: GALJAG_clean_sbu_0, # of connection points: 4
#     Node 1, Type 0, BuildingBlock: GALJAG_clean_sbu_0, # of connection points: 4
#     Node 2, Type 0, BuildingBlock: GALJAG_clean_sbu_0, # of connection points: 4
#     Node 3, Type 0, BuildingBlock: GALJAG_clean_sbu_0, # of connection points: 4
#     Node 4, Type 0, BuildingBlock: GALJAG_clean_sbu_0, # of connection points: 4
#     Node 5, Type 0, BuildingBlock: GALJAG_clean_sbu_0, # of connection points: 4
#     Node 6, Type 0, BuildingBlock: GALJAG_clean_sbu_0, # of connection points: 4
#     Node 7, Type 0, BuildingBlock: GALJAG_clean_sbu_0, # of connection points: 4
#     Node 8, Type 0, BuildingBlock: GALJAG_clean_sbu_0, # of connection points: 4
#     Node 9, Type 0, BuildingBlock: GALJAG_clean_sbu_0, # of connection points: 4
#     Node 10, Type 0, BuildingBlock: GALJAG_clean_sbu_0, # of connection points: 4
#     Node 11, Type 0, BuildingBlock: GALJAG_clean_sbu_0, # of connection points: 4
#     Node 12, Type 0, BuildingBlock: GALJAG_clean_sbu_0, # of connection points: 4
#     Node 13, Type 0, BuildingBlock: GALJAG_clean_sbu_0, # of connection points: 4
#     Node 14, Type 0, BuildingBlock: GALJAG_clean_sbu_0, # of connection points: 4
#     Node 15, Type 0, BuildingBlock: GALJAG_clean_sbu_0, # of connection points: 4
#     Edge 16, Type (0, 0), BuildingBlock: UVAHIK_clean_linker_0, # of connection points: 2
#     Edge 17, Type (0, 0), BuildingBlock: UVAHIK_clean_linker_0, # of connection points: 2
#     Edge 18, Type (0, 0), BuildingBlock: UVAHIK_clean_linker_0, # of connection points: 2
#     Edge 19, Type (0, 0), BuildingBlock: UVAHIK_clean_linker_0, # of connection points: 2
#     Edge 20, Type (0, 0), BuildingBlock: UVAHIK_clean_linker_0, # of connection points: 2
#     Edge 21, Type (0, 0), BuildingBlock: UVAHIK_clean_linker_0, # of connection points: 2
#     Edge 22, Type (0, 0), BuildingBlock: UVAHIK_clean_linker_0, # of connection points: 2
#     Edge 23, Type (0, 0), BuildingBlock: UVAHIK_clean_linker_0, # of connection points: 2
#     Edge 24, Type (0, 0), BuildingBlock: UVAHIK_clean_linker_0, # of connection points: 2
#     Edge 25, Type (0, 0), BuildingBlock: UVAHIK_clean_linker_0, # of connection points: 2
#     Edge 26, Type (0, 0), BuildingBlock: UVAHIK_clean_linker_0, # of connection points: 2
#     Edge 27, Type (0, 0), BuildingBlock: UVAHIK_clean_linker_0, # of connection points: 2
#     Edge 28, Type (0, 0), BuildingBlock: UVAHIK_clean_linker_0, # of connection points: 2
#     Edge 29, Type (0, 0), BuildingBlock: UVAHIK_clean_linker_0, # of connection points: 2
#     Edge 30, Type (0, 0), BuildingBlock: UVAHIK_clean_linker_0, # of connection points: 2
#     Edge 31, Type (0, 0), BuildingBlock: UVAHIK_clean_linker_0, # of connection points: 2
#     Edge 32, Type (0, 0), BuildingBlock: UVAHIK_clean_linker_0, # of connection points: 2
#     Edge 33, Type (0, 0), BuildingBlock: UVAHIK_clean_linker_0, # of connection points: 2
#     Edge 34, Type (0, 0), BuildingBlock: UVAHIK_clean_linker_0, # of connection points: 2
#     Edge 35, Type (0, 0), BuildingBlock: UVAHIK_clean_linker_0, # of connection points: 2
#     Edge 36, Type (0, 0), BuildingBlock: UVAHIK_clean_linker_0, # of connection points: 2
#     Edge 37, Type (0, 0), BuildingBlock: UVAHIK_clean_linker_0, # of connection points: 2
#     Edge 38, Type (0, 0), BuildingBlock: UVAHIK_clean_linker_0, # of connection points: 2
#     Edge 39, Type (0, 0), BuildingBlock: UVAHIK_clean_linker_0, # of connection points: 2
#     Edge 40, Type (0, 0), BuildingBlock: UVAHIK_clean_linker_0, # of connection points: 2
#     Edge 41, Type (0, 0), BuildingBlock: UVAHIK_clean_linker_0, # of connection points: 2
#     Edge 42, Type (0, 0), BuildingBlock: UVAHIK_clean_linker_0, # of connection points: 2
#     Edge 43, Type (0, 0), BuildingBlock: UVAHIK_clean_linker_0, # of connection points: 2
#     Edge 44, Type (0, 0), BuildingBlock: UVAHIK_clean_linker_0, # of connection points: 2
#     Edge 45, Type (0, 0), BuildingBlock: UVAHIK_clean_linker_0, # of connection points: 2
#     Edge 46, Type (0, 0), BuildingBlock: UVAHIK_clean_linker_0, # of connection points: 2
#     Edge 47, Type (0, 0), BuildingBlock: UVAHIK_clean_linker_0, # of connection points: 2
# Relax obj value: 0.356
# Max RMSD: 0.193
# Mean RMSD: 0.171
data_MOF--net-pcb--node1-GALJAG_clean_sbu_0--edge1-UVAHIK_clean_linker_0
_symmetry_space_group_name_H-M    P1
_symmetry_Int_Tables_number       1
_symmetry_cell_setting            triclinic
loop_
_symmetry_equiv_pos_as_xyz
'x, y, z'
_cell_length_a     48.907401
_cell_length_b     61.678214
_cell_length_c     61.746223
_cell_angle_alpha  99.160781
_cell_angle_beta   96.024909
_cell_angle_gamma 95.931401
loop_
_atom_site_label
_atom_site_type_symbol
_atom_site_fract_x
_atom_site_fract_y
_atom_site_fract_z
_atom_type_partial_charge
In0 In 0.26618 0.14895 0.12027 0.0
O1 O 0.27805 0.15816 0.15737 0.0
O2 O 0.29141 0.18144 0.13777 0.0
C3 C 0.27572 0.10655 0.11701 0.0
C4 C 0.21286 0.1516 0.1271 0.0
C5 C 0.27773 0.15905 0.08111 0.0
O6 O 0.29171 0.122 0.12954 0.0
O7 O 0.25561 0.1127 0.10596 0.0
O8 O 0.25562 0.16271 0.08903 0.0
O9 O 0.29457 0.15045 0.09308 0.0
C10 C 0.28915 0.17741 0.15694 0.0
O11 O 0.22835 0.16756 0.12278 0.0
O12 O 0.22392 0.13404 0.12718 0.0
In13 In 0.88516 0.15857 0.18571 0.0
O14 O 0.87489 0.19266 0.20003 0.0
O15 O 0.86883 0.16705 0.21885 0.0
C16 C 0.94106 0.16196 0.18954 0.0
C17 C 0.85889 0.11932 0.19033 0.0
C18 C 0.86887 0.16506 0.14432 0.0
O19 O 0.92832 0.17867 0.19322 0.0
O20 O 0.9257 0.14381 0.18458 0.0
O21 O 0.88668 0.15237 0.14836 0.0
O22 O 0.85882 0.17392 0.16102 0.0
C23 C 0.86612 0.18677 0.21694 0.0
O24 O 0.8499 0.13021 0.17601 0.0
O25 O 0.88108 0.12819 0.20213 0.0
In26 In 0.79808 0.85306 0.15434 0.0
O27 O 0.77659 0.83777 0.18039 0.0
O28 O 0.78804 0.81608 0.15351 0.0
C29 C 0.79088 0.89312 0.17629 0.0
C30 C 0.8523 0.84824 0.15391 0.0
C31 C 0.77399 0.85549 0.11369 0.0
O32 O 0.7713 0.88035 0.16438 0.0
O33 O 0.81372 0.88535 0.17771 0.0
O34 O 0.76448 0.84171 0.12494 0.0
O35 O 0.79573 0.86773 0.12286 0.0
C36 C 0.77724 0.81807 0.17124 0.0
O37 O 0.83549 0.84557 0.13649 0.0
O38 O 0.84175 0.85321 0.17154 0.0
In39 In 0.19762 0.83972 0.13792 0.0
O40 O 0.16225 0.84645 0.15873 0.0
O41 O 0.15197 0.8351 0.12428 0.0
C42 C 0.21775 0.8819 0.13691 0.0
C43 C 0.21719 0.81813 0.16986 0.0
C44 C 0.20989 0.81889 0.09898 0.0
O45 O 0.23138 0.86936 0.14689 0.0
O46 O 0.19395 0.87328 0.1279 0.0
O47 O 0.22627 0.83422 0.11116 0.0
O48 O 0.18804 0.81342 0.10698 0.0
C49 C 0.14342 0.84099 0.1426 0.0
O50 O 0.20639 0.80824 0.15097 0.0
O51 O 0.21852 0.83892 0.17252 0.0
In52 In 0.11723 0.81559 0.83307 0.0
O53 O 0.12325 0.79876 0.79844 0.0
O54 O 0.13253 0.78187 0.82496 0.0
C55 C 0.06391 0.82012 0.83792 0.0
C56 C 0.14053 0.81275 0.87381 0.0
C57 C 0.13779 0.85172 0.81797 0.0
O58 O 0.07079 0.80321 0.82636 0.0
O59 O 0.08384 0.83434 0.84704 0.0
O60 O 0.15203 0.84276 0.83154 0.0
O61 O 0.11324 0.84258 0.81229 0.0
C62 C 0.13273 0.78228 0.80469 0.0
O63 O 0.15036 0.82655 0.86272 0.0
O64 O 0.11867 0.80075 0.86451 0.0
In65 In 0.18336 0.11228 0.81017 0.0
O66 O 0.1426 0.12647 0.80456 0.0
O67 O 0.14589 0.1052 0.82835 0.0
C68 C 0.18771 0.07012 0.79198 0.0
C69 C 0.20269 0.1389 0.78309 0.0
C70 C 0.21039 0.12608 0.85116 0.0
O71 O 0.16487 0.07782 0.79241 0.0
O72 O 0.20852 0.08386 0.80018 0.0
O73 O 0.19653 0.13831 0.84097 0.0
O74 O 0.21053 0.10677 0.84071 0.0
C75 C 0.13111 0.1172 0.81862 0.0
O76 O 0.21611 0.13707 0.80112 0.0
O77 O 0.17996 0.12656 0.77819 0.0
In78 In 0.80958 0.17415 0.87669 0.0
O79 O 0.84792 0.15682 0.88337 0.0
O80 O 0.84693 0.17614 0.85774 0.0
C81 C 0.81204 0.19037 0.92028 0.0
C82 C 0.78904 0.20219 0.85145 0.0
C83 C 0.77879 0.13432 0.86527 0.0
O84 O 0.83204 0.19363 0.90942 0.0
O85 O 0.79052 0.17967 0.90899 0.0
O86 O 0.79923 0.1399 0.85563 0.0
O87 O 0.77396 0.14878 0.88082 0.0
C88 C 0.86022 0.16397 0.86845 0.0
O89 O 0.77812 0.18266 0.85056 0.0
O90 O 0.80989 0.20805 0.86577 0.0
In91 In 0.72934 0.8714 0.84866 0.0
O92 O 0.70878 0.83671 0.8332 0.0
O93 O 0.71996 0.85895 0.81178 0.0
C94 C 0.71761 0.87247 0.89036 0.0
C95 C 0.78287 0.86381 0.8521 0.0
C96 C 0.71309 0.90903 0.83792 0.0
O97 O 0.70226 0.86062 0.87412 0.0
O98 O 0.73831 0.88374 0.8854 0.0
O99 O 0.73623 0.90277 0.83442 0.0
O100 O 0.69759 0.89599 0.84651 0.0
C101 C 0.71095 0.83951 0.8136 0.0
O102 O 0.77595 0.88302 0.85266 0.0
O103 O 0.76295 0.84874 0.85035 0.0
In104 In 0.76542 0.64266 0.62649 0.0
O105 O 0.78731 0.65433 0.66142 0.0
O106 O 0.78776 0.67726 0.63925 0.0
C107 C 0.76776 0.60011 0.63043 0.0
C108 C 0.71251 0.64874 0.63221 0.0
C109 C 0.78095 0.64842 0.58695 0.0
O110 O 0.78873 0.61451 0.63602 0.0
O111 O 0.7462 0.60722 0.62268 0.0
O112 O 0.76553 0.66056 0.59707 0.0
O113 O 0.78926 0.6336 0.59701 0.0
C114 C 0.7934 0.67404 0.6588 0.0
O115 O 0.71936 0.6411 0.61363 0.0
O116 O 0.73218 0.65313 0.64768 0.0
In117 In 0.37665 0.67009 0.67539 0.0
O118 O 0.36261 0.6786 0.70949 0.0
O119 O 0.36394 0.70355 0.68969 0.0
C120 C 0.43073 0.66879 0.67078 0.0
C121 C 0.35874 0.62891 0.68102 0.0
C122 C 0.35288 0.68166 0.63835 0.0
O123 O 0.42297 0.68146 0.68652 0.0
O124 O 0.41135 0.65699 0.65777 0.0
O125 O 0.34081 0.66741 0.6479 0.0
O126 O 0.37687 0.68983 0.64743 0.0
C127 C 0.35757 0.69777 0.70732 0.0
O128 O 0.34883 0.63726 0.66496 0.0
O129 O 0.37783 0.64125 0.69397 0.0
In130 In 0.29821 0.35283 0.65733 0.0
O131 O 0.3323 0.33438 0.64296 0.0
O132 O 0.34339 0.35828 0.67222 0.0
C133 C 0.27018 0.34309 0.6164 0.0
C134 C 0.27438 0.32764 0.68398 0.0
C135 C 0.30179 0.39715 0.66758 0.0
O136 O 0.28771 0.33132 0.62331 0.0
O137 O 0.26683 0.35979 0.63014 0.0
O138 O 0.28598 0.38467 0.67654 0.0
O139 O 0.3151 0.38722 0.65348 0.0
C140 C 0.35127 0.34431 0.65771 0.0
O141 O 0.29851 0.33768 0.68875 0.0
O142 O 0.2618 0.331 0.66622 0.0
In143 In 0.69368 0.33094 0.63886 0.0
O144 O 0.69734 0.29925 0.65315 0.0
O145 O 0.72845 0.32622 0.66483 0.0
C146 C 0.69114 0.3193 0.59475 0.0
C147 C 0.64038 0.32895 0.647 0.0
C148 C 0.719 0.37273 0.64586 0.0
O149 O 0.70908 0.31291 0.6078 0.0
O150 O 0.67515 0.33155 0.60401 0.0
O151 O 0.70115 0.36629 0.65758 0.0
O152 O 0.72422 0.35802 0.63068 0.0
C153 C 0.71896 0.3068 0.66615 0.0
O154 O 0.65823 0.34514 0.65554 0.0
O155 O 0.64954 0.31374 0.63472 0.0
In156 In 0.61628 0.31243 0.32352 0.0
O157 O 0.64464 0.32323 0.3561 0.0
O158 O 0.61891 0.29246 0.35137 0.0
C159 C 0.63707 0.35073 0.3127 0.0
C160 C 0.63583 0.28164 0.29483 0.0
C161 C 0.56202 0.31551 0.3259 0.0
O162 O 0.65051 0.34105 0.32612 0.0
O163 O 0.61321 0.34108 0.30487 0.0
O164 O 0.57005 0.30135 0.31158 0.0
O165 O 0.58121 0.32766 0.33878 0.0
C166 C 0.63705 0.30615 0.36387 0.0
O167 O 0.62777 0.27771 0.31265 0.0
O168 O 0.63228 0.30057 0.29079 0.0
In169 In 0.6854 0.61714 0.31583 0.0
O170 O 0.71875 0.63567 0.30006 0.0
O171 O 0.67726 0.63303 0.2852 0.0
C172 C 0.71231 0.62539 0.35721 0.0
C173 C 0.6349 0.62674 0.32543 0.0
C174 C 0.69043 0.57482 0.29911 0.0
O175 O 0.71181 0.63986 0.3449 0.0
O176 O 0.69907 0.60681 0.34872 0.0
O177 O 0.66788 0.58294 0.297 0.0
O178 O 0.71072 0.58824 0.30913 0.0
C179 C 0.70217 0.64043 0.28502 0.0
O180 O 0.6389 0.60808 0.31545 0.0
O181 O 0.65638 0.64053 0.33073 0.0
In182 In 0.30998 0.6786 0.37772 0.0
O183 O 0.35684 0.68868 0.38259 0.0
O184 O 0.34028 0.66228 0.35665 0.0
C185 C 0.3007 0.6976 0.41825 0.0
C186 C 0.28953 0.70161 0.34727 0.0
C187 C 0.29011 0.63693 0.38058 0.0
O188 O 0.32438 0.69874 0.41185 0.0
O189 O 0.28139 0.6875 0.4039 0.0
O190 O 0.27704 0.64848 0.3689 0.0
O191 O 0.31301 0.64646 0.39076 0.0
C192 C 0.36156 0.67426 0.36699 0.0
O193 O 0.2852 0.68084 0.34493 0.0
O194 O 0.30371 0.71086 0.36518 0.0
In195 In 0.2291 0.35951 0.35779 0.0
O196 O 0.26747 0.363 0.34006 0.0
O197 O 0.27117 0.34948 0.36956 0.0
C198 C 0.22796 0.4034 0.36809 0.0
C199 C 0.20515 0.33449 0.31922 0.0
C200 C 0.20865 0.34376 0.39174 0.0
O201 O 0.24692 0.39353 0.3761 0.0
O202 O 0.20895 0.39101 0.355 0.0
O203 O 0.19926 0.35968 0.38404 0.0
O204 O 0.22751 0.3356 0.38189 0.0
C205 C 0.28269 0.35478 0.35352 0.0
O206 O 0.20521 0.32786 0.33748 0.0
O207 O 0.21463 0.35453 0.32077 0.0
C208 C 0.19885 0.29595 0.29842 0.0
C209 C 0.20286 0.31879 0.29823 0.0
C210 C 0.20609 0.281 0.28113 0.0
C211 C 0.25645 0.28061 0.24118 0.0
H212 H 0.22366 0.21971 0.22225 0.0
C213 C 0.2929 0.21745 0.17322 0.0
C214 C 0.29052 0.19523 0.17619 0.0
C215 C 0.28449 0.23365 0.1888 0.0
C216 C 0.23323 0.23662 0.22762 0.0
H217 H 0.21424 0.34371 0.27858 0.0
H218 H 0.22616 0.31754 0.24809 0.0
H219 H 0.19921 0.24541 0.24491 0.0
H220 H 0.28082 0.17303 0.199 0.0
H221 H 0.26664 0.20136 0.22632 0.0
H222 H 0.29045 0.27173 0.22376 0.0
C223 C 0.21832 0.31124 0.26194 0.0
C224 C 0.21913 0.25137 0.24048 0.0
C225 C 0.21113 0.3262 0.27927 0.0
C226 C 0.28266 0.18998 0.19616 0.0
C227 C 0.27421 0.20614 0.21167 0.0
C228 C 0.27049 0.26587 0.2282 0.0
C229 C 0.21729 0.28863 0.26326 0.0
C230 C 0.2307 0.27349 0.24762 0.0
C231 C 0.27365 0.22785 0.20757 0.0
C232 C 0.25918 0.24365 0.22154 0.0
H233 H 0.19244 0.28973 0.31278 0.0
H234 H 0.20497 0.26371 0.2827 0.0
H235 H 0.26623 0.29744 0.24674 0.0
H236 H 0.29889 0.22201 0.15799 0.0
H237 H 0.28445 0.25029 0.18527 0.0
C238 C 0.66695 0.27511 0.26566 0.0
C239 C 0.65356 0.26752 0.28255 0.0
C240 C 0.68909 0.26497 0.25791 0.0
C241 C 0.74349 0.23397 0.27826 0.0
H242 H 0.76203 0.22922 0.21831 0.0
C243 C 0.83459 0.19076 0.24613 0.0
C244 C 0.84829 0.1999 0.23018 0.0
C245 C 0.81214 0.20012 0.25433 0.0
C246 C 0.75728 0.23076 0.23519 0.0
H247 H 0.65097 0.24212 0.30308 0.0
H248 H 0.68924 0.22404 0.28912 0.0
H249 H 0.71731 0.24031 0.2265 0.0
H250 H 0.85113 0.22717 0.21195 0.0
H251 H 0.81214 0.24367 0.2265 0.0
H252 H 0.78347 0.22424 0.28686 0.0
C253 C 0.68315 0.23822 0.28234 0.0
C254 C 0.73162 0.23698 0.23985 0.0
C255 C 0.66105 0.24841 0.29014 0.0
C256 C 0.84083 0.21969 0.22412 0.0
C257 C 0.81835 0.229 0.23227 0.0
C258 C 0.76913 0.22764 0.27357 0.0
C259 C 0.69814 0.24698 0.26683 0.0
C260 C 0.72448 0.23877 0.26145 0.0
C261 C 0.80306 0.21874 0.24669 0.0
C262 C 0.77634 0.22613 0.25202 0.0
H263 H 0.66162 0.28982 0.25949 0.0
H264 H 0.70021 0.27217 0.24599 0.0
H265 H 0.73887 0.23563 0.29517 0.0
H266 H 0.83992 0.17551 0.25112 0.0
H267 H 0.80077 0.19189 0.26547 0.0
C268 C 0.76843 0.77727 0.1699 0.0
C269 C 0.76742 0.79885 0.181 0.0
C270 C 0.76076 0.75904 0.17971 0.0
C271 C 0.75543 0.74371 0.23414 0.0
H272 H 0.71102 0.69068 0.20114 0.0
C273 C 0.6911 0.66112 0.25425 0.0
C274 C 0.7108 0.65525 0.26982 0.0
C275 C 0.69863 0.67716 0.24165 0.0
C276 C 0.72341 0.7054 0.21055 0.0
H277 H 0.75699 0.81833 0.21076 0.0
H278 H 0.74348 0.78645 0.22788 0.0
H279 H 0.72151 0.72238 0.18284 0.0
H280 H 0.75404 0.66069 0.28372 0.0
H281 H 0.76724 0.68863 0.2616 0.0
H282 H 0.757 0.72698 0.26193 0.0
C283 C 0.75048 0.78365 0.21171 0.0
C284 C 0.72955 0.72346 0.20006 0.0
C285 C 0.75804 0.80187 0.20186 0.0
C286 C 0.7384 0.66498 0.27191 0.0
C287 C 0.74591 0.68106 0.25936 0.0
C288 C 0.74942 0.72565 0.24458 0.0
C289 C 0.75206 0.76207 0.20083 0.0
C290 C 0.74549 0.74284 0.2118 0.0
C291 C 0.72598 0.68765 0.24446 0.0
C292 C 0.73327 0.70634 0.23293 0.0
H293 H 0.77558 0.77446 0.15379 0.0
H294 H 0.76238 0.74261 0.17102 0.0
H295 H 0.76806 0.75833 0.24354 0.0
H296 H 0.66967 0.65386 0.2523 0.0
H297 H 0.68278 0.68201 0.23041 0.0
C298 C 0.26629 0.70256 0.30952 0.0
C299 C 0.28019 0.71394 0.32984 0.0
C300 C 0.25918 0.71403 0.29242 0.0
C301 C 0.24821 0.76929 0.28044 0.0
H302 H 0.26338 0.74494 0.22164 0.0
C303 C 0.23867 0.81813 0.20838 0.0
C304 C 0.22623 0.8063 0.18778 0.0
C305 C 0.24588 0.80698 0.22573 0.0
C306 C 0.25873 0.75184 0.23791 0.0
H307 H 0.29702 0.74626 0.34844 0.0
H308 H 0.28459 0.76632 0.31852 0.0
H309 H 0.27362 0.7252 0.25215 0.0
H310 H 0.21182 0.77359 0.16902 0.0
H311 H 0.22404 0.75412 0.19937 0.0
H312 H 0.23313 0.79586 0.2662 0.0
C313 C 0.27906 0.74855 0.31586 0.0
C314 C 0.2646 0.74053 0.25537 0.0
C315 C 0.28626 0.73707 0.33295 0.0
C316 C 0.2215 0.78312 0.18472 0.0
C317 C 0.22862 0.77197 0.20208 0.0
C318 C 0.24225 0.78057 0.26295 0.0
C319 C 0.26576 0.73711 0.29532 0.0
C320 C 0.25936 0.74912 0.27681 0.0
C321 C 0.2407 0.78378 0.22284 0.0
C322 C 0.24743 0.77196 0.24148 0.0
H323 H 0.26129 0.68473 0.30668 0.0
H324 H 0.24857 0.70481 0.27688 0.0
H325 H 0.24368 0.77618 0.29675 0.0
H326 H 0.24264 0.83602 0.21118 0.0
H327 H 0.25557 0.81654 0.24141 0.0
C328 C 0.32785 0.72788 0.71459 0.0
C329 C 0.33995 0.71008 0.72152 0.0
C330 C 0.30577 0.73591 0.72459 0.0
C331 C 0.24957 0.71599 0.75439 0.0
H332 H 0.2341 0.7769 0.76059 0.0
C333 C 0.16205 0.75157 0.79984 0.0
C334 C 0.14891 0.76798 0.79097 0.0
C335 C 0.18346 0.74234 0.78983 0.0
C336 C 0.238 0.75976 0.75864 0.0
H337 H 0.34035 0.6881 0.74565 0.0
H338 H 0.30238 0.70264 0.76364 0.0
H339 H 0.27825 0.7675 0.74929 0.0
H340 H 0.14585 0.78598 0.76354 0.0
H341 H 0.18318 0.76976 0.74602 0.0
H342 H 0.20938 0.70843 0.76417 0.0
C343 C 0.30929 0.70989 0.74999 0.0
C344 C 0.26333 0.7544 0.75227 0.0
C345 C 0.33125 0.70175 0.73988 0.0
C346 C 0.15571 0.77345 0.77081 0.0
C347 C 0.17724 0.76434 0.76089 0.0
C348 C 0.2243 0.72141 0.76095 0.0
C349 C 0.29555 0.72641 0.74184 0.0
C350 C 0.26938 0.73244 0.74998 0.0
C351 C 0.19209 0.74947 0.77087 0.0
C352 C 0.21823 0.74332 0.76299 0.0
H353 H 0.3341 0.73459 0.70044 0.0
H354 H 0.29563 0.7486 0.71784 0.0
H355 H 0.25331 0.69883 0.75234 0.0
H356 H 0.15716 0.747 0.81535 0.0
H357 H 0.19453 0.73087 0.79784 0.0
C358 C 0.2358 0.17051 0.77765 0.0
C359 C 0.21113 0.15626 0.77043 0.0
C360 C 0.24185 0.18905 0.7679 0.0
C361 C 0.22387 0.21462 0.71909 0.0
H362 H 0.25041 0.26929 0.75969 0.0
C363 C 0.2378 0.29804 0.6888 0.0
C364 C 0.2633 0.31103 0.69654 0.0
C365 C 0.22936 0.28002 0.69865 0.0
C366 C 0.24316 0.25414 0.74815 0.0
H367 H 0.17405 0.14957 0.74669 0.0
H368 H 0.18462 0.18204 0.72963 0.0
H369 H 0.2412 0.23502 0.77406 0.0
H370 H 0.29929 0.31614 0.7213 0.0
H371 H 0.28463 0.28466 0.73844 0.0
H372 H 0.22606 0.23372 0.69315 0.0
C373 C 0.19932 0.17884 0.74278 0.0
C374 C 0.23799 0.23451 0.75635 0.0
C375 C 0.19327 0.16026 0.75255 0.0
C376 C 0.27951 0.30642 0.71501 0.0
C377 C 0.27106 0.28842 0.72486 0.0
C378 C 0.22907 0.23427 0.71087 0.0
C379 C 0.22334 0.19371 0.75074 0.0
C380 C 0.22853 0.21451 0.7419 0.0
C381 C 0.24624 0.2747 0.71643 0.0
C382 C 0.23896 0.2542 0.72531 0.0
H383 H 0.25002 0.16778 0.79135 0.0
H384 H 0.26081 0.19998 0.77407 0.0
H385 H 0.2168 0.19944 0.70755 0.0
H386 H 0.22486 0.30128 0.67461 0.0
H387 H 0.2099 0.26995 0.69204 0.0
C388 C 0.75731 0.20767 0.8191 0.0
C389 C 0.78031 0.21573 0.83497 0.0
C390 C 0.75147 0.21843 0.80126 0.0
C391 C 0.76527 0.27034 0.77992 0.0
H392 H 0.74936 0.23161 0.72292 0.0
C393 C 0.75321 0.30486 0.69854 0.0
C394 C 0.73023 0.29495 0.68333 0.0
C395 C 0.76157 0.29501 0.7166 0.0
C396 C 0.75357 0.24264 0.73871 0.0
H397 H 0.81438 0.24201 0.84534 0.0
H398 H 0.80412 0.2609 0.81403 0.0
H399 H 0.7579 0.21581 0.75636 0.0
H400 H 0.69865 0.26661 0.67451 0.0
H401 H 0.71304 0.24952 0.70606 0.0
H402 H 0.76057 0.29716 0.76227 0.0
C403 C 0.79062 0.24627 0.81545 0.0
C404 C 0.7584 0.23359 0.75786 0.0
C405 C 0.79648 0.23546 0.83335 0.0
C406 C 0.7165 0.27458 0.68594 0.0
C407 C 0.72481 0.26476 0.704 0.0
C408 C 0.76034 0.2794 0.76074 0.0
C409 C 0.76852 0.23746 0.79891 0.0
C410 C 0.764 0.24732 0.77868 0.0
C411 C 0.74709 0.27509 0.71976 0.0
C412 C 0.75418 0.26562 0.73995 0.0
H413 H 0.74436 0.19257 0.82001 0.0
H414 H 0.73394 0.21155 0.78901 0.0
H415 H 0.7694 0.28129 0.79575 0.0
H416 H 0.76423 0.32055 0.69688 0.0
H417 H 0.7791 0.30317 0.72827 0.0
C418 C 0.71162 0.7993 0.80015 0.0
C419 C 0.71105 0.82082 0.79547 0.0
C420 C 0.72057 0.7829 0.78513 0.0
C421 C 0.76692 0.77933 0.74199 0.0
H422 H 0.74043 0.71671 0.73191 0.0
C423 C 0.79748 0.71434 0.67369 0.0
C424 C 0.79764 0.69254 0.67765 0.0
C425 C 0.79122 0.73088 0.68999 0.0
C426 C 0.7484 0.73412 0.73491 0.0
H427 H 0.71635 0.84141 0.77048 0.0
H428 H 0.73117 0.81262 0.74402 0.0
H429 H 0.71604 0.74274 0.75425 0.0
H430 H 0.79509 0.6716 0.70263 0.0
H431 H 0.78464 0.70059 0.73119 0.0
H432 H 0.7991 0.77069 0.7224 0.0
C433 C 0.72564 0.80861 0.75957 0.0
C434 C 0.73427 0.74903 0.74757 0.0
C435 C 0.71679 0.82501 0.7746 0.0
C436 C 0.79487 0.68821 0.69902 0.0
C437 C 0.78854 0.70474 0.7153 0.0
C438 C 0.78101 0.76442 0.72929 0.0
C439 C 0.72893 0.78773 0.76514 0.0
C440 C 0.74328 0.77181 0.75114 0.0
C441 C 0.7851 0.72588 0.71051 0.0
C442 C 0.77185 0.74166 0.72556 0.0
H443 H 0.70738 0.79559 0.81612 0.0
H444 H 0.7228 0.76697 0.78991 0.0
H445 H 0.7748 0.79674 0.74487 0.0
H446 H 0.79966 0.71821 0.6574 0.0
H447 H 0.78885 0.74705 0.68582 0.0
C448 C 0.24037 0.11971 0.8844 0.0
C449 C 0.22449 0.13361 0.87382 0.0
C450 C 0.25211 0.12636 0.9064 0.0
C451 C 0.23851 0.16061 0.95653 0.0
H452 H 0.31186 0.15092 0.98059 0.0
C453 C 0.26857 0.17866 0.04951 0.0
C454 C 0.28168 0.16241 0.05856 0.0
C455 C 0.2675 0.17929 0.02698 0.0
C456 C 0.29127 0.15363 0.97414 0.0
H457 H 0.20939 0.16568 0.87758 0.0
H458 H 0.22968 0.17718 0.91605 0.0
H459 H 0.29852 0.14355 0.94052 0.0
H460 H 0.30542 0.13492 0.0517 0.0
H461 H 0.30248 0.13524 0.01205 0.0
H462 H 0.23039 0.1695 0.98975 0.0
C463 C 0.23294 0.16113 0.90736 0.0
C464 C 0.28371 0.14947 0.95122 0.0
C465 C 0.22137 0.15456 0.88536 0.0
C466 C 0.29528 0.14767 0.04504 0.0
C467 C 0.29364 0.14793 0.02233 0.0
C468 C 0.2459 0.16451 0.97933 0.0
C469 C 0.24799 0.14694 0.91821 0.0
C470 C 0.25716 0.15278 0.94225 0.0
C471 C 0.27878 0.16323 0.0129 0.0
C472 C 0.27229 0.16092 0.98849 0.0
H473 H 0.2432 0.1035 0.87584 0.0
H474 H 0.26342 0.11502 0.91443 0.0
H475 H 0.21772 0.1629 0.9501 0.0
H476 H 0.25823 0.19039 0.05973 0.0
H477 H 0.2567 0.19177 0.02045 0.0
C478 C 0.7944 0.1869 0.95617 0.0
C479 C 0.81492 0.19568 0.94461 0.0
C480 C 0.79926 0.18822 0.97905 0.0
C481 C 0.8113 0.19721 0.02896 0.0
H482 H 0.88482 0.1843 0.04873 0.0
C483 C 0.84464 0.18683 0.11913 0.0
C484 C 0.86139 0.17009 0.12206 0.0
C485 C 0.83877 0.1925 0.09826 0.0
C486 C 0.86414 0.18777 0.04346 0.0
H487 H 0.85564 0.21436 0.94804 0.0
H488 H 0.86384 0.21726 0.98811 0.0
H489 H 0.87432 0.19114 0.0113 0.0
H490 H 0.88468 0.14583 0.10548 0.0
H491 H 0.87385 0.15525 0.06894 0.0
H492 H 0.80078 0.19264 0.06083 0.0
C493 C 0.84432 0.20875 0.97944 0.0
C494 C 0.85823 0.1921 0.02208 0.0
C495 C 0.83955 0.20726 0.95652 0.0
C496 C 0.8718 0.15886 0.10371 0.0
C497 C 0.86578 0.16441 0.08282 0.0
C498 C 0.81717 0.19272 0.05033 0.0
C499 C 0.82466 0.19851 0.99087 0.0
C500 C 0.83162 0.19653 0.01443 0.0
C501 C 0.84942 0.18145 0.07988 0.0
C502 C 0.84354 0.18757 0.05769 0.0
H503 H 0.7752 0.17788 0.94741 0.0
H504 H 0.78372 0.17998 0.98722 0.0
H505 H 0.79068 0.20083 0.0237 0.0
H506 H 0.83646 0.19586 0.13304 0.0
H507 H 0.82635 0.20584 0.09664 0.0
C508 C 0.72895 0.88803 0.93035 0.0
C509 C 0.71307 0.87235 0.91357 0.0
C510 C 0.7273 0.88674 0.95249 0.0
C511 C 0.71365 0.84597 0.9877 0.0
H512 H 0.72279 0.89815 0.03333 0.0
C513 C 0.73818 0.84215 0.08086 0.0
C514 C 0.76069 0.85743 0.09164 0.0
C515 C 0.72604 0.84398 0.05978 0.0
C516 C 0.72016 0.88342 0.02077 0.0
H517 H 0.6821 0.84356 0.9067 0.0
H518 H 0.6793 0.8412 0.94569 0.0
H519 H 0.71131 0.90171 0.99474 0.0
H520 H 0.78784 0.88678 0.08907 0.0
H521 H 0.76678 0.88993 0.0524 0.0
H522 H 0.72356 0.82783 0.0137 0.0
C523 C 0.69309 0.85444 0.94161 0.0
C524 C 0.71356 0.88545 -0.00129 0.0
C525 C 0.69459 0.85585 0.91934 0.0
C526 C 0.77054 0.87474 0.08116 0.0
C527 C 0.75831 0.87666 0.06023 0.0
C528 C 0.72021 0.84394 0.00981 0.0
C529 C 0.70981 0.86967 0.95839 0.0
C530 C 0.71123 0.86688 0.98187 0.0
C531 C 0.73603 0.86126 0.04926 0.0
C532 C 0.72449 0.86277 0.02646 0.0
H533 H 0.74333 0.90097 0.92638 0.0
H534 H 0.74076 0.89855 0.96498 0.0
H535 H 0.71222 0.83138 0.9751 0.0
H536 H 0.73014 0.82867 0.0886 0.0
H537 H 0.70885 0.83192 0.05171 0.0
C538 C 0.1931 0.79534 0.06237 0.0
C539 C 0.21346 0.81088 0.07576 0.0
C540 C 0.19269 0.79159 0.03944 0.0
C541 C 0.21104 0.82336 -0.00268 0.0
H542 H 0.18211 0.769 0.95716 0.0
C543 C 0.17941 0.82281 0.90468 0.0
C544 C 0.1539 0.8104 0.89571 0.0
C545 C 0.192 0.82055 0.92545 0.0
C546 C 0.19016 0.78432 0.96818 0.0
H547 H 0.25091 0.83307 0.07591 0.0
H548 H 0.2503 0.82638 0.0358 0.0
H549 H 0.19647 0.76786 0.99603 0.0
H550 H 0.12172 0.78567 0.90123 0.0
H551 H 0.14329 0.78209 0.93766 0.0
H552 H 0.20362 0.84 0.96987 0.0
C553 C 0.23439 0.81739 0.04302 0.0
C554 C 0.19848 0.78364 0.99039 0.0
C555 C 0.23484 0.82111 0.06598 0.0
C556 C 0.14139 0.79548 0.90775 0.0
C557 C 0.1539 0.79326 0.92853 0.0
C558 C 0.20265 0.82405 0.97517 0.0
C559 C 0.21263 0.80333 0.02947 0.0
C560 C 0.20836 0.80324 0.00531 0.0
C561 C 0.17928 0.80586 0.93769 0.0
C562 C 0.19144 0.80462 0.96046 0.0
H563 H 0.17642 0.78713 0.06947 0.0
H564 H 0.17556 0.78072 0.02949 0.0
H565 H 0.21811 0.83881 0.00844 0.0
H566 H 0.18965 0.83431 0.89567 0.0
H567 H 0.21169 0.83032 0.93193 0.0
C568 C 0.17517 0.17462 0.13627 0.0
C569 C 0.18495 0.15385 0.13348 0.0
C570 C 0.14977 0.17715 0.14422 0.0
C571 C 0.09971 0.15044 0.17564 0.0
H572 H 0.04887 0.1867 0.1505 0.0
C573 C 0.98408 0.144 0.18629 0.0
C574 C 0.9712 0.16341 0.18875 0.0
C575 C 0.01175 0.14473 0.18256 0.0
C576 C 0.06306 0.17683 0.15796 0.0
H577 H 0.17559 0.11934 0.13621 0.0
H578 H 0.13099 0.12362 0.14961 0.0
H579 H 0.09356 0.18384 0.13678 0.0
H580 H 0.97738 0.19895 0.19018 0.0
H581 H 0.02599 0.20023 0.18358 0.0
H582 H 0.06888 0.14301 0.19643 0.0
C583 C 0.14318 0.13806 0.14613 0.0
C584 C 0.08863 0.17515 0.15006 0.0
C585 C 0.16859 0.13555 0.13826 0.0
C586 C 0.98683 0.18374 0.18835 0.0
C587 C 0.01454 0.18445 0.18442 0.0
C588 C 0.07412 0.15207 0.18347 0.0
C589 C 0.13365 0.15894 0.14949 0.0
C590 C 0.10706 0.16166 0.15859 0.0
C591 C 0.02709 0.16487 0.18107 0.0
C592 C 0.05537 0.16503 0.17449 0.0
H593 H 0.18744 0.18905 0.13284 0.0
H594 H 0.14313 0.19348 0.14678 0.0
H595 H 0.1137 0.14031 0.1829 0.0
H596 H 0.97252 0.1281 0.18654 0.0
H597 H 0.02075 0.12935 0.17984 0.0
C598 C 0.76566 0.92642 0.17753 0.0
C599 C 0.78847 0.91639 0.18517 0.0
C600 C 0.76603 0.94937 0.18237 0.0
C601 C 0.80315 0.00097 0.21654 0.0
H602 H 0.79273 0.02488 0.16226 0.0
C603 C 0.85766 0.08518 0.20725 0.0
C604 C 0.84483 0.09775 0.19301 0.0
C605 C 0.84511 0.06431 0.20912 0.0
C606 C 0.7951 0.01866 0.1777 0.0
H607 H 0.82842 0.92216 0.20533 0.0
H608 H 0.82897 0.96216 0.21391 0.0
H609 H 0.77949 0.98573 0.1617 0.0
H610 H 0.80833 0.09882 0.17023 0.0
H611 H 0.78607 0.06246 0.17378 0.0
H612 H 0.81943 0.03384 0.23245 0.0
C613 C 0.81085 0.95237 0.20417 0.0
C614 C 0.7875 0.99616 0.17736 0.0
C615 C 0.81061 0.92947 0.19916 0.0
C616 C 0.8188 0.08937 0.18118 0.0
C617 C 0.80611 0.06853 0.18318 0.0
C618 C 0.81054 0.02354 0.21693 0.0
C619 C 0.78905 0.96262 0.19513 0.0
C620 C 0.79224 0.98697 0.19662 0.0
C621 C 0.81932 0.0556 0.19693 0.0
C622 C 0.80746 0.03251 0.19736 0.0
H623 H 0.74829 0.91671 0.16674 0.0
H624 H 0.74885 0.95686 0.17537 0.0
H625 H 0.80675 0.99434 0.23167 0.0
H626 H 0.87775 0.09123 0.21658 0.0
H627 H 0.85616 0.0547 0.21955 0.0
C628 C 0.8927 0.84019 0.13361 0.0
C629 C 0.88209 0.84622 0.15368 0.0
C630 C 0.92099 0.83878 0.13332 0.0
C631 C 0.98886 0.85907 0.16565 0.0
H632 H 0.01382 0.81099 0.1272 0.0
C633 C 0.10476 0.84724 0.16559 0.0
C634 C 0.1137 0.8413 0.14481 0.0
C635 C 0.07652 0.84728 0.16751 0.0
C636 C 0.00719 0.82464 0.13787 0.0
H637 H 0.89263 0.85533 0.1892 0.0
H638 H 0.94207 0.8528 0.1887 0.0
H639 H 0.96439 0.81192 0.12897 0.0
H640 H 0.1002 0.83088 0.10975 0.0
H641 H 0.05108 0.83125 0.11304 0.0
H642 H 0.03165 0.87193 0.17436 0.0
C643 C 0.92857 0.84935 0.17318 0.0
C644 C 0.97887 0.82516 0.1389 0.0
C645 C 0.90025 0.85068 0.17347 0.0
C646 C 0.09392 0.83546 0.12601 0.0
C647 C 0.06576 0.83552 0.12792 0.0
C648 C 0.0172 0.85858 0.1646 0.0
C649 C 0.93925 0.84344 0.15309 0.0
C650 C 0.96938 0.84246 0.15266 0.0
C651 C 0.0567 0.84137 0.14868 0.0
C652 C 0.02667 0.84145 0.15055 0.0
H653 H 0.8792 0.83671 0.11809 0.0
H654 H 0.92864 0.83445 0.11756 0.0
H655 H 0.98217 0.87277 0.17622 0.0
H656 H 0.11956 0.85175 0.18037 0.0
H657 H 0.07019 0.85166 0.18377 0.0
C658 C 0.29786 0.07609 0.1318 0.0
C659 C 0.27851 0.0829 0.1166 0.0
C660 C 0.29784 0.05361 0.13302 0.0
C661 C 0.26946 -0.00294 0.10326 0.0
H662 H 0.27015 0.98263 0.16219 0.0
C663 C 0.21511 0.91587 0.1201 0.0
C664 C 0.22913 0.90449 0.1349 0.0
C665 C 0.2261 0.93692 0.11746 0.0
C666 C 0.27037 0.98639 0.14565 0.0
H667 H 0.24488 0.07155 0.09011 0.0
H668 H 0.24462 0.03264 0.09237 0.0
H669 H 0.28175 0.02099 0.15767 0.0
H670 H 0.26551 0.90624 0.15873 0.0
H671 H 0.28452 0.94348 0.15441 0.0
H672 H 0.25676 0.96259 0.09129 0.0
C673 C 0.26004 0.04445 0.1032 0.0
C674 C 0.27711 0.00833 0.14304 0.0
C675 C 0.26005 0.06682 0.10201 0.0
C676 C 0.25427 0.91467 0.14721 0.0
C677 C 0.26512 0.93593 0.14477 0.0
C678 C 0.26252 0.9752 0.10588 0.0
C679 C 0.27855 0.03758 0.11901 0.0
C680 C 0.27594 0.014 0.1218 0.0
C681 C 0.2512 0.94716 0.12973 0.0
C682 C 0.26217 0.96975 0.12709 0.0
H683 H 0.31237 0.08815 0.14323 0.0
H684 H 0.31256 0.04882 0.14521 0.0
H685 H 0.26894 0.0008 0.08668 0.0
H686 H 0.19573 0.90842 0.11036 0.0
H687 H 0.21472 0.94535 0.10601 0.0
C688 C 0.83387 0.87615 0.85706 0.0
C689 C 0.81179 0.85899 0.85235 0.0
C690 C 0.86115 0.8714 0.85644 0.0
C691 C 0.90184 0.83019 0.83098 0.0
H692 H 0.95965 0.85634 0.87853 0.0
C693 C 0.0132 0.80644 0.83261 0.0
C694 C 0.03491 0.82356 0.84027 0.0
C695 C 0.98577 0.81008 0.83477 0.0
C696 C 0.94385 0.84911 0.86496 0.0
H697 H 0.80081 0.82345 0.84336 0.0
H698 H 0.8484 0.81522 0.84206 0.0
H699 H 0.91224 0.86456 0.8809 0.0
H700 H 0.04505 0.85792 0.85595 0.0
H701 H 0.99741 0.86446 0.85909 0.0
H702 H 0.93337 0.8152 0.81469 0.0
C703 C 0.84463 0.8323 0.84624 0.0
C704 C 0.9167 0.85379 0.86638 0.0
C705 C 0.81744 0.83702 0.84713 0.0
C706 C 0.02874 0.84434 0.85005 0.0
C707 C 0.0014 0.84805 0.85199 0.0
C708 C 0.92904 0.8257 0.82941 0.0
C709 C 0.86672 0.84944 0.85082 0.0
C710 C 0.89547 0.84439 0.8494 0.0
C711 C 0.97954 0.83097 0.84443 0.0
C712 C 0.95042 0.83516 0.84636 0.0
H713 H 0.83007 0.89324 0.8611 0.0
H714 H 0.87784 0.88492 0.8599 0.0
H715 H 0.88585 0.82291 0.81754 0.0
H716 H 0.0174 0.79023 0.82507 0.0
H717 H 0.9695 0.79646 0.82903 0.0
C718 C 0.17668 0.88044 0.81506 0.0
C719 C 0.14874 0.87153 0.80958 0.0
C720 C 0.18658 0.8998 0.80785 0.0
C721 C 0.16814 0.93844 0.76936 0.0
H722 H 0.21224 0.98252 0.81487 0.0
C723 C 0.16549 0.03183 0.77636 0.0
C724 C 0.18948 0.04632 0.78528 0.0
C725 C 0.16587 0.00898 0.77386 0.0
C726 C 0.2005 0.97029 0.80175 0.0
H727 H 0.10944 0.87546 0.79176 0.0
H728 H 0.12642 0.90947 0.77973 0.0
H729 H 0.20284 0.94482 0.82132 0.0
H730 H 0.23322 0.04838 0.79697 0.0
H731 H 0.23384 0.00835 0.79269 0.0
H732 H 0.16457 0.96443 0.75035 0.0
C733 C 0.14091 0.90136 0.78917 0.0
C734 C 0.19509 0.94862 0.80545 0.0
C735 C 0.13108 0.88197 0.79627 0.0
C736 C 0.21436 0.03757 0.79016 0.0
C737 C 0.21471 0.01469 0.7878 0.0
C738 C 0.17342 0.96018 0.76572 0.0
C739 C 0.16869 0.91068 0.79512 0.0
C740 C 0.17812 0.9326 0.78959 0.0
C741 C 0.19023 0.00021 0.78035 0.0
C742 C 0.18897 0.97646 0.78216 0.0
H743 H 0.19081 0.8726 0.82514 0.0
H744 H 0.20817 0.90639 0.81249 0.0
H745 H 0.15549 0.92637 0.75661 0.0
H746 H 0.14604 0.03813 0.77237 0.0
H747 H 0.14662 -0.00173 0.76824 0.0
C748 C 0.08743 0.1341 0.81204 0.0
C749 C 0.1029 0.12072 0.82366 0.0
C750 C 0.06116 0.13819 0.81726 0.0
C751 C 0.00289 0.1174 0.84484 0.0
H752 H 0.98373 0.17707 0.84657 0.0
C753 C 0.90214 0.14496 0.87612 0.0
C754 C 0.88795 0.15855 0.86381 0.0
C755 C 0.92848 0.14 0.87171 0.0
C756 C 0.98865 0.16028 0.84595 0.0
H757 H 0.10291 0.10091 0.84968 0.0
H758 H 0.05699 0.10823 0.85897 0.0
H759 H 0.02937 0.16886 0.83787 0.0
H760 H 0.89004 0.17745 0.83715 0.0
H761 H 0.93582 0.16867 0.82933 0.0
H762 H 0.96205 0.10886 0.85291 0.0
C763 C 0.06509 0.11537 0.84566 0.0
C764 C 0.0148 0.15556 0.84095 0.0
C765 C 0.09142 0.11126 0.84042 0.0
C766 C 0.90052 0.16701 0.84698 0.0
C767 C 0.92682 0.16208 0.84258 0.0
C768 C 0.97668 0.12213 0.84986 0.0
C769 C 0.04977 0.12904 0.83425 0.0
C770 C 0.02216 0.13404 0.84016 0.0
C771 C 0.94114 0.14858 0.85493 0.0
C772 C 0.96921 0.14359 0.8503 0.0
H773 H 0.09568 0.14153 0.79896 0.0
H774 H 0.0497 0.14848 0.80789 0.0
H775 H 0.00783 0.10061 0.84414 0.0
H776 H 0.89296 0.13823 0.88923 0.0
H777 H 0.9391 0.12973 0.88165 0.0
C778 C 0.7221 0.94287 0.8214 0.0
C779 C 0.70637 0.93103 0.83439 0.0
C780 C 0.71945 0.96509 0.82103 0.0
C781 C 0.70602 0.01283 0.85836 0.0
H782 H 0.71661 0.04236 0.80838 0.0
C783 C 0.73984 0.10668 0.87043 0.0
C784 C 0.76214 0.11244 0.85901 0.0
C785 C 0.72502 0.08552 0.8651 0.0
C786 C 0.71359 0.03436 0.82249 0.0
H787 H 0.67424 0.93259 0.85604 0.0
H788 H 0.66986 0.97176 0.85564 0.0
H789 H 0.70327 0.00239 0.80221 0.0
H790 H 0.78591 0.10092 0.83267 0.0
H791 H 0.7605 0.06398 0.82367 0.0
H792 H 0.71792 0.04447 0.87878 0.0
C793 C 0.6842 0.96377 0.84574 0.0
C794 C 0.70584 0.01152 0.81894 0.0
C795 C 0.68662 0.94139 0.84589 0.0
C796 C 0.76884 0.09693 0.84178 0.0
C797 C 0.75407 0.07582 0.83647 0.0
C798 C 0.71388 0.03565 0.86192 0.0
C799 C 0.70121 0.97599 0.83382 0.0
C800 C 0.703 0.00043 0.83691 0.0
C801 C 0.73221 0.06976 0.84825 0.0
C802 C 0.71879 0.04652 0.8441 0.0
H803 H 0.73739 0.93524 0.81229 0.0
H804 H 0.73306 0.97409 0.81186 0.0
H805 H 0.70429 0.00472 0.87256 0.0
H806 H 0.73412 0.11839 0.8837 0.0
H807 H 0.70815 0.08141 0.87436 0.0
C808 C 0.73146 0.61249 0.39138 0.0
C809 C 0.72676 0.62996 0.37993 0.0
C810 C 0.74414 0.61685 0.41322 0.0
C811 C 0.75005 0.6579 0.46249 0.0
H812 H 0.8082 0.62624 0.48513 0.0
C813 C 0.78198 0.66919 0.55556 0.0
C814 C 0.78567 0.64976 0.56403 0.0
C815 C 0.78162 0.6694 0.53296 0.0
C816 C 0.79183 0.63512 0.47913 0.0
H817 H 0.73208 0.66561 0.38208 0.0
H818 H 0.75365 0.67323 0.42054 0.0
H819 H 0.79386 0.621 0.44533 0.0
H820 H 0.79336 0.61564 0.55588 0.0
H821 H 0.79145 0.61557 0.51634 0.0
H822 H 0.74647 0.67098 0.49599 0.0
C823 C 0.74771 0.65621 0.41251 0.0
C824 C 0.78376 0.63219 0.45634 0.0
C825 C 0.73542 0.65184 0.39055 0.0
C826 C 0.79059 0.63088 0.54974 0.0
C827 C 0.78961 0.63091 0.52705 0.0
C828 C 0.75775 0.66056 0.48524 0.0
C829 C 0.75197 0.63876 0.42408 0.0
C830 C 0.76255 0.64334 0.44788 0.0
C831 C 0.78421 0.64999 0.51827 0.0
C832 C 0.77847 0.64897 0.49392 0.0
H833 H 0.72509 0.59546 0.38353 0.0
H834 H 0.74695 0.60313 0.42188 0.0
H835 H 0.73338 0.66647 0.45639 0.0
H836 H 0.77847 0.68406 0.56632 0.0
H837 H 0.7783 0.68459 0.52694 0.0
C838 C 0.3555 0.70297 0.60741 0.0
C839 C 0.34022 0.68818 0.61799 0.0
C840 C 0.34424 0.70842 0.58757 0.0
C841 C 0.29286 0.68572 0.53967 0.0
H842 H 0.31325 0.74265 0.52289 0.0
C843 C 0.27232 0.69709 0.44958 0.0
C844 C 0.29681 0.70459 0.44158 0.0
C845 C 0.2709 0.69972 0.47233 0.0
C846 C 0.3072 0.72673 0.5274 0.0
H847 H 0.30077 0.66813 0.61663 0.0
H848 H 0.28088 0.67784 0.58198 0.0
H849 H 0.32321 0.73806 0.56139 0.0
H850 H 0.33803 0.72239 0.45086 0.0
H851 H 0.33555 0.72703 0.49046 0.0
H852 H 0.27776 0.67418 0.5056 0.0
C853 C 0.30175 0.68497 0.58887 0.0
C854 C 0.31299 0.72406 0.5494 0.0
C855 C 0.3131 0.67944 0.60871 0.0
C856 C 0.31895 0.71635 0.45658 0.0
C857 C 0.31745 0.71913 0.47928 0.0
C858 C 0.28692 0.68844 0.51773 0.0
C859 C 0.31736 0.69928 0.5779 0.0
C860 C 0.30681 0.70329 0.55561 0.0
C861 C 0.29384 0.71007 0.4874 0.0
C862 C 0.29491 0.70875 0.51123 0.0
H863 H 0.37646 0.70998 0.61418 0.0
H864 H 0.35706 0.71917 0.57941 0.0
H865 H 0.28806 0.66945 0.54379 0.0
H866 H 0.2549 0.68802 0.43837 0.0
H867 H 0.25235 0.69278 0.47815 0.0
C868 C 0.19103 0.35199 0.42833 0.0
C869 C 0.2015 0.33713 0.41253 0.0
C870 C 0.19071 0.34792 0.44996 0.0
C871 C 0.23154 0.31983 0.48732 0.0
H872 H 0.18189 0.33992 0.52916 0.0
C873 C 0.25859 0.31868 0.57952 0.0
C874 C 0.25553 0.3382 0.59373 0.0
C875 C 0.24643 0.31482 0.55755 0.0
C876 C 0.19595 0.33426 0.51765 0.0
H877 H 0.21688 0.30532 0.40608 0.0
H878 H 0.21548 0.29786 0.44354 0.0
H879 H 0.16888 0.33916 0.48965 0.0
H880 H 0.23647 0.36858 0.59642 0.0
H881 H 0.21583 0.36213 0.55791 0.0
H882 H 0.25908 0.31571 0.5151 0.0
C883 C 0.20842 0.31299 0.43954 0.0
C884 C 0.18847 0.33379 0.49505 0.0
C885 C 0.20907 0.31719 0.41806 0.0
C886 C 0.23922 0.3534 0.58581 0.0
C887 C 0.2272 0.34961 0.56378 0.0
C888 C 0.23899 0.32031 0.50981 0.0
C889 C 0.20061 0.32882 0.45601 0.0
C890 C 0.20641 0.32688 0.47967 0.0
C891 C 0.23115 0.33048 0.54929 0.0
C892 C 0.22152 0.32786 0.52529 0.0
H893 H 0.1851 0.36752 0.42447 0.0
H894 H 0.18464 0.36049 0.46224 0.0
H895 H 0.2462 0.31492 0.47605 0.0
H896 H 0.2708 0.30656 0.58525 0.0
H897 H 0.24947 0.29975 0.54691 0.0
C898 C 0.66604 0.31921 0.40035 0.0
C899 C 0.64786 0.30266 0.38609 0.0
C900 C 0.6746 0.31648 0.42195 0.0
C901 C 0.64996 0.28754 0.46473 0.0
H902 H 0.72177 0.31186 0.49703 0.0
C903 C 0.66519 0.31781 0.55767 0.0
C904 C 0.68853 0.31306 0.5705 0.0
C905 C 0.66238 0.31247 0.53473 0.0
C906 C 0.70178 0.30467 0.48815 0.0
H907 H 0.62552 0.26981 0.38276 0.0
H908 H 0.64063 0.26497 0.42041 0.0
H909 H 0.71431 0.30958 0.45687 0.0
H910 H 0.72724 0.29892 0.56947 0.0
H911 H 0.72246 0.28978 0.52893 0.0
H912 H 0.63721 0.28311 0.49598 0.0
C913 C 0.64792 0.2802 0.41505 0.0
C914 C 0.69742 0.30357 0.46523 0.0
C915 C 0.63931 0.28296 0.39349 0.0
C916 C 0.70903 0.30274 0.55993 0.0
C917 C 0.70635 0.29758 0.53681 0.0
C918 C 0.65429 0.2887 0.48758 0.0
C919 C 0.66518 0.29712 0.42967 0.0
C920 C 0.67124 0.29552 0.45337 0.0
C921 C 0.68293 0.30239 0.52404 0.0
C922 C 0.67997 0.29786 0.49959 0.0
H923 H 0.67302 0.33454 0.39505 0.0
H924 H 0.68764 0.32994 0.43288 0.0
H925 H 0.62948 0.28141 0.45616 0.0
H926 H 0.64903 0.32575 0.56535 0.0
H927 H 0.64434 0.31671 0.52531 0.0
C928 C 0.67829 0.66311 0.65634 0.0
C929 C 0.6838 0.65197 0.63588 0.0
C930 C 0.65112 0.66573 0.66022 0.0
C931 C 0.57968 0.64071 0.6424 0.0
H932 H 0.56026 0.69705 0.67021 0.0
C933 C 0.46651 0.65513 0.64804 0.0
C934 C 0.46001 0.66771 0.66743 0.0
C935 C 0.49401 0.65372 0.64457 0.0
C936 C 0.56542 0.68113 0.66272 0.0
H937 H 0.66536 0.63499 0.60336 0.0
H938 H 0.6177 0.63943 0.61021 0.0
H939 H 0.60798 0.69379 0.66309 0.0
H940 H 0.47713 0.68874 0.69842 0.0
H941 H 0.52546 0.68591 0.6926 0.0
H942 H 0.5374 0.62787 0.64229 0.0
C943 C 0.63445 0.64608 0.62324 0.0
C944 C 0.59271 0.6793 0.65857 0.0
C945 C 0.66167 0.64364 0.61929 0.0
C946 C 0.48159 0.67896 0.6833 0.0
C947 C 0.50923 0.67742 0.67989 0.0
C948 C 0.55249 0.64248 0.64669 0.0
C949 C 0.62892 0.65708 0.64378 0.0
C950 C 0.60004 0.65911 0.64824 0.0
C951 C 0.51573 0.6647 0.6605 0.0
C952 C 0.54495 0.66275 0.65674 0.0
H953 H 0.69497 0.66974 0.66944 0.0
H954 H 0.64744 0.67411 0.67625 0.0
H955 H 0.58488 0.62484 0.63478 0.0
H956 H 0.45031 0.64641 0.63541 0.0
H957 H 0.49822 0.64417 0.62925 0.0
C958 C 0.36053 0.59818 0.70278 0.0
C959 C 0.34909 0.60637 0.68435 0.0
C960 C 0.35254 0.57647 0.70541 0.0
C961 C 0.29991 0.52762 0.68548 0.0
H962 H 0.36136 0.4947 0.69813 0.0
C963 C 0.28753 0.43272 0.68627 0.0
C964 C 0.30529 0.42148 0.67325 0.0
C965 C 0.29125 0.45588 0.69124 0.0
C966 C 0.34397 0.50372 0.69474 0.0
H967 H 0.31959 0.59862 0.65463 0.0
H968 H 0.30594 0.56052 0.659 0.0
H969 H 0.36991 0.53459 0.70021 0.0
H970 H 0.34092 0.4255 0.65543 0.0
H971 H 0.34745 0.46564 0.66419 0.0
H972 H 0.27421 0.49638 0.67907 0.0
C973 C 0.32083 0.57096 0.67158 0.0
C974 C 0.34881 0.52658 0.69611 0.0
C975 C 0.32882 0.5927 0.66896 0.0
C976 C 0.32688 0.4337 0.66549 0.0
C977 C 0.33077 0.45668 0.67064 0.0
C978 C 0.29504 0.50468 0.6842 0.0
C979 C 0.33296 0.5625 0.68964 0.0
C980 C 0.32696 0.53872 0.69095 0.0
C981 C 0.31303 0.46802 0.68354 0.0
C982 C 0.31719 0.49248 0.68821 0.0
H983 H 0.37601 0.60843 0.71503 0.0
H984 H 0.36199 0.5705 0.71964 0.0
H985 H 0.28263 0.5366 0.68166 0.0
H986 H 0.27071 0.42365 0.69244 0.0
H987 H 0.27731 0.46428 0.70123 0.0
C988 C 0.60159 0.34506 0.66472 0.0
C989 C 0.61082 0.32831 0.65008 0.0
C990 C 0.57336 0.34503 0.66661 0.0
C991 C 0.50526 0.32552 0.6352 0.0
H992 H 0.47798 0.33841 0.69201 0.0
C993 C 0.3884 0.32365 0.64241 0.0
C994 C 0.38057 0.34048 0.65778 0.0
C995 C 0.41631 0.32059 0.64218 0.0
C996 C 0.48528 0.335 0.676 0.0
H997 H 0.59789 0.2982 0.62625 0.0
H998 H 0.54859 0.29823 0.6295 0.0
H999 H 0.5273 0.33621 0.69052 0.0
H1000 H 0.39567 0.36726 0.685 0.0
H1001 H 0.44428 0.36231 0.68427 0.0
H1002 H 0.46353 0.32488 0.6206 0.0
C1003 C 0.56315 0.31142 0.63942 0.0
C1004 C 0.51352 0.3337 0.67518 0.0
C1005 C 0.59137 0.31134 0.63766 0.0
C1006 C 0.40108 0.35407 0.67302 0.0
C1007 C 0.42895 0.35112 0.6727 0.0
C1008 C 0.47708 0.327 0.63601 0.0
C1009 C 0.55384 0.32836 0.65377 0.0
C1010 C 0.5238 0.32904 0.65476 0.0
C1011 C 0.43695 0.33441 0.65721 0.0
C1012 C 0.46675 0.33188 0.65642 0.0
H1013 H 0.61613 0.35835 0.67448 0.0
H1014 H 0.56673 0.3584 0.67767 0.0
H1015 H 0.51268 0.3222 0.61922 0.0
H1016 H 0.37299 0.31286 0.63053 0.0
H1017 H 0.42168 0.30735 0.63024 0.0
C1018 C 0.79113 0.56936 0.64362 0.0
C1019 C 0.76766 0.57687 0.63349 0.0
C1020 C 0.78996 0.54755 0.64756 0.0
C1021 C 0.78378 0.49653 0.64183 0.0
H1022 H 0.71635 0.4731 0.66235 0.0
C1023 C 0.74691 0.40329 0.63286 0.0
C1024 C 0.73142 0.39598 0.64879 0.0
C1025 C 0.75595 0.42577 0.63432 0.0
C1026 C 0.73555 0.47941 0.657 0.0
H1027 H 0.72489 0.56736 0.61895 0.0
H1028 H 0.72295 0.52953 0.62561 0.0
H1029 H 0.72316 0.51175 0.65847 0.0
H1030 H 0.71485 0.40613 0.67952 0.0
H1031 H 0.73109 0.44532 0.68234 0.0
H1032 H 0.79604 0.464 0.64027 0.0
C1033 C 0.7421 0.54047 0.63089 0.0
C1034 C 0.73927 0.50152 0.6545 0.0
C1035 C 0.74328 0.56212 0.62694 0.0
C1036 C 0.72646 0.41135 0.66686 0.0
C1037 C 0.73568 0.43379 0.66842 0.0
C1038 C 0.78005 0.47431 0.64436 0.0
C1039 C 0.76525 0.53303 0.64153 0.0
C1040 C 0.76308 0.51019 0.64638 0.0
C1041 C 0.74981 0.44134 0.65183 0.0
C1042 C 0.75563 0.46541 0.65157 0.0
H1043 H 0.8102 0.5804 0.64883 0.0
H1044 H 0.80811 0.54222 0.6558 0.0
H1045 H 0.80234 0.50279 0.63554 0.0
H1046 H 0.75106 0.39177 0.61877 0.0
H1047 H 0.76653 0.43102 0.62114 0.0
C1048 C 0.32359 0.35845 0.33279 0.0
C1049 C 0.31123 0.35072 0.35009 0.0
C1050 C 0.35021 0.35393 0.32895 0.0
C1051 C 0.40106 0.31553 0.33822 0.0
H1052 H 0.45452 0.36332 0.32939 0.0
C1053 C 0.51124 0.30329 0.31461 0.0
C1054 C 0.53266 0.31833 0.32738 0.0
C1055 C 0.48353 0.30645 0.31621 0.0
C1056 C 0.43979 0.34982 0.33181 0.0
H1057 H 0.31689 0.33217 0.37691 0.0
H1058 H 0.36353 0.32425 0.37017 0.0
H1059 H 0.40735 0.37046 0.33482 0.0
H1060 H 0.542 0.34839 0.35181 0.0
H1061 H 0.49386 0.35393 0.35444 0.0
H1062 H 0.43375 0.29497 0.33549 0.0
C1063 C 0.35253 0.33371 0.35953 0.0
C1064 C 0.41277 0.35386 0.33476 0.0
C1065 C 0.32597 0.33839 0.3635 0.0
C1066 C 0.52594 0.33652 0.34173 0.0
C1067 C 0.49838 0.33978 0.34315 0.0
C1068 C 0.42807 0.31142 0.33505 0.0
C1069 C 0.3649 0.34144 0.34222 0.0
C1070 C 0.39323 0.33683 0.33824 0.0
C1071 C 0.47691 0.32484 0.3304 0.0
C1072 C 0.44776 0.32862 0.33212 0.0
H1073 H 0.31265 0.36792 0.32213 0.0
H1074 H 0.35918 0.35996 0.31539 0.0
H1075 H 0.3863 0.30205 0.34065 0.0
H1076 H 0.51588 0.28912 0.30344 0.0
H1077 H 0.4673 0.29473 0.30615 0.0
C1078 C 0.67534 0.38151 0.31481 0.0
C1079 C 0.64817 0.37186 0.30676 0.0
C1080 C 0.68533 0.402 0.30988 0.0
C1081 C 0.67011 0.44285 0.27318 0.0
H1082 H 0.70846 0.48538 0.32288 0.0
C1083 C 0.66861 0.53675 0.28206 0.0
C1084 C 0.69202 0.55092 0.29294 0.0
C1085 C 0.66841 0.51384 0.27953 0.0
C1086 C 0.69832 0.47362 0.30867 0.0
H1087 H 0.61033 0.37573 0.28684 0.0
H1088 H 0.62742 0.41163 0.2787 0.0
H1089 H 0.69834 0.44691 0.32682 0.0
H1090 H 0.73425 0.55234 0.30835 0.0
H1091 H 0.73388 0.51222 0.30394 0.0
H1092 H 0.66898 0.46996 0.25542 0.0
C1093 C 0.64129 0.40328 0.28844 0.0
C1094 C 0.6925 0.45152 0.31093 0.0
C1095 C 0.63138 0.38278 0.29328 0.0
C1096 C 0.71587 0.54179 0.29998 0.0
C1097 C 0.71562 0.51886 0.29756 0.0
C1098 C 0.67581 0.465 0.27096 0.0
C1099 C 0.66827 0.41326 0.29688 0.0
C1100 C 0.6777 0.43599 0.2934 0.0
C1101 C 0.69159 0.50467 0.28792 0.0
C1102 C 0.68939 0.4807 0.28887 0.0
H1103 H 0.68881 0.37336 0.3251 0.0
H1104 H 0.70632 0.4091 0.31641 0.0
H1105 H 0.65915 0.4312 0.25922 0.0
H1106 H 0.64996 0.54334 0.27641 0.0
H1107 H 0.64951 0.50336 0.27219 0.0
C1108 C 0.58345 0.61741 0.32096 0.0
C1109 C 0.60717 0.63218 0.33004 0.0
C1110 C 0.55713 0.6228 0.32477 0.0
C1111 C 0.52057 0.65745 0.3631 0.0
H1112 H 0.46206 0.64785 0.31383 0.0
C1113 C 0.41281 0.68544 0.3729 0.0
C1114 C 0.38978 0.67095 0.36182 0.0
C1115 C 0.43959 0.6817 0.36862 0.0
C1116 C 0.47806 0.6504 0.32782 0.0
H1117 H 0.62203 0.66405 0.35043 0.0
H1118 H 0.57596 0.6734 0.35727 0.0
H1119 H 0.50831 0.63898 0.3075 0.0
H1120 H 0.37662 0.64126 0.33751 0.0
H1121 H 0.42325 0.63445 0.33036 0.0
H1122 H 0.49029 0.66844 0.38354 0.0
C1123 C 0.57777 0.65765 0.34721 0.0
C1124 C 0.50456 0.64535 0.32417 0.0
C1125 C 0.6041 0.65234 0.34323 0.0
C1126 C 0.39398 0.65279 0.34622 0.0
C1127 C 0.42073 0.64896 0.34203 0.0
C1128 C 0.494 0.66234 0.3668 0.0
C1129 C 0.55402 0.643 0.3379 0.0
C1130 C 0.52604 0.64874 0.34177 0.0
C1131 C 0.44389 0.66331 0.35325 0.0
C1132 C 0.47238 0.65879 0.34922 0.0
H1133 H 0.5852 0.60174 0.31074 0.0
H1134 H 0.5392 0.61109 0.3176 0.0
H1135 H 0.53668 0.66001 0.37701 0.0
H1136 H 0.41016 0.69963 0.38497 0.0
H1137 H 0.45691 0.69328 0.3773 0.0
C1138 C 0.25013 0.44015 0.38843 0.0
C1139 C 0.22932 0.42773 0.3726 0.0
C1140 C 0.25382 0.46317 0.39111 0.0
C1141 C 0.22199 0.51228 0.37859 0.0
H1142 H 0.29866 0.53739 0.38182 0.0
C1143 C 0.25617 0.60277 0.36823 0.0
C1144 C 0.28006 0.6138 0.38172 0.0
C1145 C 0.24788 0.5804 0.36839 0.0
C1146 C 0.27717 0.53072 0.38126 0.0
H1147 H 0.19516 0.42963 0.34786 0.0
H1148 H 0.20183 0.47006 0.35238 0.0
H1149 H 0.28755 0.49783 0.38013 0.0
H1150 H 0.31333 0.61044 0.40663 0.0
H1151 H 0.29871 0.57162 0.40715 0.0
H1152 H 0.21173 0.54538 0.37953 0.0
C1153 C 0.21515 0.46195 0.36283 0.0
C1154 C 0.2708 0.50803 0.38029 0.0
C1155 C 0.21139 0.43882 0.36019 0.0
C1156 C 0.29498 0.60231 0.39589 0.0
C1157 C 0.28667 0.58004 0.3961 0.0
C1158 C 0.2284 0.53511 0.37959 0.0
C1159 C 0.23687 0.47431 0.37794 0.0
C1160 C 0.24318 0.49854 0.37906 0.0
C1161 C 0.26333 0.56871 0.38207 0.0
C1162 C 0.25611 0.54457 0.38104 0.0
H1163 H 0.26409 0.43207 0.39841 0.0
H1164 H 0.27035 0.47226 0.40323 0.0
H1165 H 0.20052 0.50545 0.37775 0.0
H1166 H 0.24426 0.61125 0.35716 0.0
H1167 H 0.22992 0.5721 0.35728 0.0
loop_
_geom_bond_atom_site_label_1
_geom_bond_atom_site_label_2
_geom_bond_distance
_geom_bond_site_symmetry_2
_ccdc_geom_bond_type
In0 O1 2.294 . S
In0 O2 2.326 . S
In0 O6 2.266 . S
In0 O7 2.326 . S
In0 O8 2.266 . S
In0 O9 2.326 . S
In0 O11 2.294 . S
In0 O12 2.326 . S
O1 In0 2.294 . S
O1 C10 1.240 . S
O2 In0 2.326 . S
O2 C10 1.252 . S
C3 O6 1.252 . S
C3 O7 1.260 . S
C4 O11 1.240 . S
C4 O12 1.252 . S
C5 O8 1.252 . S
C5 O9 1.260 . S
O6 In0 2.266 . S
O6 C3 1.252 . S
O7 In0 2.326 . S
O7 C3 1.260 . S
O8 In0 2.266 . S
O8 C5 1.252 . S
O9 In0 2.326 . S
O9 C5 1.260 . S
C10 O1 1.240 . S
C10 O2 1.252 . S
O11 In0 2.294 . S
O11 C4 1.240 . S
O12 In0 2.326 . S
O12 C4 1.252 . S
In13 O14 2.294 . S
In13 O15 2.326 . S
In13 O19 2.266 . S
In13 O20 2.326 . S
In13 O21 2.266 . S
In13 O22 2.326 . S
In13 O24 2.294 . S
In13 O25 2.326 . S
O14 In13 2.294 . S
O14 C23 1.240 . S
O15 In13 2.326 . S
O15 C23 1.252 . S
C16 O19 1.252 . S
C16 O20 1.260 . S
C17 O24 1.240 . S
C17 O25 1.252 . S
C18 O21 1.252 . S
C18 O22 1.260 . S
O19 In13 2.266 . S
O19 C16 1.252 . S
O20 In13 2.326 . S
O20 C16 1.260 . S
O21 In13 2.266 . S
O21 C18 1.252 . S
O22 In13 2.326 . S
O22 C18 1.260 . S
C23 O14 1.240 . S
C23 O15 1.252 . S
O24 In13 2.294 . S
O24 C17 1.240 . S
O25 In13 2.326 . S
O25 C17 1.252 . S
In26 O27 2.294 . S
In26 O28 2.326 . S
In26 O32 2.266 . S
In26 O33 2.326 . S
In26 O34 2.266 . S
In26 O35 2.326 . S
In26 O37 2.294 . S
In26 O38 2.326 . S
O27 In26 2.294 . S
O27 C36 1.240 . S
O28 In26 2.326 . S
O28 C36 1.252 . S
C29 O32 1.252 . S
C29 O33 1.260 . S
C30 O37 1.240 . S
C30 O38 1.252 . S
C31 O34 1.252 . S
C31 O35 1.260 . S
O32 In26 2.266 . S
O32 C29 1.252 . S
O33 In26 2.326 . S
O33 C29 1.260 . S
O34 In26 2.266 . S
O34 C31 1.252 . S
O35 In26 2.326 . S
O35 C31 1.260 . S
C36 O27 1.240 . S
C36 O28 1.252 . S
O37 In26 2.294 . S
O37 C30 1.240 . S
O38 In26 2.326 . S
O38 C30 1.252 . S
In39 O40 2.294 . S
In39 O41 2.326 . S
In39 O45 2.266 . S
In39 O46 2.326 . S
In39 O47 2.266 . S
In39 O48 2.326 . S
In39 O50 2.294 . S
In39 O51 2.326 . S
O40 In39 2.294 . S
O40 C49 1.240 . S
O41 In39 2.326 . S
O41 C49 1.252 . S
C42 O45 1.252 . S
C42 O46 1.260 . S
C43 O50 1.240 . S
C43 O51 1.252 . S
C44 O47 1.252 . S
C44 O48 1.260 . S
O45 In39 2.266 . S
O45 C42 1.252 . S
O46 In39 2.326 . S
O46 C42 1.260 . S
O47 In39 2.266 . S
O47 C44 1.252 . S
O48 In39 2.326 . S
O48 C44 1.260 . S
C49 O40 1.240 . S
C49 O41 1.252 . S
O50 In39 2.294 . S
O50 C43 1.240 . S
O51 In39 2.326 . S
O51 C43 1.252 . S
In52 O53 2.294 . S
In52 O54 2.326 . S
In52 O58 2.266 . S
In52 O59 2.326 . S
In52 O60 2.266 . S
In52 O61 2.326 . S
In52 O63 2.294 . S
In52 O64 2.326 . S
O53 In52 2.294 . S
O53 C62 1.240 . S
O54 In52 2.326 . S
O54 C62 1.252 . S
C55 O58 1.252 . S
C55 O59 1.260 . S
C56 O63 1.240 . S
C56 O64 1.252 . S
C57 O60 1.252 . S
C57 O61 1.260 . S
O58 In52 2.266 . S
O58 C55 1.252 . S
O59 In52 2.326 . S
O59 C55 1.260 . S
O60 In52 2.266 . S
O60 C57 1.252 . S
O61 In52 2.326 . S
O61 C57 1.260 . S
C62 O53 1.240 . S
C62 O54 1.252 . S
O63 In52 2.294 . S
O63 C56 1.240 . S
O64 In52 2.326 . S
O64 C56 1.252 . S
In65 O66 2.294 . S
In65 O67 2.326 . S
In65 O71 2.266 . S
In65 O72 2.326 . S
In65 O73 2.266 . S
In65 O74 2.326 . S
In65 O76 2.294 . S
In65 O77 2.326 . S
O66 In65 2.294 . S
O66 C75 1.240 . S
O67 In65 2.326 . S
O67 C75 1.252 . S
C68 O71 1.252 . S
C68 O72 1.260 . S
C69 O76 1.240 . S
C69 O77 1.252 . S
C70 O73 1.252 . S
C70 O74 1.260 . S
O71 In65 2.266 . S
O71 C68 1.252 . S
O72 In65 2.326 . S
O72 C68 1.260 . S
O73 In65 2.266 . S
O73 C70 1.252 . S
O74 In65 2.326 . S
O74 C70 1.260 . S
C75 O66 1.240 . S
C75 O67 1.252 . S
O76 In65 2.294 . S
O76 C69 1.240 . S
O77 In65 2.326 . S
O77 C69 1.252 . S
In78 O79 2.294 . S
In78 O80 2.326 . S
In78 O84 2.266 . S
In78 O85 2.326 . S
In78 O86 2.266 . S
In78 O87 2.326 . S
In78 O89 2.294 . S
In78 O90 2.326 . S
O79 In78 2.294 . S
O79 C88 1.240 . S
O80 In78 2.326 . S
O80 C88 1.252 . S
C81 O84 1.252 . S
C81 O85 1.260 . S
C82 O89 1.240 . S
C82 O90 1.252 . S
C83 O86 1.252 . S
C83 O87 1.260 . S
O84 In78 2.266 . S
O84 C81 1.252 . S
O85 In78 2.326 . S
O85 C81 1.260 . S
O86 In78 2.266 . S
O86 C83 1.252 . S
O87 In78 2.326 . S
O87 C83 1.260 . S
C88 O79 1.240 . S
C88 O80 1.252 . S
O89 In78 2.294 . S
O89 C82 1.240 . S
O90 In78 2.326 . S
O90 C82 1.252 . S
In91 O92 2.294 . S
In91 O93 2.326 . S
In91 O97 2.266 . S
In91 O98 2.326 . S
In91 O99 2.266 . S
In91 O100 2.326 . S
In91 O102 2.294 . S
In91 O103 2.326 . S
O92 In91 2.294 . S
O92 C101 1.240 . S
O93 In91 2.326 . S
O93 C101 1.252 . S
C94 O97 1.252 . S
C94 O98 1.260 . S
C95 O102 1.240 . S
C95 O103 1.252 . S
C96 O99 1.252 . S
C96 O100 1.260 . S
O97 In91 2.266 . S
O97 C94 1.252 . S
O98 In91 2.326 . S
O98 C94 1.260 . S
O99 In91 2.266 . S
O99 C96 1.252 . S
O100 In91 2.326 . S
O100 C96 1.260 . S
C101 O92 1.240 . S
C101 O93 1.252 . S
O102 In91 2.294 . S
O102 C95 1.240 . S
O103 In91 2.326 . S
O103 C95 1.252 . S
In104 O105 2.294 . S
In104 O106 2.326 . S
In104 O110 2.266 . S
In104 O111 2.326 . S
In104 O112 2.266 . S
In104 O113 2.326 . S
In104 O115 2.294 . S
In104 O116 2.326 . S
O105 In104 2.294 . S
O105 C114 1.240 . S
O106 In104 2.326 . S
O106 C114 1.252 . S
C107 O110 1.252 . S
C107 O111 1.260 . S
C108 O115 1.240 . S
C108 O116 1.252 . S
C109 O112 1.252 . S
C109 O113 1.260 . S
O110 In104 2.266 . S
O110 C107 1.252 . S
O111 In104 2.326 . S
O111 C107 1.260 . S
O112 In104 2.266 . S
O112 C109 1.252 . S
O113 In104 2.326 . S
O113 C109 1.260 . S
C114 O105 1.240 . S
C114 O106 1.252 . S
O115 In104 2.294 . S
O115 C108 1.240 . S
O116 In104 2.326 . S
O116 C108 1.252 . S
In117 O118 2.294 . S
In117 O119 2.326 . S
In117 O123 2.266 . S
In117 O124 2.326 . S
In117 O125 2.266 . S
In117 O126 2.326 . S
In117 O128 2.294 . S
In117 O129 2.326 . S
O118 In117 2.294 . S
O118 C127 1.240 . S
O119 In117 2.326 . S
O119 C127 1.252 . S
C120 O123 1.252 . S
C120 O124 1.260 . S
C121 O128 1.240 . S
C121 O129 1.252 . S
C122 O125 1.252 . S
C122 O126 1.260 . S
O123 In117 2.266 . S
O123 C120 1.252 . S
O124 In117 2.326 . S
O124 C120 1.260 . S
O125 In117 2.266 . S
O125 C122 1.252 . S
O126 In117 2.326 . S
O126 C122 1.260 . S
C127 O118 1.240 . S
C127 O119 1.252 . S
O128 In117 2.294 . S
O128 C121 1.240 . S
O129 In117 2.326 . S
O129 C121 1.252 . S
In130 O131 2.294 . S
In130 O132 2.326 . S
In130 O136 2.266 . S
In130 O137 2.326 . S
In130 O138 2.266 . S
In130 O139 2.326 . S
In130 O141 2.294 . S
In130 O142 2.326 . S
O131 In130 2.294 . S
O131 C140 1.240 . S
O132 In130 2.326 . S
O132 C140 1.252 . S
C133 O136 1.252 . S
C133 O137 1.260 . S
C134 O141 1.240 . S
C134 O142 1.252 . S
C135 O138 1.252 . S
C135 O139 1.260 . S
O136 In130 2.266 . S
O136 C133 1.252 . S
O137 In130 2.326 . S
O137 C133 1.260 . S
O138 In130 2.266 . S
O138 C135 1.252 . S
O139 In130 2.326 . S
O139 C135 1.260 . S
C140 O131 1.240 . S
C140 O132 1.252 . S
O141 In130 2.294 . S
O141 C134 1.240 . S
O142 In130 2.326 . S
O142 C134 1.252 . S
In143 O144 2.294 . S
In143 O145 2.326 . S
In143 O149 2.266 . S
In143 O150 2.326 . S
In143 O151 2.266 . S
In143 O152 2.326 . S
In143 O154 2.294 . S
In143 O155 2.326 . S
O144 In143 2.294 . S
O144 C153 1.240 . S
O145 In143 2.326 . S
O145 C153 1.252 . S
C146 O149 1.252 . S
C146 O150 1.260 . S
C147 O154 1.240 . S
C147 O155 1.252 . S
C148 O151 1.252 . S
C148 O152 1.260 . S
O149 In143 2.266 . S
O149 C146 1.252 . S
O150 In143 2.326 . S
O150 C146 1.260 . S
O151 In143 2.266 . S
O151 C148 1.252 . S
O152 In143 2.326 . S
O152 C148 1.260 . S
C153 O144 1.240 . S
C153 O145 1.252 . S
O154 In143 2.294 . S
O154 C147 1.240 . S
O155 In143 2.326 . S
O155 C147 1.252 . S
In156 O157 2.294 . S
In156 O158 2.326 . S
In156 O162 2.266 . S
In156 O163 2.326 . S
In156 O164 2.266 . S
In156 O165 2.326 . S
In156 O167 2.294 . S
In156 O168 2.326 . S
O157 In156 2.294 . S
O157 C166 1.240 . S
O158 In156 2.326 . S
O158 C166 1.252 . S
C159 O162 1.252 . S
C159 O163 1.260 . S
C160 O167 1.240 . S
C160 O168 1.252 . S
C161 O164 1.252 . S
C161 O165 1.260 . S
O162 In156 2.266 . S
O162 C159 1.252 . S
O163 In156 2.326 . S
O163 C159 1.260 . S
O164 In156 2.266 . S
O164 C161 1.252 . S
O165 In156 2.326 . S
O165 C161 1.260 . S
C166 O157 1.240 . S
C166 O158 1.252 . S
O167 In156 2.294 . S
O167 C160 1.240 . S
O168 In156 2.326 . S
O168 C160 1.252 . S
In169 O170 2.294 . S
In169 O171 2.326 . S
In169 O175 2.266 . S
In169 O176 2.326 . S
In169 O177 2.266 . S
In169 O178 2.326 . S
In169 O180 2.294 . S
In169 O181 2.326 . S
O170 In169 2.294 . S
O170 C179 1.240 . S
O171 In169 2.326 . S
O171 C179 1.252 . S
C172 O175 1.252 . S
C172 O176 1.260 . S
C173 O180 1.240 . S
C173 O181 1.252 . S
C174 O177 1.252 . S
C174 O178 1.260 . S
O175 In169 2.266 . S
O175 C172 1.252 . S
O176 In169 2.326 . S
O176 C172 1.260 . S
O177 In169 2.266 . S
O177 C174 1.252 . S
O178 In169 2.326 . S
O178 C174 1.260 . S
C179 O170 1.240 . S
C179 O171 1.252 . S
O180 In169 2.294 . S
O180 C173 1.240 . S
O181 In169 2.326 . S
O181 C173 1.252 . S
In182 O183 2.294 . S
In182 O184 2.326 . S
In182 O188 2.266 . S
In182 O189 2.326 . S
In182 O190 2.266 . S
In182 O191 2.326 . S
In182 O193 2.294 . S
In182 O194 2.326 . S
O183 In182 2.294 . S
O183 C192 1.240 . S
O184 In182 2.326 . S
O184 C192 1.252 . S
C185 O188 1.252 . S
C185 O189 1.260 . S
C186 O193 1.240 . S
C186 O194 1.252 . S
C187 O190 1.252 . S
C187 O191 1.260 . S
O188 In182 2.266 . S
O188 C185 1.252 . S
O189 In182 2.326 . S
O189 C185 1.260 . S
O190 In182 2.266 . S
O190 C187 1.252 . S
O191 In182 2.326 . S
O191 C187 1.260 . S
C192 O183 1.240 . S
C192 O184 1.252 . S
O193 In182 2.294 . S
O193 C186 1.240 . S
O194 In182 2.326 . S
O194 C186 1.252 . S
In195 O196 2.294 . S
In195 O197 2.326 . S
In195 O201 2.266 . S
In195 O202 2.326 . S
In195 O203 2.266 . S
In195 O204 2.326 . S
In195 O206 2.294 . S
In195 O207 2.326 . S
O196 In195 2.294 . S
O196 C205 1.240 . S
O197 In195 2.326 . S
O197 C205 1.252 . S
C198 O201 1.252 . S
C198 O202 1.260 . S
C199 O206 1.240 . S
C199 O207 1.252 . S
C200 O203 1.252 . S
C200 O204 1.260 . S
O201 In195 2.266 . S
O201 C198 1.252 . S
O202 In195 2.326 . S
O202 C198 1.260 . S
O203 In195 2.266 . S
O203 C200 1.252 . S
O204 In195 2.326 . S
O204 C200 1.260 . S
C205 O196 1.240 . S
C205 O197 1.252 . S
O206 In195 2.294 . S
O206 C199 1.240 . S
O207 In195 2.326 . S
O207 C199 1.252 . S
C208 C209 1.349 . S
C208 C210 1.327 . S
C208 H233 0.950 . S
C209 C208 1.349 . S
C209 C225 1.349 . S
C210 C208 1.327 . S
C210 C229 1.429 . S
C210 H234 0.950 . S
C211 C228 1.574 . S
C211 C230 1.368 . S
C211 H235 0.949 . S
H212 C216 0.949 . S
C213 C214 1.349 . S
C213 C215 1.327 . S
C213 H236 0.950 . S
C214 C213 1.349 . S
C214 C226 1.349 . S
C215 C213 1.327 . S
C215 C231 1.429 . S
C215 H237 0.950 . S
C216 H212 0.949 . S
C216 C224 1.574 . S
C216 C232 1.368 . S
H217 C225 0.950 . S
H218 C223 0.950 . S
H219 C224 0.949 . S
H220 C226 0.950 . S
H221 C227 0.950 . S
H222 C228 0.949 . S
C223 H218 0.950 . S
C223 C225 1.327 . S
C223 C229 1.429 . S
C224 C216 1.574 . S
C224 H219 0.949 . S
C224 C230 1.368 . S
C225 C209 1.349 . S
C225 H217 0.950 . S
C225 C223 1.327 . S
C226 C214 1.349 . S
C226 H220 0.950 . S
C226 C227 1.327 . S
C227 H221 0.950 . S
C227 C226 1.327 . S
C227 C231 1.429 . S
C228 C211 1.574 . S
C228 H222 0.949 . S
C228 C232 1.368 . S
C229 C210 1.429 . S
C229 C223 1.429 . S
C229 C230 1.523 . S
C230 C211 1.368 . S
C230 C224 1.368 . S
C230 C229 1.523 . S
C231 C215 1.429 . S
C231 C227 1.429 . S
C231 C232 1.523 . S
C232 C216 1.368 . S
C232 C228 1.368 . S
C232 C231 1.523 . S
H233 C208 0.950 . S
H234 C210 0.950 . S
H235 C211 0.949 . S
H236 C213 0.950 . S
H237 C215 0.950 . S
C238 C239 1.349 . S
C238 C240 1.327 . S
C238 H263 0.950 . S
C239 C238 1.349 . S
C239 C255 1.349 . S
C240 C238 1.327 . S
C240 C259 1.429 . S
C240 H264 0.950 . S
C241 C258 1.574 . S
C241 C260 1.368 . S
C241 H265 0.949 . S
H242 C246 0.949 . S
C243 C244 1.349 . S
C243 C245 1.327 . S
C243 H266 0.950 . S
C244 C243 1.349 . S
C244 C256 1.349 . S
C245 C243 1.327 . S
C245 C261 1.429 . S
C245 H267 0.950 . S
C246 H242 0.949 . S
C246 C254 1.574 . S
C246 C262 1.368 . S
H247 C255 0.950 . S
H248 C253 0.950 . S
H249 C254 0.949 . S
H250 C256 0.950 . S
H251 C257 0.950 . S
H252 C258 0.949 . S
C253 H248 0.950 . S
C253 C255 1.327 . S
C253 C259 1.429 . S
C254 C246 1.574 . S
C254 H249 0.949 . S
C254 C260 1.368 . S
C255 C239 1.349 . S
C255 H247 0.950 . S
C255 C253 1.327 . S
C256 C244 1.349 . S
C256 H250 0.950 . S
C256 C257 1.327 . S
C257 H251 0.950 . S
C257 C256 1.327 . S
C257 C261 1.429 . S
C258 C241 1.574 . S
C258 H252 0.949 . S
C258 C262 1.368 . S
C259 C240 1.429 . S
C259 C253 1.429 . S
C259 C260 1.523 . S
C260 C241 1.368 . S
C260 C254 1.368 . S
C260 C259 1.523 . S
C261 C245 1.429 . S
C261 C257 1.429 . S
C261 C262 1.523 . S
C262 C246 1.368 . S
C262 C258 1.368 . S
C262 C261 1.523 . S
H263 C238 0.950 . S
H264 C240 0.950 . S
H265 C241 0.949 . S
H266 C243 0.950 . S
H267 C245 0.950 . S
C268 C269 1.349 . S
C268 C270 1.327 . S
C268 H293 0.950 . S
C269 C268 1.349 . S
C269 C285 1.349 . S
C270 C268 1.327 . S
C270 C289 1.429 . S
C270 H294 0.950 . S
C271 C288 1.574 . S
C271 C290 1.368 . S
C271 H295 0.949 . S
H272 C276 0.949 . S
C273 C274 1.349 . S
C273 C275 1.327 . S
C273 H296 0.950 . S
C274 C273 1.349 . S
C274 C286 1.349 . S
C275 C273 1.327 . S
C275 C291 1.429 . S
C275 H297 0.950 . S
C276 H272 0.949 . S
C276 C284 1.574 . S
C276 C292 1.368 . S
H277 C285 0.950 . S
H278 C283 0.950 . S
H279 C284 0.949 . S
H280 C286 0.950 . S
H281 C287 0.950 . S
H282 C288 0.949 . S
C283 H278 0.950 . S
C283 C285 1.327 . S
C283 C289 1.429 . S
C284 C276 1.574 . S
C284 H279 0.949 . S
C284 C290 1.368 . S
C285 C269 1.349 . S
C285 H277 0.950 . S
C285 C283 1.327 . S
C286 C274 1.349 . S
C286 H280 0.950 . S
C286 C287 1.327 . S
C287 H281 0.950 . S
C287 C286 1.327 . S
C287 C291 1.429 . S
C288 C271 1.574 . S
C288 H282 0.949 . S
C288 C292 1.368 . S
C289 C270 1.429 . S
C289 C283 1.429 . S
C289 C290 1.523 . S
C290 C271 1.368 . S
C290 C284 1.368 . S
C290 C289 1.523 . S
C291 C275 1.429 . S
C291 C287 1.429 . S
C291 C292 1.523 . S
C292 C276 1.368 . S
C292 C288 1.368 . S
C292 C291 1.523 . S
H293 C268 0.950 . S
H294 C270 0.950 . S
H295 C271 0.949 . S
H296 C273 0.950 . S
H297 C275 0.950 . S
C298 C299 1.349 . S
C298 C300 1.327 . S
C298 H323 0.950 . S
C299 C298 1.349 . S
C299 C315 1.349 . S
C300 C298 1.327 . S
C300 C319 1.429 . S
C300 H324 0.950 . S
C301 C318 1.574 . S
C301 C320 1.368 . S
C301 H325 0.949 . S
H302 C306 0.949 . S
C303 C304 1.349 . S
C303 C305 1.327 . S
C303 H326 0.950 . S
C304 C303 1.349 . S
C304 C316 1.349 . S
C305 C303 1.327 . S
C305 C321 1.429 . S
C305 H327 0.950 . S
C306 H302 0.949 . S
C306 C314 1.574 . S
C306 C322 1.368 . S
H307 C315 0.950 . S
H308 C313 0.950 . S
H309 C314 0.949 . S
H310 C316 0.950 . S
H311 C317 0.950 . S
H312 C318 0.949 . S
C313 H308 0.950 . S
C313 C315 1.327 . S
C313 C319 1.429 . S
C314 C306 1.574 . S
C314 H309 0.949 . S
C314 C320 1.368 . S
C315 C299 1.349 . S
C315 H307 0.950 . S
C315 C313 1.327 . S
C316 C304 1.349 . S
C316 H310 0.950 . S
C316 C317 1.327 . S
C317 H311 0.950 . S
C317 C316 1.327 . S
C317 C321 1.429 . S
C318 C301 1.574 . S
C318 H312 0.949 . S
C318 C322 1.368 . S
C319 C300 1.429 . S
C319 C313 1.429 . S
C319 C320 1.523 . S
C320 C301 1.368 . S
C320 C314 1.368 . S
C320 C319 1.523 . S
C321 C305 1.429 . S
C321 C317 1.429 . S
C321 C322 1.523 . S
C322 C306 1.368 . S
C322 C318 1.368 . S
C322 C321 1.523 . S
H323 C298 0.950 . S
H324 C300 0.950 . S
H325 C301 0.949 . S
H326 C303 0.950 . S
H327 C305 0.950 . S
C328 C329 1.349 . S
C328 C330 1.327 . S
C328 H353 0.950 . S
C329 C328 1.349 . S
C329 C345 1.349 . S
C330 C328 1.327 . S
C330 C349 1.429 . S
C330 H354 0.950 . S
C331 C348 1.574 . S
C331 C350 1.368 . S
C331 H355 0.949 . S
H332 C336 0.949 . S
C333 C334 1.349 . S
C333 C335 1.327 . S
C333 H356 0.950 . S
C334 C333 1.349 . S
C334 C346 1.349 . S
C335 C333 1.327 . S
C335 C351 1.429 . S
C335 H357 0.950 . S
C336 H332 0.949 . S
C336 C344 1.574 . S
C336 C352 1.368 . S
H337 C345 0.950 . S
H338 C343 0.950 . S
H339 C344 0.949 . S
H340 C346 0.950 . S
H341 C347 0.950 . S
H342 C348 0.949 . S
C343 H338 0.950 . S
C343 C345 1.327 . S
C343 C349 1.429 . S
C344 C336 1.574 . S
C344 H339 0.949 . S
C344 C350 1.368 . S
C345 C329 1.349 . S
C345 H337 0.950 . S
C345 C343 1.327 . S
C346 C334 1.349 . S
C346 H340 0.950 . S
C346 C347 1.327 . S
C347 H341 0.950 . S
C347 C346 1.327 . S
C347 C351 1.429 . S
C348 C331 1.574 . S
C348 H342 0.949 . S
C348 C352 1.368 . S
C349 C330 1.429 . S
C349 C343 1.429 . S
C349 C350 1.523 . S
C350 C331 1.368 . S
C350 C344 1.368 . S
C350 C349 1.523 . S
C351 C335 1.429 . S
C351 C347 1.429 . S
C351 C352 1.523 . S
C352 C336 1.368 . S
C352 C348 1.368 . S
C352 C351 1.523 . S
H353 C328 0.950 . S
H354 C330 0.950 . S
H355 C331 0.949 . S
H356 C333 0.950 . S
H357 C335 0.950 . S
C358 C359 1.349 . S
C358 C360 1.327 . S
C358 H383 0.950 . S
C359 C358 1.349 . S
C359 C375 1.349 . S
C360 C358 1.327 . S
C360 C379 1.429 . S
C360 H384 0.950 . S
C361 C378 1.574 . S
C361 C380 1.368 . S
C361 H385 0.949 . S
H362 C366 0.949 . S
C363 C364 1.349 . S
C363 C365 1.327 . S
C363 H386 0.950 . S
C364 C363 1.349 . S
C364 C376 1.349 . S
C365 C363 1.327 . S
C365 C381 1.429 . S
C365 H387 0.950 . S
C366 H362 0.949 . S
C366 C374 1.574 . S
C366 C382 1.368 . S
H367 C375 0.950 . S
H368 C373 0.950 . S
H369 C374 0.949 . S
H370 C376 0.950 . S
H371 C377 0.950 . S
H372 C378 0.949 . S
C373 H368 0.950 . S
C373 C375 1.327 . S
C373 C379 1.429 . S
C374 C366 1.574 . S
C374 H369 0.949 . S
C374 C380 1.368 . S
C375 C359 1.349 . S
C375 H367 0.950 . S
C375 C373 1.327 . S
C376 C364 1.349 . S
C376 H370 0.950 . S
C376 C377 1.327 . S
C377 H371 0.950 . S
C377 C376 1.327 . S
C377 C381 1.429 . S
C378 C361 1.574 . S
C378 H372 0.949 . S
C378 C382 1.368 . S
C379 C360 1.429 . S
C379 C373 1.429 . S
C379 C380 1.523 . S
C380 C361 1.368 . S
C380 C374 1.368 . S
C380 C379 1.523 . S
C381 C365 1.429 . S
C381 C377 1.429 . S
C381 C382 1.523 . S
C382 C366 1.368 . S
C382 C378 1.368 . S
C382 C381 1.523 . S
H383 C358 0.950 . S
H384 C360 0.950 . S
H385 C361 0.949 . S
H386 C363 0.950 . S
H387 C365 0.950 . S
C388 C389 1.349 . S
C388 C390 1.327 . S
C388 H413 0.950 . S
C389 C388 1.349 . S
C389 C405 1.349 . S
C390 C388 1.327 . S
C390 C409 1.429 . S
C390 H414 0.950 . S
C391 C408 1.574 . S
C391 C410 1.368 . S
C391 H415 0.949 . S
H392 C396 0.949 . S
C393 C394 1.349 . S
C393 C395 1.327 . S
C393 H416 0.950 . S
C394 C393 1.349 . S
C394 C406 1.349 . S
C395 C393 1.327 . S
C395 C411 1.429 . S
C395 H417 0.950 . S
C396 H392 0.949 . S
C396 C404 1.574 . S
C396 C412 1.368 . S
H397 C405 0.950 . S
H398 C403 0.950 . S
H399 C404 0.949 . S
H400 C406 0.950 . S
H401 C407 0.950 . S
H402 C408 0.949 . S
C403 H398 0.950 . S
C403 C405 1.327 . S
C403 C409 1.429 . S
C404 C396 1.574 . S
C404 H399 0.949 . S
C404 C410 1.368 . S
C405 C389 1.349 . S
C405 H397 0.950 . S
C405 C403 1.327 . S
C406 C394 1.349 . S
C406 H400 0.950 . S
C406 C407 1.327 . S
C407 H401 0.950 . S
C407 C406 1.327 . S
C407 C411 1.429 . S
C408 C391 1.574 . S
C408 H402 0.949 . S
C408 C412 1.368 . S
C409 C390 1.429 . S
C409 C403 1.429 . S
C409 C410 1.523 . S
C410 C391 1.368 . S
C410 C404 1.368 . S
C410 C409 1.523 . S
C411 C395 1.429 . S
C411 C407 1.429 . S
C411 C412 1.523 . S
C412 C396 1.368 . S
C412 C408 1.368 . S
C412 C411 1.523 . S
H413 C388 0.950 . S
H414 C390 0.950 . S
H415 C391 0.949 . S
H416 C393 0.950 . S
H417 C395 0.950 . S
C418 C419 1.349 . S
C418 C420 1.327 . S
C418 H443 0.950 . S
C419 C418 1.349 . S
C419 C435 1.349 . S
C420 C418 1.327 . S
C420 C439 1.429 . S
C420 H444 0.950 . S
C421 C438 1.574 . S
C421 C440 1.368 . S
C421 H445 0.949 . S
H422 C426 0.949 . S
C423 C424 1.349 . S
C423 C425 1.327 . S
C423 H446 0.950 . S
C424 C423 1.349 . S
C424 C436 1.349 . S
C425 C423 1.327 . S
C425 C441 1.429 . S
C425 H447 0.950 . S
C426 H422 0.949 . S
C426 C434 1.574 . S
C426 C442 1.368 . S
H427 C435 0.950 . S
H428 C433 0.950 . S
H429 C434 0.949 . S
H430 C436 0.950 . S
H431 C437 0.950 . S
H432 C438 0.949 . S
C433 H428 0.950 . S
C433 C435 1.327 . S
C433 C439 1.429 . S
C434 C426 1.574 . S
C434 H429 0.949 . S
C434 C440 1.368 . S
C435 C419 1.349 . S
C435 H427 0.950 . S
C435 C433 1.327 . S
C436 C424 1.349 . S
C436 H430 0.950 . S
C436 C437 1.327 . S
C437 H431 0.950 . S
C437 C436 1.327 . S
C437 C441 1.429 . S
C438 C421 1.574 . S
C438 H432 0.949 . S
C438 C442 1.368 . S
C439 C420 1.429 . S
C439 C433 1.429 . S
C439 C440 1.523 . S
C440 C421 1.368 . S
C440 C434 1.368 . S
C440 C439 1.523 . S
C441 C425 1.429 . S
C441 C437 1.429 . S
C441 C442 1.523 . S
C442 C426 1.368 . S
C442 C438 1.368 . S
C442 C441 1.523 . S
H443 C418 0.950 . S
H444 C420 0.950 . S
H445 C421 0.949 . S
H446 C423 0.950 . S
H447 C425 0.950 . S
C448 C449 1.349 . S
C448 C450 1.327 . S
C448 H473 0.950 . S
C449 C448 1.349 . S
C449 C465 1.349 . S
C450 C448 1.327 . S
C450 C469 1.429 . S
C450 H474 0.950 . S
C451 C468 1.574 . S
C451 C470 1.368 . S
C451 H475 0.949 . S
H452 C456 0.949 . S
C453 C454 1.349 . S
C453 C455 1.327 . S
C453 H476 0.950 . S
C454 C453 1.349 . S
C454 C466 1.349 . S
C455 C453 1.327 . S
C455 C471 1.429 . S
C455 H477 0.950 . S
C456 H452 0.949 . S
C456 C464 1.574 . S
C456 C472 1.368 . S
H457 C465 0.950 . S
H458 C463 0.950 . S
H459 C464 0.949 . S
H460 C466 0.950 . S
H461 C467 0.950 . S
H462 C468 0.949 . S
C463 H458 0.950 . S
C463 C465 1.327 . S
C463 C469 1.429 . S
C464 C456 1.574 . S
C464 H459 0.949 . S
C464 C470 1.368 . S
C465 C449 1.349 . S
C465 H457 0.950 . S
C465 C463 1.327 . S
C466 C454 1.349 . S
C466 H460 0.950 . S
C466 C467 1.327 . S
C467 H461 0.950 . S
C467 C466 1.327 . S
C467 C471 1.429 . S
C468 C451 1.574 . S
C468 H462 0.949 . S
C468 C472 1.368 . S
C469 C450 1.429 . S
C469 C463 1.429 . S
C469 C470 1.523 . S
C470 C451 1.368 . S
C470 C464 1.368 . S
C470 C469 1.523 . S
C471 C455 1.429 . S
C471 C467 1.429 . S
C471 C472 1.523 1_554 S
C472 C456 1.368 . S
C472 C468 1.368 . S
C472 C471 1.523 1_556 S
H473 C448 0.950 . S
H474 C450 0.950 . S
H475 C451 0.949 . S
H476 C453 0.950 . S
H477 C455 0.950 . S
C478 C479 1.349 . S
C478 C480 1.327 . S
C478 H503 0.950 . S
C479 C478 1.349 . S
C479 C495 1.349 . S
C480 C478 1.327 . S
C480 C499 1.429 . S
C480 H504 0.950 . S
C481 C498 1.574 . S
C481 C500 1.368 . S
C481 H505 0.949 . S
H482 C486 0.949 . S
C483 C484 1.349 . S
C483 C485 1.327 . S
C483 H506 0.950 . S
C484 C483 1.349 . S
C484 C496 1.349 . S
C485 C483 1.327 . S
C485 C501 1.429 . S
C485 H507 0.950 . S
C486 H482 0.949 . S
C486 C494 1.574 . S
C486 C502 1.368 . S
H487 C495 0.950 . S
H488 C493 0.950 . S
H489 C494 0.949 1_556 S
H490 C496 0.950 . S
H491 C497 0.950 . S
H492 C498 0.949 . S
C493 H488 0.950 . S
C493 C495 1.327 . S
C493 C499 1.429 . S
C494 C486 1.574 . S
C494 H489 0.949 1_554 S
C494 C500 1.368 . S
C495 C479 1.349 . S
C495 H487 0.950 . S
C495 C493 1.327 . S
C496 C484 1.349 . S
C496 H490 0.950 . S
C496 C497 1.327 . S
C497 H491 0.950 . S
C497 C496 1.327 . S
C497 C501 1.429 . S
C498 C481 1.574 . S
C498 H492 0.949 . S
C498 C502 1.368 . S
C499 C480 1.429 . S
C499 C493 1.429 . S
C499 C500 1.523 1_556 S
C500 C481 1.368 . S
C500 C494 1.368 . S
C500 C499 1.523 1_554 S
C501 C485 1.429 . S
C501 C497 1.429 . S
C501 C502 1.523 . S
C502 C486 1.368 . S
C502 C498 1.368 . S
C502 C501 1.523 . S
H503 C478 0.950 . S
H504 C480 0.950 . S
H505 C481 0.949 . S
H506 C483 0.950 . S
H507 C485 0.950 . S
C508 C509 1.349 . S
C508 C510 1.327 . S
C508 H533 0.950 . S
C509 C508 1.349 . S
C509 C525 1.349 . S
C510 C508 1.327 . S
C510 C529 1.429 . S
C510 H534 0.950 . S
C511 C528 1.574 . S
C511 C530 1.382 . S
C511 H535 0.949 1_554 S
H512 C516 0.949 . S
C513 C514 1.349 . S
C513 C515 1.327 . S
C513 H536 0.950 . S
C514 C513 1.349 . S
C514 C526 1.349 . S
C515 C513 1.327 . S
C515 C531 1.429 . S
C515 H537 0.950 . S
C516 H512 0.949 . S
C516 C524 1.574 . S
C516 C532 1.368 . S
H517 C525 0.950 . S
H518 C523 0.950 . S
H519 C524 0.949 . S
H520 C526 0.950 . S
H521 C527 0.950 . S
H522 C528 0.949 . S
C523 H518 0.950 . S
C523 C525 1.327 . S
C523 C529 1.429 . S
C524 C516 1.574 . S
C524 H519 0.949 . S
C524 C530 1.391 . S
C525 C509 1.349 . S
C525 H517 0.950 . S
C525 C523 1.327 . S
C526 C514 1.349 . S
C526 H520 0.950 . S
C526 C527 1.327 . S
C527 H521 0.950 . S
C527 C526 1.327 . S
C527 C531 1.429 . S
C528 C511 1.574 . S
C528 H522 0.949 . S
C528 C532 1.368 . S
C529 C510 1.429 . S
C529 C523 1.429 . S
C529 C530 1.478 1_556 S
C530 C511 1.382 . S
C530 C524 1.391 . S
C530 C529 1.478 1_554 S
C531 C515 1.429 . S
C531 C527 1.429 . S
C531 C532 1.523 . S
C532 C516 1.368 . S
C532 C528 1.368 . S
C532 C531 1.523 . S
H533 C508 0.950 . S
H534 C510 0.950 . S
H535 C511 0.949 1_556 S
H536 C513 0.950 . S
H537 C515 0.950 . S
C538 C539 1.349 . S
C538 C540 1.327 . S
C538 H563 0.950 . S
C539 C538 1.349 . S
C539 C555 1.349 . S
C540 C538 1.327 . S
C540 C559 1.429 . S
C540 H564 0.950 . S
C541 C558 1.574 . S
C541 C560 1.368 1_556 S
C541 H565 0.949 1_556 S
H542 C546 0.949 . S
C543 C544 1.349 . S
C543 C545 1.327 . S
C543 H566 0.950 . S
C544 C543 1.349 . S
C544 C556 1.349 . S
C545 C543 1.327 . S
C545 C561 1.429 . S
C545 H567 0.950 . S
C546 H542 0.949 . S
C546 C554 1.574 . S
C546 C562 1.368 . S
H547 C555 0.950 . S
H548 C553 0.950 . S
H549 C554 0.949 1_554 S
H550 C556 0.950 . S
H551 C557 0.950 . S
H552 C558 0.949 . S
C553 H548 0.950 . S
C553 C555 1.327 . S
C553 C559 1.429 . S
C554 C546 1.574 . S
C554 H549 0.949 1_556 S
C554 C560 1.368 1_556 S
C555 C539 1.349 . S
C555 H547 0.950 . S
C555 C553 1.327 . S
C556 C544 1.349 . S
C556 H550 0.950 . S
C556 C557 1.327 . S
C557 H551 0.950 . S
C557 C556 1.327 . S
C557 C561 1.429 . S
C558 C541 1.574 . S
C558 H552 0.949 . S
C558 C562 1.368 . S
C559 C540 1.429 . S
C559 C553 1.429 . S
C559 C560 1.523 . S
C560 C541 1.368 1_554 S
C560 C554 1.368 1_554 S
C560 C559 1.523 . S
C561 C545 1.429 . S
C561 C557 1.429 . S
C561 C562 1.523 . S
C562 C546 1.368 . S
C562 C558 1.368 . S
C562 C561 1.523 . S
H563 C538 0.950 . S
H564 C540 0.950 . S
H565 C541 0.949 1_554 S
H566 C543 0.950 . S
H567 C545 0.950 . S
C568 C569 1.349 . S
C568 C570 1.327 . S
C568 H593 0.950 . S
C569 C568 1.349 . S
C569 C585 1.349 . S
C570 C568 1.327 . S
C570 C589 1.429 . S
C570 H594 0.950 . S
C571 C588 1.574 . S
C571 C590 1.368 . S
C571 H595 0.949 . S
H572 C576 0.949 . S
C573 C574 1.349 . S
C573 C575 1.327 . S
C573 H596 0.950 . S
C574 C573 1.349 . S
C574 C586 1.349 . S
C575 C573 1.327 . S
C575 C591 1.429 1_655 S
C575 H597 0.950 . S
C576 H572 0.949 . S
C576 C584 1.574 . S
C576 C592 1.368 . S
H577 C585 0.950 . S
H578 C583 0.950 . S
H579 C584 0.949 . S
H580 C586 0.950 . S
H581 C587 0.970 . S
H582 C588 0.949 . S
C583 H578 0.950 . S
C583 C585 1.327 . S
C583 C589 1.429 . S
C584 C576 1.574 . S
C584 H579 0.949 . S
C584 C590 1.368 . S
C585 C569 1.349 . S
C585 H577 0.950 . S
C585 C583 1.327 . S
C586 C574 1.349 . S
C586 H580 0.950 . S
C586 C587 1.327 . S
C587 H581 0.970 . S
C587 C586 1.327 . S
C587 C591 1.429 1_655 S
C588 C571 1.574 . S
C588 H582 0.949 . S
C588 C592 1.368 . S
C589 C570 1.429 . S
C589 C583 1.429 . S
C589 C590 1.523 . S
C590 C571 1.368 . S
C590 C584 1.368 . S
C590 C589 1.523 . S
C591 C575 1.429 1_455 S
C591 C587 1.429 1_455 S
C591 C592 1.523 . S
C592 C576 1.368 . S
C592 C588 1.368 . S
C592 C591 1.523 . S
H593 C568 0.950 . S
H594 C570 0.950 . S
H595 C571 0.949 . S
H596 C573 0.950 . S
H597 C575 0.950 . S
C598 C599 1.349 . S
C598 C600 1.327 . S
C598 H623 0.950 . S
C599 C598 1.349 . S
C599 C615 1.349 . S
C600 C598 1.327 . S
C600 C619 1.429 . S
C600 H624 0.950 . S
C601 C618 1.574 . S
C601 C620 1.368 1_545 S
C601 H625 0.949 1_545 S
H602 C606 0.949 . S
C603 C604 1.349 . S
C603 C605 1.327 . S
C603 H626 0.950 . S
C604 C603 1.349 . S
C604 C616 1.349 . S
C605 C603 1.327 . S
C605 C621 1.429 . S
C605 H627 0.950 . S
C606 H602 0.949 . S
C606 C614 1.574 . S
C606 C622 1.368 . S
H607 C615 0.950 . S
H608 C613 0.950 . S
H609 C614 0.949 1_565 S
H610 C616 0.950 . S
H611 C617 0.950 . S
H612 C618 0.949 . S
C613 H608 0.950 . S
C613 C615 1.327 . S
C613 C619 1.429 . S
C614 C606 1.574 . S
C614 H609 0.949 1_545 S
C614 C620 1.368 1_545 S
C615 C599 1.349 . S
C615 H607 0.950 . S
C615 C613 1.327 . S
C616 C604 1.349 . S
C616 H610 0.950 . S
C616 C617 1.327 . S
C617 H611 0.950 . S
C617 C616 1.327 . S
C617 C621 1.429 . S
C618 C601 1.574 . S
C618 H612 0.949 . S
C618 C622 1.368 . S
C619 C600 1.429 . S
C619 C613 1.429 . S
C619 C620 1.523 . S
C620 C601 1.368 1_565 S
C620 C614 1.368 1_565 S
C620 C619 1.523 . S
C621 C605 1.429 . S
C621 C617 1.429 . S
C621 C622 1.523 . S
C622 C606 1.368 . S
C622 C618 1.368 . S
C622 C621 1.523 . S
H623 C598 0.950 . S
H624 C600 0.950 . S
H625 C601 0.949 1_565 S
H626 C603 0.950 . S
H627 C605 0.950 . S
C628 C629 1.349 . S
C628 C630 1.327 . S
C628 H653 0.950 . S
C629 C628 1.349 . S
C629 C645 1.349 . S
C630 C628 1.327 . S
C630 C649 1.429 . S
C630 H654 0.950 . S
C631 C648 1.574 1_655 S
C631 C650 1.368 . S
C631 H655 0.949 . S
H632 C636 0.949 . S
C633 C634 1.349 . S
C633 C635 1.327 . S
C633 H656 0.950 . S
C634 C633 1.349 . S
C634 C646 1.349 . S
C635 C633 1.327 . S
C635 C651 1.429 . S
C635 H657 0.950 . S
C636 H632 0.949 . S
C636 C644 1.574 1_455 S
C636 C652 1.368 . S
H637 C645 0.950 . S
H638 C643 0.950 . S
H639 C644 0.949 . S
H640 C646 0.950 . S
H641 C647 0.950 . S
H642 C648 0.949 . S
C643 H638 0.950 . S
C643 C645 1.327 . S
C643 C649 1.429 . S
C644 C636 1.574 1_655 S
C644 H639 0.949 . S
C644 C650 1.368 . S
C645 C629 1.349 . S
C645 H637 0.950 . S
C645 C643 1.327 . S
C646 C634 1.349 . S
C646 H640 0.950 . S
C646 C647 1.327 . S
C647 H641 0.950 . S
C647 C646 1.327 . S
C647 C651 1.429 . S
C648 C631 1.574 1_455 S
C648 H642 0.949 . S
C648 C652 1.368 . S
C649 C630 1.429 . S
C649 C643 1.429 . S
C649 C650 1.523 . S
C650 C631 1.368 . S
C650 C644 1.368 . S
C650 C649 1.523 . S
C651 C635 1.429 . S
C651 C647 1.429 . S
C651 C652 1.523 . S
C652 C636 1.368 . S
C652 C648 1.368 . S
C652 C651 1.523 . S
H653 C628 0.950 . S
H654 C630 0.950 . S
H655 C631 0.949 . S
H656 C633 0.950 . S
H657 C635 0.950 . S
C658 C659 1.349 . S
C658 C660 1.327 . S
C658 H683 0.950 . S
C659 C658 1.349 . S
C659 C675 1.349 . S
C660 C658 1.327 . S
C660 C679 1.429 . S
C660 H684 0.950 . S
C661 C678 1.574 . S
C661 C680 1.390 . S
C661 H685 0.949 . S
H662 C666 0.949 . S
C663 C664 1.349 . S
C663 C665 1.327 . S
C663 H686 0.950 . S
C664 C663 1.349 . S
C664 C676 1.349 . S
C665 C663 1.327 . S
C665 C681 1.429 . S
C665 H687 0.950 . S
C666 H662 0.949 . S
C666 C674 1.574 . S
C666 C682 1.368 . S
H667 C675 0.950 . S
H668 C673 0.950 . S
H669 C674 0.949 1_545 S
H670 C676 0.950 . S
H671 C677 0.950 . S
H672 C678 0.949 . S
C673 H668 0.950 . S
C673 C675 1.327 . S
C673 C679 1.429 . S
C674 C666 1.574 . S
C674 H669 0.949 1_565 S
C674 C680 1.383 . S
C675 C659 1.349 . S
C675 H667 0.950 . S
C675 C673 1.327 . S
C676 C664 1.349 . S
C676 H670 0.950 . S
C676 C677 1.327 . S
C677 H671 0.950 . S
C677 C676 1.327 . S
C677 C681 1.429 . S
C678 C661 1.574 . S
C678 H672 0.949 . S
C678 C682 1.368 . S
C679 C660 1.429 . S
C679 C673 1.429 . S
C679 C680 1.478 1_545 S
C680 C661 1.390 . S
C680 C674 1.383 . S
C680 C679 1.478 1_565 S
C681 C665 1.429 . S
C681 C677 1.429 . S
C681 C682 1.523 . S
C682 C666 1.368 . S
C682 C678 1.368 . S
C682 C681 1.523 . S
H683 C658 0.950 . S
H684 C660 0.950 . S
H685 C661 0.949 . S
H686 C663 0.950 . S
H687 C665 0.950 . S
C688 C689 1.349 . S
C688 C690 1.327 . S
C688 H713 0.950 . S
C689 C688 1.349 . S
C689 C705 1.349 . S
C690 C688 1.327 . S
C690 C709 1.429 . S
C690 H714 0.950 . S
C691 C708 1.574 . S
C691 C710 1.368 . S
C691 H715 0.949 . S
H692 C696 0.949 . S
C693 C694 1.349 . S
C693 C695 1.327 . S
C693 H716 0.950 . S
C694 C693 1.349 . S
C694 C706 1.349 . S
C695 C693 1.327 . S
C695 C711 1.429 1_455 S
C695 H717 0.950 1_455 S
C696 H692 0.949 . S
C696 C704 1.574 . S
C696 C712 1.368 . S
H697 C705 0.950 . S
H698 C703 0.950 . S
H699 C704 0.949 . S
H700 C706 0.950 . S
H701 C707 0.950 . S
H702 C708 0.949 . S
C703 H698 0.950 . S
C703 C705 1.327 . S
C703 C709 1.429 . S
C704 C696 1.574 . S
C704 H699 0.949 . S
C704 C710 1.368 . S
C705 C689 1.349 . S
C705 H697 0.950 . S
C705 C703 1.327 . S
C706 C694 1.349 . S
C706 H700 0.950 . S
C706 C707 1.327 . S
C707 H701 0.950 . S
C707 C706 1.327 . S
C707 C711 1.429 1_455 S
C708 C691 1.574 . S
C708 H702 0.949 . S
C708 C712 1.368 . S
C709 C690 1.429 . S
C709 C703 1.429 . S
C709 C710 1.523 . S
C710 C691 1.368 . S
C710 C704 1.368 . S
C710 C709 1.523 . S
C711 C695 1.429 1_655 S
C711 C707 1.429 1_655 S
C711 C712 1.523 . S
C712 C696 1.368 . S
C712 C708 1.368 . S
C712 C711 1.523 . S
H713 C688 0.950 . S
H714 C690 0.950 . S
H715 C691 0.949 . S
H716 C693 0.950 . S
H717 C695 0.950 1_655 S
C718 C719 1.349 . S
C718 C720 1.327 . S
C718 H743 0.950 . S
C719 C718 1.349 . S
C719 C735 1.349 . S
C720 C718 1.327 . S
C720 C739 1.429 . S
C720 H744 0.950 . S
C721 C738 1.574 . S
C721 C740 1.368 . S
C721 H745 0.949 . S
H722 C726 0.949 . S
C723 C724 1.349 . S
C723 C725 1.327 . S
C723 H746 0.950 . S
C724 C723 1.349 . S
C724 C736 1.349 . S
C725 C723 1.327 . S
C725 C741 1.429 . S
C725 H747 0.950 . S
C726 H722 0.949 . S
C726 C734 1.574 . S
C726 C742 1.368 . S
H727 C735 0.950 . S
H728 C733 0.950 . S
H729 C734 0.949 . S
H730 C736 0.950 . S
H731 C737 0.950 . S
H732 C738 0.949 . S
C733 H728 0.950 . S
C733 C735 1.327 . S
C733 C739 1.429 . S
C734 C726 1.574 . S
C734 H729 0.949 . S
C734 C740 1.368 . S
C735 C719 1.349 . S
C735 H727 0.950 . S
C735 C733 1.327 . S
C736 C724 1.349 . S
C736 H730 0.950 . S
C736 C737 1.327 . S
C737 H731 0.950 . S
C737 C736 1.327 . S
C737 C741 1.429 . S
C738 C721 1.574 . S
C738 H732 0.949 . S
C738 C742 1.368 . S
C739 C720 1.429 . S
C739 C733 1.429 . S
C739 C740 1.523 . S
C740 C721 1.368 . S
C740 C734 1.368 . S
C740 C739 1.523 . S
C741 C725 1.429 . S
C741 C737 1.429 . S
C741 C742 1.523 1_545 S
C742 C726 1.368 . S
C742 C738 1.368 . S
C742 C741 1.523 1_565 S
H743 C718 0.950 . S
H744 C720 0.950 . S
H745 C721 0.949 . S
H746 C723 0.950 . S
H747 C725 0.950 . S
C748 C749 1.349 . S
C748 C750 1.327 . S
C748 H773 0.950 . S
C749 C748 1.349 . S
C749 C765 1.349 . S
C750 C748 1.327 . S
C750 C769 1.429 . S
C750 H774 0.950 . S
C751 C768 1.574 1_455 S
C751 C770 1.368 . S
C751 H775 0.949 . S
H752 C756 0.949 . S
C753 C754 1.349 . S
C753 C755 1.327 . S
C753 H776 0.950 . S
C754 C753 1.349 . S
C754 C766 1.349 . S
C755 C753 1.327 . S
C755 C771 1.429 . S
C755 H777 0.950 . S
C756 H752 0.949 . S
C756 C764 1.574 1_655 S
C756 C772 1.368 . S
H757 C765 0.950 . S
H758 C763 0.950 . S
H759 C764 0.949 . S
H760 C766 0.950 . S
H761 C767 0.950 . S
H762 C768 0.949 . S
C763 H758 0.950 . S
C763 C765 1.327 . S
C763 C769 1.429 . S
C764 C756 1.574 1_455 S
C764 H759 0.949 . S
C764 C770 1.368 . S
C765 C749 1.349 . S
C765 H757 0.950 . S
C765 C763 1.327 . S
C766 C754 1.349 . S
C766 H760 0.950 . S
C766 C767 1.327 . S
C767 H761 0.950 . S
C767 C766 1.327 . S
C767 C771 1.429 . S
C768 C751 1.574 1_655 S
C768 H762 0.949 . S
C768 C772 1.368 . S
C769 C750 1.429 . S
C769 C763 1.429 . S
C769 C770 1.523 . S
C770 C751 1.368 . S
C770 C764 1.368 . S
C770 C769 1.523 . S
C771 C755 1.429 . S
C771 C767 1.429 . S
C771 C772 1.523 . S
C772 C756 1.368 . S
C772 C768 1.368 . S
C772 C771 1.523 . S
H773 C748 0.950 . S
H774 C750 0.950 . S
H775 C751 0.949 . S
H776 C753 0.950 . S
H777 C755 0.950 . S
C778 C779 1.349 . S
C778 C780 1.327 . S
C778 H803 0.950 . S
C779 C778 1.349 . S
C779 C795 1.349 . S
C780 C778 1.327 . S
C780 C799 1.429 . S
C780 H804 0.950 . S
C781 C798 1.574 . S
C781 C800 1.368 . S
C781 H805 0.949 . S
H782 C786 0.949 . S
C783 C784 1.349 . S
C783 C785 1.327 . S
C783 H806 0.950 . S
C784 C783 1.349 . S
C784 C796 1.349 . S
C785 C783 1.327 . S
C785 C801 1.429 . S
C785 H807 0.950 . S
C786 H782 0.949 . S
C786 C794 1.574 . S
C786 C802 1.368 . S
H787 C795 0.950 . S
H788 C793 0.950 . S
H789 C794 0.949 . S
H790 C796 0.950 . S
H791 C797 0.950 . S
H792 C798 0.949 . S
C793 H788 0.950 . S
C793 C795 1.327 . S
C793 C799 1.429 . S
C794 C786 1.574 . S
C794 H789 0.949 . S
C794 C800 1.368 . S
C795 C779 1.349 . S
C795 H787 0.950 . S
C795 C793 1.327 . S
C796 C784 1.349 . S
C796 H790 0.950 . S
C796 C797 1.327 . S
C797 H791 0.950 . S
C797 C796 1.327 . S
C797 C801 1.429 . S
C798 C781 1.574 . S
C798 H792 0.949 . S
C798 C802 1.368 . S
C799 C780 1.429 . S
C799 C793 1.429 . S
C799 C800 1.523 1_565 S
C800 C781 1.368 . S
C800 C794 1.368 . S
C800 C799 1.523 1_545 S
C801 C785 1.429 . S
C801 C797 1.429 . S
C801 C802 1.523 . S
C802 C786 1.368 . S
C802 C798 1.368 . S
C802 C801 1.523 . S
H803 C778 0.950 . S
H804 C780 0.950 . S
H805 C781 0.949 . S
H806 C783 0.950 . S
H807 C785 0.950 . S
C808 C809 1.349 . S
C808 C810 1.327 . S
C808 H833 0.950 . S
C809 C808 1.349 . S
C809 C825 1.349 . S
C810 C808 1.327 . S
C810 C829 1.429 . S
C810 H834 0.950 . S
C811 C828 1.574 . S
C811 C830 1.368 . S
C811 H835 0.949 . S
H812 C816 0.949 . S
C813 C814 1.349 . S
C813 C815 1.327 . S
C813 H836 0.950 . S
C814 C813 1.349 . S
C814 C826 1.349 . S
C815 C813 1.327 . S
C815 C831 1.429 . S
C815 H837 0.950 . S
C816 H812 0.949 . S
C816 C824 1.574 . S
C816 C832 1.368 . S
H817 C825 0.950 . S
H818 C823 0.950 . S
H819 C824 0.949 . S
H820 C826 0.950 . S
H821 C827 0.950 . S
H822 C828 0.949 . S
C823 H818 0.950 . S
C823 C825 1.327 . S
C823 C829 1.429 . S
C824 C816 1.574 . S
C824 H819 0.949 . S
C824 C830 1.368 . S
C825 C809 1.349 . S
C825 H817 0.950 . S
C825 C823 1.327 . S
C826 C814 1.349 . S
C826 H820 0.950 . S
C826 C827 1.327 . S
C827 H821 0.950 . S
C827 C826 1.327 . S
C827 C831 1.429 . S
C828 C811 1.574 . S
C828 H822 0.949 . S
C828 C832 1.368 . S
C829 C810 1.429 . S
C829 C823 1.429 . S
C829 C830 1.523 . S
C830 C811 1.368 . S
C830 C824 1.368 . S
C830 C829 1.523 . S
C831 C815 1.429 . S
C831 C827 1.429 . S
C831 C832 1.523 . S
C832 C816 1.368 . S
C832 C828 1.368 . S
C832 C831 1.523 . S
H833 C808 0.950 . S
H834 C810 0.950 . S
H835 C811 0.949 . S
H836 C813 0.950 . S
H837 C815 0.950 . S
C838 C839 1.349 . S
C838 C840 1.327 . S
C838 H863 0.950 . S
C839 C838 1.349 . S
C839 C855 1.349 . S
C840 C838 1.327 . S
C840 C859 1.429 . S
C840 H864 0.950 . S
C841 C858 1.574 . S
C841 C860 1.368 . S
C841 H865 0.949 . S
H842 C846 0.949 . S
C843 C844 1.349 . S
C843 C845 1.327 . S
C843 H866 0.950 . S
C844 C843 1.349 . S
C844 C856 1.349 . S
C845 C843 1.327 . S
C845 C861 1.429 . S
C845 H867 0.950 . S
C846 H842 0.949 . S
C846 C854 1.574 . S
C846 C862 1.368 . S
H847 C855 0.950 . S
H848 C853 0.950 . S
H849 C854 0.949 . S
H850 C856 0.950 . S
H851 C857 0.950 . S
H852 C858 0.949 . S
C853 H848 0.950 . S
C853 C855 1.327 . S
C853 C859 1.429 . S
C854 C846 1.574 . S
C854 H849 0.949 . S
C854 C860 1.368 . S
C855 C839 1.349 . S
C855 H847 0.950 . S
C855 C853 1.327 . S
C856 C844 1.349 . S
C856 H850 0.950 . S
C856 C857 1.327 . S
C857 H851 0.950 . S
C857 C856 1.327 . S
C857 C861 1.429 . S
C858 C841 1.574 . S
C858 H852 0.949 . S
C858 C862 1.368 . S
C859 C840 1.429 . S
C859 C853 1.429 . S
C859 C860 1.523 . S
C860 C841 1.368 . S
C860 C854 1.368 . S
C860 C859 1.523 . S
C861 C845 1.429 . S
C861 C857 1.429 . S
C861 C862 1.523 . S
C862 C846 1.368 . S
C862 C858 1.368 . S
C862 C861 1.523 . S
H863 C838 0.950 . S
H864 C840 0.950 . S
H865 C841 0.949 . S
H866 C843 0.950 . S
H867 C845 0.950 . S
C868 C869 1.349 . S
C868 C870 1.327 . S
C868 H893 0.950 . S
C869 C868 1.349 . S
C869 C885 1.349 . S
C870 C868 1.327 . S
C870 C889 1.429 . S
C870 H894 0.950 . S
C871 C888 1.574 . S
C871 C890 1.368 . S
C871 H895 0.949 . S
H872 C876 0.949 . S
C873 C874 1.349 . S
C873 C875 1.327 . S
C873 H896 0.950 . S
C874 C873 1.349 . S
C874 C886 1.349 . S
C875 C873 1.327 . S
C875 C891 1.429 . S
C875 H897 0.950 . S
C876 H872 0.949 . S
C876 C884 1.574 . S
C876 C892 1.368 . S
H877 C885 0.950 . S
H878 C883 0.950 . S
H879 C884 0.949 . S
H880 C886 0.950 . S
H881 C887 0.950 . S
H882 C888 0.949 . S
C883 H878 0.950 . S
C883 C885 1.327 . S
C883 C889 1.429 . S
C884 C876 1.574 . S
C884 H879 0.949 . S
C884 C890 1.368 . S
C885 C869 1.349 . S
C885 H877 0.950 . S
C885 C883 1.327 . S
C886 C874 1.349 . S
C886 H880 0.950 . S
C886 C887 1.327 . S
C887 H881 0.950 . S
C887 C886 1.327 . S
C887 C891 1.429 . S
C888 C871 1.574 . S
C888 H882 0.949 . S
C888 C892 1.368 . S
C889 C870 1.429 . S
C889 C883 1.429 . S
C889 C890 1.523 . S
C890 C871 1.368 . S
C890 C884 1.368 . S
C890 C889 1.523 . S
C891 C875 1.429 . S
C891 C887 1.429 . S
C891 C892 1.523 . S
C892 C876 1.368 . S
C892 C888 1.368 . S
C892 C891 1.523 . S
H893 C868 0.950 . S
H894 C870 0.950 . S
H895 C871 0.949 . S
H896 C873 0.950 . S
H897 C875 0.950 . S
C898 C899 1.349 . S
C898 C900 1.327 . S
C898 H923 0.950 . S
C899 C898 1.349 . S
C899 C915 1.349 . S
C900 C898 1.327 . S
C900 C919 1.429 . S
C900 H924 0.950 . S
C901 C918 1.574 . S
C901 C920 1.368 . S
C901 H925 0.949 . S
H902 C906 0.949 . S
C903 C904 1.349 . S
C903 C905 1.327 . S
C903 H926 0.950 . S
C904 C903 1.349 . S
C904 C916 1.349 . S
C905 C903 1.327 . S
C905 C921 1.429 . S
C905 H927 0.950 . S
C906 H902 0.949 . S
C906 C914 1.574 . S
C906 C922 1.368 . S
H907 C915 0.950 . S
H908 C913 0.950 . S
H909 C914 0.949 . S
H910 C916 0.950 . S
H911 C917 0.950 . S
H912 C918 0.949 . S
C913 H908 0.950 . S
C913 C915 1.327 . S
C913 C919 1.429 . S
C914 C906 1.574 . S
C914 H909 0.949 . S
C914 C920 1.368 . S
C915 C899 1.349 . S
C915 H907 0.950 . S
C915 C913 1.327 . S
C916 C904 1.349 . S
C916 H910 0.950 . S
C916 C917 1.327 . S
C917 H911 0.950 . S
C917 C916 1.327 . S
C917 C921 1.429 . S
C918 C901 1.574 . S
C918 H912 0.949 . S
C918 C922 1.368 . S
C919 C900 1.429 . S
C919 C913 1.429 . S
C919 C920 1.523 . S
C920 C901 1.368 . S
C920 C914 1.368 . S
C920 C919 1.523 . S
C921 C905 1.429 . S
C921 C917 1.429 . S
C921 C922 1.523 . S
C922 C906 1.368 . S
C922 C918 1.368 . S
C922 C921 1.523 . S
H923 C898 0.950 . S
H924 C900 0.950 . S
H925 C901 0.949 . S
H926 C903 0.950 . S
H927 C905 0.950 . S
C928 C929 1.349 . S
C928 C930 1.327 . S
C928 H953 0.950 . S
C929 C928 1.349 . S
C929 C945 1.349 . S
C930 C928 1.327 . S
C930 C949 1.429 . S
C930 H954 0.950 . S
C931 C948 1.574 . S
C931 C950 1.368 . S
C931 H955 0.949 . S
H932 C936 0.949 . S
C933 C934 1.349 . S
C933 C935 1.327 . S
C933 H956 0.950 . S
C934 C933 1.349 . S
C934 C946 1.349 . S
C935 C933 1.327 . S
C935 C951 1.429 . S
C935 H957 0.950 . S
C936 H932 0.949 . S
C936 C944 1.574 . S
C936 C952 1.368 . S
H937 C945 0.950 . S
H938 C943 0.950 . S
H939 C944 0.949 . S
H940 C946 0.950 . S
H941 C947 0.950 . S
H942 C948 0.949 . S
C943 H938 0.950 . S
C943 C945 1.327 . S
C943 C949 1.429 . S
C944 C936 1.574 . S
C944 H939 0.949 . S
C944 C950 1.368 . S
C945 C929 1.349 . S
C945 H937 0.950 . S
C945 C943 1.327 . S
C946 C934 1.349 . S
C946 H940 0.950 . S
C946 C947 1.327 . S
C947 H941 0.950 . S
C947 C946 1.327 . S
C947 C951 1.429 . S
C948 C931 1.574 . S
C948 H942 0.949 . S
C948 C952 1.368 . S
C949 C930 1.429 . S
C949 C943 1.429 . S
C949 C950 1.523 . S
C950 C931 1.368 . S
C950 C944 1.368 . S
C950 C949 1.523 . S
C951 C935 1.429 . S
C951 C947 1.429 . S
C951 C952 1.523 . S
C952 C936 1.368 . S
C952 C948 1.368 . S
C952 C951 1.523 . S
H953 C928 0.950 . S
H954 C930 0.950 . S
H955 C931 0.949 . S
H956 C933 0.950 . S
H957 C935 0.950 . S
C958 C959 1.349 . S
C958 C960 1.327 . S
C958 H983 0.950 . S
C959 C958 1.349 . S
C959 C975 1.349 . S
C960 C958 1.327 . S
C960 C979 1.429 . S
C960 H984 0.950 . S
C961 C978 1.574 . S
C961 C980 1.368 . S
C961 H985 0.949 . S
H962 C966 0.949 . S
C963 C964 1.349 . S
C963 C965 1.327 . S
C963 H986 0.950 . S
C964 C963 1.349 . S
C964 C976 1.349 . S
C965 C963 1.327 . S
C965 C981 1.429 . S
C965 H987 0.950 . S
C966 H962 0.949 . S
C966 C974 1.574 . S
C966 C982 1.368 . S
H967 C975 0.950 . S
H968 C973 0.950 . S
H969 C974 0.949 . S
H970 C976 0.950 . S
H971 C977 0.950 . S
H972 C978 0.949 . S
C973 H968 0.950 . S
C973 C975 1.327 . S
C973 C979 1.429 . S
C974 C966 1.574 . S
C974 H969 0.949 . S
C974 C980 1.368 . S
C975 C959 1.349 . S
C975 H967 0.950 . S
C975 C973 1.327 . S
C976 C964 1.349 . S
C976 H970 0.950 . S
C976 C977 1.327 . S
C977 H971 0.950 . S
C977 C976 1.327 . S
C977 C981 1.429 . S
C978 C961 1.574 . S
C978 H972 0.949 . S
C978 C982 1.368 . S
C979 C960 1.429 . S
C979 C973 1.429 . S
C979 C980 1.523 . S
C980 C961 1.368 . S
C980 C974 1.368 . S
C980 C979 1.523 . S
C981 C965 1.429 . S
C981 C977 1.429 . S
C981 C982 1.523 . S
C982 C966 1.368 . S
C982 C978 1.368 . S
C982 C981 1.523 . S
H983 C958 0.950 . S
H984 C960 0.950 . S
H985 C961 0.949 . S
H986 C963 0.950 . S
H987 C965 0.950 . S
C988 C989 1.349 . S
C988 C990 1.327 . S
C988 H1013 0.950 . S
C989 C988 1.349 . S
C989 C1005 1.349 . S
C990 C988 1.327 . S
C990 C1009 1.429 . S
C990 H1014 0.950 . S
C991 C1008 1.574 . S
C991 C1010 1.368 . S
C991 H1015 0.949 . S
H992 C996 0.949 . S
C993 C994 1.349 . S
C993 C995 1.327 . S
C993 H1016 0.950 . S
C994 C993 1.349 . S
C994 C1006 1.349 . S
C995 C993 1.327 . S
C995 C1011 1.429 . S
C995 H1017 0.950 . S
C996 H992 0.949 . S
C996 C1004 1.574 . S
C996 C1012 1.368 . S
H997 C1005 0.950 . S
H998 C1003 0.950 . S
H999 C1004 0.949 . S
H1000 C1006 0.950 . S
H1001 C1007 0.950 . S
H1002 C1008 0.949 . S
C1003 H998 0.950 . S
C1003 C1005 1.327 . S
C1003 C1009 1.429 . S
C1004 C996 1.574 . S
C1004 H999 0.949 . S
C1004 C1010 1.368 . S
C1005 C989 1.349 . S
C1005 H997 0.950 . S
C1005 C1003 1.327 . S
C1006 C994 1.349 . S
C1006 H1000 0.950 . S
C1006 C1007 1.327 . S
C1007 H1001 0.950 . S
C1007 C1006 1.327 . S
C1007 C1011 1.429 . S
C1008 C991 1.574 . S
C1008 H1002 0.949 . S
C1008 C1012 1.368 . S
C1009 C990 1.429 . S
C1009 C1003 1.429 . S
C1009 C1010 1.523 . S
C1010 C991 1.368 . S
C1010 C1004 1.368 . S
C1010 C1009 1.523 . S
C1011 C995 1.429 . S
C1011 C1007 1.429 . S
C1011 C1012 1.523 . S
C1012 C996 1.368 . S
C1012 C1008 1.368 . S
C1012 C1011 1.523 . S
H1013 C988 0.950 . S
H1014 C990 0.950 . S
H1015 C991 0.949 . S
H1016 C993 0.950 . S
H1017 C995 0.950 . S
C1018 C1019 1.349 . S
C1018 C1020 1.327 . S
C1018 H1043 0.950 . S
C1019 C1018 1.349 . S
C1019 C1035 1.349 . S
C1020 C1018 1.327 . S
C1020 C1039 1.429 . S
C1020 H1044 0.950 . S
C1021 C1038 1.574 . S
C1021 C1040 1.368 . S
C1021 H1045 0.949 . S
H1022 C1026 0.949 . S
C1023 C1024 1.349 . S
C1023 C1025 1.327 . S
C1023 H1046 0.950 . S
C1024 C1023 1.349 . S
C1024 C1036 1.349 . S
C1025 C1023 1.327 . S
C1025 C1041 1.429 . S
C1025 H1047 0.950 . S
C1026 H1022 0.949 . S
C1026 C1034 1.574 . S
C1026 C1042 1.368 . S
H1027 C1035 0.950 . S
H1028 C1033 0.950 . S
H1029 C1034 0.949 . S
H1030 C1036 0.950 . S
H1031 C1037 0.950 . S
H1032 C1038 0.949 . S
C1033 H1028 0.950 . S
C1033 C1035 1.327 . S
C1033 C1039 1.429 . S
C1034 C1026 1.574 . S
C1034 H1029 0.949 . S
C1034 C1040 1.368 . S
C1035 C1019 1.349 . S
C1035 H1027 0.950 . S
C1035 C1033 1.327 . S
C1036 C1024 1.349 . S
C1036 H1030 0.950 . S
C1036 C1037 1.327 . S
C1037 H1031 0.950 . S
C1037 C1036 1.327 . S
C1037 C1041 1.429 . S
C1038 C1021 1.574 . S
C1038 H1032 0.949 . S
C1038 C1042 1.368 . S
C1039 C1020 1.429 . S
C1039 C1033 1.429 . S
C1039 C1040 1.523 . S
C1040 C1021 1.368 . S
C1040 C1034 1.368 . S
C1040 C1039 1.523 . S
C1041 C1025 1.429 . S
C1041 C1037 1.429 . S
C1041 C1042 1.523 . S
C1042 C1026 1.368 . S
C1042 C1038 1.368 . S
C1042 C1041 1.523 . S
H1043 C1018 0.950 . S
H1044 C1020 0.950 . S
H1045 C1021 0.949 . S
H1046 C1023 0.950 . S
H1047 C1025 0.950 . S
C1048 C1049 1.349 . S
C1048 C1050 1.327 . S
C1048 H1073 0.950 . S
C1049 C1048 1.349 . S
C1049 C1065 1.349 . S
C1050 C1048 1.327 . S
C1050 C1069 1.429 . S
C1050 H1074 0.950 . S
C1051 C1068 1.574 . S
C1051 C1070 1.368 . S
C1051 H1075 0.949 . S
H1052 C1056 0.949 . S
C1053 C1054 1.349 . S
C1053 C1055 1.327 . S
C1053 H1076 0.950 . S
C1054 C1053 1.349 . S
C1054 C1066 1.349 . S
C1055 C1053 1.327 . S
C1055 C1071 1.429 . S
C1055 H1077 0.950 . S
C1056 H1052 0.949 . S
C1056 C1064 1.574 . S
C1056 C1072 1.368 . S
H1057 C1065 0.950 . S
H1058 C1063 0.950 . S
H1059 C1064 0.949 . S
H1060 C1066 0.950 . S
H1061 C1067 0.950 . S
H1062 C1068 0.949 . S
C1063 H1058 0.950 . S
C1063 C1065 1.327 . S
C1063 C1069 1.429 . S
C1064 C1056 1.574 . S
C1064 H1059 0.949 . S
C1064 C1070 1.368 . S
C1065 C1049 1.349 . S
C1065 H1057 0.950 . S
C1065 C1063 1.327 . S
C1066 C1054 1.349 . S
C1066 H1060 0.950 . S
C1066 C1067 1.327 . S
C1067 H1061 0.950 . S
C1067 C1066 1.327 . S
C1067 C1071 1.429 . S
C1068 C1051 1.574 . S
C1068 H1062 0.949 . S
C1068 C1072 1.368 . S
C1069 C1050 1.429 . S
C1069 C1063 1.429 . S
C1069 C1070 1.523 . S
C1070 C1051 1.368 . S
C1070 C1064 1.368 . S
C1070 C1069 1.523 . S
C1071 C1055 1.429 . S
C1071 C1067 1.429 . S
C1071 C1072 1.523 . S
C1072 C1056 1.368 . S
C1072 C1068 1.368 . S
C1072 C1071 1.523 . S
H1073 C1048 0.950 . S
H1074 C1050 0.950 . S
H1075 C1051 0.949 . S
H1076 C1053 0.950 . S
H1077 C1055 0.950 . S
C1078 C1079 1.349 . S
C1078 C1080 1.327 . S
C1078 H1103 0.950 . S
C1079 C1078 1.349 . S
C1079 C1095 1.349 . S
C1080 C1078 1.327 . S
C1080 C1099 1.429 . S
C1080 H1104 0.950 . S
C1081 C1098 1.574 . S
C1081 C1100 1.368 . S
C1081 H1105 0.949 . S
H1082 C1086 0.949 . S
C1083 C1084 1.349 . S
C1083 C1085 1.327 . S
C1083 H1106 0.950 . S
C1084 C1083 1.349 . S
C1084 C1096 1.349 . S
C1085 C1083 1.327 . S
C1085 C1101 1.429 . S
C1085 H1107 0.950 . S
C1086 H1082 0.949 . S
C1086 C1094 1.574 . S
C1086 C1102 1.368 . S
H1087 C1095 0.950 . S
H1088 C1093 0.950 . S
H1089 C1094 0.949 . S
H1090 C1096 0.950 . S
H1091 C1097 0.950 . S
H1092 C1098 0.949 . S
C1093 H1088 0.950 . S
C1093 C1095 1.327 . S
C1093 C1099 1.429 . S
C1094 C1086 1.574 . S
C1094 H1089 0.949 . S
C1094 C1100 1.368 . S
C1095 C1079 1.349 . S
C1095 H1087 0.950 . S
C1095 C1093 1.327 . S
C1096 C1084 1.349 . S
C1096 H1090 0.950 . S
C1096 C1097 1.327 . S
C1097 H1091 0.950 . S
C1097 C1096 1.327 . S
C1097 C1101 1.429 . S
C1098 C1081 1.574 . S
C1098 H1092 0.949 . S
C1098 C1102 1.368 . S
C1099 C1080 1.429 . S
C1099 C1093 1.429 . S
C1099 C1100 1.523 . S
C1100 C1081 1.368 . S
C1100 C1094 1.368 . S
C1100 C1099 1.523 . S
C1101 C1085 1.429 . S
C1101 C1097 1.429 . S
C1101 C1102 1.523 . S
C1102 C1086 1.368 . S
C1102 C1098 1.368 . S
C1102 C1101 1.523 . S
H1103 C1078 0.950 . S
H1104 C1080 0.950 . S
H1105 C1081 0.949 . S
H1106 C1083 0.950 . S
H1107 C1085 0.950 . S
C1108 C1109 1.349 . S
C1108 C1110 1.327 . S
C1108 H1133 0.950 . S
C1109 C1108 1.349 . S
C1109 C1125 1.349 . S
C1110 C1108 1.327 . S
C1110 C1129 1.429 . S
C1110 H1134 0.950 . S
C1111 C1128 1.574 . S
C1111 C1130 1.368 . S
C1111 H1135 0.949 . S
H1112 C1116 0.949 . S
C1113 C1114 1.349 . S
C1113 C1115 1.327 . S
C1113 H1136 0.950 . S
C1114 C1113 1.349 . S
C1114 C1126 1.349 . S
C1115 C1113 1.327 . S
C1115 C1131 1.429 . S
C1115 H1137 0.950 . S
C1116 H1112 0.949 . S
C1116 C1124 1.574 . S
C1116 C1132 1.368 . S
H1117 C1125 0.950 . S
H1118 C1123 0.950 . S
H1119 C1124 0.949 . S
H1120 C1126 0.950 . S
H1121 C1127 0.950 . S
H1122 C1128 0.949 . S
C1123 H1118 0.950 . S
C1123 C1125 1.327 . S
C1123 C1129 1.429 . S
C1124 C1116 1.574 . S
C1124 H1119 0.949 . S
C1124 C1130 1.368 . S
C1125 C1109 1.349 . S
C1125 H1117 0.950 . S
C1125 C1123 1.327 . S
C1126 C1114 1.349 . S
C1126 H1120 0.950 . S
C1126 C1127 1.327 . S
C1127 H1121 0.950 . S
C1127 C1126 1.327 . S
C1127 C1131 1.429 . S
C1128 C1111 1.574 . S
C1128 H1122 0.949 . S
C1128 C1132 1.368 . S
C1129 C1110 1.429 . S
C1129 C1123 1.429 . S
C1129 C1130 1.523 . S
C1130 C1111 1.368 . S
C1130 C1124 1.368 . S
C1130 C1129 1.523 . S
C1131 C1115 1.429 . S
C1131 C1127 1.429 . S
C1131 C1132 1.523 . S
C1132 C1116 1.368 . S
C1132 C1128 1.368 . S
C1132 C1131 1.523 . S
H1133 C1108 0.950 . S
H1134 C1110 0.950 . S
H1135 C1111 0.949 . S
H1136 C1113 0.950 . S
H1137 C1115 0.950 . S
C1138 C1139 1.349 . S
C1138 C1140 1.327 . S
C1138 H1163 0.950 . S
C1139 C1138 1.349 . S
C1139 C1155 1.349 . S
C1140 C1138 1.327 . S
C1140 C1159 1.429 . S
C1140 H1164 0.950 . S
C1141 C1158 1.574 . S
C1141 C1160 1.368 . S
C1141 H1165 0.949 . S
H1142 C1146 0.949 . S
C1143 C1144 1.349 . S
C1143 C1145 1.327 . S
C1143 H1166 0.950 . S
C1144 C1143 1.349 . S
C1144 C1156 1.349 . S
C1145 C1143 1.327 . S
C1145 C1161 1.429 . S
C1145 H1167 0.950 . S
C1146 H1142 0.949 . S
C1146 C1154 1.574 . S
C1146 C1162 1.368 . S
H1147 C1155 0.950 . S
H1148 C1153 0.950 . S
H1149 C1154 0.949 . S
H1150 C1156 0.950 . S
H1151 C1157 0.950 . S
H1152 C1158 0.949 . S
C1153 H1148 0.950 . S
C1153 C1155 1.327 . S
C1153 C1159 1.429 . S
C1154 C1146 1.574 . S
C1154 H1149 0.949 . S
C1154 C1160 1.368 . S
C1155 C1139 1.349 . S
C1155 H1147 0.950 . S
C1155 C1153 1.327 . S
C1156 C1144 1.349 . S
C1156 H1150 0.950 . S
C1156 C1157 1.327 . S
C1157 H1151 0.950 . S
C1157 C1156 1.327 . S
C1157 C1161 1.429 . S
C1158 C1141 1.574 . S
C1158 H1152 0.949 . S
C1158 C1162 1.368 . S
C1159 C1140 1.429 . S
C1159 C1153 1.429 . S
C1159 C1160 1.523 . S
C1160 C1141 1.368 . S
C1160 C1154 1.368 . S
C1160 C1159 1.523 . S
C1161 C1145 1.429 . S
C1161 C1157 1.429 . S
C1161 C1162 1.523 . S
C1162 C1146 1.368 . S
C1162 C1158 1.368 . S
C1162 C1161 1.523 . S
H1163 C1138 0.950 . S
H1164 C1140 0.950 . S
H1165 C1141 0.949 . S
H1166 C1143 0.950 . S
H1167 C1145 0.950 . S
C209 C199 1.298 . S
C214 C10 1.298 . S
C239 C160 0.748 . S
C244 C23 0.748 . S
C269 C36 0.996 . S
C274 C179 0.978 . S
C299 C186 0.979 . S
C304 C43 0.996 . S
C329 C127 0.748 . S
C334 C62 0.748 . S
C359 C69 0.978 . S
C364 C134 0.996 . S
C389 C82 0.978 . S
C394 C153 0.996 . S
C419 C101 1.298 . S
C424 C114 1.298 . S
C449 C70 1.736 . S
C454 C5 1.668 . S
C479 C81 1.404 . S
C484 C18 1.457 . S
C509 C94 1.716 . S
C514 C31 1.684 . S
C539 C44 1.277 . S
C544 C56 1.262 . S
C569 C4 1.409 . S
C574 C16 1.408 . S
C599 C29 1.277 . S
C604 C17 1.262 . S
C629 C30 1.815 . S
C634 C49 1.815 . S
C659 C3 1.716 . S
C664 C42 1.684 . S
C689 C95 1.409 . S
C694 C55 1.408 . S
C719 C57 1.457 . S
C724 C68 1.404 . S
C749 C75 1.507 . S
C754 C88 1.507 . S
C779 C96 1.668 . S
C784 C83 1.736 . S
C809 C172 1.736 . S
C814 C109 1.668 . S
C839 C122 1.457 . S
C844 C185 1.404 . S
C869 C200 1.716 . S
C874 C133 1.684 . S
C899 C166 1.262 . S
C904 C146 1.277 . S
C929 C108 1.409 . S
C934 C120 1.408 . S
C959 C121 1.262 . S
C964 C135 1.277 . S
C989 C147 1.815 . S
C994 C140 1.815 . S
C1019 C107 1.716 . S
C1024 C148 1.684 . S
C1049 C205 1.409 . S
C1054 C161 1.408 . S
C1079 C159 1.457 . S
C1084 C174 1.404 . S
C1109 C173 1.507 . S
C1114 C192 1.507 . S
C1139 C198 1.668 . S
C1144 C187 1.736 . S
