# Generated by pormake.
# Topology sxb, (6)-cn, num edge types: 1
# Building blocks:
#     Node 0, Type 0, BuildingBlock: MIDCAF_clean_sbu_0, # of connection points: 6
#     Node 1, Type 0, BuildingBlock: MIDCAF_clean_sbu_0, # of connection points: 6
#     Node 2, Type 0, BuildingBlock: MIDCAF_clean_sbu_0, # of connection points: 6
#     Node 3, Type 0, BuildingBlock: MIDCAF_clean_sbu_0, # of connection points: 6
#     Edge 4, Type (0, 0), BuildingBlock: ZUJKAS_clean_linker_0, # of connection points: 2
#     Edge 5, Type (0, 0), BuildingBlock: ZUJKAS_clean_linker_0, # of connection points: 2
#     Edge 6, Type (0, 0), BuildingBlock: ZUJKAS_clean_linker_0, # of connection points: 2
#     Edge 7, Type (0, 0), BuildingBlock: ZUJKAS_clean_linker_0, # of connection points: 2
#     Edge 8, Type (0, 0), BuildingBlock: ZUJKAS_clean_linker_0, # of connection points: 2
#     Edge 9, Type (0, 0), BuildingBlock: ZUJKAS_clean_linker_0, # of connection points: 2
#     Edge 10, Type (0, 0), BuildingBlock: ZUJKAS_clean_linker_0, # of connection points: 2
#     Edge 11, Type (0, 0), BuildingBlock: ZUJKAS_clean_linker_0, # of connection points: 2
#     Edge 12, Type (0, 0), BuildingBlock: ZUJKAS_clean_linker_0, # of connection points: 2
#     Edge 13, Type (0, 0), BuildingBlock: ZUJKAS_clean_linker_0, # of connection points: 2
#     Edge 14, Type (0, 0), BuildingBlock: ZUJKAS_clean_linker_0, # of connection points: 2
#     Edge 15, Type (0, 0), BuildingBlock: ZUJKAS_clean_linker_0, # of connection points: 2
# Relax obj value: 0.308
# Max RMSD: 0.251
# Mean RMSD: 0.251
data_MOF--net-sxb--node1-MIDCAF_clean_sbu_0--edge1-ZUJKAS_clean_linker_0
_symmetry_space_group_name_H-M    P1
_symmetry_Int_Tables_number       1
_symmetry_cell_setting            triclinic
loop_
_symmetry_equiv_pos_as_xyz
'x, y, z'
_cell_length_a     18.349605
_cell_length_b     34.130177
_cell_length_c     38.398494
_cell_angle_alpha  94.859862
_cell_angle_beta   90.495443
_cell_angle_gamma 89.723194
loop_
_atom_site_label
_atom_site_type_symbol
_atom_site_fract_x
_atom_site_fract_y
_atom_site_fract_z
_atom_type_partial_charge
Zn0 Zn 0.04154 0.27662 0.0536 0.0
Zn1 Zn 0.91064 0.15779 0.98759 0.0
Zn2 Zn -0.02211 0.21796 0.01932 0.0
C3 C 0.96072 0.13011 0.04717 0.0
C4 C 0.02926 0.17566 0.94594 0.0
O5 O 0.8951 0.26538 0.03156 0.0
O6 O 0.95442 0.30774 0.06809 0.0
C7 C 0.06331 0.21327 0.09273 0.0
O8 O -0.00961 0.16443 0.04834 0.0
O9 O 0.9124 0.12068 0.02445 0.0
O10 O -0.01634 0.14875 0.94962 0.0
O11 O 0.03324 0.20555 0.96871 0.0
O12 O 0.08888 0.24716 0.09007 0.0
O13 O 0.01876 0.19801 0.06928 0.0
O14 O 0.06734 0.23784 0.98738 0.0
O15 O 0.10143 0.29422 0.01516 0.0
C16 C 0.10671 0.26909 0.98924 0.0
O17 O 0.86512 0.2359 1.00844 0.0
O18 O 0.81959 0.18504 0.97574 0.0
C19 C 0.89618 0.29702 0.0525 0.0
C20 C 0.81336 0.21972 0.98956 0.0
Zn21 Zn 0.06406 0.03639 0.48093 0.0
Zn22 Zn 0.92781 0.16003 0.5391 0.0
Zn23 Zn -0.00107 0.09644 0.51322 0.0
C24 C -0.0099 0.18308 0.48086 0.0
C25 C 0.0393 0.14064 0.58739 0.0
O26 O 0.91677 0.0491 0.50172 0.0
O27 O -0.02327 1.00513 0.46721 0.0
C28 C 0.08381 0.09647 0.43913 0.0
O29 O 0.01526 0.14781 0.48195 0.0
O30 O 0.94218 0.19599 0.50226 0.0
O31 O -0.00786 0.16653 0.58167 0.0
O32 O 0.04969 0.11116 0.56472 0.0
O33 O 0.11083 0.06301 0.44295 0.0
O34 O 0.04021 0.11262 0.46234 0.0
O35 O 0.08708 0.07857 0.54751 0.0
O36 O 0.12307 1.02165 0.52134 0.0
C37 C 0.12695 0.0474 0.54689 0.0
O38 O 0.88581 0.08017 0.52367 0.0
O39 O 0.83188 0.13557 0.54431 0.0
C40 C 0.91827 1.01673 0.48178 0.0
C41 C 0.82967 0.099 0.53628 0.0
Zn42 Zn 0.55524 0.78681 0.06435 0.0
Zn43 Zn 0.45648 0.67404 0.98502 0.0
Zn44 Zn 0.50817 0.73117 0.02173 0.0
C45 C 0.48788 0.64065 0.04316 0.0
C46 C 0.57896 0.69519 0.95021 0.0
O47 O 0.41838 0.77499 0.03269 0.0
O48 O 0.46385 0.81562 0.07529 0.0
C49 C 0.57566 0.72128 0.09923 0.0
O50 O 0.51842 0.67478 0.04776 0.0
O51 O 0.44357 0.6337 0.01814 0.0
O52 O 0.53898 0.66559 0.9524 0.0
O53 O 0.57342 0.72517 0.9729 0.0
O54 O 0.59573 0.75668 0.10144 0.0
O55 O 0.54046 0.70684 0.0719 0.0
O56 O 0.60168 0.75768 0.99597 0.0
O57 O 0.62502 0.80921 0.0331 0.0
C58 C 0.63861 0.7891 1.00479 0.0
O59 O 0.39569 0.74666 1.00659 0.0
O60 O 0.36987 0.69912 0.96571 0.0
C61 C 0.41133 0.80479 0.05548 0.0
C62 C 0.35336 0.73139 0.98219 0.0
Zn63 Zn 0.57411 0.53603 0.48465 0.0
Zn64 Zn 0.42079 0.64785 0.54869 0.0
Zn65 Zn 0.50426 0.59264 0.51953 0.0
C66 C 0.48935 0.6821 0.49581 0.0
C67 C 0.52878 0.62736 0.59813 0.0
O68 O 0.429 0.54264 0.50566 0.0
O69 O 0.49177 0.50158 0.46956 0.0
C70 C 0.5845 0.59947 0.44522 0.0
O71 O 0.51476 0.64673 0.49125 0.0
O72 O 0.44417 0.69091 0.51981 0.0
O73 O 0.47046 0.64671 0.59518 0.0
O74 O 0.55412 0.60587 0.57175 0.0
O75 O 0.61491 0.56656 0.44779 0.0
O76 O 0.54082 0.61364 0.46932 0.0
O77 O 0.59578 0.57599 0.55286 0.0
O78 O 0.63635 0.5215 0.52394 0.0
C79 C 0.63858 0.54589 0.55053 0.0
O80 O 0.392 0.571 0.52795 0.0
O81 O 0.32432 0.62327 0.54391 0.0
C82 C 0.43293 0.51113 0.48473 0.0
C83 C 0.32997 0.58668 0.53666 0.0
H84 H 0.33086 0.82139 0.11342 0.0
H85 H 0.23273 0.87009 0.12161 0.0
H86 H 0.24856 0.89303 1.01305 0.0
H87 H 0.34436 0.84294 1.00466 0.0
H88 H 0.24526 0.94407 0.11827 0.0
H89 H 0.03393 0.89411 0.02231 0.0
H90 H 0.10906 0.86291 0.03279 0.0
H91 H 0.11908 0.89781 1.0004 0.0
C92 C 0.31142 0.836 0.09112 0.0
C93 C 0.3439 0.82818 0.05832 0.0
C94 C 0.25576 0.86395 0.09582 0.0
C95 C 0.2325 0.88514 0.06793 0.0
C96 C 0.26384 0.87644 0.03481 0.0
H97 H 0.10213 0.12254 0.06736 0.0
H98 H 0.16193 0.06179 0.08077 0.0
C99 C 0.31876 0.84794 0.02999 0.0
C100 C 0.18179 0.9191 0.07433 0.0
H101 H 0.03529 0.9643 0.0397 0.0
C102 C 0.19849 0.94809 0.10146 0.0
C103 C 0.11961 0.9242 0.05314 0.0
C104 C 0.094 0.8928 0.02582 0.0
C105 C 0.1573 0.98285 0.10664 0.0
C106 C 0.09949 0.98958 0.08326 0.0
C107 C 0.08023 0.95962 0.05743 0.0
C108 C 0.06214 0.02837 0.08295 0.0
C109 C 0.17642 1.01192 0.13711 0.0
C110 C -0.01419 0.03045 0.08048 0.0
C111 C 0.95155 0.06517 0.07217 0.0
C112 C -0.00706 0.09855 0.06651 0.0
C113 C 0.06863 0.09754 0.07214 0.0
C114 C 0.10298 0.06265 0.07988 0.0
H115 H 0.1991 0.99669 0.15927 0.0
H116 H 0.2189 0.03225 0.12902 0.0
H117 H 0.12819 0.02943 0.14639 0.0
H118 H 0.953 1.00452 0.08286 0.0
H119 H 0.8931 0.06511 0.0679 0.0
H120 H 0.41808 0.57141 0.04947 0.0
H121 H 0.47525 0.50959 0.06213 0.0
H122 H 0.67471 0.57092 0.09075 0.0
H123 H 0.6186 0.63278 0.07679 0.0
H124 H 0.693 0.51563 0.03744 0.0
H125 H 0.54416 0.44972 0.14265 0.0
H126 H 0.48461 0.46515 0.10907 0.0
H127 H 0.53671 0.50121 0.13546 0.0
C128 C 0.47332 0.572 0.05968 0.0
C129 C 0.51393 0.60702 0.06191 0.0
C130 C 0.50586 0.53655 0.06713 0.0
C131 C 0.57933 0.53552 0.07738 0.0
C132 C 0.61786 0.57104 0.08289 0.0
H133 H 0.85301 0.33716 0.11256 0.0
H134 H 0.76638 0.39187 0.11866 0.0
C135 C 0.58546 0.60652 0.07522 0.0
C136 C 0.61888 0.49736 0.07608 0.0
H137 H 0.61849 0.40573 0.10575 0.0
C138 C 0.67705 0.49175 0.05266 0.0
C139 C 0.59785 0.46613 0.09576 0.0
C140 C 0.53785 0.47091 0.1224 0.0
C141 C 0.71458 0.45585 0.0482 0.0
C142 C 0.69217 0.42416 0.06701 0.0
C143 C 0.63454 0.4298 0.0908 0.0
C144 C 0.73257 0.38629 0.06437 0.0
C145 C 0.77908 0.45256 0.02393 0.0
C146 C 0.73982 0.36381 0.03215 0.0
C147 C 0.78962 0.33253 0.02858 0.0
C148 C 0.83211 0.32312 0.05729 0.0
C149 C 0.82073 0.34382 0.09002 0.0
C150 C 0.77115 0.375 0.09357 0.0
H151 H 0.7991 0.48188 0.01787 0.0
H152 H 0.82476 0.43644 0.03548 0.0
H153 H 0.76273 0.43611 0.99894 0.0
H154 H 0.7102 0.3719 1.00932 0.0
H155 H 0.79876 0.31781 1.00292 0.0
H156 H 0.13484 0.18734 0.46816 0.0
H157 H 0.1993 0.24673 0.45541 0.0
H158 H -0.00567 0.30289 0.43425 0.0
H159 H 0.92938 0.24423 0.44937 0.0
H160 H 0.21935 0.29738 0.40932 0.0
H161 H 0.0583 0.37017 0.51842 0.0
H162 H 0.05221 0.31828 0.50603 0.0
H163 H 0.00352 0.35291 0.48146 0.0
C164 C 0.10364 0.21187 0.45965 0.0
C165 C 0.02718 0.21163 0.46047 0.0
C166 C 0.14054 0.24595 0.45249 0.0
C167 C 0.10145 0.27994 0.44542 0.0
C168 C 0.02545 0.27762 0.44116 0.0
H169 H 0.36795 0.49021 0.42257 0.0
H170 H 0.2785 0.43774 0.4098 0.0
C171 C -0.01158 0.24394 0.44932 0.0
C172 C 0.13948 0.31844 0.44719 0.0
H173 H 0.14457 0.40875 0.49274 0.0
C174 C 0.20273 0.32188 0.42738 0.0
C175 C 0.11861 0.35019 0.47137 0.0
C176 C 0.05494 0.34769 0.49578 0.0
C177 C 0.24674 0.35556 0.43176 0.0
C178 C 0.22509 0.3875 0.45553 0.0
C179 C 0.16068 0.38449 0.47442 0.0
C180 C 0.27118 0.42294 0.46341 0.0
C181 C 0.3179 0.35547 0.4123 0.0
C182 C 0.29242 0.43423 0.49813 0.0
C183 C 0.34148 0.46511 0.50553 0.0
C184 C 0.37013 0.48497 0.47834 0.0
C185 C 0.3462 0.47515 0.44391 0.0
C186 C 0.29604 0.44484 0.43657 0.0
H187 H 0.33553 0.32517 0.40315 0.0
H188 H 0.31101 0.37218 0.38893 0.0
H189 H 0.36193 0.36943 0.42897 0.0
H190 H 0.27363 0.41802 0.51937 0.0
H191 H 0.36046 0.47177 0.53215 0.0
H192 H 0.87573 0.97508 0.42201 0.0
H193 H 0.78642 0.92206 0.41596 0.0
H194 H 0.72861 0.94618 0.52438 0.0
H195 H 0.82156 0.99761 0.53078 0.0
H196 H 0.76807 0.87152 0.50952 0.0
H197 H 0.56786 0.91078 0.40949 0.0
H198 H 0.66019 0.91412 0.39509 0.0
H199 H 0.62884 0.94636 0.43146 0.0
C200 C 0.8424 0.96975 0.44427 0.0
C201 C 0.85399 0.9911 0.47676 0.0
C202 C 0.79091 0.93967 0.4407 0.0
C203 C 0.74982 0.9305 0.46953 0.0
C204 C 0.75893 0.95311 0.50162 0.0
H205 H 0.42642 0.75282 0.4867 0.0
H206 H 0.48953 0.81254 0.47375 0.0
C207 C 0.81095 0.98303 0.50521 0.0
C208 C 0.70621 0.89388 0.46755 0.0
H209 H 0.57157 0.84293 0.42162 0.0
C210 C 0.72473 0.86544 0.49046 0.0
C211 C 0.64971 0.88594 0.44266 0.0
C212 C 0.62494 0.91608 0.41851 0.0
C213 C 0.68882 0.82922 0.48911 0.0
C214 C 0.63415 0.82061 0.46338 0.0
C215 C 0.61474 0.84922 0.44072 0.0
C216 C 0.59248 0.78342 0.46215 0.0
C217 C 0.70862 0.80094 0.51592 0.0
C218 C 0.62812 0.74682 0.4576 0.0
C219 C 0.59233 0.71256 0.46539 0.0
C220 C 0.52013 0.71446 0.47733 0.0
C221 C 0.48234 0.75048 0.47791 0.0
C222 C 0.51826 0.78468 0.47042 0.0
H223 H 0.73909 0.81566 0.53846 0.0
H224 H 0.6591 0.78725 0.52595 0.0
H225 H 0.74378 0.7772 0.50363 0.0
H226 H 0.68513 0.74517 0.45051 0.0
H227 H 0.62314 0.6854 0.4649 0.0
H228 H 0.15892 0.33619 0.96538 0.0
H229 H 0.28116 0.34458 0.94233 0.0
H230 H 0.31612 0.21913 0.93976 0.0
H231 H 0.19353 0.21073 0.96093 0.0
H232 H 0.38696 0.33267 0.98172 0.0
H233 H 0.44199 0.23975 0.86159 0.0
H234 H 0.34985 0.25157 0.87503 0.0
H235 H 0.39651 0.20938 0.89021 0.0
C236 C 0.19168 0.31033 0.95814 0.0
C237 C 0.16733 0.27286 0.96504 0.0
C238 C 0.26151 0.31512 0.94505 0.0
C239 C 0.30835 0.28258 0.93938 0.0
C240 C 0.28098 0.24472 0.943 0.0
H241 H 0.6998 0.23805 0.03258 0.0
H242 H 0.58179 0.26482 0.01587 0.0
C243 C 0.21067 0.23987 0.95536 0.0
C244 C 0.38833 0.28834 0.938 0.0
H245 H 0.54158 0.24164 0.9067 0.0
C246 C 0.42081 0.31366 0.96446 0.0
C247 C 0.43337 0.26458 0.91513 0.0
C248 C 0.40325 0.24022 0.8837 0.0
C249 C 0.49594 0.31261 0.97101 0.0
C250 C 0.53924 0.28453 0.95144 0.0
C251 C 0.50818 0.26242 0.92251 0.0
C252 C 0.61369 0.27413 0.96289 0.0
C253 C 0.52742 0.34063 0.9997 0.0
C254 C 0.67071 0.27004 0.93871 0.0
C255 C 0.73723 0.25377 0.94808 0.0
C256 C 0.74788 0.24195 0.98184 0.0
C257 C 0.6925 0.24757 1.00656 0.0
C258 C 0.62551 0.26323 0.99705 0.0
H259 H 0.49744 0.36908 1.00147 0.0
H260 H 0.52151 0.32791 0.02518 0.0
H261 H 0.58596 0.3464 0.99539 0.0
H262 H 0.66281 0.278 0.91222 0.0
H263 H 0.77965 0.2493 0.92867 0.0
H264 H 0.2141 0.10637 0.57373 0.0
H265 H 0.33932 0.09754 0.59316 0.0
H266 H 0.30279 0.97302 0.59572 0.0
H267 H 0.17802 0.98155 0.57438 0.0
H268 H 0.43108 0.06529 0.63959 0.0
H269 H 0.42943 0.97617 0.51071 0.0
H270 H 0.35059 1.00357 0.52638 0.0
H271 H 0.37526 0.95849 0.5447 0.0
C272 C 0.23175 0.07739 0.57989 0.0
C273 C 0.18754 0.04446 0.57173 0.0
C274 C 0.30342 0.07232 0.59103 0.0
C275 C 0.33102 0.03436 0.59446 0.0
C276 C 0.28305 1.00236 0.59206 0.0
H277 H 0.812 0.04995 0.58717 0.0
H278 H 0.69627 0.02283 0.60618 0.0
C279 C 0.21181 1.00728 0.58009 0.0
C280 C 0.41076 0.0282 0.59242 0.0
H281 H 0.54093 0.99818 0.53285 0.0
C282 C 0.4556 0.04969 0.61681 0.0
C283 C 0.44235 1.00793 0.5624 0.0
C284 C 0.39719 0.9854 0.53439 0.0
C285 C 0.53014 0.05434 0.61049 0.0
C286 C 0.56026 0.03633 0.57932 0.0
C287 C 0.51705 1.01186 0.55665 0.0
C288 C 0.6315 0.04839 0.56647 0.0
C289 C 0.57465 0.08119 0.63555 0.0
C290 C 0.63319 0.07045 0.53723 0.0
C291 C 0.69876 0.08547 0.52626 0.0
C292 C 0.76345 0.07811 0.5441 0.0
C293 C 0.76235 0.0552 0.57277 0.0
C294 C 0.69661 0.04007 0.58377 0.0
H295 H 0.54114 0.0957 0.65694 0.0
H296 H 0.61833 0.06395 0.64742 0.0
H297 H 0.60114 0.10427 0.62139 0.0
H298 H 0.58326 0.07727 0.52368 0.0
H299 H 0.69873 0.10376 0.50452 0.0
H300 H 0.75041 0.83546 0.02944 0.0
H301 H 0.86959 0.84053 1.00402 0.0
H302 H 0.79664 0.77177 0.91081 0.0
H303 H 0.67582 0.76687 0.93677 0.0
H304 H 0.90726 0.73796 0.94001 0.0
H305 H -0.01592 0.89286 0.93412 0.0
H306 H 0.94043 0.88718 0.97488 0.0
H307 H 0.89003 0.8773 0.93463 0.0
C308 C 0.7586 0.82238 1.00306 0.0
C309 C 0.70425 0.79929 0.98545 0.0
C310 C 0.82698 0.82579 0.9883 0.0
C311 C 0.84226 0.8068 0.95534 0.0
C312 C 0.78613 0.78668 0.93633 0.0
H313 H 0.29789 0.73644 0.91726 0.0
H314 H 0.17666 0.76038 0.90173 0.0
C315 C 0.71748 0.78321 0.9513 0.0
C316 C 0.91934 0.80101 0.94509 0.0
H317 H 0.08288 0.84847 0.95061 0.0
C318 C 0.94548 0.76219 0.94104 0.0
C319 C 0.96931 0.83256 0.94629 0.0
C320 C 0.94428 0.87478 0.94731 0.0
C321 C 0.02023 0.75408 0.94192 0.0
C322 C 0.06974 0.78564 0.94683 0.0
C323 C 0.04427 0.82445 0.94766 0.0
C324 C 0.14677 0.77825 0.95506 0.0
C325 C 0.04573 0.71184 0.94033 0.0
C326 C 0.16992 0.78121 0.9901 0.0
C327 C 0.2387 0.76735 0.99905 0.0
C328 C 0.2851 0.75073 0.97298 0.0
C329 C 0.26287 0.74931 0.93778 0.0
C330 C 0.19414 0.76313 0.92885 0.0
H331 H -0.0003 0.69072 0.93799 0.0
H332 H 0.08188 0.70559 0.9175 0.0
H333 H 0.07787 0.70677 0.96419 0.0
H334 H 0.13323 0.79217 1.01067 0.0
H335 H 0.25388 0.7676 0.02637 0.0
H336 H 0.31988 0.52742 0.57902 0.0
H337 H 0.2061 0.49923 0.59935 0.0
H338 H 0.08341 0.56516 0.52768 0.0
H339 H 0.1963 0.59396 0.50809 0.0
H340 H 0.08203 0.56099 0.62542 0.0
H341 H 0.00486 0.44347 0.52327 0.0
H342 H 0.09839 0.45596 0.53464 0.0
H343 H 0.04641 0.48612 0.50733 0.0
C344 C 0.26864 0.53464 0.56682 0.0
C345 C 0.26618 0.56233 0.54177 0.0
C346 C 0.20401 0.51886 0.57862 0.0
C347 C 0.13688 0.53022 0.56492 0.0
C348 C 0.13501 0.55594 0.5383 0.0
H349 H 0.73444 0.60224 0.57258 0.0
H350 H 0.85695 0.59087 0.59406 0.0
C351 C 0.19921 0.5722 0.52704 0.0
C352 C 0.06749 0.51944 0.58045 0.0
H353 H 0.90691 0.47674 0.55477 0.0
C354 C 0.04402 0.54152 0.6108 0.0
C355 C 0.01885 0.49362 0.5617 0.0
C356 C 0.04326 0.46808 0.53 0.0
C357 C 0.97049 0.54169 0.62056 0.0
C358 C 0.91984 0.51967 0.59907 0.0
C359 C 0.94538 0.49399 0.5712 0.0
C360 C 0.84086 0.52883 0.59966 0.0
C361 C 0.9471 0.56735 0.65242 0.0
C362 C 0.78965 0.49828 0.59722 0.0
C363 C 0.71922 0.50495 0.58492 0.0
C364 C 0.69909 0.54229 0.57526 0.0
C365 C 0.74767 0.57368 0.5813 0.0
C366 C 0.8181 0.56703 0.59346 0.0
H367 H -0.00999 0.56806 0.67306 0.0
H368 H 0.93914 0.59793 0.64529 0.0
H369 H 0.89539 0.55696 0.66323 0.0
H370 H 0.80615 0.46856 0.6016 0.0
H371 H 0.68267 0.48022 0.58 0.0
H372 H 0.19894 0.08381 0.39522 0.0
H373 H 0.21025 0.1045 0.33605 0.0
H374 H 0.0073 0.16826 0.34825 0.0
H375 H -0.00444 0.1476 0.40728 0.0
H376 H 0.11304 0.08492 0.28281 0.0
H377 H 0.13755 0.24693 0.30502 0.0
H378 H 0.15157 0.21472 0.33946 0.0
H379 H 0.06075 0.22779 0.32663 0.0
C380 C 0.15756 0.10298 0.38556 0.0
C381 C 0.09681 0.11452 0.40609 0.0
C382 C 0.16402 0.11467 0.35174 0.0
C383 C 0.10996 0.13816 0.33784 0.0
C384 C 0.0505 0.15085 0.35871 0.0
H385 H -0.02044 0.16067 0.1244 0.0
H386 H -0.00174 0.13828 0.18271 0.0
C387 C 0.04403 0.13919 0.39257 0.0
C388 C 0.11247 0.14654 0.30063 0.0
H389 H 0.1081 0.22104 0.2468 0.0
C390 C 0.11266 0.11468 0.2749 0.0
C391 C 0.11272 0.18534 0.2904 0.0
C392 C 0.11637 0.22066 0.31681 0.0
C393 C 0.11102 0.12064 0.23917 0.0
C394 C 0.10795 0.15943 0.22899 0.0
C395 C 0.10983 0.19127 0.25469 0.0
C396 C 0.10159 0.16793 0.19187 0.0
C397 C 0.11316 0.08544 0.21263 0.0
C398 C 0.15392 0.19147 0.17747 0.0
C399 C 0.14342 0.20415 0.14419 0.0
C400 C 0.08027 0.19361 0.12468 0.0
C401 C 0.02949 0.16853 0.13845 0.0
C402 C 0.04002 0.15584 0.17184 0.0
H403 H 0.13509 0.05895 0.22411 0.0
H404 H 0.05704 0.07871 0.203 0.0
H405 H 0.14707 0.09147 0.18988 0.0
H406 H 0.20178 0.20111 0.19249 0.0
H407 H 0.1835 0.22349 0.13426 0.0
H408 H 0.08568 0.11008 0.91165 0.0
H409 H 0.12828 0.10295 0.85138 0.0
H410 H 0.10757 0.22823 0.84577 0.0
H411 H 0.06624 0.23553 0.90653 0.0
H412 H 0.03093 0.1225 0.80244 0.0
H413 H 0.28861 0.20296 0.78657 0.0
H414 H 0.25894 0.18846 0.82836 0.0
H415 H 0.22046 0.23127 0.8109 0.0
C416 C 0.09277 0.13626 0.89795 0.0
C417 C 0.07242 0.17333 0.9136 0.0
C418 C 0.11722 0.13217 0.86355 0.0
C419 C 0.12118 0.16501 0.84401 0.0
C420 C 0.10631 0.20254 0.86048 0.0
H421 H 0.06518 0.20665 0.63042 0.0
H422 H 0.10085 0.21013 0.69203 0.0
C423 C 0.08248 0.20671 0.89518 0.0
C424 C 0.12664 0.15892 0.80539 0.0
H425 H 0.21849 0.18606 0.73428 0.0
C426 C 0.07281 0.13581 0.78759 0.0
C427 C 0.18064 0.17677 0.78607 0.0
C428 C 0.24087 0.20098 0.80393 0.0
C429 C 0.06985 0.13102 0.75104 0.0
C430 C 0.12337 0.14912 0.73155 0.0
C431 C 0.17807 0.17183 0.74928 0.0
C432 C 0.11837 0.14751 0.69288 0.0
C433 C 0.00714 0.1082 0.73365 0.0
C434 C 0.11959 0.11132 0.6725 0.0
C435 C 0.09813 0.10916 0.63732 0.0
C436 C 0.07646 0.14326 0.62187 0.0
C437 C 0.08123 0.17981 0.64165 0.0
C438 C 0.10207 0.18191 0.67682 0.0
H439 H 0.96267 0.10347 0.75227 0.0
H440 H -0.01594 0.12372 0.71176 0.0
H441 H 0.02697 0.07893 0.72286 0.0
H442 H 0.13272 0.08445 0.68435 0.0
H443 H 0.09363 0.08055 0.62308 0.0
H444 H 0.6954 0.58903 0.39875 0.0
H445 H 0.69872 0.60955 0.33939 0.0
H446 H 0.49483 0.67123 0.35664 0.0
H447 H 0.49127 0.65091 0.41626 0.0
H448 H 0.59449 0.58858 0.28854 0.0
H449 H 0.6193 0.75093 0.31037 0.0
H450 H 0.63801 0.71868 0.34432 0.0
H451 H 0.54556 0.73048 0.3333 0.0
C452 C 0.65202 0.6077 0.39019 0.0
C453 C 0.59319 0.61849 0.41227 0.0
C454 C 0.65386 0.61924 0.3562 0.0
C455 C 0.59708 0.64188 0.34357 0.0
C456 C 0.53977 0.6542 0.36601 0.0
H457 H 0.48509 0.66732 0.12505 0.0
H458 H 0.49192 0.64352 0.18356 0.0
C459 C 0.53795 0.64271 0.40014 0.0
C460 C 0.59579 0.6502 0.30627 0.0
H461 H 0.59559 0.72455 0.25227 0.0
C462 C 0.59491 0.61831 0.28055 0.0
C463 C 0.59674 0.68896 0.29597 0.0
C464 C 0.60061 0.72427 0.32237 0.0
C465 C 0.59477 0.62416 0.24476 0.0
C466 C 0.59455 0.66294 0.23448 0.0
C467 C 0.59552 0.6948 0.26022 0.0
C468 C 0.59511 0.67156 0.19725 0.0
C469 C 0.59637 0.58887 0.2183 0.0
C470 C 0.65153 0.69433 0.18523 0.0
C471 C 0.64759 0.70791 0.15203 0.0
C472 C 0.58722 0.69893 0.13009 0.0
C473 C 0.53285 0.67407 0.14118 0.0
C474 C 0.53662 0.6606 0.17465 0.0
H475 H 0.61439 0.56187 0.23023 0.0
H476 H 0.54075 0.58363 0.20737 0.0
H477 H 0.63325 0.59393 0.19635 0.0
H478 H 0.69726 0.70299 0.20215 0.0
H479 H 0.69022 0.72708 0.14413 0.0
H480 H 0.67253 0.64001 0.61621 0.0
H481 H 0.72457 0.64764 0.67579 0.0
H482 H 0.51169 0.62857 0.7179 0.0
H483 H 0.46085 0.61985 0.65891 0.0
H484 H 0.68461 0.70461 0.729 0.0
H485 H 0.63956 0.55655 0.77185 0.0
H486 H 0.63885 0.56616 0.72629 0.0
H487 H 0.55833 0.57476 0.75243 0.0
C488 C 0.63792 0.63587 0.6382 0.0
C489 C 0.56331 0.62822 0.63302 0.0
C490 C 0.66727 0.64082 0.67219 0.0
C491 C 0.62227 0.63789 0.70131 0.0
C492 C 0.54789 0.62993 0.69591 0.0
H493 H 0.55354 0.74318 0.89922 0.0
H494 H 0.59029 0.73121 0.83833 0.0
C495 C 0.51878 0.62519 0.66219 0.0
C496 C 0.65005 0.64598 0.73764 0.0
H497 H 0.63839 0.61032 0.81762 0.0
C498 C 0.6764 0.6837 0.74835 0.0
C499 C 0.64118 0.6185 0.76281 0.0
C500 C 0.6187 0.57659 0.75266 0.0
C501 C 0.68765 0.6957 0.78395 0.0
C502 C 0.67048 0.66959 0.80943 0.0
C503 C 0.65065 0.63075 0.79835 0.0
C504 C 0.66313 0.6828 0.84723 0.0
C505 C 0.71586 0.73659 0.79385 0.0
C506 C 0.69245 0.66013 0.87294 0.0
C507 C 0.67052 0.66674 0.90779 0.0
C508 C 0.61998 0.69655 0.91761 0.0
C509 C 0.59447 0.72089 0.89245 0.0
C510 C 0.61572 0.71406 0.85758 0.0
H511 H 0.75358 0.74587 0.77364 0.0
H512 H 0.66942 0.75759 0.79543 0.0
H513 H 0.7448 0.73853 0.81945 0.0
H514 H 0.72855 0.63564 0.86566 0.0
H515 H 0.68929 0.64693 0.92661 0.0
loop_
_geom_bond_atom_site_label_1
_geom_bond_atom_site_label_2
_geom_bond_distance
_geom_bond_site_symmetry_2
_ccdc_geom_bond_type
Zn0 O6 1.920 . S
Zn0 O12 1.898 . S
Zn0 O15 1.905 . S
Zn1 O9 1.905 . S
Zn1 O10 1.898 1_655 S
Zn1 O18 1.920 . S
Zn2 O5 2.080 . S
Zn2 O8 2.114 . S
Zn2 O11 2.120 1_554 S
Zn2 O13 2.120 . S
Zn2 O14 2.114 . S
Zn2 O17 2.080 1_455 S
C3 O8 1.166 . S
C3 O9 1.182 1_454 S
C4 O10 1.167 . S
C4 O11 1.299 . S
O5 Zn2 2.080 . S
O5 C19 1.305 1_455 S
O6 Zn0 1.920 . S
O6 C19 1.234 1_455 S
C7 O12 1.167 . S
C7 O13 1.299 . S
O8 Zn2 2.114 . S
O8 C3 1.166 . S
O9 Zn1 1.905 . S
O9 C3 1.182 1_656 S
O10 Zn1 1.898 1_455 S
O10 C4 1.167 . S
O11 Zn2 2.120 1_556 S
O11 C4 1.299 . S
O12 Zn0 1.898 . S
O12 C7 1.167 . S
O13 Zn2 2.120 . S
O13 C7 1.299 . S
O14 Zn2 2.114 . S
O14 C16 1.166 . S
O15 Zn0 1.905 . S
O15 C16 1.182 . S
C16 O14 1.166 . S
C16 O15 1.182 . S
O17 Zn2 2.080 1_655 S
O17 C20 1.305 1_554 S
O18 Zn1 1.920 . S
O18 C20 1.234 . S
C19 O5 1.305 1_655 S
C19 O6 1.234 1_655 S
C20 O17 1.305 1_556 S
C20 O18 1.234 . S
Zn21 O27 1.920 1_545 S
Zn21 O33 1.898 . S
Zn21 O36 1.905 . S
Zn22 O30 1.905 . S
Zn22 O31 1.898 1_655 S
Zn22 O39 1.920 . S
Zn23 O26 2.080 . S
Zn23 O29 2.114 . S
Zn23 O32 2.120 . S
Zn23 O34 2.120 . S
Zn23 O35 2.114 . S
Zn23 O38 2.080 1_455 S
C24 O29 1.166 . S
C24 O30 1.182 1_455 S
C25 O31 1.167 . S
C25 O32 1.299 . S
O26 Zn23 2.080 . S
O26 C40 1.305 1_455 S
O27 Zn21 1.920 1_565 S
O27 C40 1.234 1_465 S
C28 O33 1.167 . S
C28 O34 1.299 . S
O29 Zn23 2.114 . S
O29 C24 1.166 . S
O30 Zn22 1.905 . S
O30 C24 1.182 1_655 S
O31 Zn22 1.898 1_455 S
O31 C25 1.167 . S
O32 Zn23 2.120 . S
O32 C25 1.299 . S
O33 Zn21 1.898 . S
O33 C28 1.167 . S
O34 Zn23 2.120 . S
O34 C28 1.299 . S
O35 Zn23 2.114 . S
O35 C37 1.166 . S
O36 Zn21 1.905 . S
O36 C37 1.182 . S
C37 O35 1.166 . S
C37 O36 1.182 . S
O38 Zn23 2.080 1_655 S
O38 C41 1.305 . S
O39 Zn22 1.920 . S
O39 C41 1.234 . S
C40 O26 1.305 1_655 S
C40 O27 1.234 1_645 S
C41 O38 1.305 . S
C41 O39 1.234 . S
Zn42 O48 1.920 . S
Zn42 O54 1.898 . S
Zn42 O57 1.905 . S
Zn43 O51 1.905 . S
Zn43 O52 1.898 . S
Zn43 O60 1.920 . S
Zn44 O47 2.080 . S
Zn44 O50 2.114 . S
Zn44 O53 2.120 1_554 S
Zn44 O55 2.120 . S
Zn44 O56 2.114 . S
Zn44 O59 2.080 . S
C45 O50 1.166 . S
C45 O51 1.182 1_554 S
C46 O52 1.167 . S
C46 O53 1.299 . S
O47 Zn44 2.080 . S
O47 C61 1.305 . S
O48 Zn42 1.920 . S
O48 C61 1.234 . S
C49 O54 1.167 . S
C49 O55 1.299 . S
O50 Zn44 2.114 . S
O50 C45 1.166 . S
O51 Zn43 1.905 . S
O51 C45 1.182 1_556 S
O52 Zn43 1.898 . S
O52 C46 1.167 . S
O53 Zn44 2.120 1_556 S
O53 C46 1.299 . S
O54 Zn42 1.898 . S
O54 C49 1.167 . S
O55 Zn44 2.120 . S
O55 C49 1.299 . S
O56 Zn44 2.114 . S
O56 C58 1.166 . S
O57 Zn42 1.905 . S
O57 C58 1.182 . S
C58 O56 1.166 . S
C58 O57 1.182 . S
O59 Zn44 2.080 . S
O59 C62 1.305 1_554 S
O60 Zn43 1.920 . S
O60 C62 1.234 . S
C61 O47 1.305 . S
C61 O48 1.234 . S
C62 O59 1.305 1_556 S
C62 O60 1.234 . S
Zn63 O69 1.920 . S
Zn63 O75 1.898 . S
Zn63 O78 1.905 . S
Zn64 O72 1.905 . S
Zn64 O73 1.898 . S
Zn64 O81 1.920 . S
Zn65 O68 2.080 . S
Zn65 O71 2.114 . S
Zn65 O74 2.120 . S
Zn65 O76 2.120 . S
Zn65 O77 2.114 . S
Zn65 O80 2.080 . S
C66 O71 1.166 . S
C66 O72 1.182 . S
C67 O73 1.167 . S
C67 O74 1.299 . S
O68 Zn65 2.080 . S
O68 C82 1.305 . S
O69 Zn63 1.920 . S
O69 C82 1.234 . S
C70 O75 1.167 . S
C70 O76 1.299 . S
O71 Zn65 2.114 . S
O71 C66 1.166 . S
O72 Zn64 1.905 . S
O72 C66 1.182 . S
O73 Zn64 1.898 . S
O73 C67 1.167 . S
O74 Zn65 2.120 . S
O74 C67 1.299 . S
O75 Zn63 1.898 . S
O75 C70 1.167 . S
O76 Zn65 2.120 . S
O76 C70 1.299 . S
O77 Zn65 2.114 . S
O77 C79 1.166 . S
O78 Zn63 1.905 . S
O78 C79 1.182 . S
C79 O77 1.166 . S
C79 O78 1.182 . S
O80 Zn65 2.080 . S
O80 C83 1.305 . S
O81 Zn64 1.920 . S
O81 C83 1.234 . S
C82 O68 1.305 . S
C82 O69 1.234 . S
C83 O80 1.305 . S
C83 O81 1.234 . S
H84 C92 0.929 . S
H85 C94 0.930 . S
H86 C96 0.930 . S
H87 C99 0.929 . S
H88 C102 0.930 . S
H89 C104 0.960 . S
H90 C104 0.960 . S
H91 C104 0.960 . S
C92 H84 0.929 . S
C92 C93 1.377 . S
C92 C94 1.384 . S
C93 C92 1.377 . S
C93 C99 1.390 . S
C94 H85 0.930 . S
C94 C92 1.384 . S
C94 C95 1.372 . S
C95 C94 1.372 . S
C95 C96 1.400 . S
C95 C100 1.490 . S
C96 H86 0.930 . S
C96 C95 1.400 . S
C96 C99 1.386 . S
H97 C113 0.930 . S
H98 C114 0.931 . S
C99 H87 0.929 . S
C99 C93 1.390 . S
C99 C96 1.386 . S
C100 C95 1.490 . S
C100 C102 1.395 . S
C100 C103 1.403 1_554 S
H101 C107 0.930 . S
C102 H88 0.930 . S
C102 C100 1.395 . S
C102 C105 1.403 . S
C103 C100 1.403 1_556 S
C103 C104 1.524 . S
C103 C107 1.400 . S
C104 H89 0.960 . S
C104 H90 0.960 . S
C104 H91 0.960 . S
C104 C103 1.524 . S
C105 C102 1.403 . S
C105 C106 1.392 . S
C105 C109 1.495 . S
C106 C105 1.392 . S
C106 C107 1.385 1_554 S
C106 C108 1.452 1_565 S
C107 H101 0.930 . S
C107 C103 1.400 . S
C107 C106 1.385 1_556 S
C108 C106 1.452 1_545 S
C108 C110 1.381 . S
C108 C114 1.409 . S
C109 C105 1.495 . S
C109 H115 0.959 . S
C109 H116 0.961 . S
C109 H117 0.960 . S
C110 C108 1.381 . S
C110 C111 1.420 . S
C110 H118 0.905 1_545 S
C111 C110 1.420 . S
C111 C112 1.383 . S
C111 H119 0.929 1_455 S
C112 C111 1.383 . S
C112 C113 1.377 . S
C113 H97 0.930 . S
C113 C112 1.377 . S
C113 C114 1.379 . S
C114 H98 0.931 . S
C114 C108 1.409 . S
C114 C113 1.379 . S
H115 C109 0.959 . S
H116 C109 0.961 . S
H117 C109 0.960 . S
H118 C110 0.905 1_565 S
H119 C111 0.929 1_655 S
H120 C128 0.929 . S
H121 C130 0.930 . S
H122 C132 0.930 . S
H123 C135 0.929 . S
H124 C138 0.930 . S
H125 C140 0.960 . S
H126 C140 0.960 . S
H127 C140 0.960 . S
C128 H120 0.929 . S
C128 C129 1.377 1_556 S
C128 C130 1.384 . S
C129 C128 1.377 1_554 S
C129 C135 1.390 . S
C130 H121 0.930 . S
C130 C128 1.384 . S
C130 C131 1.372 1_556 S
C131 C130 1.372 1_554 S
C131 C132 1.400 . S
C131 C136 1.490 . S
C132 H122 0.930 . S
C132 C131 1.400 . S
C132 C135 1.386 . S
H133 C149 0.930 . S
H134 C150 0.931 . S
C135 H123 0.929 . S
C135 C129 1.390 . S
C135 C132 1.386 . S
C136 C131 1.490 . S
C136 C138 1.395 1_554 S
C136 C139 1.403 . S
H137 C143 0.930 . S
C138 H124 0.930 . S
C138 C136 1.395 1_556 S
C138 C141 1.403 . S
C139 C136 1.403 . S
C139 C140 1.524 . S
C139 C143 1.400 . S
C140 H125 0.960 . S
C140 H126 0.960 . S
C140 H127 0.960 . S
C140 C139 1.524 . S
C141 C138 1.403 . S
C141 C142 1.392 1_556 S
C141 C145 1.495 . S
C142 C141 1.392 1_554 S
C142 C143 1.385 . S
C142 C144 1.478 . S
C143 H137 0.930 . S
C143 C139 1.400 . S
C143 C142 1.385 . S
C144 C142 1.478 . S
C144 C146 1.381 1_554 S
C144 C150 1.383 . S
C145 C141 1.495 . S
C145 H151 0.959 . S
C145 H152 0.961 . S
C145 H153 0.960 . S
C146 C144 1.381 1_556 S
C146 C147 1.394 . S
C146 H154 0.930 . S
C147 C146 1.394 . S
C147 C148 1.383 1_556 S
C147 H155 0.929 . S
C148 C147 1.383 1_554 S
C148 C149 1.377 . S
C149 H133 0.930 . S
C149 C148 1.377 . S
C149 C150 1.379 . S
C150 H134 0.931 . S
C150 C144 1.383 . S
C150 C149 1.379 . S
H151 C145 0.959 . S
H152 C145 0.961 . S
H153 C145 0.960 . S
H154 C146 0.930 . S
H155 C147 0.929 . S
H156 C164 0.929 . S
H157 C166 0.930 . S
H158 C168 0.930 . S
H159 C171 0.929 . S
H160 C174 0.930 . S
H161 C176 0.960 . S
H162 C176 0.960 . S
H163 C176 0.960 . S
C164 H156 0.929 . S
C164 C165 1.377 . S
C164 C166 1.384 . S
C165 C164 1.377 . S
C165 C171 1.390 . S
C166 H157 0.930 . S
C166 C164 1.384 . S
C166 C167 1.372 . S
C167 C166 1.372 . S
C167 C168 1.400 . S
C167 C172 1.490 . S
C168 H158 0.930 . S
C168 C167 1.400 . S
C168 C171 1.386 . S
H169 C185 0.930 . S
H170 C186 0.931 . S
C171 H159 0.929 . S
C171 C165 1.390 . S
C171 C168 1.386 . S
C172 C167 1.490 . S
C172 C174 1.395 . S
C172 C175 1.403 . S
H173 C179 0.930 . S
C174 H160 0.930 . S
C174 C172 1.395 . S
C174 C177 1.403 . S
C175 C172 1.403 . S
C175 C176 1.524 . S
C175 C179 1.400 . S
C176 H161 0.960 . S
C176 H162 0.960 . S
C176 H163 0.960 . S
C176 C175 1.524 . S
C177 C174 1.403 . S
C177 C178 1.392 . S
C177 C181 1.495 . S
C178 C177 1.392 . S
C178 C179 1.385 . S
C178 C180 1.478 . S
C179 H173 0.930 . S
C179 C175 1.400 . S
C179 C178 1.385 . S
C180 C178 1.478 . S
C180 C182 1.381 . S
C180 C186 1.383 . S
C181 C177 1.495 . S
C181 H187 0.959 . S
C181 H188 0.961 . S
C181 H189 0.960 . S
C182 C180 1.381 . S
C182 C183 1.394 . S
C182 H190 0.930 . S
C183 C182 1.394 . S
C183 C184 1.383 . S
C183 H191 0.929 . S
C184 C183 1.383 . S
C184 C185 1.377 . S
C185 H169 0.930 . S
C185 C184 1.377 . S
C185 C186 1.379 . S
C186 H170 0.931 . S
C186 C180 1.383 . S
C186 C185 1.379 . S
H187 C181 0.959 . S
H188 C181 0.961 . S
H189 C181 0.960 . S
H190 C182 0.930 . S
H191 C183 0.929 . S
H192 C200 0.929 . S
H193 C202 0.930 . S
H194 C204 0.930 . S
H195 C207 0.929 . S
H196 C210 0.930 . S
H197 C212 0.960 . S
H198 C212 0.960 . S
H199 C212 0.960 . S
C200 H192 0.929 . S
C200 C201 1.377 . S
C200 C202 1.384 . S
C201 C200 1.377 . S
C201 C207 1.390 . S
C202 H193 0.930 . S
C202 C200 1.384 . S
C202 C203 1.372 . S
C203 C202 1.372 . S
C203 C204 1.400 . S
C203 C208 1.490 . S
C204 H194 0.930 . S
C204 C203 1.400 . S
C204 C207 1.386 . S
H205 C221 0.930 . S
H206 C222 0.931 . S
C207 H195 0.929 . S
C207 C201 1.390 . S
C207 C204 1.386 . S
C208 C203 1.490 . S
C208 C210 1.395 . S
C208 C211 1.403 . S
H209 C215 0.930 . S
C210 H196 0.930 . S
C210 C208 1.395 . S
C210 C213 1.403 . S
C211 C208 1.403 . S
C211 C212 1.524 . S
C211 C215 1.400 . S
C212 H197 0.960 . S
C212 H198 0.960 . S
C212 H199 0.960 . S
C212 C211 1.524 . S
C213 C210 1.403 . S
C213 C214 1.392 . S
C213 C217 1.495 . S
C214 C213 1.392 . S
C214 C215 1.385 . S
C214 C216 1.478 . S
C215 H209 0.930 . S
C215 C211 1.400 . S
C215 C214 1.385 . S
C216 C214 1.478 . S
C216 C218 1.381 . S
C216 C222 1.383 . S
C217 C213 1.495 . S
C217 H223 0.959 . S
C217 H224 0.961 . S
C217 H225 0.960 . S
C218 C216 1.381 . S
C218 C219 1.394 . S
C218 H226 0.930 . S
C219 C218 1.394 . S
C219 C220 1.383 . S
C219 H227 0.929 . S
C220 C219 1.383 . S
C220 C221 1.377 . S
C221 H205 0.930 . S
C221 C220 1.377 . S
C221 C222 1.379 . S
C222 H206 0.931 . S
C222 C216 1.383 . S
C222 C221 1.379 . S
H223 C217 0.959 . S
H224 C217 0.961 . S
H225 C217 0.960 . S
H226 C218 0.930 . S
H227 C219 0.929 . S
H228 C236 0.929 . S
H229 C238 0.930 . S
H230 C240 0.930 . S
H231 C243 0.929 . S
H232 C246 0.930 . S
H233 C248 0.960 . S
H234 C248 0.960 . S
H235 C248 0.960 . S
C236 H228 0.929 . S
C236 C237 1.377 1_554 S
C236 C238 1.384 . S
C237 C236 1.377 1_556 S
C237 C243 1.390 . S
C238 H229 0.930 . S
C238 C236 1.384 . S
C238 C239 1.372 1_554 S
C239 C238 1.372 1_556 S
C239 C240 1.400 . S
C239 C244 1.490 . S
C240 H230 0.930 . S
C240 C239 1.400 . S
C240 C243 1.386 . S
H241 C257 0.930 . S
H242 C258 0.931 . S
C243 H231 0.929 . S
C243 C237 1.390 . S
C243 C240 1.386 . S
C244 C239 1.490 . S
C244 C246 1.395 1_556 S
C244 C247 1.403 . S
H245 C251 0.930 . S
C246 H232 0.930 . S
C246 C244 1.395 1_554 S
C246 C249 1.403 . S
C247 C244 1.403 . S
C247 C248 1.524 . S
C247 C251 1.400 . S
C248 H233 0.960 . S
C248 H234 0.960 . S
C248 H235 0.960 . S
C248 C247 1.524 . S
C249 C246 1.403 . S
C249 C250 1.369 1_554 S
C249 C253 1.495 . S
C250 C249 1.369 1_556 S
C250 C251 1.411 . S
C250 C252 1.477 . S
C251 H245 0.930 . S
C251 C247 1.400 . S
C251 C250 1.411 . S
C252 C250 1.477 . S
C252 C254 1.376 1_556 S
C252 C258 1.388 . S
C253 C249 1.495 . S
C253 H259 0.959 . S
C253 H260 0.961 . S
C253 H261 0.960 . S
C254 C252 1.376 1_554 S
C254 C255 1.394 . S
C254 H262 0.930 . S
C255 C254 1.394 . S
C255 C256 1.383 1_554 S
C255 H263 0.929 . S
C256 C255 1.383 1_556 S
C256 C257 1.377 . S
C257 H241 0.930 . S
C257 C256 1.377 . S
C257 C258 1.379 . S
C258 H242 0.931 . S
C258 C252 1.388 . S
C258 C257 1.379 . S
H259 C253 0.959 . S
H260 C253 0.961 . S
H261 C253 0.960 . S
H262 C254 0.930 . S
H263 C255 0.929 . S
H264 C272 0.929 . S
H265 C274 0.930 . S
H266 C276 0.930 . S
H267 C279 0.929 . S
H268 C282 0.930 . S
H269 C284 0.960 1_565 S
H270 C284 0.960 . S
H271 C284 0.960 1_565 S
C272 H264 0.929 . S
C272 C273 1.377 . S
C272 C274 1.384 . S
C273 C272 1.377 . S
C273 C279 1.390 . S
C274 H265 0.930 . S
C274 C272 1.384 . S
C274 C275 1.372 . S
C275 C274 1.372 . S
C275 C276 1.400 . S
C275 C280 1.490 . S
C276 H266 0.930 . S
C276 C275 1.400 . S
C276 C279 1.386 . S
H277 C293 0.930 . S
H278 C294 0.931 . S
C279 H267 0.929 . S
C279 C273 1.390 . S
C279 C276 1.386 . S
C280 C275 1.490 . S
C280 C282 1.395 . S
C280 C283 1.403 . S
H281 C287 0.930 . S
C282 H268 0.930 . S
C282 C280 1.395 . S
C282 C285 1.403 . S
C283 C280 1.403 . S
C283 C284 1.524 . S
C283 C287 1.400 . S
C284 H269 0.960 1_545 S
C284 H270 0.960 . S
C284 H271 0.960 1_545 S
C284 C283 1.524 . S
C285 C282 1.403 . S
C285 C286 1.392 . S
C285 C289 1.495 . S
C286 C285 1.392 . S
C286 C287 1.385 . S
C286 C288 1.478 . S
C287 H281 0.930 . S
C287 C283 1.400 . S
C287 C286 1.385 . S
C288 C286 1.478 . S
C288 C290 1.381 . S
C288 C294 1.383 . S
C289 C285 1.495 . S
C289 H295 0.959 . S
C289 H296 0.961 . S
C289 H297 0.960 . S
C290 C288 1.381 . S
C290 C291 1.394 . S
C290 H298 0.930 . S
C291 C290 1.394 . S
C291 C292 1.383 . S
C291 H299 0.929 . S
C292 C291 1.383 . S
C292 C293 1.377 . S
C293 H277 0.930 . S
C293 C292 1.377 . S
C293 C294 1.379 . S
C294 H278 0.931 . S
C294 C288 1.383 . S
C294 C293 1.379 . S
H295 C289 0.959 . S
H296 C289 0.961 . S
H297 C289 0.960 . S
H298 C290 0.930 . S
H299 C291 0.929 . S
H300 C308 0.929 . S
H301 C310 0.930 . S
H302 C312 0.930 . S
H303 C315 0.929 . S
H304 C318 0.930 . S
H305 C320 0.960 1_455 S
H306 C320 0.960 . S
H307 C320 0.960 . S
C308 H300 0.929 . S
C308 C309 1.377 1_554 S
C308 C310 1.384 . S
C309 C308 1.377 1_556 S
C309 C315 1.390 . S
C310 H301 0.930 . S
C310 C308 1.384 . S
C310 C311 1.372 1_554 S
C311 C310 1.372 1_556 S
C311 C312 1.400 . S
C311 C316 1.490 . S
C312 H302 0.930 . S
C312 C311 1.400 . S
C312 C315 1.386 . S
H313 C329 0.930 . S
H314 C330 0.931 . S
C315 H303 0.929 . S
C315 C309 1.390 . S
C315 C312 1.386 . S
C316 C311 1.490 . S
C316 C318 1.395 1_556 S
C316 C319 1.403 . S
H317 C323 0.930 . S
C318 H304 0.930 . S
C318 C316 1.395 1_554 S
C318 C321 1.403 1_655 S
C319 C316 1.403 . S
C319 C320 1.524 . S
C319 C323 1.400 1_655 S
C320 H305 0.960 1_655 S
C320 H306 0.960 . S
C320 H307 0.960 . S
C320 C319 1.524 . S
C321 C318 1.403 1_455 S
C321 C322 1.392 1_554 S
C321 C325 1.495 . S
C322 C321 1.392 1_556 S
C322 C323 1.385 . S
C322 C324 1.478 . S
C323 H317 0.930 . S
C323 C319 1.400 1_455 S
C323 C322 1.385 . S
C324 C322 1.478 . S
C324 C326 1.381 1_556 S
C324 C330 1.383 . S
C325 C321 1.495 . S
C325 H331 0.959 . S
C325 H332 0.961 1_554 S
C325 H333 0.960 . S
C326 C324 1.381 1_554 S
C326 C327 1.394 . S
C326 H334 0.930 . S
C327 C326 1.394 . S
C327 C328 1.383 1_554 S
C327 H335 0.929 . S
C328 C327 1.383 1_556 S
C328 C329 1.377 . S
C329 H313 0.930 . S
C329 C328 1.377 . S
C329 C330 1.379 . S
C330 H314 0.931 . S
C330 C324 1.383 . S
C330 C329 1.379 . S
H331 C325 0.959 . S
H332 C325 0.961 1_556 S
H333 C325 0.960 . S
H334 C326 0.930 . S
H335 C327 0.929 . S
H336 C344 0.929 . S
H337 C346 0.930 . S
H338 C348 0.930 . S
H339 C351 0.929 . S
H340 C354 0.930 . S
H341 C356 0.960 . S
H342 C356 0.960 . S
H343 C356 0.960 . S
C344 H336 0.929 . S
C344 C345 1.377 . S
C344 C346 1.384 . S
C345 C344 1.377 . S
C345 C351 1.390 . S
C346 H337 0.930 . S
C346 C344 1.384 . S
C346 C347 1.372 . S
C347 C346 1.372 . S
C347 C348 1.400 . S
C347 C352 1.490 . S
C348 H338 0.930 . S
C348 C347 1.400 . S
C348 C351 1.386 . S
H349 C365 0.930 . S
H350 C366 0.931 . S
C351 H339 0.929 . S
C351 C345 1.390 . S
C351 C348 1.386 . S
C352 C347 1.490 . S
C352 C354 1.395 . S
C352 C355 1.403 . S
H353 C359 0.930 . S
C354 H340 0.930 . S
C354 C352 1.395 . S
C354 C357 1.403 1_455 S
C355 C352 1.403 . S
C355 C356 1.524 . S
C355 C359 1.400 1_455 S
C356 H341 0.960 . S
C356 H342 0.960 . S
C356 H343 0.960 . S
C356 C355 1.524 . S
C357 C354 1.403 1_655 S
C357 C358 1.392 . S
C357 C361 1.495 . S
C358 C357 1.392 . S
C358 C359 1.385 . S
C358 C360 1.478 . S
C359 H353 0.930 . S
C359 C355 1.400 1_655 S
C359 C358 1.385 . S
C360 C358 1.478 . S
C360 C362 1.381 . S
C360 C366 1.383 . S
C361 C357 1.495 . S
C361 H367 0.959 . S
C361 H368 0.961 . S
C361 H369 0.960 . S
C362 C360 1.381 . S
C362 C363 1.394 . S
C362 H370 0.930 . S
C363 C362 1.394 . S
C363 C364 1.383 . S
C363 H371 0.929 . S
C364 C363 1.383 . S
C364 C365 1.377 . S
C365 H349 0.930 . S
C365 C364 1.377 . S
C365 C366 1.379 . S
C366 H350 0.931 . S
C366 C360 1.383 . S
C366 C365 1.379 . S
H367 C361 0.959 . S
H368 C361 0.961 . S
H369 C361 0.960 . S
H370 C362 0.930 . S
H371 C363 0.929 . S
H372 C380 0.929 . S
H373 C382 0.930 . S
H374 C384 0.930 1_655 S
H375 C387 0.929 1_655 S
H376 C390 0.930 . S
H377 C392 0.960 . S
H378 C392 0.960 . S
H379 C392 0.960 . S
C380 H372 0.929 . S
C380 C381 1.377 . S
C380 C382 1.384 . S
C381 C380 1.377 . S
C381 C387 1.390 . S
C382 H373 0.930 . S
C382 C380 1.384 . S
C382 C383 1.372 . S
C383 C382 1.372 . S
C383 C384 1.400 . S
C383 C388 1.490 . S
C384 H374 0.930 1_455 S
C384 C383 1.400 . S
C384 C387 1.386 . S
H385 C401 0.930 1_655 S
H386 C402 0.931 1_655 S
C387 H375 0.929 1_455 S
C387 C381 1.390 . S
C387 C384 1.386 . S
C388 C383 1.490 . S
C388 C390 1.395 . S
C388 C391 1.403 . S
H389 C395 0.930 . S
C390 H376 0.930 . S
C390 C388 1.395 . S
C390 C393 1.403 . S
C391 C388 1.403 . S
C391 C392 1.524 . S
C391 C395 1.400 . S
C392 H377 0.960 . S
C392 H378 0.960 . S
C392 H379 0.960 . S
C392 C391 1.524 . S
C393 C390 1.403 . S
C393 C394 1.392 . S
C393 C397 1.495 . S
C394 C393 1.392 . S
C394 C395 1.385 . S
C394 C396 1.478 . S
C395 H389 0.930 . S
C395 C391 1.400 . S
C395 C394 1.385 . S
C396 C394 1.478 . S
C396 C398 1.381 . S
C396 C402 1.383 . S
C397 C393 1.495 . S
C397 H403 0.959 . S
C397 H404 0.961 . S
C397 H405 0.960 . S
C398 C396 1.381 . S
C398 C399 1.394 . S
C398 H406 0.930 . S
C399 C398 1.394 . S
C399 C400 1.383 . S
C399 H407 0.929 . S
C400 C399 1.383 . S
C400 C401 1.377 . S
C401 H385 0.930 1_455 S
C401 C400 1.377 . S
C401 C402 1.379 . S
C402 H386 0.931 1_455 S
C402 C396 1.383 . S
C402 C401 1.379 . S
H403 C397 0.959 . S
H404 C397 0.961 . S
H405 C397 0.960 . S
H406 C398 0.930 . S
H407 C399 0.929 . S
H408 C416 0.929 . S
H409 C418 0.930 . S
H410 C420 0.930 1_655 S
H411 C423 0.929 1_655 S
H412 C426 0.930 . S
H413 C428 0.960 . S
H414 C428 0.960 . S
H415 C428 0.960 . S
C416 H408 0.929 . S
C416 C417 1.377 . S
C416 C418 1.384 . S
C417 C416 1.377 . S
C417 C423 1.390 . S
C418 H409 0.930 . S
C418 C416 1.384 . S
C418 C419 1.372 . S
C419 C418 1.372 . S
C419 C420 1.400 . S
C419 C424 1.490 . S
C420 H410 0.930 1_455 S
C420 C419 1.400 . S
C420 C423 1.386 . S
H421 C437 0.930 1_655 S
H422 C438 0.931 1_655 S
C423 H411 0.929 1_455 S
C423 C417 1.390 . S
C423 C420 1.386 . S
C424 C419 1.490 . S
C424 C426 1.395 . S
C424 C427 1.403 . S
H425 C431 0.930 . S
C426 H412 0.930 . S
C426 C424 1.395 . S
C426 C429 1.403 . S
C427 C424 1.403 . S
C427 C428 1.524 . S
C427 C431 1.400 . S
C428 H413 0.960 . S
C428 H414 0.960 . S
C428 H415 0.960 . S
C428 C427 1.524 . S
C429 C426 1.403 . S
C429 C430 1.392 . S
C429 C433 1.495 . S
C430 C429 1.392 . S
C430 C431 1.385 . S
C430 C432 1.478 . S
C431 H425 0.930 . S
C431 C427 1.400 . S
C431 C430 1.385 . S
C432 C430 1.478 . S
C432 C434 1.381 . S
C432 C438 1.383 . S
C433 C429 1.495 . S
C433 H439 0.959 . S
C433 H440 0.961 . S
C433 H441 0.960 . S
C434 C432 1.381 . S
C434 C435 1.394 . S
C434 H442 0.930 . S
C435 C434 1.394 . S
C435 C436 1.383 . S
C435 H443 0.929 . S
C436 C435 1.383 . S
C436 C437 1.377 . S
C437 H421 0.930 1_455 S
C437 C436 1.377 . S
C437 C438 1.379 . S
C438 H422 0.931 1_455 S
C438 C432 1.383 . S
C438 C437 1.379 . S
H439 C433 0.959 . S
H440 C433 0.961 . S
H441 C433 0.960 . S
H442 C434 0.930 . S
H443 C435 0.929 . S
H444 C452 0.929 . S
H445 C454 0.930 . S
H446 C456 0.930 . S
H447 C459 0.929 . S
H448 C462 0.930 . S
H449 C464 0.960 . S
H450 C464 0.960 . S
H451 C464 0.960 . S
C452 H444 0.929 . S
C452 C453 1.377 . S
C452 C454 1.384 . S
C453 C452 1.377 . S
C453 C459 1.390 . S
C454 H445 0.930 . S
C454 C452 1.384 . S
C454 C455 1.372 . S
C455 C454 1.372 . S
C455 C456 1.400 . S
C455 C460 1.490 . S
C456 H446 0.930 . S
C456 C455 1.400 . S
C456 C459 1.386 . S
H457 C473 0.930 . S
H458 C474 0.931 . S
C459 H447 0.929 . S
C459 C453 1.390 . S
C459 C456 1.386 . S
C460 C455 1.490 . S
C460 C462 1.395 . S
C460 C463 1.403 . S
H461 C467 0.930 . S
C462 H448 0.930 . S
C462 C460 1.395 . S
C462 C465 1.403 . S
C463 C460 1.403 . S
C463 C464 1.524 . S
C463 C467 1.400 . S
C464 H449 0.960 . S
C464 H450 0.960 . S
C464 H451 0.960 . S
C464 C463 1.524 . S
C465 C462 1.403 . S
C465 C466 1.392 . S
C465 C469 1.495 . S
C466 C465 1.392 . S
C466 C467 1.385 . S
C466 C468 1.478 . S
C467 H461 0.930 . S
C467 C463 1.400 . S
C467 C466 1.385 . S
C468 C466 1.478 . S
C468 C470 1.381 . S
C468 C474 1.383 . S
C469 C465 1.495 . S
C469 H475 0.959 . S
C469 H476 0.961 . S
C469 H477 0.960 . S
C470 C468 1.381 . S
C470 C471 1.394 . S
C470 H478 0.930 . S
C471 C470 1.394 . S
C471 C472 1.383 . S
C471 H479 0.929 . S
C472 C471 1.383 . S
C472 C473 1.377 . S
C473 H457 0.930 . S
C473 C472 1.377 . S
C473 C474 1.379 . S
C474 H458 0.931 . S
C474 C468 1.383 . S
C474 C473 1.379 . S
H475 C469 0.959 . S
H476 C469 0.961 . S
H477 C469 0.960 . S
H478 C470 0.930 . S
H479 C471 0.929 . S
H480 C488 0.929 . S
H481 C490 0.930 . S
H482 C492 0.930 . S
H483 C495 0.929 . S
H484 C498 0.930 . S
H485 C500 0.960 . S
H486 C500 0.960 . S
H487 C500 0.960 . S
C488 H480 0.929 . S
C488 C489 1.377 . S
C488 C490 1.384 . S
C489 C488 1.377 . S
C489 C495 1.390 . S
C490 H481 0.930 . S
C490 C488 1.384 . S
C490 C491 1.372 . S
C491 C490 1.372 . S
C491 C492 1.400 . S
C491 C496 1.490 . S
C492 H482 0.930 . S
C492 C491 1.400 . S
C492 C495 1.386 . S
H493 C509 0.930 . S
H494 C510 0.931 . S
C495 H483 0.929 . S
C495 C489 1.390 . S
C495 C492 1.386 . S
C496 C491 1.490 . S
C496 C498 1.395 . S
C496 C499 1.403 . S
H497 C503 0.930 . S
C498 H484 0.930 . S
C498 C496 1.395 . S
C498 C501 1.403 . S
C499 C496 1.403 . S
C499 C500 1.524 . S
C499 C503 1.400 . S
C500 H485 0.960 . S
C500 H486 0.960 . S
C500 H487 0.960 . S
C500 C499 1.524 . S
C501 C498 1.403 . S
C501 C502 1.392 . S
C501 C505 1.495 . S
C502 C501 1.392 . S
C502 C503 1.385 . S
C502 C504 1.478 . S
C503 H497 0.930 . S
C503 C499 1.400 . S
C503 C502 1.385 . S
C504 C502 1.478 . S
C504 C506 1.381 . S
C504 C510 1.383 . S
C505 C501 1.495 . S
C505 H511 0.959 . S
C505 H512 0.961 . S
C505 H513 0.960 . S
C506 C504 1.381 . S
C506 C507 1.394 . S
C506 H514 0.930 . S
C507 C506 1.394 . S
C507 C508 1.383 . S
C507 H515 0.929 . S
C508 C507 1.383 . S
C508 C509 1.377 . S
C509 H493 0.930 . S
C509 C508 1.377 . S
C509 C510 1.379 . S
C510 H494 0.931 . S
C510 C504 1.383 . S
C510 C509 1.379 . S
H511 C505 0.959 . S
H512 C505 0.961 . S
H513 C505 0.960 . S
H514 C506 0.930 . S
H515 C507 0.929 . S
C93 C61 1.509 . S
C112 C3 1.484 . S
C129 C45 1.447 . S
C148 C19 1.490 . S
C165 C24 1.444 . S
C184 C82 1.474 . S
C201 C40 1.502 1_565 S
C220 C66 1.448 . S
C237 C16 0.557 1_556 S
C256 C20 0.520 . S
C273 C37 0.531 . S
C292 C41 0.375 . S
C309 C58 0.534 1_556 S
C328 C62 0.415 . S
C345 C83 0.486 . S
C364 C79 0.647 . S
C381 C28 1.414 . S
C400 C7 1.446 . S
C417 C4 1.328 . S
C436 C25 1.347 . S
C453 C70 1.417 . S
C472 C49 1.441 . S
C489 C67 1.328 . S
C508 C46 1.354 . S
