# Generated by pormake.
# Topology sxi, (6)-cn, num edge types: 1
# Building blocks:
#     Node 0, Type 0, BuildingBlock: IZENUY_clean_sbu_0, # of connection points: 6
#     Node 1, Type 0, BuildingBlock: IZENUY_clean_sbu_0, # of connection points: 6
#     Node 2, Type 0, BuildingBlock: IZENUY_clean_sbu_0, # of connection points: 6
#     Node 3, Type 0, BuildingBlock: IZENUY_clean_sbu_0, # of connection points: 6
#     Node 4, Type 0, BuildingBlock: IZENUY_clean_sbu_0, # of connection points: 6
#     Node 5, Type 0, BuildingBlock: IZENUY_clean_sbu_0, # of connection points: 6
#     Node 6, Type 0, BuildingBlock: IZENUY_clean_sbu_0, # of connection points: 6
#     Node 7, Type 0, BuildingBlock: IZENUY_clean_sbu_0, # of connection points: 6
#     Node 8, Type 0, BuildingBlock: IZENUY_clean_sbu_0, # of connection points: 6
#     Node 9, Type 0, BuildingBlock: IZENUY_clean_sbu_0, # of connection points: 6
#     Node 10, Type 0, BuildingBlock: IZENUY_clean_sbu_0, # of connection points: 6
#     Node 11, Type 0, BuildingBlock: IZENUY_clean_sbu_0, # of connection points: 6
#     Node 12, Type 0, BuildingBlock: IZENUY_clean_sbu_0, # of connection points: 6
#     Node 13, Type 0, BuildingBlock: IZENUY_clean_sbu_0, # of connection points: 6
#     Node 14, Type 0, BuildingBlock: IZENUY_clean_sbu_0, # of connection points: 6
#     Node 15, Type 0, BuildingBlock: IZENUY_clean_sbu_0, # of connection points: 6
#     Node 16, Type 0, BuildingBlock: IZENUY_clean_sbu_0, # of connection points: 6
#     Node 17, Type 0, BuildingBlock: IZENUY_clean_sbu_0, # of connection points: 6
#     Node 18, Type 0, BuildingBlock: IZENUY_clean_sbu_0, # of connection points: 6
#     Node 19, Type 0, BuildingBlock: IZENUY_clean_sbu_0, # of connection points: 6
#     Node 20, Type 0, BuildingBlock: IZENUY_clean_sbu_0, # of connection points: 6
#     Node 21, Type 0, BuildingBlock: IZENUY_clean_sbu_0, # of connection points: 6
#     Node 22, Type 0, BuildingBlock: IZENUY_clean_sbu_0, # of connection points: 6
#     Node 23, Type 0, BuildingBlock: IZENUY_clean_sbu_0, # of connection points: 6
#     Edge 24, Type (0, 0), BuildingBlock: OJICUG_clean_linker_0, # of connection points: 2
#     Edge 25, Type (0, 0), BuildingBlock: OJICUG_clean_linker_0, # of connection points: 2
#     Edge 26, Type (0, 0), BuildingBlock: OJICUG_clean_linker_0, # of connection points: 2
#     Edge 27, Type (0, 0), BuildingBlock: OJICUG_clean_linker_0, # of connection points: 2
#     Edge 28, Type (0, 0), BuildingBlock: OJICUG_clean_linker_0, # of connection points: 2
#     Edge 29, Type (0, 0), BuildingBlock: OJICUG_clean_linker_0, # of connection points: 2
#     Edge 30, Type (0, 0), BuildingBlock: OJICUG_clean_linker_0, # of connection points: 2
#     Edge 31, Type (0, 0), BuildingBlock: OJICUG_clean_linker_0, # of connection points: 2
#     Edge 32, Type (0, 0), BuildingBlock: OJICUG_clean_linker_0, # of connection points: 2
#     Edge 33, Type (0, 0), BuildingBlock: OJICUG_clean_linker_0, # of connection points: 2
#     Edge 34, Type (0, 0), BuildingBlock: OJICUG_clean_linker_0, # of connection points: 2
#     Edge 35, Type (0, 0), BuildingBlock: OJICUG_clean_linker_0, # of connection points: 2
#     Edge 36, Type (0, 0), BuildingBlock: OJICUG_clean_linker_0, # of connection points: 2
#     Edge 37, Type (0, 0), BuildingBlock: OJICUG_clean_linker_0, # of connection points: 2
#     Edge 38, Type (0, 0), BuildingBlock: OJICUG_clean_linker_0, # of connection points: 2
#     Edge 39, Type (0, 0), BuildingBlock: OJICUG_clean_linker_0, # of connection points: 2
#     Edge 40, Type (0, 0), BuildingBlock: OJICUG_clean_linker_0, # of connection points: 2
#     Edge 41, Type (0, 0), BuildingBlock: OJICUG_clean_linker_0, # of connection points: 2
#     Edge 42, Type (0, 0), BuildingBlock: OJICUG_clean_linker_0, # of connection points: 2
#     Edge 43, Type (0, 0), BuildingBlock: OJICUG_clean_linker_0, # of connection points: 2
#     Edge 44, Type (0, 0), BuildingBlock: OJICUG_clean_linker_0, # of connection points: 2
#     Edge 45, Type (0, 0), BuildingBlock: OJICUG_clean_linker_0, # of connection points: 2
#     Edge 46, Type (0, 0), BuildingBlock: OJICUG_clean_linker_0, # of connection points: 2
#     Edge 47, Type (0, 0), BuildingBlock: OJICUG_clean_linker_0, # of connection points: 2
#     Edge 48, Type (0, 0), BuildingBlock: OJICUG_clean_linker_0, # of connection points: 2
#     Edge 49, Type (0, 0), BuildingBlock: OJICUG_clean_linker_0, # of connection points: 2
#     Edge 50, Type (0, 0), BuildingBlock: OJICUG_clean_linker_0, # of connection points: 2
#     Edge 51, Type (0, 0), BuildingBlock: OJICUG_clean_linker_0, # of connection points: 2
#     Edge 52, Type (0, 0), BuildingBlock: OJICUG_clean_linker_0, # of connection points: 2
#     Edge 53, Type (0, 0), BuildingBlock: OJICUG_clean_linker_0, # of connection points: 2
#     Edge 54, Type (0, 0), BuildingBlock: OJICUG_clean_linker_0, # of connection points: 2
#     Edge 55, Type (0, 0), BuildingBlock: OJICUG_clean_linker_0, # of connection points: 2
#     Edge 56, Type (0, 0), BuildingBlock: OJICUG_clean_linker_0, # of connection points: 2
#     Edge 57, Type (0, 0), BuildingBlock: OJICUG_clean_linker_0, # of connection points: 2
#     Edge 58, Type (0, 0), BuildingBlock: OJICUG_clean_linker_0, # of connection points: 2
#     Edge 59, Type (0, 0), BuildingBlock: OJICUG_clean_linker_0, # of connection points: 2
#     Edge 60, Type (0, 0), BuildingBlock: OJICUG_clean_linker_0, # of connection points: 2
#     Edge 61, Type (0, 0), BuildingBlock: OJICUG_clean_linker_0, # of connection points: 2
#     Edge 62, Type (0, 0), BuildingBlock: OJICUG_clean_linker_0, # of connection points: 2
#     Edge 63, Type (0, 0), BuildingBlock: OJICUG_clean_linker_0, # of connection points: 2
#     Edge 64, Type (0, 0), BuildingBlock: OJICUG_clean_linker_0, # of connection points: 2
#     Edge 65, Type (0, 0), BuildingBlock: OJICUG_clean_linker_0, # of connection points: 2
#     Edge 66, Type (0, 0), BuildingBlock: OJICUG_clean_linker_0, # of connection points: 2
#     Edge 67, Type (0, 0), BuildingBlock: OJICUG_clean_linker_0, # of connection points: 2
#     Edge 68, Type (0, 0), BuildingBlock: OJICUG_clean_linker_0, # of connection points: 2
#     Edge 69, Type (0, 0), BuildingBlock: OJICUG_clean_linker_0, # of connection points: 2
#     Edge 70, Type (0, 0), BuildingBlock: OJICUG_clean_linker_0, # of connection points: 2
#     Edge 71, Type (0, 0), BuildingBlock: OJICUG_clean_linker_0, # of connection points: 2
#     Edge 72, Type (0, 0), BuildingBlock: OJICUG_clean_linker_0, # of connection points: 2
#     Edge 73, Type (0, 0), BuildingBlock: OJICUG_clean_linker_0, # of connection points: 2
#     Edge 74, Type (0, 0), BuildingBlock: OJICUG_clean_linker_0, # of connection points: 2
#     Edge 75, Type (0, 0), BuildingBlock: OJICUG_clean_linker_0, # of connection points: 2
#     Edge 76, Type (0, 0), BuildingBlock: OJICUG_clean_linker_0, # of connection points: 2
#     Edge 77, Type (0, 0), BuildingBlock: OJICUG_clean_linker_0, # of connection points: 2
#     Edge 78, Type (0, 0), BuildingBlock: OJICUG_clean_linker_0, # of connection points: 2
#     Edge 79, Type (0, 0), BuildingBlock: OJICUG_clean_linker_0, # of connection points: 2
#     Edge 80, Type (0, 0), BuildingBlock: OJICUG_clean_linker_0, # of connection points: 2
#     Edge 81, Type (0, 0), BuildingBlock: OJICUG_clean_linker_0, # of connection points: 2
#     Edge 82, Type (0, 0), BuildingBlock: OJICUG_clean_linker_0, # of connection points: 2
#     Edge 83, Type (0, 0), BuildingBlock: OJICUG_clean_linker_0, # of connection points: 2
#     Edge 84, Type (0, 0), BuildingBlock: OJICUG_clean_linker_0, # of connection points: 2
#     Edge 85, Type (0, 0), BuildingBlock: OJICUG_clean_linker_0, # of connection points: 2
#     Edge 86, Type (0, 0), BuildingBlock: OJICUG_clean_linker_0, # of connection points: 2
#     Edge 87, Type (0, 0), BuildingBlock: OJICUG_clean_linker_0, # of connection points: 2
#     Edge 88, Type (0, 0), BuildingBlock: OJICUG_clean_linker_0, # of connection points: 2
#     Edge 89, Type (0, 0), BuildingBlock: OJICUG_clean_linker_0, # of connection points: 2
#     Edge 90, Type (0, 0), BuildingBlock: OJICUG_clean_linker_0, # of connection points: 2
#     Edge 91, Type (0, 0), BuildingBlock: OJICUG_clean_linker_0, # of connection points: 2
#     Edge 92, Type (0, 0), BuildingBlock: OJICUG_clean_linker_0, # of connection points: 2
#     Edge 93, Type (0, 0), BuildingBlock: OJICUG_clean_linker_0, # of connection points: 2
#     Edge 94, Type (0, 0), BuildingBlock: OJICUG_clean_linker_0, # of connection points: 2
#     Edge 95, Type (0, 0), BuildingBlock: OJICUG_clean_linker_0, # of connection points: 2
# Relax obj value: 0.412
# Max RMSD: 0.250
# Mean RMSD: 0.250
data_MOF--net-sxi--node1-IZENUY_clean_sbu_0--edge1-OJICUG_clean_linker_0
_symmetry_space_group_name_H-M    P1
_symmetry_Int_Tables_number       1
_symmetry_cell_setting            triclinic
loop_
_symmetry_equiv_pos_as_xyz
'x, y, z'
_cell_length_a     34.294958
_cell_length_b     34.370492
_cell_length_c     34.315985
_cell_angle_alpha  90.07583
_cell_angle_beta   89.813198
_cell_angle_gamma 89.876263
loop_
_atom_site_label
_atom_site_type_symbol
_atom_site_fract_x
_atom_site_fract_y
_atom_site_fract_z
_atom_type_partial_charge
Fe0 Fe 1.01729 0.32731 0.42804 0.0
Fe1 Fe 0.09004 0.35353 0.38222 0.0
O2 O 0.04896 0.36433 0.41165 0.0
Fe3 Fe 0.04034 0.41267 0.42583 0.0
O4 O 1.01635 0.40102 0.47273 0.0
O5 O 0.02501 0.33833 0.47917 0.0
O6 O 0.05615 0.29043 0.43324 0.0
C7 C 0.09249 0.29576 0.43786 0.0
C8 C 0.96813 0.39153 0.40964 0.0
O9 O 0.10989 0.3232 0.42055 0.0
C10 C 0.0663 0.42138 0.34713 0.0
O11 O 1.00623 0.31314 0.37872 0.0
O12 O 0.0667 0.30961 0.35815 0.0
O13 O 0.99533 0.41377 0.40021 0.0
O14 O 0.97432 0.35903 0.42616 0.0
C15 C 0.11727 0.41107 0.43594 0.0
O16 O 0.07247 0.38508 0.34224 0.0
O17 O 0.06213 0.43461 0.38154 0.0
C18 C 0.03104 0.29859 0.35605 0.0
O19 O 0.12051 0.39449 0.40265 0.0
O20 O 0.08475 0.41249 0.45236 0.0
C21 C 1.01743 0.37093 0.49399 0.0
Fe22 Fe 0.93936 0.84665 0.63066 0.0
Fe23 Fe 0.8797 0.78795 0.6634 0.0
O24 O 0.92809 0.80463 0.6581 0.0
Fe25 Fe 0.96658 0.77824 0.68052 0.0
O26 O 0.97635 0.81844 0.71222 0.0
O27 O 0.97933 0.8612 0.66409 0.0
O28 O 0.90703 0.87724 0.66127 0.0
C29 C 0.87227 0.86918 0.67137 0.0
C30 C 1.00253 0.79927 0.61137 0.0
O31 O 0.85809 0.83576 0.66675 0.0
C32 C 0.92451 0.72178 0.64655 0.0
O33 O 0.89975 0.84036 0.59403 0.0
O34 O 0.87116 0.78594 0.61129 0.0
O35 O 1.00477 0.79385 0.64736 0.0
O36 O 0.97313 0.81784 0.59807 0.0
C37 C 0.90692 0.76741 0.73572 0.0
O38 O 0.8942 0.73775 0.66016 0.0
O39 O 0.95766 0.7374 0.6491 0.0
C40 C 0.87494 0.81361 0.58754 0.0
O41 O 0.88292 0.78798 0.71684 0.0
O42 O 0.93779 0.75624 0.7194 0.0
C43 C 0.98612 0.85138 0.69935 0.0
Fe44 Fe 0.51245 0.70485 0.93681 0.0
Fe45 Fe 0.44192 0.68179 0.88647 0.0
O46 O 0.48057 0.66909 0.91833 0.0
Fe47 Fe 0.48605 0.62032 0.93286 0.0
O48 O 0.50678 0.63099 0.9815 0.0
O49 O 0.50118 0.69408 0.98732 0.0
O50 O 0.4748 0.74299 0.9398 0.0
C51 C 0.43794 0.73996 0.94155 0.0
C52 C 0.56064 0.63883 0.92204 0.0
O53 O 0.42036 0.71291 0.92372 0.0
C54 C 0.46602 0.61354 0.85172 0.0
O55 O 0.52713 0.71878 0.8883 0.0
O56 O 0.46825 0.7249 0.86434 0.0
O57 O 0.53349 0.61698 0.91141 0.0
O58 O 0.55442 0.6719 0.93735 0.0
C59 C 0.40824 0.6241 0.93665 0.0
O60 O 0.46126 0.65009 0.84731 0.0
O61 O 0.46773 0.5996 0.88612 0.0
C62 C 0.50436 0.73435 0.86437 0.0
O63 O 0.40881 0.64153 0.90375 0.0
O64 O 0.43902 0.62233 0.956 0.0
C65 C 0.50728 0.66138 1.00248 0.0
Fe66 Fe 0.59613 0.18613 0.13436 0.0
Fe67 Fe 0.65333 0.24809 0.16438 0.0
O68 O 0.60542 0.22955 0.16005 0.0
Fe69 Fe 0.56574 0.25469 0.18224 0.0
O70 O 0.55691 0.21443 0.21467 0.0
O71 O 0.5555 0.17113 0.16726 0.0
O72 O 0.62872 0.15857 0.16752 0.0
C73 C 0.66268 0.16897 0.17821 0.0
C74 C 0.53207 0.23096 0.11301 0.0
O75 O 0.67666 0.20126 0.1684 0.0
C76 C 0.60596 0.31249 0.14754 0.0
O77 O 0.63621 0.19257 0.09778 0.0
O78 O 0.66217 0.24915 0.11201 0.0
O79 O 0.52868 0.2372 0.14884 0.0
O80 O 0.56222 0.21276 0.10052 0.0
C81 C 0.62483 0.26812 0.23676 0.0
O82 O 0.63697 0.29755 0.16049 0.0
O83 O 0.57335 0.29581 0.15062 0.0
C84 C 0.65935 0.22039 0.08934 0.0
O85 O 0.64999 0.24895 0.21775 0.0
O86 O 0.59353 0.27802 0.22074 0.0
C87 C 0.54738 0.18121 0.20223 0.0
Fe88 Fe 0.52572 0.21306 0.6039 0.0
Fe89 Fe 0.59641 0.18516 0.65022 0.0
O90 O 0.55289 0.17437 0.62502 0.0
Fe91 Fe 0.53591 0.12607 0.62019 0.0
O92 O 0.53376 0.12995 0.56664 0.0
O93 O 0.50195 0.18486 0.56613 0.0
O94 O 0.56476 0.22297 0.57031 0.0
C95 C 0.5987 0.23175 0.58137 0.0
C96 C 0.46928 0.171 0.63809 0.0
O97 O 0.60986 0.22502 0.61623 0.0
C98 C 0.56437 0.12133 0.69531 0.0
O99 O 0.54303 0.2508 0.63629 0.0
O100 O 0.56954 0.21907 0.68428 0.0
O101 O 0.48579 0.14059 0.62547 0.0
O102 O 0.48576 0.20386 0.6369 0.0
C103 C 0.61616 0.11881 0.60666 0.0
O104 O 0.59128 0.14563 0.68724 0.0
O105 O 0.53601 0.11707 0.67239 0.0
C106 C 0.55043 0.24852 0.67186 0.0
O107 O 0.62504 0.15306 0.61742 0.0
O108 O 0.58355 0.10417 0.61467 0.0
C109 C 0.51259 0.15445 0.54903 0.0
Fe110 Fe 0.09809 0.34648 0.90286 0.0
Fe111 Fe 0.15451 0.28305 0.87285 0.0
O112 O 0.10711 0.30268 0.87751 0.0
Fe113 Fe 0.06717 0.27738 0.85634 0.0
O114 O 0.05987 0.31624 0.82237 0.0
O115 O 0.05938 0.36184 0.86809 0.0
O116 O 0.13269 0.37363 0.87115 0.0
C117 C 0.16667 0.36268 0.86054 0.0
C118 C 0.03219 0.30356 0.92361 0.0
O119 O 0.17898 0.32893 0.86719 0.0
C120 C 0.10609 0.22064 0.8933 0.0
O121 O 0.13641 0.33909 0.94054 0.0
O122 O 0.16361 0.28312 0.92514 0.0
O123 O 0.02975 0.29737 0.88787 0.0
O124 O 0.06241 0.32108 0.93635 0.0
C125 C 0.12509 0.26113 0.80146 0.0
O126 O 0.13699 0.23433 0.87862 0.0
O127 O 0.07372 0.23787 0.89013 0.0
C128 C 0.15951 0.31117 0.94861 0.0
O129 O 0.15064 0.28087 0.81916 0.0
O130 O 0.09466 0.25135 0.81915 0.0
C131 C 0.05173 0.35036 0.83343 0.0
Fe132 Fe 1.00984 0.90328 0.11864 0.0
Fe133 Fe 1.01211 0.81557 0.10245 0.0
O134 O 0.98772 0.85703 0.12229 0.0
Fe135 Fe 0.94248 0.85016 0.14558 0.0
O136 O 0.91825 0.88515 0.11251 0.0
O137 O 0.9654 0.929 0.10884 0.0
O138 O 1.01518 0.89808 0.06555 0.0
C139 C 0.03418 0.87149 0.04873 0.0
C140 C 0.97627 0.91221 0.19215 0.0
O141 O 0.04256 0.84123 0.06721 0.0
C142 C 0.98173 0.7829 0.16812 0.0
O143 O 0.05749 0.88312 0.12886 0.0
O144 O 0.04916 0.82028 0.13929 0.0
O145 O 0.94908 0.8886 0.18333 0.0
O146 O 1.00608 0.91496 0.17058 0.0
C147 C 0.93938 0.80428 0.0754 0.0
O148 O 0.98773 0.77973 0.13243 0.0
O149 O 0.96559 0.81418 0.1803 0.0
C150 C 0.06646 0.85194 0.14652 0.0
O151 O 0.97467 0.81014 0.06592 0.0
O152 O 0.92715 0.81208 0.10993 0.0
C153 C 0.93166 0.91754 0.10048 0.0
Fe154 Fe 0.38436 0.76135 0.3771 0.0
Fe155 Fe 0.47246 0.76166 0.36157 0.0
O156 O 0.43002 0.73774 0.37962 0.0
Fe157 Fe 0.43547 0.69155 0.40061 0.0
O158 O 0.4005 0.67014 0.36548 0.0
O159 O 0.3575 0.71829 0.36467 0.0
O160 O 0.39026 0.76913 0.32456 0.0
C161 C 0.41718 0.78863 0.30907 0.0
C162 C 0.37427 0.72508 0.44863 0.0
O163 O 0.44793 0.79484 0.3277 0.0
C164 C 0.50346 0.72783 0.4259 0.0
O165 O 0.40586 0.8074 0.39005 0.0
O166 O 0.46826 0.79641 0.4006 0.0
O167 O 0.39664 0.69733 0.43821 0.0
O168 O 0.37238 0.75571 0.42858 0.0
C169 C 0.48236 0.69039 0.33103 0.0
O170 O 0.50736 0.73453 0.39046 0.0
O171 O 0.47135 0.71247 0.43693 0.0
C172 C 0.43712 0.81455 0.40842 0.0
O173 O 0.47734 0.72609 0.32305 0.0
O174 O 0.47376 0.67697 0.36483 0.0
C175 C 0.36885 0.68535 0.35325 0.0
Fe176 Fe 0.41238 0.02381 0.40595 0.0
Fe177 Fe 0.42372 1.01468 0.31869 0.0
O178 O 0.40519 0.04205 0.35854 0.0
Fe179 Fe 0.38009 0.08648 0.35134 0.0
O180 O 0.40309 0.11005 0.3954 0.0
O181 O 0.44205 0.06397 0.41788 0.0
O182 O 0.45814 0.9985 0.39445 0.0
C183 C 0.4838 1.00365 0.36836 0.0
C184 C 0.33772 0.0594 0.41486 0.0
O185 O 0.4741 0.01825 0.33605 0.0
C186 C 0.35272 0.03432 0.29018 0.0
O187 O 0.38294 0.98207 0.39474 0.0
O188 O 0.41655 0.96834 0.3425 0.0
O189 O 0.33673 0.07105 0.37973 0.0
O190 O 0.36922 0.04622 0.42845 0.0
C191 C 0.43828 0.09147 0.29517 0.0
O192 O 0.37618 1.00815 0.29961 0.0
O193 O 0.35482 0.06861 0.30528 0.0
C194 C 0.39676 0.95727 0.37159 0.0
O195 O 0.43343 0.0561 0.28697 0.0
O196 O 0.42084 0.10668 0.32381 0.0
C197 C 0.43313 0.09917 0.41491 0.0
Fe198 Fe 0.25511 0.1833 0.56495 0.0
Fe199 Fe 0.18718 0.13616 0.59775 0.0
O200 O 0.23085 0.16208 0.6056 0.0
Fe201 Fe 0.25054 0.16756 0.65292 0.0
O202 O 0.25154 0.2209 0.64855 0.0
O203 O 0.27915 0.22233 0.59131 0.0
O204 O 0.21437 0.21538 0.5567 0.0
C205 C 0.18092 0.20287 0.54795 0.0
C206 C 0.31409 0.14956 0.6044 0.0
O207 O 0.17093 0.16822 0.55699 0.0
C208 C 0.22295 0.09264 0.66088 0.0
O209 O 0.2368 0.14921 0.52892 0.0
O210 O 0.21328 0.10174 0.56379 0.0
O211 O 0.29961 0.16298 0.63549 0.0
O212 O 0.29679 0.15201 0.57205 0.0
C213 C 0.17125 0.181 0.66419 0.0
O214 O 0.19475 0.10043 0.63802 0.0
O215 O 0.25165 0.11546 0.66299 0.0
C216 C 0.23085 0.11352 0.53308 0.0
O217 O 0.16001 0.16959 0.6307 0.0
O218 O 0.2043 0.1724 0.67721 0.0
C219 C 0.27041 0.23907 0.62263 0.0
Fe220 Fe 0.10716 1.01447 0.81921 0.0
Fe221 Fe 0.15303 0.94329 0.84674 0.0
O222 O 0.12665 0.98618 0.858 0.0
Fe223 Fe 0.1192 1.00199 0.90655 0.0
O224 O 0.06565 1.00493 0.90021 0.0
O225 O 0.06839 0.03808 0.84649 0.0
O226 O 0.07399 0.97611 0.80704 0.0
C227 C 0.08561 0.94245 0.79775 0.0
C228 C 0.14063 0.06873 0.86433 0.0
O229 O 0.12008 0.93073 0.8058 0.0
C230 C 0.19447 0.97282 0.91399 0.0
O231 O 0.14046 0.99793 0.78183 0.0
O232 O 0.18769 0.97106 0.81416 0.0
O233 O 0.12585 0.05199 0.89358 0.0
O234 O 0.14014 0.05353 0.83077 0.0
C235 C 0.10793 0.92141 0.91163 0.0
O236 O 0.18875 0.94777 0.88724 0.0
O237 O 0.17085 1.0007 0.91877 0.0
C238 C 0.17594 0.99051 0.78471 0.0
O239 O 0.12062 0.91316 0.87771 0.0
O240 O 0.11217 0.95444 0.92655 0.0
C241 C 0.04926 0.02665 0.87537 0.0
Fe242 Fe 0.34417 0.8972 0.10114 0.0
Fe243 Fe 0.29356 0.85309 0.1593 0.0
O244 O 0.30347 0.86703 0.11111 0.0
Fe245 Fe 0.27319 0.85014 0.07324 0.0
O246 O 0.31289 0.84663 0.03723 0.0
O247 O 0.36599 0.85924 0.07101 0.0
O248 O 0.37398 0.87816 0.14347 0.0
C249 C 0.3709 0.84566 0.16145 0.0
C250 C 0.28548 0.92278 0.04599 0.0
O251 O 0.33905 0.82812 0.16131 0.0
C252 C 0.22129 0.86648 0.13582 0.0
O253 O 0.32462 0.93697 0.13149 0.0
O254 O 0.31259 0.89861 0.18134 0.0
O255 O 0.261 0.89926 0.0595 0.0
O256 O 0.32117 0.92068 0.05684 0.0
C257 C 0.2741 0.78415 0.11645 0.0
O258 O 0.2474 0.87702 0.15879 0.0
O259 O 0.2292 0.85025 0.10355 0.0
C260 C 0.31637 0.93274 0.16737 0.0
O261 O 0.27192 0.80523 0.14681 0.0
O262 O 0.28234 0.79927 0.08409 0.0
C263 C 0.34932 0.84288 0.04247 0.0
Fe264 Fe 0.91352 0.49775 0.62481 0.0
Fe265 Fe 0.9288 0.51081 0.71163 0.0
O266 O 0.90787 0.48251 0.67383 0.0
Fe267 Fe 0.88217 0.43977 0.68607 0.0
O268 O 0.91503 0.41004 0.65527 0.0
O269 O 0.91819 0.44937 0.60467 0.0
O270 O 0.96707 0.49899 0.62903 0.0
C271 C 0.98502 0.5203 0.6531 0.0
C272 C 0.83799 0.47059 0.62075 0.0
O273 O 0.96737 0.53282 0.68265 0.0
C274 C 0.86034 0.48716 0.74812 0.0
O275 O 0.90904 0.54842 0.6375 0.0
O276 O 0.89598 0.55002 0.70049 0.0
O277 O 0.84546 0.4444 0.64608 0.0
O278 O 0.86147 0.49822 0.61527 0.0
C279 C 0.95035 0.43902 0.73398 0.0
O280 O 0.89578 0.49556 0.7499 0.0
O281 O 0.84802 0.46742 0.71911 0.0
C282 C 0.8952 0.56541 0.66715 0.0
O283 O 0.9619 0.47225 0.72362 0.0
O284 O 0.91571 0.42745 0.72671 0.0
C285 C 0.92611 0.41751 0.62076 0.0
Fe286 Fe 0.77127 0.67602 0.96812 0.0
Fe287 Fe 0.8419 0.63395 0.93397 0.0
O288 O 0.79606 0.65578 0.9271 0.0
Fe289 Fe 0.77397 0.65787 0.88075 0.0
O290 O 0.76933 0.71069 0.88451 0.0
O291 O 0.74119 0.71062 0.94132 0.0
O292 O 0.80836 0.71298 0.97333 0.0
C293 C 0.84376 0.70423 0.97929 0.0
C294 C 0.71669 0.63173 0.93236 0.0
O295 O 0.85653 0.66992 0.9719 0.0
C296 C 0.80794 0.58548 0.8735 0.0
O297 O 0.79563 0.64666 1.00439 0.0
O298 O 0.81989 0.5991 0.97052 0.0
O299 O 0.726 0.64887 0.90099 0.0
O300 O 0.73429 0.63893 0.96388 0.0
C301 C 0.85138 0.67789 0.86566 0.0
O302 O 0.83588 0.59592 0.89559 0.0
O303 O 0.77731 0.60577 0.87163 0.0
C304 C 0.80311 0.61122 1.0016 0.0
O305 O 0.86498 0.66772 0.89863 0.0
O306 O 0.81857 0.66637 0.85421 0.0
C307 C 0.75053 0.72821 0.91076 0.0
Fe308 Fe 0.60538 0.52341 0.2137 0.0
Fe309 Fe 0.65233 0.59406 0.18758 0.0
O310 O 0.62654 0.55132 0.17558 0.0
Fe311 Fe 0.62091 0.53602 0.12659 0.0
O312 O 0.56746 0.53438 0.13129 0.0
O313 O 0.56695 0.50103 0.18518 0.0
O314 O 0.57231 0.56243 0.22547 0.0
C315 C 0.5838 0.59598 0.23504 0.0
C316 C 0.63849 0.46808 0.16913 0.0
O317 O 0.61887 0.60674 0.22847 0.0
C318 C 0.69644 0.56339 0.12172 0.0
O319 O 0.63847 0.53906 0.25162 0.0
O320 O 0.68651 0.56599 0.2201 0.0
O321 O 0.62572 0.48543 0.13932 0.0
O322 O 0.63783 0.48363 0.20254 0.0
C323 C 0.60741 0.61611 0.12306 0.0
O324 O 0.68897 0.58951 0.14722 0.0
O325 O 0.67294 0.53576 0.11639 0.0
C326 C 0.67416 0.54616 0.2491 0.0
O327 O 0.61917 0.62373 0.15727 0.0
O328 O 0.61579 0.58446 0.10659 0.0
C329 C 0.54976 0.51273 0.15526 0.0
Fe330 Fe 0.75954 0.36938 0.37983 0.0
Fe331 Fe 0.76438 0.35605 0.46774 0.0
O332 O 0.73857 0.37446 0.42664 0.0
Fe333 Fe 0.69347 0.39776 0.43443 0.0
O334 O 0.66833 0.36459 0.40039 0.0
O335 O 0.71464 0.35839 0.35561 0.0
O336 O 0.76526 0.31656 0.38646 0.0
C337 C 0.78548 0.30094 0.41274 0.0
C338 C 0.7261 0.44293 0.3708 0.0
O339 O 0.79493 0.3208 0.44182 0.0
C340 C 0.73294 0.42128 0.50099 0.0
O341 O 0.80745 0.38073 0.3985 0.0
O342 O 0.80031 0.39363 0.46108 0.0
O343 O 0.69953 0.43504 0.3956 0.0
O344 O 0.75525 0.42074 0.36686 0.0
C345 C 0.69241 0.32831 0.48109 0.0
O346 O 0.74047 0.38596 0.50407 0.0
O347 O 0.71665 0.43292 0.46974 0.0
C348 C 0.81605 0.40065 0.42846 0.0
O349 O 0.72776 0.31919 0.47484 0.0
O350 O 0.67939 0.3624 0.47304 0.0
C351 C 0.68079 0.35158 0.36793 0.0
Fe352 Fe 0.35049 0.38084 0.09107 0.0
Fe353 Fe 0.40241 0.41148 0.02517 0.0
O354 O 0.35577 0.40423 0.04551 0.0
Fe355 Fe 0.31474 0.42065 0.01912 0.0
O356 O 0.28454 0.43162 0.06158 0.0
O357 O 0.32366 0.42213 0.11108 0.0
O358 O 0.39554 0.40456 0.11175 0.0
C359 C 0.41412 0.43461 0.09947 0.0
C360 C 0.28707 0.3511 0.04318 0.0
O361 O 0.41502 0.44299 0.06394 0.0
C362 C 0.36571 0.39164 0.96096 0.0
O363 O 0.37829 0.3372 0.07536 0.0
O364 O 0.42617 0.36958 0.0485 0.0
O365 O 0.2964 0.37242 1.01525 0.0
O366 O 0.30346 0.35519 0.07664 0.0
C367 C 0.3629 0.48125 1.00356 0.0
O368 O 0.39046 0.38 0.98515 0.0
O369 O 0.33697 0.41179 0.97231 0.0
C370 C 0.41308 0.33818 0.06244 0.0
O371 O 0.38936 0.45599 0.99808 0.0
O372 O 0.33136 0.47139 0.01994 0.0
C373 C 0.29393 0.43804 0.09646 0.0
Fe374 Fe 0.81829 0.10534 1.00696 0.0
Fe375 Fe 0.84684 0.15418 0.9385 0.0
O376 O 0.85716 0.12833 0.98165 0.0
Fe377 Fe 0.90543 0.12437 0.99951 0.0
O378 O 0.90315 0.07088 0.99983 0.0
O379 O 0.84685 0.06691 0.02916 0.0
O380 O 0.80952 0.07347 0.9662 0.0
C381 C 0.79941 0.08603 0.93318 0.0
C382 C 0.85862 0.13863 0.06536 0.0
O383 O 0.80662 0.12114 0.92348 0.0
C384 C 0.90979 0.19951 0.97243 0.0
O385 O 0.78056 0.1384 0.99062 0.0
O386 O 0.81232 0.18745 0.96577 0.0
O387 O 0.88976 0.12732 0.04926 0.0
O388 O 0.82593 0.13626 0.04868 0.0
C389 C 0.91395 0.11107 0.9203 0.0
O390 O 0.88638 0.19103 0.94486 0.0
O391 O 0.91326 0.17679 1.00108 0.0
C392 C 0.78285 0.17425 0.98458 0.0
O393 O 0.87972 0.12146 0.9103 0.0
O394 O 0.92821 0.12131 0.95231 0.0
C395 C 0.87829 0.05136 0.01881 0.0
Fe396 Fe 0.13433 0.59808 0.18667 0.0
Fe397 Fe 0.16811 0.66168 0.24028 0.0
O398 O 0.16165 0.61187 0.22798 0.0
Fe399 Fe 0.18345 0.57515 0.25705 0.0
O400 O 0.21389 0.55962 0.21712 0.0
O401 O 0.16547 0.55518 0.17536 0.0
O402 O 0.16776 0.62584 0.15457 0.0
C403 C 0.1791 0.6606 0.15997 0.0
C404 C 0.11238 0.54031 0.23888 0.0
O405 O 0.17029 0.67881 0.19052 0.0
C406 C 0.15476 0.62401 0.31163 0.0
O407 O 0.09887 0.63952 0.19002 0.0
O408 O 0.11599 0.67151 0.24272 0.0
O409 O 0.14802 0.53744 0.24639 0.0
O410 O 0.10033 0.56824 0.21743 0.0
C411 C 0.24058 0.63359 0.26091 0.0
O412 O 0.16641 0.65239 0.2916 0.0
O413 O 0.15414 0.58971 0.29831 0.0
C414 C 0.09181 0.66549 0.21579 0.0
O415 O 0.22169 0.6572 0.23974 0.0
O416 O 0.22393 0.60405 0.27435 0.0
C417 C 0.2004 0.54727 0.18532 0.0
Fe418 Fe 0.70872 0.92478 0.51425 0.0
Fe419 Fe 0.68419 0.88014 0.44038 0.0
O420 O 0.6723 0.90872 0.48187 0.0
Fe421 Fe 0.62343 0.92214 0.48959 0.0
O422 O 0.6334 0.96872 0.51448 0.0
O423 O 0.69651 0.97594 0.50915 0.0
O424 O 0.7453 0.93274 0.4755 0.0
C425 C 0.74027 0.93728 0.43908 0.0
C426 C 0.64515 0.90136 0.56149 0.0
O427 O 0.71334 0.91961 0.42117 0.0
C428 C 0.61764 0.84291 0.46487 0.0
O429 O 0.72428 0.87557 0.5234 0.0
O430 O 0.72893 0.85731 0.46259 0.0
O431 O 0.62111 0.8966 0.53458 0.0
O432 O 0.67705 0.91944 0.5568 0.0
C433 C 0.62561 0.93206 0.41244 0.0
O434 O 0.65406 0.83913 0.45806 0.0
O435 O 0.60323 0.87698 0.46785 0.0
C436 C 0.73968 0.8543 0.49803 0.0
O437 O 0.64253 0.899 0.41023 0.0
O438 O 0.62475 0.94907 0.4447 0.0
C439 C 0.66339 0.99002 0.51617 0.0
Fe440 Fe 0.35906 0.46751 0.76021 0.0
Fe441 Fe 0.40289 0.43548 0.69024 0.0
O442 O 0.37836 0.42681 0.73436 0.0
Fe443 Fe 0.37368 0.3798 0.75449 0.0
O444 O 0.32058 0.38557 0.76001 0.0
O445 O 0.32322 0.44114 0.78976 0.0
O446 O 0.32282 0.47467 0.72306 0.0
C447 C 0.3327 0.48148 0.68809 0.0
C448 C 0.40198 0.42837 0.81316 0.0
O449 O 0.36749 0.47432 0.67599 0.0
C450 C 0.44791 0.37159 0.72231 0.0
O451 O 0.38948 0.50434 0.73748 0.0
O452 O 0.43742 0.46997 0.71606 0.0
O453 O 0.38405 0.39785 0.80269 0.0
O454 O 0.39597 0.46059 0.79653 0.0
C455 C 0.35712 0.36922 0.67527 0.0
O456 O 0.44029 0.39652 0.69597 0.0
O457 O 0.42527 0.3675 0.751 0.0
C458 C 0.42534 0.50096 0.73283 0.0
O459 O 0.37022 0.4019 0.66363 0.0
O460 O 0.36369 0.35627 0.70889 0.0
C461 C 0.30438 0.41118 0.78087 0.0
Fe462 Fe 0.13402 0.62351 0.52454 0.0
Fe463 Fe 0.22196 0.60717 0.52176 0.0
O464 O 0.18044 0.62675 0.54641 0.0
Fe465 Fe 0.18707 0.64895 0.5922 0.0
O466 O 0.15235 0.61482 0.61561 0.0
O467 O 0.108 0.61362 0.56897 0.0
O468 O 0.139 0.57059 0.51874 0.0
C469 C 0.1655 0.5541 0.4992 0.0
C470 C 0.12528 0.69606 0.55884 0.0
O471 O 0.19638 0.57186 0.49161 0.0
C472 C 0.25407 0.67291 0.55312 0.0
O473 O 0.15396 0.63345 0.47699 0.0
O474 O 0.21724 0.64344 0.48425 0.0
O475 O 0.14816 0.68629 0.58632 0.0
O476 O 0.12309 0.6754 0.52848 0.0
C477 C 0.23366 0.57963 0.59418 0.0
O478 O 0.2576 0.63748 0.54588 0.0
O479 O 0.22285 0.68443 0.57003 0.0
C480 C 0.18585 0.6483 0.46574 0.0
O481 O 0.22763 0.5706 0.55896 0.0
O482 O 0.22571 0.61381 0.60684 0.0
C483 C 0.1197 0.60351 0.60212 0.0
Fe484 Fe 0.67533 0.87606 0.78426 0.0
Fe485 Fe 0.67823 0.96262 0.76768 0.0
O486 O 0.66311 0.92401 0.79793 0.0
Fe487 Fe 0.63711 0.9323 0.84182 0.0
O488 O 0.66115 0.89044 0.86752 0.0
O489 O 0.70669 0.87282 0.82558 0.0
O490 O 0.71856 0.88852 0.75463 0.0
C491 C 0.74176 0.91691 0.75722 0.0
C492 C 0.60062 0.8649 0.81854 0.0
O493 O 0.72949 0.94882 0.7702 0.0
C494 C 0.60748 0.99124 0.78864 0.0
O495 O 0.64407 0.87882 0.74293 0.0
O496 O 0.66929 0.93453 0.72342 0.0
O497 O 0.59574 0.90085 0.82656 0.0
O498 O 0.63451 0.85279 0.81005 0.0
C499 C 0.69316 0.99027 0.84372 0.0
O500 O 0.62932 0.97964 0.76185 0.0
O501 O 0.61058 0.97699 0.82304 0.0
C502 C 0.64643 0.90589 0.71853 0.0
O503 O 0.68842 0.99661 0.80769 0.0
O504 O 0.67633 0.96224 0.86055 0.0
C505 C 0.69367 0.87356 0.85989 0.0
Fe506 Fe 0.90191 0.09562 0.34548 0.0
Fe507 Fe 0.86674 0.15277 0.28534 0.0
O508 O 0.87424 0.10504 0.30304 0.0
Fe509 Fe 0.85352 0.06507 0.27749 0.0
O510 O 0.82195 0.05529 0.31815 0.0
O511 O 0.86992 0.05442 0.36098 0.0
O512 O 0.8699 0.12752 0.37548 0.0
C513 C 0.85724 0.16117 0.36618 0.0
C514 C 0.92378 0.03257 0.29871 0.0
O515 O 0.86109 0.17473 0.33243 0.0
C516 C 0.88584 0.1072 0.21982 0.0
O517 O 0.93707 0.13647 0.33872 0.0
O518 O 0.91851 0.16477 0.28447 0.0
O519 O 0.88785 0.02871 0.2943 0.0
O520 O 0.936 0.06265 0.31697 0.0
C521 C 0.79593 0.12139 0.26413 0.0
O522 O 0.87195 0.13744 0.23562 0.0
O523 O 0.8846 0.07426 0.2361 0.0
C524 C 0.94228 0.16206 0.31238 0.0
O525 O 0.8132 0.1469 0.28425 0.0
O526 O 0.81392 0.09122 0.25424 0.0
C527 C 0.83491 0.04597 0.35129 0.0
C528 C 0.91643 0.41131 0.4542 0.0
C529 C 0.93103 0.40965 0.41607 0.0
H530 H 0.86523 0.41341 0.4891 0.0
C531 C 0.90873 0.42243 0.38474 0.0
H532 H 0.93451 0.40379 0.47887 0.0
C533 C 0.86925 0.42886 0.39067 0.0
C534 C 0.85303 0.42083 0.42749 0.0
H535 H 0.92061 0.42304 0.35545 0.0
H536 H 0.85078 0.43323 0.36546 0.0
C537 C 0.87711 0.41774 0.46012 0.0
C538 C 0.92763 0.62426 0.68654 0.0
C539 C 0.89779 0.60674 0.66509 0.0
H540 H 0.96253 0.67472 0.69411 0.0
C541 C 0.88055 0.62589 0.6336 0.0
H542 H 0.94235 0.60896 0.70988 0.0
C543 C 0.89254 0.66314 0.62422 0.0
C544 C 0.92249 0.68046 0.64564 0.0
H545 H 0.85859 0.61169 0.61598 0.0
H546 H 0.8776 0.679 0.60139 0.0
C547 C 0.94045 0.66082 0.67637 0.0
C548 C 0.65568 0.6192 0.9676 0.0
C549 C 0.67809 0.61457 0.93377 0.0
H550 H 0.59874 0.63127 0.98951 0.0
C551 C 0.65997 0.60498 0.89831 0.0
H552 H 0.66904 0.6253 0.99552 0.0
C553 C 0.61988 0.609 0.89486 0.0
C554 C 0.59861 0.62177 0.92711 0.0
H555 H 0.67707 0.59988 0.87216 0.0
H556 H 0.60641 0.60657 0.86644 0.0
C557 C 0.61571 0.62326 0.96409 0.0
C558 C 0.59104 0.37335 0.17843 0.0
C559 C 0.60713 0.35394 0.14635 0.0
H560 H 0.59208 0.42444 0.21345 0.0
C561 C 0.63639 0.37124 0.12382 0.0
H562 H 0.56954 0.35947 0.19699 0.0
C563 C 0.64997 0.4078 0.13376 0.0
C564 C 0.63476 0.42669 0.16662 0.0
H565 H 0.65 0.35558 0.09992 0.0
H566 H 0.67157 0.42179 0.11542 0.0
C567 C 0.60533 0.40937 0.18898 0.0
C568 C 0.40875 0.13638 0.6493 0.0
C569 C 0.42768 0.16933 0.63463 0.0
H570 H 0.35717 0.10176 0.64777 0.0
C571 C 0.41055 0.1916 0.60511 0.0
H572 H 0.42254 0.11811 0.67102 0.0
C573 C 0.37492 0.18061 0.58993 0.0
C574 C 0.35565 0.1482 0.60523 0.0
H575 H 0.42563 0.21616 0.59229 0.0
H576 H 0.36114 0.19906 0.56836 0.0
C577 C 0.37275 0.12585 0.63464 0.0
C578 C 0.13738 0.16191 0.91447 0.0
C579 C 0.10654 0.17927 0.89427 0.0
H580 H 0.17591 0.11315 0.91753 0.0
C581 C 0.09026 0.16113 0.86167 0.0
H582 H 0.15104 0.1766 0.93884 0.0
C583 C 0.10665 0.12723 0.84754 0.0
C584 C 0.13778 0.11 0.86741 0.0
H585 H 0.06731 0.17502 0.84499 0.0
H586 H 0.09334 0.1132 0.82261 0.0
C587 C 0.15309 0.12734 0.90095 0.0
C588 C 0.1279 0.81777 0.15709 0.0
C589 C 0.10484 0.85069 0.16387 0.0
H590 H 0.18462 0.79814 0.14116 0.0
C591 C 0.12232 0.88628 0.17393 0.0
H592 H 0.11507 0.78968 0.15078 0.0
C593 C 0.16195 0.89119 0.16762 0.0
C594 C 0.1833 0.86019 0.15227 0.0
H595 H 0.10471 0.91162 0.18078 0.0
H596 H 0.1748 0.9198 0.1707 0.0
C597 C 0.16735 0.82276 0.15062 0.0
C598 C 0.46334 0.87534 0.39481 0.0
C599 C 0.44087 0.85417 0.421 0.0
H600 H 0.46196 0.91808 0.35121 0.0
C601 C 0.40757 0.8712 0.4379 0.0
H602 H 0.49018 0.86355 0.38273 0.0
C603 C 0.39213 0.90494 0.42156 0.0
C604 C 0.41017 0.92095 0.38858 0.0
H605 H 0.39041 0.85531 0.45911 0.0
H606 H 0.36531 0.9171 0.43312 0.0
C607 C 0.44611 0.90584 0.37563 0.0
C608 C 0.36696 0.43738 0.90677 0.0
C609 C 0.38042 0.40228 0.92289 0.0
H610 H 0.37214 0.479 0.86217 0.0
C611 C 0.41204 0.38272 0.90584 0.0
H612 H 0.34338 0.45414 0.91957 0.0
C613 C 0.42702 0.39625 0.87068 0.0
C614 C 0.41086 0.42975 0.85375 0.0
H615 H 0.42368 0.35634 0.91859 0.0
H616 H 0.44746 0.37826 0.85455 0.0
C617 C 0.38458 0.45269 0.87447 0.0
C618 C 0.84199 0.10392 0.12393 0.0
C619 C 0.86018 0.13609 0.10684 0.0
H620 H 0.83977 0.06622 0.1731 0.0
C621 C 0.89113 0.15481 0.12551 0.0
H622 H 0.81923 0.08809 0.10887 0.0
C623 C 0.90391 0.14135 0.1612 0.0
C624 C 0.88567 0.10921 0.1783 0.0
H625 H 0.90645 0.17863 0.11158 0.0
H626 H 0.92649 0.1572 0.1765 0.0
C627 C 0.85515 0.09009 0.15934 0.0
C628 C 0.1933 0.61084 0.36884 0.0
C629 C 0.16105 0.62954 0.35238 0.0
H630 H 0.23048 0.60655 0.41807 0.0
C631 C 0.14415 0.6619 0.3706 0.0
H632 H 0.20818 0.58734 0.35377 0.0
C633 C 0.15753 0.67358 0.40678 0.0
C634 C 0.18799 0.65301 0.42444 0.0
H635 H 0.12071 0.67793 0.3568 0.0
H636 H 0.14192 0.69616 0.4225 0.0
C637 C 0.20737 0.62318 0.4044 0.0
C638 C 0.61727 0.93037 0.61924 0.0
C639 C 0.63103 0.89701 0.60036 0.0
H640 H 0.61097 0.95892 0.67407 0.0
C641 C 0.63953 0.86307 0.62091 0.0
H642 H 0.61067 0.95664 0.60305 0.0
C643 C 0.63918 0.86416 0.66128 0.0
C644 C 0.63121 0.89949 0.68015 0.0
H645 H 0.65025 0.83733 0.60601 0.0
H646 H 0.64984 0.83916 0.67728 0.0
C647 C 0.61746 0.93166 0.65944 0.0
C648 C 0.15159 0.48357 0.50724 0.0
C649 C 0.16008 0.51486 0.48271 0.0
H650 H 0.13526 0.42377 0.51101 0.0
C651 C 0.16464 0.50813 0.44245 0.0
H652 H 0.14914 0.48784 0.53845 0.0
C653 C 0.15632 0.47141 0.42648 0.0
C654 C 0.14441 0.44082 0.45083 0.0
H655 H 0.17206 0.5319 0.4231 0.0
H656 H 0.15545 0.46814 0.39509 0.0
C657 C 0.14473 0.44672 0.49154 0.0
C658 C 0.80975 0.90428 0.67179 0.0
C659 C 0.84567 0.89734 0.69017 0.0
H660 H 0.74861 0.91547 0.67902 0.0
C661 C 0.84835 0.90334 0.73066 0.0
H662 H 0.80654 0.89866 0.64087 0.0
C663 C 0.81491 0.91268 0.75268 0.0
C664 C 0.77843 0.9158 0.73445 0.0
H665 H 0.87526 0.89677 0.74576 0.0
H666 H 0.81702 0.91439 0.78413 0.0
C667 C 0.77646 0.91318 0.69371 0.0
C668 C 0.39477 0.55518 0.92834 0.0
C669 C 0.38234 0.59064 0.94429 0.0
H670 H 0.40458 0.49519 0.93826 0.0
C671 C 0.35896 0.58971 0.97821 0.0
H672 H 0.41363 0.55454 0.90303 0.0
C673 C 0.34979 0.554 0.99642 0.0
C674 C 0.36643 0.51911 0.9826 0.0
H675 H 0.35023 0.61665 0.99217 0.0
H676 H 0.3326 0.55408 0.02294 0.0
C677 C 0.38912 0.52057 0.9485 0.0
C678 C 0.71343 0.11861 0.19021 0.0
C679 C 0.68747 0.14638 0.2051 0.0
H680 H 0.76777 0.08893 0.19731 0.0
C681 C 0.69539 0.163 0.24184 0.0
H682 H 0.70894 0.10642 0.16144 0.0
C683 C 0.73008 0.15461 0.26177 0.0
C684 C 0.75722 0.12853 0.24576 0.0
H685 H 0.67609 0.18499 0.2537 0.0
H686 H 0.7362 0.16943 0.28895 0.0
C687 C 0.74761 0.10936 0.21057 0.0
C688 C 0.67782 0.0357 0.57129 0.0
C689 C 0.66018 0.0288 0.53491 0.0
H690 H 0.67808 0.07094 0.62325 0.0
C691 C 0.63488 0.05698 0.51974 0.0
H692 H 0.69696 1.01402 0.5839 0.0
C693 C 0.62555 0.09026 0.54149 0.0
C694 C 0.64024 0.09552 0.57941 0.0
H695 H 0.62067 0.05224 0.49198 0.0
H696 H 0.60374 0.11005 0.53018 0.0
C697 C 0.66747 0.06852 0.59365 0.0
C698 C 0.25492 0.42177 0.83471 0.0
C699 C 0.26511 0.40461 0.79864 0.0
H700 H 0.21449 0.42265 0.88293 0.0
C701 C 0.23775 0.38042 0.78042 0.0
H702 H 0.27532 0.44062 0.84959 0.0
C703 C 0.20225 0.37173 0.79876 0.0
C704 C 0.19333 0.3863 0.83617 0.0
H705 H 0.2443 0.3671 0.75256 0.0
H706 H 0.18309 0.35076 0.7851 0.0
C707 C 0.21966 0.41222 0.85356 0.0
C708 C 0.87646 0.96277 0.08519 0.0
C709 C 0.91051 0.94347 0.07365 0.0
H710 H 0.83952 1.01221 0.07666 0.0
C711 C 0.93109 0.95714 0.04078 0.0
H712 H 0.86064 0.95347 0.1109 0.0
C713 C 0.92 0.9913 0.02183 0.0
C714 C 0.88759 1.01236 0.03499 0.0
H715 H 0.9578 0.94297 0.03163 0.0
H716 H 0.93785 1.00207 0.99812 0.0
C717 C 0.86491 0.9968 0.06581 0.0
C718 C 0.32897 0.62959 0.32746 0.0
C719 C 0.34379 0.66718 0.32328 0.0
H720 H 0.28485 0.58927 0.3104 0.0
C721 C 0.32849 0.69131 0.2937 0.0
H722 H 0.33993 0.61055 0.35006 0.0
C723 C 0.29665 0.67961 0.2712 0.0
C724 C 0.27933 0.64339 0.27777 0.0
H725 H 0.33965 0.72047 0.28958 0.0
H726 H 0.28424 0.69985 0.25046 0.0
C727 C 0.29709 0.61776 0.30483 0.0
C728 C 0.49512 0.11433 0.44788 0.0
C729 C 0.45562 0.12437 0.44153 0.0
H730 H 0.54347 0.11413 0.48746 0.0
C731 C 0.43679 0.14836 0.46869 0.0
H732 H 0.51039 0.09564 0.42739 0.0
C733 C 0.45614 0.15932 0.50295 0.0
C734 C 0.49423 0.1457 0.51101 0.0
H735 H 0.4063 0.15584 0.46513 0.0
H736 H 0.44034 0.1765 0.52425 0.0
C737 C 0.51394 0.12419 0.48254 0.0
C738 C 0.12109 0.19079 0.71574 0.0
C739 C 0.14844 0.20681 0.69004 0.0
H740 H 0.09245 0.19542 0.77103 0.0
C741 C 0.16522 0.24306 0.6995 0.0
H742 H 0.10888 0.1623 0.71007 0.0
C743 C 0.15748 0.26128 0.73529 0.0
C744 C 0.13195 0.24406 0.7621 0.0
H745 H 0.1871 0.25564 0.68056 0.0
H746 H 0.17237 0.2881 0.74244 0.0
C747 C 0.11254 0.20948 0.75114 0.0
C748 C 0.10455 0.87083 0.96283 0.0
C749 C 0.085 0.89468 0.93605 0.0
H750 H 0.10366 0.84479 0.01968 0.0
C751 C 0.04651 0.90635 0.94462 0.0
H752 H 0.13467 0.86264 0.95775 0.0
C753 C 0.02956 0.89807 0.98082 0.0
C754 C 0.0503 0.87695 1.00888 0.0
H755 H 0.03116 0.92572 0.925 0.0
H756 H 1.00084 0.90947 0.98736 0.0
C757 C 0.0871 0.86155 0.99872 0.0
C758 C 0.40747 0.85845 0.22344 0.0
C759 C 0.39704 0.83272 0.19331 0.0
H760 H 0.42212 0.86446 0.28424 0.0
C761 C 0.39865 0.79239 0.20075 0.0
H762 H 0.40551 0.8896 0.21908 0.0
C763 C 0.40578 0.77827 0.23823 0.0
C764 C 0.4131 0.80399 0.26897 0.0
H765 H 0.3903 0.7718 0.17834 0.0
H766 H 0.40425 0.74722 0.24349 0.0
C767 C 0.41598 0.84408 0.26094 0.0
C768 C 0.96336 0.35446 0.54013 0.0
C769 C 0.99938 0.37283 0.53314 0.0
H770 H 0.91093 0.35413 0.57477 0.0
C771 C 1.01411 0.39843 0.56119 0.0
H772 H 0.95115 0.33503 0.5185 0.0
C773 C 0.99197 0.40776 0.59424 0.0
C774 C 0.95403 0.39289 0.5991 0.0
H775 H 0.04162 0.41314 0.55633 0.0
H776 H 1.00281 0.42996 0.61382 0.0
C777 C 0.94049 0.36497 0.57255 0.0
C778 C 0.84768 0.73627 0.82362 0.0
C779 C 0.87078 0.70623 0.83949 0.0
H780 H 0.84077 0.77932 0.77911 0.0
C781 C 0.90808 0.6999 0.82402 0.0
H782 H 0.81861 0.74164 0.8347 0.0
C783 C 0.92073 0.72146 0.79153 0.0
C784 C 0.89626 0.74966 0.77395 0.0
H785 H 0.92623 0.67664 0.83516 0.0
H786 H 0.9489 0.71451 0.77894 0.0
C787 C 0.86023 0.75778 0.79145 0.0
C788 C 0.58839 0.66857 0.07624 0.0
C789 C 0.5775 0.63969 0.10296 0.0
H790 H 0.57332 0.69937 0.02395 0.0
C791 C 0.53981 0.62373 0.10033 0.0
H792 H 0.61761 0.68045 0.07676 0.0
C793 C 0.51536 0.63279 0.069 0.0
C794 C 0.52737 0.65949 0.04063 0.0
H795 H 0.53081 0.60119 0.1204 0.0
H796 H 0.48814 0.61721 0.06568 0.0
C797 C 0.5631 0.67904 0.0458 0.0
C798 C 0.677 0.29042 0.33104 0.0
C799 C 0.65824 0.32488 0.34318 0.0
H800 H 0.68196 0.24593 0.28766 0.0
C801 C 0.6252 0.3376 0.32306 0.0
H802 H 0.70293 0.28035 0.34589 0.0
C803 C 0.61297 0.31762 0.28958 0.0
C804 C 0.63407 0.28509 0.27542 0.0
H805 H 0.61087 0.36454 0.33121 0.0
H806 H 0.58855 0.32929 0.27337 0.0
C807 C 0.66532 0.27093 0.29739 0.0
C808 C 0.50143 0.4582 0.16127 0.0
C809 C 0.51142 0.49515 0.1461 0.0
H810 H 0.46202 0.40959 0.15886 0.0
C811 C 0.48488 0.51416 0.12186 0.0
H812 H 0.52123 0.44286 0.18041 0.0
C813 C 0.45031 0.49575 0.11108 0.0
C814 C 0.44204 0.45731 0.12312 0.0
H815 H 0.49128 0.54275 0.11031 0.0
H816 H 0.43132 0.51055 0.09068 0.0
C817 C 0.46718 0.43926 0.1496 0.0
C818 C 0.98217 0.028 0.90657 0.0
C819 C 1.01008 0.04461 0.88177 0.0
H820 H 0.92696 0.03519 0.93516 0.0
C821 C 1.00057 0.07985 0.8627 0.0
H822 H 0.98813 1.00073 0.92119 0.0
C823 C 0.96575 0.0997 0.87094 0.0
C824 C 0.93897 0.08431 0.89757 0.0
H825 H 0.02119 0.09354 0.84311 0.0
H826 H 0.96136 0.12856 0.85903 0.0
C827 C 0.94683 0.04746 0.91394 0.0
C828 C 0.24623 0.6836 0.15045 0.0
C829 C 0.20832 0.68018 0.1351 0.0
H830 H 0.29645 0.72019 0.15779 0.0
C831 C 0.19607 0.70748 0.1073 0.0
H832 H 0.25634 0.66328 0.1723 0.0
C833 C 0.21994 0.7393 0.09771 0.0
C834 C 0.25555 0.74524 0.11716 0.0
H835 H 0.16665 0.70643 0.09598 0.0
H836 H 0.20861 0.76144 0.07833 0.0
C837 C 0.26919 0.71632 0.1424 0.0
C838 C 0.52229 0.95128 0.39935 0.0
C839 C 0.52136 0.98246 0.37304 0.0
H840 H 0.55439 0.90615 0.42588 0.0
C841 C 0.55601 0.99224 0.35323 0.0
H842 H 0.49729 0.94423 0.41721 0.0
C843 C 0.59117 0.97271 0.36227 0.0
C844 C 0.59119 0.94122 0.38859 0.0
H845 H 0.55648 1.01655 0.3332 0.0
H846 H 0.61842 0.98361 0.35063 0.0
C847 C 0.55566 0.92933 0.40469 0.0
C848 C 0.29409 0.33574 0.67015 0.0
C849 C 0.32997 0.34519 0.6524 0.0
H850 H 0.2476 0.29447 0.67565 0.0
C851 C 0.34346 0.32217 0.62151 0.0
H852 H 0.2834 0.35279 0.69451 0.0
C853 C 0.32269 0.28882 0.61045 0.0
C854 C 0.28861 0.27742 0.63075 0.0
H855 H 0.37151 0.32805 0.60816 0.0
H856 H 0.33488 0.27053 0.58773 0.0
C857 C 0.27385 0.30203 0.65981 0.0
C858 C 0.0392 0.56766 0.66724 0.0
C859 C 0.02431 0.53672 0.64442 0.0
H860 H 0.08208 0.61306 0.67231 0.0
C861 C 0.04626 0.52383 0.61241 0.0
H862 H 0.02322 0.57831 0.69238 0.0
C863 C 0.08049 0.54327 0.60176 0.0
C864 C 0.09353 0.57617 0.62262 0.0
H865 H 0.0361 0.49995 0.59452 0.0
H866 H 0.09534 0.53428 0.57532 0.0
C867 C 0.07334 0.58735 0.6563 0.0
C868 C 0.69928 0.78007 0.91511 0.0
C869 C 0.73739 0.76855 0.90499 0.0
H870 H 0.65502 0.82397 0.9092 0.0
C871 C 0.7629 0.79581 0.88875 0.0
H872 H 0.67932 0.75953 0.92834 0.0
C873 C 0.74961 0.83298 0.87951 0.0
C874 C 0.71022 0.84318 0.88523 0.0
H875 H 0.79279 0.788 0.88206 0.0
H876 H 0.76926 0.85257 0.86443 0.0
C877 C 0.6856 0.81716 0.90495 0.0
C878 C 0.78 0.23221 0.38842 0.0
C879 C 0.80126 0.26081 0.40824 0.0
H880 H 0.7806 0.17544 0.36271 0.0
C881 C 0.83817 0.25084 0.4233 0.0
H882 H 0.75123 0.23862 0.37723 0.0
C883 C 0.85511 0.21446 0.41496 0.0
C884 C 0.83496 0.18696 0.39246 0.0
H885 H 0.85516 0.27219 0.43906 0.0
H886 H 0.88527 0.20939 0.4228 0.0
C887 C 0.79644 0.19557 0.38113 0.0
C888 C 0.0967 0.47011 0.25079 0.0
C889 C 0.08743 0.50969 0.25753 0.0
H890 H 0.09724 0.41137 0.27275 0.0
C891 C 0.06675 0.51865 0.29183 0.0
H892 H 0.11394 0.46217 0.22547 0.0
C893 C 0.05806 0.48957 0.31957 0.0
C894 C 0.06972 0.45039 0.31406 0.0
H895 H 0.0605 0.54873 0.29901 0.0
H896 H 0.04398 0.49832 0.34649 0.0
C897 C 0.08767 0.4409 0.27833 0.0
C898 C 0.81071 0.79441 0.55673 0.0
C899 C 0.84425 0.8183 0.55643 0.0
H900 H 0.75136 0.78671 0.53806 0.0
C901 C 0.84484 0.84968 0.53004 0.0
H902 H 0.80866 0.77007 0.57663 0.0
C903 C 0.81201 0.85839 0.50689 0.0
C904 C 0.77753 0.83624 0.50963 0.0
H905 H 0.86976 0.86894 0.52892 0.0
H906 H 0.81247 0.88451 0.48925 0.0
C907 C 0.77772 0.80361 0.53419 0.0
C908 C 0.44162 0.56988 0.75099 0.0
C909 C 0.4493 0.52971 0.75586 0.0
H910 H 0.44104 0.6274 0.77607 0.0
C911 C 0.46685 0.51844 0.7912 0.0
H912 H 0.42686 0.57977 0.72494 0.0
C913 C 0.47372 0.54578 0.82139 0.0
C914 C 0.46383 0.58561 0.81729 0.0
H915 H 0.47205 0.4879 0.79698 0.0
H916 H 0.48522 0.53524 0.84878 0.0
C917 C 0.44916 0.59731 0.78081 0.0
C918 C 0.72485 0.23556 0.05675 0.0
C919 C 0.68833 0.21626 0.05611 0.0
H920 H 0.78367 0.23842 0.03404 0.0
C921 C 0.68189 0.1898 0.02556 0.0
H922 H 0.73126 0.25604 0.07985 0.0
C923 C 0.71157 0.1809 0.99847 0.0
C924 C 0.74927 0.1974 1.00112 0.0
H925 H 0.65444 0.17441 0.02367 0.0
H926 H 0.70603 0.15818 0.97728 0.0
C927 C 0.75498 0.22599 0.02994 0.0
C928 C 0.55417 0.02745 0.75474 0.0
C929 C 0.58697 0.02847 0.77918 0.0
H930 H 0.52075 0.05575 0.71029 0.0
C931 C 0.60887 0.06323 0.77995 0.0
H932 H 0.53755 1.00082 0.752 0.0
C933 C 0.60021 0.09457 0.75478 0.0
C934 C 0.56904 0.09237 0.72821 0.0
H935 H 0.63527 0.06464 0.79716 0.0
H936 H 0.61952 0.11946 0.75442 0.0
C937 C 0.54502 0.059 0.73013 0.0
C938 C 0.25085 0.29727 1.01115 0.0
C939 C 0.24982 0.32996 0.03588 0.0
H940 H 0.22343 0.2653 0.96507 0.0
C941 C 0.21511 0.35216 0.03646 0.0
H942 H 0.27742 0.28033 1.00863 0.0
C943 C 0.18443 0.34459 1.01016 0.0
C944 C 0.18716 0.3141 0.98279 0.0
H945 H 0.21363 0.3784 0.05394 0.0
H946 H 0.15984 0.3644 1.00947 0.0
C947 C 0.21993 0.28921 0.98538 0.0
C948 C 0.97681 1.00757 0.25232 0.0
C949 C 0.94807 1.00033 0.28085 0.0
H950 H 1.00867 0.98566 0.20253 0.0
C951 C 0.93316 0.96199 0.28284 0.0
H952 H 0.98812 0.03674 0.2487 0.0
C953 C 0.94384 0.93306 0.25565 0.0
C954 C 0.97056 0.94083 0.22551 0.0
H955 H 0.91048 0.95515 0.30378 0.0
H956 H 0.92963 0.90499 0.25719 0.0
C957 C 0.98815 0.97816 0.22535 0.0
C958 C 0.27931 0.72662 0.50902 0.0
C959 C 0.28647 0.69769 0.53711 0.0
H960 H 0.30136 0.75832 0.45948 0.0
C961 C 0.32479 0.68248 0.53913 0.0
H962 H 0.2501 0.73808 0.50544 0.0
C963 C 0.35374 0.69278 0.51189 0.0
C964 C 0.3459 0.71952 0.482 0.0
H965 H 0.33142 0.65959 0.55978 0.0
H966 H 0.38178 0.67828 0.51313 0.0
C967 C 0.30875 0.73769 0.48213 0.0
C968 C 0.27872 0.0623 0.51048 0.0
C969 C 0.24837 0.08835 0.50173 0.0
H970 H 0.33021 0.03277 0.49031 0.0
C971 C 0.24467 0.10039 0.46247 0.0
H972 H 0.28352 0.0534 0.54035 0.0
C973 C 0.27187 0.08913 0.43358 0.0
C974 C 0.30411 0.06566 0.44299 0.0
H975 H 0.22229 0.12126 0.45469 0.0
H976 H 0.26899 0.10097 0.4045 0.0
C977 C 0.30607 0.05113 0.48162 0.0
C978 C 0.22781 0.03565 0.75754 0.0
C979 C 0.20029 1.0059 0.75157 0.0
H980 H 0.25699 0.08582 0.73376 0.0
C981 C 0.18511 1.00183 0.71348 0.0
H982 H 0.23909 0.04089 0.78651 0.0
C983 C 0.19406 0.02846 0.68358 0.0
C984 C 0.21932 0.0599 0.69021 0.0
H985 H 0.16312 0.97997 0.70776 0.0
H986 H 0.17951 0.02552 0.65577 0.0
C987 C 0.23752 0.06196 0.72719 0.0
C988 C 0.25263 0.93538 0.9415 0.0
C989 C 0.22534 0.96599 0.9447 0.0
H990 H 0.29446 0.89891 0.97073 0.0
C991 C 0.22425 0.98677 0.9803 0.0
H992 H 0.2544 0.9184 0.91495 0.0
C993 C 0.24714 0.97534 1.01241 0.0
C994 C 0.27283 0.94351 1.00979 0.0
H995 H 0.2036 1.01031 0.98443 0.0
H996 H 0.24281 0.98984 0.04014 0.0
C997 C 0.27605 0.92443 0.97349 0.0
C998 C 0.29713 0.96385 0.23138 0.0
C999 C 0.31641 0.9668 0.19518 0.0
H1000 H 0.29094 0.98573 0.28964 0.0
C1001 C 0.33861 1.00061 0.18826 0.0
H1002 H 0.27939 0.93861 0.23783 0.0
C1003 C 0.34488 0.02818 0.21827 0.0
C1004 C 0.3287 0.02304 0.25582 0.0
H1005 H 0.35392 1.00409 0.16085 0.0
H1006 H 0.36608 0.051 0.21342 0.0
C1007 C 0.30293 0.99159 0.26099 0.0
C1008 C 0.74602 0.43112 0.57167 0.0
C1009 C 0.74903 0.44588 0.5333 0.0
H1010 H 0.77133 0.42646 0.62875 0.0
C1011 C 0.77832 0.4735 0.52599 0.0
H1012 H 0.72443 0.4091 0.5783 0.0
C1013 C 0.80542 0.48363 0.55532 0.0
C1014 C 0.8045 0.46588 0.59259 0.0
H1015 H 0.78267 0.48445 0.49672 0.0
H1016 H 0.82894 0.50319 0.54771 0.0
C1017 C 0.7734 0.44059 0.60063 0.0
C1018 C 0.80533 0.52745 0.77745 0.0
C1019 C 0.83654 0.50127 0.78224 0.0
H1020 H 0.77141 0.57406 0.8025 0.0
C1021 C 0.8538 0.4992 0.81958 0.0
H1022 H 0.79211 0.53095 0.74905 0.0
C1023 C 0.84299 0.52474 0.84985 0.0
C1024 C 0.81387 0.55297 0.84431 0.0
H1025 H 0.87837 0.47993 0.82438 0.0
H1026 H 0.85898 0.5237 0.877 0.0
C1027 C 0.79391 0.55267 0.80818 0.0
C1028 C 0.72961 0.54982 0.0563 0.0
C1029 C 0.73015 0.56795 0.09345 0.0
H1030 H 0.75305 0.54819 0.99781 0.0
C1031 C 0.76124 0.59328 0.10133 0.0
H1032 H 0.70613 0.5302 0.04877 0.0
C1033 C 0.78901 0.60232 0.07239 0.0
C1034 C 0.78649 0.58707 0.03413 0.0
H1035 H 0.76307 0.60773 0.12933 0.0
H1036 H 0.81058 0.62436 0.07894 0.0
C1037 C 0.75711 0.5595 0.02699 0.0
C1038 C 0.69288 0.50551 0.34938 0.0
C1039 C 0.72042 0.476 0.34217 0.0
H1040 H 0.6588 0.5524 0.32623 0.0
C1041 C 0.73906 0.47603 0.30521 0.0
H1042 H 0.6779 0.50688 0.37719 0.0
C1043 C 0.72789 0.50243 0.27548 0.0
C1044 C 0.69822 0.53008 0.28204 0.0
H1045 H 0.76032 0.45374 0.29819 0.0
H1046 H 0.74001 0.49887 0.24652 0.0
C1047 C 0.68227 0.53211 0.32006 0.0
C1048 C 0.50887 0.27939 0.06294 0.0
C1049 C 0.50041 0.24868 0.08856 0.0
H1050 H 0.48841 0.33122 0.03466 0.0
C1051 C 0.46129 0.24488 0.1013 0.0
H1052 H 0.53866 0.2843 0.05359 0.0
C1053 C 0.43231 0.27223 0.09108 0.0
C1054 C 0.44146 0.30474 0.06797 0.0
H1055 H 0.45376 0.22226 0.12195 0.0
H1056 H 0.40336 0.26917 0.10337 0.0
C1057 C 0.47991 0.30688 0.05278 0.0
C1058 C 1.00519 0.25882 0.9762 0.0
C1059 C 0.99898 0.28716 0.94728 0.0
H1060 H 0.98209 0.20943 1.00721 0.0
C1061 C 0.96107 0.28963 0.93127 0.0
H1062 H 0.03406 0.25488 0.98829 0.0
C1063 C 0.93161 0.26282 0.94101 0.0
C1064 C 0.93851 0.23269 0.96777 0.0
H1065 H 0.95514 0.31046 0.90835 0.0
H1066 H 0.90395 0.26453 0.92596 0.0
C1067 C 0.97529 0.23224 0.98655 0.0
C1068 C 0.03015 0.75953 0.21879 0.0
C1069 C 1.00012 0.75127 0.19219 0.0
H1070 H 0.08219 0.73923 0.24728 0.0
C1071 C 0.99786 0.71272 0.17783 0.0
H1072 H 0.03401 0.78898 0.22936 0.0
C1073 C 0.02624 0.68447 0.18687 0.0
C1074 C 0.05783 0.69338 0.21125 0.0
H1075 H 0.97579 0.7053 0.15656 0.0
H1076 H 0.02441 0.65613 0.17317 0.0
C1077 C 0.05834 0.73093 0.22844 0.0
C1078 C 0.57297 0.74287 0.44149 0.0
C1079 C 0.53309 0.74816 0.4509 0.0
H1080 H 0.6306 0.76757 0.43831 0.0
C1081 C 0.52289 0.7829 0.47023 0.0
H1082 H 0.58198 0.71714 0.42552 0.0
C1083 C 0.5507 0.81265 0.47628 0.0
C1084 C 0.58993 0.80854 0.46386 0.0
H1085 H 0.49259 0.78886 0.47702 0.0
H1086 H 0.54085 0.83983 0.48896 0.0
C1087 C 0.60093 0.7723 0.44812 0.0
C1088 C 0.53732 0.31963 0.67941 0.0
C1089 C 0.53494 0.28192 0.69576 0.0
H1090 H 0.51232 0.37682 0.67424 0.0
C1091 C 0.5071 0.27611 0.72538 0.0
H1092 H 0.55779 0.32521 0.65595 0.0
C1093 C 0.48078 0.30618 0.73607 0.0
C1094 C 0.48101 0.34276 0.71697 0.0
H1095 H 0.50327 0.24741 0.73778 0.0
H1096 H 0.45832 0.29969 0.75732 0.0
C1097 C 0.51076 0.34932 0.68953 0.0
C1098 C 0.02994 0.75595 0.55731 0.0
C1099 C 0.03587 0.78252 0.58798 0.0
H1100 H 0.05341 0.70825 0.52365 0.0
C1101 C 0.07353 0.78377 0.60464 0.0
H1102 H 1.00126 0.7531 0.5445 0.0
C1103 C 0.10305 0.75744 0.59362 0.0
C1104 C 0.09646 0.72899 0.56495 0.0
H1105 H 0.07929 0.80336 0.62871 0.0
H1106 H 0.13054 0.75817 0.60905 0.0
C1107 C 0.05992 0.72978 0.54574 0.0
C1108 C 0.55213 0.76486 0.81855 0.0
C1109 C 0.5201 0.76947 0.84368 0.0
H1110 H 0.60113 0.79087 0.79022 0.0
C1111 C 0.51167 0.80748 0.8572 0.0
H1112 H 0.56026 0.73607 0.80843 0.0
C1113 C 0.53594 0.83948 0.84741 0.0
C1114 C 0.56944 0.83418 0.824 0.0
H1115 H 0.48805 0.81196 0.87776 0.0
H1116 H 0.52984 0.86769 0.86013 0.0
C1117 C 0.57599 0.79653 0.80859 0.0
C1118 C 1.0004 0.19274 0.34766 0.0
C1119 C 0.97234 0.19402 0.31769 0.0
H1120 H 0.04236 0.22428 0.38197 0.0
C1121 C 0.96974 0.22891 0.29598 0.0
H1122 H 1.00333 0.16686 0.36538 0.0
C1123 C 0.99198 0.26203 0.3058 0.0
C1124 C 0.01865 0.26127 0.33686 0.0
H1125 H 0.94843 0.23166 0.27292 0.0
H1126 H 0.98649 0.28907 0.29059 0.0
C1127 C 0.02324 0.22572 0.35694 0.0
C1128 C 0.15231 0.28209 0.47681 0.0
C1129 C 0.11487 0.27063 0.465 0.0
H1130 H 0.20175 0.27052 0.51235 0.0
C1131 C 0.09868 0.23668 0.4813 0.0
H1132 H 0.16559 0.30828 0.46535 0.0
C1133 C 0.11974 0.21461 0.50855 0.0
C1134 C 0.15717 0.22635 0.52039 0.0
H1135 H 0.06977 0.22718 0.47302 0.0
H1136 H 0.10672 0.18845 0.52034 0.0
C1137 C 0.173 0.26046 0.50418 0.0
C1138 C 0.03492 0.93764 0.7461 0.0
C1139 C 0.06079 0.91919 0.77197 0.0
H1140 H 0.99131 0.93035 0.70201 0.0
C1141 C 0.0625 0.87852 0.77312 0.0
H1142 H 0.03336 0.96908 0.74449 0.0
C1143 C 0.03799 0.85658 0.74946 0.0
C1144 C 1.01209 0.87499 0.72362 0.0
H1145 H 0.08219 0.86374 0.79283 0.0
H1146 H 0.03953 0.82513 0.75117 0.0
C1147 C 1.01107 0.91565 0.72171 0.0
C1148 C 0.3745 0.76999 0.96302 0.0
C1149 C 0.4154 0.76866 0.96496 0.0
H1150 H 0.32173 0.79469 0.98549 0.0
C1151 C 0.43455 0.7936 0.99123 0.0
H1152 H 0.3588 0.75125 0.94313 0.0
C1153 C 0.41327 0.81832 1.01585 0.0
C1154 C 0.37232 0.81903 1.01448 0.0
H1155 H 0.46604 0.79327 0.99363 0.0
H1156 H 0.42891 0.83643 0.03636 0.0
C1157 C 0.35325 0.79501 0.98731 0.0
C1158 C 0.50749 0.12088 0.21366 0.0
C1159 C 0.52014 0.15763 0.22625 0.0
H1160 H 0.47161 0.07133 0.2253 0.0
C1161 C 0.50508 0.17267 0.26146 0.0
H1162 H 0.51836 0.10847 0.18669 0.0
C1163 C 0.47792 0.15164 0.28337 0.0
C1164 C 0.46534 0.11486 0.27085 0.0
H1165 H 0.514 0.20095 0.2721 0.0
H1166 H 0.46717 0.16403 0.31039 0.0
C1167 C 0.48054 0.09968 0.23577 0.0
C1168 C 0.6052 0.27972 0.52723 0.0
C1169 C 0.62294 0.25559 0.55516 0.0
H1170 H 0.61343 0.32202 0.48214 0.0
C1171 C 0.66372 0.25465 0.55773 0.0
H1172 H 0.57375 0.28112 0.5247 0.0
C1173 C 0.68639 0.27742 0.53273 0.0
C1174 C 0.66858 0.30221 0.50542 0.0
H1175 H 0.67805 0.23615 0.57886 0.0
H1176 H 0.71784 0.27636 0.53549 0.0
C1177 C 0.62781 0.30317 0.50292 0.0
C1178 C 0.97414 0.37565 0.75989 0.0
C1179 C 0.97573 0.41632 0.7599 0.0
H1180 H 0.99763 0.32287 0.78283 0.0
C1181 C 1.00223 0.43542 0.78464 0.0
H1182 H 0.95403 0.36034 0.74105 0.0
C1183 C 0.02671 0.4141 0.80909 0.0
C1184 C 0.02574 0.37339 0.8084 0.0
H1185 H 1.00378 0.46689 0.78537 0.0
H1186 H 0.04679 0.42936 0.828 0.0
C1187 C 0.99927 0.35434 0.78359 0.0
C1188 C 0.93207 0.75458 0.02229 0.0
C1189 C 0.91479 0.78066 0.04896 0.0
H1190 H 0.92317 0.7096 0.97982 0.0
C1191 C 0.87395 0.7825 0.05128 0.0
H1192 H 0.9635 0.75228 0.01994 0.0
C1193 C 0.85089 0.75858 0.02768 0.0
C1194 C 0.8682 0.73159 1.00198 0.0
H1195 H 0.85983 0.80232 0.07146 0.0
H1196 H 0.81947 0.76042 0.03047 0.0
C1197 C 0.90903 0.72999 0.99942 0.0
C1198 C 0.50362 0.62587 0.30503 0.0
C1199 C 0.50672 0.66654 0.30462 0.0
H1200 H 0.52529 0.57174 0.28298 0.0
C1201 C 0.53508 0.68403 0.28067 0.0
H1202 H 0.48209 0.61166 0.32325 0.0
C1203 C 0.56052 0.66116 0.25831 0.0
C1204 C 0.5574 0.62047 0.25879 0.0
H1205 H 0.53838 0.71537 0.28005 0.0
H1206 H 0.58241 0.67528 0.24047 0.0
C1207 C 0.52838 0.60308 0.28199 0.0
C1208 C 0.28227 0.47861 0.15617 0.0
C1209 C 0.26932 0.46468 0.12001 0.0
H1210 H 0.27102 0.51581 0.20483 0.0
C1211 C 0.2333 0.47799 0.10552 0.0
H1212 H 0.30995 0.46919 0.16803 0.0
C1213 C 0.21085 0.50477 0.12661 0.0
C1214 C 0.22401 0.51903 0.16258 0.0
H1215 H 0.22242 0.46787 0.0777 0.0
H1216 H 0.18333 0.51445 0.1146 0.0
C1217 C 0.25997 0.50556 0.17713 0.0
C1218 C 0.76038 0.07351 0.87227 0.0
C1219 C 0.77284 0.06165 0.90941 0.0
H1220 H 0.72531 0.06039 0.8223 0.0
C1221 C 0.75841 0.0265 0.92469 0.0
H1222 H 0.77085 0.10043 0.85968 0.0
C1223 C 0.73205 1.00396 0.90365 0.0
C1224 C 0.71961 1.01565 0.8665 0.0
H1225 H 0.76719 1.01638 0.95323 0.0
H1226 H 0.72181 0.97703 0.91641 0.0
C1227 C 0.73419 0.05063 0.85093 0.0
C1228 C 0.77672 1.00316 0.35901 0.0
C1229 C 0.81116 0.01864 0.37491 0.0
H1230 H 0.72812 0.96532 0.3663 0.0
C1231 C 0.82267 1.00659 0.4123 0.0
H1232 H 0.76681 1.01156 0.33028 0.0
C1233 C 0.8 0.97979 0.43329 0.0
C1234 C 0.76574 0.96424 0.41701 0.0
H1235 H 0.84904 0.01788 0.42534 0.0
H1236 H 0.80931 0.97123 0.46217 0.0
C1237 C 0.75452 0.97626 0.37962 0.0
C1238 C 0.30814 0.50348 0.62312 0.0
C1239 C 0.30609 0.5051 0.66391 0.0
H1240 H 0.28617 0.52521 0.56903 0.0
C1241 C 0.279 0.53045 0.68163 0.0
H1242 H 0.32863 0.48414 0.60875 0.0
C1243 C 0.25525 0.55451 0.659 0.0
C1244 C 0.25741 0.55301 0.61822 0.0
H1245 H 0.27687 0.53248 0.71308 0.0
H1246 H 0.23523 0.57431 0.6734 0.0
C1247 C 0.28369 0.52686 0.60047 0.0
loop_
_geom_bond_atom_site_label_1
_geom_bond_atom_site_label_2
_geom_bond_distance
_geom_bond_site_symmetry_2
_ccdc_geom_bond_type
Fe0 O2 1.918 . S
Fe0 O5 1.997 1_455 S
Fe0 O6 2.002 . S
Fe0 O11 1.976 . S
Fe0 O14 1.996 1_455 S
Fe1 O2 1.918 . S
Fe1 O9 1.997 . S
Fe1 O12 1.996 . S
Fe1 O16 1.976 . S
Fe1 O19 2.002 . S
O2 Fe0 1.918 . S
O2 Fe1 1.918 . S
O2 Fe3 1.918 . S
Fe3 O2 1.918 . S
Fe3 O4 1.999 1_455 S
Fe3 O13 1.976 1_455 S
Fe3 O17 1.996 . S
Fe3 O20 1.997 . S
O4 Fe3 1.999 1_655 S
O4 C21 1.297 . S
O5 Fe0 1.997 1_655 S
O5 C21 1.235 . S
O6 Fe0 2.002 . S
O6 C7 1.295 . S
C7 O6 1.295 . S
C7 O9 1.235 . S
C8 O13 1.287 . S
C8 O14 1.255 . S
O9 Fe1 1.997 . S
O9 C7 1.235 . S
C10 O16 1.287 . S
C10 O17 1.255 . S
O11 Fe0 1.976 . S
O11 C18 1.287 . S
O12 Fe1 1.996 . S
O12 C18 1.255 . S
O13 Fe3 1.976 1_655 S
O13 C8 1.287 . S
O14 Fe0 1.996 1_655 S
O14 C8 1.255 . S
C15 O19 1.295 . S
C15 O20 1.235 . S
O16 Fe1 1.976 . S
O16 C10 1.287 . S
O17 Fe3 1.996 . S
O17 C10 1.255 . S
C18 O11 1.287 . S
C18 O12 1.255 . S
O19 Fe1 2.002 . S
O19 C15 1.295 . S
O20 Fe3 1.997 . S
O20 C15 1.235 . S
C21 O4 1.297 . S
C21 O5 1.235 . S
Fe22 O24 1.918 . S
Fe22 O27 1.997 . S
Fe22 O28 2.002 . S
Fe22 O33 1.976 . S
Fe22 O36 1.996 . S
Fe23 O24 1.918 . S
Fe23 O31 1.997 . S
Fe23 O34 1.996 . S
Fe23 O38 1.976 . S
Fe23 O41 2.002 . S
O24 Fe22 1.918 . S
O24 Fe23 1.918 . S
O24 Fe25 1.918 . S
Fe25 O24 1.918 . S
Fe25 O26 2.002 . S
Fe25 O35 1.976 . S
Fe25 O39 1.996 . S
Fe25 O42 1.997 . S
O26 Fe25 2.002 . S
O26 C43 1.295 . S
O27 Fe22 1.997 . S
O27 C43 1.235 . S
O28 Fe22 2.002 . S
O28 C29 1.295 . S
C29 O28 1.295 . S
C29 O31 1.235 . S
C30 O35 1.287 . S
C30 O36 1.255 . S
O31 Fe23 1.997 . S
O31 C29 1.235 . S
C32 O38 1.287 . S
C32 O39 1.255 . S
O33 Fe22 1.976 . S
O33 C40 1.287 . S
O34 Fe23 1.996 . S
O34 C40 1.255 . S
O35 Fe25 1.976 . S
O35 C30 1.287 . S
O36 Fe22 1.996 . S
O36 C30 1.255 . S
C37 O41 1.295 . S
C37 O42 1.235 . S
O38 Fe23 1.976 . S
O38 C32 1.287 . S
O39 Fe25 1.996 . S
O39 C32 1.255 . S
C40 O33 1.287 . S
C40 O34 1.255 . S
O41 Fe23 2.002 . S
O41 C37 1.295 . S
O42 Fe25 1.997 . S
O42 C37 1.235 . S
C43 O26 1.295 . S
C43 O27 1.235 . S
Fe44 O46 1.918 . S
Fe44 O49 1.997 . S
Fe44 O50 2.002 . S
Fe44 O55 1.976 . S
Fe44 O58 1.996 . S
Fe45 O46 1.918 . S
Fe45 O53 1.997 . S
Fe45 O56 1.996 . S
Fe45 O60 1.976 . S
Fe45 O63 2.002 . S
O46 Fe44 1.918 . S
O46 Fe45 1.918 . S
O46 Fe47 1.918 . S
Fe47 O46 1.918 . S
Fe47 O48 2.002 . S
Fe47 O57 1.976 . S
Fe47 O61 1.996 . S
Fe47 O64 1.997 . S
O48 Fe47 2.002 . S
O48 C65 1.295 . S
O49 Fe44 1.997 . S
O49 C65 1.235 . S
O50 Fe44 2.002 . S
O50 C51 1.295 . S
C51 O50 1.295 . S
C51 O53 1.235 . S
C52 O57 1.287 . S
C52 O58 1.255 . S
O53 Fe45 1.997 . S
O53 C51 1.235 . S
C54 O60 1.287 . S
C54 O61 1.255 . S
O55 Fe44 1.976 . S
O55 C62 1.287 . S
O56 Fe45 1.996 . S
O56 C62 1.255 . S
O57 Fe47 1.976 . S
O57 C52 1.287 . S
O58 Fe44 1.996 . S
O58 C52 1.255 . S
C59 O63 1.295 . S
C59 O64 1.235 . S
O60 Fe45 1.976 . S
O60 C54 1.287 . S
O61 Fe47 1.996 . S
O61 C54 1.255 . S
C62 O55 1.287 . S
C62 O56 1.255 . S
O63 Fe45 2.002 . S
O63 C59 1.295 . S
O64 Fe47 1.997 . S
O64 C59 1.235 . S
C65 O48 1.295 . S
C65 O49 1.235 . S
Fe66 O68 1.918 . S
Fe66 O71 1.997 . S
Fe66 O72 2.002 . S
Fe66 O77 1.976 . S
Fe66 O80 1.996 . S
Fe67 O68 1.918 . S
Fe67 O75 1.997 . S
Fe67 O78 1.996 . S
Fe67 O82 1.976 . S
Fe67 O85 2.002 . S
O68 Fe66 1.918 . S
O68 Fe67 1.918 . S
O68 Fe69 1.918 . S
Fe69 O68 1.918 . S
Fe69 O70 2.002 . S
Fe69 O79 1.976 . S
Fe69 O83 1.996 . S
Fe69 O86 1.997 . S
O70 Fe69 2.002 . S
O70 C87 1.295 . S
O71 Fe66 1.997 . S
O71 C87 1.235 . S
O72 Fe66 2.002 . S
O72 C73 1.295 . S
C73 O72 1.295 . S
C73 O75 1.235 . S
C74 O79 1.287 . S
C74 O80 1.255 . S
O75 Fe67 1.997 . S
O75 C73 1.235 . S
C76 O82 1.287 . S
C76 O83 1.255 . S
O77 Fe66 1.976 . S
O77 C84 1.287 . S
O78 Fe67 1.996 . S
O78 C84 1.255 . S
O79 Fe69 1.976 . S
O79 C74 1.287 . S
O80 Fe66 1.996 . S
O80 C74 1.255 . S
C81 O85 1.295 . S
C81 O86 1.235 . S
O82 Fe67 1.976 . S
O82 C76 1.287 . S
O83 Fe69 1.996 . S
O83 C76 1.255 . S
C84 O77 1.287 . S
C84 O78 1.255 . S
O85 Fe67 2.002 . S
O85 C81 1.295 . S
O86 Fe69 1.997 . S
O86 C81 1.235 . S
C87 O70 1.295 . S
C87 O71 1.235 . S
Fe88 O90 1.918 . S
Fe88 O93 1.997 . S
Fe88 O94 2.002 . S
Fe88 O99 1.976 . S
Fe88 O102 1.996 . S
Fe89 O90 1.918 . S
Fe89 O97 1.997 . S
Fe89 O100 1.996 . S
Fe89 O104 1.976 . S
Fe89 O107 2.002 . S
O90 Fe88 1.918 . S
O90 Fe89 1.918 . S
O90 Fe91 1.918 . S
Fe91 O90 1.918 . S
Fe91 O92 2.002 . S
Fe91 O101 1.976 . S
Fe91 O105 1.996 . S
Fe91 O108 1.997 . S
O92 Fe91 2.002 . S
O92 C109 1.295 . S
O93 Fe88 1.997 . S
O93 C109 1.235 . S
O94 Fe88 2.002 . S
O94 C95 1.295 . S
C95 O94 1.295 . S
C95 O97 1.235 . S
C96 O101 1.287 . S
C96 O102 1.255 . S
O97 Fe89 1.997 . S
O97 C95 1.235 . S
C98 O104 1.287 . S
C98 O105 1.255 . S
O99 Fe88 1.976 . S
O99 C106 1.287 . S
O100 Fe89 1.996 . S
O100 C106 1.255 . S
O101 Fe91 1.976 . S
O101 C96 1.287 . S
O102 Fe88 1.996 . S
O102 C96 1.255 . S
C103 O107 1.295 . S
C103 O108 1.235 . S
O104 Fe89 1.976 . S
O104 C98 1.287 . S
O105 Fe91 1.996 . S
O105 C98 1.255 . S
C106 O99 1.287 . S
C106 O100 1.255 . S
O107 Fe89 2.002 . S
O107 C103 1.295 . S
O108 Fe91 1.997 . S
O108 C103 1.235 . S
C109 O92 1.295 . S
C109 O93 1.235 . S
Fe110 O112 1.918 . S
Fe110 O115 1.997 . S
Fe110 O116 2.002 . S
Fe110 O121 1.976 . S
Fe110 O124 1.996 . S
Fe111 O112 1.918 . S
Fe111 O119 1.997 . S
Fe111 O122 1.996 . S
Fe111 O126 1.976 . S
Fe111 O129 2.002 . S
O112 Fe110 1.918 . S
O112 Fe111 1.918 . S
O112 Fe113 1.918 . S
Fe113 O112 1.918 . S
Fe113 O114 2.002 . S
Fe113 O123 1.976 . S
Fe113 O127 1.996 . S
Fe113 O130 1.997 . S
O114 Fe113 2.002 . S
O114 C131 1.295 . S
O115 Fe110 1.997 . S
O115 C131 1.235 . S
O116 Fe110 2.002 . S
O116 C117 1.295 . S
C117 O116 1.295 . S
C117 O119 1.235 . S
C118 O123 1.287 . S
C118 O124 1.255 . S
O119 Fe111 1.997 . S
O119 C117 1.235 . S
C120 O126 1.287 . S
C120 O127 1.255 . S
O121 Fe110 1.976 . S
O121 C128 1.287 . S
O122 Fe111 1.996 . S
O122 C128 1.255 . S
O123 Fe113 1.976 . S
O123 C118 1.287 . S
O124 Fe110 1.996 . S
O124 C118 1.255 . S
C125 O129 1.295 . S
C125 O130 1.235 . S
O126 Fe111 1.976 . S
O126 C120 1.287 . S
O127 Fe113 1.996 . S
O127 C120 1.255 . S
C128 O121 1.287 . S
C128 O122 1.255 . S
O129 Fe111 2.002 . S
O129 C125 1.295 . S
O130 Fe113 1.997 . S
O130 C125 1.235 . S
C131 O114 1.295 . S
C131 O115 1.235 . S
Fe132 O134 1.918 . S
Fe132 O137 1.997 . S
Fe132 O138 1.999 1_655 S
Fe132 O143 1.976 1_655 S
Fe132 O146 1.996 . S
Fe133 O134 1.918 . S
Fe133 O141 1.997 1_655 S
Fe133 O144 1.996 1_655 S
Fe133 O148 1.976 . S
Fe133 O151 2.002 . S
O134 Fe132 1.918 . S
O134 Fe133 1.918 . S
O134 Fe135 1.918 . S
Fe135 O134 1.918 . S
Fe135 O136 2.002 . S
Fe135 O145 1.976 . S
Fe135 O149 1.996 . S
Fe135 O152 1.997 . S
O136 Fe135 2.002 . S
O136 C153 1.295 . S
O137 Fe132 1.997 . S
O137 C153 1.235 . S
O138 Fe132 1.999 1_455 S
O138 C139 1.297 . S
C139 O138 1.297 . S
C139 O141 1.235 . S
C140 O145 1.287 . S
C140 O146 1.255 . S
O141 Fe133 1.997 1_455 S
O141 C139 1.235 . S
C142 O148 1.287 . S
C142 O149 1.255 . S
O143 Fe132 1.976 1_455 S
O143 C150 1.287 . S
O144 Fe133 1.996 1_455 S
O144 C150 1.255 . S
O145 Fe135 1.976 . S
O145 C140 1.287 . S
O146 Fe132 1.996 . S
O146 C140 1.255 . S
C147 O151 1.295 . S
C147 O152 1.235 . S
O148 Fe133 1.976 . S
O148 C142 1.287 . S
O149 Fe135 1.996 . S
O149 C142 1.255 . S
C150 O143 1.287 . S
C150 O144 1.255 . S
O151 Fe133 2.002 . S
O151 C147 1.295 . S
O152 Fe135 1.997 . S
O152 C147 1.235 . S
C153 O136 1.295 . S
C153 O137 1.235 . S
Fe154 O156 1.918 . S
Fe154 O159 1.997 . S
Fe154 O160 2.002 . S
Fe154 O165 1.976 . S
Fe154 O168 1.996 . S
Fe155 O156 1.918 . S
Fe155 O163 1.997 . S
Fe155 O166 1.996 . S
Fe155 O170 1.976 . S
Fe155 O173 2.002 . S
O156 Fe154 1.918 . S
O156 Fe155 1.918 . S
O156 Fe157 1.918 . S
Fe157 O156 1.918 . S
Fe157 O158 2.002 . S
Fe157 O167 1.976 . S
Fe157 O171 1.996 . S
Fe157 O174 1.997 . S
O158 Fe157 2.002 . S
O158 C175 1.295 . S
O159 Fe154 1.997 . S
O159 C175 1.235 . S
O160 Fe154 2.002 . S
O160 C161 1.295 . S
C161 O160 1.295 . S
C161 O163 1.235 . S
C162 O167 1.287 . S
C162 O168 1.255 . S
O163 Fe155 1.997 . S
O163 C161 1.235 . S
C164 O170 1.287 . S
C164 O171 1.255 . S
O165 Fe154 1.976 . S
O165 C172 1.287 . S
O166 Fe155 1.996 . S
O166 C172 1.255 . S
O167 Fe157 1.976 . S
O167 C162 1.287 . S
O168 Fe154 1.996 . S
O168 C162 1.255 . S
C169 O173 1.295 . S
C169 O174 1.235 . S
O170 Fe155 1.976 . S
O170 C164 1.287 . S
O171 Fe157 1.996 . S
O171 C164 1.255 . S
C172 O165 1.287 . S
C172 O166 1.255 . S
O173 Fe155 2.002 . S
O173 C169 1.295 . S
O174 Fe157 1.997 . S
O174 C169 1.235 . S
C175 O158 1.295 . S
C175 O159 1.235 . S
Fe176 O178 1.918 . S
Fe176 O181 1.997 . S
Fe176 O182 1.999 1_545 S
Fe176 O187 1.976 1_545 S
Fe176 O190 1.996 . S
Fe177 O178 1.918 . S
Fe177 O185 1.997 1_545 S
Fe177 O188 1.996 1_545 S
Fe177 O192 1.976 . S
Fe177 O195 2.002 . S
O178 Fe176 1.918 . S
O178 Fe177 1.918 . S
O178 Fe179 1.918 . S
Fe179 O178 1.918 . S
Fe179 O180 2.002 . S
Fe179 O189 1.976 . S
Fe179 O193 1.996 . S
Fe179 O196 1.997 . S
O180 Fe179 2.002 . S
O180 C197 1.295 . S
O181 Fe176 1.997 . S
O181 C197 1.235 . S
O182 Fe176 1.999 1_565 S
O182 C183 1.297 . S
C183 O182 1.297 . S
C183 O185 1.235 . S
C184 O189 1.287 . S
C184 O190 1.255 . S
O185 Fe177 1.997 1_565 S
O185 C183 1.235 . S
C186 O192 1.287 . S
C186 O193 1.255 . S
O187 Fe176 1.976 1_565 S
O187 C194 1.287 . S
O188 Fe177 1.996 1_565 S
O188 C194 1.255 . S
O189 Fe179 1.976 . S
O189 C184 1.287 . S
O190 Fe176 1.996 . S
O190 C184 1.255 . S
C191 O195 1.295 . S
C191 O196 1.235 . S
O192 Fe177 1.976 . S
O192 C186 1.287 . S
O193 Fe179 1.996 . S
O193 C186 1.255 . S
C194 O187 1.287 . S
C194 O188 1.255 . S
O195 Fe177 2.002 . S
O195 C191 1.295 . S
O196 Fe179 1.997 . S
O196 C191 1.235 . S
C197 O180 1.295 . S
C197 O181 1.235 . S
Fe198 O200 1.918 . S
Fe198 O203 1.997 . S
Fe198 O204 2.002 . S
Fe198 O209 1.976 . S
Fe198 O212 1.996 . S
Fe199 O200 1.918 . S
Fe199 O207 1.997 . S
Fe199 O210 1.996 . S
Fe199 O214 1.976 . S
Fe199 O217 2.002 . S
O200 Fe198 1.918 . S
O200 Fe199 1.918 . S
O200 Fe201 1.918 . S
Fe201 O200 1.918 . S
Fe201 O202 2.002 . S
Fe201 O211 1.976 . S
Fe201 O215 1.996 . S
Fe201 O218 1.997 . S
O202 Fe201 2.002 . S
O202 C219 1.295 . S
O203 Fe198 1.997 . S
O203 C219 1.235 . S
O204 Fe198 2.002 . S
O204 C205 1.295 . S
C205 O204 1.295 . S
C205 O207 1.235 . S
C206 O211 1.287 . S
C206 O212 1.255 . S
O207 Fe199 1.997 . S
O207 C205 1.235 . S
C208 O214 1.287 . S
C208 O215 1.255 . S
O209 Fe198 1.976 . S
O209 C216 1.287 . S
O210 Fe199 1.996 . S
O210 C216 1.255 . S
O211 Fe201 1.976 . S
O211 C206 1.287 . S
O212 Fe198 1.996 . S
O212 C206 1.255 . S
C213 O217 1.295 . S
C213 O218 1.235 . S
O214 Fe199 1.976 . S
O214 C208 1.287 . S
O215 Fe201 1.996 . S
O215 C208 1.255 . S
C216 O209 1.287 . S
C216 O210 1.255 . S
O217 Fe199 2.002 . S
O217 C213 1.295 . S
O218 Fe201 1.997 . S
O218 C213 1.235 . S
C219 O202 1.295 . S
C219 O203 1.235 . S
Fe220 O222 1.918 . S
Fe220 O225 1.997 1_565 S
Fe220 O226 2.002 . S
Fe220 O231 1.976 . S
Fe220 O234 1.996 1_565 S
Fe221 O222 1.918 . S
Fe221 O229 1.997 . S
Fe221 O232 1.996 . S
Fe221 O236 1.976 . S
Fe221 O239 2.002 . S
O222 Fe220 1.918 . S
O222 Fe221 1.918 . S
O222 Fe223 1.918 . S
Fe223 O222 1.918 . S
Fe223 O224 1.999 1_565 S
Fe223 O233 1.976 1_565 S
Fe223 O237 1.996 . S
Fe223 O240 1.997 . S
O224 Fe223 1.999 1_545 S
O224 C241 1.297 . S
O225 Fe220 1.997 1_545 S
O225 C241 1.235 . S
O226 Fe220 2.002 . S
O226 C227 1.295 . S
C227 O226 1.295 . S
C227 O229 1.235 . S
C228 O233 1.287 . S
C228 O234 1.255 . S
O229 Fe221 1.997 . S
O229 C227 1.235 . S
C230 O236 1.287 . S
C230 O237 1.255 . S
O231 Fe220 1.976 . S
O231 C238 1.287 . S
O232 Fe221 1.996 . S
O232 C238 1.255 . S
O233 Fe223 1.976 1_545 S
O233 C228 1.287 . S
O234 Fe220 1.996 1_545 S
O234 C228 1.255 . S
C235 O239 1.295 . S
C235 O240 1.235 . S
O236 Fe221 1.976 . S
O236 C230 1.287 . S
O237 Fe223 1.996 . S
O237 C230 1.255 . S
C238 O231 1.287 . S
C238 O232 1.255 . S
O239 Fe221 2.002 . S
O239 C235 1.295 . S
O240 Fe223 1.997 . S
O240 C235 1.235 . S
C241 O224 1.297 . S
C241 O225 1.235 . S
Fe242 O244 1.918 . S
Fe242 O247 1.997 . S
Fe242 O248 2.002 . S
Fe242 O253 1.976 . S
Fe242 O256 1.996 . S
Fe243 O244 1.918 . S
Fe243 O251 1.997 . S
Fe243 O254 1.996 . S
Fe243 O258 1.976 . S
Fe243 O261 2.002 . S
O244 Fe242 1.918 . S
O244 Fe243 1.918 . S
O244 Fe245 1.918 . S
Fe245 O244 1.918 . S
Fe245 O246 2.002 . S
Fe245 O255 1.976 . S
Fe245 O259 1.996 . S
Fe245 O262 1.997 . S
O246 Fe245 2.002 . S
O246 C263 1.295 . S
O247 Fe242 1.997 . S
O247 C263 1.235 . S
O248 Fe242 2.002 . S
O248 C249 1.295 . S
C249 O248 1.295 . S
C249 O251 1.235 . S
C250 O255 1.287 . S
C250 O256 1.255 . S
O251 Fe243 1.997 . S
O251 C249 1.235 . S
C252 O258 1.287 . S
C252 O259 1.255 . S
O253 Fe242 1.976 . S
O253 C260 1.287 . S
O254 Fe243 1.996 . S
O254 C260 1.255 . S
O255 Fe245 1.976 . S
O255 C250 1.287 . S
O256 Fe242 1.996 . S
O256 C250 1.255 . S
C257 O261 1.295 . S
C257 O262 1.235 . S
O258 Fe243 1.976 . S
O258 C252 1.287 . S
O259 Fe245 1.996 . S
O259 C252 1.255 . S
C260 O253 1.287 . S
C260 O254 1.255 . S
O261 Fe243 2.002 . S
O261 C257 1.295 . S
O262 Fe245 1.997 . S
O262 C257 1.235 . S
C263 O246 1.295 . S
C263 O247 1.235 . S
Fe264 O266 1.918 . S
Fe264 O269 1.997 . S
Fe264 O270 2.002 . S
Fe264 O275 1.976 . S
Fe264 O278 1.996 . S
Fe265 O266 1.918 . S
Fe265 O273 1.997 . S
Fe265 O276 1.996 . S
Fe265 O280 1.976 . S
Fe265 O283 2.002 . S
O266 Fe264 1.918 . S
O266 Fe265 1.918 . S
O266 Fe267 1.918 . S
Fe267 O266 1.918 . S
Fe267 O268 2.002 . S
Fe267 O277 1.976 . S
Fe267 O281 1.996 . S
Fe267 O284 1.997 . S
O268 Fe267 2.002 . S
O268 C285 1.295 . S
O269 Fe264 1.997 . S
O269 C285 1.235 . S
O270 Fe264 2.002 . S
O270 C271 1.295 . S
C271 O270 1.295 . S
C271 O273 1.235 . S
C272 O277 1.287 . S
C272 O278 1.255 . S
O273 Fe265 1.997 . S
O273 C271 1.235 . S
C274 O280 1.287 . S
C274 O281 1.255 . S
O275 Fe264 1.976 . S
O275 C282 1.287 . S
O276 Fe265 1.996 . S
O276 C282 1.255 . S
O277 Fe267 1.976 . S
O277 C272 1.287 . S
O278 Fe264 1.996 . S
O278 C272 1.255 . S
C279 O283 1.295 . S
C279 O284 1.235 . S
O280 Fe265 1.976 . S
O280 C274 1.287 . S
O281 Fe267 1.996 . S
O281 C274 1.255 . S
C282 O275 1.287 . S
C282 O276 1.255 . S
O283 Fe265 2.002 . S
O283 C279 1.295 . S
O284 Fe267 1.997 . S
O284 C279 1.235 . S
C285 O268 1.295 . S
C285 O269 1.235 . S
Fe286 O288 1.918 . S
Fe286 O291 1.997 . S
Fe286 O292 2.002 . S
Fe286 O297 1.976 . S
Fe286 O300 1.996 . S
Fe287 O288 1.918 . S
Fe287 O295 1.997 . S
Fe287 O298 1.996 . S
Fe287 O302 1.976 . S
Fe287 O305 2.002 . S
O288 Fe286 1.918 . S
O288 Fe287 1.918 . S
O288 Fe289 1.918 . S
Fe289 O288 1.918 . S
Fe289 O290 2.002 . S
Fe289 O299 1.976 . S
Fe289 O303 1.996 . S
Fe289 O306 1.997 . S
O290 Fe289 2.002 . S
O290 C307 1.295 . S
O291 Fe286 1.997 . S
O291 C307 1.235 . S
O292 Fe286 2.002 . S
O292 C293 1.295 . S
C293 O292 1.295 . S
C293 O295 1.235 . S
C294 O299 1.287 . S
C294 O300 1.255 . S
O295 Fe287 1.997 . S
O295 C293 1.235 . S
C296 O302 1.287 . S
C296 O303 1.255 . S
O297 Fe286 1.976 . S
O297 C304 1.287 . S
O298 Fe287 1.996 . S
O298 C304 1.255 . S
O299 Fe289 1.976 . S
O299 C294 1.287 . S
O300 Fe286 1.996 . S
O300 C294 1.255 . S
C301 O305 1.295 . S
C301 O306 1.235 . S
O302 Fe287 1.976 . S
O302 C296 1.287 . S
O303 Fe289 1.996 . S
O303 C296 1.255 . S
C304 O297 1.287 . S
C304 O298 1.255 . S
O305 Fe287 2.002 . S
O305 C301 1.295 . S
O306 Fe289 1.997 . S
O306 C301 1.235 . S
C307 O290 1.295 . S
C307 O291 1.235 . S
Fe308 O310 1.918 . S
Fe308 O313 1.997 . S
Fe308 O314 2.002 . S
Fe308 O319 1.976 . S
Fe308 O322 1.996 . S
Fe309 O310 1.918 . S
Fe309 O317 1.997 . S
Fe309 O320 1.996 . S
Fe309 O324 1.976 . S
Fe309 O327 2.002 . S
O310 Fe308 1.918 . S
O310 Fe309 1.918 . S
O310 Fe311 1.918 . S
Fe311 O310 1.918 . S
Fe311 O312 2.002 . S
Fe311 O321 1.976 . S
Fe311 O325 1.996 . S
Fe311 O328 1.997 . S
O312 Fe311 2.002 . S
O312 C329 1.295 . S
O313 Fe308 1.997 . S
O313 C329 1.235 . S
O314 Fe308 2.002 . S
O314 C315 1.295 . S
C315 O314 1.295 . S
C315 O317 1.235 . S
C316 O321 1.287 . S
C316 O322 1.255 . S
O317 Fe309 1.997 . S
O317 C315 1.235 . S
C318 O324 1.287 . S
C318 O325 1.255 . S
O319 Fe308 1.976 . S
O319 C326 1.287 . S
O320 Fe309 1.996 . S
O320 C326 1.255 . S
O321 Fe311 1.976 . S
O321 C316 1.287 . S
O322 Fe308 1.996 . S
O322 C316 1.255 . S
C323 O327 1.295 . S
C323 O328 1.235 . S
O324 Fe309 1.976 . S
O324 C318 1.287 . S
O325 Fe311 1.996 . S
O325 C318 1.255 . S
C326 O319 1.287 . S
C326 O320 1.255 . S
O327 Fe309 2.002 . S
O327 C323 1.295 . S
O328 Fe311 1.997 . S
O328 C323 1.235 . S
C329 O312 1.295 . S
C329 O313 1.235 . S
Fe330 O332 1.918 . S
Fe330 O335 1.997 . S
Fe330 O336 2.002 . S
Fe330 O341 1.976 . S
Fe330 O344 1.996 . S
Fe331 O332 1.918 . S
Fe331 O339 1.997 . S
Fe331 O342 1.996 . S
Fe331 O346 1.976 . S
Fe331 O349 2.002 . S
O332 Fe330 1.918 . S
O332 Fe331 1.918 . S
O332 Fe333 1.918 . S
Fe333 O332 1.918 . S
Fe333 O334 2.002 . S
Fe333 O343 1.976 . S
Fe333 O347 1.996 . S
Fe333 O350 1.997 . S
O334 Fe333 2.002 . S
O334 C351 1.295 . S
O335 Fe330 1.997 . S
O335 C351 1.235 . S
O336 Fe330 2.002 . S
O336 C337 1.295 . S
C337 O336 1.295 . S
C337 O339 1.235 . S
C338 O343 1.287 . S
C338 O344 1.255 . S
O339 Fe331 1.997 . S
O339 C337 1.235 . S
C340 O346 1.287 . S
C340 O347 1.255 . S
O341 Fe330 1.976 . S
O341 C348 1.287 . S
O342 Fe331 1.996 . S
O342 C348 1.255 . S
O343 Fe333 1.976 . S
O343 C338 1.287 . S
O344 Fe330 1.996 . S
O344 C338 1.255 . S
C345 O349 1.295 . S
C345 O350 1.235 . S
O346 Fe331 1.976 . S
O346 C340 1.287 . S
O347 Fe333 1.996 . S
O347 C340 1.255 . S
C348 O341 1.287 . S
C348 O342 1.255 . S
O349 Fe331 2.002 . S
O349 C345 1.295 . S
O350 Fe333 1.997 . S
O350 C345 1.235 . S
C351 O334 1.295 . S
C351 O335 1.235 . S
Fe352 O354 1.918 . S
Fe352 O357 1.997 . S
Fe352 O358 2.002 . S
Fe352 O363 1.976 . S
Fe352 O366 1.996 . S
Fe353 O354 1.918 . S
Fe353 O361 1.997 . S
Fe353 O364 1.996 . S
Fe353 O368 1.976 1_554 S
Fe353 O371 1.999 1_554 S
O354 Fe352 1.918 . S
O354 Fe353 1.918 . S
O354 Fe355 1.918 . S
Fe355 O354 1.918 . S
Fe355 O356 2.002 . S
Fe355 O365 1.976 . S
Fe355 O369 1.996 1_554 S
Fe355 O372 1.997 1_554 S
O356 Fe355 2.002 . S
O356 C373 1.295 . S
O357 Fe352 1.997 . S
O357 C373 1.235 . S
O358 Fe352 2.002 . S
O358 C359 1.295 . S
C359 O358 1.295 . S
C359 O361 1.235 . S
C360 O365 1.287 . S
C360 O366 1.255 . S
O361 Fe353 1.997 . S
O361 C359 1.235 . S
C362 O368 1.287 . S
C362 O369 1.255 . S
O363 Fe352 1.976 . S
O363 C370 1.287 . S
O364 Fe353 1.996 . S
O364 C370 1.255 . S
O365 Fe355 1.976 . S
O365 C360 1.287 . S
O366 Fe352 1.996 . S
O366 C360 1.255 . S
C367 O371 1.297 . S
C367 O372 1.235 . S
O368 Fe353 1.976 1_556 S
O368 C362 1.287 . S
O369 Fe355 1.996 1_556 S
O369 C362 1.255 . S
C370 O363 1.287 . S
C370 O364 1.255 . S
O371 Fe353 1.999 1_556 S
O371 C367 1.297 . S
O372 Fe355 1.997 1_556 S
O372 C367 1.235 . S
C373 O356 1.295 . S
C373 O357 1.235 . S
Fe374 O376 1.918 . S
Fe374 O379 1.997 1_556 S
Fe374 O380 2.002 . S
Fe374 O385 1.976 . S
Fe374 O388 1.996 1_556 S
Fe375 O376 1.918 . S
Fe375 O383 1.997 . S
Fe375 O386 1.996 . S
Fe375 O390 1.976 . S
Fe375 O393 2.002 . S
O376 Fe374 1.918 . S
O376 Fe375 1.918 . S
O376 Fe377 1.918 . S
Fe377 O376 1.918 . S
Fe377 O378 1.999 1_556 S
Fe377 O387 1.976 1_556 S
Fe377 O391 1.996 . S
Fe377 O394 1.997 . S
O378 Fe377 1.999 1_554 S
O378 C395 1.297 . S
O379 Fe374 1.997 1_554 S
O379 C395 1.235 . S
O380 Fe374 2.002 . S
O380 C381 1.295 . S
C381 O380 1.295 . S
C381 O383 1.235 . S
C382 O387 1.287 . S
C382 O388 1.255 . S
O383 Fe375 1.997 . S
O383 C381 1.235 . S
C384 O390 1.287 . S
C384 O391 1.255 . S
O385 Fe374 1.976 . S
O385 C392 1.287 . S
O386 Fe375 1.996 . S
O386 C392 1.255 . S
O387 Fe377 1.976 1_554 S
O387 C382 1.287 . S
O388 Fe374 1.996 1_554 S
O388 C382 1.255 . S
C389 O393 1.295 . S
C389 O394 1.235 . S
O390 Fe375 1.976 . S
O390 C384 1.287 . S
O391 Fe377 1.996 . S
O391 C384 1.255 . S
C392 O385 1.287 . S
C392 O386 1.255 . S
O393 Fe375 2.002 . S
O393 C389 1.295 . S
O394 Fe377 1.997 . S
O394 C389 1.235 . S
C395 O378 1.297 . S
C395 O379 1.235 . S
Fe396 O398 1.918 . S
Fe396 O401 1.997 . S
Fe396 O402 2.002 . S
Fe396 O407 1.976 . S
Fe396 O410 1.996 . S
Fe397 O398 1.918 . S
Fe397 O405 1.997 . S
Fe397 O408 1.996 . S
Fe397 O412 1.976 . S
Fe397 O415 2.002 . S
O398 Fe396 1.918 . S
O398 Fe397 1.918 . S
O398 Fe399 1.918 . S
Fe399 O398 1.918 . S
Fe399 O400 2.002 . S
Fe399 O409 1.976 . S
Fe399 O413 1.996 . S
Fe399 O416 1.997 . S
O400 Fe399 2.002 . S
O400 C417 1.295 . S
O401 Fe396 1.997 . S
O401 C417 1.235 . S
O402 Fe396 2.002 . S
O402 C403 1.295 . S
C403 O402 1.295 . S
C403 O405 1.235 . S
C404 O409 1.287 . S
C404 O410 1.255 . S
O405 Fe397 1.997 . S
O405 C403 1.235 . S
C406 O412 1.287 . S
C406 O413 1.255 . S
O407 Fe396 1.976 . S
O407 C414 1.287 . S
O408 Fe397 1.996 . S
O408 C414 1.255 . S
O409 Fe399 1.976 . S
O409 C404 1.287 . S
O410 Fe396 1.996 . S
O410 C404 1.255 . S
C411 O415 1.295 . S
C411 O416 1.235 . S
O412 Fe397 1.976 . S
O412 C406 1.287 . S
O413 Fe399 1.996 . S
O413 C406 1.255 . S
C414 O407 1.287 . S
C414 O408 1.255 . S
O415 Fe397 2.002 . S
O415 C411 1.295 . S
O416 Fe399 1.997 . S
O416 C411 1.235 . S
C417 O400 1.295 . S
C417 O401 1.235 . S
Fe418 O420 1.918 . S
Fe418 O423 1.997 . S
Fe418 O424 2.002 . S
Fe418 O429 1.976 . S
Fe418 O432 1.996 . S
Fe419 O420 1.918 . S
Fe419 O427 1.997 . S
Fe419 O430 1.996 . S
Fe419 O434 1.976 . S
Fe419 O437 2.002 . S
O420 Fe418 1.918 . S
O420 Fe419 1.918 . S
O420 Fe421 1.918 . S
Fe421 O420 1.918 . S
Fe421 O422 2.002 . S
Fe421 O431 1.976 . S
Fe421 O435 1.996 . S
Fe421 O438 1.997 . S
O422 Fe421 2.002 . S
O422 C439 1.295 . S
O423 Fe418 1.997 . S
O423 C439 1.235 . S
O424 Fe418 2.002 . S
O424 C425 1.295 . S
C425 O424 1.295 . S
C425 O427 1.235 . S
C426 O431 1.287 . S
C426 O432 1.255 . S
O427 Fe419 1.997 . S
O427 C425 1.235 . S
C428 O434 1.287 . S
C428 O435 1.255 . S
O429 Fe418 1.976 . S
O429 C436 1.287 . S
O430 Fe419 1.996 . S
O430 C436 1.255 . S
O431 Fe421 1.976 . S
O431 C426 1.287 . S
O432 Fe418 1.996 . S
O432 C426 1.255 . S
C433 O437 1.295 . S
C433 O438 1.235 . S
O434 Fe419 1.976 . S
O434 C428 1.287 . S
O435 Fe421 1.996 . S
O435 C428 1.255 . S
C436 O429 1.287 . S
C436 O430 1.255 . S
O437 Fe419 2.002 . S
O437 C433 1.295 . S
O438 Fe421 1.997 . S
O438 C433 1.235 . S
C439 O422 1.295 . S
C439 O423 1.235 . S
Fe440 O442 1.918 . S
Fe440 O445 1.997 . S
Fe440 O446 2.002 . S
Fe440 O451 1.976 . S
Fe440 O454 1.996 . S
Fe441 O442 1.918 . S
Fe441 O449 1.997 . S
Fe441 O452 1.996 . S
Fe441 O456 1.976 . S
Fe441 O459 2.002 . S
O442 Fe440 1.918 . S
O442 Fe441 1.918 . S
O442 Fe443 1.918 . S
Fe443 O442 1.918 . S
Fe443 O444 2.002 . S
Fe443 O453 1.976 . S
Fe443 O457 1.996 . S
Fe443 O460 1.997 . S
O444 Fe443 2.002 . S
O444 C461 1.295 . S
O445 Fe440 1.997 . S
O445 C461 1.235 . S
O446 Fe440 2.002 . S
O446 C447 1.295 . S
C447 O446 1.295 . S
C447 O449 1.235 . S
C448 O453 1.287 . S
C448 O454 1.255 . S
O449 Fe441 1.997 . S
O449 C447 1.235 . S
C450 O456 1.287 . S
C450 O457 1.255 . S
O451 Fe440 1.976 . S
O451 C458 1.287 . S
O452 Fe441 1.996 . S
O452 C458 1.255 . S
O453 Fe443 1.976 . S
O453 C448 1.287 . S
O454 Fe440 1.996 . S
O454 C448 1.255 . S
C455 O459 1.295 . S
C455 O460 1.235 . S
O456 Fe441 1.976 . S
O456 C450 1.287 . S
O457 Fe443 1.996 . S
O457 C450 1.255 . S
C458 O451 1.287 . S
C458 O452 1.255 . S
O459 Fe441 2.002 . S
O459 C455 1.295 . S
O460 Fe443 1.997 . S
O460 C455 1.235 . S
C461 O444 1.295 . S
C461 O445 1.235 . S
Fe462 O464 1.918 . S
Fe462 O467 1.997 . S
Fe462 O468 2.002 . S
Fe462 O473 1.976 . S
Fe462 O476 1.996 . S
Fe463 O464 1.918 . S
Fe463 O471 1.997 . S
Fe463 O474 1.996 . S
Fe463 O478 1.976 . S
Fe463 O481 2.002 . S
O464 Fe462 1.918 . S
O464 Fe463 1.918 . S
O464 Fe465 1.918 . S
Fe465 O464 1.918 . S
Fe465 O466 2.002 . S
Fe465 O475 1.976 . S
Fe465 O479 1.996 . S
Fe465 O482 1.997 . S
O466 Fe465 2.002 . S
O466 C483 1.295 . S
O467 Fe462 1.997 . S
O467 C483 1.235 . S
O468 Fe462 2.002 . S
O468 C469 1.295 . S
C469 O468 1.295 . S
C469 O471 1.235 . S
C470 O475 1.287 . S
C470 O476 1.255 . S
O471 Fe463 1.997 . S
O471 C469 1.235 . S
C472 O478 1.287 . S
C472 O479 1.255 . S
O473 Fe462 1.976 . S
O473 C480 1.287 . S
O474 Fe463 1.996 . S
O474 C480 1.255 . S
O475 Fe465 1.976 . S
O475 C470 1.287 . S
O476 Fe462 1.996 . S
O476 C470 1.255 . S
C477 O481 1.295 . S
C477 O482 1.235 . S
O478 Fe463 1.976 . S
O478 C472 1.287 . S
O479 Fe465 1.996 . S
O479 C472 1.255 . S
C480 O473 1.287 . S
C480 O474 1.255 . S
O481 Fe463 2.002 . S
O481 C477 1.295 . S
O482 Fe465 1.997 . S
O482 C477 1.235 . S
C483 O466 1.295 . S
C483 O467 1.235 . S
Fe484 O486 1.918 . S
Fe484 O489 1.997 . S
Fe484 O490 2.002 . S
Fe484 O495 1.976 . S
Fe484 O498 1.996 . S
Fe485 O486 1.918 . S
Fe485 O493 1.997 . S
Fe485 O496 1.996 . S
Fe485 O500 1.976 . S
Fe485 O503 2.002 . S
O486 Fe484 1.918 . S
O486 Fe485 1.918 . S
O486 Fe487 1.918 . S
Fe487 O486 1.918 . S
Fe487 O488 2.002 . S
Fe487 O497 1.976 . S
Fe487 O501 1.996 . S
Fe487 O504 1.997 . S
O488 Fe487 2.002 . S
O488 C505 1.295 . S
O489 Fe484 1.997 . S
O489 C505 1.235 . S
O490 Fe484 2.002 . S
O490 C491 1.295 . S
C491 O490 1.295 . S
C491 O493 1.235 . S
C492 O497 1.287 . S
C492 O498 1.255 . S
O493 Fe485 1.997 . S
O493 C491 1.235 . S
C494 O500 1.287 . S
C494 O501 1.255 . S
O495 Fe484 1.976 . S
O495 C502 1.287 . S
O496 Fe485 1.996 . S
O496 C502 1.255 . S
O497 Fe487 1.976 . S
O497 C492 1.287 . S
O498 Fe484 1.996 . S
O498 C492 1.255 . S
C499 O503 1.295 . S
C499 O504 1.235 . S
O500 Fe485 1.976 . S
O500 C494 1.287 . S
O501 Fe487 1.996 . S
O501 C494 1.255 . S
C502 O495 1.287 . S
C502 O496 1.255 . S
O503 Fe485 2.002 . S
O503 C499 1.295 . S
O504 Fe487 1.997 . S
O504 C499 1.235 . S
C505 O488 1.295 . S
C505 O489 1.235 . S
Fe506 O508 1.918 . S
Fe506 O511 1.997 . S
Fe506 O512 2.002 . S
Fe506 O517 1.976 . S
Fe506 O520 1.996 . S
Fe507 O508 1.918 . S
Fe507 O515 1.997 . S
Fe507 O518 1.996 . S
Fe507 O522 1.976 . S
Fe507 O525 2.002 . S
O508 Fe506 1.918 . S
O508 Fe507 1.918 . S
O508 Fe509 1.918 . S
Fe509 O508 1.918 . S
Fe509 O510 2.002 . S
Fe509 O519 1.976 . S
Fe509 O523 1.996 . S
Fe509 O526 1.997 . S
O510 Fe509 2.002 . S
O510 C527 1.295 . S
O511 Fe506 1.997 . S
O511 C527 1.235 . S
O512 Fe506 2.002 . S
O512 C513 1.295 . S
C513 O512 1.295 . S
C513 O515 1.235 . S
C514 O519 1.287 . S
C514 O520 1.255 . S
O515 Fe507 1.997 . S
O515 C513 1.235 . S
C516 O522 1.287 . S
C516 O523 1.255 . S
O517 Fe506 1.976 . S
O517 C524 1.287 . S
O518 Fe507 1.996 . S
O518 C524 1.255 . S
O519 Fe509 1.976 . S
O519 C514 1.287 . S
O520 Fe506 1.996 . S
O520 C514 1.255 . S
C521 O525 1.295 . S
C521 O526 1.235 . S
O522 Fe507 1.976 . S
O522 C516 1.287 . S
O523 Fe509 1.996 . S
O523 C516 1.255 . S
C524 O517 1.287 . S
C524 O518 1.255 . S
O525 Fe507 2.002 . S
O525 C521 1.295 . S
O526 Fe509 1.997 . S
O526 C521 1.235 . S
C527 O510 1.295 . S
C527 O511 1.235 . S
C528 C529 1.387 . S
C528 H532 0.950 . S
C528 C537 1.390 . S
C529 C528 1.387 . S
C529 C531 1.387 . S
H530 C537 0.950 . S
C531 C529 1.387 . S
C531 C533 1.390 . S
C531 H535 0.950 . S
H532 C528 0.950 . S
C533 C531 1.390 . S
C533 C534 1.387 . S
C533 H536 0.950 . S
C534 C533 1.387 . S
C534 C537 1.387 . S
H535 C531 0.950 . S
H536 C533 0.950 . S
C537 C528 1.390 . S
C537 H530 0.950 . S
C537 C534 1.387 . S
C538 C539 1.387 . S
C538 H542 0.950 . S
C538 C547 1.390 . S
C539 C538 1.387 . S
C539 C541 1.387 . S
H540 C547 0.950 . S
C541 C539 1.387 . S
C541 C543 1.390 . S
C541 H545 0.950 . S
H542 C538 0.950 . S
C543 C541 1.390 . S
C543 C544 1.387 . S
C543 H546 0.950 . S
C544 C543 1.387 . S
C544 C547 1.387 . S
H545 C541 0.950 . S
H546 C543 0.950 . S
C547 C538 1.390 . S
C547 H540 0.950 . S
C547 C544 1.387 . S
C548 C549 1.387 . S
C548 H552 0.950 . S
C548 C557 1.390 . S
C549 C548 1.387 . S
C549 C551 1.387 . S
H550 C557 0.950 . S
C551 C549 1.387 . S
C551 C553 1.390 . S
C551 H555 0.950 . S
H552 C548 0.950 . S
C553 C551 1.390 . S
C553 C554 1.387 . S
C553 H556 0.950 . S
C554 C553 1.387 . S
C554 C557 1.387 . S
H555 C551 0.950 . S
H556 C553 0.950 . S
C557 C548 1.390 . S
C557 H550 0.950 . S
C557 C554 1.387 . S
C558 C559 1.387 . S
C558 H562 0.950 . S
C558 C567 1.390 . S
C559 C558 1.387 . S
C559 C561 1.387 . S
H560 C567 0.950 . S
C561 C559 1.387 . S
C561 C563 1.390 . S
C561 H565 0.950 . S
H562 C558 0.950 . S
C563 C561 1.390 . S
C563 C564 1.387 . S
C563 H566 0.950 . S
C564 C563 1.387 . S
C564 C567 1.387 . S
H565 C561 0.950 . S
H566 C563 0.950 . S
C567 C558 1.390 . S
C567 H560 0.950 . S
C567 C564 1.387 . S
C568 C569 1.387 . S
C568 H572 0.950 . S
C568 C577 1.390 . S
C569 C568 1.387 . S
C569 C571 1.387 . S
H570 C577 0.950 . S
C571 C569 1.387 . S
C571 C573 1.390 . S
C571 H575 0.950 . S
H572 C568 0.950 . S
C573 C571 1.390 . S
C573 C574 1.387 . S
C573 H576 0.950 . S
C574 C573 1.387 . S
C574 C577 1.387 . S
H575 C571 0.950 . S
H576 C573 0.950 . S
C577 C568 1.390 . S
C577 H570 0.950 . S
C577 C574 1.387 . S
C578 C579 1.387 . S
C578 H582 0.950 . S
C578 C587 1.390 . S
C579 C578 1.387 . S
C579 C581 1.387 . S
H580 C587 0.950 . S
C581 C579 1.387 . S
C581 C583 1.390 . S
C581 H585 0.950 . S
H582 C578 0.950 . S
C583 C581 1.390 . S
C583 C584 1.387 . S
C583 H586 0.950 . S
C584 C583 1.387 . S
C584 C587 1.387 . S
H585 C581 0.950 . S
H586 C583 0.950 . S
C587 C578 1.390 . S
C587 H580 0.950 . S
C587 C584 1.387 . S
C588 C589 1.387 . S
C588 H592 0.950 . S
C588 C597 1.390 . S
C589 C588 1.387 . S
C589 C591 1.387 . S
H590 C597 0.950 . S
C591 C589 1.387 . S
C591 C593 1.390 . S
C591 H595 0.950 . S
H592 C588 0.950 . S
C593 C591 1.390 . S
C593 C594 1.387 . S
C593 H596 0.950 . S
C594 C593 1.387 . S
C594 C597 1.387 . S
H595 C591 0.950 . S
H596 C593 0.950 . S
C597 C588 1.390 . S
C597 H590 0.950 . S
C597 C594 1.387 . S
C598 C599 1.387 . S
C598 H602 0.950 . S
C598 C607 1.390 . S
C599 C598 1.387 . S
C599 C601 1.387 . S
H600 C607 0.950 . S
C601 C599 1.387 . S
C601 C603 1.390 . S
C601 H605 0.950 . S
H602 C598 0.950 . S
C603 C601 1.390 . S
C603 C604 1.387 . S
C603 H606 0.950 . S
C604 C603 1.387 . S
C604 C607 1.387 . S
H605 C601 0.950 . S
H606 C603 0.950 . S
C607 C598 1.390 . S
C607 H600 0.950 . S
C607 C604 1.387 . S
C608 C609 1.387 . S
C608 H612 0.950 . S
C608 C617 1.390 . S
C609 C608 1.387 . S
C609 C611 1.387 . S
H610 C617 0.950 . S
C611 C609 1.387 . S
C611 C613 1.390 . S
C611 H615 0.950 . S
H612 C608 0.950 . S
C613 C611 1.390 . S
C613 C614 1.387 . S
C613 H616 0.950 . S
C614 C613 1.387 . S
C614 C617 1.387 . S
H615 C611 0.950 . S
H616 C613 0.950 . S
C617 C608 1.390 . S
C617 H610 0.950 . S
C617 C614 1.387 . S
C618 C619 1.387 . S
C618 H622 0.950 . S
C618 C627 1.390 . S
C619 C618 1.387 . S
C619 C621 1.387 . S
H620 C627 0.950 . S
C621 C619 1.387 . S
C621 C623 1.390 . S
C621 H625 0.950 . S
H622 C618 0.950 . S
C623 C621 1.390 . S
C623 C624 1.387 . S
C623 H626 0.950 . S
C624 C623 1.387 . S
C624 C627 1.387 . S
H625 C621 0.950 . S
H626 C623 0.950 . S
C627 C618 1.390 . S
C627 H620 0.950 . S
C627 C624 1.387 . S
C628 C629 1.387 . S
C628 H632 0.950 . S
C628 C637 1.390 . S
C629 C628 1.387 . S
C629 C631 1.387 . S
H630 C637 0.950 . S
C631 C629 1.387 . S
C631 C633 1.390 . S
C631 H635 0.950 . S
H632 C628 0.950 . S
C633 C631 1.390 . S
C633 C634 1.387 . S
C633 H636 0.950 . S
C634 C633 1.387 . S
C634 C637 1.387 . S
H635 C631 0.950 . S
H636 C633 0.950 . S
C637 C628 1.390 . S
C637 H630 0.950 . S
C637 C634 1.387 . S
C638 C639 1.387 . S
C638 H642 0.950 . S
C638 C647 1.390 . S
C639 C638 1.387 . S
C639 C641 1.387 . S
H640 C647 0.950 . S
C641 C639 1.387 . S
C641 C643 1.390 . S
C641 H645 0.950 . S
H642 C638 0.950 . S
C643 C641 1.390 . S
C643 C644 1.387 . S
C643 H646 0.950 . S
C644 C643 1.387 . S
C644 C647 1.387 . S
H645 C641 0.950 . S
H646 C643 0.950 . S
C647 C638 1.390 . S
C647 H640 0.950 . S
C647 C644 1.387 . S
C648 C649 1.387 . S
C648 H652 0.950 . S
C648 C657 1.390 . S
C649 C648 1.387 . S
C649 C651 1.387 . S
H650 C657 0.950 . S
C651 C649 1.387 . S
C651 C653 1.390 . S
C651 H655 0.950 . S
H652 C648 0.950 . S
C653 C651 1.390 . S
C653 C654 1.387 . S
C653 H656 0.950 . S
C654 C653 1.387 . S
C654 C657 1.387 . S
H655 C651 0.950 . S
H656 C653 0.950 . S
C657 C648 1.390 . S
C657 H650 0.950 . S
C657 C654 1.387 . S
C658 C659 1.387 . S
C658 H662 0.950 . S
C658 C667 1.390 . S
C659 C658 1.387 . S
C659 C661 1.387 . S
H660 C667 0.950 . S
C661 C659 1.387 . S
C661 C663 1.390 . S
C661 H665 0.950 . S
H662 C658 0.950 . S
C663 C661 1.390 . S
C663 C664 1.387 . S
C663 H666 0.950 . S
C664 C663 1.387 . S
C664 C667 1.387 . S
H665 C661 0.950 . S
H666 C663 0.950 . S
C667 C658 1.390 . S
C667 H660 0.950 . S
C667 C664 1.387 . S
C668 C669 1.387 . S
C668 H672 0.950 . S
C668 C677 1.390 . S
C669 C668 1.387 . S
C669 C671 1.387 . S
H670 C677 0.950 . S
C671 C669 1.387 . S
C671 C673 1.390 . S
C671 H675 0.950 . S
H672 C668 0.950 . S
C673 C671 1.390 . S
C673 C674 1.387 . S
C673 H676 0.950 . S
C674 C673 1.387 . S
C674 C677 1.387 . S
H675 C671 0.950 . S
H676 C673 0.950 . S
C677 C668 1.390 . S
C677 H670 0.950 . S
C677 C674 1.387 . S
C678 C679 1.387 . S
C678 H682 0.950 . S
C678 C687 1.390 . S
C679 C678 1.387 . S
C679 C681 1.387 . S
H680 C687 0.950 . S
C681 C679 1.387 . S
C681 C683 1.390 . S
C681 H685 0.950 . S
H682 C678 0.950 . S
C683 C681 1.390 . S
C683 C684 1.387 . S
C683 H686 0.950 . S
C684 C683 1.387 . S
C684 C687 1.387 . S
H685 C681 0.950 . S
H686 C683 0.950 . S
C687 C678 1.390 . S
C687 H680 0.950 . S
C687 C684 1.387 . S
C688 C689 1.387 . S
C688 H692 0.950 . S
C688 C697 1.390 . S
C689 C688 1.387 . S
C689 C691 1.387 . S
H690 C697 0.950 . S
C691 C689 1.387 . S
C691 C693 1.390 . S
C691 H695 0.950 . S
H692 C688 0.950 . S
C693 C691 1.390 . S
C693 C694 1.387 . S
C693 H696 0.950 . S
C694 C693 1.387 . S
C694 C697 1.387 . S
H695 C691 0.950 . S
H696 C693 0.950 . S
C697 C688 1.390 . S
C697 H690 0.950 . S
C697 C694 1.387 . S
C698 C699 1.387 . S
C698 H702 0.950 . S
C698 C707 1.390 . S
C699 C698 1.387 . S
C699 C701 1.387 . S
H700 C707 0.950 . S
C701 C699 1.387 . S
C701 C703 1.390 . S
C701 H705 0.950 . S
H702 C698 0.950 . S
C703 C701 1.390 . S
C703 C704 1.387 . S
C703 H706 0.950 . S
C704 C703 1.387 . S
C704 C707 1.387 . S
H705 C701 0.950 . S
H706 C703 0.950 . S
C707 C698 1.390 . S
C707 H700 0.950 . S
C707 C704 1.387 . S
C708 C709 1.387 . S
C708 H712 0.950 . S
C708 C717 1.390 . S
C709 C708 1.387 . S
C709 C711 1.387 . S
H710 C717 0.950 1_545 S
C711 C709 1.387 . S
C711 C713 1.390 . S
C711 H715 0.950 . S
H712 C708 0.950 . S
C713 C711 1.390 . S
C713 C714 1.387 . S
C713 H716 0.962 . S
C714 C713 1.387 . S
C714 C717 1.387 . S
H715 C711 0.950 . S
H716 C713 0.962 . S
C717 C708 1.390 . S
C717 H710 0.950 1_565 S
C717 C714 1.387 . S
C718 C719 1.387 . S
C718 H722 0.950 . S
C718 C727 1.390 . S
C719 C718 1.387 . S
C719 C721 1.387 . S
H720 C727 0.950 . S
C721 C719 1.387 . S
C721 C723 1.390 . S
C721 H725 0.950 . S
H722 C718 0.950 . S
C723 C721 1.390 . S
C723 C724 1.387 . S
C723 H726 0.950 . S
C724 C723 1.387 . S
C724 C727 1.387 . S
H725 C721 0.950 . S
H726 C723 0.950 . S
C727 C718 1.390 . S
C727 H720 0.950 . S
C727 C724 1.387 . S
C728 C729 1.387 . S
C728 H732 0.950 . S
C728 C737 1.390 . S
C729 C728 1.387 . S
C729 C731 1.387 . S
H730 C737 0.950 . S
C731 C729 1.387 . S
C731 C733 1.390 . S
C731 H735 0.950 . S
H732 C728 0.950 . S
C733 C731 1.390 . S
C733 C734 1.387 . S
C733 H736 0.950 . S
C734 C733 1.387 . S
C734 C737 1.387 . S
H735 C731 0.950 . S
H736 C733 0.950 . S
C737 C728 1.390 . S
C737 H730 0.950 . S
C737 C734 1.387 . S
C738 C739 1.387 . S
C738 H742 0.950 . S
C738 C747 1.390 . S
C739 C738 1.387 . S
C739 C741 1.387 . S
H740 C747 0.950 . S
C741 C739 1.387 . S
C741 C743 1.390 . S
C741 H745 0.950 . S
H742 C738 0.950 . S
C743 C741 1.390 . S
C743 C744 1.387 . S
C743 H746 0.950 . S
C744 C743 1.387 . S
C744 C747 1.387 . S
H745 C741 0.950 . S
H746 C743 0.950 . S
C747 C738 1.390 . S
C747 H740 0.950 . S
C747 C744 1.387 . S
C748 C749 1.387 . S
C748 H752 0.950 . S
C748 C757 1.390 . S
C749 C748 1.387 . S
C749 C751 1.387 . S
H750 C757 0.950 . S
C751 C749 1.387 . S
C751 C753 1.390 . S
C751 H755 0.950 . S
H752 C748 0.950 . S
C753 C751 1.390 . S
C753 C754 1.387 . S
C753 H756 0.950 . S
C754 C753 1.387 . S
C754 C757 1.387 . S
H755 C751 0.950 . S
H756 C753 0.950 . S
C757 C748 1.390 . S
C757 H750 0.950 . S
C757 C754 1.387 . S
C758 C759 1.387 . S
C758 H762 0.950 . S
C758 C767 1.390 . S
C759 C758 1.387 . S
C759 C761 1.387 . S
H760 C767 0.950 . S
C761 C759 1.387 . S
C761 C763 1.390 . S
C761 H765 0.950 . S
H762 C758 0.950 . S
C763 C761 1.390 . S
C763 C764 1.387 . S
C763 H766 0.950 . S
C764 C763 1.387 . S
C764 C767 1.387 . S
H765 C761 0.950 . S
H766 C763 0.950 . S
C767 C758 1.390 . S
C767 H760 0.950 . S
C767 C764 1.387 . S
C768 C769 1.387 . S
C768 H772 0.950 . S
C768 C777 1.390 . S
C769 C768 1.387 . S
C769 C771 1.387 . S
H770 C777 0.950 . S
C771 C769 1.387 . S
C771 C773 1.390 . S
C771 H775 0.950 . S
H772 C768 0.950 . S
C773 C771 1.390 . S
C773 C774 1.387 . S
C773 H776 0.950 . S
C774 C773 1.387 . S
C774 C777 1.387 . S
H775 C771 0.950 . S
H776 C773 0.950 . S
C777 C768 1.390 . S
C777 H770 0.950 . S
C777 C774 1.387 . S
C778 C779 1.387 . S
C778 H782 0.950 . S
C778 C787 1.390 . S
C779 C778 1.387 . S
C779 C781 1.387 . S
H780 C787 0.950 . S
C781 C779 1.387 . S
C781 C783 1.390 . S
C781 H785 0.950 . S
H782 C778 0.950 . S
C783 C781 1.390 . S
C783 C784 1.387 . S
C783 H786 0.950 . S
C784 C783 1.387 . S
C784 C787 1.387 . S
H785 C781 0.950 . S
H786 C783 0.950 . S
C787 C778 1.390 . S
C787 H780 0.950 . S
C787 C784 1.387 . S
C788 C789 1.387 . S
C788 H792 0.950 . S
C788 C797 1.390 . S
C789 C788 1.387 . S
C789 C791 1.387 . S
H790 C797 0.950 . S
C791 C789 1.387 . S
C791 C793 1.390 . S
C791 H795 0.950 . S
H792 C788 0.950 . S
C793 C791 1.390 . S
C793 C794 1.387 . S
C793 H796 0.965 . S
C794 C793 1.387 . S
C794 C797 1.387 . S
H795 C791 0.950 . S
H796 C793 0.965 . S
C797 C788 1.390 . S
C797 H790 0.950 . S
C797 C794 1.387 . S
C798 C799 1.387 . S
C798 H802 0.950 . S
C798 C807 1.390 . S
C799 C798 1.387 . S
C799 C801 1.387 . S
H800 C807 0.950 . S
C801 C799 1.387 . S
C801 C803 1.390 . S
C801 H805 0.950 . S
H802 C798 0.950 . S
C803 C801 1.390 . S
C803 C804 1.387 . S
C803 H806 0.950 . S
C804 C803 1.387 . S
C804 C807 1.387 . S
H805 C801 0.950 . S
H806 C803 0.950 . S
C807 C798 1.390 . S
C807 H800 0.950 . S
C807 C804 1.387 . S
C808 C809 1.387 . S
C808 H812 0.950 . S
C808 C817 1.390 . S
C809 C808 1.387 . S
C809 C811 1.387 . S
H810 C817 0.950 . S
C811 C809 1.387 . S
C811 C813 1.390 . S
C811 H815 0.950 . S
H812 C808 0.950 . S
C813 C811 1.390 . S
C813 C814 1.387 . S
C813 H816 0.950 . S
C814 C813 1.387 . S
C814 C817 1.387 . S
H815 C811 0.950 . S
H816 C813 0.950 . S
C817 C808 1.390 . S
C817 H810 0.950 . S
C817 C814 1.387 . S
C818 C819 1.387 . S
C818 H822 0.950 . S
C818 C827 1.390 . S
C819 C818 1.387 . S
C819 C821 1.387 . S
H820 C827 0.950 . S
C821 C819 1.387 . S
C821 C823 1.390 . S
C821 H825 0.950 . S
H822 C818 0.950 . S
C823 C821 1.390 . S
C823 C824 1.387 . S
C823 H826 0.950 . S
C824 C823 1.387 . S
C824 C827 1.387 . S
H825 C821 0.950 . S
H826 C823 0.950 . S
C827 C818 1.390 . S
C827 H820 0.950 . S
C827 C824 1.387 . S
C828 C829 1.387 . S
C828 H832 0.950 . S
C828 C837 1.390 . S
C829 C828 1.387 . S
C829 C831 1.387 . S
H830 C837 0.950 . S
C831 C829 1.387 . S
C831 C833 1.390 . S
C831 H835 0.950 . S
H832 C828 0.950 . S
C833 C831 1.390 . S
C833 C834 1.387 . S
C833 H836 0.950 . S
C834 C833 1.387 . S
C834 C837 1.387 . S
H835 C831 0.950 . S
H836 C833 0.950 . S
C837 C828 1.390 . S
C837 H830 0.950 . S
C837 C834 1.387 . S
C838 C839 1.387 . S
C838 H842 0.950 . S
C838 C847 1.390 . S
C839 C838 1.387 . S
C839 C841 1.387 . S
H840 C847 0.950 . S
C841 C839 1.387 . S
C841 C843 1.390 . S
C841 H845 0.950 . S
H842 C838 0.950 . S
C843 C841 1.390 . S
C843 C844 1.387 . S
C843 H846 0.950 . S
C844 C843 1.387 . S
C844 C847 1.387 . S
H845 C841 0.950 . S
H846 C843 0.950 . S
C847 C838 1.390 . S
C847 H840 0.950 . S
C847 C844 1.387 . S
C848 C849 1.387 . S
C848 H852 0.950 . S
C848 C857 1.390 . S
C849 C848 1.387 . S
C849 C851 1.387 . S
H850 C857 0.950 . S
C851 C849 1.387 . S
C851 C853 1.390 . S
C851 H855 0.950 . S
H852 C848 0.950 . S
C853 C851 1.390 . S
C853 C854 1.387 . S
C853 H856 0.950 . S
C854 C853 1.387 . S
C854 C857 1.387 . S
H855 C851 0.950 . S
H856 C853 0.950 . S
C857 C848 1.390 . S
C857 H850 0.950 . S
C857 C854 1.387 . S
C858 C859 1.387 . S
C858 H862 0.950 . S
C858 C867 1.390 . S
C859 C858 1.387 . S
C859 C861 1.387 . S
H860 C867 0.950 . S
C861 C859 1.387 . S
C861 C863 1.390 . S
C861 H865 0.950 . S
H862 C858 0.950 . S
C863 C861 1.390 . S
C863 C864 1.387 . S
C863 H866 0.950 . S
C864 C863 1.387 . S
C864 C867 1.387 . S
H865 C861 0.950 . S
H866 C863 0.950 . S
C867 C858 1.390 . S
C867 H860 0.950 . S
C867 C864 1.387 . S
C868 C869 1.387 . S
C868 H872 0.950 . S
C868 C877 1.390 . S
C869 C868 1.387 . S
C869 C871 1.387 . S
H870 C877 0.950 . S
C871 C869 1.387 . S
C871 C873 1.390 . S
C871 H875 0.950 . S
H872 C868 0.950 . S
C873 C871 1.390 . S
C873 C874 1.387 . S
C873 H876 0.950 . S
C874 C873 1.387 . S
C874 C877 1.387 . S
H875 C871 0.950 . S
H876 C873 0.950 . S
C877 C868 1.390 . S
C877 H870 0.950 . S
C877 C874 1.387 . S
C878 C879 1.387 . S
C878 H882 0.950 . S
C878 C887 1.390 . S
C879 C878 1.387 . S
C879 C881 1.387 . S
H880 C887 0.950 . S
C881 C879 1.387 . S
C881 C883 1.390 . S
C881 H885 0.950 . S
H882 C878 0.950 . S
C883 C881 1.390 . S
C883 C884 1.387 . S
C883 H886 0.950 . S
C884 C883 1.387 . S
C884 C887 1.387 . S
H885 C881 0.950 . S
H886 C883 0.950 . S
C887 C878 1.390 . S
C887 H880 0.950 . S
C887 C884 1.387 . S
C888 C889 1.387 . S
C888 H892 0.950 . S
C888 C897 1.390 . S
C889 C888 1.387 . S
C889 C891 1.387 . S
H890 C897 0.950 . S
C891 C889 1.387 . S
C891 C893 1.390 . S
C891 H895 0.950 . S
H892 C888 0.950 . S
C893 C891 1.390 . S
C893 C894 1.387 . S
C893 H896 0.950 . S
C894 C893 1.387 . S
C894 C897 1.387 . S
H895 C891 0.950 . S
H896 C893 0.950 . S
C897 C888 1.390 . S
C897 H890 0.950 . S
C897 C894 1.387 . S
C898 C899 1.387 . S
C898 H902 0.950 . S
C898 C907 1.390 . S
C899 C898 1.387 . S
C899 C901 1.387 . S
H900 C907 0.950 . S
C901 C899 1.387 . S
C901 C903 1.390 . S
C901 H905 0.950 . S
H902 C898 0.950 . S
C903 C901 1.390 . S
C903 C904 1.387 . S
C903 H906 0.950 . S
C904 C903 1.387 . S
C904 C907 1.387 . S
H905 C901 0.950 . S
H906 C903 0.950 . S
C907 C898 1.390 . S
C907 H900 0.950 . S
C907 C904 1.387 . S
C908 C909 1.387 . S
C908 H912 0.950 . S
C908 C917 1.390 . S
C909 C908 1.387 . S
C909 C911 1.387 . S
H910 C917 0.950 . S
C911 C909 1.387 . S
C911 C913 1.390 . S
C911 H915 0.950 . S
H912 C908 0.950 . S
C913 C911 1.390 . S
C913 C914 1.387 . S
C913 H916 0.950 . S
C914 C913 1.387 . S
C914 C917 1.387 . S
H915 C911 0.950 . S
H916 C913 0.950 . S
C917 C908 1.390 . S
C917 H910 0.950 . S
C917 C914 1.387 . S
C918 C919 1.387 . S
C918 H922 0.950 . S
C918 C927 1.390 1_554 S
C919 C918 1.387 . S
C919 C921 1.387 . S
H920 C927 0.950 . S
C921 C919 1.387 . S
C921 C923 1.385 1_554 S
C921 H925 0.950 . S
H922 C918 0.950 . S
C923 C921 1.385 1_556 S
C923 C924 1.391 . S
C923 H926 0.951 . S
C924 C923 1.391 . S
C924 C927 1.387 . S
H925 C921 0.950 . S
H926 C923 0.951 . S
C927 C918 1.390 1_556 S
C927 H920 0.950 . S
C927 C924 1.387 . S
C928 C929 1.387 . S
C928 H932 0.950 . S
C928 C937 1.390 . S
C929 C928 1.387 . S
C929 C931 1.387 . S
H930 C937 0.950 . S
C931 C929 1.387 . S
C931 C933 1.390 . S
C931 H935 0.950 . S
H932 C928 0.950 . S
C933 C931 1.390 . S
C933 C934 1.387 . S
C933 H936 0.950 . S
C934 C933 1.387 . S
C934 C937 1.387 . S
H935 C931 0.950 . S
H936 C933 0.950 . S
C937 C928 1.390 . S
C937 H930 0.950 . S
C937 C934 1.387 . S
C938 C939 1.387 . S
C938 H942 0.950 . S
C938 C947 1.390 1_554 S
C939 C938 1.387 . S
C939 C941 1.387 1_554 S
H940 C947 0.950 . S
C941 C939 1.387 1_556 S
C941 C943 1.390 . S
C941 H945 0.950 . S
H942 C938 0.950 . S
C943 C941 1.390 . S
C943 C944 1.387 . S
C943 H946 0.950 . S
C944 C943 1.387 . S
C944 C947 1.387 . S
H945 C941 0.950 . S
H946 C943 0.950 . S
C947 C938 1.390 1_556 S
C947 H940 0.950 . S
C947 C944 1.387 . S
C948 C949 1.387 . S
C948 H952 0.950 . S
C948 C957 1.390 . S
C949 C948 1.387 . S
C949 C951 1.387 . S
H950 C957 0.950 . S
C951 C949 1.387 . S
C951 C953 1.390 . S
C951 H955 0.950 . S
H952 C948 0.950 . S
C953 C951 1.390 . S
C953 C954 1.387 . S
C953 H956 0.950 . S
C954 C953 1.387 . S
C954 C957 1.387 . S
H955 C951 0.950 . S
H956 C953 0.950 . S
C957 C948 1.390 . S
C957 H950 0.950 . S
C957 C954 1.387 . S
C958 C959 1.387 . S
C958 H962 0.950 . S
C958 C967 1.390 . S
C959 C958 1.387 . S
C959 C961 1.387 . S
H960 C967 0.950 . S
C961 C959 1.387 . S
C961 C963 1.390 . S
C961 H965 0.950 . S
H962 C958 0.950 . S
C963 C961 1.390 . S
C963 C964 1.387 . S
C963 H966 0.950 . S
C964 C963 1.387 . S
C964 C967 1.387 . S
H965 C961 0.950 . S
H966 C963 0.950 . S
C967 C958 1.390 . S
C967 H960 0.950 . S
C967 C964 1.387 . S
C968 C969 1.387 . S
C968 H972 0.950 . S
C968 C977 1.390 . S
C969 C968 1.387 . S
C969 C971 1.387 . S
H970 C977 0.950 . S
C971 C969 1.387 . S
C971 C973 1.390 . S
C971 H975 0.950 . S
H972 C968 0.950 . S
C973 C971 1.390 . S
C973 C974 1.387 . S
C973 H976 0.950 . S
C974 C973 1.387 . S
C974 C977 1.387 . S
H975 C971 0.950 . S
H976 C973 0.950 . S
C977 C968 1.390 . S
C977 H970 0.950 . S
C977 C974 1.387 . S
C978 C979 1.387 1_545 S
C978 H982 0.950 . S
C978 C987 1.390 . S
C979 C978 1.387 1_565 S
C979 C981 1.387 . S
H980 C987 0.950 . S
C981 C979 1.387 . S
C981 C983 1.390 1_565 S
C981 H985 0.950 . S
H982 C978 0.950 . S
C983 C981 1.390 1_545 S
C983 C984 1.387 . S
C983 H986 0.950 . S
C984 C983 1.387 . S
C984 C987 1.387 . S
H985 C981 0.950 . S
H986 C983 0.950 . S
C987 C978 1.390 . S
C987 H980 0.950 . S
C987 C984 1.387 . S
C988 C989 1.387 . S
C988 H992 0.950 . S
C988 C997 1.390 . S
C989 C988 1.387 . S
C989 C991 1.387 . S
H990 C997 0.950 . S
C991 C989 1.387 . S
C991 C993 1.390 . S
C991 H995 0.950 . S
H992 C988 0.950 . S
C993 C991 1.390 . S
C993 C994 1.387 . S
C993 H996 0.950 . S
C994 C993 1.387 . S
C994 C997 1.387 . S
H995 C991 0.950 . S
H996 C993 0.950 . S
C997 C988 1.390 . S
C997 H990 0.950 . S
C997 C994 1.387 . S
C998 C999 1.387 . S
C998 H1002 0.950 . S
C998 C1007 1.390 . S
C999 C998 1.387 . S
C999 C1001 1.387 1_565 S
H1000 C1007 0.950 . S
C1001 C999 1.387 1_545 S
C1001 C1003 1.390 . S
C1001 H1005 0.950 . S
H1002 C998 0.950 . S
C1003 C1001 1.390 . S
C1003 C1004 1.387 . S
C1003 H1006 0.950 . S
C1004 C1003 1.387 . S
C1004 C1007 1.387 1_545 S
H1005 C1001 0.950 . S
H1006 C1003 0.950 . S
C1007 C998 1.390 . S
C1007 H1000 0.950 . S
C1007 C1004 1.387 1_565 S
C1008 C1009 1.387 . S
C1008 H1012 0.950 . S
C1008 C1017 1.390 . S
C1009 C1008 1.387 . S
C1009 C1011 1.387 . S
H1010 C1017 0.950 . S
C1011 C1009 1.387 . S
C1011 C1013 1.390 . S
C1011 H1015 0.950 . S
H1012 C1008 0.950 . S
C1013 C1011 1.390 . S
C1013 C1014 1.387 . S
C1013 H1016 0.950 . S
C1014 C1013 1.387 . S
C1014 C1017 1.387 . S
H1015 C1011 0.950 . S
H1016 C1013 0.950 . S
C1017 C1008 1.390 . S
C1017 H1010 0.950 . S
C1017 C1014 1.387 . S
C1018 C1019 1.387 . S
C1018 H1022 0.950 . S
C1018 C1027 1.390 . S
C1019 C1018 1.387 . S
C1019 C1021 1.387 . S
H1020 C1027 0.950 . S
C1021 C1019 1.387 . S
C1021 C1023 1.390 . S
C1021 H1025 0.950 . S
H1022 C1018 0.950 . S
C1023 C1021 1.390 . S
C1023 C1024 1.387 . S
C1023 H1026 0.950 . S
C1024 C1023 1.387 . S
C1024 C1027 1.387 . S
H1025 C1021 0.950 . S
H1026 C1023 0.950 . S
C1027 C1018 1.390 . S
C1027 H1020 0.950 . S
C1027 C1024 1.387 . S
C1028 C1029 1.387 . S
C1028 H1032 0.950 . S
C1028 C1037 1.390 . S
C1029 C1028 1.387 . S
C1029 C1031 1.387 . S
H1030 C1037 0.950 . S
C1031 C1029 1.387 . S
C1031 C1033 1.390 . S
C1031 H1035 0.950 . S
H1032 C1028 0.950 . S
C1033 C1031 1.390 . S
C1033 C1034 1.387 . S
C1033 H1036 0.950 1_554 S
C1034 C1033 1.387 . S
C1034 C1037 1.387 . S
H1035 C1031 0.950 . S
H1036 C1033 0.950 1_556 S
C1037 C1028 1.390 . S
C1037 H1030 0.950 . S
C1037 C1034 1.387 . S
C1038 C1039 1.387 . S
C1038 H1042 0.950 . S
C1038 C1047 1.390 . S
C1039 C1038 1.387 . S
C1039 C1041 1.387 . S
H1040 C1047 0.950 . S
C1041 C1039 1.387 . S
C1041 C1043 1.390 . S
C1041 H1045 0.950 . S
H1042 C1038 0.950 . S
C1043 C1041 1.390 . S
C1043 C1044 1.387 . S
C1043 H1046 0.950 . S
C1044 C1043 1.387 . S
C1044 C1047 1.387 . S
H1045 C1041 0.950 . S
H1046 C1043 0.950 . S
C1047 C1038 1.390 . S
C1047 H1040 0.950 . S
C1047 C1044 1.387 . S
C1048 C1049 1.387 . S
C1048 H1052 0.950 . S
C1048 C1057 1.390 . S
C1049 C1048 1.387 . S
C1049 C1051 1.387 . S
H1050 C1057 0.950 . S
C1051 C1049 1.387 . S
C1051 C1053 1.390 . S
C1051 H1055 0.950 . S
H1052 C1048 0.950 . S
C1053 C1051 1.390 . S
C1053 C1054 1.387 . S
C1053 H1056 0.950 . S
C1054 C1053 1.387 . S
C1054 C1057 1.387 . S
H1055 C1051 0.950 . S
H1056 C1053 0.950 . S
C1057 C1048 1.390 . S
C1057 H1050 0.950 . S
C1057 C1054 1.387 . S
C1058 C1059 1.387 . S
C1058 H1062 0.950 . S
C1058 C1067 1.390 . S
C1059 C1058 1.387 . S
C1059 C1061 1.387 . S
H1060 C1067 0.950 . S
C1061 C1059 1.387 . S
C1061 C1063 1.390 . S
C1061 H1065 0.950 . S
H1062 C1058 0.950 . S
C1063 C1061 1.390 . S
C1063 C1064 1.387 . S
C1063 H1066 0.950 . S
C1064 C1063 1.387 . S
C1064 C1067 1.387 . S
H1065 C1061 0.950 . S
H1066 C1063 0.950 . S
C1067 C1058 1.390 . S
C1067 H1060 0.950 . S
C1067 C1064 1.387 . S
C1068 C1069 1.387 . S
C1068 H1072 0.950 . S
C1068 C1077 1.390 1_655 S
C1069 C1068 1.387 . S
C1069 C1071 1.387 . S
H1070 C1077 0.950 . S
C1071 C1069 1.387 . S
C1071 C1073 1.390 1_655 S
C1071 H1075 0.950 . S
H1072 C1068 0.950 . S
C1073 C1071 1.390 1_455 S
C1073 C1074 1.387 . S
C1073 H1076 0.950 . S
C1074 C1073 1.387 . S
C1074 C1077 1.387 . S
H1075 C1071 0.950 . S
H1076 C1073 0.950 . S
C1077 C1068 1.390 1_455 S
C1077 H1070 0.950 . S
C1077 C1074 1.387 . S
C1078 C1079 1.387 . S
C1078 H1082 0.950 . S
C1078 C1087 1.390 . S
C1079 C1078 1.387 . S
C1079 C1081 1.387 . S
H1080 C1087 0.950 . S
C1081 C1079 1.387 . S
C1081 C1083 1.390 . S
C1081 H1085 0.950 . S
H1082 C1078 0.950 . S
C1083 C1081 1.390 . S
C1083 C1084 1.387 . S
C1083 H1086 0.950 . S
C1084 C1083 1.387 . S
C1084 C1087 1.387 . S
H1085 C1081 0.950 . S
H1086 C1083 0.950 . S
C1087 C1078 1.390 . S
C1087 H1080 0.950 . S
C1087 C1084 1.387 . S
C1088 C1089 1.387 . S
C1088 H1092 0.950 . S
C1088 C1097 1.390 . S
C1089 C1088 1.387 . S
C1089 C1091 1.387 . S
H1090 C1097 0.950 . S
C1091 C1089 1.387 . S
C1091 C1093 1.390 . S
C1091 H1095 0.950 . S
H1092 C1088 0.950 . S
C1093 C1091 1.390 . S
C1093 C1094 1.387 . S
C1093 H1096 0.950 . S
C1094 C1093 1.387 . S
C1094 C1097 1.387 . S
H1095 C1091 0.950 . S
H1096 C1093 0.950 . S
C1097 C1088 1.390 . S
C1097 H1090 0.950 . S
C1097 C1094 1.387 . S
C1098 C1099 1.387 . S
C1098 H1102 0.950 . S
C1098 C1107 1.390 . S
C1099 C1098 1.387 . S
C1099 C1101 1.387 . S
H1100 C1107 0.950 . S
C1101 C1099 1.387 . S
C1101 C1103 1.390 . S
C1101 H1105 0.950 . S
H1102 C1098 0.950 . S
C1103 C1101 1.390 . S
C1103 C1104 1.387 . S
C1103 H1106 0.950 . S
C1104 C1103 1.387 . S
C1104 C1107 1.387 . S
H1105 C1101 0.950 . S
H1106 C1103 0.950 . S
C1107 C1098 1.390 . S
C1107 H1100 0.950 . S
C1107 C1104 1.387 . S
C1108 C1109 1.387 . S
C1108 H1112 0.950 . S
C1108 C1117 1.390 . S
C1109 C1108 1.387 . S
C1109 C1111 1.387 . S
H1110 C1117 0.950 . S
C1111 C1109 1.387 . S
C1111 C1113 1.390 . S
C1111 H1115 0.950 . S
H1112 C1108 0.950 . S
C1113 C1111 1.390 . S
C1113 C1114 1.387 . S
C1113 H1116 0.950 . S
C1114 C1113 1.387 . S
C1114 C1117 1.387 . S
H1115 C1111 0.950 . S
H1116 C1113 0.950 . S
C1117 C1108 1.390 . S
C1117 H1110 0.950 . S
C1117 C1114 1.387 . S
C1118 C1119 1.387 . S
C1118 H1122 0.950 . S
C1118 C1127 1.390 1_655 S
C1119 C1118 1.387 . S
C1119 C1121 1.387 . S
H1120 C1127 0.950 . S
C1121 C1119 1.387 . S
C1121 C1123 1.390 1_655 S
C1121 H1125 0.950 . S
H1122 C1118 0.950 . S
C1123 C1121 1.390 1_455 S
C1123 C1124 1.387 . S
C1123 H1126 0.950 . S
C1124 C1123 1.387 . S
C1124 C1127 1.387 . S
H1125 C1121 0.950 . S
H1126 C1123 0.950 . S
C1127 C1118 1.390 1_455 S
C1127 H1120 0.950 . S
C1127 C1124 1.387 . S
C1128 C1129 1.387 . S
C1128 H1132 0.950 . S
C1128 C1137 1.390 . S
C1129 C1128 1.387 . S
C1129 C1131 1.387 . S
H1130 C1137 0.950 . S
C1131 C1129 1.387 . S
C1131 C1133 1.390 . S
C1131 H1135 0.950 . S
H1132 C1128 0.950 . S
C1133 C1131 1.390 . S
C1133 C1134 1.387 . S
C1133 H1136 0.950 . S
C1134 C1133 1.387 . S
C1134 C1137 1.387 . S
H1135 C1131 0.950 . S
H1136 C1133 0.950 . S
C1137 C1128 1.390 . S
C1137 H1130 0.950 . S
C1137 C1134 1.387 . S
C1138 C1139 1.387 . S
C1138 H1142 0.950 . S
C1138 C1147 1.390 . S
C1139 C1138 1.387 . S
C1139 C1141 1.387 . S
H1140 C1147 0.944 1_655 S
C1141 C1139 1.387 . S
C1141 C1143 1.404 . S
C1141 H1145 0.950 . S
H1142 C1138 0.950 . S
C1143 C1141 1.404 . S
C1143 C1144 1.382 1_455 S
C1143 H1146 0.942 1_455 S
C1144 C1143 1.382 1_655 S
C1144 C1147 1.387 1_655 S
H1145 C1141 0.950 . S
H1146 C1143 0.942 1_655 S
C1147 C1138 1.390 . S
C1147 H1140 0.944 1_455 S
C1147 C1144 1.387 1_455 S
C1148 C1149 1.387 . S
C1148 H1152 0.950 . S
C1148 C1157 1.390 . S
C1149 C1148 1.387 . S
C1149 C1151 1.370 1_556 S
H1150 C1157 0.950 . S
C1151 C1149 1.370 1_554 S
C1151 C1153 1.401 . S
C1151 H1155 0.957 . S
H1152 C1148 0.950 . S
C1153 C1151 1.401 . S
C1153 C1154 1.387 . S
C1153 H1156 0.950 . S
C1154 C1153 1.387 . S
C1154 C1157 1.387 1_554 S
H1155 C1151 0.957 . S
H1156 C1153 0.950 . S
C1157 C1148 1.390 . S
C1157 H1150 0.950 . S
C1157 C1154 1.387 1_556 S
C1158 C1159 1.387 . S
C1158 H1162 0.950 . S
C1158 C1167 1.390 . S
C1159 C1158 1.387 . S
C1159 C1161 1.387 . S
H1160 C1167 0.950 . S
C1161 C1159 1.387 . S
C1161 C1163 1.390 . S
C1161 H1165 0.950 . S
H1162 C1158 0.950 . S
C1163 C1161 1.390 . S
C1163 C1164 1.387 . S
C1163 H1166 0.950 . S
C1164 C1163 1.387 . S
C1164 C1167 1.387 . S
H1165 C1161 0.950 . S
H1166 C1163 0.950 . S
C1167 C1158 1.390 . S
C1167 H1160 0.950 . S
C1167 C1164 1.387 . S
C1168 C1169 1.387 . S
C1168 H1172 0.950 . S
C1168 C1177 1.390 . S
C1169 C1168 1.387 . S
C1169 C1171 1.387 . S
H1170 C1177 0.950 . S
C1171 C1169 1.387 . S
C1171 C1173 1.390 . S
C1171 H1175 0.950 . S
H1172 C1168 0.950 . S
C1173 C1171 1.390 . S
C1173 C1174 1.387 . S
C1173 H1176 0.950 . S
C1174 C1173 1.387 . S
C1174 C1177 1.387 . S
H1175 C1171 0.950 . S
H1176 C1173 0.950 . S
C1177 C1168 1.390 . S
C1177 H1170 0.950 . S
C1177 C1174 1.387 . S
C1178 C1179 1.387 . S
C1178 H1182 0.950 . S
C1178 C1187 1.390 . S
C1179 C1178 1.387 . S
C1179 C1181 1.387 . S
H1180 C1187 0.950 1_455 S
C1181 C1179 1.387 . S
C1181 C1183 1.390 . S
C1181 H1185 0.950 . S
H1182 C1178 0.950 . S
C1183 C1181 1.390 . S
C1183 C1184 1.387 1_655 S
C1183 H1186 0.950 1_655 S
C1184 C1183 1.387 1_455 S
C1184 C1187 1.387 1_455 S
H1185 C1181 0.950 . S
H1186 C1183 0.950 1_455 S
C1187 C1178 1.390 . S
C1187 H1180 0.950 1_655 S
C1187 C1184 1.387 1_655 S
C1188 C1189 1.365 1_556 S
C1188 H1192 0.959 . S
C1188 C1197 1.404 . S
C1189 C1188 1.365 1_554 S
C1189 C1191 1.387 . S
H1190 C1197 0.950 . S
C1191 C1189 1.387 . S
C1191 C1193 1.390 . S
C1191 H1195 0.950 . S
H1192 C1188 0.959 . S
C1193 C1191 1.390 . S
C1193 C1194 1.387 1_554 S
C1193 H1196 0.950 . S
C1194 C1193 1.387 1_556 S
C1194 C1197 1.387 . S
H1195 C1191 0.950 . S
H1196 C1193 0.950 . S
C1197 C1188 1.404 . S
C1197 H1190 0.950 . S
C1197 C1194 1.387 . S
C1198 C1199 1.387 . S
C1198 H1202 0.950 . S
C1198 C1207 1.390 . S
C1199 C1198 1.387 . S
C1199 C1201 1.387 . S
H1200 C1207 0.950 . S
C1201 C1199 1.387 . S
C1201 C1203 1.390 . S
C1201 H1205 0.950 . S
H1202 C1198 0.950 . S
C1203 C1201 1.390 . S
C1203 C1204 1.387 . S
C1203 H1206 0.950 . S
C1204 C1203 1.387 . S
C1204 C1207 1.387 . S
H1205 C1201 0.950 . S
H1206 C1203 0.950 . S
C1207 C1198 1.390 . S
C1207 H1200 0.950 . S
C1207 C1204 1.387 . S
C1208 C1209 1.387 . S
C1208 H1212 0.950 . S
C1208 C1217 1.390 . S
C1209 C1208 1.387 . S
C1209 C1211 1.387 . S
H1210 C1217 0.950 . S
C1211 C1209 1.387 . S
C1211 C1213 1.390 . S
C1211 H1215 0.950 . S
H1212 C1208 0.950 . S
C1213 C1211 1.390 . S
C1213 C1214 1.387 . S
C1213 H1216 0.950 . S
C1214 C1213 1.387 . S
C1214 C1217 1.387 . S
H1215 C1211 0.950 . S
H1216 C1213 0.950 . S
C1217 C1208 1.390 . S
C1217 H1210 0.950 . S
C1217 C1214 1.387 . S
C1218 C1219 1.387 . S
C1218 H1222 0.950 . S
C1218 C1227 1.390 . S
C1219 C1218 1.387 . S
C1219 C1221 1.387 . S
H1220 C1227 0.950 . S
C1221 C1219 1.387 . S
C1221 C1223 1.390 1_545 S
C1221 H1225 0.950 . S
H1222 C1218 0.950 . S
C1223 C1221 1.390 1_565 S
C1223 C1224 1.387 . S
C1223 H1226 0.950 . S
C1224 C1223 1.387 . S
C1224 C1227 1.387 1_565 S
H1225 C1221 0.950 . S
H1226 C1223 0.950 . S
C1227 C1218 1.390 . S
C1227 H1220 0.950 . S
C1227 C1224 1.387 1_545 S
C1228 C1229 1.387 1_565 S
C1228 H1232 0.950 . S
C1228 C1237 1.390 . S
C1229 C1228 1.387 1_545 S
C1229 C1231 1.387 . S
H1230 C1237 0.950 . S
C1231 C1229 1.387 . S
C1231 C1233 1.390 1_545 S
C1231 H1235 0.950 . S
H1232 C1228 0.950 . S
C1233 C1231 1.390 1_565 S
C1233 C1234 1.387 . S
C1233 H1236 0.950 . S
C1234 C1233 1.387 . S
C1234 C1237 1.387 . S
H1235 C1231 0.950 . S
H1236 C1233 0.950 . S
C1237 C1228 1.390 . S
C1237 H1230 0.950 . S
C1237 C1234 1.387 . S
C1238 C1239 1.387 . S
C1238 H1242 0.950 . S
C1238 C1247 1.390 . S
C1239 C1238 1.387 . S
C1239 C1241 1.387 . S
H1240 C1247 0.950 . S
C1241 C1239 1.387 . S
C1241 C1243 1.390 . S
C1241 H1245 0.950 . S
H1242 C1238 0.950 . S
C1243 C1241 1.390 . S
C1243 C1244 1.387 . S
C1243 H1246 0.950 . S
C1244 C1243 1.387 . S
C1244 C1247 1.387 . S
H1245 C1241 0.950 . S
H1246 C1243 0.950 . S
C1247 C1238 1.390 . S
C1247 H1240 0.950 . S
C1247 C1244 1.387 . S
C529 C8 1.112 . S
C534 C348 1.112 . S
C539 C282 1.113 . S
C544 C32 1.111 . S
C549 C294 1.112 . S
C554 C52 1.112 . S
C559 C76 1.110 . S
C564 C316 1.112 . S
C569 C96 1.109 . S
C574 C206 1.109 . S
C579 C120 1.110 . S
C584 C228 1.108 . S
C589 C150 1.112 . S
C594 C252 1.112 . S
C599 C172 1.111 . S
C604 C194 1.113 . S
C609 C362 1.111 . S
C614 C448 1.113 . S
C619 C382 1.112 . S
C624 C516 1.112 . S
C629 C406 1.113 . S
C634 C480 1.111 . S
C639 C426 1.110 . S
C644 C502 1.112 . S
C649 C469 1.412 . S
C654 C15 1.376 . S
C659 C29 1.377 . S
C664 C491 1.412 . S
C669 C59 1.377 . S
C674 C367 1.415 . S
C679 C73 1.377 . S
C684 C521 1.412 . S
C689 C439 1.412 1_545 S
C694 C103 1.377 . S
C699 C461 1.412 . S
C704 C117 1.377 . S
C709 C153 1.378 . S
C714 C395 1.412 1_565 S
C719 C175 1.377 . S
C724 C411 1.412 . S
C729 C197 1.376 . S
C734 C109 1.412 . S
C739 C213 1.376 . S
C744 C125 1.412 . S
C749 C235 1.377 . S
C754 C139 1.412 1_556 S
C759 C249 1.378 . S
C764 C161 1.413 . S
C769 C21 1.412 . S
C774 C285 1.376 . S
C779 C301 1.376 . S
C784 C37 1.415 . S
C789 C323 1.376 . S
C794 C65 1.412 1_554 S
C799 C351 1.376 . S
C804 C81 1.415 . S
C809 C329 1.412 . S
C814 C359 1.377 . S
C819 C241 1.415 1_655 S
C824 C389 1.376 . S
C829 C403 1.376 . S
C834 C257 1.415 . S
C839 C183 1.412 . S
C844 C433 1.377 . S
C849 C455 1.376 . S
C854 C219 1.415 . S
C859 C271 1.412 1_455 S
C864 C483 1.377 . S
C869 C307 1.412 . S
C874 C505 1.377 . S
C879 C337 1.415 . S
C884 C513 1.376 . S
C889 C404 1.537 . S
C894 C10 1.592 . S
C899 C40 1.593 . S
C904 C436 1.535 . S
C909 C458 1.537 . S
C914 C54 1.592 . S
C919 C84 1.593 . S
C924 C392 1.535 . S
C929 C494 1.535 1_545 S
C934 C98 1.593 . S
C939 C360 1.535 . S
C944 C128 1.593 . S
C949 C514 1.535 1_565 S
C954 C140 1.593 . S
C959 C472 1.535 . S
C964 C162 1.593 . S
C969 C216 1.534 . S
C974 C184 1.593 . S
C979 C238 1.534 . S
C984 C208 1.593 . S
C989 C230 1.591 . S
C994 C250 1.537 1_556 S
C999 C260 1.592 . S
C1004 C186 1.534 . S
C1009 C340 1.538 . S
C1014 C272 1.591 . S
C1019 C274 1.534 . S
C1024 C296 1.593 . S
C1029 C318 1.593 . S
C1034 C304 1.536 1_554 S
C1039 C338 1.591 . S
C1044 C326 1.538 . S
C1049 C74 1.536 . S
C1054 C370 1.593 . S
C1059 C118 1.535 1_655 S
C1064 C384 1.593 . S
C1069 C142 1.534 . S
C1074 C414 1.593 . S
C1079 C164 1.537 . S
C1084 C428 1.591 . S
C1089 C106 1.537 . S
C1094 C450 1.591 . S
C1099 C30 1.536 1_455 S
C1104 C470 1.593 . S
C1109 C62 1.535 . S
C1114 C492 1.593 . S
C1119 C524 1.591 . S
C1124 C18 1.537 . S
C1129 C7 1.600 . S
C1134 C205 1.601 . S
C1139 C227 1.600 . S
C1144 C43 1.600 . S
C1149 C51 1.600 . S
C1154 C263 1.600 . S
C1159 C87 1.600 . S
C1164 C191 1.600 . S
C1169 C95 1.600 . S
C1174 C345 1.600 . S
C1179 C279 1.600 . S
C1184 C131 1.601 . S
C1189 C147 1.600 . S
C1194 C293 1.600 . S
C1199 C169 1.600 . S
C1204 C315 1.600 . S
C1209 C373 1.600 . S
C1214 C417 1.600 . S
C1219 C381 1.600 . S
C1224 C499 1.600 . S
C1229 C527 1.600 . S
C1234 C425 1.600 . S
C1239 C447 1.600 . S
C1244 C477 1.601 . S
