# Generated by pormake.
# Topology wkj, (6)-cn, num edge types: 1
# Building blocks:
#     Node 0, Type 0, BuildingBlock: CUKXOW_clean_sbu_0, # of connection points: 6
#     Node 1, Type 0, BuildingBlock: CUKXOW_clean_sbu_0, # of connection points: 6
#     Node 2, Type 0, BuildingBlock: CUKXOW_clean_sbu_0, # of connection points: 6
#     Node 3, Type 0, BuildingBlock: CUKXOW_clean_sbu_0, # of connection points: 6
#     Node 4, Type 0, BuildingBlock: CUKXOW_clean_sbu_0, # of connection points: 6
#     Node 5, Type 0, BuildingBlock: CUKXOW_clean_sbu_0, # of connection points: 6
#     Node 6, Type 0, BuildingBlock: CUKXOW_clean_sbu_0, # of connection points: 6
#     Node 7, Type 0, BuildingBlock: CUKXOW_clean_sbu_0, # of connection points: 6
#     Node 8, Type 0, BuildingBlock: CUKXOW_clean_sbu_0, # of connection points: 6
#     Node 9, Type 0, BuildingBlock: CUKXOW_clean_sbu_0, # of connection points: 6
#     Node 10, Type 0, BuildingBlock: CUKXOW_clean_sbu_0, # of connection points: 6
#     Node 11, Type 0, BuildingBlock: CUKXOW_clean_sbu_0, # of connection points: 6
#     Edge 12, Type (0, 0), BuildingBlock: AJUNOK_clean_linker_0, # of connection points: 2
#     Edge 13, Type (0, 0), BuildingBlock: AJUNOK_clean_linker_0, # of connection points: 2
#     Edge 14, Type (0, 0), BuildingBlock: AJUNOK_clean_linker_0, # of connection points: 2
#     Edge 15, Type (0, 0), BuildingBlock: AJUNOK_clean_linker_0, # of connection points: 2
#     Edge 16, Type (0, 0), BuildingBlock: AJUNOK_clean_linker_0, # of connection points: 2
#     Edge 17, Type (0, 0), BuildingBlock: AJUNOK_clean_linker_0, # of connection points: 2
#     Edge 18, Type (0, 0), BuildingBlock: AJUNOK_clean_linker_0, # of connection points: 2
#     Edge 19, Type (0, 0), BuildingBlock: AJUNOK_clean_linker_0, # of connection points: 2
#     Edge 20, Type (0, 0), BuildingBlock: AJUNOK_clean_linker_0, # of connection points: 2
#     Edge 21, Type (0, 0), BuildingBlock: AJUNOK_clean_linker_0, # of connection points: 2
#     Edge 22, Type (0, 0), BuildingBlock: AJUNOK_clean_linker_0, # of connection points: 2
#     Edge 23, Type (0, 0), BuildingBlock: AJUNOK_clean_linker_0, # of connection points: 2
#     Edge 24, Type (0, 0), BuildingBlock: AJUNOK_clean_linker_0, # of connection points: 2
#     Edge 25, Type (0, 0), BuildingBlock: AJUNOK_clean_linker_0, # of connection points: 2
#     Edge 26, Type (0, 0), BuildingBlock: AJUNOK_clean_linker_0, # of connection points: 2
#     Edge 27, Type (0, 0), BuildingBlock: AJUNOK_clean_linker_0, # of connection points: 2
#     Edge 28, Type (0, 0), BuildingBlock: AJUNOK_clean_linker_0, # of connection points: 2
#     Edge 29, Type (0, 0), BuildingBlock: AJUNOK_clean_linker_0, # of connection points: 2
#     Edge 30, Type (0, 0), BuildingBlock: AJUNOK_clean_linker_0, # of connection points: 2
#     Edge 31, Type (0, 0), BuildingBlock: AJUNOK_clean_linker_0, # of connection points: 2
#     Edge 32, Type (0, 0), BuildingBlock: AJUNOK_clean_linker_0, # of connection points: 2
#     Edge 33, Type (0, 0), BuildingBlock: AJUNOK_clean_linker_0, # of connection points: 2
#     Edge 34, Type (0, 0), BuildingBlock: AJUNOK_clean_linker_0, # of connection points: 2
#     Edge 35, Type (0, 0), BuildingBlock: AJUNOK_clean_linker_0, # of connection points: 2
#     Edge 36, Type (0, 0), BuildingBlock: AJUNOK_clean_linker_0, # of connection points: 2
#     Edge 37, Type (0, 0), BuildingBlock: AJUNOK_clean_linker_0, # of connection points: 2
#     Edge 38, Type (0, 0), BuildingBlock: AJUNOK_clean_linker_0, # of connection points: 2
#     Edge 39, Type (0, 0), BuildingBlock: AJUNOK_clean_linker_0, # of connection points: 2
#     Edge 40, Type (0, 0), BuildingBlock: AJUNOK_clean_linker_0, # of connection points: 2
#     Edge 41, Type (0, 0), BuildingBlock: AJUNOK_clean_linker_0, # of connection points: 2
#     Edge 42, Type (0, 0), BuildingBlock: AJUNOK_clean_linker_0, # of connection points: 2
#     Edge 43, Type (0, 0), BuildingBlock: AJUNOK_clean_linker_0, # of connection points: 2
#     Edge 44, Type (0, 0), BuildingBlock: AJUNOK_clean_linker_0, # of connection points: 2
#     Edge 45, Type (0, 0), BuildingBlock: AJUNOK_clean_linker_0, # of connection points: 2
#     Edge 46, Type (0, 0), BuildingBlock: AJUNOK_clean_linker_0, # of connection points: 2
#     Edge 47, Type (0, 0), BuildingBlock: AJUNOK_clean_linker_0, # of connection points: 2
# Relax obj value: 0.318
# Max RMSD: 0.170
# Mean RMSD: 0.170
data_MOF--net-wkj--node1-CUKXOW_clean_sbu_0--edge1-AJUNOK_clean_linker_0
_symmetry_space_group_name_H-M    P1
_symmetry_Int_Tables_number       1
_symmetry_cell_setting            triclinic
loop_
_symmetry_equiv_pos_as_xyz
'x, y, z'
_cell_length_a     37.865662
_cell_length_b     38.193152
_cell_length_c     18.408035
_cell_angle_alpha  89.571088
_cell_angle_beta   90.021473
_cell_angle_gamma 120.04538
loop_
_atom_site_label
_atom_site_type_symbol
_atom_site_fract_x
_atom_site_fract_y
_atom_site_fract_z
_atom_type_partial_charge
Tb0 Tb 0.44117 0.07564 0.37643 0.0
C1 C 0.4064 0.12375 0.30128 0.0
Tb2 Tb 0.36698 0.02932 0.31457 0.0
O3 O 0.48132 0.06861 0.30333 0.0
O4 O 0.42785 0.06499 0.25957 0.0
O5 O 0.43539 0.12652 0.34343 0.0
C6 C 0.30128 -0.00267 0.23174 0.0
O7 O 0.37598 0.08824 0.28282 0.0
C8 C 0.3487 0.01529 0.4575 0.0
C9 C 0.40861 -0.01306 0.36257 0.0
O10 O 0.31553 0.03101 0.26625 0.0
O11 O 0.325 -0.01777 0.24216 0.0
O12 O 0.32303 0.00227 0.40486 0.0
O13 O 0.38386 0.03791 0.42907 0.0
O14 O 0.38619 -0.01438 0.30748 0.0
O15 O 0.41437 0.01352 0.41212 0.0
C16 C 0.49505 0.11888 0.47782 0.0
O17 O 0.49903 0.09589 0.43104 0.0
O18 O 0.46089 0.11791 0.46619 0.0
C19 C 0.4597 0.06137 0.24496 0.0
Tb20 Tb 0.32661 0.45524 0.70288 0.0
C21 C 0.2426 0.40541 0.63202 0.0
Tb22 Tb 0.31504 0.38923 0.62977 0.0
O23 O 0.36287 0.5036 0.62859 0.0
O24 O 0.32161 0.44623 0.58514 0.0
O25 O 0.26144 0.42779 0.68819 0.0
C26 C 0.30441 0.3272 0.54782 0.0
O27 O 0.26025 0.38936 0.59421 0.0
C28 C 0.3119 0.37578 0.77664 0.0
C29 C 0.40073 0.45289 0.65664 0.0
O30 O 0.27634 0.33495 0.56717 0.0
O31 O 0.33903 0.35493 0.57358 0.0
O32 O 0.2875 0.35078 0.72884 0.0
O33 O 0.3355 0.40713 0.74073 0.0
O34 O 0.37881 0.42729 0.60597 0.0
O35 O 0.38176 0.4527 0.71651 0.0
C36 C 0.32646 0.50358 0.80563 0.0
O37 O 0.35099 0.51483 0.75047 0.0
O38 O 0.30276 0.46469 0.80422 0.0
C39 C 0.35139 0.48238 0.56998 0.0
Tb40 Tb 0.82351 0.35171 1.0346 0.0
C41 C 0.7887 0.26432 0.97982 0.0
Tb42 Tb 0.87902 0.33466 0.96977 0.0
O43 O 0.82759 0.39575 0.95688 0.0
O44 O 0.83395 0.34697 0.92054 0.0
O45 O 0.78072 0.2902 1.01055 0.0
C46 C 0.92168 0.31959 0.87016 0.0
O47 O 0.82614 0.27442 0.96145 0.0
C48 C 0.8859 0.32814 0.1164 0.0
C49 C 0.91091 0.4203 1.02357 0.0
O50 O 0.88296 0.30614 0.86994 0.0
O51 O 0.9371 0.34287 0.92593 0.0
O52 O 0.89058 0.30709 1.06615 0.0
O53 O 0.87599 0.35114 1.08241 0.0
O54 O 0.91251 0.40031 0.96663 0.0
O55 O 0.87719 0.40565 1.0621 0.0
C56 C 0.76894 0.35195 0.1253 0.0
O57 O 0.78579 0.32975 0.13193 0.0
O58 O 0.78357 0.37442 1.06781 0.0
C59 C 0.83634 0.38071 0.90167 0.0
Tb60 Tb 0.47958 0.87612 0.3609 0.0
C61 C 0.50766 0.81563 0.32377 0.0
Tb62 Tb 0.54533 0.90418 0.3057 0.0
O63 O 0.44052 0.8865 0.29149 0.0
O64 O 0.48543 0.87624 0.24229 0.0
O65 O 0.47512 0.81937 0.32734 0.0
C66 C 0.61255 0.92554 0.2248 0.0
O67 O 0.54326 0.84815 0.32482 0.0
C68 C 0.56029 0.9306 0.44563 0.0
C69 C 0.52522 0.96441 0.31235 0.0
O70 O 0.57902 0.89103 0.22318 0.0
O71 O 0.60777 0.94748 0.27224 0.0
O72 O 0.57983 0.95078 0.38857 0.0
O73 O 0.53375 0.89521 0.42434 0.0
O74 O 0.53623 0.94955 0.26033 0.0
O75 O 0.50659 0.94102 0.36898 0.0
C76 C 0.41885 0.83887 0.45691 0.0
O77 O 0.42768 0.87142 0.42107 0.0
O78 O 0.44479 0.82774 0.44023 0.0
C79 C 0.45489 0.88276 0.23035 0.0
Tb80 Tb 0.56778 0.50067 0.68546 0.0
C81 C 0.65823 0.5234 0.66956 0.0
Tb82 Tb 0.60603 0.55579 0.65543 0.0
O83 O 0.51987 0.45651 0.62206 0.0
O84 O 0.57523 0.50443 0.57141 0.0
O85 O 0.6213 0.49475 0.65445 0.0
C86 C 0.65681 0.61889 0.5708 0.0
O87 O 0.66066 0.55683 0.68731 0.0
C88 C 0.58976 0.56608 0.7962 0.0
C89 C 0.53615 0.5582 0.62761 0.0
O90 O 0.65563 0.58444 0.57629 0.0
O91 O 0.6313 0.61825 0.61879 0.0
O92 O 0.62559 0.58015 0.76751 0.0
O93 O 0.56452 0.54498 0.74861 0.0
O94 O 0.57253 0.57905 0.60355 0.0
O95 O 0.52743 0.52651 0.66984 0.0
C96 C 0.55612 0.45111 0.7949 0.0
O97 O 0.53003 0.44405 0.74322 0.0
O98 O 0.58843 0.48622 0.78528 0.0
C99 C 0.53924 0.47219 0.56138 0.0
Tb100 Tb 0.09395 0.58824 1.06343 0.0
C101 C 0.1135 0.66771 1.00244 0.0
Tb102 Tb 0.03298 0.58325 1.0132 0.0
O103 O 0.0863 0.53701 0.99264 0.0
O104 O 0.07684 0.5803 0.94686 0.0
O105 O 0.1316 0.64858 1.02588 0.0
C106 C -0.01804 0.5912 0.92449 0.0
O107 O 0.07359 0.6487 0.99762 0.0
C108 C 0.00993 0.5785 0.1451 0.0
C109 C 0.0323 0.51688 0.11747 0.0
O110 O -0.00015 0.6135 0.97982 0.0
O111 O -0.00818 0.56315 0.92062 0.0
O112 O -0.01394 0.55969 1.09125 0.0
O113 O 0.04844 0.59991 0.12471 0.0
O114 O 0.01824 0.52205 1.0538 0.0
O115 O 0.06222 0.54735 0.14655 0.0
C116 C 0.15384 0.59166 0.14747 0.0
O117 O 0.14429 0.61976 0.14004 0.0
O118 O 0.13505 0.56652 1.09541 0.0
C119 C 0.07659 0.54777 0.93249 0.0
Tb120 Tb 0.83945 0.47821 0.47918 0.0
C121 C 0.80109 0.52401 0.55427 0.0
Tb122 Tb 0.89202 0.5434 0.56177 0.0
O123 O 0.8269 0.4292 0.55455 0.0
O124 O 0.8409 0.48572 0.59614 0.0
O125 O 0.7945 0.49377 0.51215 0.0
C126 C 0.93499 0.59872 0.65901 0.0
O127 O 0.83821 0.55003 0.57717 0.0
C128 C 0.9237 0.5553 0.42866 0.0
C129 C 0.91316 0.47855 0.53221 0.0
O130 O 0.9115 0.60236 0.612 0.0
O131 O 0.93284 0.56407 0.65254 0.0
O132 O 0.94358 0.56859 0.48814 0.0
O133 O 0.88532 0.53881 0.44348 0.0
O134 O 0.91393 0.50256 0.58336 0.0
O135 O 0.8957 0.47778 0.47019 0.0
C136 C 0.78891 0.4305 0.37736 0.0
O137 O 0.80696 0.42016 0.42526 0.0
O138 O 0.80129 0.46864 0.38368 0.0
C139 C 0.83486 0.45038 0.61299 0.0
Tb140 Tb 0.32686 0.8568 0.82135 0.0
C141 C 0.2402 0.81668 0.88558 0.0
Tb142 Tb 0.30727 0.90788 0.88159 0.0
O143 O 0.37108 0.85704 0.89508 0.0
O144 O 0.3255 0.86743 0.93879 0.0
O145 O 0.26556 0.81056 0.84715 0.0
C146 C 0.28098 0.94649 0.96416 0.0
O147 O 0.25039 0.85306 0.90741 0.0
C148 C 0.30539 0.9249 0.74039 0.0
C149 C 0.392 0.94216 0.83782 0.0
O150 O 0.25831 0.91124 0.93641 0.0
O151 O 0.319 0.95924 0.94863 0.0
O152 O 0.29503 0.9393 0.7938 0.0
O153 O 0.31456 0.89919 0.76577 0.0
O154 O 0.37165 0.9454 0.89209 0.0
O155 O 0.36982 0.91756 0.78653 0.0
C156 C 0.33271 0.8107 0.71932 0.0
O157 O 0.36055 0.83225 0.76626 0.0
O158 O 0.30097 0.81397 0.73256 0.0
C159 C 0.35895 0.86668 0.9534 0.0
Tb160 Tb 0.43203 0.35408 0.1611 0.0
C161 C 0.41311 0.2668 0.17774 0.0
Tb162 Tb 0.37526 0.31459 0.19181 0.0
O163 O 0.47193 0.40491 0.2231 0.0
O164 O 0.42605 0.34995 0.27583 0.0
O165 O 0.4403 0.30334 0.19593 0.0
C166 C 0.32027 0.26411 0.2891 0.0
O167 O 0.37917 0.26332 0.15698 0.0
C168 C 0.36232 0.32531 1.04909 0.0
C169 C 0.36632 0.38042 0.19849 0.0
O170 O 0.35616 0.26878 0.27748 0.0
O171 O 0.31455 0.28575 0.24065 0.0
O172 O 0.34347 0.29166 1.08563 0.0
O173 O 0.38736 0.35191 1.09114 0.0
O174 O 0.34718 0.34616 0.23068 0.0
O175 O 0.39955 0.38885 0.16039 0.0
C176 C 0.48825 0.37262 1.05982 0.0
O177 O 0.49042 0.39615 0.11215 0.0
O178 O 0.45412 0.33861 1.06432 0.0
C179 C 0.45653 0.38693 0.28466 0.0
Tb180 Tb 0.0405 0.4428 0.50617 0.0
C181 C 0.1061 0.41657 0.51458 0.0
Tb182 Tb 0.02358 0.38788 0.52485 0.0
O183 O 0.04182 0.48623 0.58047 0.0
O184 O 0.04684 0.43488 0.61783 0.0
O185 O 0.09722 0.44314 0.53984 0.0
C186 C 0.01041 0.32733 0.61823 0.0
O187 O 0.07563 0.38609 0.48529 0.0
C188 C -0.00643 0.38173 0.38644 0.0
C189 C 0.95119 0.38248 0.56471 0.0
O190 O -0.01073 0.32473 0.56063 0.0
O191 O 0.04224 0.36326 0.61562 0.0
O192 O 0.01644 0.36743 0.40943 0.0
O193 O -0.00888 0.40201 0.43848 0.0
O194 O -0.03627 0.35728 0.56547 0.0
O195 O -0.0245 0.41884 0.53565 0.0
C196 C 0.08506 0.49422 0.40041 0.0
O197 O 0.06517 0.50159 0.45027 0.0
O198 O 0.07844 0.45768 0.40908 0.0
C199 C 0.04622 0.46763 0.63673 0.0
Tb200 Tb 0.56753 0.04858 0.83814 0.0
C201 C 0.6543 0.11203 0.88341 0.0
Tb202 Tb 0.60716 0.02322 0.89029 0.0
O203 O 0.51774 0.03777 0.90657 0.0
O204 O 0.5735 0.04833 0.95628 0.0
O205 O 0.61694 0.10533 0.87889 0.0
C206 C 0.65441 0.00189 0.96683 0.0
O207 O 0.66023 0.08152 0.87718 0.0
C208 C 0.59496 -0.00213 0.7495 0.0
C209 C 0.52711 0.96069 0.88913 0.0
O210 O 0.6271 -0.01965 0.91965 0.0
O211 O 0.65555 0.0363 0.96989 0.0
O212 O 0.5941 -0.02294 0.80551 0.0
O213 O 0.60406 0.03282 0.77246 0.0
O214 O 0.55408 -0.02292 0.9394 0.0
O215 O 0.52999 -0.01676 0.83223 0.0
C216 C 0.54885 0.08855 0.74098 0.0
O217 O 0.52273 0.05587 0.77468 0.0
O218 O 0.58514 0.09817 0.76101 0.0
C219 C 0.53635 0.04205 0.96763 0.0
Tb220 Tb 0.45269 0.58585 0.15153 0.0
C221 C 0.49993 0.66936 0.22335 0.0
Tb222 Tb 0.52475 0.60214 0.22254 0.0
O223 O 0.41034 0.54097 0.22675 0.0
O224 O 0.46505 0.58834 0.26802 0.0
O225 O 0.46966 0.64657 0.18014 0.0
C226 C 0.58554 0.62185 0.31489 0.0
O227 O 0.5251 0.65771 0.24766 0.0
C228 C 0.54536 0.6079 1.08126 0.0
C229 C 0.46972 0.51914 0.16749 0.0
O230 O 0.57666 0.6469 0.28406 0.0
O231 O 0.55933 0.58509 0.29583 0.0
O232 O 0.56935 0.61518 0.13568 0.0
O233 O 0.51061 0.59957 0.10696 0.0
O234 O 0.49217 0.53723 0.22456 0.0
O235 O 0.46881 0.54236 0.11593 0.0
C236 C 0.39464 0.57872 1.0613 0.0
O237 O 0.39117 0.55216 0.10893 0.0
O238 O 0.43158 0.60911 1.06295 0.0
C239 C 0.43198 0.55508 0.28466 0.0
C240 C 0.37742 0.15806 0.22693 0.0
C241 C 0.4098 0.1608 0.26859 0.0
C242 C 0.37989 0.19231 0.19409 0.0
C243 C 0.4148 0.23073 0.20169 0.0
H244 H 0.34958 0.12934 0.22026 0.0
H245 H 0.35357 0.18869 0.1644 0.0
S246 S 0.50964 0.25394 0.29946 0.0
N247 N 0.47921 0.20484 0.31148 0.0
N248 N 0.48354 0.26925 0.24984 0.0
C249 C 0.44806 0.23379 0.24078 0.0
C250 C 0.44559 0.19885 0.27443 0.0
C251 C 0.19864 0.43678 0.62485 0.0
C252 C 0.20645 0.40602 0.60292 0.0
C253 C 0.16733 0.44104 0.59345 0.0
C254 C 0.14219 0.41448 0.53936 0.0
H255 H 0.2173 0.45835 0.66584 0.0
H256 H 0.16235 0.46493 0.61294 0.0
S257 S 0.1494 0.32845 0.46323 0.0
N258 N 0.18638 0.34846 0.52375 0.0
N259 N 0.12704 0.35608 0.46524 0.0
C260 C 0.14956 0.38351 0.51685 0.0
C261 C 0.18173 0.37936 0.54856 0.0
C262 C 0.76105 0.19723 0.92004 0.0
C263 C 0.75407 0.22478 0.95878 0.0
C264 C 0.72849 0.16103 0.89456 0.0
C265 C 0.68792 0.15142 0.90615 0.0
H266 H 0.79183 0.20372 0.90869 0.0
H267 H 0.73518 0.14049 0.86532 0.0
S268 S 0.65281 0.21228 1.00671 0.0
N269 N 0.70303 0.2391 1.00951 0.0
N270 N 0.64221 0.1714 0.9604 0.0
C271 C 0.68038 0.17849 0.9449 0.0
C272 C 0.71339 0.21506 0.97172 0.0
C273 C 0.46876 0.71216 0.24527 0.0
C274 C 0.50271 0.70661 0.2514 0.0
C275 C 0.46979 0.74662 0.27264 0.0
C276 C 0.50494 0.77692 0.30642 0.0
H277 H 0.44104 0.68975 0.21906 0.0
H278 H 0.44335 0.75012 0.26486 0.0
S279 S 0.60107 0.7759 0.34075 0.0
N280 N 0.57177 0.7334 0.29724 0.0
N281 N 0.57377 0.79845 0.34855 0.0
C282 C 0.53871 0.7713 0.315 0.0
C283 C 0.53759 0.73607 0.28746 0.0
C284 C 0.73218 0.55907 0.63607 0.0
C285 C 0.69527 0.5224 0.64761 0.0
C286 C 0.76655 0.55962 0.6063 0.0
C287 C 0.7651 0.52356 0.58649 0.0
H288 H 0.73428 0.58778 0.64799 0.0
H289 H 0.79404 0.58845 0.59715 0.0
S290 S 0.67807 0.41935 0.61667 0.0
N291 N 0.66089 0.44915 0.64423 0.0
N292 N 0.72532 0.44983 0.58886 0.0
C293 C 0.72902 0.48659 0.60114 0.0
C294 C 0.69414 0.4861 0.63154 0.0
C295 C 0.18611 0.74511 0.87098 0.0
C296 C 0.20183 0.78125 0.91036 0.0
C297 C 0.15494 0.70876 0.89962 0.0
C298 C 0.13843 0.70734 0.96841 0.0
H299 H 0.19929 0.7445 0.81909 0.0
H300 H 0.1452 0.68115 0.86944 0.0
S301 S 0.16614 0.79343 1.09122 0.0
N302 N 0.19633 0.81372 1.01987 0.0
N303 N 0.1376 0.74468 1.07371 0.0
C304 C 0.15189 0.74331 1.00674 0.0
C305 C 0.18362 0.78059 0.97747 0.0
C306 C 0.53834 0.06185 0.10454 0.0
C307 C 0.51744 0.04894 1.03784 0.0
C308 C 0.52002 0.06784 0.16798 0.0
C309 C 0.47889 0.05997 0.17091 0.0
H310 H 0.56927 0.06743 0.10817 0.0
H311 H 0.53833 0.07752 0.21678 0.0
S312 S 0.41133 0.03041 1.01009 0.0
N313 N 0.4536 0.03354 0.9782 0.0
N314 N 0.41936 0.04127 1.09729 0.0
C315 C 0.45809 0.04836 0.10426 0.0
C316 C 0.47709 0.0436 1.03873 0.0
C317 C 0.37582 0.50019 0.36337 0.0
C318 C 0.41171 0.53888 0.35867 0.0
C319 C 0.35645 0.48166 0.43024 0.0
C320 C 0.36977 0.50222 0.49643 0.0
H321 H 0.36202 0.48385 0.31422 0.0
H322 H 0.33052 0.45122 0.42971 0.0
S323 S 0.45393 0.60966 0.5128 0.0
N324 N 0.45517 0.59951 0.42614 0.0
N325 N 0.41657 0.56791 0.54972 0.0
C326 C 0.40282 0.54298 0.49148 0.0
C327 C 0.42409 0.56062 0.42369 0.0
C328 C 0.8256 0.37473 0.76324 0.0
C329 C 0.8386 0.39823 0.82658 0.0
C330 C 0.82386 0.39181 0.69537 0.0
C331 C 0.83512 0.43318 0.68731 0.0
H332 H 0.81589 0.34284 0.76625 0.0
H333 H 0.81367 0.37226 0.64847 0.0
S334 S 0.87502 0.50846 0.83476 0.0
N335 N 0.86555 0.46591 0.87513 0.0
N336 N 0.86199 0.49717 0.74894 0.0
C337 C 0.849 0.45697 0.74984 0.0
C338 C 0.85086 0.43976 0.81868 0.0
C339 C 0.41144 0.8576 1.03008 0.0
C340 C 0.37953 0.86735 1.02729 0.0
C341 C 0.43587 0.86286 1.09327 0.0
C342 C 0.42906 0.87651 0.1601 0.0
H343 H 0.41906 0.84715 0.98122 0.0
H344 H 0.46035 0.85608 1.08936 0.0
S345 S 0.34412 0.89867 0.18887 0.0
N346 N 0.34084 0.88815 0.10148 0.0
N347 N 0.38224 0.89367 0.22035 0.0
C348 C 0.39497 0.88328 0.15951 0.0
C349 C 0.37142 0.87964 1.0941 0.0
C350 C 0.46187 0.39273 0.4253 0.0
C351 C 0.47838 0.40759 0.3557 0.0
C352 C 0.48212 0.4135 0.49001 0.0
C353 C 0.52035 0.45037 0.48971 0.0
H354 H 0.43267 0.36512 0.43005 0.0
H355 H 0.46708 0.40049 0.54128 0.0
S356 S 0.57757 0.50274 0.32259 0.0
N357 N 0.53645 0.4625 0.29184 0.0
N358 N 0.57347 0.50019 0.41198 0.0
C359 C 0.53738 0.46528 0.42071 0.0
C360 C 0.51675 0.44441 0.35471 0.0
C361 C 0.05945 0.54177 0.79483 0.0
C362 C 0.06921 0.5267 0.85764 0.0
C363 C 0.0522 0.52255 0.72558 0.0
C364 C 0.05397 0.48665 0.7136 0.0
H365 H 0.05733 0.56892 0.79898 0.0
H366 H 0.04496 0.53623 0.68055 0.0
S367 S 0.07809 0.43384 0.85886 0.0
N368 N 0.08006 0.47269 0.90149 0.0
N369 N 0.06631 0.43712 0.77361 0.0
C370 C 0.06341 0.47108 0.77602 0.0
C371 C 0.07097 0.49078 0.84669 0.0
C372 C 0.24493 0.93478 1.07927 0.0
C373 C 0.2682 0.9621 1.02382 0.0
C374 C 0.24991 0.9479 0.15092 0.0
C375 C 0.27682 -0.01143 0.16687 0.0
H376 H 0.22823 0.90251 1.06936 0.0
H377 H 0.23739 0.92549 0.19417 0.0
S378 S 0.3326 0.07309 1.03681 0.0
N379 N 0.3107 0.0321 0.98617 0.0
N380 N 0.31773 0.05738 0.12101 0.0
C381 C 0.29291 0.01707 0.11016 0.0
C382 C 0.28929 0.00355 1.03775 0.0
C383 C 0.33194 0.26808 0.42122 0.0
C384 C 0.30469 0.26071 0.3635 0.0
C385 C 0.32984 0.28701 0.48448 0.0
C386 C 0.29943 0.29739 0.49292 0.0
H387 H 0.35822 0.26426 0.414 0.0
H388 H 0.35394 0.29635 0.52429 0.0
S389 S 0.21388 0.27324 0.36703 0.0
N390 N 0.24172 0.2573 0.32508 0.0
N391 N 0.23646 0.29111 0.44577 0.0
C392 C 0.26817 0.28403 0.44101 0.0
C393 C 0.27091 0.26566 0.37585 0.0
C394 C 0.00909 0.33074 0.7532 0.0
C395 C -0.01095 0.31134 0.68858 0.0
C396 C -0.01302 0.33121 0.81411 0.0
C397 C 0.94423 0.3122 0.81237 0.0
H398 H 0.04206 0.34901 0.7544 0.0
H399 H 0.00354 0.34872 0.86096 0.0
S400 S 0.87708 0.2495 0.66283 0.0
N401 N 0.92381 0.26625 0.63208 0.0
N402 N 0.88246 0.2678 0.74558 0.0
C403 C 0.92379 0.28867 0.75156 0.0
C404 C 0.94621 0.28778 0.69008 0.0
C405 C 0.6665 -0.01458 0.16035 0.0
C406 C 0.64139 0.94309 0.16372 0.0
C407 C 0.67777 0.00553 1.09321 0.0
C408 C 0.6643 -0.0164 1.02842 0.0
H409 H 0.6727 0.00344 0.20889 0.0
H410 H 0.69194 0.0382 1.0925 0.0
S411 S 0.61323 0.87221 1.01002 0.0
N412 N 0.61459 0.87982 1.09844 0.0
N413 N 0.6365 0.91762 0.97191 0.0
C414 C 0.64716 0.94135 1.03178 0.0
C415 C 0.63533 0.92091 0.10006 0.0
C416 C 0.66091 0.61549 0.4381 0.0
C417 C 0.65945 0.63699 0.49881 0.0
C418 C 0.63876 0.61264 0.37548 0.0
C419 C 0.61664 0.63294 0.37079 0.0
H420 H 0.67407 0.59607 0.44254 0.0
H421 H 0.63679 0.59248 0.33263 0.0
S422 S 0.61476 0.70384 0.50457 0.0
N423 N 0.64251 0.68661 0.54325 0.0
N424 N 0.60217 0.68246 0.42391 0.0
C425 C 0.62122 0.6603 0.42533 0.0
C426 C 0.64305 0.66259 0.48965 0.0
C427 C 0.00295 0.62106 0.80338 0.0
C428 C -0.02566 0.60844 0.86 0.0
C429 C -0.00648 0.62985 0.73507 0.0
C430 C -0.04559 0.62376 0.72151 0.0
H431 H 0.03141 0.6211 0.81041 0.0
H432 H 0.01392 0.63408 0.69028 0.0
S433 S 0.87547 0.6057 0.85823 0.0
N434 N 0.91127 0.60266 0.90464 0.0
N435 N 0.89208 0.6163 0.7734 0.0
C436 C 0.92903 0.61895 0.78064 0.0
C437 C 0.93907 0.61105 0.85101 0.0
C438 C 0.45191 -0.02083 0.27237 0.0
C439 C 0.44488 -0.01517 0.34538 0.0
C440 C 0.49065 -0.01101 0.24928 0.0
C441 C 0.52113 -0.00079 0.30088 0.0
H442 H 0.42844 -0.03011 0.2316 0.0
H443 H 0.49439 -0.01891 0.19445 0.0
S444 S 0.52379 0.03029 0.48968 0.0
N445 N 0.47555 0.00946 0.46509 0.0
N446 N 0.54886 0.03104 0.41577 0.0
C447 C 0.51791 0.01482 0.36697 0.0
C448 C 0.47839 0.00252 0.39347 0.0
C449 C 0.4477 0.52534 0.68122 0.0
C450 C 0.4349 0.49194 0.63421 0.0
C451 C 0.4801 0.56313 0.66139 0.0
C452 C 0.50409 0.56498 0.60242 0.0
H453 H 0.4337 0.52237 0.73391 0.0
H454 H 0.49224 0.58697 0.70144 0.0
S455 S 0.46924 0.49901 0.44314 0.0
N456 N 0.4373 0.47187 0.50895 0.0
N457 N 0.5006 0.54374 0.47809 0.0
C458 C 0.4845 0.53819 0.5459 0.0
C459 C 0.45112 0.49946 0.56318 0.0
C460 C 0.94324 0.45813 0.13438 0.0
C461 C 0.946 0.43906 1.07055 0.0
C462 C -0.02448 0.47417 0.18317 0.0
C463 C 0.01245 0.47931 0.15796 0.0
H464 H 0.917 0.46147 0.14577 0.0
H465 H -0.02514 0.49196 0.22815 0.0
S466 S 0.02464 0.40952 1.03942 0.0
N467 N -0.01942 0.40552 1.01633 0.0
N468 N 0.04203 0.44159 0.10771 0.0
C469 C 0.0106 0.44882 0.11526 0.0
C470 C -0.02192 0.43036 1.06565 0.0
C471 C 0.88703 0.36993 0.53422 0.0
C472 C 0.91124 0.3714 0.59243 0.0
C473 C 0.88983 0.4062 0.51208 0.0
C474 C 0.90991 0.44073 0.55678 0.0
H475 H 0.87595 0.34525 0.49596 0.0
H476 H 0.87752 0.40727 0.45953 0.0
S477 S 0.94243 0.44013 0.74739 0.0
N478 N 0.92948 0.39494 0.71551 0.0
N479 N 0.93449 0.46443 0.6804 0.0
C480 C 0.9199 0.4354 0.62854 0.0
C481 C 0.91651 0.39793 0.64815 0.0
C482 C 0.44078 0.94602 0.93039 0.0
C483 C 0.42799 0.93983 0.85726 0.0
C484 C 0.4688 0.93532 0.9547 0.0
C485 C 0.48893 0.92483 0.90358 0.0
H486 H 0.4279 0.95724 0.97002 0.0
H487 H 0.48068 0.94367 1.00936 0.0
S488 S 0.45727 0.88862 0.718 0.0
N489 N 0.43104 0.91085 0.74036 0.0
N490 N 0.4826 0.88968 0.7918 0.0
C491 C 0.46901 0.90758 0.83891 0.0
C492 C 0.44188 0.91966 0.81122 0.0
C493 C 0.42218 0.46602 0.25264 0.0
C494 C 0.43123 0.48193 0.18131 0.0
C495 C 0.38361 0.43377 0.26969 0.0
C496 C 0.35774 0.41224 0.21272 0.0
H497 H 0.44459 0.47839 0.29537 0.0
H498 H 0.37864 0.4202 0.32344 0.0
S499 S 0.35723 0.44994 1.02868 0.0
N500 N 0.40305 0.48137 1.06091 0.0
N501 N 0.33215 0.41799 1.09567 0.0
C502 C 0.36081 0.43328 0.14871 0.0
C503 C 0.39928 0.46682 0.12984 0.0
C504 C 0.35493 0.96122 0.63382 0.0
C505 C 0.31572 0.94518 0.66564 0.0
C506 C 0.36636 -0.01457 0.5692 0.0
C507 C 0.33888 -0.00585 0.53176 0.0
H508 H 0.37752 0.95606 0.66005 0.0
H509 H 0.39685 -0.00324 0.54804 0.0
S510 S 0.23256 0.95954 0.59159 0.0
N511 N 0.25001 0.94109 0.65452 0.0
N512 N 0.27025 -0.01613 0.53283 0.0
C513 C 0.29958 -0.02214 0.56289 0.0
C514 C 0.28842 0.95431 0.62946 0.0
C515 C 0.3109 0.31213 0.94507 0.0
C516 C 0.34946 0.33634 0.9777 0.0
C517 C 0.29886 0.32487 0.88104 0.0
C518 C 0.32457 0.3626 0.84629 0.0
H519 H 0.28953 0.28332 0.9697 0.0
H520 H 0.26891 0.30498 0.85881 0.0
S521 S 0.43022 0.43608 0.90624 0.0
N522 N 0.41416 0.39901 0.96652 0.0
N523 N 0.39179 0.42286 0.84977 0.0
C524 C 0.36344 0.38659 0.87811 0.0
C525 C 0.37572 0.37353 0.94241 0.0
C526 C 0.9102 0.36588 0.24059 0.0
C527 C 0.91332 0.34159 0.18561 0.0
C528 C 0.93586 0.37882 0.30387 0.0
C529 C -0.03315 0.36877 0.31661 0.0
H530 H 0.88743 0.37495 0.23499 0.0
H531 H 0.9311 0.39684 0.3436 0.0
S532 S -0.00788 0.31022 0.18693 0.0
N533 N 0.95323 0.311 0.14798 0.0
N534 N 0.00046 0.3352 0.26371 0.0
C535 C -0.02888 0.3457 0.26102 0.0
C536 C 0.94492 0.3323 0.19704 0.0
C537 C 0.56302 0.93959 0.65776 0.0
C538 C 0.58661 -0.01823 0.67131 0.0
C539 C 0.55397 0.92315 0.58616 0.0
C540 C 0.56951 0.94777 0.52328 0.0
H541 H 0.55095 0.9188 0.70333 0.0
H542 H 0.53506 0.89072 0.58024 0.0
S543 S 0.63586 0.06003 0.52704 0.0
N544 N 0.62573 0.04751 0.61372 0.0
N545 N 0.61219 0.01726 0.48147 0.0
C546 C 0.59426 -0.01005 0.53631 0.0
C547 C 0.60193 0.00671 0.60908 0.0
C548 C 0.52643 0.57304 0.95627 0.0
C549 C 0.55606 0.60034 1.0052 0.0
C550 C 0.53753 0.56236 0.88946 0.0
C551 C 0.5788 0.57848 0.8676 0.0
H552 H 0.49441 0.55883 0.97047 0.0
H553 H 0.51336 0.5408 0.85487 0.0
S554 S 0.66825 0.65273 0.9736 0.0
N555 N 0.62879 0.64412 1.02462 0.0
N556 N 0.64908 0.62446 0.90076 0.0
C557 C 0.6085 0.60633 0.91536 0.0
C558 C 0.59731 0.61707 0.98326 0.0
C559 C 0.94651 0.5544 0.22358 0.0
C560 C -0.01004 0.57617 0.21832 0.0
C561 C 0.92514 0.54828 0.29007 0.0
C562 C 0.94586 0.56359 0.35578 0.0
H563 H 0.9283 0.54111 0.1755 0.0
H564 H 0.89211 0.53083 0.28996 0.0
S565 S 0.05938 0.62301 0.37406 0.0
N566 N 0.05243 0.61311 0.28638 0.0
N567 N 0.01335 0.60226 0.41062 0.0
C568 C -0.01062 0.58582 0.35139 0.0
C569 C 0.01106 0.59198 0.28336 0.0
C570 C 0.48702 0.11058 0.60971 0.0
C571 C 0.51337 0.12544 0.54941 0.0
C572 C 0.49966 0.10096 0.67421 0.0
C573 C 0.53926 0.10717 0.68048 0.0
H574 H 0.45524 0.10229 0.60479 0.0
H575 H 0.47764 0.08636 0.71768 0.0
S576 S 0.62155 0.15214 0.54199 0.0
N577 N 0.58159 0.15021 0.50191 0.0
N578 N 0.60643 0.13421 0.62508 0.0
C579 C 0.5672 0.12624 0.62335 0.0
C580 C 0.55393 0.13494 0.55702 0.0
C581 C 0.3662 0.56868 0.86811 0.0
C582 C 0.33275 0.52908 0.86862 0.0
C583 C 0.38318 0.5884 0.93321 0.0
C584 C 0.36708 0.56865 0.99972 0.0
H585 H 0.3821 0.58276 0.8179 0.0
H586 H 0.41182 0.61677 0.9311 0.0
S587 S 0.27122 0.47148 1.0286 0.0
N588 N 0.27767 0.47563 0.93956 0.0
N589 N 0.30983 0.5129 1.06256 0.0
C590 C 0.32951 0.53241 1.00048 0.0
C591 C 0.3122 0.51234 0.93426 0.0
C592 C 0.74893 0.34306 0.25352 0.0
C593 C 0.75189 0.36247 0.18694 0.0
C594 C 0.75589 0.36415 0.31826 0.0
C595 C 0.76527 0.40467 0.31731 0.0
H596 H 0.74709 0.31381 0.25519 0.0
H597 H 0.75854 0.35021 0.36791 0.0
S598 S 0.75941 0.46217 0.15963 0.0
N599 N 0.75184 0.41909 0.12544 0.0
N600 N 0.76483 0.4589 0.24803 0.0
C601 C 0.7598 0.42115 0.25296 0.0
C602 C 0.75276 0.39966 0.18696 0.0
C603 C 0.39456 0.8004 0.57254 0.0
C604 C 0.38892 0.82189 0.51578 0.0
C605 C 0.37266 0.79265 0.63753 0.0
C606 C 0.3438 0.80509 0.6462 0.0
H607 H 0.41838 0.79262 0.5692 0.0
H608 H 0.38047 0.77963 0.68295 0.0
S609 S 0.31432 0.85764 0.50948 0.0
N610 N 0.35006 0.852 0.46917 0.0
N611 N 0.30784 0.83627 0.59036 0.0
C612 C 0.33507 0.82296 0.587 0.0
C613 C 0.35803 0.83173 0.52176 0.0
C614 C 0.51294 0.38768 0.86252 0.0
C615 C 0.54666 0.42702 0.86138 0.0
C616 C 0.49669 0.36775 0.92836 0.0
C617 C 0.51338 0.38712 0.99443 0.0
H618 H 0.49737 0.37331 0.81266 0.0
H619 H 0.46876 0.33872 0.92736 0.0
S620 S 0.60591 0.4872 1.01972 0.0
N621 N 0.59985 0.48229 0.93084 0.0
N622 N 0.56857 0.44497 1.05512 0.0
C623 C 0.54952 0.42468 0.99377 0.0
C624 C 0.56641 0.44473 0.92676 0.0
C625 C 0.11849 0.56232 0.33966 0.0
C626 C 0.11102 0.52241 0.34227 0.0
C627 C 0.13871 0.58776 0.28007 0.0
C628 C 0.15163 0.57391 0.22044 0.0
H629 H 0.10689 0.57335 0.38216 0.0
H630 H 0.14065 0.61703 0.27784 0.0
S631 S 0.14562 0.47423 0.20701 0.0
N632 N 0.12325 0.47216 0.28516 0.0
N633 N 0.16071 0.51973 0.17312 0.0
C634 C 0.14806 0.53553 0.22625 0.0
C635 C 0.12757 0.5097 0.28686 0.0
loop_
_geom_bond_atom_site_label_1
_geom_bond_atom_site_label_2
_geom_bond_distance
_geom_bond_site_symmetry_2
_ccdc_geom_bond_type
Tb0 O3 2.453 . S
Tb0 O4 2.596 . S
Tb0 O5 2.374 . S
Tb0 O13 2.343 . S
Tb0 O15 2.353 . S
Tb0 O17 2.427 . S
Tb0 O18 2.513 . S
C1 O5 1.251 . S
C1 O7 1.263 . S
Tb2 O4 2.343 . S
Tb2 O7 2.353 . S
Tb2 O10 2.427 . S
Tb2 O11 2.513 . S
Tb2 O12 2.453 . S
Tb2 O13 2.596 . S
Tb2 O14 2.374 . S
O3 Tb0 2.453 . S
O3 C19 1.245 . S
O4 Tb0 2.596 . S
O4 Tb2 2.343 . S
O4 C19 1.259 . S
O5 Tb0 2.374 . S
O5 C1 1.251 . S
C6 O10 1.275 . S
C6 O11 1.246 . S
O7 C1 1.263 . S
O7 Tb2 2.353 . S
C8 O12 1.245 . S
C8 O13 1.259 . S
C9 O14 1.250 . S
C9 O15 1.263 . S
O10 Tb2 2.427 . S
O10 C6 1.275 . S
O11 Tb2 2.513 . S
O11 C6 1.246 . S
O12 Tb2 2.453 . S
O12 C8 1.245 . S
O13 Tb0 2.343 . S
O13 Tb2 2.596 . S
O13 C8 1.259 . S
O14 Tb2 2.374 . S
O14 C9 1.250 . S
O15 Tb0 2.353 . S
O15 C9 1.263 . S
C16 O17 1.275 . S
C16 O18 1.246 . S
O17 Tb0 2.427 . S
O17 C16 1.275 . S
O18 Tb0 2.513 . S
O18 C16 1.246 . S
C19 O3 1.245 . S
C19 O4 1.259 . S
Tb20 O23 2.453 . S
Tb20 O24 2.596 . S
Tb20 O25 2.374 . S
Tb20 O33 2.343 . S
Tb20 O35 2.353 . S
Tb20 O37 2.427 . S
Tb20 O38 2.513 . S
C21 O25 1.251 . S
C21 O27 1.263 . S
Tb22 O24 2.343 . S
Tb22 O27 2.353 . S
Tb22 O30 2.427 . S
Tb22 O31 2.513 . S
Tb22 O32 2.453 . S
Tb22 O33 2.596 . S
Tb22 O34 2.374 . S
O23 Tb20 2.453 . S
O23 C39 1.245 . S
O24 Tb20 2.596 . S
O24 Tb22 2.343 . S
O24 C39 1.259 . S
O25 Tb20 2.374 . S
O25 C21 1.251 . S
C26 O30 1.275 . S
C26 O31 1.246 . S
O27 C21 1.263 . S
O27 Tb22 2.353 . S
C28 O32 1.245 . S
C28 O33 1.259 . S
C29 O34 1.250 . S
C29 O35 1.263 . S
O30 Tb22 2.427 . S
O30 C26 1.275 . S
O31 Tb22 2.513 . S
O31 C26 1.246 . S
O32 Tb22 2.453 . S
O32 C28 1.245 . S
O33 Tb20 2.343 . S
O33 Tb22 2.596 . S
O33 C28 1.259 . S
O34 Tb22 2.374 . S
O34 C29 1.250 . S
O35 Tb20 2.353 . S
O35 C29 1.263 . S
C36 O37 1.275 . S
C36 O38 1.246 . S
O37 Tb20 2.427 . S
O37 C36 1.275 . S
O38 Tb20 2.513 . S
O38 C36 1.246 . S
C39 O23 1.245 . S
C39 O24 1.259 . S
Tb40 O43 2.453 . S
Tb40 O44 2.596 . S
Tb40 O45 2.374 . S
Tb40 O53 2.343 . S
Tb40 O55 2.353 . S
Tb40 O57 2.427 1_556 S
Tb40 O58 2.513 1_556 S
C41 O45 1.251 . S
C41 O47 1.263 . S
Tb42 O44 2.343 . S
Tb42 O47 2.353 . S
Tb42 O50 2.427 . S
Tb42 O51 2.513 . S
Tb42 O52 2.453 . S
Tb42 O53 2.596 . S
Tb42 O54 2.374 . S
O43 Tb40 2.453 . S
O43 C59 1.245 . S
O44 Tb40 2.596 . S
O44 Tb42 2.343 . S
O44 C59 1.259 . S
O45 Tb40 2.374 . S
O45 C41 1.251 . S
C46 O50 1.275 . S
C46 O51 1.246 . S
O47 C41 1.263 . S
O47 Tb42 2.353 . S
C48 O52 1.245 1_554 S
C48 O53 1.259 1_554 S
C49 O54 1.250 . S
C49 O55 1.263 . S
O50 Tb42 2.427 . S
O50 C46 1.275 . S
O51 Tb42 2.513 . S
O51 C46 1.246 . S
O52 Tb42 2.453 . S
O52 C48 1.245 1_556 S
O53 Tb40 2.343 . S
O53 Tb42 2.596 . S
O53 C48 1.259 1_556 S
O54 Tb42 2.374 . S
O54 C49 1.250 . S
O55 Tb40 2.353 . S
O55 C49 1.263 . S
C56 O57 1.275 . S
C56 O58 1.246 . S
O57 Tb40 2.427 1_554 S
O57 C56 1.275 . S
O58 Tb40 2.513 1_554 S
O58 C56 1.246 . S
C59 O43 1.245 . S
C59 O44 1.259 . S
Tb60 O63 2.453 . S
Tb60 O64 2.596 . S
Tb60 O65 2.374 . S
Tb60 O73 2.343 . S
Tb60 O75 2.353 . S
Tb60 O77 2.427 . S
Tb60 O78 2.513 . S
C61 O65 1.251 . S
C61 O67 1.263 . S
Tb62 O64 2.343 . S
Tb62 O67 2.353 . S
Tb62 O70 2.427 . S
Tb62 O71 2.513 . S
Tb62 O72 2.453 . S
Tb62 O73 2.596 . S
Tb62 O74 2.374 . S
O63 Tb60 2.453 . S
O63 C79 1.245 . S
O64 Tb60 2.596 . S
O64 Tb62 2.343 . S
O64 C79 1.259 . S
O65 Tb60 2.374 . S
O65 C61 1.251 . S
C66 O70 1.275 . S
C66 O71 1.246 . S
O67 C61 1.263 . S
O67 Tb62 2.353 . S
C68 O72 1.245 . S
C68 O73 1.259 . S
C69 O74 1.250 . S
C69 O75 1.263 . S
O70 Tb62 2.427 . S
O70 C66 1.275 . S
O71 Tb62 2.513 . S
O71 C66 1.246 . S
O72 Tb62 2.453 . S
O72 C68 1.245 . S
O73 Tb60 2.343 . S
O73 Tb62 2.596 . S
O73 C68 1.259 . S
O74 Tb62 2.374 . S
O74 C69 1.250 . S
O75 Tb60 2.353 . S
O75 C69 1.263 . S
C76 O77 1.275 . S
C76 O78 1.246 . S
O77 Tb60 2.427 . S
O77 C76 1.275 . S
O78 Tb60 2.513 . S
O78 C76 1.246 . S
C79 O63 1.245 . S
C79 O64 1.259 . S
Tb80 O83 2.453 . S
Tb80 O84 2.596 . S
Tb80 O85 2.374 . S
Tb80 O93 2.343 . S
Tb80 O95 2.353 . S
Tb80 O97 2.427 . S
Tb80 O98 2.513 . S
C81 O85 1.251 . S
C81 O87 1.263 . S
Tb82 O84 2.343 . S
Tb82 O87 2.353 . S
Tb82 O90 2.427 . S
Tb82 O91 2.513 . S
Tb82 O92 2.453 . S
Tb82 O93 2.596 . S
Tb82 O94 2.374 . S
O83 Tb80 2.453 . S
O83 C99 1.245 . S
O84 Tb80 2.596 . S
O84 Tb82 2.343 . S
O84 C99 1.259 . S
O85 Tb80 2.374 . S
O85 C81 1.251 . S
C86 O90 1.275 . S
C86 O91 1.246 . S
O87 C81 1.263 . S
O87 Tb82 2.353 . S
C88 O92 1.245 . S
C88 O93 1.259 . S
C89 O94 1.250 . S
C89 O95 1.263 . S
O90 Tb82 2.427 . S
O90 C86 1.275 . S
O91 Tb82 2.513 . S
O91 C86 1.246 . S
O92 Tb82 2.453 . S
O92 C88 1.245 . S
O93 Tb80 2.343 . S
O93 Tb82 2.596 . S
O93 C88 1.259 . S
O94 Tb82 2.374 . S
O94 C89 1.250 . S
O95 Tb80 2.353 . S
O95 C89 1.263 . S
C96 O97 1.275 . S
C96 O98 1.246 . S
O97 Tb80 2.427 . S
O97 C96 1.275 . S
O98 Tb80 2.513 . S
O98 C96 1.246 . S
C99 O83 1.245 . S
C99 O84 1.259 . S
Tb100 O103 2.453 . S
Tb100 O104 2.596 . S
Tb100 O105 2.374 . S
Tb100 O113 2.343 . S
Tb100 O115 2.353 . S
Tb100 O117 2.427 1_556 S
Tb100 O118 2.513 1_556 S
C101 O105 1.251 . S
C101 O107 1.263 . S
Tb102 O104 2.343 . S
Tb102 O107 2.353 . S
Tb102 O110 2.427 . S
Tb102 O111 2.513 . S
Tb102 O112 2.453 . S
Tb102 O113 2.596 . S
Tb102 O114 2.374 . S
O103 Tb100 2.453 . S
O103 C119 1.245 . S
O104 Tb100 2.596 . S
O104 Tb102 2.343 . S
O104 C119 1.259 . S
O105 Tb100 2.374 . S
O105 C101 1.251 . S
C106 O110 1.275 . S
C106 O111 1.246 . S
O107 C101 1.263 . S
O107 Tb102 2.353 . S
C108 O112 1.245 1_554 S
C108 O113 1.259 1_554 S
C109 O114 1.250 . S
C109 O115 1.263 . S
O110 Tb102 2.427 . S
O110 C106 1.275 . S
O111 Tb102 2.513 . S
O111 C106 1.246 . S
O112 Tb102 2.453 . S
O112 C108 1.245 1_556 S
O113 Tb100 2.343 . S
O113 Tb102 2.596 . S
O113 C108 1.259 1_556 S
O114 Tb102 2.374 . S
O114 C109 1.250 . S
O115 Tb100 2.353 . S
O115 C109 1.263 . S
C116 O117 1.275 . S
C116 O118 1.246 . S
O117 Tb100 2.427 1_554 S
O117 C116 1.275 . S
O118 Tb100 2.513 1_554 S
O118 C116 1.246 . S
C119 O103 1.245 . S
C119 O104 1.259 . S
Tb120 O123 2.453 . S
Tb120 O124 2.596 . S
Tb120 O125 2.374 . S
Tb120 O133 2.343 . S
Tb120 O135 2.353 . S
Tb120 O137 2.427 . S
Tb120 O138 2.513 . S
C121 O125 1.251 . S
C121 O127 1.263 . S
Tb122 O124 2.343 . S
Tb122 O127 2.353 . S
Tb122 O130 2.427 . S
Tb122 O131 2.513 . S
Tb122 O132 2.453 . S
Tb122 O133 2.596 . S
Tb122 O134 2.374 . S
O123 Tb120 2.453 . S
O123 C139 1.245 . S
O124 Tb120 2.596 . S
O124 Tb122 2.343 . S
O124 C139 1.259 . S
O125 Tb120 2.374 . S
O125 C121 1.251 . S
C126 O130 1.275 . S
C126 O131 1.246 . S
O127 C121 1.263 . S
O127 Tb122 2.353 . S
C128 O132 1.245 . S
C128 O133 1.259 . S
C129 O134 1.250 . S
C129 O135 1.263 . S
O130 Tb122 2.427 . S
O130 C126 1.275 . S
O131 Tb122 2.513 . S
O131 C126 1.246 . S
O132 Tb122 2.453 . S
O132 C128 1.245 . S
O133 Tb120 2.343 . S
O133 Tb122 2.596 . S
O133 C128 1.259 . S
O134 Tb122 2.374 . S
O134 C129 1.250 . S
O135 Tb120 2.353 . S
O135 C129 1.263 . S
C136 O137 1.275 . S
C136 O138 1.246 . S
O137 Tb120 2.427 . S
O137 C136 1.275 . S
O138 Tb120 2.513 . S
O138 C136 1.246 . S
C139 O123 1.245 . S
C139 O124 1.259 . S
Tb140 O143 2.453 . S
Tb140 O144 2.596 . S
Tb140 O145 2.374 . S
Tb140 O153 2.343 . S
Tb140 O155 2.353 . S
Tb140 O157 2.427 . S
Tb140 O158 2.513 . S
C141 O145 1.251 . S
C141 O147 1.263 . S
Tb142 O144 2.343 . S
Tb142 O147 2.353 . S
Tb142 O150 2.427 . S
Tb142 O151 2.513 . S
Tb142 O152 2.453 . S
Tb142 O153 2.596 . S
Tb142 O154 2.374 . S
O143 Tb140 2.453 . S
O143 C159 1.245 . S
O144 Tb140 2.596 . S
O144 Tb142 2.343 . S
O144 C159 1.259 . S
O145 Tb140 2.374 . S
O145 C141 1.251 . S
C146 O150 1.275 . S
C146 O151 1.246 . S
O147 C141 1.263 . S
O147 Tb142 2.353 . S
C148 O152 1.245 . S
C148 O153 1.259 . S
C149 O154 1.250 . S
C149 O155 1.263 . S
O150 Tb142 2.427 . S
O150 C146 1.275 . S
O151 Tb142 2.513 . S
O151 C146 1.246 . S
O152 Tb142 2.453 . S
O152 C148 1.245 . S
O153 Tb140 2.343 . S
O153 Tb142 2.596 . S
O153 C148 1.259 . S
O154 Tb142 2.374 . S
O154 C149 1.250 . S
O155 Tb140 2.353 . S
O155 C149 1.263 . S
C156 O157 1.275 . S
C156 O158 1.246 . S
O157 Tb140 2.427 . S
O157 C156 1.275 . S
O158 Tb140 2.513 . S
O158 C156 1.246 . S
C159 O143 1.245 . S
C159 O144 1.259 . S
Tb160 O163 2.453 . S
Tb160 O164 2.596 . S
Tb160 O165 2.374 . S
Tb160 O173 2.343 . S
Tb160 O175 2.353 . S
Tb160 O177 2.427 1_554 S
Tb160 O178 2.513 1_554 S
C161 O165 1.251 . S
C161 O167 1.263 . S
Tb162 O164 2.343 . S
Tb162 O167 2.353 . S
Tb162 O170 2.427 . S
Tb162 O171 2.513 . S
Tb162 O172 2.453 . S
Tb162 O173 2.596 . S
Tb162 O174 2.374 . S
O163 Tb160 2.453 . S
O163 C179 1.245 . S
O164 Tb160 2.596 . S
O164 Tb162 2.343 . S
O164 C179 1.259 . S
O165 Tb160 2.374 . S
O165 C161 1.251 . S
C166 O170 1.275 . S
C166 O171 1.246 . S
O167 C161 1.263 . S
O167 Tb162 2.353 . S
C168 O172 1.245 1_556 S
C168 O173 1.259 1_556 S
C169 O174 1.250 . S
C169 O175 1.263 . S
O170 Tb162 2.427 . S
O170 C166 1.275 . S
O171 Tb162 2.513 . S
O171 C166 1.246 . S
O172 Tb162 2.453 . S
O172 C168 1.245 1_554 S
O173 Tb160 2.343 . S
O173 Tb162 2.596 . S
O173 C168 1.259 1_554 S
O174 Tb162 2.374 . S
O174 C169 1.250 . S
O175 Tb160 2.353 . S
O175 C169 1.263 . S
C176 O177 1.275 . S
C176 O178 1.246 . S
O177 Tb160 2.427 1_556 S
O177 C176 1.275 . S
O178 Tb160 2.513 1_556 S
O178 C176 1.246 . S
C179 O163 1.245 . S
C179 O164 1.259 . S
Tb180 O183 2.453 . S
Tb180 O184 2.596 . S
Tb180 O185 2.374 . S
Tb180 O193 2.343 . S
Tb180 O195 2.353 . S
Tb180 O197 2.427 . S
Tb180 O198 2.513 . S
C181 O185 1.251 . S
C181 O187 1.263 . S
Tb182 O184 2.343 . S
Tb182 O187 2.353 . S
Tb182 O190 2.427 . S
Tb182 O191 2.513 . S
Tb182 O192 2.453 . S
Tb182 O193 2.596 . S
Tb182 O194 2.374 . S
O183 Tb180 2.453 . S
O183 C199 1.245 . S
O184 Tb180 2.596 . S
O184 Tb182 2.343 . S
O184 C199 1.259 . S
O185 Tb180 2.374 . S
O185 C181 1.251 . S
C186 O190 1.275 . S
C186 O191 1.246 . S
O187 C181 1.263 . S
O187 Tb182 2.353 . S
C188 O192 1.245 . S
C188 O193 1.259 . S
C189 O194 1.250 . S
C189 O195 1.263 . S
O190 Tb182 2.427 . S
O190 C186 1.275 . S
O191 Tb182 2.513 . S
O191 C186 1.246 . S
O192 Tb182 2.453 . S
O192 C188 1.245 . S
O193 Tb180 2.343 . S
O193 Tb182 2.596 . S
O193 C188 1.259 . S
O194 Tb182 2.374 . S
O194 C189 1.250 . S
O195 Tb180 2.353 . S
O195 C189 1.263 . S
C196 O197 1.275 . S
C196 O198 1.246 . S
O197 Tb180 2.427 . S
O197 C196 1.275 . S
O198 Tb180 2.513 . S
O198 C196 1.246 . S
C199 O183 1.245 . S
C199 O184 1.259 . S
Tb200 O203 2.453 . S
Tb200 O204 2.596 . S
Tb200 O205 2.374 . S
Tb200 O213 2.343 . S
Tb200 O215 2.353 . S
Tb200 O217 2.427 . S
Tb200 O218 2.513 . S
C201 O205 1.251 . S
C201 O207 1.263 . S
Tb202 O204 2.343 . S
Tb202 O207 2.353 . S
Tb202 O210 2.427 . S
Tb202 O211 2.513 . S
Tb202 O212 2.453 . S
Tb202 O213 2.596 . S
Tb202 O214 2.374 . S
O203 Tb200 2.453 . S
O203 C219 1.245 . S
O204 Tb200 2.596 . S
O204 Tb202 2.343 . S
O204 C219 1.259 . S
O205 Tb200 2.374 . S
O205 C201 1.251 . S
C206 O210 1.275 . S
C206 O211 1.246 . S
O207 C201 1.263 . S
O207 Tb202 2.353 . S
C208 O212 1.245 . S
C208 O213 1.259 . S
C209 O214 1.250 . S
C209 O215 1.263 . S
O210 Tb202 2.427 . S
O210 C206 1.275 . S
O211 Tb202 2.513 . S
O211 C206 1.246 . S
O212 Tb202 2.453 . S
O212 C208 1.245 . S
O213 Tb200 2.343 . S
O213 Tb202 2.596 . S
O213 C208 1.259 . S
O214 Tb202 2.374 . S
O214 C209 1.250 . S
O215 Tb200 2.353 . S
O215 C209 1.263 . S
C216 O217 1.275 . S
C216 O218 1.246 . S
O217 Tb200 2.427 . S
O217 C216 1.275 . S
O218 Tb200 2.513 . S
O218 C216 1.246 . S
C219 O203 1.245 . S
C219 O204 1.259 . S
Tb220 O223 2.453 . S
Tb220 O224 2.596 . S
Tb220 O225 2.374 . S
Tb220 O233 2.343 . S
Tb220 O235 2.353 . S
Tb220 O237 2.427 1_554 S
Tb220 O238 2.513 1_554 S
C221 O225 1.251 . S
C221 O227 1.263 . S
Tb222 O224 2.343 . S
Tb222 O227 2.353 . S
Tb222 O230 2.427 . S
Tb222 O231 2.513 . S
Tb222 O232 2.453 . S
Tb222 O233 2.596 . S
Tb222 O234 2.374 . S
O223 Tb220 2.453 . S
O223 C239 1.245 . S
O224 Tb220 2.596 . S
O224 Tb222 2.343 . S
O224 C239 1.259 . S
O225 Tb220 2.374 . S
O225 C221 1.251 . S
C226 O230 1.275 . S
C226 O231 1.246 . S
O227 C221 1.263 . S
O227 Tb222 2.353 . S
C228 O232 1.245 1_556 S
C228 O233 1.259 1_556 S
C229 O234 1.250 . S
C229 O235 1.263 . S
O230 Tb222 2.427 . S
O230 C226 1.275 . S
O231 Tb222 2.513 . S
O231 C226 1.246 . S
O232 Tb222 2.453 . S
O232 C228 1.245 1_554 S
O233 Tb220 2.343 . S
O233 Tb222 2.596 . S
O233 C228 1.259 1_554 S
O234 Tb222 2.374 . S
O234 C229 1.250 . S
O235 Tb220 2.353 . S
O235 C229 1.263 . S
C236 O237 1.275 . S
C236 O238 1.246 . S
O237 Tb220 2.427 1_556 S
O237 C236 1.275 . S
O238 Tb220 2.513 1_556 S
O238 C236 1.246 . S
C239 O223 1.245 . S
C239 O224 1.259 . S
C240 C241 1.369 . S
C240 C242 1.419 . S
C240 H244 0.930 . S
C241 C240 1.369 . S
C241 C250 1.429 . S
C242 C240 1.419 . S
C242 C243 1.363 . S
C242 H245 0.929 . S
C243 C242 1.363 . S
C243 C249 1.428 . S
H244 C240 0.930 . S
H245 C242 0.929 . S
S246 N247 1.613 . S
S246 N248 1.610 . S
N247 S246 1.613 . S
N247 C250 1.350 . S
N248 S246 1.610 . S
N248 C249 1.351 . S
C249 C243 1.428 . S
C249 N248 1.351 . S
C249 C250 1.434 . S
C250 C241 1.429 . S
C250 N247 1.350 . S
C250 C249 1.434 . S
C251 C252 1.369 . S
C251 C253 1.419 . S
C251 H255 0.930 . S
C252 C251 1.369 . S
C252 C261 1.429 . S
C253 C251 1.419 . S
C253 C254 1.363 . S
C253 H256 0.929 . S
C254 C253 1.363 . S
C254 C260 1.428 . S
H255 C251 0.930 . S
H256 C253 0.929 . S
S257 N258 1.613 . S
S257 N259 1.610 . S
N258 S257 1.613 . S
N258 C261 1.350 . S
N259 S257 1.610 . S
N259 C260 1.351 . S
C260 C254 1.428 . S
C260 N259 1.351 . S
C260 C261 1.434 . S
C261 C252 1.429 . S
C261 N258 1.350 . S
C261 C260 1.434 . S
C262 C263 1.369 . S
C262 C264 1.419 . S
C262 H266 0.930 . S
C263 C262 1.369 . S
C263 C272 1.429 . S
C264 C262 1.419 . S
C264 C265 1.363 . S
C264 H267 0.929 . S
C265 C264 1.363 . S
C265 C271 1.428 . S
H266 C262 0.930 . S
H267 C264 0.929 . S
S268 N269 1.613 . S
S268 N270 1.610 . S
N269 S268 1.613 . S
N269 C272 1.350 . S
N270 S268 1.610 . S
N270 C271 1.351 . S
C271 C265 1.428 . S
C271 N270 1.351 . S
C271 C272 1.434 . S
C272 C263 1.429 . S
C272 N269 1.350 . S
C272 C271 1.434 . S
C273 C274 1.369 . S
C273 C275 1.419 . S
C273 H277 0.930 . S
C274 C273 1.369 . S
C274 C283 1.429 . S
C275 C273 1.419 . S
C275 C276 1.363 . S
C275 H278 0.929 . S
C276 C275 1.363 . S
C276 C282 1.428 . S
H277 C273 0.930 . S
H278 C275 0.929 . S
S279 N280 1.613 . S
S279 N281 1.610 . S
N280 S279 1.613 . S
N280 C283 1.350 . S
N281 S279 1.610 . S
N281 C282 1.351 . S
C282 C276 1.428 . S
C282 N281 1.351 . S
C282 C283 1.434 . S
C283 C274 1.429 . S
C283 N280 1.350 . S
C283 C282 1.434 . S
C284 C285 1.369 . S
C284 C286 1.419 . S
C284 H288 0.930 . S
C285 C284 1.369 . S
C285 C294 1.429 . S
C286 C284 1.419 . S
C286 C287 1.363 . S
C286 H289 0.929 . S
C287 C286 1.363 . S
C287 C293 1.428 . S
H288 C284 0.930 . S
H289 C286 0.929 . S
S290 N291 1.613 . S
S290 N292 1.610 . S
N291 S290 1.613 . S
N291 C294 1.350 . S
N292 S290 1.610 . S
N292 C293 1.351 . S
C293 C287 1.428 . S
C293 N292 1.351 . S
C293 C294 1.434 . S
C294 C285 1.429 . S
C294 N291 1.350 . S
C294 C293 1.434 . S
C295 C296 1.369 . S
C295 C297 1.419 . S
C295 H299 0.930 . S
C296 C295 1.369 . S
C296 C305 1.429 . S
C297 C295 1.419 . S
C297 C298 1.363 . S
C297 H300 0.929 . S
C298 C297 1.363 . S
C298 C304 1.428 . S
H299 C295 0.930 . S
H300 C297 0.929 . S
S301 N302 1.613 . S
S301 N303 1.610 . S
N302 S301 1.613 . S
N302 C305 1.350 . S
N303 S301 1.610 . S
N303 C304 1.351 . S
C304 C298 1.428 . S
C304 N303 1.351 . S
C304 C305 1.434 . S
C305 C296 1.429 . S
C305 N302 1.350 . S
C305 C304 1.434 . S
C306 C307 1.358 1_554 S
C306 C308 1.429 . S
C306 H310 0.931 . S
C307 C306 1.358 1_556 S
C307 C316 1.429 . S
C308 C306 1.429 . S
C308 C309 1.363 . S
C308 H311 0.929 . S
C309 C308 1.363 . S
C309 C315 1.428 1_554 S
H310 C306 0.931 . S
H311 C308 0.929 . S
S312 N313 1.613 . S
S312 N314 1.610 . S
N313 S312 1.613 . S
N313 C316 1.350 . S
N314 S312 1.610 . S
N314 C315 1.351 . S
C315 C309 1.428 1_556 S
C315 N314 1.351 . S
C315 C316 1.434 . S
C316 C307 1.429 . S
C316 N313 1.350 . S
C316 C315 1.434 . S
C317 C318 1.369 . S
C317 C319 1.419 . S
C317 H321 0.930 . S
C318 C317 1.369 . S
C318 C327 1.429 . S
C319 C317 1.419 . S
C319 C320 1.363 . S
C319 H322 0.929 . S
C320 C319 1.363 . S
C320 C326 1.428 . S
H321 C317 0.930 . S
H322 C319 0.929 . S
S323 N324 1.613 . S
S323 N325 1.610 . S
N324 S323 1.613 . S
N324 C327 1.350 . S
N325 S323 1.610 . S
N325 C326 1.351 . S
C326 C320 1.428 . S
C326 N325 1.351 . S
C326 C327 1.434 . S
C327 C318 1.429 . S
C327 N324 1.350 . S
C327 C326 1.434 . S
C328 C329 1.369 . S
C328 C330 1.419 . S
C328 H332 0.930 . S
C329 C328 1.369 . S
C329 C338 1.429 . S
C330 C328 1.419 . S
C330 C331 1.363 . S
C330 H333 0.929 . S
C331 C330 1.363 . S
C331 C337 1.428 . S
H332 C328 0.930 . S
H333 C330 0.929 . S
S334 N335 1.613 . S
S334 N336 1.610 . S
N335 S334 1.613 . S
N335 C338 1.350 . S
N336 S334 1.610 . S
N336 C337 1.351 . S
C337 C331 1.428 . S
C337 N336 1.351 . S
C337 C338 1.434 . S
C338 C329 1.429 . S
C338 N335 1.350 . S
C338 C337 1.434 . S
C339 C340 1.369 . S
C339 C341 1.419 1_556 S
C339 H343 0.930 . S
C340 C339 1.369 . S
C340 C349 1.429 . S
C341 C339 1.419 1_554 S
C341 C342 1.363 . S
C341 H344 0.929 . S
C342 C341 1.363 . S
C342 C348 1.428 . S
H343 C339 0.930 . S
H344 C341 0.929 . S
S345 N346 1.613 1_554 S
S345 N347 1.610 . S
N346 S345 1.613 1_556 S
N346 C349 1.350 . S
N347 S345 1.610 . S
N347 C348 1.351 . S
C348 C342 1.428 . S
C348 N347 1.351 . S
C348 C349 1.434 1_554 S
C349 C340 1.429 . S
C349 N346 1.350 . S
C349 C348 1.434 1_556 S
C350 C351 1.369 . S
C350 C352 1.419 . S
C350 H354 0.930 . S
C351 C350 1.369 . S
C351 C360 1.429 . S
C352 C350 1.419 . S
C352 C353 1.363 . S
C352 H355 0.929 . S
C353 C352 1.363 . S
C353 C359 1.428 . S
H354 C350 0.930 . S
H355 C352 0.929 . S
S356 N357 1.613 . S
S356 N358 1.610 . S
N357 S356 1.613 . S
N357 C360 1.350 . S
N358 S356 1.610 . S
N358 C359 1.351 . S
C359 C353 1.428 . S
C359 N358 1.351 . S
C359 C360 1.434 . S
C360 C351 1.429 . S
C360 N357 1.350 . S
C360 C359 1.434 . S
C361 C362 1.369 . S
C361 C363 1.419 . S
C361 H365 0.930 . S
C362 C361 1.369 . S
C362 C371 1.429 . S
C363 C361 1.419 . S
C363 C364 1.363 . S
C363 H366 0.929 . S
C364 C363 1.363 . S
C364 C370 1.428 . S
H365 C361 0.930 . S
H366 C363 0.929 . S
S367 N368 1.613 . S
S367 N369 1.610 . S
N368 S367 1.613 . S
N368 C371 1.350 . S
N369 S367 1.610 . S
N369 C370 1.351 . S
C370 C364 1.428 . S
C370 N369 1.351 . S
C370 C371 1.434 . S
C371 C362 1.429 . S
C371 N368 1.350 . S
C371 C370 1.434 . S
C372 C373 1.369 1_554 S
C372 C374 1.419 . S
C372 H376 0.930 . S
C373 C372 1.369 1_556 S
C373 C382 1.429 1_565 S
C374 C372 1.419 . S
C374 C375 1.363 1_565 S
C374 H377 0.929 . S
C375 C374 1.363 1_545 S
C375 C381 1.428 1_554 S
H376 C372 0.930 . S
H377 C374 0.929 . S
S378 N379 1.613 . S
S378 N380 1.610 . S
N379 S378 1.613 . S
N379 C382 1.350 . S
N380 S378 1.610 . S
N380 C381 1.351 . S
C381 C375 1.428 1_556 S
C381 N380 1.351 . S
C381 C382 1.434 . S
C382 C373 1.429 1_545 S
C382 N379 1.350 . S
C382 C381 1.434 . S
C383 C384 1.369 . S
C383 C385 1.419 . S
C383 H387 0.930 . S
C384 C383 1.369 . S
C384 C393 1.429 . S
C385 C383 1.419 . S
C385 C386 1.363 . S
C385 H388 0.929 . S
C386 C385 1.363 . S
C386 C392 1.428 . S
H387 C383 0.930 . S
H388 C385 0.929 . S
S389 N390 1.613 . S
S389 N391 1.610 . S
N390 S389 1.613 . S
N390 C393 1.350 . S
N391 S389 1.610 . S
N391 C392 1.351 . S
C392 C386 1.428 . S
C392 N391 1.351 . S
C392 C393 1.434 . S
C393 C384 1.429 . S
C393 N390 1.350 . S
C393 C392 1.434 . S
C394 C395 1.369 . S
C394 C396 1.425 . S
C394 H398 0.930 . S
C395 C394 1.369 . S
C395 C404 1.429 1_455 S
C396 C394 1.425 . S
C396 C397 1.359 1_455 S
C396 H399 0.926 . S
C397 C396 1.359 1_655 S
C397 C403 1.428 . S
H398 C394 0.930 . S
H399 C396 0.926 . S
S400 N401 1.613 . S
S400 N402 1.610 . S
N401 S400 1.613 . S
N401 C404 1.350 . S
N402 S400 1.610 . S
N402 C403 1.351 . S
C403 C397 1.428 . S
C403 N402 1.351 . S
C403 C404 1.434 . S
C404 C395 1.429 1_655 S
C404 N401 1.350 . S
C404 C403 1.434 . S
C405 C406 1.369 1_545 S
C405 C407 1.419 . S
C405 H409 0.930 . S
C406 C405 1.369 1_565 S
C406 C415 1.429 1_554 S
C407 C405 1.419 . S
C407 C408 1.363 1_554 S
C407 H410 0.929 . S
C408 C407 1.363 1_556 S
C408 C414 1.428 1_545 S
H409 C405 0.930 . S
H410 C407 0.929 . S
S411 N412 1.613 . S
S411 N413 1.610 . S
N412 S411 1.613 . S
N412 C415 1.350 . S
N413 S411 1.610 . S
N413 C414 1.351 . S
C414 C408 1.428 1_565 S
C414 N413 1.351 . S
C414 C415 1.434 . S
C415 C406 1.429 1_556 S
C415 N412 1.350 . S
C415 C414 1.434 . S
C416 C417 1.369 . S
C416 C418 1.419 . S
C416 H420 0.930 . S
C417 C416 1.369 . S
C417 C426 1.429 . S
C418 C416 1.419 . S
C418 C419 1.363 . S
C418 H421 0.929 . S
C419 C418 1.363 . S
C419 C425 1.428 . S
H420 C416 0.930 . S
H421 C418 0.929 . S
S422 N423 1.613 . S
S422 N424 1.610 . S
N423 S422 1.613 . S
N423 C426 1.350 . S
N424 S422 1.610 . S
N424 C425 1.351 . S
C425 C419 1.428 . S
C425 N424 1.351 . S
C425 C426 1.434 . S
C426 C417 1.429 . S
C426 N423 1.350 . S
C426 C425 1.434 . S
C427 C428 1.369 . S
C427 C429 1.419 . S
C427 H431 0.930 . S
C428 C427 1.369 . S
C428 C437 1.429 1_455 S
C429 C427 1.419 . S
C429 C430 1.363 1_455 S
C429 H432 0.929 . S
C430 C429 1.363 1_655 S
C430 C436 1.428 . S
H431 C427 0.930 . S
H432 C429 0.929 . S
S433 N434 1.613 . S
S433 N435 1.610 . S
N434 S433 1.613 . S
N434 C437 1.350 . S
N435 S433 1.610 . S
N435 C436 1.351 . S
C436 C430 1.428 . S
C436 N435 1.351 . S
C436 C437 1.434 . S
C437 C428 1.429 1_655 S
C437 N434 1.350 . S
C437 C436 1.434 . S
C438 C439 1.369 . S
C438 C440 1.440 . S
C438 H442 0.930 . S
C439 C438 1.369 . S
C439 C448 1.427 1_545 S
C440 C438 1.440 . S
C440 C441 1.349 1_545 S
C440 H443 0.923 . S
C441 C440 1.349 1_565 S
C441 C447 1.428 . S
H442 C438 0.930 . S
H443 C440 0.923 . S
S444 N445 1.614 . S
S444 N446 1.610 . S
N445 S444 1.614 . S
N445 C448 1.349 . S
N446 S444 1.610 . S
N446 C447 1.351 . S
C447 C441 1.428 . S
C447 N446 1.351 . S
C447 C448 1.437 . S
C448 C439 1.427 1_565 S
C448 N445 1.349 . S
C448 C447 1.437 . S
C449 C450 1.369 . S
C449 C451 1.419 . S
C449 H453 0.930 . S
C450 C449 1.369 . S
C450 C459 1.429 . S
C451 C449 1.419 . S
C451 C452 1.363 . S
C451 H454 0.929 . S
C452 C451 1.363 . S
C452 C458 1.428 . S
H453 C449 0.930 . S
H454 C451 0.929 . S
S455 N456 1.613 . S
S455 N457 1.610 . S
N456 S455 1.613 . S
N456 C459 1.350 . S
N457 S455 1.610 . S
N457 C458 1.351 . S
C458 C452 1.428 . S
C458 N457 1.351 . S
C458 C459 1.434 . S
C459 C450 1.429 . S
C459 N456 1.350 . S
C459 C458 1.434 . S
C460 C461 1.369 . S
C460 C462 1.419 . S
C460 H464 0.930 . S
C461 C460 1.369 . S
C461 C470 1.429 1_655 S
C462 C460 1.419 . S
C462 C463 1.363 1_655 S
C462 H465 0.929 . S
C463 C462 1.363 1_455 S
C463 C469 1.428 . S
H464 C460 0.930 . S
H465 C462 0.929 . S
S466 N467 1.613 . S
S466 N468 1.610 . S
N467 S466 1.613 . S
N467 C470 1.350 . S
N468 S466 1.610 . S
N468 C469 1.351 . S
C469 C463 1.428 . S
C469 N468 1.351 . S
C469 C470 1.434 . S
C470 C461 1.429 1_455 S
C470 N467 1.350 . S
C470 C469 1.434 . S
C471 C472 1.369 . S
C471 C473 1.419 . S
C471 H475 0.930 . S
C472 C471 1.369 . S
C472 C481 1.429 1_455 S
C473 C471 1.419 . S
C473 C474 1.363 1_455 S
C473 H476 0.929 . S
C474 C473 1.363 1_655 S
C474 C480 1.428 . S
H475 C471 0.930 . S
H476 C473 0.929 . S
S477 N478 1.613 . S
S477 N479 1.610 . S
N478 S477 1.613 . S
N478 C481 1.350 . S
N479 S477 1.610 . S
N479 C480 1.351 . S
C480 C474 1.428 . S
C480 N479 1.351 . S
C480 C481 1.434 . S
C481 C472 1.429 1_655 S
C481 N478 1.350 . S
C481 C480 1.434 . S
C482 C483 1.369 1_545 S
C482 C484 1.419 . S
C482 H486 0.930 . S
C483 C482 1.369 1_565 S
C483 C492 1.429 . S
C484 C482 1.419 . S
C484 C485 1.363 . S
C484 H487 0.929 . S
C485 C484 1.363 . S
C485 C491 1.428 1_545 S
H486 C482 0.930 . S
H487 C484 0.929 . S
S488 N489 1.613 . S
S488 N490 1.610 . S
N489 S488 1.613 . S
N489 C492 1.350 . S
N490 S488 1.610 . S
N490 C491 1.351 . S
C491 C485 1.428 1_565 S
C491 N490 1.351 . S
C491 C492 1.434 . S
C492 C483 1.429 . S
C492 N489 1.350 . S
C492 C491 1.434 . S
C493 C494 1.369 . S
C493 C495 1.419 . S
C493 H497 0.930 . S
C494 C493 1.369 . S
C494 C503 1.429 1_554 S
C495 C493 1.419 . S
C495 C496 1.363 . S
C495 H498 0.929 . S
C496 C495 1.363 . S
C496 C502 1.428 1_554 S
H497 C493 0.930 . S
H498 C495 0.929 . S
S499 N500 1.613 . S
S499 N501 1.610 . S
N500 S499 1.613 . S
N500 C503 1.350 . S
N501 S499 1.610 . S
N501 C502 1.351 . S
C502 C496 1.428 1_556 S
C502 N501 1.351 . S
C502 C503 1.434 . S
C503 C494 1.429 1_556 S
C503 N500 1.350 . S
C503 C502 1.434 . S
C504 C505 1.369 . S
C504 C506 1.419 1_565 S
C504 H508 0.930 . S
C505 C504 1.369 . S
C505 C514 1.429 . S
C506 C504 1.419 1_545 S
C506 C507 1.363 . S
C506 H509 0.929 . S
C507 C506 1.363 . S
C507 C513 1.428 . S
H508 C504 0.930 . S
H509 C506 0.929 . S
S510 N511 1.613 . S
S510 N512 1.610 1_565 S
N511 S510 1.613 . S
N511 C514 1.350 . S
N512 S510 1.610 1_545 S
N512 C513 1.351 . S
C513 C507 1.428 . S
C513 N512 1.351 . S
C513 C514 1.434 1_545 S
C514 C505 1.429 . S
C514 N511 1.350 . S
C514 C513 1.434 1_565 S
C515 C516 1.369 . S
C515 C517 1.419 . S
C515 H519 0.930 . S
C516 C515 1.369 . S
C516 C525 1.429 . S
C517 C515 1.419 . S
C517 C518 1.363 . S
C517 H520 0.929 . S
C518 C517 1.363 . S
C518 C524 1.428 . S
H519 C515 0.930 . S
H520 C517 0.929 . S
S521 N522 1.613 . S
S521 N523 1.610 . S
N522 S521 1.613 . S
N522 C525 1.350 . S
N523 S521 1.610 . S
N523 C524 1.351 . S
C524 C518 1.428 . S
C524 N523 1.351 . S
C524 C525 1.434 . S
C525 C516 1.429 . S
C525 N522 1.350 . S
C525 C524 1.434 . S
C526 C527 1.370 . S
C526 C528 1.416 1_655 S
C526 H530 0.932 1_655 S
C527 C526 1.370 . S
C527 C536 1.429 . S
C528 C526 1.416 1_455 S
C528 C529 1.363 . S
C528 H531 0.929 . S
C529 C528 1.363 . S
C529 C535 1.428 1_455 S
H530 C526 0.932 1_455 S
H531 C528 0.929 . S
S532 N533 1.613 . S
S532 N534 1.610 . S
N533 S532 1.613 . S
N533 C536 1.350 . S
N534 S532 1.610 . S
N534 C535 1.351 . S
C535 C529 1.428 1_655 S
C535 N534 1.351 . S
C535 C536 1.434 . S
C536 C527 1.429 . S
C536 N533 1.350 . S
C536 C535 1.434 . S
C537 C538 1.369 1_565 S
C537 C539 1.419 . S
C537 H541 0.930 . S
C538 C537 1.369 1_545 S
C538 C547 1.429 . S
C539 C537 1.419 . S
C539 C540 1.363 . S
C539 H542 0.929 . S
C540 C539 1.363 . S
C540 C546 1.428 1_565 S
H541 C537 0.930 . S
H542 C539 0.929 . S
S543 N544 1.613 . S
S543 N545 1.610 . S
N544 S543 1.613 . S
N544 C547 1.350 . S
N545 S543 1.610 . S
N545 C546 1.351 . S
C546 C540 1.428 1_545 S
C546 N545 1.351 . S
C546 C547 1.434 . S
C547 C538 1.429 . S
C547 N544 1.350 . S
C547 C546 1.434 . S
C548 C549 1.369 . S
C548 C550 1.419 . S
C548 H552 0.930 . S
C549 C548 1.369 . S
C549 C558 1.429 . S
C550 C548 1.419 . S
C550 C551 1.363 . S
C550 H553 0.929 . S
C551 C550 1.363 . S
C551 C557 1.428 . S
H552 C548 0.930 . S
H553 C550 0.929 . S
S554 N555 1.613 . S
S554 N556 1.610 . S
N555 S554 1.613 . S
N555 C558 1.350 . S
N556 S554 1.610 . S
N556 C557 1.351 . S
C557 C551 1.428 . S
C557 N556 1.351 . S
C557 C558 1.434 . S
C558 C549 1.429 . S
C558 N555 1.350 . S
C558 C557 1.434 . S
C559 C560 1.369 1_655 S
C559 C561 1.419 . S
C559 H563 0.930 . S
C560 C559 1.369 1_455 S
C560 C569 1.429 . S
C561 C559 1.419 . S
C561 C562 1.363 . S
C561 H564 0.929 . S
C562 C561 1.363 . S
C562 C568 1.428 1_655 S
H563 C559 0.930 . S
H564 C561 0.929 . S
S565 N566 1.613 . S
S565 N567 1.610 . S
N566 S565 1.613 . S
N566 C569 1.350 . S
N567 S565 1.610 . S
N567 C568 1.351 . S
C568 C562 1.428 1_455 S
C568 N567 1.351 . S
C568 C569 1.434 . S
C569 C560 1.429 . S
C569 N566 1.350 . S
C569 C568 1.434 . S
C570 C571 1.369 . S
C570 C572 1.419 . S
C570 H574 0.930 . S
C571 C570 1.369 . S
C571 C580 1.429 . S
C572 C570 1.419 . S
C572 C573 1.363 . S
C572 H575 0.929 . S
C573 C572 1.363 . S
C573 C579 1.428 . S
H574 C570 0.930 . S
H575 C572 0.929 . S
S576 N577 1.613 . S
S576 N578 1.610 . S
N577 S576 1.613 . S
N577 C580 1.350 . S
N578 S576 1.610 . S
N578 C579 1.351 . S
C579 C573 1.428 . S
C579 N578 1.351 . S
C579 C580 1.434 . S
C580 C571 1.429 . S
C580 N577 1.350 . S
C580 C579 1.434 . S
C581 C582 1.369 . S
C581 C583 1.419 . S
C581 H585 0.930 . S
C582 C581 1.369 . S
C582 C591 1.429 . S
C583 C581 1.419 . S
C583 C584 1.363 . S
C583 H586 0.929 . S
C584 C583 1.363 . S
C584 C590 1.428 . S
H585 C581 0.930 . S
H586 C583 0.929 . S
S587 N588 1.613 . S
S587 N589 1.610 . S
N588 S587 1.613 . S
N588 C591 1.350 . S
N589 S587 1.610 . S
N589 C590 1.351 . S
C590 C584 1.428 . S
C590 N589 1.351 . S
C590 C591 1.434 . S
C591 C582 1.429 . S
C591 N588 1.350 . S
C591 C590 1.434 . S
C592 C593 1.369 . S
C592 C594 1.419 . S
C592 H596 0.930 . S
C593 C592 1.369 . S
C593 C602 1.429 . S
C594 C592 1.419 . S
C594 C595 1.363 . S
C594 H597 0.929 . S
C595 C594 1.363 . S
C595 C601 1.428 . S
H596 C592 0.930 . S
H597 C594 0.929 . S
S598 N599 1.613 . S
S598 N600 1.610 . S
N599 S598 1.613 . S
N599 C602 1.350 . S
N600 S598 1.610 . S
N600 C601 1.351 . S
C601 C595 1.428 . S
C601 N600 1.351 . S
C601 C602 1.434 . S
C602 C593 1.429 . S
C602 N599 1.350 . S
C602 C601 1.434 . S
C603 C604 1.369 . S
C603 C605 1.419 . S
C603 H607 0.930 . S
C604 C603 1.369 . S
C604 C613 1.429 . S
C605 C603 1.419 . S
C605 C606 1.363 . S
C605 H608 0.929 . S
C606 C605 1.363 . S
C606 C612 1.428 . S
H607 C603 0.930 . S
H608 C605 0.929 . S
S609 N610 1.613 . S
S609 N611 1.610 . S
N610 S609 1.613 . S
N610 C613 1.350 . S
N611 S609 1.610 . S
N611 C612 1.351 . S
C612 C606 1.428 . S
C612 N611 1.351 . S
C612 C613 1.434 . S
C613 C604 1.429 . S
C613 N610 1.350 . S
C613 C612 1.434 . S
C614 C615 1.369 . S
C614 C616 1.419 . S
C614 H618 0.930 . S
C615 C614 1.369 . S
C615 C624 1.429 . S
C616 C614 1.419 . S
C616 C617 1.363 . S
C616 H619 0.929 . S
C617 C616 1.363 . S
C617 C623 1.428 . S
H618 C614 0.930 . S
H619 C616 0.929 . S
S620 N621 1.613 . S
S620 N622 1.610 . S
N621 S620 1.613 . S
N621 C624 1.350 . S
N622 S620 1.610 . S
N622 C623 1.351 . S
C623 C617 1.428 . S
C623 N622 1.351 . S
C623 C624 1.434 . S
C624 C615 1.429 . S
C624 N621 1.350 . S
C624 C623 1.434 . S
C625 C626 1.369 . S
C625 C627 1.419 . S
C625 H629 0.930 . S
C626 C625 1.369 . S
C626 C635 1.429 . S
C627 C625 1.419 . S
C627 C628 1.363 . S
C627 H630 0.929 . S
C628 C627 1.363 . S
C628 C634 1.428 . S
H629 C625 0.930 . S
H630 C627 0.929 . S
S631 N632 1.613 . S
S631 N633 1.610 . S
N632 S631 1.613 . S
N632 C635 1.350 . S
N633 S631 1.610 . S
N633 C634 1.351 . S
C634 C628 1.428 . S
C634 N633 1.351 . S
C634 C635 1.434 . S
C635 C626 1.429 . S
C635 N632 1.350 . S
C635 C634 1.434 . S
C241 C1 1.358 . S
C243 C161 1.359 . S
C252 C21 1.358 . S
C254 C181 1.359 . S
C263 C41 1.360 . S
C265 C201 1.358 . S
C274 C221 1.357 . S
C276 C61 1.360 . S
C285 C81 1.360 . S
C287 C121 1.358 . S
C296 C141 1.357 . S
C298 C101 1.360 . S
C307 C219 2.329 . S
C309 C19 2.335 . S
C318 C239 2.334 . S
C320 C39 2.333 . S
C329 C59 2.329 . S
C331 C139 2.334 . S
C340 C159 2.336 . S
C342 C79 2.331 . S
C351 C179 2.330 . S
C353 C99 2.334 . S
C362 C119 2.330 . S
C364 C199 2.333 . S
C373 C146 0.949 . S
C375 C6 0.964 . S
C384 C166 0.954 . S
C386 C26 0.961 . S
C395 C186 0.950 . S
C397 C46 0.964 . S
C406 C66 0.966 . S
C408 C206 0.951 . S
C417 C86 0.954 . S
C419 C226 0.959 . S
C428 C106 0.950 . S
C430 C126 0.964 . S
C439 C9 0.658 . S
C441 C69 0.661 . S
C450 C29 0.641 . S
C452 C89 0.650 . S
C461 C49 0.668 . S
C463 C109 0.645 . S
C472 C189 0.662 . S
C474 C129 0.641 . S
C483 C149 0.644 . S
C485 C209 0.665 . S
C494 C229 0.652 . S
C496 C169 0.664 . S
C505 C148 2.468 . S
C507 C8 2.466 . S
C516 C168 2.467 . S
C518 C28 2.469 . S
C527 C48 2.468 . S
C529 C188 2.466 . S
C538 C208 2.470 . S
C540 C68 2.466 . S
C549 C228 2.468 . S
C551 C88 2.466 . S
C560 C108 2.470 . S
C562 C128 2.466 . S
C571 C16 0.915 . S
C573 C216 0.930 . S
C582 C36 0.930 . S
C584 C236 0.919 . S
C593 C56 0.916 . S
C595 C136 0.928 . S
C604 C76 0.926 . S
C606 C156 0.920 . S
C615 C96 0.931 . S
C617 C176 0.918 . S
C626 C196 0.930 . S
C628 C116 0.919 . S
