# Generated by pormake.
# Topology sra, (4)-cn, num edge types: 1
# Building blocks:
#     Node 0, Type 0, BuildingBlock: KUFVIS_clean_sbu_0, # of connection points: 4
#     Node 1, Type 0, BuildingBlock: KUFVIS_clean_sbu_0, # of connection points: 4
#     Node 2, Type 0, BuildingBlock: KUFVIS_clean_sbu_0, # of connection points: 4
#     Node 3, Type 0, BuildingBlock: KUFVIS_clean_sbu_0, # of connection points: 4
#     Node 4, Type 0, BuildingBlock: KUFVIS_clean_sbu_0, # of connection points: 4
#     Node 5, Type 0, BuildingBlock: KUFVIS_clean_sbu_0, # of connection points: 4
#     Node 6, Type 0, BuildingBlock: KUFVIS_clean_sbu_0, # of connection points: 4
#     Node 7, Type 0, BuildingBlock: KUFVIS_clean_sbu_0, # of connection points: 4
#     Edge 8, Type (0, 0), BuildingBlock: KIFKEQ_clean_linker_1, # of connection points: 2
#     Edge 9, Type (0, 0), BuildingBlock: KIFKEQ_clean_linker_1, # of connection points: 2
#     Edge 10, Type (0, 0), BuildingBlock: KIFKEQ_clean_linker_1, # of connection points: 2
#     Edge 11, Type (0, 0), BuildingBlock: KIFKEQ_clean_linker_1, # of connection points: 2
#     Edge 12, Type (0, 0), BuildingBlock: KIFKEQ_clean_linker_1, # of connection points: 2
#     Edge 13, Type (0, 0), BuildingBlock: KIFKEQ_clean_linker_1, # of connection points: 2
#     Edge 14, Type (0, 0), BuildingBlock: KIFKEQ_clean_linker_1, # of connection points: 2
#     Edge 15, Type (0, 0), BuildingBlock: KIFKEQ_clean_linker_1, # of connection points: 2
#     Edge 16, Type (0, 0), BuildingBlock: KIFKEQ_clean_linker_1, # of connection points: 2
#     Edge 17, Type (0, 0), BuildingBlock: KIFKEQ_clean_linker_1, # of connection points: 2
#     Edge 18, Type (0, 0), BuildingBlock: KIFKEQ_clean_linker_1, # of connection points: 2
#     Edge 19, Type (0, 0), BuildingBlock: KIFKEQ_clean_linker_1, # of connection points: 2
#     Edge 20, Type (0, 0), BuildingBlock: KIFKEQ_clean_linker_1, # of connection points: 2
#     Edge 21, Type (0, 0), BuildingBlock: KIFKEQ_clean_linker_1, # of connection points: 2
#     Edge 22, Type (0, 0), BuildingBlock: KIFKEQ_clean_linker_1, # of connection points: 2
#     Edge 23, Type (0, 0), BuildingBlock: KIFKEQ_clean_linker_1, # of connection points: 2
# Relax obj value: 0.055
# Max RMSD: 0.085
# Mean RMSD: 0.085
data_MOF--net-sra--node1-KUFVIS_clean_sbu_0--edge1-KIFKEQ_clean_linker_1
_symmetry_space_group_name_H-M    P1
_symmetry_Int_Tables_number       1
_symmetry_cell_setting            triclinic
loop_
_symmetry_equiv_pos_as_xyz
'x, y, z'
_cell_length_a     26.986305
_cell_length_b     52.954533
_cell_length_c     33.632069
_cell_angle_alpha  89.978436
_cell_angle_beta   90.016131
_cell_angle_gamma 90.015246
loop_
_atom_site_label
_atom_site_type_symbol
_atom_site_fract_x
_atom_site_fract_y
_atom_site_fract_z
_atom_type_partial_charge
Mn0 Mn 0.98909 0.12181 0.15997 0.0
Mn1 Mn 0.98151 0.06868 0.21506 0.0
C2 C 0.91308 0.10754 0.18212 0.0
C3 C -0.00092 0.16565 0.15733 0.0
C4 C -0.00091 0.06865 0.12567 0.0
O5 O 0.0602 0.11631 0.17858 0.0
O6 O 0.04901 0.08325 0.22005 0.0
C7 C 0.99195 0.0912 0.29521 0.0
N8 N 0.96567 0.07695 0.2689 0.0
C9 C 0.90179 0.06925 0.31732 0.0
C10 C 0.92853 0.08354 0.34509 0.0
C11 C 0.97372 0.09464 0.33392 0.0
C12 C 0.92197 0.06634 0.27923 0.0
H13 H 0.02639 0.10001 0.28663 0.0
C14 C 0.07592 0.10062 0.20459 0.0
O15 O 0.00857 0.15158 0.12659 0.0
O16 O 0.98539 0.15414 0.1895 0.0
N17 N 0.91747 0.05312 0.21333 0.0
C18 C 0.8945 0.04151 0.18221 0.0
C19 C 0.84789 0.03029 0.18798 0.0
C20 C 0.82552 0.03101 0.22566 0.0
C21 C 0.84991 0.043 0.25726 0.0
C22 C 0.89649 0.05366 0.24983 0.0
H23 H 0.91151 0.04089 0.15318 0.0
O24 O 0.91554 0.12286 0.15206 0.0
O25 O 0.95498 0.1012 0.19806 0.0
O26 O 0.9953 0.09248 0.12047 0.0
O27 O 0.99661 0.05813 0.15986 0.0
C28 C 0.82946 0.04516 0.29565 0.0
C29 C 0.85534 0.05831 0.32563 0.0
H30 H 0.9144 0.08639 0.3749 0.0
H31 H 0.99433 0.10591 0.35506 0.0
H32 H 0.82921 0.02114 0.16342 0.0
H33 H 0.78954 0.0224 0.22994 0.0
H34 H 0.79352 0.03714 0.30232 0.0
H35 H 0.8388 0.06024 0.35481 0.0
Mn36 Mn 0.01491 0.40057 0.16048 0.0
Mn37 Mn 0.02151 0.45384 0.21524 0.0
C38 C 0.09073 0.41526 0.1826 0.0
C39 C 0.00577 0.35669 0.1578 0.0
C40 C 0.00389 0.45362 0.12581 0.0
O41 O 0.94366 0.40569 0.17919 0.0
O42 O 0.95422 0.43895 0.22032 0.0
C43 C 0.01145 0.43139 0.2955 0.0
N44 N 0.03749 0.44572 0.26914 0.0
C45 C 0.10141 0.45361 0.31748 0.0
C46 C 0.0749 0.43924 0.3453 0.0
C47 C 0.02981 0.42802 0.33421 0.0
C48 C 0.08109 0.45646 0.27941 0.0
H49 H 0.97711 0.42246 0.28698 0.0
C50 C 0.92765 0.42135 0.2051 0.0
O51 O 0.99594 0.37075 0.1271 0.0
O52 O 0.01931 0.36822 0.18999 0.0
N53 N 0.0853 0.46967 0.21348 0.0
C54 C 0.10809 0.48134 0.18232 0.0
C55 C 0.15458 0.4927 0.18804 0.0
C56 C 0.17705 0.49205 0.2257 0.0
C57 C 0.15287 0.47999 0.25732 0.0
C58 C 0.10637 0.46921 0.24996 0.0
H59 H 0.09103 0.4819 0.1533 0.0
O60 O 0.08851 0.39992 0.15257 0.0
O61 O 0.04869 0.4214 0.1985 0.0
O62 O 0.00803 0.4298 0.12084 0.0
O63 O 0.00624 0.46425 0.15992 0.0
C64 C 0.17346 0.47786 0.29567 0.0
C65 C 0.1478 0.46464 0.32571 0.0
H66 H 0.08914 0.43643 0.37509 0.0
H67 H 0.00939 0.41668 0.35538 0.0
H68 H 0.1731 0.50191 0.16345 0.0
H69 H 0.21296 0.50076 0.22997 0.0
H70 H 0.20937 0.48595 0.30226 0.0
H71 H 0.16446 0.46274 0.35486 0.0
Mn72 Mn 0.99061 0.90024 0.84987 0.0
Mn73 Mn 0.98143 0.95408 0.79659 0.0
C74 C 0.91419 0.91438 0.82825 0.0
C75 C 0.00094 0.85641 0.85185 0.0
C76 C -0.00124 0.95323 0.88582 0.0
O77 O 0.0615 0.906 0.83075 0.0
O78 O 0.0497 0.94057 0.7927 0.0
C79 C 0.99571 0.93282 0.716 0.0
N80 N 0.96758 0.94612 0.74229 0.0
C81 C 0.9045 0.95323 0.69297 0.0
C82 C 0.93292 0.93974 0.66529 0.0
C83 C 0.97868 0.92945 0.6769 0.0
C84 C 0.92346 0.95606 0.73147 0.0
H85 H 0.03083 0.92481 0.72482 0.0
C86 C 0.0771 0.9229 0.80664 0.0
O87 O 0.01065 0.87035 0.88269 0.0
O88 O 0.98687 0.86804 0.81988 0.0
N89 N 0.91667 0.96879 0.79747 0.0
C90 C 0.89257 0.98005 0.82832 0.0
C91 C 0.8457 0.99082 0.82193 0.0
C92 C 0.82427 0.99002 0.7839 0.0
C93 C 0.84981 0.97838 0.75258 0.0
C94 C 0.8966 0.96817 0.76064 0.0
H95 H 0.90892 0.98076 0.85761 0.0
O96 O 0.91712 0.89893 0.85812 0.0
O97 O 0.9559 0.92106 0.8123 0.0
O98 O 0.997 0.92927 0.89015 0.0
O99 O 0.99456 0.96421 0.85214 0.0
C100 C 0.83045 0.9762 0.71381 0.0
C101 C 0.85769 0.96357 0.68407 0.0
H102 H 0.91979 0.93698 0.63517 0.0
H103 H 0.00072 0.91891 0.65577 0.0
H104 H 0.82613 0.99972 0.84626 0.0
H105 H 0.78818 0.99836 0.77915 0.0
H106 H 0.79437 0.98386 0.70662 0.0
H107 H 0.84205 0.96168 0.65456 0.0
Mn108 Mn 0.01508 0.62144 0.84988 0.0
Mn109 Mn 0.02153 0.56802 0.79551 0.0
C110 C 0.09085 0.60665 0.82793 0.0
C111 C 0.00607 0.66534 0.85213 0.0
C112 C 0.00391 0.5685 0.88494 0.0
O113 O 0.94383 0.6163 0.83121 0.0
O114 O 0.95429 0.58292 0.79031 0.0
C115 C 0.01154 0.59025 0.7151 0.0
N116 N 0.03753 0.57598 0.74157 0.0
C117 C 0.10144 0.56794 0.69332 0.0
C118 C 0.07497 0.58224 0.66539 0.0
C119 C 0.02991 0.59352 0.67639 0.0
C120 C 0.08111 0.56519 0.73139 0.0
H121 H 0.97723 0.59923 0.72355 0.0
C122 C 0.92777 0.60056 0.80541 0.0
O123 O 0.99622 0.65141 0.88297 0.0
O124 O 0.01957 0.65368 0.82007 0.0
N125 N 0.08528 0.55216 0.79741 0.0
C126 C 0.10802 0.54055 0.82865 0.0
C127 C 0.15447 0.52915 0.82303 0.0
C128 C 0.17694 0.52969 0.78538 0.0
C129 C 0.1528 0.54169 0.75367 0.0
C130 C 0.10634 0.55251 0.76094 0.0
H131 H 0.09095 0.54007 0.85767 0.0
O132 O 0.08868 0.62209 0.85782 0.0
O133 O 0.0488 0.60048 0.81205 0.0
O134 O 0.00813 0.59234 0.88977 0.0
O135 O 0.00624 0.55779 0.8509 0.0
C136 C 0.17341 0.54371 0.71531 0.0
C137 C 0.14779 0.55685 0.68518 0.0
H138 H 0.08922 0.58497 0.63558 0.0
H139 H 0.00952 0.60481 0.65512 0.0
H140 H 0.17296 0.51999 0.84768 0.0
H141 H 0.21282 0.52095 0.78118 0.0
H142 H 0.20929 0.53558 0.7088 0.0
H143 H 0.16445 0.55867 0.65602 0.0
Mn144 Mn 0.48976 0.6215 0.66008 0.0
Mn145 Mn 0.48325 0.56822 0.71486 0.0
C146 C 0.41397 0.60676 0.68214 0.0
C147 C 0.49881 0.66541 0.65751 0.0
C148 C 0.50085 0.56846 0.62543 0.0
O149 O 0.56103 0.6164 0.67879 0.0
O150 O 0.55049 0.58312 0.71993 0.0
C151 C 0.49329 0.59068 0.79509 0.0
N152 N 0.46728 0.57632 0.76875 0.0
C153 C 0.40345 0.56835 0.81712 0.0
C154 C 0.42994 0.58274 0.84492 0.0
C155 C 0.47496 0.59403 0.8338 0.0
C156 C 0.42373 0.56553 0.77905 0.0
H157 H 0.52757 0.59966 0.78654 0.0
C158 C 0.57705 0.60072 0.70469 0.0
O159 O 0.50864 0.65141 0.62677 0.0
O160 O 0.48531 0.65382 0.68965 0.0
N161 N 0.4195 0.55233 0.71312 0.0
C162 C 0.39675 0.54062 0.682 0.0
C163 C 0.35034 0.52918 0.68775 0.0
C164 C 0.32792 0.5298 0.72542 0.0
C165 C 0.35206 0.54191 0.75701 0.0
C166 C 0.39848 0.55276 0.74962 0.0
H167 H 0.41378 0.54007 0.65297 0.0
O168 O 0.41616 0.62213 0.65214 0.0
O169 O 0.45601 0.60063 0.69807 0.0
O170 O 0.49668 0.59228 0.62042 0.0
O171 O 0.49849 0.55783 0.65956 0.0
C172 C 0.33151 0.544 0.79537 0.0
C173 C 0.35714 0.55725 0.82538 0.0
H174 H 0.41573 0.58554 0.87472 0.0
H175 H 0.49536 0.60539 0.85496 0.0
H176 H 0.33185 0.51993 0.66319 0.0
H177 H 0.29208 0.52102 0.72972 0.0
H178 H 0.29566 0.53585 0.80198 0.0
H179 H 0.34052 0.55912 0.85455 0.0
Mn180 Mn 0.51433 0.90039 0.66016 0.0
Mn181 Mn 0.52409 0.95395 0.71408 0.0
C182 C 0.5909 0.91449 0.68162 0.0
C183 C 0.50448 0.85651 0.65765 0.0
C184 C 0.50718 0.95374 0.62482 0.0
O185 O 0.4437 0.90576 0.67978 0.0
O186 O 0.45533 0.94079 0.71675 0.0
C187 C 0.50749 0.932 0.79398 0.0
N188 N 0.53644 0.94544 0.76843 0.0
C189 C 0.59835 0.95193 0.81892 0.0
C190 C 0.56905 0.93828 0.84584 0.0
C191 C 0.52349 0.92823 0.83327 0.0
C192 C 0.58042 0.95512 0.78017 0.0
H193 H 0.47251 0.92417 0.78443 0.0
C194 C 0.42797 0.92296 0.70325 0.0
O195 O 0.49428 0.87059 0.62705 0.0
O196 O 0.5188 0.86802 0.68963 0.0
N197 N 0.58911 0.96838 0.71456 0.0
C198 C 0.61415 0.97986 0.68436 0.0
C199 C 0.66082 0.99058 0.69183 0.0
C200 C 0.68113 0.98947 0.73023 0.0
C201 C 0.65475 0.97753 0.76081 0.0
C202 C 0.60816 0.96743 0.75171 0.0
H203 H 0.59873 0.98075 0.65479 0.0
O204 O 0.58776 0.89936 0.65139 0.0
O205 O 0.54933 0.92099 0.69795 0.0
O206 O 0.50688 0.92975 0.62041 0.0
O207 O 0.51281 0.96453 0.65851 0.0
C208 C 0.67308 0.97498 0.79984 0.0
C209 C 0.64499 0.9621 0.82883 0.0
H210 H 0.58136 0.93524 0.87613 0.0
H211 H 0.50078 0.91757 0.85382 0.0
H212 H 0.68109 0.99968 0.66805 0.0
H213 H 0.71699 0.99783 0.73586 0.0
H214 H 0.70903 0.98253 0.80778 0.0
H215 H 0.65983 0.95993 0.85856 0.0
Mn216 Mn 0.48974 0.40002 0.35065 0.0
Mn217 Mn 0.48323 0.45332 0.29588 0.0
C218 C 0.41393 0.41476 0.32856 0.0
C219 C 0.49868 0.35611 0.35329 0.0
C220 C 0.50091 0.45306 0.38531 0.0
O221 O 0.56101 0.40512 0.33192 0.0
O222 O 0.55045 0.4384 0.29079 0.0
C223 C 0.49316 0.43089 0.21563 0.0
N224 N 0.4672 0.44524 0.24199 0.0
C225 C 0.40337 0.45327 0.19363 0.0
C226 C 0.42981 0.4389 0.1658 0.0
C227 C 0.47481 0.42758 0.17691 0.0
C228 C 0.42367 0.45605 0.23171 0.0
H229 H 0.52743 0.4219 0.22416 0.0
C230 C 0.57702 0.42081 0.30601 0.0
O231 O 0.50858 0.37013 0.384 0.0
O232 O 0.48521 0.36768 0.32112 0.0
N233 N 0.4195 0.4692 0.29766 0.0
C234 C 0.39679 0.48089 0.32881 0.0
C235 C 0.3504 0.49234 0.32308 0.0
C236 C 0.32796 0.49176 0.2854 0.0
C237 C 0.35207 0.47968 0.25378 0.0
C238 C 0.39847 0.46881 0.26116 0.0
H239 H 0.41384 0.48141 0.35784 0.0
O240 O 0.41612 0.3994 0.35857 0.0
O241 O 0.45598 0.42089 0.31265 0.0
O242 O 0.49671 0.42923 0.39031 0.0
O243 O 0.49855 0.46369 0.35119 0.0
C244 C 0.33149 0.47763 0.21541 0.0
C245 C 0.35708 0.4644 0.18538 0.0
H246 H 0.41558 0.43613 0.136 0.0
H247 H 0.49517 0.41624 0.15573 0.0
H248 H 0.33193 0.50157 0.34766 0.0
H249 H 0.29214 0.50055 0.28112 0.0
H250 H 0.29566 0.4858 0.20882 0.0
H251 H 0.34045 0.46256 0.15621 0.0
Mn252 Mn 0.51341 0.12113 0.34929 0.0
Mn253 Mn 0.52184 0.0684 0.29329 0.0
C254 C 0.58968 0.10695 0.3275 0.0
C255 C 0.50399 0.16501 0.35261 0.0
C256 C 0.50387 0.06754 0.38261 0.0
O257 O 0.44265 0.11604 0.32986 0.0
O258 O 0.45388 0.08262 0.28918 0.0
C259 C 0.50984 0.09176 0.21383 0.0
N260 N 0.53672 0.07734 0.23951 0.0
C261 C 0.59991 0.07036 0.19024 0.0
C262 C 0.57254 0.08485 0.16311 0.0
C263 C 0.52741 0.09567 0.17502 0.0
C264 C 0.5804 0.067 0.22846 0.0
H265 H 0.47542 0.10034 0.22297 0.0
C266 C 0.42695 0.10012 0.30424 0.0
O267 O 0.49378 0.15075 0.38301 0.0
O268 O 0.51807 0.15368 0.32043 0.0
N269 N 0.58618 0.05314 0.29398 0.0
C270 C 0.60986 0.04133 0.32457 0.0
C271 C 0.6564 0.03023 0.31798 0.0
C272 C 0.67802 0.03133 0.28004 0.0
C273 C 0.65301 0.0436 0.24905 0.0
C274 C 0.6065 0.05409 0.25726 0.0
H275 H 0.59353 0.04049 0.35382 0.0
O276 O 0.58685 0.12189 0.35799 0.0
O277 O 0.54799 0.10082 0.31101 0.0
O278 O 0.50583 0.09141 0.38811 0.0
O279 O 0.50801 0.05724 0.34837 0.0
C280 C 0.67278 0.04621 0.2105 0.0
C281 C 0.64631 0.05963 0.18114 0.0
H282 H 0.58613 0.08806 0.13323 0.0
H283 H 0.50631 0.10709 0.15438 0.0
H284 H 0.67561 0.0209 0.34211 0.0
H285 H 0.7139 0.02278 0.2751 0.0
H286 H 0.70868 0.03834 0.20325 0.0
H287 H 0.66233 0.06191 0.15184 0.0
H288 H 0.97681 0.32616 0.09577 0.0
H289 H 0.03182 0.32393 0.21635 0.0
H290 H 0.97569 0.2799 0.09422 0.0
H291 H 0.03205 0.27815 0.21446 0.0
H292 H 0.0277 0.19625 0.09523 0.0
H293 H 0.02924 0.24253 0.09392 0.0
H294 H 0.97455 0.2441 0.21464 0.0
H295 H 0.97436 0.19833 0.21628 0.0
C296 C 0.98867 0.31582 0.12188 0.0
C297 C 0.00398 0.32873 0.15628 0.0
C298 C 0.98843 0.28933 0.1209 0.0
C299 C 0.00354 0.27525 0.1543 0.0
C300 C 0.01924 0.2883 0.18845 0.0
C301 C 0.01929 0.31463 0.18948 0.0
C302 C 0.01632 0.20656 0.1215 0.0
C303 C 0.00131 0.1936 0.15595 0.0
C304 C 0.01681 0.23306 0.12066 0.0
C305 C 0.00226 0.24709 0.15425 0.0
C306 C 0.98694 0.23399 0.18847 0.0
C307 C 0.98664 0.20766 0.18935 0.0
H308 H 0.02974 0.82574 0.91374 0.0
H309 H 0.97607 0.82379 0.79276 0.0
H310 H 0.03085 0.77949 0.91507 0.0
H311 H 0.97584 0.778 0.79442 0.0
H312 H 0.03193 0.69785 0.79316 0.0
H313 H 0.03257 0.74364 0.79465 0.0
H314 H 0.97684 0.7424 0.91507 0.0
H315 H 0.97755 0.69614 0.91392 0.0
C316 C 0.01821 0.81547 0.88747 0.0
C317 C 0.00319 0.82845 0.85306 0.0
C318 C 0.01844 0.78898 0.88833 0.0
C319 C 0.00361 0.77496 0.85479 0.0
C320 C 0.9884 0.78809 0.82055 0.0
C321 C 0.98834 0.81443 0.81966 0.0
C322 C 0.01962 0.70727 0.81998 0.0
C323 C 0.0044 0.69331 0.85336 0.0
C324 C 0.0198 0.73361 0.82078 0.0
C325 C 0.00444 0.7468 0.85489 0.0
C326 C 0.98935 0.73286 0.88844 0.0
C327 C 0.98935 0.70636 0.88768 0.0
H328 H 0.52705 0.69612 0.59544 0.0
H329 H 0.47331 0.69803 0.71637 0.0
H330 H 0.52794 0.74239 0.59408 0.0
H331 H 0.47288 0.74382 0.71469 0.0
H332 H 0.53003 0.82377 0.71637 0.0
H333 H 0.53013 0.778 0.7146 0.0
H334 H 0.47408 0.77966 0.59427 0.0
H335 H 0.47529 0.82594 0.59571 0.0
C336 C 0.51543 0.70639 0.62167 0.0
C337 C 0.50052 0.69339 0.65611 0.0
C338 C 0.51554 0.73289 0.6208 0.0
C339 C 0.50071 0.74689 0.65435 0.0
C340 C 0.48545 0.73374 0.68855 0.0
C341 C 0.48552 0.7074 0.68946 0.0
C342 C 0.51752 0.81446 0.68951 0.0
C343 C 0.50237 0.82855 0.65624 0.0
C344 C 0.51739 0.78813 0.68856 0.0
C345 C 0.50178 0.77505 0.6544 0.0
C346 C 0.48674 0.78912 0.62095 0.0
C347 C 0.48704 0.81562 0.62187 0.0
H348 H 0.47287 0.32346 0.29453 0.0
H349 H 0.52691 0.32541 0.4154 0.0
H350 H 0.47231 0.27769 0.29627 0.0
H351 H 0.52767 0.27913 0.41681 0.0
H352 H 0.475 0.19542 0.41487 0.0
H353 H 0.47382 0.24172 0.41657 0.0
H354 H 0.52989 0.24366 0.29628 0.0
H355 H 0.52977 0.19791 0.29425 0.0
C356 C 0.48511 0.31411 0.32144 0.0
C357 C 0.50027 0.32813 0.35475 0.0
C358 C 0.48497 0.28777 0.32238 0.0
C359 C 0.50032 0.27463 0.35657 0.0
C360 C 0.51523 0.28863 0.3901 0.0
C361 C 0.51519 0.31514 0.3892 0.0
C362 C 0.48677 0.20582 0.38879 0.0
C363 C 0.50206 0.19297 0.35433 0.0
C364 C 0.48649 0.23233 0.38985 0.0
C365 C 0.50149 0.24647 0.35647 0.0
C366 C 0.51714 0.23347 0.32227 0.0
C367 C 0.51726 0.20715 0.32118 0.0
H368 H 0.38993 0.08315 0.2338 0.0
H369 H 0.3476 0.12221 0.34143 0.0
H370 H 0.3052 0.0864 0.20928 0.0
H371 H 0.26212 0.12482 0.31695 0.0
H372 H 0.1125 0.08464 0.27569 0.0
H373 H 0.19735 0.08755 0.29995 0.0
H374 H 0.24144 0.12399 0.19079 0.0
H375 H 0.15576 0.12173 0.16652 0.0
C376 C 0.36259 0.09244 0.25225 0.0
C377 C 0.37544 0.10236 0.28967 0.0
C378 C 0.31422 0.09445 0.238 0.0
C379 C 0.27747 0.10594 0.26119 0.0
C380 C 0.29005 0.11591 0.29857 0.0
C381 C 0.33881 0.11441 0.31251 0.0
C382 C 0.14008 0.09345 0.25685 0.0
C383 C 0.12745 0.10289 0.21908 0.0
C384 C 0.18853 0.09525 0.27094 0.0
C385 C 0.2256 0.10606 0.24726 0.0
C386 C 0.21325 0.11559 0.20954 0.0
C387 C 0.16438 0.11431 0.19573 0.0
H388 H 0.61355 0.43687 0.23492 0.0
H389 H 0.65675 0.39905 0.34347 0.0
H390 H 0.69816 0.43364 0.21028 0.0
H391 H 0.74225 0.3965 0.31885 0.0
H392 H 0.89091 0.4375 0.27609 0.0
H393 H 0.80636 0.43396 0.3008 0.0
H394 H 0.76275 0.39644 0.19247 0.0
H395 H 0.84815 0.3993 0.16778 0.0
C396 C 0.64106 0.42781 0.25353 0.0
C397 C 0.62845 0.41828 0.29127 0.0
C398 C 0.68939 0.42583 0.23922 0.0
C399 C 0.72644 0.41475 0.26263 0.0
C400 C 0.71411 0.4051 0.30028 0.0
C401 C 0.66533 0.40655 0.31431 0.0
C402 C 0.86352 0.42831 0.25753 0.0
C403 C 0.87623 0.41875 0.21985 0.0
C404 C 0.81522 0.42614 0.27189 0.0
C405 C 0.77833 0.41485 0.24858 0.0
C406 C 0.79077 0.40519 0.21097 0.0
C407 C 0.8395 0.40683 0.1969 0.0
H408 H 0.12646 0.95926 0.76535 0.0
H409 H 0.14537 0.88456 0.81526 0.0
H410 H 0.21017 0.95792 0.73949 0.0
H411 H 0.23028 0.88348 0.78934 0.0
H412 H 0.36042 0.88421 0.69616 0.0
H413 H 0.27558 0.88307 0.72216 0.0
H414 H 0.29419 0.95842 0.76886 0.0
H415 H 0.37791 0.95979 0.74289 0.0
C416 C 0.14849 0.94254 0.77101 0.0
C417 C 0.12912 0.92204 0.79262 0.0
C418 C 0.19663 0.94185 0.75622 0.0
C419 C 0.22677 0.92064 0.7625 0.0
C420 C 0.20763 0.9 0.78386 0.0
C421 C 0.15925 0.90074 0.79898 0.0
C422 C 0.34622 0.90057 0.71174 0.0
C423 C 0.37593 0.92214 0.7172 0.0
C424 C 0.29789 0.8998 0.72693 0.0
C425 C 0.27836 0.92067 0.74745 0.0
C426 C 0.30806 0.94216 0.7528 0.0
C427 C 0.35618 0.94288 0.73794 0.0
H428 H 0.61372 0.58467 0.77576 0.0
H429 H 0.65667 0.62253 0.66718 0.0
H430 H 0.69836 0.58799 0.80036 0.0
H431 H 0.74218 0.62517 0.69176 0.0
H432 H 0.89098 0.5843 0.7345 0.0
H433 H 0.80637 0.58772 0.70984 0.0
H434 H 0.76285 0.62536 0.81807 0.0
H435 H 0.84831 0.62261 0.8427 0.0
C436 C 0.64118 0.59375 0.75713 0.0
C437 C 0.6285 0.60327 0.7194 0.0
C438 C 0.68952 0.59579 0.77142 0.0
C439 C 0.72649 0.60691 0.748 0.0
C440 C 0.71409 0.61654 0.71034 0.0
C441 C 0.6653 0.61503 0.69634 0.0
C442 C 0.8636 0.59349 0.75304 0.0
C443 C 0.87634 0.60312 0.79068 0.0
C444 C 0.81527 0.59559 0.7387 0.0
C445 C 0.77839 0.60688 0.76201 0.0
C446 C 0.79087 0.61661 0.79958 0.0
C447 C 0.83963 0.61503 0.81361 0.0
H448 H 0.60844 0.90232 0.75792 0.0
H449 H 0.67944 0.93091 0.65228 0.0
H450 H 0.68672 0.90457 0.79386 0.0
H451 H 0.75828 0.93366 0.68832 0.0
H452 H 0.89693 0.90252 0.7518 0.0
H453 H 0.81869 0.90477 0.71578 0.0
H454 H 0.74689 0.93353 0.8214 0.0
H455 H 0.82568 0.9308 0.85749 0.0
C456 C 0.64089 0.90954 0.74271 0.0
C457 C 0.63806 0.91713 0.70284 0.0
C458 C 0.68563 0.9109 0.76325 0.0
C459 C 0.72864 0.91957 0.74412 0.0
C460 C 0.72581 0.92686 0.70388 0.0
C461 C 0.68089 0.92537 0.68327 0.0
C462 C 0.86445 0.90969 0.767 0.0
C463 C 0.86718 0.91718 0.8069 0.0
C464 C 0.81972 0.91104 0.74641 0.0
C465 C 0.77665 0.91961 0.76556 0.0
C466 C 0.77941 0.92682 0.80582 0.0
C467 C 0.82431 0.92535 0.82646 0.0
H468 H 0.32644 0.58896 0.65296 0.0
H469 H 0.3959 0.61881 0.75838 0.0
H470 H 0.2475 0.58569 0.6888 0.0
H471 H 0.31759 0.61585 0.79419 0.0
H472 H 0.17847 0.58903 0.85719 0.0
H473 H 0.25742 0.58583 0.82135 0.0
H474 H 0.18712 0.61563 0.71578 0.0
H475 H 0.1088 0.61854 0.75159 0.0
C476 C 0.32468 0.59457 0.68389 0.0
C477 C 0.36709 0.6034 0.70345 0.0
C478 C 0.27973 0.59278 0.70438 0.0
C479 C 0.27649 0.60026 0.74448 0.0
C480 C 0.31909 0.60938 0.76367 0.0
C481 C 0.36384 0.61112 0.74322 0.0
C482 C 0.18018 0.59457 0.82621 0.0
C483 C 0.13772 0.60329 0.80661 0.0
C484 C 0.22514 0.59282 0.80573 0.0
C485 C 0.22833 0.60023 0.76559 0.0
C486 C 0.18566 0.60922 0.74634 0.0
C487 C 0.14091 0.61093 0.76679 0.0
H488 H 0.60787 0.11969 0.25158 0.0
H489 H 0.67754 0.08971 0.35686 0.0
H490 H 0.68631 0.11722 0.21588 0.0
H491 H 0.75662 0.08697 0.32114 0.0
H492 H 0.89524 0.11968 0.25833 0.0
H493 H 0.81689 0.11698 0.29415 0.0
H494 H 0.74634 0.08729 0.18862 0.0
H495 H 0.82531 0.09023 0.15282 0.0
C496 C 0.64003 0.1121 0.26674 0.0
C497 C 0.6368 0.10415 0.3064 0.0
C498 C 0.68484 0.11065 0.24635 0.0
C499 C 0.72749 0.1016 0.26553 0.0
C500 C 0.72432 0.09399 0.30557 0.0
C501 C 0.6793 0.09549 0.32599 0.0
C502 C 0.86306 0.11214 0.24316 0.0
C503 C 0.86617 0.10442 0.20339 0.0
C504 C 0.81829 0.11056 0.2636 0.0
C505 C 0.77558 0.10162 0.24437 0.0
C506 C 0.77868 0.09421 0.20424 0.0
C507 C 0.82364 0.09582 0.18377 0.0
H508 H 0.17844 0.43286 0.15348 0.0
H509 H 0.10864 0.40318 0.25889 0.0
H510 H 0.2574 0.43591 0.18937 0.0
H511 H 0.18697 0.40595 0.29476 0.0
H512 H 0.3264 0.43251 0.35777 0.0
H513 H 0.24745 0.43583 0.32191 0.0
H514 H 0.31748 0.4058 0.21645 0.0
H515 H 0.3958 0.40278 0.25228 0.0
C516 C 0.18012 0.42725 0.18443 0.0
C517 C 0.13761 0.41853 0.20397 0.0
C518 C 0.22509 0.42891 0.20494 0.0
C519 C 0.22825 0.42142 0.24505 0.0
C520 C 0.18554 0.41243 0.26423 0.0
C521 C 0.14078 0.4108 0.24375 0.0
C522 C 0.32463 0.42693 0.32682 0.0
C523 C 0.36703 0.41813 0.30724 0.0
C524 C 0.27967 0.42875 0.30632 0.0
C525 C 0.27641 0.42133 0.2662 0.0
C526 C 0.319 0.41223 0.24699 0.0
C527 C 0.36375 0.41046 0.26746 0.0
H528 H 0.02883 0.01924 0.1236 0.0
H529 H 0.98041 0.08027 0.0477 0.0
H530 H 0.03335 0.99133 0.06625 0.0
H531 H 0.98284 0.05214 0.9906 0.0
H532 H 0.02887 1.00244 0.88868 0.0
H533 H 0.03368 0.03001 0.94629 0.0
H534 H 0.98319 0.96889 0.02133 0.0
H535 H 0.9805 0.941 0.96375 0.0
C536 C 0.01906 0.02671 0.09466 0.0
C537 C 0.00431 0.05205 0.09031 0.0
C538 C 0.02128 1.01061 0.06173 0.0
C539 C 0.00825 0.01931 0.02359 0.0
C540 C 0.99402 0.04477 0.01926 0.0
C541 C 0.99239 0.06095 0.05212 0.0
C542 C 0.0191 0.99481 0.91753 0.0
C543 C 0.00419 0.96949 0.92154 0.0
C544 C 0.02151 1.01072 0.95063 0.0
C545 C 0.00841 1.00187 0.98865 0.0
C546 C 0.99427 0.97638 0.99273 0.0
C547 C 0.99249 0.96035 0.95963 0.0
H548 H 0.97351 0.51919 0.88783 0.0
H549 H 0.02227 0.58057 0.96284 0.0
H550 H 0.96855 0.49166 0.94559 0.0
H551 H 0.01941 0.55278 0.02041 0.0
H552 H 0.97414 0.50305 0.12315 0.0
H553 H 0.96918 0.53065 0.06544 0.0
H554 H 0.01894 0.46946 0.99036 0.0
H555 H 0.0218 0.44162 0.04785 0.0
C556 C 0.98327 0.52683 0.91666 0.0
C557 C 0.99831 0.55214 0.9206 0.0
C558 C 0.98078 0.51094 0.94986 0.0
C559 C 0.99388 0.51981 0.98789 0.0
C560 C 0.00824 0.54527 0.99185 0.0
C561 C 0.01013 0.56125 0.9587 0.0
C562 C 0.98365 0.49542 0.09427 0.0
C563 C 0.99836 0.47006 0.09023 0.0
C564 C 0.98117 0.51134 0.06111 0.0
C565 C 0.99393 0.50246 0.02302 0.0
C566 C 0.00801 0.47697 0.01897 0.0
C567 C 0.0099 0.46096 0.05207 0.0
H568 H 0.48268 0.44118 0.4633 0.0
H569 H 0.5311 0.50241 0.38781 0.0
H570 H 0.4855 0.46913 0.52066 0.0
H571 H 0.53601 0.53011 0.44536 0.0
H572 H 0.4828 0.58034 0.5474 0.0
H573 H 0.48567 0.55239 0.49006 0.0
H574 H 0.53581 0.49138 0.56545 0.0
H575 H 0.53086 0.51908 0.62299 0.0
C576 C 0.49474 0.4605 0.45901 0.0
C577 C 0.50649 0.46952 0.42084 0.0
C578 C 0.49661 0.47657 0.49203 0.0
C579 C 0.51086 0.50204 0.48788 0.0
C580 C 0.52387 0.51082 0.44977 0.0
C581 C 0.52142 0.49484 0.4167 0.0
C582 C 0.49479 0.56101 0.55172 0.0
C583 C 0.50643 0.55199 0.58992 0.0
C584 C 0.49668 0.54494 0.5187 0.0
C585 C 0.51085 0.51946 0.52289 0.0
C586 C 0.52373 0.51067 0.56102 0.0
C587 C 0.52126 0.52666 0.59408 0.0
H588 H 0.52737 1.00418 0.61931 0.0
H589 H 0.47628 0.94081 0.54955 0.0
H590 H 0.52338 0.03107 0.56113 0.0
H591 H 0.46993 0.96813 0.49136 0.0
H592 H 0.52023 0.01658 0.38611 0.0
H593 H 0.5182 0.98931 0.44404 0.0
H594 H 0.47197 0.05244 0.51658 0.0
H595 H 0.47642 0.08005 0.45874 0.0
C596 C 0.51464 0.996 0.59163 0.0
C597 C 0.50236 0.97021 0.5892 0.0
C598 C 0.51193 0.01156 0.55815 0.0
C599 C 0.49618 1.00194 0.52128 0.0
C600 C 0.48304 0.97621 0.51899 0.0
C601 C 0.4864 0.96051 0.55246 0.0
C602 C 0.50943 0.0247 0.41436 0.0
C603 C 0.49888 0.05064 0.41771 0.0
C604 C 0.5079 1.00893 0.44769 0.0
C605 C 0.49509 0.01854 0.4853 0.0
C606 C 0.48306 0.04437 0.48838 0.0
C607 C 0.48527 0.06024 0.4551 0.0
loop_
_geom_bond_atom_site_label_1
_geom_bond_atom_site_label_2
_geom_bond_distance
_geom_bond_site_symmetry_2
_ccdc_geom_bond_type
Mn0 O5 2.095 . S
Mn0 O15 2.162 . S
Mn0 O16 2.297 . S
Mn0 O24 2.385 1_455 S
Mn0 O25 2.209 1_455 S
Mn0 O26 2.094 . S
Mn1 O6 2.121 1_655 S
Mn1 N8 2.257 . S
Mn1 N17 2.282 . S
Mn1 O25 2.215 . S
Mn1 O27 2.117 . S
C2 O24 1.234 . S
C2 O25 1.283 . S
C3 O15 1.281 . S
C3 O16 1.236 . S
C4 O26 1.241 . S
C4 O27 1.263 1_455 S
O5 Mn0 2.095 . S
O5 C14 1.250 . S
O6 Mn1 2.121 1_455 S
O6 C14 1.258 . S
C7 N8 1.326 1_455 S
C7 C11 1.460 1_455 S
C7 H13 0.929 . S
N8 Mn1 2.257 . S
N8 C7 1.326 1_655 S
N8 C12 1.362 . S
C9 C10 1.258 . S
C9 C12 1.431 . S
C9 C29 1.449 . S
C10 C9 1.258 . S
C10 C11 1.477 . S
C10 H30 0.931 . S
C11 C7 1.460 1_655 S
C11 C10 1.477 . S
C11 H31 0.930 1_655 S
C12 N8 1.362 . S
C12 C9 1.431 . S
C12 C22 1.476 . S
H13 C7 0.929 . S
C14 O5 1.250 . S
C14 O6 1.258 . S
O15 Mn0 2.162 . S
O15 C3 1.281 . S
O16 Mn0 2.297 . S
O16 C3 1.236 . S
N17 Mn1 2.282 . S
N17 C18 1.328 . S
N17 C22 1.318 . S
C18 N17 1.328 . S
C18 C19 1.457 . S
C18 H23 0.929 . S
C19 C18 1.457 . S
C19 C20 1.291 . S
C19 H32 0.931 . S
C20 C19 1.291 . S
C20 C21 1.373 . S
C20 H33 0.929 . S
C21 C20 1.373 . S
C21 C22 1.396 . S
C21 C28 1.403 . S
C22 C12 1.476 . S
C22 N17 1.318 . S
C22 C21 1.396 . S
H23 C18 0.929 . S
O24 Mn0 2.385 1_655 S
O24 C2 1.234 . S
O25 Mn0 2.209 1_655 S
O25 Mn1 2.215 . S
O25 C2 1.283 . S
O26 Mn0 2.094 . S
O26 C4 1.241 . S
O27 Mn1 2.117 . S
O27 C4 1.263 1_655 S
C28 C21 1.403 . S
C28 C29 1.399 . S
C28 H34 0.929 . S
C29 C9 1.449 . S
C29 C28 1.399 . S
C29 H35 0.930 . S
H30 C10 0.931 . S
H31 C11 0.930 1_455 S
H32 C19 0.931 . S
H33 C20 0.929 . S
H34 C28 0.929 . S
H35 C29 0.930 . S
Mn36 O41 2.095 1_455 S
Mn36 O51 2.162 . S
Mn36 O52 2.297 . S
Mn36 O60 2.385 . S
Mn36 O61 2.209 . S
Mn36 O62 2.094 . S
Mn37 O42 2.121 1_455 S
Mn37 N44 2.257 . S
Mn37 N53 2.282 . S
Mn37 O61 2.215 . S
Mn37 O63 2.117 . S
C38 O60 1.234 . S
C38 O61 1.283 . S
C39 O51 1.281 . S
C39 O52 1.236 . S
C40 O62 1.240 . S
C40 O63 1.264 . S
O41 Mn36 2.095 1_655 S
O41 C50 1.250 . S
O42 Mn37 2.121 1_655 S
O42 C50 1.258 . S
C43 N44 1.326 . S
C43 C47 1.459 . S
C43 H49 0.930 1_455 S
N44 Mn37 2.257 . S
N44 C43 1.326 . S
N44 C48 1.362 . S
C45 C46 1.258 . S
C45 C48 1.431 . S
C45 C65 1.449 . S
C46 C45 1.258 . S
C46 C47 1.477 . S
C46 H66 0.931 . S
C47 C43 1.459 . S
C47 C46 1.477 . S
C47 H67 0.930 1_455 S
C48 N44 1.362 . S
C48 C45 1.431 . S
C48 C58 1.476 . S
H49 C43 0.930 1_655 S
C50 O41 1.250 . S
C50 O42 1.258 . S
O51 Mn36 2.162 . S
O51 C39 1.281 . S
O52 Mn36 2.297 . S
O52 C39 1.236 . S
N53 Mn37 2.282 . S
N53 C54 1.328 . S
N53 C58 1.318 . S
C54 N53 1.328 . S
C54 C55 1.457 . S
C54 H59 0.929 . S
C55 C54 1.457 . S
C55 C56 1.291 . S
C55 H68 0.931 . S
C56 C55 1.291 . S
C56 C57 1.373 . S
C56 H69 0.929 . S
C57 C56 1.373 . S
C57 C58 1.396 . S
C57 C64 1.403 . S
C58 C48 1.476 . S
C58 N53 1.318 . S
C58 C57 1.396 . S
H59 C54 0.929 . S
O60 Mn36 2.385 . S
O60 C38 1.234 . S
O61 Mn36 2.209 . S
O61 Mn37 2.215 . S
O61 C38 1.283 . S
O62 Mn36 2.094 . S
O62 C40 1.240 . S
O63 Mn37 2.117 . S
O63 C40 1.264 . S
C64 C57 1.403 . S
C64 C65 1.399 . S
C64 H70 0.929 . S
C65 C45 1.449 . S
C65 C64 1.399 . S
C65 H71 0.930 . S
H66 C46 0.931 . S
H67 C47 0.930 1_655 S
H68 C55 0.931 . S
H69 C56 0.929 . S
H70 C64 0.929 . S
H71 C65 0.930 . S
Mn72 O77 2.095 . S
Mn72 O87 2.162 . S
Mn72 O88 2.297 . S
Mn72 O96 2.385 1_455 S
Mn72 O97 2.209 1_455 S
Mn72 O98 2.094 . S
Mn73 O78 2.121 1_655 S
Mn73 N80 2.257 . S
Mn73 N89 2.282 . S
Mn73 O97 2.215 . S
Mn73 O99 2.117 . S
C74 O96 1.234 . S
C74 O97 1.283 . S
C75 O87 1.281 . S
C75 O88 1.236 . S
C76 O98 1.241 . S
C76 O99 1.263 1_455 S
O77 Mn72 2.095 . S
O77 C86 1.250 . S
O78 Mn73 2.121 1_455 S
O78 C86 1.258 . S
C79 N80 1.326 1_455 S
C79 C83 1.460 1_455 S
C79 H85 0.929 . S
N80 Mn73 2.257 . S
N80 C79 1.326 1_655 S
N80 C84 1.362 . S
C81 C82 1.258 . S
C81 C84 1.431 . S
C81 C101 1.449 . S
C82 C81 1.258 . S
C82 C83 1.477 . S
C82 H102 0.931 . S
C83 C79 1.460 1_655 S
C83 C82 1.477 . S
C83 H103 0.930 1_655 S
C84 N80 1.362 . S
C84 C81 1.431 . S
C84 C94 1.476 . S
H85 C79 0.929 . S
C86 O77 1.250 . S
C86 O78 1.258 . S
O87 Mn72 2.162 . S
O87 C75 1.281 . S
O88 Mn72 2.297 . S
O88 C75 1.236 . S
N89 Mn73 2.282 . S
N89 C90 1.328 . S
N89 C94 1.318 . S
C90 N89 1.328 . S
C90 C91 1.457 . S
C90 H95 0.929 . S
C91 C90 1.457 . S
C91 C92 1.291 . S
C91 H104 0.931 . S
C92 C91 1.291 . S
C92 C93 1.373 . S
C92 H105 0.929 . S
C93 C92 1.373 . S
C93 C94 1.396 . S
C93 C100 1.403 . S
C94 C84 1.476 . S
C94 N89 1.318 . S
C94 C93 1.396 . S
H95 C90 0.929 . S
O96 Mn72 2.385 1_655 S
O96 C74 1.234 . S
O97 Mn72 2.209 1_655 S
O97 Mn73 2.215 . S
O97 C74 1.283 . S
O98 Mn72 2.094 . S
O98 C76 1.241 . S
O99 Mn73 2.117 . S
O99 C76 1.263 1_655 S
C100 C93 1.403 . S
C100 C101 1.399 . S
C100 H106 0.929 . S
C101 C81 1.449 . S
C101 C100 1.399 . S
C101 H107 0.930 . S
H102 C82 0.931 . S
H103 C83 0.930 1_455 S
H104 C91 0.931 . S
H105 C92 0.929 . S
H106 C100 0.929 . S
H107 C101 0.930 . S
Mn108 O113 2.095 1_455 S
Mn108 O123 2.162 . S
Mn108 O124 2.297 . S
Mn108 O132 2.385 . S
Mn108 O133 2.209 . S
Mn108 O134 2.094 . S
Mn109 O114 2.121 1_455 S
Mn109 N116 2.257 . S
Mn109 N125 2.282 . S
Mn109 O133 2.215 . S
Mn109 O135 2.117 . S
C110 O132 1.234 . S
C110 O133 1.283 . S
C111 O123 1.281 . S
C111 O124 1.236 . S
C112 O134 1.240 . S
C112 O135 1.264 . S
O113 Mn108 2.095 1_655 S
O113 C122 1.250 . S
O114 Mn109 2.121 1_655 S
O114 C122 1.258 . S
C115 N116 1.326 . S
C115 C119 1.459 . S
C115 H121 0.930 1_455 S
N116 Mn109 2.257 . S
N116 C115 1.326 . S
N116 C120 1.362 . S
C117 C118 1.258 . S
C117 C120 1.431 . S
C117 C137 1.449 . S
C118 C117 1.258 . S
C118 C119 1.477 . S
C118 H138 0.931 . S
C119 C115 1.459 . S
C119 C118 1.477 . S
C119 H139 0.930 1_455 S
C120 N116 1.362 . S
C120 C117 1.431 . S
C120 C130 1.476 . S
H121 C115 0.930 1_655 S
C122 O113 1.250 . S
C122 O114 1.258 . S
O123 Mn108 2.162 . S
O123 C111 1.281 . S
O124 Mn108 2.297 . S
O124 C111 1.236 . S
N125 Mn109 2.282 . S
N125 C126 1.328 . S
N125 C130 1.318 . S
C126 N125 1.328 . S
C126 C127 1.457 . S
C126 H131 0.929 . S
C127 C126 1.457 . S
C127 C128 1.291 . S
C127 H140 0.931 . S
C128 C127 1.291 . S
C128 C129 1.373 . S
C128 H141 0.929 . S
C129 C128 1.373 . S
C129 C130 1.396 . S
C129 C136 1.403 . S
C130 C120 1.476 . S
C130 N125 1.318 . S
C130 C129 1.396 . S
H131 C126 0.929 . S
O132 Mn108 2.385 . S
O132 C110 1.234 . S
O133 Mn108 2.209 . S
O133 Mn109 2.215 . S
O133 C110 1.283 . S
O134 Mn108 2.094 . S
O134 C112 1.240 . S
O135 Mn109 2.117 . S
O135 C112 1.264 . S
C136 C129 1.403 . S
C136 C137 1.399 . S
C136 H142 0.929 . S
C137 C117 1.449 . S
C137 C136 1.399 . S
C137 H143 0.930 . S
H138 C118 0.931 . S
H139 C119 0.930 1_655 S
H140 C127 0.931 . S
H141 C128 0.929 . S
H142 C136 0.929 . S
H143 C137 0.930 . S
Mn144 O149 2.095 . S
Mn144 O159 2.162 . S
Mn144 O160 2.297 . S
Mn144 O168 2.385 . S
Mn144 O169 2.209 . S
Mn144 O170 2.094 . S
Mn145 O150 2.121 . S
Mn145 N152 2.257 . S
Mn145 N161 2.282 . S
Mn145 O169 2.215 . S
Mn145 O171 2.117 . S
C146 O168 1.234 . S
C146 O169 1.283 . S
C147 O159 1.281 . S
C147 O160 1.236 . S
C148 O170 1.240 . S
C148 O171 1.264 . S
O149 Mn144 2.095 . S
O149 C158 1.250 . S
O150 Mn145 2.121 . S
O150 C158 1.258 . S
C151 N152 1.326 . S
C151 C155 1.460 . S
C151 H157 0.929 . S
N152 Mn145 2.257 . S
N152 C151 1.326 . S
N152 C156 1.362 . S
C153 C154 1.258 . S
C153 C156 1.431 . S
C153 C173 1.449 . S
C154 C153 1.258 . S
C154 C155 1.477 . S
C154 H174 0.931 . S
C155 C151 1.460 . S
C155 C154 1.477 . S
C155 H175 0.930 . S
C156 N152 1.362 . S
C156 C153 1.431 . S
C156 C166 1.476 . S
H157 C151 0.929 . S
C158 O149 1.250 . S
C158 O150 1.258 . S
O159 Mn144 2.162 . S
O159 C147 1.281 . S
O160 Mn144 2.297 . S
O160 C147 1.236 . S
N161 Mn145 2.282 . S
N161 C162 1.328 . S
N161 C166 1.318 . S
C162 N161 1.328 . S
C162 C163 1.457 . S
C162 H167 0.929 . S
C163 C162 1.457 . S
C163 C164 1.291 . S
C163 H176 0.931 . S
C164 C163 1.291 . S
C164 C165 1.373 . S
C164 H177 0.929 . S
C165 C164 1.373 . S
C165 C166 1.396 . S
C165 C172 1.403 . S
C166 C156 1.476 . S
C166 N161 1.318 . S
C166 C165 1.396 . S
H167 C162 0.929 . S
O168 Mn144 2.385 . S
O168 C146 1.234 . S
O169 Mn144 2.209 . S
O169 Mn145 2.215 . S
O169 C146 1.283 . S
O170 Mn144 2.094 . S
O170 C148 1.240 . S
O171 Mn145 2.117 . S
O171 C148 1.264 . S
C172 C165 1.403 . S
C172 C173 1.399 . S
C172 H178 0.929 . S
C173 C153 1.449 . S
C173 C172 1.399 . S
C173 H179 0.930 . S
H174 C154 0.931 . S
H175 C155 0.930 . S
H176 C163 0.931 . S
H177 C164 0.929 . S
H178 C172 0.929 . S
H179 C173 0.930 . S
Mn180 O185 2.095 . S
Mn180 O195 2.162 . S
Mn180 O196 2.297 . S
Mn180 O204 2.385 . S
Mn180 O205 2.209 . S
Mn180 O206 2.094 . S
Mn181 O186 2.121 . S
Mn181 N188 2.257 . S
Mn181 N197 2.282 . S
Mn181 O205 2.215 . S
Mn181 O207 2.117 . S
C182 O204 1.234 . S
C182 O205 1.283 . S
C183 O195 1.281 . S
C183 O196 1.236 . S
C184 O206 1.240 . S
C184 O207 1.264 . S
O185 Mn180 2.095 . S
O185 C194 1.250 . S
O186 Mn181 2.121 . S
O186 C194 1.258 . S
C187 N188 1.326 . S
C187 C191 1.460 . S
C187 H193 0.929 . S
N188 Mn181 2.257 . S
N188 C187 1.326 . S
N188 C192 1.362 . S
C189 C190 1.258 . S
C189 C192 1.431 . S
C189 C209 1.449 . S
C190 C189 1.258 . S
C190 C191 1.477 . S
C190 H210 0.931 . S
C191 C187 1.460 . S
C191 C190 1.477 . S
C191 H211 0.930 . S
C192 N188 1.362 . S
C192 C189 1.431 . S
C192 C202 1.476 . S
H193 C187 0.929 . S
C194 O185 1.250 . S
C194 O186 1.258 . S
O195 Mn180 2.162 . S
O195 C183 1.281 . S
O196 Mn180 2.297 . S
O196 C183 1.236 . S
N197 Mn181 2.282 . S
N197 C198 1.328 . S
N197 C202 1.318 . S
C198 N197 1.328 . S
C198 C199 1.457 . S
C198 H203 0.929 . S
C199 C198 1.457 . S
C199 C200 1.291 . S
C199 H212 0.931 . S
C200 C199 1.291 . S
C200 C201 1.373 . S
C200 H213 0.929 . S
C201 C200 1.373 . S
C201 C202 1.396 . S
C201 C208 1.403 . S
C202 C192 1.476 . S
C202 N197 1.318 . S
C202 C201 1.396 . S
H203 C198 0.929 . S
O204 Mn180 2.385 . S
O204 C182 1.234 . S
O205 Mn180 2.209 . S
O205 Mn181 2.215 . S
O205 C182 1.283 . S
O206 Mn180 2.094 . S
O206 C184 1.240 . S
O207 Mn181 2.117 . S
O207 C184 1.264 . S
C208 C201 1.403 . S
C208 C209 1.399 . S
C208 H214 0.929 . S
C209 C189 1.449 . S
C209 C208 1.399 . S
C209 H215 0.930 . S
H210 C190 0.931 . S
H211 C191 0.930 . S
H212 C199 0.931 . S
H213 C200 0.929 . S
H214 C208 0.929 . S
H215 C209 0.930 . S
Mn216 O221 2.095 . S
Mn216 O231 2.162 . S
Mn216 O232 2.297 . S
Mn216 O240 2.385 . S
Mn216 O241 2.209 . S
Mn216 O242 2.094 . S
Mn217 O222 2.121 . S
Mn217 N224 2.257 . S
Mn217 N233 2.282 . S
Mn217 O241 2.215 . S
Mn217 O243 2.117 . S
C218 O240 1.234 . S
C218 O241 1.283 . S
C219 O231 1.281 . S
C219 O232 1.236 . S
C220 O242 1.240 . S
C220 O243 1.264 . S
O221 Mn216 2.095 . S
O221 C230 1.250 . S
O222 Mn217 2.121 . S
O222 C230 1.258 . S
C223 N224 1.326 . S
C223 C227 1.460 . S
C223 H229 0.929 . S
N224 Mn217 2.257 . S
N224 C223 1.326 . S
N224 C228 1.362 . S
C225 C226 1.258 . S
C225 C228 1.431 . S
C225 C245 1.449 . S
C226 C225 1.258 . S
C226 C227 1.477 . S
C226 H246 0.931 . S
C227 C223 1.460 . S
C227 C226 1.477 . S
C227 H247 0.930 . S
C228 N224 1.362 . S
C228 C225 1.431 . S
C228 C238 1.476 . S
H229 C223 0.929 . S
C230 O221 1.250 . S
C230 O222 1.258 . S
O231 Mn216 2.162 . S
O231 C219 1.281 . S
O232 Mn216 2.297 . S
O232 C219 1.236 . S
N233 Mn217 2.282 . S
N233 C234 1.328 . S
N233 C238 1.318 . S
C234 N233 1.328 . S
C234 C235 1.457 . S
C234 H239 0.929 . S
C235 C234 1.457 . S
C235 C236 1.291 . S
C235 H248 0.931 . S
C236 C235 1.291 . S
C236 C237 1.373 . S
C236 H249 0.929 . S
C237 C236 1.373 . S
C237 C238 1.396 . S
C237 C244 1.403 . S
C238 C228 1.476 . S
C238 N233 1.318 . S
C238 C237 1.396 . S
H239 C234 0.929 . S
O240 Mn216 2.385 . S
O240 C218 1.234 . S
O241 Mn216 2.209 . S
O241 Mn217 2.215 . S
O241 C218 1.283 . S
O242 Mn216 2.094 . S
O242 C220 1.240 . S
O243 Mn217 2.117 . S
O243 C220 1.264 . S
C244 C237 1.403 . S
C244 C245 1.399 . S
C244 H250 0.929 . S
C245 C225 1.449 . S
C245 C244 1.399 . S
C245 H251 0.930 . S
H246 C226 0.931 . S
H247 C227 0.930 . S
H248 C235 0.931 . S
H249 C236 0.929 . S
H250 C244 0.929 . S
H251 C245 0.930 . S
Mn252 O257 2.095 . S
Mn252 O267 2.162 . S
Mn252 O268 2.297 . S
Mn252 O276 2.385 . S
Mn252 O277 2.209 . S
Mn252 O278 2.094 . S
Mn253 O258 2.121 . S
Mn253 N260 2.257 . S
Mn253 N269 2.282 . S
Mn253 O277 2.215 . S
Mn253 O279 2.117 . S
C254 O276 1.234 . S
C254 O277 1.283 . S
C255 O267 1.281 . S
C255 O268 1.236 . S
C256 O278 1.240 . S
C256 O279 1.264 . S
O257 Mn252 2.095 . S
O257 C266 1.250 . S
O258 Mn253 2.121 . S
O258 C266 1.258 . S
C259 N260 1.326 . S
C259 C263 1.460 . S
C259 H265 0.929 . S
N260 Mn253 2.257 . S
N260 C259 1.326 . S
N260 C264 1.362 . S
C261 C262 1.258 . S
C261 C264 1.431 . S
C261 C281 1.449 . S
C262 C261 1.258 . S
C262 C263 1.477 . S
C262 H282 0.931 . S
C263 C259 1.460 . S
C263 C262 1.477 . S
C263 H283 0.930 . S
C264 N260 1.362 . S
C264 C261 1.431 . S
C264 C274 1.476 . S
H265 C259 0.929 . S
C266 O257 1.250 . S
C266 O258 1.258 . S
O267 Mn252 2.162 . S
O267 C255 1.281 . S
O268 Mn252 2.297 . S
O268 C255 1.236 . S
N269 Mn253 2.282 . S
N269 C270 1.328 . S
N269 C274 1.318 . S
C270 N269 1.328 . S
C270 C271 1.457 . S
C270 H275 0.929 . S
C271 C270 1.457 . S
C271 C272 1.291 . S
C271 H284 0.931 . S
C272 C271 1.291 . S
C272 C273 1.373 . S
C272 H285 0.929 . S
C273 C272 1.373 . S
C273 C274 1.396 . S
C273 C280 1.403 . S
C274 C264 1.476 . S
C274 N269 1.318 . S
C274 C273 1.396 . S
H275 C270 0.929 . S
O276 Mn252 2.385 . S
O276 C254 1.234 . S
O277 Mn252 2.209 . S
O277 Mn253 2.215 . S
O277 C254 1.283 . S
O278 Mn252 2.094 . S
O278 C256 1.240 . S
O279 Mn253 2.117 . S
O279 C256 1.264 . S
C280 C273 1.403 . S
C280 C281 1.399 . S
C280 H286 0.929 . S
C281 C261 1.449 . S
C281 C280 1.399 . S
C281 H287 0.930 . S
H282 C262 0.931 . S
H283 C263 0.930 . S
H284 C271 0.931 . S
H285 C272 0.929 . S
H286 C280 0.929 . S
H287 C281 0.930 . S
H288 C296 0.950 . S
H289 C301 0.950 . S
H290 C298 0.950 . S
H291 C300 0.950 . S
H292 C302 0.950 . S
H293 C304 0.950 . S
H294 C306 0.950 . S
H295 C307 0.950 . S
C296 H288 0.950 . S
C296 C297 1.386 1_655 S
C296 C298 1.391 . S
C297 C296 1.386 1_455 S
C297 C301 1.393 . S
C298 H290 0.950 . S
C298 C296 1.391 . S
C298 C299 1.400 1_655 S
C299 C298 1.400 1_455 S
C299 C300 1.398 . S
C299 C305 1.491 . S
C300 H291 0.950 . S
C300 C299 1.398 . S
C300 C301 1.391 . S
C301 H289 0.950 . S
C301 C297 1.393 . S
C301 C300 1.391 . S
C302 H292 0.950 . S
C302 C303 1.395 . S
C302 C304 1.391 . S
C303 C302 1.395 . S
C303 C307 1.384 1_455 S
C304 H293 0.950 . S
C304 C302 1.391 . S
C304 C305 1.400 . S
C305 C299 1.491 . S
C305 C304 1.400 . S
C305 C306 1.398 1_455 S
C306 H294 0.950 . S
C306 C305 1.398 1_655 S
C306 C307 1.391 . S
C307 H295 0.950 . S
C307 C303 1.384 1_655 S
C307 C306 1.391 . S
H308 C316 0.950 . S
H309 C321 0.950 . S
H310 C318 0.950 . S
H311 C320 0.950 . S
H312 C322 0.950 . S
H313 C324 0.950 . S
H314 C326 0.950 . S
H315 C327 0.950 . S
C316 H308 0.950 . S
C316 C317 1.374 1_455 S
C316 C318 1.391 . S
C317 C316 1.374 1_655 S
C317 C321 1.405 . S
C318 H310 0.950 . S
C318 C316 1.391 . S
C318 C319 1.400 . S
C319 C318 1.400 . S
C319 C320 1.398 1_455 S
C319 C325 1.491 . S
C320 H311 0.950 . S
C320 C319 1.398 1_655 S
C320 C321 1.391 . S
C321 H309 0.950 . S
C321 C317 1.405 . S
C321 C320 1.391 . S
C322 H312 0.950 . S
C322 C323 1.386 1_655 S
C322 C324 1.391 . S
C323 C322 1.386 1_455 S
C323 C327 1.393 . S
C324 H313 0.950 . S
C324 C322 1.391 . S
C324 C325 1.400 1_655 S
C325 C319 1.491 . S
C325 C324 1.400 1_455 S
C325 C326 1.398 . S
C326 H314 0.950 . S
C326 C325 1.398 . S
C326 C327 1.391 . S
C327 H315 0.950 . S
C327 C323 1.393 . S
C327 C326 1.391 . S
H328 C336 0.950 . S
H329 C341 0.950 . S
H330 C338 0.950 . S
H331 C340 0.950 . S
H332 C342 0.950 . S
H333 C344 0.950 . S
H334 C346 0.950 . S
H335 C347 0.950 . S
C336 H328 0.950 . S
C336 C337 1.386 . S
C336 C338 1.391 . S
C337 C336 1.386 . S
C337 C341 1.393 . S
C338 H330 0.950 . S
C338 C336 1.391 . S
C338 C339 1.400 . S
C339 C338 1.400 . S
C339 C340 1.398 . S
C339 C345 1.491 . S
C340 H331 0.950 . S
C340 C339 1.398 . S
C340 C341 1.391 . S
C341 H329 0.950 . S
C341 C337 1.393 . S
C341 C340 1.391 . S
C342 H332 0.950 . S
C342 C343 1.386 . S
C342 C344 1.391 . S
C343 C342 1.386 . S
C343 C347 1.393 . S
C344 H333 0.950 . S
C344 C342 1.391 . S
C344 C345 1.400 . S
C345 C339 1.491 . S
C345 C344 1.400 . S
C345 C346 1.398 . S
C346 H334 0.950 . S
C346 C345 1.398 . S
C346 C347 1.391 . S
C347 H335 0.950 . S
C347 C343 1.393 . S
C347 C346 1.391 . S
H348 C356 0.950 . S
H349 C361 0.950 . S
H350 C358 0.950 . S
H351 C360 0.950 . S
H352 C362 0.950 . S
H353 C364 0.950 . S
H354 C366 0.950 . S
H355 C367 0.950 . S
C356 H348 0.950 . S
C356 C357 1.386 . S
C356 C358 1.391 . S
C357 C356 1.386 . S
C357 C361 1.393 . S
C358 H350 0.950 . S
C358 C356 1.391 . S
C358 C359 1.400 . S
C359 C358 1.400 . S
C359 C360 1.398 . S
C359 C365 1.491 . S
C360 H351 0.950 . S
C360 C359 1.398 . S
C360 C361 1.391 . S
C361 H349 0.950 . S
C361 C357 1.393 . S
C361 C360 1.391 . S
C362 H352 0.950 . S
C362 C363 1.386 . S
C362 C364 1.391 . S
C363 C362 1.386 . S
C363 C367 1.393 . S
C364 H353 0.950 . S
C364 C362 1.391 . S
C364 C365 1.400 . S
C365 C359 1.491 . S
C365 C364 1.400 . S
C365 C366 1.398 . S
C366 H354 0.950 . S
C366 C365 1.398 . S
C366 C367 1.391 . S
C367 H355 0.950 . S
C367 C363 1.393 . S
C367 C366 1.391 . S
H368 C376 0.950 . S
H369 C381 0.950 . S
H370 C378 0.950 . S
H371 C380 0.950 . S
H372 C382 0.950 . S
H373 C384 0.950 . S
H374 C386 0.950 . S
H375 C387 0.950 . S
C376 H368 0.950 . S
C376 C377 1.386 . S
C376 C378 1.391 . S
C377 C376 1.386 . S
C377 C381 1.393 . S
C378 H370 0.950 . S
C378 C376 1.391 . S
C378 C379 1.400 . S
C379 C378 1.400 . S
C379 C380 1.398 . S
C379 C385 1.491 . S
C380 H371 0.950 . S
C380 C379 1.398 . S
C380 C381 1.391 . S
C381 H369 0.950 . S
C381 C377 1.393 . S
C381 C380 1.391 . S
C382 H372 0.950 . S
C382 C383 1.386 . S
C382 C384 1.391 . S
C383 C382 1.386 . S
C383 C387 1.393 . S
C384 H373 0.950 . S
C384 C382 1.391 . S
C384 C385 1.400 . S
C385 C379 1.491 . S
C385 C384 1.400 . S
C385 C386 1.398 . S
C386 H374 0.950 . S
C386 C385 1.398 . S
C386 C387 1.391 . S
C387 H375 0.950 . S
C387 C383 1.393 . S
C387 C386 1.391 . S
H388 C396 0.950 . S
H389 C401 0.950 . S
H390 C398 0.950 . S
H391 C400 0.950 . S
H392 C402 0.950 . S
H393 C404 0.950 . S
H394 C406 0.950 . S
H395 C407 0.950 . S
C396 H388 0.950 . S
C396 C397 1.386 . S
C396 C398 1.391 . S
C397 C396 1.386 . S
C397 C401 1.393 . S
C398 H390 0.950 . S
C398 C396 1.391 . S
C398 C399 1.400 . S
C399 C398 1.400 . S
C399 C400 1.398 . S
C399 C405 1.491 . S
C400 H391 0.950 . S
C400 C399 1.398 . S
C400 C401 1.391 . S
C401 H389 0.950 . S
C401 C397 1.393 . S
C401 C400 1.391 . S
C402 H392 0.950 . S
C402 C403 1.386 . S
C402 C404 1.391 . S
C403 C402 1.386 . S
C403 C407 1.393 . S
C404 H393 0.950 . S
C404 C402 1.391 . S
C404 C405 1.400 . S
C405 C399 1.491 . S
C405 C404 1.400 . S
C405 C406 1.398 . S
C406 H394 0.950 . S
C406 C405 1.398 . S
C406 C407 1.391 . S
C407 H395 0.950 . S
C407 C403 1.393 . S
C407 C406 1.391 . S
H408 C416 0.950 . S
H409 C421 0.950 . S
H410 C418 0.950 . S
H411 C420 0.950 . S
H412 C422 0.950 . S
H413 C424 0.950 . S
H414 C426 0.950 . S
H415 C427 0.950 . S
C416 H408 0.950 . S
C416 C417 1.386 . S
C416 C418 1.391 . S
C417 C416 1.386 . S
C417 C421 1.393 . S
C418 H410 0.950 . S
C418 C416 1.391 . S
C418 C419 1.400 . S
C419 C418 1.400 . S
C419 C420 1.398 . S
C419 C425 1.491 . S
C420 H411 0.950 . S
C420 C419 1.398 . S
C420 C421 1.391 . S
C421 H409 0.950 . S
C421 C417 1.393 . S
C421 C420 1.391 . S
C422 H412 0.950 . S
C422 C423 1.386 . S
C422 C424 1.391 . S
C423 C422 1.386 . S
C423 C427 1.393 . S
C424 H413 0.950 . S
C424 C422 1.391 . S
C424 C425 1.400 . S
C425 C419 1.491 . S
C425 C424 1.400 . S
C425 C426 1.398 . S
C426 H414 0.950 . S
C426 C425 1.398 . S
C426 C427 1.391 . S
C427 H415 0.950 . S
C427 C423 1.393 . S
C427 C426 1.391 . S
H428 C436 0.950 . S
H429 C441 0.950 . S
H430 C438 0.950 . S
H431 C440 0.950 . S
H432 C442 0.950 . S
H433 C444 0.950 . S
H434 C446 0.950 . S
H435 C447 0.950 . S
C436 H428 0.950 . S
C436 C437 1.386 . S
C436 C438 1.391 . S
C437 C436 1.386 . S
C437 C441 1.393 . S
C438 H430 0.950 . S
C438 C436 1.391 . S
C438 C439 1.400 . S
C439 C438 1.400 . S
C439 C440 1.398 . S
C439 C445 1.491 . S
C440 H431 0.950 . S
C440 C439 1.398 . S
C440 C441 1.391 . S
C441 H429 0.950 . S
C441 C437 1.393 . S
C441 C440 1.391 . S
C442 H432 0.950 . S
C442 C443 1.386 . S
C442 C444 1.391 . S
C443 C442 1.386 . S
C443 C447 1.393 . S
C444 H433 0.950 . S
C444 C442 1.391 . S
C444 C445 1.400 . S
C445 C439 1.491 . S
C445 C444 1.400 . S
C445 C446 1.398 . S
C446 H434 0.950 . S
C446 C445 1.398 . S
C446 C447 1.391 . S
C447 H435 0.950 . S
C447 C443 1.393 . S
C447 C446 1.391 . S
H448 C456 0.950 . S
H449 C461 0.950 . S
H450 C458 0.950 . S
H451 C460 0.950 . S
H452 C462 0.950 . S
H453 C464 0.950 . S
H454 C466 0.950 . S
H455 C467 0.950 . S
C456 H448 0.950 . S
C456 C457 1.386 . S
C456 C458 1.391 . S
C457 C456 1.386 . S
C457 C461 1.393 . S
C458 H450 0.950 . S
C458 C456 1.391 . S
C458 C459 1.400 . S
C459 C458 1.400 . S
C459 C460 1.398 . S
C459 C465 1.491 . S
C460 H451 0.950 . S
C460 C459 1.398 . S
C460 C461 1.391 . S
C461 H449 0.950 . S
C461 C457 1.393 . S
C461 C460 1.391 . S
C462 H452 0.950 . S
C462 C463 1.386 . S
C462 C464 1.391 . S
C463 C462 1.386 . S
C463 C467 1.393 . S
C464 H453 0.950 . S
C464 C462 1.391 . S
C464 C465 1.400 . S
C465 C459 1.491 . S
C465 C464 1.400 . S
C465 C466 1.398 . S
C466 H454 0.950 . S
C466 C465 1.398 . S
C466 C467 1.391 . S
C467 H455 0.950 . S
C467 C463 1.393 . S
C467 C466 1.391 . S
H468 C476 0.950 . S
H469 C481 0.950 . S
H470 C478 0.950 . S
H471 C480 0.950 . S
H472 C482 0.950 . S
H473 C484 0.950 . S
H474 C486 0.950 . S
H475 C487 0.950 . S
C476 H468 0.950 . S
C476 C477 1.386 . S
C476 C478 1.391 . S
C477 C476 1.386 . S
C477 C481 1.393 . S
C478 H470 0.950 . S
C478 C476 1.391 . S
C478 C479 1.400 . S
C479 C478 1.400 . S
C479 C480 1.398 . S
C479 C485 1.491 . S
C480 H471 0.950 . S
C480 C479 1.398 . S
C480 C481 1.391 . S
C481 H469 0.950 . S
C481 C477 1.393 . S
C481 C480 1.391 . S
C482 H472 0.950 . S
C482 C483 1.386 . S
C482 C484 1.391 . S
C483 C482 1.386 . S
C483 C487 1.393 . S
C484 H473 0.950 . S
C484 C482 1.391 . S
C484 C485 1.400 . S
C485 C479 1.491 . S
C485 C484 1.400 . S
C485 C486 1.398 . S
C486 H474 0.950 . S
C486 C485 1.398 . S
C486 C487 1.391 . S
C487 H475 0.950 . S
C487 C483 1.393 . S
C487 C486 1.391 . S
H488 C496 0.950 . S
H489 C501 0.950 . S
H490 C498 0.950 . S
H491 C500 0.950 . S
H492 C502 0.950 . S
H493 C504 0.950 . S
H494 C506 0.950 . S
H495 C507 0.950 . S
C496 H488 0.950 . S
C496 C497 1.386 . S
C496 C498 1.391 . S
C497 C496 1.386 . S
C497 C501 1.393 . S
C498 H490 0.950 . S
C498 C496 1.391 . S
C498 C499 1.400 . S
C499 C498 1.400 . S
C499 C500 1.398 . S
C499 C505 1.491 . S
C500 H491 0.950 . S
C500 C499 1.398 . S
C500 C501 1.391 . S
C501 H489 0.950 . S
C501 C497 1.393 . S
C501 C500 1.391 . S
C502 H492 0.950 . S
C502 C503 1.386 . S
C502 C504 1.391 . S
C503 C502 1.386 . S
C503 C507 1.393 . S
C504 H493 0.950 . S
C504 C502 1.391 . S
C504 C505 1.400 . S
C505 C499 1.491 . S
C505 C504 1.400 . S
C505 C506 1.398 . S
C506 H494 0.950 . S
C506 C505 1.398 . S
C506 C507 1.391 . S
C507 H495 0.950 . S
C507 C503 1.393 . S
C507 C506 1.391 . S
H508 C516 0.950 . S
H509 C521 0.950 . S
H510 C518 0.950 . S
H511 C520 0.950 . S
H512 C522 0.950 . S
H513 C524 0.950 . S
H514 C526 0.950 . S
H515 C527 0.950 . S
C516 H508 0.950 . S
C516 C517 1.386 . S
C516 C518 1.391 . S
C517 C516 1.386 . S
C517 C521 1.393 . S
C518 H510 0.950 . S
C518 C516 1.391 . S
C518 C519 1.400 . S
C519 C518 1.400 . S
C519 C520 1.398 . S
C519 C525 1.491 . S
C520 H511 0.950 . S
C520 C519 1.398 . S
C520 C521 1.391 . S
C521 H509 0.950 . S
C521 C517 1.393 . S
C521 C520 1.391 . S
C522 H512 0.950 . S
C522 C523 1.386 . S
C522 C524 1.391 . S
C523 C522 1.386 . S
C523 C527 1.393 . S
C524 H513 0.950 . S
C524 C522 1.391 . S
C524 C525 1.400 . S
C525 C519 1.491 . S
C525 C524 1.400 . S
C525 C526 1.398 . S
C526 H514 0.950 . S
C526 C525 1.398 . S
C526 C527 1.391 . S
C527 H515 0.950 . S
C527 C523 1.393 . S
C527 C526 1.391 . S
H528 C536 0.950 . S
H529 C541 0.950 . S
H530 C538 0.950 1_565 S
H531 C540 0.950 1_556 S
H532 C542 0.950 . S
H533 C544 0.950 1_545 S
H534 C546 0.950 1_554 S
H535 C547 0.950 . S
C536 H528 0.950 . S
C536 C537 1.386 . S
C536 C538 1.391 . S
C537 C536 1.386 . S
C537 C541 1.393 1_455 S
C538 H530 0.950 1_545 S
C538 C536 1.391 . S
C538 C539 1.400 . S
C539 C538 1.400 . S
C539 C540 1.398 1_455 S
C539 C545 1.491 1_544 S
C540 H531 0.950 1_554 S
C540 C539 1.398 1_655 S
C540 C541 1.391 . S
C541 H529 0.950 . S
C541 C537 1.393 1_655 S
C541 C540 1.391 . S
C542 H532 0.950 . S
C542 C543 1.386 1_655 S
C542 C544 1.391 . S
C543 C542 1.386 1_455 S
C543 C547 1.393 . S
C544 H533 0.950 1_565 S
C544 C542 1.391 . S
C544 C545 1.400 1_655 S
C545 C539 1.491 1_566 S
C545 C544 1.400 1_455 S
C545 C546 1.398 . S
C546 H534 0.950 1_556 S
C546 C545 1.398 . S
C546 C547 1.391 . S
C547 H535 0.950 . S
C547 C543 1.393 . S
C547 C546 1.391 . S
H548 C556 0.950 . S
H549 C561 0.950 . S
H550 C558 0.950 . S
H551 C560 0.950 1_554 S
H552 C562 0.950 . S
H553 C564 0.950 . S
H554 C566 0.950 1_556 S
H555 C567 0.950 . S
C556 H548 0.950 . S
C556 C557 1.386 . S
C556 C558 1.391 . S
C557 C556 1.386 . S
C557 C561 1.393 1_455 S
C558 H550 0.950 . S
C558 C556 1.391 . S
C558 C559 1.400 . S
C559 C558 1.400 . S
C559 C560 1.398 1_455 S
C559 C565 1.491 1_556 S
C560 H551 0.950 1_556 S
C560 C559 1.398 1_655 S
C560 C561 1.391 . S
C561 H549 0.950 . S
C561 C557 1.393 1_655 S
C561 C560 1.391 . S
C562 H552 0.950 . S
C562 C563 1.386 1_655 S
C562 C564 1.391 . S
C563 C562 1.386 1_455 S
C563 C567 1.393 . S
C564 H553 0.950 . S
C564 C562 1.391 . S
C564 C565 1.400 1_655 S
C565 C559 1.491 1_554 S
C565 C564 1.400 1_455 S
C565 C566 1.398 . S
C566 H554 0.950 1_554 S
C566 C565 1.398 . S
C566 C567 1.391 . S
C567 H555 0.950 . S
C567 C563 1.393 . S
C567 C566 1.391 . S
H568 C576 0.950 . S
H569 C581 0.950 . S
H570 C578 0.950 . S
H571 C580 0.950 . S
H572 C582 0.950 . S
H573 C584 0.950 . S
H574 C586 0.950 . S
H575 C587 0.950 . S
C576 H568 0.950 . S
C576 C577 1.386 . S
C576 C578 1.391 . S
C577 C576 1.386 . S
C577 C581 1.393 . S
C578 H570 0.950 . S
C578 C576 1.391 . S
C578 C579 1.400 . S
C579 C578 1.400 . S
C579 C580 1.398 . S
C579 C585 1.491 . S
C580 H571 0.950 . S
C580 C579 1.398 . S
C580 C581 1.391 . S
C581 H569 0.950 . S
C581 C577 1.393 . S
C581 C580 1.391 . S
C582 H572 0.950 . S
C582 C583 1.386 . S
C582 C584 1.391 . S
C583 C582 1.386 . S
C583 C587 1.393 . S
C584 H573 0.950 . S
C584 C582 1.391 . S
C584 C585 1.400 . S
C585 C579 1.491 . S
C585 C584 1.400 . S
C585 C586 1.398 . S
C586 H574 0.950 . S
C586 C585 1.398 . S
C586 C587 1.391 . S
C587 H575 0.950 . S
C587 C583 1.393 . S
C587 C586 1.391 . S
H588 C596 0.950 . S
H589 C601 0.950 . S
H590 C598 0.950 . S
H591 C600 0.950 . S
H592 C602 0.950 . S
H593 C604 0.950 . S
H594 C606 0.950 . S
H595 C607 0.950 . S
C596 H588 0.950 . S
C596 C597 1.386 . S
C596 C598 1.391 . S
C597 C596 1.386 . S
C597 C601 1.393 . S
C598 H590 0.950 . S
C598 C596 1.391 . S
C598 C599 1.400 . S
C599 C598 1.400 . S
C599 C600 1.398 . S
C599 C605 1.491 1_565 S
C600 H591 0.950 . S
C600 C599 1.398 . S
C600 C601 1.391 . S
C601 H589 0.950 . S
C601 C597 1.393 . S
C601 C600 1.391 . S
C602 H592 0.950 . S
C602 C603 1.386 . S
C602 C604 1.391 . S
C603 C602 1.386 . S
C603 C607 1.393 . S
C604 H593 0.950 . S
C604 C602 1.391 . S
C604 C605 1.400 . S
C605 C599 1.491 1_545 S
C605 C604 1.400 . S
C605 C606 1.398 . S
C606 H594 0.950 . S
C606 C605 1.398 . S
C606 C607 1.391 . S
C607 H595 0.950 . S
C607 C603 1.393 . S
C607 C606 1.391 . S
C297 C39 1.434 . S
C303 C3 1.430 . S
C317 C75 1.434 1_655 S
C323 C111 1.433 . S
C337 C147 1.434 . S
C343 C183 1.435 . S
C357 C219 1.429 . S
C363 C255 1.430 . S
C377 C266 1.311 . S
C383 C14 1.327 . S
C397 C230 1.313 . S
C403 C50 1.326 . S
C417 C86 1.316 . S
C423 C194 1.323 . S
C437 C158 1.310 . S
C443 C122 1.328 . S
C457 C182 1.453 . S
C463 C74 1.462 . S
C477 C146 1.466 . S
C483 C110 1.459 . S
C497 C254 1.456 . S
C503 C2 1.465 . S
C517 C38 1.466 . S
C523 C218 1.461 . S
C537 C4 1.313 . S
C543 C76 1.316 . S
C557 C112 1.319 . S
C563 C40 1.321 . S
C577 C220 1.321 . S
C583 C148 1.319 . S
C597 C184 1.321 . S
C603 C256 1.322 . S
