# Generated by pormake.
# Topology ukt, (4)-cn, num edge types: 1
# Building blocks:
#     Node 0, Type 0, BuildingBlock: GALJAG_clean_sbu_0, # of connection points: 4
#     Node 1, Type 0, BuildingBlock: GALJAG_clean_sbu_0, # of connection points: 4
#     Node 2, Type 0, BuildingBlock: GALJAG_clean_sbu_0, # of connection points: 4
#     Node 3, Type 0, BuildingBlock: GALJAG_clean_sbu_0, # of connection points: 4
#     Node 4, Type 0, BuildingBlock: GALJAG_clean_sbu_0, # of connection points: 4
#     Node 5, Type 0, BuildingBlock: GALJAG_clean_sbu_0, # of connection points: 4
#     Node 6, Type 0, BuildingBlock: GALJAG_clean_sbu_0, # of connection points: 4
#     Node 7, Type 0, BuildingBlock: GALJAG_clean_sbu_0, # of connection points: 4
#     Node 8, Type 0, BuildingBlock: GALJAG_clean_sbu_0, # of connection points: 4
#     Node 9, Type 0, BuildingBlock: GALJAG_clean_sbu_0, # of connection points: 4
#     Node 10, Type 0, BuildingBlock: GALJAG_clean_sbu_0, # of connection points: 4
#     Node 11, Type 0, BuildingBlock: GALJAG_clean_sbu_0, # of connection points: 4
#     Node 12, Type 0, BuildingBlock: GALJAG_clean_sbu_0, # of connection points: 4
#     Node 13, Type 0, BuildingBlock: GALJAG_clean_sbu_0, # of connection points: 4
#     Node 14, Type 0, BuildingBlock: GALJAG_clean_sbu_0, # of connection points: 4
#     Node 15, Type 0, BuildingBlock: GALJAG_clean_sbu_0, # of connection points: 4
#     Edge 16, Type (0, 0), BuildingBlock: UVAHIK_clean_linker_0, # of connection points: 2
#     Edge 17, Type (0, 0), BuildingBlock: UVAHIK_clean_linker_0, # of connection points: 2
#     Edge 18, Type (0, 0), BuildingBlock: UVAHIK_clean_linker_0, # of connection points: 2
#     Edge 19, Type (0, 0), BuildingBlock: UVAHIK_clean_linker_0, # of connection points: 2
#     Edge 20, Type (0, 0), BuildingBlock: UVAHIK_clean_linker_0, # of connection points: 2
#     Edge 21, Type (0, 0), BuildingBlock: UVAHIK_clean_linker_0, # of connection points: 2
#     Edge 22, Type (0, 0), BuildingBlock: UVAHIK_clean_linker_0, # of connection points: 2
#     Edge 23, Type (0, 0), BuildingBlock: UVAHIK_clean_linker_0, # of connection points: 2
#     Edge 24, Type (0, 0), BuildingBlock: UVAHIK_clean_linker_0, # of connection points: 2
#     Edge 25, Type (0, 0), BuildingBlock: UVAHIK_clean_linker_0, # of connection points: 2
#     Edge 26, Type (0, 0), BuildingBlock: UVAHIK_clean_linker_0, # of connection points: 2
#     Edge 27, Type (0, 0), BuildingBlock: UVAHIK_clean_linker_0, # of connection points: 2
#     Edge 28, Type (0, 0), BuildingBlock: UVAHIK_clean_linker_0, # of connection points: 2
#     Edge 29, Type (0, 0), BuildingBlock: UVAHIK_clean_linker_0, # of connection points: 2
#     Edge 30, Type (0, 0), BuildingBlock: UVAHIK_clean_linker_0, # of connection points: 2
#     Edge 31, Type (0, 0), BuildingBlock: UVAHIK_clean_linker_0, # of connection points: 2
#     Edge 32, Type (0, 0), BuildingBlock: UVAHIK_clean_linker_0, # of connection points: 2
#     Edge 33, Type (0, 0), BuildingBlock: UVAHIK_clean_linker_0, # of connection points: 2
#     Edge 34, Type (0, 0), BuildingBlock: UVAHIK_clean_linker_0, # of connection points: 2
#     Edge 35, Type (0, 0), BuildingBlock: UVAHIK_clean_linker_0, # of connection points: 2
#     Edge 36, Type (0, 0), BuildingBlock: UVAHIK_clean_linker_0, # of connection points: 2
#     Edge 37, Type (0, 0), BuildingBlock: UVAHIK_clean_linker_0, # of connection points: 2
#     Edge 38, Type (0, 0), BuildingBlock: UVAHIK_clean_linker_0, # of connection points: 2
#     Edge 39, Type (0, 0), BuildingBlock: UVAHIK_clean_linker_0, # of connection points: 2
#     Edge 40, Type (0, 0), BuildingBlock: UVAHIK_clean_linker_0, # of connection points: 2
#     Edge 41, Type (0, 0), BuildingBlock: UVAHIK_clean_linker_0, # of connection points: 2
#     Edge 42, Type (0, 0), BuildingBlock: UVAHIK_clean_linker_0, # of connection points: 2
#     Edge 43, Type (0, 0), BuildingBlock: UVAHIK_clean_linker_0, # of connection points: 2
#     Edge 44, Type (0, 0), BuildingBlock: UVAHIK_clean_linker_0, # of connection points: 2
#     Edge 45, Type (0, 0), BuildingBlock: UVAHIK_clean_linker_0, # of connection points: 2
#     Edge 46, Type (0, 0), BuildingBlock: UVAHIK_clean_linker_0, # of connection points: 2
#     Edge 47, Type (0, 0), BuildingBlock: UVAHIK_clean_linker_0, # of connection points: 2
# Relax obj value: 0.211
# Max RMSD: 0.110
# Mean RMSD: 0.110
data_MOF--net-ukt--node1-GALJAG_clean_sbu_0--edge1-UVAHIK_clean_linker_0
_symmetry_space_group_name_H-M    P1
_symmetry_Int_Tables_number       1
_symmetry_cell_setting            triclinic
loop_
_symmetry_equiv_pos_as_xyz
'x, y, z'
_cell_length_a     54.317988
_cell_length_b     54.358082
_cell_length_c     44.522591
_cell_angle_alpha  89.947498
_cell_angle_beta   90.003278
_cell_angle_gamma 89.99033
loop_
_atom_site_label
_atom_site_type_symbol
_atom_site_fract_x
_atom_site_fract_y
_atom_site_fract_z
_atom_type_partial_charge
In0 In 0.52507 0.16031 0.07322 0.0
O1 O 0.55938 0.14288 0.09487 0.0
O2 O 0.56126 0.15412 0.04924 0.0
C3 C 0.49969 0.17504 0.12181 0.0
C4 C 0.50334 0.11946 0.05176 0.0
C5 C 0.53102 0.20428 0.0468 0.0
O6 O 0.52119 0.1663 0.12331 0.0
O7 O 0.49065 0.17593 0.09568 0.0
O8 O 0.51785 0.18766 0.03506 0.0
O9 O 0.54035 0.19878 0.0719 0.0
C10 C 0.57217 0.14455 0.07128 0.0
O11 O 0.50582 0.13861 0.03599 0.0
O12 O 0.51055 0.12155 0.07851 0.0
In13 In 0.33096 0.53028 0.07005 0.0
O14 O 0.34596 0.56814 0.08367 0.0
O15 O 0.33782 0.56183 0.03774 0.0
C16 C 0.31858 0.51299 0.12445 0.0
C17 C 0.373 0.50739 0.05447 0.0
C18 C 0.28646 0.5281 0.04392 0.0
O19 O 0.32504 0.53499 0.11986 0.0
O20 O 0.31862 0.49936 0.10145 0.0
O21 O 0.30442 0.51553 0.03445 0.0
O22 O 0.29098 0.54138 0.06648 0.0
C23 C 0.34603 0.57646 0.05722 0.0
O24 O 0.35423 0.50725 0.03776 0.0
O25 O 0.36987 0.51758 0.07956 0.0
In26 In 0.96264 0.33528 0.04959 0.0
O27 O 0.92113 0.33759 0.05846 0.0
O28 O 0.94018 0.37051 0.04746 0.0
C29 C 0.97263 0.31604 0.10406 0.0
C30 C 0.99406 0.37103 0.03289 0.0
C31 C 0.95877 0.29867 0.00876 0.0
O32 O 0.95168 0.32397 0.09669 0.0
O33 O 0.98887 0.31788 0.0839 0.0
O34 O 0.97444 0.29832 0.02962 0.0
O35 O 0.94541 0.31759 0.00822 0.0
C36 C 0.91996 0.36051 0.05395 0.0
O37 O 0.98513 0.35581 0.01447 0.0
O38 O 0.98865 0.36684 0.05997 0.0
In39 In 0.1587 0.9648 0.05187 0.0
O40 O 0.13754 0.98721 0.01716 0.0
O41 O 0.12756 0.99121 0.06296 0.0
C42 C 0.1958 0.96186 0.0115 0.0
C43 C 0.13499 0.92133 0.05553 0.0
C44 C 0.17751 0.97381 0.10671 0.0
O45 O 0.19634 0.97632 0.03359 0.0
O46 O 0.17636 0.94938 0.00937 0.0
O47 O 0.16848 0.95336 0.09926 0.0
O48 O 0.17695 0.99008 0.08645 0.0
C49 C 0.12292 0.99655 0.03598 0.0
O50 O 0.158 0.92317 0.05886 0.0
O51 O 0.12404 0.94134 0.05048 0.0
In52 In 0.52367 0.33165 0.42203 0.0
O53 O 0.55764 0.35024 0.40096 0.0
O54 O 0.55989 0.33764 0.44602 0.0
C55 C 0.49916 0.31618 0.37312 0.0
C56 C 0.50176 0.37247 0.4433 0.0
C57 C 0.52967 0.28805 0.4493 0.0
O58 O 0.52069 0.32487 0.37198 0.0
O59 O 0.48968 0.31567 0.39903 0.0
O60 O 0.51538 0.30431 0.45984 0.0
O61 O 0.54001 0.29368 0.42483 0.0
C62 C 0.57055 0.34806 0.42439 0.0
O63 O 0.50499 0.35364 0.45941 0.0
O64 O 0.50818 0.37001 0.4163 0.0
In65 In 0.16334 0.53126 0.44241 0.0
O66 O 0.1342 0.55684 0.42256 0.0
O67 O 0.16586 0.57313 0.44207 0.0
C68 C 0.18854 0.51665 0.39344 0.0
C69 C 0.12208 0.50868 0.46146 0.0
C70 C 0.19738 0.5287 0.48634 0.0
O71 O 0.18841 0.53852 0.40282 0.0
O72 O 0.17544 0.50192 0.40846 0.0
O73 O 0.19493 0.51201 0.46686 0.0
O74 O 0.18194 0.54596 0.48441 0.0
C75 C 0.14534 0.57636 0.42945 0.0
O76 O 0.13707 0.51879 0.47921 0.0
O77 O 0.12875 0.50857 0.43433 0.0
In78 In 0.96545 0.16211 0.43366 0.0
O79 O 0.98627 0.13831 0.46722 0.0
O80 O 0.98533 0.12649 0.42189 0.0
C81 C 0.97258 0.1975 0.47509 0.0
C82 C 0.91892 0.14458 0.4332 0.0
C83 C 0.97318 0.18509 0.38094 0.0
O84 O 0.98374 0.19743 0.45022 0.0
O85 O 0.95868 0.17925 0.47941 0.0
O86 O 0.95229 0.18355 0.39315 0.0
O87 O 0.9904 0.17465 0.39515 0.0
C88 C 0.99161 0.12177 0.44853 0.0
O89 O 0.93658 0.13336 0.42102 0.0
O90 O 0.92458 0.16499 0.4447 0.0
In91 In 0.33741 0.96774 0.43337 0.0
O92 O 0.35394 0.93185 0.41477 0.0
O93 O 0.34937 0.93549 0.4619 0.0
C94 C 0.31295 0.97256 0.38136 0.0
C95 C 0.37807 0.99552 0.44129 0.0
C96 C 0.29991 0.974 0.47249 0.0
O97 O 0.31308 0.95276 0.39627 0.0
O98 O 0.32547 0.98988 0.39255 0.0
O99 O 0.30202 0.98689 0.44906 0.0
O100 O 0.31698 0.95869 0.47649 0.0
C101 C 0.35682 0.92239 0.44044 0.0
O102 O 0.36006 0.99625 0.45909 0.0
O103 O 0.37477 0.98214 0.41862 0.0
In104 In 0.46346 0.83981 0.91278 0.0
O105 O 0.42753 0.85264 0.89051 0.0
O106 O 0.43411 0.86229 0.93607 0.0
C107 C 0.48873 0.82259 0.86538 0.0
C108 C 0.49091 0.87777 0.93167 0.0
C109 C 0.45105 0.79779 0.94098 0.0
O110 O 0.46927 0.83512 0.86266 0.0
O111 O 0.49578 0.8192 0.89209 0.0
O112 O 0.46698 0.81229 0.95166 0.0
O113 O 0.44167 0.80456 0.91644 0.0
C114 C 0.42 0.86372 0.91369 0.0
O115 O 0.48626 0.8595 0.94832 0.0
O116 O 0.48298 0.876 0.90511 0.0
In117 In 0.65793 0.47097 0.93869 0.0
O118 O 0.64231 0.43548 0.91765 0.0
O119 O 0.63879 0.44118 0.96471 0.0
C120 C 0.68304 0.47902 0.8876 0.0
C121 C 0.61851 0.50002 0.94767 0.0
C122 C 0.69456 0.4698 0.97976 0.0
O123 O 0.68285 0.45843 0.90075 0.0
O124 O 0.67025 0.49553 0.90001 0.0
O125 O 0.69174 0.48799 0.96242 0.0
O126 O 0.67881 0.45307 0.97663 0.0
C127 C 0.6347 0.42735 0.94261 0.0
O128 O 0.63623 0.49921 0.966 0.0
O129 O 0.62162 0.48757 0.92414 0.0
In130 In 0.02559 0.65555 0.93775 0.0
O131 O 0.05872 0.63451 0.91872 0.0
O132 O 0.05083 0.63151 0.96539 0.0
C133 C 0.02082 0.67914 0.885 0.0
C134 C 0.99259 0.61955 0.94726 0.0
C135 C 0.03189 0.69339 0.97609 0.0
O136 O 0.0414 0.67305 0.89586 0.0
O137 O 0.00241 0.67327 0.90079 0.0
O138 O 0.01131 0.68925 0.9639 0.0
O139 O 0.0487 0.67862 0.96893 0.0
C140 C 0.06446 0.62522 0.9438 0.0
O141 O 0.9973 0.63569 0.9668 0.0
O142 O 0.00283 0.62306 0.92223 0.0
In143 In 0.83471 0.03224 0.93036 0.0
O144 O 0.85646 0.01343 0.9676 0.0
O145 O 0.86881 0.00911 0.92261 0.0
C146 C 0.79589 0.0474 0.96321 0.0
C147 C 0.86015 0.07448 0.92389 0.0
C148 C 0.8147 0.00695 0.88449 0.0
O149 O 0.8076 0.02801 0.9696 0.0
O150 O 0.80363 0.05867 0.94035 0.0
O151 O 0.82919 0.02481 0.88071 0.0
O152 O 0.8105 0.00151 0.91158 0.0
C153 C 0.87283 0.00523 0.95012 0.0
O154 O 0.84498 0.06724 0.90429 0.0
O155 O 0.86204 0.06069 0.94652 0.0
In156 In 0.46691 0.65414 0.57133 0.0
O157 O 0.49052 0.63372 0.53729 0.0
O158 O 0.48765 0.61909 0.58155 0.0
C159 C 0.45554 0.69558 0.54115 0.0
C160 C 0.42424 0.62883 0.56968 0.0
C161 C 0.49052 0.67221 0.61952 0.0
O162 O 0.47155 0.68067 0.53156 0.0
O163 O 0.44538 0.68938 0.56544 0.0
O164 O 0.47099 0.65971 0.62157 0.0
O165 O 0.49844 0.67518 0.5931 0.0
C166 C 0.49569 0.61637 0.55516 0.0
O167 O 0.43002 0.64198 0.59196 0.0
O168 O 0.4395 0.6291 0.54842 0.0
In169 In 0.83653 0.45582 0.56449 0.0
O170 O 0.85563 0.4787 0.52845 0.0
O171 O 0.86829 0.48199 0.57338 0.0
C172 C 0.79634 0.44205 0.53302 0.0
C173 C 0.86564 0.41564 0.56368 0.0
C174 C 0.8181 0.47306 0.61649 0.0
O175 O 0.80605 0.46298 0.52976 0.0
O176 O 0.80677 0.42848 0.5521 0.0
O177 O 0.83263 0.45503 0.61499 0.0
O178 O 0.81295 0.48288 0.59154 0.0
C179 C 0.87132 0.48774 0.54619 0.0
O180 O 0.85228 0.42096 0.58593 0.0
O181 O 0.86388 0.43023 0.54178 0.0
In182 In 0.03999 0.83935 0.5591 0.0
O183 O 0.01368 0.85882 0.52724 0.0
O184 O 0.01552 0.8714 0.57235 0.0
C185 C 0.05061 0.80205 0.52122 0.0
C186 C 0.07838 0.87067 0.55882 0.0
C187 C 0.03009 0.81503 0.61041 0.0
O188 O 0.02871 0.8081 0.52715 0.0
O189 O 0.06674 0.81477 0.53423 0.0
O190 O 0.05123 0.82275 0.60355 0.0
O191 O 0.01351 0.81978 0.59138 0.0
C192 C 0.007 0.87466 0.54629 0.0
O193 O 0.07196 0.85907 0.58212 0.0
O194 O 0.06566 0.8662 0.53576 0.0
In195 In 0.65862 0.02841 0.57909 0.0
O196 O 0.63941 0.06322 0.59678 0.0
O197 O 0.64663 0.06007 0.54995 0.0
C198 C 0.67373 0.00679 0.63013 0.0
C199 C 0.61975 0.00289 0.55866 0.0
C200 C 0.7022 0.03809 0.55329 0.0
O201 O 0.66401 0.02789 0.62956 0.0
O202 O 0.67557 0.99639 0.60488 0.0
O203 O 0.68903 0.02015 0.54491 0.0
O204 O 0.69371 0.05021 0.57511 0.0
C205 C 0.63776 0.0728 0.57096 0.0
O206 O 0.63914 0.00541 0.54329 0.0
O207 O 0.62083 0.01179 0.58475 0.0
C208 C 0.55111 0.24528 0.04685 0.0
C209 C 0.5374 0.22745 0.0314 0.0
C210 C 0.56042 0.26568 0.03177 0.0
C211 C 0.55546 0.30495 0.96551 0.0
H212 H 0.62333 0.31955 0.98605 0.0
C213 C 0.6143 0.38924 0.92215 0.0
C214 C 0.62284 0.40317 0.94663 0.0
C215 C 0.60334 0.36619 0.92698 0.0
C216 C 0.60446 0.31554 0.97986 0.0
H217 H 0.52151 0.21762 0.98837 0.0
H218 H 0.53789 0.25371 0.9618 0.0
H219 H 0.60418 0.28221 0.00521 0.0
H220 H 0.62654 0.40407 0.99517 0.0
H221 H 0.60802 0.36401 0.00336 0.0
H222 H 0.55581 0.33899 0.94083 0.0
C223 C 0.54141 0.25169 0.98562 0.0
C224 C 0.59345 0.2943 0.99094 0.0
C225 C 0.53205 0.23111 0.00081 0.0
C226 C 0.62018 0.39379 0.97583 0.0
C227 C 0.60966 0.37082 0.98056 0.0
C228 C 0.5666 0.32633 0.95426 0.0
C229 C 0.55631 0.26874 0.00085 0.0
C230 C 0.56858 0.28927 0.9849 0.0
C231 C 0.6013 0.35674 0.95625 0.0
C232 C 0.59091 0.33215 0.96232 0.0
H233 H 0.55532 0.24312 0.07049 0.0
H234 H 0.57131 0.27887 0.04425 0.0
H235 H 0.53628 0.30142 0.96045 0.0
H236 H 0.61607 0.39614 0.89942 0.0
H237 H 0.59694 0.35557 0.90794 0.0
C238 C 0.1009 0.60183 0.92404 0.0
C239 C 0.08557 0.60851 0.94811 0.0
C240 C 0.12131 0.58658 0.92891 0.0
C241 C 0.14902 0.54441 0.98579 0.0
H242 H 0.21118 0.56609 0.95211 0.0
C243 C 0.24144 0.53588 0.04539 0.0
C244 C 0.26227 0.52858 0.02906 0.0
C245 C 0.21888 0.53901 0.03101 0.0
C246 C 0.19389 0.55945 0.96116 0.0
H247 H 0.07925 0.60417 0.99592 0.0
H248 H 0.11483 0.57823 0.00449 0.0
H249 H 0.17284 0.58456 0.93448 0.0
H250 H 0.2759 0.51819 0.98512 0.0
H251 H 0.23627 0.52451 0.95958 0.0
H252 H 0.17033 0.52058 0.01397 0.0
C253 C 0.11101 0.58421 0.98175 0.0
C254 C 0.17191 0.57 0.95106 0.0
C255 C 0.09071 0.59934 0.9769 0.0
C256 C 0.26002 0.52372 0.99819 0.0
C257 C 0.23747 0.5274 0.98361 0.0
C258 C 0.17097 0.5341 0.99609 0.0
C259 C 0.12667 0.57774 0.9579 0.0
C260 C 0.14931 0.56327 0.96413 0.0
C261 C 0.2168 0.53535 -0.0001 0.0
C262 C 0.19363 0.54216 0.98461 0.0
H263 H 0.09729 0.60858 0.90157 0.0
H264 H 0.13295 0.58182 0.91003 0.0
H265 H 0.13187 0.53836 0.99576 0.0
H266 H 0.24271 0.5397 0.06922 0.0
H267 H 0.20329 0.54543 0.04401 0.0
C268 C 0.89451 0.10142 0.94047 0.0
C269 C 0.87436 0.09748 0.92134 0.0
C270 C 0.90706 0.12377 0.94007 0.0
C271 C 0.89574 0.18824 0.92704 0.0
H272 H 0.96631 0.19389 0.93843 0.0
C273 C 0.93802 0.27971 0.9644 0.0
C274 C 0.95467 0.27767 0.98841 0.0
C275 C 0.93151 0.25899 0.94766 0.0
C276 C 0.94658 0.19264 0.93529 0.0
H277 H 0.85199 0.11338 0.88601 0.0
H278 H 0.87375 0.15295 0.88573 0.0
H279 H 0.94848 0.15433 0.92421 0.0
H280 H 0.97859 0.25275 0.01274 0.0
H281 H 0.96677 0.21648 0.98422 0.0
H282 H 0.89347 0.22597 0.93988 0.0
C283 C 0.87985 0.1386 0.9009 0.0
C284 C 0.93641 0.17003 0.92702 0.0
C285 C 0.86745 0.11601 0.90103 0.0
C286 C 0.96571 0.25485 0.99434 0.0
C287 C 0.95903 0.23408 0.9778 0.0
C288 C 0.90586 0.21078 0.93556 0.0
C289 C 0.89956 0.14277 0.92074 0.0
C290 C 0.91082 0.16745 0.92373 0.0
C291 C 0.94132 0.23576 0.9548 0.0
C292 C 0.93132 0.21307 0.94072 0.0
H293 H 0.90032 0.08738 0.95624 0.0
H294 H 0.92195 0.12656 0.95589 0.0
H295 H 0.87592 0.18673 0.92499 0.0
H296 H 0.92942 0.29717 0.95914 0.0
H297 H 0.9182 0.26104 0.92971 0.0
C298 C 0.37783 0.87339 0.89394 0.0
C299 C 0.39666 0.8775 0.91498 0.0
C300 C 0.35527 0.88566 0.89668 0.0
C301 C 0.32543 0.93941 0.93143 0.0
H302 H 0.2679 0.89764 0.93845 0.0
C303 C 0.24028 0.96748 -0.00076 0.0
C304 C 0.21715 0.95787 0.9916 0.0
C305 C 0.2612 0.96079 0.98295 0.0
C306 C 0.28356 0.90977 0.93584 0.0
H307 H 0.40715 0.89825 0.95454 0.0
H308 H 0.36805 0.91985 0.95901 0.0
H309 H 0.30675 0.88008 0.9217 0.0
H310 H 0.19739 0.93512 0.95972 0.0
H311 H 0.2338 0.92401 0.93066 0.0
H312 H 0.30247 0.96904 0.94601 0.0
C313 C 0.37061 0.90716 0.94051 0.0
C314 C 0.30586 0.89963 0.92629 0.0
C315 C 0.3929 0.89463 0.9381 0.0
C316 C 0.21507 0.94262 0.96628 0.0
C317 C 0.23595 0.93614 0.94976 0.0
C318 C 0.30308 0.94963 0.94063 0.0
C319 C 0.35146 0.90257 0.9201 0.0
C320 C 0.32715 0.91419 0.92494 0.0
C321 C 0.25939 0.94455 0.95843 0.0
C322 C 0.28205 0.93476 0.94393 0.0
H323 H 0.38031 0.86026 0.87591 0.0
H324 H 0.34075 0.88183 0.88068 0.0
H325 H 0.34157 0.95108 0.93021 0.0
H326 H 0.24244 0.97922 0.01871 0.0
H327 H 0.27892 0.9674 0.9906 0.0
C328 C 0.52832 0.26121 0.49528 0.0
C329 C 0.53632 0.26539 0.46567 0.0
C330 C 0.53776 0.24141 0.51187 0.0
C331 C 0.59347 0.2041 0.51559 0.0
H332 H 0.55498 0.15464 0.55732 0.0
C333 C 0.63013 0.10819 0.53707 0.0
C334 C 0.62638 0.09694 0.56507 0.0
C335 C 0.619 0.13056 0.53037 0.0
C336 C 0.56596 0.16862 0.5463 0.0
H337 H 0.55928 0.25139 0.42965 0.0
H338 H 0.57559 0.21709 0.45842 0.0
H339 H 0.53425 0.1903 0.53466 0.0
H340 H 0.60801 0.10019 0.6081 0.0
H341 H 0.58803 0.13964 0.59605 0.0
H342 H 0.62502 0.1823 0.52622 0.0
C343 C 0.56238 0.22924 0.46901 0.0
C344 C 0.55411 0.18892 0.5333 0.0
C345 C 0.55291 0.24881 0.45249 0.0
C346 C 0.61127 0.10858 0.58639 0.0
C347 C 0.59979 0.131 0.57948 0.0
C348 C 0.60523 0.18397 0.52855 0.0
C349 C 0.55545 0.22574 0.49908 0.0
C350 C 0.56774 0.20631 0.51689 0.0
C351 C 0.60367 0.14219 0.5514 0.0
C352 C 0.59153 0.16558 0.54305 0.0
H353 H 0.51553 0.27373 0.50597 0.0
H354 H 0.53207 0.23897 0.535 0.0
H355 H 0.60445 0.21757 0.50365 0.0
H356 H 0.64166 0.09965 0.52017 0.0
H357 H 0.62201 0.13855 0.50837 0.0
C358 C 0.3807 0.61989 0.58489 0.0
C359 C 0.40178 0.6137 0.56836 0.0
C360 C 0.35901 0.60625 0.58149 0.0
C361 C 0.3296 0.5641 0.52664 0.0
H362 H 0.28047 0.55656 0.58916 0.0
C363 C 0.23952 0.5151 0.50128 0.0
C364 C 0.21904 0.53032 0.50625 0.0
C365 C 0.26208 0.52046 0.51484 0.0
C366 C 0.29415 0.55841 0.5716 0.0
H367 H 0.41745 0.58757 0.53699 0.0
H368 H 0.38026 0.56315 0.53214 0.0
H369 H 0.32018 0.5755 0.6011 0.0
H370 H 0.20535 0.56152 0.53156 0.0
H371 H 0.24472 0.57074 0.55543 0.0
H372 H 0.30365 0.54718 0.49717 0.0
C373 C 0.37986 0.57909 0.54669 0.0
C374 C 0.3168 0.56943 0.57832 0.0
C375 C 0.40126 0.59301 0.54957 0.0
C376 C 0.22089 0.54955 0.5272 0.0
C377 C 0.2434 0.55478 0.54097 0.0
C378 C 0.30722 0.55282 0.52009 0.0
C379 C 0.35821 0.58589 0.56192 0.0
C380 C 0.3347 0.57271 0.55579 0.0
C381 C 0.26444 0.54098 0.53381 0.0
C382 C 0.28914 0.55015 0.54235 0.0
H383 H 0.38072 0.63579 0.59955 0.0
H384 H 0.34268 0.61222 0.59337 0.0
H385 H 0.34253 0.56683 0.50844 0.0
H386 H 0.23861 0.50009 0.48532 0.0
H387 H 0.278 0.50937 0.50923 0.0
C388 C 0.89893 0.3911 0.53946 0.0
C389 C 0.88211 0.39408 0.56312 0.0
C390 C 0.91402 0.37036 0.53819 0.0
C391 C 0.9144 0.3062 0.5601 0.0
H392 H 0.982 0.30815 0.53213 0.0
C393 C 0.96098 0.21742 0.5235 0.0
C394 C 0.97235 0.21899 0.49525 0.0
C395 C 0.95568 0.23872 0.53976 0.0
C396 C 0.96315 0.30728 0.53996 0.0
H397 H 0.8683 0.37811 0.60446 0.0
H398 H 0.8945 0.34152 0.60195 0.0
H399 H 0.96102 0.3464 0.54536 0.0
H400 H 0.98896 0.24378 0.46294 0.0
H401 H 0.97908 0.28095 0.4907 0.0
H402 H 0.91576 0.26746 0.55306 0.0
C403 C 0.89599 0.3553 0.58445 0.0
C404 C 0.95118 0.32917 0.54759 0.0
C405 C 0.88103 0.3762 0.58588 0.0
C406 C 0.98016 0.24203 0.48468 0.0
C407 C 0.97457 0.26337 0.50073 0.0
C408 C 0.92625 0.28438 0.55223 0.0
C409 C 0.91247 0.35208 0.56042 0.0
C410 C 0.92647 0.32887 0.55693 0.0
C411 C 0.96131 0.26203 0.52786 0.0
C412 C 0.95055 0.28469 0.54124 0.0
H413 H 0.90025 0.40466 0.52169 0.0
H414 H 0.92628 0.36822 0.51918 0.0
H415 H 0.89527 0.30543 0.56691 0.0
H416 H 0.95503 0.19982 0.53234 0.0
H417 H 0.94606 0.23697 0.56096 0.0
C418 C 0.1166 0.8881 0.58181 0.0
C419 C 0.09949 0.8877 0.55817 0.0
C420 C 0.13757 0.90294 0.57995 0.0
C421 C 0.16544 0.95547 0.53972 0.0
H422 H 0.22632 0.91909 0.54898 0.0
C423 C 0.25507 0.98196 0.47953 0.0
C424 C 0.27763 0.97393 0.49134 0.0
C425 C 0.2331 0.97676 0.49459 0.0
C426 C 0.20965 0.9299 0.54706 0.0
H427 H 0.09012 0.90332 0.51482 0.0
H428 H 0.12664 0.9293 0.51165 0.0
H429 H 0.18769 0.9 0.56307 0.0
H430 H 0.29532 0.95653 0.52944 0.0
H431 H 0.25715 0.94848 0.55645 0.0
H432 H 0.18736 0.98525 0.52318 0.0
C433 C 0.12389 0.9182 0.53159 0.0
C434 C 0.18744 0.91883 0.55506 0.0
C435 C 0.10312 0.90316 0.53328 0.0
C436 C 0.27809 0.96264 0.51969 0.0
C437 C 0.25619 0.95785 0.53501 0.0
C438 C 0.18773 0.9667 0.53204 0.0
C439 C 0.14156 0.91786 0.55462 0.0
C440 C 0.16508 0.93122 0.55066 0.0
C441 C 0.23334 0.96376 0.52198 0.0
C442 C 0.21007 0.95377 0.53476 0.0
H443 H 0.11418 0.87641 0.60131 0.0
H444 H 0.15089 0.90243 0.59805 0.0
H445 H 0.14842 0.96551 0.53643 0.0
H446 H 0.25422 0.99064 0.45764 0.0
H447 H 0.21593 0.98147 0.48366 0.0
C448 C 0.45027 0.76949 0.9856 0.0
C449 C 0.44361 0.77466 0.95575 0.0
C450 C 0.44224 0.74778 -0.00054 0.0
C451 C 0.41987 0.68561 0.982 0.0
H452 H 0.38574 0.68864 0.05844 0.0
C453 C 0.35573 0.60847 0.01907 0.0
C454 C 0.35681 0.60044 0.04899 0.0
C455 C 0.36795 0.6298 0.01021 0.0
C456 C 0.39555 0.68744 0.03732 0.0
H457 H 0.42372 0.76115 0.91687 0.0
H458 H 0.40999 0.72338 0.94084 0.0
H459 H 0.40568 0.72559 0.03838 0.0
H460 H 0.37088 0.60879 0.0934 0.0
H461 H 0.39244 0.64628 0.07781 0.0
H462 H 0.4096 0.64771 0.98054 0.0
C463 C 0.42141 0.73596 0.95356 0.0
C464 C 0.40697 0.70855 0.02588 0.0
C465 C 0.42915 0.75767 0.9399 0.0
C466 C 0.3697 0.61462 0.07017 0.0
C467 C 0.38202 0.63605 0.06127 0.0
C468 C 0.40858 0.66458 0.99342 0.0
C469 C 0.42777 0.73081 0.98348 0.0
C470 C 0.41866 0.70794 0.99773 0.0
C471 C 0.38164 0.64357 0.03105 0.0
C472 C 0.3957 0.66541 0.02078 0.0
H473 H 0.46138 0.78234 0.99832 0.0
H474 H 0.44743 0.74418 0.02254 0.0
H475 H 0.42915 0.68454 0.9605 0.0
H476 H 0.3458 0.59801 0.00227 0.0
H477 H 0.36681 0.63543 0.98691 0.0
C478 C 0.71546 0.44757 0.02118 0.0
C479 C 0.71616 0.46615 -0.00073 0.0
C480 C 0.73705 0.43958 0.03496 0.0
C481 C 0.80356 0.45107 0.04567 0.0
H482 H 0.80798 0.38026 0.03642 0.0
C483 C 0.89598 0.39879 0.04407 0.0
C484 C 0.89674 0.37453 0.05493 0.0
C485 C 0.87376 0.41166 0.04296 0.0
C486 C 0.807 0.39995 0.03988 0.0
H487 H 0.73955 0.49247 0.97644 0.0
H488 H 0.77759 0.47828 0.00045 0.0
H489 H 0.76946 0.40097 0.02585 0.0
H490 H 0.87518 0.3451 0.07453 0.0
H491 H 0.83641 0.36777 0.07343 0.0
H492 H 0.84133 0.44998 0.05941 0.0
C493 C 0.76027 0.47001 0.00706 0.0
C494 C 0.78486 0.41186 0.03373 0.0
C495 C 0.73853 0.47813 0.99331 0.0
C496 C 0.87505 0.36369 0.06574 0.0
C497 C 0.85285 0.37667 0.06497 0.0
C498 C 0.82575 0.43908 0.05213 0.0
C499 C 0.75982 0.44989 0.02697 0.0
C500 C 0.78294 0.43755 0.03623 0.0
C501 C 0.85183 0.40063 0.05297 0.0
C502 C 0.82782 0.41338 0.0489 0.0
H503 H 0.69838 0.43822 0.02647 0.0
H504 H 0.7361 0.4244 0.05071 0.0
H505 H 0.80254 0.47089 0.04791 0.0
H506 H 0.91245 0.40761 0.03556 0.0
H507 H 0.87368 0.4299 0.03318 0.0
C508 C 0.05811 0.7146 0.01352 0.0
C509 C 0.03704 0.7148 0.99529 0.0
C510 C 0.06601 0.73603 0.02763 0.0
C511 C 0.05041 0.80063 0.046 0.0
H512 H 0.11983 0.81079 0.02975 0.0
C513 C 0.09721 0.89612 0.0472 0.0
C514 C 0.12194 0.89757 0.05623 0.0
C515 C 0.08538 0.87336 0.04546 0.0
C516 C 0.10056 0.80815 0.03511 0.0
H517 H 0.00663 0.73695 0.97918 0.0
H518 H 0.0208 0.77485 0.00343 0.0
H519 H 0.10101 0.77171 0.01749 0.0
H520 H 0.15331 0.87667 0.07217 0.0
H521 H 0.13253 0.83696 0.06981 0.0
H522 H 0.05003 0.83748 0.06311 0.0
C523 C 0.03104 0.75801 0.00708 0.0
C524 C 0.08973 0.78569 0.02803 0.0
C525 C 0.02295 0.73638 0.99314 0.0
C526 C 0.13432 0.87603 0.06479 0.0
C527 C 0.12242 0.8533 0.06332 0.0
C528 C 0.06132 0.82319 0.05325 0.0
C529 C 0.05319 0.75821 0.02347 0.0
C530 C 0.06453 0.7817 0.03318 0.0
C531 C 0.09801 0.85163 0.05294 0.0
C532 C 0.0865 0.82725 0.04762 0.0
H533 H 0.06909 0.69808 0.01591 0.0
H534 H 0.08281 0.73549 0.04073 0.0
H535 H 0.03096 0.79801 0.05034 0.0
H536 H 0.08721 0.91247 0.04051 0.0
H537 H 0.06667 0.87274 0.03707 0.0
C538 C 0.61259 0.14415 0.04532 0.0
C539 C 0.59771 0.13567 0.06891 0.0
C540 C 0.63626 0.13487 0.04139 0.0
C541 C 0.67253 0.08006 0.0518 0.0
H542 H 0.72659 0.12326 0.0304 0.0
C543 C 0.76635 0.04398 0.00646 0.0
C544 C 0.77497 0.05669 0.98105 0.0
C545 C 0.74656 0.05328 0.02314 0.0
C546 C 0.71169 0.11093 0.03632 0.0
H547 H 0.59589 0.11106 0.10717 0.0
H548 H 0.63749 0.09424 0.09978 0.0
H549 H 0.68843 0.14072 0.04979 0.0
H550 H 0.76967 0.08899 0.95314 0.0
H551 H 0.73522 0.10495 0.98178 0.0
H552 H 0.69537 0.05033 0.03684 0.0
C553 C 0.63075 0.1083 0.0846 0.0
C554 C 0.68992 0.12093 0.04753 0.0
C555 C 0.60709 0.11796 0.08887 0.0
C556 C 0.76352 0.0788 0.97266 0.0
C557 C 0.74389 0.08808 0.98927 0.0
C558 C 0.69433 0.07002 0.04037 0.0
C559 C 0.64548 0.11665 0.06072 0.0
C560 C 0.66986 0.10567 0.05443 0.0
C561 C 0.73521 0.07552 0.01475 0.0
C562 C 0.7138 0.08546 0.03152 0.0
H563 H 0.60583 0.15783 0.02963 0.0
H564 H 0.64708 0.1414 0.02256 0.0
H565 H 0.65726 0.06791 0.0568 0.0
H566 H 0.77488 0.02689 0.01344 0.0
H567 H 0.74028 0.04323 0.0427 0.0
C568 C 0.43702 0.73731 0.54204 0.0
C569 C 0.44943 0.71891 0.52598 0.0
C570 C 0.4311 0.75956 0.52834 0.0
C571 C 0.41552 0.78799 0.45809 0.0
H572 H 0.42959 0.84831 0.50129 0.0
C573 C 0.37899 0.88474 0.42183 0.0
C574 C 0.36918 0.89859 0.44565 0.0
C575 C 0.39194 0.86293 0.42763 0.0
C576 C 0.42551 0.83164 0.48894 0.0
H577 H 0.46524 0.70914 0.4829 0.0
H578 H 0.45415 0.74825 0.45846 0.0
H579 H 0.44718 0.8096 0.51873 0.0
H580 H 0.36472 0.90024 0.49404 0.0
H581 H 0.38688 0.8624 0.50403 0.0
H582 H 0.39278 0.80995 0.42917 0.0
C583 C 0.44935 0.74535 0.48181 0.0
C584 C 0.43567 0.80955 0.49884 0.0
C585 C 0.45571 0.72311 0.49577 0.0
C586 C 0.37216 0.89007 0.47519 0.0
C587 C 0.38507 0.86847 0.48095 0.0
C588 C 0.40516 0.81018 0.44824 0.0
C589 C 0.43716 0.7638 0.49813 0.0
C590 C 0.43011 0.78743 0.48413 0.0
C591 C 0.39539 0.8548 0.45733 0.0
C592 C 0.40937 0.83206 0.46427 0.0
H593 H 0.43199 0.73461 0.56536 0.0
H594 H 0.42143 0.77339 0.54129 0.0
H595 H 0.41093 0.7711 0.44646 0.0
H596 H 0.37697 0.89093 0.39883 0.0
H597 H 0.39967 0.85273 0.40899 0.0
C598 C 0.76448 0.41047 0.52192 0.0
C599 C 0.77468 0.43366 0.51581 0.0
C600 C 0.74422 0.40203 0.50575 0.0
C601 C 0.6917 0.42281 0.4603 0.0
H602 H 0.68703 0.35303 0.44293 0.0
C603 C 0.60471 0.37634 0.40864 0.0
C604 C 0.59595 0.35728 0.4271 0.0
C605 C 0.6282 0.38625 0.41344 0.0
C606 C 0.68818 0.37259 0.44742 0.0
H607 H 0.77171 0.46626 0.48798 0.0
H608 H 0.73618 0.45134 0.45935 0.0
H609 H 0.72542 0.36986 0.46246 0.0
H610 H 0.60496 0.33304 0.4642 0.0
H611 H 0.64598 0.34986 0.47206 0.0
H612 H 0.65413 0.42525 0.44566 0.0
C613 C 0.74381 0.4398 0.47687 0.0
C614 C 0.71006 0.38222 0.45878 0.0
C615 C 0.76416 0.44831 0.49318 0.0
C616 C 0.61126 0.34775 0.44967 0.0
C617 C 0.63477 0.35728 0.45406 0.0
C618 C 0.6698 0.41316 0.44864 0.0
C619 C 0.7337 0.41649 0.48292 0.0
C620 C 0.7118 0.40726 0.4664 0.0
C621 C 0.64337 0.37681 0.43629 0.0
C622 C 0.66763 0.38783 0.44309 0.0
H623 H 0.77207 0.3988 0.53934 0.0
H624 H 0.73655 0.38425 0.51154 0.0
H625 H 0.69239 0.44215 0.46604 0.0
H626 H 0.59316 0.38406 0.39118 0.0
H627 H 0.63448 0.40133 0.39948 0.0
C628 C 0.10913 0.60326 0.41841 0.0
C629 C 0.13413 0.60091 0.42601 0.0
C630 C 0.09761 0.62624 0.4195 0.0
C631 C 0.10909 0.69327 0.42457 0.0
H632 H 0.05102 0.69363 0.47525 0.0
C633 C 0.08212 0.7761 0.49596 0.0
C634 C 0.05721 0.78119 0.50163 0.0
C635 C 0.08887 0.75548 0.47932 0.0
C636 C 0.06684 0.69392 0.46046 0.0
H637 H 0.16704 0.62081 0.43893 0.0
H638 H 0.14701 0.66089 0.4407 0.0
H639 H 0.06799 0.65463 0.45818 0.0
H640 H 0.01975 0.76923 0.49346 0.0
H641 H 0.03159 0.73302 0.46409 0.0
H642 H 0.10842 0.73253 0.42764 0.0
C643 C 0.13629 0.64506 0.43384 0.0
C644 C 0.07659 0.67153 0.45069 0.0
C645 C 0.14774 0.62208 0.43301 0.0
C646 C 0.0391 0.76567 0.4895 0.0
C647 C 0.04589 0.74493 0.4728 0.0
C648 C 0.09927 0.71565 0.43419 0.0
C649 C 0.11096 0.64727 0.42789 0.0
C650 C 0.09828 0.67096 0.43349 0.0
C651 C 0.07089 0.73945 0.46789 0.0
C652 C 0.07855 0.71618 0.45314 0.0
H653 H 0.0982 0.58722 0.41289 0.0
H654 H 0.07812 0.62746 0.41457 0.0
H655 H 0.12561 0.69337 0.41094 0.0
H656 H 0.09651 0.78773 0.50499 0.0
H657 H 0.10829 0.75162 0.47647 0.0
C658 C 0.73521 0.06888 0.54438 0.0
C659 C 0.72456 0.04608 0.53721 0.0
C660 C 0.7549 0.07796 0.52771 0.0
C661 C 0.8068 0.0613 0.48141 0.0
H662 H 0.80246 0.12912 0.45464 0.0
C663 C 0.8892 0.11003 0.4252 0.0
C664 C 0.89422 0.13364 0.43648 0.0
C665 C 0.86679 0.0985 0.43158 0.0
C666 C 0.80402 0.11019 0.46203 0.0
H667 H 0.72664 0.01453 0.50757 0.0
H668 H 0.76183 0.03032 0.47867 0.0
H669 H 0.76692 0.10967 0.4782 0.0
H670 H 0.87947 0.16407 0.46226 0.0
H671 H 0.84069 0.14393 0.47379 0.0
H672 H 0.84428 0.06213 0.46669 0.0
C673 C 0.75458 0.04115 0.49707 0.0
C674 C 0.78366 0.09906 0.4754 0.0
C675 C 0.73453 0.03215 0.51357 0.0
C676 C 0.87609 0.14589 0.45318 0.0
C677 C 0.85377 0.13437 0.45963 0.0
C678 C 0.82732 0.07252 0.46827 0.0
C679 C 0.76458 0.06435 0.5037 0.0
C680 C 0.78507 0.07475 0.48591 0.0
C681 C 0.84902 0.11035 0.44939 0.0
C682 C 0.82635 0.09733 0.45918 0.0
H683 H 0.72796 0.08006 0.56246 0.0
H684 H 0.76257 0.09571 0.53359 0.0
H685 H 0.80833 0.04255 0.48946 0.0
H686 H 0.90285 0.10018 0.41218 0.0
H687 H 0.86357 0.08014 0.42301 0.0
C688 C 0.50228 0.92174 0.9245 0.0
C689 C 0.49995 0.90134 0.94368 0.0
C690 C 0.50467 0.94538 0.93633 0.0
C691 C 0.48613 0.97909 0.00345 0.0
H692 H 0.52446 0.03222 0.96896 0.0
C693 C 0.49515 0.07472 0.0579 0.0
C694 C 0.49678 0.09535 0.03899 0.0
C695 C 0.49405 0.0511 0.04581 0.0
C696 C 0.51336 0.01763 0.97852 0.0
H697 H 0.50051 0.88935 0.99013 0.0
H698 H 0.50508 0.93067 0.01082 0.0
H699 H 0.52941 0.99049 0.94969 0.0
H700 H 0.49688 0.10763 0.99265 0.0
H701 H 0.49458 0.06624 0.97144 0.0
H702 H 0.46999 0.00618 0.03217 0.0
C703 C 0.50451 0.92842 0.98666 0.0
C704 C 0.51634 0.99373 0.96763 0.0
C705 C 0.50216 0.90475 0.97481 0.0
C706 C 0.49566 0.09204 0.00775 0.0
C707 C 0.49462 0.06836 0.99562 0.0
C708 C 0.48313 0.00297 0.0143 0.0
C709 C 0.50477 0.94902 0.96756 0.0
C710 C 0.50278 0.9742 0.98004 0.0
C711 C 0.49456 0.04763 0.01455 0.0
C712 C 0.49673 0.02249 0.00198 0.0
H713 H 0.50069 0.91965 0.90038 0.0
H714 H 0.5048 0.96088 0.92103 0.0
H715 H 0.47499 0.96452 0.01299 0.0
H716 H 0.49598 0.07672 0.08209 0.0
H717 H 0.49414 0.03552 0.061 0.0
C718 C 0.40205 0.49731 0.01279 0.0
C719 C 0.39781 0.50105 0.04356 0.0
C720 C 0.42606 0.49729 0.00151 0.0
C721 C 0.48646 0.52337 0.01997 0.0
H722 H 0.51036 0.48096 0.95646 0.0
C723 C 0.58863 0.51521 0.9859 0.0
C724 C 0.59405 0.50965 0.95583 0.0
C725 C 0.56419 0.51746 0.99526 0.0
C726 C 0.5038 0.49325 0.97383 0.0
H727 H 0.41529 0.50556 0.08701 0.0
H728 H 0.45715 0.50501 0.06742 0.0
H729 H 0.46897 0.47492 0.97626 0.0
H730 H 0.57849 0.5047 0.91139 0.0
H731 H 0.53588 0.50925 0.9276 0.0
H732 H 0.52133 0.54163 0.01767 0.0
C733 C 0.44196 0.50277 0.0519 0.0
C734 C 0.48015 0.48967 0.98528 0.0
C735 C 0.418 0.50282 0.06314 0.0
C736 C 0.57481 0.50877 0.93478 0.0
C737 C 0.55041 0.51111 0.94411 0.0
C738 C 0.5101 0.52699 0.0085 0.0
C739 C 0.44619 0.50096 0.02086 0.0
C740 C 0.47131 0.50455 0.00864 0.0
C741 C 0.54481 0.51432 0.97466 0.0
C742 C 0.51908 0.51188 0.98541 0.0
H743 H 0.38682 0.49599 0.99717 0.0
H744 H 0.42876 0.49584 0.97748 0.0
H745 H 0.47994 0.5355 0.03755 0.0
H746 H 0.60309 0.51593 0.00262 0.0
H747 H 0.56049 0.51992 0.01897 0.0
C748 C 0.98131 0.58829 0.9857 0.0
C749 C 0.98269 0.59519 0.95534 0.0
C750 C 0.98066 0.56344 0.99365 0.0
C751 C 0.00298 0.50518 0.96264 0.0
H752 H 0.97272 0.47694 0.03352 0.0
C753 C 0.00263 0.40162 0.99255 0.0
C754 C 0.00312 0.39532 0.02315 0.0
C755 C 0.00292 0.42629 0.9838 0.0
C756 C 0.98159 0.48472 0.0139 0.0
H757 H 0.98116 0.58187 0.9095 0.0
H758 H 0.97918 0.53853 0.92338 0.0
H759 H 0.96228 0.51882 0.01857 0.0
H760 H 0.00741 0.40961 0.06833 0.0
H761 H 0.00828 0.45265 0.05298 0.0
H762 H 0.02214 0.47095 0.9579 0.0
C763 C 0.97957 0.55222 0.94104 0.0
C764 C 0.97546 0.50863 0.00524 0.0
C765 C 0.98037 0.57704 0.9331 0.0
C766 C 0.00677 0.41392 0.04458 0.0
C767 C 0.00699 0.43857 0.03585 0.0
C768 C 0.00901 0.48122 0.97123 0.0
C769 C 0.98114 0.54515 0.97135 0.0
C770 C 0.98612 0.51915 0.97953 0.0
C771 C 0.00375 0.445 0.00554 0.0
C772 C -0.00153 0.4708 0.99703 0.0
H773 H 0.98307 0.60188 0.00335 0.0
H774 H 0.98181 0.55864 0.01722 0.0
H775 H 0.01199 0.51293 0.9431 0.0
H776 H -0.00011 0.38766 0.97552 0.0
H777 H 0.00052 0.4307 0.96025 0.0
C778 C 0.09173 0.00619 0.9967 0.0
C779 C 0.09896 0.00694 0.02697 0.0
C780 C 0.06696 0.00875 0.98894 0.0
C781 C 0.00695 0.99584 0.02262 0.0
H782 H 0.98162 0.02355 0.94859 0.0
C783 C 0.9035 0.00054 0.99142 0.0
C784 C 0.89736 -0.00223 0.96096 0.0
C785 C 0.92812 0.00031 0.00046 0.0
C786 C 0.98852 0.01544 0.96917 0.0
H787 H 0.0865 0.01376 0.07248 0.0
H788 H 0.04332 0.01882 0.05884 0.0
H789 H 0.02446 0.03064 0.96249 0.0
H790 H 0.91189 0.99015 0.91655 0.0
H791 H 0.95482 0.9893 0.93244 0.0
H792 H 0.971 0.98058 0.02922 0.0
C793 C 0.05666 0.0155 0.04121 0.0
C794 C 0.013 0.01965 0.9772 0.0
C795 C 0.08142 0.01288 0.04898 0.0
C796 C 0.91608 0.99251 0.94016 0.0
C797 C 0.94067 0.99231 0.94919 0.0
C798 C 0.98245 0.99168 0.01461 0.0
C799 C 0.04904 0.01224 0.01132 0.0
C800 C 0.02253 0.00976 0.00392 0.0
C801 C 0.94698 0.99727 0.97917 0.0
C802 C 0.97305 0.00125 0.98767 0.0
H803 H 0.10485 0.00167 0.97923 0.0
H804 H 0.06171 0.00616 0.96569 0.0
H805 H 0.01387 0.98751 0.04306 0.0
H806 H 0.88945 0.00465 0.00795 0.0
H807 H 0.93243 0.00414 0.02374 0.0
C808 C 0.50811 0.57307 0.56525 0.0
C809 C 0.50507 0.59244 0.54468 0.0
C810 C 0.51036 0.5489 0.55512 0.0
C811 C 0.5196 0.51002 0.48771 0.0
H812 H 0.47483 0.46575 0.52893 0.0
C813 C 0.49372 0.41718 0.43663 0.0
C814 C 0.49574 0.3968 0.45587 0.0
C815 C 0.4938 0.44099 0.44825 0.0
C816 C 0.48755 0.47782 0.51736 0.0
H817 H 0.50427 0.60206 0.49742 0.0
H818 H 0.50814 0.55987 0.4797 0.0
H819 H 0.48106 0.50728 0.54812 0.0
H820 H 0.49758 0.38518 0.50241 0.0
H821 H 0.49767 0.42686 0.52278 0.0
H822 H 0.52588 0.48063 0.45676 0.0
C823 C 0.5088 0.56329 0.50365 0.0
C824 C 0.49126 0.50155 0.52843 0.0
C825 C 0.5066 0.58749 0.51379 0.0
C826 C 0.49594 0.40057 0.48707 0.0
C827 C 0.49605 0.42444 0.49871 0.0
C828 C 0.51587 0.48631 0.47662 0.0
C829 C 0.50961 0.54368 0.52424 0.0
C830 C 0.50723 0.51795 0.51363 0.0
C831 C 0.49592 0.44486 0.47932 0.0
C832 C 0.49965 0.47004 0.49119 0.0
H833 H 0.50719 0.57638 0.58922 0.0
H834 H 0.51157 0.5342 0.57149 0.0
H835 H 0.5322 0.52214 0.476 0.0
H836 H 0.49337 0.41481 0.41248 0.0
H837 H 0.49306 0.45639 0.43282 0.0
C838 C 0.07911 0.4962 0.44893 0.0
C839 C 0.09684 0.50216 0.47069 0.0
C840 C 0.05419 0.49523 0.45656 0.0
C841 C 0.01144 0.52095 0.51239 0.0
H842 H 0.96533 0.47405 0.47879 0.0
C843 C 0.91271 0.50567 0.55619 0.0
C844 C 0.89447 0.49884 0.53545 0.0
C845 C 0.93687 0.50968 0.54668 0.0
C846 C 0.97792 0.48756 0.48792 0.0
H847 H 0.10269 0.51001 0.5179 0.0
H848 H 0.05923 0.50771 0.53139 0.0
H849 H 0.00895 0.47062 0.46676 0.0
H850 H 0.88659 0.49321 0.4882 0.0
H851 H 0.92876 0.50052 0.47155 0.0
H852 H 0.98039 0.53764 0.53392 0.0
C853 C 0.0645 0.50445 0.50827 0.0
C854 C 0.00293 0.4855 0.48116 0.0
C855 C 0.0894 0.50547 0.50062 0.0
C856 C 0.9003 0.49833 0.50472 0.0
C857 C 0.92448 0.50226 0.49522 0.0
C858 C 0.98643 0.52297 0.51921 0.0
C859 C 0.04657 0.50012 0.48613 0.0
C860 C 0.02 0.50206 0.49349 0.0
C861 C 0.94319 0.5069 0.51627 0.0
C862 C 0.96943 0.50622 0.50716 0.0
H863 H 0.0843 0.49363 0.42565 0.0
H864 H 0.04084 0.49191 0.43896 0.0
H865 H 0.02406 0.53434 0.52173 0.0
H866 H 0.90874 0.50624 0.58002 0.0
H867 H 0.95087 0.51322 0.56345 0.0
C868 C 0.99298 0.91708 0.55856 0.0
C869 C 0.99587 0.89827 0.53725 0.0
C870 C 0.98983 0.94141 0.54928 0.0
C871 C 0.97817 0.98192 0.48378 0.0
H872 H 0.02491 0.02479 0.52384 0.0
C873 C 8e-05 0.0777 0.43699 0.0
C874 C -0.00087 0.0969 0.45804 0.0
C875 C 0.00103 0.05326 0.44659 0.0
C876 C 0.01164 0.01313 0.51259 0.0
H877 H 0.99502 0.88968 0.4897 0.0
H878 H 0.98949 0.93211 0.47351 0.0
H879 H 0.01932 0.9828 0.54167 0.0
H880 H 0.00042 0.10576 0.5055 0.0
H881 H 0.00208 0.06316 0.52224 0.0
H882 H 0.97056 0.01228 0.45464 0.0
C883 C 0.98977 0.92816 0.49735 0.0
C884 C 0.0083 0.98912 0.52291 0.0
C885 C 0.99292 0.90382 0.50664 0.0
C886 C 0.00115 0.09133 0.48875 0.0
C887 C 0.00208 0.0669 0.49835 0.0
C888 C 0.98149 0.00597 0.47348 0.0
C889 C 0.98945 0.94731 0.51854 0.0
C890 C 0.99154 0.97325 0.50862 0.0
C891 C 0.00109 0.0476 0.4774 0.0
C892 C -0.00168 0.0218 0.48772 0.0
H893 H 0.99497 0.91332 0.58233 0.0
H894 H 0.989 0.95575 0.56612 0.0
H895 H 0.96505 0.97015 0.47243 0.0
H896 H -0.00135 0.08145 0.41315 0.0
H897 H 0.00084 0.03877 0.42991 0.0
C898 C 0.59368 0.99205 0.51435 0.0
C899 C 0.59612 0.99508 0.54553 0.0
C900 C 0.57032 0.99069 0.50128 0.0
C901 C 0.50365 0.98395 0.51897 0.0
H902 H 0.49503 0.02549 0.44881 0.0
C903 C 0.40767 0.011 0.47953 0.0
C904 C 0.40278 0.00432 0.44967 0.0
C905 C 0.4319 0.01223 0.48984 0.0
C906 C 0.49724 0.01381 0.46835 0.0
H907 H 0.57625 0.99707 0.5877 0.0
H908 H 0.53572 0.99496 0.56507 0.0
H909 H 0.53629 0.01876 0.46911 0.0
H910 H 0.41925 0.99636 0.40638 0.0
H911 H 0.46162 -0.00105 0.42434 0.0
H912 H 0.46455 0.97946 0.51856 0.0
C913 C 0.55166 0.99349 0.55057 0.0
C914 C 0.52084 0.00972 0.47981 0.0
C915 C 0.57494 0.99477 0.56358 0.0
C916 C 0.42251 0.00145 0.42956 0.0
C917 C 0.44676 0.00291 0.43982 0.0
C918 C 0.48009 0.98826 0.50771 0.0
C919 C 0.54904 0.99233 0.51919 0.0
C920 C 0.52429 0.99487 0.5054 0.0
C921 C 0.45158 0.0071 0.47036 0.0
C922 C 0.47664 0.00338 0.48247 0.0
H923 H 0.60972 0.9922 0.49989 0.0
H924 H 0.56891 0.98925 0.47708 0.0
H925 H 0.50567 0.97209 0.53837 0.0
H926 H 0.39282 0.01339 0.49551 0.0
H927 H 0.43521 0.01595 0.5134 0.0
C928 C 0.46685 0.28952 0.34975 0.0
C929 C 0.48715 0.30532 0.34656 0.0
C930 C 0.458 0.27631 0.32504 0.0
C931 C 0.4617 0.23661 0.27678 0.0
H932 H 0.46308 0.26175 0.19526 0.0
C933 C 0.49715 0.18178 0.17701 0.0
C934 C 0.48732 0.18568 0.14826 0.0
C935 C 0.48803 0.19472 0.20163 0.0
C936 C 0.46202 0.25442 0.21786 0.0
H937 H 0.513 0.32106 0.31484 0.0
H938 H 0.49762 0.29818 0.27186 0.0
H939 H 0.46282 0.29041 0.23734 0.0
H940 H 0.45927 0.20503 0.12289 0.0
H941 H 0.44342 0.22796 0.16609 0.0
H942 H 0.46209 0.20061 0.2573 0.0
C943 C 0.48843 0.29595 0.29328 0.0
C944 C 0.46211 0.27085 0.24195 0.0
C945 C 0.4974 0.30892 0.31796 0.0
C946 C 0.46722 0.20171 0.14484 0.0
C947 C 0.45822 0.21488 0.16949 0.0
C948 C 0.46169 0.22018 0.25269 0.0
C949 C 0.46912 0.27895 0.29671 0.0
C950 C 0.46303 0.26209 0.27163 0.0
C951 C 0.469 0.21199 0.19799 0.0
C952 C 0.46293 0.22892 0.22301 0.0
H953 H 0.45858 0.28644 0.37157 0.0
H954 H 0.44301 0.26344 0.32827 0.0
H955 H 0.46248 0.22928 0.29939 0.0
H956 H 0.5126 0.16946 0.18032 0.0
H957 H 0.49695 0.19228 0.22319 0.0
C958 C 0.22204 0.52499 0.35686 0.0
C959 C 0.20379 0.50902 0.3677 0.0
C960 C 0.2369 0.51809 0.33283 0.0
C961 C 0.23771 0.48169 0.26536 0.0
H962 H 0.30749 0.49684 0.26733 0.0
C963 C 0.29711 0.48245 0.15759 0.0
C964 C 0.31017 0.5046 0.15422 0.0
C965 C 0.28682 0.47618 0.1854 0.0
C966 C 0.28807 0.49236 0.26645 0.0
H967 H 0.18667 0.47331 0.36196 0.0
H968 H 0.21249 0.46143 0.31899 0.0
H969 H 0.28346 0.49857 0.31357 0.0
H970 H 0.32377 0.53691 0.17741 0.0
H971 H 0.30595 0.52607 0.22561 0.0
H972 H 0.24201 0.47695 0.2179 0.0
C973 C 0.21534 0.47917 0.3295 0.0
C974 C 0.27436 0.49331 0.29289 0.0
C975 C 0.20063 0.48595 0.35398 0.0
C976 C 0.31375 0.51975 0.17933 0.0
C977 C 0.3037 0.51341 0.20704 0.0
C978 C 0.25144 0.48086 0.23879 0.0
C979 C 0.23369 0.49517 0.31887 0.0
C980 C 0.24888 0.48897 0.29236 0.0
C981 C 0.28972 0.49182 0.21029 0.0
C982 C 0.27654 0.48721 0.23892 0.0
H983 H 0.22495 0.54285 0.36703 0.0
H984 H 0.25062 0.53096 0.32476 0.0
H985 H 0.21807 0.47833 0.26436 0.0
H986 H 0.29409 0.47045 0.13854 0.0
H987 H 0.27622 0.45937 0.18731 0.0
C988 C 0.95848 0.3047 0.15537 0.0
C989 C 0.9773 0.30499 0.13378 0.0
C990 C 0.96222 0.29356 0.18318 0.0
C991 C -0.00116 0.24617 0.2207 0.0
H992 H 0.96984 0.27493 0.29213 0.0
C993 C 0.00016 0.19947 0.33868 0.0
C994 C 0.97709 0.19908 0.35295 0.0
C995 C 0.00369 0.21349 0.31263 0.0
C996 C 0.97804 0.26668 0.27237 0.0
H997 H 0.01493 0.29413 0.12442 0.0
H998 H 0.02152 0.27454 0.17339 0.0
H999 H 0.9703 0.29828 0.24539 0.0
H1000 H 0.93963 0.21284 0.35116 0.0
H1001 H 0.94579 0.23723 0.30598 0.0
H1002 H 0.00611 0.21432 0.24777 0.0
C1003 C 0.00383 0.28287 0.1686 0.0
C1004 C 0.97829 0.28003 0.24563 0.0
C1005 C 0.00011 0.29415 0.14068 0.0
C1006 C 0.95763 0.2128 0.3407 0.0
C1007 C 0.9612 0.22692 0.31495 0.0
C1008 C -0.00132 0.23281 0.24758 0.0
C1009 C 0.98487 0.28242 0.1901 0.0
C1010 C 0.988 0.26964 0.21928 0.0
C1011 C 0.98427 0.22754 0.30074 0.0
C1012 C 0.98761 0.2427 0.2734 0.0
H1013 H 0.94068 0.31285 0.15068 0.0
H1014 H 0.94708 0.29315 0.19901 0.0
H1015 H 0.00634 0.23762 0.20073 0.0
H1016 H 0.01548 0.18905 0.34768 0.0
H1017 H 0.02166 0.21368 0.30208 0.0
C1018 C 0.29913 -0.00238 0.3373 0.0
C1019 C 0.29844 0.97549 0.35361 0.0
C1020 C 0.28477 0.00053 0.31149 0.0
C1021 C 0.22959 0.97579 0.27417 0.0
H1022 H 0.25863 0.00201 0.20128 0.0
C1023 C 0.18788 0.95894 0.15803 0.0
C1024 C 0.18869 0.97778 0.13648 0.0
C1025 C 0.19956 0.9618 0.18566 0.0
C1026 C 0.25011 0.99508 0.2216 0.0
H1027 H 0.28235 0.93903 0.35569 0.0
H1028 H 0.2574 0.94403 0.31063 0.0
H1029 H 0.28281 0.00095 0.24751 0.0
H1030 H 0.20188 0.01462 0.12709 0.0
H1031 H 0.22236 0.01971 0.17571 0.0
H1032 H 0.19706 0.96953 0.24826 0.0
C1033 C 0.26881 0.95924 0.31794 0.0
C1034 C 0.26397 0.99443 0.24803 0.0
C1035 C 0.28323 0.95629 0.3436 0.0
C1036 C 0.201 -0.0002 0.14331 0.0
C1037 C 0.2128 0.00264 0.17103 0.0
C1038 C 0.21573 0.9765 0.24782 0.0
C1039 C 0.26935 0.98141 0.30169 0.0
C1040 C 0.25402 0.98427 0.27439 0.0
C1041 C 0.21234 0.98357 0.19239 0.0
C1042 C 0.22602 0.98563 0.22109 0.0
H1043 H 0.31068 0.01275 0.34457 0.0
H1044 H 0.28545 0.01785 0.29948 0.0
H1045 H 0.22128 0.96833 0.29433 0.0
H1046 H 0.17855 0.94173 0.15339 0.0
H1047 H 0.19918 0.94661 0.20141 0.0
C1048 C 0.51983 0.79359 0.84383 0.0
C1049 C 0.50075 0.8107 0.83948 0.0
C1050 C 0.5285 0.77953 0.81977 0.0
C1051 C 0.52462 0.73933 0.77271 0.0
H1052 H 0.52486 0.76235 0.69027 0.0
C1053 C 0.49181 0.6808 0.67447 0.0
C1054 C 0.50181 0.68433 0.64574 0.0
C1055 C 0.50007 0.69479 0.69869 0.0
C1056 C 0.52543 0.75557 0.71314 0.0
H1057 H 0.47697 0.82774 0.80634 0.0
H1058 H 0.49183 0.80314 0.76458 0.0
H1059 H 0.52532 0.79206 0.73116 0.0
H1060 H 0.52939 0.70411 0.62011 0.0
H1061 H 0.54395 0.7286 0.66258 0.0
H1062 H 0.52401 0.70285 0.75468 0.0
C1063 C 0.50031 0.80063 0.78638 0.0
C1064 C 0.52542 0.77263 0.73657 0.0
C1065 C 0.49163 0.81462 0.81039 0.0
C1066 C 0.52125 0.70112 0.642 0.0
C1067 C 0.52951 0.71519 0.66627 0.0
C1068 C 0.52468 0.72227 0.74928 0.0
C1069 C 0.51831 0.7824 0.79096 0.0
C1070 C 0.52396 0.7647 0.76657 0.0
C1071 C 0.51854 0.71263 0.69469 0.0
C1072 C 0.52403 0.73023 0.71925 0.0
H1073 H 0.52729 0.79029 0.86602 0.0
H1074 H 0.54258 0.76583 0.82392 0.0
H1075 H 0.5234 0.73257 0.79555 0.0
H1076 H 0.47684 0.66794 0.67804 0.0
H1077 H 0.49099 0.69256 0.72017 0.0
C1078 C 0.78971 0.50003 0.64636 0.0
C1079 C 0.80704 0.48087 0.6452 0.0
C1080 C 0.77788 0.50575 0.6734 0.0
C1081 C 0.78074 0.49411 0.75595 0.0
H1082 H 0.70982 0.50181 0.75217 0.0
C1083 C 0.71617 0.46687 0.85192 0.0
C1084 C 0.69772 0.48357 0.86033 0.0
C1085 C 0.73051 0.47125 0.82649 0.0
C1086 C 0.72966 0.50008 0.75352 0.0
H1087 H 0.82615 0.4532 0.67147 0.0
H1088 H 0.80533 0.46272 0.71815 0.0
H1089 H 0.73383 0.50174 0.7058 0.0
H1090 H 0.6796 0.51784 0.84876 0.0
H1091 H 0.70439 0.52515 0.80356 0.0
H1092 H 0.77629 0.49104 0.80359 0.0
C1093 C 0.80108 0.47373 0.69854 0.0
C1094 C 0.74345 0.50014 0.72701 0.0
C1095 C 0.8129 0.4681 0.67165 0.0
C1096 C 0.69373 0.50468 0.84274 0.0
C1097 C 0.70784 0.50885 0.81694 0.0
C1098 C 0.76694 0.49375 0.78235 0.0
C1099 C 0.78319 0.49239 0.69971 0.0
C1100 C 0.76908 0.49641 0.72787 0.0
C1101 C 0.72644 0.49222 0.80875 0.0
C1102 C 0.74123 0.49608 0.78129 0.0
H1103 H 0.78491 0.51023 0.62629 0.0
H1104 H 0.76437 0.52041 0.67363 0.0
H1105 H 0.80051 0.49181 0.75747 0.0
H1106 H 0.71969 0.45049 0.86512 0.0
H1107 H 0.74454 0.45799 0.8204 0.0
C1108 C 0.00193 0.79286 0.64607 0.0
C1109 C 0.02568 0.80079 0.6381 0.0
C1110 C -0.00164 0.77855 0.67189 0.0
C1111 C 0.03161 0.73606 0.72113 0.0
H1112 H 0.98381 0.753 0.78242 0.0
C1113 C 0.04004 0.69921 0.84056 0.0
C1114 C 0.01868 0.69204 0.85597 0.0
C1115 C 0.03837 0.71118 0.81297 0.0
C1116 C 0.99695 0.74778 0.76527 0.0
H1117 H 0.06419 0.8004 0.65106 0.0
H1118 H 0.05798 0.77547 0.69575 0.0
H1119 H 0.98505 0.77647 0.73543 0.0
H1120 H 0.97877 0.69188 0.85475 0.0
H1121 H 0.97584 0.71269 0.80606 0.0
H1122 H 0.04374 0.70761 0.75072 0.0
C1123 C 0.04216 0.78008 0.68203 0.0
C1124 C 0.99766 0.76122 0.73845 0.0
C1125 C 0.04568 0.79448 0.65652 0.0
C1126 C 0.99555 0.69722 0.84332 0.0
C1127 C 0.99387 0.7092 0.81555 0.0
C1128 C 0.03082 0.72259 0.74773 0.0
C1129 C 0.01855 0.77176 0.68982 0.0
C1130 C 0.01547 0.75587 0.71653 0.0
C1131 C 0.0153 0.71615 0.8 0.0
C1132 C 0.01397 0.72873 0.77047 0.0
H1133 H 0.98618 0.79752 0.63226 0.0
H1134 H 0.97997 0.77233 0.67747 0.0
H1135 H 0.04519 0.73125 0.70431 0.0
H1136 H 0.05812 0.69563 0.84985 0.0
H1137 H 0.05523 0.71677 0.80191 0.0
C1138 C 0.69819 0.97454 0.65702 0.0
C1139 C 0.68387 0.99606 0.65793 0.0
C1140 C 0.71033 0.96624 0.68282 0.0
C1141 C 0.71484 0.97535 0.76553 0.0
H1142 H 0.7847 0.9653 0.7525 0.0
C1143 C 0.80798 0.00161 0.82956 0.0
C1144 C 0.80207 0.99491 0.85913 0.0
C1145 C 0.79394 0.99299 0.80558 0.0
C1146 C 0.76519 0.96782 0.75652 0.0
H1147 H 0.66981 0.02493 0.68678 0.0
H1148 H 0.69105 0.01068 0.73155 0.0
H1149 H 0.75687 0.9666 0.70962 0.0
H1150 H 0.77784 0.9727 0.88676 0.0
H1151 H 0.75318 0.95756 0.84468 0.0
H1152 H 0.7234 0.97841 0.81222 0.0
C1153 C 0.69281 1e-05 0.71113 0.0
C1154 C 0.74919 0.96831 0.73198 0.0
C1155 C 0.6808 0.00833 0.68538 0.0
C1156 C 0.78272 0.97827 0.86417 0.0
C1157 C 0.76856 0.96968 0.84012 0.0
C1158 C 0.73084 0.9749 0.79006 0.0
C1159 C 0.70822 0.97924 0.70998 0.0
C1160 C 0.724 0.97314 0.73614 0.0
C1161 C 0.77363 0.97749 0.81064 0.0
C1162 C 0.75633 0.9722 0.78568 0.0
H1163 H 0.70078 0.96465 0.63616 0.0
H1164 H 0.7219 0.95005 0.68132 0.0
H1165 H 0.69545 0.9787 0.76946 0.0
H1166 H 0.82287 0.01435 0.82499 0.0
H1167 H 0.79817 -0.00035 0.78323 0.0
loop_
_geom_bond_atom_site_label_1
_geom_bond_atom_site_label_2
_geom_bond_distance
_geom_bond_site_symmetry_2
_ccdc_geom_bond_type
In0 O1 2.294 . S
In0 O2 2.326 . S
In0 O6 2.266 . S
In0 O7 2.326 . S
In0 O8 2.266 . S
In0 O9 2.326 . S
In0 O11 2.294 . S
In0 O12 2.326 . S
O1 In0 2.294 . S
O1 C10 1.240 . S
O2 In0 2.326 . S
O2 C10 1.252 . S
C3 O6 1.252 . S
C3 O7 1.260 . S
C4 O11 1.240 . S
C4 O12 1.252 . S
C5 O8 1.252 . S
C5 O9 1.260 . S
O6 In0 2.266 . S
O6 C3 1.252 . S
O7 In0 2.326 . S
O7 C3 1.260 . S
O8 In0 2.266 . S
O8 C5 1.252 . S
O9 In0 2.326 . S
O9 C5 1.260 . S
C10 O1 1.240 . S
C10 O2 1.252 . S
O11 In0 2.294 . S
O11 C4 1.240 . S
O12 In0 2.326 . S
O12 C4 1.252 . S
In13 O14 2.294 . S
In13 O15 2.326 . S
In13 O19 2.266 . S
In13 O20 2.326 . S
In13 O21 2.266 . S
In13 O22 2.326 . S
In13 O24 2.294 . S
In13 O25 2.326 . S
O14 In13 2.294 . S
O14 C23 1.240 . S
O15 In13 2.326 . S
O15 C23 1.252 . S
C16 O19 1.252 . S
C16 O20 1.260 . S
C17 O24 1.240 . S
C17 O25 1.252 . S
C18 O21 1.252 . S
C18 O22 1.260 . S
O19 In13 2.266 . S
O19 C16 1.252 . S
O20 In13 2.326 . S
O20 C16 1.260 . S
O21 In13 2.266 . S
O21 C18 1.252 . S
O22 In13 2.326 . S
O22 C18 1.260 . S
C23 O14 1.240 . S
C23 O15 1.252 . S
O24 In13 2.294 . S
O24 C17 1.240 . S
O25 In13 2.326 . S
O25 C17 1.252 . S
In26 O27 2.294 . S
In26 O28 2.326 . S
In26 O32 2.266 . S
In26 O33 2.326 . S
In26 O34 2.266 . S
In26 O35 2.326 . S
In26 O37 2.294 . S
In26 O38 2.326 . S
O27 In26 2.294 . S
O27 C36 1.240 . S
O28 In26 2.326 . S
O28 C36 1.252 . S
C29 O32 1.252 . S
C29 O33 1.260 . S
C30 O37 1.240 . S
C30 O38 1.252 . S
C31 O34 1.252 . S
C31 O35 1.260 . S
O32 In26 2.266 . S
O32 C29 1.252 . S
O33 In26 2.326 . S
O33 C29 1.260 . S
O34 In26 2.266 . S
O34 C31 1.252 . S
O35 In26 2.326 . S
O35 C31 1.260 . S
C36 O27 1.240 . S
C36 O28 1.252 . S
O37 In26 2.294 . S
O37 C30 1.240 . S
O38 In26 2.326 . S
O38 C30 1.252 . S
In39 O40 2.294 . S
In39 O41 2.326 . S
In39 O45 2.266 . S
In39 O46 2.326 . S
In39 O47 2.266 . S
In39 O48 2.326 . S
In39 O50 2.294 . S
In39 O51 2.326 . S
O40 In39 2.294 . S
O40 C49 1.240 . S
O41 In39 2.326 . S
O41 C49 1.252 . S
C42 O45 1.252 . S
C42 O46 1.260 . S
C43 O50 1.240 . S
C43 O51 1.252 . S
C44 O47 1.252 . S
C44 O48 1.260 . S
O45 In39 2.266 . S
O45 C42 1.252 . S
O46 In39 2.326 . S
O46 C42 1.260 . S
O47 In39 2.266 . S
O47 C44 1.252 . S
O48 In39 2.326 . S
O48 C44 1.260 . S
C49 O40 1.240 . S
C49 O41 1.252 . S
O50 In39 2.294 . S
O50 C43 1.240 . S
O51 In39 2.326 . S
O51 C43 1.252 . S
In52 O53 2.294 . S
In52 O54 2.326 . S
In52 O58 2.266 . S
In52 O59 2.326 . S
In52 O60 2.266 . S
In52 O61 2.326 . S
In52 O63 2.294 . S
In52 O64 2.326 . S
O53 In52 2.294 . S
O53 C62 1.240 . S
O54 In52 2.326 . S
O54 C62 1.252 . S
C55 O58 1.252 . S
C55 O59 1.260 . S
C56 O63 1.240 . S
C56 O64 1.252 . S
C57 O60 1.252 . S
C57 O61 1.260 . S
O58 In52 2.266 . S
O58 C55 1.252 . S
O59 In52 2.326 . S
O59 C55 1.260 . S
O60 In52 2.266 . S
O60 C57 1.252 . S
O61 In52 2.326 . S
O61 C57 1.260 . S
C62 O53 1.240 . S
C62 O54 1.252 . S
O63 In52 2.294 . S
O63 C56 1.240 . S
O64 In52 2.326 . S
O64 C56 1.252 . S
In65 O66 2.294 . S
In65 O67 2.326 . S
In65 O71 2.266 . S
In65 O72 2.326 . S
In65 O73 2.266 . S
In65 O74 2.326 . S
In65 O76 2.294 . S
In65 O77 2.326 . S
O66 In65 2.294 . S
O66 C75 1.240 . S
O67 In65 2.326 . S
O67 C75 1.252 . S
C68 O71 1.252 . S
C68 O72 1.260 . S
C69 O76 1.240 . S
C69 O77 1.252 . S
C70 O73 1.252 . S
C70 O74 1.260 . S
O71 In65 2.266 . S
O71 C68 1.252 . S
O72 In65 2.326 . S
O72 C68 1.260 . S
O73 In65 2.266 . S
O73 C70 1.252 . S
O74 In65 2.326 . S
O74 C70 1.260 . S
C75 O66 1.240 . S
C75 O67 1.252 . S
O76 In65 2.294 . S
O76 C69 1.240 . S
O77 In65 2.326 . S
O77 C69 1.252 . S
In78 O79 2.294 . S
In78 O80 2.326 . S
In78 O84 2.266 . S
In78 O85 2.326 . S
In78 O86 2.266 . S
In78 O87 2.326 . S
In78 O89 2.294 . S
In78 O90 2.326 . S
O79 In78 2.294 . S
O79 C88 1.240 . S
O80 In78 2.326 . S
O80 C88 1.252 . S
C81 O84 1.252 . S
C81 O85 1.260 . S
C82 O89 1.240 . S
C82 O90 1.252 . S
C83 O86 1.252 . S
C83 O87 1.260 . S
O84 In78 2.266 . S
O84 C81 1.252 . S
O85 In78 2.326 . S
O85 C81 1.260 . S
O86 In78 2.266 . S
O86 C83 1.252 . S
O87 In78 2.326 . S
O87 C83 1.260 . S
C88 O79 1.240 . S
C88 O80 1.252 . S
O89 In78 2.294 . S
O89 C82 1.240 . S
O90 In78 2.326 . S
O90 C82 1.252 . S
In91 O92 2.294 . S
In91 O93 2.326 . S
In91 O97 2.266 . S
In91 O98 2.326 . S
In91 O99 2.266 . S
In91 O100 2.326 . S
In91 O102 2.294 . S
In91 O103 2.326 . S
O92 In91 2.294 . S
O92 C101 1.240 . S
O93 In91 2.326 . S
O93 C101 1.252 . S
C94 O97 1.252 . S
C94 O98 1.260 . S
C95 O102 1.240 . S
C95 O103 1.252 . S
C96 O99 1.252 . S
C96 O100 1.260 . S
O97 In91 2.266 . S
O97 C94 1.252 . S
O98 In91 2.326 . S
O98 C94 1.260 . S
O99 In91 2.266 . S
O99 C96 1.252 . S
O100 In91 2.326 . S
O100 C96 1.260 . S
C101 O92 1.240 . S
C101 O93 1.252 . S
O102 In91 2.294 . S
O102 C95 1.240 . S
O103 In91 2.326 . S
O103 C95 1.252 . S
In104 O105 2.294 . S
In104 O106 2.326 . S
In104 O110 2.266 . S
In104 O111 2.326 . S
In104 O112 2.266 . S
In104 O113 2.326 . S
In104 O115 2.294 . S
In104 O116 2.326 . S
O105 In104 2.294 . S
O105 C114 1.240 . S
O106 In104 2.326 . S
O106 C114 1.252 . S
C107 O110 1.252 . S
C107 O111 1.260 . S
C108 O115 1.240 . S
C108 O116 1.252 . S
C109 O112 1.252 . S
C109 O113 1.260 . S
O110 In104 2.266 . S
O110 C107 1.252 . S
O111 In104 2.326 . S
O111 C107 1.260 . S
O112 In104 2.266 . S
O112 C109 1.252 . S
O113 In104 2.326 . S
O113 C109 1.260 . S
C114 O105 1.240 . S
C114 O106 1.252 . S
O115 In104 2.294 . S
O115 C108 1.240 . S
O116 In104 2.326 . S
O116 C108 1.252 . S
In117 O118 2.294 . S
In117 O119 2.326 . S
In117 O123 2.266 . S
In117 O124 2.326 . S
In117 O125 2.266 . S
In117 O126 2.326 . S
In117 O128 2.294 . S
In117 O129 2.326 . S
O118 In117 2.294 . S
O118 C127 1.240 . S
O119 In117 2.326 . S
O119 C127 1.252 . S
C120 O123 1.252 . S
C120 O124 1.260 . S
C121 O128 1.240 . S
C121 O129 1.252 . S
C122 O125 1.252 . S
C122 O126 1.260 . S
O123 In117 2.266 . S
O123 C120 1.252 . S
O124 In117 2.326 . S
O124 C120 1.260 . S
O125 In117 2.266 . S
O125 C122 1.252 . S
O126 In117 2.326 . S
O126 C122 1.260 . S
C127 O118 1.240 . S
C127 O119 1.252 . S
O128 In117 2.294 . S
O128 C121 1.240 . S
O129 In117 2.326 . S
O129 C121 1.252 . S
In130 O131 2.294 . S
In130 O132 2.326 . S
In130 O136 2.266 . S
In130 O137 2.326 . S
In130 O138 2.266 . S
In130 O139 2.326 . S
In130 O141 2.294 . S
In130 O142 2.326 . S
O131 In130 2.294 . S
O131 C140 1.240 . S
O132 In130 2.326 . S
O132 C140 1.252 . S
C133 O136 1.252 . S
C133 O137 1.260 . S
C134 O141 1.240 . S
C134 O142 1.252 . S
C135 O138 1.252 . S
C135 O139 1.260 . S
O136 In130 2.266 . S
O136 C133 1.252 . S
O137 In130 2.326 . S
O137 C133 1.260 . S
O138 In130 2.266 . S
O138 C135 1.252 . S
O139 In130 2.326 . S
O139 C135 1.260 . S
C140 O131 1.240 . S
C140 O132 1.252 . S
O141 In130 2.294 . S
O141 C134 1.240 . S
O142 In130 2.326 . S
O142 C134 1.252 . S
In143 O144 2.294 . S
In143 O145 2.326 . S
In143 O149 2.266 . S
In143 O150 2.326 . S
In143 O151 2.266 . S
In143 O152 2.326 . S
In143 O154 2.294 . S
In143 O155 2.326 . S
O144 In143 2.294 . S
O144 C153 1.240 . S
O145 In143 2.326 . S
O145 C153 1.252 . S
C146 O149 1.252 . S
C146 O150 1.260 . S
C147 O154 1.240 . S
C147 O155 1.252 . S
C148 O151 1.252 . S
C148 O152 1.260 . S
O149 In143 2.266 . S
O149 C146 1.252 . S
O150 In143 2.326 . S
O150 C146 1.260 . S
O151 In143 2.266 . S
O151 C148 1.252 . S
O152 In143 2.326 . S
O152 C148 1.260 . S
C153 O144 1.240 . S
C153 O145 1.252 . S
O154 In143 2.294 . S
O154 C147 1.240 . S
O155 In143 2.326 . S
O155 C147 1.252 . S
In156 O157 2.294 . S
In156 O158 2.326 . S
In156 O162 2.266 . S
In156 O163 2.326 . S
In156 O164 2.266 . S
In156 O165 2.326 . S
In156 O167 2.294 . S
In156 O168 2.326 . S
O157 In156 2.294 . S
O157 C166 1.240 . S
O158 In156 2.326 . S
O158 C166 1.252 . S
C159 O162 1.252 . S
C159 O163 1.260 . S
C160 O167 1.240 . S
C160 O168 1.252 . S
C161 O164 1.252 . S
C161 O165 1.260 . S
O162 In156 2.266 . S
O162 C159 1.252 . S
O163 In156 2.326 . S
O163 C159 1.260 . S
O164 In156 2.266 . S
O164 C161 1.252 . S
O165 In156 2.326 . S
O165 C161 1.260 . S
C166 O157 1.240 . S
C166 O158 1.252 . S
O167 In156 2.294 . S
O167 C160 1.240 . S
O168 In156 2.326 . S
O168 C160 1.252 . S
In169 O170 2.294 . S
In169 O171 2.326 . S
In169 O175 2.266 . S
In169 O176 2.326 . S
In169 O177 2.266 . S
In169 O178 2.326 . S
In169 O180 2.294 . S
In169 O181 2.326 . S
O170 In169 2.294 . S
O170 C179 1.240 . S
O171 In169 2.326 . S
O171 C179 1.252 . S
C172 O175 1.252 . S
C172 O176 1.260 . S
C173 O180 1.240 . S
C173 O181 1.252 . S
C174 O177 1.252 . S
C174 O178 1.260 . S
O175 In169 2.266 . S
O175 C172 1.252 . S
O176 In169 2.326 . S
O176 C172 1.260 . S
O177 In169 2.266 . S
O177 C174 1.252 . S
O178 In169 2.326 . S
O178 C174 1.260 . S
C179 O170 1.240 . S
C179 O171 1.252 . S
O180 In169 2.294 . S
O180 C173 1.240 . S
O181 In169 2.326 . S
O181 C173 1.252 . S
In182 O183 2.294 . S
In182 O184 2.326 . S
In182 O188 2.266 . S
In182 O189 2.326 . S
In182 O190 2.266 . S
In182 O191 2.326 . S
In182 O193 2.294 . S
In182 O194 2.326 . S
O183 In182 2.294 . S
O183 C192 1.240 . S
O184 In182 2.326 . S
O184 C192 1.252 . S
C185 O188 1.252 . S
C185 O189 1.260 . S
C186 O193 1.240 . S
C186 O194 1.252 . S
C187 O190 1.252 . S
C187 O191 1.260 . S
O188 In182 2.266 . S
O188 C185 1.252 . S
O189 In182 2.326 . S
O189 C185 1.260 . S
O190 In182 2.266 . S
O190 C187 1.252 . S
O191 In182 2.326 . S
O191 C187 1.260 . S
C192 O183 1.240 . S
C192 O184 1.252 . S
O193 In182 2.294 . S
O193 C186 1.240 . S
O194 In182 2.326 . S
O194 C186 1.252 . S
In195 O196 2.294 . S
In195 O197 2.326 . S
In195 O201 2.266 . S
In195 O202 2.326 . S
In195 O203 2.266 . S
In195 O204 2.326 . S
In195 O206 2.294 . S
In195 O207 2.326 . S
O196 In195 2.294 . S
O196 C205 1.240 . S
O197 In195 2.326 . S
O197 C205 1.252 . S
C198 O201 1.252 . S
C198 O202 1.260 . S
C199 O206 1.240 . S
C199 O207 1.252 . S
C200 O203 1.252 . S
C200 O204 1.260 . S
O201 In195 2.266 . S
O201 C198 1.252 . S
O202 In195 2.326 . S
O202 C198 1.260 . S
O203 In195 2.266 . S
O203 C200 1.252 . S
O204 In195 2.326 . S
O204 C200 1.260 . S
C205 O196 1.240 . S
C205 O197 1.252 . S
O206 In195 2.294 . S
O206 C199 1.240 . S
O207 In195 2.326 . S
O207 C199 1.252 . S
C208 C209 1.349 . S
C208 C210 1.327 . S
C208 H233 0.950 . S
C209 C208 1.349 . S
C209 C225 1.349 1_554 S
C210 C208 1.327 . S
C210 C229 1.429 . S
C210 H234 0.950 . S
C211 C228 1.574 . S
C211 C230 1.368 1_556 S
C211 H235 0.949 . S
H212 C216 0.949 . S
C213 C214 1.349 . S
C213 C215 1.327 . S
C213 H236 0.950 . S
C214 C213 1.349 . S
C214 C226 1.338 1_556 S
C215 C213 1.327 . S
C215 C231 1.429 . S
C215 H237 0.950 . S
C216 H212 0.949 . S
C216 C224 1.574 . S
C216 C232 1.368 1_554 S
H217 C225 0.950 . S
H218 C223 0.950 . S
H219 C224 0.949 . S
H220 C226 0.958 . S
H221 C227 0.950 . S
H222 C228 0.949 . S
C223 H218 0.950 . S
C223 C225 1.327 . S
C223 C229 1.429 1_556 S
C224 C216 1.574 . S
C224 H219 0.949 . S
C224 C230 1.368 . S
C225 C209 1.349 1_556 S
C225 H217 0.950 . S
C225 C223 1.327 . S
C226 C214 1.338 1_554 S
C226 H220 0.958 . S
C226 C227 1.330 . S
C227 H221 0.950 . S
C227 C226 1.330 . S
C227 C231 1.429 1_554 S
C228 C211 1.574 . S
C228 H222 0.949 . S
C228 C232 1.368 . S
C229 C210 1.429 . S
C229 C223 1.429 1_554 S
C229 C230 1.523 . S
C230 C211 1.368 1_554 S
C230 C224 1.368 . S
C230 C229 1.523 . S
C231 C215 1.429 . S
C231 C227 1.429 1_556 S
C231 C232 1.523 . S
C232 C216 1.368 1_556 S
C232 C228 1.368 . S
C232 C231 1.523 . S
H233 C208 0.950 . S
H234 C210 0.950 . S
H235 C211 0.949 . S
H236 C213 0.950 . S
H237 C215 0.950 . S
C238 C239 1.349 . S
C238 C240 1.327 . S
C238 H263 0.950 . S
C239 C238 1.349 . S
C239 C255 1.349 1_556 S
C240 C238 1.327 . S
C240 C259 1.429 . S
C240 H264 0.950 . S
C241 C258 1.574 . S
C241 C260 1.368 1_554 S
C241 H265 0.949 . S
H242 C246 0.949 . S
C243 C244 1.349 . S
C243 C245 1.327 . S
C243 H266 0.950 . S
C244 C243 1.349 . S
C244 C256 1.349 1_554 S
C245 C243 1.327 . S
C245 C261 1.429 . S
C245 H267 0.950 . S
C246 H242 0.949 . S
C246 C254 1.574 . S
C246 C262 1.368 1_556 S
H247 C255 0.950 . S
H248 C253 0.950 . S
H249 C254 0.949 . S
H250 C256 0.950 . S
H251 C257 0.950 . S
H252 C258 0.949 . S
C253 H248 0.950 . S
C253 C255 1.327 . S
C253 C259 1.429 1_554 S
C254 C246 1.574 . S
C254 H249 0.949 . S
C254 C260 1.368 . S
C255 C239 1.349 1_554 S
C255 H247 0.950 . S
C255 C253 1.327 . S
C256 C244 1.349 1_556 S
C256 H250 0.950 . S
C256 C257 1.327 . S
C257 H251 0.950 . S
C257 C256 1.327 . S
C257 C261 1.429 1_556 S
C258 C241 1.574 . S
C258 H252 0.949 . S
C258 C262 1.368 . S
C259 C240 1.429 . S
C259 C253 1.429 1_556 S
C259 C260 1.523 . S
C260 C241 1.368 1_556 S
C260 C254 1.368 . S
C260 C259 1.523 . S
C261 C245 1.429 . S
C261 C257 1.429 1_554 S
C261 C262 1.523 . S
C262 C246 1.368 1_554 S
C262 C258 1.368 . S
C262 C261 1.523 . S
H263 C238 0.950 . S
H264 C240 0.950 . S
H265 C241 0.949 . S
H266 C243 0.950 . S
H267 C245 0.950 . S
C268 C269 1.349 . S
C268 C270 1.327 1_556 S
C268 H293 0.950 1_556 S
C269 C268 1.349 . S
C269 C285 1.349 . S
C270 C268 1.327 1_554 S
C270 C289 1.429 1_554 S
C270 H294 0.950 . S
C271 C288 1.574 . S
C271 C290 1.368 . S
C271 H295 0.949 . S
H272 C276 0.949 . S
C273 C274 1.349 . S
C273 C275 1.327 1_554 S
C273 H296 0.950 1_554 S
C274 C273 1.349 . S
C274 C286 1.349 . S
C275 C273 1.327 1_556 S
C275 C291 1.429 1_556 S
C275 H297 0.950 . S
C276 H272 0.949 . S
C276 C284 1.574 . S
C276 C292 1.368 . S
H277 C285 0.950 . S
H278 C283 0.950 . S
H279 C284 0.949 . S
H280 C286 0.950 . S
H281 C287 0.950 . S
H282 C288 0.949 . S
C283 H278 0.950 . S
C283 C285 1.327 . S
C283 C289 1.429 . S
C284 C276 1.574 . S
C284 H279 0.949 . S
C284 C290 1.368 1_554 S
C285 C269 1.349 . S
C285 H277 0.950 . S
C285 C283 1.327 . S
C286 C274 1.349 . S
C286 H280 0.950 . S
C286 C287 1.327 . S
C287 H281 0.950 . S
C287 C286 1.327 . S
C287 C291 1.429 . S
C288 C271 1.574 . S
C288 H282 0.949 . S
C288 C292 1.368 1_556 S
C289 C270 1.429 1_556 S
C289 C283 1.429 . S
C289 C290 1.523 . S
C290 C271 1.368 . S
C290 C284 1.368 1_556 S
C290 C289 1.523 . S
C291 C275 1.429 1_554 S
C291 C287 1.429 . S
C291 C292 1.523 . S
C292 C276 1.368 . S
C292 C288 1.368 1_554 S
C292 C291 1.523 . S
H293 C268 0.950 1_554 S
H294 C270 0.950 . S
H295 C271 0.949 . S
H296 C273 0.950 1_556 S
H297 C275 0.950 . S
C298 C299 1.349 . S
C298 C300 1.327 . S
C298 H323 0.950 . S
C299 C298 1.349 . S
C299 C315 1.349 . S
C300 C298 1.327 . S
C300 C319 1.429 . S
C300 H324 0.950 . S
C301 C318 1.574 . S
C301 C320 1.368 1_554 S
C301 H325 0.949 . S
H302 C306 0.949 . S
C303 C304 1.349 . S
C303 C305 1.327 . S
C303 H326 0.950 . S
C304 C303 1.349 . S
C304 C316 1.349 . S
C305 C303 1.327 . S
C305 C321 1.429 . S
C305 H327 0.950 . S
C306 H302 0.949 . S
C306 C314 1.574 . S
C306 C322 1.368 1_556 S
H307 C315 0.950 . S
H308 C313 0.950 . S
H309 C314 0.949 . S
H310 C316 0.950 . S
H311 C317 0.955 . S
H312 C318 0.949 . S
C313 H308 0.950 . S
C313 C315 1.327 . S
C313 C319 1.429 . S
C314 C306 1.574 . S
C314 H309 0.949 . S
C314 C320 1.368 . S
C315 C299 1.349 . S
C315 H307 0.950 . S
C315 C313 1.327 . S
C316 C304 1.349 . S
C316 H310 0.950 . S
C316 C317 1.327 . S
C317 H311 0.955 . S
C317 C316 1.327 . S
C317 C321 1.429 . S
C318 C301 1.574 . S
C318 H312 0.949 . S
C318 C322 1.368 . S
C319 C300 1.429 . S
C319 C313 1.429 . S
C319 C320 1.523 . S
C320 C301 1.368 1_556 S
C320 C314 1.368 . S
C320 C319 1.523 . S
C321 C305 1.429 . S
C321 C317 1.429 . S
C321 C322 1.523 . S
C322 C306 1.368 1_554 S
C322 C318 1.368 . S
C322 C321 1.523 . S
H323 C298 0.950 . S
H324 C300 0.950 . S
H325 C301 0.949 . S
H326 C303 0.950 . S
H327 C305 0.950 . S
C328 C329 1.349 . S
C328 C330 1.327 . S
C328 H353 0.950 . S
C329 C328 1.349 . S
C329 C345 1.349 . S
C330 C328 1.327 . S
C330 C349 1.429 . S
C330 H354 0.950 . S
C331 C348 1.574 . S
C331 C350 1.368 . S
C331 H355 0.949 . S
H332 C336 0.949 . S
C333 C334 1.349 . S
C333 C335 1.327 . S
C333 H356 0.950 . S
C334 C333 1.349 . S
C334 C346 1.349 . S
C335 C333 1.327 . S
C335 C351 1.429 . S
C335 H357 0.950 . S
C336 H332 0.949 . S
C336 C344 1.574 . S
C336 C352 1.368 . S
H337 C345 0.950 . S
H338 C343 0.950 . S
H339 C344 0.949 . S
H340 C346 0.950 . S
H341 C347 0.950 . S
H342 C348 0.949 . S
C343 H338 0.950 . S
C343 C345 1.327 . S
C343 C349 1.429 . S
C344 C336 1.574 . S
C344 H339 0.949 . S
C344 C350 1.368 . S
C345 C329 1.349 . S
C345 H337 0.950 . S
C345 C343 1.327 . S
C346 C334 1.349 . S
C346 H340 0.950 . S
C346 C347 1.327 . S
C347 H341 0.950 . S
C347 C346 1.327 . S
C347 C351 1.429 . S
C348 C331 1.574 . S
C348 H342 0.949 . S
C348 C352 1.368 . S
C349 C330 1.429 . S
C349 C343 1.429 . S
C349 C350 1.523 . S
C350 C331 1.368 . S
C350 C344 1.368 . S
C350 C349 1.523 . S
C351 C335 1.429 . S
C351 C347 1.429 . S
C351 C352 1.523 . S
C352 C336 1.368 . S
C352 C348 1.368 . S
C352 C351 1.523 . S
H353 C328 0.950 . S
H354 C330 0.950 . S
H355 C331 0.949 . S
H356 C333 0.950 . S
H357 C335 0.950 . S
C358 C359 1.349 . S
C358 C360 1.327 . S
C358 H383 0.950 . S
C359 C358 1.349 . S
C359 C375 1.349 . S
C360 C358 1.327 . S
C360 C379 1.429 . S
C360 H384 0.950 . S
C361 C378 1.574 . S
C361 C380 1.368 . S
C361 H385 0.949 . S
H362 C366 0.949 . S
C363 C364 1.349 . S
C363 C365 1.327 . S
C363 H386 0.950 . S
C364 C363 1.349 . S
C364 C376 1.349 . S
C365 C363 1.327 . S
C365 C381 1.429 . S
C365 H387 0.950 . S
C366 H362 0.949 . S
C366 C374 1.574 . S
C366 C382 1.368 . S
H367 C375 0.950 . S
H368 C373 0.950 . S
H369 C374 0.949 . S
H370 C376 0.950 . S
H371 C377 0.950 . S
H372 C378 0.949 . S
C373 H368 0.950 . S
C373 C375 1.327 . S
C373 C379 1.429 . S
C374 C366 1.574 . S
C374 H369 0.949 . S
C374 C380 1.368 . S
C375 C359 1.349 . S
C375 H367 0.950 . S
C375 C373 1.327 . S
C376 C364 1.349 . S
C376 H370 0.950 . S
C376 C377 1.327 . S
C377 H371 0.950 . S
C377 C376 1.327 . S
C377 C381 1.429 . S
C378 C361 1.574 . S
C378 H372 0.949 . S
C378 C382 1.368 . S
C379 C360 1.429 . S
C379 C373 1.429 . S
C379 C380 1.523 . S
C380 C361 1.368 . S
C380 C374 1.368 . S
C380 C379 1.523 . S
C381 C365 1.429 . S
C381 C377 1.429 . S
C381 C382 1.523 . S
C382 C366 1.368 . S
C382 C378 1.368 . S
C382 C381 1.523 . S
H383 C358 0.950 . S
H384 C360 0.950 . S
H385 C361 0.949 . S
H386 C363 0.950 . S
H387 C365 0.950 . S
C388 C389 1.349 . S
C388 C390 1.327 . S
C388 H413 0.950 . S
C389 C388 1.349 . S
C389 C405 1.349 . S
C390 C388 1.327 . S
C390 C409 1.429 . S
C390 H414 0.950 . S
C391 C408 1.574 . S
C391 C410 1.368 . S
C391 H415 0.949 . S
H392 C396 0.949 . S
C393 C394 1.349 . S
C393 C395 1.327 . S
C393 H416 0.950 . S
C394 C393 1.349 . S
C394 C406 1.349 . S
C395 C393 1.327 . S
C395 C411 1.429 . S
C395 H417 0.950 . S
C396 H392 0.949 . S
C396 C404 1.574 . S
C396 C412 1.368 . S
H397 C405 0.950 . S
H398 C403 0.950 . S
H399 C404 0.949 . S
H400 C406 0.950 . S
H401 C407 0.950 . S
H402 C408 0.949 . S
C403 H398 0.950 . S
C403 C405 1.327 . S
C403 C409 1.429 . S
C404 C396 1.574 . S
C404 H399 0.949 . S
C404 C410 1.368 . S
C405 C389 1.349 . S
C405 H397 0.950 . S
C405 C403 1.327 . S
C406 C394 1.349 . S
C406 H400 0.950 . S
C406 C407 1.327 . S
C407 H401 0.950 . S
C407 C406 1.327 . S
C407 C411 1.429 . S
C408 C391 1.574 . S
C408 H402 0.949 . S
C408 C412 1.368 . S
C409 C390 1.429 . S
C409 C403 1.429 . S
C409 C410 1.523 . S
C410 C391 1.368 . S
C410 C404 1.368 . S
C410 C409 1.523 . S
C411 C395 1.429 . S
C411 C407 1.429 . S
C411 C412 1.523 . S
C412 C396 1.368 . S
C412 C408 1.368 . S
C412 C411 1.523 . S
H413 C388 0.950 . S
H414 C390 0.950 . S
H415 C391 0.949 . S
H416 C393 0.950 . S
H417 C395 0.950 . S
C418 C419 1.349 . S
C418 C420 1.327 . S
C418 H443 0.950 . S
C419 C418 1.349 . S
C419 C435 1.349 . S
C420 C418 1.327 . S
C420 C439 1.429 . S
C420 H444 0.950 . S
C421 C438 1.574 . S
C421 C440 1.368 . S
C421 H445 0.949 . S
H422 C426 0.949 . S
C423 C424 1.349 . S
C423 C425 1.327 . S
C423 H446 0.950 . S
C424 C423 1.349 . S
C424 C436 1.349 . S
C425 C423 1.327 . S
C425 C441 1.429 . S
C425 H447 0.950 . S
C426 H422 0.949 . S
C426 C434 1.574 . S
C426 C442 1.368 . S
H427 C435 0.950 . S
H428 C433 0.950 . S
H429 C434 0.949 . S
H430 C436 0.950 . S
H431 C437 0.950 . S
H432 C438 0.949 . S
C433 H428 0.950 . S
C433 C435 1.327 . S
C433 C439 1.429 . S
C434 C426 1.574 . S
C434 H429 0.949 . S
C434 C440 1.368 . S
C435 C419 1.349 . S
C435 H427 0.950 . S
C435 C433 1.327 . S
C436 C424 1.349 . S
C436 H430 0.950 . S
C436 C437 1.327 . S
C437 H431 0.950 . S
C437 C436 1.327 . S
C437 C441 1.429 . S
C438 C421 1.574 . S
C438 H432 0.949 . S
C438 C442 1.368 . S
C439 C420 1.429 . S
C439 C433 1.429 . S
C439 C440 1.523 . S
C440 C421 1.368 . S
C440 C434 1.368 . S
C440 C439 1.523 . S
C441 C425 1.429 . S
C441 C437 1.429 . S
C441 C442 1.523 . S
C442 C426 1.368 . S
C442 C438 1.368 . S
C442 C441 1.523 . S
H443 C418 0.950 . S
H444 C420 0.950 . S
H445 C421 0.949 . S
H446 C423 0.950 . S
H447 C425 0.950 . S
C448 C449 1.349 1_554 S
C448 C450 1.327 . S
C448 H473 0.950 . S
C449 C448 1.349 1_556 S
C449 C465 1.349 . S
C450 C448 1.327 . S
C450 C469 1.429 1_554 S
C450 H474 0.950 . S
C451 C468 1.574 . S
C451 C470 1.368 . S
C451 H475 0.949 . S
H452 C456 0.949 . S
C453 C454 1.349 1_556 S
C453 C455 1.327 . S
C453 H476 0.950 . S
C454 C453 1.349 1_554 S
C454 C466 1.349 . S
C455 C453 1.327 . S
C455 C471 1.429 1_556 S
C455 H477 0.950 . S
C456 H452 0.949 . S
C456 C464 1.574 . S
C456 C472 1.368 . S
H457 C465 0.950 . S
H458 C463 0.950 . S
H459 C464 0.949 . S
H460 C466 0.950 . S
H461 C467 0.950 . S
H462 C468 0.949 . S
C463 H458 0.950 . S
C463 C465 1.327 . S
C463 C469 1.429 . S
C464 C456 1.574 . S
C464 H459 0.949 . S
C464 C470 1.368 1_554 S
C465 C449 1.349 . S
C465 H457 0.950 . S
C465 C463 1.327 . S
C466 C454 1.349 . S
C466 H460 0.950 . S
C466 C467 1.327 . S
C467 H461 0.950 . S
C467 C466 1.327 . S
C467 C471 1.429 . S
C468 C451 1.574 . S
C468 H462 0.949 . S
C468 C472 1.368 1_556 S
C469 C450 1.429 1_556 S
C469 C463 1.429 . S
C469 C470 1.523 . S
C470 C451 1.368 . S
C470 C464 1.368 1_556 S
C470 C469 1.523 . S
C471 C455 1.429 1_554 S
C471 C467 1.429 . S
C471 C472 1.523 . S
C472 C456 1.368 . S
C472 C468 1.368 1_554 S
C472 C471 1.523 . S
H473 C448 0.950 . S
H474 C450 0.950 . S
H475 C451 0.949 . S
H476 C453 0.950 . S
H477 C455 0.950 . S
C478 C479 1.349 . S
C478 C480 1.327 . S
C478 H503 0.950 . S
C479 C478 1.349 . S
C479 C495 1.349 . S
C480 C478 1.327 . S
C480 C499 1.429 . S
C480 H504 0.950 . S
C481 C498 1.574 1_556 S
C481 C500 1.368 . S
C481 H505 0.949 . S
H482 C486 0.949 . S
C483 C484 1.349 . S
C483 C485 1.327 . S
C483 H506 0.950 . S
C484 C483 1.349 . S
C484 C496 1.349 . S
C485 C483 1.327 . S
C485 C501 1.429 . S
C485 H507 0.950 . S
C486 H482 0.949 . S
C486 C494 1.574 1_554 S
C486 C502 1.368 . S
H487 C495 0.950 . S
H488 C493 0.950 . S
H489 C494 0.949 . S
H490 C496 0.950 . S
H491 C497 0.950 . S
H492 C498 0.949 . S
C493 H488 0.950 . S
C493 C495 1.327 . S
C493 C499 1.429 . S
C494 C486 1.574 1_556 S
C494 H489 0.949 . S
C494 C500 1.368 . S
C495 C479 1.349 . S
C495 H487 0.950 . S
C495 C493 1.327 . S
C496 C484 1.349 . S
C496 H490 0.950 . S
C496 C497 1.327 . S
C497 H491 0.950 . S
C497 C496 1.327 . S
C497 C501 1.429 . S
C498 C481 1.574 1_554 S
C498 H492 0.949 . S
C498 C502 1.368 . S
C499 C480 1.429 . S
C499 C493 1.429 . S
C499 C500 1.523 . S
C500 C481 1.368 . S
C500 C494 1.368 . S
C500 C499 1.523 . S
C501 C485 1.429 . S
C501 C497 1.429 . S
C501 C502 1.523 . S
C502 C486 1.368 . S
C502 C498 1.368 . S
C502 C501 1.523 . S
H503 C478 0.950 . S
H504 C480 0.950 . S
H505 C481 0.949 . S
H506 C483 0.950 . S
H507 C485 0.950 . S
C508 C509 1.349 . S
C508 C510 1.327 1_556 S
C508 H533 0.950 1_556 S
C509 C508 1.349 . S
C509 C525 1.349 . S
C510 C508 1.327 1_554 S
C510 C529 1.429 1_554 S
C510 H534 0.950 . S
C511 C528 1.574 . S
C511 C530 1.368 . S
C511 H535 0.949 . S
H512 C516 0.949 . S
C513 C514 1.349 . S
C513 C515 1.327 1_554 S
C513 H536 0.950 1_554 S
C514 C513 1.349 . S
C514 C526 1.349 . S
C515 C513 1.327 1_556 S
C515 C531 1.429 1_556 S
C515 H537 0.950 . S
C516 H512 0.949 . S
C516 C524 1.574 . S
C516 C532 1.368 . S
H517 C525 0.950 . S
H518 C523 0.950 . S
H519 C524 0.949 . S
H520 C526 0.950 . S
H521 C527 0.950 . S
H522 C528 0.949 . S
C523 H518 0.950 . S
C523 C525 1.327 . S
C523 C529 1.429 . S
C524 C516 1.574 . S
C524 H519 0.949 . S
C524 C530 1.368 1_554 S
C525 C509 1.349 . S
C525 H517 0.950 . S
C525 C523 1.327 . S
C526 C514 1.349 . S
C526 H520 0.950 . S
C526 C527 1.327 . S
C527 H521 0.950 . S
C527 C526 1.327 . S
C527 C531 1.429 . S
C528 C511 1.574 . S
C528 H522 0.949 . S
C528 C532 1.368 1_556 S
C529 C510 1.429 1_556 S
C529 C523 1.429 . S
C529 C530 1.523 . S
C530 C511 1.368 . S
C530 C524 1.368 1_556 S
C530 C529 1.523 . S
C531 C515 1.429 1_554 S
C531 C527 1.429 . S
C531 C532 1.523 . S
C532 C516 1.368 . S
C532 C528 1.368 1_554 S
C532 C531 1.523 . S
H533 C508 0.950 1_554 S
H534 C510 0.950 . S
H535 C511 0.949 . S
H536 C513 0.950 1_556 S
H537 C515 0.950 . S
C538 C539 1.349 . S
C538 C540 1.327 1_554 S
C538 H563 0.950 1_554 S
C539 C538 1.349 . S
C539 C555 1.349 . S
C540 C538 1.327 1_556 S
C540 C559 1.429 1_556 S
C540 H564 0.950 . S
C541 C558 1.574 . S
C541 C560 1.368 . S
C541 H565 0.949 . S
H542 C546 0.949 . S
C543 C544 1.349 . S
C543 C545 1.327 1_556 S
C543 H566 0.950 1_556 S
C544 C543 1.349 . S
C544 C556 1.349 . S
C545 C543 1.327 1_554 S
C545 C561 1.429 1_554 S
C545 H567 0.950 . S
C546 H542 0.949 . S
C546 C554 1.574 . S
C546 C562 1.368 . S
H547 C555 0.950 . S
H548 C553 0.950 . S
H549 C554 0.949 . S
H550 C556 0.950 . S
H551 C557 0.950 . S
H552 C558 0.949 . S
C553 H548 0.950 . S
C553 C555 1.327 . S
C553 C559 1.429 . S
C554 C546 1.574 . S
C554 H549 0.949 . S
C554 C560 1.368 1_556 S
C555 C539 1.349 . S
C555 H547 0.950 . S
C555 C553 1.327 . S
C556 C544 1.349 . S
C556 H550 0.950 . S
C556 C557 1.327 . S
C557 H551 0.950 . S
C557 C556 1.327 . S
C557 C561 1.429 . S
C558 C541 1.574 . S
C558 H552 0.949 . S
C558 C562 1.368 1_554 S
C559 C540 1.429 1_554 S
C559 C553 1.429 . S
C559 C560 1.523 . S
C560 C541 1.368 . S
C560 C554 1.368 1_554 S
C560 C559 1.523 . S
C561 C545 1.429 1_556 S
C561 C557 1.429 . S
C561 C562 1.523 . S
C562 C546 1.368 . S
C562 C558 1.368 1_556 S
C562 C561 1.523 . S
H563 C538 0.950 1_556 S
H564 C540 0.950 . S
H565 C541 0.949 . S
H566 C543 0.950 1_554 S
H567 C545 0.950 . S
C568 C569 1.349 . S
C568 C570 1.327 . S
C568 H593 0.950 . S
C569 C568 1.349 . S
C569 C585 1.349 . S
C570 C568 1.327 . S
C570 C589 1.429 . S
C570 H594 0.950 . S
C571 C588 1.574 . S
C571 C590 1.368 . S
C571 H595 0.949 . S
H572 C576 0.949 . S
C573 C574 1.349 . S
C573 C575 1.327 . S
C573 H596 0.950 . S
C574 C573 1.349 . S
C574 C586 1.349 . S
C575 C573 1.327 . S
C575 C591 1.429 . S
C575 H597 0.950 . S
C576 H572 0.949 . S
C576 C584 1.574 . S
C576 C592 1.368 . S
H577 C585 0.950 . S
H578 C583 0.950 . S
H579 C584 0.949 . S
H580 C586 0.950 . S
H581 C587 0.950 . S
H582 C588 0.949 . S
C583 H578 0.950 . S
C583 C585 1.327 . S
C583 C589 1.429 . S
C584 C576 1.574 . S
C584 H579 0.949 . S
C584 C590 1.368 . S
C585 C569 1.349 . S
C585 H577 0.950 . S
C585 C583 1.327 . S
C586 C574 1.349 . S
C586 H580 0.950 . S
C586 C587 1.327 . S
C587 H581 0.950 . S
C587 C586 1.327 . S
C587 C591 1.429 . S
C588 C571 1.574 . S
C588 H582 0.949 . S
C588 C592 1.368 . S
C589 C570 1.429 . S
C589 C583 1.429 . S
C589 C590 1.523 . S
C590 C571 1.368 . S
C590 C584 1.368 . S
C590 C589 1.523 . S
C591 C575 1.429 . S
C591 C587 1.429 . S
C591 C592 1.523 . S
C592 C576 1.368 . S
C592 C588 1.368 . S
C592 C591 1.523 . S
H593 C568 0.950 . S
H594 C570 0.950 . S
H595 C571 0.949 . S
H596 C573 0.950 . S
H597 C575 0.950 . S
C598 C599 1.349 . S
C598 C600 1.327 . S
C598 H623 0.950 . S
C599 C598 1.349 . S
C599 C615 1.349 . S
C600 C598 1.327 . S
C600 C619 1.429 . S
C600 H624 0.950 . S
C601 C618 1.574 . S
C601 C620 1.368 . S
C601 H625 0.949 . S
H602 C606 0.949 . S
C603 C604 1.349 . S
C603 C605 1.327 . S
C603 H626 0.950 . S
C604 C603 1.349 . S
C604 C616 1.349 . S
C605 C603 1.327 . S
C605 C621 1.429 . S
C605 H627 0.950 . S
C606 H602 0.949 . S
C606 C614 1.574 . S
C606 C622 1.368 . S
H607 C615 0.950 . S
H608 C613 0.950 . S
H609 C614 0.949 . S
H610 C616 0.950 . S
H611 C617 0.950 . S
H612 C618 0.949 . S
C613 H608 0.950 . S
C613 C615 1.327 . S
C613 C619 1.429 . S
C614 C606 1.574 . S
C614 H609 0.949 . S
C614 C620 1.368 . S
C615 C599 1.349 . S
C615 H607 0.950 . S
C615 C613 1.327 . S
C616 C604 1.349 . S
C616 H610 0.950 . S
C616 C617 1.327 . S
C617 H611 0.950 . S
C617 C616 1.327 . S
C617 C621 1.429 . S
C618 C601 1.574 . S
C618 H612 0.949 . S
C618 C622 1.368 . S
C619 C600 1.429 . S
C619 C613 1.429 . S
C619 C620 1.523 . S
C620 C601 1.368 . S
C620 C614 1.368 . S
C620 C619 1.523 . S
C621 C605 1.429 . S
C621 C617 1.429 . S
C621 C622 1.523 . S
C622 C606 1.368 . S
C622 C618 1.368 . S
C622 C621 1.523 . S
H623 C598 0.950 . S
H624 C600 0.950 . S
H625 C601 0.949 . S
H626 C603 0.950 . S
H627 C605 0.950 . S
C628 C629 1.349 . S
C628 C630 1.327 . S
C628 H653 0.950 . S
C629 C628 1.349 . S
C629 C645 1.349 . S
C630 C628 1.327 . S
C630 C649 1.429 . S
C630 H654 0.950 . S
C631 C648 1.574 . S
C631 C650 1.368 . S
C631 H655 0.949 . S
H632 C636 0.949 . S
C633 C634 1.349 . S
C633 C635 1.327 . S
C633 H656 0.950 . S
C634 C633 1.349 . S
C634 C646 1.349 . S
C635 C633 1.327 . S
C635 C651 1.429 . S
C635 H657 0.950 . S
C636 H632 0.949 . S
C636 C644 1.574 . S
C636 C652 1.368 . S
H637 C645 0.950 . S
H638 C643 0.950 . S
H639 C644 0.949 . S
H640 C646 0.950 . S
H641 C647 0.950 . S
H642 C648 0.949 . S
C643 H638 0.950 . S
C643 C645 1.327 . S
C643 C649 1.429 . S
C644 C636 1.574 . S
C644 H639 0.949 . S
C644 C650 1.368 . S
C645 C629 1.349 . S
C645 H637 0.950 . S
C645 C643 1.327 . S
C646 C634 1.349 . S
C646 H640 0.950 . S
C646 C647 1.327 . S
C647 H641 0.950 . S
C647 C646 1.327 . S
C647 C651 1.429 . S
C648 C631 1.574 . S
C648 H642 0.949 . S
C648 C652 1.368 . S
C649 C630 1.429 . S
C649 C643 1.429 . S
C649 C650 1.523 . S
C650 C631 1.368 . S
C650 C644 1.368 . S
C650 C649 1.523 . S
C651 C635 1.429 . S
C651 C647 1.429 . S
C651 C652 1.523 . S
C652 C636 1.368 . S
C652 C648 1.368 . S
C652 C651 1.523 . S
H653 C628 0.950 . S
H654 C630 0.950 . S
H655 C631 0.949 . S
H656 C633 0.950 . S
H657 C635 0.950 . S
C658 C659 1.349 . S
C658 C660 1.327 . S
C658 H683 0.950 . S
C659 C658 1.349 . S
C659 C675 1.349 . S
C660 C658 1.327 . S
C660 C679 1.429 . S
C660 H684 0.950 . S
C661 C678 1.574 . S
C661 C680 1.368 . S
C661 H685 0.949 . S
H662 C666 0.949 . S
C663 C664 1.349 . S
C663 C665 1.327 . S
C663 H686 0.950 . S
C664 C663 1.349 . S
C664 C676 1.349 . S
C665 C663 1.327 . S
C665 C681 1.429 . S
C665 H687 0.950 . S
C666 H662 0.949 . S
C666 C674 1.574 . S
C666 C682 1.368 . S
H667 C675 0.950 . S
H668 C673 0.950 . S
H669 C674 0.949 . S
H670 C676 0.950 . S
H671 C677 0.950 . S
H672 C678 0.949 . S
C673 H668 0.950 . S
C673 C675 1.327 . S
C673 C679 1.429 . S
C674 C666 1.574 . S
C674 H669 0.949 . S
C674 C680 1.368 . S
C675 C659 1.349 . S
C675 H667 0.950 . S
C675 C673 1.327 . S
C676 C664 1.349 . S
C676 H670 0.950 . S
C676 C677 1.327 . S
C677 H671 0.950 . S
C677 C676 1.327 . S
C677 C681 1.429 . S
C678 C661 1.574 . S
C678 H672 0.949 . S
C678 C682 1.368 . S
C679 C660 1.429 . S
C679 C673 1.429 . S
C679 C680 1.523 . S
C680 C661 1.368 . S
C680 C674 1.368 . S
C680 C679 1.523 . S
C681 C665 1.429 . S
C681 C677 1.429 . S
C681 C682 1.523 . S
C682 C666 1.368 . S
C682 C678 1.368 . S
C682 C681 1.523 . S
H683 C658 0.950 . S
H684 C660 0.950 . S
H685 C661 0.949 . S
H686 C663 0.950 . S
H687 C665 0.950 . S
C688 C689 1.349 . S
C688 C690 1.327 . S
C688 H713 0.950 . S
C689 C688 1.349 . S
C689 C705 1.349 . S
C690 C688 1.327 . S
C690 C709 1.429 . S
C690 H714 0.950 . S
C691 C708 1.574 1_565 S
C691 C710 1.368 1_554 S
C691 H715 0.949 . S
H692 C696 0.949 . S
C693 C694 1.349 . S
C693 C695 1.327 . S
C693 H716 0.950 . S
C694 C693 1.349 . S
C694 C706 1.349 . S
C695 C693 1.327 . S
C695 C711 1.429 . S
C695 H717 0.950 . S
C696 H692 0.949 . S
C696 C704 1.574 1_545 S
C696 C712 1.368 1_556 S
H697 C705 0.950 . S
H698 C703 0.952 . S
H699 C704 0.949 . S
H700 C706 0.950 . S
H701 C707 0.952 . S
H702 C708 0.949 . S
C703 H698 0.952 . S
C703 C705 1.327 . S
C703 C709 1.429 . S
C704 C696 1.574 1_565 S
C704 H699 0.949 . S
C704 C710 1.368 . S
C705 C689 1.349 . S
C705 H697 0.950 . S
C705 C703 1.327 . S
C706 C694 1.349 . S
C706 H700 0.950 . S
C706 C707 1.327 . S
C707 H701 0.952 . S
C707 C706 1.327 . S
C707 C711 1.429 . S
C708 C691 1.574 1_545 S
C708 H702 0.949 . S
C708 C712 1.368 . S
C709 C690 1.429 . S
C709 C703 1.429 . S
C709 C710 1.523 . S
C710 C691 1.368 1_556 S
C710 C704 1.368 . S
C710 C709 1.523 . S
C711 C695 1.429 . S
C711 C707 1.429 . S
C711 C712 1.523 . S
C712 C696 1.368 1_554 S
C712 C708 1.368 . S
C712 C711 1.523 . S
H713 C688 0.950 . S
H714 C690 0.950 . S
H715 C691 0.949 . S
H716 C693 0.950 . S
H717 C695 0.950 . S
C718 C719 1.349 . S
C718 C720 1.327 . S
C718 H743 0.950 . S
C719 C718 1.349 . S
C719 C735 1.349 . S
C720 C718 1.327 . S
C720 C739 1.429 . S
C720 H744 0.950 1_554 S
C721 C738 1.574 . S
C721 C740 1.368 . S
C721 H745 0.949 . S
H722 C726 0.949 . S
C723 C724 1.349 . S
C723 C725 1.327 . S
C723 H746 0.950 . S
C724 C723 1.349 . S
C724 C736 1.349 . S
C725 C723 1.327 . S
C725 C741 1.429 . S
C725 H747 0.950 1_556 S
C726 H722 0.949 . S
C726 C734 1.574 . S
C726 C742 1.368 . S
H727 C735 0.950 . S
H728 C733 0.950 . S
H729 C734 0.949 . S
H730 C736 0.950 . S
H731 C737 0.950 . S
H732 C738 0.949 . S
C733 H728 0.950 . S
C733 C735 1.327 . S
C733 C739 1.429 . S
C734 C726 1.574 . S
C734 H729 0.949 . S
C734 C740 1.368 1_556 S
C735 C719 1.349 . S
C735 H727 0.950 . S
C735 C733 1.327 . S
C736 C724 1.349 . S
C736 H730 0.950 . S
C736 C737 1.327 . S
C737 H731 0.950 . S
C737 C736 1.327 . S
C737 C741 1.429 . S
C738 C721 1.574 . S
C738 H732 0.949 . S
C738 C742 1.368 1_554 S
C739 C720 1.429 . S
C739 C733 1.429 . S
C739 C740 1.523 . S
C740 C721 1.368 . S
C740 C734 1.368 1_554 S
C740 C739 1.523 . S
C741 C725 1.429 . S
C741 C737 1.429 . S
C741 C742 1.523 . S
C742 C726 1.368 . S
C742 C738 1.368 1_556 S
C742 C741 1.523 . S
H743 C718 0.950 . S
H744 C720 0.950 1_556 S
H745 C721 0.949 . S
H746 C723 0.950 . S
H747 C725 0.950 1_554 S
C748 C749 1.349 . S
C748 C750 1.327 1_556 S
C748 H773 0.950 1_556 S
C749 C748 1.349 . S
C749 C765 1.349 1_655 S
C750 C748 1.327 1_554 S
C750 C769 1.429 1_554 S
C750 H774 0.950 . S
C751 C768 1.574 . S
C751 C770 1.356 1_455 S
C751 H775 0.949 . S
H752 C756 0.949 . S
C753 C754 1.349 . S
C753 C755 1.327 1_554 S
C753 H776 0.950 1_554 S
C754 C753 1.349 . S
C754 C766 1.349 1_455 S
C755 C753 1.327 1_556 S
C755 C771 1.429 1_556 S
C755 H777 0.950 . S
C756 H752 0.949 . S
C756 C764 1.574 . S
C756 C772 1.356 1_655 S
H757 C765 0.950 . S
H758 C763 0.950 . S
H759 C764 0.949 . S
H760 C766 0.950 . S
H761 C767 0.950 . S
H762 C768 0.949 . S
C763 H758 0.950 . S
C763 C765 1.327 . S
C763 C769 1.429 1_455 S
C764 C756 1.574 . S
C764 H759 0.949 . S
C764 C770 1.381 1_554 S
C765 C749 1.349 1_455 S
C765 H757 0.950 . S
C765 C763 1.327 . S
C766 C754 1.349 1_655 S
C766 H760 0.950 . S
C766 C767 1.327 . S
C767 H761 0.950 . S
C767 C766 1.327 . S
C767 C771 1.429 1_655 S
C768 C751 1.574 . S
C768 H762 0.949 . S
C768 C772 1.381 1_556 S
C769 C750 1.429 1_556 S
C769 C763 1.429 1_655 S
C769 C770 1.524 . S
C770 C751 1.356 1_655 S
C770 C764 1.381 1_556 S
C770 C769 1.524 . S
C771 C755 1.429 1_554 S
C771 C767 1.429 1_455 S
C771 C772 1.524 . S
C772 C756 1.356 1_455 S
C772 C768 1.381 1_554 S
C772 C771 1.524 . S
H773 C748 0.950 1_554 S
H774 C750 0.950 . S
H775 C751 0.949 . S
H776 C753 0.950 1_556 S
H777 C755 0.950 . S
C778 C779 1.349 . S
C778 C780 1.327 . S
C778 H803 0.950 . S
C779 C778 1.349 . S
C779 C795 1.349 1_545 S
C780 C778 1.327 . S
C780 C799 1.429 . S
C780 H804 0.950 1_554 S
C781 C798 1.574 1_455 S
C781 C800 1.344 1_565 S
C781 H805 0.949 . S
H782 C786 0.949 . S
C783 C784 1.349 . S
C783 C785 1.327 . S
C783 H806 0.950 . S
C784 C783 1.349 . S
C784 C796 1.349 1_565 S
C785 C783 1.327 . S
C785 C801 1.429 . S
C785 H807 0.950 1_556 S
C786 H782 0.949 . S
C786 C794 1.574 1_655 S
C786 C802 1.344 1_545 S
H787 C795 0.950 . S
H788 C793 0.950 . S
H789 C794 0.949 . S
H790 C796 0.950 . S
H791 C797 0.950 . S
H792 C798 0.949 . S
C793 H788 0.950 . S
C793 C795 1.327 . S
C793 C799 1.429 1_565 S
C794 C786 1.574 1_455 S
C794 H789 0.949 . S
C794 C800 1.392 1_556 S
C795 C779 1.349 1_565 S
C795 H787 0.950 . S
C795 C793 1.327 . S
C796 C784 1.349 1_545 S
C796 H790 0.950 . S
C796 C797 1.327 . S
C797 H791 0.950 . S
C797 C796 1.327 . S
C797 C801 1.429 1_545 S
C798 C781 1.574 1_655 S
C798 H792 0.949 . S
C798 C802 1.392 1_554 S
C799 C780 1.429 . S
C799 C793 1.429 1_545 S
C799 C800 1.524 . S
C800 C781 1.344 1_545 S
C800 C794 1.392 1_554 S
C800 C799 1.524 . S
C801 C785 1.429 . S
C801 C797 1.429 1_565 S
C801 C802 1.524 . S
C802 C786 1.344 1_565 S
C802 C798 1.392 1_556 S
C802 C801 1.524 . S
H803 C778 0.950 . S
H804 C780 0.950 1_556 S
H805 C781 0.949 . S
H806 C783 0.950 . S
H807 C785 0.950 1_554 S
C808 C809 1.349 . S
C808 C810 1.327 . S
C808 H833 0.950 . S
C809 C808 1.349 . S
C809 C825 1.349 . S
C810 C808 1.327 . S
C810 C829 1.429 . S
C810 H834 0.950 . S
C811 C828 1.574 . S
C811 C830 1.368 . S
C811 H835 0.949 . S
H812 C816 0.949 . S
C813 C814 1.349 . S
C813 C815 1.327 . S
C813 H836 0.950 . S
C814 C813 1.349 . S
C814 C826 1.349 . S
C815 C813 1.327 . S
C815 C831 1.429 . S
C815 H837 0.950 . S
C816 H812 0.949 . S
C816 C824 1.574 . S
C816 C832 1.368 . S
H817 C825 0.950 . S
H818 C823 0.950 . S
H819 C824 0.949 . S
H820 C826 0.950 . S
H821 C827 0.950 . S
H822 C828 0.949 . S
C823 H818 0.950 . S
C823 C825 1.327 . S
C823 C829 1.429 . S
C824 C816 1.574 . S
C824 H819 0.949 . S
C824 C830 1.368 . S
C825 C809 1.349 . S
C825 H817 0.950 . S
C825 C823 1.327 . S
C826 C814 1.349 . S
C826 H820 0.950 . S
C826 C827 1.327 . S
C827 H821 0.950 . S
C827 C826 1.327 . S
C827 C831 1.429 . S
C828 C811 1.574 . S
C828 H822 0.949 . S
C828 C832 1.368 . S
C829 C810 1.429 . S
C829 C823 1.429 . S
C829 C830 1.523 . S
C830 C811 1.368 . S
C830 C824 1.368 . S
C830 C829 1.523 . S
C831 C815 1.429 . S
C831 C827 1.429 . S
C831 C832 1.523 . S
C832 C816 1.368 . S
C832 C828 1.368 . S
C832 C831 1.523 . S
H833 C808 0.950 . S
H834 C810 0.950 . S
H835 C811 0.949 . S
H836 C813 0.950 . S
H837 C815 0.950 . S
C838 C839 1.349 . S
C838 C840 1.327 . S
C838 H863 0.950 . S
C839 C838 1.349 . S
C839 C855 1.349 . S
C840 C838 1.327 . S
C840 C859 1.429 . S
C840 H864 0.950 . S
C841 C858 1.574 1_455 S
C841 C860 1.368 . S
C841 H865 0.949 . S
H842 C846 0.949 . S
C843 C844 1.349 . S
C843 C845 1.327 . S
C843 H866 0.950 . S
C844 C843 1.349 . S
C844 C856 1.349 . S
C845 C843 1.327 . S
C845 C861 1.429 . S
C845 H867 0.950 . S
C846 H842 0.949 . S
C846 C854 1.574 1_655 S
C846 C862 1.368 . S
H847 C855 0.950 . S
H848 C853 0.950 . S
H849 C854 0.949 . S
H850 C856 0.950 . S
H851 C857 0.950 . S
H852 C858 0.949 . S
C853 H848 0.950 . S
C853 C855 1.327 . S
C853 C859 1.429 . S
C854 C846 1.574 1_455 S
C854 H849 0.949 . S
C854 C860 1.368 . S
C855 C839 1.349 . S
C855 H847 0.950 . S
C855 C853 1.327 . S
C856 C844 1.349 . S
C856 H850 0.950 . S
C856 C857 1.327 . S
C857 H851 0.950 . S
C857 C856 1.327 . S
C857 C861 1.429 . S
C858 C841 1.574 1_655 S
C858 H852 0.949 . S
C858 C862 1.368 . S
C859 C840 1.429 . S
C859 C853 1.429 . S
C859 C860 1.523 . S
C860 C841 1.368 . S
C860 C854 1.368 . S
C860 C859 1.523 . S
C861 C845 1.429 . S
C861 C857 1.429 . S
C861 C862 1.523 . S
C862 C846 1.368 . S
C862 C858 1.368 . S
C862 C861 1.523 . S
H863 C838 0.950 . S
H864 C840 0.950 . S
H865 C841 0.949 . S
H866 C843 0.950 . S
H867 C845 0.950 . S
C868 C869 1.349 1_455 S
C868 C870 1.327 . S
C868 H893 0.950 . S
C869 C868 1.349 1_655 S
C869 C885 1.349 . S
C870 C868 1.327 . S
C870 C889 1.429 1_455 S
C870 H894 0.950 . S
C871 C888 1.574 1_565 S
C871 C890 1.386 . S
C871 H895 0.949 . S
H872 C876 0.949 . S
C873 C874 1.349 1_655 S
C873 C875 1.327 . S
C873 H896 0.950 . S
C874 C873 1.349 1_455 S
C874 C886 1.349 . S
C875 C873 1.327 . S
C875 C891 1.429 1_655 S
C875 H897 0.950 . S
C876 H872 0.949 . S
C876 C884 1.574 1_545 S
C876 C892 1.386 . S
H877 C885 0.950 . S
H878 C883 0.950 . S
H879 C884 0.949 . S
H880 C886 0.950 . S
H881 C887 0.950 . S
H882 C888 0.949 . S
C883 H878 0.950 . S
C883 C885 1.327 . S
C883 C889 1.429 . S
C884 C876 1.574 1_565 S
C884 H879 0.949 . S
C884 C890 1.350 1_455 S
C885 C869 1.349 . S
C885 H877 0.950 . S
C885 C883 1.327 . S
C886 C874 1.349 . S
C886 H880 0.950 . S
C886 C887 1.327 . S
C887 H881 0.950 . S
C887 C886 1.327 . S
C887 C891 1.429 . S
C888 C871 1.574 1_545 S
C888 H882 0.949 . S
C888 C892 1.350 1_655 S
C889 C870 1.429 1_655 S
C889 C883 1.429 . S
C889 C890 1.524 . S
C890 C871 1.386 . S
C890 C884 1.350 1_655 S
C890 C889 1.524 . S
C891 C875 1.429 1_455 S
C891 C887 1.429 . S
C891 C892 1.524 . S
C892 C876 1.386 . S
C892 C888 1.350 1_455 S
C892 C891 1.524 . S
H893 C868 0.950 . S
H894 C870 0.950 . S
H895 C871 0.949 . S
H896 C873 0.950 . S
H897 C875 0.950 . S
C898 C899 1.349 1_545 S
C898 C900 1.327 . S
C898 H923 0.950 . S
C899 C898 1.349 1_565 S
C899 C915 1.349 . S
C900 C898 1.327 . S
C900 C919 1.429 1_545 S
C900 H924 0.950 . S
C901 C918 1.574 . S
C901 C920 1.391 . S
C901 H925 0.949 . S
H902 C906 0.949 . S
C903 C904 1.349 1_565 S
C903 C905 1.327 . S
C903 H926 0.950 . S
C904 C903 1.349 1_545 S
C904 C916 1.349 . S
C905 C903 1.327 . S
C905 C921 1.429 1_565 S
C905 H927 0.950 . S
C906 H902 0.949 . S
C906 C914 1.574 . S
C906 C922 1.391 . S
H907 C915 0.950 . S
H908 C913 0.950 . S
H909 C914 0.949 . S
H910 C916 0.950 . S
H911 C917 0.950 . S
H912 C918 0.949 . S
C913 H908 0.950 . S
C913 C915 1.327 . S
C913 C919 1.429 . S
C914 C906 1.574 . S
C914 H909 0.949 . S
C914 C920 1.345 1_545 S
C915 C899 1.349 . S
C915 H907 0.950 . S
C915 C913 1.327 . S
C916 C904 1.349 . S
C916 H910 0.950 . S
C916 C917 1.327 . S
C917 H911 0.950 . S
C917 C916 1.327 . S
C917 C921 1.429 . S
C918 C901 1.574 . S
C918 H912 0.949 . S
C918 C922 1.345 1_565 S
C919 C900 1.429 1_565 S
C919 C913 1.429 . S
C919 C920 1.524 . S
C920 C901 1.391 . S
C920 C914 1.345 1_565 S
C920 C919 1.524 . S
C921 C905 1.429 1_545 S
C921 C917 1.429 . S
C921 C922 1.524 . S
C922 C906 1.391 . S
C922 C918 1.345 1_545 S
C922 C921 1.524 . S
H923 C898 0.950 . S
H924 C900 0.950 . S
H925 C901 0.949 . S
H926 C903 0.950 . S
H927 C905 0.950 . S
C928 C929 1.349 . S
C928 C930 1.327 . S
C928 H953 0.950 . S
C929 C928 1.349 . S
C929 C945 1.349 . S
C930 C928 1.327 . S
C930 C949 1.429 . S
C930 H954 0.950 . S
C931 C948 1.574 . S
C931 C950 1.368 . S
C931 H955 0.949 . S
H932 C936 0.949 . S
C933 C934 1.349 . S
C933 C935 1.327 . S
C933 H956 0.950 . S
C934 C933 1.349 . S
C934 C946 1.349 . S
C935 C933 1.327 . S
C935 C951 1.429 . S
C935 H957 0.950 . S
C936 H932 0.949 . S
C936 C944 1.574 . S
C936 C952 1.368 . S
H937 C945 0.950 . S
H938 C943 0.950 . S
H939 C944 0.949 . S
H940 C946 0.950 . S
H941 C947 0.950 . S
H942 C948 0.949 . S
C943 H938 0.950 . S
C943 C945 1.327 . S
C943 C949 1.429 . S
C944 C936 1.574 . S
C944 H939 0.949 . S
C944 C950 1.368 . S
C945 C929 1.349 . S
C945 H937 0.950 . S
C945 C943 1.327 . S
C946 C934 1.349 . S
C946 H940 0.950 . S
C946 C947 1.327 . S
C947 H941 0.950 . S
C947 C946 1.327 . S
C947 C951 1.429 . S
C948 C931 1.574 . S
C948 H942 0.949 . S
C948 C952 1.368 . S
C949 C930 1.429 . S
C949 C943 1.429 . S
C949 C950 1.523 . S
C950 C931 1.368 . S
C950 C944 1.368 . S
C950 C949 1.523 . S
C951 C935 1.429 . S
C951 C947 1.429 . S
C951 C952 1.523 . S
C952 C936 1.368 . S
C952 C948 1.368 . S
C952 C951 1.523 . S
H953 C928 0.950 . S
H954 C930 0.950 . S
H955 C931 0.949 . S
H956 C933 0.950 . S
H957 C935 0.950 . S
C958 C959 1.349 . S
C958 C960 1.327 . S
C958 H983 0.950 . S
C959 C958 1.349 . S
C959 C975 1.349 . S
C960 C958 1.327 . S
C960 C979 1.429 . S
C960 H984 0.950 . S
C961 C978 1.574 . S
C961 C980 1.368 . S
C961 H985 0.949 . S
H962 C966 0.949 . S
C963 C964 1.349 . S
C963 C965 1.327 . S
C963 H986 0.950 . S
C964 C963 1.349 . S
C964 C976 1.349 . S
C965 C963 1.327 . S
C965 C981 1.429 . S
C965 H987 0.950 . S
C966 H962 0.949 . S
C966 C974 1.574 . S
C966 C982 1.368 . S
H967 C975 0.950 . S
H968 C973 0.950 . S
H969 C974 0.949 . S
H970 C976 0.950 . S
H971 C977 0.950 . S
H972 C978 0.949 . S
C973 H968 0.950 . S
C973 C975 1.327 . S
C973 C979 1.429 . S
C974 C966 1.574 . S
C974 H969 0.949 . S
C974 C980 1.368 . S
C975 C959 1.349 . S
C975 H967 0.950 . S
C975 C973 1.327 . S
C976 C964 1.349 . S
C976 H970 0.950 . S
C976 C977 1.327 . S
C977 H971 0.950 . S
C977 C976 1.327 . S
C977 C981 1.429 . S
C978 C961 1.574 . S
C978 H972 0.949 . S
C978 C982 1.368 . S
C979 C960 1.429 . S
C979 C973 1.429 . S
C979 C980 1.523 . S
C980 C961 1.368 . S
C980 C974 1.368 . S
C980 C979 1.523 . S
C981 C965 1.429 . S
C981 C977 1.429 . S
C981 C982 1.523 . S
C982 C966 1.368 . S
C982 C978 1.368 . S
C982 C981 1.523 . S
H983 C958 0.950 . S
H984 C960 0.950 . S
H985 C961 0.949 . S
H986 C963 0.950 . S
H987 C965 0.950 . S
C988 C989 1.349 . S
C988 C990 1.327 . S
C988 H1013 0.950 . S
C989 C988 1.349 . S
C989 C1005 1.349 1_655 S
C990 C988 1.327 . S
C990 C1009 1.429 . S
C990 H1014 0.950 . S
C991 C1008 1.574 . S
C991 C1010 1.368 1_455 S
C991 H1015 0.949 . S
H992 C996 0.949 . S
C993 C994 1.349 1_455 S
C993 C995 1.327 . S
C993 H1016 0.950 . S
C994 C993 1.349 1_655 S
C994 C1006 1.349 . S
C995 C993 1.327 . S
C995 C1011 1.421 1_455 S
C995 H1017 0.958 . S
C996 H992 0.949 . S
C996 C1004 1.574 . S
C996 C1012 1.368 . S
H997 C1005 0.950 . S
H998 C1003 0.958 . S
H999 C1004 0.949 . S
H1000 C1006 0.950 . S
H1001 C1007 0.950 . S
H1002 C1008 0.949 . S
C1003 H998 0.958 . S
C1003 C1005 1.327 . S
C1003 C1009 1.421 1_455 S
C1004 C996 1.574 . S
C1004 H999 0.949 . S
C1004 C1010 1.368 . S
C1005 C989 1.349 1_455 S
C1005 H997 0.950 . S
C1005 C1003 1.327 . S
C1006 C994 1.349 . S
C1006 H1000 0.950 . S
C1006 C1007 1.327 . S
C1007 H1001 0.950 . S
C1007 C1006 1.327 . S
C1007 C1011 1.429 . S
C1008 C991 1.574 . S
C1008 H1002 0.949 . S
C1008 C1012 1.368 1_455 S
C1009 C990 1.429 . S
C1009 C1003 1.421 1_655 S
C1009 C1010 1.523 . S
C1010 C991 1.368 1_655 S
C1010 C1004 1.368 . S
C1010 C1009 1.523 . S
C1011 C995 1.421 1_655 S
C1011 C1007 1.429 . S
C1011 C1012 1.523 . S
C1012 C996 1.368 . S
C1012 C1008 1.368 1_655 S
C1012 C1011 1.523 . S
H1013 C988 0.950 . S
H1014 C990 0.950 . S
H1015 C991 0.949 . S
H1016 C993 0.950 . S
H1017 C995 0.958 . S
C1018 C1019 1.349 1_545 S
C1018 C1020 1.327 . S
C1018 H1043 0.950 . S
C1019 C1018 1.349 1_565 S
C1019 C1035 1.349 . S
C1020 C1018 1.327 . S
C1020 C1039 1.429 1_545 S
C1020 H1044 0.950 . S
C1021 C1038 1.574 . S
C1021 C1040 1.368 . S
C1021 H1045 0.949 . S
H1022 C1026 0.949 . S
C1023 C1024 1.349 . S
C1023 C1025 1.327 . S
C1023 H1046 0.950 . S
C1024 C1023 1.349 . S
C1024 C1036 1.349 1_565 S
C1025 C1023 1.327 . S
C1025 C1041 1.429 . S
C1025 H1047 0.950 . S
C1026 H1022 0.949 . S
C1026 C1034 1.574 . S
C1026 C1042 1.368 1_545 S
H1027 C1035 0.950 . S
H1028 C1033 0.950 . S
H1029 C1034 0.949 . S
H1030 C1036 0.950 . S
H1031 C1037 0.950 . S
H1032 C1038 0.949 . S
C1033 H1028 0.950 . S
C1033 C1035 1.327 . S
C1033 C1039 1.429 . S
C1034 C1026 1.574 . S
C1034 H1029 0.949 . S
C1034 C1040 1.368 1_545 S
C1035 C1019 1.349 . S
C1035 H1027 0.950 . S
C1035 C1033 1.327 . S
C1036 C1024 1.349 1_545 S
C1036 H1030 0.950 . S
C1036 C1037 1.327 . S
C1037 H1031 0.950 . S
C1037 C1036 1.327 . S
C1037 C1041 1.429 1_545 S
C1038 C1021 1.574 . S
C1038 H1032 0.949 . S
C1038 C1042 1.368 . S
C1039 C1020 1.429 1_565 S
C1039 C1033 1.429 . S
C1039 C1040 1.523 . S
C1040 C1021 1.368 . S
C1040 C1034 1.368 1_565 S
C1040 C1039 1.523 . S
C1041 C1025 1.429 . S
C1041 C1037 1.429 1_565 S
C1041 C1042 1.523 . S
C1042 C1026 1.368 1_565 S
C1042 C1038 1.368 . S
C1042 C1041 1.523 . S
H1043 C1018 0.950 . S
H1044 C1020 0.950 . S
H1045 C1021 0.949 . S
H1046 C1023 0.950 . S
H1047 C1025 0.950 . S
C1048 C1049 1.349 . S
C1048 C1050 1.327 . S
C1048 H1073 0.950 . S
C1049 C1048 1.349 . S
C1049 C1065 1.349 . S
C1050 C1048 1.327 . S
C1050 C1069 1.429 . S
C1050 H1074 0.950 . S
C1051 C1068 1.574 . S
C1051 C1070 1.368 . S
C1051 H1075 0.949 . S
H1052 C1056 0.949 . S
C1053 C1054 1.349 . S
C1053 C1055 1.327 . S
C1053 H1076 0.950 . S
C1054 C1053 1.349 . S
C1054 C1066 1.349 . S
C1055 C1053 1.327 . S
C1055 C1071 1.429 . S
C1055 H1077 0.950 . S
C1056 H1052 0.949 . S
C1056 C1064 1.574 . S
C1056 C1072 1.368 . S
H1057 C1065 0.950 . S
H1058 C1063 0.950 . S
H1059 C1064 0.949 . S
H1060 C1066 0.950 . S
H1061 C1067 0.950 . S
H1062 C1068 0.949 . S
C1063 H1058 0.950 . S
C1063 C1065 1.327 . S
C1063 C1069 1.429 . S
C1064 C1056 1.574 . S
C1064 H1059 0.949 . S
C1064 C1070 1.368 . S
C1065 C1049 1.349 . S
C1065 H1057 0.950 . S
C1065 C1063 1.327 . S
C1066 C1054 1.349 . S
C1066 H1060 0.950 . S
C1066 C1067 1.327 . S
C1067 H1061 0.950 . S
C1067 C1066 1.327 . S
C1067 C1071 1.429 . S
C1068 C1051 1.574 . S
C1068 H1062 0.949 . S
C1068 C1072 1.368 . S
C1069 C1050 1.429 . S
C1069 C1063 1.429 . S
C1069 C1070 1.523 . S
C1070 C1051 1.368 . S
C1070 C1064 1.368 . S
C1070 C1069 1.523 . S
C1071 C1055 1.429 . S
C1071 C1067 1.429 . S
C1071 C1072 1.523 . S
C1072 C1056 1.368 . S
C1072 C1068 1.368 . S
C1072 C1071 1.523 . S
H1073 C1048 0.950 . S
H1074 C1050 0.950 . S
H1075 C1051 0.949 . S
H1076 C1053 0.950 . S
H1077 C1055 0.950 . S
C1078 C1079 1.349 . S
C1078 C1080 1.327 . S
C1078 H1103 0.950 . S
C1079 C1078 1.349 . S
C1079 C1095 1.349 . S
C1080 C1078 1.327 . S
C1080 C1099 1.429 . S
C1080 H1104 0.950 . S
C1081 C1098 1.574 . S
C1081 C1100 1.368 . S
C1081 H1105 0.949 . S
H1082 C1086 0.949 . S
C1083 C1084 1.349 . S
C1083 C1085 1.327 . S
C1083 H1106 0.950 . S
C1084 C1083 1.349 . S
C1084 C1096 1.349 . S
C1085 C1083 1.327 . S
C1085 C1101 1.429 . S
C1085 H1107 0.950 . S
C1086 H1082 0.949 . S
C1086 C1094 1.574 . S
C1086 C1102 1.368 . S
H1087 C1095 0.950 . S
H1088 C1093 0.950 . S
H1089 C1094 0.949 . S
H1090 C1096 0.950 . S
H1091 C1097 0.950 . S
H1092 C1098 0.949 . S
C1093 H1088 0.950 . S
C1093 C1095 1.327 . S
C1093 C1099 1.429 . S
C1094 C1086 1.574 . S
C1094 H1089 0.949 . S
C1094 C1100 1.368 . S
C1095 C1079 1.349 . S
C1095 H1087 0.950 . S
C1095 C1093 1.327 . S
C1096 C1084 1.349 . S
C1096 H1090 0.950 . S
C1096 C1097 1.327 . S
C1097 H1091 0.950 . S
C1097 C1096 1.327 . S
C1097 C1101 1.429 . S
C1098 C1081 1.574 . S
C1098 H1092 0.949 . S
C1098 C1102 1.368 . S
C1099 C1080 1.429 . S
C1099 C1093 1.429 . S
C1099 C1100 1.523 . S
C1100 C1081 1.368 . S
C1100 C1094 1.368 . S
C1100 C1099 1.523 . S
C1101 C1085 1.429 . S
C1101 C1097 1.429 . S
C1101 C1102 1.523 . S
C1102 C1086 1.368 . S
C1102 C1098 1.368 . S
C1102 C1101 1.523 . S
H1103 C1078 0.950 . S
H1104 C1080 0.950 . S
H1105 C1081 0.949 . S
H1106 C1083 0.950 . S
H1107 C1085 0.950 . S
C1108 C1109 1.349 1_655 S
C1108 C1110 1.327 . S
C1108 H1133 0.950 . S
C1109 C1108 1.349 1_455 S
C1109 C1125 1.349 . S
C1110 C1108 1.327 . S
C1110 C1129 1.429 1_655 S
C1110 H1134 0.950 . S
C1111 C1128 1.574 . S
C1111 C1130 1.368 . S
C1111 H1135 0.949 . S
H1112 C1116 0.949 . S
C1113 C1114 1.349 . S
C1113 C1115 1.327 . S
C1113 H1136 0.950 . S
C1114 C1113 1.349 . S
C1114 C1126 1.349 1_455 S
C1115 C1113 1.327 . S
C1115 C1131 1.429 . S
C1115 H1137 0.950 . S
C1116 H1112 0.949 . S
C1116 C1124 1.574 . S
C1116 C1132 1.368 1_655 S
H1117 C1125 0.950 . S
H1118 C1123 0.950 . S
H1119 C1124 0.949 . S
H1120 C1126 0.950 . S
H1121 C1127 0.950 . S
H1122 C1128 0.949 . S
C1123 H1118 0.950 . S
C1123 C1125 1.327 . S
C1123 C1129 1.429 . S
C1124 C1116 1.574 . S
C1124 H1119 0.949 . S
C1124 C1130 1.368 1_655 S
C1125 C1109 1.349 . S
C1125 H1117 0.950 . S
C1125 C1123 1.327 . S
C1126 C1114 1.349 1_655 S
C1126 H1120 0.950 . S
C1126 C1127 1.327 . S
C1127 H1121 0.950 . S
C1127 C1126 1.327 . S
C1127 C1131 1.429 1_655 S
C1128 C1111 1.574 . S
C1128 H1122 0.949 . S
C1128 C1132 1.368 . S
C1129 C1110 1.429 1_455 S
C1129 C1123 1.429 . S
C1129 C1130 1.523 . S
C1130 C1111 1.368 . S
C1130 C1124 1.368 1_455 S
C1130 C1129 1.523 . S
C1131 C1115 1.429 . S
C1131 C1127 1.429 1_455 S
C1131 C1132 1.523 . S
C1132 C1116 1.368 1_455 S
C1132 C1128 1.368 . S
C1132 C1131 1.523 . S
H1133 C1108 0.950 . S
H1134 C1110 0.950 . S
H1135 C1111 0.949 . S
H1136 C1113 0.950 . S
H1137 C1115 0.950 . S
C1138 C1139 1.349 1_565 S
C1138 C1140 1.327 . S
C1138 H1163 0.950 . S
C1139 C1138 1.349 1_545 S
C1139 C1155 1.349 . S
C1140 C1138 1.327 . S
C1140 C1159 1.429 1_565 S
C1140 H1164 0.950 . S
C1141 C1158 1.574 . S
C1141 C1160 1.368 . S
C1141 H1165 0.949 . S
H1142 C1146 0.949 . S
C1143 C1144 1.349 . S
C1143 C1145 1.327 . S
C1143 H1166 0.950 . S
C1144 C1143 1.349 . S
C1144 C1156 1.349 1_545 S
C1145 C1143 1.327 . S
C1145 C1161 1.429 . S
C1145 H1167 0.950 . S
C1146 H1142 0.949 . S
C1146 C1154 1.574 . S
C1146 C1162 1.368 1_565 S
H1147 C1155 0.950 . S
H1148 C1153 0.950 . S
H1149 C1154 0.949 . S
H1150 C1156 0.950 . S
H1151 C1157 0.950 . S
H1152 C1158 0.949 . S
C1153 H1148 0.950 . S
C1153 C1155 1.327 . S
C1153 C1159 1.429 . S
C1154 C1146 1.574 . S
C1154 H1149 0.949 . S
C1154 C1160 1.368 1_565 S
C1155 C1139 1.349 . S
C1155 H1147 0.950 . S
C1155 C1153 1.327 . S
C1156 C1144 1.349 1_565 S
C1156 H1150 0.950 . S
C1156 C1157 1.327 . S
C1157 H1151 0.950 . S
C1157 C1156 1.327 . S
C1157 C1161 1.429 1_565 S
C1158 C1141 1.574 . S
C1158 H1152 0.949 . S
C1158 C1162 1.368 . S
C1159 C1140 1.429 1_545 S
C1159 C1153 1.429 . S
C1159 C1160 1.523 . S
C1160 C1141 1.368 . S
C1160 C1154 1.368 1_545 S
C1160 C1159 1.523 . S
C1161 C1145 1.429 . S
C1161 C1157 1.429 1_545 S
C1161 C1162 1.523 . S
C1162 C1146 1.368 1_545 S
C1162 C1158 1.368 . S
C1162 C1161 1.523 . S
H1163 C1138 0.950 . S
H1164 C1140 0.950 . S
H1165 C1141 0.949 . S
H1166 C1143 0.950 . S
H1167 C1145 0.950 . S
C209 C5 1.080 . S
C214 C127 1.106 . S
C239 C140 1.106 . S
C244 C18 1.080 . S
C269 C147 1.106 . S
C274 C31 1.081 . S
C299 C114 1.106 . S
C304 C42 1.080 . S
C329 C57 1.080 . S
C334 C205 1.106 . S
C359 C160 1.106 . S
C364 C70 1.080 . S
C389 C173 1.106 . S
C394 C81 1.080 . S
C419 C186 1.106 . S
C424 C96 1.081 . S
C449 C109 1.080 . S
C454 C23 1.106 . S
C479 C122 1.080 . S
C484 C36 1.106 . S
C509 C135 1.081 . S
C514 C43 1.106 . S
C539 C10 1.106 . S
C544 C146 1.080 . S
C569 C159 1.080 . S
C574 C101 1.106 . S
C599 C172 1.080 . S
C604 C62 1.106 . S
C629 C75 1.106 . S
C634 C185 1.080 . S
C659 C200 1.081 . S
C664 C82 1.106 . S
C689 C108 1.562 . S
C694 C4 1.562 . S
C719 C17 1.562 . S
C724 C121 1.562 . S
C749 C134 1.562 1_655 S
C754 C30 1.562 1_455 S
C779 C49 1.561 1_545 S
C784 C153 1.561 1_565 S
C809 C166 1.562 . S
C814 C56 1.562 . S
C839 C69 1.562 . S
C844 C179 1.562 . S
C869 C192 1.561 1_655 S
C874 C88 1.561 1_455 S
C899 C199 1.562 1_565 S
C904 C95 1.562 1_545 S
C929 C55 1.745 . S
C934 C3 1.745 . S
C959 C68 1.745 . S
C964 C16 1.745 . S
C989 C29 1.745 . S
C994 C83 1.745 . S
C1019 C94 1.744 . S
C1024 C44 1.744 . S
C1049 C107 1.745 . S
C1054 C161 1.745 . S
C1079 C174 1.745 . S
C1084 C120 1.745 . S
C1109 C187 1.745 . S
C1114 C133 1.745 . S
C1139 C198 1.744 . S
C1144 C148 1.744 . S
