# Generated by pormake.
# Topology wgu, (5)-cn, num edge types: 1
# Building blocks:
#     Node 0, Type 0, BuildingBlock: XOMCOT_clean_sbu_0, # of connection points: 5
#     Node 1, Type 0, BuildingBlock: XOMCOT_clean_sbu_0, # of connection points: 5
#     Node 2, Type 0, BuildingBlock: XOMCOT_clean_sbu_0, # of connection points: 5
#     Node 3, Type 0, BuildingBlock: XOMCOT_clean_sbu_0, # of connection points: 5
#     Node 4, Type 0, BuildingBlock: XOMCOT_clean_sbu_0, # of connection points: 5
#     Node 5, Type 0, BuildingBlock: XOMCOT_clean_sbu_0, # of connection points: 5
#     Node 6, Type 0, BuildingBlock: XOMCOT_clean_sbu_0, # of connection points: 5
#     Node 7, Type 0, BuildingBlock: XOMCOT_clean_sbu_0, # of connection points: 5
#     Edge 8, Type (0, 0), BuildingBlock: ZUJKAS_clean_linker_0, # of connection points: 2
#     Edge 9, Type (0, 0), BuildingBlock: ZUJKAS_clean_linker_0, # of connection points: 2
#     Edge 10, Type (0, 0), BuildingBlock: ZUJKAS_clean_linker_0, # of connection points: 2
#     Edge 11, Type (0, 0), BuildingBlock: ZUJKAS_clean_linker_0, # of connection points: 2
#     Edge 12, Type (0, 0), BuildingBlock: ZUJKAS_clean_linker_0, # of connection points: 2
#     Edge 13, Type (0, 0), BuildingBlock: ZUJKAS_clean_linker_0, # of connection points: 2
#     Edge 14, Type (0, 0), BuildingBlock: ZUJKAS_clean_linker_0, # of connection points: 2
#     Edge 15, Type (0, 0), BuildingBlock: ZUJKAS_clean_linker_0, # of connection points: 2
#     Edge 16, Type (0, 0), BuildingBlock: ZUJKAS_clean_linker_0, # of connection points: 2
#     Edge 17, Type (0, 0), BuildingBlock: ZUJKAS_clean_linker_0, # of connection points: 2
#     Edge 18, Type (0, 0), BuildingBlock: ZUJKAS_clean_linker_0, # of connection points: 2
#     Edge 19, Type (0, 0), BuildingBlock: ZUJKAS_clean_linker_0, # of connection points: 2
#     Edge 20, Type (0, 0), BuildingBlock: ZUJKAS_clean_linker_0, # of connection points: 2
#     Edge 21, Type (0, 0), BuildingBlock: ZUJKAS_clean_linker_0, # of connection points: 2
#     Edge 22, Type (0, 0), BuildingBlock: ZUJKAS_clean_linker_0, # of connection points: 2
#     Edge 23, Type (0, 0), BuildingBlock: ZUJKAS_clean_linker_0, # of connection points: 2
#     Edge 24, Type (0, 0), BuildingBlock: ZUJKAS_clean_linker_0, # of connection points: 2
#     Edge 25, Type (0, 0), BuildingBlock: ZUJKAS_clean_linker_0, # of connection points: 2
#     Edge 26, Type (0, 0), BuildingBlock: ZUJKAS_clean_linker_0, # of connection points: 2
#     Edge 27, Type (0, 0), BuildingBlock: ZUJKAS_clean_linker_0, # of connection points: 2
# Relax obj value: 0.139
# Max RMSD: 0.148
# Mean RMSD: 0.148
data_MOF--net-wgu--node1-XOMCOT_clean_sbu_0--edge1-ZUJKAS_clean_linker_0
_symmetry_space_group_name_H-M    P1
_symmetry_Int_Tables_number       1
_symmetry_cell_setting            triclinic
loop_
_symmetry_equiv_pos_as_xyz
'x, y, z'
_cell_length_a     41.452824
_cell_length_b     41.486197
_cell_length_c     37.689435
_cell_angle_alpha  90.021523
_cell_angle_beta   89.997602
_cell_angle_gamma 89.959818
loop_
_atom_site_label
_atom_site_type_symbol
_atom_site_fract_x
_atom_site_fract_y
_atom_site_fract_z
_atom_type_partial_charge
Co0 Co 0.30694 0.37368 0.04966 0.0
C1 C 0.32555 0.30506 0.04557 0.0
C2 C 0.35947 0.33215 0.07621 0.0
C3 C 0.36732 0.29985 0.07871 0.0
N4 N 0.33336 0.33537 0.0551 0.0
N5 N 0.34588 0.28299 0.05926 0.0
H6 H 0.304 0.29864 0.0314 0.0
H7 H 0.37103 0.35176 0.09021 0.0
C8 C 0.37207 0.39169 0.0205 0.0
O9 O 0.37415 0.36281 1.00637 0.0
N10 N 0.27984 0.41113 0.045 0.0
C11 C 0.24866 0.41028 0.03509 0.0
C12 C 0.23637 0.4409 0.03642 0.0
C13 C 0.28623 0.4423 0.05238 0.0
N14 N 0.25987 0.46104 0.04741 0.0
C15 C 0.27283 0.34048 0.99467 0.0
C16 C 0.29889 0.37227 0.93713 0.0
C17 C 0.27547 0.34847 0.93129 0.0
C18 C 0.26233 0.33271 0.96066 0.0
C19 C 0.30849 0.37967 0.97192 0.0
N20 N 0.29653 0.36282 1.00026 0.0
H21 H 0.26122 0.32858 0.01661 0.0
H22 H 0.32462 0.3997 0.97571 0.0
H23 H 0.23557 0.38876 0.02776 0.0
H24 H 0.30933 0.45092 0.06182 0.0
O25 O 0.27173 0.35162 0.07302 0.0
O26 O 0.30931 0.38009 0.10062 0.0
O27 O 0.34624 0.40028 0.03655 0.0
C28 C 0.28352 0.36234 0.10264 0.0
H29 H 0.38653 0.28955 0.09452 0.0
H30 H 0.21201 0.44782 0.0294 0.0
H31 H 0.30888 0.38576 0.91513 0.0
H32 H 0.24394 0.3144 0.95746 0.0
Co33 Co 0.62897 0.30898 0.55478 0.0
C34 C 0.69479 0.31536 0.52768 0.0
C35 C 0.68468 0.35217 0.56599 0.0
C36 C 0.71707 0.35322 0.55781 0.0
N37 N 0.67055 0.32887 0.54642 0.0
N38 N 0.72336 0.32981 0.53397 0.0
H39 H 0.69199 0.29396 0.51161 0.0
H40 H 0.67263 0.3662 0.58625 0.0
C41 C 0.61196 0.37764 0.53141 0.0
O42 O 0.64182 0.38319 0.52166 0.0
N43 N 0.58781 0.28802 0.56361 0.0
C44 C 0.57769 0.2736 0.59373 0.0
C45 C 0.5475 0.26103 0.58828 0.0
C46 C 0.56325 0.28425 0.54038 0.0
N47 N 0.5384 0.26765 0.55473 0.0
C48 C 0.63085 0.26059 0.50129 0.0
C49 C 0.63576 0.30109 0.44342 0.0
C50 C 0.64088 0.26794 0.43844 0.0
C51 C 0.63729 0.24752 0.46784 0.0
C52 C 0.62965 0.3132 0.47737 0.0
N53 N 0.62834 0.29313 0.50603 0.0
H54 H 0.6294 0.24459 0.52384 0.0
H55 H 0.62761 0.33879 0.4804 0.0
H56 H 0.59105 0.27183 0.61822 0.0
H57 H 0.56356 0.29354 0.51356 0.0
O58 O 0.65197 0.27346 0.57635 0.0
O59 O 0.63447 0.31653 0.60527 0.0
O60 O 0.60359 0.34971 0.54269 0.0
C61 C 0.65003 0.28921 0.60609 0.0
H62 H 0.73498 0.36835 0.57043 0.0
H63 H 0.53368 0.24738 0.60743 0.0
H64 H 0.6374 0.3178 0.42142 0.0
H65 H 0.64105 0.22177 0.46556 0.0
Co66 Co 0.7074 0.63375 0.04663 0.0
C67 C 0.6873 0.69905 0.02619 0.0
C68 C 0.65125 0.67629 0.05822 0.0
C69 C 0.6426 0.7081 0.05312 0.0
N70 N 0.67919 0.67062 0.04095 0.0
N71 N 0.66544 0.72229 0.03298 0.0
H72 H 0.71016 0.70364 0.01359 0.0
H73 H 0.63896 0.659 0.0749 0.0
C74 C 0.64566 0.60801 0.01533 0.0
O75 O 0.64337 0.63451 0.99642 0.0
N76 N 0.7366 0.59757 0.05268 0.0
C77 C 0.76529 0.59808 0.06972 0.0
C78 C 0.78132 0.5698 0.06325 0.0
C79 C 0.73569 0.56867 0.03607 0.0
N80 N 0.76285 0.55145 0.04198 0.0
C81 C 0.74795 0.65822 0.99147 0.0
C82 C 0.72266 0.62399 0.93524 0.0
C83 C 0.74703 0.64663 0.92863 0.0
C84 C 0.76003 0.66338 0.95747 0.0
C85 C 0.7114 0.61932 0.96996 0.0
N86 N 0.72278 0.63764 0.99748 0.0
H87 H 0.75865 0.67171 0.01285 0.0
H88 H 0.69408 0.60048 0.97421 0.0
H89 H 0.77494 0.61798 0.08481 0.0
H90 H 0.71645 0.56105 0.01859 0.0
O91 O 0.73788 0.6623 0.06959 0.0
O92 O 0.69979 0.63522 0.09762 0.0
O93 O 0.67079 0.60296 0.03439 0.0
C94 C 0.72356 0.65563 0.09932 0.0
H95 H 0.62193 0.72012 0.06466 0.0
H96 H 0.80508 0.56343 0.07292 0.0
H97 H 0.71275 0.60963 0.91386 0.0
H98 H 0.779 0.68101 0.95378 0.0
Co99 Co 0.36664 0.70932 0.55027 0.0
C100 C 0.29966 0.6862 0.54248 0.0
C101 C 0.32808 0.65337 0.57308 0.0
C102 C 0.29623 0.64364 0.57458 0.0
N103 N 0.33019 0.68005 0.55271 0.0
N104 N 0.27854 0.66443 0.55518 0.0
H105 H 0.29217 0.70769 0.52891 0.0
H106 H 0.34799 0.64289 0.58762 0.0
C107 C 0.39038 0.64668 0.52033 0.0
O108 O 0.36294 0.64434 0.50307 0.0
N109 N 0.4023 0.73912 0.54852 0.0
C110 C 0.39928 0.7712 0.54434 0.0
C111 C 0.42944 0.78458 0.5422 0.0
C112 C 0.43434 0.73328 0.54871 0.0
N113 N 0.45154 0.76078 0.5447 0.0
C114 C 0.33396 0.7409 0.49309 0.0
C115 C 0.374 0.72138 0.4387 0.0
C116 C 0.34807 0.74197 0.43081 0.0
C117 C 0.32796 0.75158 0.45871 0.0
C118 C 0.37904 0.71101 0.47373 0.0
N119 N 0.35827 0.71964 0.50034 0.0
H120 H 0.31924 0.75068 0.51403 0.0
H121 H 0.40048 0.69724 0.47935 0.0
H122 H 0.37664 0.78404 0.54234 0.0
H123 H 0.4448 0.70947 0.5507 0.0
O124 O 0.3402 0.74215 0.57228 0.0
O125 O 0.3702 0.70711 0.60165 0.0
O126 O 0.39646 0.67197 0.53862 0.0
C127 C 0.34992 0.73107 0.60265 0.0
H128 H 0.28669 0.62381 0.58999 0.0
H129 H 0.43456 0.80998 0.53899 0.0
H130 H 0.39098 0.71429 0.41829 0.0
H131 H 0.30775 0.76763 0.45424 0.0
Co132 Co 0.79539 0.13827 0.98327 0.0
C133 C 0.82072 0.20458 0.99036 0.0
C134 C 0.85195 0.17526 0.95873 0.0
C135 C 0.86309 0.20665 0.95773 0.0
N136 N 0.82541 0.17401 0.97946 0.0
N137 N 0.84335 0.22486 0.97787 0.0
H138 H 0.7999 0.21282 1.00465 0.0
H139 H 0.86158 0.15508 0.94395 0.0
C140 C 0.85775 0.1141 0.01296 0.0
O141 O 0.85992 0.1413 0.03069 0.0
N142 N 0.76482 0.10339 0.98658 0.0
C143 C 0.73322 0.10742 0.99363 0.0
C144 C 0.71925 0.07776 0.99806 0.0
C145 C 0.76977 0.07121 0.98668 0.0
N146 N 0.7422 0.05504 0.99386 0.0
C147 C 0.76623 0.17278 0.04086 0.0
C148 C 0.78575 0.13271 0.09519 0.0
C149 C 0.76753 0.1602 0.10342 0.0
C150 C 0.75741 0.18005 0.0756 0.0
C151 C 0.79449 0.12657 0.05985 0.0
N152 N 0.78628 0.14755 0.03329 0.0
H153 H 0.75613 0.18734 0.01995 0.0
H154 H 0.80694 0.10437 0.054 0.0
H155 H 0.72128 0.13045 0.99654 0.0
H156 H 0.79308 0.05993 0.98306 0.0
O157 O 0.7626 0.16498 0.96151 0.0
O158 O 0.79656 0.13379 0.93202 0.0
O159 O 0.83253 0.1081 0.99449 0.0
C160 C 0.77298 0.1545 0.93111 0.0
H161 H 0.88334 0.21555 0.94249 0.0
H162 H 0.69417 0.07324 1.00432 0.0
H163 H 0.79307 0.11604 0.11579 0.0
H164 H 0.74185 0.20057 0.08048 0.0
Co165 Co 0.87427 0.80512 0.47494 0.0
C166 C 0.80897 0.81863 0.50029 0.0
C167 C 0.8242 0.85418 0.4626 0.0
C168 C 0.79181 0.85845 0.46915 0.0
N169 N 0.83508 0.82948 0.48261 0.0
N170 N 0.78227 0.8359 0.49268 0.0
H171 H 0.80878 0.79652 0.51551 0.0
H172 H 0.8384 0.86691 0.44303 0.0
C173 C 0.89739 0.87128 0.50019 0.0
O174 O 0.8682 0.87894 0.51068 0.0
N175 N 0.91293 0.77968 0.46674 0.0
C176 C 0.91816 0.75774 0.4409 0.0
C177 C 0.94755 0.74346 0.44633 0.0
C178 C 0.93944 0.77828 0.48758 0.0
N179 N 0.96102 0.75629 0.47565 0.0
C180 C 0.86925 0.75655 0.52776 0.0
C181 C 0.86502 0.79639 0.58629 0.0
C182 C 0.85948 0.76328 0.59069 0.0
C183 C 0.86258 0.74318 0.56098 0.0
C184 C 0.87174 0.80876 0.5526 0.0
N185 N 0.87284 0.78905 0.5236 0.0
H186 H 0.87032 0.74082 0.50493 0.0
H187 H 0.8746 0.83426 0.55011 0.0
H188 H 0.90169 0.75147 0.41986 0.0
H189 H 0.94254 0.79276 0.51122 0.0
O190 O 0.84769 0.77236 0.45311 0.0
O191 O 0.87026 0.81303 0.42431 0.0
O192 O 0.9034 0.84322 0.48742 0.0
C193 C 0.85165 0.78772 0.42336 0.0
H194 H 0.77618 0.87567 0.45612 0.0
H195 H 0.95759 0.72418 0.43044 0.0
H196 H 0.86351 0.81278 0.6086 0.0
H197 H 0.8584 0.71748 0.56297 0.0
Co198 Co 0.20033 0.88064 0.97872 0.0
C199 C 0.19089 0.81549 1.00612 0.0
C200 C 0.15266 0.82845 0.97061 0.0
C201 C 0.14969 0.79627 0.97892 0.0
N202 N 0.17815 0.84063 0.98832 0.0
N203 N 0.17399 0.78807 1.00104 0.0
H204 H 0.21383 0.81663 0.0197 0.0
H205 H 0.13822 0.84168 0.95165 0.0
C206 C 0.13401 0.90132 1.00617 0.0
O207 O 0.12857 0.87245 0.01906 0.0
N208 N 0.22353 0.92027 0.96871 0.0
C209 C 0.24127 0.92755 0.93978 0.0
C210 C 0.25533 0.95713 0.9446 0.0
C211 C 0.22696 0.94583 0.99063 0.0
N212 N 0.24642 0.9687 0.97658 0.0
C213 C 0.25065 0.8761 0.02951 0.0
C214 C 0.21304 0.8741 0.08995 0.0
C215 C 0.24593 0.8666 0.09264 0.0
C216 C 0.26497 0.86871 0.06204 0.0
C217 C 0.19959 0.8811 0.05677 0.0
N218 N 0.21811 0.88074 0.02678 0.0
H219 H 0.26562 0.87668 1.00607 0.0
H220 H 0.17419 0.88534 0.05556 0.0
H221 H 0.24468 0.91249 0.91675 0.0
H222 H 0.21567 0.94739 0.01645 0.0
O223 O 0.23368 0.85527 0.95622 0.0
O224 O 0.19101 0.8751 0.92848 0.0
O225 O 0.16121 0.90818 0.99178 0.0
C226 C 0.21726 0.8578 0.927 0.0
H227 H 0.13189 0.77996 0.96807 0.0
H228 H 0.27175 0.96864 0.92626 0.0
H229 H 0.19745 0.87292 0.11297 0.0
H230 H 0.29064 0.86386 0.06305 0.0
Co231 Co 0.13938 0.20368 0.47354 0.0
C232 C 0.20773 0.18847 0.45945 0.0
C233 C 0.18005 0.14507 0.45912 0.0
C234 C 0.21195 0.13733 0.45261 0.0
N235 N 0.1776 0.17716 0.46498 0.0
N236 N 0.22904 0.16486 0.45255 0.0
H237 H 0.21429 0.21363 0.45985 0.0
H238 H 0.16021 0.12826 0.45843 0.0
C239 C 0.11736 0.14116 0.50726 0.0
O240 O 0.1431 0.14109 0.52761 0.0
N241 N 0.10221 0.23075 0.48112 0.0
C242 C 0.10353 0.26096 0.49404 0.0
C243 C 0.07289 0.27334 0.49514 0.0
C244 C 0.07077 0.22504 0.47434 0.0
N245 N 0.05226 0.25088 0.48266 0.0
C246 C 0.18021 0.22645 0.52953 0.0
C247 C 0.13878 0.21422 0.58527 0.0
C248 C 0.16871 0.22871 0.59243 0.0
C249 C 0.18933 0.23496 0.56383 0.0
C250 C 0.13057 0.20606 0.55029 0.0
N251 N 0.15172 0.21113 0.52297 0.0
H252 H 0.19556 0.23387 0.50817 0.0
H253 H 0.10686 0.19632 0.5451 0.0
H254 H 0.12538 0.2731 0.50227 0.0
H255 H 0.06177 0.20275 0.4632 0.0
O256 O 0.16085 0.24023 0.45221 0.0
O257 O 0.13181 0.20405 0.42288 0.0
O258 O 0.11263 0.1642 0.48529 0.0
C259 C 0.14962 0.22988 0.42209 0.0
H260 H 0.22171 0.11355 0.44757 0.0
H261 H 0.06629 0.29694 0.50502 0.0
H262 H 0.12174 0.20943 0.60639 0.0
H263 H 0.21192 0.2476 0.5676 0.0
H264 H 0.26954 0.02135 0.94244 0.0
H265 H 0.29083 0.07033 0.96898 0.0
H266 H 0.26799 0.03443 0.07324 0.0
H267 H 0.24753 0.98432 0.04697 0.0
H268 H 0.24665 0.10346 0.05087 0.0
H269 H 0.37675 0.0755 0.03335 0.0
H270 H 0.35138 0.06623 0.99597 0.0
H271 H 0.34615 0.0446 0.03683 0.0
C272 C 0.26937 0.02342 0.97104 0.0
C273 C 0.25712 0.99851 0.9925 0.0
C274 C 0.28148 0.05157 0.98614 0.0
C275 C 0.28142 0.05566 0.023 0.0
C276 C 0.26846 0.03146 0.04469 0.0
H277 H 0.36133 0.23792 0.10895 0.0
H278 H 0.34785 0.18018 0.1068 0.0
C279 C 0.25655 1.00298 0.02957 0.0
C280 C 0.29413 0.08593 0.03811 0.0
H281 H 0.36289 0.13109 0.04168 0.0
C282 C 0.27214 0.1093 0.0498 0.0
C283 C 0.32739 0.09333 0.03668 0.0
C284 C 0.35192 0.06855 0.02531 0.0
C285 C 0.28239 0.14071 0.05776 0.0
C286 C 0.31533 0.14872 0.05387 0.0
C287 C 0.33763 0.12478 0.04454 0.0
C288 C 0.32605 0.18262 0.05475 0.0
C289 C 0.25777 0.16566 0.06847 0.0
C290 C 0.31914 0.20253 0.02575 0.0
C291 C 0.32703 0.23514 0.02673 0.0
C292 C 0.34186 0.24857 0.05684 0.0
C293 C 0.35009 0.22823 0.08533 0.0
C294 C 0.34223 0.19538 0.08426 0.0
H295 H 0.23473 0.15445 0.07709 0.0
H296 H 0.26723 0.18094 0.09032 0.0
H297 H 0.25268 0.1816 0.04549 0.0
H298 H 0.30702 0.19291 1.00258 0.0
H299 H 0.32095 0.25003 1.00412 0.0
H300 H 0.01887 0.30629 0.47382 0.0
H301 H 0.96065 0.31333 0.47633 0.0
H302 H 0.94832 0.21049 0.48605 0.0
H303 H 0.00708 0.20334 0.48514 0.0
H304 H 0.91109 0.29143 0.43556 0.0
H305 H 0.90124 0.24383 0.57318 0.0
H306 H 0.93955 0.25302 0.55291 0.0
H307 H 0.91855 0.21661 0.54137 0.0
C308 C 1.00389 0.28512 0.47675 0.0
C309 C 0.01772 0.25429 0.48005 0.0
C310 C 0.97053 0.28918 0.47782 0.0
C311 C 0.95015 0.26252 0.48208 0.0
C312 C 0.96367 0.23147 0.48353 0.0
H313 H 0.7418 0.26836 0.51994 0.0
H314 H 0.79577 0.24985 0.50342 0.0
C315 C 0.99722 0.22738 0.48262 0.0
C316 C 0.91499 0.26791 0.48634 0.0
H317 H 0.85346 0.26223 0.54633 0.0
C318 C 0.89841 0.28479 0.45965 0.0
C319 C 0.89852 0.25934 0.51788 0.0
C320 C 0.91534 0.24244 0.54815 0.0
C321 C 0.86603 0.2939 0.46395 0.0
C322 C 0.84992 0.28604 0.49579 0.0
C323 C 0.86603 0.26818 0.52195 0.0
C324 C 0.81683 0.29751 0.50333 0.0
C325 C 0.84932 0.31214 0.43461 0.0
C326 C 0.81091 0.33045 0.5088 0.0
C327 C 0.7801 0.34112 0.51835 0.0
C328 C 0.75469 0.31903 0.52241 0.0
C329 C 0.76068 0.28607 0.51642 0.0
C330 C 0.79154 0.2754 0.50719 0.0
H331 H 0.86243 0.30996 0.40901 0.0
H332 H 0.82426 0.30329 0.43098 0.0
H333 H 0.8481 0.33806 0.44178 0.0
H334 H 0.83028 0.34782 0.50642 0.0
H335 H 0.77614 0.36661 0.52269 0.0
H336 H 0.70217 0.02592 0.04014 0.0
H337 H 0.69115 0.9683 0.04504 0.0
H338 H 0.76094 0.94887 0.96291 0.0
H339 H 0.772 0.007 0.95772 0.0
H340 H 0.69501 0.92024 0.95485 0.0
H341 H 0.75169 0.89606 0.08578 0.0
H342 H 0.72618 0.9311 0.08387 0.0
H343 H 0.7628 0.93007 0.05843 0.0
C344 C 0.71523 0.0094 0.02315 0.0
C345 C 0.73779 0.0209 0.99835 0.0
C346 C 0.7091 0.9765 0.02619 0.0
C347 C 0.72537 0.95443 1.00449 0.0
C348 C 0.74827 0.96564 0.97999 0.0
H349 H 0.69745 0.74822 0.97742 0.0
H350 H 0.71124 0.80485 0.96891 0.0
C351 C 0.75468 0.9987 0.97717 0.0
C352 C 0.71704 0.91985 1.00654 0.0
H353 H 0.71735 0.85541 0.0627 0.0
C354 C 0.70014 0.90587 0.97822 0.0
C355 C 0.72352 0.90147 0.03726 0.0
C356 C 0.74226 0.91526 0.06803 0.0
C357 C 0.68873 0.87406 0.98021 0.0
C358 C 0.69503 0.85567 0.01107 0.0
C359 C 0.71234 0.86962 0.03918 0.0
C360 C 0.68451 0.82169 0.01463 0.0
C361 C 0.66917 0.86082 0.94975 0.0
C362 C 0.66501 0.81226 0.04328 0.0
C363 C 0.65745 0.77976 0.04851 0.0
C364 C 0.66948 0.75609 0.0253 0.0
C365 C 0.6881 0.76581 0.99598 0.0
C366 C 0.69572 0.79824 0.99084 0.0
H367 H 0.65865 0.88041 0.9333 0.0
H368 H 0.68507 0.84613 0.93242 0.0
H369 H 0.6493 0.84518 0.95943 0.0
H370 H 0.65623 0.83 0.06204 0.0
H371 H 0.64338 0.7731 0.07154 0.0
H372 H 0.0114 0.72792 0.44217 0.0
H373 H 0.06123 0.70857 0.46863 0.0
H374 H 0.03116 0.74461 0.57064 0.0
H375 H 0.98018 0.7633 0.54455 0.0
H376 H 0.09815 0.76122 0.54438 0.0
H377 H 0.06971 0.63059 0.54114 0.0
H378 H 0.05994 0.65191 0.50101 0.0
H379 H 0.03892 0.6615 0.54136 0.0
C380 C 0.01493 0.7314 0.47034 0.0
C381 C 0.99139 0.74681 0.49126 0.0
C382 C 0.04355 0.72035 0.48539 0.0
C383 C 0.04949 0.72461 0.52164 0.0
C384 C 0.02671 0.74081 0.54263 0.0
H385 H 0.23419 0.64818 0.60531 0.0
H386 H 0.17622 0.66098 0.60384 0.0
C387 C 0.99775 0.75169 0.52759 0.0
C388 C 0.08033 0.71301 0.53662 0.0
H389 H 0.12588 0.64475 0.54428 0.0
C390 C 0.10404 0.73575 0.54528 0.0
C391 C 0.0878 0.67976 0.53791 0.0
C392 C 0.06269 0.65445 0.53018 0.0
C393 C 0.13577 0.72611 0.55267 0.0
C394 C 0.14381 0.693 0.55121 0.0
C395 C 0.1196 0.67012 0.54513 0.0
C396 C 0.1778 0.68236 0.55155 0.0
C397 C 0.16092 0.75144 0.5603 0.0
C398 C 0.19729 0.68905 0.52211 0.0
C399 C 0.23002 0.68151 0.52272 0.0
C400 C 0.24398 0.66722 0.55284 0.0
C401 C 0.22406 0.65898 0.58168 0.0
C402 C 0.19108 0.66649 0.581 0.0
H403 H 0.1498 0.77463 0.56858 0.0
H404 H 0.17769 0.74318 0.58142 0.0
H405 H 0.1753 0.75583 0.53593 0.0
H406 H 0.18727 0.70082 0.49894 0.0
H407 H 0.24468 0.68763 0.49992 0.0
H408 H 0.72437 0.49957 0.03205 0.0
H409 H 0.742 0.44515 0.01476 0.0
H410 H 0.83913 0.48021 1.00082 0.0
H411 H 0.82175 0.53411 0.01878 0.0
H412 H 0.77285 0.41854 0.95584 0.0
H413 H 0.85032 0.41066 0.0757 0.0
H414 H 0.82096 0.44226 0.06959 0.0
H415 H 0.85941 0.44436 0.0476 0.0
C416 C 0.74933 0.49559 0.02481 0.0
C417 C 0.77186 0.52073 0.02739 0.0
C418 C 0.7594 0.46461 0.015 0.0
C419 C 0.79205 0.45853 1.00739 0.0
C420 C 0.81404 0.48418 1.00757 0.0
H421 H 0.86072 0.27006 0.92928 0.0
H422 H 0.85181 0.3285 0.9341 0.0
C423 C 0.8041 0.51492 0.01779 0.0
C424 C 0.80353 0.42516 1.00131 0.0
H425 H 0.85371 0.36752 0.03505 0.0
C426 C 0.79061 0.40736 0.97303 0.0
C427 C 0.82647 0.41058 0.02407 0.0
C428 C 0.8399 0.4278 0.05614 0.0
C429 C 0.79985 0.37522 0.96702 0.0
C430 C 0.8231 0.36082 0.98954 0.0
C431 C 0.83625 0.37878 0.01754 0.0
C432 C 0.83155 0.32619 0.987 0.0
C433 C 0.78376 0.35658 0.93755 0.0
C434 C 0.82466 0.30589 0.01573 0.0
C435 C 0.83016 0.27286 0.01322 0.0
C436 C 0.84264 0.25935 0.98191 0.0
C437 C 0.85117 0.27985 0.95375 0.0
C438 C 0.84567 0.31311 0.95629 0.0
H439 H 0.76188 0.36904 0.92746 0.0
H440 H 0.80091 0.35381 0.91514 0.0
H441 H 0.7768 0.33211 0.94671 0.0
H442 H 0.81405 0.3155 0.0398 0.0
H443 H 0.82384 0.25767 0.03552 0.0
H444 H 0.48397 0.80937 0.51253 0.0
H445 H 0.54206 0.81712 0.51007 0.0
H446 H 0.55655 0.72819 0.56694 0.0
H447 H 0.4979 0.7205 0.57052 0.0
H448 H 0.58649 0.81678 0.57538 0.0
H449 H 0.61263 0.72606 0.46993 0.0
H450 H 0.57324 0.74428 0.47436 0.0
H451 H 0.58657 0.71527 0.50637 0.0
C452 C 0.49928 0.79155 0.52498 0.0
C453 C 0.48609 0.76445 0.5421 0.0
C454 C 0.53255 0.79597 0.52331 0.0
C455 C 0.55343 0.77328 0.53837 0.0
C456 C 0.54066 0.7459 0.55507 0.0
H457 H 0.76247 0.80775 0.55367 0.0
H458 H 0.70744 0.79042 0.56835 0.0
C459 C 0.50719 0.7415 0.55693 0.0
C460 C 0.58856 0.77887 0.53645 0.0
H461 H 0.65549 0.75922 0.48838 0.0
C462 C 0.6018 0.80388 0.55684 0.0
C463 C 0.60815 0.76212 0.51196 0.0
C464 C 0.59464 0.73544 0.48919 0.0
C465 C 0.63413 0.81316 0.55268 0.0
C466 C 0.65348 0.79699 0.52748 0.0
C467 C 0.64047 0.77143 0.50775 0.0
C468 C 0.6866 0.80784 0.51937 0.0
C469 C 0.64707 0.84106 0.57403 0.0
C470 C 0.69287 0.82336 0.48709 0.0
C471 C 0.7241 0.83335 0.47872 0.0
C472 C 0.7497 0.8277 0.5024 0.0
C473 C 0.74324 0.81228 0.53489 0.0
C474 C 0.71189 0.80248 0.54334 0.0
H475 H 0.62795 0.85319 0.5898 0.0
H476 H 0.66596 0.83221 0.5925 0.0
H477 H 0.65845 0.85906 0.55618 0.0
H478 H 0.67357 0.82761 0.46827 0.0
H479 H 0.72831 0.84464 0.45327 0.0
H480 H 0.20579 0.4936 0.06502 0.0
H481 H 0.19798 0.55171 0.06398 0.0
H482 H 0.29897 0.56513 0.04069 0.0
H483 H 0.3067 0.50643 0.04017 0.0
H484 H 0.22318 0.60251 0.10024 0.0
H485 H 0.25525 0.6089 0.957 0.0
H486 H 0.2491 0.57112 0.97962 0.0
H487 H 0.28603 0.59311 0.98569 0.0
C488 C 0.22638 0.50884 0.05957 0.0
C489 C 0.25671 0.49538 0.05182 0.0
C490 C 0.22194 0.5421 0.05936 0.0
C491 C 0.24773 0.56272 0.05155 0.0
C492 C 0.27859 0.54957 0.04604 0.0
H493 H 0.21344 0.77206 0.05595 0.0
H494 H 0.23402 0.71852 0.07033 0.0
C495 C 0.28304 0.51609 0.04609 0.0
C496 C 0.24127 0.5976 0.04696 0.0
H497 H 0.23813 0.65678 0.98418 0.0
C498 C 0.22675 0.61456 0.075 0.0
C499 C 0.24556 0.61303 0.01382 0.0
C500 C 0.25958 0.59564 0.98216 0.0
C501 C 0.21551 0.64623 0.07051 0.0
C502 C 0.2196 0.66154 0.03728 0.0
C503 C 0.23505 0.64494 0.00962 0.0
C504 C 0.20642 0.69403 0.02975 0.0
C505 C 0.19804 0.66241 0.10081 0.0
C506 C 0.18434 0.69815 1.00191 0.0
C507 C 0.173 0.7288 0.9931 0.0
C508 C 0.18352 0.7561 0.01199 0.0
C509 C 0.2051 0.75174 0.04049 0.0
C510 C 0.21663 0.72105 0.04908 0.0
H511 H 0.19002 0.64475 0.12114 0.0
H512 H 0.21452 0.67981 0.11387 0.0
H513 H 0.17662 0.67587 0.09112 0.0
H514 H 0.17617 0.67759 0.98661 0.0
H515 H 0.15678 0.73103 0.97078 0.0
H516 H 0.27548 0.12953 0.48419 0.0
H517 H 0.33219 0.14552 0.49106 0.0
H518 H 0.31631 0.22624 0.42107 0.0
H519 H 0.25956 0.21072 0.41501 0.0
H520 H 0.38601 0.15988 0.44754 0.0
H521 H 0.33817 0.26855 0.51607 0.0
H522 H 0.31297 0.23476 0.50449 0.0
H523 H 0.32439 0.26365 0.47124 0.0
C524 C 0.28447 0.15007 0.46949 0.0
C525 C 0.26328 0.1692 0.44949 0.0
C526 C 0.31675 0.15926 0.47348 0.0
C527 C 0.32818 0.18752 0.45725 0.0
C528 C 0.30776 0.20478 0.43446 0.0
H529 H 0.52758 0.25791 0.48426 0.0
H530 H 0.47733 0.23926 0.45676 0.0
C531 C 0.27547 0.19587 0.43089 0.0
C532 C 0.35996 0.20095 0.46747 0.0
H533 H 0.39449 0.26466 0.51038 0.0
C534 C 0.38799 0.18288 0.46107 0.0
C535 C 0.36231 0.23077 0.48559 0.0
C536 C 0.33288 0.25048 0.4951 0.0
C537 C 0.41837 0.19374 0.47261 0.0
C538 C 0.42066 0.22365 0.49052 0.0
C539 C 0.39267 0.24188 0.49637 0.0
C540 C 0.45124 0.23533 0.50632 0.0
C541 C 0.44751 0.17259 0.4668 0.0
C542 C 0.45291 0.24029 0.54307 0.0
C543 C 0.48125 0.25141 0.55871 0.0
C544 C 0.50871 0.2578 0.53797 0.0
C545 C 0.50686 0.25339 0.50098 0.0
C546 C 0.4783 0.24231 0.48528 0.0
H547 H 0.44066 0.14761 0.45929 0.0
H548 H 0.46237 0.1828 0.44506 0.0
H549 H 0.46266 0.17162 0.49108 0.0
H550 H 0.43222 0.23534 0.55978 0.0
H551 H 0.48155 0.2551 0.58712 0.0
H552 H 0.58798 0.61339 0.98072 0.0
H553 H 0.54251 0.57612 0.98158 0.0
H554 H 0.59659 0.51109 0.04812 0.0
H555 H 0.64222 0.54869 0.04797 0.0
H556 H 0.53664 0.51432 0.95927 0.0
H557 H 0.51349 0.52116 0.10406 0.0
H558 H 0.54008 0.54882 0.0815 0.0
H559 H 0.55381 0.50901 0.09288 0.0
C560 C 0.59036 0.59115 0.99554 0.0
C561 C 0.61881 0.58419 0.01444 0.0
C562 C 0.56423 0.56982 0.99598 0.0
C563 C 0.56579 0.54099 0.01539 0.0
C564 C 0.59445 0.53352 0.03362 0.0
H565 H 0.43154 0.38025 0.99138 0.0
H566 H 0.47811 0.41626 0.98971 0.0
C567 C 0.62064 0.55495 0.03329 0.0
C568 C 0.5374 0.51889 0.01616 0.0
H569 H 0.48304 0.48277 0.07165 0.0
C570 C 0.52494 0.50742 0.98386 0.0
C571 C 0.52173 0.51026 0.04819 0.0
C572 C 0.53271 0.52316 0.08362 0.0
C573 C 0.49758 0.48739 0.9827 0.0
C574 C 0.48249 0.47799 0.01478 0.0
C575 C 0.49472 0.48973 0.04707 0.0
C576 C 0.4539 0.45616 0.01543 0.0
C577 C 0.48465 0.47711 0.94702 0.0
C578 C 0.42482 0.46623 0.0311 0.0
C579 C 0.3981 0.44556 0.03231 0.0
C580 C 0.39991 0.41425 0.01801 0.0
C581 C 0.4291 0.40425 1.00237 0.0
C582 C 0.45579 0.42491 1.00124 0.0
H583 H 0.49304 0.49333 0.92547 0.0
H584 H 0.49338 0.45243 0.94095 0.0
H585 H 0.45787 0.47677 0.94697 0.0
H586 H 0.42277 0.49018 0.04236 0.0
H587 H 0.37609 0.45407 0.04467 0.0
H588 H 0.62172 0.43887 0.50693 0.0
H589 H 0.58329 0.48335 0.50457 0.0
H590 H 0.50902 0.4216 0.5468 0.0
H591 H 0.54758 0.37678 0.54968 0.0
H592 H 0.52559 0.4893 0.46844 0.0
H593 H 0.50636 0.49935 0.61386 0.0
H594 H 0.53899 0.47621 0.59492 0.0
H595 H 0.49879 0.46004 0.59566 0.0
C596 C 0.59722 0.43459 0.51574 0.0
C597 C 0.58786 0.40416 0.52869 0.0
C598 C 0.57524 0.46014 0.51432 0.0
C599 C 0.54336 0.45604 0.52598 0.0
C600 C 0.53366 0.42556 0.5383 0.0
H601 H 0.38473 0.58943 0.4847 0.0
H602 H 0.42172 0.54356 0.48548 0.0
C603 C 0.55569 0.39988 0.53971 0.0
C604 C 0.52051 0.48379 0.52495 0.0
H605 H 0.47422 0.53282 0.57726 0.0
C606 C 0.5143 0.49877 0.49223 0.0
C607 C 0.50616 0.49648 0.55606 0.0
C608 C 0.51305 0.48244 0.5922 0.0
C609 C 0.49399 0.52586 0.48971 0.0
C610 C 0.47907 0.53812 0.5207 0.0
C611 C 0.48549 0.52332 0.55348 0.0
C612 C 0.45685 0.56636 0.51971 0.0
C613 C 0.48925 0.54154 0.45397 0.0
C614 C 0.46396 0.59439 0.53913 0.0
C615 C 0.44275 0.62074 0.53883 0.0
C616 C 0.41383 0.61951 0.5193 0.0
C617 C 0.40685 0.59139 0.49984 0.0
C618 C 0.42807 0.56511 0.50014 0.0
H619 H 0.5086 0.5347 0.435 0.0
H620 H 0.46586 0.5336 0.44266 0.0
H621 H 0.48874 0.56821 0.45641 0.0
H622 H 0.48597 0.59589 0.55453 0.0
H623 H 0.44888 0.64191 0.55424 0.0
H624 H 0.12505 0.9552 0.96495 0.0
H625 H 0.07881 0.99209 0.96571 0.0
H626 H 0.03837 0.94 0.05423 0.0
H627 H 0.0836 0.9024 0.05249 0.0
H628 H 0.9936 0.95005 1.00792 0.0
H629 H 0.05702 0.06597 0.0284 0.0
H630 H 0.07062 0.04527 0.9894 0.0
H631 H 0.07724 0.02766 0.03247 0.0
C632 C 0.10648 0.95192 0.98484 0.0
C633 C 0.10802 0.92587 0.00865 0.0
C634 C 0.08008 0.97314 0.9854 0.0
C635 C 0.05512 0.96923 0.01036 0.0
C636 C 0.05716 0.94362 0.03464 0.0
H637 H 0.90784 0.1118 0.06006 0.0
H638 H 0.95455 0.07582 0.05926 0.0
C639 C 0.08314 0.92214 0.03368 0.0
C640 C 0.02603 0.99056 0.01034 0.0
H641 H 1.00132 0.06915 0.01351 0.0
C642 C 0.99536 0.97611 0.00932 0.0
C643 C 0.02809 0.02459 0.01256 0.0
C644 C 0.06 0.04178 0.01615 0.0
C645 C 0.96688 0.99453 0.01051 0.0
C646 C 0.96894 0.02861 0.01143 0.0
C647 C 0.9996 0.04308 0.01248 0.0
C648 C 0.9397 0.0497 0.01228 0.0
C649 C 0.93496 0.97709 0.01192 0.0
C650 C 0.91555 0.04715 0.98621 0.0
C651 C 0.88842 0.06733 0.98704 0.0
C652 C 0.88521 0.09107 0.01347 0.0
C653 C 0.9095 0.09376 0.03936 0.0
C654 C 0.93633 0.07324 0.03885 0.0
H655 H 0.93778 0.95215 0.02223 0.0
H656 H 0.91735 0.99003 0.02895 0.0
H657 H 0.92488 0.97534 0.98472 0.0
H658 H 0.91789 0.02991 0.9648 0.0
H659 H 0.8704 0.06493 0.96638 0.0
H660 H 0.89881 0.92314 0.54438 0.0
H661 H 0.93814 0.96679 0.54596 0.0
H662 H 0.99312 0.92011 0.46346 0.0
H663 H 0.95425 0.87542 0.46277 0.0
H664 H 0.03255 0.94647 0.51125 0.0
H665 H 0.94112 0.03747 0.47422 0.0
H666 H 0.93019 0.01683 0.5142 0.0
H667 H 0.93286 0.99484 0.47305 0.0
C668 C 0.91936 0.92201 0.52667 0.0
C669 C 0.92318 0.89597 0.50312 0.0
C670 C 0.94174 0.94717 0.52741 0.0
C671 C 0.96809 0.9474 0.50401 0.0
C672 C 0.97279 0.92072 0.48151 0.0
H673 H 0.07231 0.12503 0.45727 0.0
H674 H 0.03793 0.07727 0.4556 0.0
C675 C 0.9506 0.89516 0.48116 0.0
C676 C 0.9903 0.9757 0.50287 0.0
H677 H 0.99135 0.05781 0.49546 0.0
C678 C 0.02357 0.9708 0.50756 0.0
C679 C 0.9788 0.00749 0.49729 0.0
C680 C 0.94385 0.01447 0.48901 0.0
C681 C 0.04545 0.99677 0.5077 0.0
C682 C 0.03367 0.02872 0.50418 0.0
C683 C 1.00048 0.03348 0.49871 0.0
C684 C 0.0552 0.05758 0.50531 0.0
C685 C 0.08101 0.98951 0.51079 0.0
C686 C 0.07617 0.06294 0.53405 0.0
C687 C 0.09626 0.0901 0.53481 0.0
C688 C 0.0953 0.11293 0.50724 0.0
C689 C 0.07366 0.108 0.479 0.0
C690 C 0.05398 0.08062 0.47799 0.0
H691 H 0.08661 0.96462 0.50176 0.0
H692 H 0.09565 0.00668 0.49496 0.0
H693 H 0.08839 0.99144 0.539 0.0
H694 H 0.07688 0.04623 0.55609 0.0
H695 H 0.11239 0.09332 0.55714 0.0
H696 H 0.21985 0.36154 0.11871 0.0
H697 H 0.19474 0.3442 0.17429 0.0
H698 H 0.28893 0.32227 0.21703 0.0
H699 H 0.31398 0.34232 0.16253 0.0
H700 H 0.19053 0.29078 0.20282 0.0
H701 H 0.25483 0.36605 0.30043 0.0
H702 H 0.25864 0.37277 0.25341 0.0
H703 H 0.28329 0.34292 0.27538 0.0
C704 C 0.23509 0.35365 0.1404 0.0
C705 C 0.26875 0.35363 0.13677 0.0
C706 C 0.22079 0.34359 0.17209 0.0
C707 C 0.23984 0.33238 0.20042 0.0
C708 C 0.27361 0.33197 0.19639 0.0
H709 H 0.1638 0.2008 0.35946 0.0
H710 H 0.1847 0.22619 0.30565 0.0
C711 C 0.28796 0.34316 0.16513 0.0
C712 C 0.22421 0.31933 0.23308 0.0
H713 H 0.22855 0.31892 0.32354 0.0
C714 C 0.1986 0.29739 0.22921 0.0
C715 C 0.2341 0.32818 0.26774 0.0
C716 C 0.25895 0.35405 0.27445 0.0
C717 C 0.18306 0.28376 0.25872 0.0
C718 C 0.19463 0.2907 0.29326 0.0
C719 C 0.21984 0.31308 0.29717 0.0
C720 C 0.18116 0.27508 0.3257 0.0
C721 C 0.15388 0.26281 0.25226 0.0
C722 C 0.1734 0.29375 0.35569 0.0
C723 C 0.16274 0.27906 0.38695 0.0
C724 C 0.15879 0.24551 0.38853 0.0
C725 C 0.16595 0.22682 0.35854 0.0
C726 C 0.17767 0.24139 0.32767 0.0
H727 H 0.14136 0.26976 0.22733 0.0
H728 H 0.1617 0.23737 0.2493 0.0
H729 H 0.13631 0.26442 0.27442 0.0
H730 H 0.1759 0.31973 0.35509 0.0
H731 H 0.15752 0.29392 0.40989 0.0
H732 H 0.72823 0.20201 0.92246 0.0
H733 H 0.70739 0.22401 0.86694 0.0
H734 H 0.76601 0.15694 0.80779 0.0
H735 H 0.78762 0.13522 0.86344 0.0
H736 H 0.76998 0.218 0.78142 0.0
H737 H 0.64155 0.18535 0.8005 0.0
H738 H 0.65756 0.20847 0.83665 0.0
H739 H 0.67339 0.16889 0.82768 0.0
C740 C 0.73652 0.19171 0.89766 0.0
C741 C 0.75944 0.16672 0.89735 0.0
C742 C 0.72442 0.20422 0.86592 0.0
C743 C 0.73464 0.19174 0.83317 0.0
C744 C 0.7576 0.1668 0.83275 0.0
H745 H 0.6881 0.23602 0.61346 0.0
H746 H 0.7094 0.21286 0.66837 0.0
C747 C 0.76988 0.15437 0.86456 0.0
C748 C 0.72227 0.20557 0.79943 0.0
H749 H 0.65305 0.22224 0.75365 0.0
C750 C 0.74443 0.2187 0.77523 0.0
C751 C 0.68891 0.2065 0.79135 0.0
C752 C 0.664 0.19127 0.81524 0.0
C753 C 0.7341 0.23331 0.74358 0.0
C754 C 0.70076 0.23462 0.73581 0.0
C755 C 0.67859 0.22139 0.75986 0.0
C756 C 0.68842 0.24915 0.70254 0.0
C757 C 0.75884 0.24781 0.71895 0.0
C758 C 0.66925 0.27704 0.70361 0.0
C759 C 0.65709 0.29041 0.67223 0.0
C760 C 0.66357 0.27584 0.63931 0.0
C761 C 0.68271 0.24784 0.63839 0.0
C762 C 0.69502 0.23464 0.66971 0.0
H763 H 0.7826 0.25091 0.73215 0.0
H764 H 0.76219 0.23168 0.69575 0.0
H765 H 0.75056 0.2716 0.70896 0.0
H766 H 0.66377 0.28849 0.72874 0.0
H767 H 0.64232 0.31192 0.6738 0.0
H768 H 0.80832 0.73882 0.41578 0.0
H769 H 0.78544 0.71751 0.36073 0.0
H770 H 0.83876 0.78798 0.30057 0.0
H771 H 0.86185 0.80951 0.35564 0.0
H772 H 0.74892 0.75142 0.30635 0.0
H773 H 0.86377 0.69906 0.25633 0.0
H774 H 0.85799 0.71019 0.30223 0.0
H775 H 0.86537 0.7407 0.26946 0.0
C776 C 0.81518 0.74985 0.39085 0.0
C777 C 0.83704 0.77576 0.39002 0.0
C778 C 0.80202 0.73766 0.35944 0.0
C779 C 0.81069 0.75092 0.32659 0.0
C780 C 0.8321 0.77714 0.32566 0.0
H781 H 0.76877 0.70249 0.10808 0.0
H782 H 0.7882 0.72593 0.16352 0.0
C783 C 0.84515 0.78949 0.35712 0.0
C784 C 0.7974 0.73713 0.29334 0.0
H785 H 0.81875 0.6966 0.21806 0.0
C786 C 0.76411 0.73938 0.28701 0.0
C787 C 0.81732 0.72141 0.26828 0.0
C788 C 0.85308 0.71737 0.27436 0.0
C789 C 0.75026 0.7269 0.25585 0.0
C790 C 0.77018 0.71106 0.23077 0.0
C791 C 0.80348 0.70874 0.23726 0.0
C792 C 0.75723 0.69725 0.19725 0.0
C793 C 0.7146 0.73156 0.24967 0.0
C794 C 0.73338 0.67317 0.19767 0.0
C795 C 0.72202 0.65983 0.16587 0.0
C796 C 0.73462 0.67006 0.13314 0.0
C797 C 0.75856 0.69405 0.13284 0.0
C798 C 0.76973 0.70748 0.16454 0.0
H799 H 0.70472 0.75147 0.26615 0.0
H800 H 0.7095 0.73686 0.22135 0.0
H801 H 0.70165 0.70913 0.25699 0.0
H802 H 0.72389 0.66434 0.2226 0.0
H803 H 0.70373 0.64122 0.16696 0.0
H804 H 0.1945 0.86702 0.85942 0.0
H805 H 0.21649 0.84447 0.80421 0.0
H806 H 0.28913 0.79372 0.86408 0.0
H807 H 0.26743 0.81605 0.91914 0.0
H808 H 0.28312 0.85169 0.77967 0.0
H809 H 0.24798 0.72364 0.79906 0.0
H810 H 0.22894 0.75636 0.82281 0.0
H811 H 0.26814 0.74232 0.83595 0.0
C812 C 0.21497 0.85084 0.8608 0.0
C813 C 0.2292 0.84327 0.89361 0.0
C814 C 0.22753 0.83805 0.82928 0.0
C815 C 0.25421 0.81718 0.83013 0.0
C816 C 0.26824 0.8094 0.86288 0.0
H817 H 0.36724 0.71498 0.67064 0.0
H818 H 0.34501 0.73677 0.72604 0.0
C819 C 0.25588 0.82232 0.8943 0.0
C820 C 0.26832 0.80449 0.79677 0.0
H821 H 0.2829 0.73496 0.75092 0.0
C822 C 0.28293 0.8262 0.77322 0.0
C823 C 0.26833 0.7712 0.78871 0.0
C824 C 0.25231 0.74695 0.81276 0.0
C825 C 0.29801 0.81546 0.74199 0.0
C826 C 0.29774 0.78216 0.73367 0.0
C827 C 0.28315 0.76045 0.75732 0.0
C828 C 0.31177 0.76946 0.70017 0.0
C829 C 0.31478 0.83983 0.71868 0.0
C830 C 0.30028 0.78033 0.66726 0.0
C831 C 0.31306 0.76812 0.63571 0.0
C832 C 0.33735 0.74445 0.63634 0.0
C833 C 0.34866 0.7333 0.66929 0.0
C834 C 0.33594 0.74568 0.70093 0.0
H835 H 0.32125 0.86194 0.73372 0.0
H836 H 0.33707 0.82961 0.70681 0.0
H837 H 0.29833 0.84701 0.69685 0.0
H838 H 0.28108 0.79801 0.66595 0.0
H839 H 0.30356 0.77698 0.61077 0.0
H840 H 0.80938 0.65432 0.90649 0.0
H841 H 0.82823 0.67177 0.84812 0.0
H842 H 0.73026 0.6722 0.80969 0.0
H843 H 0.71116 0.65463 0.86818 0.0
H844 H 0.77463 0.64635 0.76093 0.0
H845 H 0.81602 0.76442 0.81296 0.0
H846 H 0.83301 0.73037 0.83568 0.0
H847 H 0.79032 0.73778 0.8381 0.0
C848 C 0.79183 0.65806 0.8856 0.0
C849 C 0.75872 0.65348 0.89209 0.0
C850 C 0.80265 0.66808 0.85228 0.0
C851 C 0.78059 0.67398 0.8248 0.0
C852 C 0.74767 0.66798 0.83062 0.0
H853 H 0.81621 0.78975 0.63712 0.0
H854 H 0.79692 0.7674 0.69321 0.0
C855 C 0.73681 0.65781 0.86399 0.0
C856 C 0.79185 0.68731 0.79041 0.0
H857 H 0.83053 0.75187 0.75364 0.0
C858 C 0.78681 0.66943 0.75927 0.0
C859 C 0.80727 0.71769 0.78825 0.0
C860 C 0.81174 0.73887 0.82045 0.0
C861 C 0.79733 0.68086 0.72611 0.0
C862 C 0.81377 0.71071 0.72416 0.0
C863 C 0.81827 0.72882 0.75522 0.0
C864 C 0.82583 0.72405 0.69007 0.0
C865 C 0.7902 0.66116 0.69338 0.0
C866 C 0.84893 0.70738 0.66991 0.0
C867 C 0.86016 0.72019 0.63785 0.0
C868 C 0.84871 0.75009 0.62548 0.0
C869 C 0.82593 0.76692 0.64607 0.0
C870 C 0.81469 0.75407 0.67804 0.0
H871 H 0.77048 0.64354 0.69807 0.0
H872 H 0.78333 0.67691 0.67079 0.0
H873 H 0.81214 0.64748 0.68572 0.0
H874 H 0.85845 0.68454 0.67909 0.0
H875 H 0.87802 0.70681 0.62289 0.0
H876 H 0.32902 0.80267 0.41128 0.0
H877 H 0.31477 0.82193 0.35231 0.0
H878 H 0.3418 0.73005 0.30772 0.0
H879 H 0.35452 0.70988 0.3672 0.0
H880 H 0.34879 0.82986 0.29275 0.0
H881 H 0.25181 0.74016 0.26887 0.0
H882 H 0.27034 0.74545 0.31176 0.0
H883 H 0.29053 0.72258 0.2778 0.0
C884 C 0.33155 0.7863 0.38907 0.0
C885 C 0.34229 0.75442 0.39421 0.0
C886 C 0.32368 0.79751 0.35524 0.0
C887 C 0.3265 0.77726 0.32559 0.0
C888 C 0.33859 0.74588 0.33029 0.0
H889 H 0.28573 0.8149 0.10211 0.0
H890 H 0.30691 0.79343 0.15801 0.0
C891 C 0.34627 0.73451 0.36429 0.0
C892 C 0.31649 0.78927 0.29004 0.0
H893 H 0.26423 0.77544 0.22148 0.0
C894 C 0.33032 0.81792 0.2772 0.0
C895 C 0.29223 0.77379 0.26974 0.0
C896 C 0.27511 0.74397 0.28282 0.0
C897 C 0.32056 0.83146 0.24475 0.0
C898 C 0.29636 0.816 0.22464 0.0
C899 C 0.28285 0.78715 0.23705 0.0
C900 C 0.28434 0.82974 0.19084 0.0
C901 C 0.33617 0.86218 0.23204 0.0
C902 C 0.26456 0.85721 0.1909 0.0
C903 C 0.25229 0.86949 0.15902 0.0
C904 C 0.25985 0.85461 0.12653 0.0
C905 C 0.2799 0.82722 0.12664 0.0
C906 C 0.29186 0.81479 0.15853 0.0
H907 H 0.3579 0.86846 0.24784 0.0
H908 H 0.34314 0.85997 0.20369 0.0
H909 H 0.3186 0.88229 0.23423 0.0
H910 H 0.2583 0.86892 0.21566 0.0
H911 H 0.23696 0.89063 0.15977 0.0
H912 H 0.13049 0.25557 0.64441 0.0
H913 H 0.14764 0.27658 0.70224 0.0
H914 H 0.24539 0.24733 0.68038 0.0
H915 H 0.22849 0.22542 0.62315 0.0
H916 H 0.1861 0.24103 0.76008 0.0
H917 H 0.24646 0.34861 0.70214 0.0
H918 H 0.21518 0.32673 0.67901 0.0
H919 H 0.25509 0.31021 0.68198 0.0
C920 C 0.15553 0.25304 0.65213 0.0
C921 C 0.17814 0.23901 0.6289 0.0
C922 C 0.1653 0.26529 0.68507 0.0
C923 C 0.19784 0.26394 0.69522 0.0
C924 C 0.22026 0.24906 0.67271 0.0
H925 H 0.31171 0.33547 0.8722 0.0
H926 H 0.29241 0.31561 0.81459 0.0
C927 C 0.21052 0.23664 0.63997 0.0
C928 C 0.20863 0.27829 0.7292 0.0
H929 H 0.25272 0.34035 0.76376 0.0
C930 C 0.2005 0.26283 0.76101 0.0
C931 C 0.22765 0.30655 0.73013 0.0
C932 C 0.23655 0.32425 0.69658 0.0
C933 C 0.21143 0.27458 0.79385 0.0
C934 C 0.23023 0.30311 0.79491 0.0
C935 C 0.23828 0.31857 0.76298 0.0
C936 C 0.24183 0.31715 0.8289 0.0
C937 C 0.20352 0.25571 0.82696 0.0
C938 C 0.21982 0.32572 0.85558 0.0
C939 C 0.23079 0.33683 0.88842 0.0
C940 C 0.26401 0.34011 0.8951 0.0
C941 C 0.28599 0.33322 0.86775 0.0
C942 C 0.27498 0.32177 0.83493 0.0
H943 H 0.19749 0.23023 0.82076 0.0
H944 H 0.22398 0.25601 0.84598 0.0
H945 H 0.18222 0.26668 0.8401 0.0
H946 H 0.19411 0.3234 0.85118 0.0
H947 H 0.21326 0.34254 0.9088 0.0
H948 H 0.77049 0.2184 0.13658 0.0
H949 H 0.74919 0.23286 0.19492 0.0
H950 H 0.71955 0.13434 0.2115 0.0
H951 H 0.74143 0.11963 0.15321 0.0
H952 H 0.68709 0.22917 0.2155 0.0
H953 H 0.76265 0.15447 0.30517 0.0
H954 H 0.77284 0.16097 0.25917 0.0
H955 H 0.74247 0.13199 0.27106 0.0
C956 C 0.75976 0.19974 0.15285 0.0
C957 C 0.75761 0.16789 0.14035 0.0
C958 C 0.7476 0.20802 0.18618 0.0
C959 C 0.73295 0.18468 0.20778 0.0
C960 C 0.73135 0.15265 0.19569 0.0
H961 H 0.6254 0.21013 0.40649 0.0
H962 H 0.64654 0.18842 0.35062 0.0
C963 C 0.74381 0.14427 0.16236 0.0
C964 C 0.71767 0.19459 0.24178 0.0
H965 H 0.71882 0.18248 0.33153 0.0
C966 C 0.69408 0.21893 0.24084 0.0
C967 C 0.72667 0.18115 0.27488 0.0
C968 C 0.75274 0.15591 0.27783 0.0
C969 C 0.67948 0.23035 0.272 0.0
C970 C 0.68871 0.21718 0.30501 0.0
C971 C 0.71175 0.1924 0.30606 0.0
C972 C 0.67585 0.23012 0.3388 0.0
C973 C 0.65431 0.25654 0.26953 0.0
C974 C 0.68551 0.26064 0.35064 0.0
C975 C 0.67384 0.27298 0.38266 0.0
C976 C 0.65205 0.25511 0.40351 0.0
C977 C 0.64233 0.22448 0.39138 0.0
C978 C 0.65428 0.21204 0.3594 0.0
H979 H 0.64551 0.25988 0.24193 0.0
H980 H 0.63344 0.25091 0.28694 0.0
H981 H 0.66489 0.27965 0.27872 0.0
H982 H 0.70246 0.27478 0.33526 0.0
H983 H 0.68255 0.29625 0.39142 0.0
loop_
_geom_bond_atom_site_label_1
_geom_bond_atom_site_label_2
_geom_bond_distance
_geom_bond_site_symmetry_2
_ccdc_geom_bond_type
Co0 N4 2.148 . S
Co0 N10 2.128 . S
Co0 N20 2.194 1_554 S
Co0 O25 2.351 . S
Co0 O26 2.155 . S
Co0 O27 2.096 . S
C1 N4 1.301 . S
C1 N5 1.328 . S
C1 H6 0.930 . S
C2 C3 1.333 . S
C2 N4 1.317 . S
C2 H7 0.930 . S
C3 C2 1.333 . S
C3 N5 1.350 . S
C3 H29 0.931 . S
N4 Co0 2.148 . S
N4 C1 1.301 . S
N4 C2 1.317 . S
N5 C1 1.328 . S
N5 C3 1.350 . S
H6 C1 0.930 . S
H7 C2 0.930 . S
C8 O9 1.224 1_554 S
C8 O27 1.247 . S
O9 C8 1.224 1_556 S
N10 Co0 2.128 . S
N10 C11 1.355 . S
N10 C13 1.311 . S
C11 N10 1.355 . S
C11 C12 1.363 . S
C11 H23 0.929 . S
C12 C11 1.363 . S
C12 N14 1.375 . S
C12 H30 0.932 . S
C13 N10 1.311 . S
C13 N14 1.347 . S
C13 H24 0.929 . S
N14 C12 1.375 . S
N14 C13 1.347 . S
C15 C18 1.365 . S
C15 N20 1.328 . S
C15 H21 0.929 . S
C16 C17 1.362 . S
C16 C19 1.378 . S
C16 H31 0.929 . S
C17 C16 1.362 . S
C17 C18 1.366 . S
C18 C15 1.365 . S
C18 C17 1.366 . S
C18 H32 0.930 . S
C19 C16 1.378 . S
C19 N20 1.315 . S
C19 H22 0.930 . S
N20 Co0 2.194 1_556 S
N20 C15 1.328 . S
N20 C19 1.315 . S
H21 C15 0.929 . S
H22 C19 0.930 . S
H23 C11 0.929 . S
H24 C13 0.929 . S
O25 Co0 2.351 . S
O25 C28 1.244 . S
O26 Co0 2.155 . S
O26 C28 1.240 . S
O27 Co0 2.096 . S
O27 C8 1.247 . S
C28 O25 1.244 . S
C28 O26 1.240 . S
H29 C3 0.931 . S
H30 C12 0.932 . S
H31 C16 0.929 . S
H32 C18 0.930 . S
Co33 N37 2.148 . S
Co33 N43 2.128 . S
Co33 N53 2.194 . S
Co33 O58 2.351 . S
Co33 O59 2.155 . S
Co33 O60 2.096 . S
C34 N37 1.301 . S
C34 N38 1.328 . S
C34 H39 0.930 . S
C35 C36 1.333 . S
C35 N37 1.317 . S
C35 H40 0.930 . S
C36 C35 1.333 . S
C36 N38 1.350 . S
C36 H62 0.931 . S
N37 Co33 2.148 . S
N37 C34 1.301 . S
N37 C35 1.317 . S
N38 C34 1.328 . S
N38 C36 1.350 . S
H39 C34 0.930 . S
H40 C35 0.930 . S
C41 O42 1.224 . S
C41 O60 1.247 . S
O42 C41 1.224 . S
N43 Co33 2.128 . S
N43 C44 1.355 . S
N43 C46 1.311 . S
C44 N43 1.355 . S
C44 C45 1.363 . S
C44 H56 0.929 . S
C45 C44 1.363 . S
C45 N47 1.375 . S
C45 H63 0.931 . S
C46 N43 1.311 . S
C46 N47 1.347 . S
C46 H57 0.929 . S
N47 C45 1.375 . S
N47 C46 1.347 . S
C48 C51 1.365 . S
C48 N53 1.328 . S
C48 H54 0.929 . S
C49 C50 1.362 . S
C49 C52 1.378 . S
C49 H64 0.929 . S
C50 C49 1.362 . S
C50 C51 1.366 . S
C51 C48 1.365 . S
C51 C50 1.366 . S
C51 H65 0.930 . S
C52 C49 1.378 . S
C52 N53 1.315 . S
C52 H55 0.930 . S
N53 Co33 2.194 . S
N53 C48 1.328 . S
N53 C52 1.315 . S
H54 C48 0.929 . S
H55 C52 0.930 . S
H56 C44 0.929 . S
H57 C46 0.929 . S
O58 Co33 2.351 . S
O58 C61 1.244 . S
O59 Co33 2.155 . S
O59 C61 1.240 . S
O60 Co33 2.096 . S
O60 C41 1.247 . S
C61 O58 1.244 . S
C61 O59 1.240 . S
H62 C36 0.931 . S
H63 C45 0.931 . S
H64 C49 0.929 . S
H65 C51 0.930 . S
Co66 N70 2.148 . S
Co66 N76 2.128 . S
Co66 N86 2.194 1_554 S
Co66 O91 2.351 . S
Co66 O92 2.155 . S
Co66 O93 2.096 . S
C67 N70 1.301 . S
C67 N71 1.328 . S
C67 H72 0.930 . S
C68 C69 1.333 . S
C68 N70 1.317 . S
C68 H73 0.930 . S
C69 C68 1.333 . S
C69 N71 1.350 . S
C69 H95 0.931 . S
N70 Co66 2.148 . S
N70 C67 1.301 . S
N70 C68 1.317 . S
N71 C67 1.328 . S
N71 C69 1.350 . S
H72 C67 0.930 . S
H73 C68 0.930 . S
C74 O75 1.224 1_554 S
C74 O93 1.247 . S
O75 C74 1.224 1_556 S
N76 Co66 2.128 . S
N76 C77 1.355 . S
N76 C79 1.311 . S
C77 N76 1.355 . S
C77 C78 1.363 . S
C77 H89 0.929 . S
C78 C77 1.363 . S
C78 N80 1.375 . S
C78 H96 0.932 . S
C79 N76 1.311 . S
C79 N80 1.347 . S
C79 H90 0.929 . S
N80 C78 1.375 . S
N80 C79 1.347 . S
C81 C84 1.365 . S
C81 N86 1.328 . S
C81 H87 0.929 . S
C82 C83 1.362 . S
C82 C85 1.378 . S
C82 H97 0.929 . S
C83 C82 1.362 . S
C83 C84 1.366 . S
C84 C81 1.365 . S
C84 C83 1.366 . S
C84 H98 0.930 . S
C85 C82 1.378 . S
C85 N86 1.315 . S
C85 H88 0.930 . S
N86 Co66 2.194 1_556 S
N86 C81 1.328 . S
N86 C85 1.315 . S
H87 C81 0.929 . S
H88 C85 0.930 . S
H89 C77 0.929 . S
H90 C79 0.929 . S
O91 Co66 2.351 . S
O91 C94 1.244 . S
O92 Co66 2.155 . S
O92 C94 1.240 . S
O93 Co66 2.096 . S
O93 C74 1.247 . S
C94 O91 1.244 . S
C94 O92 1.240 . S
H95 C69 0.931 . S
H96 C78 0.932 . S
H97 C82 0.929 . S
H98 C84 0.930 . S
Co99 N103 2.148 . S
Co99 N109 2.128 . S
Co99 N119 2.194 . S
Co99 O124 2.351 . S
Co99 O125 2.155 . S
Co99 O126 2.096 . S
C100 N103 1.301 . S
C100 N104 1.328 . S
C100 H105 0.930 . S
C101 C102 1.333 . S
C101 N103 1.317 . S
C101 H106 0.930 . S
C102 C101 1.333 . S
C102 N104 1.350 . S
C102 H128 0.931 . S
N103 Co99 2.148 . S
N103 C100 1.301 . S
N103 C101 1.317 . S
N104 C100 1.328 . S
N104 C102 1.350 . S
H105 C100 0.930 . S
H106 C101 0.930 . S
C107 O108 1.224 . S
C107 O126 1.247 . S
O108 C107 1.224 . S
N109 Co99 2.128 . S
N109 C110 1.355 . S
N109 C112 1.311 . S
C110 N109 1.355 . S
C110 C111 1.363 . S
C110 H122 0.929 . S
C111 C110 1.363 . S
C111 N113 1.375 . S
C111 H129 0.931 . S
C112 N109 1.311 . S
C112 N113 1.347 . S
C112 H123 0.929 . S
N113 C111 1.375 . S
N113 C112 1.347 . S
C114 C117 1.365 . S
C114 N119 1.328 . S
C114 H120 0.929 . S
C115 C116 1.362 . S
C115 C118 1.378 . S
C115 H130 0.929 . S
C116 C115 1.362 . S
C116 C117 1.366 . S
C117 C114 1.365 . S
C117 C116 1.366 . S
C117 H131 0.930 . S
C118 C115 1.378 . S
C118 N119 1.315 . S
C118 H121 0.930 . S
N119 Co99 2.194 . S
N119 C114 1.328 . S
N119 C118 1.315 . S
H120 C114 0.929 . S
H121 C118 0.930 . S
H122 C110 0.929 . S
H123 C112 0.929 . S
O124 Co99 2.351 . S
O124 C127 1.244 . S
O125 Co99 2.155 . S
O125 C127 1.240 . S
O126 Co99 2.096 . S
O126 C107 1.247 . S
C127 O124 1.244 . S
C127 O125 1.240 . S
H128 C102 0.931 . S
H129 C111 0.931 . S
H130 C115 0.929 . S
H131 C117 0.930 . S
Co132 N136 2.148 . S
Co132 N142 2.128 . S
Co132 N152 2.194 1_556 S
Co132 O157 2.351 . S
Co132 O158 2.155 . S
Co132 O159 2.096 . S
C133 N136 1.301 . S
C133 N137 1.328 . S
C133 H138 0.930 . S
C134 C135 1.333 . S
C134 N136 1.317 . S
C134 H139 0.930 . S
C135 C134 1.333 . S
C135 N137 1.350 . S
C135 H161 0.931 . S
N136 Co132 2.148 . S
N136 C133 1.301 . S
N136 C134 1.317 . S
N137 C133 1.328 . S
N137 C135 1.350 . S
H138 C133 0.930 . S
H139 C134 0.930 . S
C140 O141 1.249 . S
C140 O159 1.224 1_554 S
O141 C140 1.249 . S
N142 Co132 2.128 . S
N142 C143 1.355 1_556 S
N142 C145 1.311 . S
C143 N142 1.355 1_554 S
C143 C144 1.363 1_545 S
C143 H155 0.929 . S
C144 C143 1.363 1_565 S
C144 N146 1.375 1_554 S
C144 H162 0.931 . S
C145 N142 1.311 . S
C145 N146 1.347 1_545 S
C145 H156 0.929 . S
N146 C144 1.375 1_556 S
N146 C145 1.347 1_565 S
C147 C150 1.365 . S
C147 N152 1.328 . S
C147 H153 0.929 . S
C148 C149 1.362 . S
C148 C151 1.378 . S
C148 H163 0.929 . S
C149 C148 1.362 . S
C149 C150 1.366 . S
C150 C147 1.365 . S
C150 C149 1.366 . S
C150 H164 0.930 . S
C151 C148 1.378 . S
C151 N152 1.315 . S
C151 H154 0.930 . S
N152 Co132 2.194 1_554 S
N152 C147 1.328 . S
N152 C151 1.315 . S
H153 C147 0.929 . S
H154 C151 0.930 . S
H155 C143 0.929 . S
H156 C145 0.929 . S
O157 Co132 2.351 . S
O157 C160 1.244 . S
O158 Co132 2.155 . S
O158 C160 1.240 . S
O159 Co132 2.096 . S
O159 C140 1.224 1_556 S
C160 O157 1.244 . S
C160 O158 1.240 . S
H161 C135 0.931 . S
H162 C144 0.931 . S
H163 C148 0.929 . S
H164 C150 0.930 . S
Co165 N169 2.148 . S
Co165 N175 2.128 . S
Co165 N185 2.194 . S
Co165 O190 2.351 . S
Co165 O191 2.155 . S
Co165 O192 2.096 . S
C166 N169 1.301 . S
C166 N170 1.328 . S
C166 H171 0.930 . S
C167 C168 1.333 . S
C167 N169 1.317 . S
C167 H172 0.930 . S
C168 C167 1.333 . S
C168 N170 1.350 . S
C168 H194 0.931 . S
N169 Co165 2.148 . S
N169 C166 1.301 . S
N169 C167 1.317 . S
N170 C166 1.328 . S
N170 C168 1.350 . S
H171 C166 0.930 . S
H172 C167 0.930 . S
C173 O174 1.224 . S
C173 O192 1.247 . S
O174 C173 1.224 . S
N175 Co165 2.128 . S
N175 C176 1.355 . S
N175 C178 1.311 . S
C176 N175 1.355 . S
C176 C177 1.363 1_655 S
C176 H188 0.929 . S
C177 C176 1.363 1_455 S
C177 N179 1.375 . S
C177 H195 0.931 . S
C178 N175 1.311 . S
C178 N179 1.347 1_655 S
C178 H189 0.929 . S
N179 C177 1.375 . S
N179 C178 1.347 1_455 S
C180 C183 1.365 . S
C180 N185 1.328 . S
C180 H186 0.929 . S
C181 C182 1.362 . S
C181 C184 1.378 . S
C181 H196 0.929 . S
C182 C181 1.362 . S
C182 C183 1.366 . S
C183 C180 1.365 . S
C183 C182 1.366 . S
C183 H197 0.930 . S
C184 C181 1.378 . S
C184 N185 1.315 . S
C184 H187 0.930 . S
N185 Co165 2.194 . S
N185 C180 1.328 . S
N185 C184 1.315 . S
H186 C180 0.929 . S
H187 C184 0.930 . S
H188 C176 0.929 . S
H189 C178 0.929 . S
O190 Co165 2.351 . S
O190 C193 1.244 . S
O191 Co165 2.155 . S
O191 C193 1.240 . S
O192 Co165 2.096 . S
O192 C173 1.247 . S
C193 O190 1.244 . S
C193 O191 1.240 . S
H194 C168 0.931 . S
H195 C177 0.931 . S
H196 C181 0.929 . S
H197 C183 0.930 . S
Co198 N202 2.148 . S
Co198 N208 2.128 . S
Co198 N218 2.194 1_556 S
Co198 O223 2.351 . S
Co198 O224 2.155 . S
Co198 O225 2.096 . S
C199 N202 1.301 . S
C199 N203 1.328 . S
C199 H204 0.930 . S
C200 C201 1.333 . S
C200 N202 1.317 . S
C200 H205 0.930 . S
C201 C200 1.333 . S
C201 N203 1.350 . S
C201 H227 0.931 . S
N202 Co198 2.148 . S
N202 C199 1.301 . S
N202 C200 1.317 . S
N203 C199 1.328 . S
N203 C201 1.350 . S
H204 C199 0.930 . S
H205 C200 0.930 . S
C206 O207 1.249 . S
C206 O225 1.224 1_554 S
O207 C206 1.249 . S
N208 Co198 2.128 . S
N208 C209 1.355 1_556 S
N208 C211 1.311 . S
C209 N208 1.355 1_554 S
C209 C210 1.363 1_565 S
C209 H221 0.929 . S
C210 C209 1.363 1_545 S
C210 N212 1.375 1_554 S
C210 H228 0.931 . S
C211 N208 1.311 . S
C211 N212 1.347 1_565 S
C211 H222 0.929 . S
N212 C210 1.375 1_556 S
N212 C211 1.347 1_545 S
C213 C216 1.365 . S
C213 N218 1.328 . S
C213 H219 0.929 . S
C214 C215 1.362 . S
C214 C217 1.378 . S
C214 H229 0.929 . S
C215 C214 1.362 . S
C215 C216 1.366 . S
C216 C213 1.365 . S
C216 C215 1.366 . S
C216 H230 0.930 . S
C217 C214 1.378 . S
C217 N218 1.315 . S
C217 H220 0.930 . S
N218 Co198 2.194 1_554 S
N218 C213 1.328 . S
N218 C217 1.315 . S
H219 C213 0.929 . S
H220 C217 0.930 . S
H221 C209 0.929 . S
H222 C211 0.929 . S
O223 Co198 2.351 . S
O223 C226 1.244 . S
O224 Co198 2.155 . S
O224 C226 1.240 . S
O225 Co198 2.096 . S
O225 C206 1.224 1_556 S
C226 O223 1.244 . S
C226 O224 1.240 . S
H227 C201 0.931 . S
H228 C210 0.931 . S
H229 C214 0.929 . S
H230 C216 0.930 . S
Co231 N235 2.148 . S
Co231 N241 2.128 . S
Co231 N251 2.194 . S
Co231 O256 2.351 . S
Co231 O257 2.155 . S
Co231 O258 2.096 . S
C232 N235 1.301 . S
C232 N236 1.328 . S
C232 H237 0.930 . S
C233 C234 1.333 . S
C233 N235 1.317 . S
C233 H238 0.930 . S
C234 C233 1.333 . S
C234 N236 1.350 . S
C234 H260 0.931 . S
N235 Co231 2.148 . S
N235 C232 1.301 . S
N235 C233 1.317 . S
N236 C232 1.328 . S
N236 C234 1.350 . S
H237 C232 0.930 . S
H238 C233 0.930 . S
C239 O240 1.224 . S
C239 O258 1.247 . S
O240 C239 1.224 . S
N241 Co231 2.128 . S
N241 C242 1.355 . S
N241 C244 1.311 . S
C242 N241 1.355 . S
C242 C243 1.363 1_455 S
C242 H254 0.929 . S
C243 C242 1.363 1_655 S
C243 N245 1.375 . S
C243 H261 0.931 . S
C244 N241 1.311 . S
C244 N245 1.347 1_455 S
C244 H255 0.929 . S
N245 C243 1.375 . S
N245 C244 1.347 1_655 S
C246 C249 1.365 . S
C246 N251 1.328 . S
C246 H252 0.929 . S
C247 C248 1.362 . S
C247 C250 1.378 . S
C247 H262 0.929 . S
C248 C247 1.362 . S
C248 C249 1.366 . S
C249 C246 1.365 . S
C249 C248 1.366 . S
C249 H263 0.930 . S
C250 C247 1.378 . S
C250 N251 1.315 . S
C250 H253 0.930 . S
N251 Co231 2.194 . S
N251 C246 1.328 . S
N251 C250 1.315 . S
H252 C246 0.929 . S
H253 C250 0.930 . S
H254 C242 0.929 . S
H255 C244 0.929 . S
O256 Co231 2.351 . S
O256 C259 1.244 . S
O257 Co231 2.155 . S
O257 C259 1.240 . S
O258 Co231 2.096 . S
O258 C239 1.247 . S
C259 O256 1.244 . S
C259 O257 1.240 . S
H260 C234 0.931 . S
H261 C243 0.931 . S
H262 C247 0.929 . S
H263 C249 0.930 . S
H264 C272 0.929 . S
H265 C274 0.930 . S
H266 C276 0.930 . S
H267 C279 0.929 . S
H268 C282 0.930 . S
H269 C284 0.960 . S
H270 C284 0.960 . S
H271 C284 0.960 . S
C272 H264 0.929 . S
C272 C273 1.377 . S
C272 C274 1.384 . S
C273 C272 1.377 . S
C273 C279 1.390 1_556 S
C274 H265 0.930 . S
C274 C272 1.384 . S
C274 C275 1.372 1_556 S
C275 C274 1.372 1_554 S
C275 C276 1.400 . S
C275 C280 1.490 . S
C276 H266 0.930 . S
C276 C275 1.400 . S
C276 C279 1.386 . S
H277 C293 0.930 . S
H278 C294 0.931 . S
C279 H267 0.929 . S
C279 C273 1.390 1_554 S
C279 C276 1.386 . S
C280 C275 1.490 . S
C280 C282 1.395 1_554 S
C280 C283 1.403 . S
H281 C287 0.930 . S
C282 H268 0.930 . S
C282 C280 1.395 1_556 S
C282 C285 1.403 . S
C283 C280 1.403 . S
C283 C284 1.524 . S
C283 C287 1.400 . S
C284 H269 0.960 . S
C284 H270 0.960 . S
C284 H271 0.960 . S
C284 C283 1.524 . S
C285 C282 1.403 . S
C285 C286 1.392 1_556 S
C285 C289 1.495 . S
C286 C285 1.392 1_554 S
C286 C287 1.385 . S
C286 C288 1.478 . S
C287 H281 0.930 . S
C287 C283 1.400 . S
C287 C286 1.385 . S
C288 C286 1.478 . S
C288 C290 1.381 1_554 S
C288 C294 1.383 . S
C289 C285 1.495 . S
C289 H295 0.959 . S
C289 H296 0.961 1_556 S
C289 H297 0.960 . S
C290 C288 1.381 1_556 S
C290 C291 1.394 . S
C290 H298 0.930 . S
C291 C290 1.394 . S
C291 C292 1.383 1_556 S
C291 H299 0.929 . S
C292 C291 1.383 1_554 S
C292 C293 1.377 . S
C293 H277 0.930 . S
C293 C292 1.377 . S
C293 C294 1.379 . S
C294 H278 0.931 . S
C294 C288 1.383 . S
C294 C293 1.379 . S
H295 C289 0.959 . S
H296 C289 0.961 1_554 S
H297 C289 0.960 . S
H298 C290 0.930 . S
H299 C291 0.929 . S
H300 C308 0.929 . S
H301 C310 0.930 . S
H302 C312 0.930 . S
H303 C315 0.929 . S
H304 C318 0.930 . S
H305 C320 0.960 . S
H306 C320 0.960 . S
H307 C320 0.960 . S
C308 H300 0.929 . S
C308 C309 1.377 . S
C308 C310 1.384 . S
C309 C308 1.377 . S
C309 C315 1.390 . S
C310 H301 0.930 . S
C310 C308 1.384 . S
C310 C311 1.372 . S
C311 C310 1.372 . S
C311 C312 1.400 . S
C311 C316 1.490 . S
C312 H302 0.930 . S
C312 C311 1.400 . S
C312 C315 1.386 . S
H313 C329 0.930 . S
H314 C330 0.931 . S
C315 H303 0.929 . S
C315 C309 1.390 . S
C315 C312 1.386 . S
C316 C311 1.490 . S
C316 C318 1.395 . S
C316 C319 1.403 . S
H317 C323 0.930 . S
C318 H304 0.930 . S
C318 C316 1.395 . S
C318 C321 1.403 . S
C319 C316 1.403 . S
C319 C320 1.524 . S
C319 C323 1.400 . S
C320 H305 0.960 . S
C320 H306 0.960 . S
C320 H307 0.960 . S
C320 C319 1.524 . S
C321 C318 1.403 . S
C321 C322 1.392 . S
C321 C325 1.495 . S
C322 C321 1.392 . S
C322 C323 1.385 . S
C322 C324 1.478 . S
C323 H317 0.930 . S
C323 C319 1.400 . S
C323 C322 1.385 . S
C324 C322 1.478 . S
C324 C326 1.381 . S
C324 C330 1.383 . S
C325 C321 1.495 . S
C325 H331 0.959 . S
C325 H332 0.961 . S
C325 H333 0.960 . S
C326 C324 1.381 . S
C326 C327 1.394 . S
C326 H334 0.930 . S
C327 C326 1.394 . S
C327 C328 1.383 . S
C327 H335 0.929 . S
C328 C327 1.383 . S
C328 C329 1.377 . S
C329 H313 0.930 . S
C329 C328 1.377 . S
C329 C330 1.379 . S
C330 H314 0.931 . S
C330 C324 1.383 . S
C330 C329 1.379 . S
H331 C325 0.959 . S
H332 C325 0.961 . S
H333 C325 0.960 . S
H334 C326 0.930 . S
H335 C327 0.929 . S
H336 C344 0.929 . S
H337 C346 0.930 . S
H338 C348 0.930 . S
H339 C351 0.929 . S
H340 C354 0.930 . S
H341 C356 0.960 . S
H342 C356 0.960 . S
H343 C356 0.960 . S
C344 H336 0.929 . S
C344 C345 1.377 1_554 S
C344 C346 1.384 . S
C345 C344 1.377 1_556 S
C345 C351 1.390 . S
C346 H337 0.930 . S
C346 C344 1.384 . S
C346 C347 1.372 . S
C347 C346 1.372 . S
C347 C348 1.400 1_554 S
C347 C352 1.490 . S
C348 H338 0.930 . S
C348 C347 1.400 1_556 S
C348 C351 1.386 . S
H349 C365 0.930 1_556 S
H350 C366 0.931 1_556 S
C351 H339 0.929 . S
C351 C345 1.390 . S
C351 C348 1.386 . S
C352 C347 1.490 . S
C352 C354 1.395 1_554 S
C352 C355 1.403 . S
H353 C359 0.930 . S
C354 H340 0.930 . S
C354 C352 1.395 1_556 S
C354 C357 1.403 . S
C355 C352 1.403 . S
C355 C356 1.524 . S
C355 C359 1.400 . S
C356 H341 0.960 . S
C356 H342 0.960 . S
C356 H343 0.960 . S
C356 C355 1.524 . S
C357 C354 1.403 . S
C357 C358 1.392 1_556 S
C357 C361 1.495 . S
C358 C357 1.392 1_554 S
C358 C359 1.385 . S
C358 C360 1.478 . S
C359 H353 0.930 . S
C359 C355 1.400 . S
C359 C358 1.385 . S
C360 C358 1.478 . S
C360 C362 1.381 . S
C360 C366 1.383 . S
C361 C357 1.495 . S
C361 H367 0.959 . S
C361 H368 0.961 . S
C361 H369 0.960 . S
C362 C360 1.381 . S
C362 C363 1.394 . S
C362 H370 0.930 . S
C363 C362 1.394 . S
C363 C364 1.383 . S
C363 H371 0.929 . S
C364 C363 1.383 . S
C364 C365 1.377 . S
C365 H349 0.930 1_554 S
C365 C364 1.377 . S
C365 C366 1.379 . S
C366 H350 0.931 1_554 S
C366 C360 1.383 . S
C366 C365 1.379 . S
H367 C361 0.959 . S
H368 C361 0.961 . S
H369 C361 0.960 . S
H370 C362 0.930 . S
H371 C363 0.929 . S
H372 C380 0.929 . S
H373 C382 0.930 . S
H374 C384 0.930 . S
H375 C387 0.929 . S
H376 C390 0.930 . S
H377 C392 0.960 . S
H378 C392 0.960 . S
H379 C392 0.960 . S
C380 H372 0.929 . S
C380 C381 1.377 . S
C380 C382 1.384 . S
C381 C380 1.377 . S
C381 C387 1.390 . S
C382 H373 0.930 . S
C382 C380 1.384 . S
C382 C383 1.372 . S
C383 C382 1.372 . S
C383 C384 1.400 . S
C383 C388 1.490 . S
C384 H374 0.930 . S
C384 C383 1.400 . S
C384 C387 1.386 . S
H385 C401 0.930 . S
H386 C402 0.931 . S
C387 H375 0.929 . S
C387 C381 1.390 . S
C387 C384 1.386 . S
C388 C383 1.490 . S
C388 C390 1.395 . S
C388 C391 1.403 . S
H389 C395 0.930 . S
C390 H376 0.930 . S
C390 C388 1.395 . S
C390 C393 1.403 . S
C391 C388 1.403 . S
C391 C392 1.524 . S
C391 C395 1.400 . S
C392 H377 0.960 . S
C392 H378 0.960 . S
C392 H379 0.960 . S
C392 C391 1.524 . S
C393 C390 1.403 . S
C393 C394 1.392 . S
C393 C397 1.495 . S
C394 C393 1.392 . S
C394 C395 1.385 . S
C394 C396 1.478 . S
C395 H389 0.930 . S
C395 C391 1.400 . S
C395 C394 1.385 . S
C396 C394 1.478 . S
C396 C398 1.381 . S
C396 C402 1.383 . S
C397 C393 1.495 . S
C397 H403 0.959 . S
C397 H404 0.961 . S
C397 H405 0.960 . S
C398 C396 1.381 . S
C398 C399 1.394 . S
C398 H406 0.930 . S
C399 C398 1.394 . S
C399 C400 1.383 . S
C399 H407 0.929 . S
C400 C399 1.383 . S
C400 C401 1.377 . S
C401 H385 0.930 . S
C401 C400 1.377 . S
C401 C402 1.379 . S
C402 H386 0.931 . S
C402 C396 1.383 . S
C402 C401 1.379 . S
H403 C397 0.959 . S
H404 C397 0.961 . S
H405 C397 0.960 . S
H406 C398 0.930 . S
H407 C399 0.929 . S
H408 C416 0.929 . S
H409 C418 0.930 . S
H410 C420 0.930 . S
H411 C423 0.929 . S
H412 C426 0.930 . S
H413 C428 0.960 . S
H414 C428 0.960 . S
H415 C428 0.960 . S
C416 H408 0.929 . S
C416 C417 1.377 . S
C416 C418 1.384 . S
C417 C416 1.377 . S
C417 C423 1.390 1_554 S
C418 H409 0.930 . S
C418 C416 1.384 . S
C418 C419 1.372 . S
C419 C418 1.372 . S
C419 C420 1.400 1_554 S
C419 C424 1.490 . S
C420 H410 0.930 . S
C420 C419 1.400 1_556 S
C420 C423 1.386 . S
H421 C437 0.930 . S
H422 C438 0.931 . S
C423 H411 0.929 . S
C423 C417 1.390 1_556 S
C423 C420 1.386 . S
C424 C419 1.490 . S
C424 C426 1.395 1_554 S
C424 C427 1.403 . S
H425 C431 0.930 . S
C426 H412 0.930 . S
C426 C424 1.395 1_556 S
C426 C429 1.403 . S
C427 C424 1.403 . S
C427 C428 1.524 . S
C427 C431 1.400 . S
C428 H413 0.960 . S
C428 H414 0.960 . S
C428 H415 0.960 . S
C428 C427 1.524 . S
C429 C426 1.403 . S
C429 C430 1.392 . S
C429 C433 1.495 . S
C430 C429 1.392 . S
C430 C431 1.385 1_556 S
C430 C432 1.478 . S
C431 H425 0.930 . S
C431 C427 1.400 . S
C431 C430 1.385 1_554 S
C432 C430 1.478 . S
C432 C434 1.381 1_556 S
C432 C438 1.383 . S
C433 C429 1.495 . S
C433 H439 0.959 . S
C433 H440 0.961 . S
C433 H441 0.960 . S
C434 C432 1.381 1_554 S
C434 C435 1.394 . S
C434 H442 0.930 . S
C435 C434 1.394 . S
C435 C436 1.383 1_554 S
C435 H443 0.929 . S
C436 C435 1.383 1_556 S
C436 C437 1.377 . S
C437 H421 0.930 . S
C437 C436 1.377 . S
C437 C438 1.379 . S
C438 H422 0.931 . S
C438 C432 1.383 . S
C438 C437 1.379 . S
H439 C433 0.959 . S
H440 C433 0.961 . S
H441 C433 0.960 . S
H442 C434 0.930 . S
H443 C435 0.929 . S
H444 C452 0.929 . S
H445 C454 0.930 . S
H446 C456 0.930 . S
H447 C459 0.929 . S
H448 C462 0.930 . S
H449 C464 0.960 . S
H450 C464 0.960 . S
H451 C464 0.960 . S
C452 H444 0.929 . S
C452 C453 1.377 . S
C452 C454 1.384 . S
C453 C452 1.377 . S
C453 C459 1.390 . S
C454 H445 0.930 . S
C454 C452 1.384 . S
C454 C455 1.372 . S
C455 C454 1.372 . S
C455 C456 1.400 . S
C455 C460 1.490 . S
C456 H446 0.930 . S
C456 C455 1.400 . S
C456 C459 1.386 . S
H457 C473 0.930 . S
H458 C474 0.931 . S
C459 H447 0.929 . S
C459 C453 1.390 . S
C459 C456 1.386 . S
C460 C455 1.490 . S
C460 C462 1.395 . S
C460 C463 1.403 . S
H461 C467 0.930 . S
C462 H448 0.930 . S
C462 C460 1.395 . S
C462 C465 1.403 . S
C463 C460 1.403 . S
C463 C464 1.524 . S
C463 C467 1.400 . S
C464 H449 0.960 . S
C464 H450 0.960 . S
C464 H451 0.960 . S
C464 C463 1.524 . S
C465 C462 1.403 . S
C465 C466 1.392 . S
C465 C469 1.495 . S
C466 C465 1.392 . S
C466 C467 1.385 . S
C466 C468 1.478 . S
C467 H461 0.930 . S
C467 C463 1.400 . S
C467 C466 1.385 . S
C468 C466 1.478 . S
C468 C470 1.381 . S
C468 C474 1.383 . S
C469 C465 1.495 . S
C469 H475 0.959 . S
C469 H476 0.961 . S
C469 H477 0.960 . S
C470 C468 1.381 . S
C470 C471 1.394 . S
C470 H478 0.930 . S
C471 C470 1.394 . S
C471 C472 1.383 . S
C471 H479 0.929 . S
C472 C471 1.383 . S
C472 C473 1.377 . S
C473 H457 0.930 . S
C473 C472 1.377 . S
C473 C474 1.379 . S
C474 H458 0.931 . S
C474 C468 1.383 . S
C474 C473 1.379 . S
H475 C469 0.959 . S
H476 C469 0.961 . S
H477 C469 0.960 . S
H478 C470 0.930 . S
H479 C471 0.929 . S
H480 C488 0.929 . S
H481 C490 0.930 . S
H482 C492 0.930 . S
H483 C495 0.929 . S
H484 C498 0.930 . S
H485 C500 0.960 . S
H486 C500 0.960 . S
H487 C500 0.960 . S
C488 H480 0.929 . S
C488 C489 1.377 . S
C488 C490 1.384 . S
C489 C488 1.377 . S
C489 C495 1.390 . S
C490 H481 0.930 . S
C490 C488 1.384 . S
C490 C491 1.372 . S
C491 C490 1.372 . S
C491 C492 1.400 . S
C491 C496 1.490 . S
C492 H482 0.930 . S
C492 C491 1.400 . S
C492 C495 1.386 . S
H493 C509 0.930 . S
H494 C510 0.928 1_554 S
C495 H483 0.929 . S
C495 C489 1.390 . S
C495 C492 1.386 . S
C496 C491 1.490 . S
C496 C498 1.395 . S
C496 C499 1.403 1_554 S
H497 C503 0.930 . S
C498 H484 0.930 . S
C498 C496 1.395 . S
C498 C501 1.403 . S
C499 C496 1.403 1_556 S
C499 C500 1.524 . S
C499 C503 1.400 . S
C500 H485 0.960 . S
C500 H486 0.960 . S
C500 H487 0.960 . S
C500 C499 1.524 . S
C501 C498 1.403 . S
C501 C502 1.392 . S
C501 C505 1.495 . S
C502 C501 1.392 . S
C502 C503 1.385 1_554 S
C502 C504 1.477 . S
C503 H497 0.930 . S
C503 C499 1.400 . S
C503 C502 1.385 1_556 S
C504 C502 1.477 . S
C504 C506 1.381 1_554 S
C504 C510 1.383 1_554 S
C505 C501 1.495 . S
C505 H511 0.959 . S
C505 H512 0.961 . S
C505 H513 0.960 . S
C506 C504 1.381 1_556 S
C506 C507 1.394 . S
C506 H514 0.930 . S
C507 C506 1.394 . S
C507 C508 1.383 . S
C507 H515 0.929 . S
C508 C507 1.383 . S
C508 C509 1.377 . S
C509 H493 0.930 . S
C509 C508 1.377 . S
C509 C510 1.379 . S
C510 H494 0.928 1_556 S
C510 C504 1.383 1_556 S
C510 C509 1.379 . S
H511 C505 0.959 . S
H512 C505 0.961 . S
H513 C505 0.960 . S
H514 C506 0.930 . S
H515 C507 0.929 . S
H516 C524 0.929 . S
H517 C526 0.930 . S
H518 C528 0.930 . S
H519 C531 0.929 . S
H520 C534 0.930 . S
H521 C536 0.960 . S
H522 C536 0.960 . S
H523 C536 0.960 . S
C524 H516 0.929 . S
C524 C525 1.377 . S
C524 C526 1.384 . S
C525 C524 1.377 . S
C525 C531 1.390 . S
C526 H517 0.930 . S
C526 C524 1.384 . S
C526 C527 1.372 . S
C527 C526 1.372 . S
C527 C528 1.400 . S
C527 C532 1.490 . S
C528 H518 0.930 . S
C528 C527 1.400 . S
C528 C531 1.386 . S
H529 C545 0.930 . S
H530 C546 0.931 . S
C531 H519 0.929 . S
C531 C525 1.390 . S
C531 C528 1.386 . S
C532 C527 1.490 . S
C532 C534 1.395 . S
C532 C535 1.403 . S
H533 C539 0.930 . S
C534 H520 0.930 . S
C534 C532 1.395 . S
C534 C537 1.403 . S
C535 C532 1.403 . S
C535 C536 1.524 . S
C535 C539 1.400 . S
C536 H521 0.960 . S
C536 H522 0.960 . S
C536 H523 0.960 . S
C536 C535 1.524 . S
C537 C534 1.403 . S
C537 C538 1.392 . S
C537 C541 1.495 . S
C538 C537 1.392 . S
C538 C539 1.385 . S
C538 C540 1.478 . S
C539 H533 0.930 . S
C539 C535 1.400 . S
C539 C538 1.385 . S
C540 C538 1.478 . S
C540 C542 1.381 . S
C540 C546 1.383 . S
C541 C537 1.495 . S
C541 H547 0.959 . S
C541 H548 0.961 . S
C541 H549 0.960 . S
C542 C540 1.381 . S
C542 C543 1.394 . S
C542 H550 0.930 . S
C543 C542 1.394 . S
C543 C544 1.383 . S
C543 H551 0.929 . S
C544 C543 1.383 . S
C544 C545 1.377 . S
C545 H529 0.930 . S
C545 C544 1.377 . S
C545 C546 1.379 . S
C546 H530 0.931 . S
C546 C540 1.383 . S
C546 C545 1.379 . S
H547 C541 0.959 . S
H548 C541 0.961 . S
H549 C541 0.960 . S
H550 C542 0.930 . S
H551 C543 0.929 . S
H552 C560 0.928 1_556 S
H553 C562 0.935 . S
H554 C564 0.930 . S
H555 C567 0.929 . S
H556 C570 0.930 . S
H557 C572 0.960 . S
H558 C572 0.960 . S
H559 C572 0.960 . S
C560 H552 0.928 1_554 S
C560 C561 1.379 . S
C560 C562 1.384 1_554 S
C561 C560 1.379 . S
C561 C567 1.390 . S
C562 H553 0.935 . S
C562 C560 1.384 1_556 S
C562 C563 1.368 1_556 S
C563 C562 1.368 1_554 S
C563 C564 1.400 . S
C563 C568 1.490 . S
C564 H554 0.930 . S
C564 C563 1.400 . S
C564 C567 1.386 . S
H565 C581 0.930 . S
H566 C582 0.931 . S
C567 H555 0.929 . S
C567 C561 1.390 . S
C567 C564 1.386 . S
C568 C563 1.490 . S
C568 C570 1.395 1_554 S
C568 C571 1.403 . S
H569 C575 0.930 . S
C570 H556 0.930 . S
C570 C568 1.395 1_556 S
C570 C573 1.403 . S
C571 C568 1.403 . S
C571 C572 1.524 . S
C571 C575 1.400 . S
C572 H557 0.960 . S
C572 H558 0.960 . S
C572 H559 0.960 . S
C572 C571 1.524 . S
C573 C570 1.403 . S
C573 C574 1.392 1_556 S
C573 C577 1.495 . S
C574 C573 1.392 1_554 S
C574 C575 1.385 . S
C574 C576 1.478 . S
C575 H569 0.930 . S
C575 C571 1.400 . S
C575 C574 1.385 . S
C576 C574 1.478 . S
C576 C578 1.381 1_554 S
C576 C582 1.383 . S
C577 C573 1.495 . S
C577 H583 0.959 . S
C577 H584 0.961 . S
C577 H585 0.960 . S
C578 C576 1.381 1_556 S
C578 C579 1.396 . S
C578 H586 0.930 . S
C579 C578 1.396 . S
C579 C580 1.375 1_556 S
C579 H587 0.936 . S
C580 C579 1.375 1_554 S
C580 C581 1.377 . S
C581 H565 0.930 . S
C581 C580 1.377 . S
C581 C582 1.379 . S
C582 H566 0.931 . S
C582 C576 1.383 . S
C582 C581 1.379 . S
H583 C577 0.959 . S
H584 C577 0.961 . S
H585 C577 0.960 . S
H586 C578 0.930 . S
H587 C579 0.936 . S
H588 C596 0.929 . S
H589 C598 0.930 . S
H590 C600 0.930 . S
H591 C603 0.929 . S
H592 C606 0.930 . S
H593 C608 0.960 . S
H594 C608 0.960 . S
H595 C608 0.960 . S
C596 H588 0.929 . S
C596 C597 1.377 . S
C596 C598 1.384 . S
C597 C596 1.377 . S
C597 C603 1.390 . S
C598 H589 0.930 . S
C598 C596 1.384 . S
C598 C599 1.372 . S
C599 C598 1.372 . S
C599 C600 1.400 . S
C599 C604 1.490 . S
C600 H590 0.930 . S
C600 C599 1.400 . S
C600 C603 1.386 . S
H601 C617 0.930 . S
H602 C618 0.931 . S
C603 H591 0.929 . S
C603 C597 1.390 . S
C603 C600 1.386 . S
C604 C599 1.490 . S
C604 C606 1.395 . S
C604 C607 1.403 . S
H605 C611 0.930 . S
C606 H592 0.930 . S
C606 C604 1.395 . S
C606 C609 1.403 . S
C607 C604 1.403 . S
C607 C608 1.524 . S
C607 C611 1.400 . S
C608 H593 0.960 . S
C608 H594 0.960 . S
C608 H595 0.960 . S
C608 C607 1.524 . S
C609 C606 1.403 . S
C609 C610 1.392 . S
C609 C613 1.495 . S
C610 C609 1.392 . S
C610 C611 1.385 . S
C610 C612 1.478 . S
C611 H605 0.930 . S
C611 C607 1.400 . S
C611 C610 1.385 . S
C612 C610 1.478 . S
C612 C614 1.381 . S
C612 C618 1.383 . S
C613 C609 1.495 . S
C613 H619 0.959 . S
C613 H620 0.961 . S
C613 H621 0.960 . S
C614 C612 1.381 . S
C614 C615 1.394 . S
C614 H622 0.930 . S
C615 C614 1.394 . S
C615 C616 1.383 . S
C615 H623 0.929 . S
C616 C615 1.383 . S
C616 C617 1.377 . S
C617 H601 0.930 . S
C617 C616 1.377 . S
C617 C618 1.379 . S
C618 H602 0.931 . S
C618 C612 1.383 . S
C618 C617 1.379 . S
H619 C613 0.959 . S
H620 C613 0.961 . S
H621 C613 0.960 . S
H622 C614 0.930 . S
H623 C615 0.929 . S
H624 C632 0.929 . S
H625 C634 0.930 . S
H626 C636 0.930 . S
H627 C639 0.929 . S
H628 C642 0.930 . S
H629 C644 0.960 . S
H630 C644 0.960 . S
H631 C644 0.960 . S
C632 H624 0.929 . S
C632 C633 1.393 . S
C632 C634 1.384 . S
C633 C632 1.393 . S
C633 C639 1.375 1_556 S
C634 H625 0.930 . S
C634 C632 1.384 . S
C634 C635 1.372 . S
C635 C634 1.372 . S
C635 C636 1.400 1_556 S
C635 C640 1.490 . S
C636 H626 0.930 . S
C636 C635 1.400 1_554 S
C636 C639 1.386 . S
H637 C653 0.930 . S
H638 C654 0.931 . S
C639 H627 0.929 . S
C639 C633 1.375 1_554 S
C639 C636 1.386 . S
C640 C635 1.490 . S
C640 C642 1.395 . S
C640 C643 1.403 1_566 S
H641 C647 0.930 . S
C642 H628 0.930 . S
C642 C640 1.395 . S
C642 C645 1.403 1_455 S
C643 C640 1.403 1_544 S
C643 C644 1.524 . S
C643 C647 1.400 1_455 S
C644 H629 0.960 . S
C644 H630 0.960 . S
C644 H631 0.960 . S
C644 C643 1.524 . S
C645 C642 1.403 1_655 S
C645 C646 1.392 1_565 S
C645 C649 1.495 . S
C646 C645 1.392 1_545 S
C646 C647 1.385 1_556 S
C646 C648 1.478 . S
C647 H641 0.930 . S
C647 C643 1.400 1_655 S
C647 C646 1.385 1_554 S
C648 C646 1.478 . S
C648 C650 1.381 . S
C648 C654 1.383 1_556 S
C649 C645 1.495 . S
C649 H655 0.959 . S
C649 H656 0.961 . S
C649 H657 0.960 . S
C650 C648 1.381 . S
C650 C651 1.394 . S
C650 H658 0.930 . S
C651 C650 1.394 . S
C651 C652 1.383 . S
C651 H659 0.929 . S
C652 C651 1.383 . S
C652 C653 1.377 1_556 S
C653 H637 0.930 . S
C653 C652 1.377 1_554 S
C653 C654 1.379 . S
C654 H638 0.931 . S
C654 C648 1.383 1_554 S
C654 C653 1.379 . S
H655 C649 0.959 . S
H656 C649 0.961 . S
H657 C649 0.960 . S
H658 C650 0.930 . S
H659 C651 0.929 . S
H660 C668 0.929 . S
H661 C670 0.930 . S
H662 C672 0.930 . S
H663 C675 0.929 . S
H664 C678 0.930 . S
H665 C680 0.960 1_545 S
H666 C680 0.960 . S
H667 C680 0.960 . S
C668 H660 0.929 . S
C668 C669 1.377 . S
C668 C670 1.384 . S
C669 C668 1.377 . S
C669 C675 1.390 . S
C670 H661 0.930 . S
C670 C668 1.384 . S
C670 C671 1.372 . S
C671 C670 1.372 . S
C671 C672 1.400 . S
C671 C676 1.490 . S
C672 H662 0.930 . S
C672 C671 1.400 . S
C672 C675 1.386 . S
H673 C689 0.930 . S
H674 C690 0.931 . S
C675 H663 0.929 . S
C675 C669 1.390 . S
C675 C672 1.386 . S
C676 C671 1.490 . S
C676 C678 1.395 1_655 S
C676 C679 1.403 . S
H677 C683 0.930 . S
C678 H664 0.930 . S
C678 C676 1.395 1_455 S
C678 C681 1.403 1_565 S
C679 C676 1.403 . S
C679 C680 1.524 . S
C679 C683 1.400 1_565 S
C680 H665 0.960 1_565 S
C680 H666 0.960 . S
C680 H667 0.960 . S
C680 C679 1.524 . S
C681 C678 1.403 1_545 S
C681 C682 1.392 . S
C681 C685 1.495 . S
C682 C681 1.392 . S
C682 C683 1.385 1_455 S
C682 C684 1.478 . S
C683 H677 0.930 . S
C683 C679 1.400 1_545 S
C683 C682 1.385 1_655 S
C684 C682 1.478 . S
C684 C686 1.381 . S
C684 C690 1.383 . S
C685 C681 1.495 . S
C685 H691 0.959 1_545 S
C685 H692 0.961 . S
C685 H693 0.960 . S
C686 C684 1.381 . S
C686 C687 1.394 . S
C686 H694 0.930 . S
C687 C686 1.394 . S
C687 C688 1.383 . S
C687 H695 0.929 . S
C688 C687 1.383 . S
C688 C689 1.377 . S
C689 H673 0.930 . S
C689 C688 1.377 . S
C689 C690 1.379 . S
C690 H674 0.931 . S
C690 C684 1.383 . S
C690 C689 1.379 . S
H691 C685 0.959 1_565 S
H692 C685 0.961 . S
H693 C685 0.960 . S
H694 C686 0.930 . S
H695 C687 0.929 . S
H696 C704 0.929 . S
H697 C706 0.930 . S
H698 C708 0.930 . S
H699 C711 0.929 . S
H700 C714 0.930 . S
H701 C716 0.960 . S
H702 C716 0.960 . S
H703 C716 0.960 . S
C704 H696 0.929 . S
C704 C705 1.377 . S
C704 C706 1.384 . S
C705 C704 1.377 . S
C705 C711 1.390 . S
C706 H697 0.930 . S
C706 C704 1.384 . S
C706 C707 1.372 . S
C707 C706 1.372 . S
C707 C708 1.400 . S
C707 C712 1.490 . S
C708 H698 0.930 . S
C708 C707 1.400 . S
C708 C711 1.386 . S
H709 C725 0.930 . S
H710 C726 0.931 . S
C711 H699 0.929 . S
C711 C705 1.390 . S
C711 C708 1.386 . S
C712 C707 1.490 . S
C712 C714 1.395 . S
C712 C715 1.403 . S
H713 C719 0.930 . S
C714 H700 0.930 . S
C714 C712 1.395 . S
C714 C717 1.403 . S
C715 C712 1.403 . S
C715 C716 1.524 . S
C715 C719 1.400 . S
C716 H701 0.960 . S
C716 H702 0.960 . S
C716 H703 0.960 . S
C716 C715 1.524 . S
C717 C714 1.403 . S
C717 C718 1.392 . S
C717 C721 1.495 . S
C718 C717 1.392 . S
C718 C719 1.385 . S
C718 C720 1.478 . S
C719 H713 0.930 . S
C719 C715 1.400 . S
C719 C718 1.385 . S
C720 C718 1.478 . S
C720 C722 1.381 . S
C720 C726 1.383 . S
C721 C717 1.495 . S
C721 H727 0.959 . S
C721 H728 0.961 . S
C721 H729 0.960 . S
C722 C720 1.381 . S
C722 C723 1.394 . S
C722 H730 0.930 . S
C723 C722 1.394 . S
C723 C724 1.383 . S
C723 H731 0.929 . S
C724 C723 1.383 . S
C724 C725 1.377 . S
C725 H709 0.930 . S
C725 C724 1.377 . S
C725 C726 1.379 . S
C726 H710 0.931 . S
C726 C720 1.383 . S
C726 C725 1.379 . S
H727 C721 0.959 . S
H728 C721 0.961 . S
H729 C721 0.960 . S
H730 C722 0.930 . S
H731 C723 0.929 . S
H732 C740 0.929 . S
H733 C742 0.930 . S
H734 C744 0.930 . S
H735 C747 0.929 . S
H736 C750 0.930 . S
H737 C752 0.960 . S
H738 C752 0.960 . S
H739 C752 0.960 . S
C740 H732 0.929 . S
C740 C741 1.377 . S
C740 C742 1.384 . S
C741 C740 1.377 . S
C741 C747 1.390 . S
C742 H733 0.930 . S
C742 C740 1.384 . S
C742 C743 1.372 . S
C743 C742 1.372 . S
C743 C744 1.400 . S
C743 C748 1.490 . S
C744 H734 0.930 . S
C744 C743 1.400 . S
C744 C747 1.386 . S
H745 C761 0.930 . S
H746 C762 0.931 . S
C747 H735 0.929 . S
C747 C741 1.390 . S
C747 C744 1.386 . S
C748 C743 1.490 . S
C748 C750 1.395 . S
C748 C751 1.403 . S
H749 C755 0.930 . S
C750 H736 0.930 . S
C750 C748 1.395 . S
C750 C753 1.403 . S
C751 C748 1.403 . S
C751 C752 1.524 . S
C751 C755 1.400 . S
C752 H737 0.960 . S
C752 H738 0.960 . S
C752 H739 0.960 . S
C752 C751 1.524 . S
C753 C750 1.403 . S
C753 C754 1.392 . S
C753 C757 1.495 . S
C754 C753 1.392 . S
C754 C755 1.385 . S
C754 C756 1.478 . S
C755 H749 0.930 . S
C755 C751 1.400 . S
C755 C754 1.385 . S
C756 C754 1.478 . S
C756 C758 1.381 . S
C756 C762 1.383 . S
C757 C753 1.495 . S
C757 H763 0.959 . S
C757 H764 0.961 . S
C757 H765 0.960 . S
C758 C756 1.381 . S
C758 C759 1.394 . S
C758 H766 0.930 . S
C759 C758 1.394 . S
C759 C760 1.383 . S
C759 H767 0.929 . S
C760 C759 1.383 . S
C760 C761 1.377 . S
C761 H745 0.930 . S
C761 C760 1.377 . S
C761 C762 1.379 . S
C762 H746 0.931 . S
C762 C756 1.383 . S
C762 C761 1.379 . S
H763 C757 0.959 . S
H764 C757 0.961 . S
H765 C757 0.960 . S
H766 C758 0.930 . S
H767 C759 0.929 . S
H768 C776 0.929 . S
H769 C778 0.930 . S
H770 C780 0.930 . S
H771 C783 0.929 . S
H772 C786 0.930 . S
H773 C788 0.960 . S
H774 C788 0.960 . S
H775 C788 0.960 . S
C776 H768 0.929 . S
C776 C777 1.377 . S
C776 C778 1.384 . S
C777 C776 1.377 . S
C777 C783 1.390 . S
C778 H769 0.930 . S
C778 C776 1.384 . S
C778 C779 1.372 . S
C779 C778 1.372 . S
C779 C780 1.400 . S
C779 C784 1.490 . S
C780 H770 0.930 . S
C780 C779 1.400 . S
C780 C783 1.386 . S
H781 C797 0.930 . S
H782 C798 0.931 . S
C783 H771 0.929 . S
C783 C777 1.390 . S
C783 C780 1.386 . S
C784 C779 1.490 . S
C784 C786 1.395 . S
C784 C787 1.403 . S
H785 C791 0.930 . S
C786 H772 0.930 . S
C786 C784 1.395 . S
C786 C789 1.403 . S
C787 C784 1.403 . S
C787 C788 1.524 . S
C787 C791 1.400 . S
C788 H773 0.960 . S
C788 H774 0.960 . S
C788 H775 0.960 . S
C788 C787 1.524 . S
C789 C786 1.403 . S
C789 C790 1.392 . S
C789 C793 1.495 . S
C790 C789 1.392 . S
C790 C791 1.385 . S
C790 C792 1.478 . S
C791 H785 0.930 . S
C791 C787 1.400 . S
C791 C790 1.385 . S
C792 C790 1.478 . S
C792 C794 1.381 . S
C792 C798 1.383 . S
C793 C789 1.495 . S
C793 H799 0.959 . S
C793 H800 0.961 . S
C793 H801 0.960 . S
C794 C792 1.381 . S
C794 C795 1.394 . S
C794 H802 0.930 . S
C795 C794 1.394 . S
C795 C796 1.383 . S
C795 H803 0.929 . S
C796 C795 1.383 . S
C796 C797 1.377 . S
C797 H781 0.930 . S
C797 C796 1.377 . S
C797 C798 1.379 . S
C798 H782 0.931 . S
C798 C792 1.383 . S
C798 C797 1.379 . S
H799 C793 0.959 . S
H800 C793 0.961 . S
H801 C793 0.960 . S
H802 C794 0.930 . S
H803 C795 0.929 . S
H804 C812 0.929 . S
H805 C814 0.930 . S
H806 C816 0.930 . S
H807 C819 0.929 . S
H808 C822 0.930 . S
H809 C824 0.960 . S
H810 C824 0.960 . S
H811 C824 0.960 . S
C812 H804 0.929 . S
C812 C813 1.377 . S
C812 C814 1.384 . S
C813 C812 1.377 . S
C813 C819 1.390 . S
C814 H805 0.930 . S
C814 C812 1.384 . S
C814 C815 1.372 . S
C815 C814 1.372 . S
C815 C816 1.400 . S
C815 C820 1.490 . S
C816 H806 0.930 . S
C816 C815 1.400 . S
C816 C819 1.386 . S
H817 C833 0.930 . S
H818 C834 0.931 . S
C819 H807 0.929 . S
C819 C813 1.390 . S
C819 C816 1.386 . S
C820 C815 1.490 . S
C820 C822 1.395 . S
C820 C823 1.403 . S
H821 C827 0.930 . S
C822 H808 0.930 . S
C822 C820 1.395 . S
C822 C825 1.403 . S
C823 C820 1.403 . S
C823 C824 1.524 . S
C823 C827 1.400 . S
C824 H809 0.960 . S
C824 H810 0.960 . S
C824 H811 0.960 . S
C824 C823 1.524 . S
C825 C822 1.403 . S
C825 C826 1.392 . S
C825 C829 1.495 . S
C826 C825 1.392 . S
C826 C827 1.385 . S
C826 C828 1.478 . S
C827 H821 0.930 . S
C827 C823 1.400 . S
C827 C826 1.385 . S
C828 C826 1.478 . S
C828 C830 1.381 . S
C828 C834 1.383 . S
C829 C825 1.495 . S
C829 H835 0.959 . S
C829 H836 0.961 . S
C829 H837 0.960 . S
C830 C828 1.381 . S
C830 C831 1.394 . S
C830 H838 0.930 . S
C831 C830 1.394 . S
C831 C832 1.383 . S
C831 H839 0.929 . S
C832 C831 1.383 . S
C832 C833 1.377 . S
C833 H817 0.930 . S
C833 C832 1.377 . S
C833 C834 1.379 . S
C834 H818 0.931 . S
C834 C828 1.383 . S
C834 C833 1.379 . S
H835 C829 0.959 . S
H836 C829 0.961 . S
H837 C829 0.960 . S
H838 C830 0.930 . S
H839 C831 0.929 . S
H840 C848 0.929 . S
H841 C850 0.930 . S
H842 C852 0.930 . S
H843 C855 0.929 . S
H844 C858 0.930 . S
H845 C860 0.960 . S
H846 C860 0.960 . S
H847 C860 0.960 . S
C848 H840 0.929 . S
C848 C849 1.377 . S
C848 C850 1.384 . S
C849 C848 1.377 . S
C849 C855 1.390 . S
C850 H841 0.930 . S
C850 C848 1.384 . S
C850 C851 1.372 . S
C851 C850 1.372 . S
C851 C852 1.400 . S
C851 C856 1.490 . S
C852 H842 0.930 . S
C852 C851 1.400 . S
C852 C855 1.386 . S
H853 C869 0.930 . S
H854 C870 0.931 . S
C855 H843 0.929 . S
C855 C849 1.390 . S
C855 C852 1.386 . S
C856 C851 1.490 . S
C856 C858 1.395 . S
C856 C859 1.403 . S
H857 C863 0.930 . S
C858 H844 0.930 . S
C858 C856 1.395 . S
C858 C861 1.403 . S
C859 C856 1.403 . S
C859 C860 1.524 . S
C859 C863 1.400 . S
C860 H845 0.960 . S
C860 H846 0.960 . S
C860 H847 0.960 . S
C860 C859 1.524 . S
C861 C858 1.403 . S
C861 C862 1.392 . S
C861 C865 1.495 . S
C862 C861 1.392 . S
C862 C863 1.385 . S
C862 C864 1.478 . S
C863 H857 0.930 . S
C863 C859 1.400 . S
C863 C862 1.385 . S
C864 C862 1.478 . S
C864 C866 1.381 . S
C864 C870 1.383 . S
C865 C861 1.495 . S
C865 H871 0.959 . S
C865 H872 0.961 . S
C865 H873 0.960 . S
C866 C864 1.381 . S
C866 C867 1.394 . S
C866 H874 0.930 . S
C867 C866 1.394 . S
C867 C868 1.383 . S
C867 H875 0.929 . S
C868 C867 1.383 . S
C868 C869 1.377 . S
C869 H853 0.930 . S
C869 C868 1.377 . S
C869 C870 1.379 . S
C870 H854 0.931 . S
C870 C864 1.383 . S
C870 C869 1.379 . S
H871 C865 0.959 . S
H872 C865 0.961 . S
H873 C865 0.960 . S
H874 C866 0.930 . S
H875 C867 0.929 . S
H876 C884 0.929 . S
H877 C886 0.930 . S
H878 C888 0.930 . S
H879 C891 0.929 . S
H880 C894 0.930 . S
H881 C896 0.960 . S
H882 C896 0.960 . S
H883 C896 0.960 . S
C884 H876 0.929 . S
C884 C885 1.377 . S
C884 C886 1.384 . S
C885 C884 1.377 . S
C885 C891 1.390 . S
C886 H877 0.930 . S
C886 C884 1.384 . S
C886 C887 1.372 . S
C887 C886 1.372 . S
C887 C888 1.400 . S
C887 C892 1.490 . S
C888 H878 0.930 . S
C888 C887 1.400 . S
C888 C891 1.386 . S
H889 C905 0.930 . S
H890 C906 0.931 . S
C891 H879 0.929 . S
C891 C885 1.390 . S
C891 C888 1.386 . S
C892 C887 1.490 . S
C892 C894 1.395 . S
C892 C895 1.403 . S
H893 C899 0.930 . S
C894 H880 0.930 . S
C894 C892 1.395 . S
C894 C897 1.403 . S
C895 C892 1.403 . S
C895 C896 1.524 . S
C895 C899 1.400 . S
C896 H881 0.960 . S
C896 H882 0.960 . S
C896 H883 0.960 . S
C896 C895 1.524 . S
C897 C894 1.403 . S
C897 C898 1.392 . S
C897 C901 1.495 . S
C898 C897 1.392 . S
C898 C899 1.385 . S
C898 C900 1.478 . S
C899 H893 0.930 . S
C899 C895 1.400 . S
C899 C898 1.385 . S
C900 C898 1.478 . S
C900 C902 1.381 . S
C900 C906 1.383 . S
C901 C897 1.495 . S
C901 H907 0.959 . S
C901 H908 0.961 . S
C901 H909 0.960 . S
C902 C900 1.381 . S
C902 C903 1.394 . S
C902 H910 0.930 . S
C903 C902 1.394 . S
C903 C904 1.383 . S
C903 H911 0.929 . S
C904 C903 1.383 . S
C904 C905 1.377 . S
C905 H889 0.930 . S
C905 C904 1.377 . S
C905 C906 1.379 . S
C906 H890 0.931 . S
C906 C900 1.383 . S
C906 C905 1.379 . S
H907 C901 0.959 . S
H908 C901 0.961 . S
H909 C901 0.960 . S
H910 C902 0.930 . S
H911 C903 0.929 . S
H912 C920 0.929 . S
H913 C922 0.930 . S
H914 C924 0.930 . S
H915 C927 0.929 . S
H916 C930 0.930 . S
H917 C932 0.960 . S
H918 C932 0.960 . S
H919 C932 0.960 . S
C920 H912 0.929 . S
C920 C921 1.377 . S
C920 C922 1.384 . S
C921 C920 1.377 . S
C921 C927 1.390 . S
C922 H913 0.930 . S
C922 C920 1.384 . S
C922 C923 1.372 . S
C923 C922 1.372 . S
C923 C924 1.400 . S
C923 C928 1.490 . S
C924 H914 0.930 . S
C924 C923 1.400 . S
C924 C927 1.386 . S
H925 C941 0.930 . S
H926 C942 0.931 . S
C927 H915 0.929 . S
C927 C921 1.390 . S
C927 C924 1.386 . S
C928 C923 1.490 . S
C928 C930 1.395 . S
C928 C931 1.403 . S
H929 C935 0.930 . S
C930 H916 0.930 . S
C930 C928 1.395 . S
C930 C933 1.403 . S
C931 C928 1.403 . S
C931 C932 1.524 . S
C931 C935 1.400 . S
C932 H917 0.960 . S
C932 H918 0.960 . S
C932 H919 0.960 . S
C932 C931 1.524 . S
C933 C930 1.403 . S
C933 C934 1.392 . S
C933 C937 1.495 . S
C934 C933 1.392 . S
C934 C935 1.385 . S
C934 C936 1.478 . S
C935 H929 0.930 . S
C935 C931 1.400 . S
C935 C934 1.385 . S
C936 C934 1.478 . S
C936 C938 1.381 . S
C936 C942 1.383 . S
C937 C933 1.495 . S
C937 H943 0.959 . S
C937 H944 0.961 . S
C937 H945 0.960 . S
C938 C936 1.381 . S
C938 C939 1.394 . S
C938 H946 0.930 . S
C939 C938 1.394 . S
C939 C940 1.383 . S
C939 H947 0.929 . S
C940 C939 1.383 . S
C940 C941 1.377 . S
C941 H925 0.930 . S
C941 C940 1.377 . S
C941 C942 1.379 . S
C942 H926 0.931 . S
C942 C936 1.383 . S
C942 C941 1.379 . S
H943 C937 0.959 . S
H944 C937 0.961 . S
H945 C937 0.960 . S
H946 C938 0.930 . S
H947 C939 0.929 . S
H948 C956 0.929 . S
H949 C958 0.930 . S
H950 C960 0.930 . S
H951 C963 0.929 . S
H952 C966 0.930 . S
H953 C968 0.960 . S
H954 C968 0.960 . S
H955 C968 0.960 . S
C956 H948 0.929 . S
C956 C957 1.377 . S
C956 C958 1.384 . S
C957 C956 1.377 . S
C957 C963 1.390 . S
C958 H949 0.930 . S
C958 C956 1.384 . S
C958 C959 1.372 . S
C959 C958 1.372 . S
C959 C960 1.400 . S
C959 C964 1.490 . S
C960 H950 0.930 . S
C960 C959 1.400 . S
C960 C963 1.386 . S
H961 C977 0.930 . S
H962 C978 0.931 . S
C963 H951 0.929 . S
C963 C957 1.390 . S
C963 C960 1.386 . S
C964 C959 1.490 . S
C964 C966 1.395 . S
C964 C967 1.403 . S
H965 C971 0.930 . S
C966 H952 0.930 . S
C966 C964 1.395 . S
C966 C969 1.403 . S
C967 C964 1.403 . S
C967 C968 1.524 . S
C967 C971 1.400 . S
C968 H953 0.960 . S
C968 H954 0.960 . S
C968 H955 0.960 . S
C968 C967 1.524 . S
C969 C966 1.403 . S
C969 C970 1.392 . S
C969 C973 1.495 . S
C970 C969 1.392 . S
C970 C971 1.385 . S
C970 C972 1.478 . S
C971 H965 0.930 . S
C971 C967 1.400 . S
C971 C970 1.385 . S
C972 C970 1.478 . S
C972 C974 1.381 . S
C972 C978 1.383 . S
C973 C969 1.495 . S
C973 H979 0.959 . S
C973 H980 0.961 . S
C973 H981 0.960 . S
C974 C972 1.381 . S
C974 C975 1.394 . S
C974 H982 0.930 . S
C975 C974 1.394 . S
C975 C976 1.383 . S
C975 H983 0.929 . S
C976 C975 1.383 . S
C976 C977 1.377 . S
C977 H961 0.930 . S
C977 C976 1.377 . S
C977 C978 1.379 . S
C978 H962 0.931 . S
C978 C972 1.383 . S
C978 C977 1.379 . S
H979 C973 0.959 . S
H980 C973 0.961 . S
H981 C973 0.960 . S
H982 C974 0.930 . S
H983 C975 0.929 . S
C273 N212 0.638 . S
C292 N5 0.668 . S
C309 N245 0.634 . S
C328 N38 0.625 . S
C345 N146 0.638 . S
C364 N71 0.605 . S
C381 N179 0.637 . S
C400 N104 0.663 . S
C417 N80 0.644 . S
C436 N137 0.681 . S
C453 N113 0.641 . S
C472 N170 0.604 . S
C489 N14 0.635 . S
C508 N203 0.614 . S
C525 N236 0.637 . S
C544 N47 0.606 . S
C561 C74 2.645 . S
C580 C8 2.638 . S
C597 C41 2.645 . S
C616 C107 2.638 . S
C633 C206 2.644 1_556 S
C652 C140 2.639 1_556 S
C669 C173 2.644 . S
C688 C239 2.639 . S
C705 C28 1.981 . S
C724 C259 1.978 . S
C741 C160 1.981 . S
C760 C61 1.975 . S
C777 C193 1.983 . S
C796 C94 1.968 . S
C813 C226 1.979 . S
C832 C127 1.985 . S
C849 C83 1.006 . S
C868 C182 1.005 . S
C885 C116 1.002 . S
C904 C215 1.020 . S
C921 C248 1.007 . S
C940 C17 0.998 . S
C957 C149 1.000 . S
C976 C50 1.011 . S
