# Generated by pormake.
# Topology xfu, (5)-cn, num edge types: 1
# Building blocks:
#     Node 0, Type 0, BuildingBlock: XOMCOT_clean_sbu_0, # of connection points: 5
#     Node 1, Type 0, BuildingBlock: XOMCOT_clean_sbu_0, # of connection points: 5
#     Node 2, Type 0, BuildingBlock: XOMCOT_clean_sbu_0, # of connection points: 5
#     Node 3, Type 0, BuildingBlock: XOMCOT_clean_sbu_0, # of connection points: 5
#     Node 4, Type 0, BuildingBlock: XOMCOT_clean_sbu_0, # of connection points: 5
#     Node 5, Type 0, BuildingBlock: XOMCOT_clean_sbu_0, # of connection points: 5
#     Node 6, Type 0, BuildingBlock: XOMCOT_clean_sbu_0, # of connection points: 5
#     Node 7, Type 0, BuildingBlock: XOMCOT_clean_sbu_0, # of connection points: 5
#     Edge 8, Type (0, 0), BuildingBlock: AJUNOK_clean_linker_0, # of connection points: 2
#     Edge 9, Type (0, 0), BuildingBlock: AJUNOK_clean_linker_0, # of connection points: 2
#     Edge 10, Type (0, 0), BuildingBlock: AJUNOK_clean_linker_0, # of connection points: 2
#     Edge 11, Type (0, 0), BuildingBlock: AJUNOK_clean_linker_0, # of connection points: 2
#     Edge 12, Type (0, 0), BuildingBlock: AJUNOK_clean_linker_0, # of connection points: 2
#     Edge 13, Type (0, 0), BuildingBlock: AJUNOK_clean_linker_0, # of connection points: 2
#     Edge 14, Type (0, 0), BuildingBlock: AJUNOK_clean_linker_0, # of connection points: 2
#     Edge 15, Type (0, 0), BuildingBlock: AJUNOK_clean_linker_0, # of connection points: 2
#     Edge 16, Type (0, 0), BuildingBlock: AJUNOK_clean_linker_0, # of connection points: 2
#     Edge 17, Type (0, 0), BuildingBlock: AJUNOK_clean_linker_0, # of connection points: 2
#     Edge 18, Type (0, 0), BuildingBlock: AJUNOK_clean_linker_0, # of connection points: 2
#     Edge 19, Type (0, 0), BuildingBlock: AJUNOK_clean_linker_0, # of connection points: 2
#     Edge 20, Type (0, 0), BuildingBlock: AJUNOK_clean_linker_0, # of connection points: 2
#     Edge 21, Type (0, 0), BuildingBlock: AJUNOK_clean_linker_0, # of connection points: 2
#     Edge 22, Type (0, 0), BuildingBlock: AJUNOK_clean_linker_0, # of connection points: 2
#     Edge 23, Type (0, 0), BuildingBlock: AJUNOK_clean_linker_0, # of connection points: 2
#     Edge 24, Type (0, 0), BuildingBlock: AJUNOK_clean_linker_0, # of connection points: 2
#     Edge 25, Type (0, 0), BuildingBlock: AJUNOK_clean_linker_0, # of connection points: 2
#     Edge 26, Type (0, 0), BuildingBlock: AJUNOK_clean_linker_0, # of connection points: 2
#     Edge 27, Type (0, 0), BuildingBlock: AJUNOK_clean_linker_0, # of connection points: 2
# Relax obj value: 0.373
# Max RMSD: 0.275
# Mean RMSD: 0.275
data_MOF--net-xfu--node1-XOMCOT_clean_sbu_0--edge1-AJUNOK_clean_linker_0
_symmetry_space_group_name_H-M    P1
_symmetry_Int_Tables_number       1
_symmetry_cell_setting            triclinic
loop_
_symmetry_equiv_pos_as_xyz
'x, y, z'
_cell_length_a     23.349185
_cell_length_b     23.27073
_cell_length_c     38.566032
_cell_angle_alpha  89.918682
_cell_angle_beta   89.905315
_cell_angle_gamma 90.047582
loop_
_atom_site_label
_atom_site_type_symbol
_atom_site_fract_x
_atom_site_fract_y
_atom_site_fract_z
_atom_type_partial_charge
Co0 Co 0.12431 0.24226 0.61933 0.0
C1 C 0.08955 0.15764 0.56725 0.0
C2 C 0.1407 0.11864 0.60713 0.0
C3 C 0.12862 0.07779 0.58231 0.0
N4 N 0.11609 0.16846 0.59754 0.0
N5 N 0.09674 0.10264 0.55728 0.0
H6 H 0.06728 0.18989 0.55218 0.0
H7 H 0.16675 0.11285 0.63003 0.0
C8 C 0.09697 0.22011 0.69476 0.0
O9 O 0.06056 0.26317 0.69498 0.0
N10 N 0.13388 0.31768 0.64082 0.0
C11 C 0.11958 0.36936 0.62745 0.0
C12 C 0.13259 0.41159 0.65104 0.0
C13 C 0.15876 0.33004 0.67156 0.0
N14 N 0.15675 0.38679 0.67897 0.0
C15 C 0.02101 0.29129 0.59302 0.0
C16 C 0.94659 0.22753 0.63339 0.0
C17 C 0.92478 0.27131 0.61222 0.0
C18 C 0.96257 0.30213 0.59104 0.0
C19 C 0.00539 0.21744 0.63399 0.0
N20 N 0.0421 0.25233 0.61613 0.0
H21 H 0.04911 0.31389 0.57555 0.0
H22 H 0.02119 0.18183 0.64912 0.0
H23 H 0.10172 0.37688 0.60214 0.0
H24 H 0.17648 0.29797 0.68868 0.0
O25 O 0.14724 0.27539 0.57528 0.0
O26 O 0.20529 0.23656 0.61454 0.0
O27 O 0.12047 0.20438 0.66638 0.0
C28 C 0.19897 0.26182 0.58476 0.0
H29 H 0.14243 0.0334 0.58256 0.0
H30 H 0.12443 0.4571 0.648 0.0
H31 H 0.91885 0.202 0.64983 0.0
H32 H 0.94709 0.33439 0.57308 0.0
Co33 Co 0.86366 0.63262 0.12182 0.0
C34 C 0.95358 0.58948 0.07379 0.0
C35 C 0.98693 0.65001 0.11034 0.0
C36 C 0.02975 0.63629 0.08713 0.0
N37 N 0.93923 0.62023 0.10217 0.0
N38 N 0.0086 0.59797 0.06437 0.0
H39 H 0.92398 0.56442 0.05869 0.0
H40 H 0.98963 0.68166 0.13074 0.0
C41 C 0.93604 0.60621 0.18556 0.0
O42 O 0.9622 0.56228 0.17125 0.0
N43 N 0.78811 0.64518 0.14122 0.0
C44 C 0.7378 0.63481 0.12528 0.0
C45 C 0.69398 0.6416 0.14889 0.0
C46 C 0.77424 0.65793 0.17429 0.0
N47 N 0.71709 0.65554 0.17979 0.0
C48 C 0.83189 0.52521 0.09175 0.0
C49 C 0.8245 0.46394 0.153 0.0
C50 C 0.81207 0.43649 0.1217 0.0
C51 C 0.81525 0.46775 0.09082 0.0
C52 C 0.84034 0.5217 0.15278 0.0
N53 N 0.84677 0.55093 0.12224 0.0
H54 H 0.83148 0.54931 0.06786 0.0
H55 H 0.84507 0.54299 0.17736 0.0
H56 H 0.73327 0.62157 0.09856 0.0
H57 H 0.80524 0.66671 0.1944 0.0
O58 O 0.83446 0.65341 0.07625 0.0
O59 O 0.87315 0.71311 0.11449 0.0
O60 O 0.89667 0.63343 0.16975 0.0
C61 C 0.84952 0.70555 0.08445 0.0
H62 H 0.07256 0.65417 0.08644 0.0
H63 H 0.64876 0.63659 0.14364 0.0
H64 H 0.82054 0.44132 0.17746 0.0
H65 H 0.805 0.44795 0.06619 0.0
Co66 Co 0.48627 0.37017 0.62317 0.0
C67 C 0.52257 0.45552 0.57156 0.0
C68 C 0.47364 0.49491 0.61229 0.0
C69 C 0.48833 0.53653 0.58835 0.0
N70 N 0.49552 0.4444 0.60174 0.0
N71 N 0.51927 0.51158 0.56288 0.0
H72 H 0.54386 0.42313 0.55612 0.0
H73 H 0.44753 0.50078 0.63516 0.0
C74 C 0.51294 0.38799 0.69874 0.0
O75 O 0.54573 0.34209 0.6982 0.0
N76 N 0.47616 0.29429 0.64428 0.0
C77 C 0.49832 0.24393 0.6334 0.0
C78 C 0.48545 0.20178 0.6571 0.0
C79 C 0.44704 0.28084 0.67359 0.0
N80 N 0.4534 0.22486 0.68263 0.0
C81 C 0.58835 0.32382 0.59369 0.0
C82 C 0.6649 0.37727 0.63752 0.0
C83 C 0.68487 0.33556 0.6143 0.0
C84 C 0.64625 0.31101 0.59097 0.0
C85 C 0.60648 0.38968 0.63881 0.0
N86 N 0.56848 0.35908 0.61926 0.0
H87 H 0.55947 0.30464 0.57526 0.0
H88 H 0.5922 0.42366 0.65569 0.0
H89 H 0.52315 0.23736 0.61024 0.0
H90 H 0.42356 0.31203 0.68875 0.0
O91 O 0.46276 0.33841 0.57906 0.0
O92 O 0.40506 0.37687 0.61859 0.0
O93 O 0.49087 0.40676 0.6706 0.0
C94 C 0.41117 0.35217 0.58863 0.0
H95 H 0.47546 0.58118 0.58904 0.0
H96 H 0.50179 0.15835 0.65638 0.0
H97 H 0.69387 0.3994 0.65488 0.0
H98 H 0.66052 0.28184 0.57087 0.0
Co99 Co 0.74254 0.99219 0.12256 0.0
C100 C 0.65605 0.02601 0.07157 0.0
C101 C 0.61972 0.97058 0.11041 0.0
C102 C 0.57785 0.98379 0.08645 0.0
N103 N 0.66846 -0.00269 0.10095 0.0
N104 N 0.60084 0.01896 0.06229 0.0
H105 H 0.68732 0.05022 0.05681 0.0
H106 H 0.61524 0.9428 0.13276 0.0
C107 C 0.7174 0.02235 0.1972 0.0
O108 O 0.75766 0.06182 0.19618 0.0
N109 N 0.81844 0.98582 0.14392 0.0
C110 C 0.86972 -0.00368 0.12884 0.0
C111 C 0.91277 0.98645 0.15236 0.0
C112 C 0.83194 0.96607 0.1759 0.0
N113 N 0.88884 0.9684 0.18219 0.0
C114 C 0.79094 0.09932 0.10027 0.0
C115 C 0.71306 0.1692 0.13392 0.0
C116 C 0.76021 0.19389 0.11718 0.0
C117 C 0.79859 0.15858 0.09941 0.0
C118 C 0.70756 0.10949 0.13449 0.0
N119 N 0.74855 0.07528 0.11984 0.0
H120 H 0.81863 0.07305 0.08471 0.0
H121 H 0.67065 0.09073 0.14708 0.0
H122 H 0.87651 0.00799 0.10211 0.0
H123 H 0.80106 0.94984 0.19433 0.0
O124 O 0.77589 0.97143 0.07812 0.0
O125 O 0.74053 0.91072 0.1173 0.0
O126 O 0.70485 0.99427 0.16975 0.0
C127 C 0.76457 0.91871 0.08729 0.0
H128 H 0.53398 0.96872 0.08672 0.0
H129 H 0.95824 0.99055 0.14746 0.0
H130 H 0.68168 0.19564 0.14709 0.0
H131 H 0.83403 0.17672 0.08487 0.0
Co132 Co 0.97788 0.84594 0.38053 0.0
C133 C 0.01786 0.9396 0.42631 0.0
C134 C 0.95504 0.96972 0.39028 0.0
C135 C 0.96905 0.01418 0.41236 0.0
N136 N 0.98663 0.9232 0.39866 0.0
N137 N 0.00895 0.99503 0.43479 0.0
H138 H 0.04327 0.9109 0.44181 0.0
H139 H 0.92258 0.97066 0.37031 0.0
C140 C 0.99218 0.91918 0.31545 0.0
O141 O 0.03117 0.95204 0.32989 0.0
N142 N 0.96905 0.7687 0.36278 0.0
C143 C -0.00517 0.72101 0.37506 0.0
C144 C 0.99256 0.6788 0.34995 0.0
C145 C 0.95024 0.7544 0.33096 0.0
N146 N 0.96557 0.7005 0.32199 0.0
C147 C 0.0898 0.8244 0.40794 0.0
C148 C 0.14742 0.82339 0.34534 0.0
C149 C 0.17847 0.81591 0.37602 0.0
C150 C 0.14889 0.81613 0.40762 0.0
C151 C 0.0883 0.83197 0.34687 0.0
N152 N 0.06052 0.83531 0.37805 0.0
H153 H 0.06753 0.82125 0.43237 0.0
H154 H 0.06513 0.83394 0.32279 0.0
H155 H 0.01794 0.71863 0.39929 0.0
H156 H 0.9284 0.78384 0.31391 0.0
O157 O 0.96219 0.81783 0.42731 0.0
O158 O 0.89799 0.85072 0.38973 0.0
O159 O 0.97177 0.87619 0.33182 0.0
C160 C 0.90906 0.83041 0.42029 0.0
H161 H 0.95035 0.05672 0.41249 0.0
H162 H 0.01323 0.63722 0.3511 0.0
H163 H 0.16847 0.82138 0.32031 0.0
H164 H 0.17114 0.81003 0.43196 0.0
Co165 Co 0.25798 0.4819 0.88236 0.0
C166 C 0.16703 0.52451 0.92838 0.0
C167 C 0.13631 0.45737 0.89528 0.0
C168 C 0.09476 0.46931 0.91952 0.0
N169 N 0.18118 0.49287 0.9003 0.0
N170 N 0.11455 0.51084 0.94073 0.0
H171 H 0.19651 0.55339 0.94123 0.0
H172 H 0.13526 0.42277 0.87658 0.0
C173 C 0.18508 0.48539 0.81551 0.0
O174 O 0.13965 0.50854 0.82984 0.0
N175 N 0.33568 0.46898 0.86492 0.0
C176 C 0.38268 0.45439 0.88328 0.0
C177 C 0.42767 0.4451 0.86093 0.0
C178 C 0.35358 0.46947 0.83154 0.0
N179 N 0.40927 0.4546 0.82837 0.0
C180 C 0.32074 0.58622 0.89286 0.0
C181 C 0.23802 0.66013 0.86786 0.0
C182 C 0.29007 0.68319 0.87955 0.0
C183 C 0.3322 0.64498 0.89143 0.0
C184 C 0.22941 0.60076 0.86819 0.0
N185 N 0.27048 0.56447 0.88055 0.0
H186 H 0.35253 0.55825 0.904 0.0
H187 H 0.18886 0.58443 0.85959 0.0
H188 H 0.38485 0.45155 0.91105 0.0
H189 H 0.32635 0.47898 0.80974 0.0
O190 O 0.28244 0.46569 0.92979 0.0
O191 O 0.25027 0.40194 0.89155 0.0
O192 O 0.23121 0.47826 0.83266 0.0
C193 C 0.26821 0.41272 0.92273 0.0
H194 H 0.05403 0.44749 0.92199 0.0
H195 H 0.47055 0.43201 0.86805 0.0
H196 H 0.20366 0.68769 0.85901 0.0
H197 H 0.37392 0.65992 0.89959 0.0
Co198 Co 0.62641 0.76416 0.38018 0.0
C199 C 0.58833 0.67281 0.42798 0.0
C200 C 0.64339 0.63902 0.38858 0.0
C201 C 0.63252 0.59615 0.41251 0.0
N202 N 0.61468 0.6869 0.39797 0.0
N203 N 0.59849 0.61802 0.43741 0.0
H204 H 0.56501 0.7026 0.44395 0.0
H205 H 0.67312 0.63642 0.36711 0.0
C206 C 0.61102 0.69399 0.31373 0.0
O207 O 0.57061 0.66128 0.32695 0.0
N208 N 0.63857 0.84151 0.36308 0.0
C209 C 0.6247 0.89087 0.37933 0.0
C210 C 0.63503 0.93634 0.35714 0.0
C211 C 0.65692 0.85756 0.33134 0.0
N212 N 0.65506 0.91504 0.32699 0.0
C213 C 0.51469 0.78707 0.40754 0.0
C214 C 0.4576 0.78918 0.34485 0.0
C215 C 0.42607 0.79287 0.37564 0.0
C216 C 0.45535 0.79346 0.40724 0.0
C217 C 0.51697 0.78231 0.34638 0.0
N218 N 0.54434 0.77765 0.37757 0.0
H219 H 0.53672 0.79 0.432 0.0
H220 H 0.54052 0.78159 0.32236 0.0
H221 H 0.60639 0.89352 0.40506 0.0
H222 H 0.67042 0.82808 0.3114 0.0
O223 O 0.64252 0.7905 0.42726 0.0
O224 O 0.70595 0.75622 0.3896 0.0
O225 O 0.63223 0.73512 0.3313 0.0
C226 C 0.69523 0.77612 0.4203 0.0
H227 H 0.65112 0.55355 0.41283 0.0
H228 H 0.62602 0.98117 0.36221 0.0
H229 H 0.43652 0.79082 0.31987 0.0
H230 H 0.43259 0.79922 0.43149 0.0
Co231 Co 0.34412 0.1351 0.88372 0.0
C232 C 0.4353 0.09692 0.93165 0.0
C233 C 0.46762 0.15474 0.89299 0.0
C234 C 0.51097 0.14284 0.91611 0.0
N235 N 0.42038 0.12524 0.90247 0.0
N236 N 0.49028 0.1068 0.94051 0.0
H237 H 0.40589 0.0726 0.94752 0.0
H238 H 0.4698 0.18481 0.87163 0.0
C239 C 0.41551 0.1223 0.81739 0.0
O240 O 0.4458 0.07887 0.82906 0.0
N241 N 0.26814 0.14556 0.86507 0.0
C242 C 0.21863 0.12431 0.87779 0.0
C243 C 0.17577 0.13379 0.85381 0.0
C244 C 0.25478 0.16813 0.83395 0.0
N245 N 0.19905 0.16051 0.82615 0.0
C246 C 0.32043 0.02302 0.90989 0.0
C247 C 0.32805 0.96397 0.84806 0.0
C248 C 0.31918 0.93285 0.87884 0.0
C249 C 0.31262 0.96377 0.90973 0.0
C250 C 0.33312 0.02386 0.84922 0.0
N251 N 0.33342 0.05226 0.88021 0.0
H252 H 0.31516 0.04534 0.93413 0.0
H253 H 0.33588 0.04685 0.82505 0.0
H254 H 0.21455 0.10107 0.90197 0.0
H255 H 0.28543 0.18827 0.81673 0.0
O256 O 0.3142 0.14779 0.93026 0.0
O257 O 0.34842 0.21486 0.89481 0.0
O258 O 0.37565 0.14443 0.83548 0.0
C259 C 0.3264 0.20152 0.92466 0.0
H260 H 0.55395 0.1602 0.91532 0.0
H261 H 0.13181 0.11926 0.85565 0.0
H262 H 0.33108 0.94244 0.82326 0.0
H263 H 0.30098 0.94267 0.93375 0.0
C264 C -0.00114 0.0627 0.48384 0.0
C265 C 0.03272 0.02464 0.46426 0.0
C266 C 0.02026 0.08849 0.51404 0.0
C267 C 0.07605 0.07684 0.52581 0.0
H268 H 0.95507 0.07134 0.4763 0.0
H269 H 0.99257 0.11669 0.5288 0.0
S270 S 0.18438 0.98663 0.48144 0.0
N271 N 0.12666 0.98121 0.45699 0.0
N272 N 0.16636 0.02905 0.51397 0.0
C273 C 0.11091 0.04045 0.50589 0.0
C274 C 0.08936 0.01454 0.47506 0.0
C275 C 0.07053 0.61059 0.01285 0.0
C276 C 0.03664 0.57505 0.03413 0.0
C277 C 0.0959 0.58929 0.98243 0.0
C278 C 0.08847 0.53167 0.97229 0.0
H279 H 0.07633 0.65545 0.01938 0.0
H280 H 0.12072 0.61834 0.96639 0.0
S281 S 0.00966 0.41955 0.02179 0.0
N282 N 0.00058 0.47882 0.0446 0.0
N283 N 0.04905 0.43826 0.98802 0.0
C284 C 0.05615 0.49531 0.99407 0.0
C285 C 0.03006 0.51716 0.02483 0.0
C286 C 0.54012 0.50858 0.49999 0.0
C287 C 0.54132 0.53822 0.53181 0.0
C288 C 0.55988 0.53447 0.4693 0.0
C289 C 0.58133 0.59088 0.46937 0.0
H290 H 0.52257 0.46557 0.49867 0.0
H291 H 0.5571 0.51083 0.44519 0.0
S292 S 0.60121 0.68377 0.54651 0.0
N293 N 0.57082 0.62492 0.56192 0.0
N294 N 0.6079 0.67345 0.50435 0.0
C295 C 0.58465 0.62018 0.50117 0.0
C296 C 0.5646 0.59389 0.53236 0.0
C297 C 0.50811 0.02944 0.98295 0.0
C298 C 0.51893 0.08562 0.97105 0.0
C299 C 0.53466 0.00805 0.01289 0.0
C300 C 0.57309 0.04204 0.032 0.0
H301 H 0.47933 0.00162 0.96874 0.0
H302 H 0.52581 0.9643 0.02086 0.0
S303 S 0.61124 0.19395 0.01412 0.0
N304 N 0.56749 0.17619 0.98227 0.0
N305 N 0.61761 0.1358 0.03839 0.0
C306 C 0.58352 0.09859 0.02079 0.0
C307 C 0.55642 0.12043 0.99035 0.0
C308 C 0.11773 0.19679 0.79162 0.0
C309 C 0.17223 0.17143 0.79324 0.0
C310 C 0.09262 0.21064 0.75959 0.0
C311 C 0.12074 0.19859 0.72807 0.0
H312 H 0.09527 0.2076 0.81531 0.0
H313 H 0.05138 0.2319 0.75959 0.0
S314 S 0.26286 0.12784 0.71874 0.0
N315 N 0.25213 0.13145 0.76097 0.0
N316 N 0.20562 0.15701 0.70091 0.0
C317 C 0.17453 0.17103 0.72952 0.0
C318 C 0.20013 0.15765 0.76207 0.0
C319 C 0.95235 0.61665 0.28317 0.0
C320 C 0.96335 0.67573 0.28773 0.0
C321 C 0.94686 0.59283 0.24977 0.0
C322 C 0.9522 0.62755 0.2201 0.0
H323 H 0.94603 0.58922 0.30555 0.0
H324 H 0.93578 0.54783 0.2472 0.0
S325 S 0.98955 0.78231 0.21766 0.0
N326 N 0.98679 0.76629 0.25933 0.0
N327 N 0.97383 0.72221 0.19711 0.0
C328 C 0.96578 0.68584 0.22431 0.0
C329 C 0.97208 0.70982 0.25801 0.0
C330 C 0.47829 0.39665 0.79477 0.0
C331 C 0.44019 0.44335 0.79669 0.0
C332 C 0.50426 0.38113 0.76336 0.0
C333 C 0.49291 0.41146 0.7325 0.0
H334 H 0.4862 0.37027 0.8174 0.0
H335 H 0.53133 0.34336 0.76309 0.0
S336 S 0.40277 0.54241 0.72484 0.0
N337 N 0.3975 0.52378 0.76604 0.0
N338 N 0.44534 0.49433 0.70684 0.0
C339 C 0.45734 0.46027 0.73453 0.0
C340 C 0.43109 0.47615 0.7666 0.0
C341 C 0.6492 0.92269 0.26343 0.0
C342 C 0.66677 0.94578 0.29531 0.0
C343 C 0.66307 0.94962 0.23204 0.0
C344 C 0.69589 0.00051 0.23113 0.0
H345 H 0.62491 0.88304 0.26275 0.0
H346 H 0.64947 0.92903 0.20826 0.0
S347 S 0.75052 0.0794 0.308 0.0
N348 N 0.71672 0.02328 0.32449 0.0
N349 N 0.74344 0.07417 0.26551 0.0
C350 C 0.71218 0.02508 0.26304 0.0
C351 C 0.69749 -0.00232 0.2951 0.0
C352 C 0.92118 0.90041 0.26826 0.0
C353 C 0.96881 0.9319 0.28037 0.0
C354 C 0.89615 0.91189 0.23607 0.0
C355 C 0.91734 0.95555 0.21446 0.0
H356 H 0.90207 0.86691 0.28392 0.0
H357 H 0.8598 0.88627 0.22805 0.0
S358 S 0.03944 0.05259 0.23403 0.0
N359 N 0.03562 0.00952 0.26802 0.0
N360 N 0.98762 0.03201 0.20773 0.0
C361 C 0.96482 0.98764 0.22605 0.0
C362 C 0.99062 0.97573 0.25894 0.0
C363 C 0.13889 0.48212 0.75697 0.0
C364 C 0.18162 0.46231 0.77965 0.0
C365 C 0.13238 0.45852 0.72377 0.0
C366 C 0.16813 0.41391 0.7119 0.0
H367 H 0.10964 0.51566 0.76504 0.0
H368 H 0.09768 0.47409 0.70774 0.0
S369 S 0.28794 0.3474 0.76058 0.0
N370 N 0.26059 0.39499 0.78762 0.0
N371 N 0.24966 0.35276 0.72479 0.0
C372 C 0.21195 0.39457 0.73392 0.0
C373 C 0.21842 0.41828 0.76784 0.0
C374 C 0.68438 0.71426 0.26809 0.0
C375 C 0.63524 0.6834 0.27856 0.0
C376 C 0.70993 0.70544 0.23577 0.0
C377 C 0.68801 0.66501 0.21234 0.0
H378 H 0.70437 0.74513 0.28516 0.0
H379 H 0.74738 0.73062 0.22908 0.0
S380 S 0.5619 0.57065 0.22713 0.0
N381 N 0.56614 0.60973 0.26275 0.0
N382 N 0.61529 0.59204 0.20209 0.0
C383 C 0.63909 0.63341 0.22227 0.0
C384 C 0.61264 0.64269 0.25535 0.0
C385 C 0.42917 0.20672 0.77865 0.0
C386 C 0.42574 0.14674 0.78259 0.0
C387 C 0.43648 0.23195 0.74591 0.0
C388 C 0.43966 0.19829 0.71563 0.0
H389 H 0.42705 0.23441 0.80119 0.0
H390 H 0.44096 0.27811 0.74455 0.0
S391 S 0.42221 0.03954 0.71188 0.0
N392 N 0.4201 0.05455 0.7537 0.0
N393 N 0.43114 0.10167 0.69182 0.0
C394 C 0.43317 0.1382 0.71922 0.0
C395 C 0.42694 0.11251 0.75276 0.0
C396 C 0.84676 0.34417 0.61463 0.0
C397 C 0.86325 0.28612 0.61259 0.0
C398 C 0.78902 0.35986 0.61527 0.0
C399 C 0.74569 0.31803 0.61403 0.0
H400 H 0.87877 0.37782 0.61601 0.0
H401 H 0.77829 0.4051 0.61639 0.0
S402 S 0.76617 0.16003 0.60907 0.0
N403 N 0.8317 0.18669 0.60881 0.0
N404 N 0.72297 0.21595 0.61181 0.0
C405 C 0.76154 0.25974 0.61237 0.0
C406 C 0.82037 0.24382 0.6113 0.0
C407 C 0.83449 0.33463 0.13525 0.0
C408 C 0.79644 0.37518 0.12129 0.0
C409 C 0.82213 0.27591 0.13386 0.0
C410 C 0.77093 0.25608 0.11899 0.0
H411 H 0.87459 0.34838 0.14668 0.0
H412 H 0.85279 0.24573 0.14449 0.0
S413 S 0.65642 0.34497 0.07995 0.0
N414 N 0.70515 0.39188 0.09276 0.0
N415 N 0.68156 0.28098 0.0906 0.0
C416 C 0.732 0.29613 0.10555 0.0
C417 C 0.74492 0.35593 0.10653 0.0
C418 C 0.33573 0.83958 0.35523 0.0
C419 C 0.3629 0.79677 0.37496 0.0
C420 C 0.27594 0.845 0.35535 0.0
C421 C 0.24138 0.80761 0.37507 0.0
H422 H 0.36093 0.86981 0.34021 0.0
H423 H 0.2567 0.87946 0.34048 0.0
S424 S 0.2918 0.68421 0.42782 0.0
N425 N 0.35103 0.71386 0.41264 0.0
N426 N 0.2386 0.72339 0.41248 0.0
C427 C 0.26809 0.76346 0.39399 0.0
C428 C 0.32888 0.75821 0.39403 0.0
C429 C 0.28556 0.84043 0.85189 0.0
C430 C 0.31469 0.86891 0.87878 0.0
C431 C 0.27871 0.7806 0.85212 0.0
C432 C 0.2997 0.74662 0.87957 0.0
H433 H 0.2669 0.86451 0.83069 0.0
H434 H 0.25661 0.76091 0.83051 0.0
S435 S 0.38046 0.8 0.95605 0.0
N436 N 0.36825 0.8579 0.93251 0.0
N437 N 0.35019 0.74658 0.93481 0.0
C438 C 0.329 0.77459 0.90666 0.0
C439 C 0.33761 0.83531 0.90584 0.0
C440 C 0.31217 0.36733 0.56874 0.0
C441 C 0.36051 0.33154 0.57031 0.0
C442 C 0.25718 0.34375 0.56659 0.0
C443 C 0.24968 0.28394 0.56714 0.0
H444 H 0.31649 0.41313 0.57308 0.0
H445 H 0.2207 0.37207 0.56971 0.0
S446 S 0.36287 0.17303 0.56353 0.0
N447 N 0.39802 0.23458 0.56538 0.0
N448 N 0.2942 0.19007 0.56306 0.0
C449 C 0.29774 0.24835 0.56379 0.0
C450 C 0.35367 0.27238 0.565 0.0
C451 C 0.77075 0.76517 0.06331 0.0
C452 C 0.83006 0.75621 0.06537 0.0
C453 C 0.74843 0.8209 0.06514 0.0
C454 C 0.78501 0.86867 0.0679 0.0
H455 H 0.74145 0.72923 0.06573 0.0
H456 H 0.70265 0.82611 0.06861 0.0
S457 S 0.94325 0.86754 0.06409 0.0
N458 N 0.92475 0.79902 0.06319 0.0
N459 N 0.88266 0.90412 0.06478 0.0
C460 C 0.84403 0.86049 0.06363 0.0
C461 C 0.86675 0.80378 0.06274 0.0
C462 C 0.76031 0.8451 0.44713 0.0
C463 C 0.74363 0.78757 0.44333 0.0
C464 C 0.81854 0.85974 0.44686 0.0
C465 C 0.86079 0.81705 0.44318 0.0
H466 H 0.72902 0.87917 0.44428 0.0
H467 H 0.82998 0.90465 0.44397 0.0
S468 S 0.83797 0.65999 0.44453 0.0
N469 N 0.77281 0.68762 0.4452 0.0
N470 N 0.88243 0.71526 0.44509 0.0
C471 C 0.84455 0.75947 0.44677 0.0
C472 C 0.7854 0.74459 0.44675 0.0
C473 C 0.24974 0.26288 0.94575 0.0
C474 C 0.30776 0.2478 0.94751 0.0
C475 C 0.23384 0.32083 0.94523 0.0
C476 C 0.27572 0.36429 0.94674 0.0
H477 H 0.218 0.23097 0.93866 0.0
H478 H 0.19033 0.33141 0.93782 0.0
S479 S 0.42891 0.34452 0.96754 0.0
N480 N 0.40404 0.27872 0.9618 0.0
N481 N 0.37335 0.38784 0.96307 0.0
C482 C 0.33114 0.349 0.95709 0.0
C483 C 0.34762 0.29013 0.95672 0.0
loop_
_geom_bond_atom_site_label_1
_geom_bond_atom_site_label_2
_geom_bond_distance
_geom_bond_site_symmetry_2
_ccdc_geom_bond_type
Co0 N4 2.148 . S
Co0 N10 2.128 . S
Co0 N20 2.194 . S
Co0 O25 2.351 . S
Co0 O26 2.155 . S
Co0 O27 2.096 . S
C1 N4 1.301 . S
C1 N5 1.328 . S
C1 H6 0.930 . S
C2 C3 1.333 . S
C2 N4 1.317 . S
C2 H7 0.930 . S
C3 C2 1.333 . S
C3 N5 1.350 . S
C3 H29 0.931 . S
N4 Co0 2.148 . S
N4 C1 1.301 . S
N4 C2 1.317 . S
N5 C1 1.328 . S
N5 C3 1.350 . S
H6 C1 0.930 . S
H7 C2 0.930 . S
C8 O9 1.224 . S
C8 O27 1.247 . S
O9 C8 1.224 . S
N10 Co0 2.128 . S
N10 C11 1.355 . S
N10 C13 1.311 . S
C11 N10 1.355 . S
C11 C12 1.363 . S
C11 H23 0.929 . S
C12 C11 1.363 . S
C12 N14 1.375 . S
C12 H30 0.931 . S
C13 N10 1.311 . S
C13 N14 1.347 . S
C13 H24 0.929 . S
N14 C12 1.375 . S
N14 C13 1.347 . S
C15 C18 1.365 1_455 S
C15 N20 1.328 . S
C15 H21 0.929 . S
C16 C17 1.362 . S
C16 C19 1.378 . S
C16 H31 0.929 . S
C17 C16 1.362 . S
C17 C18 1.366 . S
C18 C15 1.365 1_655 S
C18 C17 1.366 . S
C18 H32 0.930 . S
C19 C16 1.378 . S
C19 N20 1.315 1_655 S
C19 H22 0.930 1_655 S
N20 Co0 2.194 . S
N20 C15 1.328 . S
N20 C19 1.315 1_455 S
H21 C15 0.929 . S
H22 C19 0.930 1_455 S
H23 C11 0.929 . S
H24 C13 0.929 . S
O25 Co0 2.351 . S
O25 C28 1.244 . S
O26 Co0 2.155 . S
O26 C28 1.240 . S
O27 Co0 2.096 . S
O27 C8 1.247 . S
C28 O25 1.244 . S
C28 O26 1.240 . S
H29 C3 0.931 . S
H30 C12 0.931 . S
H31 C16 0.929 . S
H32 C18 0.930 . S
Co33 N37 2.148 . S
Co33 N43 2.128 . S
Co33 N53 2.194 . S
Co33 O58 2.351 . S
Co33 O59 2.155 . S
Co33 O60 2.096 . S
C34 N37 1.301 . S
C34 N38 1.328 . S
C34 H39 0.930 . S
C35 C36 1.333 1_655 S
C35 N37 1.317 . S
C35 H40 0.930 . S
C36 C35 1.333 1_455 S
C36 N38 1.350 1_455 S
C36 H62 0.931 . S
N37 Co33 2.148 . S
N37 C34 1.301 . S
N37 C35 1.317 . S
N38 C34 1.328 . S
N38 C36 1.350 1_655 S
H39 C34 0.930 . S
H40 C35 0.930 . S
C41 O42 1.224 . S
C41 O60 1.247 . S
O42 C41 1.224 . S
N43 Co33 2.128 . S
N43 C44 1.355 . S
N43 C46 1.311 . S
C44 N43 1.355 . S
C44 C45 1.363 . S
C44 H56 0.929 . S
C45 C44 1.363 . S
C45 N47 1.375 . S
C45 H63 0.931 . S
C46 N43 1.311 . S
C46 N47 1.347 . S
C46 H57 0.929 . S
N47 C45 1.375 . S
N47 C46 1.347 . S
C48 C51 1.365 . S
C48 N53 1.328 . S
C48 H54 0.929 . S
C49 C50 1.362 . S
C49 C52 1.378 . S
C49 H64 0.929 . S
C50 C49 1.362 . S
C50 C51 1.366 . S
C51 C48 1.365 . S
C51 C50 1.366 . S
C51 H65 0.930 . S
C52 C49 1.378 . S
C52 N53 1.315 . S
C52 H55 0.930 . S
N53 Co33 2.194 . S
N53 C48 1.328 . S
N53 C52 1.315 . S
H54 C48 0.929 . S
H55 C52 0.930 . S
H56 C44 0.929 . S
H57 C46 0.929 . S
O58 Co33 2.351 . S
O58 C61 1.244 . S
O59 Co33 2.155 . S
O59 C61 1.240 . S
O60 Co33 2.096 . S
O60 C41 1.247 . S
C61 O58 1.244 . S
C61 O59 1.240 . S
H62 C36 0.931 . S
H63 C45 0.931 . S
H64 C49 0.929 . S
H65 C51 0.930 . S
Co66 N70 2.148 . S
Co66 N76 2.128 . S
Co66 N86 2.194 . S
Co66 O91 2.351 . S
Co66 O92 2.155 . S
Co66 O93 2.096 . S
C67 N70 1.301 . S
C67 N71 1.328 . S
C67 H72 0.930 . S
C68 C69 1.333 . S
C68 N70 1.317 . S
C68 H73 0.930 . S
C69 C68 1.333 . S
C69 N71 1.350 . S
C69 H95 0.931 . S
N70 Co66 2.148 . S
N70 C67 1.301 . S
N70 C68 1.317 . S
N71 C67 1.328 . S
N71 C69 1.350 . S
H72 C67 0.930 . S
H73 C68 0.930 . S
C74 O75 1.224 . S
C74 O93 1.247 . S
O75 C74 1.224 . S
N76 Co66 2.128 . S
N76 C77 1.355 . S
N76 C79 1.311 . S
C77 N76 1.355 . S
C77 C78 1.363 . S
C77 H89 0.929 . S
C78 C77 1.363 . S
C78 N80 1.375 . S
C78 H96 0.931 . S
C79 N76 1.311 . S
C79 N80 1.347 . S
C79 H90 0.929 . S
N80 C78 1.375 . S
N80 C79 1.347 . S
C81 C84 1.365 . S
C81 N86 1.328 . S
C81 H87 0.929 . S
C82 C83 1.362 . S
C82 C85 1.378 . S
C82 H97 0.929 . S
C83 C82 1.362 . S
C83 C84 1.366 . S
C84 C81 1.365 . S
C84 C83 1.366 . S
C84 H98 0.930 . S
C85 C82 1.378 . S
C85 N86 1.315 . S
C85 H88 0.930 . S
N86 Co66 2.194 . S
N86 C81 1.328 . S
N86 C85 1.315 . S
H87 C81 0.929 . S
H88 C85 0.930 . S
H89 C77 0.929 . S
H90 C79 0.929 . S
O91 Co66 2.351 . S
O91 C94 1.244 . S
O92 Co66 2.155 . S
O92 C94 1.240 . S
O93 Co66 2.096 . S
O93 C74 1.247 . S
C94 O91 1.244 . S
C94 O92 1.240 . S
H95 C69 0.931 . S
H96 C78 0.931 . S
H97 C82 0.929 . S
H98 C84 0.930 . S
Co99 N103 2.148 1_565 S
Co99 N109 2.128 . S
Co99 N119 2.194 1_565 S
Co99 O124 2.351 . S
Co99 O125 2.155 . S
Co99 O126 2.096 . S
C100 N103 1.301 . S
C100 N104 1.328 . S
C100 H105 0.930 . S
C101 C102 1.333 1_565 S
C101 N103 1.317 1_565 S
C101 H106 0.930 . S
C102 C101 1.333 1_545 S
C102 N104 1.350 . S
C102 H128 0.932 1_545 S
N103 Co99 2.148 1_545 S
N103 C100 1.301 . S
N103 C101 1.317 1_545 S
N104 C100 1.328 . S
N104 C102 1.350 . S
H105 C100 0.930 . S
H106 C101 0.930 . S
C107 O108 1.224 1_565 S
C107 O126 1.247 . S
O108 C107 1.224 1_545 S
N109 Co99 2.128 . S
N109 C110 1.355 1_565 S
N109 C112 1.311 . S
C110 N109 1.355 1_545 S
C110 C111 1.363 . S
C110 H122 0.929 . S
C111 C110 1.363 . S
C111 N113 1.375 1_545 S
C111 H129 0.931 . S
C112 N109 1.311 . S
C112 N113 1.347 . S
C112 H123 0.929 . S
N113 C111 1.375 1_565 S
N113 C112 1.347 . S
C114 C117 1.365 . S
C114 N119 1.328 . S
C114 H120 0.929 . S
C115 C116 1.362 . S
C115 C118 1.378 . S
C115 H130 0.929 . S
C116 C115 1.362 . S
C116 C117 1.366 . S
C117 C114 1.365 . S
C117 C116 1.366 . S
C117 H131 0.930 . S
C118 C115 1.378 . S
C118 N119 1.315 . S
C118 H121 0.930 . S
N119 Co99 2.194 1_545 S
N119 C114 1.328 . S
N119 C118 1.315 . S
H120 C114 0.929 . S
H121 C118 0.930 . S
H122 C110 0.929 . S
H123 C112 0.929 . S
O124 Co99 2.351 . S
O124 C127 1.244 . S
O125 Co99 2.155 . S
O125 C127 1.240 . S
O126 Co99 2.096 . S
O126 C107 1.247 . S
C127 O124 1.244 . S
C127 O125 1.240 . S
H128 C102 0.932 1_565 S
H129 C111 0.931 . S
H130 C115 0.929 . S
H131 C117 0.930 . S
Co132 N136 2.148 1_655 S
Co132 N142 2.128 . S
Co132 N152 2.194 1_655 S
Co132 O157 2.351 . S
Co132 O158 2.155 . S
Co132 O159 2.096 . S
C133 N136 1.301 . S
C133 N137 1.328 . S
C133 H138 0.930 . S
C134 C135 1.333 1_665 S
C134 N136 1.317 1_655 S
C134 H139 0.930 . S
C135 C134 1.333 1_445 S
C135 N137 1.350 1_545 S
C135 H161 0.930 1_455 S
N136 Co132 2.148 1_455 S
N136 C133 1.301 . S
N136 C134 1.317 1_455 S
N137 C133 1.328 . S
N137 C135 1.350 1_565 S
H138 C133 0.930 . S
H139 C134 0.930 . S
C140 O141 1.224 1_655 S
C140 O159 1.247 . S
O141 C140 1.224 1_455 S
N142 Co132 2.128 . S
N142 C143 1.355 1_655 S
N142 C145 1.311 . S
C143 N142 1.355 1_455 S
C143 C144 1.363 . S
C143 H155 0.929 . S
C144 C143 1.363 . S
C144 N146 1.375 1_455 S
C144 H162 0.931 . S
C145 N142 1.311 . S
C145 N146 1.347 . S
C145 H156 0.929 . S
N146 C144 1.375 1_655 S
N146 C145 1.347 . S
C147 C150 1.365 . S
C147 N152 1.328 . S
C147 H153 0.929 . S
C148 C149 1.362 . S
C148 C151 1.378 . S
C148 H163 0.929 . S
C149 C148 1.362 . S
C149 C150 1.366 . S
C150 C147 1.365 . S
C150 C149 1.366 . S
C150 H164 0.930 . S
C151 C148 1.378 . S
C151 N152 1.315 . S
C151 H154 0.930 . S
N152 Co132 2.194 1_455 S
N152 C147 1.328 . S
N152 C151 1.315 . S
H153 C147 0.929 . S
H154 C151 0.930 . S
H155 C143 0.929 . S
H156 C145 0.929 . S
O157 Co132 2.351 . S
O157 C160 1.244 . S
O158 Co132 2.155 . S
O158 C160 1.240 . S
O159 Co132 2.096 . S
O159 C140 1.247 . S
C160 O157 1.244 . S
C160 O158 1.240 . S
H161 C135 0.930 1_655 S
H162 C144 0.931 . S
H163 C148 0.929 . S
H164 C150 0.930 . S
Co165 N169 2.148 . S
Co165 N175 2.128 . S
Co165 N185 2.194 . S
Co165 O190 2.351 . S
Co165 O191 2.155 . S
Co165 O192 2.096 . S
C166 N169 1.301 . S
C166 N170 1.328 . S
C166 H171 0.930 . S
C167 C168 1.333 . S
C167 N169 1.317 . S
C167 H172 0.930 . S
C168 C167 1.333 . S
C168 N170 1.350 . S
C168 H194 0.931 . S
N169 Co165 2.148 . S
N169 C166 1.301 . S
N169 C167 1.317 . S
N170 C166 1.328 . S
N170 C168 1.350 . S
H171 C166 0.930 . S
H172 C167 0.930 . S
C173 O174 1.224 . S
C173 O192 1.247 . S
O174 C173 1.224 . S
N175 Co165 2.128 . S
N175 C176 1.355 . S
N175 C178 1.311 . S
C176 N175 1.355 . S
C176 C177 1.363 . S
C176 H188 0.929 . S
C177 C176 1.363 . S
C177 N179 1.375 . S
C177 H195 0.931 . S
C178 N175 1.311 . S
C178 N179 1.347 . S
C178 H189 0.929 . S
N179 C177 1.375 . S
N179 C178 1.347 . S
C180 C183 1.365 . S
C180 N185 1.328 . S
C180 H186 0.929 . S
C181 C182 1.362 . S
C181 C184 1.378 . S
C181 H196 0.929 . S
C182 C181 1.362 . S
C182 C183 1.366 . S
C183 C180 1.365 . S
C183 C182 1.366 . S
C183 H197 0.930 . S
C184 C181 1.378 . S
C184 N185 1.315 . S
C184 H187 0.930 . S
N185 Co165 2.194 . S
N185 C180 1.328 . S
N185 C184 1.315 . S
H186 C180 0.929 . S
H187 C184 0.930 . S
H188 C176 0.929 . S
H189 C178 0.929 . S
O190 Co165 2.351 . S
O190 C193 1.244 . S
O191 Co165 2.155 . S
O191 C193 1.240 . S
O192 Co165 2.096 . S
O192 C173 1.247 . S
C193 O190 1.244 . S
C193 O191 1.240 . S
H194 C168 0.931 . S
H195 C177 0.931 . S
H196 C181 0.929 . S
H197 C183 0.930 . S
Co198 N202 2.148 . S
Co198 N208 2.128 . S
Co198 N218 2.194 . S
Co198 O223 2.351 . S
Co198 O224 2.155 . S
Co198 O225 2.096 . S
C199 N202 1.301 . S
C199 N203 1.328 . S
C199 H204 0.930 . S
C200 C201 1.333 . S
C200 N202 1.317 . S
C200 H205 0.930 . S
C201 C200 1.333 . S
C201 N203 1.350 . S
C201 H227 0.931 . S
N202 Co198 2.148 . S
N202 C199 1.301 . S
N202 C200 1.317 . S
N203 C199 1.328 . S
N203 C201 1.350 . S
H204 C199 0.930 . S
H205 C200 0.930 . S
C206 O207 1.224 . S
C206 O225 1.247 . S
O207 C206 1.224 . S
N208 Co198 2.128 . S
N208 C209 1.355 . S
N208 C211 1.311 . S
C209 N208 1.355 . S
C209 C210 1.363 . S
C209 H221 0.929 . S
C210 C209 1.363 . S
C210 N212 1.375 . S
C210 H228 0.931 . S
C211 N208 1.311 . S
C211 N212 1.347 . S
C211 H222 0.929 . S
N212 C210 1.375 . S
N212 C211 1.347 . S
C213 C216 1.365 . S
C213 N218 1.328 . S
C213 H219 0.929 . S
C214 C215 1.362 . S
C214 C217 1.378 . S
C214 H229 0.929 . S
C215 C214 1.362 . S
C215 C216 1.366 . S
C216 C213 1.365 . S
C216 C215 1.366 . S
C216 H230 0.930 . S
C217 C214 1.378 . S
C217 N218 1.315 . S
C217 H220 0.930 . S
N218 Co198 2.194 . S
N218 C213 1.328 . S
N218 C217 1.315 . S
H219 C213 0.929 . S
H220 C217 0.930 . S
H221 C209 0.929 . S
H222 C211 0.929 . S
O223 Co198 2.351 . S
O223 C226 1.244 . S
O224 Co198 2.155 . S
O224 C226 1.240 . S
O225 Co198 2.096 . S
O225 C206 1.247 . S
C226 O223 1.244 . S
C226 O224 1.240 . S
H227 C201 0.931 . S
H228 C210 0.931 . S
H229 C214 0.929 . S
H230 C216 0.930 . S
Co231 N235 2.148 . S
Co231 N241 2.128 . S
Co231 N251 2.194 . S
Co231 O256 2.351 . S
Co231 O257 2.155 . S
Co231 O258 2.096 . S
C232 N235 1.301 . S
C232 N236 1.328 . S
C232 H237 0.930 . S
C233 C234 1.333 . S
C233 N235 1.317 . S
C233 H238 0.930 . S
C234 C233 1.333 . S
C234 N236 1.350 . S
C234 H260 0.931 . S
N235 Co231 2.148 . S
N235 C232 1.301 . S
N235 C233 1.317 . S
N236 C232 1.328 . S
N236 C234 1.350 . S
H237 C232 0.930 . S
H238 C233 0.930 . S
C239 O240 1.224 . S
C239 O258 1.247 . S
O240 C239 1.224 . S
N241 Co231 2.128 . S
N241 C242 1.355 . S
N241 C244 1.311 . S
C242 N241 1.355 . S
C242 C243 1.363 . S
C242 H254 0.929 . S
C243 C242 1.363 . S
C243 N245 1.375 . S
C243 H261 0.931 . S
C244 N241 1.311 . S
C244 N245 1.347 . S
C244 H255 0.929 . S
N245 C243 1.375 . S
N245 C244 1.347 . S
C246 C249 1.365 1_545 S
C246 N251 1.328 . S
C246 H252 0.929 . S
C247 C248 1.362 . S
C247 C250 1.378 . S
C247 H262 0.929 . S
C248 C247 1.362 . S
C248 C249 1.366 . S
C249 C246 1.365 1_565 S
C249 C248 1.366 . S
C249 H263 0.930 . S
C250 C247 1.378 . S
C250 N251 1.315 1_565 S
C250 H253 0.930 1_565 S
N251 Co231 2.194 . S
N251 C246 1.328 . S
N251 C250 1.315 1_545 S
H252 C246 0.929 . S
H253 C250 0.930 1_545 S
H254 C242 0.929 . S
H255 C244 0.929 . S
O256 Co231 2.351 . S
O256 C259 1.244 . S
O257 Co231 2.155 . S
O257 C259 1.240 . S
O258 Co231 2.096 . S
O258 C239 1.247 . S
C259 O256 1.244 . S
C259 O257 1.240 . S
H260 C234 0.931 . S
H261 C243 0.931 . S
H262 C247 0.929 . S
H263 C249 0.930 . S
C264 C265 1.369 . S
C264 C266 1.419 . S
C264 H268 0.930 1_455 S
C265 C264 1.369 . S
C265 C274 1.429 . S
C266 C264 1.419 . S
C266 C267 1.363 . S
C266 H269 0.929 . S
C267 C266 1.363 . S
C267 C273 1.428 . S
H268 C264 0.930 1_655 S
H269 C266 0.929 . S
S270 N271 1.613 1_545 S
S270 N272 1.610 . S
N271 S270 1.613 1_565 S
N271 C274 1.350 1_565 S
N272 S270 1.610 . S
N272 C273 1.351 . S
C273 C267 1.428 . S
C273 N272 1.351 . S
C273 C274 1.434 . S
C274 C265 1.429 . S
C274 N271 1.350 1_545 S
C274 C273 1.434 . S
C275 C276 1.369 1_556 S
C275 C277 1.419 . S
C275 H279 0.930 . S
C276 C275 1.369 1_554 S
C276 C285 1.429 . S
C277 C275 1.419 . S
C277 C278 1.363 . S
C277 H280 0.929 . S
C278 C277 1.363 . S
C278 C284 1.436 . S
H279 C275 0.930 . S
H280 C277 0.929 . S
S281 N282 1.613 . S
S281 N283 1.610 . S
N282 S281 1.613 . S
N282 C285 1.349 . S
N283 S281 1.610 . S
N283 C284 1.349 1_554 S
C284 C278 1.436 . S
C284 N283 1.349 1_556 S
C284 C285 1.427 1_556 S
C285 C276 1.429 . S
C285 N282 1.349 . S
C285 C284 1.427 1_554 S
C286 C287 1.369 . S
C286 C288 1.419 . S
C286 H290 0.930 . S
C287 C286 1.369 . S
C287 C296 1.429 . S
C288 C286 1.419 . S
C288 C289 1.363 . S
C288 H291 0.929 . S
C289 C288 1.363 . S
C289 C295 1.428 . S
H290 C286 0.930 . S
H291 C288 0.929 . S
S292 N293 1.613 . S
S292 N294 1.610 . S
N293 S292 1.613 . S
N293 C296 1.350 . S
N294 S292 1.610 . S
N294 C295 1.351 . S
C295 C289 1.428 . S
C295 N294 1.351 . S
C295 C296 1.434 . S
C296 C287 1.429 . S
C296 N293 1.350 . S
C296 C295 1.434 . S
C297 C298 1.369 . S
C297 C299 1.419 1_556 S
C297 H301 0.930 . S
C298 C297 1.369 . S
C298 C307 1.429 . S
C299 C297 1.419 1_554 S
C299 C300 1.363 . S
C299 H302 0.929 1_545 S
C300 C299 1.363 . S
C300 C306 1.428 . S
H301 C297 0.930 . S
H302 C299 0.929 1_565 S
S303 N304 1.613 1_554 S
S303 N305 1.610 . S
N304 S303 1.613 1_556 S
N304 C307 1.350 . S
N305 S303 1.610 . S
N305 C306 1.351 . S
C306 C300 1.428 . S
C306 N305 1.351 . S
C306 C307 1.434 1_554 S
C307 C298 1.429 . S
C307 N304 1.350 . S
C307 C306 1.434 1_556 S
C308 C309 1.369 . S
C308 C310 1.419 . S
C308 H312 0.930 . S
C309 C308 1.369 . S
C309 C318 1.429 . S
C310 C308 1.419 . S
C310 C311 1.363 . S
C310 H313 0.929 . S
C311 C310 1.363 . S
C311 C317 1.428 . S
H312 C308 0.930 . S
H313 C310 0.929 . S
S314 N315 1.613 . S
S314 N316 1.610 . S
N315 S314 1.613 . S
N315 C318 1.350 . S
N316 S314 1.610 . S
N316 C317 1.351 . S
C317 C311 1.428 . S
C317 N316 1.351 . S
C317 C318 1.434 . S
C318 C309 1.429 . S
C318 N315 1.350 . S
C318 C317 1.434 . S
C319 C320 1.369 . S
C319 C321 1.419 . S
C319 H323 0.930 . S
C320 C319 1.369 . S
C320 C329 1.429 . S
C321 C319 1.419 . S
C321 C322 1.363 . S
C321 H324 0.929 . S
C322 C321 1.363 . S
C322 C328 1.428 . S
H323 C319 0.930 . S
H324 C321 0.929 . S
S325 N326 1.613 1_655 S
S325 N327 1.610 . S
N326 S325 1.613 1_455 S
N326 C329 1.350 1_455 S
N327 S325 1.610 . S
N327 C328 1.351 . S
C328 C322 1.428 . S
C328 N327 1.351 . S
C328 C329 1.434 . S
C329 C320 1.429 . S
C329 N326 1.350 1_655 S
C329 C328 1.434 . S
C330 C331 1.369 . S
C330 C332 1.419 . S
C330 H334 0.930 . S
C331 C330 1.369 . S
C331 C340 1.429 . S
C332 C330 1.419 . S
C332 C333 1.363 . S
C332 H335 0.929 . S
C333 C332 1.363 . S
C333 C339 1.428 . S
H334 C330 0.930 . S
H335 C332 0.929 . S
S336 N337 1.613 . S
S336 N338 1.610 . S
N337 S336 1.613 . S
N337 C340 1.350 . S
N338 S336 1.610 . S
N338 C339 1.351 . S
C339 C333 1.428 . S
C339 N338 1.351 . S
C339 C340 1.434 . S
C340 C331 1.429 . S
C340 N337 1.350 . S
C340 C339 1.434 . S
C341 C342 1.369 . S
C341 C343 1.419 . S
C341 H345 0.930 . S
C342 C341 1.369 . S
C342 C351 1.429 . S
C343 C341 1.419 . S
C343 C344 1.363 . S
C343 H346 0.929 . S
C344 C343 1.363 . S
C344 C350 1.428 1_565 S
H345 C341 0.930 . S
H346 C343 0.929 . S
S347 N348 1.613 . S
S347 N349 1.610 . S
N348 S347 1.613 . S
N348 C351 1.350 1_545 S
N349 S347 1.610 . S
N349 C350 1.351 . S
C350 C344 1.428 1_545 S
C350 N349 1.351 . S
C350 C351 1.434 1_545 S
C351 C342 1.429 . S
C351 N348 1.350 1_565 S
C351 C350 1.434 1_565 S
C352 C353 1.369 . S
C352 C354 1.419 . S
C352 H356 0.930 . S
C353 C352 1.369 . S
C353 C362 1.429 . S
C354 C352 1.419 . S
C354 C355 1.363 . S
C354 H357 0.929 . S
C355 C354 1.363 . S
C355 C361 1.428 1_565 S
H356 C352 0.930 . S
H357 C354 0.929 . S
S358 N359 1.613 . S
S358 N360 1.610 . S
N359 S358 1.613 . S
N359 C362 1.350 1_545 S
N360 S358 1.610 . S
N360 C361 1.351 . S
C361 C355 1.428 1_545 S
C361 N360 1.351 . S
C361 C362 1.434 1_545 S
C362 C353 1.429 . S
C362 N359 1.350 1_565 S
C362 C361 1.434 1_565 S
C363 C364 1.369 . S
C363 C365 1.419 . S
C363 H367 0.930 . S
C364 C363 1.369 . S
C364 C373 1.429 . S
C365 C363 1.419 . S
C365 C366 1.363 . S
C365 H368 0.929 . S
C366 C365 1.363 . S
C366 C372 1.428 . S
H367 C363 0.930 . S
H368 C365 0.929 . S
S369 N370 1.613 . S
S369 N371 1.610 . S
N370 S369 1.613 . S
N370 C373 1.350 . S
N371 S369 1.610 . S
N371 C372 1.351 . S
C372 C366 1.428 . S
C372 N371 1.351 . S
C372 C373 1.434 . S
C373 C364 1.429 . S
C373 N370 1.350 . S
C373 C372 1.434 . S
C374 C375 1.369 . S
C374 C376 1.419 . S
C374 H378 0.930 . S
C375 C374 1.369 . S
C375 C384 1.429 . S
C376 C374 1.419 . S
C376 C377 1.363 . S
C376 H379 0.929 . S
C377 C376 1.363 . S
C377 C383 1.428 . S
H378 C374 0.930 . S
H379 C376 0.929 . S
S380 N381 1.613 . S
S380 N382 1.610 . S
N381 S380 1.613 . S
N381 C384 1.350 . S
N382 S380 1.610 . S
N382 C383 1.351 . S
C383 C377 1.428 . S
C383 N382 1.351 . S
C383 C384 1.434 . S
C384 C375 1.429 . S
C384 N381 1.350 . S
C384 C383 1.434 . S
C385 C386 1.369 . S
C385 C387 1.419 . S
C385 H389 0.930 . S
C386 C385 1.369 . S
C386 C395 1.429 . S
C387 C385 1.419 . S
C387 C388 1.363 . S
C387 H390 0.929 . S
C388 C387 1.363 . S
C388 C394 1.428 . S
H389 C385 0.930 . S
H390 C387 0.929 . S
S391 N392 1.613 . S
S391 N393 1.610 . S
N392 S391 1.613 . S
N392 C395 1.350 . S
N393 S391 1.610 . S
N393 C394 1.351 . S
C394 C388 1.428 . S
C394 N393 1.351 . S
C394 C395 1.434 . S
C395 C386 1.429 . S
C395 N392 1.350 . S
C395 C394 1.434 . S
C396 C397 1.369 . S
C396 C398 1.419 . S
C396 H400 0.930 . S
C397 C396 1.369 . S
C397 C406 1.429 . S
C398 C396 1.419 . S
C398 C399 1.363 . S
C398 H401 0.929 . S
C399 C398 1.363 . S
C399 C405 1.428 . S
H400 C396 0.930 . S
H401 C398 0.929 . S
S402 N403 1.613 . S
S402 N404 1.610 . S
N403 S402 1.613 . S
N403 C406 1.350 . S
N404 S402 1.610 . S
N404 C405 1.351 . S
C405 C399 1.428 . S
C405 N404 1.351 . S
C405 C406 1.434 . S
C406 C397 1.429 . S
C406 N403 1.350 . S
C406 C405 1.434 . S
C407 C408 1.369 . S
C407 C409 1.419 . S
C407 H411 0.930 . S
C408 C407 1.369 . S
C408 C417 1.429 . S
C409 C407 1.419 . S
C409 C410 1.363 . S
C409 H412 0.929 . S
C410 C409 1.363 . S
C410 C416 1.428 . S
H411 C407 0.930 . S
H412 C409 0.929 . S
S413 N414 1.613 . S
S413 N415 1.610 . S
N414 S413 1.613 . S
N414 C417 1.350 . S
N415 S413 1.610 . S
N415 C416 1.351 . S
C416 C410 1.428 . S
C416 N415 1.351 . S
C416 C417 1.434 . S
C417 C408 1.429 . S
C417 N414 1.350 . S
C417 C416 1.434 . S
C418 C419 1.369 . S
C418 C420 1.419 . S
C418 H422 0.930 . S
C419 C418 1.369 . S
C419 C428 1.429 . S
C420 C418 1.419 . S
C420 C421 1.363 . S
C420 H423 0.929 . S
C421 C420 1.363 . S
C421 C427 1.428 . S
H422 C418 0.930 . S
H423 C420 0.929 . S
S424 N425 1.613 . S
S424 N426 1.610 . S
N425 S424 1.613 . S
N425 C428 1.350 . S
N426 S424 1.610 . S
N426 C427 1.351 . S
C427 C421 1.428 . S
C427 N426 1.351 . S
C427 C428 1.434 . S
C428 C419 1.429 . S
C428 N425 1.350 . S
C428 C427 1.434 . S
C429 C430 1.369 . S
C429 C431 1.419 . S
C429 H433 0.930 . S
C430 C429 1.369 . S
C430 C439 1.429 . S
C431 C429 1.419 . S
C431 C432 1.363 . S
C431 H434 0.929 . S
C432 C431 1.363 . S
C432 C438 1.428 . S
H433 C429 0.930 . S
H434 C431 0.929 . S
S435 N436 1.613 . S
S435 N437 1.610 . S
N436 S435 1.613 . S
N436 C439 1.350 . S
N437 S435 1.610 . S
N437 C438 1.351 . S
C438 C432 1.428 . S
C438 N437 1.351 . S
C438 C439 1.434 . S
C439 C430 1.429 . S
C439 N436 1.350 . S
C439 C438 1.434 . S
C440 C441 1.369 . S
C440 C442 1.419 . S
C440 H444 0.930 . S
C441 C440 1.369 . S
C441 C450 1.429 . S
C442 C440 1.419 . S
C442 C443 1.363 . S
C442 H445 0.929 . S
C443 C442 1.363 . S
C443 C449 1.428 . S
H444 C440 0.930 . S
H445 C442 0.929 . S
S446 N447 1.613 . S
S446 N448 1.610 . S
N447 S446 1.613 . S
N447 C450 1.350 . S
N448 S446 1.610 . S
N448 C449 1.351 . S
C449 C443 1.428 . S
C449 N448 1.351 . S
C449 C450 1.434 . S
C450 C441 1.429 . S
C450 N447 1.350 . S
C450 C449 1.434 . S
C451 C452 1.369 . S
C451 C453 1.419 . S
C451 H455 0.930 . S
C452 C451 1.369 . S
C452 C461 1.429 . S
C453 C451 1.419 . S
C453 C454 1.363 . S
C453 H456 0.929 . S
C454 C453 1.363 . S
C454 C460 1.428 . S
H455 C451 0.930 . S
H456 C453 0.929 . S
S457 N458 1.613 . S
S457 N459 1.610 . S
N458 S457 1.613 . S
N458 C461 1.350 . S
N459 S457 1.610 . S
N459 C460 1.351 . S
C460 C454 1.428 . S
C460 N459 1.351 . S
C460 C461 1.434 . S
C461 C452 1.429 . S
C461 N458 1.350 . S
C461 C460 1.434 . S
C462 C463 1.369 . S
C462 C464 1.419 . S
C462 H466 0.930 . S
C463 C462 1.369 . S
C463 C472 1.429 . S
C464 C462 1.419 . S
C464 C465 1.363 . S
C464 H467 0.929 . S
C465 C464 1.363 . S
C465 C471 1.428 . S
H466 C462 0.930 . S
H467 C464 0.929 . S
S468 N469 1.613 . S
S468 N470 1.610 . S
N469 S468 1.613 . S
N469 C472 1.350 . S
N470 S468 1.610 . S
N470 C471 1.351 . S
C471 C465 1.428 . S
C471 N470 1.351 . S
C471 C472 1.434 . S
C472 C463 1.429 . S
C472 N469 1.350 . S
C472 C471 1.434 . S
C473 C474 1.369 . S
C473 C475 1.419 . S
C473 H477 0.930 . S
C474 C473 1.369 . S
C474 C483 1.429 . S
C475 C473 1.419 . S
C475 C476 1.363 . S
C475 H478 0.929 . S
C476 C475 1.363 . S
C476 C482 1.428 . S
H477 C473 0.930 . S
H478 C475 0.929 . S
S479 N480 1.613 . S
S479 N481 1.610 . S
N480 S479 1.613 . S
N480 C483 1.350 . S
N481 S479 1.610 . S
N481 C482 1.351 . S
C482 C476 1.428 . S
C482 N481 1.351 . S
C482 C483 1.434 . S
C483 C474 1.429 . S
C483 N480 1.350 . S
C483 C482 1.434 . S
C265 N137 1.560 1_545 S
C267 N5 1.561 . S
C276 N38 1.557 1_455 S
C278 N170 1.564 . S
C287 N71 1.557 . S
C289 N203 1.563 . S
C298 N236 1.559 . S
C300 N104 1.561 . S
C309 N245 1.160 . S
C311 C8 1.156 . S
C320 N146 1.162 . S
C322 C41 1.158 . S
C331 N179 1.161 . S
C333 C74 1.156 . S
C342 N212 1.163 . S
C344 C107 1.158 . S
C353 C140 1.160 . S
C355 N113 1.163 . S
C364 C173 1.155 . S
C366 N14 1.161 . S
C375 C206 1.160 . S
C377 N47 1.164 . S
C386 C239 1.155 . S
C388 N80 1.161 . S
C397 C17 1.262 . S
C399 C83 1.264 . S
C408 C50 1.269 . S
C410 C116 1.258 . S
C419 C215 1.255 . S
C421 C149 1.268 . S
C430 C248 1.258 . S
C432 C182 1.266 . S
C441 C94 1.274 . S
C443 C28 1.275 . S
C452 C61 1.262 . S
C454 C127 1.263 . S
C463 C226 1.270 . S
C465 C160 1.275 . S
C474 C259 1.270 . S
C476 C193 1.275 . S
