# Generated by pormake.
# Topology ume, (4)-cn, num edge types: 1
# Building blocks:
#     Node 0, Type 0, BuildingBlock: CEKHIL_clean_sbu_0, # of connection points: 4
#     Node 1, Type 0, BuildingBlock: CEKHIL_clean_sbu_0, # of connection points: 4
#     Node 2, Type 0, BuildingBlock: CEKHIL_clean_sbu_0, # of connection points: 4
#     Node 3, Type 0, BuildingBlock: CEKHIL_clean_sbu_0, # of connection points: 4
#     Node 4, Type 0, BuildingBlock: CEKHIL_clean_sbu_0, # of connection points: 4
#     Node 5, Type 0, BuildingBlock: CEKHIL_clean_sbu_0, # of connection points: 4
#     Node 6, Type 0, BuildingBlock: CEKHIL_clean_sbu_0, # of connection points: 4
#     Node 7, Type 0, BuildingBlock: CEKHIL_clean_sbu_0, # of connection points: 4
#     Node 8, Type 0, BuildingBlock: CEKHIL_clean_sbu_0, # of connection points: 4
#     Node 9, Type 0, BuildingBlock: CEKHIL_clean_sbu_0, # of connection points: 4
#     Node 10, Type 0, BuildingBlock: CEKHIL_clean_sbu_0, # of connection points: 4
#     Node 11, Type 0, BuildingBlock: CEKHIL_clean_sbu_0, # of connection points: 4
#     Node 12, Type 0, BuildingBlock: CEKHIL_clean_sbu_0, # of connection points: 4
#     Node 13, Type 0, BuildingBlock: CEKHIL_clean_sbu_0, # of connection points: 4
#     Node 14, Type 0, BuildingBlock: CEKHIL_clean_sbu_0, # of connection points: 4
#     Node 15, Type 0, BuildingBlock: CEKHIL_clean_sbu_0, # of connection points: 4
#     Edge 16, Type (0, 0), BuildingBlock: OJICUG_clean_linker_0, # of connection points: 2
#     Edge 17, Type (0, 0), BuildingBlock: OJICUG_clean_linker_0, # of connection points: 2
#     Edge 18, Type (0, 0), BuildingBlock: OJICUG_clean_linker_0, # of connection points: 2
#     Edge 19, Type (0, 0), BuildingBlock: OJICUG_clean_linker_0, # of connection points: 2
#     Edge 20, Type (0, 0), BuildingBlock: OJICUG_clean_linker_0, # of connection points: 2
#     Edge 21, Type (0, 0), BuildingBlock: OJICUG_clean_linker_0, # of connection points: 2
#     Edge 22, Type (0, 0), BuildingBlock: OJICUG_clean_linker_0, # of connection points: 2
#     Edge 23, Type (0, 0), BuildingBlock: OJICUG_clean_linker_0, # of connection points: 2
#     Edge 24, Type (0, 0), BuildingBlock: OJICUG_clean_linker_0, # of connection points: 2
#     Edge 25, Type (0, 0), BuildingBlock: OJICUG_clean_linker_0, # of connection points: 2
#     Edge 26, Type (0, 0), BuildingBlock: OJICUG_clean_linker_0, # of connection points: 2
#     Edge 27, Type (0, 0), BuildingBlock: OJICUG_clean_linker_0, # of connection points: 2
#     Edge 28, Type (0, 0), BuildingBlock: OJICUG_clean_linker_0, # of connection points: 2
#     Edge 29, Type (0, 0), BuildingBlock: OJICUG_clean_linker_0, # of connection points: 2
#     Edge 30, Type (0, 0), BuildingBlock: OJICUG_clean_linker_0, # of connection points: 2
#     Edge 31, Type (0, 0), BuildingBlock: OJICUG_clean_linker_0, # of connection points: 2
#     Edge 32, Type (0, 0), BuildingBlock: OJICUG_clean_linker_0, # of connection points: 2
#     Edge 33, Type (0, 0), BuildingBlock: OJICUG_clean_linker_0, # of connection points: 2
#     Edge 34, Type (0, 0), BuildingBlock: OJICUG_clean_linker_0, # of connection points: 2
#     Edge 35, Type (0, 0), BuildingBlock: OJICUG_clean_linker_0, # of connection points: 2
#     Edge 36, Type (0, 0), BuildingBlock: OJICUG_clean_linker_0, # of connection points: 2
#     Edge 37, Type (0, 0), BuildingBlock: OJICUG_clean_linker_0, # of connection points: 2
#     Edge 38, Type (0, 0), BuildingBlock: OJICUG_clean_linker_0, # of connection points: 2
#     Edge 39, Type (0, 0), BuildingBlock: OJICUG_clean_linker_0, # of connection points: 2
#     Edge 40, Type (0, 0), BuildingBlock: OJICUG_clean_linker_0, # of connection points: 2
#     Edge 41, Type (0, 0), BuildingBlock: OJICUG_clean_linker_0, # of connection points: 2
#     Edge 42, Type (0, 0), BuildingBlock: OJICUG_clean_linker_0, # of connection points: 2
#     Edge 43, Type (0, 0), BuildingBlock: OJICUG_clean_linker_0, # of connection points: 2
#     Edge 44, Type (0, 0), BuildingBlock: OJICUG_clean_linker_0, # of connection points: 2
#     Edge 45, Type (0, 0), BuildingBlock: OJICUG_clean_linker_0, # of connection points: 2
#     Edge 46, Type (0, 0), BuildingBlock: OJICUG_clean_linker_0, # of connection points: 2
#     Edge 47, Type (0, 0), BuildingBlock: OJICUG_clean_linker_0, # of connection points: 2
# Relax obj value: 0.096
# Max RMSD: 0.134
# Mean RMSD: 0.134
data_MOF--net-ume--node1-CEKHIL_clean_sbu_0--edge1-OJICUG_clean_linker_0
_symmetry_space_group_name_H-M    P1
_symmetry_Int_Tables_number       1
_symmetry_cell_setting            triclinic
loop_
_symmetry_equiv_pos_as_xyz
'x, y, z'
_cell_length_a     20.207009
_cell_length_b     20.206252
_cell_length_c     79.193138
_cell_angle_alpha  90.000991
_cell_angle_beta   90.00473
_cell_angle_gamma 89.995969
loop_
_atom_site_label
_atom_site_type_symbol
_atom_site_fract_x
_atom_site_fract_y
_atom_site_fract_z
_atom_type_partial_charge
Co0 Co 0.23741 0.09978 0.30409 0.0
O1 O 0.14389 0.11699 0.30521 0.0
O2 O 0.19021 0.0198 0.31031 0.0
C3 C 0.25536 0.14995 0.27924 0.0
O4 O 0.3325 0.0644 0.30351 0.0
Co5 Co 0.33429 0.21874 0.30548 0.0
O6 O 0.40224 0.15056 0.30043 0.0
C7 C 0.26844 0.17559 0.33651 0.0
C8 C 0.13648 0.05517 0.30914 0.0
C9 C 0.39115 0.08852 0.30133 0.0
O10 O 0.24706 0.1245 0.32855 0.0
O11 O 0.29921 0.22314 0.32927 0.0
O12 O 0.23219 0.09008 0.27973 0.0
O13 O 0.25971 0.17995 0.29364 0.0
Co14 Co 0.90343 0.7365 0.55394 0.0
O15 O 0.88629 0.64299 0.55515 0.0
O16 O 0.98346 0.68943 0.5602 0.0
C17 C 0.85315 0.7539 0.52907 0.0
O18 O 0.93872 0.83161 0.55328 0.0
Co19 Co 0.78442 0.83338 0.55519 0.0
O20 O 0.85259 0.90136 0.55016 0.0
C21 C 0.82763 0.76814 0.58632 0.0
C22 C 0.94812 0.63567 0.55908 0.0
C23 C 0.91462 0.89026 0.55109 0.0
O24 O 0.87871 0.74653 0.57838 0.0
O25 O 0.7801 0.79879 0.57903 0.0
O26 O 0.91308 0.7309 0.52957 0.0
O27 O 0.82321 0.75852 0.54347 0.0
Co28 Co 0.26647 0.40343 0.80418 0.0
O29 O 0.36 0.38649 0.80541 0.0
O30 O 0.31334 0.48357 0.81044 0.0
C31 C 0.24925 0.35324 0.77929 0.0
O32 O 0.17129 0.43852 0.80349 0.0
Co33 Co 0.16994 0.28414 0.80539 0.0
O34 O 0.1017 0.35218 0.80049 0.0
C35 C 0.23504 0.32735 0.83653 0.0
C36 C 0.36718 0.44836 0.80931 0.0
C37 C 0.11268 0.41424 0.80136 0.0
O38 O 0.25642 0.37859 0.82862 0.0
O39 O 0.20463 0.27974 0.82922 0.0
O40 O 0.27212 0.41321 0.77982 0.0
O41 O 0.24467 0.3232 0.79368 0.0
Co42 Co 0.59981 0.76892 0.05392 0.0
O43 O 0.6174 0.86238 0.05499 0.0
O44 O 0.52026 0.81644 0.06034 0.0
C45 C 0.64901 0.75085 0.02895 0.0
O46 O 0.56407 0.67397 0.05343 0.0
Co47 Co 0.71849 0.67156 0.05497 0.0
O48 O 0.64984 0.60403 0.04996 0.0
C49 C 0.67665 0.73721 0.08616 0.0
C50 C 0.55576 0.87004 0.05906 0.0
C51 C 0.58788 0.61528 0.05109 0.0
O52 O 0.62545 0.75909 0.07832 0.0
O53 O 0.72375 0.70621 0.07879 0.0
O54 O 0.58923 0.7742 0.02957 0.0
O55 O 0.67948 0.74636 0.04328 0.0
Co56 Co 0.23309 0.40289 0.94144 0.0
O57 O 0.13958 0.38568 0.94022 0.0
O58 O 0.18599 0.48281 0.93511 0.0
C59 C 0.25056 0.35295 0.96636 0.0
O60 O 0.32817 0.43825 0.94208 0.0
Co61 Co 0.33 0.28388 0.94028 0.0
O62 O 0.39794 0.35215 0.94524 0.0
C63 C 0.26513 0.32696 0.90909 0.0
C64 C 0.13225 0.44746 0.93624 0.0
C65 C 0.38683 0.41418 0.94427 0.0
O66 O 0.24324 0.37795 0.91701 0.0
O67 O 0.29584 0.27952 0.9164 0.0
O68 O 0.22744 0.41283 0.9658 0.0
O69 O 0.25518 0.32283 0.95198 0.0
Co70 Co 0.60291 0.73531 0.19112 0.0
O71 O 0.62018 0.64181 0.18989 0.0
O72 O 0.52295 0.68814 0.18486 0.0
C73 C 0.65307 0.7528 0.21599 0.0
O74 O 0.56749 0.83037 0.1918 0.0
Co75 Co 0.72183 0.83227 0.18985 0.0
O76 O 0.65361 0.90011 0.19496 0.0
C77 C 0.67842 0.76738 0.1587 0.0
C78 C 0.55834 0.63441 0.18599 0.0
C79 C 0.59158 0.88901 0.19403 0.0
O80 O 0.62756 0.74546 0.16667 0.0
O81 O 0.72593 0.79813 0.16597 0.0
O82 O 0.59322 0.72964 0.21547 0.0
O83 O 0.68309 0.75744 0.2016 0.0
Co84 Co 0.26649 0.09931 0.44136 0.0
O85 O 0.36001 0.11641 0.44019 0.0
O86 O 0.31357 0.01928 0.4351 0.0
C87 C 0.2489 0.14952 0.46622 0.0
O88 O 0.17137 0.06404 0.44197 0.0
Co89 Co 0.16967 0.21835 0.44006 0.0
O90 O 0.10165 0.15021 0.44507 0.0
C91 C 0.2353 0.1753 0.40898 0.0
C92 C 0.36733 0.0546 0.43624 0.0
C93 C 0.11272 0.08817 0.44414 0.0
O94 O 0.25667 0.12412 0.41691 0.0
O95 O 0.20464 0.22284 0.41626 0.0
O96 O 0.27189 0.08959 0.46572 0.0
O97 O 0.2444 0.1795 0.45182 0.0
Co98 Co 0.90379 0.76754 0.6912 0.0
O99 O 0.88661 0.86106 0.69004 0.0
O100 O 0.98378 0.81468 0.68497 0.0
C101 C 0.85358 0.74981 0.71606 0.0
O102 O 0.93913 0.67244 0.69181 0.0
Co103 Co 0.78479 0.67065 0.68989 0.0
O104 O 0.85299 0.6027 0.69492 0.0
C105 C 0.82786 0.73631 0.65881 0.0
C106 C 0.94843 0.86843 0.68612 0.0
C107 C 0.91503 0.6138 0.694 0.0
O108 O 0.87901 0.75774 0.66675 0.0
O109 O 0.78035 0.70561 0.66609 0.0
O110 O 0.91348 0.7729 0.71557 0.0
O111 O 0.82362 0.74536 0.70165 0.0
Co112 Co 0.7317 0.60296 0.80388 0.0
O113 O 0.63826 0.6208 0.80496 0.0
O114 O 0.68401 0.52356 0.81031 0.0
C115 C 0.75005 0.65199 0.7789 0.0
O116 O 0.82655 0.56694 0.8034 0.0
Co117 Co 0.82939 0.72136 0.80493 0.0
O118 O 0.89659 0.65253 0.79979 0.0
C119 C 0.76419 0.67929 0.83616 0.0
C120 C 0.63048 0.55918 0.80904 0.0
C121 C 0.88524 0.5906 0.80098 0.0
O122 O 0.74169 0.62849 0.82827 0.0
O123 O 0.79547 0.72629 0.82883 0.0
O124 O 0.72639 0.59234 0.77953 0.0
O125 O 0.75455 0.68253 0.79322 0.0
Co126 Co 0.40021 0.23419 0.05416 0.0
O127 O 0.38304 0.14067 0.05538 0.0
O128 O 0.48021 0.18712 0.06042 0.0
C129 C 0.35016 0.25174 0.02926 0.0
O130 O 0.43556 0.32926 0.05348 0.0
Co131 Co 0.28119 0.33107 0.05539 0.0
O132 O 0.3494 0.399 0.05037 0.0
C133 C 0.32464 0.26634 0.08657 0.0
C134 C 0.44489 0.13336 0.05929 0.0
C135 C 0.41144 0.3879 0.05129 0.0
O136 O 0.37551 0.24437 0.0786 0.0
O137 O 0.27712 0.29702 0.07929 0.0
O138 O 0.41 0.22853 0.0298 0.0
O139 O 0.32007 0.25632 0.04365 0.0
Co140 Co 0.77218 0.9002 0.304 0.0
O141 O 0.86563 0.88262 0.30521 0.0
O142 O 0.81954 0.97978 0.31047 0.0
C143 C 0.75464 0.85105 0.27899 0.0
O144 O 0.67723 0.93593 0.30338 0.0
Co145 Co 0.67482 0.78148 0.30488 0.0
O146 O 0.60735 0.85015 0.29985 0.0
C147 C 0.73917 0.82369 0.33622 0.0
C148 C 0.87318 0.94431 0.30925 0.0
C149 C 0.61858 0.9121 0.301 0.0
O150 O 0.7617 0.87463 0.32839 0.0
O151 O 0.70828 0.77661 0.32881 0.0
O152 O 0.77802 0.9108 0.27966 0.0
O153 O 0.74986 0.82053 0.29331 0.0
Co154 Co 0.103 0.27125 0.55413 0.0
O155 O 0.12066 0.36471 0.55528 0.0
O156 O 0.02347 0.31874 0.56057 0.0
C157 C 0.15204 0.25327 0.52913 0.0
O158 O 0.06719 0.17632 0.55356 0.0
Co159 Co 0.22168 0.17384 0.55511 0.0
O160 O 0.15299 0.10644 0.55004 0.0
C161 C 0.17955 0.2387 0.58638 0.0
C162 C 0.05898 0.37235 0.55932 0.0
C163 C 0.09103 0.11768 0.55116 0.0
O164 O 0.12857 0.26102 0.57853 0.0
O165 O 0.22665 0.20772 0.579 0.0
O166 O 0.09235 0.27683 0.52979 0.0
O167 O 0.18262 0.24868 0.54345 0.0
Co168 Co 0.73174 0.89976 0.44114 0.0
O169 O 0.6383 0.88206 0.43994 0.0
O170 O 0.68425 0.97929 0.4347 0.0
C171 C 0.74953 0.85063 0.46614 0.0
O172 O 0.82665 0.9356 0.44176 0.0
Co173 Co 0.8292 0.7811 0.4402 0.0
O174 O 0.89654 0.84982 0.4453 0.0
C175 C 0.76475 0.82342 0.40888 0.0
C176 C 0.63066 0.94376 0.43592 0.0
C177 C 0.8853 0.91178 0.44416 0.0
O178 O 0.74219 0.87429 0.41674 0.0
O179 O 0.79571 0.77633 0.41627 0.0
O180 O 0.72597 0.91032 0.46547 0.0
O181 O 0.75425 0.82011 0.45181 0.0
Co182 Co 0.10335 0.23276 0.69126 0.0
O183 O 0.12096 0.13931 0.69009 0.0
O184 O 0.0238 0.18536 0.6848 0.0
C185 C 0.15237 0.25053 0.71628 0.0
O186 O 0.06759 0.32771 0.69185 0.0
Co187 Co 0.22205 0.3301 0.69033 0.0
O188 O 0.15339 0.39758 0.69537 0.0
C189 C 0.17981 0.26557 0.65902 0.0
C190 C 0.05929 0.13173 0.68603 0.0
C191 C 0.09143 0.38636 0.69422 0.0
O192 O 0.12892 0.2431 0.66687 0.0
O193 O 0.22691 0.29653 0.6664 0.0
O194 O 0.09266 0.22706 0.71559 0.0
O195 O 0.18297 0.25521 0.70196 0.0
Co196 Co 0.76785 0.60239 0.94101 0.0
O197 O 0.8613 0.61998 0.93987 0.0
O198 O 0.81531 0.52278 0.93462 0.0
C199 C 0.74994 0.65167 0.96598 0.0
O200 O 0.67289 0.56666 0.9416 0.0
Co201 Co 0.67051 0.72112 0.93997 0.0
O202 O 0.60308 0.65252 0.94509 0.0
C203 C 0.73564 0.6789 0.90875 0.0
C204 C 0.86892 0.55828 0.93586 0.0
C205 C 0.61427 0.59054 0.94399 0.0
O206 O 0.7577 0.62782 0.91661 0.0
O207 O 0.70474 0.72608 0.91611 0.0
O208 O 0.77339 0.59194 0.96535 0.0
O209 O 0.74535 0.68212 0.95164 0.0
Co210 Co 0.40333 0.27008 0.19137 0.0
O211 O 0.38582 0.36357 0.19023 0.0
O212 O 0.48292 0.31745 0.18492 0.0
C213 C 0.35421 0.25222 0.21637 0.0
O214 O 0.43902 0.1751 0.19193 0.0
Co215 Co 0.28458 0.17277 0.19042 0.0
O216 O 0.35322 0.10524 0.19543 0.0
C217 C 0.32651 0.23785 0.15916 0.0
C218 C 0.44747 0.3711 0.18616 0.0
C219 C 0.41518 0.11645 0.19429 0.0
O220 O 0.37765 0.25996 0.16698 0.0
O221 O 0.27943 0.20693 0.16656 0.0
O222 O 0.41397 0.27561 0.21572 0.0
O223 O 0.32369 0.24765 0.20205 0.0
C224 C 0.99613 0.93117 0.31145 0.0
C225 C 0.94026 0.97281 0.31123 0.0
H226 H 0.10204 0.92442 0.31117 0.0
C227 C 0.94967 0.04158 0.31171 0.0
H228 H 0.99053 0.87786 0.31117 0.0
C229 C 0.01362 0.06817 0.31158 0.0
C230 C 0.06947 0.02654 0.31114 0.0
H231 H 0.90771 0.07494 0.31156 0.0
H232 H 0.01921 0.12148 0.31143 0.0
C233 C 0.06008 0.95775 0.31148 0.0
C234 C 0.04558 0.55929 0.56142 0.0
C235 C 0.97679 0.56868 0.56113 0.0
H236 H 0.12546 0.48972 0.5611 0.0
C237 C 0.93517 0.51284 0.56164 0.0
H238 H 0.07891 0.60125 0.56105 0.0
C239 C 0.96175 0.4489 0.56179 0.0
C240 C 0.03052 0.43947 0.56127 0.0
H241 H 0.88186 0.51844 0.56152 0.0
H242 H 0.9284 0.40694 0.5617 0.0
C243 C 0.07217 0.49533 0.56141 0.0
C244 C 0.50745 0.57258 0.81094 0.0
C245 C 0.56332 0.53092 0.81107 0.0
H246 H 0.40154 0.57929 0.81049 0.0
C247 C 0.55388 0.46223 0.81204 0.0
H248 H 0.51306 0.62583 0.81028 0.0
C249 C 0.48994 0.43565 0.81205 0.0
C250 C 0.43411 0.47721 0.81125 0.0
H251 H 0.59583 0.42886 0.81219 0.0
H252 H 0.48433 0.38234 0.81227 0.0
C253 C 0.44349 0.54601 0.81111 0.0
C254 C 0.54247 0.05701 0.06107 0.0
C255 C 0.47368 0.06639 0.06123 0.0
H256 H 0.6223 0.98747 0.06025 0.0
C257 C 0.43212 0.01057 0.06205 0.0
H258 H 0.57575 0.09896 0.06043 0.0
C259 C 0.45872 0.94661 0.06205 0.0
C260 C 0.52741 0.93719 0.06108 0.0
H261 H 0.37882 0.01619 0.06228 0.0
H262 H 0.42537 0.90465 0.06223 0.0
C263 C 0.56905 0.99306 0.06092 0.0
C264 C 0.00944 0.43444 0.93362 0.0
C265 C 0.06527 0.47608 0.93416 0.0
H266 H 0.90353 0.42766 0.93351 0.0
C267 C 0.05586 0.54487 0.93384 0.0
H268 H 0.01505 0.38113 0.93376 0.0
C269 C 0.9919 0.57145 0.93381 0.0
C270 C 0.93605 0.52979 0.93394 0.0
H271 H 0.09781 0.57821 0.93422 0.0
H272 H 0.98628 0.62474 0.93411 0.0
C273 C 0.94549 0.46102 0.93344 0.0
C274 C 0.4343 0.49405 0.18392 0.0
C275 C 0.47594 0.43818 0.18412 0.0
H276 H 0.42756 0.59996 0.18413 0.0
C277 C 0.5447 0.44758 0.18354 0.0
H278 H 0.38101 0.48845 0.18428 0.0
C279 C 0.5713 0.51153 0.18357 0.0
C280 C 0.52968 0.56739 0.18403 0.0
H281 H 0.57806 0.40562 0.18366 0.0
H282 H 0.62461 0.51712 0.18365 0.0
C283 C 0.46089 0.558 0.18379 0.0
C284 C 0.44371 0.95716 0.43384 0.0
C285 C 0.43432 0.02596 0.43418 0.0
H286 H 0.51329 0.87728 0.4341 0.0
C287 C 0.49015 0.06758 0.43369 0.0
H288 H 0.40176 0.92383 0.43419 0.0
C289 C 0.5541 0.041 0.43352 0.0
C290 C 0.56353 0.97223 0.43399 0.0
H291 H 0.48456 0.12089 0.43385 0.0
H292 H 0.59605 0.07437 0.43362 0.0
C293 C 0.50767 0.93058 0.43382 0.0
C294 C 0.07246 0.00877 0.68386 0.0
C295 C 0.03081 0.06464 0.68405 0.0
H296 H 0.07921 0.90285 0.68414 0.0
C297 C 0.96205 0.05523 0.68354 0.0
H298 H 0.12576 0.01438 0.68416 0.0
C299 C 0.93546 0.99129 0.68365 0.0
C300 C 0.97708 0.93543 0.68411 0.0
H301 H 0.92869 0.09719 0.68366 0.0
H302 H 0.88215 0.98569 0.68378 0.0
C303 C 0.04587 0.94482 0.68381 0.0
C304 C 0.4957 0.93205 0.29978 0.0
C305 C 0.56065 0.95759 0.30027 0.0
H306 H 0.39167 0.9527 0.29977 0.0
C307 C 0.56908 0.02657 0.30055 0.0
H308 H 0.48702 0.87917 0.29955 0.0
C309 C 0.51412 0.06878 0.30059 0.0
C310 C 0.44917 0.04319 0.30046 0.0
H311 H 0.61814 0.0481 0.30089 0.0
H312 H 0.52277 0.12165 0.301 0.0
C313 C 0.44075 0.97425 0.29994 0.0
C314 C 0.93436 0.01325 0.55044 0.0
C315 C 0.95995 0.94829 0.5503 0.0
H316 H 0.95503 0.11727 0.55086 0.0
C317 C 0.0289 0.93987 0.54989 0.0
H318 H 0.88148 0.0219 0.55077 0.0
C319 C 0.0711 0.99482 0.54985 0.0
C320 C 0.04555 0.05976 0.55034 0.0
H321 H 0.05045 0.89079 0.54972 0.0
H322 H 0.12399 0.98613 0.54969 0.0
C323 C 0.97657 0.0682 0.55052 0.0
C324 C 0.98971 0.43393 0.80148 0.0
C325 C 0.05457 0.45943 0.80051 0.0
H326 H 0.88578 0.45471 0.80243 0.0
C327 C 0.06289 0.52819 0.79912 0.0
H328 H 0.98119 0.3812 0.8026 0.0
C329 C 0.00792 0.57036 0.79892 0.0
C330 C 0.94308 0.54498 0.80024 0.0
H331 H 0.11191 0.5496 0.79826 0.0
H332 H 0.01653 0.62313 0.79797 0.0
C333 C 0.93474 0.47613 0.8014 0.0
C334 C 0.47341 0.56582 0.05069 0.0
C335 C 0.54237 0.55737 0.05034 0.0
H336 H 0.37832 0.51953 0.05115 0.0
C337 C 0.5679 0.49242 0.04976 0.0
H338 H 0.45188 0.61489 0.05111 0.0
C339 C 0.52569 0.43748 0.04987 0.0
C340 C 0.45675 0.44592 0.05045 0.0
H341 H 0.62077 0.48373 0.04947 0.0
H342 H 0.54721 0.3884 0.04962 0.0
C343 C 0.43118 0.51088 0.05069 0.0
C344 C 0.50982 0.4339 0.9448 0.0
C345 C 0.44487 0.4595 0.94501 0.0
H346 H 0.61383 0.45455 0.94428 0.0
C347 C 0.43646 0.52846 0.94544 0.0
H348 H 0.51845 0.38102 0.94446 0.0
C349 C 0.49142 0.57065 0.94542 0.0
C350 C 0.55635 0.54508 0.94486 0.0
H351 H 0.38739 0.55002 0.94566 0.0
H352 H 0.48275 0.62354 0.94559 0.0
C353 C 0.56477 0.4761 0.94467 0.0
C354 C 0.4773 0.9386 0.19537 0.0
C355 C 0.54625 0.94702 0.1949 0.0
H356 H 0.38222 0.98488 0.1957 0.0
C357 C 0.57184 0.01198 0.19479 0.0
H358 H 0.45576 0.88952 0.19552 0.0
C359 C 0.52963 0.06694 0.19481 0.0
C360 C 0.46065 0.0585 0.19504 0.0
H361 H 0.62471 0.02063 0.19442 0.0
H362 H 0.55117 0.116 0.19449 0.0
C363 C 0.4351 0.99356 0.1955 0.0
C364 C 0.00814 0.93171 0.44549 0.0
C365 C 0.9432 0.95727 0.44497 0.0
H366 H 0.11217 0.95235 0.44562 0.0
C367 C 0.93477 0.02624 0.44474 0.0
H368 H 0.01683 0.87883 0.44569 0.0
C369 C 0.98973 0.06845 0.44479 0.0
C370 C 0.05468 0.04286 0.44495 0.0
H371 H 0.88571 0.04778 0.44438 0.0
H372 H 0.98108 0.12133 0.44442 0.0
C373 C 0.0631 0.9739 0.44542 0.0
C374 C 0.97698 0.43586 0.69468 0.0
C375 C 0.04595 0.44429 0.69498 0.0
H376 H 0.8819 0.48217 0.69424 0.0
C377 C 0.07149 0.50924 0.6955 0.0
H378 H 0.95544 0.3868 0.6943 0.0
C379 C 0.02929 0.56419 0.69538 0.0
C380 C 0.96035 0.55577 0.69484 0.0
H381 H 0.12437 0.51791 0.69576 0.0
H382 H 0.05083 0.61327 0.69558 0.0
C383 C 0.93477 0.49082 0.69467 0.0
C384 C 0.25527 0.11715 0.36398 0.0
C385 C 0.25975 0.17701 0.35504 0.0
H386 H 0.24504 0.06995 0.38795 0.0
C387 C 0.2563 0.23703 0.36398 0.0
H388 H 0.25819 0.07007 0.35747 0.0
C389 C 0.24755 0.23696 0.38155 0.0
C390 C 0.2439 0.17687 0.39045 0.0
H391 H 0.25949 0.28389 0.35739 0.0
H392 H 0.24455 0.28376 0.38817 0.0
C393 C 0.24814 0.11708 0.38147 0.0
C394 C 0.76619 0.75645 0.61379 0.0
C395 C 0.82621 0.7599 0.60485 0.0
H396 H 0.71944 0.74498 0.63798 0.0
C397 C 0.88607 0.75586 0.61381 0.0
H398 H 0.71934 0.75932 0.60718 0.0
C399 C 0.88613 0.7491 0.63131 0.0
C400 C 0.82633 0.74477 0.64028 0.0
H401 H 0.93315 0.75884 0.6073 0.0
H402 H 0.93325 0.7463 0.6378 0.0
C403 C 0.76625 0.74805 0.63136 0.0
C404 C 0.24645 0.26569 0.86399 0.0
C405 C 0.24312 0.3258 0.85508 0.0
H406 H 0.25729 0.21872 0.88817 0.0
C407 C 0.24692 0.38558 0.86407 0.0
H408 H 0.24377 0.2189 0.85735 0.0
C409 C 0.2532 0.38547 0.88159 0.0
C410 C 0.25728 0.32559 0.89054 0.0
H411 H 0.24406 0.43271 0.85759 0.0
H412 H 0.25578 0.43253 0.88812 0.0
C413 C 0.25436 0.26559 0.88157 0.0
C414 C 0.73889 0.74856 0.11353 0.0
C415 C 0.67862 0.74531 0.10469 0.0
H416 H 0.78631 0.75939 0.13766 0.0
C417 C 0.61902 0.7492 0.11376 0.0
H418 H 0.78555 0.7458 0.10684 0.0
C419 C 0.61945 0.75551 0.13127 0.0
C420 C 0.67949 0.75953 0.14015 0.0
H421 H 0.57176 0.74639 0.10733 0.0
H422 H 0.57251 0.75815 0.13785 0.0
C423 C 0.73932 0.75651 0.13112 0.0
C424 C 0.75411 0.74077 0.86369 0.0
C425 C 0.75659 0.68076 0.85472 0.0
H426 H 0.74424 0.78745 0.88794 0.0
C427 C 0.75246 0.62089 0.86366 0.0
H428 H 0.75711 0.78763 0.85709 0.0
C429 C 0.74662 0.62078 0.88119 0.0
C430 C 0.74329 0.68055 0.89019 0.0
H431 H 0.75472 0.57382 0.85713 0.0
H432 H 0.74372 0.57364 0.88767 0.0
C433 C 0.74659 0.74067 0.88129 0.0
C434 C 0.26427 0.24806 0.13176 0.0
C435 C 0.32455 0.24555 0.14061 0.0
H436 H 0.21681 0.25787 0.1076 0.0
C437 C 0.38414 0.24967 0.13154 0.0
H438 H 0.21761 0.24508 0.13844 0.0
C439 C 0.38368 0.25548 0.11401 0.0
C440 C 0.32363 0.25879 0.10513 0.0
H441 H 0.4314 0.2474 0.13798 0.0
H442 H 0.43061 0.25835 0.10743 0.0
C443 C 0.26381 0.25554 0.11415 0.0
C444 C 0.7486 0.76202 0.36373 0.0
C445 C 0.74612 0.82211 0.35479 0.0
H446 H 0.7577 0.7151 0.38797 0.0
C447 C 0.74942 0.8819 0.36379 0.0
H448 H 0.74622 0.71522 0.35708 0.0
C449 C 0.75444 0.88184 0.38134 0.0
C450 C 0.75777 0.82198 0.39031 0.0
H451 H 0.74713 0.92902 0.35729 0.0
H452 H 0.75672 0.92891 0.38787 0.0
C453 C 0.7553 0.76196 0.38135 0.0
C454 C 0.24131 0.25576 0.63149 0.0
C455 C 0.18129 0.2584 0.64045 0.0
H456 H 0.28805 0.24618 0.60724 0.0
C457 C 0.12144 0.25493 0.63148 0.0
H458 H 0.28816 0.25826 0.63811 0.0
C459 C 0.12137 0.24955 0.61394 0.0
C460 C 0.18116 0.24603 0.60495 0.0
H461 H 0.07436 0.25734 0.638 0.0
H462 H 0.07425 0.24713 0.60744 0.0
C463 C 0.24125 0.2487 0.61388 0.0
C464 C 0.32565 0.22957 0.26313 0.0
C465 C 0.27744 0.17969 0.26325 0.0
H466 H 0.38851 0.29099 0.24802 0.0
C467 C 0.25221 0.15604 0.24785 0.0
H468 H 0.34597 0.24847 0.27483 0.0
C469 C 0.27542 0.1813 0.23254 0.0
C470 C 0.32541 0.22939 0.23241 0.0
H471 H 0.21473 0.11772 0.24763 0.0
H472 H 0.25573 0.16172 0.22085 0.0
C473 C 0.35005 0.25364 0.24781 0.0
C474 C 0.82124 0.77264 0.48235 0.0
C475 C 0.77263 0.82212 0.48218 0.0
H476 H 0.88563 0.71296 0.49749 0.0
C477 C 0.74823 0.84679 0.49757 0.0
H478 H 0.84095 0.75296 0.47067 0.0
C479 C 0.77271 0.82299 0.5129 0.0
C480 C 0.82313 0.77535 0.51306 0.0
H481 H 0.71047 0.88486 0.49775 0.0
H482 H 0.75368 0.84335 0.52458 0.0
C483 C 0.8469 0.75003 0.49768 0.0
C484 C 0.15621 0.24883 0.74771 0.0
C485 C 0.18093 0.27337 0.73234 0.0
H486 H 0.15965 0.25396 0.77473 0.0
C487 C 0.23054 0.32184 0.73255 0.0
H488 H 0.11805 0.21117 0.74786 0.0
C489 C 0.25321 0.34724 0.7479 0.0
C490 C 0.22782 0.32336 0.76326 0.0
H491 H 0.25026 0.34164 0.72088 0.0
H492 H 0.29036 0.38589 0.74774 0.0
C493 C 0.18007 0.27306 0.76306 0.0
C494 C 0.67886 0.73023 0.98219 0.0
C495 C 0.72729 0.68056 0.98202 0.0
H496 H 0.61533 0.79072 0.99736 0.0
C497 C 0.75211 0.65625 0.99739 0.0
H498 H 0.65883 0.74963 0.97051 0.0
C499 C 0.72833 0.68069 0.01273 0.0
C500 C 0.67818 0.72861 0.01291 0.0
H501 H 0.78972 0.61803 0.99757 0.0
H502 H 0.74773 0.66064 0.02441 0.0
C503 C 0.65389 0.75348 0.99753 0.0
C504 C 0.27114 0.32257 0.0131 0.0
C505 C 0.32083 0.27417 0.01325 0.0
H506 H 0.2106 0.38622 -0.00202 0.0
C507 C 0.34492 0.24929 -0.00215 0.0
H508 H 0.2519 0.34262 0.0248 0.0
C509 C 0.32038 0.27314 0.98253 0.0
C510 C 0.27258 0.3234 0.98238 0.0
H511 H 0.38311 0.21167 -0.00235 0.0
H512 H 0.34034 0.25378 0.97084 0.0
C513 C 0.24779 0.3476 -0.00222 0.0
C514 C 0.68397 0.77232 0.26272 0.0
C515 C 0.73209 0.82227 0.26292 0.0
H516 H 0.62051 0.71184 0.24755 0.0
C517 C 0.75661 0.84697 0.24755 0.0
H518 H 0.6642 0.75259 0.27439 0.0
C519 C 0.73271 0.82272 0.2322 0.0
C520 C 0.68275 0.77461 0.23201 0.0
H521 H 0.794 0.88539 0.2474 0.0
H522 H 0.75177 0.84313 0.22053 0.0
C523 C 0.6589 0.74926 0.24738 0.0
C524 C 0.1797 0.22993 0.48237 0.0
C525 C 0.22736 0.17952 0.48223 0.0
H526 H 0.11779 0.29219 0.49751 0.0
C527 C 0.25264 0.15578 0.49762 0.0
H528 H 0.15936 0.24893 0.47069 0.0
C529 C 0.23 0.18147 0.51294 0.0
C530 C 0.18053 0.23009 0.51309 0.0
H531 H 0.28972 0.11706 0.49781 0.0
H532 H 0.24968 0.16179 0.52462 0.0
C533 C 0.15586 0.25444 0.4977 0.0
C534 C 0.84734 0.75313 0.74745 0.0
C535 C 0.82368 0.72796 0.73205 0.0
H536 H 0.84132 0.74985 0.77446 0.0
C537 C 0.77347 0.6801 0.73216 0.0
H538 H 0.88593 0.79035 0.74768 0.0
C539 C 0.74905 0.65599 0.74746 0.0
C540 C 0.77328 0.68059 0.76287 0.0
H541 H 0.75454 0.65983 0.72045 0.0
H542 H 0.71143 0.6178 0.74724 0.0
C543 C 0.82174 0.73022 0.76276 0.0
loop_
_geom_bond_atom_site_label_1
_geom_bond_atom_site_label_2
_geom_bond_distance
_geom_bond_site_symmetry_2
_ccdc_geom_bond_type
Co0 O1 2.216 . S
Co0 O2 2.091 . S
Co0 O4 2.004 . S
Co0 O10 2.021 . S
Co0 O12 2.137 . S
Co0 O13 2.244 . S
O1 Co0 2.216 . S
O1 C8 1.247 . S
O2 Co0 2.091 . S
O2 C8 1.261 . S
C3 O12 1.247 . S
C3 O13 1.272 . S
O4 Co0 2.004 . S
O4 C9 1.259 . S
Co5 O6 2.061 . S
Co5 O11 2.052 . S
Co5 O13 2.135 . S
O6 Co5 2.061 . S
O6 C9 1.235 . S
C7 O10 1.238 . S
C7 O11 1.241 . S
C8 O1 1.247 . S
C8 O2 1.261 . S
C9 O4 1.259 . S
C9 O6 1.235 . S
O10 Co0 2.021 . S
O10 C7 1.238 . S
O11 Co5 2.052 . S
O11 C7 1.241 . S
O12 Co0 2.137 . S
O12 C3 1.247 . S
O13 Co0 2.244 . S
O13 C3 1.272 . S
O13 Co5 2.135 . S
Co14 O15 2.216 . S
Co14 O16 2.091 . S
Co14 O18 2.004 . S
Co14 O24 2.021 . S
Co14 O26 2.137 . S
Co14 O27 2.244 . S
O15 Co14 2.216 . S
O15 C22 1.247 . S
O16 Co14 2.091 . S
O16 C22 1.261 . S
C17 O26 1.247 . S
C17 O27 1.272 . S
O18 Co14 2.004 . S
O18 C23 1.259 . S
Co19 O20 2.061 . S
Co19 O25 2.052 . S
Co19 O27 2.135 . S
O20 Co19 2.061 . S
O20 C23 1.235 . S
C21 O24 1.238 . S
C21 O25 1.241 . S
C22 O15 1.247 . S
C22 O16 1.261 . S
C23 O18 1.259 . S
C23 O20 1.235 . S
O24 Co14 2.021 . S
O24 C21 1.238 . S
O25 Co19 2.052 . S
O25 C21 1.241 . S
O26 Co14 2.137 . S
O26 C17 1.247 . S
O27 Co14 2.244 . S
O27 C17 1.272 . S
O27 Co19 2.135 . S
Co28 O29 2.216 . S
Co28 O30 2.091 . S
Co28 O32 2.004 . S
Co28 O38 2.021 . S
Co28 O40 2.137 . S
Co28 O41 2.244 . S
O29 Co28 2.216 . S
O29 C36 1.247 . S
O30 Co28 2.091 . S
O30 C36 1.261 . S
C31 O40 1.247 . S
C31 O41 1.272 . S
O32 Co28 2.004 . S
O32 C37 1.259 . S
Co33 O34 2.061 . S
Co33 O39 2.052 . S
Co33 O41 2.135 . S
O34 Co33 2.061 . S
O34 C37 1.235 . S
C35 O38 1.238 . S
C35 O39 1.241 . S
C36 O29 1.247 . S
C36 O30 1.261 . S
C37 O32 1.259 . S
C37 O34 1.235 . S
O38 Co28 2.021 . S
O38 C35 1.238 . S
O39 Co33 2.052 . S
O39 C35 1.241 . S
O40 Co28 2.137 . S
O40 C31 1.247 . S
O41 Co28 2.244 . S
O41 C31 1.272 . S
O41 Co33 2.135 . S
Co42 O43 2.216 . S
Co42 O44 2.091 . S
Co42 O46 2.004 . S
Co42 O52 2.021 . S
Co42 O54 2.137 . S
Co42 O55 2.244 . S
O43 Co42 2.216 . S
O43 C50 1.247 . S
O44 Co42 2.091 . S
O44 C50 1.261 . S
C45 O54 1.247 . S
C45 O55 1.272 . S
O46 Co42 2.004 . S
O46 C51 1.259 . S
Co47 O48 2.061 . S
Co47 O53 2.052 . S
Co47 O55 2.135 . S
O48 Co47 2.061 . S
O48 C51 1.235 . S
C49 O52 1.238 . S
C49 O53 1.241 . S
C50 O43 1.247 . S
C50 O44 1.261 . S
C51 O46 1.259 . S
C51 O48 1.235 . S
O52 Co42 2.021 . S
O52 C49 1.238 . S
O53 Co47 2.052 . S
O53 C49 1.241 . S
O54 Co42 2.137 . S
O54 C45 1.247 . S
O55 Co42 2.244 . S
O55 C45 1.272 . S
O55 Co47 2.135 . S
Co56 O57 2.216 . S
Co56 O58 2.091 . S
Co56 O60 2.004 . S
Co56 O66 2.021 . S
Co56 O68 2.137 . S
Co56 O69 2.244 . S
O57 Co56 2.216 . S
O57 C64 1.247 . S
O58 Co56 2.091 . S
O58 C64 1.261 . S
C59 O68 1.247 . S
C59 O69 1.272 . S
O60 Co56 2.004 . S
O60 C65 1.259 . S
Co61 O62 2.061 . S
Co61 O67 2.052 . S
Co61 O69 2.135 . S
O62 Co61 2.061 . S
O62 C65 1.235 . S
C63 O66 1.238 . S
C63 O67 1.241 . S
C64 O57 1.247 . S
C64 O58 1.261 . S
C65 O60 1.259 . S
C65 O62 1.235 . S
O66 Co56 2.021 . S
O66 C63 1.238 . S
O67 Co61 2.052 . S
O67 C63 1.241 . S
O68 Co56 2.137 . S
O68 C59 1.247 . S
O69 Co56 2.244 . S
O69 C59 1.272 . S
O69 Co61 2.135 . S
Co70 O71 2.216 . S
Co70 O72 2.091 . S
Co70 O74 2.004 . S
Co70 O80 2.021 . S
Co70 O82 2.137 . S
Co70 O83 2.244 . S
O71 Co70 2.216 . S
O71 C78 1.247 . S
O72 Co70 2.091 . S
O72 C78 1.261 . S
C73 O82 1.247 . S
C73 O83 1.272 . S
O74 Co70 2.004 . S
O74 C79 1.259 . S
Co75 O76 2.061 . S
Co75 O81 2.052 . S
Co75 O83 2.135 . S
O76 Co75 2.061 . S
O76 C79 1.235 . S
C77 O80 1.238 . S
C77 O81 1.241 . S
C78 O71 1.247 . S
C78 O72 1.261 . S
C79 O74 1.259 . S
C79 O76 1.235 . S
O80 Co70 2.021 . S
O80 C77 1.238 . S
O81 Co75 2.052 . S
O81 C77 1.241 . S
O82 Co70 2.137 . S
O82 C73 1.247 . S
O83 Co70 2.244 . S
O83 C73 1.272 . S
O83 Co75 2.135 . S
Co84 O85 2.216 . S
Co84 O86 2.091 . S
Co84 O88 2.004 . S
Co84 O94 2.021 . S
Co84 O96 2.137 . S
Co84 O97 2.244 . S
O85 Co84 2.216 . S
O85 C92 1.247 . S
O86 Co84 2.091 . S
O86 C92 1.261 . S
C87 O96 1.247 . S
C87 O97 1.272 . S
O88 Co84 2.004 . S
O88 C93 1.259 . S
Co89 O90 2.061 . S
Co89 O95 2.052 . S
Co89 O97 2.135 . S
O90 Co89 2.061 . S
O90 C93 1.235 . S
C91 O94 1.238 . S
C91 O95 1.241 . S
C92 O85 1.247 . S
C92 O86 1.261 . S
C93 O88 1.259 . S
C93 O90 1.235 . S
O94 Co84 2.021 . S
O94 C91 1.238 . S
O95 Co89 2.052 . S
O95 C91 1.241 . S
O96 Co84 2.137 . S
O96 C87 1.247 . S
O97 Co84 2.244 . S
O97 C87 1.272 . S
O97 Co89 2.135 . S
Co98 O99 2.216 . S
Co98 O100 2.091 . S
Co98 O102 2.004 . S
Co98 O108 2.021 . S
Co98 O110 2.137 . S
Co98 O111 2.244 . S
O99 Co98 2.216 . S
O99 C106 1.247 . S
O100 Co98 2.091 . S
O100 C106 1.261 . S
C101 O110 1.247 . S
C101 O111 1.272 . S
O102 Co98 2.004 . S
O102 C107 1.259 . S
Co103 O104 2.061 . S
Co103 O109 2.052 . S
Co103 O111 2.135 . S
O104 Co103 2.061 . S
O104 C107 1.235 . S
C105 O108 1.238 . S
C105 O109 1.241 . S
C106 O99 1.247 . S
C106 O100 1.261 . S
C107 O102 1.259 . S
C107 O104 1.235 . S
O108 Co98 2.021 . S
O108 C105 1.238 . S
O109 Co103 2.052 . S
O109 C105 1.241 . S
O110 Co98 2.137 . S
O110 C101 1.247 . S
O111 Co98 2.244 . S
O111 C101 1.272 . S
O111 Co103 2.135 . S
Co112 O113 2.216 . S
Co112 O114 2.091 . S
Co112 O116 2.004 . S
Co112 O122 2.021 . S
Co112 O124 2.137 . S
Co112 O125 2.244 . S
O113 Co112 2.216 . S
O113 C120 1.247 . S
O114 Co112 2.091 . S
O114 C120 1.261 . S
C115 O124 1.247 . S
C115 O125 1.272 . S
O116 Co112 2.004 . S
O116 C121 1.259 . S
Co117 O118 2.061 . S
Co117 O123 2.052 . S
Co117 O125 2.135 . S
O118 Co117 2.061 . S
O118 C121 1.235 . S
C119 O122 1.238 . S
C119 O123 1.241 . S
C120 O113 1.247 . S
C120 O114 1.261 . S
C121 O116 1.259 . S
C121 O118 1.235 . S
O122 Co112 2.021 . S
O122 C119 1.238 . S
O123 Co117 2.052 . S
O123 C119 1.241 . S
O124 Co112 2.137 . S
O124 C115 1.247 . S
O125 Co112 2.244 . S
O125 C115 1.272 . S
O125 Co117 2.135 . S
Co126 O127 2.216 . S
Co126 O128 2.091 . S
Co126 O130 2.004 . S
Co126 O136 2.021 . S
Co126 O138 2.137 . S
Co126 O139 2.244 . S
O127 Co126 2.216 . S
O127 C134 1.247 . S
O128 Co126 2.091 . S
O128 C134 1.261 . S
C129 O138 1.247 . S
C129 O139 1.272 . S
O130 Co126 2.004 . S
O130 C135 1.259 . S
Co131 O132 2.061 . S
Co131 O137 2.052 . S
Co131 O139 2.135 . S
O132 Co131 2.061 . S
O132 C135 1.235 . S
C133 O136 1.238 . S
C133 O137 1.241 . S
C134 O127 1.247 . S
C134 O128 1.261 . S
C135 O130 1.259 . S
C135 O132 1.235 . S
O136 Co126 2.021 . S
O136 C133 1.238 . S
O137 Co131 2.052 . S
O137 C133 1.241 . S
O138 Co126 2.137 . S
O138 C129 1.247 . S
O139 Co126 2.244 . S
O139 C129 1.272 . S
O139 Co131 2.135 . S
Co140 O141 2.216 . S
Co140 O142 2.091 . S
Co140 O144 2.004 . S
Co140 O150 2.021 . S
Co140 O152 2.137 . S
Co140 O153 2.244 . S
O141 Co140 2.216 . S
O141 C148 1.247 . S
O142 Co140 2.091 . S
O142 C148 1.261 . S
C143 O152 1.247 . S
C143 O153 1.272 . S
O144 Co140 2.004 . S
O144 C149 1.259 . S
Co145 O146 2.061 . S
Co145 O151 2.052 . S
Co145 O153 2.135 . S
O146 Co145 2.061 . S
O146 C149 1.235 . S
C147 O150 1.238 . S
C147 O151 1.241 . S
C148 O141 1.247 . S
C148 O142 1.261 . S
C149 O144 1.259 . S
C149 O146 1.235 . S
O150 Co140 2.021 . S
O150 C147 1.238 . S
O151 Co145 2.052 . S
O151 C147 1.241 . S
O152 Co140 2.137 . S
O152 C143 1.247 . S
O153 Co140 2.244 . S
O153 C143 1.272 . S
O153 Co145 2.135 . S
Co154 O155 2.216 . S
Co154 O156 2.091 . S
Co154 O158 2.004 . S
Co154 O164 2.021 . S
Co154 O166 2.137 . S
Co154 O167 2.244 . S
O155 Co154 2.216 . S
O155 C162 1.247 . S
O156 Co154 2.091 . S
O156 C162 1.261 . S
C157 O166 1.247 . S
C157 O167 1.272 . S
O158 Co154 2.004 . S
O158 C163 1.259 . S
Co159 O160 2.061 . S
Co159 O165 2.052 . S
Co159 O167 2.135 . S
O160 Co159 2.061 . S
O160 C163 1.235 . S
C161 O164 1.238 . S
C161 O165 1.241 . S
C162 O155 1.247 . S
C162 O156 1.261 . S
C163 O158 1.259 . S
C163 O160 1.235 . S
O164 Co154 2.021 . S
O164 C161 1.238 . S
O165 Co159 2.052 . S
O165 C161 1.241 . S
O166 Co154 2.137 . S
O166 C157 1.247 . S
O167 Co154 2.244 . S
O167 C157 1.272 . S
O167 Co159 2.135 . S
Co168 O169 2.216 . S
Co168 O170 2.091 . S
Co168 O172 2.004 . S
Co168 O178 2.021 . S
Co168 O180 2.137 . S
Co168 O181 2.244 . S
O169 Co168 2.216 . S
O169 C176 1.247 . S
O170 Co168 2.091 . S
O170 C176 1.261 . S
C171 O180 1.247 . S
C171 O181 1.272 . S
O172 Co168 2.004 . S
O172 C177 1.259 . S
Co173 O174 2.061 . S
Co173 O179 2.052 . S
Co173 O181 2.135 . S
O174 Co173 2.061 . S
O174 C177 1.235 . S
C175 O178 1.238 . S
C175 O179 1.241 . S
C176 O169 1.247 . S
C176 O170 1.261 . S
C177 O172 1.259 . S
C177 O174 1.235 . S
O178 Co168 2.021 . S
O178 C175 1.238 . S
O179 Co173 2.052 . S
O179 C175 1.241 . S
O180 Co168 2.137 . S
O180 C171 1.247 . S
O181 Co168 2.244 . S
O181 C171 1.272 . S
O181 Co173 2.135 . S
Co182 O183 2.216 . S
Co182 O184 2.091 . S
Co182 O186 2.004 . S
Co182 O192 2.021 . S
Co182 O194 2.137 . S
Co182 O195 2.244 . S
O183 Co182 2.216 . S
O183 C190 1.247 . S
O184 Co182 2.091 . S
O184 C190 1.261 . S
C185 O194 1.247 . S
C185 O195 1.272 . S
O186 Co182 2.004 . S
O186 C191 1.259 . S
Co187 O188 2.061 . S
Co187 O193 2.052 . S
Co187 O195 2.135 . S
O188 Co187 2.061 . S
O188 C191 1.235 . S
C189 O192 1.238 . S
C189 O193 1.241 . S
C190 O183 1.247 . S
C190 O184 1.261 . S
C191 O186 1.259 . S
C191 O188 1.235 . S
O192 Co182 2.021 . S
O192 C189 1.238 . S
O193 Co187 2.052 . S
O193 C189 1.241 . S
O194 Co182 2.137 . S
O194 C185 1.247 . S
O195 Co182 2.244 . S
O195 C185 1.272 . S
O195 Co187 2.135 . S
Co196 O197 2.216 . S
Co196 O198 2.091 . S
Co196 O200 2.004 . S
Co196 O206 2.021 . S
Co196 O208 2.137 . S
Co196 O209 2.244 . S
O197 Co196 2.216 . S
O197 C204 1.247 . S
O198 Co196 2.091 . S
O198 C204 1.261 . S
C199 O208 1.247 . S
C199 O209 1.272 . S
O200 Co196 2.004 . S
O200 C205 1.259 . S
Co201 O202 2.061 . S
Co201 O207 2.052 . S
Co201 O209 2.135 . S
O202 Co201 2.061 . S
O202 C205 1.235 . S
C203 O206 1.238 . S
C203 O207 1.241 . S
C204 O197 1.247 . S
C204 O198 1.261 . S
C205 O200 1.259 . S
C205 O202 1.235 . S
O206 Co196 2.021 . S
O206 C203 1.238 . S
O207 Co201 2.052 . S
O207 C203 1.241 . S
O208 Co196 2.137 . S
O208 C199 1.247 . S
O209 Co196 2.244 . S
O209 C199 1.272 . S
O209 Co201 2.135 . S
Co210 O211 2.216 . S
Co210 O212 2.091 . S
Co210 O214 2.004 . S
Co210 O220 2.021 . S
Co210 O222 2.137 . S
Co210 O223 2.244 . S
O211 Co210 2.216 . S
O211 C218 1.247 . S
O212 Co210 2.091 . S
O212 C218 1.261 . S
C213 O222 1.247 . S
C213 O223 1.272 . S
O214 Co210 2.004 . S
O214 C219 1.259 . S
Co215 O216 2.061 . S
Co215 O221 2.052 . S
Co215 O223 2.135 . S
O216 Co215 2.061 . S
O216 C219 1.235 . S
C217 O220 1.238 . S
C217 O221 1.241 . S
C218 O211 1.247 . S
C218 O212 1.261 . S
C219 O214 1.259 . S
C219 O216 1.235 . S
O220 Co210 2.021 . S
O220 C217 1.238 . S
O221 Co215 2.052 . S
O221 C217 1.241 . S
O222 Co210 2.137 . S
O222 C213 1.247 . S
O223 Co210 2.244 . S
O223 C213 1.272 . S
O223 Co215 2.135 . S
C224 C225 1.387 . S
C224 H228 0.950 . S
C224 C233 1.390 1_665 S
C225 C224 1.387 . S
C225 C227 1.387 . S
H226 C233 0.950 . S
C227 C225 1.387 . S
C227 C229 1.390 1_665 S
C227 H231 0.950 . S
H228 C224 0.950 . S
C229 C227 1.390 1_445 S
C229 C230 1.387 . S
C229 H232 0.950 . S
C230 C229 1.387 . S
C230 C233 1.387 . S
H231 C227 0.950 . S
H232 C229 0.950 . S
C233 C224 1.390 1_445 S
C233 H226 0.950 . S
C233 C230 1.387 . S
C234 C235 1.387 . S
C234 H238 0.950 . S
C234 C243 1.390 1_655 S
C235 C234 1.387 . S
C235 C237 1.387 . S
H236 C243 0.950 . S
C237 C235 1.387 . S
C237 C239 1.390 1_655 S
C237 H241 0.950 . S
H238 C234 0.950 . S
C239 C237 1.390 1_455 S
C239 C240 1.387 . S
C239 H242 0.950 . S
C240 C239 1.387 . S
C240 C243 1.387 . S
H241 C237 0.950 . S
H242 C239 0.950 . S
C243 C234 1.390 1_455 S
C243 H236 0.950 . S
C243 C240 1.387 . S
C244 C245 1.387 . S
C244 H248 0.950 . S
C244 C253 1.390 . S
C245 C244 1.387 . S
C245 C247 1.387 . S
H246 C253 0.950 . S
C247 C245 1.387 . S
C247 C249 1.390 . S
C247 H251 0.950 . S
H248 C244 0.950 . S
C249 C247 1.390 . S
C249 C250 1.387 . S
C249 H252 0.950 . S
C250 C249 1.387 . S
C250 C253 1.387 . S
H251 C247 0.950 . S
H252 C249 0.950 . S
C253 C244 1.390 . S
C253 H246 0.950 . S
C253 C250 1.387 . S
C254 C255 1.387 . S
C254 H258 0.950 . S
C254 C263 1.390 1_545 S
C255 C254 1.387 . S
C255 C257 1.387 . S
H256 C263 0.950 . S
C257 C255 1.387 . S
C257 C259 1.390 1_545 S
C257 H261 0.950 . S
H258 C254 0.950 . S
C259 C257 1.390 1_565 S
C259 C260 1.387 . S
C259 H262 0.950 . S
C260 C259 1.387 . S
C260 C263 1.387 . S
H261 C257 0.950 . S
H262 C259 0.950 . S
C263 C254 1.390 1_565 S
C263 H256 0.950 . S
C263 C260 1.387 . S
C264 C265 1.387 . S
C264 H268 0.950 . S
C264 C273 1.390 1_455 S
C265 C264 1.387 . S
C265 C267 1.387 . S
H266 C273 0.950 . S
C267 C265 1.387 . S
C267 C269 1.390 1_455 S
C267 H271 0.950 . S
H268 C264 0.950 . S
C269 C267 1.390 1_655 S
C269 C270 1.387 . S
C269 H272 0.950 . S
C270 C269 1.387 . S
C270 C273 1.387 . S
H271 C267 0.950 . S
H272 C269 0.950 . S
C273 C264 1.390 1_655 S
C273 H266 0.950 . S
C273 C270 1.387 . S
C274 C275 1.387 . S
C274 H278 0.950 . S
C274 C283 1.390 . S
C275 C274 1.387 . S
C275 C277 1.387 . S
H276 C283 0.950 . S
C277 C275 1.387 . S
C277 C279 1.390 . S
C277 H281 0.950 . S
H278 C274 0.950 . S
C279 C277 1.390 . S
C279 C280 1.387 . S
C279 H282 0.950 . S
C280 C279 1.387 . S
C280 C283 1.387 . S
H281 C277 0.950 . S
H282 C279 0.950 . S
C283 C274 1.390 . S
C283 H276 0.950 . S
C283 C280 1.387 . S
C284 C285 1.387 . S
C284 H288 0.950 . S
C284 C293 1.390 1_545 S
C285 C284 1.387 . S
C285 C287 1.387 . S
H286 C293 0.950 . S
C287 C285 1.387 . S
C287 C289 1.390 1_545 S
C287 H291 0.950 . S
H288 C284 0.950 . S
C289 C287 1.390 1_565 S
C289 C290 1.387 . S
C289 H292 0.950 . S
C290 C289 1.387 . S
C290 C293 1.387 . S
H291 C287 0.950 . S
H292 C289 0.950 . S
C293 C284 1.390 1_565 S
C293 H286 0.950 . S
C293 C290 1.387 . S
C294 C295 1.387 . S
C294 H298 0.950 . S
C294 C303 1.390 1_445 S
C295 C294 1.387 . S
C295 C297 1.387 . S
H296 C303 0.950 . S
C297 C295 1.387 . S
C297 C299 1.390 1_445 S
C297 H301 0.950 . S
H298 C294 0.950 . S
C299 C297 1.390 1_665 S
C299 C300 1.387 . S
C299 H302 0.950 . S
C300 C299 1.387 . S
C300 C303 1.387 . S
H301 C297 0.950 . S
H302 C299 0.950 . S
C303 C294 1.390 1_665 S
C303 H296 0.950 . S
C303 C300 1.387 . S
C304 C305 1.387 . S
C304 H308 0.950 . S
C304 C313 1.390 1_565 S
C305 C304 1.387 . S
C305 C307 1.387 . S
H306 C313 0.950 . S
C307 C305 1.387 . S
C307 C309 1.390 1_565 S
C307 H311 0.950 . S
H308 C304 0.950 . S
C309 C307 1.390 1_545 S
C309 C310 1.387 . S
C309 H312 0.950 . S
C310 C309 1.387 . S
C310 C313 1.387 . S
H311 C307 0.950 . S
H312 C309 0.950 . S
C313 C304 1.390 1_545 S
C313 H306 0.950 . S
C313 C310 1.387 . S
C314 C315 1.387 . S
C314 H318 0.950 . S
C314 C323 1.390 1_665 S
C315 C314 1.387 . S
C315 C317 1.387 . S
H316 C323 0.950 . S
C317 C315 1.387 . S
C317 C319 1.390 1_665 S
C317 H321 0.950 . S
H318 C314 0.950 . S
C319 C317 1.390 1_445 S
C319 C320 1.387 . S
C319 H322 0.950 . S
C320 C319 1.387 . S
C320 C323 1.387 . S
H321 C317 0.950 . S
H322 C319 0.950 . S
C323 C314 1.390 1_445 S
C323 H316 0.950 . S
C323 C320 1.387 . S
C324 C325 1.387 . S
C324 H328 0.950 . S
C324 C333 1.390 1_455 S
C325 C324 1.387 . S
C325 C327 1.387 . S
H326 C333 0.950 . S
C327 C325 1.387 . S
C327 C329 1.390 1_455 S
C327 H331 0.950 . S
H328 C324 0.950 . S
C329 C327 1.390 1_655 S
C329 C330 1.387 . S
C329 H332 0.950 . S
C330 C329 1.387 . S
C330 C333 1.387 . S
H331 C327 0.950 . S
H332 C329 0.950 . S
C333 C324 1.390 1_655 S
C333 H326 0.950 . S
C333 C330 1.387 . S
C334 C335 1.387 . S
C334 H338 0.950 . S
C334 C343 1.390 . S
C335 C334 1.387 . S
C335 C337 1.387 . S
H336 C343 0.950 . S
C337 C335 1.387 . S
C337 C339 1.390 . S
C337 H341 0.950 . S
H338 C334 0.950 . S
C339 C337 1.390 . S
C339 C340 1.387 . S
C339 H342 0.950 . S
C340 C339 1.387 . S
C340 C343 1.387 . S
H341 C337 0.950 . S
H342 C339 0.950 . S
C343 C334 1.390 . S
C343 H336 0.950 . S
C343 C340 1.387 . S
C344 C345 1.387 . S
C344 H348 0.950 . S
C344 C353 1.390 . S
C345 C344 1.387 . S
C345 C347 1.387 . S
H346 C353 0.950 . S
C347 C345 1.387 . S
C347 C349 1.390 . S
C347 H351 0.950 . S
H348 C344 0.950 . S
C349 C347 1.390 . S
C349 C350 1.387 . S
C349 H352 0.950 . S
C350 C349 1.387 . S
C350 C353 1.387 . S
H351 C347 0.950 . S
H352 C349 0.950 . S
C353 C344 1.390 . S
C353 H346 0.950 . S
C353 C350 1.387 . S
C354 C355 1.387 . S
C354 H358 0.950 . S
C354 C363 1.390 1_565 S
C355 C354 1.387 . S
C355 C357 1.387 . S
H356 C363 0.950 . S
C357 C355 1.387 . S
C357 C359 1.390 1_565 S
C357 H361 0.950 . S
H358 C354 0.950 . S
C359 C357 1.390 1_545 S
C359 C360 1.387 . S
C359 H362 0.950 . S
C360 C359 1.387 . S
C360 C363 1.387 . S
H361 C357 0.950 . S
H362 C359 0.950 . S
C363 C354 1.390 1_545 S
C363 H356 0.950 . S
C363 C360 1.387 . S
C364 C365 1.387 . S
C364 H368 0.950 . S
C364 C373 1.390 1_665 S
C365 C364 1.387 . S
C365 C367 1.387 . S
H366 C373 0.950 . S
C367 C365 1.387 . S
C367 C369 1.390 1_665 S
C367 H371 0.950 . S
H368 C364 0.950 . S
C369 C367 1.390 1_445 S
C369 C370 1.387 . S
C369 H372 0.950 . S
C370 C369 1.387 . S
C370 C373 1.387 . S
H371 C367 0.950 . S
H372 C369 0.950 . S
C373 C364 1.390 1_445 S
C373 H366 0.950 . S
C373 C370 1.387 . S
C374 C375 1.387 . S
C374 H378 0.950 . S
C374 C383 1.390 1_455 S
C375 C374 1.387 . S
C375 C377 1.387 . S
H376 C383 0.950 . S
C377 C375 1.387 . S
C377 C379 1.390 1_455 S
C377 H381 0.950 . S
H378 C374 0.950 . S
C379 C377 1.390 1_655 S
C379 C380 1.387 . S
C379 H382 0.950 . S
C380 C379 1.387 . S
C380 C383 1.387 . S
H381 C377 0.950 . S
H382 C379 0.950 . S
C383 C374 1.390 1_655 S
C383 H376 0.950 . S
C383 C380 1.387 . S
C384 C385 1.387 . S
C384 H388 0.950 . S
C384 C393 1.390 . S
C385 C384 1.387 . S
C385 C387 1.387 . S
H386 C393 0.950 . S
C387 C385 1.387 . S
C387 C389 1.390 . S
C387 H391 0.950 . S
H388 C384 0.950 . S
C389 C387 1.390 . S
C389 C390 1.387 . S
C389 H392 0.950 . S
C390 C389 1.387 . S
C390 C393 1.387 . S
H391 C387 0.950 . S
H392 C389 0.950 . S
C393 C384 1.390 . S
C393 H386 0.950 . S
C393 C390 1.387 . S
C394 C395 1.387 . S
C394 H398 0.950 . S
C394 C403 1.390 . S
C395 C394 1.387 . S
C395 C397 1.387 . S
H396 C403 0.950 . S
C397 C395 1.387 . S
C397 C399 1.390 . S
C397 H401 0.950 . S
H398 C394 0.950 . S
C399 C397 1.390 . S
C399 C400 1.387 . S
C399 H402 0.950 . S
C400 C399 1.387 . S
C400 C403 1.387 . S
H401 C397 0.950 . S
H402 C399 0.950 . S
C403 C394 1.390 . S
C403 H396 0.950 . S
C403 C400 1.387 . S
C404 C405 1.387 . S
C404 H408 0.950 . S
C404 C413 1.390 . S
C405 C404 1.387 . S
C405 C407 1.387 . S
H406 C413 0.950 . S
C407 C405 1.387 . S
C407 C409 1.390 . S
C407 H411 0.950 . S
H408 C404 0.950 . S
C409 C407 1.390 . S
C409 C410 1.387 . S
C409 H412 0.950 . S
C410 C409 1.387 . S
C410 C413 1.387 . S
H411 C407 0.950 . S
H412 C409 0.950 . S
C413 C404 1.390 . S
C413 H406 0.950 . S
C413 C410 1.387 . S
C414 C415 1.387 . S
C414 H418 0.950 . S
C414 C423 1.390 . S
C415 C414 1.387 . S
C415 C417 1.387 . S
H416 C423 0.950 . S
C417 C415 1.387 . S
C417 C419 1.390 . S
C417 H421 0.950 . S
H418 C414 0.950 . S
C419 C417 1.390 . S
C419 C420 1.387 . S
C419 H422 0.950 . S
C420 C419 1.387 . S
C420 C423 1.387 . S
H421 C417 0.950 . S
H422 C419 0.950 . S
C423 C414 1.390 . S
C423 H416 0.950 . S
C423 C420 1.387 . S
C424 C425 1.387 . S
C424 H428 0.950 . S
C424 C433 1.390 . S
C425 C424 1.387 . S
C425 C427 1.387 . S
H426 C433 0.950 . S
C427 C425 1.387 . S
C427 C429 1.390 . S
C427 H431 0.950 . S
H428 C424 0.950 . S
C429 C427 1.390 . S
C429 C430 1.387 . S
C429 H432 0.950 . S
C430 C429 1.387 . S
C430 C433 1.387 . S
H431 C427 0.950 . S
H432 C429 0.950 . S
C433 C424 1.390 . S
C433 H426 0.950 . S
C433 C430 1.387 . S
C434 C435 1.387 . S
C434 H438 0.950 . S
C434 C443 1.390 . S
C435 C434 1.387 . S
C435 C437 1.387 . S
H436 C443 0.950 . S
C437 C435 1.387 . S
C437 C439 1.390 . S
C437 H441 0.950 . S
H438 C434 0.950 . S
C439 C437 1.390 . S
C439 C440 1.387 . S
C439 H442 0.950 . S
C440 C439 1.387 . S
C440 C443 1.387 . S
H441 C437 0.950 . S
H442 C439 0.950 . S
C443 C434 1.390 . S
C443 H436 0.950 . S
C443 C440 1.387 . S
C444 C445 1.387 . S
C444 H448 0.950 . S
C444 C453 1.390 . S
C445 C444 1.387 . S
C445 C447 1.387 . S
H446 C453 0.950 . S
C447 C445 1.387 . S
C447 C449 1.390 . S
C447 H451 0.950 . S
H448 C444 0.950 . S
C449 C447 1.390 . S
C449 C450 1.387 . S
C449 H452 0.950 . S
C450 C449 1.387 . S
C450 C453 1.387 . S
H451 C447 0.950 . S
H452 C449 0.950 . S
C453 C444 1.390 . S
C453 H446 0.950 . S
C453 C450 1.387 . S
C454 C455 1.387 . S
C454 H458 0.950 . S
C454 C463 1.390 . S
C455 C454 1.387 . S
C455 C457 1.387 . S
H456 C463 0.950 . S
C457 C455 1.387 . S
C457 C459 1.390 . S
C457 H461 0.950 . S
H458 C454 0.950 . S
C459 C457 1.390 . S
C459 C460 1.387 . S
C459 H462 0.950 . S
C460 C459 1.387 . S
C460 C463 1.387 . S
H461 C457 0.950 . S
H462 C459 0.950 . S
C463 C454 1.390 . S
C463 H456 0.950 . S
C463 C460 1.387 . S
C464 C465 1.387 . S
C464 H468 0.950 . S
C464 C473 1.390 . S
C465 C464 1.387 . S
C465 C467 1.387 . S
H466 C473 0.950 . S
C467 C465 1.387 . S
C467 C469 1.390 . S
C467 H471 0.950 . S
H468 C464 0.950 . S
C469 C467 1.390 . S
C469 C470 1.387 . S
C469 H472 0.950 . S
C470 C469 1.387 . S
C470 C473 1.387 . S
H471 C467 0.950 . S
H472 C469 0.950 . S
C473 C464 1.390 . S
C473 H466 0.950 . S
C473 C470 1.387 . S
C474 C475 1.387 . S
C474 H478 0.950 . S
C474 C483 1.390 . S
C475 C474 1.387 . S
C475 C477 1.387 . S
H476 C483 0.950 . S
C477 C475 1.387 . S
C477 C479 1.390 . S
C477 H481 0.950 . S
H478 C474 0.950 . S
C479 C477 1.390 . S
C479 C480 1.387 . S
C479 H482 0.950 . S
C480 C479 1.387 . S
C480 C483 1.387 . S
H481 C477 0.950 . S
H482 C479 0.950 . S
C483 C474 1.390 . S
C483 H476 0.950 . S
C483 C480 1.387 . S
C484 C485 1.387 . S
C484 H488 0.950 . S
C484 C493 1.390 . S
C485 C484 1.387 . S
C485 C487 1.387 . S
H486 C493 0.950 . S
C487 C485 1.387 . S
C487 C489 1.390 . S
C487 H491 0.950 . S
H488 C484 0.950 . S
C489 C487 1.390 . S
C489 C490 1.387 . S
C489 H492 0.950 . S
C490 C489 1.387 . S
C490 C493 1.387 . S
H491 C487 0.950 . S
H492 C489 0.950 . S
C493 C484 1.390 . S
C493 H486 0.950 . S
C493 C490 1.387 . S
C494 C495 1.387 . S
C494 H498 0.950 . S
C494 C503 1.390 1_556 S
C495 C494 1.387 . S
C495 C497 1.387 . S
H496 C503 0.950 . S
C497 C495 1.387 . S
C497 C499 1.390 1_556 S
C497 H501 0.950 . S
H498 C494 0.950 . S
C499 C497 1.390 1_554 S
C499 C500 1.387 . S
C499 H502 0.950 . S
C500 C499 1.387 . S
C500 C503 1.387 . S
H501 C497 0.950 . S
H502 C499 0.950 . S
C503 C494 1.390 1_554 S
C503 H496 0.950 . S
C503 C500 1.387 . S
C504 C505 1.387 . S
C504 H508 0.950 . S
C504 C513 1.390 1_554 S
C505 C504 1.387 . S
C505 C507 1.387 . S
H506 C513 0.950 . S
C507 C505 1.387 . S
C507 C509 1.390 1_554 S
C507 H511 0.950 . S
H508 C504 0.950 . S
C509 C507 1.390 1_556 S
C509 C510 1.387 . S
C509 H512 0.950 . S
C510 C509 1.387 . S
C510 C513 1.387 . S
H511 C507 0.950 . S
H512 C509 0.950 . S
C513 C504 1.390 1_556 S
C513 H506 0.950 . S
C513 C510 1.387 . S
C514 C515 1.387 . S
C514 H518 0.950 . S
C514 C523 1.390 . S
C515 C514 1.387 . S
C515 C517 1.387 . S
H516 C523 0.950 . S
C517 C515 1.387 . S
C517 C519 1.390 . S
C517 H521 0.950 . S
H518 C514 0.950 . S
C519 C517 1.390 . S
C519 C520 1.387 . S
C519 H522 0.950 . S
C520 C519 1.387 . S
C520 C523 1.387 . S
H521 C517 0.950 . S
H522 C519 0.950 . S
C523 C514 1.390 . S
C523 H516 0.950 . S
C523 C520 1.387 . S
C524 C525 1.387 . S
C524 H528 0.950 . S
C524 C533 1.390 . S
C525 C524 1.387 . S
C525 C527 1.387 . S
H526 C533 0.950 . S
C527 C525 1.387 . S
C527 C529 1.390 . S
C527 H531 0.950 . S
H528 C524 0.950 . S
C529 C527 1.390 . S
C529 C530 1.387 . S
C529 H532 0.950 . S
C530 C529 1.387 . S
C530 C533 1.387 . S
H531 C527 0.950 . S
H532 C529 0.950 . S
C533 C524 1.390 . S
C533 H526 0.950 . S
C533 C530 1.387 . S
C534 C535 1.387 . S
C534 H538 0.950 . S
C534 C543 1.390 . S
C535 C534 1.387 . S
C535 C537 1.387 . S
H536 C543 0.950 . S
C537 C535 1.387 . S
C537 C539 1.390 . S
C537 H541 0.950 . S
H538 C534 0.950 . S
C539 C537 1.390 . S
C539 C540 1.387 . S
C539 H542 0.950 . S
C540 C539 1.387 . S
C540 C543 1.387 . S
H541 C537 0.950 . S
H542 C539 0.950 . S
C543 C534 1.390 . S
C543 H536 0.950 . S
C543 C540 1.387 . S
C225 C148 1.580 . S
C230 C8 1.580 . S
C235 C22 1.580 . S
C240 C162 1.580 . S
C245 C120 1.580 . S
C250 C36 1.580 . S
C255 C134 1.580 . S
C260 C50 1.580 . S
C265 C64 1.579 . S
C270 C204 1.579 . S
C275 C218 1.580 . S
C280 C78 1.580 . S
C285 C92 1.580 . S
C290 C176 1.580 . S
C295 C190 1.580 . S
C300 C106 1.580 . S
C305 C149 1.494 . S
C310 C9 1.494 . S
C315 C23 1.493 . S
C320 C163 1.493 . S
C325 C37 1.493 . S
C330 C121 1.493 . S
C335 C51 1.493 . S
C340 C135 1.493 . S
C345 C65 1.493 . S
C350 C205 1.493 . S
C355 C79 1.494 . S
C360 C219 1.494 . S
C365 C177 1.494 . S
C370 C93 1.494 . S
C375 C191 1.493 . S
C380 C107 1.493 . S
C385 C7 1.377 . S
C390 C91 1.377 . S
C395 C21 1.375 . S
C400 C105 1.375 . S
C405 C35 1.375 . S
C410 C63 1.375 . S
C415 C49 1.376 . S
C420 C77 1.375 . S
C425 C119 1.375 . S
C430 C203 1.375 . S
C435 C217 1.375 . S
C440 C133 1.375 . S
C445 C147 1.375 . S
C450 C175 1.375 . S
C455 C189 1.375 . S
C460 C161 1.375 . S
C465 C3 1.353 . S
C470 C213 1.352 . S
C475 C171 1.351 . S
C480 C17 1.349 . S
C485 C185 1.349 . S
C490 C31 1.350 . S
C495 C199 1.351 . S
C500 C45 1.349 . S
C505 C129 1.353 . S
C510 C59 1.352 . S
C515 C143 1.351 . S
C520 C73 1.349 . S
C525 C87 1.352 . S
C530 C157 1.350 . S
C535 C101 1.349 . S
C540 C115 1.351 . S
