# Generated by pormake.
# Topology gsi, (4)-cn, num edge types: 1
# Building blocks:
#     Node 0, Type 0, BuildingBlock: UXUYUI_clean_sbu_0, # of connection points: 4
#     Node 1, Type 0, BuildingBlock: UXUYUI_clean_sbu_0, # of connection points: 4
#     Node 2, Type 0, BuildingBlock: UXUYUI_clean_sbu_0, # of connection points: 4
#     Node 3, Type 0, BuildingBlock: UXUYUI_clean_sbu_0, # of connection points: 4
#     Node 4, Type 0, BuildingBlock: UXUYUI_clean_sbu_0, # of connection points: 4
#     Node 5, Type 0, BuildingBlock: UXUYUI_clean_sbu_0, # of connection points: 4
#     Node 6, Type 0, BuildingBlock: UXUYUI_clean_sbu_0, # of connection points: 4
#     Node 7, Type 0, BuildingBlock: UXUYUI_clean_sbu_0, # of connection points: 4
#     Node 8, Type 0, BuildingBlock: UXUYUI_clean_sbu_0, # of connection points: 4
#     Node 9, Type 0, BuildingBlock: UXUYUI_clean_sbu_0, # of connection points: 4
#     Node 10, Type 0, BuildingBlock: UXUYUI_clean_sbu_0, # of connection points: 4
#     Node 11, Type 0, BuildingBlock: UXUYUI_clean_sbu_0, # of connection points: 4
#     Node 12, Type 0, BuildingBlock: UXUYUI_clean_sbu_0, # of connection points: 4
#     Node 13, Type 0, BuildingBlock: UXUYUI_clean_sbu_0, # of connection points: 4
#     Node 14, Type 0, BuildingBlock: UXUYUI_clean_sbu_0, # of connection points: 4
#     Node 15, Type 0, BuildingBlock: UXUYUI_clean_sbu_0, # of connection points: 4
#     Edge 16, Type (0, 0), BuildingBlock: KIFKEQ_clean_linker_1, # of connection points: 2
#     Edge 17, Type (0, 0), BuildingBlock: KIFKEQ_clean_linker_1, # of connection points: 2
#     Edge 18, Type (0, 0), BuildingBlock: KIFKEQ_clean_linker_1, # of connection points: 2
#     Edge 19, Type (0, 0), BuildingBlock: KIFKEQ_clean_linker_1, # of connection points: 2
#     Edge 20, Type (0, 0), BuildingBlock: KIFKEQ_clean_linker_1, # of connection points: 2
#     Edge 21, Type (0, 0), BuildingBlock: KIFKEQ_clean_linker_1, # of connection points: 2
#     Edge 22, Type (0, 0), BuildingBlock: KIFKEQ_clean_linker_1, # of connection points: 2
#     Edge 23, Type (0, 0), BuildingBlock: KIFKEQ_clean_linker_1, # of connection points: 2
#     Edge 24, Type (0, 0), BuildingBlock: KIFKEQ_clean_linker_1, # of connection points: 2
#     Edge 25, Type (0, 0), BuildingBlock: KIFKEQ_clean_linker_1, # of connection points: 2
#     Edge 26, Type (0, 0), BuildingBlock: KIFKEQ_clean_linker_1, # of connection points: 2
#     Edge 27, Type (0, 0), BuildingBlock: KIFKEQ_clean_linker_1, # of connection points: 2
#     Edge 28, Type (0, 0), BuildingBlock: KIFKEQ_clean_linker_1, # of connection points: 2
#     Edge 29, Type (0, 0), BuildingBlock: KIFKEQ_clean_linker_1, # of connection points: 2
#     Edge 30, Type (0, 0), BuildingBlock: KIFKEQ_clean_linker_1, # of connection points: 2
#     Edge 31, Type (0, 0), BuildingBlock: KIFKEQ_clean_linker_1, # of connection points: 2
#     Edge 32, Type (0, 0), BuildingBlock: KIFKEQ_clean_linker_1, # of connection points: 2
#     Edge 33, Type (0, 0), BuildingBlock: KIFKEQ_clean_linker_1, # of connection points: 2
#     Edge 34, Type (0, 0), BuildingBlock: KIFKEQ_clean_linker_1, # of connection points: 2
#     Edge 35, Type (0, 0), BuildingBlock: KIFKEQ_clean_linker_1, # of connection points: 2
#     Edge 36, Type (0, 0), BuildingBlock: KIFKEQ_clean_linker_1, # of connection points: 2
#     Edge 37, Type (0, 0), BuildingBlock: KIFKEQ_clean_linker_1, # of connection points: 2
#     Edge 38, Type (0, 0), BuildingBlock: KIFKEQ_clean_linker_1, # of connection points: 2
#     Edge 39, Type (0, 0), BuildingBlock: KIFKEQ_clean_linker_1, # of connection points: 2
#     Edge 40, Type (0, 0), BuildingBlock: KIFKEQ_clean_linker_1, # of connection points: 2
#     Edge 41, Type (0, 0), BuildingBlock: KIFKEQ_clean_linker_1, # of connection points: 2
#     Edge 42, Type (0, 0), BuildingBlock: KIFKEQ_clean_linker_1, # of connection points: 2
#     Edge 43, Type (0, 0), BuildingBlock: KIFKEQ_clean_linker_1, # of connection points: 2
#     Edge 44, Type (0, 0), BuildingBlock: KIFKEQ_clean_linker_1, # of connection points: 2
#     Edge 45, Type (0, 0), BuildingBlock: KIFKEQ_clean_linker_1, # of connection points: 2
#     Edge 46, Type (0, 0), BuildingBlock: KIFKEQ_clean_linker_1, # of connection points: 2
#     Edge 47, Type (0, 0), BuildingBlock: KIFKEQ_clean_linker_1, # of connection points: 2
# Relax obj value: 0.073
# Max RMSD: 0.058
# Mean RMSD: 0.058
data_MOF--net-gsi--node1-UXUYUI_clean_sbu_0--edge1-KIFKEQ_clean_linker_1
_symmetry_space_group_name_H-M    P1
_symmetry_Int_Tables_number       1
_symmetry_cell_setting            triclinic
loop_
_symmetry_equiv_pos_as_xyz
'x, y, z'
_cell_length_a     62.507269
_cell_length_b     62.541486
_cell_length_c     62.474672
_cell_angle_alpha  89.965706
_cell_angle_beta   90.039055
_cell_angle_gamma 90.119588
loop_
_atom_site_label
_atom_site_type_symbol
_atom_site_fract_x
_atom_site_fract_y
_atom_site_fract_z
_atom_type_partial_charge
Li0 Li 0.13626 0.16482 0.15594 0.0
Li1 Li 0.16845 0.16607 0.17607 0.0
Li2 Li 0.16923 0.15096 0.13964 0.0
Li3 Li 0.15078 0.13142 0.17153 0.0
C4 C 0.15977 0.20141 0.14512 0.0
N5 N 0.15303 0.24446 0.13805 0.0
C6 C 0.15351 0.21466 0.16197 0.0
C7 C 0.16284 0.21005 0.12472 0.0
C8 C 0.15012 0.23638 0.15806 0.0
C9 C 0.15928 0.23186 0.12145 0.0
C10 C 0.13532 0.16255 0.20675 0.0
C11 C 0.13397 0.15422 0.24444 0.0
N12 N 0.12585 0.17398 0.2484 0.0
C13 C 0.12679 0.18271 0.21119 0.0
C14 C 0.13881 0.14812 0.22349 0.0
C15 C 0.12218 0.18821 0.23236 0.0
C16 C 0.0942 0.1782 0.16526 0.0
N17 N 0.11006 0.18017 0.15051 0.0
C18 C 0.08999 0.20683 0.13168 0.0
C19 C 0.108 0.19369 0.13355 0.0
C20 C 0.07388 0.20599 0.14737 0.0
C21 C 0.07596 0.19102 0.16404 0.0
H22 H 0.09599 0.16705 0.17837 0.0
H23 H 0.12057 0.19471 0.12175 0.0
C24 C 0.2006 0.1961 0.18428 0.0
N25 N 0.18622 0.18327 0.19443 0.0
C26 C 0.21427 0.20932 0.19603 0.0
C27 C 0.19827 0.19579 0.22853 0.0
C28 C 0.18513 0.18263 0.21616 0.0
C29 C 0.213 0.20942 0.21844 0.0
H30 H 0.20148 0.19603 0.167 0.0
H31 H 0.17434 0.17178 0.22403 0.0
C32 C 0.1233 0.1374 0.1277 0.0
N33 N 0.08805 0.14087 0.10128 0.0
C34 C 0.10364 0.12888 0.13409 0.0
C35 C 0.12508 0.14767 0.10791 0.0
C36 C 0.08599 0.1308 0.12049 0.0
C37 C 0.10706 0.14926 0.09477 0.0
C38 C 0.19952 0.13865 0.17913 0.0
C39 C 0.21889 0.14626 0.17094 0.0
C40 C 0.19834 0.13199 0.20045 0.0
C41 C 0.23678 0.14723 0.18432 0.0
C42 C 0.2166 0.13319 0.21331 0.0
N43 N 0.23527 0.14075 0.20505 0.0
C44 C 0.20255 0.16289 0.11248 0.0
C45 C 0.18339 0.13263 0.09995 0.0
C46 C 0.21647 0.16184 0.09504 0.0
N47 N 0.18653 0.14834 0.11468 0.0
C48 C 0.19685 0.13111 0.0821 0.0
C49 C 0.21377 0.14575 0.07957 0.0
H50 H 0.20459 0.17527 0.1244 0.0
H51 H 0.17052 0.12124 0.10213 0.0
C52 C 0.12646 0.10089 0.19511 0.0
N53 N 0.14531 0.10438 0.18482 0.0
C54 C 0.12355 0.08242 0.20746 0.0
C55 C 0.15907 0.07101 0.19747 0.0
C56 C 0.16134 0.08974 0.18545 0.0
C57 C 0.14013 0.06733 0.20905 0.0
H58 H 0.114 0.11285 0.19441 0.0
H59 H 0.17622 0.09298 0.17722 0.0
O60 O 0.16303 0.18007 0.14852 0.0
O61 O 0.13964 0.15673 0.18608 0.0
O62 O 0.14063 0.13615 0.14096 0.0
O63 O 0.18163 0.13829 0.16652 0.0
H64 H 0.15141 0.20826 0.17789 0.0
H65 H 0.16774 0.19997 0.11153 0.0
H66 H 0.14522 0.24683 0.17094 0.0
H67 H 0.16147 0.23877 0.10573 0.0
H68 H 0.13674 0.14326 0.25756 0.0
H69 H 0.1236 0.19396 0.19845 0.0
H70 H 0.14552 0.13251 0.22044 0.0
H71 H 0.11562 0.20378 0.23601 0.0
H72 H 0.08912 0.21809 0.11854 0.0
H73 H 0.06373 0.1894 0.17621 0.0
H74 H 0.22545 0.21961 0.18767 0.0
H75 H 0.19714 0.19512 0.24582 0.0
H76 H 0.10202 0.12101 0.14944 0.0
H77 H 0.14015 0.15457 0.10287 0.0
H78 H 0.07064 0.12433 0.12521 0.0
H79 H 0.10816 0.15725 0.07945 0.0
H80 H 0.22005 0.15155 0.1545 0.0
H81 H 0.18342 0.12624 0.20708 0.0
H82 H 0.25186 0.15321 0.17824 0.0
H83 H 0.21589 0.12822 0.22988 0.0
H84 H 0.22909 0.17363 0.09357 0.0
H85 H 0.19429 0.11839 0.07062 0.0
H86 H 0.1086 0.08014 0.21591 0.0
H87 H 0.17236 0.05996 0.19838 0.0
Li88 Li 0.85272 0.35182 0.17023 0.0
Li89 Li 0.88758 0.3526 0.15186 0.0
Li90 Li 0.871 0.3863 0.16594 0.0
Li91 Li 0.85608 0.36854 0.1343 0.0
C92 C 0.88378 0.35678 0.20292 0.0
N93 N 0.88928 0.34858 0.24603 0.0
C94 C 0.89772 0.34066 0.20961 0.0
C95 C 0.87288 0.36893 0.21816 0.0
C96 C 0.90021 0.33669 0.23148 0.0
C97 C 0.87581 0.3645 0.23987 0.0
C98 C 0.86414 0.32607 0.12474 0.0
C99 C 0.88116 0.32108 0.09048 0.0
N100 N 0.87096 0.30196 0.08836 0.0
C101 C 0.85384 0.30639 0.12223 0.0
C102 C 0.87792 0.33351 0.10876 0.0
C103 C 0.8575 0.29443 0.10372 0.0
C104 C 0.81313 0.33708 0.18619 0.0
N105 N 0.83468 0.33477 0.18785 0.0
C106 C 0.83036 0.307 0.21379 0.0
C107 C 0.84343 0.31989 0.20106 0.0
C108 C 0.808 0.30908 0.21258 0.0
C109 C 0.79943 0.32437 0.19847 0.0
H110 H 0.80657 0.34861 0.1751 0.0
H111 H 0.86056 0.31782 0.20156 0.0
C112 C 0.93198 0.34344 0.14257 0.0
N113 N 0.91271 0.33549 0.14884 0.0
C114 C 0.94988 0.33 0.14147 0.0
C115 C 0.92764 0.30056 0.15307 0.0
C116 C 0.91026 0.31451 0.15394 0.0
C117 C 0.94788 0.30824 0.14696 0.0
H118 H 0.93351 0.36023 0.13868 0.0
H119 H 0.89474 0.30863 0.15891 0.0
C120 C 0.82504 0.392 0.16721 0.0
N121 N 0.79334 0.41875 0.18234 0.0
C122 C 0.81375 0.40515 0.15307 0.0
C123 C 0.81996 0.39222 0.18899 0.0
C124 C 0.79786 0.41863 0.16104 0.0
C125 C 0.80395 0.40592 0.19634 0.0
C126 C 0.88774 0.40008 0.12628 0.0
C127 C 0.87078 0.41454 0.12536 0.0
C128 C 0.90687 0.40477 0.1157 0.0
C129 C 0.87324 0.43357 0.11391 0.0
C130 C 0.90871 0.42397 0.10439 0.0
N131 N 0.892 0.43786 0.10375 0.0
C132 C 0.89326 0.41373 0.1944 0.0
C133 C 0.86269 0.42971 0.17885 0.0
C134 C 0.89641 0.43156 0.20756 0.0
N135 N 0.87633 0.41289 0.18073 0.0
C136 C 0.86521 0.44784 0.1917 0.0
C137 C 0.88204 0.44882 0.20662 0.0
H138 H 0.90402 0.40025 0.19553 0.0
H139 H 0.84947 0.42895 0.16778 0.0
C140 C 0.81937 0.36556 0.10971 0.0
N141 N 0.84017 0.37173 0.10831 0.0
C142 C 0.80591 0.36689 0.09193 0.0
C143 C 0.83555 0.38076 0.07135 0.0
C144 C 0.84851 0.37909 0.08959 0.0
C145 C 0.81387 0.37467 0.07237 0.0
H146 H 0.81325 0.3595 0.12474 0.0
H147 H 0.86518 0.38363 0.08877 0.0
O148 O 0.88111 0.36079 0.18156 0.0
O149 O 0.86066 0.33794 0.14278 0.0
O150 O 0.84072 0.37876 0.15966 0.0
O151 O 0.88567 0.38127 0.13727 0.0
H152 H 0.90642 0.33121 0.19802 0.0
H153 H 0.86243 0.38178 0.2133 0.0
H154 H 0.91084 0.32417 0.23688 0.0
H155 H 0.86743 0.37376 0.25184 0.0
H156 H 0.89177 0.32664 0.07798 0.0
H157 H 0.84312 0.30043 0.13448 0.0
H158 H 0.88605 0.3487 0.11042 0.0
H159 H 0.84963 0.27916 0.10155 0.0
H160 H 0.83777 0.29559 0.2245 0.0
H161 H 0.78232 0.32625 0.19659 0.0
H162 H 0.96519 0.33669 0.13686 0.0
H163 H 0.92518 0.2839 0.1571 0.0
H164 H 0.81729 0.40504 0.13612 0.0
H165 H 0.82813 0.38179 0.20008 0.0
H166 H 0.7891 0.42898 0.1503 0.0
H167 H 0.7999 0.40629 0.21317 0.0
H168 H 0.85584 0.41103 0.13326 0.0
H169 H 0.92012 0.39367 0.11619 0.0
H170 H 0.86022 0.44491 0.11307 0.0
H171 H 0.92342 0.42782 0.09611 0.0
H172 H 0.90985 0.43171 0.2185 0.0
H173 H 0.8536 0.4606 0.19046 0.0
H174 H 0.78949 0.36155 0.09346 0.0
H175 H 0.84241 0.38696 0.05669 0.0
Li176 Li 0.15237 0.87979 0.35262 0.0
Li177 Li 0.16873 0.86276 0.38556 0.0
Li178 Li 0.17112 0.84607 0.35133 0.0
Li179 Li 0.13701 0.84609 0.3685 0.0
C180 C 0.20198 0.87397 0.34983 0.0
N181 N 0.24076 0.87114 0.32888 0.0
C182 C 0.21979 0.86548 0.36034 0.0
C183 C 0.20389 0.88115 0.32873 0.0
C184 C 0.23925 0.86415 0.34945 0.0
C185 C 0.22364 0.87955 0.3184 0.0
C186 C 0.13279 0.89081 0.39525 0.0
C187 C 0.11087 0.90319 0.42446 0.0
N188 N 0.1199 0.92292 0.42268 0.0
C189 C 0.14171 0.91123 0.39359 0.0
C190 C 0.11712 0.88676 0.41069 0.0
C191 C 0.13504 0.92724 0.40766 0.0
C192 C 0.12912 0.90706 0.32458 0.0
N193 N 0.14683 0.90564 0.33716 0.0
C194 C 0.15923 0.93966 0.32468 0.0
C195 C 0.16171 0.92153 0.33753 0.0
C196 C 0.14136 0.94141 0.31111 0.0
C197 C 0.12607 0.92487 0.31134 0.0
H198 H 0.11761 0.89412 0.32447 0.0
H199 H 0.17582 0.91985 0.34742 0.0
C200 C 0.19757 0.85092 0.41798 0.0
N201 N 0.18518 0.86755 0.41144 0.0
C202 C 0.21096 0.85291 0.43573 0.0
C203 C 0.19967 0.88957 0.43936 0.0
C204 C 0.18609 0.88671 0.42171 0.0
C205 C 0.21247 0.87252 0.44663 0.0
H206 H 0.1975 0.83611 0.40913 0.0
H207 H 0.17681 0.90001 0.41592 0.0
C208 C 0.13547 0.83715 0.32517 0.0
N209 N 0.11911 0.80495 0.29966 0.0
C210 C 0.14006 0.81576 0.32976 0.0
C211 C 0.12262 0.84216 0.30757 0.0
C212 C 0.13162 0.79972 0.31669 0.0
C213 C 0.11448 0.82565 0.29488 0.0
C214 C 0.15951 0.82086 0.39701 0.0
C215 C 0.16752 0.80019 0.39973 0.0
C216 C 0.14714 0.83009 0.41317 0.0
C217 C 0.16298 0.78907 0.41859 0.0
C218 C 0.14297 0.81846 0.43179 0.0
N219 N 0.1509 0.79836 0.4341 0.0
C220 C 0.20316 0.81553 0.34348 0.0
C221 C 0.18946 0.83219 0.31225 0.0
C222 C 0.21704 0.80314 0.33119 0.0
N223 N 0.18976 0.82965 0.33385 0.0
C224 C 0.20305 0.82011 0.29935 0.0
C225 C 0.21706 0.80529 0.3088 0.0
H226 H 0.20312 0.81401 0.36072 0.0
H227 H 0.17863 0.8436 0.30507 0.0
C228 C 0.09156 0.83951 0.37066 0.0
N229 N 0.11098 0.82986 0.3722 0.0
C230 C 0.07272 0.82732 0.37155 0.0
C231 C 0.09422 0.79563 0.37611 0.0
C232 C 0.11253 0.80833 0.37484 0.0
C233 C 0.07387 0.80497 0.37415 0.0
H234 H 0.09072 0.85662 0.36822 0.0
H235 H 0.12802 0.8008 0.37545 0.0
O236 O 0.18265 0.87482 0.36 0.0
O237 O 0.13879 0.87499 0.38141 0.0
O238 O 0.14343 0.85318 0.3378 0.0
O239 O 0.16386 0.83185 0.37854 0.0
H240 H 0.21853 0.85977 0.37663 0.0
H241 H 0.1902 0.88756 0.32031 0.0
H242 H 0.25315 0.8575 0.35733 0.0
H243 H 0.22534 0.8849 0.30202 0.0
H244 H 0.09881 0.90027 0.43653 0.0
H245 H 0.1539 0.91461 0.3818 0.0
H246 H 0.10981 0.8711 0.41197 0.0
H247 H 0.14194 0.94309 0.40666 0.0
H248 H 0.17157 0.95184 0.32482 0.0
H249 H 0.11197 0.92562 0.3013 0.0
H250 H 0.22011 0.8391 0.44071 0.0
H251 H 0.20052 0.90517 0.4468 0.0
H252 H 0.15002 0.81156 0.34327 0.0
H253 H 0.11894 0.85863 0.30377 0.0
H254 H 0.13502 0.7831 0.32009 0.0
H255 H 0.10449 0.82929 0.28121 0.0
H256 H 0.17711 0.79281 0.38736 0.0
H257 H 0.1409 0.84606 0.41142 0.0
H258 H 0.16906 0.77305 0.4209 0.0
H259 H 0.13343 0.82543 0.44443 0.0
H260 H 0.22779 0.79215 0.33917 0.0
H261 H 0.20235 0.82212 0.28214 0.0
H262 H 0.05749 0.8353 0.36965 0.0
H263 H 0.09609 0.7786 0.37851 0.0
Li264 Li 0.84847 0.64992 0.38406 0.0
Li265 Li 0.86605 0.63469 0.35185 0.0
Li266 Li 0.87981 0.66754 0.36877 0.0
Li267 Li 0.84665 0.66796 0.35003 0.0
C268 C 0.88029 0.61844 0.39077 0.0
N269 N 0.88395 0.57845 0.40921 0.0
C270 C 0.86302 0.60421 0.39033 0.0
C271 C 0.89942 0.61233 0.40057 0.0
C272 C 0.86519 0.58407 0.39974 0.0
C273 C 0.90096 0.59204 0.40981 0.0
C274 C 0.81907 0.63678 0.34281 0.0
C275 C 0.80716 0.63122 0.3065 0.0
N276 N 0.78652 0.63323 0.31306 0.0
C277 C 0.79775 0.63872 0.34921 0.0
C278 C 0.82384 0.63296 0.32129 0.0
C279 C 0.78152 0.6369 0.33392 0.0
C280 C 0.81204 0.65365 0.40894 0.0
N281 N 0.83197 0.64506 0.40956 0.0
C282 C 0.82619 0.633 0.4455 0.0
C283 C 0.83936 0.63511 0.42748 0.0
C284 C 0.80531 0.64138 0.44514 0.0
C285 C 0.79837 0.65191 0.42652 0.0
H286 H 0.80689 0.66223 0.39483 0.0
H287 H 0.85551 0.62901 0.42794 0.0
C288 C 0.89066 0.60788 0.32437 0.0
N289 N 0.87259 0.60901 0.33641 0.0
C290 C 0.8944 0.59008 0.3113 0.0
C291 C 0.86109 0.57481 0.32361 0.0
C292 C 0.85802 0.59283 0.33644 0.0
C293 C 0.87936 0.57331 0.31057 0.0
H294 H 0.90195 0.62101 0.32457 0.0
H295 H 0.84363 0.59422 0.34591 0.0
C296 C 0.85493 0.69091 0.39747 0.0
N297 N 0.85962 0.71124 0.43645 0.0
C298 C 0.8437 0.70972 0.40171 0.0
C299 C 0.86851 0.68239 0.41308 0.0
C300 C 0.8463 0.71978 0.42151 0.0
C301 C 0.87067 0.69292 0.43268 0.0
C302 C 0.88311 0.67821 0.32606 0.0
C303 C 0.8781 0.6993 0.33149 0.0
C304 C 0.89659 0.67421 0.3087 0.0
C305 C 0.8867 0.71605 0.31945 0.0
C306 C 0.90486 0.6914 0.29703 0.0
N307 N 0.8998 0.71179 0.30261 0.0
C308 C 0.92476 0.67548 0.36984 0.0
C309 C 0.90345 0.70551 0.37841 0.0
C310 C 0.94335 0.68802 0.37076 0.0
N311 N 0.90528 0.68439 0.37353 0.0
C312 C 0.92157 0.71851 0.37982 0.0
C313 C 0.94192 0.70997 0.37563 0.0
H314 H 0.92578 0.65877 0.3655 0.0
H315 H 0.88787 0.71256 0.38059 0.0
C316 C 0.81304 0.69668 0.3422 0.0
N317 N 0.82825 0.68463 0.33247 0.0
C318 C 0.7993 0.70937 0.33 0.0
C319 C 0.81701 0.69676 0.29801 0.0
C320 C 0.83042 0.68436 0.31083 0.0
C321 C 0.80124 0.70957 0.30759 0.0
H322 H 0.81159 0.69639 0.35945 0.0
H323 H 0.84261 0.67454 0.30352 0.0
O324 O 0.87871 0.63819 0.38149 0.0
O325 O 0.83524 0.63903 0.35743 0.0
O326 O 0.85225 0.68079 0.37823 0.0
O327 O 0.87511 0.66149 0.33774 0.0
H328 H 0.84803 0.60869 0.38297 0.0
H329 H 0.91295 0.62316 0.40099 0.0
H330 H 0.85194 0.57292 0.39954 0.0
H331 H 0.91567 0.5871 0.41746 0.0
H332 H 0.81063 0.62841 0.28978 0.0
H333 H 0.79373 0.64159 0.36578 0.0
H334 H 0.84026 0.63176 0.31598 0.0
H335 H 0.76495 0.6384 0.33865 0.0
H336 H 0.83226 0.62478 0.45949 0.0
H337 H 0.78268 0.65917 0.42566 0.0
H338 H 0.90884 0.58956 0.30176 0.0
H339 H 0.84885 0.56253 0.32338 0.0
H340 H 0.83307 0.71648 0.38982 0.0
H341 H 0.87731 0.66783 0.41016 0.0
H342 H 0.83772 0.73437 0.425 0.0
H343 H 0.88112 0.68651 0.4449 0.0
H344 H 0.86771 0.70273 0.34488 0.0
H345 H 0.90063 0.65797 0.3043 0.0
H346 H 0.88298 0.73244 0.3235 0.0
H347 H 0.91533 0.68854 0.28356 0.0
H348 H 0.95856 0.68068 0.36703 0.0
H349 H 0.91952 0.73519 0.38395 0.0
H350 H 0.78718 0.71877 0.33801 0.0
H351 H 0.81921 0.6966 0.28082 0.0
Li352 Li 0.3518 0.85091 0.66991 0.0
Li353 Li 0.38784 0.85351 0.65221 0.0
Li354 Li 0.36933 0.88576 0.66979 0.0
Li355 Li 0.35582 0.8705 0.63661 0.0
C356 C 0.37863 0.84858 0.70233 0.0
N357 N 0.37482 0.82726 0.74091 0.0
C358 C 0.38969 0.82948 0.70576 0.0
C359 C 0.36567 0.85686 0.71855 0.0
C360 C 0.38757 0.81895 0.72538 0.0
C361 C 0.36393 0.84583 0.73793 0.0
C362 C 0.3513 0.82981 0.6253 0.0
C363 C 0.34898 0.82195 0.58757 0.0
N364 N 0.32985 0.81209 0.59091 0.0
C365 C 0.33164 0.81956 0.62837 0.0
C366 C 0.36009 0.83097 0.60476 0.0
C367 C 0.32105 0.81069 0.61077 0.0
C368 C 0.3144 0.83938 0.69252 0.0
N369 N 0.33383 0.83226 0.68596 0.0
C370 C 0.32816 0.79872 0.70342 0.0
C371 C 0.34068 0.81221 0.69073 0.0
C372 C 0.30819 0.8058 0.71092 0.0
C373 C 0.30125 0.82637 0.70504 0.0
H374 H 0.30908 0.85517 0.68803 0.0
H375 H 0.35603 0.8068 0.68491 0.0
C376 C 0.42938 0.84016 0.66406 0.0
N377 N 0.41434 0.83859 0.64843 0.0
C378 C 0.44778 0.82749 0.66339 0.0
C379 C 0.43548 0.81267 0.62989 0.0
C380 C 0.41715 0.82535 0.63142 0.0
C381 C 0.45099 0.81323 0.64625 0.0
H382 H 0.42669 0.85069 0.67752 0.0
H383 H 0.40496 0.82427 0.61922 0.0
C384 C 0.32775 0.89637 0.66747 0.0
N385 N 0.30479 0.93249 0.67833 0.0
C386 C 0.32214 0.91127 0.65175 0.0
C387 C 0.32162 0.89983 0.68871 0.0
C388 C 0.31052 0.92942 0.65756 0.0
C389 C 0.31006 0.91821 0.69388 0.0
C390 C 0.39116 0.89449 0.62401 0.0
C391 C 0.38388 0.91529 0.62036 0.0
C392 C 0.40534 0.88504 0.60956 0.0
C393 C 0.39081 0.92627 0.60215 0.0
C394 C 0.41191 0.89656 0.59155 0.0
N395 N 0.40456 0.91675 0.58824 0.0
C396 C 0.38525 0.90906 0.70546 0.0
C397 C 0.36664 0.93046 0.68041 0.0
C398 C 0.3877 0.92654 0.71921 0.0
N399 N 0.37441 0.91115 0.68669 0.0
C400 C 0.36857 0.94833 0.69372 0.0
C401 C 0.37897 0.94648 0.71362 0.0
H402 H 0.39182 0.89373 0.70993 0.0
H403 H 0.35845 0.93198 0.66529 0.0
C404 C 0.31872 0.87014 0.61227 0.0
N405 N 0.3397 0.87565 0.61053 0.0
C406 C 0.30504 0.87151 0.59465 0.0
C407 C 0.33454 0.88494 0.57367 0.0
C408 C 0.34778 0.88285 0.59163 0.0
C409 C 0.3128 0.87905 0.57489 0.0
H410 H 0.31268 0.86418 0.62736 0.0
H411 H 0.36452 0.88666 0.5902 0.0
O412 O 0.38012 0.85893 0.68307 0.0
O413 O 0.36164 0.83903 0.64226 0.0
O414 O 0.33913 0.87848 0.66213 0.0
O415 O 0.38485 0.88359 0.64188 0.0
H416 H 0.39954 0.82265 0.6933 0.0
H417 H 0.35692 0.87155 0.71614 0.0
H418 H 0.39595 0.8041 0.7282 0.0
H419 H 0.35388 0.85201 0.75057 0.0
H420 H 0.35548 0.82293 0.57156 0.0
H421 H 0.32454 0.81861 0.64412 0.0
H422 H 0.37505 0.83926 0.60202 0.0
H423 H 0.3058 0.80278 0.61289 0.0
H424 H 0.33428 0.78308 0.70761 0.0
H425 H 0.28577 0.83234 0.70995 0.0
H426 H 0.45895 0.82838 0.67661 0.0
H427 H 0.43731 0.80236 0.6161 0.0
H428 H 0.32696 0.90907 0.63529 0.0
H429 H 0.32584 0.88853 0.7011 0.0
H430 H 0.30616 0.94111 0.64558 0.0
H431 H 0.3053 0.92113 0.71026 0.0
H432 H 0.37287 0.92279 0.63135 0.0
H433 H 0.41117 0.86898 0.61222 0.0
H434 H 0.38523 0.94234 0.59905 0.0
H435 H 0.42283 0.88944 0.5802 0.0
H436 H 0.39631 0.92439 0.7341 0.0
H437 H 0.36142 0.96326 0.68869 0.0
H438 H 0.28867 0.86618 0.59649 0.0
H439 H 0.34139 0.89109 0.559 0.0
Li440 Li 0.85404 0.86947 0.8879 0.0
Li441 Li 0.86833 0.88591 0.85617 0.0
Li442 Li 0.85052 0.8517 0.85373 0.0
Li443 Li 0.8875 0.85439 0.86952 0.0
C444 C 0.82079 0.88949 0.87072 0.0
N445 N 0.78605 0.91017 0.88858 0.0
C446 C 0.82031 0.91183 0.87173 0.0
C447 C 0.80357 0.8777 0.87884 0.0
C448 C 0.80259 0.92197 0.88077 0.0
C449 C 0.78618 0.88844 0.88782 0.0
C450 C 0.89418 0.90103 0.88741 0.0
C451 C 0.92738 0.92063 0.8892 0.0
N452 N 0.91627 0.93884 0.89337 0.0
C453 C 0.88309 0.91989 0.89184 0.0
C454 C 0.9165 0.90133 0.88615 0.0
C455 C 0.89455 0.93887 0.89473 0.0
C456 C 0.83699 0.85479 0.92707 0.0
N457 N 0.84023 0.8728 0.91531 0.0
C458 C 0.81977 0.89332 0.94033 0.0
C459 C 0.83262 0.89201 0.92205 0.0
C460 C 0.81519 0.87475 0.95225 0.0
C461 C 0.82463 0.85542 0.94568 0.0
H462 H 0.84364 0.83977 0.92177 0.0
H463 H 0.83575 0.90624 0.9128 0.0
C464 C 0.85454 0.91676 0.82706 0.0
N465 N 0.87178 0.9117 0.83932 0.0
C466 C 0.85522 0.93416 0.81309 0.0
C467 C 0.89169 0.94072 0.82401 0.0
C468 C 0.89031 0.92309 0.83778 0.0
C469 C 0.87394 0.94652 0.81145 0.0
H470 H 0.84029 0.90697 0.82782 0.0
H471 H 0.9042 0.91828 0.8468 0.0
C472 C 0.85337 0.81898 0.87962 0.0
N473 N 0.83653 0.77834 0.87516 0.0
C474 C 0.86653 0.802 0.87356 0.0
C475 C 0.83168 0.81524 0.88362 0.0
C476 C 0.85771 0.78158 0.87135 0.0
C477 C 0.82345 0.7946 0.88121 0.0
C478 C 0.88555 0.86824 0.82173 0.0
C479 C 0.87197 0.87093 0.80417 0.0
C480 C 0.90688 0.87483 0.82042 0.0
C481 C 0.87995 0.88044 0.78556 0.0
C482 C 0.91425 0.88424 0.80152 0.0
N483 N 0.90074 0.88685 0.78464 0.0
C484 C 0.81227 0.8373 0.83375 0.0
C485 C 0.8435 0.81755 0.82543 0.0
C486 C 0.79989 0.82392 0.82084 0.0
N487 N 0.83359 0.83374 0.83597 0.0
C488 C 0.83176 0.80382 0.81227 0.0
C489 C 0.80963 0.80689 0.80993 0.0
H490 H 0.80489 0.85059 0.84187 0.0
H491 H 0.86055 0.81526 0.82735 0.0
C492 C 0.92475 0.83837 0.89104 0.0
N493 N 0.91361 0.83897 0.87234 0.0
C494 C 0.94272 0.82517 0.89302 0.0
C495 C 0.93743 0.81368 0.85646 0.0
C496 C 0.91973 0.82718 0.85514 0.0
C497 C 0.94905 0.81233 0.87567 0.0
H498 H 0.91938 0.84776 0.90454 0.0
H499 H 0.91044 0.82782 0.84053 0.0
O500 O 0.838 0.87924 0.8619 0.0
O501 O 0.8833 0.88227 0.88463 0.0
O502 O 0.86158 0.83921 0.8813 0.0
O503 O 0.87787 0.8596 0.84029 0.0
H504 H 0.83359 0.92128 0.86592 0.0
H505 H 0.80373 0.86043 0.87848 0.0
H506 H 0.80206 0.93923 0.88171 0.0
H507 H 0.77282 0.87949 0.89425 0.0
H508 H 0.94465 0.92113 0.88821 0.0
H509 H 0.86582 0.9199 0.8928 0.0
H510 H 0.92529 0.88684 0.88276 0.0
H511 H 0.88618 0.95362 0.89804 0.0
H512 H 0.8129 0.90861 0.94453 0.0
H513 H 0.82231 0.84077 0.95462 0.0
H514 H 0.84133 0.93755 0.80331 0.0
H515 H 0.9065 0.94969 0.82326 0.0
H516 H 0.88335 0.80456 0.87045 0.0
H517 H 0.82127 0.82818 0.88836 0.0
H518 H 0.8677 0.76831 0.86656 0.0
H519 H 0.80667 0.79152 0.8841 0.0
H520 H 0.85538 0.86597 0.80502 0.0
H521 H 0.91753 0.87295 0.83397 0.0
H522 H 0.8696 0.88277 0.77188 0.0
H523 H 0.93068 0.88956 0.8003 0.0
H524 H 0.78294 0.82707 0.81916 0.0
H525 H 0.83986 0.79082 0.80423 0.0
H526 H 0.95115 0.8245 0.90815 0.0
H527 H 0.94189 0.80429 0.84261 0.0
Li528 Li 0.13542 0.66786 0.86718 0.0
Li529 Li 0.17254 0.67075 0.85049 0.0
Li530 Li 0.15374 0.63703 0.85247 0.0
Li531 Li 0.16888 0.65148 0.88496 0.0
C532 C 0.13535 0.65527 0.81947 0.0
N533 N 0.11699 0.63663 0.78385 0.0
C534 C 0.14775 0.65115 0.80134 0.0
C535 C 0.1136 0.65009 0.81946 0.0
C536 C 0.13818 0.64165 0.7835 0.0
C537 C 0.10461 0.64065 0.80128 0.0
C538 C 0.16958 0.70121 0.88531 0.0
C539 C 0.19758 0.723 0.90058 0.0
N540 N 0.18475 0.74046 0.8989 0.0
C541 C 0.1566 0.71934 0.88395 0.0
C542 C 0.19017 0.70301 0.89386 0.0
C543 C 0.16459 0.73905 0.89082 0.0
C544 C 0.09678 0.6816 0.88816 0.0
N545 N 0.10984 0.68391 0.87091 0.0
C546 C 0.08834 0.71245 0.85741 0.0
C547 C 0.10584 0.69878 0.85556 0.0
C548 C 0.07468 0.71076 0.87517 0.0
C549 C 0.0789 0.69488 0.89056 0.0
H550 H 0.10042 0.6697 0.90019 0.0
H551 H 0.11655 0.70027 0.84205 0.0
C552 C 0.20387 0.67869 0.81929 0.0
N553 N 0.19026 0.68845 0.83312 0.0
C554 C 0.21691 0.69085 0.8058 0.0
C555 C 0.20159 0.72288 0.82096 0.0
C556 C 0.18873 0.7101 0.83401 0.0
C557 C 0.21592 0.71329 0.80654 0.0
H558 H 0.20444 0.66142 0.81861 0.0
H559 H 0.17741 0.71751 0.84468 0.0
C560 C 0.13177 0.61925 0.88485 0.0
N561 N 0.11656 0.57836 0.89176 0.0
C562 C 0.14607 0.60236 0.88778 0.0
C563 C 0.10976 0.61543 0.88559 0.0
C564 C 0.13806 0.58177 0.89119 0.0
C565 C 0.10238 0.59461 0.88908 0.0
C566 C 0.20535 0.63866 0.86197 0.0
C567 C 0.21308 0.6177 0.86137 0.0
C568 C 0.21946 0.65552 0.86603 0.0
C569 C 0.23479 0.61397 0.86515 0.0
C570 C 0.24105 0.65114 0.86971 0.0
N571 N 0.24821 0.63062 0.86922 0.0
C572 C 0.16734 0.60537 0.82422 0.0
C573 C 0.13101 0.60066 0.83383 0.0
C574 C 0.16643 0.58771 0.81064 0.0
N575 N 0.14988 0.61141 0.83566 0.0
C576 C 0.12939 0.58277 0.82044 0.0
C577 C 0.14731 0.57602 0.80864 0.0
H578 H 0.18191 0.61464 0.82524 0.0
H579 H 0.11709 0.60613 0.84245 0.0
C580 C 0.1798 0.66164 0.92768 0.0
N581 N 0.18292 0.64696 0.91197 0.0
C582 C 0.19172 0.66075 0.9466 0.0
C583 C 0.20908 0.62895 0.93337 0.0
C584 C 0.19669 0.63038 0.91478 0.0
C585 C 0.20706 0.64455 0.94944 0.0
H586 H 0.16844 0.67444 0.92528 0.0
H587 H 0.19851 0.61853 0.9024 0.0
O588 O 0.14456 0.66392 0.83732 0.0
O589 O 0.16195 0.68178 0.87864 0.0
O590 O 0.1393 0.63946 0.88135 0.0
O591 O 0.1841 0.64252 0.85838 0.0
H592 H 0.16464 0.65499 0.80117 0.0
H593 H 0.10384 0.65308 0.83345 0.0
H594 H 0.1476 0.6382 0.76941 0.0
H595 H 0.08782 0.63642 0.80108 0.0
H596 H 0.21349 0.72461 0.9072 0.0
H597 H 0.14057 0.71825 0.87754 0.0
H598 H 0.20027 0.68912 0.89556 0.0
H599 H 0.15476 0.75323 0.88973 0.0
H600 H 0.08551 0.72423 0.84501 0.0
H601 H 0.06883 0.69311 0.90455 0.0
H602 H 0.22737 0.68271 0.79467 0.0
H603 H 0.20037 0.74009 0.82228 0.0
H604 H 0.16316 0.6051 0.88716 0.0
H605 H 0.09851 0.62839 0.88336 0.0
H606 H 0.14892 0.5685 0.89334 0.0
H607 H 0.08538 0.59137 0.88962 0.0
H608 H 0.20237 0.60443 0.85833 0.0
H609 H 0.21387 0.67184 0.86617 0.0
H610 H 0.24095 0.59782 0.86489 0.0
H611 H 0.25214 0.66406 0.8729 0.0
H612 H 0.18049 0.58356 0.80143 0.0
H613 H 0.1143 0.57431 0.81942 0.0
H614 H 0.18913 0.67283 0.95873 0.0
H615 H 0.22066 0.61618 0.9347 0.0
Li616 Li 0.85339 0.17115 0.6698 0.0
Li617 Li 0.86859 0.13399 0.66712 0.0
Li618 Li 0.88735 0.16721 0.65203 0.0
Li619 Li 0.85547 0.15335 0.63554 0.0
C620 C 0.8785 0.16747 0.70273 0.0
N621 N 0.87258 0.18349 0.74351 0.0
C622 C 0.87118 0.15411 0.71912 0.0
C623 C 0.88298 0.18893 0.70713 0.0
C624 C 0.86827 0.16252 0.73962 0.0
C625 C 0.87983 0.19674 0.72783 0.0
C626 C 0.82066 0.13696 0.65326 0.0
C627 C 0.79948 0.10906 0.63709 0.0
N628 N 0.78305 0.12309 0.63465 0.0
C629 C 0.80356 0.15108 0.65072 0.0
C630 C 0.81864 0.11576 0.64649 0.0
C631 C 0.78467 0.14376 0.64123 0.0
C632 C 0.83586 0.20995 0.68576 0.0
N633 N 0.83596 0.18832 0.68785 0.0
C634 C 0.8109 0.19018 0.71665 0.0
C635 C 0.82374 0.17829 0.7028 0.0
C636 C 0.81077 0.21258 0.7151 0.0
C637 C 0.82345 0.22247 0.6994 0.0
H638 H 0.84535 0.2175 0.67349 0.0
H639 H 0.82408 0.16104 0.704 0.0
C640 C 0.88991 0.0969 0.68357 0.0
N641 N 0.87104 0.10758 0.68218 0.0
C642 C 0.89147 0.07837 0.69609 0.0
C643 C 0.85415 0.08223 0.70536 0.0
C644 C 0.85331 0.10058 0.69266 0.0
C645 C 0.87344 0.07087 0.70734 0.0
H646 H 0.90381 0.10292 0.67517 0.0
H647 H 0.83862 0.10961 0.69161 0.0
C648 C 0.87108 0.20058 0.63195 0.0
N649 N 0.89037 0.23469 0.61134 0.0
C650 C 0.87183 0.2013 0.60958 0.0
C651 C 0.88023 0.21722 0.6438 0.0
C652 C 0.88159 0.2187 0.59948 0.0
C653 C 0.88991 0.2343 0.6331 0.0
C654 C 0.8863 0.12685 0.62066 0.0
C655 C 0.89055 0.13754 0.60148 0.0
C656 C 0.88505 0.10453 0.6209 0.0
C657 C 0.89332 0.12569 0.58274 0.0
C658 C 0.88796 0.09326 0.60183 0.0
N659 N 0.89199 0.10398 0.5833 0.0
C660 C 0.92654 0.18512 0.6662 0.0
C661 C 0.92158 0.18729 0.62868 0.0
C662 C 0.94505 0.19763 0.66486 0.0
N663 N 0.91488 0.1807 0.64834 0.0
C664 C 0.93971 0.20025 0.62666 0.0
C665 C 0.95145 0.20585 0.64497 0.0
H666 H 0.92113 0.17947 0.68162 0.0
H667 H 0.91235 0.18331 0.61463 0.0
C668 C 0.82669 0.16719 0.60421 0.0
N669 N 0.83867 0.14991 0.60968 0.0
C670 C 0.81305 0.16647 0.58654 0.0
C671 C 0.82366 0.12987 0.58061 0.0
C672 C 0.83707 0.13128 0.59851 0.0
C673 C 0.81147 0.14768 0.57431 0.0
H674 H 0.82748 0.18153 0.61384 0.0
H675 H 0.84583 0.11736 0.60365 0.0
O676 O 0.8808 0.15969 0.68239 0.0
O677 O 0.83949 0.14399 0.6619 0.0
O678 O 0.86162 0.18363 0.64217 0.0
O679 O 0.88366 0.1381 0.6392 0.0
H680 H 0.86761 0.13749 0.71602 0.0
H681 H 0.88856 0.19952 0.69463 0.0
H682 H 0.86251 0.15239 0.75243 0.0
H683 H 0.88307 0.21335 0.73141 0.0
H684 H 0.79771 0.09274 0.63163 0.0
H685 H 0.80496 0.16757 0.6558 0.0
H686 H 0.83183 0.1047 0.6482 0.0
H687 H 0.77133 0.15453 0.63902 0.0
H688 H 0.80141 0.18197 0.72862 0.0
H689 H 0.82351 0.23968 0.69749 0.0
H690 H 0.90662 0.07006 0.69696 0.0
H691 H 0.83995 0.07739 0.71402 0.0
H692 H 0.86528 0.18843 0.60007 0.0
H693 H 0.88029 0.21677 0.66109 0.0
H694 H 0.88233 0.21941 0.58219 0.0
H695 H 0.89719 0.24718 0.6421 0.0
H696 H 0.8914 0.15479 0.60101 0.0
H697 H 0.88177 0.09604 0.63564 0.0
H698 H 0.89648 0.13375 0.56775 0.0
H699 H 0.88699 0.07599 0.60174 0.0
H700 H 0.95374 0.2016 0.67934 0.0
H701 H 0.94433 0.20612 0.61101 0.0
H702 H 0.80353 0.18042 0.58275 0.0
H703 H 0.82294 0.115 0.57177 0.0
Li704 Li 0.15372 0.38646 0.66746 0.0
Li705 Li 0.16958 0.34952 0.67105 0.0
Li706 Li 0.1678 0.36704 0.63648 0.0
Li707 Li 0.13585 0.35267 0.65236 0.0
C708 C 0.20206 0.38391 0.65469 0.0
N709 N 0.23985 0.39781 0.6365 0.0
C710 C 0.21933 0.36991 0.65273 0.0
C711 C 0.20401 0.40501 0.64758 0.0
C712 C 0.2383 0.37724 0.64343 0.0
C713 C 0.22326 0.41172 0.63839 0.0
C714 C 0.14238 0.35344 0.70335 0.0
C715 C 0.1402 0.32461 0.72894 0.0
N716 N 0.1445 0.33866 0.74499 0.0
C717 C 0.14663 0.36761 0.72012 0.0
C718 C 0.13897 0.33179 0.7078 0.0
C719 C 0.14768 0.35982 0.74106 0.0
C720 C 0.13199 0.42397 0.6827 0.0
N721 N 0.15072 0.41296 0.68222 0.0
C722 C 0.1671 0.43822 0.70581 0.0
C723 C 0.16812 0.41974 0.69338 0.0
C724 C 0.14798 0.44998 0.70682 0.0
C725 C 0.13027 0.44265 0.69495 0.0
H726 H 0.11835 0.41811 0.67378 0.0
H727 H 0.18269 0.41046 0.69301 0.0
C728 C 0.1913 0.31197 0.68374 0.0
N729 N 0.1868 0.33244 0.6894 0.0
C730 C 0.20371 0.29911 0.69709 0.0
C731 C 0.20705 0.32879 0.72164 0.0
C732 C 0.19464 0.34111 0.70774 0.0
C733 C 0.21167 0.30743 0.71643 0.0
H734 H 0.18542 0.30567 0.66876 0.0
H735 H 0.19115 0.35759 0.71162 0.0
C736 C 0.13668 0.39252 0.62044 0.0
N737 N 0.13118 0.41438 0.58242 0.0
C738 C 0.1329 0.3813 0.60147 0.0
C739 C 0.13754 0.41485 0.62013 0.0
C740 C 0.13022 0.39264 0.58239 0.0
C741 C 0.13472 0.42561 0.60072 0.0
C742 C 0.15375 0.31905 0.63366 0.0
C743 C 0.15289 0.31775 0.61133 0.0
C744 C 0.14593 0.30211 0.64601 0.0
C745 C 0.14415 0.29954 0.60174 0.0
C746 C 0.13724 0.2842 0.63583 0.0
N747 N 0.13655 0.2833 0.61409 0.0
C748 C 0.1973 0.35316 0.60599 0.0
C749 C 0.18644 0.38877 0.59937 0.0
C750 C 0.21138 0.35384 0.58868 0.0
N751 N 0.18495 0.37034 0.61088 0.0
C752 C 0.20022 0.39011 0.58176 0.0
C753 C 0.21294 0.37245 0.57614 0.0
H754 H 0.19655 0.33898 0.61587 0.0
H755 H 0.17732 0.40262 0.60403 0.0
C756 C 0.09672 0.33439 0.66607 0.0
N757 N 0.10879 0.33835 0.64838 0.0
C758 C 0.07843 0.32157 0.66467 0.0
C759 C 0.08489 0.31757 0.62678 0.0
C760 C 0.10278 0.33087 0.62882 0.0
C761 C 0.07268 0.31253 0.64494 0.0
H762 H 0.10159 0.34071 0.6814 0.0
H763 H 0.11228 0.33455 0.61488 0.0
O764 O 0.18316 0.37685 0.66311 0.0
O765 O 0.14168 0.36069 0.68269 0.0
O766 O 0.13921 0.38176 0.6393 0.0
O767 O 0.16213 0.33683 0.64336 0.0
H768 H 0.21799 0.3535 0.65809 0.0
H769 H 0.1907 0.41598 0.64887 0.0
H770 H 0.25177 0.36655 0.64165 0.0
H771 H 0.22497 0.42796 0.63267 0.0
H772 H 0.13774 0.30788 0.73258 0.0
H773 H 0.14921 0.38442 0.71701 0.0
H774 H 0.13558 0.32061 0.69504 0.0
H775 H 0.15107 0.3706 0.75417 0.0
H776 H 0.18104 0.44292 0.71499 0.0
H777 H 0.11526 0.45126 0.69509 0.0
H778 H 0.20729 0.28291 0.69216 0.0
H779 H 0.21274 0.33586 0.73641 0.0
H780 H 0.13233 0.36402 0.60145 0.0
H781 H 0.14044 0.42376 0.63469 0.0
H782 H 0.12742 0.38417 0.56756 0.0
H783 H 0.13541 0.44289 0.60021 0.0
H784 H 0.15857 0.33079 0.60147 0.0
H785 H 0.14637 0.30284 0.66329 0.0
H786 H 0.14328 0.29838 0.58449 0.0
H787 H 0.13101 0.27105 0.6452 0.0
H788 H 0.22128 0.34002 0.58547 0.0
H789 H 0.20084 0.40483 0.57265 0.0
H790 H 0.06937 0.31804 0.67903 0.0
H791 H 0.08078 0.31108 0.61124 0.0
Li792 Li 0.63587 0.16896 0.3663 0.0
Li793 Li 0.67262 0.17147 0.34957 0.0
Li794 Li 0.65506 0.13714 0.35369 0.0
Li795 Li 0.66966 0.15466 0.38422 0.0
C796 C 0.6375 0.15367 0.3187 0.0
N797 N 0.62253 0.13402 0.28207 0.0
C798 C 0.65154 0.14906 0.30195 0.0
C799 C 0.61583 0.14848 0.31681 0.0
C800 C 0.64366 0.13905 0.28357 0.0
C801 C 0.60857 0.13852 0.29814 0.0
C802 C 0.66862 0.20555 0.37515 0.0
C803 C 0.69687 0.23181 0.37254 0.0
N804 N 0.68196 0.24755 0.3711 0.0
C805 C 0.6536 0.22203 0.37382 0.0
C806 C 0.69045 0.21051 0.37469 0.0
C807 C 0.66066 0.24314 0.37172 0.0
C808 C 0.59786 0.18451 0.38702 0.0
N809 N 0.60971 0.1844 0.36877 0.0
C810 C 0.58646 0.21007 0.35258 0.0
C811 C 0.60426 0.19666 0.35165 0.0
C812 C 0.574 0.21073 0.37126 0.0
C813 C 0.57969 0.19749 0.38854 0.0
H814 H 0.60272 0.1748 0.4005 0.0
H815 H 0.61412 0.19644 0.33743 0.0
C816 C 0.70889 0.18188 0.32454 0.0
N817 N 0.68915 0.1886 0.33061 0.0
C818 C 0.7214 0.19451 0.311 0.0
C819 C 0.69289 0.22056 0.30998 0.0
C820 C 0.6808 0.20728 0.32327 0.0
C821 C 0.7135 0.21423 0.30377 0.0
H822 H 0.71493 0.16673 0.33024 0.0
H823 H 0.66485 0.21198 0.328 0.0
C824 C 0.62813 0.12335 0.38378 0.0
N825 N 0.60324 0.08696 0.38742 0.0
C826 C 0.63761 0.10369 0.38852 0.0
C827 C 0.60597 0.12452 0.38097 0.0
C828 C 0.62476 0.08546 0.39024 0.0
C829 C 0.59366 0.10594 0.38288 0.0
C830 C 0.7026 0.13543 0.3687 0.0
C831 C 0.70239 0.11381 0.37438 0.0
C832 C 0.72028 0.14809 0.37403 0.0
C833 C 0.71982 0.10524 0.38543 0.0
C834 C 0.73736 0.13895 0.38516 0.0
N835 N 0.73678 0.11789 0.39058 0.0
C836 C 0.66969 0.10348 0.32807 0.0
C837 C 0.63253 0.10074 0.33473 0.0
C838 C 0.66901 0.08556 0.31479 0.0
N839 N 0.65169 0.11065 0.33791 0.0
C840 C 0.63112 0.08265 0.32161 0.0
C841 C 0.64954 0.07481 0.31137 0.0
H842 H 0.68458 0.11206 0.33004 0.0
H843 H 0.6182 0.10714 0.34187 0.0
C844 C 0.69495 0.16949 0.41852 0.0
N845 N 0.68447 0.15188 0.41122 0.0
C846 C 0.70827 0.16822 0.4364 0.0
C847 C 0.69901 0.13088 0.43984 0.0
C848 C 0.68591 0.13286 0.42173 0.0
C849 C 0.71075 0.14864 0.4471 0.0
H850 H 0.69337 0.18449 0.4102 0.0
H851 H 0.6775 0.11904 0.41568 0.0
O852 O 0.64502 0.16283 0.33707 0.0
O853 O 0.66197 0.18474 0.377 0.0
O854 O 0.64038 0.14141 0.38221 0.0
O855 O 0.68542 0.14425 0.35839 0.0
H856 H 0.66838 0.15293 0.30327 0.0
H857 H 0.60481 0.15184 0.32973 0.0
H858 H 0.65436 0.13522 0.27052 0.0
H859 H 0.59187 0.13427 0.29648 0.0
H860 H 0.7137 0.23582 0.37194 0.0
H861 H 0.63667 0.21862 0.37449 0.0
H862 H 0.70234 0.19801 0.37556 0.0
H863 H 0.64919 0.25602 0.37061 0.0
H864 H 0.58251 0.21987 0.33885 0.0
H865 H 0.57056 0.19766 0.40327 0.0
H866 H 0.73724 0.1891 0.30655 0.0
H867 H 0.68614 0.23553 0.30447 0.0
H868 H 0.65472 0.10244 0.39059 0.0
H869 H 0.59836 0.13956 0.37718 0.0
H870 H 0.6319 0.07012 0.39377 0.0
H871 H 0.57651 0.1066 0.38068 0.0
H872 H 0.68881 0.10378 0.37053 0.0
H873 H 0.7207 0.16487 0.36987 0.0
H874 H 0.71981 0.08856 0.39002 0.0
H875 H 0.75105 0.14861 0.38953 0.0
H876 H 0.68353 0.08057 0.30681 0.0
H877 H 0.61573 0.07495 0.31948 0.0
H878 H 0.71667 0.18243 0.4417 0.0
H879 H 0.70051 0.11547 0.44759 0.0
Li880 Li 0.63847 0.66818 0.65641 0.0
Li881 Li 0.67412 0.66931 0.67318 0.0
Li882 Li 0.6686 0.65276 0.6379 0.0
Li883 Li 0.65543 0.63524 0.67077 0.0
C884 C 0.6575 0.70258 0.64059 0.0
N885 N 0.64094 0.74222 0.63036 0.0
C886 C 0.66168 0.72019 0.65371 0.0
C887 C 0.64503 0.70515 0.62218 0.0
C888 C 0.65314 0.7401 0.64827 0.0
C889 C 0.63675 0.72531 0.61733 0.0
C890 C 0.63669 0.65464 0.70438 0.0
C891 C 0.63797 0.63831 0.73934 0.0
N892 N 0.61627 0.63926 0.74047 0.0
C893 C 0.6144 0.65551 0.70589 0.0
C894 C 0.6486 0.64606 0.72126 0.0
C895 C 0.60437 0.64764 0.72428 0.0
C896 C 0.59654 0.67963 0.64059 0.0
N897 N 0.61264 0.68456 0.65438 0.0
C898 C 0.59392 0.71568 0.66624 0.0
C899 C 0.61149 0.702 0.66728 0.0
C900 C 0.57696 0.7112 0.65211 0.0
C901 C 0.57843 0.69274 0.63925 0.0
H902 H 0.59779 0.66559 0.63058 0.0
H903 H 0.62449 0.70548 0.67818 0.0
C904 C 0.71113 0.69431 0.68189 0.0
N905 N 0.69265 0.68643 0.69026 0.0
C906 C 0.72459 0.70711 0.69435 0.0
C907 C 0.69937 0.70401 0.72352 0.0
C908 C 0.68652 0.69114 0.71057 0.0
C909 C 0.7187 0.71216 0.71544 0.0
H910 H 0.71532 0.69081 0.66548 0.0
H911 H 0.67153 0.68511 0.71668 0.0
C912 C 0.63831 0.62749 0.625 0.0
N913 N 0.63737 0.60373 0.58777 0.0
C914 C 0.64361 0.6058 0.62544 0.0
C915 C 0.63242 0.63709 0.60568 0.0
C916 C 0.64305 0.59406 0.60643 0.0
C917 C 0.63209 0.62481 0.58701 0.0
C918 C 0.70594 0.64194 0.66915 0.0
C919 C 0.72225 0.64703 0.65471 0.0
C920 C 0.71097 0.63797 0.69059 0.0
C921 C 0.74335 0.64816 0.66202 0.0
C922 C 0.73226 0.6393 0.69727 0.0
N923 N 0.74788 0.64433 0.68297 0.0
C924 C 0.68448 0.66477 0.59704 0.0
C925 C 0.69173 0.62889 0.60675 0.0
C926 C 0.69638 0.66254 0.57825 0.0
N927 N 0.68248 0.64812 0.61089 0.0
C928 C 0.70386 0.62597 0.58816 0.0
C929 C 0.70652 0.64302 0.57371 0.0
H930 H 0.6774 0.68002 0.60088 0.0
H931 H 0.69018 0.616 0.6182 0.0
C932 C 0.63168 0.60303 0.69344 0.0
N933 N 0.65123 0.6086 0.68561 0.0
C934 C 0.6294 0.58494 0.70644 0.0
C935 C 0.66704 0.57768 0.70168 0.0
C936 C 0.66866 0.59609 0.6891 0.0
C937 C 0.64731 0.57215 0.71091 0.0
H938 H 0.61795 0.61296 0.69007 0.0
H939 H 0.68396 0.60063 0.68245 0.0
O940 O 0.66535 0.68286 0.64588 0.0
O941 O 0.64679 0.66209 0.68643 0.0
O942 O 0.63926 0.63935 0.64333 0.0
O943 O 0.68514 0.64102 0.66238 0.0
H944 H 0.67122 0.7185 0.66805 0.0
H945 H 0.64148 0.69164 0.61196 0.0
H946 H 0.65616 0.75385 0.65833 0.0
H947 H 0.62692 0.72749 0.60324 0.0
H948 H 0.64698 0.6315 0.75247 0.0
H949 H 0.60492 0.66201 0.69296 0.0
H950 H 0.66585 0.64519 0.72032 0.0
H951 H 0.58713 0.64814 0.72564 0.0
H952 H 0.5939 0.72983 0.6762 0.0
H953 H 0.56569 0.68832 0.62837 0.0
H954 H 0.7392 0.71336 0.68742 0.0
H955 H 0.69428 0.70745 0.73972 0.0
H956 H 0.64828 0.59817 0.64028 0.0
H957 H 0.62837 0.65389 0.60508 0.0
H958 H 0.64719 0.57727 0.6065 0.0
H959 H 0.62769 0.63204 0.57191 0.0
H960 H 0.71866 0.65032 0.6381 0.0
H961 H 0.69854 0.63407 0.70198 0.0
H962 H 0.75613 0.65217 0.65104 0.0
H963 H 0.73636 0.63637 0.71384 0.0
H964 H 0.69826 0.67623 0.56779 0.0
H965 H 0.71123 0.61059 0.58525 0.0
H966 H 0.61384 0.58104 0.713 0.0
H967 H 0.68124 0.56826 0.70474 0.0
Li968 Li 0.65428 0.38311 0.85208 0.0
Li969 Li 0.6683 0.36356 0.88487 0.0
Li970 Li 0.67041 0.34753 0.84976 0.0
Li971 Li 0.6367 0.34954 0.86718 0.0
C972 C 0.70422 0.37329 0.85264 0.0
N973 N 0.74558 0.36865 0.83787 0.0
C974 C 0.71871 0.36045 0.86379 0.0
C975 C 0.71076 0.38387 0.83404 0.0
C976 C 0.73955 0.35827 0.85604 0.0
C977 C 0.73175 0.3813 0.82683 0.0
C978 C 0.63913 0.39073 0.89874 0.0
C979 C 0.63556 0.39403 0.93703 0.0
N980 N 0.63863 0.4155 0.93533 0.0
C981 C 0.64217 0.41283 0.89735 0.0
C982 C 0.63569 0.38124 0.9187 0.0
C983 C 0.64188 0.42508 0.91604 0.0
C984 C 0.63211 0.41297 0.82631 0.0
N985 N 0.65022 0.40995 0.83798 0.0
C986 C 0.66421 0.4436 0.8262 0.0
C987 C 0.66598 0.42497 0.83848 0.0
C988 C 0.64614 0.44667 0.81315 0.0
C989 C 0.6298 0.43121 0.81358 0.0
H990 H 0.61982 0.40076 0.82624 0.0
H991 H 0.68019 0.4222 0.84796 0.0
C992 C 0.69171 0.34938 0.92086 0.0
N993 N 0.68467 0.36728 0.91073 0.0
C994 C 0.70536 0.35091 0.93849 0.0
C995 C 0.70473 0.38934 0.93487 0.0
C996 C 0.69099 0.38705 0.91728 0.0
C997 C 0.71229 0.37108 0.94564 0.0
H998 H 0.6873 0.3338 0.91484 0.0
H999 H 0.68587 0.40103 0.9085 0.0
C1000 C 0.64475 0.35032 0.81609 0.0
N1001 N 0.64831 0.33596 0.77437 0.0
C1002 C 0.6425 0.32856 0.81142 0.0
C1003 C 0.64879 0.36476 0.79947 0.0
C1004 C 0.64439 0.32162 0.79026 0.0
C1005 C 0.65052 0.3572 0.7785 0.0
C1006 C 0.65265 0.31568 0.88464 0.0
C1007 C 0.64796 0.29866 0.8709 0.0
C1008 C 0.64671 0.31439 0.90618 0.0
C1009 C 0.63727 0.28072 0.87889 0.0
C1010 C 0.6361 0.29614 0.91357 0.0
N1011 N 0.63161 0.27984 0.89988 0.0
C1012 C 0.69658 0.31184 0.84089 0.0
C1013 C 0.69551 0.33716 0.81273 0.0
C1014 C 0.71033 0.29881 0.82912 0.0
N1015 N 0.68918 0.33045 0.83245 0.0
C1016 C 0.70908 0.32457 0.80032 0.0
C1017 C 0.71662 0.30501 0.80842 0.0
H1018 H 0.69199 0.3072 0.85691 0.0
H1019 H 0.69011 0.35236 0.80662 0.0
C1020 C 0.59975 0.3276 0.85297 0.0
N1021 N 0.60939 0.33544 0.87083 0.0
C1022 C 0.58109 0.31542 0.85452 0.0
C1023 C 0.58188 0.32027 0.89284 0.0
C1024 C 0.60055 0.33247 0.89052 0.0
C1025 C 0.572 0.31134 0.87468 0.0
H1026 H 0.60669 0.33053 0.83746 0.0
H1027 H 0.60824 0.33913 0.9045 0.0
O1028 O 0.68361 0.37517 0.85968 0.0
O1029 O 0.6396 0.37845 0.88065 0.0
O1030 O 0.64295 0.35745 0.83676 0.0
O1031 O 0.66269 0.3336 0.87696 0.0
H1032 H 0.71383 0.35202 0.87811 0.0
H1033 H 0.69967 0.39369 0.8251 0.0
H1034 H 0.7509 0.34828 0.86443 0.0
H1035 H 0.73702 0.38928 0.81239 0.0
H1036 H 0.63306 0.38688 0.9526 0.0
H1037 H 0.64482 0.42043 0.88202 0.0
H1038 H 0.63343 0.36415 0.92007 0.0
H1039 H 0.64428 0.44219 0.91522 0.0
H1040 H 0.67722 0.45507 0.82625 0.0
H1041 H 0.61551 0.43308 0.80395 0.0
H1042 H 0.71058 0.33637 0.9463 0.0
H1043 H 0.70992 0.40521 0.93949 0.0
H1044 H 0.63953 0.31709 0.82401 0.0
H1045 H 0.65096 0.38158 0.80268 0.0
H1046 H 0.64277 0.30481 0.78648 0.0
H1047 H 0.65374 0.3682 0.76553 0.0
H1048 H 0.65245 0.2993 0.85422 0.0
H1049 H 0.64983 0.32751 0.91701 0.0
H1050 H 0.63347 0.2675 0.86839 0.0
H1051 H 0.63128 0.29502 0.93016 0.0
H1052 H 0.71617 0.28418 0.83629 0.0
H1053 H 0.71338 0.33002 0.78445 0.0
H1054 H 0.57417 0.30881 0.84007 0.0
H1055 H 0.57526 0.31785 0.90867 0.0
Li1056 Li 0.35231 0.15401 0.88741 0.0
Li1057 Li 0.36525 0.13563 0.85509 0.0
Li1058 Li 0.38362 0.1677 0.86916 0.0
Li1059 Li 0.34862 0.17025 0.85174 0.0
C1060 C 0.38191 0.12744 0.9011 0.0
N1061 N 0.38317 0.10352 0.93826 0.0
C1062 C 0.37779 0.10548 0.90044 0.0
C1063 C 0.3868 0.13723 0.92061 0.0
C1064 C 0.3785 0.09366 0.91942 0.0
C1065 C 0.3873 0.12487 0.93924 0.0
C1066 C 0.31489 0.14623 0.85629 0.0
C1067 C 0.28826 0.14842 0.82839 0.0
N1068 N 0.27341 0.15418 0.84319 0.0
C1069 C 0.29935 0.15215 0.87122 0.0
C1070 C 0.30929 0.14428 0.83469 0.0
C1071 C 0.27847 0.15609 0.86428 0.0
C1072 C 0.3331 0.1685 0.92572 0.0
N1073 N 0.33779 0.15064 0.91427 0.0
C1074 C 0.31856 0.12889 0.9393 0.0
C1075 C 0.33073 0.13106 0.92063 0.0
C1076 C 0.31328 0.1471 0.95139 0.0
C1077 C 0.32088 0.1671 0.94437 0.0
H1078 H 0.3383 0.18397 0.92001 0.0
H1079 H 0.33418 0.11715 0.91096 0.0
C1080 C 0.38838 0.09966 0.8384 0.0
N1081 N 0.36871 0.10865 0.84075 0.0
C1082 C 0.39099 0.08146 0.82561 0.0
C1083 C 0.35298 0.0817 0.81861 0.0
C1084 C 0.3511 0.09974 0.8316 0.0
C1085 C 0.37317 0.07253 0.81514 0.0
H1086 H 0.40215 0.10704 0.84589 0.0
H1087 H 0.33561 0.1069 0.83399 0.0
C1088 C 0.36653 0.2029 0.88423 0.0
N1089 N 0.38606 0.24127 0.89432 0.0
C1090 C 0.36609 0.21988 0.86968 0.0
C1091 C 0.37679 0.20546 0.90396 0.0
C1092 C 0.37606 0.23915 0.87508 0.0
C1093 C 0.38661 0.22497 0.90873 0.0
C1094 C 0.38659 0.15167 0.82269 0.0
C1095 C 0.40882 0.14946 0.82376 0.0
C1096 C 0.37544 0.14324 0.8052 0.0
C1097 C 0.41952 0.13884 0.80729 0.0
C1098 C 0.38672 0.13266 0.7891 0.0
N1099 N 0.40835 0.13071 0.79046 0.0
C1100 C 0.42364 0.18085 0.88859 0.0
C1101 C 0.41337 0.19839 0.85658 0.0
C1102 C 0.44148 0.19432 0.89063 0.0
N1103 N 0.40992 0.18331 0.87187 0.0
C1104 C 0.43084 0.21222 0.85804 0.0
C1105 C 0.44506 0.2105 0.87537 0.0
H1106 H 0.42048 0.16881 0.9006 0.0
H1107 H 0.40218 0.19999 0.84346 0.0
C1108 C 0.31518 0.19951 0.84433 0.0
N1109 N 0.33107 0.1883 0.83465 0.0
C1110 C 0.30177 0.21266 0.83225 0.0
C1111 C 0.32154 0.20267 0.80055 0.0
C1112 C 0.33461 0.18981 0.81325 0.0
C1113 C 0.30481 0.21427 0.81003 0.0
H1114 H 0.31286 0.19811 0.86143 0.0
H1115 H 0.3476 0.18104 0.80605 0.0
O1116 O 0.38107 0.13931 0.88275 0.0
O1117 O 0.33554 0.14274 0.8627 0.0
O1118 O 0.35744 0.18369 0.87898 0.0
O1119 O 0.37576 0.16162 0.83889 0.0
H1120 H 0.37395 0.09767 0.88547 0.0
H1121 H 0.3899 0.15423 0.9214 0.0
H1122 H 0.37527 0.07667 0.91918 0.0
H1123 H 0.39091 0.13225 0.95447 0.0
H1124 H 0.28377 0.14716 0.81171 0.0
H1125 H 0.30334 0.15386 0.88796 0.0
H1126 H 0.32117 0.14012 0.82283 0.0
H1127 H 0.2663 0.16075 0.87566 0.0
H1128 H 0.31325 0.11311 0.9441 0.0
H1129 H 0.31686 0.18167 0.9528 0.0
H1130 H 0.40685 0.07493 0.82333 0.0
H1131 H 0.33876 0.07508 0.8112 0.0
H1132 H 0.3584 0.21813 0.85427 0.0
H1133 H 0.37744 0.19241 0.91531 0.0
H1134 H 0.37597 0.25239 0.86393 0.0
H1135 H 0.39475 0.22713 0.92387 0.0
H1136 H 0.4177 0.15565 0.83728 0.0
H1137 H 0.3582 0.14444 0.80429 0.0
H1138 H 0.43671 0.13695 0.80794 0.0
H1139 H 0.37827 0.12589 0.77558 0.0
H1140 H 0.45198 0.1925 0.9043 0.0
H1141 H 0.43316 0.22419 0.84572 0.0
H1142 H 0.28897 0.22121 0.84016 0.0
H1143 H 0.32465 0.20375 0.78353 0.0
Li1144 Li 0.36642 0.3852 0.35425 0.0
Li1145 Li 0.35278 0.36742 0.38535 0.0
Li1146 Li 0.38554 0.35288 0.36591 0.0
Li1147 Li 0.34821 0.35139 0.35071 0.0
C1148 C 0.39467 0.39805 0.38408 0.0
N1149 N 0.42033 0.4338 0.38854 0.0
C1150 C 0.38566 0.4177 0.38967 0.0
C1151 C 0.41675 0.39656 0.38084 0.0
C1152 C 0.39889 0.4356 0.3918 0.0
C1153 C 0.42945 0.41482 0.38318 0.0
C1154 C 0.32046 0.38917 0.37159 0.0
C1155 C 0.28752 0.38876 0.39174 0.0
N1156 N 0.28934 0.4102 0.39488 0.0
C1157 C 0.32202 0.4112 0.37509 0.0
C1158 C 0.30306 0.37785 0.37999 0.0
C1159 C 0.3061 0.42154 0.38685 0.0
C1160 C 0.35197 0.41792 0.32744 0.0
N1161 N 0.36977 0.41159 0.33824 0.0
C1162 C 0.39006 0.43994 0.3222 0.0
C1163 C 0.3887 0.42207 0.33565 0.0
C1164 C 0.37185 0.44693 0.311 0.0
C1165 C 0.35262 0.43559 0.31381 0.0
H1166 H 0.33731 0.40886 0.32898 0.0
H1167 H 0.40294 0.41629 0.34347 0.0
C1168 C 0.33138 0.35183 0.42196 0.0
N1169 N 0.33964 0.36995 0.4132 0.0
C1170 C 0.31935 0.35272 0.44074 0.0
C1171 C 0.32534 0.39084 0.44195 0.0
C1172 C 0.33725 0.3892 0.42304 0.0
C1173 C 0.31589 0.37246 0.4509 0.0
H1174 H 0.3337 0.33667 0.4141 0.0
H1175 H 0.34402 0.40341 0.41592 0.0
C1176 C 0.38316 0.36874 0.31889 0.0
N1177 N 0.39851 0.38857 0.2825 0.0
C1178 C 0.36939 0.37301 0.3018 0.0
C1179 C 0.40476 0.37436 0.31745 0.0
C1180 C 0.37745 0.38312 0.28355 0.0
C1181 C 0.4122 0.38441 0.29891 0.0
C1182 C 0.35188 0.31708 0.37402 0.0
C1183 C 0.3657 0.30061 0.36801 0.0
C1184 C 0.33 0.31284 0.3762 0.0
C1185 C 0.35738 0.28024 0.36403 0.0
C1186 C 0.3223 0.29228 0.37203 0.0
N1187 N 0.33604 0.27654 0.36607 0.0
C1188 C 0.42289 0.33635 0.38648 0.0
C1189 C 0.41783 0.32598 0.35033 0.0
C1190 C 0.44106 0.32339 0.38805 0.0
N1191 N 0.41168 0.33731 0.36784 0.0
C1192 C 0.43568 0.31262 0.35128 0.0
C1193 C 0.44745 0.31106 0.37037 0.0
H1194 H 0.41749 0.34535 0.40023 0.0
H1195 H 0.40848 0.32687 0.33579 0.0
C1196 C 0.30911 0.3367 0.33256 0.0
N1197 N 0.33073 0.3345 0.33238 0.0
C1198 C 0.29632 0.32335 0.32002 0.0
C1199 C 0.32835 0.30641 0.30656 0.0
C1200 C 0.34051 0.3199 0.3196 0.0
C1201 C 0.30595 0.30791 0.3069 0.0
H1202 H 0.30177 0.34863 0.34261 0.0
H1203 H 0.35776 0.31856 0.3198 0.0
O1204 O 0.38205 0.38028 0.38213 0.0
O1205 O 0.33608 0.37867 0.3604 0.0
O1206 O 0.37544 0.35948 0.33713 0.0
O1207 O 0.35966 0.3373 0.37743 0.0
H1208 H 0.36862 0.41918 0.3921 0.0
H1209 H 0.42399 0.38151 0.37642 0.0
H1210 H 0.39211 0.45094 0.396 0.0
H1211 H 0.44654 0.41392 0.38066 0.0
H1212 H 0.27408 0.38016 0.39847 0.0
H1213 H 0.33548 0.42022 0.36905 0.0
H1214 H 0.30177 0.36075 0.3779 0.0
H1215 H 0.30716 0.43857 0.38972 0.0
H1216 H 0.40526 0.4481 0.32055 0.0
H1217 H 0.33829 0.43992 0.30509 0.0
H1218 H 0.31226 0.33812 0.44681 0.0
H1219 H 0.32344 0.40637 0.44935 0.0
H1220 H 0.3526 0.36881 0.30275 0.0
H1221 H 0.41557 0.37128 0.33064 0.0
H1222 H 0.36696 0.38669 0.27025 0.0
H1223 H 0.42885 0.38901 0.29761 0.0
H1224 H 0.38266 0.30348 0.36639 0.0
H1225 H 0.319 0.32541 0.3806 0.0
H1226 H 0.36791 0.26738 0.35929 0.0
H1227 H 0.30538 0.28887 0.37341 0.0
H1228 H 0.44963 0.32251 0.4031 0.0
H1229 H 0.44018 0.30353 0.33724 0.0
H1230 H 0.27909 0.32514 0.32047 0.0
H1231 H 0.33633 0.29462 0.29672 0.0
Li1232 Li 0.35362 0.67208 0.16945 0.0
Li1233 Li 0.36813 0.63454 0.16659 0.0
Li1234 Li 0.38721 0.66742 0.15124 0.0
Li1235 Li 0.35509 0.65411 0.1352 0.0
C1236 C 0.37968 0.66721 0.20236 0.0
N1237 N 0.37636 0.68182 0.24398 0.0
C1238 C 0.37442 0.65307 0.21889 0.0
C1239 C 0.38351 0.68873 0.20707 0.0
C1240 C 0.37277 0.66077 0.23981 0.0
C1241 C 0.38167 0.69582 0.22819 0.0
C1242 C 0.31931 0.64049 0.15385 0.0
C1243 C 0.29365 0.61504 0.14033 0.0
N1244 N 0.27959 0.63124 0.13681 0.0
C1245 C 0.30459 0.65689 0.15023 0.0
C1246 C 0.31382 0.61939 0.14896 0.0
C1247 C 0.28459 0.65188 0.14156 0.0
C1248 C 0.33341 0.71051 0.18274 0.0
N1249 N 0.33659 0.68956 0.18754 0.0
C1250 C 0.31473 0.69254 0.21875 0.0
C1251 C 0.32735 0.68037 0.20496 0.0
C1252 C 0.31144 0.71434 0.21442 0.0
C1253 C 0.32093 0.72329 0.1961 0.0
H1254 H 0.34033 0.71726 0.16843 0.0
H1255 H 0.32985 0.66356 0.20815 0.0
C1256 C 0.38854 0.59664 0.18243 0.0
N1257 N 0.37009 0.60808 0.18166 0.0
C1258 C 0.38979 0.57812 0.195 0.0
C1259 C 0.35303 0.58355 0.20559 0.0
C1260 C 0.35248 0.60185 0.1928 0.0
C1261 C 0.3719 0.57141 0.20696 0.0
H1262 H 0.40236 0.60205 0.17352 0.0
H1263 H 0.33814 0.61147 0.19221 0.0
C1264 C 0.3716 0.70169 0.13261 0.0
N1265 N 0.39206 0.73653 0.11448 0.0
C1266 C 0.37394 0.70311 0.11038 0.0
C1267 C 0.37969 0.71804 0.14557 0.0
C1268 C 0.38428 0.72086 0.10154 0.0
C1269 C 0.39001 0.73548 0.13612 0.0
C1270 C 0.38411 0.627 0.1198 0.0
C1271 C 0.38768 0.63757 0.10041 0.0
C1272 C 0.38183 0.60476 0.12006 0.0
C1273 C 0.38867 0.6257 0.0815 0.0
C1274 C 0.38298 0.59346 0.10081 0.0
N1275 N 0.38632 0.60408 0.08209 0.0
C1276 C 0.42617 0.68599 0.16512 0.0
C1277 C 0.42162 0.68665 0.12748 0.0
C1278 C 0.4445 0.69872 0.16351 0.0
N1279 N 0.41478 0.68074 0.14731 0.0
C1280 C 0.43955 0.69985 0.12518 0.0
C1281 C 0.45096 0.70633 0.1434 0.0
H1282 H 0.42066 0.68088 0.18068 0.0
H1283 H 0.41262 0.68196 0.1135 0.0
C1284 C 0.32879 0.66851 0.10157 0.0
N1285 N 0.33808 0.65054 0.10953 0.0
C1286 C 0.31519 0.66741 0.08387 0.0
C1287 C 0.32 0.62912 0.08333 0.0
C1288 C 0.33372 0.631 0.10094 0.0
C1289 C 0.31062 0.64753 0.0745 0.0
H1290 H 0.3315 0.68372 0.10931 0.0
H1291 H 0.34042 0.61678 0.10806 0.0
O1292 O 0.38093 0.66005 0.18169 0.0
O1293 O 0.33918 0.64516 0.16169 0.0
O1294 O 0.36169 0.68431 0.14163 0.0
O1295 O 0.38309 0.63829 0.13848 0.0
H1296 H 0.37153 0.63636 0.21563 0.0
H1297 H 0.3877 0.69989 0.19454 0.0
H1298 H 0.3686 0.65002 0.25272 0.0
H1299 H 0.38443 0.71247 0.23201 0.0
H1300 H 0.28921 0.5988 0.13632 0.0
H1301 H 0.30868 0.67333 0.15382 0.0
H1302 H 0.32513 0.60655 0.15152 0.0
H1303 H 0.27308 0.66441 0.13853 0.0
H1304 H 0.30779 0.68501 0.23274 0.0
H1305 H 0.31842 0.7399 0.19191 0.0
H1306 H 0.40461 0.56919 0.19536 0.0
H1307 H 0.33897 0.57935 0.21479 0.0
H1308 H 0.36825 0.69047 0.10004 0.0
H1309 H 0.37825 0.71718 0.16278 0.0
H1310 H 0.38628 0.72209 0.08438 0.0
H1311 H 0.39646 0.74815 0.146 0.0
H1312 H 0.38935 0.65477 0.09994 0.0
H1313 H 0.37907 0.59635 0.13495 0.0
H1314 H 0.39126 0.63369 0.06636 0.0
H1315 H 0.38117 0.57626 0.10074 0.0
H1316 H 0.45296 0.70339 0.17791 0.0
H1317 H 0.44424 0.70526 0.10938 0.0
H1318 H 0.30786 0.68193 0.07795 0.0
H1319 H 0.31677 0.61345 0.07668 0.0
Li1320 Li 0.65322 0.88612 0.16835 0.0
Li1321 Li 0.66724 0.84828 0.17071 0.0
Li1322 Li 0.66598 0.86687 0.13674 0.0
Li1323 Li 0.6337 0.85378 0.15249 0.0
C1324 C 0.70223 0.87905 0.15596 0.0
N1325 N 0.74262 0.88682 0.13984 0.0
C1326 C 0.71585 0.86201 0.15124 0.0
C1327 C 0.70916 0.90004 0.15263 0.0
C1328 C 0.73621 0.86627 0.14305 0.0
C1329 C 0.72965 0.90364 0.14444 0.0
C1330 C 0.64088 0.85336 0.20377 0.0
C1331 C 0.63829 0.82474 0.22958 0.0
N1332 N 0.64306 0.83878 0.24551 0.0
C1333 C 0.64556 0.86753 0.22044 0.0
C1334 C 0.63702 0.83182 0.20841 0.0
C1335 C 0.64665 0.85984 0.24141 0.0
C1336 C 0.63333 0.92433 0.18388 0.0
N1337 N 0.65151 0.91245 0.18366 0.0
C1338 C 0.66842 0.93647 0.20819 0.0
C1339 C 0.66892 0.91821 0.19537 0.0
C1340 C 0.64983 0.94909 0.20896 0.0
C1341 C 0.63215 0.94285 0.19643 0.0
H1342 H 0.61967 0.9193 0.17449 0.0
H1343 H 0.68304 0.90824 0.1952 0.0
C1344 C 0.68844 0.80986 0.18203 0.0
N1345 N 0.6841 0.83015 0.18842 0.0
C1346 C 0.70084 0.79646 0.19486 0.0
C1347 C 0.70459 0.82529 0.22035 0.0
C1348 C 0.69217 0.83815 0.20697 0.0
C1349 C 0.70903 0.80411 0.21436 0.0
H1350 H 0.68244 0.8041 0.16688 0.0
H1351 H 0.68902 0.85457 0.21134 0.0
C1352 C 0.63799 0.89461 0.12157 0.0
N1353 N 0.63761 0.91799 0.08405 0.0
C1354 C 0.63433 0.88441 0.102 0.0
C1355 C 0.6413 0.91671 0.1221 0.0
C1356 C 0.63428 0.89651 0.0832 0.0
C1357 C 0.64106 0.92825 0.10294 0.0
C1358 C 0.64867 0.81922 0.13416 0.0
C1359 C 0.64522 0.81774 0.11208 0.0
C1360 C 0.6413 0.80287 0.14755 0.0
C1361 C 0.63447 0.79995 0.10381 0.0
C1362 C 0.63054 0.78539 0.13868 0.0
N1363 N 0.62739 0.7843 0.11717 0.0
C1364 C 0.69045 0.85285 0.10145 0.0
C1365 C 0.68896 0.89058 0.10417 0.0
C1366 C 0.7038 0.85431 0.0836 0.0
N1367 N 0.68296 0.87082 0.11112 0.0
C1368 C 0.70269 0.89278 0.08661 0.0
C1369 C 0.71014 0.87445 0.07604 0.0
H1370 H 0.68657 0.83733 0.10793 0.0
H1371 H 0.68358 0.90466 0.11258 0.0
C1372 C 0.59475 0.83509 0.16617 0.0
N1373 N 0.60596 0.84084 0.14841 0.0
C1374 C 0.57636 0.82249 0.16438 0.0
C1375 C 0.58083 0.82254 0.12598 0.0
C1376 C 0.59885 0.8356 0.12849 0.0
C1377 C 0.56963 0.81553 0.14413 0.0
H1378 H 0.60047 0.83969 0.18182 0.0
H1379 H 0.60769 0.84071 0.11456 0.0
O1380 O 0.68202 0.87516 0.16335 0.0
O1381 O 0.6401 0.86054 0.18307 0.0
O1382 O 0.6382 0.88306 0.14014 0.0
O1383 O 0.65896 0.83665 0.14265 0.0
H1384 H 0.71064 0.84566 0.15358 0.0
H1385 H 0.69872 0.91339 0.15606 0.0
H1386 H 0.74688 0.85325 0.13917 0.0
H1387 H 0.7352 0.9198 0.14165 0.0
H1388 H 0.6355 0.80808 0.23334 0.0
H1389 H 0.64839 0.88427 0.21726 0.0
H1390 H 0.63321 0.82065 0.19579 0.0
H1391 H 0.65037 0.87062 0.25444 0.0
H1392 H 0.68229 0.94031 0.21784 0.0
H1393 H 0.61757 0.95215 0.19629 0.0
H1394 H 0.70384 0.78024 0.18963 0.0
H1395 H 0.71095 0.83197 0.23503 0.0
H1396 H 0.63187 0.86731 0.10132 0.0
H1397 H 0.64417 0.92483 0.13712 0.0
H1398 H 0.63163 0.88881 0.06792 0.0
H1399 H 0.64368 0.94535 0.10309 0.0
H1400 H 0.65028 0.8304 0.10143 0.0
H1401 H 0.64369 0.80371 0.16464 0.0
H1402 H 0.63159 0.7987 0.08678 0.0
H1403 H 0.62465 0.77271 0.1489 0.0
H1404 H 0.70964 0.8398 0.07618 0.0
H1405 H 0.70743 0.9086 0.08134 0.0
H1406 H 0.56805 0.81741 0.17873 0.0
H1407 H 0.57593 0.81765 0.11009 0.0
H1408 H 0.20094 0.23589 0.25079 0.0
H1409 H 0.25614 0.21531 0.21492 0.0
H1410 H 0.22342 0.25985 0.27178 0.0
H1411 H 0.27894 0.23863 0.23644 0.0
H1412 H 0.31043 0.29822 0.26455 0.0
H1413 H 0.28798 0.27465 0.24294 0.0
H1414 H 0.24957 0.26035 0.29873 0.0
H1415 H 0.27156 0.28458 0.31996 0.0
C1416 C 0.21797 0.23635 0.2476 0.0
C1417 C 0.22683 0.22377 0.23128 0.0
C1418 C 0.23091 0.25001 0.25968 0.0
C1419 C 0.25308 0.25117 0.25592 0.0
C1420 C 0.26191 0.23847 0.23958 0.0
C1421 C 0.24889 0.22502 0.2273 0.0
C1422 C 0.29719 0.28996 0.27212 0.0
C1423 C 0.29263 0.29327 0.29386 0.0
C1424 C 0.28437 0.27637 0.25979 0.0
C1425 C 0.26688 0.26557 0.26903 0.0
C1426 C 0.26258 0.26872 0.29091 0.0
C1427 C 0.27522 0.28253 0.30314 0.0
H1428 H 0.8136 0.26684 0.22303 0.0
H1429 H 0.76999 0.31967 0.23184 0.0
H1430 H 0.79093 0.24441 0.24521 0.0
H1431 H 0.74651 0.29675 0.25277 0.0
H1432 H 0.72101 0.25692 0.30846 0.0
H1433 H 0.7437 0.27981 0.28644 0.0
H1434 H 0.75804 0.22597 0.24552 0.0
H1435 H 0.73593 0.20303 0.26808 0.0
C1436 C 0.79917 0.27371 0.22968 0.0
C1437 C 0.79374 0.29517 0.22569 0.0
C1438 C 0.78595 0.2607 0.24215 0.0
C1439 C 0.76679 0.26869 0.25079 0.0
C1440 C 0.76126 0.29009 0.24665 0.0
C1441 C 0.7746 0.30318 0.23434 0.0
C1442 C 0.72896 0.25006 0.29468 0.0
C1443 C 0.72678 0.22822 0.28998 0.0
C1444 C 0.7419 0.26318 0.28199 0.0
C1445 C 0.75277 0.25478 0.26415 0.0
C1446 C 0.75029 0.23293 0.25934 0.0
C1447 C 0.73756 0.21978 0.2722 0.0
H1448 H 0.27331 0.70354 0.23297 0.0
H1449 H 0.3191 0.75514 0.22817 0.0
H1450 H 0.25089 0.72552 0.25603 0.0
H1451 H 0.29674 0.77711 0.25134 0.0
H1452 H 0.23989 0.81763 0.27348 0.0
H1453 H 0.26263 0.79556 0.25083 0.0
H1454 H 0.25017 0.74108 0.29155 0.0
H1455 H 0.22672 0.76292 0.31367 0.0
C1456 C 0.2787 0.7195 0.23703 0.0
C1457 C 0.29797 0.72761 0.22873 0.0
C1458 C 0.26586 0.7321 0.25026 0.0
C1459 C 0.27202 0.75308 0.25553 0.0
C1460 C 0.29136 0.76114 0.24732 0.0
C1461 C 0.30418 0.74855 0.23406 0.0
C1462 C 0.24185 0.80089 0.27749 0.0
C1463 C 0.23143 0.79202 0.29535 0.0
C1464 C 0.25509 0.78831 0.26465 0.0
C1465 C 0.25823 0.76655 0.26938 0.0
C1466 C 0.24791 0.75772 0.28733 0.0
C1467 C 0.23467 0.7703 0.30016 0.0
H1468 H 0.78182 0.69927 0.26971 0.0
H1469 H 0.78871 0.75072 0.31532 0.0
H1470 H 0.75925 0.72194 0.24742 0.0
H1471 H 0.76619 0.77343 0.293 0.0
H1472 H 0.7076 0.80024 0.25797 0.0
H1473 H 0.7294 0.77722 0.28072 0.0
H1474 H 0.76234 0.75347 0.22483 0.0
H1475 H 0.74054 0.77643 0.20211 0.0
C1476 C 0.77862 0.71547 0.27491 0.0
C1477 C 0.78709 0.7232 0.29426 0.0
C1478 C 0.7657 0.72847 0.26213 0.0
C1479 C 0.76096 0.74952 0.2684 0.0
C1480 C 0.76928 0.75719 0.28786 0.0
C1481 C 0.78219 0.74418 0.30064 0.0
C1482 C 0.71961 0.79022 0.25057 0.0
C1483 C 0.72232 0.79014 0.22823 0.0
C1484 C 0.7321 0.77703 0.2636 0.0
C1485 C 0.74759 0.76348 0.25459 0.0
C1486 C 0.7503 0.76344 0.23225 0.0
C1487 C 0.73781 0.77661 0.21923 0.0
H1488 H 0.30253 0.76227 0.70871 0.0
H1489 H 0.28337 0.81792 0.74494 0.0
H1490 H 0.28057 0.73974 0.73185 0.0
H1491 H 0.261 0.7954 0.76759 0.0
H1492 H 0.20524 0.75071 0.7863 0.0
H1493 H 0.2277 0.77288 0.7634 0.0
H1494 H 0.27964 0.7281 0.77075 0.0
H1495 H 0.25744 0.70612 0.79419 0.0
C1496 C 0.29378 0.76971 0.72165 0.0
C1497 C 0.29472 0.79196 0.72489 0.0
C1498 C 0.28115 0.75678 0.73486 0.0
C1499 C 0.26903 0.76584 0.75146 0.0
C1500 C 0.26994 0.78803 0.75471 0.0
C1501 C 0.28271 0.80093 0.74166 0.0
C1502 C 0.22153 0.74568 0.78331 0.0
C1503 C 0.22953 0.72663 0.79222 0.0
C1504 C 0.23436 0.75837 0.77011 0.0
C1505 C 0.25541 0.75222 0.76532 0.0
C1506 C 0.26338 0.7331 0.77399 0.0
C1507 C 0.25062 0.72049 0.78737 0.0
H1508 H 0.76216 0.71065 0.72035 0.0
H1509 H 0.7061 0.74526 0.74085 0.0
H1510 H 0.78447 0.73314 0.74326 0.0
H1511 H 0.72834 0.76795 0.76345 0.0
H1512 H 0.77056 0.78938 0.81863 0.0
H1513 H 0.74899 0.7663 0.79574 0.0
H1514 H 0.79789 0.76911 0.74693 0.0
H1515 H 0.81959 0.79196 0.77002 0.0
C1516 C 0.75465 0.72321 0.7296 0.0
C1517 C 0.73239 0.72613 0.7289 0.0
C1518 C 0.76742 0.73611 0.7427 0.0
C1519 C 0.7582 0.7523 0.75529 0.0
C1520 C 0.73593 0.75536 0.75432 0.0
C1521 C 0.72318 0.74239 0.74134 0.0
C1522 C 0.77664 0.78513 0.80296 0.0
C1523 C 0.79673 0.79253 0.79609 0.0
C1524 C 0.76427 0.77194 0.78982 0.0
C1525 C 0.77165 0.76593 0.76943 0.0
C1526 C 0.79185 0.77319 0.76264 0.0
C1527 C 0.80427 0.78631 0.77585 0.0
H1528 H 0.71684 0.26124 0.80591 0.0
H1529 H 0.74887 0.31744 0.78134 0.0
H1530 H 0.74024 0.23866 0.78464 0.0
H1531 H 0.7713 0.29493 0.75902 0.0
H1532 H 0.82233 0.24849 0.73702 0.0
H1533 H 0.80012 0.27039 0.76037 0.0
H1534 H 0.74646 0.22824 0.74866 0.0
H1535 H 0.76894 0.20607 0.72583 0.0
C1536 C 0.72889 0.26881 0.79602 0.0
C1537 C 0.73093 0.2912 0.79539 0.0
C1538 C 0.74212 0.25584 0.78356 0.0
C1539 C 0.75764 0.26493 0.77002 0.0
C1540 C 0.75972 0.28732 0.76944 0.0
C1541 C 0.74661 0.30028 0.78203 0.0
C1542 C 0.80578 0.24396 0.73946 0.0
C1543 C 0.79734 0.22561 0.72961 0.0
C1544 C 0.79301 0.25654 0.75277 0.0
C1545 C 0.77143 0.25117 0.75637 0.0
C1546 C 0.76307 0.23269 0.74657 0.0
C1547 C 0.77592 0.22 0.73342 0.0
H1548 H 0.20588 0.26518 0.72638 0.0
H1549 H 0.2473 0.31909 0.73926 0.0
H1550 H 0.22802 0.24275 0.74933 0.0
H1551 H 0.26927 0.29667 0.76242 0.0
H1552 H 0.2906 0.25464 0.81891 0.0
H1553 H 0.26747 0.27719 0.79692 0.0
H1554 H 0.26442 0.22751 0.749 0.0
H1555 H 0.28708 0.20479 0.7712 0.0
C1556 C 0.21977 0.27223 0.734 0.0
C1557 C 0.22485 0.29393 0.7309 0.0
C1558 C 0.23243 0.25937 0.74717 0.0
C1559 C 0.25041 0.26793 0.75764 0.0
C1560 C 0.25536 0.28968 0.75478 0.0
C1561 C 0.24274 0.30253 0.74153 0.0
C1562 C 0.28482 0.24849 0.80377 0.0
C1563 C 0.29067 0.22796 0.79677 0.0
C1564 C 0.27175 0.26147 0.79109 0.0
C1565 C 0.26414 0.25413 0.77123 0.0
C1566 C 0.26987 0.23354 0.76432 0.0
C1567 C 0.28302 0.22062 0.77693 0.0
H1568 H 0.1288 0.94106 0.26908 0.0
H1569 H 0.14926 0.98373 0.31945 0.0
H1570 H 0.12676 0.97122 0.24431 0.0
H1571 H 0.14769 0.01379 0.29457 0.0
H1572 H 0.12352 0.06596 0.24957 0.0
H1573 H 0.12211 0.03555 0.27404 0.0
H1574 H 0.15173 0.99572 0.22608 0.0
H1575 H 0.15269 0.02602 0.20142 0.0
C1576 C 0.13268 0.9569 0.27493 0.0
C1577 C 0.1392 0.95996 0.29627 0.0
C1578 C 0.13173 0.97415 0.26066 0.0
C1579 C 0.13712 0.99493 0.26742 0.0
C1580 C 0.14325 0.99805 0.28887 0.0
C1581 C 0.14435 0.98077 0.30309 0.0
C1582 C 0.12944 0.05064 0.24412 0.0
C1583 C 0.13821 0.04845 0.22351 0.0
C1584 C 0.12884 0.03326 0.25824 0.0
C1585 C 0.13688 0.0132 0.25208 0.0
C1586 C 0.14525 0.01089 0.2313 0.0
C1587 C 0.14597 0.02831 0.21723 0.0
H1588 H 0.87474 0.49139 0.19845 0.0
H1589 H 0.89356 0.44819 0.24903 0.0
H1590 H 0.87536 0.52106 0.22367 0.0
H1591 H 0.89523 0.47803 0.27398 0.0
H1592 H 0.86965 0.53106 0.31778 0.0
H1593 H 0.87152 0.50142 0.29264 0.0
H1594 H 0.89805 0.54367 0.24474 0.0
H1595 H 0.89518 0.57356 0.26955 0.0
C1596 C 0.87913 0.4882 0.21492 0.0
C1597 C 0.884 0.4673 0.22166 0.0
C1598 C 0.87976 0.50531 0.22936 0.0
C1599 C 0.88531 0.50201 0.25094 0.0
C1600 C 0.89061 0.48117 0.25757 0.0
C1601 C 0.88994 0.46406 0.24315 0.0
C1602 C 0.87578 0.53409 0.30185 0.0
C1603 C 0.88214 0.55481 0.29572 0.0
C1604 C 0.87711 0.51699 0.28748 0.0
C1605 C 0.8849 0.52008 0.26657 0.0
C1606 C 0.8917 0.5407 0.26059 0.0
C1607 C 0.89032 0.55783 0.27496 0.0
H1608 H 0.27863 0.12073 0.95788 0.0
H1609 H 0.31617 0.16989 0.98884 0.0
H1610 H 0.25537 0.11882 0.98906 0.0
H1611 H 0.29219 0.1689 0.01942 0.0
H1612 H 0.25735 0.14938 0.0798 0.0
H1613 H 0.28171 0.14829 0.04941 0.0
H1614 H 0.22806 0.1384 1.00683 0.0
H1615 H 0.20379 0.13898 0.0374 0.0
C1616 C 0.28203 0.13107 0.97135 0.0
C1617 C 0.29936 0.14547 0.97075 0.0
C1618 C 0.26846 0.1302 0.98916 0.0
C1619 C 0.27176 0.14377 1.00682 0.0
C1620 C 0.28923 0.158 1.00629 0.0
C1621 C 0.30286 0.15879 0.98856 0.0
C1622 C 0.25077 0.147 0.06393 0.0
C1623 C 0.22862 0.14436 0.06101 0.0
C1624 C 0.26474 0.14644 0.04646 0.0
C1625 C 0.25692 0.14339 0.02555 0.0
C1626 C 0.23475 0.14046 0.02269 0.0
C1627 C 0.22079 0.14085 0.04021 0.0
H1628 H 0.7716 0.38636 0.07084 0.0
H1629 H 0.82376 0.36603 0.03039 0.0
H1630 H 0.74768 0.38617 0.04012 0.0
H1631 H 0.80008 0.36696 0.99942 0.0
H1632 H 0.74654 0.34521 0.95451 0.0
H1633 H 0.77104 0.34714 0.98464 0.0
H1634 H 0.73875 0.40375 1.00738 0.0
H1635 H 0.71344 0.40114 0.97776 0.0
C1636 C 0.77802 0.38192 0.05538 0.0
C1637 C 0.79963 0.37602 0.05321 0.0
C1638 C 0.76433 0.3821 0.03766 0.0
C1639 C 0.77186 0.37649 0.01722 0.0
C1640 C 0.7936 0.37107 0.01495 0.0
C1641 C 0.80729 0.37082 0.0327 0.0
C1642 C 0.74445 0.35795 0.96605 0.0
C1643 C 0.7278 0.37289 0.96374 0.0
C1644 C 0.75877 0.35925 0.9832 0.0
C1645 C 0.75696 0.37562 0.99852 0.0
C1646 C 0.7405 0.39077 0.99607 0.0
C1647 C 0.72611 0.38942 0.97891 0.0
H1648 H 0.26942 0.8871 0.57347 0.0
H1649 H 0.32335 0.8735 0.53238 0.0
H1650 H 0.24578 0.88591 0.5428 0.0
H1651 H 0.30005 0.87461 0.50147 0.0
H1652 H 0.2515 0.85308 0.4527 0.0
H1653 H 0.27496 0.85526 0.48329 0.0
H1654 H 0.23303 0.90193 0.51224 0.0
H1655 H 0.20832 0.89804 0.48249 0.0
C1656 C 0.27636 0.88396 0.55793 0.0
C1657 C 0.29845 0.88013 0.55569 0.0
C1658 C 0.26274 0.88371 0.54013 0.0
C1659 C 0.2708 0.88007 0.51942 0.0
C1660 C 0.293 0.87698 0.5171 0.0
C1661 C 0.30655 0.87678 0.53494 0.0
C1662 C 0.24692 0.86351 0.46573 0.0
C1663 C 0.22764 0.87511 0.46504 0.0
C1664 C 0.26076 0.86513 0.48323 0.0
C1665 C 0.25611 0.87882 0.50047 0.0
C1666 C 0.23711 0.89089 0.49956 0.0
C1667 C 0.22301 0.88893 0.4822 0.0
H1668 H 0.69947 0.65838 0.53321 0.0
H1669 H 0.74541 0.623 0.57075 0.0
H1670 H 0.72338 0.6569 0.50244 0.0
H1671 H 0.76904 0.6209 0.53974 0.0
H1672 H 0.81569 0.64565 0.48767 0.0
H1673 H 0.79171 0.64457 0.51844 0.0
H1674 H 0.73825 0.63225 0.47636 0.0
H1675 H 0.7622 0.63324 0.44562 0.0
C1676 C 0.71463 0.6502 0.53488 0.0
C1677 C 0.72051 0.64087 0.5545 0.0
C1678 C 0.72826 0.64915 0.51716 0.0
C1679 C 0.74817 0.63879 0.51859 0.0
C1680 C 0.75393 0.6292 0.53813 0.0
C1681 C 0.74025 0.63018 0.55584 0.0
C1682 C 0.79888 0.64241 0.48499 0.0
C1683 C 0.7909 0.63965 0.46411 0.0
C1684 C 0.7851 0.6418 0.50266 0.0
C1685 C 0.763 0.63843 0.49989 0.0
C1686 C 0.75511 0.63527 0.47905 0.0
C1687 C 0.76886 0.63584 0.46141 0.0
H1688 H 0.98073 0.30639 0.11769 0.0
H1689 H 0.95784 0.27694 0.17592 0.0
H1690 H 0.01139 0.2822 0.11761 0.0
H1691 H 0.98785 0.25231 0.17535 0.0
H1692 H 0.05568 0.22692 0.18116 0.0
H1693 H 0.02587 0.25184 0.18078 0.0
H1694 H 0.02062 0.24476 0.1122 0.0
H1695 H 0.05062 0.21977 0.11258 0.0
C1696 C 0.98223 0.2948 0.13049 0.0
C1697 C 0.96674 0.29363 0.14678 0.0
C1698 C 0.99968 0.28075 0.1303 0.0
C1699 C 1.00213 0.26525 0.14646 0.0
C1700 C 0.98667 0.26417 0.16277 0.0
C1701 C 0.96926 0.27816 0.16294 0.0
C1702 C 0.04804 0.23046 0.166 0.0
C1703 C 0.05548 0.22115 0.14692 0.0
C1704 C 0.03092 0.24481 0.16578 0.0
C1705 C 0.02071 0.25028 0.14648 0.0
C1706 C 0.02825 0.24113 0.12734 0.0
C1707 C 0.04543 0.22676 0.12756 0.0
H1708 H 0.98301 0.69996 0.38818 0.0
H1709 H 0.94509 0.75205 0.36309 0.0
H1710 H 0.0146 0.72295 0.3877 0.0
H1711 H 0.97652 0.7751 0.36353 0.0
H1712 H 0.03405 0.81434 0.39067 0.0
H1713 H 1.0022 0.79164 0.39105 0.0
H1714 H 0.03726 0.74165 0.35909 0.0
H1715 H 0.0688 0.76445 0.35783 0.0
C1716 C 0.98133 0.71622 0.3825 0.0
C1717 C 0.96132 0.72404 0.37573 0.0
C1718 C 0.99946 0.72943 0.38233 0.0
C1719 C 0.99801 0.75085 0.37566 0.0
C1720 C 0.97807 0.75875 0.36905 0.0
C1721 C 0.96001 0.74549 0.36892 0.0
C1722 C 0.03496 0.79864 0.38345 0.0
C1723 C 0.0542 0.79129 0.37435 0.0
C1724 C 0.0167 0.7856 0.38377 0.0
C1725 C 0.01729 0.76481 0.37525 0.0
C1726 C 0.03642 0.75746 0.36612 0.0
C1727 C 0.05456 0.77056 0.36551 0.0
H1728 H 0.55252 0.72134 0.61673 0.0
H1729 H 0.55825 0.73441 0.68449 0.0
H1730 H 0.52214 0.74573 0.61472 0.0
H1731 H 0.52864 0.75949 0.68204 0.0
H1732 H 0.4918 0.8206 0.66143 0.0
H1733 H 0.52176 0.79574 0.66273 0.0
H1734 H 0.48361 0.74786 0.63084 0.0
H1735 H 0.4532 0.77216 0.63041 0.0
C1736 C 0.54731 0.72922 0.63123 0.0
C1737 C 0.55807 0.72583 0.65077 0.0
C1738 C 0.52996 0.74332 0.63 0.0
C1739 C 0.52316 0.75463 0.64818 0.0
C1740 C 0.53377 0.75125 0.66769 0.0
C1741 C 0.55085 0.7369 0.66903 0.0
C1742 C 0.48959 0.80472 0.65491 0.0
C1743 C 0.46986 0.79851 0.64589 0.0
C1744 C 0.50685 0.79052 0.65557 0.0
C1745 C 0.50499 0.76988 0.64691 0.0
C1746 C 0.48555 0.76376 0.63745 0.0
C1747 C 0.46815 0.77781 0.6371 0.0
H1748 H 0.84338 0.03941 0.713 0.0
H1749 H 0.90634 0.05892 0.73401 0.0
H1750 H 0.84424 1.00959 0.73806 0.0
H1751 H 0.90727 0.02881 0.75891 0.0
H1752 H 0.90745 0.9594 0.78592 0.0
H1753 H 0.90819 0.98901 0.76038 0.0
H1754 H 0.84319 1.005 0.77723 0.0
H1755 H 0.8425 0.97574 0.8029 0.0
C1756 C 0.85739 0.0374 0.723 0.0
C1757 C 0.87471 0.05174 0.72156 0.0
C1758 C 0.85788 0.02027 0.73737 0.0
C1759 C 0.87574 0.01692 0.75063 0.0
C1760 C 0.89334 0.03085 0.7488 0.0
C1761 C 0.89281 0.04808 0.73447 0.0
C1762 C 0.89341 0.9694 0.78439 0.0
C1763 C 0.87486 0.96505 0.79643 0.0
C1764 C 0.89383 0.98634 0.7697 0.0
C1765 C 0.87568 0.99925 0.76662 0.0
C1766 C 0.85729 0.9951 0.77888 0.0
C1767 C 0.8569 0.97829 0.79361 0.0
H1768 H 0.11421 0.56366 0.78226 0.0
H1769 H 0.17792 0.54551 0.80198 0.0
H1770 H 0.11338 0.5336 0.75727 0.0
H1771 H 0.17717 0.51583 0.77684 0.0
H1772 H 0.17844 0.48091 0.71303 0.0
H1773 H 0.17739 0.51108 0.7376 0.0
H1774 H 0.11325 0.49358 0.75641 0.0
H1775 H 0.11437 0.46308 0.73199 0.0
C1776 C 0.12795 0.55317 0.78146 0.0
C1777 C 0.1462 0.55715 0.79406 0.0
C1778 C 0.12748 0.53598 0.76707 0.0
C1779 C 0.1453 0.52246 0.76489 0.0
C1780 C 0.16335 0.5262 0.77779 0.0
C1781 C 0.16377 0.54326 0.79221 0.0
C1782 C 0.16414 0.48337 0.72247 0.0
C1783 C 0.14658 0.46938 0.72064 0.0
C1784 C 0.16354 0.5007 0.73656 0.0
C1785 C 0.14532 0.50461 0.74913 0.0
C1786 C 0.12748 0.49108 0.74684 0.0
C1787 C 0.12811 0.47362 0.7328 0.0
H1788 H 0.74798 0.89622 0.07378 0.0
H1789 H 0.70561 0.85621 0.03679 0.0
H1790 H 0.77359 0.89658 0.04428 0.0
H1791 H 0.73044 0.85743 1.00679 0.0
H1792 H 0.78721 0.84342 0.96534 0.0
H1793 H 0.76271 0.84395 0.99522 0.0
H1794 H 0.78224 0.90862 1.01008 0.0
H1795 H 0.80831 0.90735 0.98128 0.0
C1796 C 0.74402 0.88782 0.05914 0.0
C1797 C 0.72491 0.87611 0.05755 0.0
C1798 C 0.75864 0.88808 0.04215 0.0
C1799 C 0.7543 0.87689 0.02304 0.0
C1800 C 0.73474 0.86575 0.02136 0.0
C1801 C 0.72036 0.86518 0.03848 0.0
C1802 C 0.78673 0.85763 0.9752 0.0
C1803 C 0.80003 0.87529 0.97078 0.0
C1804 C 0.77223 0.8581 0.9922 0.0
C1805 C 0.77017 0.87641 1.00512 0.0
C1806 C 0.78343 0.89411 1.00072 0.0
C1807 C 0.79823 0.8935 0.9839 0.0
H1808 H 0.22465 0.67904 0.97009 0.0
H1809 H 0.22251 0.60999 0.97199 0.0
H1810 H 0.2489 0.67918 1.00044 0.0
H1811 H 0.24791 0.6101 1.00158 0.0
H1812 H 0.27773 0.61918 0.06826 0.0
H1813 H 0.25227 0.61816 0.03861 0.0
H1814 H 0.2849 0.67152 1.00901 0.0
H1815 H 0.3099 0.6728 0.03889 0.0
C1816 C 0.22923 0.66385 0.97702 0.0
C1817 C 0.22149 0.6445 0.96851 0.0
C1818 C 0.24348 0.66393 0.99427 0.0
C1819 C 0.2506 0.64465 1.00343 0.0
C1820 C 0.24269 0.62528 0.9951 0.0
C1821 C 0.22829 0.62521 0.97791 0.0
C1822 C 0.27952 0.63056 0.05531 0.0
C1823 C 0.29576 0.64613 0.05595 0.0
C1824 C 0.26495 0.62997 0.03828 0.0
C1825 C 0.26637 0.64485 0.0214 0.0
C1826 C 0.28294 0.66012 0.02192 0.0
C1827 C 0.29736 0.66081 0.03901 0.0
H1828 H 0.70472 0.12852 0.48571 0.0
H1829 H 0.75128 0.1646 0.44958 0.0
H1830 H 0.72927 0.12741 0.51619 0.0
H1831 H 0.77593 0.16318 0.47971 0.0
H1832 H 0.80425 0.17905 0.54463 0.0
H1833 H 0.77995 0.17836 0.5143 0.0
H1834 H 0.76249 0.11323 0.5296 0.0
H1835 H 0.78606 0.11433 0.56074 0.0
C1836 C 0.7203 0.13599 0.48421 0.0
C1837 C 0.72596 0.14687 0.46534 0.0
C1838 C 0.73441 0.13532 0.50164 0.0
C1839 C 0.75456 0.14539 0.50053 0.0
C1840 C 0.76038 0.15571 0.48138 0.0
C1841 C 0.74625 0.15649 0.46406 0.0
C1842 C 0.79508 0.16463 0.54171 0.0
C1843 C 0.7971 0.14678 0.55526 0.0
C1844 C 0.78132 0.16413 0.52408 0.0
C1845 C 0.76927 0.1457 0.51936 0.0
C1846 C 0.77135 0.12777 0.53283 0.0
C1847 C 0.7851 0.12831 0.55055 0.0
H1848 H 0.2374 0.40647 0.56237 0.0
H1849 H 0.22265 0.34051 0.54773 0.0
H1850 H 0.26262 0.40741 0.53252 0.0
H1851 H 0.24825 0.34139 0.5184 0.0
H1852 H 0.31281 0.34389 0.48414 0.0
H1853 H 0.28802 0.34456 0.51419 0.0
H1854 H 0.26276 0.40483 0.49205 0.0
H1855 H 0.28719 0.40397 0.46156 0.0
C1856 C 0.23935 0.39223 0.55273 0.0
C1857 C 0.22799 0.37338 0.55761 0.0
C1858 C 0.25389 0.39277 0.53567 0.0
C1859 C 0.25756 0.37442 0.52323 0.0
C1860 C 0.24607 0.35567 0.52795 0.0
C1861 C 0.23142 0.35518 0.54482 0.0
C1862 C 0.3019 0.35724 0.48553 0.0
C1863 C 0.30194 0.37379 0.47024 0.0
C1864 C 0.28771 0.35763 0.50281 0.0
C1865 C 0.27332 0.37466 0.5054 0.0
C1866 C 0.27377 0.39156 0.49056 0.0
C1867 C 0.28785 0.39109 0.47313 0.0
H1868 H 0.07435 0.75394 0.86858 0.0
H1869 H 0.03351 0.70135 0.88712 0.0
H1870 H 0.04393 0.77824 0.87034 0.0
H1871 H 1.00307 0.72579 0.88927 0.0
H1872 H 0.95095 0.77096 0.86181 0.0
H1873 H 0.98123 0.74648 0.86347 0.0
H1874 H 0.0186 0.79471 0.89596 0.0
H1875 H 0.98835 0.81941 0.89394 0.0
C1876 C 0.05887 0.74759 0.87309 0.0
C1877 C 0.05631 0.72568 0.87755 0.0
C1878 C 0.04148 0.76156 0.87432 0.0
C1879 C 0.02106 0.75395 0.8799 0.0
C1880 C 0.01856 0.73211 0.88473 0.0
C1881 C 0.03602 0.71814 0.88368 0.0
C1882 C 0.96565 0.77637 0.86925 0.0
C1883 C 0.9673 0.7972 0.87759 0.0
C1884 C 0.98292 0.76225 0.87042 0.0
C1885 C 1.00234 0.76864 0.87983 0.0
C1886 C 1.00392 0.78937 0.88844 0.0
C1887 C 0.98655 0.80346 0.88743 0.0
H1888 H 0.07336 0.27227 0.62844 0.0
H1889 H 0.03159 0.31807 0.65861 0.0
H1890 H 0.0441 0.24607 0.6277 0.0
H1891 H 1.00218 0.29202 0.65743 0.0
H1892 H 0.95138 0.2455 0.62702 0.0
H1893 H 0.9807 0.27162 0.62625 0.0
H1894 H 0.02163 0.22665 0.65885 0.0
H1895 H 0.99214 0.20069 0.66005 0.0
C1896 C 0.05784 0.27677 0.63468 0.0
C1897 C 0.05465 0.29716 0.64354 0.0
C1898 C 0.04119 0.26178 0.63437 0.0
C1899 C 0.02094 0.26707 0.64249 0.0
C1900 C 0.01763 0.28761 0.65097 0.0
C1901 C 0.03442 0.30245 0.65171 0.0
C1902 C 0.9667 0.24118 0.63387 0.0
C1903 C 0.96958 0.2211 0.64354 0.0
C1904 C 0.98338 0.25613 0.63355 0.0
C1905 C 1.00338 0.2511 0.64248 0.0
C1906 C 1.00639 0.23085 0.65176 0.0
C1907 C 0.98956 0.21607 0.65251 0.0
H1908 H 0.57277 0.25291 0.36024 0.0
H1909 H 0.53352 0.20199 0.38558 0.0
H1910 H 0.54214 0.27711 0.36133 0.0
H1911 H 0.5028 0.22626 0.3867 0.0
H1912 H 0.4494 0.26951 0.35723 0.0
H1913 H 0.47998 0.24525 0.35885 0.0
H1914 H 0.51783 0.29479 0.38867 0.0
H1915 H 0.48719 0.31911 0.38702 0.0
C1916 C 0.55757 0.24691 0.36605 0.0
C1917 C 0.5555 0.22553 0.37272 0.0
C1918 C 0.5401 0.26081 0.36684 0.0
C1919 C 0.52007 0.25357 0.37408 0.0
C1920 C 0.51801 0.23223 0.38092 0.0
C1921 C 0.5356 0.2184 0.38041 0.0
C1922 C 0.46427 0.27522 0.3641 0.0
C1923 C 0.46595 0.29624 0.3719 0.0
C1924 C 0.4817 0.26127 0.3652 0.0
C1925 C 0.50129 0.26812 0.37388 0.0
C1926 C 0.50296 0.28911 0.38178 0.0
C1927 C 0.48541 0.30298 0.38095 0.0
H1928 H 0.6282 0.57049 0.75021 0.0
H1929 H 0.66296 0.53181 0.70487 0.0
H1930 H 0.62692 0.54025 0.77511 0.0
H1931 H 0.66167 0.5016 0.72973 0.0
H1932 H 0.63469 0.44663 0.77098 0.0
H1933 H 0.63387 0.47689 0.7462 0.0
H1934 H 0.65413 0.51904 0.79705 0.0
H1935 H 0.65493 0.48873 0.82189 0.0
C1936 C 0.63538 0.55546 0.7455 0.0
C1937 C 0.64566 0.55349 0.72558 0.0
C1938 C 0.63481 0.53823 0.75981 0.0
C1939 C 0.64421 0.51856 0.75438 0.0
C1940 C 0.65415 0.5165 0.7343 0.0
C1941 C 0.65501 0.53382 0.72013 0.0
C1942 C 0.63876 0.46239 0.77692 0.0
C1943 C 0.64484 0.46531 0.7984 0.0
C1944 C 0.63846 0.47967 0.76269 0.0
C1945 C 0.64396 0.50032 0.76967 0.0
C1946 C 0.64967 0.50333 0.79124 0.0
C1947 C 0.65027 0.48598 0.80542 0.0
H1948 H 0.3551 0.06783 0.77566 0.0
H1949 H 0.39666 0.03589 0.82065 0.0
H1950 H 0.3579 0.0375 0.75131 0.0
H1951 H 0.39973 1.00555 0.79606 0.0
H1952 H 0.37574 0.94619 0.75747 0.0
H1953 H 0.37605 0.97662 0.78182 0.0
H1954 H 0.38456 0.01942 0.72826 0.0
H1955 H 0.38473 0.989 0.70387 0.0
C1956 C 0.36483 0.0543 0.78035 0.0
C1957 C 0.37554 0.0542 0.80015 0.0
C1958 C 0.36661 0.03701 0.7663 0.0
C1959 C 0.37905 0.01911 0.77173 0.0
C1960 C 0.3899 0.01904 0.79148 0.0
C1961 C 0.38827 0.03647 0.80548 0.0
C1962 C 0.37808 0.96203 0.75086 0.0
C1963 C 0.38014 0.96505 0.72861 0.0
C1964 C 0.3782 0.97949 0.76486 0.0
C1965 C 0.38023 1.00045 0.75698 0.0
C1966 C 0.38264 1.00349 0.73481 0.0
C1967 C 0.38268 0.98603 0.72082 0.0
H1968 H 0.44467 0.25369 0.86886 0.0
H1969 H 0.48659 0.20189 0.88679 0.0
H1970 H 0.47464 0.27857 0.87037 0.0
H1971 H 0.51675 0.22679 0.88811 0.0
H1972 H 0.56339 0.28062 0.90492 0.0
H1973 H 0.53232 0.25695 0.90695 0.0
H1974 H 0.50625 0.2865 0.85013 0.0
H1975 H 0.53675 0.31065 0.84864 0.0
C1976 C 0.46034 0.24759 0.87302 0.0
C1977 C 0.46327 0.22575 0.87748 0.0
C1978 C 0.47755 0.26186 0.87388 0.0
C1979 C 0.4982 0.2547 0.87917 0.0
C1980 C 0.50104 0.23293 0.88419 0.0
C1981 C 0.48377 0.21863 0.8834 0.0
C1982 C 0.55085 0.28229 0.89307 0.0
C1983 C 0.55262 0.29754 0.87659 0.0
C1984 C 0.53315 0.26853 0.89408 0.0
C1985 C 0.51676 0.26974 0.87868 0.0
C1986 C 0.51841 0.28523 0.86242 0.0
C1987 C 0.53606 0.29894 0.86141 0.0
H1988 H 0.4054 0.55804 0.23218 0.0
H1989 H 0.34067 0.54142 0.21429 0.0
H1990 H 0.40614 0.52794 0.25709 0.0
H1991 H 0.34134 0.51167 0.23944 0.0
H1992 H 0.34152 0.47785 0.30446 0.0
H1993 H 0.34221 0.50718 0.27883 0.0
H1994 H 0.40518 0.48797 0.25816 0.0
H1995 H 0.40439 0.45826 0.28356 0.0
C1996 C 0.39142 0.54785 0.23333 0.0
C1997 C 0.37292 0.55231 0.22127 0.0
C1998 C 0.39184 0.53063 0.24767 0.0
C1999 C 0.37373 0.51754 0.2504 0.0
C2000 C 0.35542 0.52171 0.23803 0.0
C2001 C 0.35504 0.53881 0.22361 0.0
C2002 C 0.35546 0.4797 0.29435 0.0
C2003 C 0.37284 0.46554 0.29605 0.0
C2004 C 0.35585 0.49656 0.27965 0.0
C2005 C 0.37368 0.49983 0.26634 0.0
C2006 C 0.39127 0.48598 0.26831 0.0
C2007 C 0.39083 0.46899 0.28294 0.0
H2008 H 0.61777 0.06398 0.28281 0.0
H2009 H 0.67908 0.04281 0.30672 0.0
H2010 H 0.61709 0.03388 0.25791 0.0
H2011 H 0.67853 0.0131 0.28157 0.0
H2012 H 0.68164 0.9782 0.21736 0.0
H2013 H 0.68086 1.00816 0.24221 0.0
H2014 H 0.61502 0.99386 0.25745 0.0
H2015 H 0.61585 0.96352 0.23288 0.0
C2016 C 0.63099 0.05282 0.28296 0.0
C2017 C 0.64854 0.05595 0.29676 0.0
C2018 C 0.63062 0.03561 0.26861 0.0
C2019 C 0.64784 0.02121 0.26763 0.0
C2020 C 0.6652 0.02414 0.28164 0.0
C2021 C 0.66551 0.04122 0.29606 0.0
C2022 C 0.66701 0.98127 0.22611 0.0
C2023 C 0.64886 0.96825 0.22317 0.0
C2024 C 0.66657 0.9985 0.24035 0.0
C2025 C 0.64793 1.0033 0.25193 0.0
C2026 C 0.62958 0.99068 0.24864 0.0
C2027 C 0.63006 0.97331 0.23448 0.0
H2028 H 0.57065 0.77641 0.12525 0.0
H2029 H 0.52878 0.81955 0.15899 0.0
H2030 H 0.54198 0.74954 0.12402 0.0
H2031 H 0.49991 0.7929 0.15724 0.0
H2032 H 0.44968 0.74596 0.12556 0.0
H2033 H 0.47833 0.77286 0.12468 0.0
H2034 H 0.52081 0.72868 0.15634 0.0
H2035 H 0.49197 0.70198 0.15776 0.0
C2036 C 0.5552 0.78021 0.13211 0.0
C2037 C 0.55182 0.80001 0.14214 0.0
C2038 C 0.5389 0.76484 0.13152 0.0
C2039 C 0.5188 0.76922 0.14051 0.0
C2040 C 0.51526 0.78922 0.15009 0.0
C2041 C 0.53172 0.8044 0.15114 0.0
C2042 C 0.46521 0.74199 0.13217 0.0
C2043 C 0.46872 0.72193 0.14167 0.0
C2044 C 0.48149 0.75737 0.13177 0.0
C2045 C 0.50171 0.75277 0.14042 0.0
C2046 C 0.50538 0.73253 0.14947 0.0
C2047 C 0.48893 0.71733 0.15033 0.0
loop_
_geom_bond_atom_site_label_1
_geom_bond_atom_site_label_2
_geom_bond_distance
_geom_bond_site_symmetry_2
_ccdc_geom_bond_type
Li0 N17 1.990 . S
Li0 O60 1.956 . S
Li0 O61 1.970 . S
Li0 O62 1.961 . S
Li1 N25 1.990 . S
Li1 O60 1.970 . S
Li1 O61 1.956 . S
Li1 O63 1.961 . S
Li2 N47 1.990 . S
Li2 O60 1.961 . S
Li2 O62 1.956 . S
Li2 O63 1.970 . S
Li3 N53 1.990 . S
Li3 O61 1.961 . S
Li3 O62 1.970 . S
Li3 O63 1.956 . S
C4 C6 1.348 . S
C4 C7 1.356 . S
C4 O60 1.325 . S
N5 C8 1.314 . S
N5 C9 1.279 . S
C6 C4 1.348 . S
C6 C8 1.353 . S
C6 H64 0.929 . S
C7 C4 1.356 . S
C7 C9 1.358 . S
C7 H65 0.930 . S
C8 N5 1.314 . S
C8 C6 1.353 . S
C8 H66 0.930 . S
C9 N5 1.279 . S
C9 C7 1.358 . S
C9 H67 0.930 . S
C10 C13 1.348 . S
C10 C14 1.356 . S
C10 O61 1.325 . S
C11 N12 1.279 . S
C11 C14 1.358 . S
C11 H68 0.930 . S
N12 C11 1.279 . S
N12 C15 1.314 . S
C13 C10 1.348 . S
C13 C15 1.353 . S
C13 H69 0.929 . S
C14 C10 1.356 . S
C14 C11 1.358 . S
C14 H70 0.930 . S
C15 N12 1.314 . S
C15 C13 1.353 . S
C15 H71 0.930 . S
C16 N17 1.314 . S
C16 C21 1.353 . S
C16 H22 0.930 . S
N17 Li0 1.990 . S
N17 C16 1.314 . S
N17 C19 1.279 . S
C18 C19 1.358 . S
C18 C20 1.356 . S
C18 H72 0.930 . S
C19 N17 1.279 . S
C19 C18 1.358 . S
C19 H23 0.930 . S
C20 C18 1.356 . S
C20 C21 1.348 . S
C21 C16 1.353 . S
C21 C20 1.348 . S
C21 H73 0.929 . S
H22 C16 0.930 . S
H23 C19 0.930 . S
C24 N25 1.314 . S
C24 C26 1.353 . S
C24 H30 0.930 . S
N25 Li1 1.990 . S
N25 C24 1.314 . S
N25 C28 1.279 . S
C26 C24 1.353 . S
C26 C29 1.348 . S
C26 H74 0.929 . S
C27 C28 1.358 . S
C27 C29 1.356 . S
C27 H75 0.930 . S
C28 N25 1.279 . S
C28 C27 1.358 . S
C28 H31 0.930 . S
C29 C26 1.348 . S
C29 C27 1.356 . S
H30 C24 0.930 . S
H31 C28 0.930 . S
C32 C34 1.348 . S
C32 C35 1.356 . S
C32 O62 1.325 . S
N33 C36 1.314 . S
N33 C37 1.279 . S
C34 C32 1.348 . S
C34 C36 1.353 . S
C34 H76 0.929 . S
C35 C32 1.356 . S
C35 C37 1.358 . S
C35 H77 0.930 . S
C36 N33 1.314 . S
C36 C34 1.353 . S
C36 H78 0.930 . S
C37 N33 1.279 . S
C37 C35 1.358 . S
C37 H79 0.930 . S
C38 C39 1.348 . S
C38 C40 1.356 . S
C38 O63 1.325 . S
C39 C38 1.348 . S
C39 C41 1.353 . S
C39 H80 0.929 . S
C40 C38 1.356 . S
C40 C42 1.358 . S
C40 H81 0.930 . S
C41 C39 1.353 . S
C41 N43 1.314 . S
C41 H82 0.930 . S
C42 C40 1.358 . S
C42 N43 1.279 . S
C42 H83 0.930 . S
N43 C41 1.314 . S
N43 C42 1.279 . S
C44 C46 1.353 . S
C44 N47 1.314 . S
C44 H50 0.930 . S
C45 N47 1.279 . S
C45 C48 1.358 . S
C45 H51 0.930 . S
C46 C44 1.353 . S
C46 C49 1.348 . S
C46 H84 0.929 . S
N47 Li2 1.990 . S
N47 C44 1.314 . S
N47 C45 1.279 . S
C48 C45 1.358 . S
C48 C49 1.356 . S
C48 H85 0.930 . S
C49 C46 1.348 . S
C49 C48 1.356 . S
H50 C44 0.930 . S
H51 C45 0.930 . S
C52 N53 1.314 . S
C52 C54 1.353 . S
C52 H58 0.930 . S
N53 Li3 1.990 . S
N53 C52 1.314 . S
N53 C56 1.279 . S
C54 C52 1.353 . S
C54 C57 1.348 . S
C54 H86 0.929 . S
C55 C56 1.358 . S
C55 C57 1.356 . S
C55 H87 0.930 . S
C56 N53 1.279 . S
C56 C55 1.358 . S
C56 H59 0.930 . S
C57 C54 1.348 . S
C57 C55 1.356 . S
H58 C52 0.930 . S
H59 C56 0.930 . S
O60 Li0 1.956 . S
O60 Li1 1.970 . S
O60 Li2 1.961 . S
O60 C4 1.325 . S
O61 Li0 1.970 . S
O61 Li1 1.956 . S
O61 Li3 1.961 . S
O61 C10 1.325 . S
O62 Li0 1.961 . S
O62 Li2 1.956 . S
O62 Li3 1.970 . S
O62 C32 1.325 . S
O63 Li1 1.961 . S
O63 Li2 1.970 . S
O63 Li3 1.956 . S
O63 C38 1.325 . S
H64 C6 0.929 . S
H65 C7 0.930 . S
H66 C8 0.930 . S
H67 C9 0.930 . S
H68 C11 0.930 . S
H69 C13 0.929 . S
H70 C14 0.930 . S
H71 C15 0.930 . S
H72 C18 0.930 . S
H73 C21 0.929 . S
H74 C26 0.929 . S
H75 C27 0.930 . S
H76 C34 0.929 . S
H77 C35 0.930 . S
H78 C36 0.930 . S
H79 C37 0.930 . S
H80 C39 0.929 . S
H81 C40 0.930 . S
H82 C41 0.930 . S
H83 C42 0.930 . S
H84 C46 0.929 . S
H85 C48 0.930 . S
H86 C54 0.929 . S
H87 C55 0.930 . S
Li88 N105 1.990 . S
Li88 O148 1.956 . S
Li88 O149 1.970 . S
Li88 O150 1.961 . S
Li89 N113 1.990 . S
Li89 O148 1.970 . S
Li89 O149 1.956 . S
Li89 O151 1.961 . S
Li90 N135 1.990 . S
Li90 O148 1.961 . S
Li90 O150 1.956 . S
Li90 O151 1.970 . S
Li91 N141 1.990 . S
Li91 O149 1.961 . S
Li91 O150 1.970 . S
Li91 O151 1.956 . S
C92 C94 1.348 . S
C92 C95 1.356 . S
C92 O148 1.325 . S
N93 C96 1.314 . S
N93 C97 1.279 . S
C94 C92 1.348 . S
C94 C96 1.353 . S
C94 H152 0.929 . S
C95 C92 1.356 . S
C95 C97 1.358 . S
C95 H153 0.930 . S
C96 N93 1.314 . S
C96 C94 1.353 . S
C96 H154 0.930 . S
C97 N93 1.279 . S
C97 C95 1.358 . S
C97 H155 0.930 . S
C98 C101 1.348 . S
C98 C102 1.356 . S
C98 O149 1.325 . S
C99 N100 1.279 . S
C99 C102 1.358 . S
C99 H156 0.930 . S
N100 C99 1.279 . S
N100 C103 1.314 . S
C101 C98 1.348 . S
C101 C103 1.353 . S
C101 H157 0.929 . S
C102 C98 1.356 . S
C102 C99 1.358 . S
C102 H158 0.930 . S
C103 N100 1.314 . S
C103 C101 1.353 . S
C103 H159 0.930 . S
C104 N105 1.314 . S
C104 C109 1.353 . S
C104 H110 0.930 . S
N105 Li88 1.990 . S
N105 C104 1.314 . S
N105 C107 1.279 . S
C106 C107 1.358 . S
C106 C108 1.356 . S
C106 H160 0.930 . S
C107 N105 1.279 . S
C107 C106 1.358 . S
C107 H111 0.930 . S
C108 C106 1.356 . S
C108 C109 1.348 . S
C109 C104 1.353 . S
C109 C108 1.348 . S
C109 H161 0.929 . S
H110 C104 0.930 . S
H111 C107 0.930 . S
C112 N113 1.314 . S
C112 C114 1.353 . S
C112 H118 0.930 . S
N113 Li89 1.990 . S
N113 C112 1.314 . S
N113 C116 1.279 . S
C114 C112 1.353 . S
C114 C117 1.348 . S
C114 H162 0.929 . S
C115 C116 1.358 . S
C115 C117 1.356 . S
C115 H163 0.930 . S
C116 N113 1.279 . S
C116 C115 1.358 . S
C116 H119 0.930 . S
C117 C114 1.348 . S
C117 C115 1.356 . S
H118 C112 0.930 . S
H119 C116 0.930 . S
C120 C122 1.348 . S
C120 C123 1.356 . S
C120 O150 1.325 . S
N121 C124 1.314 . S
N121 C125 1.279 . S
C122 C120 1.348 . S
C122 C124 1.353 . S
C122 H164 0.929 . S
C123 C120 1.356 . S
C123 C125 1.358 . S
C123 H165 0.930 . S
C124 N121 1.314 . S
C124 C122 1.353 . S
C124 H166 0.930 . S
C125 N121 1.279 . S
C125 C123 1.358 . S
C125 H167 0.930 . S
C126 C127 1.348 . S
C126 C128 1.356 . S
C126 O151 1.325 . S
C127 C126 1.348 . S
C127 C129 1.353 . S
C127 H168 0.929 . S
C128 C126 1.356 . S
C128 C130 1.358 . S
C128 H169 0.930 . S
C129 C127 1.353 . S
C129 N131 1.314 . S
C129 H170 0.930 . S
C130 C128 1.358 . S
C130 N131 1.279 . S
C130 H171 0.930 . S
N131 C129 1.314 . S
N131 C130 1.279 . S
C132 C134 1.353 . S
C132 N135 1.314 . S
C132 H138 0.930 . S
C133 N135 1.279 . S
C133 C136 1.358 . S
C133 H139 0.930 . S
C134 C132 1.353 . S
C134 C137 1.348 . S
C134 H172 0.929 . S
N135 Li90 1.990 . S
N135 C132 1.314 . S
N135 C133 1.279 . S
C136 C133 1.358 . S
C136 C137 1.356 . S
C136 H173 0.930 . S
C137 C134 1.348 . S
C137 C136 1.356 . S
H138 C132 0.930 . S
H139 C133 0.930 . S
C140 N141 1.314 . S
C140 C142 1.353 . S
C140 H146 0.930 . S
N141 Li91 1.990 . S
N141 C140 1.314 . S
N141 C144 1.279 . S
C142 C140 1.353 . S
C142 C145 1.348 . S
C142 H174 0.929 . S
C143 C144 1.358 . S
C143 C145 1.356 . S
C143 H175 0.930 . S
C144 N141 1.279 . S
C144 C143 1.358 . S
C144 H147 0.930 . S
C145 C142 1.348 . S
C145 C143 1.356 . S
H146 C140 0.930 . S
H147 C144 0.930 . S
O148 Li88 1.956 . S
O148 Li89 1.970 . S
O148 Li90 1.961 . S
O148 C92 1.325 . S
O149 Li88 1.970 . S
O149 Li89 1.956 . S
O149 Li91 1.961 . S
O149 C98 1.325 . S
O150 Li88 1.961 . S
O150 Li90 1.956 . S
O150 Li91 1.970 . S
O150 C120 1.325 . S
O151 Li89 1.961 . S
O151 Li90 1.970 . S
O151 Li91 1.956 . S
O151 C126 1.325 . S
H152 C94 0.929 . S
H153 C95 0.930 . S
H154 C96 0.930 . S
H155 C97 0.930 . S
H156 C99 0.930 . S
H157 C101 0.929 . S
H158 C102 0.930 . S
H159 C103 0.930 . S
H160 C106 0.930 . S
H161 C109 0.929 . S
H162 C114 0.929 . S
H163 C115 0.930 . S
H164 C122 0.929 . S
H165 C123 0.930 . S
H166 C124 0.930 . S
H167 C125 0.930 . S
H168 C127 0.929 . S
H169 C128 0.930 . S
H170 C129 0.930 . S
H171 C130 0.930 . S
H172 C134 0.929 . S
H173 C136 0.930 . S
H174 C142 0.929 . S
H175 C143 0.930 . S
Li176 N193 1.990 . S
Li176 O236 1.956 . S
Li176 O237 1.970 . S
Li176 O238 1.961 . S
Li177 N201 1.990 . S
Li177 O236 1.970 . S
Li177 O237 1.956 . S
Li177 O239 1.961 . S
Li178 N223 1.990 . S
Li178 O236 1.961 . S
Li178 O238 1.956 . S
Li178 O239 1.970 . S
Li179 N229 1.990 . S
Li179 O237 1.961 . S
Li179 O238 1.970 . S
Li179 O239 1.956 . S
C180 C182 1.348 . S
C180 C183 1.356 . S
C180 O236 1.325 . S
N181 C184 1.314 . S
N181 C185 1.279 . S
C182 C180 1.348 . S
C182 C184 1.353 . S
C182 H240 0.929 . S
C183 C180 1.356 . S
C183 C185 1.358 . S
C183 H241 0.930 . S
C184 N181 1.314 . S
C184 C182 1.353 . S
C184 H242 0.930 . S
C185 N181 1.279 . S
C185 C183 1.358 . S
C185 H243 0.930 . S
C186 C189 1.348 . S
C186 C190 1.356 . S
C186 O237 1.325 . S
C187 N188 1.279 . S
C187 C190 1.358 . S
C187 H244 0.930 . S
N188 C187 1.279 . S
N188 C191 1.314 . S
C189 C186 1.348 . S
C189 C191 1.353 . S
C189 H245 0.929 . S
C190 C186 1.356 . S
C190 C187 1.358 . S
C190 H246 0.930 . S
C191 N188 1.314 . S
C191 C189 1.353 . S
C191 H247 0.930 . S
C192 N193 1.314 . S
C192 C197 1.353 . S
C192 H198 0.930 . S
N193 Li176 1.990 . S
N193 C192 1.314 . S
N193 C195 1.279 . S
C194 C195 1.358 . S
C194 C196 1.356 . S
C194 H248 0.930 . S
C195 N193 1.279 . S
C195 C194 1.358 . S
C195 H199 0.930 . S
C196 C194 1.356 . S
C196 C197 1.348 . S
C197 C192 1.353 . S
C197 C196 1.348 . S
C197 H249 0.929 . S
H198 C192 0.930 . S
H199 C195 0.930 . S
C200 N201 1.314 . S
C200 C202 1.353 . S
C200 H206 0.930 . S
N201 Li177 1.990 . S
N201 C200 1.314 . S
N201 C204 1.279 . S
C202 C200 1.353 . S
C202 C205 1.348 . S
C202 H250 0.929 . S
C203 C204 1.358 . S
C203 C205 1.356 . S
C203 H251 0.930 . S
C204 N201 1.279 . S
C204 C203 1.358 . S
C204 H207 0.930 . S
C205 C202 1.348 . S
C205 C203 1.356 . S
H206 C200 0.930 . S
H207 C204 0.930 . S
C208 C210 1.348 . S
C208 C211 1.356 . S
C208 O238 1.325 . S
N209 C212 1.314 . S
N209 C213 1.279 . S
C210 C208 1.348 . S
C210 C212 1.353 . S
C210 H252 0.929 . S
C211 C208 1.356 . S
C211 C213 1.358 . S
C211 H253 0.930 . S
C212 N209 1.314 . S
C212 C210 1.353 . S
C212 H254 0.930 . S
C213 N209 1.279 . S
C213 C211 1.358 . S
C213 H255 0.930 . S
C214 C215 1.348 . S
C214 C216 1.356 . S
C214 O239 1.325 . S
C215 C214 1.348 . S
C215 C217 1.353 . S
C215 H256 0.929 . S
C216 C214 1.356 . S
C216 C218 1.358 . S
C216 H257 0.930 . S
C217 C215 1.353 . S
C217 N219 1.314 . S
C217 H258 0.930 . S
C218 C216 1.358 . S
C218 N219 1.279 . S
C218 H259 0.930 . S
N219 C217 1.314 . S
N219 C218 1.279 . S
C220 C222 1.353 . S
C220 N223 1.314 . S
C220 H226 0.930 . S
C221 N223 1.279 . S
C221 C224 1.358 . S
C221 H227 0.930 . S
C222 C220 1.353 . S
C222 C225 1.348 . S
C222 H260 0.929 . S
N223 Li178 1.990 . S
N223 C220 1.314 . S
N223 C221 1.279 . S
C224 C221 1.358 . S
C224 C225 1.356 . S
C224 H261 0.930 . S
C225 C222 1.348 . S
C225 C224 1.356 . S
H226 C220 0.930 . S
H227 C221 0.930 . S
C228 N229 1.314 . S
C228 C230 1.353 . S
C228 H234 0.930 . S
N229 Li179 1.990 . S
N229 C228 1.314 . S
N229 C232 1.279 . S
C230 C228 1.353 . S
C230 C233 1.348 . S
C230 H262 0.929 . S
C231 C232 1.358 . S
C231 C233 1.356 . S
C231 H263 0.930 . S
C232 N229 1.279 . S
C232 C231 1.358 . S
C232 H235 0.930 . S
C233 C230 1.348 . S
C233 C231 1.356 . S
H234 C228 0.930 . S
H235 C232 0.930 . S
O236 Li176 1.956 . S
O236 Li177 1.970 . S
O236 Li178 1.961 . S
O236 C180 1.325 . S
O237 Li176 1.970 . S
O237 Li177 1.956 . S
O237 Li179 1.961 . S
O237 C186 1.325 . S
O238 Li176 1.961 . S
O238 Li178 1.956 . S
O238 Li179 1.970 . S
O238 C208 1.325 . S
O239 Li177 1.961 . S
O239 Li178 1.970 . S
O239 Li179 1.956 . S
O239 C214 1.325 . S
H240 C182 0.929 . S
H241 C183 0.930 . S
H242 C184 0.930 . S
H243 C185 0.930 . S
H244 C187 0.930 . S
H245 C189 0.929 . S
H246 C190 0.930 . S
H247 C191 0.930 . S
H248 C194 0.930 . S
H249 C197 0.929 . S
H250 C202 0.929 . S
H251 C203 0.930 . S
H252 C210 0.929 . S
H253 C211 0.930 . S
H254 C212 0.930 . S
H255 C213 0.930 . S
H256 C215 0.929 . S
H257 C216 0.930 . S
H258 C217 0.930 . S
H259 C218 0.930 . S
H260 C222 0.929 . S
H261 C224 0.930 . S
H262 C230 0.929 . S
H263 C231 0.930 . S
Li264 N281 1.990 . S
Li264 O324 1.956 . S
Li264 O325 1.970 . S
Li264 O326 1.961 . S
Li265 N289 1.990 . S
Li265 O324 1.970 . S
Li265 O325 1.956 . S
Li265 O327 1.961 . S
Li266 N311 1.990 . S
Li266 O324 1.961 . S
Li266 O326 1.956 . S
Li266 O327 1.970 . S
Li267 N317 1.990 . S
Li267 O325 1.961 . S
Li267 O326 1.970 . S
Li267 O327 1.956 . S
C268 C270 1.348 . S
C268 C271 1.356 . S
C268 O324 1.325 . S
N269 C272 1.314 . S
N269 C273 1.279 . S
C270 C268 1.348 . S
C270 C272 1.353 . S
C270 H328 0.929 . S
C271 C268 1.356 . S
C271 C273 1.358 . S
C271 H329 0.930 . S
C272 N269 1.314 . S
C272 C270 1.353 . S
C272 H330 0.930 . S
C273 N269 1.279 . S
C273 C271 1.358 . S
C273 H331 0.930 . S
C274 C277 1.348 . S
C274 C278 1.356 . S
C274 O325 1.325 . S
C275 N276 1.279 . S
C275 C278 1.358 . S
C275 H332 0.930 . S
N276 C275 1.279 . S
N276 C279 1.314 . S
C277 C274 1.348 . S
C277 C279 1.353 . S
C277 H333 0.929 . S
C278 C274 1.356 . S
C278 C275 1.358 . S
C278 H334 0.930 . S
C279 N276 1.314 . S
C279 C277 1.353 . S
C279 H335 0.930 . S
C280 N281 1.314 . S
C280 C285 1.353 . S
C280 H286 0.930 . S
N281 Li264 1.990 . S
N281 C280 1.314 . S
N281 C283 1.279 . S
C282 C283 1.358 . S
C282 C284 1.356 . S
C282 H336 0.930 . S
C283 N281 1.279 . S
C283 C282 1.358 . S
C283 H287 0.930 . S
C284 C282 1.356 . S
C284 C285 1.348 . S
C285 C280 1.353 . S
C285 C284 1.348 . S
C285 H337 0.929 . S
H286 C280 0.930 . S
H287 C283 0.930 . S
C288 N289 1.314 . S
C288 C290 1.353 . S
C288 H294 0.930 . S
N289 Li265 1.990 . S
N289 C288 1.314 . S
N289 C292 1.279 . S
C290 C288 1.353 . S
C290 C293 1.348 . S
C290 H338 0.929 . S
C291 C292 1.358 . S
C291 C293 1.356 . S
C291 H339 0.930 . S
C292 N289 1.279 . S
C292 C291 1.358 . S
C292 H295 0.930 . S
C293 C290 1.348 . S
C293 C291 1.356 . S
H294 C288 0.930 . S
H295 C292 0.930 . S
C296 C298 1.348 . S
C296 C299 1.356 . S
C296 O326 1.325 . S
N297 C300 1.314 . S
N297 C301 1.279 . S
C298 C296 1.348 . S
C298 C300 1.353 . S
C298 H340 0.929 . S
C299 C296 1.356 . S
C299 C301 1.358 . S
C299 H341 0.930 . S
C300 N297 1.314 . S
C300 C298 1.353 . S
C300 H342 0.930 . S
C301 N297 1.279 . S
C301 C299 1.358 . S
C301 H343 0.930 . S
C302 C303 1.348 . S
C302 C304 1.356 . S
C302 O327 1.325 . S
C303 C302 1.348 . S
C303 C305 1.353 . S
C303 H344 0.929 . S
C304 C302 1.356 . S
C304 C306 1.358 . S
C304 H345 0.930 . S
C305 C303 1.353 . S
C305 N307 1.314 . S
C305 H346 0.930 . S
C306 C304 1.358 . S
C306 N307 1.279 . S
C306 H347 0.930 . S
N307 C305 1.314 . S
N307 C306 1.279 . S
C308 C310 1.353 . S
C308 N311 1.314 . S
C308 H314 0.930 . S
C309 N311 1.279 . S
C309 C312 1.358 . S
C309 H315 0.930 . S
C310 C308 1.353 . S
C310 C313 1.348 . S
C310 H348 0.929 . S
N311 Li266 1.990 . S
N311 C308 1.314 . S
N311 C309 1.279 . S
C312 C309 1.358 . S
C312 C313 1.356 . S
C312 H349 0.930 . S
C313 C310 1.348 . S
C313 C312 1.356 . S
H314 C308 0.930 . S
H315 C309 0.930 . S
C316 N317 1.314 . S
C316 C318 1.353 . S
C316 H322 0.930 . S
N317 Li267 1.990 . S
N317 C316 1.314 . S
N317 C320 1.279 . S
C318 C316 1.353 . S
C318 C321 1.348 . S
C318 H350 0.929 . S
C319 C320 1.358 . S
C319 C321 1.356 . S
C319 H351 0.930 . S
C320 N317 1.279 . S
C320 C319 1.358 . S
C320 H323 0.930 . S
C321 C318 1.348 . S
C321 C319 1.356 . S
H322 C316 0.930 . S
H323 C320 0.930 . S
O324 Li264 1.956 . S
O324 Li265 1.970 . S
O324 Li266 1.961 . S
O324 C268 1.325 . S
O325 Li264 1.970 . S
O325 Li265 1.956 . S
O325 Li267 1.961 . S
O325 C274 1.325 . S
O326 Li264 1.961 . S
O326 Li266 1.956 . S
O326 Li267 1.970 . S
O326 C296 1.325 . S
O327 Li265 1.961 . S
O327 Li266 1.970 . S
O327 Li267 1.956 . S
O327 C302 1.325 . S
H328 C270 0.929 . S
H329 C271 0.930 . S
H330 C272 0.930 . S
H331 C273 0.930 . S
H332 C275 0.930 . S
H333 C277 0.929 . S
H334 C278 0.930 . S
H335 C279 0.930 . S
H336 C282 0.930 . S
H337 C285 0.929 . S
H338 C290 0.929 . S
H339 C291 0.930 . S
H340 C298 0.929 . S
H341 C299 0.930 . S
H342 C300 0.930 . S
H343 C301 0.930 . S
H344 C303 0.929 . S
H345 C304 0.930 . S
H346 C305 0.930 . S
H347 C306 0.930 . S
H348 C310 0.929 . S
H349 C312 0.930 . S
H350 C318 0.929 . S
H351 C319 0.930 . S
Li352 N369 1.990 . S
Li352 O412 1.956 . S
Li352 O413 1.970 . S
Li352 O414 1.961 . S
Li353 N377 1.990 . S
Li353 O412 1.970 . S
Li353 O413 1.956 . S
Li353 O415 1.961 . S
Li354 N399 1.990 . S
Li354 O412 1.961 . S
Li354 O414 1.956 . S
Li354 O415 1.970 . S
Li355 N405 1.990 . S
Li355 O413 1.961 . S
Li355 O414 1.970 . S
Li355 O415 1.956 . S
C356 C358 1.348 . S
C356 C359 1.356 . S
C356 O412 1.325 . S
N357 C360 1.314 . S
N357 C361 1.279 . S
C358 C356 1.348 . S
C358 C360 1.353 . S
C358 H416 0.929 . S
C359 C356 1.356 . S
C359 C361 1.358 . S
C359 H417 0.930 . S
C360 N357 1.314 . S
C360 C358 1.353 . S
C360 H418 0.930 . S
C361 N357 1.279 . S
C361 C359 1.358 . S
C361 H419 0.930 . S
C362 C365 1.348 . S
C362 C366 1.356 . S
C362 O413 1.325 . S
C363 N364 1.279 . S
C363 C366 1.358 . S
C363 H420 0.930 . S
N364 C363 1.279 . S
N364 C367 1.314 . S
C365 C362 1.348 . S
C365 C367 1.353 . S
C365 H421 0.929 . S
C366 C362 1.356 . S
C366 C363 1.358 . S
C366 H422 0.930 . S
C367 N364 1.314 . S
C367 C365 1.353 . S
C367 H423 0.930 . S
C368 N369 1.314 . S
C368 C373 1.353 . S
C368 H374 0.930 . S
N369 Li352 1.990 . S
N369 C368 1.314 . S
N369 C371 1.279 . S
C370 C371 1.358 . S
C370 C372 1.356 . S
C370 H424 0.930 . S
C371 N369 1.279 . S
C371 C370 1.358 . S
C371 H375 0.930 . S
C372 C370 1.356 . S
C372 C373 1.348 . S
C373 C368 1.353 . S
C373 C372 1.348 . S
C373 H425 0.929 . S
H374 C368 0.930 . S
H375 C371 0.930 . S
C376 N377 1.314 . S
C376 C378 1.353 . S
C376 H382 0.930 . S
N377 Li353 1.990 . S
N377 C376 1.314 . S
N377 C380 1.279 . S
C378 C376 1.353 . S
C378 C381 1.348 . S
C378 H426 0.929 . S
C379 C380 1.358 . S
C379 C381 1.356 . S
C379 H427 0.930 . S
C380 N377 1.279 . S
C380 C379 1.358 . S
C380 H383 0.930 . S
C381 C378 1.348 . S
C381 C379 1.356 . S
H382 C376 0.930 . S
H383 C380 0.930 . S
C384 C386 1.348 . S
C384 C387 1.356 . S
C384 O414 1.325 . S
N385 C388 1.314 . S
N385 C389 1.279 . S
C386 C384 1.348 . S
C386 C388 1.353 . S
C386 H428 0.929 . S
C387 C384 1.356 . S
C387 C389 1.358 . S
C387 H429 0.930 . S
C388 N385 1.314 . S
C388 C386 1.353 . S
C388 H430 0.930 . S
C389 N385 1.279 . S
C389 C387 1.358 . S
C389 H431 0.930 . S
C390 C391 1.348 . S
C390 C392 1.356 . S
C390 O415 1.325 . S
C391 C390 1.348 . S
C391 C393 1.353 . S
C391 H432 0.929 . S
C392 C390 1.356 . S
C392 C394 1.358 . S
C392 H433 0.930 . S
C393 C391 1.353 . S
C393 N395 1.314 . S
C393 H434 0.930 . S
C394 C392 1.358 . S
C394 N395 1.279 . S
C394 H435 0.930 . S
N395 C393 1.314 . S
N395 C394 1.279 . S
C396 C398 1.353 . S
C396 N399 1.314 . S
C396 H402 0.930 . S
C397 N399 1.279 . S
C397 C400 1.358 . S
C397 H403 0.930 . S
C398 C396 1.353 . S
C398 C401 1.348 . S
C398 H436 0.929 . S
N399 Li354 1.990 . S
N399 C396 1.314 . S
N399 C397 1.279 . S
C400 C397 1.358 . S
C400 C401 1.356 . S
C400 H437 0.930 . S
C401 C398 1.348 . S
C401 C400 1.356 . S
H402 C396 0.930 . S
H403 C397 0.930 . S
C404 N405 1.314 . S
C404 C406 1.353 . S
C404 H410 0.930 . S
N405 Li355 1.990 . S
N405 C404 1.314 . S
N405 C408 1.279 . S
C406 C404 1.353 . S
C406 C409 1.348 . S
C406 H438 0.929 . S
C407 C408 1.358 . S
C407 C409 1.356 . S
C407 H439 0.930 . S
C408 N405 1.279 . S
C408 C407 1.358 . S
C408 H411 0.930 . S
C409 C406 1.348 . S
C409 C407 1.356 . S
H410 C404 0.930 . S
H411 C408 0.930 . S
O412 Li352 1.956 . S
O412 Li353 1.970 . S
O412 Li354 1.961 . S
O412 C356 1.325 . S
O413 Li352 1.970 . S
O413 Li353 1.956 . S
O413 Li355 1.961 . S
O413 C362 1.325 . S
O414 Li352 1.961 . S
O414 Li354 1.956 . S
O414 Li355 1.970 . S
O414 C384 1.325 . S
O415 Li353 1.961 . S
O415 Li354 1.970 . S
O415 Li355 1.956 . S
O415 C390 1.325 . S
H416 C358 0.929 . S
H417 C359 0.930 . S
H418 C360 0.930 . S
H419 C361 0.930 . S
H420 C363 0.930 . S
H421 C365 0.929 . S
H422 C366 0.930 . S
H423 C367 0.930 . S
H424 C370 0.930 . S
H425 C373 0.929 . S
H426 C378 0.929 . S
H427 C379 0.930 . S
H428 C386 0.929 . S
H429 C387 0.930 . S
H430 C388 0.930 . S
H431 C389 0.930 . S
H432 C391 0.929 . S
H433 C392 0.930 . S
H434 C393 0.930 . S
H435 C394 0.930 . S
H436 C398 0.929 . S
H437 C400 0.930 . S
H438 C406 0.929 . S
H439 C407 0.930 . S
Li440 N457 1.990 . S
Li440 O500 1.956 . S
Li440 O501 1.970 . S
Li440 O502 1.961 . S
Li441 N465 1.990 . S
Li441 O500 1.970 . S
Li441 O501 1.956 . S
Li441 O503 1.961 . S
Li442 N487 1.990 . S
Li442 O500 1.961 . S
Li442 O502 1.956 . S
Li442 O503 1.970 . S
Li443 N493 1.990 . S
Li443 O501 1.961 . S
Li443 O502 1.970 . S
Li443 O503 1.956 . S
C444 C446 1.348 . S
C444 C447 1.356 . S
C444 O500 1.325 . S
N445 C448 1.314 . S
N445 C449 1.279 . S
C446 C444 1.348 . S
C446 C448 1.353 . S
C446 H504 0.929 . S
C447 C444 1.356 . S
C447 C449 1.358 . S
C447 H505 0.930 . S
C448 N445 1.314 . S
C448 C446 1.353 . S
C448 H506 0.930 . S
C449 N445 1.279 . S
C449 C447 1.358 . S
C449 H507 0.930 . S
C450 C453 1.348 . S
C450 C454 1.356 . S
C450 O501 1.325 . S
C451 N452 1.279 . S
C451 C454 1.358 . S
C451 H508 0.930 . S
N452 C451 1.279 . S
N452 C455 1.314 . S
C453 C450 1.348 . S
C453 C455 1.353 . S
C453 H509 0.929 . S
C454 C450 1.356 . S
C454 C451 1.358 . S
C454 H510 0.930 . S
C455 N452 1.314 . S
C455 C453 1.353 . S
C455 H511 0.930 . S
C456 N457 1.314 . S
C456 C461 1.353 . S
C456 H462 0.930 . S
N457 Li440 1.990 . S
N457 C456 1.314 . S
N457 C459 1.279 . S
C458 C459 1.358 . S
C458 C460 1.356 . S
C458 H512 0.930 . S
C459 N457 1.279 . S
C459 C458 1.358 . S
C459 H463 0.930 . S
C460 C458 1.356 . S
C460 C461 1.348 . S
C461 C456 1.353 . S
C461 C460 1.348 . S
C461 H513 0.929 . S
H462 C456 0.930 . S
H463 C459 0.930 . S
C464 N465 1.314 . S
C464 C466 1.353 . S
C464 H470 0.930 . S
N465 Li441 1.990 . S
N465 C464 1.314 . S
N465 C468 1.279 . S
C466 C464 1.353 . S
C466 C469 1.348 . S
C466 H514 0.929 . S
C467 C468 1.358 . S
C467 C469 1.356 . S
C467 H515 0.930 . S
C468 N465 1.279 . S
C468 C467 1.358 . S
C468 H471 0.930 . S
C469 C466 1.348 . S
C469 C467 1.356 . S
H470 C464 0.930 . S
H471 C468 0.930 . S
C472 C474 1.348 . S
C472 C475 1.356 . S
C472 O502 1.325 . S
N473 C476 1.314 . S
N473 C477 1.279 . S
C474 C472 1.348 . S
C474 C476 1.353 . S
C474 H516 0.929 . S
C475 C472 1.356 . S
C475 C477 1.358 . S
C475 H517 0.930 . S
C476 N473 1.314 . S
C476 C474 1.353 . S
C476 H518 0.930 . S
C477 N473 1.279 . S
C477 C475 1.358 . S
C477 H519 0.930 . S
C478 C479 1.348 . S
C478 C480 1.356 . S
C478 O503 1.325 . S
C479 C478 1.348 . S
C479 C481 1.353 . S
C479 H520 0.929 . S
C480 C478 1.356 . S
C480 C482 1.358 . S
C480 H521 0.930 . S
C481 C479 1.353 . S
C481 N483 1.314 . S
C481 H522 0.930 . S
C482 C480 1.358 . S
C482 N483 1.279 . S
C482 H523 0.930 . S
N483 C481 1.314 . S
N483 C482 1.279 . S
C484 C486 1.353 . S
C484 N487 1.314 . S
C484 H490 0.930 . S
C485 N487 1.279 . S
C485 C488 1.358 . S
C485 H491 0.930 . S
C486 C484 1.353 . S
C486 C489 1.348 . S
C486 H524 0.929 . S
N487 Li442 1.990 . S
N487 C484 1.314 . S
N487 C485 1.279 . S
C488 C485 1.358 . S
C488 C489 1.356 . S
C488 H525 0.930 . S
C489 C486 1.348 . S
C489 C488 1.356 . S
H490 C484 0.930 . S
H491 C485 0.930 . S
C492 N493 1.314 . S
C492 C494 1.353 . S
C492 H498 0.930 . S
N493 Li443 1.990 . S
N493 C492 1.314 . S
N493 C496 1.279 . S
C494 C492 1.353 . S
C494 C497 1.348 . S
C494 H526 0.929 . S
C495 C496 1.358 . S
C495 C497 1.356 . S
C495 H527 0.930 . S
C496 N493 1.279 . S
C496 C495 1.358 . S
C496 H499 0.930 . S
C497 C494 1.348 . S
C497 C495 1.356 . S
H498 C492 0.930 . S
H499 C496 0.930 . S
O500 Li440 1.956 . S
O500 Li441 1.970 . S
O500 Li442 1.961 . S
O500 C444 1.325 . S
O501 Li440 1.970 . S
O501 Li441 1.956 . S
O501 Li443 1.961 . S
O501 C450 1.325 . S
O502 Li440 1.961 . S
O502 Li442 1.956 . S
O502 Li443 1.970 . S
O502 C472 1.325 . S
O503 Li441 1.961 . S
O503 Li442 1.970 . S
O503 Li443 1.956 . S
O503 C478 1.325 . S
H504 C446 0.929 . S
H505 C447 0.930 . S
H506 C448 0.930 . S
H507 C449 0.930 . S
H508 C451 0.930 . S
H509 C453 0.929 . S
H510 C454 0.930 . S
H511 C455 0.930 . S
H512 C458 0.930 . S
H513 C461 0.929 . S
H514 C466 0.929 . S
H515 C467 0.930 . S
H516 C474 0.929 . S
H517 C475 0.930 . S
H518 C476 0.930 . S
H519 C477 0.930 . S
H520 C479 0.929 . S
H521 C480 0.930 . S
H522 C481 0.930 . S
H523 C482 0.930 . S
H524 C486 0.929 . S
H525 C488 0.930 . S
H526 C494 0.929 . S
H527 C495 0.930 . S
Li528 N545 1.990 . S
Li528 O588 1.956 . S
Li528 O589 1.970 . S
Li528 O590 1.961 . S
Li529 N553 1.990 . S
Li529 O588 1.970 . S
Li529 O589 1.956 . S
Li529 O591 1.961 . S
Li530 N575 1.990 . S
Li530 O588 1.961 . S
Li530 O590 1.956 . S
Li530 O591 1.970 . S
Li531 N581 1.990 . S
Li531 O589 1.961 . S
Li531 O590 1.970 . S
Li531 O591 1.956 . S
C532 C534 1.348 . S
C532 C535 1.356 . S
C532 O588 1.325 . S
N533 C536 1.314 . S
N533 C537 1.279 . S
C534 C532 1.348 . S
C534 C536 1.353 . S
C534 H592 0.929 . S
C535 C532 1.356 . S
C535 C537 1.358 . S
C535 H593 0.930 . S
C536 N533 1.314 . S
C536 C534 1.353 . S
C536 H594 0.930 . S
C537 N533 1.279 . S
C537 C535 1.358 . S
C537 H595 0.930 . S
C538 C541 1.348 . S
C538 C542 1.356 . S
C538 O589 1.325 . S
C539 N540 1.279 . S
C539 C542 1.358 . S
C539 H596 0.930 . S
N540 C539 1.279 . S
N540 C543 1.314 . S
C541 C538 1.348 . S
C541 C543 1.353 . S
C541 H597 0.929 . S
C542 C538 1.356 . S
C542 C539 1.358 . S
C542 H598 0.930 . S
C543 N540 1.314 . S
C543 C541 1.353 . S
C543 H599 0.930 . S
C544 N545 1.314 . S
C544 C549 1.353 . S
C544 H550 0.930 . S
N545 Li528 1.990 . S
N545 C544 1.314 . S
N545 C547 1.279 . S
C546 C547 1.358 . S
C546 C548 1.356 . S
C546 H600 0.930 . S
C547 N545 1.279 . S
C547 C546 1.358 . S
C547 H551 0.930 . S
C548 C546 1.356 . S
C548 C549 1.348 . S
C549 C544 1.353 . S
C549 C548 1.348 . S
C549 H601 0.929 . S
H550 C544 0.930 . S
H551 C547 0.930 . S
C552 N553 1.314 . S
C552 C554 1.353 . S
C552 H558 0.930 . S
N553 Li529 1.990 . S
N553 C552 1.314 . S
N553 C556 1.279 . S
C554 C552 1.353 . S
C554 C557 1.348 . S
C554 H602 0.929 . S
C555 C556 1.358 . S
C555 C557 1.356 . S
C555 H603 0.930 . S
C556 N553 1.279 . S
C556 C555 1.358 . S
C556 H559 0.930 . S
C557 C554 1.348 . S
C557 C555 1.356 . S
H558 C552 0.930 . S
H559 C556 0.930 . S
C560 C562 1.348 . S
C560 C563 1.356 . S
C560 O590 1.325 . S
N561 C564 1.314 . S
N561 C565 1.279 . S
C562 C560 1.348 . S
C562 C564 1.353 . S
C562 H604 0.929 . S
C563 C560 1.356 . S
C563 C565 1.358 . S
C563 H605 0.930 . S
C564 N561 1.314 . S
C564 C562 1.353 . S
C564 H606 0.930 . S
C565 N561 1.279 . S
C565 C563 1.358 . S
C565 H607 0.930 . S
C566 C567 1.348 . S
C566 C568 1.356 . S
C566 O591 1.325 . S
C567 C566 1.348 . S
C567 C569 1.353 . S
C567 H608 0.929 . S
C568 C566 1.356 . S
C568 C570 1.358 . S
C568 H609 0.930 . S
C569 C567 1.353 . S
C569 N571 1.314 . S
C569 H610 0.930 . S
C570 C568 1.358 . S
C570 N571 1.279 . S
C570 H611 0.930 . S
N571 C569 1.314 . S
N571 C570 1.279 . S
C572 C574 1.353 . S
C572 N575 1.314 . S
C572 H578 0.930 . S
C573 N575 1.279 . S
C573 C576 1.358 . S
C573 H579 0.930 . S
C574 C572 1.353 . S
C574 C577 1.348 . S
C574 H612 0.929 . S
N575 Li530 1.990 . S
N575 C572 1.314 . S
N575 C573 1.279 . S
C576 C573 1.358 . S
C576 C577 1.356 . S
C576 H613 0.930 . S
C577 C574 1.348 . S
C577 C576 1.356 . S
H578 C572 0.930 . S
H579 C573 0.930 . S
C580 N581 1.314 . S
C580 C582 1.353 . S
C580 H586 0.930 . S
N581 Li531 1.990 . S
N581 C580 1.314 . S
N581 C584 1.279 . S
C582 C580 1.353 . S
C582 C585 1.348 . S
C582 H614 0.929 . S
C583 C584 1.358 . S
C583 C585 1.356 . S
C583 H615 0.930 . S
C584 N581 1.279 . S
C584 C583 1.358 . S
C584 H587 0.930 . S
C585 C582 1.348 . S
C585 C583 1.356 . S
H586 C580 0.930 . S
H587 C584 0.930 . S
O588 Li528 1.956 . S
O588 Li529 1.970 . S
O588 Li530 1.961 . S
O588 C532 1.325 . S
O589 Li528 1.970 . S
O589 Li529 1.956 . S
O589 Li531 1.961 . S
O589 C538 1.325 . S
O590 Li528 1.961 . S
O590 Li530 1.956 . S
O590 Li531 1.970 . S
O590 C560 1.325 . S
O591 Li529 1.961 . S
O591 Li530 1.970 . S
O591 Li531 1.956 . S
O591 C566 1.325 . S
H592 C534 0.929 . S
H593 C535 0.930 . S
H594 C536 0.930 . S
H595 C537 0.930 . S
H596 C539 0.930 . S
H597 C541 0.929 . S
H598 C542 0.930 . S
H599 C543 0.930 . S
H600 C546 0.930 . S
H601 C549 0.929 . S
H602 C554 0.929 . S
H603 C555 0.930 . S
H604 C562 0.929 . S
H605 C563 0.930 . S
H606 C564 0.930 . S
H607 C565 0.930 . S
H608 C567 0.929 . S
H609 C568 0.930 . S
H610 C569 0.930 . S
H611 C570 0.930 . S
H612 C574 0.929 . S
H613 C576 0.930 . S
H614 C582 0.929 . S
H615 C583 0.930 . S
Li616 N633 1.990 . S
Li616 O676 1.956 . S
Li616 O677 1.970 . S
Li616 O678 1.961 . S
Li617 N641 1.990 . S
Li617 O676 1.970 . S
Li617 O677 1.956 . S
Li617 O679 1.961 . S
Li618 N663 1.990 . S
Li618 O676 1.961 . S
Li618 O678 1.956 . S
Li618 O679 1.970 . S
Li619 N669 1.990 . S
Li619 O677 1.961 . S
Li619 O678 1.970 . S
Li619 O679 1.956 . S
C620 C622 1.348 . S
C620 C623 1.356 . S
C620 O676 1.325 . S
N621 C624 1.314 . S
N621 C625 1.279 . S
C622 C620 1.348 . S
C622 C624 1.353 . S
C622 H680 0.929 . S
C623 C620 1.356 . S
C623 C625 1.358 . S
C623 H681 0.930 . S
C624 N621 1.314 . S
C624 C622 1.353 . S
C624 H682 0.930 . S
C625 N621 1.279 . S
C625 C623 1.358 . S
C625 H683 0.930 . S
C626 C629 1.348 . S
C626 C630 1.356 . S
C626 O677 1.325 . S
C627 N628 1.279 . S
C627 C630 1.358 . S
C627 H684 0.930 . S
N628 C627 1.279 . S
N628 C631 1.314 . S
C629 C626 1.348 . S
C629 C631 1.353 . S
C629 H685 0.929 . S
C630 C626 1.356 . S
C630 C627 1.358 . S
C630 H686 0.930 . S
C631 N628 1.314 . S
C631 C629 1.353 . S
C631 H687 0.930 . S
C632 N633 1.314 . S
C632 C637 1.353 . S
C632 H638 0.930 . S
N633 Li616 1.990 . S
N633 C632 1.314 . S
N633 C635 1.279 . S
C634 C635 1.358 . S
C634 C636 1.356 . S
C634 H688 0.930 . S
C635 N633 1.279 . S
C635 C634 1.358 . S
C635 H639 0.930 . S
C636 C634 1.356 . S
C636 C637 1.348 . S
C637 C632 1.353 . S
C637 C636 1.348 . S
C637 H689 0.929 . S
H638 C632 0.930 . S
H639 C635 0.930 . S
C640 N641 1.314 . S
C640 C642 1.353 . S
C640 H646 0.930 . S
N641 Li617 1.990 . S
N641 C640 1.314 . S
N641 C644 1.279 . S
C642 C640 1.353 . S
C642 C645 1.348 . S
C642 H690 0.929 . S
C643 C644 1.358 . S
C643 C645 1.356 . S
C643 H691 0.930 . S
C644 N641 1.279 . S
C644 C643 1.358 . S
C644 H647 0.930 . S
C645 C642 1.348 . S
C645 C643 1.356 . S
H646 C640 0.930 . S
H647 C644 0.930 . S
C648 C650 1.348 . S
C648 C651 1.356 . S
C648 O678 1.325 . S
N649 C652 1.314 . S
N649 C653 1.279 . S
C650 C648 1.348 . S
C650 C652 1.353 . S
C650 H692 0.929 . S
C651 C648 1.356 . S
C651 C653 1.358 . S
C651 H693 0.930 . S
C652 N649 1.314 . S
C652 C650 1.353 . S
C652 H694 0.930 . S
C653 N649 1.279 . S
C653 C651 1.358 . S
C653 H695 0.930 . S
C654 C655 1.348 . S
C654 C656 1.356 . S
C654 O679 1.325 . S
C655 C654 1.348 . S
C655 C657 1.353 . S
C655 H696 0.929 . S
C656 C654 1.356 . S
C656 C658 1.358 . S
C656 H697 0.930 . S
C657 C655 1.353 . S
C657 N659 1.314 . S
C657 H698 0.930 . S
C658 C656 1.358 . S
C658 N659 1.279 . S
C658 H699 0.930 . S
N659 C657 1.314 . S
N659 C658 1.279 . S
C660 C662 1.353 . S
C660 N663 1.314 . S
C660 H666 0.930 . S
C661 N663 1.279 . S
C661 C664 1.358 . S
C661 H667 0.930 . S
C662 C660 1.353 . S
C662 C665 1.348 . S
C662 H700 0.929 . S
N663 Li618 1.990 . S
N663 C660 1.314 . S
N663 C661 1.279 . S
C664 C661 1.358 . S
C664 C665 1.356 . S
C664 H701 0.930 . S
C665 C662 1.348 . S
C665 C664 1.356 . S
H666 C660 0.930 . S
H667 C661 0.930 . S
C668 N669 1.314 . S
C668 C670 1.353 . S
C668 H674 0.930 . S
N669 Li619 1.990 . S
N669 C668 1.314 . S
N669 C672 1.279 . S
C670 C668 1.353 . S
C670 C673 1.348 . S
C670 H702 0.929 . S
C671 C672 1.358 . S
C671 C673 1.356 . S
C671 H703 0.930 . S
C672 N669 1.279 . S
C672 C671 1.358 . S
C672 H675 0.930 . S
C673 C670 1.348 . S
C673 C671 1.356 . S
H674 C668 0.930 . S
H675 C672 0.930 . S
O676 Li616 1.956 . S
O676 Li617 1.970 . S
O676 Li618 1.961 . S
O676 C620 1.325 . S
O677 Li616 1.970 . S
O677 Li617 1.956 . S
O677 Li619 1.961 . S
O677 C626 1.325 . S
O678 Li616 1.961 . S
O678 Li618 1.956 . S
O678 Li619 1.970 . S
O678 C648 1.325 . S
O679 Li617 1.961 . S
O679 Li618 1.970 . S
O679 Li619 1.956 . S
O679 C654 1.325 . S
H680 C622 0.929 . S
H681 C623 0.930 . S
H682 C624 0.930 . S
H683 C625 0.930 . S
H684 C627 0.930 . S
H685 C629 0.929 . S
H686 C630 0.930 . S
H687 C631 0.930 . S
H688 C634 0.930 . S
H689 C637 0.929 . S
H690 C642 0.929 . S
H691 C643 0.930 . S
H692 C650 0.929 . S
H693 C651 0.930 . S
H694 C652 0.930 . S
H695 C653 0.930 . S
H696 C655 0.929 . S
H697 C656 0.930 . S
H698 C657 0.930 . S
H699 C658 0.930 . S
H700 C662 0.929 . S
H701 C664 0.930 . S
H702 C670 0.929 . S
H703 C671 0.930 . S
Li704 N721 1.990 . S
Li704 O764 1.956 . S
Li704 O765 1.970 . S
Li704 O766 1.961 . S
Li705 N729 1.990 . S
Li705 O764 1.970 . S
Li705 O765 1.956 . S
Li705 O767 1.961 . S
Li706 N751 1.990 . S
Li706 O764 1.961 . S
Li706 O766 1.956 . S
Li706 O767 1.970 . S
Li707 N757 1.990 . S
Li707 O765 1.961 . S
Li707 O766 1.970 . S
Li707 O767 1.956 . S
C708 C710 1.348 . S
C708 C711 1.356 . S
C708 O764 1.325 . S
N709 C712 1.314 . S
N709 C713 1.279 . S
C710 C708 1.348 . S
C710 C712 1.353 . S
C710 H768 0.929 . S
C711 C708 1.356 . S
C711 C713 1.358 . S
C711 H769 0.930 . S
C712 N709 1.314 . S
C712 C710 1.353 . S
C712 H770 0.930 . S
C713 N709 1.279 . S
C713 C711 1.358 . S
C713 H771 0.930 . S
C714 C717 1.348 . S
C714 C718 1.356 . S
C714 O765 1.325 . S
C715 N716 1.279 . S
C715 C718 1.358 . S
C715 H772 0.930 . S
N716 C715 1.279 . S
N716 C719 1.314 . S
C717 C714 1.348 . S
C717 C719 1.353 . S
C717 H773 0.929 . S
C718 C714 1.356 . S
C718 C715 1.358 . S
C718 H774 0.930 . S
C719 N716 1.314 . S
C719 C717 1.353 . S
C719 H775 0.930 . S
C720 N721 1.314 . S
C720 C725 1.353 . S
C720 H726 0.930 . S
N721 Li704 1.990 . S
N721 C720 1.314 . S
N721 C723 1.279 . S
C722 C723 1.358 . S
C722 C724 1.356 . S
C722 H776 0.930 . S
C723 N721 1.279 . S
C723 C722 1.358 . S
C723 H727 0.930 . S
C724 C722 1.356 . S
C724 C725 1.348 . S
C725 C720 1.353 . S
C725 C724 1.348 . S
C725 H777 0.929 . S
H726 C720 0.930 . S
H727 C723 0.930 . S
C728 N729 1.314 . S
C728 C730 1.353 . S
C728 H734 0.930 . S
N729 Li705 1.990 . S
N729 C728 1.314 . S
N729 C732 1.279 . S
C730 C728 1.353 . S
C730 C733 1.348 . S
C730 H778 0.929 . S
C731 C732 1.358 . S
C731 C733 1.356 . S
C731 H779 0.930 . S
C732 N729 1.279 . S
C732 C731 1.358 . S
C732 H735 0.930 . S
C733 C730 1.348 . S
C733 C731 1.356 . S
H734 C728 0.930 . S
H735 C732 0.930 . S
C736 C738 1.348 . S
C736 C739 1.356 . S
C736 O766 1.325 . S
N737 C740 1.314 . S
N737 C741 1.279 . S
C738 C736 1.348 . S
C738 C740 1.353 . S
C738 H780 0.929 . S
C739 C736 1.356 . S
C739 C741 1.358 . S
C739 H781 0.930 . S
C740 N737 1.314 . S
C740 C738 1.353 . S
C740 H782 0.930 . S
C741 N737 1.279 . S
C741 C739 1.358 . S
C741 H783 0.930 . S
C742 C743 1.348 . S
C742 C744 1.356 . S
C742 O767 1.325 . S
C743 C742 1.348 . S
C743 C745 1.353 . S
C743 H784 0.929 . S
C744 C742 1.356 . S
C744 C746 1.358 . S
C744 H785 0.930 . S
C745 C743 1.353 . S
C745 N747 1.314 . S
C745 H786 0.930 . S
C746 C744 1.358 . S
C746 N747 1.279 . S
C746 H787 0.930 . S
N747 C745 1.314 . S
N747 C746 1.279 . S
C748 C750 1.353 . S
C748 N751 1.314 . S
C748 H754 0.930 . S
C749 N751 1.279 . S
C749 C752 1.358 . S
C749 H755 0.930 . S
C750 C748 1.353 . S
C750 C753 1.348 . S
C750 H788 0.929 . S
N751 Li706 1.990 . S
N751 C748 1.314 . S
N751 C749 1.279 . S
C752 C749 1.358 . S
C752 C753 1.356 . S
C752 H789 0.930 . S
C753 C750 1.348 . S
C753 C752 1.356 . S
H754 C748 0.930 . S
H755 C749 0.930 . S
C756 N757 1.314 . S
C756 C758 1.353 . S
C756 H762 0.930 . S
N757 Li707 1.990 . S
N757 C756 1.314 . S
N757 C760 1.279 . S
C758 C756 1.353 . S
C758 C761 1.348 . S
C758 H790 0.929 . S
C759 C760 1.358 . S
C759 C761 1.356 . S
C759 H791 0.930 . S
C760 N757 1.279 . S
C760 C759 1.358 . S
C760 H763 0.930 . S
C761 C758 1.348 . S
C761 C759 1.356 . S
H762 C756 0.930 . S
H763 C760 0.930 . S
O764 Li704 1.956 . S
O764 Li705 1.970 . S
O764 Li706 1.961 . S
O764 C708 1.325 . S
O765 Li704 1.970 . S
O765 Li705 1.956 . S
O765 Li707 1.961 . S
O765 C714 1.325 . S
O766 Li704 1.961 . S
O766 Li706 1.956 . S
O766 Li707 1.970 . S
O766 C736 1.325 . S
O767 Li705 1.961 . S
O767 Li706 1.970 . S
O767 Li707 1.956 . S
O767 C742 1.325 . S
H768 C710 0.929 . S
H769 C711 0.930 . S
H770 C712 0.930 . S
H771 C713 0.930 . S
H772 C715 0.930 . S
H773 C717 0.929 . S
H774 C718 0.930 . S
H775 C719 0.930 . S
H776 C722 0.930 . S
H777 C725 0.929 . S
H778 C730 0.929 . S
H779 C731 0.930 . S
H780 C738 0.929 . S
H781 C739 0.930 . S
H782 C740 0.930 . S
H783 C741 0.930 . S
H784 C743 0.929 . S
H785 C744 0.930 . S
H786 C745 0.930 . S
H787 C746 0.930 . S
H788 C750 0.929 . S
H789 C752 0.930 . S
H790 C758 0.929 . S
H791 C759 0.930 . S
Li792 N809 1.990 . S
Li792 O852 1.956 . S
Li792 O853 1.970 . S
Li792 O854 1.961 . S
Li793 N817 1.990 . S
Li793 O852 1.970 . S
Li793 O853 1.956 . S
Li793 O855 1.961 . S
Li794 N839 1.990 . S
Li794 O852 1.961 . S
Li794 O854 1.956 . S
Li794 O855 1.970 . S
Li795 N845 1.990 . S
Li795 O853 1.961 . S
Li795 O854 1.970 . S
Li795 O855 1.956 . S
C796 C798 1.348 . S
C796 C799 1.356 . S
C796 O852 1.325 . S
N797 C800 1.314 . S
N797 C801 1.279 . S
C798 C796 1.348 . S
C798 C800 1.353 . S
C798 H856 0.929 . S
C799 C796 1.356 . S
C799 C801 1.358 . S
C799 H857 0.930 . S
C800 N797 1.314 . S
C800 C798 1.353 . S
C800 H858 0.930 . S
C801 N797 1.279 . S
C801 C799 1.358 . S
C801 H859 0.930 . S
C802 C805 1.348 . S
C802 C806 1.356 . S
C802 O853 1.325 . S
C803 N804 1.279 . S
C803 C806 1.358 . S
C803 H860 0.930 . S
N804 C803 1.279 . S
N804 C807 1.314 . S
C805 C802 1.348 . S
C805 C807 1.353 . S
C805 H861 0.929 . S
C806 C802 1.356 . S
C806 C803 1.358 . S
C806 H862 0.930 . S
C807 N804 1.314 . S
C807 C805 1.353 . S
C807 H863 0.930 . S
C808 N809 1.314 . S
C808 C813 1.353 . S
C808 H814 0.930 . S
N809 Li792 1.990 . S
N809 C808 1.314 . S
N809 C811 1.279 . S
C810 C811 1.358 . S
C810 C812 1.356 . S
C810 H864 0.930 . S
C811 N809 1.279 . S
C811 C810 1.358 . S
C811 H815 0.930 . S
C812 C810 1.356 . S
C812 C813 1.348 . S
C813 C808 1.353 . S
C813 C812 1.348 . S
C813 H865 0.929 . S
H814 C808 0.930 . S
H815 C811 0.930 . S
C816 N817 1.314 . S
C816 C818 1.353 . S
C816 H822 0.930 . S
N817 Li793 1.990 . S
N817 C816 1.314 . S
N817 C820 1.279 . S
C818 C816 1.353 . S
C818 C821 1.348 . S
C818 H866 0.929 . S
C819 C820 1.358 . S
C819 C821 1.356 . S
C819 H867 0.930 . S
C820 N817 1.279 . S
C820 C819 1.358 . S
C820 H823 0.930 . S
C821 C818 1.348 . S
C821 C819 1.356 . S
H822 C816 0.930 . S
H823 C820 0.930 . S
C824 C826 1.348 . S
C824 C827 1.356 . S
C824 O854 1.325 . S
N825 C828 1.314 . S
N825 C829 1.279 . S
C826 C824 1.348 . S
C826 C828 1.353 . S
C826 H868 0.929 . S
C827 C824 1.356 . S
C827 C829 1.358 . S
C827 H869 0.930 . S
C828 N825 1.314 . S
C828 C826 1.353 . S
C828 H870 0.930 . S
C829 N825 1.279 . S
C829 C827 1.358 . S
C829 H871 0.930 . S
C830 C831 1.348 . S
C830 C832 1.356 . S
C830 O855 1.325 . S
C831 C830 1.348 . S
C831 C833 1.353 . S
C831 H872 0.929 . S
C832 C830 1.356 . S
C832 C834 1.358 . S
C832 H873 0.930 . S
C833 C831 1.353 . S
C833 N835 1.314 . S
C833 H874 0.930 . S
C834 C832 1.358 . S
C834 N835 1.279 . S
C834 H875 0.930 . S
N835 C833 1.314 . S
N835 C834 1.279 . S
C836 C838 1.353 . S
C836 N839 1.314 . S
C836 H842 0.930 . S
C837 N839 1.279 . S
C837 C840 1.358 . S
C837 H843 0.930 . S
C838 C836 1.353 . S
C838 C841 1.348 . S
C838 H876 0.929 . S
N839 Li794 1.990 . S
N839 C836 1.314 . S
N839 C837 1.279 . S
C840 C837 1.358 . S
C840 C841 1.356 . S
C840 H877 0.930 . S
C841 C838 1.348 . S
C841 C840 1.356 . S
H842 C836 0.930 . S
H843 C837 0.930 . S
C844 N845 1.314 . S
C844 C846 1.353 . S
C844 H850 0.930 . S
N845 Li795 1.990 . S
N845 C844 1.314 . S
N845 C848 1.279 . S
C846 C844 1.353 . S
C846 C849 1.348 . S
C846 H878 0.929 . S
C847 C848 1.358 . S
C847 C849 1.356 . S
C847 H879 0.930 . S
C848 N845 1.279 . S
C848 C847 1.358 . S
C848 H851 0.930 . S
C849 C846 1.348 . S
C849 C847 1.356 . S
H850 C844 0.930 . S
H851 C848 0.930 . S
O852 Li792 1.956 . S
O852 Li793 1.970 . S
O852 Li794 1.961 . S
O852 C796 1.325 . S
O853 Li792 1.970 . S
O853 Li793 1.956 . S
O853 Li795 1.961 . S
O853 C802 1.325 . S
O854 Li792 1.961 . S
O854 Li794 1.956 . S
O854 Li795 1.970 . S
O854 C824 1.325 . S
O855 Li793 1.961 . S
O855 Li794 1.970 . S
O855 Li795 1.956 . S
O855 C830 1.325 . S
H856 C798 0.929 . S
H857 C799 0.930 . S
H858 C800 0.930 . S
H859 C801 0.930 . S
H860 C803 0.930 . S
H861 C805 0.929 . S
H862 C806 0.930 . S
H863 C807 0.930 . S
H864 C810 0.930 . S
H865 C813 0.929 . S
H866 C818 0.929 . S
H867 C819 0.930 . S
H868 C826 0.929 . S
H869 C827 0.930 . S
H870 C828 0.930 . S
H871 C829 0.930 . S
H872 C831 0.929 . S
H873 C832 0.930 . S
H874 C833 0.930 . S
H875 C834 0.930 . S
H876 C838 0.929 . S
H877 C840 0.930 . S
H878 C846 0.929 . S
H879 C847 0.930 . S
Li880 N897 1.990 . S
Li880 O940 1.956 . S
Li880 O941 1.970 . S
Li880 O942 1.961 . S
Li881 N905 1.990 . S
Li881 O940 1.970 . S
Li881 O941 1.956 . S
Li881 O943 1.961 . S
Li882 N927 1.990 . S
Li882 O940 1.961 . S
Li882 O942 1.956 . S
Li882 O943 1.970 . S
Li883 N933 1.990 . S
Li883 O941 1.961 . S
Li883 O942 1.970 . S
Li883 O943 1.956 . S
C884 C886 1.348 . S
C884 C887 1.356 . S
C884 O940 1.325 . S
N885 C888 1.314 . S
N885 C889 1.279 . S
C886 C884 1.348 . S
C886 C888 1.353 . S
C886 H944 0.929 . S
C887 C884 1.356 . S
C887 C889 1.358 . S
C887 H945 0.930 . S
C888 N885 1.314 . S
C888 C886 1.353 . S
C888 H946 0.930 . S
C889 N885 1.279 . S
C889 C887 1.358 . S
C889 H947 0.930 . S
C890 C893 1.348 . S
C890 C894 1.356 . S
C890 O941 1.325 . S
C891 N892 1.279 . S
C891 C894 1.358 . S
C891 H948 0.930 . S
N892 C891 1.279 . S
N892 C895 1.314 . S
C893 C890 1.348 . S
C893 C895 1.353 . S
C893 H949 0.929 . S
C894 C890 1.356 . S
C894 C891 1.358 . S
C894 H950 0.930 . S
C895 N892 1.314 . S
C895 C893 1.353 . S
C895 H951 0.930 . S
C896 N897 1.314 . S
C896 C901 1.353 . S
C896 H902 0.930 . S
N897 Li880 1.990 . S
N897 C896 1.314 . S
N897 C899 1.279 . S
C898 C899 1.358 . S
C898 C900 1.356 . S
C898 H952 0.930 . S
C899 N897 1.279 . S
C899 C898 1.358 . S
C899 H903 0.930 . S
C900 C898 1.356 . S
C900 C901 1.348 . S
C901 C896 1.353 . S
C901 C900 1.348 . S
C901 H953 0.929 . S
H902 C896 0.930 . S
H903 C899 0.930 . S
C904 N905 1.314 . S
C904 C906 1.353 . S
C904 H910 0.930 . S
N905 Li881 1.990 . S
N905 C904 1.314 . S
N905 C908 1.279 . S
C906 C904 1.353 . S
C906 C909 1.348 . S
C906 H954 0.929 . S
C907 C908 1.358 . S
C907 C909 1.356 . S
C907 H955 0.930 . S
C908 N905 1.279 . S
C908 C907 1.358 . S
C908 H911 0.930 . S
C909 C906 1.348 . S
C909 C907 1.356 . S
H910 C904 0.930 . S
H911 C908 0.930 . S
C912 C914 1.348 . S
C912 C915 1.356 . S
C912 O942 1.325 . S
N913 C916 1.314 . S
N913 C917 1.279 . S
C914 C912 1.348 . S
C914 C916 1.353 . S
C914 H956 0.929 . S
C915 C912 1.356 . S
C915 C917 1.358 . S
C915 H957 0.930 . S
C916 N913 1.314 . S
C916 C914 1.353 . S
C916 H958 0.930 . S
C917 N913 1.279 . S
C917 C915 1.358 . S
C917 H959 0.930 . S
C918 C919 1.348 . S
C918 C920 1.356 . S
C918 O943 1.325 . S
C919 C918 1.348 . S
C919 C921 1.353 . S
C919 H960 0.929 . S
C920 C918 1.356 . S
C920 C922 1.358 . S
C920 H961 0.930 . S
C921 C919 1.353 . S
C921 N923 1.314 . S
C921 H962 0.930 . S
C922 C920 1.358 . S
C922 N923 1.279 . S
C922 H963 0.930 . S
N923 C921 1.314 . S
N923 C922 1.279 . S
C924 C926 1.353 . S
C924 N927 1.314 . S
C924 H930 0.930 . S
C925 N927 1.279 . S
C925 C928 1.358 . S
C925 H931 0.930 . S
C926 C924 1.353 . S
C926 C929 1.348 . S
C926 H964 0.929 . S
N927 Li882 1.990 . S
N927 C924 1.314 . S
N927 C925 1.279 . S
C928 C925 1.358 . S
C928 C929 1.356 . S
C928 H965 0.930 . S
C929 C926 1.348 . S
C929 C928 1.356 . S
H930 C924 0.930 . S
H931 C925 0.930 . S
C932 N933 1.314 . S
C932 C934 1.353 . S
C932 H938 0.930 . S
N933 Li883 1.990 . S
N933 C932 1.314 . S
N933 C936 1.279 . S
C934 C932 1.353 . S
C934 C937 1.348 . S
C934 H966 0.929 . S
C935 C936 1.358 . S
C935 C937 1.356 . S
C935 H967 0.930 . S
C936 N933 1.279 . S
C936 C935 1.358 . S
C936 H939 0.930 . S
C937 C934 1.348 . S
C937 C935 1.356 . S
H938 C932 0.930 . S
H939 C936 0.930 . S
O940 Li880 1.956 . S
O940 Li881 1.970 . S
O940 Li882 1.961 . S
O940 C884 1.325 . S
O941 Li880 1.970 . S
O941 Li881 1.956 . S
O941 Li883 1.961 . S
O941 C890 1.325 . S
O942 Li880 1.961 . S
O942 Li882 1.956 . S
O942 Li883 1.970 . S
O942 C912 1.325 . S
O943 Li881 1.961 . S
O943 Li882 1.970 . S
O943 Li883 1.956 . S
O943 C918 1.325 . S
H944 C886 0.929 . S
H945 C887 0.930 . S
H946 C888 0.930 . S
H947 C889 0.930 . S
H948 C891 0.930 . S
H949 C893 0.929 . S
H950 C894 0.930 . S
H951 C895 0.930 . S
H952 C898 0.930 . S
H953 C901 0.929 . S
H954 C906 0.929 . S
H955 C907 0.930 . S
H956 C914 0.929 . S
H957 C915 0.930 . S
H958 C916 0.930 . S
H959 C917 0.930 . S
H960 C919 0.929 . S
H961 C920 0.930 . S
H962 C921 0.930 . S
H963 C922 0.930 . S
H964 C926 0.929 . S
H965 C928 0.930 . S
H966 C934 0.929 . S
H967 C935 0.930 . S
Li968 N985 1.990 . S
Li968 O1028 1.956 . S
Li968 O1029 1.970 . S
Li968 O1030 1.961 . S
Li969 N993 1.990 . S
Li969 O1028 1.970 . S
Li969 O1029 1.956 . S
Li969 O1031 1.961 . S
Li970 N1015 1.990 . S
Li970 O1028 1.961 . S
Li970 O1030 1.956 . S
Li970 O1031 1.970 . S
Li971 N1021 1.990 . S
Li971 O1029 1.961 . S
Li971 O1030 1.970 . S
Li971 O1031 1.956 . S
C972 C974 1.348 . S
C972 C975 1.356 . S
C972 O1028 1.325 . S
N973 C976 1.314 . S
N973 C977 1.279 . S
C974 C972 1.348 . S
C974 C976 1.353 . S
C974 H1032 0.929 . S
C975 C972 1.356 . S
C975 C977 1.358 . S
C975 H1033 0.930 . S
C976 N973 1.314 . S
C976 C974 1.353 . S
C976 H1034 0.930 . S
C977 N973 1.279 . S
C977 C975 1.358 . S
C977 H1035 0.930 . S
C978 C981 1.348 . S
C978 C982 1.356 . S
C978 O1029 1.325 . S
C979 N980 1.279 . S
C979 C982 1.358 . S
C979 H1036 0.930 . S
N980 C979 1.279 . S
N980 C983 1.314 . S
C981 C978 1.348 . S
C981 C983 1.353 . S
C981 H1037 0.929 . S
C982 C978 1.356 . S
C982 C979 1.358 . S
C982 H1038 0.930 . S
C983 N980 1.314 . S
C983 C981 1.353 . S
C983 H1039 0.930 . S
C984 N985 1.314 . S
C984 C989 1.353 . S
C984 H990 0.930 . S
N985 Li968 1.990 . S
N985 C984 1.314 . S
N985 C987 1.279 . S
C986 C987 1.358 . S
C986 C988 1.356 . S
C986 H1040 0.930 . S
C987 N985 1.279 . S
C987 C986 1.358 . S
C987 H991 0.930 . S
C988 C986 1.356 . S
C988 C989 1.348 . S
C989 C984 1.353 . S
C989 C988 1.348 . S
C989 H1041 0.929 . S
H990 C984 0.930 . S
H991 C987 0.930 . S
C992 N993 1.314 . S
C992 C994 1.353 . S
C992 H998 0.930 . S
N993 Li969 1.990 . S
N993 C992 1.314 . S
N993 C996 1.279 . S
C994 C992 1.353 . S
C994 C997 1.348 . S
C994 H1042 0.929 . S
C995 C996 1.358 . S
C995 C997 1.356 . S
C995 H1043 0.930 . S
C996 N993 1.279 . S
C996 C995 1.358 . S
C996 H999 0.930 . S
C997 C994 1.348 . S
C997 C995 1.356 . S
H998 C992 0.930 . S
H999 C996 0.930 . S
C1000 C1002 1.348 . S
C1000 C1003 1.356 . S
C1000 O1030 1.325 . S
N1001 C1004 1.314 . S
N1001 C1005 1.279 . S
C1002 C1000 1.348 . S
C1002 C1004 1.353 . S
C1002 H1044 0.929 . S
C1003 C1000 1.356 . S
C1003 C1005 1.358 . S
C1003 H1045 0.930 . S
C1004 N1001 1.314 . S
C1004 C1002 1.353 . S
C1004 H1046 0.930 . S
C1005 N1001 1.279 . S
C1005 C1003 1.358 . S
C1005 H1047 0.930 . S
C1006 C1007 1.348 . S
C1006 C1008 1.356 . S
C1006 O1031 1.325 . S
C1007 C1006 1.348 . S
C1007 C1009 1.353 . S
C1007 H1048 0.929 . S
C1008 C1006 1.356 . S
C1008 C1010 1.358 . S
C1008 H1049 0.930 . S
C1009 C1007 1.353 . S
C1009 N1011 1.314 . S
C1009 H1050 0.930 . S
C1010 C1008 1.358 . S
C1010 N1011 1.279 . S
C1010 H1051 0.930 . S
N1011 C1009 1.314 . S
N1011 C1010 1.279 . S
C1012 C1014 1.353 . S
C1012 N1015 1.314 . S
C1012 H1018 0.930 . S
C1013 N1015 1.279 . S
C1013 C1016 1.358 . S
C1013 H1019 0.930 . S
C1014 C1012 1.353 . S
C1014 C1017 1.348 . S
C1014 H1052 0.929 . S
N1015 Li970 1.990 . S
N1015 C1012 1.314 . S
N1015 C1013 1.279 . S
C1016 C1013 1.358 . S
C1016 C1017 1.356 . S
C1016 H1053 0.930 . S
C1017 C1014 1.348 . S
C1017 C1016 1.356 . S
H1018 C1012 0.930 . S
H1019 C1013 0.930 . S
C1020 N1021 1.314 . S
C1020 C1022 1.353 . S
C1020 H1026 0.930 . S
N1021 Li971 1.990 . S
N1021 C1020 1.314 . S
N1021 C1024 1.279 . S
C1022 C1020 1.353 . S
C1022 C1025 1.348 . S
C1022 H1054 0.929 . S
C1023 C1024 1.358 . S
C1023 C1025 1.356 . S
C1023 H1055 0.930 . S
C1024 N1021 1.279 . S
C1024 C1023 1.358 . S
C1024 H1027 0.930 . S
C1025 C1022 1.348 . S
C1025 C1023 1.356 . S
H1026 C1020 0.930 . S
H1027 C1024 0.930 . S
O1028 Li968 1.956 . S
O1028 Li969 1.970 . S
O1028 Li970 1.961 . S
O1028 C972 1.325 . S
O1029 Li968 1.970 . S
O1029 Li969 1.956 . S
O1029 Li971 1.961 . S
O1029 C978 1.325 . S
O1030 Li968 1.961 . S
O1030 Li970 1.956 . S
O1030 Li971 1.970 . S
O1030 C1000 1.325 . S
O1031 Li969 1.961 . S
O1031 Li970 1.970 . S
O1031 Li971 1.956 . S
O1031 C1006 1.325 . S
H1032 C974 0.929 . S
H1033 C975 0.930 . S
H1034 C976 0.930 . S
H1035 C977 0.930 . S
H1036 C979 0.930 . S
H1037 C981 0.929 . S
H1038 C982 0.930 . S
H1039 C983 0.930 . S
H1040 C986 0.930 . S
H1041 C989 0.929 . S
H1042 C994 0.929 . S
H1043 C995 0.930 . S
H1044 C1002 0.929 . S
H1045 C1003 0.930 . S
H1046 C1004 0.930 . S
H1047 C1005 0.930 . S
H1048 C1007 0.929 . S
H1049 C1008 0.930 . S
H1050 C1009 0.930 . S
H1051 C1010 0.930 . S
H1052 C1014 0.929 . S
H1053 C1016 0.930 . S
H1054 C1022 0.929 . S
H1055 C1023 0.930 . S
Li1056 N1073 1.990 . S
Li1056 O1116 1.956 . S
Li1056 O1117 1.970 . S
Li1056 O1118 1.961 . S
Li1057 N1081 1.990 . S
Li1057 O1116 1.970 . S
Li1057 O1117 1.956 . S
Li1057 O1119 1.961 . S
Li1058 N1103 1.990 . S
Li1058 O1116 1.961 . S
Li1058 O1118 1.956 . S
Li1058 O1119 1.970 . S
Li1059 N1109 1.990 . S
Li1059 O1117 1.961 . S
Li1059 O1118 1.970 . S
Li1059 O1119 1.956 . S
C1060 C1062 1.348 . S
C1060 C1063 1.356 . S
C1060 O1116 1.325 . S
N1061 C1064 1.314 . S
N1061 C1065 1.279 . S
C1062 C1060 1.348 . S
C1062 C1064 1.353 . S
C1062 H1120 0.929 . S
C1063 C1060 1.356 . S
C1063 C1065 1.358 . S
C1063 H1121 0.930 . S
C1064 N1061 1.314 . S
C1064 C1062 1.353 . S
C1064 H1122 0.930 . S
C1065 N1061 1.279 . S
C1065 C1063 1.358 . S
C1065 H1123 0.930 . S
C1066 C1069 1.348 . S
C1066 C1070 1.356 . S
C1066 O1117 1.325 . S
C1067 N1068 1.279 . S
C1067 C1070 1.358 . S
C1067 H1124 0.930 . S
N1068 C1067 1.279 . S
N1068 C1071 1.314 . S
C1069 C1066 1.348 . S
C1069 C1071 1.353 . S
C1069 H1125 0.929 . S
C1070 C1066 1.356 . S
C1070 C1067 1.358 . S
C1070 H1126 0.930 . S
C1071 N1068 1.314 . S
C1071 C1069 1.353 . S
C1071 H1127 0.930 . S
C1072 N1073 1.314 . S
C1072 C1077 1.353 . S
C1072 H1078 0.930 . S
N1073 Li1056 1.990 . S
N1073 C1072 1.314 . S
N1073 C1075 1.279 . S
C1074 C1075 1.358 . S
C1074 C1076 1.356 . S
C1074 H1128 0.930 . S
C1075 N1073 1.279 . S
C1075 C1074 1.358 . S
C1075 H1079 0.930 . S
C1076 C1074 1.356 . S
C1076 C1077 1.348 . S
C1077 C1072 1.353 . S
C1077 C1076 1.348 . S
C1077 H1129 0.929 . S
H1078 C1072 0.930 . S
H1079 C1075 0.930 . S
C1080 N1081 1.314 . S
C1080 C1082 1.353 . S
C1080 H1086 0.930 . S
N1081 Li1057 1.990 . S
N1081 C1080 1.314 . S
N1081 C1084 1.279 . S
C1082 C1080 1.353 . S
C1082 C1085 1.348 . S
C1082 H1130 0.929 . S
C1083 C1084 1.358 . S
C1083 C1085 1.356 . S
C1083 H1131 0.930 . S
C1084 N1081 1.279 . S
C1084 C1083 1.358 . S
C1084 H1087 0.930 . S
C1085 C1082 1.348 . S
C1085 C1083 1.356 . S
H1086 C1080 0.930 . S
H1087 C1084 0.930 . S
C1088 C1090 1.348 . S
C1088 C1091 1.356 . S
C1088 O1118 1.325 . S
N1089 C1092 1.314 . S
N1089 C1093 1.279 . S
C1090 C1088 1.348 . S
C1090 C1092 1.353 . S
C1090 H1132 0.929 . S
C1091 C1088 1.356 . S
C1091 C1093 1.358 . S
C1091 H1133 0.930 . S
C1092 N1089 1.314 . S
C1092 C1090 1.353 . S
C1092 H1134 0.930 . S
C1093 N1089 1.279 . S
C1093 C1091 1.358 . S
C1093 H1135 0.930 . S
C1094 C1095 1.348 . S
C1094 C1096 1.356 . S
C1094 O1119 1.325 . S
C1095 C1094 1.348 . S
C1095 C1097 1.353 . S
C1095 H1136 0.929 . S
C1096 C1094 1.356 . S
C1096 C1098 1.358 . S
C1096 H1137 0.930 . S
C1097 C1095 1.353 . S
C1097 N1099 1.314 . S
C1097 H1138 0.930 . S
C1098 C1096 1.358 . S
C1098 N1099 1.279 . S
C1098 H1139 0.930 . S
N1099 C1097 1.314 . S
N1099 C1098 1.279 . S
C1100 C1102 1.353 . S
C1100 N1103 1.314 . S
C1100 H1106 0.930 . S
C1101 N1103 1.279 . S
C1101 C1104 1.358 . S
C1101 H1107 0.930 . S
C1102 C1100 1.353 . S
C1102 C1105 1.348 . S
C1102 H1140 0.929 . S
N1103 Li1058 1.990 . S
N1103 C1100 1.314 . S
N1103 C1101 1.279 . S
C1104 C1101 1.358 . S
C1104 C1105 1.356 . S
C1104 H1141 0.930 . S
C1105 C1102 1.348 . S
C1105 C1104 1.356 . S
H1106 C1100 0.930 . S
H1107 C1101 0.930 . S
C1108 N1109 1.314 . S
C1108 C1110 1.353 . S
C1108 H1114 0.930 . S
N1109 Li1059 1.990 . S
N1109 C1108 1.314 . S
N1109 C1112 1.279 . S
C1110 C1108 1.353 . S
C1110 C1113 1.348 . S
C1110 H1142 0.929 . S
C1111 C1112 1.358 . S
C1111 C1113 1.356 . S
C1111 H1143 0.930 . S
C1112 N1109 1.279 . S
C1112 C1111 1.358 . S
C1112 H1115 0.930 . S
C1113 C1110 1.348 . S
C1113 C1111 1.356 . S
H1114 C1108 0.930 . S
H1115 C1112 0.930 . S
O1116 Li1056 1.956 . S
O1116 Li1057 1.970 . S
O1116 Li1058 1.961 . S
O1116 C1060 1.325 . S
O1117 Li1056 1.970 . S
O1117 Li1057 1.956 . S
O1117 Li1059 1.961 . S
O1117 C1066 1.325 . S
O1118 Li1056 1.961 . S
O1118 Li1058 1.956 . S
O1118 Li1059 1.970 . S
O1118 C1088 1.325 . S
O1119 Li1057 1.961 . S
O1119 Li1058 1.970 . S
O1119 Li1059 1.956 . S
O1119 C1094 1.325 . S
H1120 C1062 0.929 . S
H1121 C1063 0.930 . S
H1122 C1064 0.930 . S
H1123 C1065 0.930 . S
H1124 C1067 0.930 . S
H1125 C1069 0.929 . S
H1126 C1070 0.930 . S
H1127 C1071 0.930 . S
H1128 C1074 0.930 . S
H1129 C1077 0.929 . S
H1130 C1082 0.929 . S
H1131 C1083 0.930 . S
H1132 C1090 0.929 . S
H1133 C1091 0.930 . S
H1134 C1092 0.930 . S
H1135 C1093 0.930 . S
H1136 C1095 0.929 . S
H1137 C1096 0.930 . S
H1138 C1097 0.930 . S
H1139 C1098 0.930 . S
H1140 C1102 0.929 . S
H1141 C1104 0.930 . S
H1142 C1110 0.929 . S
H1143 C1111 0.930 . S
Li1144 N1161 1.990 . S
Li1144 O1204 1.956 . S
Li1144 O1205 1.970 . S
Li1144 O1206 1.961 . S
Li1145 N1169 1.990 . S
Li1145 O1204 1.970 . S
Li1145 O1205 1.956 . S
Li1145 O1207 1.961 . S
Li1146 N1191 1.990 . S
Li1146 O1204 1.961 . S
Li1146 O1206 1.956 . S
Li1146 O1207 1.970 . S
Li1147 N1197 1.990 . S
Li1147 O1205 1.961 . S
Li1147 O1206 1.970 . S
Li1147 O1207 1.956 . S
C1148 C1150 1.348 . S
C1148 C1151 1.356 . S
C1148 O1204 1.325 . S
N1149 C1152 1.314 . S
N1149 C1153 1.279 . S
C1150 C1148 1.348 . S
C1150 C1152 1.353 . S
C1150 H1208 0.929 . S
C1151 C1148 1.356 . S
C1151 C1153 1.358 . S
C1151 H1209 0.930 . S
C1152 N1149 1.314 . S
C1152 C1150 1.353 . S
C1152 H1210 0.930 . S
C1153 N1149 1.279 . S
C1153 C1151 1.358 . S
C1153 H1211 0.930 . S
C1154 C1157 1.348 . S
C1154 C1158 1.356 . S
C1154 O1205 1.325 . S
C1155 N1156 1.279 . S
C1155 C1158 1.358 . S
C1155 H1212 0.930 . S
N1156 C1155 1.279 . S
N1156 C1159 1.314 . S
C1157 C1154 1.348 . S
C1157 C1159 1.353 . S
C1157 H1213 0.929 . S
C1158 C1154 1.356 . S
C1158 C1155 1.358 . S
C1158 H1214 0.930 . S
C1159 N1156 1.314 . S
C1159 C1157 1.353 . S
C1159 H1215 0.930 . S
C1160 N1161 1.314 . S
C1160 C1165 1.353 . S
C1160 H1166 0.930 . S
N1161 Li1144 1.990 . S
N1161 C1160 1.314 . S
N1161 C1163 1.279 . S
C1162 C1163 1.358 . S
C1162 C1164 1.356 . S
C1162 H1216 0.930 . S
C1163 N1161 1.279 . S
C1163 C1162 1.358 . S
C1163 H1167 0.930 . S
C1164 C1162 1.356 . S
C1164 C1165 1.348 . S
C1165 C1160 1.353 . S
C1165 C1164 1.348 . S
C1165 H1217 0.929 . S
H1166 C1160 0.930 . S
H1167 C1163 0.930 . S
C1168 N1169 1.314 . S
C1168 C1170 1.353 . S
C1168 H1174 0.930 . S
N1169 Li1145 1.990 . S
N1169 C1168 1.314 . S
N1169 C1172 1.279 . S
C1170 C1168 1.353 . S
C1170 C1173 1.348 . S
C1170 H1218 0.929 . S
C1171 C1172 1.358 . S
C1171 C1173 1.356 . S
C1171 H1219 0.930 . S
C1172 N1169 1.279 . S
C1172 C1171 1.358 . S
C1172 H1175 0.930 . S
C1173 C1170 1.348 . S
C1173 C1171 1.356 . S
H1174 C1168 0.930 . S
H1175 C1172 0.930 . S
C1176 C1178 1.348 . S
C1176 C1179 1.356 . S
C1176 O1206 1.325 . S
N1177 C1180 1.314 . S
N1177 C1181 1.279 . S
C1178 C1176 1.348 . S
C1178 C1180 1.353 . S
C1178 H1220 0.929 . S
C1179 C1176 1.356 . S
C1179 C1181 1.358 . S
C1179 H1221 0.930 . S
C1180 N1177 1.314 . S
C1180 C1178 1.353 . S
C1180 H1222 0.930 . S
C1181 N1177 1.279 . S
C1181 C1179 1.358 . S
C1181 H1223 0.930 . S
C1182 C1183 1.348 . S
C1182 C1184 1.356 . S
C1182 O1207 1.325 . S
C1183 C1182 1.348 . S
C1183 C1185 1.353 . S
C1183 H1224 0.929 . S
C1184 C1182 1.356 . S
C1184 C1186 1.358 . S
C1184 H1225 0.930 . S
C1185 C1183 1.353 . S
C1185 N1187 1.314 . S
C1185 H1226 0.930 . S
C1186 C1184 1.358 . S
C1186 N1187 1.279 . S
C1186 H1227 0.930 . S
N1187 C1185 1.314 . S
N1187 C1186 1.279 . S
C1188 C1190 1.353 . S
C1188 N1191 1.314 . S
C1188 H1194 0.930 . S
C1189 N1191 1.279 . S
C1189 C1192 1.358 . S
C1189 H1195 0.930 . S
C1190 C1188 1.353 . S
C1190 C1193 1.348 . S
C1190 H1228 0.929 . S
N1191 Li1146 1.990 . S
N1191 C1188 1.314 . S
N1191 C1189 1.279 . S
C1192 C1189 1.358 . S
C1192 C1193 1.356 . S
C1192 H1229 0.930 . S
C1193 C1190 1.348 . S
C1193 C1192 1.356 . S
H1194 C1188 0.930 . S
H1195 C1189 0.930 . S
C1196 N1197 1.314 . S
C1196 C1198 1.353 . S
C1196 H1202 0.930 . S
N1197 Li1147 1.990 . S
N1197 C1196 1.314 . S
N1197 C1200 1.279 . S
C1198 C1196 1.353 . S
C1198 C1201 1.348 . S
C1198 H1230 0.929 . S
C1199 C1200 1.358 . S
C1199 C1201 1.356 . S
C1199 H1231 0.930 . S
C1200 N1197 1.279 . S
C1200 C1199 1.358 . S
C1200 H1203 0.930 . S
C1201 C1198 1.348 . S
C1201 C1199 1.356 . S
H1202 C1196 0.930 . S
H1203 C1200 0.930 . S
O1204 Li1144 1.956 . S
O1204 Li1145 1.970 . S
O1204 Li1146 1.961 . S
O1204 C1148 1.325 . S
O1205 Li1144 1.970 . S
O1205 Li1145 1.956 . S
O1205 Li1147 1.961 . S
O1205 C1154 1.325 . S
O1206 Li1144 1.961 . S
O1206 Li1146 1.956 . S
O1206 Li1147 1.970 . S
O1206 C1176 1.325 . S
O1207 Li1145 1.961 . S
O1207 Li1146 1.970 . S
O1207 Li1147 1.956 . S
O1207 C1182 1.325 . S
H1208 C1150 0.929 . S
H1209 C1151 0.930 . S
H1210 C1152 0.930 . S
H1211 C1153 0.930 . S
H1212 C1155 0.930 . S
H1213 C1157 0.929 . S
H1214 C1158 0.930 . S
H1215 C1159 0.930 . S
H1216 C1162 0.930 . S
H1217 C1165 0.929 . S
H1218 C1170 0.929 . S
H1219 C1171 0.930 . S
H1220 C1178 0.929 . S
H1221 C1179 0.930 . S
H1222 C1180 0.930 . S
H1223 C1181 0.930 . S
H1224 C1183 0.929 . S
H1225 C1184 0.930 . S
H1226 C1185 0.930 . S
H1227 C1186 0.930 . S
H1228 C1190 0.929 . S
H1229 C1192 0.930 . S
H1230 C1198 0.929 . S
H1231 C1199 0.930 . S
Li1232 N1249 1.990 . S
Li1232 O1292 1.956 . S
Li1232 O1293 1.970 . S
Li1232 O1294 1.961 . S
Li1233 N1257 1.990 . S
Li1233 O1292 1.970 . S
Li1233 O1293 1.956 . S
Li1233 O1295 1.961 . S
Li1234 N1279 1.990 . S
Li1234 O1292 1.961 . S
Li1234 O1294 1.956 . S
Li1234 O1295 1.970 . S
Li1235 N1285 1.990 . S
Li1235 O1293 1.961 . S
Li1235 O1294 1.970 . S
Li1235 O1295 1.956 . S
C1236 C1238 1.348 . S
C1236 C1239 1.356 . S
C1236 O1292 1.325 . S
N1237 C1240 1.314 . S
N1237 C1241 1.279 . S
C1238 C1236 1.348 . S
C1238 C1240 1.353 . S
C1238 H1296 0.929 . S
C1239 C1236 1.356 . S
C1239 C1241 1.358 . S
C1239 H1297 0.930 . S
C1240 N1237 1.314 . S
C1240 C1238 1.353 . S
C1240 H1298 0.930 . S
C1241 N1237 1.279 . S
C1241 C1239 1.358 . S
C1241 H1299 0.930 . S
C1242 C1245 1.348 . S
C1242 C1246 1.356 . S
C1242 O1293 1.325 . S
C1243 N1244 1.279 . S
C1243 C1246 1.358 . S
C1243 H1300 0.930 . S
N1244 C1243 1.279 . S
N1244 C1247 1.314 . S
C1245 C1242 1.348 . S
C1245 C1247 1.353 . S
C1245 H1301 0.929 . S
C1246 C1242 1.356 . S
C1246 C1243 1.358 . S
C1246 H1302 0.930 . S
C1247 N1244 1.314 . S
C1247 C1245 1.353 . S
C1247 H1303 0.930 . S
C1248 N1249 1.314 . S
C1248 C1253 1.353 . S
C1248 H1254 0.930 . S
N1249 Li1232 1.990 . S
N1249 C1248 1.314 . S
N1249 C1251 1.279 . S
C1250 C1251 1.358 . S
C1250 C1252 1.356 . S
C1250 H1304 0.930 . S
C1251 N1249 1.279 . S
C1251 C1250 1.358 . S
C1251 H1255 0.930 . S
C1252 C1250 1.356 . S
C1252 C1253 1.348 . S
C1253 C1248 1.353 . S
C1253 C1252 1.348 . S
C1253 H1305 0.929 . S
H1254 C1248 0.930 . S
H1255 C1251 0.930 . S
C1256 N1257 1.314 . S
C1256 C1258 1.353 . S
C1256 H1262 0.930 . S
N1257 Li1233 1.990 . S
N1257 C1256 1.314 . S
N1257 C1260 1.279 . S
C1258 C1256 1.353 . S
C1258 C1261 1.348 . S
C1258 H1306 0.929 . S
C1259 C1260 1.358 . S
C1259 C1261 1.356 . S
C1259 H1307 0.930 . S
C1260 N1257 1.279 . S
C1260 C1259 1.358 . S
C1260 H1263 0.930 . S
C1261 C1258 1.348 . S
C1261 C1259 1.356 . S
H1262 C1256 0.930 . S
H1263 C1260 0.930 . S
C1264 C1266 1.348 . S
C1264 C1267 1.356 . S
C1264 O1294 1.325 . S
N1265 C1268 1.314 . S
N1265 C1269 1.279 . S
C1266 C1264 1.348 . S
C1266 C1268 1.353 . S
C1266 H1308 0.929 . S
C1267 C1264 1.356 . S
C1267 C1269 1.358 . S
C1267 H1309 0.930 . S
C1268 N1265 1.314 . S
C1268 C1266 1.353 . S
C1268 H1310 0.930 . S
C1269 N1265 1.279 . S
C1269 C1267 1.358 . S
C1269 H1311 0.930 . S
C1270 C1271 1.348 . S
C1270 C1272 1.356 . S
C1270 O1295 1.325 . S
C1271 C1270 1.348 . S
C1271 C1273 1.353 . S
C1271 H1312 0.929 . S
C1272 C1270 1.356 . S
C1272 C1274 1.358 . S
C1272 H1313 0.930 . S
C1273 C1271 1.353 . S
C1273 N1275 1.314 . S
C1273 H1314 0.930 . S
C1274 C1272 1.358 . S
C1274 N1275 1.279 . S
C1274 H1315 0.930 . S
N1275 C1273 1.314 . S
N1275 C1274 1.279 . S
C1276 C1278 1.353 . S
C1276 N1279 1.314 . S
C1276 H1282 0.930 . S
C1277 N1279 1.279 . S
C1277 C1280 1.358 . S
C1277 H1283 0.930 . S
C1278 C1276 1.353 . S
C1278 C1281 1.348 . S
C1278 H1316 0.929 . S
N1279 Li1234 1.990 . S
N1279 C1276 1.314 . S
N1279 C1277 1.279 . S
C1280 C1277 1.358 . S
C1280 C1281 1.356 . S
C1280 H1317 0.930 . S
C1281 C1278 1.348 . S
C1281 C1280 1.356 . S
H1282 C1276 0.930 . S
H1283 C1277 0.930 . S
C1284 N1285 1.314 . S
C1284 C1286 1.353 . S
C1284 H1290 0.930 . S
N1285 Li1235 1.990 . S
N1285 C1284 1.314 . S
N1285 C1288 1.279 . S
C1286 C1284 1.353 . S
C1286 C1289 1.348 . S
C1286 H1318 0.929 . S
C1287 C1288 1.358 . S
C1287 C1289 1.356 . S
C1287 H1319 0.930 . S
C1288 N1285 1.279 . S
C1288 C1287 1.358 . S
C1288 H1291 0.930 . S
C1289 C1286 1.348 . S
C1289 C1287 1.356 . S
H1290 C1284 0.930 . S
H1291 C1288 0.930 . S
O1292 Li1232 1.956 . S
O1292 Li1233 1.970 . S
O1292 Li1234 1.961 . S
O1292 C1236 1.325 . S
O1293 Li1232 1.970 . S
O1293 Li1233 1.956 . S
O1293 Li1235 1.961 . S
O1293 C1242 1.325 . S
O1294 Li1232 1.961 . S
O1294 Li1234 1.956 . S
O1294 Li1235 1.970 . S
O1294 C1264 1.325 . S
O1295 Li1233 1.961 . S
O1295 Li1234 1.970 . S
O1295 Li1235 1.956 . S
O1295 C1270 1.325 . S
H1296 C1238 0.929 . S
H1297 C1239 0.930 . S
H1298 C1240 0.930 . S
H1299 C1241 0.930 . S
H1300 C1243 0.930 . S
H1301 C1245 0.929 . S
H1302 C1246 0.930 . S
H1303 C1247 0.930 . S
H1304 C1250 0.930 . S
H1305 C1253 0.929 . S
H1306 C1258 0.929 . S
H1307 C1259 0.930 . S
H1308 C1266 0.929 . S
H1309 C1267 0.930 . S
H1310 C1268 0.930 . S
H1311 C1269 0.930 . S
H1312 C1271 0.929 . S
H1313 C1272 0.930 . S
H1314 C1273 0.930 . S
H1315 C1274 0.930 . S
H1316 C1278 0.929 . S
H1317 C1280 0.930 . S
H1318 C1286 0.929 . S
H1319 C1287 0.930 . S
Li1320 N1337 1.990 . S
Li1320 O1380 1.956 . S
Li1320 O1381 1.970 . S
Li1320 O1382 1.961 . S
Li1321 N1345 1.990 . S
Li1321 O1380 1.970 . S
Li1321 O1381 1.956 . S
Li1321 O1383 1.961 . S
Li1322 N1367 1.990 . S
Li1322 O1380 1.961 . S
Li1322 O1382 1.956 . S
Li1322 O1383 1.970 . S
Li1323 N1373 1.990 . S
Li1323 O1381 1.961 . S
Li1323 O1382 1.970 . S
Li1323 O1383 1.956 . S
C1324 C1326 1.348 . S
C1324 C1327 1.356 . S
C1324 O1380 1.325 . S
N1325 C1328 1.314 . S
N1325 C1329 1.279 . S
C1326 C1324 1.348 . S
C1326 C1328 1.353 . S
C1326 H1384 0.929 . S
C1327 C1324 1.356 . S
C1327 C1329 1.358 . S
C1327 H1385 0.930 . S
C1328 N1325 1.314 . S
C1328 C1326 1.353 . S
C1328 H1386 0.930 . S
C1329 N1325 1.279 . S
C1329 C1327 1.358 . S
C1329 H1387 0.930 . S
C1330 C1333 1.348 . S
C1330 C1334 1.356 . S
C1330 O1381 1.325 . S
C1331 N1332 1.279 . S
C1331 C1334 1.358 . S
C1331 H1388 0.930 . S
N1332 C1331 1.279 . S
N1332 C1335 1.314 . S
C1333 C1330 1.348 . S
C1333 C1335 1.353 . S
C1333 H1389 0.929 . S
C1334 C1330 1.356 . S
C1334 C1331 1.358 . S
C1334 H1390 0.930 . S
C1335 N1332 1.314 . S
C1335 C1333 1.353 . S
C1335 H1391 0.930 . S
C1336 N1337 1.314 . S
C1336 C1341 1.353 . S
C1336 H1342 0.930 . S
N1337 Li1320 1.990 . S
N1337 C1336 1.314 . S
N1337 C1339 1.279 . S
C1338 C1339 1.358 . S
C1338 C1340 1.356 . S
C1338 H1392 0.930 . S
C1339 N1337 1.279 . S
C1339 C1338 1.358 . S
C1339 H1343 0.930 . S
C1340 C1338 1.356 . S
C1340 C1341 1.348 . S
C1341 C1336 1.353 . S
C1341 C1340 1.348 . S
C1341 H1393 0.929 . S
H1342 C1336 0.930 . S
H1343 C1339 0.930 . S
C1344 N1345 1.314 . S
C1344 C1346 1.353 . S
C1344 H1350 0.930 . S
N1345 Li1321 1.990 . S
N1345 C1344 1.314 . S
N1345 C1348 1.279 . S
C1346 C1344 1.353 . S
C1346 C1349 1.348 . S
C1346 H1394 0.929 . S
C1347 C1348 1.358 . S
C1347 C1349 1.356 . S
C1347 H1395 0.930 . S
C1348 N1345 1.279 . S
C1348 C1347 1.358 . S
C1348 H1351 0.930 . S
C1349 C1346 1.348 . S
C1349 C1347 1.356 . S
H1350 C1344 0.930 . S
H1351 C1348 0.930 . S
C1352 C1354 1.348 . S
C1352 C1355 1.356 . S
C1352 O1382 1.325 . S
N1353 C1356 1.314 . S
N1353 C1357 1.279 . S
C1354 C1352 1.348 . S
C1354 C1356 1.353 . S
C1354 H1396 0.929 . S
C1355 C1352 1.356 . S
C1355 C1357 1.358 . S
C1355 H1397 0.930 . S
C1356 N1353 1.314 . S
C1356 C1354 1.353 . S
C1356 H1398 0.930 . S
C1357 N1353 1.279 . S
C1357 C1355 1.358 . S
C1357 H1399 0.930 . S
C1358 C1359 1.348 . S
C1358 C1360 1.356 . S
C1358 O1383 1.325 . S
C1359 C1358 1.348 . S
C1359 C1361 1.353 . S
C1359 H1400 0.929 . S
C1360 C1358 1.356 . S
C1360 C1362 1.358 . S
C1360 H1401 0.930 . S
C1361 C1359 1.353 . S
C1361 N1363 1.314 . S
C1361 H1402 0.930 . S
C1362 C1360 1.358 . S
C1362 N1363 1.279 . S
C1362 H1403 0.930 . S
N1363 C1361 1.314 . S
N1363 C1362 1.279 . S
C1364 C1366 1.353 . S
C1364 N1367 1.314 . S
C1364 H1370 0.930 . S
C1365 N1367 1.279 . S
C1365 C1368 1.358 . S
C1365 H1371 0.930 . S
C1366 C1364 1.353 . S
C1366 C1369 1.348 . S
C1366 H1404 0.929 . S
N1367 Li1322 1.990 . S
N1367 C1364 1.314 . S
N1367 C1365 1.279 . S
C1368 C1365 1.358 . S
C1368 C1369 1.356 . S
C1368 H1405 0.930 . S
C1369 C1366 1.348 . S
C1369 C1368 1.356 . S
H1370 C1364 0.930 . S
H1371 C1365 0.930 . S
C1372 N1373 1.314 . S
C1372 C1374 1.353 . S
C1372 H1378 0.930 . S
N1373 Li1323 1.990 . S
N1373 C1372 1.314 . S
N1373 C1376 1.279 . S
C1374 C1372 1.353 . S
C1374 C1377 1.348 . S
C1374 H1406 0.929 . S
C1375 C1376 1.358 . S
C1375 C1377 1.356 . S
C1375 H1407 0.930 . S
C1376 N1373 1.279 . S
C1376 C1375 1.358 . S
C1376 H1379 0.930 . S
C1377 C1374 1.348 . S
C1377 C1375 1.356 . S
H1378 C1372 0.930 . S
H1379 C1376 0.930 . S
O1380 Li1320 1.956 . S
O1380 Li1321 1.970 . S
O1380 Li1322 1.961 . S
O1380 C1324 1.325 . S
O1381 Li1320 1.970 . S
O1381 Li1321 1.956 . S
O1381 Li1323 1.961 . S
O1381 C1330 1.325 . S
O1382 Li1320 1.961 . S
O1382 Li1322 1.956 . S
O1382 Li1323 1.970 . S
O1382 C1352 1.325 . S
O1383 Li1321 1.961 . S
O1383 Li1322 1.970 . S
O1383 Li1323 1.956 . S
O1383 C1358 1.325 . S
H1384 C1326 0.929 . S
H1385 C1327 0.930 . S
H1386 C1328 0.930 . S
H1387 C1329 0.930 . S
H1388 C1331 0.930 . S
H1389 C1333 0.929 . S
H1390 C1334 0.930 . S
H1391 C1335 0.930 . S
H1392 C1338 0.930 . S
H1393 C1341 0.929 . S
H1394 C1346 0.929 . S
H1395 C1347 0.930 . S
H1396 C1354 0.929 . S
H1397 C1355 0.930 . S
H1398 C1356 0.930 . S
H1399 C1357 0.930 . S
H1400 C1359 0.929 . S
H1401 C1360 0.930 . S
H1402 C1361 0.930 . S
H1403 C1362 0.930 . S
H1404 C1366 0.929 . S
H1405 C1368 0.930 . S
H1406 C1374 0.929 . S
H1407 C1375 0.930 . S
H1408 C1416 0.950 . S
H1409 C1421 0.950 . S
H1410 C1418 0.950 . S
H1411 C1420 0.950 . S
H1412 C1422 0.950 . S
H1413 C1424 0.950 . S
H1414 C1426 0.950 . S
H1415 C1427 0.950 . S
C1416 H1408 0.950 . S
C1416 C1417 1.386 . S
C1416 C1418 1.391 . S
C1417 C1416 1.386 . S
C1417 C1421 1.393 . S
C1418 H1410 0.950 . S
C1418 C1416 1.391 . S
C1418 C1419 1.400 . S
C1419 C1418 1.400 . S
C1419 C1420 1.398 . S
C1419 C1425 1.491 . S
C1420 H1411 0.950 . S
C1420 C1419 1.398 . S
C1420 C1421 1.391 . S
C1421 H1409 0.950 . S
C1421 C1417 1.393 . S
C1421 C1420 1.391 . S
C1422 H1412 0.950 . S
C1422 C1423 1.386 . S
C1422 C1424 1.391 . S
C1423 C1422 1.386 . S
C1423 C1427 1.393 . S
C1424 H1413 0.950 . S
C1424 C1422 1.391 . S
C1424 C1425 1.400 . S
C1425 C1419 1.491 . S
C1425 C1424 1.400 . S
C1425 C1426 1.398 . S
C1426 H1414 0.950 . S
C1426 C1425 1.398 . S
C1426 C1427 1.391 . S
C1427 H1415 0.950 . S
C1427 C1423 1.393 . S
C1427 C1426 1.391 . S
H1428 C1436 0.950 . S
H1429 C1441 0.950 . S
H1430 C1438 0.950 . S
H1431 C1440 0.950 . S
H1432 C1442 0.950 . S
H1433 C1444 0.950 . S
H1434 C1446 0.950 . S
H1435 C1447 0.950 . S
C1436 H1428 0.950 . S
C1436 C1437 1.386 . S
C1436 C1438 1.391 . S
C1437 C1436 1.386 . S
C1437 C1441 1.393 . S
C1438 H1430 0.950 . S
C1438 C1436 1.391 . S
C1438 C1439 1.400 . S
C1439 C1438 1.400 . S
C1439 C1440 1.398 . S
C1439 C1445 1.491 . S
C1440 H1431 0.950 . S
C1440 C1439 1.398 . S
C1440 C1441 1.391 . S
C1441 H1429 0.950 . S
C1441 C1437 1.393 . S
C1441 C1440 1.391 . S
C1442 H1432 0.950 . S
C1442 C1443 1.386 . S
C1442 C1444 1.391 . S
C1443 C1442 1.386 . S
C1443 C1447 1.393 . S
C1444 H1433 0.950 . S
C1444 C1442 1.391 . S
C1444 C1445 1.400 . S
C1445 C1439 1.491 . S
C1445 C1444 1.400 . S
C1445 C1446 1.398 . S
C1446 H1434 0.950 . S
C1446 C1445 1.398 . S
C1446 C1447 1.391 . S
C1447 H1435 0.950 . S
C1447 C1443 1.393 . S
C1447 C1446 1.391 . S
H1448 C1456 0.950 . S
H1449 C1461 0.950 . S
H1450 C1458 0.950 . S
H1451 C1460 0.950 . S
H1452 C1462 0.950 . S
H1453 C1464 0.950 . S
H1454 C1466 0.950 . S
H1455 C1467 0.950 . S
C1456 H1448 0.950 . S
C1456 C1457 1.386 . S
C1456 C1458 1.391 . S
C1457 C1456 1.386 . S
C1457 C1461 1.393 . S
C1458 H1450 0.950 . S
C1458 C1456 1.391 . S
C1458 C1459 1.400 . S
C1459 C1458 1.400 . S
C1459 C1460 1.398 . S
C1459 C1465 1.491 . S
C1460 H1451 0.950 . S
C1460 C1459 1.398 . S
C1460 C1461 1.391 . S
C1461 H1449 0.950 . S
C1461 C1457 1.393 . S
C1461 C1460 1.391 . S
C1462 H1452 0.950 . S
C1462 C1463 1.386 . S
C1462 C1464 1.391 . S
C1463 C1462 1.386 . S
C1463 C1467 1.393 . S
C1464 H1453 0.950 . S
C1464 C1462 1.391 . S
C1464 C1465 1.400 . S
C1465 C1459 1.491 . S
C1465 C1464 1.400 . S
C1465 C1466 1.398 . S
C1466 H1454 0.950 . S
C1466 C1465 1.398 . S
C1466 C1467 1.391 . S
C1467 H1455 0.950 . S
C1467 C1463 1.393 . S
C1467 C1466 1.391 . S
H1468 C1476 0.950 . S
H1469 C1481 0.950 . S
H1470 C1478 0.950 . S
H1471 C1480 0.950 . S
H1472 C1482 0.950 . S
H1473 C1484 0.950 . S
H1474 C1486 0.950 . S
H1475 C1487 0.950 . S
C1476 H1468 0.950 . S
C1476 C1477 1.386 . S
C1476 C1478 1.391 . S
C1477 C1476 1.386 . S
C1477 C1481 1.393 . S
C1478 H1470 0.950 . S
C1478 C1476 1.391 . S
C1478 C1479 1.400 . S
C1479 C1478 1.400 . S
C1479 C1480 1.398 . S
C1479 C1485 1.491 . S
C1480 H1471 0.950 . S
C1480 C1479 1.398 . S
C1480 C1481 1.391 . S
C1481 H1469 0.950 . S
C1481 C1477 1.393 . S
C1481 C1480 1.391 . S
C1482 H1472 0.950 . S
C1482 C1483 1.386 . S
C1482 C1484 1.391 . S
C1483 C1482 1.386 . S
C1483 C1487 1.393 . S
C1484 H1473 0.950 . S
C1484 C1482 1.391 . S
C1484 C1485 1.400 . S
C1485 C1479 1.491 . S
C1485 C1484 1.400 . S
C1485 C1486 1.398 . S
C1486 H1474 0.950 . S
C1486 C1485 1.398 . S
C1486 C1487 1.391 . S
C1487 H1475 0.950 . S
C1487 C1483 1.393 . S
C1487 C1486 1.391 . S
H1488 C1496 0.950 . S
H1489 C1501 0.950 . S
H1490 C1498 0.950 . S
H1491 C1500 0.950 . S
H1492 C1502 0.950 . S
H1493 C1504 0.950 . S
H1494 C1506 0.950 . S
H1495 C1507 0.950 . S
C1496 H1488 0.950 . S
C1496 C1497 1.386 . S
C1496 C1498 1.391 . S
C1497 C1496 1.386 . S
C1497 C1501 1.393 . S
C1498 H1490 0.950 . S
C1498 C1496 1.391 . S
C1498 C1499 1.400 . S
C1499 C1498 1.400 . S
C1499 C1500 1.398 . S
C1499 C1505 1.491 . S
C1500 H1491 0.950 . S
C1500 C1499 1.398 . S
C1500 C1501 1.391 . S
C1501 H1489 0.950 . S
C1501 C1497 1.393 . S
C1501 C1500 1.391 . S
C1502 H1492 0.950 . S
C1502 C1503 1.386 . S
C1502 C1504 1.391 . S
C1503 C1502 1.386 . S
C1503 C1507 1.393 . S
C1504 H1493 0.950 . S
C1504 C1502 1.391 . S
C1504 C1505 1.400 . S
C1505 C1499 1.491 . S
C1505 C1504 1.400 . S
C1505 C1506 1.398 . S
C1506 H1494 0.950 . S
C1506 C1505 1.398 . S
C1506 C1507 1.391 . S
C1507 H1495 0.950 . S
C1507 C1503 1.393 . S
C1507 C1506 1.391 . S
H1508 C1516 0.950 . S
H1509 C1521 0.950 . S
H1510 C1518 0.950 . S
H1511 C1520 0.950 . S
H1512 C1522 0.950 . S
H1513 C1524 0.950 . S
H1514 C1526 0.950 . S
H1515 C1527 0.950 . S
C1516 H1508 0.950 . S
C1516 C1517 1.386 . S
C1516 C1518 1.391 . S
C1517 C1516 1.386 . S
C1517 C1521 1.393 . S
C1518 H1510 0.950 . S
C1518 C1516 1.391 . S
C1518 C1519 1.400 . S
C1519 C1518 1.400 . S
C1519 C1520 1.398 . S
C1519 C1525 1.491 . S
C1520 H1511 0.950 . S
C1520 C1519 1.398 . S
C1520 C1521 1.391 . S
C1521 H1509 0.950 . S
C1521 C1517 1.393 . S
C1521 C1520 1.391 . S
C1522 H1512 0.950 . S
C1522 C1523 1.386 . S
C1522 C1524 1.391 . S
C1523 C1522 1.386 . S
C1523 C1527 1.393 . S
C1524 H1513 0.950 . S
C1524 C1522 1.391 . S
C1524 C1525 1.400 . S
C1525 C1519 1.491 . S
C1525 C1524 1.400 . S
C1525 C1526 1.398 . S
C1526 H1514 0.950 . S
C1526 C1525 1.398 . S
C1526 C1527 1.391 . S
C1527 H1515 0.950 . S
C1527 C1523 1.393 . S
C1527 C1526 1.391 . S
H1528 C1536 0.950 . S
H1529 C1541 0.950 . S
H1530 C1538 0.950 . S
H1531 C1540 0.950 . S
H1532 C1542 0.950 . S
H1533 C1544 0.950 . S
H1534 C1546 0.950 . S
H1535 C1547 0.950 . S
C1536 H1528 0.950 . S
C1536 C1537 1.386 . S
C1536 C1538 1.391 . S
C1537 C1536 1.386 . S
C1537 C1541 1.393 . S
C1538 H1530 0.950 . S
C1538 C1536 1.391 . S
C1538 C1539 1.400 . S
C1539 C1538 1.400 . S
C1539 C1540 1.398 . S
C1539 C1545 1.491 . S
C1540 H1531 0.950 . S
C1540 C1539 1.398 . S
C1540 C1541 1.391 . S
C1541 H1529 0.950 . S
C1541 C1537 1.393 . S
C1541 C1540 1.391 . S
C1542 H1532 0.950 . S
C1542 C1543 1.386 . S
C1542 C1544 1.391 . S
C1543 C1542 1.386 . S
C1543 C1547 1.393 . S
C1544 H1533 0.950 . S
C1544 C1542 1.391 . S
C1544 C1545 1.400 . S
C1545 C1539 1.491 . S
C1545 C1544 1.400 . S
C1545 C1546 1.398 . S
C1546 H1534 0.950 . S
C1546 C1545 1.398 . S
C1546 C1547 1.391 . S
C1547 H1535 0.950 . S
C1547 C1543 1.393 . S
C1547 C1546 1.391 . S
H1548 C1556 0.950 . S
H1549 C1561 0.950 . S
H1550 C1558 0.950 . S
H1551 C1560 0.950 . S
H1552 C1562 0.950 . S
H1553 C1564 0.950 . S
H1554 C1566 0.950 . S
H1555 C1567 0.950 . S
C1556 H1548 0.950 . S
C1556 C1557 1.386 . S
C1556 C1558 1.391 . S
C1557 C1556 1.386 . S
C1557 C1561 1.393 . S
C1558 H1550 0.950 . S
C1558 C1556 1.391 . S
C1558 C1559 1.400 . S
C1559 C1558 1.400 . S
C1559 C1560 1.398 . S
C1559 C1565 1.491 . S
C1560 H1551 0.950 . S
C1560 C1559 1.398 . S
C1560 C1561 1.391 . S
C1561 H1549 0.950 . S
C1561 C1557 1.393 . S
C1561 C1560 1.391 . S
C1562 H1552 0.950 . S
C1562 C1563 1.386 . S
C1562 C1564 1.391 . S
C1563 C1562 1.386 . S
C1563 C1567 1.393 . S
C1564 H1553 0.950 . S
C1564 C1562 1.391 . S
C1564 C1565 1.400 . S
C1565 C1559 1.491 . S
C1565 C1564 1.400 . S
C1565 C1566 1.398 . S
C1566 H1554 0.950 . S
C1566 C1565 1.398 . S
C1566 C1567 1.391 . S
C1567 H1555 0.950 . S
C1567 C1563 1.393 . S
C1567 C1566 1.391 . S
H1568 C1576 0.950 . S
H1569 C1581 0.950 . S
H1570 C1578 0.950 . S
H1571 C1580 0.950 1_545 S
H1572 C1582 0.950 . S
H1573 C1584 0.950 . S
H1574 C1586 0.950 1_565 S
H1575 C1587 0.950 . S
C1576 H1568 0.950 . S
C1576 C1577 1.386 . S
C1576 C1578 1.391 . S
C1577 C1576 1.386 . S
C1577 C1581 1.393 . S
C1578 H1570 0.950 . S
C1578 C1576 1.391 . S
C1578 C1579 1.400 . S
C1579 C1578 1.400 . S
C1579 C1580 1.398 . S
C1579 C1585 1.491 1_565 S
C1580 H1571 0.950 1_565 S
C1580 C1579 1.398 . S
C1580 C1581 1.391 . S
C1581 H1569 0.950 . S
C1581 C1577 1.393 . S
C1581 C1580 1.391 . S
C1582 H1572 0.950 . S
C1582 C1583 1.386 . S
C1582 C1584 1.391 . S
C1583 C1582 1.386 . S
C1583 C1587 1.393 . S
C1584 H1573 0.950 . S
C1584 C1582 1.391 . S
C1584 C1585 1.400 . S
C1585 C1579 1.491 1_545 S
C1585 C1584 1.400 . S
C1585 C1586 1.398 . S
C1586 H1574 0.950 1_545 S
C1586 C1585 1.398 . S
C1586 C1587 1.391 . S
C1587 H1575 0.950 . S
C1587 C1583 1.393 . S
C1587 C1586 1.391 . S
H1588 C1596 0.950 . S
H1589 C1601 0.950 . S
H1590 C1598 0.950 . S
H1591 C1600 0.950 . S
H1592 C1602 0.950 . S
H1593 C1604 0.950 . S
H1594 C1606 0.950 . S
H1595 C1607 0.950 . S
C1596 H1588 0.950 . S
C1596 C1597 1.386 . S
C1596 C1598 1.391 . S
C1597 C1596 1.386 . S
C1597 C1601 1.393 . S
C1598 H1590 0.950 . S
C1598 C1596 1.391 . S
C1598 C1599 1.400 . S
C1599 C1598 1.400 . S
C1599 C1600 1.398 . S
C1599 C1605 1.491 . S
C1600 H1591 0.950 . S
C1600 C1599 1.398 . S
C1600 C1601 1.391 . S
C1601 H1589 0.950 . S
C1601 C1597 1.393 . S
C1601 C1600 1.391 . S
C1602 H1592 0.950 . S
C1602 C1603 1.386 . S
C1602 C1604 1.391 . S
C1603 C1602 1.386 . S
C1603 C1607 1.393 . S
C1604 H1593 0.950 . S
C1604 C1602 1.391 . S
C1604 C1605 1.400 . S
C1605 C1599 1.491 . S
C1605 C1604 1.400 . S
C1605 C1606 1.398 . S
C1606 H1594 0.950 . S
C1606 C1605 1.398 . S
C1606 C1607 1.391 . S
C1607 H1595 0.950 . S
C1607 C1603 1.393 . S
C1607 C1606 1.391 . S
H1608 C1616 0.950 . S
H1609 C1621 0.950 . S
H1610 C1618 0.950 . S
H1611 C1620 0.950 1_554 S
H1612 C1622 0.950 . S
H1613 C1624 0.950 . S
H1614 C1626 0.950 1_556 S
H1615 C1627 0.950 . S
C1616 H1608 0.950 . S
C1616 C1617 1.386 . S
C1616 C1618 1.391 . S
C1617 C1616 1.386 . S
C1617 C1621 1.393 . S
C1618 H1610 0.950 . S
C1618 C1616 1.391 . S
C1618 C1619 1.400 . S
C1619 C1618 1.400 . S
C1619 C1620 1.398 . S
C1619 C1625 1.491 1_556 S
C1620 H1611 0.950 1_556 S
C1620 C1619 1.398 . S
C1620 C1621 1.391 . S
C1621 H1609 0.950 . S
C1621 C1617 1.393 . S
C1621 C1620 1.391 . S
C1622 H1612 0.950 . S
C1622 C1623 1.386 . S
C1622 C1624 1.391 . S
C1623 C1622 1.386 . S
C1623 C1627 1.393 . S
C1624 H1613 0.950 . S
C1624 C1622 1.391 . S
C1624 C1625 1.400 . S
C1625 C1619 1.491 1_554 S
C1625 C1624 1.400 . S
C1625 C1626 1.398 . S
C1626 H1614 0.950 1_554 S
C1626 C1625 1.398 . S
C1626 C1627 1.391 . S
C1627 H1615 0.950 . S
C1627 C1623 1.393 . S
C1627 C1626 1.391 . S
H1628 C1636 0.950 . S
H1629 C1641 0.950 . S
H1630 C1638 0.950 . S
H1631 C1640 0.950 1_556 S
H1632 C1642 0.950 . S
H1633 C1644 0.950 . S
H1634 C1646 0.950 1_554 S
H1635 C1647 0.950 . S
C1636 H1628 0.950 . S
C1636 C1637 1.386 . S
C1636 C1638 1.391 . S
C1637 C1636 1.386 . S
C1637 C1641 1.393 . S
C1638 H1630 0.950 . S
C1638 C1636 1.391 . S
C1638 C1639 1.400 . S
C1639 C1638 1.400 . S
C1639 C1640 1.398 . S
C1639 C1645 1.491 1_554 S
C1640 H1631 0.950 1_554 S
C1640 C1639 1.398 . S
C1640 C1641 1.391 . S
C1641 H1629 0.950 . S
C1641 C1637 1.393 . S
C1641 C1640 1.391 . S
C1642 H1632 0.950 . S
C1642 C1643 1.386 . S
C1642 C1644 1.391 . S
C1643 C1642 1.386 . S
C1643 C1647 1.393 . S
C1644 H1633 0.950 . S
C1644 C1642 1.391 . S
C1644 C1645 1.400 . S
C1645 C1639 1.491 1_556 S
C1645 C1644 1.400 . S
C1645 C1646 1.398 . S
C1646 H1634 0.950 1_556 S
C1646 C1645 1.398 . S
C1646 C1647 1.391 . S
C1647 H1635 0.950 . S
C1647 C1643 1.393 . S
C1647 C1646 1.391 . S
H1648 C1656 0.950 . S
H1649 C1661 0.950 . S
H1650 C1658 0.950 . S
H1651 C1660 0.950 . S
H1652 C1662 0.950 . S
H1653 C1664 0.950 . S
H1654 C1666 0.950 . S
H1655 C1667 0.950 . S
C1656 H1648 0.950 . S
C1656 C1657 1.386 . S
C1656 C1658 1.391 . S
C1657 C1656 1.386 . S
C1657 C1661 1.393 . S
C1658 H1650 0.950 . S
C1658 C1656 1.391 . S
C1658 C1659 1.400 . S
C1659 C1658 1.400 . S
C1659 C1660 1.398 . S
C1659 C1665 1.491 . S
C1660 H1651 0.950 . S
C1660 C1659 1.398 . S
C1660 C1661 1.391 . S
C1661 H1649 0.950 . S
C1661 C1657 1.393 . S
C1661 C1660 1.391 . S
C1662 H1652 0.950 . S
C1662 C1663 1.386 . S
C1662 C1664 1.391 . S
C1663 C1662 1.386 . S
C1663 C1667 1.393 . S
C1664 H1653 0.950 . S
C1664 C1662 1.391 . S
C1664 C1665 1.400 . S
C1665 C1659 1.491 . S
C1665 C1664 1.400 . S
C1665 C1666 1.398 . S
C1666 H1654 0.950 . S
C1666 C1665 1.398 . S
C1666 C1667 1.391 . S
C1667 H1655 0.950 . S
C1667 C1663 1.393 . S
C1667 C1666 1.391 . S
H1668 C1676 0.950 . S
H1669 C1681 0.950 . S
H1670 C1678 0.950 . S
H1671 C1680 0.950 . S
H1672 C1682 0.950 . S
H1673 C1684 0.950 . S
H1674 C1686 0.950 . S
H1675 C1687 0.950 . S
C1676 H1668 0.950 . S
C1676 C1677 1.386 . S
C1676 C1678 1.391 . S
C1677 C1676 1.386 . S
C1677 C1681 1.393 . S
C1678 H1670 0.950 . S
C1678 C1676 1.391 . S
C1678 C1679 1.400 . S
C1679 C1678 1.400 . S
C1679 C1680 1.398 . S
C1679 C1685 1.491 . S
C1680 H1671 0.950 . S
C1680 C1679 1.398 . S
C1680 C1681 1.391 . S
C1681 H1669 0.950 . S
C1681 C1677 1.393 . S
C1681 C1680 1.391 . S
C1682 H1672 0.950 . S
C1682 C1683 1.386 . S
C1682 C1684 1.391 . S
C1683 C1682 1.386 . S
C1683 C1687 1.393 . S
C1684 H1673 0.950 . S
C1684 C1682 1.391 . S
C1684 C1685 1.400 . S
C1685 C1679 1.491 . S
C1685 C1684 1.400 . S
C1685 C1686 1.398 . S
C1686 H1674 0.950 . S
C1686 C1685 1.398 . S
C1686 C1687 1.391 . S
C1687 H1675 0.950 . S
C1687 C1683 1.393 . S
C1687 C1686 1.391 . S
H1688 C1696 0.950 . S
H1689 C1701 0.950 . S
H1690 C1698 0.950 . S
H1691 C1700 0.950 . S
H1692 C1702 0.950 . S
H1693 C1704 0.950 . S
H1694 C1706 0.950 . S
H1695 C1707 0.950 . S
C1696 H1688 0.950 . S
C1696 C1697 1.386 . S
C1696 C1698 1.391 . S
C1697 C1696 1.386 . S
C1697 C1701 1.393 . S
C1698 H1690 0.950 . S
C1698 C1696 1.391 . S
C1698 C1699 1.400 . S
C1699 C1698 1.400 . S
C1699 C1700 1.398 . S
C1699 C1705 1.491 1_655 S
C1700 H1691 0.950 . S
C1700 C1699 1.398 . S
C1700 C1701 1.391 . S
C1701 H1689 0.950 . S
C1701 C1697 1.393 . S
C1701 C1700 1.391 . S
C1702 H1692 0.950 . S
C1702 C1703 1.386 . S
C1702 C1704 1.391 . S
C1703 C1702 1.386 . S
C1703 C1707 1.393 . S
C1704 H1693 0.950 . S
C1704 C1702 1.391 . S
C1704 C1705 1.400 . S
C1705 C1699 1.491 1_455 S
C1705 C1704 1.400 . S
C1705 C1706 1.398 . S
C1706 H1694 0.950 . S
C1706 C1705 1.398 . S
C1706 C1707 1.391 . S
C1707 H1695 0.950 . S
C1707 C1703 1.393 . S
C1707 C1706 1.391 . S
H1708 C1716 0.950 . S
H1709 C1721 0.950 . S
H1710 C1718 0.950 1_455 S
H1711 C1720 0.950 . S
H1712 C1722 0.950 . S
H1713 C1724 0.950 1_655 S
H1714 C1726 0.950 . S
H1715 C1727 0.950 . S
C1716 H1708 0.950 . S
C1716 C1717 1.386 . S
C1716 C1718 1.391 . S
C1717 C1716 1.386 . S
C1717 C1721 1.393 . S
C1718 H1710 0.950 1_655 S
C1718 C1716 1.391 . S
C1718 C1719 1.400 . S
C1719 C1718 1.400 . S
C1719 C1720 1.398 . S
C1719 C1725 1.491 1_655 S
C1720 H1711 0.950 . S
C1720 C1719 1.398 . S
C1720 C1721 1.391 . S
C1721 H1709 0.950 . S
C1721 C1717 1.393 . S
C1721 C1720 1.391 . S
C1722 H1712 0.950 . S
C1722 C1723 1.386 . S
C1722 C1724 1.391 . S
C1723 C1722 1.386 . S
C1723 C1727 1.393 . S
C1724 H1713 0.950 1_455 S
C1724 C1722 1.391 . S
C1724 C1725 1.400 . S
C1725 C1719 1.491 1_455 S
C1725 C1724 1.400 . S
C1725 C1726 1.398 . S
C1726 H1714 0.950 . S
C1726 C1725 1.398 . S
C1726 C1727 1.391 . S
C1727 H1715 0.950 . S
C1727 C1723 1.393 . S
C1727 C1726 1.391 . S
H1728 C1736 0.950 . S
H1729 C1741 0.950 . S
H1730 C1738 0.950 . S
H1731 C1740 0.950 . S
H1732 C1742 0.950 . S
H1733 C1744 0.950 . S
H1734 C1746 0.950 . S
H1735 C1747 0.950 . S
C1736 H1728 0.950 . S
C1736 C1737 1.386 . S
C1736 C1738 1.391 . S
C1737 C1736 1.386 . S
C1737 C1741 1.393 . S
C1738 H1730 0.950 . S
C1738 C1736 1.391 . S
C1738 C1739 1.400 . S
C1739 C1738 1.400 . S
C1739 C1740 1.398 . S
C1739 C1745 1.491 . S
C1740 H1731 0.950 . S
C1740 C1739 1.398 . S
C1740 C1741 1.391 . S
C1741 H1729 0.950 . S
C1741 C1737 1.393 . S
C1741 C1740 1.391 . S
C1742 H1732 0.950 . S
C1742 C1743 1.386 . S
C1742 C1744 1.391 . S
C1743 C1742 1.386 . S
C1743 C1747 1.393 . S
C1744 H1733 0.950 . S
C1744 C1742 1.391 . S
C1744 C1745 1.400 . S
C1745 C1739 1.491 . S
C1745 C1744 1.400 . S
C1745 C1746 1.398 . S
C1746 H1734 0.950 . S
C1746 C1745 1.398 . S
C1746 C1747 1.391 . S
C1747 H1735 0.950 . S
C1747 C1743 1.393 . S
C1747 C1746 1.391 . S
H1748 C1756 0.950 . S
H1749 C1761 0.950 . S
H1750 C1758 0.950 . S
H1751 C1760 0.950 . S
H1752 C1762 0.950 . S
H1753 C1764 0.950 . S
H1754 C1766 0.950 . S
H1755 C1767 0.950 . S
C1756 H1748 0.950 . S
C1756 C1757 1.386 . S
C1756 C1758 1.391 . S
C1757 C1756 1.386 . S
C1757 C1761 1.393 . S
C1758 H1750 0.950 . S
C1758 C1756 1.391 . S
C1758 C1759 1.400 . S
C1759 C1758 1.400 . S
C1759 C1760 1.398 . S
C1759 C1765 1.491 1_545 S
C1760 H1751 0.950 . S
C1760 C1759 1.398 . S
C1760 C1761 1.391 . S
C1761 H1749 0.950 . S
C1761 C1757 1.393 . S
C1761 C1760 1.391 . S
C1762 H1752 0.950 . S
C1762 C1763 1.386 . S
C1762 C1764 1.391 . S
C1763 C1762 1.386 . S
C1763 C1767 1.393 . S
C1764 H1753 0.950 . S
C1764 C1762 1.391 . S
C1764 C1765 1.400 . S
C1765 C1759 1.491 1_565 S
C1765 C1764 1.400 . S
C1765 C1766 1.398 . S
C1766 H1754 0.950 . S
C1766 C1765 1.398 . S
C1766 C1767 1.391 . S
C1767 H1755 0.950 . S
C1767 C1763 1.393 . S
C1767 C1766 1.391 . S
H1768 C1776 0.950 . S
H1769 C1781 0.950 . S
H1770 C1778 0.950 . S
H1771 C1780 0.950 . S
H1772 C1782 0.950 . S
H1773 C1784 0.950 . S
H1774 C1786 0.950 . S
H1775 C1787 0.950 . S
C1776 H1768 0.950 . S
C1776 C1777 1.386 . S
C1776 C1778 1.391 . S
C1777 C1776 1.386 . S
C1777 C1781 1.393 . S
C1778 H1770 0.950 . S
C1778 C1776 1.391 . S
C1778 C1779 1.400 . S
C1779 C1778 1.400 . S
C1779 C1780 1.398 . S
C1779 C1785 1.491 . S
C1780 H1771 0.950 . S
C1780 C1779 1.398 . S
C1780 C1781 1.391 . S
C1781 H1769 0.950 . S
C1781 C1777 1.393 . S
C1781 C1780 1.391 . S
C1782 H1772 0.950 . S
C1782 C1783 1.386 . S
C1782 C1784 1.391 . S
C1783 C1782 1.386 . S
C1783 C1787 1.393 . S
C1784 H1773 0.950 . S
C1784 C1782 1.391 . S
C1784 C1785 1.400 . S
C1785 C1779 1.491 . S
C1785 C1784 1.400 . S
C1785 C1786 1.398 . S
C1786 H1774 0.950 . S
C1786 C1785 1.398 . S
C1786 C1787 1.391 . S
C1787 H1775 0.950 . S
C1787 C1783 1.393 . S
C1787 C1786 1.391 . S
H1788 C1796 0.950 . S
H1789 C1801 0.950 . S
H1790 C1798 0.950 1_556 S
H1791 C1800 0.950 . S
H1792 C1802 0.950 . S
H1793 C1804 0.950 1_554 S
H1794 C1806 0.950 . S
H1795 C1807 0.950 . S
C1796 H1788 0.950 . S
C1796 C1797 1.386 . S
C1796 C1798 1.391 . S
C1797 C1796 1.386 . S
C1797 C1801 1.393 . S
C1798 H1790 0.950 1_554 S
C1798 C1796 1.391 . S
C1798 C1799 1.400 . S
C1799 C1798 1.400 . S
C1799 C1800 1.398 . S
C1799 C1805 1.491 1_554 S
C1800 H1791 0.950 . S
C1800 C1799 1.398 . S
C1800 C1801 1.391 . S
C1801 H1789 0.950 . S
C1801 C1797 1.393 . S
C1801 C1800 1.391 . S
C1802 H1792 0.950 . S
C1802 C1803 1.386 . S
C1802 C1804 1.391 . S
C1803 C1802 1.386 . S
C1803 C1807 1.393 . S
C1804 H1793 0.950 1_556 S
C1804 C1802 1.391 . S
C1804 C1805 1.400 . S
C1805 C1799 1.491 1_556 S
C1805 C1804 1.400 . S
C1805 C1806 1.398 . S
C1806 H1794 0.950 . S
C1806 C1805 1.398 . S
C1806 C1807 1.391 . S
C1807 H1795 0.950 . S
C1807 C1803 1.393 . S
C1807 C1806 1.391 . S
H1808 C1816 0.950 . S
H1809 C1821 0.950 . S
H1810 C1818 0.950 . S
H1811 C1820 0.950 . S
H1812 C1822 0.950 . S
H1813 C1824 0.950 . S
H1814 C1826 0.950 . S
H1815 C1827 0.950 . S
C1816 H1808 0.950 . S
C1816 C1817 1.386 . S
C1816 C1818 1.391 . S
C1817 C1816 1.386 . S
C1817 C1821 1.393 . S
C1818 H1810 0.950 . S
C1818 C1816 1.391 . S
C1818 C1819 1.400 . S
C1819 C1818 1.400 . S
C1819 C1820 1.398 . S
C1819 C1825 1.491 1_556 S
C1820 H1811 0.950 . S
C1820 C1819 1.398 . S
C1820 C1821 1.391 . S
C1821 H1809 0.950 . S
C1821 C1817 1.393 . S
C1821 C1820 1.391 . S
C1822 H1812 0.950 . S
C1822 C1823 1.386 . S
C1822 C1824 1.391 . S
C1823 C1822 1.386 . S
C1823 C1827 1.393 . S
C1824 H1813 0.950 . S
C1824 C1822 1.391 . S
C1824 C1825 1.400 . S
C1825 C1819 1.491 1_554 S
C1825 C1824 1.400 . S
C1825 C1826 1.398 . S
C1826 H1814 0.950 . S
C1826 C1825 1.398 . S
C1826 C1827 1.391 . S
C1827 H1815 0.950 . S
C1827 C1823 1.393 . S
C1827 C1826 1.391 . S
H1828 C1836 0.950 . S
H1829 C1841 0.950 . S
H1830 C1838 0.950 . S
H1831 C1840 0.950 . S
H1832 C1842 0.950 . S
H1833 C1844 0.950 . S
H1834 C1846 0.950 . S
H1835 C1847 0.950 . S
C1836 H1828 0.950 . S
C1836 C1837 1.386 . S
C1836 C1838 1.391 . S
C1837 C1836 1.386 . S
C1837 C1841 1.393 . S
C1838 H1830 0.950 . S
C1838 C1836 1.391 . S
C1838 C1839 1.400 . S
C1839 C1838 1.400 . S
C1839 C1840 1.398 . S
C1839 C1845 1.491 . S
C1840 H1831 0.950 . S
C1840 C1839 1.398 . S
C1840 C1841 1.391 . S
C1841 H1829 0.950 . S
C1841 C1837 1.393 . S
C1841 C1840 1.391 . S
C1842 H1832 0.950 . S
C1842 C1843 1.386 . S
C1842 C1844 1.391 . S
C1843 C1842 1.386 . S
C1843 C1847 1.393 . S
C1844 H1833 0.950 . S
C1844 C1842 1.391 . S
C1844 C1845 1.400 . S
C1845 C1839 1.491 . S
C1845 C1844 1.400 . S
C1845 C1846 1.398 . S
C1846 H1834 0.950 . S
C1846 C1845 1.398 . S
C1846 C1847 1.391 . S
C1847 H1835 0.950 . S
C1847 C1843 1.393 . S
C1847 C1846 1.391 . S
H1848 C1856 0.950 . S
H1849 C1861 0.950 . S
H1850 C1858 0.950 . S
H1851 C1860 0.950 . S
H1852 C1862 0.950 . S
H1853 C1864 0.950 . S
H1854 C1866 0.950 . S
H1855 C1867 0.950 . S
C1856 H1848 0.950 . S
C1856 C1857 1.386 . S
C1856 C1858 1.391 . S
C1857 C1856 1.386 . S
C1857 C1861 1.393 . S
C1858 H1850 0.950 . S
C1858 C1856 1.391 . S
C1858 C1859 1.400 . S
C1859 C1858 1.400 . S
C1859 C1860 1.398 . S
C1859 C1865 1.491 . S
C1860 H1851 0.950 . S
C1860 C1859 1.398 . S
C1860 C1861 1.391 . S
C1861 H1849 0.950 . S
C1861 C1857 1.393 . S
C1861 C1860 1.391 . S
C1862 H1852 0.950 . S
C1862 C1863 1.386 . S
C1862 C1864 1.391 . S
C1863 C1862 1.386 . S
C1863 C1867 1.393 . S
C1864 H1853 0.950 . S
C1864 C1862 1.391 . S
C1864 C1865 1.400 . S
C1865 C1859 1.491 . S
C1865 C1864 1.400 . S
C1865 C1866 1.398 . S
C1866 H1854 0.950 . S
C1866 C1865 1.398 . S
C1866 C1867 1.391 . S
C1867 H1855 0.950 . S
C1867 C1863 1.393 . S
C1867 C1866 1.391 . S
H1868 C1876 0.950 . S
H1869 C1881 0.950 . S
H1870 C1878 0.950 . S
H1871 C1880 0.950 1_655 S
H1872 C1882 0.950 . S
H1873 C1884 0.950 . S
H1874 C1886 0.950 1_455 S
H1875 C1887 0.950 . S
C1876 H1868 0.950 . S
C1876 C1877 1.386 . S
C1876 C1878 1.391 . S
C1877 C1876 1.386 . S
C1877 C1881 1.393 . S
C1878 H1870 0.950 . S
C1878 C1876 1.391 . S
C1878 C1879 1.400 . S
C1879 C1878 1.400 . S
C1879 C1880 1.398 . S
C1879 C1885 1.491 1_455 S
C1880 H1871 0.950 1_455 S
C1880 C1879 1.398 . S
C1880 C1881 1.391 . S
C1881 H1869 0.950 . S
C1881 C1877 1.393 . S
C1881 C1880 1.391 . S
C1882 H1872 0.950 . S
C1882 C1883 1.386 . S
C1882 C1884 1.391 . S
C1883 C1882 1.386 . S
C1883 C1887 1.393 . S
C1884 H1873 0.950 . S
C1884 C1882 1.391 . S
C1884 C1885 1.400 . S
C1885 C1879 1.491 1_655 S
C1885 C1884 1.400 . S
C1885 C1886 1.398 . S
C1886 H1874 0.950 1_655 S
C1886 C1885 1.398 . S
C1886 C1887 1.391 . S
C1887 H1875 0.950 . S
C1887 C1883 1.393 . S
C1887 C1886 1.391 . S
H1888 C1896 0.950 . S
H1889 C1901 0.950 . S
H1890 C1898 0.950 . S
H1891 C1900 0.950 1_655 S
H1892 C1902 0.950 . S
H1893 C1904 0.950 . S
H1894 C1906 0.950 1_455 S
H1895 C1907 0.950 . S
C1896 H1888 0.950 . S
C1896 C1897 1.386 . S
C1896 C1898 1.391 . S
C1897 C1896 1.386 . S
C1897 C1901 1.393 . S
C1898 H1890 0.950 . S
C1898 C1896 1.391 . S
C1898 C1899 1.400 . S
C1899 C1898 1.400 . S
C1899 C1900 1.398 . S
C1899 C1905 1.491 1_455 S
C1900 H1891 0.950 1_455 S
C1900 C1899 1.398 . S
C1900 C1901 1.391 . S
C1901 H1889 0.950 . S
C1901 C1897 1.393 . S
C1901 C1900 1.391 . S
C1902 H1892 0.950 . S
C1902 C1903 1.386 . S
C1902 C1904 1.391 . S
C1903 C1902 1.386 . S
C1903 C1907 1.393 . S
C1904 H1893 0.950 . S
C1904 C1902 1.391 . S
C1904 C1905 1.400 . S
C1905 C1899 1.491 1_655 S
C1905 C1904 1.400 . S
C1905 C1906 1.398 . S
C1906 H1894 0.950 1_655 S
C1906 C1905 1.398 . S
C1906 C1907 1.391 . S
C1907 H1895 0.950 . S
C1907 C1903 1.393 . S
C1907 C1906 1.391 . S
H1908 C1916 0.950 . S
H1909 C1921 0.950 . S
H1910 C1918 0.950 . S
H1911 C1920 0.950 . S
H1912 C1922 0.950 . S
H1913 C1924 0.950 . S
H1914 C1926 0.950 . S
H1915 C1927 0.950 . S
C1916 H1908 0.950 . S
C1916 C1917 1.386 . S
C1916 C1918 1.391 . S
C1917 C1916 1.386 . S
C1917 C1921 1.393 . S
C1918 H1910 0.950 . S
C1918 C1916 1.391 . S
C1918 C1919 1.400 . S
C1919 C1918 1.400 . S
C1919 C1920 1.398 . S
C1919 C1925 1.491 . S
C1920 H1911 0.950 . S
C1920 C1919 1.398 . S
C1920 C1921 1.391 . S
C1921 H1909 0.950 . S
C1921 C1917 1.393 . S
C1921 C1920 1.391 . S
C1922 H1912 0.950 . S
C1922 C1923 1.386 . S
C1922 C1924 1.391 . S
C1923 C1922 1.386 . S
C1923 C1927 1.393 . S
C1924 H1913 0.950 . S
C1924 C1922 1.391 . S
C1924 C1925 1.400 . S
C1925 C1919 1.491 . S
C1925 C1924 1.400 . S
C1925 C1926 1.398 . S
C1926 H1914 0.950 . S
C1926 C1925 1.398 . S
C1926 C1927 1.391 . S
C1927 H1915 0.950 . S
C1927 C1923 1.393 . S
C1927 C1926 1.391 . S
H1928 C1936 0.950 . S
H1929 C1941 0.950 . S
H1930 C1938 0.950 . S
H1931 C1940 0.950 . S
H1932 C1942 0.950 . S
H1933 C1944 0.950 . S
H1934 C1946 0.950 . S
H1935 C1947 0.950 . S
C1936 H1928 0.950 . S
C1936 C1937 1.386 . S
C1936 C1938 1.391 . S
C1937 C1936 1.386 . S
C1937 C1941 1.393 . S
C1938 H1930 0.950 . S
C1938 C1936 1.391 . S
C1938 C1939 1.400 . S
C1939 C1938 1.400 . S
C1939 C1940 1.398 . S
C1939 C1945 1.491 . S
C1940 H1931 0.950 . S
C1940 C1939 1.398 . S
C1940 C1941 1.391 . S
C1941 H1929 0.950 . S
C1941 C1937 1.393 . S
C1941 C1940 1.391 . S
C1942 H1932 0.950 . S
C1942 C1943 1.386 . S
C1942 C1944 1.391 . S
C1943 C1942 1.386 . S
C1943 C1947 1.393 . S
C1944 H1933 0.950 . S
C1944 C1942 1.391 . S
C1944 C1945 1.400 . S
C1945 C1939 1.491 . S
C1945 C1944 1.400 . S
C1945 C1946 1.398 . S
C1946 H1934 0.950 . S
C1946 C1945 1.398 . S
C1946 C1947 1.391 . S
C1947 H1935 0.950 . S
C1947 C1943 1.393 . S
C1947 C1946 1.391 . S
H1948 C1956 0.950 . S
H1949 C1961 0.950 . S
H1950 C1958 0.950 . S
H1951 C1960 0.950 1_565 S
H1952 C1962 0.950 . S
H1953 C1964 0.950 . S
H1954 C1966 0.950 1_545 S
H1955 C1967 0.950 . S
C1956 H1948 0.950 . S
C1956 C1957 1.386 . S
C1956 C1958 1.391 . S
C1957 C1956 1.386 . S
C1957 C1961 1.393 . S
C1958 H1950 0.950 . S
C1958 C1956 1.391 . S
C1958 C1959 1.400 . S
C1959 C1958 1.400 . S
C1959 C1960 1.398 . S
C1959 C1965 1.491 1_545 S
C1960 H1951 0.950 1_545 S
C1960 C1959 1.398 . S
C1960 C1961 1.391 . S
C1961 H1949 0.950 . S
C1961 C1957 1.393 . S
C1961 C1960 1.391 . S
C1962 H1952 0.950 . S
C1962 C1963 1.386 . S
C1962 C1964 1.391 . S
C1963 C1962 1.386 . S
C1963 C1967 1.393 . S
C1964 H1953 0.950 . S
C1964 C1962 1.391 . S
C1964 C1965 1.400 . S
C1965 C1959 1.491 1_565 S
C1965 C1964 1.400 . S
C1965 C1966 1.398 . S
C1966 H1954 0.950 1_565 S
C1966 C1965 1.398 . S
C1966 C1967 1.391 . S
C1967 H1955 0.950 . S
C1967 C1963 1.393 . S
C1967 C1966 1.391 . S
H1968 C1976 0.950 . S
H1969 C1981 0.950 . S
H1970 C1978 0.950 . S
H1971 C1980 0.950 . S
H1972 C1982 0.950 . S
H1973 C1984 0.950 . S
H1974 C1986 0.950 . S
H1975 C1987 0.950 . S
C1976 H1968 0.950 . S
C1976 C1977 1.386 . S
C1976 C1978 1.391 . S
C1977 C1976 1.386 . S
C1977 C1981 1.393 . S
C1978 H1970 0.950 . S
C1978 C1976 1.391 . S
C1978 C1979 1.400 . S
C1979 C1978 1.400 . S
C1979 C1980 1.398 . S
C1979 C1985 1.491 . S
C1980 H1971 0.950 . S
C1980 C1979 1.398 . S
C1980 C1981 1.391 . S
C1981 H1969 0.950 . S
C1981 C1977 1.393 . S
C1981 C1980 1.391 . S
C1982 H1972 0.950 . S
C1982 C1983 1.386 . S
C1982 C1984 1.391 . S
C1983 C1982 1.386 . S
C1983 C1987 1.393 . S
C1984 H1973 0.950 . S
C1984 C1982 1.391 . S
C1984 C1985 1.400 . S
C1985 C1979 1.491 . S
C1985 C1984 1.400 . S
C1985 C1986 1.398 . S
C1986 H1974 0.950 . S
C1986 C1985 1.398 . S
C1986 C1987 1.391 . S
C1987 H1975 0.950 . S
C1987 C1983 1.393 . S
C1987 C1986 1.391 . S
H1988 C1996 0.950 . S
H1989 C2001 0.950 . S
H1990 C1998 0.950 . S
H1991 C2000 0.950 . S
H1992 C2002 0.950 . S
H1993 C2004 0.950 . S
H1994 C2006 0.950 . S
H1995 C2007 0.950 . S
C1996 H1988 0.950 . S
C1996 C1997 1.386 . S
C1996 C1998 1.391 . S
C1997 C1996 1.386 . S
C1997 C2001 1.393 . S
C1998 H1990 0.950 . S
C1998 C1996 1.391 . S
C1998 C1999 1.400 . S
C1999 C1998 1.400 . S
C1999 C2000 1.398 . S
C1999 C2005 1.491 . S
C2000 H1991 0.950 . S
C2000 C1999 1.398 . S
C2000 C2001 1.391 . S
C2001 H1989 0.950 . S
C2001 C1997 1.393 . S
C2001 C2000 1.391 . S
C2002 H1992 0.950 . S
C2002 C2003 1.386 . S
C2002 C2004 1.391 . S
C2003 C2002 1.386 . S
C2003 C2007 1.393 . S
C2004 H1993 0.950 . S
C2004 C2002 1.391 . S
C2004 C2005 1.400 . S
C2005 C1999 1.491 . S
C2005 C2004 1.400 . S
C2005 C2006 1.398 . S
C2006 H1994 0.950 . S
C2006 C2005 1.398 . S
C2006 C2007 1.391 . S
C2007 H1995 0.950 . S
C2007 C2003 1.393 . S
C2007 C2006 1.391 . S
H2008 C2016 0.950 . S
H2009 C2021 0.950 . S
H2010 C2018 0.950 . S
H2011 C2020 0.950 . S
H2012 C2022 0.950 . S
H2013 C2024 0.950 . S
H2014 C2026 0.950 . S
H2015 C2027 0.950 . S
C2016 H2008 0.950 . S
C2016 C2017 1.386 . S
C2016 C2018 1.391 . S
C2017 C2016 1.386 . S
C2017 C2021 1.393 . S
C2018 H2010 0.950 . S
C2018 C2016 1.391 . S
C2018 C2019 1.400 . S
C2019 C2018 1.400 . S
C2019 C2020 1.398 . S
C2019 C2025 1.491 1_545 S
C2020 H2011 0.950 . S
C2020 C2019 1.398 . S
C2020 C2021 1.391 . S
C2021 H2009 0.950 . S
C2021 C2017 1.393 . S
C2021 C2020 1.391 . S
C2022 H2012 0.950 . S
C2022 C2023 1.386 . S
C2022 C2024 1.391 . S
C2023 C2022 1.386 . S
C2023 C2027 1.393 . S
C2024 H2013 0.950 . S
C2024 C2022 1.391 . S
C2024 C2025 1.400 . S
C2025 C2019 1.491 1_565 S
C2025 C2024 1.400 . S
C2025 C2026 1.398 . S
C2026 H2014 0.950 . S
C2026 C2025 1.398 . S
C2026 C2027 1.391 . S
C2027 H2015 0.950 . S
C2027 C2023 1.393 . S
C2027 C2026 1.391 . S
H2028 C2036 0.950 . S
H2029 C2041 0.950 . S
H2030 C2038 0.950 . S
H2031 C2040 0.950 . S
H2032 C2042 0.950 . S
H2033 C2044 0.950 . S
H2034 C2046 0.950 . S
H2035 C2047 0.950 . S
C2036 H2028 0.950 . S
C2036 C2037 1.386 . S
C2036 C2038 1.391 . S
C2037 C2036 1.386 . S
C2037 C2041 1.393 . S
C2038 H2030 0.950 . S
C2038 C2036 1.391 . S
C2038 C2039 1.400 . S
C2039 C2038 1.400 . S
C2039 C2040 1.398 . S
C2039 C2045 1.491 . S
C2040 H2031 0.950 . S
C2040 C2039 1.398 . S
C2040 C2041 1.391 . S
C2041 H2029 0.950 . S
C2041 C2037 1.393 . S
C2041 C2040 1.391 . S
C2042 H2032 0.950 . S
C2042 C2043 1.386 . S
C2042 C2044 1.391 . S
C2043 C2042 1.386 . S
C2043 C2047 1.393 . S
C2044 H2033 0.950 . S
C2044 C2042 1.391 . S
C2044 C2045 1.400 . S
C2045 C2039 1.491 . S
C2045 C2044 1.400 . S
C2045 C2046 1.398 . S
C2046 H2034 0.950 . S
C2046 C2045 1.398 . S
C2046 C2047 1.391 . S
C2047 H2035 0.950 . S
C2047 C2043 1.393 . S
C2047 C2046 1.391 . S
C1417 C29 0.649 . S
C1423 C1201 0.653 . S
C1437 C108 0.650 . S
C1443 C821 0.653 . S
C1457 C1252 0.635 . S
C1463 C225 0.638 . S
C1477 C321 0.636 . S
C1483 C1349 0.639 . S
C1497 C372 0.649 . S
C1503 C557 0.653 . S
C1517 C909 0.654 . S
C1523 C489 0.649 . S
C1537 C1017 0.635 . S
C1543 C636 0.635 . S
C1557 C733 0.639 . S
C1563 C1113 0.637 . S
C1577 C196 1.728 . S
C1583 C57 1.723 . S
C1597 C137 1.723 . S
C1603 C293 1.728 . S
C1617 C1076 1.741 . S
C1623 C49 1.739 . S
C1637 C145 1.740 . S
C1643 C997 1.736 . S
C1657 C409 1.740 . S
C1663 C205 1.736 . S
C1677 C929 1.730 . S
C1683 C284 1.732 . S
C1697 C117 1.737 . S
C1703 C20 1.739 . S
C1717 C313 1.694 . S
C1723 C233 1.696 . S
C1737 C900 1.729 . S
C1743 C381 1.731 . S
C1757 C645 1.725 . S
C1763 C469 1.725 . S
C1777 C577 1.712 . S
C1783 C724 1.713 . S
C1797 C1369 1.722 . S
C1803 C460 1.710 . S
C1817 C585 1.725 . S
C1823 C1289 1.733 . S
C1837 C849 1.710 . S
C1843 C673 1.722 . S
C1857 C753 1.724 . S
C1863 C1173 1.711 . S
C1877 C548 1.734 . S
C1883 C497 1.739 . S
C1897 C761 1.738 . S
C1903 C665 1.742 . S
C1917 C812 1.735 . S
C1923 C1193 1.739 . S
C1937 C937 1.729 . S
C1943 C988 1.724 . S
C1957 C1085 1.727 . S
C1963 C401 1.722 . S
C1977 C1105 1.701 . S
C1983 C1025 1.699 . S
C1997 C1261 1.713 . S
C2003 C1164 1.714 . S
C2017 C841 1.713 . S
C2023 C1340 1.712 . S
C2037 C1377 1.738 . S
C2043 C1281 1.742 . S
