# Generated by pormake.
# Topology sod-e, (6)-cn, num edge types: 1
# Building blocks:
#     Node 0, Type 0, BuildingBlock: OJICUG_clean_sbu_0, # of connection points: 6
#     Node 1, Type 0, BuildingBlock: OJICUG_clean_sbu_0, # of connection points: 6
#     Node 2, Type 0, BuildingBlock: OJICUG_clean_sbu_0, # of connection points: 6
#     Node 3, Type 0, BuildingBlock: OJICUG_clean_sbu_0, # of connection points: 6
#     Node 4, Type 0, BuildingBlock: OJICUG_clean_sbu_0, # of connection points: 6
#     Node 5, Type 0, BuildingBlock: OJICUG_clean_sbu_0, # of connection points: 6
#     Node 6, Type 0, BuildingBlock: OJICUG_clean_sbu_0, # of connection points: 6
#     Node 7, Type 0, BuildingBlock: OJICUG_clean_sbu_0, # of connection points: 6
#     Node 8, Type 0, BuildingBlock: OJICUG_clean_sbu_0, # of connection points: 6
#     Node 9, Type 0, BuildingBlock: OJICUG_clean_sbu_0, # of connection points: 6
#     Node 10, Type 0, BuildingBlock: OJICUG_clean_sbu_0, # of connection points: 6
#     Node 11, Type 0, BuildingBlock: OJICUG_clean_sbu_0, # of connection points: 6
#     Node 12, Type 0, BuildingBlock: OJICUG_clean_sbu_0, # of connection points: 6
#     Node 13, Type 0, BuildingBlock: OJICUG_clean_sbu_0, # of connection points: 6
#     Node 14, Type 0, BuildingBlock: OJICUG_clean_sbu_0, # of connection points: 6
#     Node 15, Type 0, BuildingBlock: OJICUG_clean_sbu_0, # of connection points: 6
#     Node 16, Type 0, BuildingBlock: OJICUG_clean_sbu_0, # of connection points: 6
#     Node 17, Type 0, BuildingBlock: OJICUG_clean_sbu_0, # of connection points: 6
#     Node 18, Type 0, BuildingBlock: OJICUG_clean_sbu_0, # of connection points: 6
#     Node 19, Type 0, BuildingBlock: OJICUG_clean_sbu_0, # of connection points: 6
#     Node 20, Type 0, BuildingBlock: OJICUG_clean_sbu_0, # of connection points: 6
#     Node 21, Type 0, BuildingBlock: OJICUG_clean_sbu_0, # of connection points: 6
#     Node 22, Type 0, BuildingBlock: OJICUG_clean_sbu_0, # of connection points: 6
#     Node 23, Type 0, BuildingBlock: OJICUG_clean_sbu_0, # of connection points: 6
#     Edge 24, Type (0, 0), BuildingBlock: OJICUG_clean_linker_0, # of connection points: 2
#     Edge 25, Type (0, 0), BuildingBlock: OJICUG_clean_linker_0, # of connection points: 2
#     Edge 26, Type (0, 0), BuildingBlock: OJICUG_clean_linker_0, # of connection points: 2
#     Edge 27, Type (0, 0), BuildingBlock: OJICUG_clean_linker_0, # of connection points: 2
#     Edge 28, Type (0, 0), BuildingBlock: OJICUG_clean_linker_0, # of connection points: 2
#     Edge 29, Type (0, 0), BuildingBlock: OJICUG_clean_linker_0, # of connection points: 2
#     Edge 30, Type (0, 0), BuildingBlock: OJICUG_clean_linker_0, # of connection points: 2
#     Edge 31, Type (0, 0), BuildingBlock: OJICUG_clean_linker_0, # of connection points: 2
#     Edge 32, Type (0, 0), BuildingBlock: OJICUG_clean_linker_0, # of connection points: 2
#     Edge 33, Type (0, 0), BuildingBlock: OJICUG_clean_linker_0, # of connection points: 2
#     Edge 34, Type (0, 0), BuildingBlock: OJICUG_clean_linker_0, # of connection points: 2
#     Edge 35, Type (0, 0), BuildingBlock: OJICUG_clean_linker_0, # of connection points: 2
#     Edge 36, Type (0, 0), BuildingBlock: OJICUG_clean_linker_0, # of connection points: 2
#     Edge 37, Type (0, 0), BuildingBlock: OJICUG_clean_linker_0, # of connection points: 2
#     Edge 38, Type (0, 0), BuildingBlock: OJICUG_clean_linker_0, # of connection points: 2
#     Edge 39, Type (0, 0), BuildingBlock: OJICUG_clean_linker_0, # of connection points: 2
#     Edge 40, Type (0, 0), BuildingBlock: OJICUG_clean_linker_0, # of connection points: 2
#     Edge 41, Type (0, 0), BuildingBlock: OJICUG_clean_linker_0, # of connection points: 2
#     Edge 42, Type (0, 0), BuildingBlock: OJICUG_clean_linker_0, # of connection points: 2
#     Edge 43, Type (0, 0), BuildingBlock: OJICUG_clean_linker_0, # of connection points: 2
#     Edge 44, Type (0, 0), BuildingBlock: OJICUG_clean_linker_0, # of connection points: 2
#     Edge 45, Type (0, 0), BuildingBlock: OJICUG_clean_linker_0, # of connection points: 2
#     Edge 46, Type (0, 0), BuildingBlock: OJICUG_clean_linker_0, # of connection points: 2
#     Edge 47, Type (0, 0), BuildingBlock: OJICUG_clean_linker_0, # of connection points: 2
#     Edge 48, Type (0, 0), BuildingBlock: OJICUG_clean_linker_0, # of connection points: 2
#     Edge 49, Type (0, 0), BuildingBlock: OJICUG_clean_linker_0, # of connection points: 2
#     Edge 50, Type (0, 0), BuildingBlock: OJICUG_clean_linker_0, # of connection points: 2
#     Edge 51, Type (0, 0), BuildingBlock: OJICUG_clean_linker_0, # of connection points: 2
#     Edge 52, Type (0, 0), BuildingBlock: OJICUG_clean_linker_0, # of connection points: 2
#     Edge 53, Type (0, 0), BuildingBlock: OJICUG_clean_linker_0, # of connection points: 2
#     Edge 54, Type (0, 0), BuildingBlock: OJICUG_clean_linker_0, # of connection points: 2
#     Edge 55, Type (0, 0), BuildingBlock: OJICUG_clean_linker_0, # of connection points: 2
#     Edge 56, Type (0, 0), BuildingBlock: OJICUG_clean_linker_0, # of connection points: 2
#     Edge 57, Type (0, 0), BuildingBlock: OJICUG_clean_linker_0, # of connection points: 2
#     Edge 58, Type (0, 0), BuildingBlock: OJICUG_clean_linker_0, # of connection points: 2
#     Edge 59, Type (0, 0), BuildingBlock: OJICUG_clean_linker_0, # of connection points: 2
#     Edge 60, Type (0, 0), BuildingBlock: OJICUG_clean_linker_0, # of connection points: 2
#     Edge 61, Type (0, 0), BuildingBlock: OJICUG_clean_linker_0, # of connection points: 2
#     Edge 62, Type (0, 0), BuildingBlock: OJICUG_clean_linker_0, # of connection points: 2
#     Edge 63, Type (0, 0), BuildingBlock: OJICUG_clean_linker_0, # of connection points: 2
#     Edge 64, Type (0, 0), BuildingBlock: OJICUG_clean_linker_0, # of connection points: 2
#     Edge 65, Type (0, 0), BuildingBlock: OJICUG_clean_linker_0, # of connection points: 2
#     Edge 66, Type (0, 0), BuildingBlock: OJICUG_clean_linker_0, # of connection points: 2
#     Edge 67, Type (0, 0), BuildingBlock: OJICUG_clean_linker_0, # of connection points: 2
#     Edge 68, Type (0, 0), BuildingBlock: OJICUG_clean_linker_0, # of connection points: 2
#     Edge 69, Type (0, 0), BuildingBlock: OJICUG_clean_linker_0, # of connection points: 2
#     Edge 70, Type (0, 0), BuildingBlock: OJICUG_clean_linker_0, # of connection points: 2
#     Edge 71, Type (0, 0), BuildingBlock: OJICUG_clean_linker_0, # of connection points: 2
#     Edge 72, Type (0, 0), BuildingBlock: OJICUG_clean_linker_0, # of connection points: 2
#     Edge 73, Type (0, 0), BuildingBlock: OJICUG_clean_linker_0, # of connection points: 2
#     Edge 74, Type (0, 0), BuildingBlock: OJICUG_clean_linker_0, # of connection points: 2
#     Edge 75, Type (0, 0), BuildingBlock: OJICUG_clean_linker_0, # of connection points: 2
#     Edge 76, Type (0, 0), BuildingBlock: OJICUG_clean_linker_0, # of connection points: 2
#     Edge 77, Type (0, 0), BuildingBlock: OJICUG_clean_linker_0, # of connection points: 2
#     Edge 78, Type (0, 0), BuildingBlock: OJICUG_clean_linker_0, # of connection points: 2
#     Edge 79, Type (0, 0), BuildingBlock: OJICUG_clean_linker_0, # of connection points: 2
#     Edge 80, Type (0, 0), BuildingBlock: OJICUG_clean_linker_0, # of connection points: 2
#     Edge 81, Type (0, 0), BuildingBlock: OJICUG_clean_linker_0, # of connection points: 2
#     Edge 82, Type (0, 0), BuildingBlock: OJICUG_clean_linker_0, # of connection points: 2
#     Edge 83, Type (0, 0), BuildingBlock: OJICUG_clean_linker_0, # of connection points: 2
#     Edge 84, Type (0, 0), BuildingBlock: OJICUG_clean_linker_0, # of connection points: 2
#     Edge 85, Type (0, 0), BuildingBlock: OJICUG_clean_linker_0, # of connection points: 2
#     Edge 86, Type (0, 0), BuildingBlock: OJICUG_clean_linker_0, # of connection points: 2
#     Edge 87, Type (0, 0), BuildingBlock: OJICUG_clean_linker_0, # of connection points: 2
#     Edge 88, Type (0, 0), BuildingBlock: OJICUG_clean_linker_0, # of connection points: 2
#     Edge 89, Type (0, 0), BuildingBlock: OJICUG_clean_linker_0, # of connection points: 2
#     Edge 90, Type (0, 0), BuildingBlock: OJICUG_clean_linker_0, # of connection points: 2
#     Edge 91, Type (0, 0), BuildingBlock: OJICUG_clean_linker_0, # of connection points: 2
#     Edge 92, Type (0, 0), BuildingBlock: OJICUG_clean_linker_0, # of connection points: 2
#     Edge 93, Type (0, 0), BuildingBlock: OJICUG_clean_linker_0, # of connection points: 2
#     Edge 94, Type (0, 0), BuildingBlock: OJICUG_clean_linker_0, # of connection points: 2
#     Edge 95, Type (0, 0), BuildingBlock: OJICUG_clean_linker_0, # of connection points: 2
# Relax obj value: 0.275
# Max RMSD: 0.220
# Mean RMSD: 0.220
data_MOF--net-sod-e--node1-OJICUG_clean_sbu_0--edge1-OJICUG_clean_linker_0
_symmetry_space_group_name_H-M    P1
_symmetry_Int_Tables_number       1
_symmetry_cell_setting            triclinic
loop_
_symmetry_equiv_pos_as_xyz
'x, y, z'
_cell_length_a     38.8094
_cell_length_b     39.052906
_cell_length_c     38.785459
_cell_angle_alpha  89.601812
_cell_angle_beta   90.373559
_cell_angle_gamma 90.361529
loop_
_atom_site_label
_atom_site_type_symbol
_atom_site_fract_x
_atom_site_fract_y
_atom_site_fract_z
_atom_type_partial_charge
Sc0 Sc 0.01616 0.3003 0.32697 0.0
Sc1 Sc 0.06557 0.36197 0.37153 0.0
Sc2 Sc 0.97559 0.37072 0.36501 0.0
O3 O 0.01913 0.34441 0.35418 0.0
C4 C 0.9582 0.34624 0.28905 0.0
C5 C 0.08432 0.33401 0.29677 0.0
C6 C 0.02958 0.42924 0.34507 0.0
C7 C 0.0734 0.28287 0.38488 0.0
C8 C 0.9527 0.29441 0.37979 0.0
C9 C 0.0177 0.37707 0.4352 0.0
O10 O 0.9785 0.32065 0.29011 0.0
O11 O 0.09027 0.34998 0.32453 0.0
O12 O -0.00062 0.4176 0.34987 0.0
O13 O 0.05306 0.27432 0.3604 0.0
O14 O 0.94774 0.32637 0.38121 0.0
O15 O 0.047 0.37454 0.42139 0.0
O16 O 0.97645 0.28099 0.36172 0.0
O17 O 0.07909 0.31372 0.393 0.0
O18 O 0.9898 0.37634 0.41805 0.0
O19 O 0.05685 0.31657 0.2915 0.0
O20 O 0.95553 0.36704 0.31381 0.0
O21 O 0.05674 0.41252 0.35177 0.0
Sc22 Sc 0.70104 0.0478 0.28265 0.0
Sc23 Sc 0.62997 0.00063 0.30288 0.0
Sc24 Sc 0.63524 0.0833 0.33036 0.0
O25 O 0.65603 0.04353 0.3073 0.0
C26 C 0.70981 0.09573 0.34905 0.0
C27 C 0.7075 0.97837 0.31891 0.0
C28 C 0.61421 0.01898 0.37771 0.0
C29 C 0.65963 -0.00457 0.23596 0.0
C30 C 0.66113 0.11292 0.26067 0.0
C31 C 0.56897 0.05483 0.29903 0.0
O32 O 0.71959 0.08759 0.31869 0.0
O33 O 0.67746 0.97111 0.30733 0.0
O34 O 0.61321 0.05081 0.36997 0.0
O35 O 0.68929 0.00589 0.24566 0.0
O36 O 0.65668 0.1182 0.29267 0.0
O37 O 0.581 0.02476 0.30088 0.0
O38 O 0.67667 0.08623 0.24993 0.0
O39 O 0.63381 0.00905 0.24918 0.0
O40 O 0.58812 0.08114 0.30129 0.0
O41 O 0.72093 0.00829 0.31649 0.0
O42 O 0.68045 0.08737 0.3605 0.0
O43 O 0.62471 -0.00394 0.35719 0.0
Sc44 Sc 0.98709 0.67464 0.26635 0.0
Sc45 Sc 0.95306 0.62204 0.33078 0.0
Sc46 Sc 0.03855 0.64755 0.33335 0.0
O47 O -0.00792 0.6481 0.31052 0.0
C48 C 0.05702 0.64022 0.25925 0.0
C49 C 0.93672 0.61088 0.25194 0.0
C50 C 0.01786 0.57137 0.32979 0.0
C51 C 0.92181 0.69506 0.31096 0.0
C52 C 0.03541 0.72129 0.31495 0.0
C53 C 0.99157 0.63886 0.39884 0.0
O54 O 0.02739 0.64251 0.24525 0.0
O55 O 0.9374 0.60078 0.28294 0.0
O56 O 0.0416 0.59367 0.32566 0.0
O57 O 0.94564 0.70355 0.28966 0.0
O58 O 0.03268 0.7008 0.34031 0.0
O59 O 0.9636 0.63924 0.38192 0.0
O60 O 0.02452 0.71356 0.2847 0.0
O61 O 0.91947 0.6654 0.32487 0.0
O62 O 0.02068 0.63802 0.38445 0.0
O63 O 0.95084 0.63888 0.24229 0.0
O64 O 0.06351 0.65822 0.28528 0.0
O65 O 0.98639 0.57837 0.33627 0.0
Sc66 Sc 0.41294 0.95335 0.39379 0.0
Sc67 Sc 0.40398 0.04139 0.40292 0.0
Sc68 Sc 0.35704 -0.00209 0.3406 0.0
O69 O 0.39015 -0.00246 0.37961 0.0
C70 C 0.40938 0.94295 0.31412 0.0
C71 C 0.46996 0.00664 0.38485 0.0
C72 C 0.40135 0.06688 0.32734 0.0
C73 C 0.40363 -0.00732 0.46426 0.0
C74 C 0.33784 0.92928 0.38466 0.0
C75 C 0.32382 0.05158 0.39096 0.0
O76 O 0.41067 0.92997 0.34407 0.0
O77 O 0.45541 0.02281 0.4088 0.0
O78 O 0.37688 0.04614 0.3197 0.0
O79 O 0.41869 0.97004 0.44648 0.0
O80 O 0.33452 0.94977 0.35887 0.0
O81 O 0.35331 0.06287 0.39993 0.0
O82 O 0.36373 0.93031 0.4052 0.0
O83 O 0.39054 0.01937 0.45103 0.0
O84 O 0.3199 0.02535 0.37174 0.0
O85 O 0.46045 0.97636 0.37771 0.0
O86 O 0.39354 0.97093 0.30798 0.0
O87 O 0.41776 0.06551 0.35567 0.0
Sc88 Sc 0.02434 0.62232 0.61645 0.0
Sc89 Sc 0.93631 0.62286 0.60667 0.0
Sc90 Sc 0.97704 0.6862 0.65413 0.0
O91 O 0.97882 0.64341 0.62679 0.0
C92 C 0.03453 0.63853 0.69243 0.0
C93 C 0.97589 0.55924 0.62816 0.0
C94 C 0.91197 0.64774 0.68096 0.0
C95 C 0.98908 0.62075 0.54565 0.0
C96 C 0.04072 0.69744 0.60703 0.0
C97 C 0.92068 0.69915 0.59403 0.0
O98 O 0.03369 0.61539 0.6696 0.0
O99 O 0.94811 0.57566 0.63124 0.0
O100 O 0.93961 0.66378 0.68909 0.0
O101 O 0.01501 0.63066 0.56308 0.0
O102 O 0.01189 0.70896 0.61691 0.0
O103 O 0.92276 0.66921 0.58198 0.0
O104 O 0.05219 0.66962 0.61894 0.0
O105 O 0.96195 0.60862 0.5596 0.0
O106 O 0.93553 0.70806 0.62221 0.0
O107 O 0.00261 0.5719 0.61415 0.0
O108 O 0.01875 0.66727 0.68886 0.0
O109 O 0.90644 0.63581 0.65096 0.0
Sc110 Sc 0.34772 0.8925 0.64695 0.0
Sc111 Sc 0.35395 0.97379 0.67811 0.0
Sc112 Sc 0.28149 0.9275 0.69458 0.0
O113 O 0.32725 0.93162 0.67122 0.0
C114 C 0.27319 0.88133 0.62686 0.0
C115 C 0.37103 0.95835 0.60303 0.0
C116 C 0.27753 -0.00208 0.66051 0.0
C117 C 0.41442 0.91903 0.67994 0.0
C118 C 0.31914 0.86079 0.71516 0.0
C119 C 0.32304 0.97754 0.74375 0.0
O120 O 0.30271 0.89007 0.6161 0.0
O121 O 0.36085 0.98076 0.62427 0.0
O122 O 0.26357 0.96818 0.66132 0.0
O123 O 0.39512 0.89297 0.67596 0.0
O124 O 0.30396 0.88751 0.72636 0.0
O125 O 0.34835 0.96256 0.73114 0.0
O126 O 0.32546 0.85667 0.68327 0.0
O127 O 0.40252 0.94915 0.68015 0.0
O128 O 0.29324 0.96827 0.73322 0.0
O129 O 0.37053 0.9262 0.60916 0.0
O130 O 0.26295 0.88889 0.65721 0.0
O131 O 0.30708 0.00429 0.67379 0.0
Sc132 Sc 0.00593 0.30663 0.71011 0.0
Sc133 Sc 0.04664 0.35968 0.64993 0.0
Sc134 Sc 0.95916 0.34484 0.64505 0.0
O135 O 0.00464 0.3366 0.66805 0.0
C136 C 0.9533 0.26947 0.6567 0.0
C137 C 0.07145 0.28408 0.66783 0.0
C138 C 0.00885 0.35243 0.58098 0.0
C139 C 0.05891 0.36679 0.72991 0.0
C140 C 0.93913 0.34617 0.71989 0.0
C141 C 0.98852 0.41711 0.65222 0.0
O142 O 0.96618 0.27235 0.68717 0.0
O143 O 0.07658 0.31402 0.65561 0.0
O144 O 0.98002 0.35669 0.59535 0.0
O145 O 0.04297 0.33912 0.73769 0.0
O146 O 0.93075 0.334 0.69101 0.0
O147 O 0.01837 0.40647 0.64391 0.0
O148 O 0.96809 0.33901 0.73323 0.0
O149 O 0.06124 0.37777 0.69928 0.0
O150 O 0.9628 0.39752 0.65776 0.0
O151 O 0.0458 0.27623 0.68696 0.0
O152 O 0.95739 0.29219 0.63348 0.0
O153 O 0.03579 0.34501 0.59798 0.0
Sc154 Sc 0.5739 0.0231 0.58885 0.0
Sc155 Sc 0.58312 0.93517 0.5787 0.0
Sc156 Sc 0.62996 0.97825 0.64168 0.0
O157 O 0.59692 0.97886 0.60256 0.0
C158 C 0.64945 0.04739 0.59739 0.0
C159 C 0.58356 0.98492 0.51781 0.0
C160 C 0.66335 0.92483 0.59023 0.0
C161 C 0.51683 0.96922 0.59731 0.0
C162 C 0.57729 0.03344 0.6685 0.0
C163 C 0.5846 0.90925 0.65483 0.0
O164 O 0.62303 0.04672 0.57746 0.0
O165 O 0.59639 0.95791 0.5307 0.0
O166 O 0.6672 0.95046 0.61036 0.0
O167 O 0.52666 -0.00074 0.60516 0.0
O168 O 0.5935 0.00561 0.67454 0.0
O169 O 0.56936 0.91031 0.62581 0.0
O170 O 0.57597 0.04644 0.63859 0.0
O171 O 0.53144 0.95328 0.57324 0.0
O172 O 0.60901 0.93003 0.66299 0.0
O173 O 0.56816 0.0071 0.53588 0.0
O174 O 0.65318 0.02648 0.62292 0.0
O175 O 0.63386 0.9138 0.58099 0.0
Sc176 Sc 0.33948 0.35444 0.96771 0.0
Sc177 Sc 0.34644 0.32742 0.05155 0.0
Sc178 Sc 0.27547 0.30421 0.00371 0.0
O179 O 0.3201 0.32925 0.00734 0.0
C180 C 0.26268 0.37187 0.95752 0.0
C181 C 0.35138 0.40319 0.0334 0.0
C182 C 0.27256 0.33755 0.07491 0.0
C183 C 0.40638 0.32691 -0.00194 0.0
C184 C 0.31321 0.28491 0.93488 0.0
C185 C 0.32391 0.25468 0.04818 0.0
O186 O 0.29356 0.38214 0.95997 0.0
O187 O 0.34296 0.3814 0.05639 0.0
O188 O 0.25788 0.33576 0.04551 0.0
O189 O 0.38618 0.32737 0.97247 0.0
O190 O 0.29603 0.27497 0.96126 0.0
O191 O 0.34964 0.27421 0.04389 0.0
O192 O 0.32407 0.31558 0.93121 0.0
O193 O 0.39628 0.33309 0.02838 0.0
O194 O 0.29327 0.26395 0.04014 0.0
O195 O 0.35641 0.39528 0.00182 0.0
O196 O 0.25288 0.34233 0.9683 0.0
O197 O 0.29982 0.32091 0.08105 0.0
Sc198 Sc 0.321 0.6743 0.04817 0.0
Sc199 Sc 0.36157 0.60454 0.01221 0.0
Sc200 Sc 0.3662 0.61543 0.10017 0.0
O201 O 0.34908 0.63188 0.05364 0.0
C202 C 0.37417 0.69574 0.10749 0.0
C203 C 0.37858 0.67824 0.98739 0.0
C204 C 0.42902 0.60373 0.05557 0.0
C205 C 0.28851 0.63196 0.98712 0.0
C206 C 0.28953 0.63513 0.11521 0.0
C207 C 0.34559 0.54668 0.06064 0.0
O208 O 0.3561 0.70261 0.08089 0.0
O209 O 0.38735 0.64699 0.98949 0.0
O210 O 0.41749 0.61791 0.0822 0.0
O211 O 0.28366 0.65115 0.01305 0.0
O212 O 0.31539 0.61567 0.11952 0.0
O213 O 0.3347 0.56291 0.03448 0.0
O214 O 0.28774 0.65853 0.09176 0.0
O215 O 0.31652 0.61628 0.98273 0.0
O216 O 0.361 0.56155 0.0856 0.0
O217 O 0.35367 0.69105 0.00475 0.0
O218 O 0.3761 0.66577 0.12013 0.0
O219 O 0.40951 0.58774 0.03476 0.0
Sc220 Sc 0.66203 0.29667 0.93993 0.0
Sc221 Sc 0.62266 0.35351 -0.00628 0.0
Sc222 Sc 0.60137 0.35443 0.90741 0.0
O223 O 0.62919 0.33539 0.94618 0.0
C224 C 0.6765 0.34519 0.87584 0.0
C225 C 0.69939 0.3486 -0.00568 0.0
C226 C 0.60878 0.42026 0.94938 0.0
C227 C 0.62651 0.27811 0.00794 0.0
C228 C 0.59993 0.27624 0.88861 0.0
C229 C 0.54877 0.34151 0.96899 0.0
O230 O 0.68811 0.32547 0.89972 0.0
O231 O 0.67454 0.36956 -0.00673 0.0
O232 O 0.61393 0.40614 0.92063 0.0
O233 O 0.63306 0.26779 0.97778 0.0
O234 O 0.58589 0.30529 0.89039 0.0
O235 O 0.57109 0.33634 -0.00752 0.0
O236 O 0.6293 0.26988 0.90225 0.0
O237 O 0.63827 0.30658 0.01779 0.0
O238 O 0.55582 0.35379 0.93919 0.0
O239 O 0.69773 0.31931 0.97926 0.0
O240 O 0.64523 0.35488 0.87409 0.0
O241 O 0.60643 0.40329 0.97722 0.0
Sc242 Sc 0.63912 0.61459 0.02957 0.0
Sc243 Sc 0.6151 0.64093 0.948 0.0
Sc244 Sc 0.69449 0.66512 0.97975 0.0
O245 O 0.65005 0.63962 0.98587 0.0
C246 C 0.66977 0.68497 0.05499 0.0
C247 C 0.56589 0.63673 0.01271 0.0
C248 C 0.63835 0.71468 0.94589 0.0
C249 C 0.61437 0.56485 0.96854 0.0
C250 C 0.71763 0.59829 0.02294 0.0
C251 C 0.68366 0.63724 0.90634 0.0
O252 O 0.65929 0.65473 0.06164 0.0
O253 O 0.57177 0.63497 0.98078 0.0
O254 O 0.66966 0.70545 0.94935 0.0
O255 O 0.61759 0.57266 0.00034 0.0
O256 O 0.72491 0.62671 0.00805 0.0
O257 O 0.65243 0.64608 0.90798 0.0
O258 O 0.68699 0.58893 0.0291 0.0
O259 O 0.61734 0.58643 0.94395 0.0
O260 O 0.70397 0.63781 0.93238 0.0
O261 O 0.58984 0.63773 0.03488 0.0
O262 O 0.68298 0.6935 0.02603 0.0
O263 O 0.61323 0.69507 0.95327 0.0
Sc264 Sc 0.4905 0.78147 0.81928 0.0
Sc265 Sc 0.5221 0.86272 0.83904 0.0
Sc266 Sc 0.44269 0.83686 0.86791 0.0
O267 O 0.48556 0.82708 0.84162 0.0
C268 C 0.4141 0.7969 0.80553 0.0
C269 C 0.52822 0.83285 0.76554 0.0
C270 C 0.45065 0.90138 0.82418 0.0
C271 C 0.56317 0.79402 0.85369 0.0
C272 C 0.45455 0.76561 0.89323 0.0
C273 C 0.49737 0.8756 0.91298 0.0
O274 O 0.44293 0.7905 0.79158 0.0
O275 O 0.52645 0.85827 0.78533 0.0
O276 O 0.4306 0.8772 0.83325 0.0
O277 O 0.53824 0.77376 0.84657 0.0
O278 O 0.45586 0.79678 0.90185 0.0
O279 O 0.522 0.86925 0.89306 0.0
O280 O 0.46246 0.75588 0.86263 0.0
O281 O 0.56248 0.82625 0.84866 0.0
O282 O 0.46619 0.87243 0.9035 0.0
O283 O 0.51886 0.80253 0.77438 0.0
O284 O 0.41194 0.80205 0.83763 0.0
O285 O 0.48322 0.9011 0.82959 0.0
Sc286 Sc 0.1504 0.53172 0.84853 0.0
Sc287 Sc 0.09007 0.49652 0.90515 0.0
Sc288 Sc 0.09641 0.58633 0.89631 0.0
O289 O 0.11202 0.53818 0.88292 0.0
C290 C 0.17775 0.59489 0.89421 0.0
C291 C 0.16738 0.47066 0.9003 0.0
C292 C 0.10264 0.5471 0.96727 0.0
C293 C 0.09682 0.47092 0.82876 0.0
C294 C 0.10566 0.59318 0.81532 0.0
C295 C 0.02595 0.54677 0.89835 0.0
O296 O 0.18268 0.57016 0.87353 0.0
O297 O 0.13648 0.46819 0.91011 0.0
O298 O 0.0981 0.57462 0.95038 0.0
O299 O 0.12259 0.49054 0.8224 0.0
O300 O 0.09351 0.60312 0.8438 0.0
O301 O 0.03993 0.5181 0.9042 0.0
O302 O 0.12656 0.56815 0.81308 0.0
O303 O 0.07987 0.47222 0.85671 0.0
O304 O 0.04286 0.57396 0.8924 0.0
O305 O 0.17759 0.49411 0.87974 0.0
O306 O 0.14795 0.60429 0.90307 0.0
O307 O 0.10113 0.51739 0.95434 0.0
Sc308 Sc 0.4361 0.1521 0.80015 0.0
Sc309 Sc 0.39149 0.10393 0.86091 0.0
Sc310 Sc 0.47952 0.09468 0.85308 0.0
O311 O 0.43641 0.11783 0.83862 0.0
C312 C 0.49257 0.09753 0.77335 0.0
C313 C 0.36874 0.11081 0.7871 0.0
C314 C 0.42393 0.03642 0.84001 0.0
C315 C 0.38443 0.18065 0.86022 0.0
C316 C 0.50409 0.17239 0.84171 0.0
C317 C 0.44366 0.09293 0.92274 0.0
O318 O 0.47425 0.12437 0.76821 0.0
O319 O 0.36108 0.11945 0.81729 0.0
O320 O 0.45276 0.04614 0.85285 0.0
O321 O 0.3976 0.18267 0.82971 0.0
O322 O 0.50874 0.14182 0.85244 0.0
O323 O 0.41435 0.08719 0.90922 0.0
O324 O 0.47752 0.18143 0.82417 0.0
O325 O 0.38709 0.15418 0.87933 0.0
O326 O 0.46903 0.10366 0.90549 0.0
O327 O 0.39718 0.12102 0.77444 0.0
O328 O 0.4946 0.08315 0.8025 0.0
O329 O 0.39691 0.05449 0.83963 0.0
Sc330 Sc 0.83663 0.46774 0.84476 0.0
Sc331 Sc 0.81133 0.55006 0.84994 0.0
Sc332 Sc 0.7926 0.50338 0.77703 0.0
O333 O 0.81523 0.50769 0.82295 0.0
C334 C 0.86128 0.45812 0.77279 0.0
C335 C 0.8837 0.53079 0.86921 0.0
C336 C 0.82672 0.57423 0.77287 0.0
C337 C 0.80458 0.49306 0.90831 0.0
C338 C 0.77171 0.43463 0.80985 0.0
C339 C 0.7417 0.55028 0.81804 0.0
O340 O 0.87092 0.46608 0.80297 0.0
O341 O 0.86553 0.55403 0.85526 0.0
O342 O 0.82427 0.5446 0.75941 0.0
O343 O 0.80048 0.47038 0.8856 0.0
O344 O 0.76052 0.46237 0.79647 0.0
O345 O 0.75754 0.5426 0.84545 0.0
O346 O 0.80283 0.43149 0.81966 0.0
O347 O 0.81036 0.52402 0.89956 0.0
O348 O 0.75318 0.54173 0.78866 0.0
O349 O 0.87368 0.49968 0.87185 0.0
O350 O 0.83137 0.46587 0.76093 0.0
O351 O 0.81608 0.58112 0.80316 0.0
Sc352 Sc 0.53102 0.13921 0.10804 0.0
Sc353 Sc 0.45369 0.1123 0.14142 0.0
Sc354 Sc 0.48573 0.19351 0.16026 0.0
O355 O 0.48976 0.14816 0.13691 0.0
C356 C 0.56227 0.17576 0.17177 0.0
C357 C 0.52546 0.07238 0.14898 0.0
C358 C 0.45161 0.14216 0.21475 0.0
C359 C 0.47326 0.1001 0.06574 0.0
C360 C 0.52052 0.21154 0.0872 0.0
C361 C 0.41128 0.18106 0.13028 0.0
O362 O 0.56384 0.17139 0.13942 0.0
O363 O 0.49261 0.07347 0.14694 0.0
O364 O 0.45827 0.17268 0.2049 0.0
O365 O 0.5048 0.10588 0.07242 0.0
O366 O 0.51407 0.21983 0.1184 0.0
O367 O 0.41279 0.14893 0.13588 0.0
O368 O 0.51599 0.18123 0.07685 0.0
O369 O 0.44969 0.10568 0.08723 0.0
O370 O 0.43673 0.20168 0.13457 0.0
O371 O 0.54503 0.09667 0.13923 0.0
O372 O 0.53392 0.18293 0.18642 0.0
O373 O 0.45425 0.11639 0.19551 0.0
Sc374 Sc 0.88834 0.39423 0.08456 0.0
Sc375 Sc 0.89821 0.48279 0.0786 0.0
Sc376 Sc 0.83818 0.44887 0.13434 0.0
O377 O 0.87473 0.44196 0.09979 0.0
C378 C 0.80829 0.38703 0.08969 0.0
C379 C 0.88398 0.43604 0.01856 0.0
C380 C 0.8222 0.50568 0.07477 0.0
C381 C 0.95701 0.43369 0.09649 0.0
C382 C 0.88489 0.38696 0.16511 0.0
C383 C 0.88515 0.51156 0.1537 0.0
O384 O 0.83731 0.37263 0.08696 0.0
O385 O 0.90709 0.45427 0.03257 0.0
O386 O 0.81577 0.49027 0.10339 0.0
O387 O 0.94191 0.40981 0.07997 0.0
O388 O 0.86002 0.40837 0.16726 0.0
O389 O 0.89362 0.51581 0.12242 0.0
O390 O 0.8995 0.3798 0.13675 0.0
O391 O 0.944 0.46311 0.10061 0.0
O392 O 0.86859 0.48515 0.16396 0.0
O393 O 0.87438 0.40849 0.03298 0.0
O394 O 0.80461 0.4151 0.10567 0.0
O395 O 0.85063 0.50259 0.05885 0.0
Sc396 Sc 0.54542 0.82141 0.18165 0.0
Sc397 Sc 0.58577 0.86726 0.11616 0.0
Sc398 Sc 0.49846 0.87528 0.12808 0.0
O399 O 0.54263 0.8537 0.14157 0.0
C400 C 0.47593 0.79794 0.14551 0.0
C401 C 0.59607 0.79118 0.12212 0.0
C402 C 0.52948 0.87263 0.05675 0.0
C403 C 0.61237 0.86484 0.1897 0.0
C404 C 0.49001 0.87685 0.20803 0.0
C405 C 0.55278 0.93561 0.13278 0.0
O406 O 0.50392 0.78949 0.16099 0.0
O407 O 0.5911 0.81588 0.10113 0.0
O408 O 0.50561 0.8619 0.07602 0.0
O409 O 0.58459 0.85465 0.2038 0.0
O410 O 0.48727 0.89064 0.17863 0.0
O411 O 0.58009 0.91804 0.13407 0.0
O412 O 0.50778 0.8497 0.21325 0.0
O413 O 0.61904 0.85624 0.15918 0.0
O414 O 0.52383 0.92417 0.12192 0.0
O415 O 0.58395 0.79068 0.15302 0.0
O416 O 0.47023 0.82822 0.13458 0.0
O417 O 0.5593 0.87999 0.06834 0.0
Sc418 Sc 0.1252 0.51553 0.181 0.0
Sc419 Sc 0.16857 0.45241 0.14124 0.0
Sc420 Sc 0.19841 0.4833 0.2188 0.0
O421 O 0.16357 0.4839 0.17945 0.0
C422 C 0.19704 0.55692 0.19136 0.0
C423 C 0.14309 0.51987 0.10276 0.0
C424 C 0.2403 0.45348 0.15827 0.0
C425 C 0.08864 0.449 0.15121 0.0
C426 C 0.13411 0.51484 0.25265 0.0
C427 C 0.17059 0.41012 0.21282 0.0
O428 O 0.16382 0.55601 0.19183 0.0
O429 O 0.15886 0.49134 0.10328 0.0
O430 O 0.23586 0.45168 0.1906 0.0
O431 O 0.08796 0.47732 0.16726 0.0
O432 O 0.16676 0.51532 0.2532 0.0
O433 O 0.17553 0.41143 0.18001 0.0
O434 O 0.12074 0.49513 0.23132 0.0
O435 O 0.11595 0.43617 0.13909 0.0
O436 O 0.17532 0.43561 0.23307 0.0
O437 O 0.12842 0.53247 0.12887 0.0
O438 O 0.21614 0.53105 0.19845 0.0
O439 O 0.21969 0.47158 0.14152 0.0
Sc440 Sc 0.85465 0.87583 0.40305 0.0
Sc441 Sc 0.85461 0.87714 0.49213 0.0
Sc442 Sc 0.80054 0.82157 0.4485 0.0
O443 O 0.83747 0.857 0.4483 0.0
C444 C 0.77803 0.86788 0.38702 0.0
C445 C 0.83639 0.93831 0.44526 0.0
C446 C 0.77663 0.87055 0.51067 0.0
C447 C 0.92144 0.87985 0.45074 0.0
C448 C 0.8544 0.79988 0.38802 0.0
C449 C 0.84756 0.798 0.51064 0.0
O450 O 0.80798 0.86384 0.37529 0.0
O451 O 0.85583 0.92675 0.46903 0.0
O452 O 0.77258 0.84383 0.49209 0.0
O453 O 0.90528 0.88929 0.42364 0.0
O454 O 0.82583 0.79588 0.40438 0.0
O455 O 0.85465 0.82886 0.51821 0.0
O456 O 0.87283 0.82684 0.39025 0.0
O457 O 0.90616 0.868 0.47706 0.0
O458 O 0.83052 0.78958 0.48358 0.0
O459 O 0.83306 0.9239 0.41627 0.0
O460 O 0.76968 0.85543 0.41615 0.0
O461 O 0.80428 0.88797 0.51049 0.0
Sc462 Sc 0.86314 0.13803 0.47238 0.0
Sc463 Sc 0.84575 0.11238 0.55546 0.0
Sc464 Sc 0.81117 0.18809 0.52162 0.0
O465 O 0.83988 0.14615 0.51728 0.0
C466 C 0.88016 0.21157 0.4799 0.0
C467 C 0.91741 0.10407 0.52224 0.0
C468 C 0.8545 0.18465 0.5919 0.0
C469 C 0.82612 0.07066 0.48684 0.0
C470 C 0.7948 0.16765 0.44707 0.0
C471 C 0.76736 0.13172 0.5645 0.0
O472 O 0.89296 0.18191 0.48226 0.0
O473 O 0.90036 0.11014 0.5491 0.0
O474 O 0.83955 0.20173 0.56786 0.0
O475 O 0.83174 0.09468 0.46538 0.0
O476 O 0.78218 0.17326 0.47657 0.0
O477 O 0.79246 0.11134 0.56694 0.0
O478 O 0.82704 0.16807 0.44282 0.0
O479 O 0.83504 0.07184 0.51875 0.0
O480 O 0.77004 0.16152 0.55079 0.0
O481 O 0.90412 0.10668 0.49246 0.0
O482 O 0.84916 0.21776 0.48982 0.0
O483 O 0.8563 0.15207 0.59237 0.0
Sc484 Sc 0.17485 0.78883 0.45344 0.0
Sc485 Sc 0.12224 0.834 0.507 0.0
Sc486 Sc 0.14169 0.86811 0.42759 0.0
O487 O 0.1467 0.8307 0.46204 0.0
C488 C 0.21916 0.84779 0.41637 0.0
C489 C 0.19153 0.80457 0.52898 0.0
C490 C 0.15845 0.90303 0.50083 0.0
C491 C 0.10665 0.76169 0.49227 0.0
C492 C 0.13261 0.80005 0.38382 0.0
C493 C 0.06881 0.87252 0.4597 0.0
O494 O 0.21529 0.8166 0.42558 0.0
O495 O 0.15932 0.80209 0.5333 0.0
O496 O 0.15145 0.90446 0.46849 0.0
O497 O 0.13802 0.75673 0.48335 0.0
O498 O 0.13219 0.83254 0.38658 0.0
O499 O 0.08111 0.86629 0.48936 0.0
O500 O 0.14578 0.77987 0.40646 0.0
O501 O 0.09343 0.79113 0.49058 0.0
O502 O 0.0868 0.87004 0.4328 0.0
O503 O 0.20423 0.80041 0.49922 0.0
O504 O 0.19529 0.86964 0.41766 0.0
O505 O 0.15193 0.87736 0.52 0.0
Sc506 Sc 0.13197 0.1019 0.57709 0.0
Sc507 Sc 0.13226 0.09828 0.48753 0.0
Sc508 Sc 0.18663 0.15482 0.53032 0.0
O509 O 0.14952 0.11905 0.53116 0.0
C510 C 0.1343 0.17773 0.59079 0.0
C511 C 0.06479 0.09463 0.53025 0.0
C512 C 0.13664 0.17825 0.46995 0.0
C513 C 0.14944 0.03629 0.53773 0.0
C514 C 0.20936 0.10911 0.59181 0.0
C515 C 0.21005 0.10745 0.46744 0.0
O516 O 0.11501 0.1515 0.58841 0.0
O517 O 0.08007 0.10309 0.50276 0.0
O518 O 0.15628 0.18639 0.49532 0.0
O519 O 0.15075 0.05239 0.56596 0.0
O520 O 0.21756 0.12124 0.56253 0.0
O521 O 0.18215 0.0906 0.46691 0.0
O522 O 0.1795 0.11321 0.60381 0.0
O523 O 0.13694 0.04826 0.5097 0.0
O524 O 0.21463 0.13317 0.48703 0.0
O525 O 0.08077 0.08913 0.55842 0.0
O526 O 0.16282 0.18091 0.57443 0.0
O527 O 0.12802 0.14748 0.46318 0.0
C528 C 0.98375 0.37462 0.48949 0.0
C529 C 0.01587 0.37506 0.47306 0.0
H530 H 0.95629 0.36641 0.53625 0.0
C531 C 0.04584 0.36868 0.49262 0.0
H532 H 0.96015 0.37924 0.47517 0.0
C533 C 0.04359 0.36083 0.52761 0.0
C534 C 0.01137 0.35943 0.54377 0.0
H535 H 0.07102 0.36861 0.48074 0.0
H536 H 0.0671 0.35575 0.54191 0.0
C537 C 0.98152 0.36688 0.52447 0.0
C538 C 0.61349 0.97688 0.42613 0.0
C539 C 0.60335 0.00859 0.41234 0.0
H540 H 0.61507 0.9444 0.47055 0.0
C541 C 0.58393 0.03102 0.43243 0.0
H542 H 0.62836 0.95905 0.41109 0.0
C543 C 0.57621 0.02262 0.46638 0.0
C544 C 0.58793 -0.00828 0.48083 0.0
H545 H 0.57526 0.05539 0.42219 0.0
H546 H 0.562 0.04089 0.48153 0.0
C547 C 0.6059 0.96853 0.46018 0.0
C548 C 0.95965 0.62015 0.48842 0.0
C549 C 0.98984 0.62487 0.50803 0.0
H550 H 0.93635 0.62155 0.43844 0.0
C551 C 0.02017 0.63581 0.49164 0.0
H552 H 0.93573 0.61224 0.50042 0.0
C553 C 0.02046 0.64128 0.45619 0.0
C554 C 0.99037 0.63616 0.43654 0.0
H555 H 0.04375 0.64014 0.50613 0.0
H556 H 0.04433 0.64931 0.44417 0.0
C557 C 0.95988 0.62589 0.45299 0.0
C558 C 0.41221 0.95624 0.51618 0.0
C559 C 0.39958 0.98654 0.50128 0.0
H560 H 0.41308 0.92368 0.56044 0.0
C561 C 0.3807 0.00945 0.52145 0.0
H562 H 0.42728 0.93832 0.50145 0.0
C563 C 0.37264 0.00104 0.55534 0.0
C564 C 0.38322 0.96959 0.56929 0.0
H565 H 0.37093 0.03318 0.51071 0.0
H566 H 0.35678 0.01836 0.56998 0.0
C567 C 0.404 0.94779 0.54991 0.0
C568 C 0.50718 0.05611 0.36751 0.0
C569 C 0.4894 0.02601 0.35875 0.0
H570 H 0.54573 0.09222 0.35228 0.0
C571 C 0.48939 0.01502 0.3243 0.0
H572 H 0.50642 0.06593 0.39355 0.0
C573 C 0.5108 0.0309 0.3003 0.0
C574 C 0.53342 0.05697 0.31093 0.0
H575 H 0.47437 -0.00705 0.3163 0.0
H576 H 0.51361 0.01929 0.27517 0.0
C577 C 0.52881 0.07185 0.34348 0.0
C578 C 0.00184 0.51371 0.31087 0.0
C579 C 0.02621 0.53532 0.3264 0.0
H580 H 0.98461 0.46239 0.30389 0.0
C581 C 0.05596 0.52159 0.34165 0.0
H582 H 0.97926 0.52402 0.29798 0.0
C583 C 0.05902 0.48614 0.34517 0.0
C584 C 0.03235 0.46471 0.33327 0.0
H585 H 0.07525 0.53814 0.35324 0.0
H586 H 0.08057 0.47579 0.35965 0.0
C587 C 0.00495 0.47858 0.31417 0.0
C588 C 0.47259 0.94348 0.67987 0.0
C589 C 0.45012 0.91774 0.66804 0.0
H590 H 0.50987 0.98149 0.66594 0.0
C591 C 0.45531 0.90398 0.63507 0.0
H592 H 0.46929 0.95432 0.70528 0.0
C593 C 0.47786 0.92014 0.61213 0.0
C594 C 0.49582 0.94974 0.62221 0.0
H595 H 0.43846 0.88403 0.62525 0.0
H596 H 0.47932 0.91097 0.58589 0.0
C597 C 0.49482 0.95984 0.65691 0.0
C598 C 0.01253 0.4754 0.65504 0.0
C599 C 0.98352 0.454 0.65247 0.0
H600 H 0.03251 0.5259 0.64936 0.0
C601 C 0.95081 0.46813 0.64663 0.0
H602 H 0.03789 0.46517 0.66054 0.0
C603 C 0.94775 0.5031 0.64025 0.0
C604 C 0.97739 0.5238 0.63964 0.0
H605 H 0.92804 0.45202 0.64496 0.0
H606 H 0.92266 0.51352 0.63393 0.0
C607 C 0.00949 0.51006 0.64855 0.0
C608 C 0.36254 0.46361 0.01733 0.0
C609 C 0.35346 0.43958 0.04272 0.0
H610 H 0.36702 0.51615 0.00354 0.0
C611 C 0.34396 0.45104 0.07572 0.0
H612 H 0.37042 0.45581 0.99183 0.0
C613 C 0.34212 0.48615 0.08251 0.0
C614 C 0.34935 0.5098 0.0562 0.0
H615 H 0.33698 0.43301 0.09588 0.0
H616 H 0.33393 0.49473 0.10764 0.0
C617 C 0.36037 0.49825 0.02396 0.0
C618 C 0.46721 0.32697 0.01835 0.0
C619 C 0.44324 0.32468 0.99123 0.0
H620 H 0.51996 0.33424 0.03243 0.0
C621 C 0.45474 0.32411 0.95697 0.0
H622 H 0.45903 0.32696 0.045 0.0
C623 C 0.48935 0.32879 0.94982 0.0
C624 C 0.51296 0.3336 0.9768 0.0
H625 H 0.4369 0.32175 0.9355 0.0
H626 H 0.49745 0.32943 0.92313 0.0
C627 C 0.50198 0.33126 0.01116 0.0
C628 C 0.61837 0.47906 0.9249 0.0
C629 C 0.60608 0.45765 0.95143 0.0
H630 H 0.63058 0.53052 0.9095 0.0
C631 C 0.59278 0.47224 0.98147 0.0
H632 H 0.62855 0.4684 0.90138 0.0
C633 C 0.59388 0.50738 0.98602 0.0
C634 C 0.60827 0.52869 0.96063 0.0
H635 H 0.5824 0.45646 0.00205 0.0
H636 H 0.58445 0.51775 0.01 0.0
C637 C 0.61943 0.51451 0.92948 0.0
C638 C 0.52143 0.63345 0.05891 0.0
C639 C 0.53049 0.63051 0.02409 0.0
H640 H 0.48183 0.62664 0.09651 0.0
C641 C 0.50634 0.6176 0.0003 0.0
H642 H 0.53969 0.64309 0.07779 0.0
C643 C 0.47396 0.60733 0.01107 0.0
C644 C 0.46475 0.61032 0.04577 0.0
H645 H 0.51259 0.61463 0.9733 0.0
H646 H 0.45588 0.59784 0.99193 0.0
C647 C 0.48859 0.62365 0.06965 0.0
C648 C 0.53986 0.88347 0.96078 0.0
C649 C 0.50534 0.88145 0.94955 0.0
H650 H 0.5747 0.88197 0.00373 0.0
C651 C 0.47894 0.87989 0.97401 0.0
H652 H 0.56081 0.88485 0.94249 0.0
C653 C 0.48696 0.87784 0.00891 0.0
C654 C 0.52152 0.87759 0.02003 0.0
H655 H 0.45211 0.87842 0.96622 0.0
H656 H 0.466 0.87557 0.02711 0.0
C657 C 0.54788 0.88163 -0.0042 0.0
C658 C 0.10751 0.55527 0.06289 0.0
C659 C 0.13761 0.53624 0.06924 0.0
H660 H 0.07225 0.57376 0.0242 0.0
C661 C 0.15912 0.52762 0.04182 0.0
H662 H 0.09063 0.56239 0.08375 0.0
C663 C 0.14851 0.53395 0.00826 0.0
C664 C 0.11653 0.54921 0.00189 0.0
H665 H 0.18278 0.51359 0.04616 0.0
H666 H 0.16416 0.5248 0.98722 0.0
C667 C 0.0969 0.56171 0.02905 0.0
C668 C 0.42229 0.09303 0.98324 0.0
C669 C 0.44902 0.08783 0.95977 0.0
H670 H 0.40907 0.1009 0.036 0.0
C671 C 0.48237 0.08084 0.97198 0.0
H672 H 0.39632 0.0982 0.97429 0.0
C673 C 0.48966 0.08215 0.00698 0.0
C674 C 0.46375 0.09069 0.03036 0.0
H675 H 0.50325 0.07589 0.95431 0.0
H676 H 0.51603 0.07836 0.01545 0.0
C677 C 0.42964 0.09453 0.01846 0.0
C678 C 0.81298 0.44734 0.95246 0.0
C679 C 0.81883 0.48123 0.94149 0.0
H680 H 0.82953 0.40613 0.985 0.0
C681 C 0.84494 0.50063 0.95749 0.0
H682 H 0.79311 0.43178 0.94045 0.0
C683 C 0.86659 0.4856 0.98185 0.0
C684 C 0.86195 0.45118 0.99154 0.0
H685 H 0.8504 0.52673 0.94948 0.0
H686 H 0.88717 0.50098 -0.00716 0.0
C687 C 0.83428 0.43248 0.97741 0.0
C688 C 0.93635 0.56752 0.86823 0.0
C689 C 0.91825 0.53929 0.88178 0.0
H690 H 0.98546 0.59217 0.86304 0.0
C691 C 0.93462 0.51704 0.90509 0.0
H692 H 0.92409 0.58517 0.85039 0.0
C693 C 0.96942 0.52103 0.91226 0.0
C694 C 0.98834 0.54733 0.89625 0.0
H695 H 0.92095 0.49558 0.91658 0.0
H696 H 0.98183 0.50251 0.92909 0.0
C697 C 0.97135 0.57154 0.87547 0.0
C698 C 0.39802 0.97863 0.83516 0.0
C699 C 0.42274 0.00269 0.82481 0.0
H700 H 0.38738 0.92534 0.84187 0.0
C701 C 0.45013 -0.00702 0.80378 0.0
H702 H 0.37625 0.98614 0.85068 0.0
C703 C 0.45628 0.9586 0.79827 0.0
C704 C 0.43535 0.93405 0.81443 0.0
H705 H 0.46863 0.01174 0.7945 0.0
H706 H 0.47974 0.95131 0.78527 0.0
C707 C 0.4043 0.94401 0.82984 0.0
C708 C -0.00609 0.43824 0.14755 0.0
C709 C 0.98983 0.42728 0.11344 0.0
H710 H 0.0294 0.45253 0.18712 0.0
C711 C 0.01811 0.41513 0.09512 0.0
H712 H 0.97199 0.44688 0.16228 0.0
C713 C 0.05108 0.41834 0.10936 0.0
C714 C 0.05547 0.43373 0.14181 0.0
H715 H 0.0151 0.40627 0.06885 0.0
H716 H 0.0731 0.41214 0.09361 0.0
C717 C 0.02659 0.4413 0.16177 0.0
C718 C 0.57681 -0.00547 0.13297 0.0
C719 C 0.55345 0.97027 0.14576 0.0
H720 H 0.58637 0.0479 0.1249 0.0
C721 C 0.52724 0.98008 0.16817 0.0
H722 H 0.59761 0.98699 0.1162 0.0
C723 C 0.5211 0.01447 0.17365 0.0
C724 C 0.54083 0.0391 0.15617 0.0
H725 H 0.50981 0.96126 0.17918 0.0
H726 H 0.49868 0.02167 0.18841 0.0
C727 C 0.5705 0.02919 0.13822 0.0
C728 C 0.82291 -0.00266 0.42679 0.0
C729 C 0.8206 0.9711 0.45129 0.0
H730 H 0.82558 0.05132 0.41925 0.0
C731 C 0.80901 0.97788 0.48468 0.0
H732 H 0.83101 -0.00783 0.40066 0.0
C733 C 0.80605 0.01137 0.49547 0.0
C734 C 0.81486 0.03794 0.47279 0.0
H735 H 0.80587 0.95747 0.50347 0.0
H736 H 0.80069 0.01623 0.52238 0.0
C737 C 0.81986 0.03103 0.43757 0.0
C738 C 0.01164 0.88178 0.48666 0.0
C739 C 0.0316 0.87964 0.45668 0.0
H740 H 0.96131 0.88362 0.50814 0.0
C741 C 0.01509 0.88104 0.42429 0.0
H742 H 0.02347 0.88116 0.51203 0.0
C743 C 0.97914 0.88262 0.42208 0.0
C744 C 0.95928 0.88254 0.45222 0.0
H745 H 0.02977 0.8795 0.4007 0.0
H746 H 0.9669 0.88234 0.3969 0.0
C747 C 0.97593 0.88306 0.48445 0.0
C748 C 0.15526 0.94271 0.54988 0.0
C749 C 0.16895 0.93459 0.51749 0.0
H750 H 0.13797 0.98339 0.58209 0.0
C751 C 0.1856 0.95976 0.4978 0.0
H752 H 0.14288 0.92335 0.56574 0.0
C753 C 0.18282 -0.00632 0.5072 0.0
C754 C 0.16347 0.00222 0.53622 0.0
H755 H 0.19723 0.95366 0.47328 0.0
H756 H 0.19251 0.01336 0.48986 0.0
C757 C 0.15239 0.97686 0.55925 0.0
C758 C 0.00982 0.08994 0.49726 0.0
C759 C 0.02687 0.09242 0.52921 0.0
H760 H 0.96197 0.09104 0.47007 0.0
C761 C 0.00733 0.09501 0.55942 0.0
H762 H 0.02414 0.08738 0.47354 0.0
C763 C 0.97144 0.09723 0.55743 0.0
C764 C 0.95457 0.09665 0.5252 0.0
H765 H 0.0198 0.09686 0.58441 0.0
H766 H 0.95709 0.10072 0.58099 0.0
C767 C 0.9741 0.09192 0.49528 0.0
C768 C 0.12783 0.24007 0.45416 0.0
C769 C 0.12194 0.20528 0.44742 0.0
H770 H 0.11724 0.29178 0.43975 0.0
C771 C 0.10076 0.19623 0.41919 0.0
H772 H 0.14394 0.24795 0.47563 0.0
C773 C 0.08537 0.2213 0.3986 0.0
C774 C 0.09078 0.25607 0.40566 0.0
H775 H 0.09565 0.16965 0.41307 0.0
H776 H 0.06893 0.21336 0.3774 0.0
C777 C 0.11244 0.26518 0.43351 0.0
C778 C 0.73708 0.15056 0.42437 0.0
C779 C 0.77256 0.15431 0.41908 0.0
H780 H 0.68973 0.12928 0.40657 0.0
C781 C 0.78711 0.14093 0.38881 0.0
H782 H 0.72501 0.16057 0.44727 0.0
C783 C 0.7668 0.12255 0.36529 0.0
C784 C 0.73166 0.1172 0.37174 0.0
H785 H 0.81448 0.14333 0.38397 0.0
H786 H 0.77881 0.11159 0.34282 0.0
C787 C 0.71692 0.13224 0.40105 0.0
C788 C 0.87284 0.71337 0.34861 0.0
C789 C 0.89906 0.72196 0.32492 0.0
H790 H 0.83804 0.73121 0.3873 0.0
C791 C 0.90692 0.75663 0.3193 0.0
H792 H 0.86589 0.68687 0.35345 0.0
C793 C 0.89116 0.78183 0.3389 0.0
C794 C 0.86695 0.77306 0.36447 0.0
H795 H 0.92679 0.76429 0.30128 0.0
H796 H 0.89896 0.80822 0.3348 0.0
C797 C 0.85686 0.73871 0.36814 0.0
C798 C 0.31013 0.88159 0.41947 0.0
C799 C 0.30988 0.90378 0.39064 0.0
H800 H 0.28135 0.84518 0.4499 0.0
C801 C 0.28166 0.90239 0.36773 0.0
H802 H 0.33155 0.88177 0.43749 0.0
C803 C 0.25338 0.88141 0.37472 0.0
C804 C 0.25268 0.86093 0.40453 0.0
H805 H 0.2806 0.91863 0.345 0.0
H806 H 0.23112 0.88261 0.35775 0.0
C807 C 0.28168 0.86025 0.42634 0.0
C808 C 0.10826 0.71844 0.53991 0.0
C809 C 0.08909 0.73801 0.51623 0.0
H810 H 0.10807 0.69106 0.58801 0.0
C811 C 0.05354 0.74221 0.52168 0.0
H812 H 0.13575 0.71517 0.53671 0.0
C813 C 0.0381 0.72976 0.55159 0.0
C814 C 0.05769 0.71214 0.57639 0.0
H815 H 0.03807 0.75713 0.5038 0.0
H816 H 0.01083 0.73407 0.55533 0.0
C817 C 0.0926 0.70543 0.56969 0.0
C818 C 0.24939 0.02334 0.60863 0.0
C819 C 0.25977 0.0264 0.64318 0.0
H820 H 0.22692 0.04838 0.56461 0.0
C821 C 0.25607 0.05791 0.65995 0.0
H822 H 0.25264 -0.00059 0.59507 0.0
C823 C 0.24079 0.08561 0.64282 0.0
C824 C 0.23063 0.08261 0.6082 0.0
H825 H 0.26437 0.06084 0.68651 0.0
H826 H 0.23658 0.10923 0.65662 0.0
C827 C 0.23537 0.05143 0.59111 0.0
C828 C 0.90609 0.18928 0.63084 0.0
C829 C 0.87553 0.20369 0.61731 0.0
H830 H 0.95552 0.19922 0.65442 0.0
C831 C 0.8686 0.23825 0.62351 0.0
H832 H 0.9122 0.16266 0.62632 0.0
C833 C 0.89311 0.25875 0.63983 0.0
C834 C 0.92509 0.24519 0.65002 0.0
H835 H 0.84523 0.24997 0.61373 0.0
H836 H 0.88812 0.28591 0.64217 0.0
C837 C 0.93091 0.21004 0.64696 0.0
C838 C 0.72625 0.92444 0.57433 0.0
C839 C 0.69367 0.90867 0.57365 0.0
H840 H 0.77773 0.92495 0.55514 0.0
C841 C 0.68925 0.87884 0.55367 0.0
H842 H 0.73064 0.94745 0.58921 0.0
C843 C 0.71619 0.86599 0.53381 0.0
C844 C 0.74836 0.88257 0.53336 0.0
H845 H 0.66456 0.8658 0.55254 0.0
H846 H 0.7115 0.84351 0.51822 0.0
C847 C 0.75321 0.91158 0.55445 0.0
C848 C 0.40184 0.12291 0.24788 0.0
C849 C 0.43595 0.13506 0.2481 0.0
H850 H 0.36419 0.09121 0.27265 0.0
C851 C 0.45708 0.12873 0.27677 0.0
H852 H 0.38544 0.12698 0.22551 0.0
C853 C 0.44499 0.10816 0.30376 0.0
C854 C 0.41197 0.09304 0.30188 0.0
H855 H 0.48377 0.13707 0.2769 0.0
H856 H 0.46235 0.10221 0.32487 0.0
C857 C 0.38997 0.10189 0.27447 0.0
C858 C 0.94499 0.33854 0.22579 0.0
C859 C 0.93699 0.35314 0.25772 0.0
H860 H 0.93467 0.33749 0.17153 0.0
C861 C 0.90926 0.37619 0.25932 0.0
H862 H 0.96608 0.32066 0.22362 0.0
C863 C 0.89104 0.38565 0.22959 0.0
C864 C 0.90019 0.37253 0.19732 0.0
H865 H 0.90204 0.38767 0.28355 0.0
H866 H 0.87074 0.4044 0.23179 0.0
C867 C 0.9269 0.34823 0.19592 0.0
C868 C 0.66695 0.94556 0.19577 0.0
C869 C 0.65481 0.95902 0.22672 0.0
H870 H 0.66333 0.90435 0.15969 0.0
C871 C 0.63353 0.93844 0.2478 0.0
H872 H 0.68328 0.96087 0.17907 0.0
C873 C 0.62241 0.9063 0.23715 0.0
C874 C 0.63182 0.89394 0.20482 0.0
H875 H 0.62373 0.94789 0.27195 0.0
H876 H 0.6045 0.89222 0.25331 0.0
C877 C 0.65549 0.91318 0.18484 0.0
C878 C 0.11268 0.60865 0.26489 0.0
C879 C 0.07758 0.60886 0.25533 0.0
H880 H 0.15843 0.57871 0.27218 0.0
C881 C 0.06105 0.57777 0.24803 0.0
H882 H 0.1258 0.63231 0.27147 0.0
C883 C 0.07914 0.54715 0.2502 0.0
C884 C 0.11462 0.54682 0.25842 0.0
H885 H 0.03376 0.57688 0.24194 0.0
H886 H 0.06538 0.52363 0.24439 0.0
C887 C 0.13116 0.57795 0.26612 0.0
C888 C 0.3833 0.79703 0.74883 0.0
C889 C 0.38378 0.80505 0.78394 0.0
H890 H 0.36118 0.80732 0.69953 0.0
C891 C 0.35757 0.82591 0.79725 0.0
H892 H 0.40282 0.78068 0.73795 0.0
C893 C 0.33399 0.84185 0.77518 0.0
C894 C 0.3359 0.83673 0.73952 0.0
H895 H 0.35701 0.83238 0.82435 0.0
H896 H 0.3161 0.8601 0.78579 0.0
C897 C 0.3593 0.81239 0.72687 0.0
C898 C 0.09649 0.41538 0.74885 0.0
C899 C 0.07182 0.39008 0.75716 0.0
H900 H 0.12334 0.46076 0.76439 0.0
C901 C 0.05596 0.39114 0.78954 0.0
H902 H 0.10909 0.41541 0.724 0.0
C903 C 0.06375 0.41761 0.81258 0.0
C904 C 0.08777 0.44348 0.80384 0.0
H905 H 0.03644 0.37243 0.7965 0.0
H906 H 0.05073 0.41786 0.83718 0.0
C907 C 0.10443 0.44165 0.77188 0.0
C908 C 0.55216 0.03526 0.72811 0.0
C909 C 0.55708 0.05079 0.69588 0.0
H910 H 0.52795 0.0373 0.77706 0.0
C911 C 0.5401 0.08211 0.6889 0.0
H912 H 0.56428 0.01106 0.73433 0.0
C913 C 0.51875 0.09737 0.71349 0.0
C914 C 0.51384 0.08173 0.74573 0.0
H915 H 0.54304 0.09484 0.66419 0.0
H916 H 0.50631 0.1214 0.70729 0.0
C917 C 0.53093 0.05043 0.75257 0.0
C918 C 0.89549 0.63506 0.74236 0.0
C919 C 0.88631 0.63814 0.70737 0.0
H920 H 0.88279 0.61221 0.79126 0.0
C921 C 0.85388 0.6258 0.69639 0.0
H922 H 0.92024 0.64428 0.75155 0.0
C923 C 0.83309 0.607 0.71871 0.0
C924 C 0.84378 0.60113 0.75268 0.0
H925 H 0.84567 0.62834 0.66975 0.0
H926 H 0.80962 0.59535 0.70888 0.0
C927 C 0.87414 0.61671 0.76501 0.0
C928 C 0.25698 0.42777 0.10282 0.0
C929 C 0.25502 0.42459 0.13894 0.0
H930 H 0.2622 0.40248 0.05453 0.0
C931 C 0.26044 0.39231 0.15424 0.0
H932 H 0.2534 0.45235 0.09018 0.0
C933 C 0.26603 0.36358 0.13349 0.0
C934 C 0.26518 0.36673 0.09734 0.0
H935 H 0.25885 0.38897 0.18193 0.0
H936 H 0.27004 0.33882 0.14557 0.0
C937 C 0.26136 0.39915 0.08229 0.0
C938 C 0.26709 0.60507 0.93241 0.0
C939 C 0.26085 0.62626 0.96102 0.0
H940 H 0.24619 0.5791 0.88855 0.0
C941 C 0.22806 0.64067 0.96451 0.0
H942 H 0.29217 0.59382 0.92845 0.0
C943 C 0.20167 0.63248 0.94112 0.0
C944 C 0.20739 0.60953 0.91378 0.0
H945 H 0.22242 0.65735 0.98591 0.0
H946 H 0.17631 0.64291 0.94559 0.0
C947 C 0.24073 0.59678 0.90917 0.0
C948 C 0.36838 0.24289 0.86665 0.0
C949 C 0.3624 0.20819 0.87397 0.0
H950 H 0.35708 0.29472 0.87997 0.0
C951 C 0.3361 0.19928 0.89736 0.0
H952 H 0.38824 0.2505 0.84861 0.0
C953 C 0.31812 0.22431 0.91514 0.0
C954 C 0.32598 0.25905 0.91013 0.0
H955 H 0.3302 0.17267 0.90298 0.0
H956 H 0.29941 0.21625 0.93419 0.0
C957 C 0.35038 0.26814 0.88466 0.0
C958 C 0.71217 0.41003 0.81297 0.0
C959 C 0.74763 0.40658 0.81887 0.0
H960 H 0.6617 0.39261 0.82569 0.0
C961 C 0.75953 0.37827 0.83821 0.0
H962 H 0.70218 0.4312 0.79781 0.0
C963 C 0.73634 0.35629 0.85465 0.0
C964 C 0.70081 0.36199 0.85177 0.0
H965 H 0.7868 0.37442 0.84279 0.0
H966 H 0.74633 0.33634 0.8714 0.0
C967 C 0.68897 0.38782 0.8291 0.0
C968 C 0.63229 0.73601 0.88673 0.0
C969 C 0.63014 0.74258 0.92221 0.0
H970 H 0.61153 0.7472 0.8365 0.0
C971 C 0.61079 0.77027 0.93381 0.0
H972 H 0.64654 0.71415 0.8775 0.0
C973 C 0.59167 0.78967 0.9103 0.0
C974 C 0.59089 0.78063 0.87533 0.0
H975 H 0.60821 0.77506 0.96116 0.0
H976 H 0.57492 0.80952 0.9199 0.0
C977 C 0.61219 0.75459 0.86337 0.0
C978 C 0.80391 0.55344 0.03457 0.0
C979 C 0.79575 0.52899 0.06024 0.0
H980 H 0.78581 0.59508 0.00279 0.0
C981 C 0.76205 0.52767 0.07297 0.0
H982 H 0.82973 0.55513 0.02423 0.0
C983 C 0.73716 0.55021 0.06065 0.0
C984 C 0.74519 0.57502 0.03537 0.0
H985 H 0.75475 0.50916 0.09258 0.0
H986 H 0.71151 0.54831 0.07139 0.0
C987 C 0.77889 0.57646 0.02242 0.0
C988 C 0.45138 0.73805 0.15078 0.0
C989 C 0.4486 0.77192 0.13872 0.0
H990 H 0.42967 0.6875 0.15101 0.0
C991 C 0.41927 0.78103 0.11912 0.0
H992 H 0.47341 0.73017 0.1661 0.0
C993 C 0.39423 0.7567 0.1105 0.0
C994 C 0.39758 0.72257 0.12143 0.0
H995 H 0.41593 0.8069 0.10949 0.0
H996 H 0.37273 0.7645 0.09439 0.0
C997 C 0.42608 0.71367 0.14234 0.0
C998 C 0.56474 0.25808 0.08077 0.0
C999 C 0.54332 0.23318 0.06567 0.0
H1000 H 0.60856 0.29106 0.07463 0.0
C1001 C 0.54881 0.22415 0.03106 0.0
H1002 H 0.56148 0.26533 0.10745 0.0
C1003 C 0.57627 0.23811 0.01261 0.0
C1004 C 0.59869 0.26178 0.02818 0.0
H1005 H 0.53268 0.2051 0.01859 0.0
H1006 H 0.5799 0.23028 0.98614 0.0
C1007 C 0.59214 0.27228 0.06216 0.0
C1008 C 0.88397 0.71404 0.54277 0.0
C1009 C 0.89984 0.724 0.57403 0.0
H1010 H 0.85465 0.72938 0.49836 0.0
C1011 C 0.89576 0.75766 0.58543 0.0
H1012 H 0.88633 0.68816 0.53323 0.0
C1013 C 0.87731 0.78114 0.56545 0.0
C1014 C 0.86261 0.77155 0.53354 0.0
H1015 H 0.90728 0.76608 0.60945 0.0
H1016 H 0.87534 0.80714 0.57474 0.0
C1017 C 0.86552 0.73755 0.52277 0.0
C1018 C 0.21743 0.8517 0.61052 0.0
C1019 C 0.25206 0.85954 0.60364 0.0
H1020 H 0.17104 0.82756 0.59248 0.0
C1021 C 0.26724 0.84597 0.5738 0.0
H1022 H 0.20508 0.86146 0.63337 0.0
C1023 C 0.24806 0.82633 0.55073 0.0
C1024 C 0.21307 0.81974 0.55667 0.0
H1025 H 0.29405 0.85088 0.56781 0.0
H1026 H 0.26048 0.81737 0.52757 0.0
C1027 C 0.19807 0.83202 0.5872 0.0
C1028 C 0.08366 0.22217 0.65955 0.0
C1029 C 0.09317 0.25646 0.6542 0.0
H1030 H 0.08932 0.17049 0.64362 0.0
C1031 C 0.12009 0.26417 0.63107 0.0
H1032 H 0.06334 0.21524 0.67734 0.0
C1033 C 0.13492 0.23839 0.6114 0.0
C1034 C 0.123 0.20461 0.61456 0.0
H1035 H 0.12835 0.29036 0.62661 0.0
H1036 H 0.15425 0.24521 0.59249 0.0
C1037 C 0.09836 0.19655 0.63987 0.0
C1038 C 0.70461 0.11748 0.55489 0.0
C1039 C 0.73385 0.11764 0.57647 0.0
H1040 H 0.65505 0.09488 0.54418 0.0
C1041 C 0.73356 0.09703 0.60633 0.0
H1042 H 0.7044 0.13249 0.5313 0.0
C1043 C 0.70575 0.0753 0.61353 0.0
C1044 C 0.67733 0.07326 0.59094 0.0
H1045 H 0.75584 0.09636 0.6233 0.0
H1046 H 0.70725 0.05913 0.63628 0.0
C1047 C 0.6766 0.09547 0.56205 0.0
C1048 C 0.8836 0.2645 0.44229 0.0
C1049 C 0.89939 0.23575 0.45733 0.0
H1050 H 0.88793 0.3054 0.40526 0.0
C1051 C 0.93268 0.22665 0.44624 0.0
H1052 H 0.85795 0.27202 0.44987 0.0
C1053 C 0.94906 0.24469 0.41989 0.0
C1054 C 0.93313 0.27298 0.40445 0.0
H1055 H 0.94593 0.20479 0.45726 0.0
H1056 H 0.97463 0.23692 0.4122 0.0
C1057 C 0.9005 0.28316 0.41631 0.0
C1058 C 0.73212 0.95136 0.37179 0.0
C1059 C 0.7265 0.95055 0.33604 0.0
H1060 H 0.7516 0.92467 0.41632 0.0
C1061 C 0.7354 0.92117 0.31755 0.0
H1062 H 0.72473 0.97355 0.38658 0.0
C1063 C 0.75106 0.89348 0.33439 0.0
C1064 C 0.75656 0.89415 0.37019 0.0
H1065 H 0.73061 0.91986 0.29003 0.0
H1066 H 0.75912 0.87163 0.31945 0.0
C1067 C 0.74672 0.9232 0.38882 0.0
C1068 C 0.09641 0.73521 0.32263 0.0
C1069 C 0.06244 0.7471 0.31916 0.0
H1070 H 0.1457 0.74274 0.34669 0.0
C1071 C 0.05411 0.77975 0.33093 0.0
H1072 H 0.10311 0.70973 0.31415 0.0
C1073 C 0.07873 0.79894 0.34894 0.0
C1074 C 0.11143 0.78503 0.35622 0.0
H1075 H 0.02786 0.78893 0.32919 0.0
H1076 H 0.07096 0.82295 0.36027 0.0
C1077 C 0.12066 0.75383 0.34151 0.0
C1078 C 0.27061 0.11173 0.44513 0.0
C1079 C 0.23833 0.0954 0.44504 0.0
H1080 H 0.32263 0.11115 0.42766 0.0
C1081 C 0.23355 0.06623 0.42422 0.0
H1082 H 0.27519 0.13432 0.46059 0.0
C1083 C 0.26078 0.05285 0.40522 0.0
C1084 C 0.29348 0.06828 0.40659 0.0
H1085 H 0.20895 0.053 0.42328 0.0
H1086 H 0.25648 0.02969 0.39056 0.0
C1087 C 0.29783 0.09837 0.42613 0.0
C1088 C 0.57959 0.85298 0.73472 0.0
C1089 C 0.54559 0.84038 0.73276 0.0
H1090 H 0.61843 0.88513 0.71216 0.0
C1091 C 0.52601 0.84717 0.70305 0.0
H1092 H 0.59488 0.84882 0.75785 0.0
C1093 C 0.5395 0.86809 0.67682 0.0
C1094 C 0.57244 0.88329 0.68027 0.0
H1095 H 0.49938 0.8388 0.70143 0.0
H1096 H 0.52321 0.8741 0.65489 0.0
C1097 C 0.59282 0.87439 0.70891 0.0
C1098 C 0.04959 0.64673 0.75521 0.0
C1099 C 0.05577 0.63108 0.72345 0.0
H1100 H 0.06073 0.64722 0.80933 0.0
C1101 C 0.08156 0.6059 0.7216 0.0
H1102 H 0.03006 0.66628 0.75742 0.0
C1103 C 0.09925 0.59507 0.75108 0.0
C1104 C 0.09155 0.609 0.78332 0.0
H1105 H 0.0875 0.5937 0.69737 0.0
H1106 H 0.11786 0.57469 0.74871 0.0
C1107 C 0.06722 0.63571 0.78491 0.0
C1108 C 0.32406 0.06343 0.78966 0.0
C1109 C 0.35111 0.08046 0.77208 0.0
H1110 H 0.29351 0.01727 0.79445 0.0
C1111 C 0.36513 0.06497 0.74302 0.0
H1112 H 0.31263 0.07471 0.81227 0.0
C1113 C 0.35476 0.03225 0.73354 0.0
C1114 C 0.3294 0.01408 0.75226 0.0
H1115 H 0.3858 0.07715 0.72874 0.0
H1116 H 0.36784 0.02078 0.71205 0.0
C1117 C 0.31313 0.03051 0.77966 0.0
C1118 C 0.91604 0.42616 0.76762 0.0
C1119 C 0.88245 0.43248 0.75536 0.0
H1120 H 0.95973 0.39333 0.767 0.0
C1121 C 0.86778 0.41038 0.7309 0.0
H1122 H 0.92814 0.44283 0.78641 0.0
C1123 C 0.88591 0.38172 0.71997 0.0
C1124 C 0.9189 0.37471 0.7334 0.0
H1125 H 0.84184 0.41437 0.72128 0.0
H1126 H 0.87395 0.36489 0.70124 0.0
C1127 C 0.93396 0.39746 0.75696 0.0
C1128 C 0.59462 0.17523 0.22776 0.0
C1129 C 0.59284 0.16666 0.1928 0.0
H1130 H 0.61864 0.16601 0.27643 0.0
C1131 C 0.61811 0.14489 0.17913 0.0
H1132 H 0.57578 0.19214 0.23896 0.0
C1133 C 0.64244 0.12925 0.20071 0.0
C1134 C 0.64231 0.13555 0.23626 0.0
H1135 H 0.61752 0.13778 0.15219 0.0
H1136 H 0.6598 0.11064 0.18987 0.0
C1137 C 0.61934 0.16016 0.24918 0.0
C1138 C 0.92488 0.59271 0.19081 0.0
C1139 C 0.92059 0.5875 0.22635 0.0
H1140 H 0.91714 0.57294 0.14009 0.0
C1141 C 0.90277 0.55793 0.23767 0.0
H1142 H 0.93849 0.61507 0.18117 0.0
C1143 C 0.8906 0.53366 0.21418 0.0
C1144 C 0.89594 0.53826 0.17872 0.0
H1145 H 0.89881 0.55303 0.26488 0.0
H1146 H 0.87767 0.51096 0.22393 0.0
C1147 C 0.91275 0.56837 0.16728 0.0
C1148 C 0.4529 0.92461 0.22909 0.0
C1149 C 0.47004 0.8934 0.23597 0.0
H1150 H 0.42035 0.96437 0.24774 0.0
C1151 C 0.46633 0.87835 0.26865 0.0
H1152 H 0.45494 0.93719 0.20422 0.0
C1153 C 0.44598 0.8941 0.29367 0.0
C1154 C 0.42889 0.9253 0.28663 0.0
H1155 H 0.47889 0.85438 0.27483 0.0
H1156 H 0.44386 0.88182 0.31869 0.0
C1157 C 0.43268 0.94029 0.254 0.0
C1158 C 0.1213 0.36927 0.21505 0.0
C1159 C 0.15389 0.37953 0.22754 0.0
H1160 H 0.07275 0.34575 0.22773 0.0
C1161 C 0.16593 0.3662 0.25888 0.0
H1162 H 0.11144 0.37957 0.19096 0.0
C1163 C 0.14425 0.34619 0.27934 0.0
C1164 C 0.1098 0.34021 0.26931 0.0
H1165 H 0.19095 0.37375 0.26892 0.0
H1166 H 0.15321 0.33874 0.30483 0.0
C1167 C 0.09918 0.34979 0.23599 0.0
C1168 C 0.72373 0.63048 0.85692 0.0
C1169 C 0.6939 0.62064 0.8744 0.0
H1170 H 0.76051 0.61645 0.81903 0.0
C1171 C 0.6739 0.59314 0.86209 0.0
H1172 H 0.73886 0.65227 0.86545 0.0
C1173 C 0.6865 0.57233 0.83607 0.0
C1174 C 0.71884 0.57933 0.8219 0.0
H1175 H 0.65025 0.5857 0.8749 0.0
H1176 H 0.67343 0.54832 0.83071 0.0
C1177 C 0.73546 0.61052 0.82974 0.0
C1178 C 0.7247 0.38623 0.03975 0.0
C1179 C 0.72791 0.35718 0.01865 0.0
H1180 H 0.74633 0.41746 0.07919 0.0
C1181 C 0.75689 0.33619 0.02316 0.0
H1182 H 0.70266 0.403 0.03757 0.0
C1183 C 0.78242 0.34474 0.04757 0.0
C1184 C 0.77919 0.37418 0.06821 0.0
H1185 H 0.76 0.31345 0.0077 0.0
H1186 H 0.80502 0.32873 0.04968 0.0
C1187 C 0.74971 0.39441 0.06422 0.0
C1188 C 0.64405 0.77227 0.08473 0.0
C1189 C 0.61961 0.76413 0.11025 0.0
H1190 H 0.68022 0.75388 0.04817 0.0
C1191 C 0.61731 0.73032 0.12236 0.0
H1192 H 0.64731 0.79837 0.07559 0.0
C1193 C 0.6366 0.7046 0.10664 0.0
C1194 C 0.65856 0.71237 0.07867 0.0
H1195 H 0.59915 0.72344 0.14237 0.0
H1196 H 0.63237 0.67834 0.11483 0.0
C1197 C 0.66338 0.74677 0.06924 0.0
C1198 C 0.22742 0.62088 0.12556 0.0
C1199 C 0.2605 0.62792 0.13861 0.0
H1200 H 0.18033 0.59273 0.13315 0.0
C1201 C 0.2684 0.61859 0.17286 0.0
H1202 H 0.22086 0.62743 0.09915 0.0
C1203 C 0.24573 0.59828 0.19193 0.0
C1204 C 0.21439 0.58763 0.17739 0.0
H1205 H 0.29372 0.62389 0.18358 0.0
H1206 H 0.25399 0.58845 0.21682 0.0
C1207 C 0.20433 0.60091 0.14502 0.0
C1208 C 0.33664 0.23757 0.10714 0.0
C1209 C 0.33033 0.22719 0.07299 0.0
H1210 H 0.36915 0.23198 0.15181 0.0
C1211 C 0.34556 0.19716 0.061 0.0
H1212 H 0.32564 0.26112 0.11664 0.0
C1213 C 0.36998 0.1802 0.08138 0.0
C1214 C 0.37995 0.19377 0.11342 0.0
H1215 H 0.34178 0.18924 0.03451 0.0
H1216 H 0.38354 0.15861 0.07064 0.0
C1217 C 0.36203 0.22148 0.12696 0.0
C1218 C 0.22742 0.44893 0.90942 0.0
C1219 C 0.19183 0.44474 0.91366 0.0
H1220 H 0.27754 0.4292 0.91978 0.0
C1221 C 0.1795 0.41544 0.93131 0.0
H1222 H 0.23776 0.47106 0.89594 0.0
C1223 C 0.20228 0.39121 0.9449 0.0
C1224 C 0.2379 0.39588 0.94139 0.0
H1225 H 0.15213 0.41122 0.93483 0.0
H1226 H 0.19202 0.36926 0.95874 0.0
C1227 C 0.25017 0.42487 0.92321 0.0
C1228 C 0.584 0.21415 0.88106 0.0
C1229 C 0.57901 0.2487 0.8724 0.0
H1230 H 0.5642 0.16299 0.87842 0.0
C1231 C 0.55061 0.25751 0.85136 0.0
H1232 H 0.6054 0.20653 0.89739 0.0
C1233 C 0.52681 0.23274 0.84071 0.0
C1234 C 0.53073 0.19841 0.85079 0.0
H1235 H 0.54605 0.28391 0.84398 0.0
H1236 H 0.50486 0.24073 0.82534 0.0
C1237 C 0.56009 0.18927 0.87041 0.0
C1238 C 0.43538 0.70671 0.91286 0.0
C1239 C 0.43729 0.74216 0.91809 0.0
H1240 H 0.41539 0.6586 0.93089 0.0
C1241 C 0.42001 0.75617 0.94666 0.0
H1242 H 0.44819 0.69513 0.89117 0.0
C1243 C 0.40067 0.73556 0.96881 0.0
C1244 C 0.39856 0.70025 0.96351 0.0
H1245 H 0.42063 0.78342 0.95165 0.0
H1246 H 0.38758 0.7473 0.99026 0.0
C1247 C 0.41648 0.6859 0.93558 0.0
loop_
_geom_bond_atom_site_label_1
_geom_bond_atom_site_label_2
_geom_bond_distance
_geom_bond_site_symmetry_2
_ccdc_geom_bond_type
Sc0 O3 2.025 . S
Sc0 O10 2.105 1_455 S
Sc0 O13 2.105 . S
Sc0 O16 2.105 1_455 S
Sc0 O19 2.105 . S
Sc1 O3 2.025 . S
Sc1 O11 2.105 . S
Sc1 O15 2.105 . S
Sc1 O17 2.105 . S
Sc1 O21 2.105 . S
Sc2 O3 2.025 1_655 S
Sc2 O12 2.105 . S
Sc2 O14 2.105 . S
Sc2 O18 2.105 . S
Sc2 O20 2.105 . S
O3 Sc0 2.025 . S
O3 Sc1 2.025 . S
O3 Sc2 2.025 1_455 S
C4 O10 1.268 . S
C4 O20 1.268 . S
C5 O11 1.268 . S
C5 O19 1.268 . S
C6 O12 1.268 1_455 S
C6 O21 1.268 . S
C7 O13 1.268 . S
C7 O17 1.268 . S
C8 O14 1.268 . S
C8 O16 1.268 . S
C9 O15 1.268 . S
C9 O18 1.268 1_455 S
O10 Sc0 2.105 1_655 S
O10 C4 1.268 . S
O11 Sc1 2.105 . S
O11 C5 1.268 . S
O12 Sc2 2.105 . S
O12 C6 1.268 1_655 S
O13 Sc0 2.105 . S
O13 C7 1.268 . S
O14 Sc2 2.105 . S
O14 C8 1.268 . S
O15 Sc1 2.105 . S
O15 C9 1.268 . S
O16 Sc0 2.105 1_655 S
O16 C8 1.268 . S
O17 Sc1 2.105 . S
O17 C7 1.268 . S
O18 Sc2 2.105 . S
O18 C9 1.268 1_655 S
O19 Sc0 2.105 . S
O19 C5 1.268 . S
O20 Sc2 2.105 . S
O20 C4 1.268 . S
O21 Sc1 2.105 . S
O21 C6 1.268 . S
Sc22 O25 2.025 . S
Sc22 O32 2.105 . S
Sc22 O35 2.105 1_545 S
Sc22 O38 2.105 . S
Sc22 O41 2.105 1_545 S
Sc23 O25 2.025 1_565 S
Sc23 O33 2.105 . S
Sc23 O37 2.105 . S
Sc23 O39 2.105 . S
Sc23 O43 2.105 . S
Sc24 O25 2.025 . S
Sc24 O34 2.105 . S
Sc24 O36 2.105 . S
Sc24 O40 2.105 . S
Sc24 O42 2.105 . S
O25 Sc22 2.025 . S
O25 Sc23 2.025 1_545 S
O25 Sc24 2.025 . S
C26 O32 1.268 . S
C26 O42 1.268 . S
C27 O33 1.268 . S
C27 O41 1.268 . S
C28 O34 1.268 . S
C28 O43 1.268 1_545 S
C29 O35 1.268 . S
C29 O39 1.268 . S
C30 O36 1.268 . S
C30 O38 1.268 . S
C31 O37 1.268 1_545 S
C31 O40 1.268 . S
O32 Sc22 2.105 . S
O32 C26 1.268 . S
O33 Sc23 2.105 . S
O33 C27 1.268 . S
O34 Sc24 2.105 . S
O34 C28 1.268 . S
O35 Sc22 2.105 1_565 S
O35 C29 1.268 . S
O36 Sc24 2.105 . S
O36 C30 1.268 . S
O37 Sc23 2.105 . S
O37 C31 1.268 1_565 S
O38 Sc22 2.105 . S
O38 C30 1.268 . S
O39 Sc23 2.105 . S
O39 C29 1.268 . S
O40 Sc24 2.105 . S
O40 C31 1.268 . S
O41 Sc22 2.105 1_565 S
O41 C27 1.268 . S
O42 Sc24 2.105 . S
O42 C26 1.268 . S
O43 Sc23 2.105 . S
O43 C28 1.268 1_565 S
Sc44 O47 2.025 . S
Sc44 O54 2.105 . S
Sc44 O57 2.105 1_455 S
Sc44 O60 2.105 . S
Sc44 O63 2.105 1_455 S
Sc45 O47 2.025 1_655 S
Sc45 O55 2.105 . S
Sc45 O59 2.105 . S
Sc45 O61 2.105 . S
Sc45 O65 2.105 . S
Sc46 O47 2.025 . S
Sc46 O56 2.105 . S
Sc46 O58 2.105 . S
Sc46 O62 2.105 . S
Sc46 O64 2.105 . S
O47 Sc44 2.025 . S
O47 Sc45 2.025 1_455 S
O47 Sc46 2.025 . S
C48 O54 1.268 . S
C48 O64 1.268 . S
C49 O55 1.268 . S
C49 O63 1.268 . S
C50 O56 1.268 . S
C50 O65 1.268 1_455 S
C51 O57 1.268 . S
C51 O61 1.268 . S
C52 O58 1.268 . S
C52 O60 1.268 . S
C53 O59 1.268 1_455 S
C53 O62 1.268 . S
O54 Sc44 2.105 . S
O54 C48 1.268 . S
O55 Sc45 2.105 . S
O55 C49 1.268 . S
O56 Sc46 2.105 . S
O56 C50 1.268 . S
O57 Sc44 2.105 1_655 S
O57 C51 1.268 . S
O58 Sc46 2.105 . S
O58 C52 1.268 . S
O59 Sc45 2.105 . S
O59 C53 1.268 1_655 S
O60 Sc44 2.105 . S
O60 C52 1.268 . S
O61 Sc45 2.105 . S
O61 C51 1.268 . S
O62 Sc46 2.105 . S
O62 C53 1.268 . S
O63 Sc44 2.105 1_655 S
O63 C49 1.268 . S
O64 Sc46 2.105 . S
O64 C48 1.268 . S
O65 Sc45 2.105 . S
O65 C50 1.268 1_655 S
Sc66 O69 2.025 1_565 S
Sc66 O76 2.105 . S
Sc66 O79 2.105 . S
Sc66 O82 2.105 . S
Sc66 O85 2.105 . S
Sc67 O69 2.025 . S
Sc67 O77 2.105 . S
Sc67 O81 2.105 . S
Sc67 O83 2.105 . S
Sc67 O87 2.105 . S
Sc68 O69 2.025 . S
Sc68 O78 2.105 . S
Sc68 O80 2.105 1_545 S
Sc68 O84 2.105 . S
Sc68 O86 2.105 1_545 S
O69 Sc66 2.025 1_545 S
O69 Sc67 2.025 . S
O69 Sc68 2.025 . S
C70 O76 1.268 . S
C70 O86 1.268 . S
C71 O77 1.268 . S
C71 O85 1.268 1_545 S
C72 O78 1.268 . S
C72 O87 1.268 . S
C73 O79 1.268 1_545 S
C73 O83 1.268 . S
C74 O80 1.268 . S
C74 O82 1.268 . S
C75 O81 1.268 . S
C75 O84 1.268 . S
O76 Sc66 2.105 . S
O76 C70 1.268 . S
O77 Sc67 2.105 . S
O77 C71 1.268 . S
O78 Sc68 2.105 . S
O78 C72 1.268 . S
O79 Sc66 2.105 . S
O79 C73 1.268 1_565 S
O80 Sc68 2.105 1_565 S
O80 C74 1.268 . S
O81 Sc67 2.105 . S
O81 C75 1.268 . S
O82 Sc66 2.105 . S
O82 C74 1.268 . S
O83 Sc67 2.105 . S
O83 C73 1.268 . S
O84 Sc68 2.105 . S
O84 C75 1.268 . S
O85 Sc66 2.105 . S
O85 C71 1.268 1_565 S
O86 Sc68 2.105 1_565 S
O86 C70 1.268 . S
O87 Sc67 2.105 . S
O87 C72 1.268 . S
Sc88 O91 2.025 . S
Sc88 O98 2.105 . S
Sc88 O101 2.105 . S
Sc88 O104 2.105 . S
Sc88 O107 2.105 . S
Sc89 O91 2.025 1_655 S
Sc89 O99 2.105 . S
Sc89 O103 2.105 . S
Sc89 O105 2.105 . S
Sc89 O109 2.105 . S
Sc90 O91 2.025 . S
Sc90 O100 2.105 1_455 S
Sc90 O102 2.105 . S
Sc90 O106 2.105 1_455 S
Sc90 O108 2.105 . S
O91 Sc88 2.025 . S
O91 Sc89 2.025 1_455 S
O91 Sc90 2.025 . S
C92 O98 1.268 . S
C92 O108 1.268 . S
C93 O99 1.268 1_455 S
C93 O107 1.268 . S
C94 O100 1.268 . S
C94 O109 1.268 . S
C95 O101 1.268 . S
C95 O105 1.268 1_455 S
C96 O102 1.268 . S
C96 O104 1.268 . S
C97 O103 1.268 . S
C97 O106 1.268 . S
O98 Sc88 2.105 . S
O98 C92 1.268 . S
O99 Sc89 2.105 . S
O99 C93 1.268 1_655 S
O100 Sc90 2.105 1_655 S
O100 C94 1.268 . S
O101 Sc88 2.105 . S
O101 C95 1.268 . S
O102 Sc90 2.105 . S
O102 C96 1.268 . S
O103 Sc89 2.105 . S
O103 C97 1.268 . S
O104 Sc88 2.105 . S
O104 C96 1.268 . S
O105 Sc89 2.105 . S
O105 C95 1.268 1_655 S
O106 Sc90 2.105 1_655 S
O106 C97 1.268 . S
O107 Sc88 2.105 . S
O107 C93 1.268 . S
O108 Sc90 2.105 . S
O108 C92 1.268 . S
O109 Sc89 2.105 . S
O109 C94 1.268 . S
Sc110 O113 2.025 1_565 S
Sc110 O120 2.105 . S
Sc110 O123 2.105 . S
Sc110 O126 2.105 . S
Sc110 O129 2.105 . S
Sc111 O113 2.025 . S
Sc111 O121 2.105 . S
Sc111 O125 2.105 . S
Sc111 O127 2.105 . S
Sc111 O131 2.105 . S
Sc112 O113 2.025 . S
Sc112 O122 2.105 . S
Sc112 O124 2.105 1_545 S
Sc112 O128 2.105 . S
Sc112 O130 2.105 1_545 S
O113 Sc110 2.025 1_545 S
O113 Sc111 2.025 . S
O113 Sc112 2.025 . S
C114 O120 1.268 . S
C114 O130 1.268 . S
C115 O121 1.268 . S
C115 O129 1.268 1_545 S
C116 O122 1.268 . S
C116 O131 1.268 . S
C117 O123 1.268 1_545 S
C117 O127 1.268 . S
C118 O124 1.268 . S
C118 O126 1.268 . S
C119 O125 1.268 . S
C119 O128 1.268 . S
O120 Sc110 2.105 . S
O120 C114 1.268 . S
O121 Sc111 2.105 . S
O121 C115 1.268 . S
O122 Sc112 2.105 . S
O122 C116 1.268 . S
O123 Sc110 2.105 . S
O123 C117 1.268 1_565 S
O124 Sc112 2.105 1_565 S
O124 C118 1.268 . S
O125 Sc111 2.105 . S
O125 C119 1.268 . S
O126 Sc110 2.105 . S
O126 C118 1.268 . S
O127 Sc111 2.105 . S
O127 C117 1.268 . S
O128 Sc112 2.105 . S
O128 C119 1.268 . S
O129 Sc110 2.105 . S
O129 C115 1.268 1_565 S
O130 Sc112 2.105 1_565 S
O130 C114 1.268 . S
O131 Sc111 2.105 . S
O131 C116 1.268 . S
Sc132 O135 2.025 . S
Sc132 O142 2.105 1_455 S
Sc132 O145 2.105 . S
Sc132 O148 2.105 1_455 S
Sc132 O151 2.105 . S
Sc133 O135 2.025 . S
Sc133 O143 2.105 . S
Sc133 O147 2.105 . S
Sc133 O149 2.105 . S
Sc133 O153 2.105 . S
Sc134 O135 2.025 1_655 S
Sc134 O144 2.105 . S
Sc134 O146 2.105 . S
Sc134 O150 2.105 . S
Sc134 O152 2.105 . S
O135 Sc132 2.025 . S
O135 Sc133 2.025 . S
O135 Sc134 2.025 1_455 S
C136 O142 1.268 . S
C136 O152 1.268 . S
C137 O143 1.268 . S
C137 O151 1.268 . S
C138 O144 1.268 1_455 S
C138 O153 1.268 . S
C139 O145 1.268 . S
C139 O149 1.268 . S
C140 O146 1.268 . S
C140 O148 1.268 . S
C141 O147 1.268 . S
C141 O150 1.268 1_455 S
O142 Sc132 2.105 1_655 S
O142 C136 1.268 . S
O143 Sc133 2.105 . S
O143 C137 1.268 . S
O144 Sc134 2.105 . S
O144 C138 1.268 1_655 S
O145 Sc132 2.105 . S
O145 C139 1.268 . S
O146 Sc134 2.105 . S
O146 C140 1.268 . S
O147 Sc133 2.105 . S
O147 C141 1.268 . S
O148 Sc132 2.105 1_655 S
O148 C140 1.268 . S
O149 Sc133 2.105 . S
O149 C139 1.268 . S
O150 Sc134 2.105 . S
O150 C141 1.268 1_655 S
O151 Sc132 2.105 . S
O151 C137 1.268 . S
O152 Sc134 2.105 . S
O152 C136 1.268 . S
O153 Sc133 2.105 . S
O153 C138 1.268 . S
Sc154 O157 2.025 . S
Sc154 O164 2.105 . S
Sc154 O167 2.105 . S
Sc154 O170 2.105 . S
Sc154 O173 2.105 . S
Sc155 O157 2.025 1_565 S
Sc155 O165 2.105 . S
Sc155 O169 2.105 . S
Sc155 O171 2.105 . S
Sc155 O175 2.105 . S
Sc156 O157 2.025 . S
Sc156 O166 2.105 1_545 S
Sc156 O168 2.105 . S
Sc156 O172 2.105 1_545 S
Sc156 O174 2.105 . S
O157 Sc154 2.025 . S
O157 Sc155 2.025 1_545 S
O157 Sc156 2.025 . S
C158 O164 1.268 . S
C158 O174 1.268 . S
C159 O165 1.268 1_545 S
C159 O173 1.268 . S
C160 O166 1.268 . S
C160 O175 1.268 . S
C161 O167 1.268 . S
C161 O171 1.268 1_545 S
C162 O168 1.268 . S
C162 O170 1.268 . S
C163 O169 1.268 . S
C163 O172 1.268 . S
O164 Sc154 2.105 . S
O164 C158 1.268 . S
O165 Sc155 2.105 . S
O165 C159 1.268 1_565 S
O166 Sc156 2.105 1_565 S
O166 C160 1.268 . S
O167 Sc154 2.105 . S
O167 C161 1.268 . S
O168 Sc156 2.105 . S
O168 C162 1.268 . S
O169 Sc155 2.105 . S
O169 C163 1.268 . S
O170 Sc154 2.105 . S
O170 C162 1.268 . S
O171 Sc155 2.105 . S
O171 C161 1.268 1_565 S
O172 Sc156 2.105 1_565 S
O172 C163 1.268 . S
O173 Sc154 2.105 . S
O173 C159 1.268 . S
O174 Sc156 2.105 . S
O174 C158 1.268 . S
O175 Sc155 2.105 . S
O175 C160 1.268 . S
Sc176 O179 2.025 1_556 S
Sc176 O186 2.105 . S
Sc176 O189 2.105 . S
Sc176 O192 2.105 . S
Sc176 O195 2.105 . S
Sc177 O179 2.025 . S
Sc177 O187 2.105 . S
Sc177 O191 2.105 . S
Sc177 O193 2.105 . S
Sc177 O197 2.105 . S
Sc178 O179 2.025 . S
Sc178 O188 2.105 . S
Sc178 O190 2.105 1_554 S
Sc178 O194 2.105 . S
Sc178 O196 2.105 1_554 S
O179 Sc176 2.025 1_554 S
O179 Sc177 2.025 . S
O179 Sc178 2.025 . S
C180 O186 1.268 . S
C180 O196 1.268 . S
C181 O187 1.268 . S
C181 O195 1.268 1_554 S
C182 O188 1.268 . S
C182 O197 1.268 . S
C183 O189 1.268 1_554 S
C183 O193 1.268 . S
C184 O190 1.268 . S
C184 O192 1.268 . S
C185 O191 1.268 . S
C185 O194 1.268 . S
O186 Sc176 2.105 . S
O186 C180 1.268 . S
O187 Sc177 2.105 . S
O187 C181 1.268 . S
O188 Sc178 2.105 . S
O188 C182 1.268 . S
O189 Sc176 2.105 . S
O189 C183 1.268 1_556 S
O190 Sc178 2.105 1_556 S
O190 C184 1.268 . S
O191 Sc177 2.105 . S
O191 C185 1.268 . S
O192 Sc176 2.105 . S
O192 C184 1.268 . S
O193 Sc177 2.105 . S
O193 C183 1.268 . S
O194 Sc178 2.105 . S
O194 C185 1.268 . S
O195 Sc176 2.105 . S
O195 C181 1.268 1_556 S
O196 Sc178 2.105 1_556 S
O196 C180 1.268 . S
O197 Sc177 2.105 . S
O197 C182 1.268 . S
Sc198 O201 2.025 . S
Sc198 O208 2.105 . S
Sc198 O211 2.105 1_554 S
Sc198 O214 2.105 . S
Sc198 O217 2.105 1_554 S
Sc199 O201 2.025 1_556 S
Sc199 O209 2.105 . S
Sc199 O213 2.105 . S
Sc199 O215 2.105 . S
Sc199 O219 2.105 . S
Sc200 O201 2.025 . S
Sc200 O210 2.105 . S
Sc200 O212 2.105 . S
Sc200 O216 2.105 . S
Sc200 O218 2.105 . S
O201 Sc198 2.025 . S
O201 Sc199 2.025 1_554 S
O201 Sc200 2.025 . S
C202 O208 1.268 . S
C202 O218 1.268 . S
C203 O209 1.268 . S
C203 O217 1.268 . S
C204 O210 1.268 . S
C204 O219 1.268 1_554 S
C205 O211 1.268 . S
C205 O215 1.268 . S
C206 O212 1.268 . S
C206 O214 1.268 . S
C207 O213 1.268 1_554 S
C207 O216 1.268 . S
O208 Sc198 2.105 . S
O208 C202 1.268 . S
O209 Sc199 2.105 . S
O209 C203 1.268 . S
O210 Sc200 2.105 . S
O210 C204 1.268 . S
O211 Sc198 2.105 1_556 S
O211 C205 1.268 . S
O212 Sc200 2.105 . S
O212 C206 1.268 . S
O213 Sc199 2.105 . S
O213 C207 1.268 1_556 S
O214 Sc198 2.105 . S
O214 C206 1.268 . S
O215 Sc199 2.105 . S
O215 C205 1.268 . S
O216 Sc200 2.105 . S
O216 C207 1.268 . S
O217 Sc198 2.105 1_556 S
O217 C203 1.268 . S
O218 Sc200 2.105 . S
O218 C202 1.268 . S
O219 Sc199 2.105 . S
O219 C204 1.268 1_556 S
Sc220 O223 2.025 . S
Sc220 O230 2.105 1_554 S
Sc220 O233 2.105 . S
Sc220 O236 2.105 1_554 S
Sc220 O239 2.105 . S
Sc221 O223 2.025 . S
Sc221 O231 2.105 . S
Sc221 O235 2.105 . S
Sc221 O237 2.105 . S
Sc221 O241 2.105 . S
Sc222 O223 2.025 1_556 S
Sc222 O232 2.105 . S
Sc222 O234 2.105 . S
Sc222 O238 2.105 . S
Sc222 O240 2.105 . S
O223 Sc220 2.025 . S
O223 Sc221 2.025 . S
O223 Sc222 2.025 1_554 S
C224 O230 1.268 . S
C224 O240 1.268 . S
C225 O231 1.268 . S
C225 O239 1.268 . S
C226 O232 1.268 1_554 S
C226 O241 1.268 . S
C227 O233 1.268 . S
C227 O237 1.268 . S
C228 O234 1.268 . S
C228 O236 1.268 . S
C229 O235 1.268 . S
C229 O238 1.268 1_554 S
O230 Sc220 2.105 1_556 S
O230 C224 1.268 . S
O231 Sc221 2.105 . S
O231 C225 1.268 . S
O232 Sc222 2.105 . S
O232 C226 1.268 1_556 S
O233 Sc220 2.105 . S
O233 C227 1.268 . S
O234 Sc222 2.105 . S
O234 C228 1.268 . S
O235 Sc221 2.105 . S
O235 C229 1.268 . S
O236 Sc220 2.105 1_556 S
O236 C228 1.268 . S
O237 Sc221 2.105 . S
O237 C227 1.268 . S
O238 Sc222 2.105 . S
O238 C229 1.268 1_556 S
O239 Sc220 2.105 . S
O239 C225 1.268 . S
O240 Sc222 2.105 . S
O240 C224 1.268 . S
O241 Sc221 2.105 . S
O241 C226 1.268 . S
Sc242 O245 2.025 . S
Sc242 O252 2.105 . S
Sc242 O255 2.105 . S
Sc242 O258 2.105 . S
Sc242 O261 2.105 . S
Sc243 O245 2.025 1_556 S
Sc243 O253 2.105 . S
Sc243 O257 2.105 . S
Sc243 O259 2.105 . S
Sc243 O263 2.105 . S
Sc244 O245 2.025 . S
Sc244 O254 2.105 1_554 S
Sc244 O256 2.105 . S
Sc244 O260 2.105 1_554 S
Sc244 O262 2.105 . S
O245 Sc242 2.025 . S
O245 Sc243 2.025 1_554 S
O245 Sc244 2.025 . S
C246 O252 1.268 . S
C246 O262 1.268 . S
C247 O253 1.268 1_554 S
C247 O261 1.268 . S
C248 O254 1.268 . S
C248 O263 1.268 . S
C249 O255 1.268 . S
C249 O259 1.268 1_554 S
C250 O256 1.268 . S
C250 O258 1.268 . S
C251 O257 1.268 . S
C251 O260 1.268 . S
O252 Sc242 2.105 . S
O252 C246 1.268 . S
O253 Sc243 2.105 . S
O253 C247 1.268 1_556 S
O254 Sc244 2.105 1_556 S
O254 C248 1.268 . S
O255 Sc242 2.105 . S
O255 C249 1.268 . S
O256 Sc244 2.105 . S
O256 C250 1.268 . S
O257 Sc243 2.105 . S
O257 C251 1.268 . S
O258 Sc242 2.105 . S
O258 C250 1.268 . S
O259 Sc243 2.105 . S
O259 C249 1.268 1_556 S
O260 Sc244 2.105 1_556 S
O260 C251 1.268 . S
O261 Sc242 2.105 . S
O261 C247 1.268 . S
O262 Sc244 2.105 . S
O262 C246 1.268 . S
O263 Sc243 2.105 . S
O263 C248 1.268 . S
Sc264 O267 2.025 . S
Sc264 O274 2.105 . S
Sc264 O277 2.105 . S
Sc264 O280 2.105 . S
Sc264 O283 2.105 . S
Sc265 O267 2.025 . S
Sc265 O275 2.105 . S
Sc265 O279 2.105 . S
Sc265 O281 2.105 . S
Sc265 O285 2.105 . S
Sc266 O267 2.025 . S
Sc266 O276 2.105 . S
Sc266 O278 2.105 . S
Sc266 O282 2.105 . S
Sc266 O284 2.105 . S
O267 Sc264 2.025 . S
O267 Sc265 2.025 . S
O267 Sc266 2.025 . S
C268 O274 1.268 . S
C268 O284 1.268 . S
C269 O275 1.268 . S
C269 O283 1.268 . S
C270 O276 1.268 . S
C270 O285 1.268 . S
C271 O277 1.268 . S
C271 O281 1.268 . S
C272 O278 1.268 . S
C272 O280 1.268 . S
C273 O279 1.268 . S
C273 O282 1.268 . S
O274 Sc264 2.105 . S
O274 C268 1.268 . S
O275 Sc265 2.105 . S
O275 C269 1.268 . S
O276 Sc266 2.105 . S
O276 C270 1.268 . S
O277 Sc264 2.105 . S
O277 C271 1.268 . S
O278 Sc266 2.105 . S
O278 C272 1.268 . S
O279 Sc265 2.105 . S
O279 C273 1.268 . S
O280 Sc264 2.105 . S
O280 C272 1.268 . S
O281 Sc265 2.105 . S
O281 C271 1.268 . S
O282 Sc266 2.105 . S
O282 C273 1.268 . S
O283 Sc264 2.105 . S
O283 C269 1.268 . S
O284 Sc266 2.105 . S
O284 C268 1.268 . S
O285 Sc265 2.105 . S
O285 C270 1.268 . S
Sc286 O289 2.025 . S
Sc286 O296 2.105 . S
Sc286 O299 2.105 . S
Sc286 O302 2.105 . S
Sc286 O305 2.105 . S
Sc287 O289 2.025 . S
Sc287 O297 2.105 . S
Sc287 O301 2.105 . S
Sc287 O303 2.105 . S
Sc287 O307 2.105 . S
Sc288 O289 2.025 . S
Sc288 O298 2.105 . S
Sc288 O300 2.105 . S
Sc288 O304 2.105 . S
Sc288 O306 2.105 . S
O289 Sc286 2.025 . S
O289 Sc287 2.025 . S
O289 Sc288 2.025 . S
C290 O296 1.268 . S
C290 O306 1.268 . S
C291 O297 1.268 . S
C291 O305 1.268 . S
C292 O298 1.268 . S
C292 O307 1.268 . S
C293 O299 1.268 . S
C293 O303 1.268 . S
C294 O300 1.268 . S
C294 O302 1.268 . S
C295 O301 1.268 . S
C295 O304 1.268 . S
O296 Sc286 2.105 . S
O296 C290 1.268 . S
O297 Sc287 2.105 . S
O297 C291 1.268 . S
O298 Sc288 2.105 . S
O298 C292 1.268 . S
O299 Sc286 2.105 . S
O299 C293 1.268 . S
O300 Sc288 2.105 . S
O300 C294 1.268 . S
O301 Sc287 2.105 . S
O301 C295 1.268 . S
O302 Sc286 2.105 . S
O302 C294 1.268 . S
O303 Sc287 2.105 . S
O303 C293 1.268 . S
O304 Sc288 2.105 . S
O304 C295 1.268 . S
O305 Sc286 2.105 . S
O305 C291 1.268 . S
O306 Sc288 2.105 . S
O306 C290 1.268 . S
O307 Sc287 2.105 . S
O307 C292 1.268 . S
Sc308 O311 2.025 . S
Sc308 O318 2.105 . S
Sc308 O321 2.105 . S
Sc308 O324 2.105 . S
Sc308 O327 2.105 . S
Sc309 O311 2.025 . S
Sc309 O319 2.105 . S
Sc309 O323 2.105 . S
Sc309 O325 2.105 . S
Sc309 O329 2.105 . S
Sc310 O311 2.025 . S
Sc310 O320 2.105 . S
Sc310 O322 2.105 . S
Sc310 O326 2.105 . S
Sc310 O328 2.105 . S
O311 Sc308 2.025 . S
O311 Sc309 2.025 . S
O311 Sc310 2.025 . S
C312 O318 1.268 . S
C312 O328 1.268 . S
C313 O319 1.268 . S
C313 O327 1.268 . S
C314 O320 1.268 . S
C314 O329 1.268 . S
C315 O321 1.268 . S
C315 O325 1.268 . S
C316 O322 1.268 . S
C316 O324 1.268 . S
C317 O323 1.268 . S
C317 O326 1.268 . S
O318 Sc308 2.105 . S
O318 C312 1.268 . S
O319 Sc309 2.105 . S
O319 C313 1.268 . S
O320 Sc310 2.105 . S
O320 C314 1.268 . S
O321 Sc308 2.105 . S
O321 C315 1.268 . S
O322 Sc310 2.105 . S
O322 C316 1.268 . S
O323 Sc309 2.105 . S
O323 C317 1.268 . S
O324 Sc308 2.105 . S
O324 C316 1.268 . S
O325 Sc309 2.105 . S
O325 C315 1.268 . S
O326 Sc310 2.105 . S
O326 C317 1.268 . S
O327 Sc308 2.105 . S
O327 C313 1.268 . S
O328 Sc310 2.105 . S
O328 C312 1.268 . S
O329 Sc309 2.105 . S
O329 C314 1.268 . S
Sc330 O333 2.025 . S
Sc330 O340 2.105 . S
Sc330 O343 2.105 . S
Sc330 O346 2.105 . S
Sc330 O349 2.105 . S
Sc331 O333 2.025 . S
Sc331 O341 2.105 . S
Sc331 O345 2.105 . S
Sc331 O347 2.105 . S
Sc331 O351 2.105 . S
Sc332 O333 2.025 . S
Sc332 O342 2.105 . S
Sc332 O344 2.105 . S
Sc332 O348 2.105 . S
Sc332 O350 2.105 . S
O333 Sc330 2.025 . S
O333 Sc331 2.025 . S
O333 Sc332 2.025 . S
C334 O340 1.268 . S
C334 O350 1.268 . S
C335 O341 1.268 . S
C335 O349 1.268 . S
C336 O342 1.268 . S
C336 O351 1.268 . S
C337 O343 1.268 . S
C337 O347 1.268 . S
C338 O344 1.268 . S
C338 O346 1.268 . S
C339 O345 1.268 . S
C339 O348 1.268 . S
O340 Sc330 2.105 . S
O340 C334 1.268 . S
O341 Sc331 2.105 . S
O341 C335 1.268 . S
O342 Sc332 2.105 . S
O342 C336 1.268 . S
O343 Sc330 2.105 . S
O343 C337 1.268 . S
O344 Sc332 2.105 . S
O344 C338 1.268 . S
O345 Sc331 2.105 . S
O345 C339 1.268 . S
O346 Sc330 2.105 . S
O346 C338 1.268 . S
O347 Sc331 2.105 . S
O347 C337 1.268 . S
O348 Sc332 2.105 . S
O348 C339 1.268 . S
O349 Sc330 2.105 . S
O349 C335 1.268 . S
O350 Sc332 2.105 . S
O350 C334 1.268 . S
O351 Sc331 2.105 . S
O351 C336 1.268 . S
Sc352 O355 2.025 . S
Sc352 O362 2.105 . S
Sc352 O365 2.105 . S
Sc352 O368 2.105 . S
Sc352 O371 2.105 . S
Sc353 O355 2.025 . S
Sc353 O363 2.105 . S
Sc353 O367 2.105 . S
Sc353 O369 2.105 . S
Sc353 O373 2.105 . S
Sc354 O355 2.025 . S
Sc354 O364 2.105 . S
Sc354 O366 2.105 . S
Sc354 O370 2.105 . S
Sc354 O372 2.105 . S
O355 Sc352 2.025 . S
O355 Sc353 2.025 . S
O355 Sc354 2.025 . S
C356 O362 1.268 . S
C356 O372 1.268 . S
C357 O363 1.268 . S
C357 O371 1.268 . S
C358 O364 1.268 . S
C358 O373 1.268 . S
C359 O365 1.268 . S
C359 O369 1.268 . S
C360 O366 1.268 . S
C360 O368 1.268 . S
C361 O367 1.268 . S
C361 O370 1.268 . S
O362 Sc352 2.105 . S
O362 C356 1.268 . S
O363 Sc353 2.105 . S
O363 C357 1.268 . S
O364 Sc354 2.105 . S
O364 C358 1.268 . S
O365 Sc352 2.105 . S
O365 C359 1.268 . S
O366 Sc354 2.105 . S
O366 C360 1.268 . S
O367 Sc353 2.105 . S
O367 C361 1.268 . S
O368 Sc352 2.105 . S
O368 C360 1.268 . S
O369 Sc353 2.105 . S
O369 C359 1.268 . S
O370 Sc354 2.105 . S
O370 C361 1.268 . S
O371 Sc352 2.105 . S
O371 C357 1.268 . S
O372 Sc354 2.105 . S
O372 C356 1.268 . S
O373 Sc353 2.105 . S
O373 C358 1.268 . S
Sc374 O377 2.025 . S
Sc374 O384 2.105 . S
Sc374 O387 2.105 . S
Sc374 O390 2.105 . S
Sc374 O393 2.105 . S
Sc375 O377 2.025 . S
Sc375 O385 2.105 . S
Sc375 O389 2.105 . S
Sc375 O391 2.105 . S
Sc375 O395 2.105 . S
Sc376 O377 2.025 . S
Sc376 O386 2.105 . S
Sc376 O388 2.105 . S
Sc376 O392 2.105 . S
Sc376 O394 2.105 . S
O377 Sc374 2.025 . S
O377 Sc375 2.025 . S
O377 Sc376 2.025 . S
C378 O384 1.268 . S
C378 O394 1.268 . S
C379 O385 1.268 . S
C379 O393 1.268 . S
C380 O386 1.268 . S
C380 O395 1.268 . S
C381 O387 1.268 . S
C381 O391 1.268 . S
C382 O388 1.268 . S
C382 O390 1.268 . S
C383 O389 1.268 . S
C383 O392 1.268 . S
O384 Sc374 2.105 . S
O384 C378 1.268 . S
O385 Sc375 2.105 . S
O385 C379 1.268 . S
O386 Sc376 2.105 . S
O386 C380 1.268 . S
O387 Sc374 2.105 . S
O387 C381 1.268 . S
O388 Sc376 2.105 . S
O388 C382 1.268 . S
O389 Sc375 2.105 . S
O389 C383 1.268 . S
O390 Sc374 2.105 . S
O390 C382 1.268 . S
O391 Sc375 2.105 . S
O391 C381 1.268 . S
O392 Sc376 2.105 . S
O392 C383 1.268 . S
O393 Sc374 2.105 . S
O393 C379 1.268 . S
O394 Sc376 2.105 . S
O394 C378 1.268 . S
O395 Sc375 2.105 . S
O395 C380 1.268 . S
Sc396 O399 2.025 . S
Sc396 O406 2.105 . S
Sc396 O409 2.105 . S
Sc396 O412 2.105 . S
Sc396 O415 2.105 . S
Sc397 O399 2.025 . S
Sc397 O407 2.105 . S
Sc397 O411 2.105 . S
Sc397 O413 2.105 . S
Sc397 O417 2.105 . S
Sc398 O399 2.025 . S
Sc398 O408 2.105 . S
Sc398 O410 2.105 . S
Sc398 O414 2.105 . S
Sc398 O416 2.105 . S
O399 Sc396 2.025 . S
O399 Sc397 2.025 . S
O399 Sc398 2.025 . S
C400 O406 1.268 . S
C400 O416 1.268 . S
C401 O407 1.268 . S
C401 O415 1.268 . S
C402 O408 1.268 . S
C402 O417 1.268 . S
C403 O409 1.268 . S
C403 O413 1.268 . S
C404 O410 1.268 . S
C404 O412 1.268 . S
C405 O411 1.268 . S
C405 O414 1.268 . S
O406 Sc396 2.105 . S
O406 C400 1.268 . S
O407 Sc397 2.105 . S
O407 C401 1.268 . S
O408 Sc398 2.105 . S
O408 C402 1.268 . S
O409 Sc396 2.105 . S
O409 C403 1.268 . S
O410 Sc398 2.105 . S
O410 C404 1.268 . S
O411 Sc397 2.105 . S
O411 C405 1.268 . S
O412 Sc396 2.105 . S
O412 C404 1.268 . S
O413 Sc397 2.105 . S
O413 C403 1.268 . S
O414 Sc398 2.105 . S
O414 C405 1.268 . S
O415 Sc396 2.105 . S
O415 C401 1.268 . S
O416 Sc398 2.105 . S
O416 C400 1.268 . S
O417 Sc397 2.105 . S
O417 C402 1.268 . S
Sc418 O421 2.025 . S
Sc418 O428 2.105 . S
Sc418 O431 2.105 . S
Sc418 O434 2.105 . S
Sc418 O437 2.105 . S
Sc419 O421 2.025 . S
Sc419 O429 2.105 . S
Sc419 O433 2.105 . S
Sc419 O435 2.105 . S
Sc419 O439 2.105 . S
Sc420 O421 2.025 . S
Sc420 O430 2.105 . S
Sc420 O432 2.105 . S
Sc420 O436 2.105 . S
Sc420 O438 2.105 . S
O421 Sc418 2.025 . S
O421 Sc419 2.025 . S
O421 Sc420 2.025 . S
C422 O428 1.268 . S
C422 O438 1.268 . S
C423 O429 1.268 . S
C423 O437 1.268 . S
C424 O430 1.268 . S
C424 O439 1.268 . S
C425 O431 1.268 . S
C425 O435 1.268 . S
C426 O432 1.268 . S
C426 O434 1.268 . S
C427 O433 1.268 . S
C427 O436 1.268 . S
O428 Sc418 2.105 . S
O428 C422 1.268 . S
O429 Sc419 2.105 . S
O429 C423 1.268 . S
O430 Sc420 2.105 . S
O430 C424 1.268 . S
O431 Sc418 2.105 . S
O431 C425 1.268 . S
O432 Sc420 2.105 . S
O432 C426 1.268 . S
O433 Sc419 2.105 . S
O433 C427 1.268 . S
O434 Sc418 2.105 . S
O434 C426 1.268 . S
O435 Sc419 2.105 . S
O435 C425 1.268 . S
O436 Sc420 2.105 . S
O436 C427 1.268 . S
O437 Sc418 2.105 . S
O437 C423 1.268 . S
O438 Sc420 2.105 . S
O438 C422 1.268 . S
O439 Sc419 2.105 . S
O439 C424 1.268 . S
Sc440 O443 2.025 . S
Sc440 O450 2.105 . S
Sc440 O453 2.105 . S
Sc440 O456 2.105 . S
Sc440 O459 2.105 . S
Sc441 O443 2.025 . S
Sc441 O451 2.105 . S
Sc441 O455 2.105 . S
Sc441 O457 2.105 . S
Sc441 O461 2.105 . S
Sc442 O443 2.025 . S
Sc442 O452 2.105 . S
Sc442 O454 2.105 . S
Sc442 O458 2.105 . S
Sc442 O460 2.105 . S
O443 Sc440 2.025 . S
O443 Sc441 2.025 . S
O443 Sc442 2.025 . S
C444 O450 1.268 . S
C444 O460 1.268 . S
C445 O451 1.268 . S
C445 O459 1.268 . S
C446 O452 1.268 . S
C446 O461 1.268 . S
C447 O453 1.268 . S
C447 O457 1.268 . S
C448 O454 1.268 . S
C448 O456 1.268 . S
C449 O455 1.268 . S
C449 O458 1.268 . S
O450 Sc440 2.105 . S
O450 C444 1.268 . S
O451 Sc441 2.105 . S
O451 C445 1.268 . S
O452 Sc442 2.105 . S
O452 C446 1.268 . S
O453 Sc440 2.105 . S
O453 C447 1.268 . S
O454 Sc442 2.105 . S
O454 C448 1.268 . S
O455 Sc441 2.105 . S
O455 C449 1.268 . S
O456 Sc440 2.105 . S
O456 C448 1.268 . S
O457 Sc441 2.105 . S
O457 C447 1.268 . S
O458 Sc442 2.105 . S
O458 C449 1.268 . S
O459 Sc440 2.105 . S
O459 C445 1.268 . S
O460 Sc442 2.105 . S
O460 C444 1.268 . S
O461 Sc441 2.105 . S
O461 C446 1.268 . S
Sc462 O465 2.025 . S
Sc462 O472 2.105 . S
Sc462 O475 2.105 . S
Sc462 O478 2.105 . S
Sc462 O481 2.105 . S
Sc463 O465 2.025 . S
Sc463 O473 2.105 . S
Sc463 O477 2.105 . S
Sc463 O479 2.105 . S
Sc463 O483 2.105 . S
Sc464 O465 2.025 . S
Sc464 O474 2.105 . S
Sc464 O476 2.105 . S
Sc464 O480 2.105 . S
Sc464 O482 2.105 . S
O465 Sc462 2.025 . S
O465 Sc463 2.025 . S
O465 Sc464 2.025 . S
C466 O472 1.268 . S
C466 O482 1.268 . S
C467 O473 1.268 . S
C467 O481 1.268 . S
C468 O474 1.268 . S
C468 O483 1.268 . S
C469 O475 1.268 . S
C469 O479 1.268 . S
C470 O476 1.268 . S
C470 O478 1.268 . S
C471 O477 1.268 . S
C471 O480 1.268 . S
O472 Sc462 2.105 . S
O472 C466 1.268 . S
O473 Sc463 2.105 . S
O473 C467 1.268 . S
O474 Sc464 2.105 . S
O474 C468 1.268 . S
O475 Sc462 2.105 . S
O475 C469 1.268 . S
O476 Sc464 2.105 . S
O476 C470 1.268 . S
O477 Sc463 2.105 . S
O477 C471 1.268 . S
O478 Sc462 2.105 . S
O478 C470 1.268 . S
O479 Sc463 2.105 . S
O479 C469 1.268 . S
O480 Sc464 2.105 . S
O480 C471 1.268 . S
O481 Sc462 2.105 . S
O481 C467 1.268 . S
O482 Sc464 2.105 . S
O482 C466 1.268 . S
O483 Sc463 2.105 . S
O483 C468 1.268 . S
Sc484 O487 2.025 . S
Sc484 O494 2.105 . S
Sc484 O497 2.105 . S
Sc484 O500 2.105 . S
Sc484 O503 2.105 . S
Sc485 O487 2.025 . S
Sc485 O495 2.105 . S
Sc485 O499 2.105 . S
Sc485 O501 2.105 . S
Sc485 O505 2.105 . S
Sc486 O487 2.025 . S
Sc486 O496 2.105 . S
Sc486 O498 2.105 . S
Sc486 O502 2.105 . S
Sc486 O504 2.105 . S
O487 Sc484 2.025 . S
O487 Sc485 2.025 . S
O487 Sc486 2.025 . S
C488 O494 1.268 . S
C488 O504 1.268 . S
C489 O495 1.268 . S
C489 O503 1.268 . S
C490 O496 1.268 . S
C490 O505 1.268 . S
C491 O497 1.268 . S
C491 O501 1.268 . S
C492 O498 1.268 . S
C492 O500 1.268 . S
C493 O499 1.268 . S
C493 O502 1.268 . S
O494 Sc484 2.105 . S
O494 C488 1.268 . S
O495 Sc485 2.105 . S
O495 C489 1.268 . S
O496 Sc486 2.105 . S
O496 C490 1.268 . S
O497 Sc484 2.105 . S
O497 C491 1.268 . S
O498 Sc486 2.105 . S
O498 C492 1.268 . S
O499 Sc485 2.105 . S
O499 C493 1.268 . S
O500 Sc484 2.105 . S
O500 C492 1.268 . S
O501 Sc485 2.105 . S
O501 C491 1.268 . S
O502 Sc486 2.105 . S
O502 C493 1.268 . S
O503 Sc484 2.105 . S
O503 C489 1.268 . S
O504 Sc486 2.105 . S
O504 C488 1.268 . S
O505 Sc485 2.105 . S
O505 C490 1.268 . S
Sc506 O509 2.025 . S
Sc506 O516 2.105 . S
Sc506 O519 2.105 . S
Sc506 O522 2.105 . S
Sc506 O525 2.105 . S
Sc507 O509 2.025 . S
Sc507 O517 2.105 . S
Sc507 O521 2.105 . S
Sc507 O523 2.105 . S
Sc507 O527 2.105 . S
Sc508 O509 2.025 . S
Sc508 O518 2.105 . S
Sc508 O520 2.105 . S
Sc508 O524 2.105 . S
Sc508 O526 2.105 . S
O509 Sc506 2.025 . S
O509 Sc507 2.025 . S
O509 Sc508 2.025 . S
C510 O516 1.268 . S
C510 O526 1.268 . S
C511 O517 1.268 . S
C511 O525 1.268 . S
C512 O518 1.268 . S
C512 O527 1.268 . S
C513 O519 1.268 . S
C513 O523 1.268 . S
C514 O520 1.268 . S
C514 O522 1.268 . S
C515 O521 1.268 . S
C515 O524 1.268 . S
O516 Sc506 2.105 . S
O516 C510 1.268 . S
O517 Sc507 2.105 . S
O517 C511 1.268 . S
O518 Sc508 2.105 . S
O518 C512 1.268 . S
O519 Sc506 2.105 . S
O519 C513 1.268 . S
O520 Sc508 2.105 . S
O520 C514 1.268 . S
O521 Sc507 2.105 . S
O521 C515 1.268 . S
O522 Sc506 2.105 . S
O522 C514 1.268 . S
O523 Sc507 2.105 . S
O523 C513 1.268 . S
O524 Sc508 2.105 . S
O524 C515 1.268 . S
O525 Sc506 2.105 . S
O525 C511 1.268 . S
O526 Sc508 2.105 . S
O526 C510 1.268 . S
O527 Sc507 2.105 . S
O527 C512 1.268 . S
C528 C529 1.388 1_455 S
C528 H532 0.950 . S
C528 C537 1.390 . S
C529 C528 1.388 1_655 S
C529 C531 1.387 . S
H530 C537 0.950 . S
C531 C529 1.387 . S
C531 C533 1.391 . S
C531 H535 0.950 . S
H532 C528 0.950 . S
C533 C531 1.391 . S
C533 C534 1.387 1_655 S
C533 H536 0.951 . S
C534 C533 1.387 1_455 S
C534 C537 1.388 . S
H535 C531 0.950 . S
H536 C533 0.951 . S
C537 C528 1.390 . S
C537 H530 0.950 . S
C537 C534 1.388 . S
C538 C539 1.388 1_565 S
C538 H542 0.950 . S
C538 C547 1.390 . S
C539 C538 1.388 1_545 S
C539 C541 1.387 . S
H540 C547 0.950 . S
C541 C539 1.387 . S
C541 C543 1.390 . S
C541 H545 0.950 . S
H542 C538 0.950 . S
C543 C541 1.390 . S
C543 C544 1.388 . S
C543 H546 0.950 . S
C544 C543 1.388 . S
C544 C547 1.387 1_545 S
H545 C541 0.950 . S
H546 C543 0.950 . S
C547 C538 1.390 . S
C547 H540 0.950 . S
C547 C544 1.387 1_565 S
C548 C549 1.388 1_655 S
C548 H552 0.950 . S
C548 C557 1.390 . S
C549 C548 1.388 1_455 S
C549 C551 1.387 . S
H550 C557 0.950 . S
C551 C549 1.387 . S
C551 C553 1.390 . S
C551 H555 0.950 . S
H552 C548 0.950 . S
C553 C551 1.390 . S
C553 C554 1.388 . S
C553 H556 0.950 . S
C554 C553 1.388 . S
C554 C557 1.387 1_455 S
H555 C551 0.950 . S
H556 C553 0.950 . S
C557 C548 1.390 . S
C557 H550 0.950 . S
C557 C554 1.387 1_655 S
C558 C559 1.388 1_565 S
C558 H562 0.950 . S
C558 C567 1.390 . S
C559 C558 1.388 1_545 S
C559 C561 1.387 . S
H560 C567 0.950 . S
C561 C559 1.387 . S
C561 C563 1.390 . S
C561 H565 0.950 . S
H562 C558 0.950 . S
C563 C561 1.390 . S
C563 C564 1.388 . S
C563 H566 0.950 . S
C564 C563 1.388 . S
C564 C567 1.387 1_545 S
H565 C561 0.950 . S
H566 C563 0.950 . S
C567 C558 1.390 . S
C567 H560 0.950 . S
C567 C564 1.387 1_565 S
C568 C569 1.388 . S
C568 H572 0.950 . S
C568 C577 1.390 . S
C569 C568 1.388 . S
C569 C571 1.387 1_545 S
H570 C577 0.950 . S
C571 C569 1.387 1_565 S
C571 C573 1.390 . S
C571 H575 0.950 . S
H572 C568 0.950 . S
C573 C571 1.390 . S
C573 C574 1.388 1_565 S
C573 H576 0.950 . S
C574 C573 1.388 1_545 S
C574 C577 1.387 . S
H575 C571 0.950 . S
H576 C573 0.950 . S
C577 C568 1.390 . S
C577 H570 0.950 . S
C577 C574 1.387 . S
C578 C579 1.387 1_655 S
C578 H582 0.950 . S
C578 C587 1.390 . S
C579 C578 1.387 1_455 S
C579 C581 1.388 . S
H580 C587 0.950 . S
C581 C579 1.388 . S
C581 C583 1.390 . S
C581 H585 0.950 . S
H582 C578 0.950 . S
C583 C581 1.390 . S
C583 C584 1.387 . S
C583 H586 0.950 . S
C584 C583 1.387 . S
C584 C587 1.388 1_455 S
H585 C581 0.950 . S
H586 C583 0.950 . S
C587 C578 1.390 . S
C587 H580 0.950 . S
C587 C584 1.388 1_655 S
C588 C589 1.388 . S
C588 H592 0.950 . S
C588 C597 1.390 . S
C589 C588 1.388 . S
C589 C591 1.387 1_545 S
H590 C597 0.950 . S
C591 C589 1.387 1_565 S
C591 C593 1.390 . S
C591 H595 0.950 . S
H592 C588 0.950 . S
C593 C591 1.390 . S
C593 C594 1.388 1_565 S
C593 H596 0.950 . S
C594 C593 1.388 1_545 S
C594 C597 1.387 . S
H595 C591 0.950 . S
H596 C593 0.950 . S
C597 C588 1.390 . S
C597 H590 0.950 . S
C597 C594 1.387 . S
C598 C599 1.388 . S
C598 H602 0.950 . S
C598 C607 1.390 . S
C599 C598 1.388 . S
C599 C601 1.387 1_455 S
H600 C607 0.950 . S
C601 C599 1.387 1_655 S
C601 C603 1.390 . S
C601 H605 0.950 . S
H602 C598 0.950 . S
C603 C601 1.390 . S
C603 C604 1.388 1_655 S
C603 H606 0.950 . S
C604 C603 1.388 1_455 S
C604 C607 1.387 . S
H605 C601 0.950 . S
H606 C603 0.950 . S
C607 C598 1.390 . S
C607 H600 0.950 . S
C607 C604 1.387 . S
C608 C609 1.388 1_556 S
C608 H612 0.950 . S
C608 C617 1.390 . S
C609 C608 1.388 1_554 S
C609 C611 1.387 . S
H610 C617 0.950 . S
C611 C609 1.387 . S
C611 C613 1.390 . S
C611 H615 0.950 . S
H612 C608 0.950 . S
C613 C611 1.390 . S
C613 C614 1.388 . S
C613 H616 0.950 . S
C614 C613 1.388 . S
C614 C617 1.387 1_554 S
H615 C611 0.950 . S
H616 C613 0.950 . S
C617 C608 1.390 . S
C617 H610 0.950 . S
C617 C614 1.387 1_556 S
C618 C619 1.388 . S
C618 H622 0.950 . S
C618 C627 1.390 . S
C619 C618 1.388 . S
C619 C621 1.387 1_554 S
H620 C627 0.950 . S
C621 C619 1.387 1_556 S
C621 C623 1.390 . S
C621 H625 0.950 . S
H622 C618 0.950 . S
C623 C621 1.390 . S
C623 C624 1.388 1_556 S
C623 H626 0.950 . S
C624 C623 1.388 1_554 S
C624 C627 1.387 . S
H625 C621 0.950 . S
H626 C623 0.950 . S
C627 C618 1.390 . S
C627 H620 0.950 . S
C627 C624 1.387 . S
C628 C629 1.387 1_556 S
C628 H632 0.950 . S
C628 C637 1.390 . S
C629 C628 1.387 1_554 S
C629 C631 1.387 . S
H630 C637 0.950 . S
C631 C629 1.387 . S
C631 C633 1.390 . S
C631 H635 0.950 . S
H632 C628 0.950 . S
C633 C631 1.390 . S
C633 C634 1.387 . S
C633 H636 0.950 . S
C634 C633 1.387 . S
C634 C637 1.387 1_554 S
H635 C631 0.950 . S
H636 C633 0.950 . S
C637 C628 1.390 . S
C637 H630 0.950 . S
C637 C634 1.387 1_556 S
C638 C639 1.387 . S
C638 H642 0.950 . S
C638 C647 1.390 . S
C639 C638 1.387 . S
C639 C641 1.387 1_554 S
H640 C647 0.950 . S
C641 C639 1.387 1_556 S
C641 C643 1.390 . S
C641 H645 0.950 . S
H642 C638 0.950 . S
C643 C641 1.390 . S
C643 C644 1.387 1_556 S
C643 H646 0.950 . S
C644 C643 1.387 1_554 S
C644 C647 1.387 . S
H645 C641 0.950 . S
H646 C643 0.950 . S
C647 C638 1.390 . S
C647 H640 0.950 . S
C647 C644 1.387 . S
C648 C649 1.387 . S
C648 H652 0.950 . S
C648 C657 1.390 1_556 S
C649 C648 1.387 . S
C649 C651 1.387 . S
H650 C657 0.950 . S
C651 C649 1.387 . S
C651 C653 1.390 1_556 S
C651 H655 0.950 . S
H652 C648 0.950 . S
C653 C651 1.390 1_554 S
C653 C654 1.387 . S
C653 H656 0.950 . S
C654 C653 1.387 . S
C654 C657 1.387 . S
H655 C651 0.950 . S
H656 C653 0.950 . S
C657 C648 1.390 1_554 S
C657 H650 0.950 . S
C657 C654 1.387 . S
C658 C659 1.387 . S
C658 H662 0.950 . S
C658 C667 1.390 1_554 S
C659 C658 1.387 . S
C659 C661 1.387 . S
H660 C667 0.950 . S
C661 C659 1.387 . S
C661 C663 1.390 1_554 S
C661 H665 0.950 . S
H662 C658 0.950 . S
C663 C661 1.390 1_556 S
C663 C664 1.387 . S
C663 H666 0.950 . S
C664 C663 1.387 . S
C664 C667 1.387 . S
H665 C661 0.950 . S
H666 C663 0.950 . S
C667 C658 1.390 1_556 S
C667 H660 0.950 . S
C667 C664 1.387 . S
C668 C669 1.387 . S
C668 H672 0.950 . S
C668 C677 1.390 1_556 S
C669 C668 1.387 . S
C669 C671 1.387 . S
H670 C677 0.950 . S
C671 C669 1.387 . S
C671 C673 1.390 1_556 S
C671 H675 0.950 . S
H672 C668 0.950 . S
C673 C671 1.390 1_554 S
C673 C674 1.387 . S
C673 H676 0.950 . S
C674 C673 1.387 . S
C674 C677 1.387 . S
H675 C671 0.950 . S
H676 C673 0.950 . S
C677 C668 1.390 1_554 S
C677 H670 0.950 . S
C677 C674 1.387 . S
C678 C679 1.387 . S
C678 H682 0.950 . S
C678 C687 1.390 1_556 S
C679 C678 1.387 . S
C679 C681 1.387 . S
H680 C687 0.950 . S
C681 C679 1.387 . S
C681 C683 1.390 1_556 S
C681 H685 0.950 . S
H682 C678 0.950 . S
C683 C681 1.390 1_554 S
C683 C684 1.387 . S
C683 H686 0.950 . S
C684 C683 1.387 . S
C684 C687 1.387 . S
H685 C681 0.950 . S
H686 C683 0.950 . S
C687 C678 1.390 1_554 S
C687 H680 0.950 . S
C687 C684 1.387 . S
C688 C689 1.387 . S
C688 H692 0.950 . S
C688 C697 1.390 1_655 S
C689 C688 1.387 . S
C689 C691 1.387 . S
H690 C697 0.950 . S
C691 C689 1.387 . S
C691 C693 1.390 1_655 S
C691 H695 0.950 . S
H692 C688 0.950 . S
C693 C691 1.390 1_455 S
C693 C694 1.387 . S
C693 H696 0.950 . S
C694 C693 1.387 . S
C694 C697 1.387 . S
H695 C691 0.950 . S
H696 C693 0.950 . S
C697 C688 1.390 1_455 S
C697 H690 0.950 . S
C697 C694 1.387 . S
C698 C699 1.387 . S
C698 H702 0.950 . S
C698 C707 1.390 1_545 S
C699 C698 1.387 . S
C699 C701 1.387 . S
H700 C707 0.950 . S
C701 C699 1.387 . S
C701 C703 1.390 1_545 S
C701 H705 0.950 . S
H702 C698 0.950 . S
C703 C701 1.390 1_565 S
C703 C704 1.387 . S
C703 H706 0.950 . S
C704 C703 1.387 . S
C704 C707 1.387 . S
H705 C701 0.950 . S
H706 C703 0.950 . S
C707 C698 1.390 1_565 S
C707 H700 0.950 . S
C707 C704 1.387 . S
C708 C709 1.387 . S
C708 H712 0.950 . S
C708 C717 1.390 1_655 S
C709 C708 1.387 . S
C709 C711 1.387 . S
H710 C717 0.950 . S
C711 C709 1.387 . S
C711 C713 1.390 1_655 S
C711 H715 0.950 . S
H712 C708 0.950 . S
C713 C711 1.390 1_455 S
C713 C714 1.387 . S
C713 H716 0.950 . S
C714 C713 1.387 . S
C714 C717 1.387 . S
H715 C711 0.950 . S
H716 C713 0.950 . S
C717 C708 1.390 1_455 S
C717 H710 0.950 . S
C717 C714 1.387 . S
C718 C719 1.387 . S
C718 H722 0.950 . S
C718 C727 1.390 1_565 S
C719 C718 1.387 . S
C719 C721 1.387 . S
H720 C727 0.950 . S
C721 C719 1.387 . S
C721 C723 1.390 1_565 S
C721 H725 0.950 . S
H722 C718 0.950 . S
C723 C721 1.390 1_545 S
C723 C724 1.387 . S
C723 H726 0.950 . S
C724 C723 1.387 . S
C724 C727 1.387 . S
H725 C721 0.950 . S
H726 C723 0.950 . S
C727 C718 1.390 1_545 S
C727 H720 0.950 . S
C727 C724 1.387 . S
C728 C729 1.387 . S
C728 H732 0.950 . S
C728 C737 1.390 1_565 S
C729 C728 1.387 . S
C729 C731 1.387 . S
H730 C737 0.950 . S
C731 C729 1.387 . S
C731 C733 1.390 1_565 S
C731 H735 0.950 . S
H732 C728 0.950 . S
C733 C731 1.390 1_545 S
C733 C734 1.387 . S
C733 H736 0.950 . S
C734 C733 1.387 . S
C734 C737 1.387 . S
H735 C731 0.950 . S
H736 C733 0.950 . S
C737 C728 1.390 1_545 S
C737 H730 0.950 . S
C737 C734 1.387 . S
C738 C739 1.387 . S
C738 H742 0.950 . S
C738 C747 1.390 1_455 S
C739 C738 1.387 . S
C739 C741 1.387 . S
H740 C747 0.950 . S
C741 C739 1.387 . S
C741 C743 1.390 1_455 S
C741 H745 0.950 . S
H742 C738 0.950 . S
C743 C741 1.390 1_655 S
C743 C744 1.387 . S
C743 H746 0.950 . S
C744 C743 1.387 . S
C744 C747 1.387 . S
H745 C741 0.950 . S
H746 C743 0.950 . S
C747 C738 1.390 1_655 S
C747 H740 0.950 . S
C747 C744 1.387 . S
C748 C749 1.387 . S
C748 H752 0.950 . S
C748 C757 1.390 1_565 S
C749 C748 1.387 . S
C749 C751 1.387 . S
H750 C757 0.950 . S
C751 C749 1.387 . S
C751 C753 1.390 1_565 S
C751 H755 0.950 . S
H752 C748 0.950 . S
C753 C751 1.390 1_545 S
C753 C754 1.387 . S
C753 H756 0.950 . S
C754 C753 1.387 . S
C754 C757 1.387 . S
H755 C751 0.950 . S
H756 C753 0.950 . S
C757 C748 1.390 1_545 S
C757 H750 0.950 . S
C757 C754 1.387 . S
C758 C759 1.387 . S
C758 H762 0.950 . S
C758 C767 1.390 1_455 S
C759 C758 1.387 . S
C759 C761 1.387 . S
H760 C767 0.950 . S
C761 C759 1.387 . S
C761 C763 1.390 1_455 S
C761 H765 0.950 . S
H762 C758 0.950 . S
C763 C761 1.390 1_655 S
C763 C764 1.387 . S
C763 H766 0.950 . S
C764 C763 1.387 . S
C764 C767 1.387 . S
H765 C761 0.950 . S
H766 C763 0.950 . S
C767 C758 1.390 1_655 S
C767 H760 0.950 . S
C767 C764 1.387 . S
C768 C769 1.387 . S
C768 H772 0.950 . S
C768 C777 1.390 . S
C769 C768 1.387 . S
C769 C771 1.387 . S
H770 C777 0.950 . S
C771 C769 1.387 . S
C771 C773 1.390 . S
C771 H775 0.950 . S
H772 C768 0.950 . S
C773 C771 1.390 . S
C773 C774 1.387 . S
C773 H776 0.950 . S
C774 C773 1.387 . S
C774 C777 1.387 . S
H775 C771 0.950 . S
H776 C773 0.950 . S
C777 C768 1.390 . S
C777 H770 0.950 . S
C777 C774 1.387 . S
C778 C779 1.387 . S
C778 H782 0.950 . S
C778 C787 1.390 . S
C779 C778 1.387 . S
C779 C781 1.387 . S
H780 C787 0.950 . S
C781 C779 1.387 . S
C781 C783 1.390 . S
C781 H785 0.950 . S
H782 C778 0.950 . S
C783 C781 1.390 . S
C783 C784 1.387 . S
C783 H786 0.950 . S
C784 C783 1.387 . S
C784 C787 1.387 . S
H785 C781 0.950 . S
H786 C783 0.950 . S
C787 C778 1.390 . S
C787 H780 0.950 . S
C787 C784 1.387 . S
C788 C789 1.387 . S
C788 H792 0.950 . S
C788 C797 1.390 . S
C789 C788 1.387 . S
C789 C791 1.387 . S
H790 C797 0.950 . S
C791 C789 1.387 . S
C791 C793 1.390 . S
C791 H795 0.950 . S
H792 C788 0.950 . S
C793 C791 1.390 . S
C793 C794 1.387 . S
C793 H796 0.950 . S
C794 C793 1.387 . S
C794 C797 1.387 . S
H795 C791 0.950 . S
H796 C793 0.950 . S
C797 C788 1.390 . S
C797 H790 0.950 . S
C797 C794 1.387 . S
C798 C799 1.387 . S
C798 H802 0.950 . S
C798 C807 1.390 . S
C799 C798 1.387 . S
C799 C801 1.387 . S
H800 C807 0.950 . S
C801 C799 1.387 . S
C801 C803 1.390 . S
C801 H805 0.950 . S
H802 C798 0.950 . S
C803 C801 1.390 . S
C803 C804 1.387 . S
C803 H806 0.950 . S
C804 C803 1.387 . S
C804 C807 1.387 . S
H805 C801 0.950 . S
H806 C803 0.950 . S
C807 C798 1.390 . S
C807 H800 0.950 . S
C807 C804 1.387 . S
C808 C809 1.387 . S
C808 H812 0.950 . S
C808 C817 1.390 . S
C809 C808 1.387 . S
C809 C811 1.387 . S
H810 C817 0.950 . S
C811 C809 1.387 . S
C811 C813 1.390 . S
C811 H815 0.950 . S
H812 C808 0.950 . S
C813 C811 1.390 . S
C813 C814 1.387 . S
C813 H816 0.950 . S
C814 C813 1.387 . S
C814 C817 1.387 . S
H815 C811 0.950 . S
H816 C813 0.950 . S
C817 C808 1.390 . S
C817 H810 0.950 . S
C817 C814 1.387 . S
C818 C819 1.387 . S
C818 H822 0.950 . S
C818 C827 1.390 . S
C819 C818 1.387 . S
C819 C821 1.387 . S
H820 C827 0.950 . S
C821 C819 1.387 . S
C821 C823 1.390 . S
C821 H825 0.950 . S
H822 C818 0.950 . S
C823 C821 1.390 . S
C823 C824 1.387 . S
C823 H826 0.950 . S
C824 C823 1.387 . S
C824 C827 1.387 . S
H825 C821 0.950 . S
H826 C823 0.950 . S
C827 C818 1.390 . S
C827 H820 0.950 . S
C827 C824 1.387 . S
C828 C829 1.387 . S
C828 H832 0.950 . S
C828 C837 1.390 . S
C829 C828 1.387 . S
C829 C831 1.387 . S
H830 C837 0.950 . S
C831 C829 1.387 . S
C831 C833 1.390 . S
C831 H835 0.950 . S
H832 C828 0.950 . S
C833 C831 1.390 . S
C833 C834 1.387 . S
C833 H836 0.950 . S
C834 C833 1.387 . S
C834 C837 1.387 . S
H835 C831 0.950 . S
H836 C833 0.950 . S
C837 C828 1.390 . S
C837 H830 0.950 . S
C837 C834 1.387 . S
C838 C839 1.387 . S
C838 H842 0.950 . S
C838 C847 1.390 . S
C839 C838 1.387 . S
C839 C841 1.387 . S
H840 C847 0.950 . S
C841 C839 1.387 . S
C841 C843 1.390 . S
C841 H845 0.950 . S
H842 C838 0.950 . S
C843 C841 1.390 . S
C843 C844 1.387 . S
C843 H846 0.950 . S
C844 C843 1.387 . S
C844 C847 1.387 . S
H845 C841 0.950 . S
H846 C843 0.950 . S
C847 C838 1.390 . S
C847 H840 0.950 . S
C847 C844 1.387 . S
C848 C849 1.387 . S
C848 H852 0.950 . S
C848 C857 1.390 . S
C849 C848 1.387 . S
C849 C851 1.387 . S
H850 C857 0.950 . S
C851 C849 1.387 . S
C851 C853 1.390 . S
C851 H855 0.950 . S
H852 C848 0.950 . S
C853 C851 1.390 . S
C853 C854 1.387 . S
C853 H856 0.950 . S
C854 C853 1.387 . S
C854 C857 1.387 . S
H855 C851 0.950 . S
H856 C853 0.950 . S
C857 C848 1.390 . S
C857 H850 0.950 . S
C857 C854 1.387 . S
C858 C859 1.387 . S
C858 H862 0.950 . S
C858 C867 1.390 . S
C859 C858 1.387 . S
C859 C861 1.387 . S
H860 C867 0.950 . S
C861 C859 1.387 . S
C861 C863 1.390 . S
C861 H865 0.950 . S
H862 C858 0.950 . S
C863 C861 1.390 . S
C863 C864 1.387 . S
C863 H866 0.950 . S
C864 C863 1.387 . S
C864 C867 1.387 . S
H865 C861 0.950 . S
H866 C863 0.950 . S
C867 C858 1.390 . S
C867 H860 0.950 . S
C867 C864 1.387 . S
C868 C869 1.387 . S
C868 H872 0.950 . S
C868 C877 1.390 . S
C869 C868 1.387 . S
C869 C871 1.387 . S
H870 C877 0.950 . S
C871 C869 1.387 . S
C871 C873 1.390 . S
C871 H875 0.950 . S
H872 C868 0.950 . S
C873 C871 1.390 . S
C873 C874 1.387 . S
C873 H876 0.950 . S
C874 C873 1.387 . S
C874 C877 1.387 . S
H875 C871 0.950 . S
H876 C873 0.950 . S
C877 C868 1.390 . S
C877 H870 0.950 . S
C877 C874 1.387 . S
C878 C879 1.387 . S
C878 H882 0.950 . S
C878 C887 1.390 . S
C879 C878 1.387 . S
C879 C881 1.387 . S
H880 C887 0.950 . S
C881 C879 1.387 . S
C881 C883 1.390 . S
C881 H885 0.950 . S
H882 C878 0.950 . S
C883 C881 1.390 . S
C883 C884 1.387 . S
C883 H886 0.950 . S
C884 C883 1.387 . S
C884 C887 1.387 . S
H885 C881 0.950 . S
H886 C883 0.950 . S
C887 C878 1.390 . S
C887 H880 0.950 . S
C887 C884 1.387 . S
C888 C889 1.387 . S
C888 H892 0.950 . S
C888 C897 1.390 . S
C889 C888 1.387 . S
C889 C891 1.387 . S
H890 C897 0.950 . S
C891 C889 1.387 . S
C891 C893 1.390 . S
C891 H895 0.950 . S
H892 C888 0.950 . S
C893 C891 1.390 . S
C893 C894 1.387 . S
C893 H896 0.950 . S
C894 C893 1.387 . S
C894 C897 1.387 . S
H895 C891 0.950 . S
H896 C893 0.950 . S
C897 C888 1.390 . S
C897 H890 0.950 . S
C897 C894 1.387 . S
C898 C899 1.387 . S
C898 H902 0.950 . S
C898 C907 1.390 . S
C899 C898 1.387 . S
C899 C901 1.387 . S
H900 C907 0.950 . S
C901 C899 1.387 . S
C901 C903 1.390 . S
C901 H905 0.950 . S
H902 C898 0.950 . S
C903 C901 1.390 . S
C903 C904 1.387 . S
C903 H906 0.950 . S
C904 C903 1.387 . S
C904 C907 1.387 . S
H905 C901 0.950 . S
H906 C903 0.950 . S
C907 C898 1.390 . S
C907 H900 0.950 . S
C907 C904 1.387 . S
C908 C909 1.387 . S
C908 H912 0.950 . S
C908 C917 1.390 . S
C909 C908 1.387 . S
C909 C911 1.387 . S
H910 C917 0.950 . S
C911 C909 1.387 . S
C911 C913 1.390 . S
C911 H915 0.950 . S
H912 C908 0.950 . S
C913 C911 1.390 . S
C913 C914 1.387 . S
C913 H916 0.950 . S
C914 C913 1.387 . S
C914 C917 1.387 . S
H915 C911 0.950 . S
H916 C913 0.950 . S
C917 C908 1.390 . S
C917 H910 0.950 . S
C917 C914 1.387 . S
C918 C919 1.387 . S
C918 H922 0.950 . S
C918 C927 1.390 . S
C919 C918 1.387 . S
C919 C921 1.387 . S
H920 C927 0.950 . S
C921 C919 1.387 . S
C921 C923 1.390 . S
C921 H925 0.950 . S
H922 C918 0.950 . S
C923 C921 1.390 . S
C923 C924 1.387 . S
C923 H926 0.950 . S
C924 C923 1.387 . S
C924 C927 1.387 . S
H925 C921 0.950 . S
H926 C923 0.950 . S
C927 C918 1.390 . S
C927 H920 0.950 . S
C927 C924 1.387 . S
C928 C929 1.387 . S
C928 H932 0.950 . S
C928 C937 1.390 . S
C929 C928 1.387 . S
C929 C931 1.387 . S
H930 C937 0.950 . S
C931 C929 1.387 . S
C931 C933 1.390 . S
C931 H935 0.950 . S
H932 C928 0.950 . S
C933 C931 1.390 . S
C933 C934 1.387 . S
C933 H936 0.950 . S
C934 C933 1.387 . S
C934 C937 1.387 . S
H935 C931 0.950 . S
H936 C933 0.950 . S
C937 C928 1.390 . S
C937 H930 0.950 . S
C937 C934 1.387 . S
C938 C939 1.387 . S
C938 H942 0.950 . S
C938 C947 1.390 . S
C939 C938 1.387 . S
C939 C941 1.387 . S
H940 C947 0.950 . S
C941 C939 1.387 . S
C941 C943 1.390 . S
C941 H945 0.950 . S
H942 C938 0.950 . S
C943 C941 1.390 . S
C943 C944 1.387 . S
C943 H946 0.950 . S
C944 C943 1.387 . S
C944 C947 1.387 . S
H945 C941 0.950 . S
H946 C943 0.950 . S
C947 C938 1.390 . S
C947 H940 0.950 . S
C947 C944 1.387 . S
C948 C949 1.387 . S
C948 H952 0.950 . S
C948 C957 1.390 . S
C949 C948 1.387 . S
C949 C951 1.387 . S
H950 C957 0.950 . S
C951 C949 1.387 . S
C951 C953 1.390 . S
C951 H955 0.950 . S
H952 C948 0.950 . S
C953 C951 1.390 . S
C953 C954 1.387 . S
C953 H956 0.950 . S
C954 C953 1.387 . S
C954 C957 1.387 . S
H955 C951 0.950 . S
H956 C953 0.950 . S
C957 C948 1.390 . S
C957 H950 0.950 . S
C957 C954 1.387 . S
C958 C959 1.387 . S
C958 H962 0.950 . S
C958 C967 1.390 . S
C959 C958 1.387 . S
C959 C961 1.387 . S
H960 C967 0.950 . S
C961 C959 1.387 . S
C961 C963 1.390 . S
C961 H965 0.950 . S
H962 C958 0.950 . S
C963 C961 1.390 . S
C963 C964 1.387 . S
C963 H966 0.950 . S
C964 C963 1.387 . S
C964 C967 1.387 . S
H965 C961 0.950 . S
H966 C963 0.950 . S
C967 C958 1.390 . S
C967 H960 0.950 . S
C967 C964 1.387 . S
C968 C969 1.387 . S
C968 H972 0.950 . S
C968 C977 1.390 . S
C969 C968 1.387 . S
C969 C971 1.387 . S
H970 C977 0.950 . S
C971 C969 1.387 . S
C971 C973 1.390 . S
C971 H975 0.950 . S
H972 C968 0.950 . S
C973 C971 1.390 . S
C973 C974 1.387 . S
C973 H976 0.950 . S
C974 C973 1.387 . S
C974 C977 1.387 . S
H975 C971 0.950 . S
H976 C973 0.950 . S
C977 C968 1.390 . S
C977 H970 0.950 . S
C977 C974 1.387 . S
C978 C979 1.387 . S
C978 H982 0.950 . S
C978 C987 1.390 . S
C979 C978 1.387 . S
C979 C981 1.387 . S
H980 C987 0.950 . S
C981 C979 1.387 . S
C981 C983 1.390 . S
C981 H985 0.950 . S
H982 C978 0.950 . S
C983 C981 1.390 . S
C983 C984 1.387 . S
C983 H986 0.950 . S
C984 C983 1.387 . S
C984 C987 1.387 . S
H985 C981 0.950 . S
H986 C983 0.950 . S
C987 C978 1.390 . S
C987 H980 0.950 . S
C987 C984 1.387 . S
C988 C989 1.387 . S
C988 H992 0.950 . S
C988 C997 1.390 . S
C989 C988 1.387 . S
C989 C991 1.387 . S
H990 C997 0.950 . S
C991 C989 1.387 . S
C991 C993 1.390 . S
C991 H995 0.950 . S
H992 C988 0.950 . S
C993 C991 1.390 . S
C993 C994 1.387 . S
C993 H996 0.950 . S
C994 C993 1.387 . S
C994 C997 1.387 . S
H995 C991 0.950 . S
H996 C993 0.950 . S
C997 C988 1.390 . S
C997 H990 0.950 . S
C997 C994 1.387 . S
C998 C999 1.387 . S
C998 H1002 0.950 . S
C998 C1007 1.390 . S
C999 C998 1.387 . S
C999 C1001 1.387 . S
H1000 C1007 0.950 . S
C1001 C999 1.387 . S
C1001 C1003 1.390 . S
C1001 H1005 0.950 . S
H1002 C998 0.950 . S
C1003 C1001 1.390 . S
C1003 C1004 1.387 . S
C1003 H1006 0.950 . S
C1004 C1003 1.387 . S
C1004 C1007 1.387 . S
H1005 C1001 0.950 . S
H1006 C1003 0.950 . S
C1007 C998 1.390 . S
C1007 H1000 0.950 . S
C1007 C1004 1.387 . S
C1008 C1009 1.387 . S
C1008 H1012 0.950 . S
C1008 C1017 1.390 . S
C1009 C1008 1.387 . S
C1009 C1011 1.387 . S
H1010 C1017 0.950 . S
C1011 C1009 1.387 . S
C1011 C1013 1.390 . S
C1011 H1015 0.950 . S
H1012 C1008 0.950 . S
C1013 C1011 1.390 . S
C1013 C1014 1.387 . S
C1013 H1016 0.950 . S
C1014 C1013 1.387 . S
C1014 C1017 1.387 . S
H1015 C1011 0.950 . S
H1016 C1013 0.950 . S
C1017 C1008 1.390 . S
C1017 H1010 0.950 . S
C1017 C1014 1.387 . S
C1018 C1019 1.387 . S
C1018 H1022 0.950 . S
C1018 C1027 1.390 . S
C1019 C1018 1.387 . S
C1019 C1021 1.387 . S
H1020 C1027 0.950 . S
C1021 C1019 1.387 . S
C1021 C1023 1.390 . S
C1021 H1025 0.950 . S
H1022 C1018 0.950 . S
C1023 C1021 1.390 . S
C1023 C1024 1.387 . S
C1023 H1026 0.950 . S
C1024 C1023 1.387 . S
C1024 C1027 1.387 . S
H1025 C1021 0.950 . S
H1026 C1023 0.950 . S
C1027 C1018 1.390 . S
C1027 H1020 0.950 . S
C1027 C1024 1.387 . S
C1028 C1029 1.387 . S
C1028 H1032 0.950 . S
C1028 C1037 1.390 . S
C1029 C1028 1.387 . S
C1029 C1031 1.387 . S
H1030 C1037 0.950 . S
C1031 C1029 1.387 . S
C1031 C1033 1.390 . S
C1031 H1035 0.950 . S
H1032 C1028 0.950 . S
C1033 C1031 1.390 . S
C1033 C1034 1.387 . S
C1033 H1036 0.950 . S
C1034 C1033 1.387 . S
C1034 C1037 1.387 . S
H1035 C1031 0.950 . S
H1036 C1033 0.950 . S
C1037 C1028 1.390 . S
C1037 H1030 0.950 . S
C1037 C1034 1.387 . S
C1038 C1039 1.387 . S
C1038 H1042 0.950 . S
C1038 C1047 1.390 . S
C1039 C1038 1.387 . S
C1039 C1041 1.387 . S
H1040 C1047 0.950 . S
C1041 C1039 1.387 . S
C1041 C1043 1.390 . S
C1041 H1045 0.950 . S
H1042 C1038 0.950 . S
C1043 C1041 1.390 . S
C1043 C1044 1.387 . S
C1043 H1046 0.950 . S
C1044 C1043 1.387 . S
C1044 C1047 1.387 . S
H1045 C1041 0.950 . S
H1046 C1043 0.950 . S
C1047 C1038 1.390 . S
C1047 H1040 0.950 . S
C1047 C1044 1.387 . S
C1048 C1049 1.387 . S
C1048 H1052 0.950 . S
C1048 C1057 1.390 . S
C1049 C1048 1.387 . S
C1049 C1051 1.387 . S
H1050 C1057 0.950 . S
C1051 C1049 1.387 . S
C1051 C1053 1.390 . S
C1051 H1055 0.950 . S
H1052 C1048 0.950 . S
C1053 C1051 1.390 . S
C1053 C1054 1.387 . S
C1053 H1056 0.950 . S
C1054 C1053 1.387 . S
C1054 C1057 1.387 . S
H1055 C1051 0.950 . S
H1056 C1053 0.950 . S
C1057 C1048 1.390 . S
C1057 H1050 0.950 . S
C1057 C1054 1.387 . S
C1058 C1059 1.387 . S
C1058 H1062 0.950 . S
C1058 C1067 1.390 . S
C1059 C1058 1.387 . S
C1059 C1061 1.387 . S
H1060 C1067 0.950 . S
C1061 C1059 1.387 . S
C1061 C1063 1.390 . S
C1061 H1065 0.950 . S
H1062 C1058 0.950 . S
C1063 C1061 1.390 . S
C1063 C1064 1.387 . S
C1063 H1066 0.950 . S
C1064 C1063 1.387 . S
C1064 C1067 1.387 . S
H1065 C1061 0.950 . S
H1066 C1063 0.950 . S
C1067 C1058 1.390 . S
C1067 H1060 0.950 . S
C1067 C1064 1.387 . S
C1068 C1069 1.387 . S
C1068 H1072 0.950 . S
C1068 C1077 1.390 . S
C1069 C1068 1.387 . S
C1069 C1071 1.387 . S
H1070 C1077 0.950 . S
C1071 C1069 1.387 . S
C1071 C1073 1.390 . S
C1071 H1075 0.950 . S
H1072 C1068 0.950 . S
C1073 C1071 1.390 . S
C1073 C1074 1.387 . S
C1073 H1076 0.950 . S
C1074 C1073 1.387 . S
C1074 C1077 1.387 . S
H1075 C1071 0.950 . S
H1076 C1073 0.950 . S
C1077 C1068 1.390 . S
C1077 H1070 0.950 . S
C1077 C1074 1.387 . S
C1078 C1079 1.387 . S
C1078 H1082 0.950 . S
C1078 C1087 1.390 . S
C1079 C1078 1.387 . S
C1079 C1081 1.387 . S
H1080 C1087 0.950 . S
C1081 C1079 1.387 . S
C1081 C1083 1.390 . S
C1081 H1085 0.950 . S
H1082 C1078 0.950 . S
C1083 C1081 1.390 . S
C1083 C1084 1.387 . S
C1083 H1086 0.950 . S
C1084 C1083 1.387 . S
C1084 C1087 1.387 . S
H1085 C1081 0.950 . S
H1086 C1083 0.950 . S
C1087 C1078 1.390 . S
C1087 H1080 0.950 . S
C1087 C1084 1.387 . S
C1088 C1089 1.387 . S
C1088 H1092 0.950 . S
C1088 C1097 1.390 . S
C1089 C1088 1.387 . S
C1089 C1091 1.387 . S
H1090 C1097 0.950 . S
C1091 C1089 1.387 . S
C1091 C1093 1.390 . S
C1091 H1095 0.950 . S
H1092 C1088 0.950 . S
C1093 C1091 1.390 . S
C1093 C1094 1.387 . S
C1093 H1096 0.950 . S
C1094 C1093 1.387 . S
C1094 C1097 1.387 . S
H1095 C1091 0.950 . S
H1096 C1093 0.950 . S
C1097 C1088 1.390 . S
C1097 H1090 0.950 . S
C1097 C1094 1.387 . S
C1098 C1099 1.387 . S
C1098 H1102 0.950 . S
C1098 C1107 1.390 . S
C1099 C1098 1.387 . S
C1099 C1101 1.387 . S
H1100 C1107 0.950 . S
C1101 C1099 1.387 . S
C1101 C1103 1.390 . S
C1101 H1105 0.950 . S
H1102 C1098 0.950 . S
C1103 C1101 1.390 . S
C1103 C1104 1.387 . S
C1103 H1106 0.950 . S
C1104 C1103 1.387 . S
C1104 C1107 1.387 . S
H1105 C1101 0.950 . S
H1106 C1103 0.950 . S
C1107 C1098 1.390 . S
C1107 H1100 0.950 . S
C1107 C1104 1.387 . S
C1108 C1109 1.387 . S
C1108 H1112 0.950 . S
C1108 C1117 1.390 . S
C1109 C1108 1.387 . S
C1109 C1111 1.387 . S
H1110 C1117 0.950 . S
C1111 C1109 1.387 . S
C1111 C1113 1.390 . S
C1111 H1115 0.950 . S
H1112 C1108 0.950 . S
C1113 C1111 1.390 . S
C1113 C1114 1.387 . S
C1113 H1116 0.950 . S
C1114 C1113 1.387 . S
C1114 C1117 1.387 . S
H1115 C1111 0.950 . S
H1116 C1113 0.950 . S
C1117 C1108 1.390 . S
C1117 H1110 0.950 . S
C1117 C1114 1.387 . S
C1118 C1119 1.387 . S
C1118 H1122 0.950 . S
C1118 C1127 1.390 . S
C1119 C1118 1.387 . S
C1119 C1121 1.387 . S
H1120 C1127 0.950 . S
C1121 C1119 1.387 . S
C1121 C1123 1.390 . S
C1121 H1125 0.950 . S
H1122 C1118 0.950 . S
C1123 C1121 1.390 . S
C1123 C1124 1.387 . S
C1123 H1126 0.950 . S
C1124 C1123 1.387 . S
C1124 C1127 1.387 . S
H1125 C1121 0.950 . S
H1126 C1123 0.950 . S
C1127 C1118 1.390 . S
C1127 H1120 0.950 . S
C1127 C1124 1.387 . S
C1128 C1129 1.387 . S
C1128 H1132 0.950 . S
C1128 C1137 1.390 . S
C1129 C1128 1.387 . S
C1129 C1131 1.387 . S
H1130 C1137 0.950 . S
C1131 C1129 1.387 . S
C1131 C1133 1.390 . S
C1131 H1135 0.950 . S
H1132 C1128 0.950 . S
C1133 C1131 1.390 . S
C1133 C1134 1.387 . S
C1133 H1136 0.950 . S
C1134 C1133 1.387 . S
C1134 C1137 1.387 . S
H1135 C1131 0.950 . S
H1136 C1133 0.950 . S
C1137 C1128 1.390 . S
C1137 H1130 0.950 . S
C1137 C1134 1.387 . S
C1138 C1139 1.387 . S
C1138 H1142 0.950 . S
C1138 C1147 1.390 . S
C1139 C1138 1.387 . S
C1139 C1141 1.387 . S
H1140 C1147 0.950 . S
C1141 C1139 1.387 . S
C1141 C1143 1.390 . S
C1141 H1145 0.950 . S
H1142 C1138 0.950 . S
C1143 C1141 1.390 . S
C1143 C1144 1.387 . S
C1143 H1146 0.950 . S
C1144 C1143 1.387 . S
C1144 C1147 1.387 . S
H1145 C1141 0.950 . S
H1146 C1143 0.950 . S
C1147 C1138 1.390 . S
C1147 H1140 0.950 . S
C1147 C1144 1.387 . S
C1148 C1149 1.387 . S
C1148 H1152 0.950 . S
C1148 C1157 1.390 . S
C1149 C1148 1.387 . S
C1149 C1151 1.387 . S
H1150 C1157 0.950 . S
C1151 C1149 1.387 . S
C1151 C1153 1.390 . S
C1151 H1155 0.950 . S
H1152 C1148 0.950 . S
C1153 C1151 1.390 . S
C1153 C1154 1.387 . S
C1153 H1156 0.950 . S
C1154 C1153 1.387 . S
C1154 C1157 1.387 . S
H1155 C1151 0.950 . S
H1156 C1153 0.950 . S
C1157 C1148 1.390 . S
C1157 H1150 0.950 . S
C1157 C1154 1.387 . S
C1158 C1159 1.387 . S
C1158 H1162 0.950 . S
C1158 C1167 1.390 . S
C1159 C1158 1.387 . S
C1159 C1161 1.387 . S
H1160 C1167 0.950 . S
C1161 C1159 1.387 . S
C1161 C1163 1.390 . S
C1161 H1165 0.950 . S
H1162 C1158 0.950 . S
C1163 C1161 1.390 . S
C1163 C1164 1.387 . S
C1163 H1166 0.950 . S
C1164 C1163 1.387 . S
C1164 C1167 1.387 . S
H1165 C1161 0.950 . S
H1166 C1163 0.950 . S
C1167 C1158 1.390 . S
C1167 H1160 0.950 . S
C1167 C1164 1.387 . S
C1168 C1169 1.387 . S
C1168 H1172 0.950 . S
C1168 C1177 1.390 . S
C1169 C1168 1.387 . S
C1169 C1171 1.387 . S
H1170 C1177 0.950 . S
C1171 C1169 1.387 . S
C1171 C1173 1.390 . S
C1171 H1175 0.950 . S
H1172 C1168 0.950 . S
C1173 C1171 1.390 . S
C1173 C1174 1.387 . S
C1173 H1176 0.950 . S
C1174 C1173 1.387 . S
C1174 C1177 1.387 . S
H1175 C1171 0.950 . S
H1176 C1173 0.950 . S
C1177 C1168 1.390 . S
C1177 H1170 0.950 . S
C1177 C1174 1.387 . S
C1178 C1179 1.387 . S
C1178 H1182 0.950 . S
C1178 C1187 1.390 . S
C1179 C1178 1.387 . S
C1179 C1181 1.387 . S
H1180 C1187 0.950 . S
C1181 C1179 1.387 . S
C1181 C1183 1.390 . S
C1181 H1185 0.950 . S
H1182 C1178 0.950 . S
C1183 C1181 1.390 . S
C1183 C1184 1.387 . S
C1183 H1186 0.950 . S
C1184 C1183 1.387 . S
C1184 C1187 1.387 . S
H1185 C1181 0.950 . S
H1186 C1183 0.950 . S
C1187 C1178 1.390 . S
C1187 H1180 0.950 . S
C1187 C1184 1.387 . S
C1188 C1189 1.387 . S
C1188 H1192 0.950 . S
C1188 C1197 1.390 . S
C1189 C1188 1.387 . S
C1189 C1191 1.387 . S
H1190 C1197 0.950 . S
C1191 C1189 1.387 . S
C1191 C1193 1.390 . S
C1191 H1195 0.950 . S
H1192 C1188 0.950 . S
C1193 C1191 1.390 . S
C1193 C1194 1.387 . S
C1193 H1196 0.950 . S
C1194 C1193 1.387 . S
C1194 C1197 1.387 . S
H1195 C1191 0.950 . S
H1196 C1193 0.950 . S
C1197 C1188 1.390 . S
C1197 H1190 0.950 . S
C1197 C1194 1.387 . S
C1198 C1199 1.387 . S
C1198 H1202 0.950 . S
C1198 C1207 1.390 . S
C1199 C1198 1.387 . S
C1199 C1201 1.387 . S
H1200 C1207 0.950 . S
C1201 C1199 1.387 . S
C1201 C1203 1.390 . S
C1201 H1205 0.950 . S
H1202 C1198 0.950 . S
C1203 C1201 1.390 . S
C1203 C1204 1.387 . S
C1203 H1206 0.950 . S
C1204 C1203 1.387 . S
C1204 C1207 1.387 . S
H1205 C1201 0.950 . S
H1206 C1203 0.950 . S
C1207 C1198 1.390 . S
C1207 H1200 0.950 . S
C1207 C1204 1.387 . S
C1208 C1209 1.387 . S
C1208 H1212 0.950 . S
C1208 C1217 1.390 . S
C1209 C1208 1.387 . S
C1209 C1211 1.387 . S
H1210 C1217 0.950 . S
C1211 C1209 1.387 . S
C1211 C1213 1.390 . S
C1211 H1215 0.950 . S
H1212 C1208 0.950 . S
C1213 C1211 1.390 . S
C1213 C1214 1.387 . S
C1213 H1216 0.950 . S
C1214 C1213 1.387 . S
C1214 C1217 1.387 . S
H1215 C1211 0.950 . S
H1216 C1213 0.950 . S
C1217 C1208 1.390 . S
C1217 H1210 0.950 . S
C1217 C1214 1.387 . S
C1218 C1219 1.387 . S
C1218 H1222 0.950 . S
C1218 C1227 1.390 . S
C1219 C1218 1.387 . S
C1219 C1221 1.387 . S
H1220 C1227 0.950 . S
C1221 C1219 1.387 . S
C1221 C1223 1.390 . S
C1221 H1225 0.950 . S
H1222 C1218 0.950 . S
C1223 C1221 1.390 . S
C1223 C1224 1.387 . S
C1223 H1226 0.950 . S
C1224 C1223 1.387 . S
C1224 C1227 1.387 . S
H1225 C1221 0.950 . S
H1226 C1223 0.950 . S
C1227 C1218 1.390 . S
C1227 H1220 0.950 . S
C1227 C1224 1.387 . S
C1228 C1229 1.387 . S
C1228 H1232 0.950 . S
C1228 C1237 1.390 . S
C1229 C1228 1.387 . S
C1229 C1231 1.387 . S
H1230 C1237 0.950 . S
C1231 C1229 1.387 . S
C1231 C1233 1.390 . S
C1231 H1235 0.950 . S
H1232 C1228 0.950 . S
C1233 C1231 1.390 . S
C1233 C1234 1.387 . S
C1233 H1236 0.950 . S
C1234 C1233 1.387 . S
C1234 C1237 1.387 . S
H1235 C1231 0.950 . S
H1236 C1233 0.950 . S
C1237 C1228 1.390 . S
C1237 H1230 0.950 . S
C1237 C1234 1.387 . S
C1238 C1239 1.387 . S
C1238 H1242 0.950 . S
C1238 C1247 1.390 . S
C1239 C1238 1.387 . S
C1239 C1241 1.387 . S
H1240 C1247 0.950 . S
C1241 C1239 1.387 . S
C1241 C1243 1.390 . S
C1241 H1245 0.950 . S
H1242 C1238 0.950 . S
C1243 C1241 1.390 . S
C1243 C1244 1.387 . S
C1243 H1246 0.950 . S
C1244 C1243 1.387 . S
C1244 C1247 1.387 . S
H1245 C1241 0.950 . S
H1246 C1243 0.950 . S
C1247 C1238 1.390 . S
C1247 H1240 0.950 . S
C1247 C1244 1.387 . S
C529 C9 1.230 1_655 S
C534 C138 1.230 . S
C539 C28 1.229 . S
C544 C159 1.231 . S
C549 C95 1.229 . S
C554 C53 1.231 . S
C559 C73 1.231 . S
C564 C115 1.229 . S
C569 C71 1.231 . S
C574 C31 1.229 . S
C579 C50 1.229 . S
C584 C6 1.231 . S
C589 C117 1.229 . S
C594 C161 1.231 . S
C599 C141 1.231 . S
C604 C93 1.229 . S
C609 C181 1.229 . S
C614 C207 1.231 . S
C619 C183 1.229 . S
C624 C229 1.231 . S
C629 C226 1.231 . S
C634 C249 1.229 . S
C639 C247 1.229 . S
C644 C204 1.231 . S
C649 C273 1.231 . S
C654 C402 1.229 . S
C659 C423 1.231 . S
C664 C292 1.229 . S
C669 C317 1.231 . S
C674 C359 1.229 . S
C679 C337 1.231 . S
C684 C379 1.229 . S
C689 C335 1.231 . S
C694 C295 1.229 . S
C699 C314 1.229 . S
C704 C270 1.231 . S
C709 C381 1.229 . S
C714 C425 1.231 . S
C719 C405 1.231 . S
C724 C357 1.229 . S
C729 C445 1.229 . S
C734 C469 1.231 . S
C739 C493 1.231 . S
C744 C447 1.229 . S
C749 C490 1.229 . S
C754 C513 1.231 . S
C759 C511 1.229 . S
C764 C467 1.231 . S
C769 C512 1.202 . S
C774 C7 1.200 . S
C779 C470 1.199 . S
C784 C26 1.197 . S
C789 C51 1.200 . S
C794 C448 1.202 . S
C799 C74 1.199 . S
C804 C488 1.201 . S
C809 C491 1.202 . S
C814 C96 1.200 . S
C819 C116 1.200 . S
C824 C514 1.198 . S
C829 C468 1.201 . S
C834 C136 1.203 . S
C839 C160 1.199 . S
C844 C446 1.201 . S
C849 C358 1.199 . S
C854 C72 1.197 . S
C859 C4 1.200 . S
C864 C382 1.202 . S
C869 C29 1.200 . S
C874 C403 1.202 . S
C879 C48 1.200 . S
C884 C426 1.198 . S
C889 C268 1.202 . S
C894 C118 1.204 . S
C899 C139 1.200 . S
C904 C293 1.198 . S
C909 C162 1.200 . S
C914 C312 1.198 . S
C919 C94 1.199 . S
C924 C336 1.201 . S
C929 C424 1.199 . S
C934 C182 1.197 . S
C939 C205 1.202 . S
C944 C290 1.204 . S
C949 C315 1.202 . S
C954 C184 1.204 . S
C959 C338 1.200 . S
C964 C224 1.202 . S
C969 C248 1.201 . S
C974 C271 1.203 . S
C979 C380 1.202 . S
C984 C250 1.200 . S
C989 C400 1.201 . S
C994 C202 1.199 . S
C999 C360 1.202 . S
C1004 C227 1.200 . S
C1009 C97 1.202 . S
C1014 C449 1.204 . S
C1019 C114 1.199 . S
C1024 C489 1.201 . S
C1029 C137 1.200 . S
C1034 C510 1.198 . S
C1039 C471 1.202 . S
C1044 C158 1.200 . S
C1049 C466 1.201 . S
C1054 C8 1.203 . S
C1059 C27 1.202 . S
C1064 C444 1.204 . S
C1069 C52 1.200 . S
C1074 C492 1.198 . S
C1079 C515 1.199 . S
C1084 C75 1.197 . S
C1089 C269 1.199 . S
C1094 C163 1.202 . S
C1099 C92 1.201 . S
C1104 C294 1.199 . S
C1109 C313 1.201 . S
C1114 C119 1.199 . S
C1119 C334 1.199 . S
C1124 C140 1.201 . S
C1129 C356 1.199 . S
C1134 C30 1.197 . S
C1139 C49 1.199 . S
C1144 C383 1.201 . S
C1149 C404 1.201 . S
C1154 C70 1.203 . S
C1159 C427 1.202 . S
C1164 C5 1.200 . S
C1169 C251 1.202 . S
C1174 C339 1.204 . S
C1179 C225 1.202 . S
C1184 C378 1.200 . S
C1189 C401 1.201 . S
C1194 C246 1.199 . S
C1199 C206 1.201 . S
C1204 C422 1.199 . S
C1209 C185 1.200 . S
C1214 C361 1.198 . S
C1219 C291 1.202 . S
C1224 C180 1.204 . S
C1229 C228 1.202 . S
C1234 C316 1.204 . S
C1239 C272 1.200 . S
C1244 C203 1.202 . S
