# Generated by pormake.
# Topology vmz, (8)-cn, num edge types: 1
# Building blocks:
#     Node 0, Type 0, BuildingBlock: TAGTUT_clean_sbu_3, # of connection points: 8
#     Node 1, Type 0, BuildingBlock: TAGTUT_clean_sbu_3, # of connection points: 8
#     Node 2, Type 0, BuildingBlock: TAGTUT_clean_sbu_3, # of connection points: 8
#     Node 3, Type 0, BuildingBlock: TAGTUT_clean_sbu_3, # of connection points: 8
#     Edge 4, Type (0, 0), BuildingBlock: MIFKUJ_clean_linker_0, # of connection points: 2
#     Edge 5, Type (0, 0), BuildingBlock: MIFKUJ_clean_linker_0, # of connection points: 2
#     Edge 6, Type (0, 0), BuildingBlock: MIFKUJ_clean_linker_0, # of connection points: 2
#     Edge 7, Type (0, 0), BuildingBlock: MIFKUJ_clean_linker_0, # of connection points: 2
#     Edge 8, Type (0, 0), BuildingBlock: MIFKUJ_clean_linker_0, # of connection points: 2
#     Edge 9, Type (0, 0), BuildingBlock: MIFKUJ_clean_linker_0, # of connection points: 2
#     Edge 10, Type (0, 0), BuildingBlock: MIFKUJ_clean_linker_0, # of connection points: 2
#     Edge 11, Type (0, 0), BuildingBlock: MIFKUJ_clean_linker_0, # of connection points: 2
#     Edge 12, Type (0, 0), BuildingBlock: MIFKUJ_clean_linker_0, # of connection points: 2
#     Edge 13, Type (0, 0), BuildingBlock: MIFKUJ_clean_linker_0, # of connection points: 2
#     Edge 14, Type (0, 0), BuildingBlock: MIFKUJ_clean_linker_0, # of connection points: 2
#     Edge 15, Type (0, 0), BuildingBlock: MIFKUJ_clean_linker_0, # of connection points: 2
#     Edge 16, Type (0, 0), BuildingBlock: MIFKUJ_clean_linker_0, # of connection points: 2
#     Edge 17, Type (0, 0), BuildingBlock: MIFKUJ_clean_linker_0, # of connection points: 2
#     Edge 18, Type (0, 0), BuildingBlock: MIFKUJ_clean_linker_0, # of connection points: 2
#     Edge 19, Type (0, 0), BuildingBlock: MIFKUJ_clean_linker_0, # of connection points: 2
# Relax obj value: 0.217
# Max RMSD: 0.272
# Mean RMSD: 0.270
data_MOF--net-vmz--node1-TAGTUT_clean_sbu_3--edge1-MIFKUJ_clean_linker_0
_symmetry_space_group_name_H-M    P1
_symmetry_Int_Tables_number       1
_symmetry_cell_setting            triclinic
loop_
_symmetry_equiv_pos_as_xyz
'x, y, z'
_cell_length_a     31.227227
_cell_length_b     23.251666
_cell_length_c     41.551742
_cell_angle_alpha  89.786124
_cell_angle_beta   99.516855
_cell_angle_gamma 89.869176
loop_
_atom_site_label
_atom_site_type_symbol
_atom_site_fract_x
_atom_site_fract_y
_atom_site_fract_z
_atom_type_partial_charge
C0 C 0.21152 0.21225 0.13958 0.0
C1 C 0.23475 0.37111 0.05062 0.0
C2 C 0.24896 0.21647 0.99217 0.0
Mg3 Mg 0.24846 0.08236 0.14475 0.0
Mg4 Mg 0.34082 0.04997 0.12143 0.0
O5 O 0.28498 0.07991 0.10918 0.0
Mg6 Mg 0.27823 0.16204 0.09451 0.0
O7 O 0.26682 0.24335 0.08024 0.0
Mg8 Mg 0.20362 0.23575 0.06084 0.0
Mg9 Mg 0.30265 0.27187 0.05187 0.0
C10 C 0.34799 0.1056 0.05257 0.0
O11 O 0.344 0.19286 0.12111 0.0
O12 O 0.25771 0.98372 0.14849 0.0
O13 O 0.36336 0.25674 0.0851 0.0
O14 O 0.30763 0.09506 0.18584 0.0
O15 O 0.32083 0.96421 0.13134 0.0
O16 O 0.36946 0.09047 0.16594 0.0
O17 O 0.21198 0.13852 0.06859 0.0
O18 O 0.19062 0.07437 0.10274 0.0
C19 C 0.18353 0.10405 0.07629 0.0
C20 C 0.28646 0.94797 0.14191 0.0
O21 O 0.31554 0.13949 0.05292 0.0
O22 O 0.20524 0.33465 0.05484 0.0
O23 O 0.36317 0.07199 0.07635 0.0
O24 O 0.21655 0.22221 0.00722 0.0
O25 O 0.2736 0.356 0.04814 0.0
O26 O 0.28748 0.22794 0.00611 0.0
O27 O 0.24359 0.17993 0.13623 0.0
O28 O 0.19202 0.24232 0.11544 0.0
C29 C 0.34889 0.10016 0.18942 0.0
C30 C 0.3714 0.2279 0.11192 0.0
C31 C 0.66079 0.69485 0.46959 0.0
C32 C 0.77234 0.83606 0.52802 0.0
C33 C 0.75404 0.93065 0.43461 0.0
Mg34 Mg 0.64122 0.65267 0.39698 0.0
Mg35 Mg 0.7143 0.64836 0.34957 0.0
O36 O 0.68485 0.69494 0.3752 0.0
Mg37 Mg 0.71714 0.73786 0.41368 0.0
O38 O 0.74348 0.78003 0.45397 0.0
Mg39 Mg 0.69265 0.8268 0.46294 0.0
Mg40 Mg 0.79732 0.81724 0.4591 0.0
C41 C 0.76757 0.76532 0.35124 0.0
O42 O 0.77843 0.68056 0.42197 0.0
O43 O 0.60776 0.6261 0.34604 0.0
O44 O 0.83092 0.74504 0.44095 0.0
O45 O 0.6791 0.56509 0.39983 0.0
O46 O 0.65869 0.62548 0.31363 0.0
O47 O 0.737 0.57112 0.37525 0.0
O48 O 0.66057 0.80061 0.41014 0.0
O49 O 0.60531 0.74066 0.39429 0.0
C50 C 0.61999 0.79142 0.40144 0.0
C51 C 0.61941 0.61821 0.3182 0.0
O52 O 0.75271 0.78674 0.3759 0.0
O53 O 0.73224 0.84089 0.51475 0.0
O54 O 0.7594 0.71401 0.34073 0.0
O55 O 0.72021 0.90971 0.44379 0.0
O56 O 0.80269 0.82712 0.51126 0.0
O57 O 0.78871 0.9009 0.4359 0.0
O58 O 0.67957 0.68319 0.44534 0.0
O59 O 0.66333 0.74525 0.48181 0.0
C60 C 0.71336 0.54281 0.39186 0.0
C61 C 0.81861 0.69459 0.4306 0.0
C62 C 0.68564 0.85619 0.95965 0.0
C63 C 0.78673 0.71497 0.02694 0.0
C64 C 0.77078 0.60821 0.93701 0.0
Mg65 Mg 0.668 0.88947 0.88522 0.0
Mg66 Mg 0.74612 0.88625 0.84223 0.0
O67 O 0.71225 0.84264 0.86661 0.0
Mg68 Mg 0.74101 0.80069 0.90702 0.0
O69 O 0.76423 0.76129 0.94937 0.0
Mg70 Mg 0.71103 0.72021 0.95896 0.0
Mg71 Mg 0.81701 0.72178 0.95899 0.0
C72 C 0.79434 0.76378 0.84935 0.0
O73 O 0.80474 0.85134 0.91246 0.0
O74 O 0.6385 0.90979 0.83162 0.0
O75 O 0.85373 0.78559 0.93634 0.0
O76 O 0.70666 0.97467 0.88741 0.0
O77 O 0.69373 0.90543 0.80288 0.0
O78 O 0.76595 0.96784 0.86483 0.0
O79 O 0.68208 0.7427 0.90487 0.0
O80 O 0.62981 0.80433 0.88431 0.0
C81 C 0.64218 0.75373 0.89422 0.0
C82 C 0.65347 0.91301 0.80464 0.0
O83 O 0.77502 0.74486 0.87244 0.0
O84 O 0.74741 0.70887 0.0122 0.0
O85 O 0.79092 0.81587 0.83862 0.0
O86 O 0.73643 0.63205 0.94384 0.0
O87 O 0.81865 0.72177 0.01141 0.0
O88 O 0.80641 0.63592 0.93913 0.0
O89 O 0.70514 0.86236 0.9353 0.0
O90 O 0.68455 0.80723 0.97356 0.0
C91 C 0.74134 0.99674 0.88036 0.0
C92 C 0.84408 0.83371 0.92142 0.0
C93 C 0.35752 0.24255 0.60526 0.0
C94 C 0.35042 0.42092 0.68598 0.0
C95 C 0.25425 0.48387 0.60814 0.0
Mg96 Mg 0.2849 0.19937 0.54573 0.0
Mg97 Mg 0.17963 0.2074 0.548 0.0
O98 O 0.23324 0.24478 0.55432 0.0
Mg99 Mg 0.25876 0.29027 0.59374 0.0
O100 O 0.28971 0.33658 0.63111 0.0
Mg101 Mg 0.33167 0.37953 0.60818 0.0
Mg102 Mg 0.25687 0.38389 0.65425 0.0
C103 C 0.15561 0.32907 0.57606 0.0
O104 O 0.22774 0.24114 0.63403 0.0
O105 O 0.24608 0.17942 0.49425 0.0
O106 O 0.2165 0.31512 0.66713 0.0
O107 O 0.25861 0.11659 0.56647 0.0
O108 O 0.17552 0.19638 0.49589 0.0
O109 O 0.18911 0.12479 0.57213 0.0
O110 O 0.29397 0.3449 0.56034 0.0
O111 O 0.31149 0.28114 0.52508 0.0
C112 C 0.31266 0.33241 0.53613 0.0
C113 C 0.20636 0.1843 0.48012 0.0
O114 O 0.19546 0.34423 0.58516 0.0
O115 O 0.36412 0.40986 0.65917 0.0
O116 O 0.14436 0.27854 0.56531 0.0
O117 O 0.29033 0.46342 0.60257 0.0
O118 O 0.3106 0.41483 0.68939 0.0
O119 O 0.23065 0.45573 0.62487 0.0
O120 O 0.31714 0.23114 0.59742 0.0
O121 O 0.37065 0.29405 0.61221 0.0
C122 C 0.22428 0.09566 0.57497 0.0
C123 C 0.21308 0.26181 0.65902 0.0
H124 H 0.28299 0.46057 0.03394 0.0
H125 H 0.27819 0.56059 0.0502 0.0
H126 H 0.16265 0.52236 0.09047 0.0
H127 H 0.16727 0.42172 0.07446 0.0
H128 H 0.21892 0.64884 0.04054 0.0
H129 H 0.17711 0.58766 0.16591 0.0
H130 H 0.1822 0.50362 0.2029 0.0
H131 H 0.29349 0.44218 0.16478 0.0
H132 H 0.2893 0.52605 0.12784 0.0
H133 H 0.21251 0.89515 0.15477 0.0
H134 H 0.19159 0.79501 0.14294 0.0
H135 H 0.31746 0.76049 0.11753 0.0
H136 H 0.33901 0.8597 0.12955 0.0
H137 H 0.24185 0.67337 0.16091 0.0
H138 H 0.2866 0.7234 0.03702 0.0
H139 H 0.29304 0.8078 0.00195 0.0
H140 H 0.18782 0.89063 0.03841 0.0
H141 H 0.18039 0.80635 0.07335 0.0
C142 C 0.25593 0.4736 0.04554 0.0
C143 C 0.22586 0.43307 0.05332 0.0
C144 C 0.25316 0.53084 0.05471 0.0
C145 C 0.22047 0.54842 0.07195 0.0
C146 C 0.18836 0.50924 0.07746 0.0
C147 C 0.19096 0.45188 0.06814 0.0
C148 C 0.22314 0.60591 0.08701 0.0
C149 C 0.22339 0.65424 0.06681 0.0
C150 C 0.22916 0.61275 0.12133 0.0
C151 C 0.23249 0.56272 0.14386 0.0
C152 C 0.2027 0.55625 0.1655 0.0
C153 C 0.20543 0.50865 0.18643 0.0
C154 C 0.23802 0.46745 0.18607 0.0
C155 C 0.26812 0.47394 0.16491 0.0
C156 C 0.26555 0.52147 0.14395 0.0
C157 C 0.23622 0.86587 0.14759 0.0
C158 C 0.27711 0.88573 0.14238 0.0
C159 C 0.2242 0.80871 0.14098 0.0
C160 C 0.25288 0.77111 0.12902 0.0
C161 C 0.29493 0.78935 0.12661 0.0
C162 C 0.30706 0.84615 0.13336 0.0
C163 C 0.23756 0.71584 0.11438 0.0
C164 C 0.23555 0.66802 0.13463 0.0
C165 C 0.23061 0.7092 0.08011 0.0
C166 C 0.23319 0.75879 0.05795 0.0
C167 C 0.26462 0.75944 0.03734 0.0
C168 C 0.26851 0.80728 0.01755 0.0
C169 C 0.24102 0.85464 0.0181 0.0
C170 C 0.20925 0.85402 0.03816 0.0
C171 C 0.20521 0.80625 0.05797 0.0
H172 H 0.24434 0.89178 0.00295 0.0
H173 H 0.24001 0.43059 0.20225 0.0
H174 H 0.82286 -6e-05 0.42635 0.0
H175 H 0.82141 0.1042 0.41693 0.0
H176 H 0.68263 0.10512 0.41319 0.0
H177 H 0.6835 0.00159 0.42195 0.0
H178 H 0.70482 0.17133 0.36645 0.0
H179 H 0.75342 0.14577 0.48238 0.0
H180 H 0.8022 0.10907 0.53094 0.0
H181 H 0.90981 0.19668 0.50061 0.0
H182 H 0.86176 0.23316 0.45161 0.0
H183 H 0.65735 0.46024 0.40661 0.0
H184 H 0.66911 0.35614 0.40962 0.0
H185 H 0.80075 0.37972 0.39377 0.0
H186 H 0.78935 0.48414 0.39018 0.0
H187 H 0.78906 0.30215 0.44709 0.0
H188 H 0.7424 0.33288 0.33424 0.0
H189 H 0.70027 0.35794 0.28052 0.0
H190 H 0.59331 0.25672 0.30141 0.0
H191 H 0.63441 0.23201 0.35559 0.0
C192 C 0.79196 0.02226 0.42306 0.0
C193 C 0.75335 0.99231 0.42509 0.0
C194 C 0.79124 0.08194 0.41799 0.0
C195 C 0.75194 0.11269 0.41491 0.0
C196 C 0.7133 0.08246 0.41565 0.0
C197 C 0.71394 0.0231 0.42072 0.0
C198 C 0.75047 0.17636 0.41111 0.0
C199 C 0.72272 0.20001 0.38433 0.0
C200 C 0.77523 0.21369 0.43377 0.0
C201 C 0.8041 0.19171 0.46319 0.0
C202 C 0.78755 0.15681 0.48594 0.0
C203 C 0.81506 0.1361 0.51356 0.0
C204 C 0.8591 0.1504 0.51881 0.0
C205 C 0.87571 0.18556 0.49649 0.0
C206 C 0.84835 0.20629 0.4688 0.0
C207 C 0.68905 0.44351 0.40414 0.0
C208 C 0.72244 0.48067 0.39813 0.0
C209 C 0.69551 0.38391 0.40552 0.0
C210 C 0.73563 0.3603 0.40145 0.0
C211 C 0.76956 0.39723 0.39679 0.0
C212 C 0.76295 0.45683 0.39482 0.0
C213 C 0.74228 0.29705 0.40289 0.0
C214 C 0.77103 0.27354 0.42923 0.0
C215 C 0.71852 0.25975 0.3797 0.0
C216 C 0.69143 0.28103 0.34921 0.0
C217 C 0.70953 0.31706 0.32776 0.0
C218 C 0.68599 0.33068 0.29705 0.0
C219 C 0.64442 0.30822 0.28738 0.0
C220 C 0.62576 0.27346 0.30877 0.0
C221 C 0.64907 0.2599 0.33955 0.0
H222 H 0.62642 0.31835 0.26347 0.0
H223 H 0.88033 0.13435 0.54022 0.0
H224 H 0.83288 0.54362 0.91357 0.0
H225 H 0.83192 0.43977 0.90328 0.0
H226 H 0.70545 0.42796 0.93148 0.0
H227 H 0.70576 0.53139 0.9414 0.0
H228 H 0.76513 0.34656 0.96268 0.0
H229 H 0.71159 0.41669 0.85462 0.0
H230 H 0.71359 0.47611 0.80566 0.0
H231 H 0.83317 0.39534 0.79228 0.0
H232 H 0.83219 0.33593 0.84151 0.0
H233 H 0.69528 0.06932 0.9133 0.0
H234 H 0.70585 0.17149 0.92292 0.0
H235 H 0.81957 0.16741 0.87647 0.0
H236 H 0.80828 0.06432 0.86572 0.0
H237 H 0.77267 0.25732 0.85548 0.0
H238 H 0.83188 0.1977 0.96666 0.0
H239 H 0.83274 0.14055 0.01702 0.0
H240 H 0.70506 0.20213 0.02459 0.0
H241 H 0.70373 0.26001 0.97442 0.0
C242 C 0.80469 0.51904 0.91732 0.0
C243 C 0.76947 0.54604 0.92842 0.0
C244 C 0.80418 0.45967 0.91138 0.0
C245 C 0.76864 0.42606 0.91669 0.0
C246 C 0.73327 0.45298 0.92734 0.0
C247 C 0.73349 0.51228 0.93287 0.0
C248 C 0.76867 0.36258 0.91213 0.0
C249 C 0.76642 0.32709 0.93917 0.0
C250 C 0.77156 0.33703 0.8817 0.0
C251 C 0.77208 0.37234 0.85197 0.0
C252 C 0.73853 0.41195 0.84141 0.0
C253 C 0.73943 0.44557 0.81357 0.0
C254 C 0.77357 0.43966 0.79592 0.0
C255 C 0.80679 0.39994 0.80601 0.0
C256 C 0.80606 0.36625 0.83387 0.0
C257 C 0.72293 0.08968 0.90539 0.0
C258 C 0.75096 0.05817 0.88876 0.0
C259 C 0.72918 0.14843 0.91121 0.0
C260 C 0.76406 0.17749 0.90108 0.0
C261 C 0.79246 0.14616 0.88467 0.0
C262 C 0.78608 0.08708 0.87865 0.0
C263 C 0.76896 0.24097 0.90607 0.0
C264 C 0.77196 0.27664 0.8791 0.0
C265 C 0.76702 0.26691 0.93662 0.0
C266 C 0.76751 0.23238 0.96668 0.0
C267 C 0.80393 0.19868 0.97901 0.0
C268 C 0.80457 0.16639 0.00755 0.0
C269 C 0.7689 0.16749 0.02389 0.0
C270 C 0.73264 0.20126 0.01187 0.0
C271 C 0.73201 0.234 0.98349 0.0
H272 H 0.76949 0.14241 0.04595 0.0
H273 H 0.77422 0.46574 0.77438 0.0
H274 H 0.29258 0.02036 0.5818 0.0
H275 H 0.28996 0.91598 0.58664 0.0
H276 H 0.15377 0.92515 0.59312 0.0
H277 H 0.15583 0.03014 0.58804 0.0
H278 H 0.20183 0.84245 0.63612 0.0
H279 H 0.17835 0.89588 0.52283 0.0
H280 H 0.19499 0.94619 0.47406 0.0
H281 H 0.31695 0.85693 0.48314 0.0
H282 H 0.30139 0.80679 0.53232 0.0
H283 H 0.17856 0.54218 0.61208 0.0
H284 H 0.16544 0.64541 0.60434 0.0
H285 H 0.29132 0.66547 0.57598 0.0
H286 H 0.30416 0.56259 0.58252 0.0
H287 H 0.23908 0.73453 0.54162 0.0
H288 H 0.26909 0.69087 0.65703 0.0
H289 H 0.25688 0.64171 0.70743 0.0
H290 H 0.12815 0.7127 0.69616 0.0
H291 H 0.13943 0.76164 0.64542 0.0
C292 C 0.26211 0.00052 0.58473 0.0
C293 C 0.22423 0.0338 0.58407 0.0
C294 C 0.26069 0.9407 0.58739 0.0
C295 C 0.22149 0.91281 0.58957 0.0
C296 C 0.18428 0.94591 0.59121 0.0
C297 C 0.18556 0.00593 0.58835 0.0
C298 C 0.21918 0.8491 0.58826 0.0
C299 C 0.20926 0.81875 0.61528 0.0
C300 C 0.2296 0.81829 0.56124 0.0
C301 C 0.23886 0.84801 0.53147 0.0
C302 C 0.20888 0.88734 0.5146 0.0
C303 C 0.2181 0.91578 0.48685 0.0
C304 C 0.25705 0.90488 0.47556 0.0
C305 C 0.28682 0.8654 0.49194 0.0
C306 C 0.2778 0.83694 0.51975 0.0
C307 C 0.20315 0.56843 0.60367 0.0
C308 C 0.24272 0.54413 0.59845 0.0
C309 C 0.19566 0.62756 0.59942 0.0
C310 C 0.22777 0.66365 0.5904 0.0
C311 C 0.26609 0.63881 0.58319 0.0
C312 C 0.27342 0.57975 0.58702 0.0
C313 C 0.22279 0.72742 0.58988 0.0
C314 C 0.23122 0.75799 0.56242 0.0
C315 C 0.21162 0.75839 0.6167 0.0
C316 C 0.20495 0.72945 0.64732 0.0
C317 C 0.23811 0.69573 0.66523 0.0
C318 C 0.23136 0.66792 0.69385 0.0
C319 C 0.19173 0.67398 0.70495 0.0
C320 C 0.15882 0.70803 0.68752 0.0
C321 C 0.16538 0.73583 0.65884 0.0
H322 H 0.18655 0.65239 0.7271 0.0
H323 H 0.26413 0.92694 0.45407 0.0
H324 H 0.64052 0.90126 0.38706 0.0
H325 H 0.59038 0.97784 0.36591 0.0
H326 H 0.48234 0.87215 0.38222 0.0
H327 H 0.53254 0.79383 0.40147 0.0
H328 H 0.46887 0.90341 0.32427 0.0
H329 H 0.51362 0.00796 0.42206 0.0
H330 H 0.56374 0.05257 0.46703 0.0
H331 H 0.61193 0.16471 0.39899 0.0
H332 H 0.56308 0.11974 0.35345 0.0
H333 H 0.31898 0.09202 0.24746 0.0
H334 H 0.36329 0.06922 0.29991 0.0
H335 H 0.47944 0.10196 0.25952 0.0
H336 H 0.43547 0.12423 0.2067 0.0
H337 H 0.4814 0.1153 0.33637 0.0
H338 H 0.45563 0.98147 0.2415 0.0
H339 H 0.40515 0.93978 0.19552 0.0
H340 H 0.32019 0.88652 0.26135 0.0
H341 H 0.36998 0.92874 0.30762 0.0
C342 C 0.60612 0.89478 0.38684 0.0
C343 C 0.59031 0.84123 0.3954 0.0
C344 C 0.57739 0.93899 0.375 0.0
C345 C 0.53235 0.93114 0.37245 0.0
C346 C 0.51688 0.87923 0.38368 0.0
C347 C 0.54554 0.83444 0.39467 0.0
C348 C 0.50159 0.97236 0.35323 0.0
C349 C 0.47112 0.94958 0.32784 0.0
C350 C 0.50497 0.03304 0.35687 0.0
C351 C 0.53477 0.06003 0.38423 0.0
C352 C 0.53522 0.04168 0.41659 0.0
C353 C 0.56344 0.06707 0.44221 0.0
C354 C 0.5911 0.11131 0.43585 0.0
C355 C 0.59054 0.13035 0.40386 0.0
C356 C 0.56263 0.10485 0.37813 0.0
C357 C 0.35387 0.09676 0.24997 0.0
C358 C 0.37387 0.1076 0.22261 0.0
C359 C 0.37913 0.08421 0.28014 0.0
C360 C 0.42453 0.08301 0.28331 0.0
C361 C 0.4444 0.1027 0.25747 0.0
C362 C 0.41919 0.11472 0.22717 0.0
C363 C 0.44959 0.04551 0.30836 0.0
C364 C 0.47895 0.06893 0.33408 0.0
C365 C 0.44551 0.98527 0.30539 0.0
C366 C 0.41625 0.95846 0.27786 0.0
C367 C 0.42609 0.96102 0.24608 0.0
C368 C 0.39763 0.93736 0.22 0.0
C369 C 0.35949 0.91054 0.22553 0.0
C370 C 0.34975 0.90731 0.25713 0.0
C371 C 0.37806 0.93106 0.28328 0.0
H372 H 0.33756 0.8921 0.20536 0.0
H373 H 0.61292 0.13093 0.45572 0.0
H374 H 0.53731 0.58165 0.32193 0.0
H375 H 0.49415 0.51487 0.28493 0.0
H376 H 0.58629 0.52696 0.21858 0.0
H377 H 0.63031 0.59346 0.2556 0.0
H378 H 0.49041 0.51436 0.19024 0.0
H379 H 0.60523 0.4407 0.27567 0.0
H380 H 0.63718 0.4322 0.33373 0.0
H381 H 0.52308 0.34507 0.35313 0.0
H382 H 0.48939 0.35569 0.29543 0.0
H383 H 0.44728 0.27336 0.09937 0.0
H384 H 0.49535 0.33497 0.13661 0.0
H385 H 0.42737 0.28787 0.21508 0.0
H386 H 0.37996 0.22504 0.17825 0.0
H387 H 0.50896 0.31866 0.23919 0.0
H388 H 0.38903 0.39772 0.16872 0.0
H389 H 0.33938 0.41604 0.11704 0.0
H390 H 0.44285 0.4961 0.0771 0.0
H391 H 0.49331 0.47757 0.12844 0.0
C392 C 0.54792 0.57157 0.29906 0.0
C393 C 0.58792 0.59163 0.29211 0.0
C394 C 0.52306 0.53348 0.27795 0.0
C395 C 0.53773 0.51535 0.24958 0.0
C396 C 0.57483 0.54039 0.24062 0.0
C397 C 0.59999 0.57814 0.26187 0.0
C398 C 0.51852 0.4643 0.23207 0.0
C399 C 0.49496 0.47147 0.20065 0.0
C400 C 0.52284 0.40892 0.24669 0.0
C401 C 0.54436 0.39999 0.28113 0.0
C402 C 0.58646 0.42083 0.29235 0.0
C403 C 0.60491 0.41571 0.32528 0.0
C404 C 0.58205 0.38848 0.34717 0.0
C405 C 0.5407 0.36633 0.33616 0.0
C406 C 0.52186 0.37208 0.30334 0.0
C407 C 0.44381 0.27423 0.12489 0.0
C408 C 0.40927 0.24564 0.13575 0.0
C409 C 0.47114 0.30959 0.1461 0.0
C410 C 0.46368 0.31758 0.17819 0.0
C411 C 0.43322 0.28287 0.19027 0.0
C412 C 0.40621 0.24678 0.16914 0.0
C413 C 0.4819 0.36846 0.19682 0.0
C414 C 0.50489 0.36141 0.22857 0.0
C415 C 0.47516 0.42449 0.18331 0.0
C416 C 0.44508 0.43566 0.15228 0.0
C417 C 0.4013 0.41879 0.14881 0.0
C418 C 0.37298 0.4293 0.11962 0.0
C419 C 0.38798 0.45708 0.09378 0.0
C420 C 0.43131 0.4745 0.09712 0.0
C421 C 0.45978 0.46404 0.12627 0.0
H422 H 0.36601 0.46524 0.07121 0.0
H423 H 0.59644 0.38419 0.3726 0.0
H424 H 0.34015 0.12744 0.60376 0.0
H425 H 0.39096 0.05 0.62253 0.0
H426 H 0.49693 0.17067 0.63481 0.0
H427 H 0.4463 0.2489 0.61621 0.0
H428 H 0.51497 0.04298 0.61604 0.0
H429 H 0.45696 0.16828 0.69586 0.0
H430 H 0.39306 0.21573 0.71188 0.0
H431 H 0.33069 0.05195 0.71549 0.0
H432 H 0.39406 0.00367 0.69872 0.0
H433 H 0.67078 0.97676 0.75341 0.0
H434 H 0.61885 0.01189 0.70715 0.0
H435 H 0.51681 0.91564 0.74124 0.0
H436 H 0.56837 0.88352 0.78875 0.0
H437 H 0.48962 0.01483 0.7299 0.0
H438 H 0.55726 0.88556 0.66645 0.0
H439 H 0.61674 0.83548 0.6457 0.0
H440 H 0.65687 0.99469 0.60749 0.0
H441 H 0.59806 0.04598 0.62845 0.0
C442 C 0.3744 0.13742 0.60939 0.0
C443 C 0.38909 0.19459 0.60929 0.0
C444 C 0.40342 0.0929 0.61983 0.0
C445 C 0.4475 0.10488 0.63013 0.0
C446 C 0.46299 0.16073 0.6267 0.0
C447 C 0.43392 0.20545 0.61649 0.0
C448 C 0.47469 0.06379 0.65162 0.0
C449 C 0.50977 0.0364 0.64096 0.0
C450 C 0.46667 0.05421 0.68365 0.0
C451 C 0.43 0.08252 0.69589 0.0
C452 C 0.42961 0.14245 0.7001 0.0
C453 C 0.39348 0.16947 0.70925 0.0
C454 C 0.35781 0.13687 0.71469 0.0
C455 C 0.35836 0.07711 0.71125 0.0
C456 C 0.39436 0.04989 0.70192 0.0
C457 C 0.63738 0.96247 0.7507 0.0
C458 C 0.62335 0.92802 0.77471 0.0
C459 C 0.60774 0.98206 0.72404 0.0
C460 C 0.56384 0.96594 0.72035 0.0
C461 C 0.55041 0.92889 0.74355 0.0
C462 C 0.5798 0.91062 0.77069 0.0
C463 C 0.53124 0.99357 0.69487 0.0
C464 C 0.49486 0.01929 0.70484 0.0
C465 C 0.53789 0.00037 0.66208 0.0
C466 C 0.5733 0.96973 0.64923 0.0
C467 C 0.57893 0.91002 0.65383 0.0
C468 C 0.61252 0.88138 0.64199 0.0
C469 C 0.64061 0.91189 0.62533 0.0
C470 C 0.63509 0.9711 0.6204 0.0
C471 C 0.60157 -3e-05 0.63221 0.0
H472 H 0.66661 0.88963 0.61621 0.0
H473 H 0.32974 0.15792 0.72149 0.0
H474 H 0.66091 0.63902 0.89284 0.0
H475 H 0.6119 0.56324 0.86891 0.0
H476 H 0.50475 0.68292 0.85693 0.0
H477 H 0.5536 0.75946 0.88043 0.0
H478 H 0.48557 0.55707 0.87187 0.0
H479 H 0.55241 0.6842 0.79813 0.0
H480 H 0.61688 0.72933 0.78159 0.0
H481 H 0.67358 0.56273 0.77327 0.0
H482 H 0.60965 0.51669 0.79032 0.0
H483 H 0.33436 0.49575 0.73261 0.0
H484 H 0.38639 0.53509 0.77732 0.0
H485 H 0.48828 0.43227 0.74753 0.0
H486 H 0.4365 0.39507 0.70165 0.0
H487 H 0.51725 0.53257 0.75947 0.0
H488 H 0.44371 0.40313 0.81869 0.0
H489 H 0.38051 0.3546 0.83498 0.0
H490 H 0.33975 0.51348 0.87289 0.0
H491 H 0.40229 0.56331 0.85628 0.0
C492 C 0.62668 0.64892 0.88615 0.0
C493 C 0.61122 0.70555 0.88789 0.0
C494 C 0.59873 0.60542 0.87259 0.0
C495 C 0.55494 0.61782 0.861 0.0
C496 C 0.5385 0.67267 0.86589 0.0
C497 C 0.56651 0.71642 0.87906 0.0
C498 C 0.52865 0.57814 0.83821 0.0
C499 C 0.49227 0.55137 0.84728 0.0
C500 C 0.53851 0.56956 0.80658 0.0
C501 C 0.57651 0.5971 0.79576 0.0
C502 C 0.57877 0.65726 0.79298 0.0
C503 C 0.61519 0.68298 0.78351 0.0
C504 C 0.64935 0.6489 0.77645 0.0
C505 C 0.64713 0.58904 0.77881 0.0
C506 C 0.61081 0.56311 0.78836 0.0
C507 C 0.36782 0.48134 0.73577 0.0
C508 C 0.38154 0.44252 0.71375 0.0
C509 C 0.39749 0.50339 0.7615 0.0
C510 C 0.44117 0.48579 0.76626 0.0
C511 C 0.45475 0.44638 0.74444 0.0
C512 C 0.42523 0.42523 0.71825 0.0
C513 C 0.47305 0.51175 0.79262 0.0
C514 C 0.51069 0.53644 0.78421 0.0
C515 C 0.46467 0.51716 0.82501 0.0
C516 C 0.42768 0.48708 0.83607 0.0
C517 C 0.42121 0.42783 0.83039 0.0
C518 C 0.38547 0.40007 0.83967 0.0
C519 C 0.3561 0.43095 0.85491 0.0
C520 C 0.36254 0.48961 0.86107 0.0
C521 C 0.39819 0.51763 0.85178 0.0
H522 H 0.32837 0.40941 0.86197 0.0
H523 H 0.67746 0.66888 0.76904 0.0
H524 H 0.12876 0.01261 0.07193 0.0
H525 H 0.06714 0.99423 0.02874 0.0
H526 H 0.08434 0.15996 0.98588 0.0
H527 H 0.14635 0.17857 0.02867 0.0
H528 H 0.98665 0.09189 0.9977 0.0
H529 H 0.11832 0.09855 0.94366 0.0
H530 H 0.19648 0.0752 0.94983 0.0
H531 H 0.16884 0.89719 0.96412 0.0
H532 H 0.09088 0.91959 0.95937 0.0
H533 H 0.83994 0.93826 0.89024 0.0
H534 H 0.89812 0.00888 0.89328 0.0
H535 H 0.98814 0.88529 0.94437 0.0
H536 H 0.93077 0.81443 0.94062 0.0
H537 H 0.03005 0.96599 0.91221 0.0
H538 H 0.93469 0.95872 0.99783 0.0
H539 H 0.85994 0.94943 0.00946 0.0
H540 H 0.82007 0.09449 0.9477 0.0
H541 H 0.89474 0.10523 0.93595 0.0
C542 C 0.11893 0.04564 0.05373 0.0
C543 C 0.14273 0.09667 0.05339 0.0
C544 C 0.08379 0.03514 0.02918 0.0
C545 C 0.07179 0.07576 0.0043 0.0
C546 C 0.09347 0.12831 0.005 0.0
C547 C 0.12902 0.13856 0.02932 0.0
C548 C 0.03973 0.05948 0.97596 0.0
C549 C 0.9958 0.06694 0.97786 0.0
C550 C 0.05235 0.02473 0.95128 0.0
C551 C 0.09877 0.01083 0.95132 0.0
C552 C 0.12896 0.05451 0.94835 0.0
C553 C 0.17325 0.04155 0.95182 0.0
C554 C 0.18763 0.98496 0.9577 0.0
C555 C 0.15774 0.94109 0.95983 0.0
C556 C 0.1135 0.95388 0.95677 0.0
C557 C 0.8723 0.92564 0.90123 0.0
C558 C 0.88024 0.87168 0.91642 0.0
C559 C 0.90564 0.96584 0.90264 0.0
C560 C 0.94706 0.95263 0.91975 0.0
C561 C 0.9563 0.89642 0.93113 0.0
C562 C 0.92316 0.85617 0.92944 0.0
C563 C 0.9767 0.99864 0.93373 0.0
C564 C 0.02041 0.99563 0.92984 0.0
C565 C 0.96416 0.03564 0.95757 0.0
C566 C 0.92012 0.03292 0.96621 0.0
C567 C 0.91 0.98909 0.98708 0.0
C568 C 0.86769 0.98351 0.99357 0.0
C569 C 0.83529 0.02154 0.9793 0.0
C570 C 0.84528 0.06539 0.95872 0.0
C571 C 0.88761 0.07149 0.95229 0.0
H572 H 0.80245 0.01706 0.98416 0.0
H573 H 0.22191 0.97505 0.96022 0.0
H574 H 0.16281 0.44388 0.56381 0.0
H575 H 0.10319 0.5077 0.54077 0.0
H576 H 0.01065 0.37679 0.55585 0.0
H577 H 0.07008 0.31255 0.57828 0.0
H578 H -0.00068 0.40749 0.49415 0.0
H579 H 0.01734 0.50584 0.59594 0.0
H580 H 0.05547 0.55759 0.64387 0.0
H581 H 0.08887 0.69246 0.58176 0.0
H582 H 0.05194 0.64081 0.53331 0.0
H583 H 0.80891 0.58033 0.44314 0.0
H584 H 0.86702 0.51516 0.46734 0.0
H585 H 0.96248 0.64206 0.45225 0.0
H586 H 0.90459 0.70773 0.4287 0.0
H587 H 0.97091 0.6127 0.51476 0.0
H588 H 0.95506 0.51146 0.41286 0.0
H589 H 0.91564 0.45988 0.3653 0.0
H590 H 0.87612 0.33125 0.42866 0.0
H591 H 0.91489 0.38241 0.47668 0.0
C592 C 0.12973 0.42954 0.56335 0.0
C593 C 0.12103 0.37301 0.57239 0.0
C594 C 0.09563 0.46599 0.55005 0.0
C595 C 0.05247 0.44663 0.54615 0.0
C596 C 0.04373 0.39226 0.55821 0.0
C597 C 0.0777 0.35574 0.5712 0.0
C598 C 0.01709 0.47968 0.52603 0.0
C599 C 0.99264 0.45216 0.49899 0.0
C600 C 0.00924 0.53832 0.5318 0.0
C601 C 0.03219 0.56906 0.5609 0.0
C602 C 0.03328 0.54616 0.59242 0.0
C603 C 0.05463 0.57553 0.6197 0.0
C604 C 0.07462 0.62821 0.61585 0.0
C605 C 0.07335 0.65162 0.58469 0.0
C606 C 0.0523 0.62224 0.5573 0.0
C607 C 0.84232 0.59348 0.44386 0.0
C608 C 0.85228 0.64942 0.43457 0.0
C609 C 0.87554 0.55626 0.45782 0.0
C610 C 0.91906 0.57419 0.46206 0.0
C611 C 0.92909 0.62775 0.44965 0.0
C612 C 0.896 0.66507 0.43601 0.0
C613 C 0.95353 0.54064 0.48279 0.0
C614 C 0.9777 0.56804 0.50997 0.0
C615 C 0.96105 0.48189 0.47723 0.0
C616 C 0.93763 0.45105 0.44839 0.0
C617 C 0.9377 0.47241 0.41669 0.0
C618 C 0.91556 0.44316 0.38964 0.0
C619 C 0.89348 0.39227 0.39396 0.0
C620 C 0.89341 0.37055 0.42536 0.0
C621 C 0.91546 0.39965 0.45249 0.0
H622 H 0.87637 0.36968 0.37299 0.0
H623 H 0.09102 0.65091 0.63701 0.0
H624 H 0.39295 0.1962 0.03465 0.0
H625 H 0.45382 0.18902 0.00426 0.0
H626 H 0.41947 0.01265 0.98074 0.0
H627 H 0.35984 0.01939 0.01183 0.0
H628 H 0.51666 0.10842 0.03015 0.0
H629 H 0.45486 0.97529 0.91223 0.0
H630 H 0.39329 0.97821 0.86672 0.0
H631 H 0.37737 0.1591 0.88158 0.0
H632 H 0.43919 0.15756 0.92691 0.0
H633 H 0.61777 0.84942 0.99361 0.0
H634 H 0.56466 0.92488 0.99901 0.0
H635 H 0.63453 0.04371 0.94715 0.0
H636 H 0.68937 0.96951 0.94353 0.0
H637 H 0.53012 0.01496 0.92513 0.0
H638 H 0.64305 0.09398 0.00585 0.0
H639 H 0.7031 0.08397 0.0522 0.0
H640 H 0.61536 0.01331 0.11119 0.0
H641 H 0.55491 0.02168 0.06495 0.0
C642 C 0.39731 0.15694 0.0216 0.0
C643 C 0.37212 0.10825 0.02536 0.0
C644 C 0.43207 0.15282 0.00442 0.0
C645 C 0.44108 0.10035 0.99032 0.0
C646 C 0.41274 0.05376 0.99108 0.0
C647 C 0.37872 0.05751 0.00881 0.0
C648 C 0.48417 0.0891 0.98144 0.0
C649 C 0.52001 0.08972 0.0068 0.0
C650 C 0.48841 0.06491 0.95097 0.0
C651 C 0.4518 0.06626 0.92308 0.0
C652 C 0.43856 0.01585 0.90564 0.0
C653 C 0.40347 0.01722 0.87991 0.0
C654 C 0.38138 0.06878 0.8713 0.0
C655 C 0.39441 0.11914 0.88834 0.0
C656 C 0.42944 0.11801 0.91409 0.0
C657 C 0.62235 0.89184 0.9839 0.0
C658 C 0.65707 0.90317 0.96725 0.0
C659 C 0.59186 0.93468 0.98677 0.0
C660 C 0.59552 0.98917 0.97289 0.0
C661 C 0.63097 0.00147 0.95747 0.0
C662 C 0.66195 0.95899 0.95519 0.0
C663 C 0.56133 0.03229 0.97427 0.0
C664 C 0.52725 0.03659 0.94776 0.0
C665 C 0.55864 0.06132 0.00358 0.0
C666 C 0.5945 0.05818 0.03186 0.0
C667 C 0.6366 0.07599 0.02864 0.0
C668 C 0.67071 0.07065 0.0549 0.0
C669 C 0.66307 0.04798 0.08461 0.0
C670 C 0.62123 0.03086 0.08816 0.0
C671 C 0.58701 0.03595 0.06194 0.0
H672 H 0.68957 0.04371 0.10487 0.0
H673 H 0.35418 0.06973 0.85142 0.0
H674 H 0.33698 0.43813 0.56173 0.0
H675 H 0.39561 0.49821 0.55012 0.0
H676 H 0.41447 0.38528 0.47139 0.0
H677 H 0.35797 0.32162 0.48518 0.0
H678 H 0.48825 0.40838 0.50312 0.0
H679 H 0.36652 0.52984 0.4617 0.0
H680 H 0.2982 0.58178 0.4643 0.0
H681 H 0.36219 0.68198 0.5446 0.0
H682 H 0.4308 0.63021 0.54275 0.0
H683 H 0.63506 0.59138 0.44174 0.0
H684 H 0.57407 0.53323 0.45046 0.0
H685 H 0.55435 0.64254 0.53051 0.0
H686 H 0.61305 0.70509 0.51926 0.0
H687 H 0.48047 0.62124 0.49674 0.0
H688 H 0.60209 0.49568 0.53835 0.0
H689 H 0.67021 0.44484 0.53359 0.0
H690 H 0.60529 0.35327 0.45005 0.0
H691 H 0.53685 0.40375 0.45423 0.0
C692 C 0.35348 0.42567 0.54208 0.0
C693 C 0.34318 0.37413 0.52504 0.0
C694 C 0.38682 0.46086 0.53501 0.0
C695 C 0.40942 0.44698 0.50955 0.0
C696 C 0.39776 0.39696 0.49129 0.0
C697 C 0.3652 0.36073 0.49907 0.0
C698 C 0.4468 0.48266 0.50336 0.0
C699 C 0.48624 0.45489 0.50121 0.0
C700 C 0.44477 0.54356 0.50166 0.0
C701 C 0.40376 0.57584 0.50221 0.0
C702 C 0.366 0.56283 0.47998 0.0
C703 C 0.32722 0.59224 0.48133 0.0
C704 C 0.32584 0.63506 0.50465 0.0
C705 C 0.36331 0.64878 0.52656 0.0
C706 C 0.40217 0.6195 0.52533 0.0
C707 C 0.61774 0.60367 0.46095 0.0
C708 C 0.62855 0.65393 0.47911 0.0
C709 C 0.58306 0.56947 0.46641 0.0
C710 C 0.55973 0.58264 0.49155 0.0
C711 C 0.57166 0.63141 0.51085 0.0
C712 C 0.60551 0.66693 0.50456 0.0
C713 C 0.52189 0.54696 0.49675 0.0
C714 C 0.48238 0.57474 0.49867 0.0
C715 C 0.52375 0.48604 0.49803 0.0
C716 C 0.56441 0.45366 0.49655 0.0
C717 C 0.60235 0.46462 0.51902 0.0
C718 C 0.64102 0.4359 0.51639 0.0
C719 C 0.64209 0.3959 0.4915 0.0
C720 C 0.60441 0.38419 0.46934 0.0
C721 C 0.56564 0.41269 0.4719 0.0
H722 H 0.67211 0.37397 0.48939 0.0
H723 H 0.29576 0.65766 0.50573 0.0
H724 H 0.14958 0.27981 0.69512 0.0
H725 H 0.15164 0.24473 0.75083 0.0
H726 H 0.25365 0.12594 0.73843 0.0
H727 H 0.25202 0.16134 0.68248 0.0
H728 H 0.16643 0.10744 0.78534 0.0
H729 H 0.31175 0.19411 0.77346 0.0
H730 H 0.35611 0.26781 0.75144 0.0
H731 H 0.27646 0.4012 0.78174 0.0
H732 H 0.23137 0.32813 0.80357 0.0
H733 H 0.31003 0.18263 0.95582 0.0
H734 H 0.2993 0.16076 0.89766 0.0
H735 H 0.16123 0.18494 0.89154 0.0
H736 H 0.17161 0.20648 0.94994 0.0
H737 H 0.27019 0.23781 0.8527 0.0
H738 H 0.10797 0.12067 0.83268 0.0
H739 H 0.0696 0.03988 0.85415 0.0
H740 H 0.19157 0.9565 0.88833 0.0
H741 H 0.23059 0.03784 0.86822 0.0
C742 C 0.17087 0.24408 0.70362 0.0
C743 C 0.20069 0.22343 0.68442 0.0
C744 C 0.17223 0.22439 0.73558 0.0
C745 C 0.20318 0.1834 0.74884 0.0
C746 C 0.22952 0.15769 0.72857 0.0
C747 C 0.22818 0.17745 0.69643 0.0
C748 C 0.21268 0.17574 0.78478 0.0
C749 C 0.18926 0.13561 0.80016 0.0
C750 C 0.24257 0.21217 0.80412 0.0
C751 C 0.26789 0.25582 0.7895 0.0
C752 C 0.30332 0.23913 0.77482 0.0
C753 C 0.32863 0.28071 0.76253 0.0
C754 C 0.31892 0.33903 0.76503 0.0
C755 C 0.28375 0.35596 0.77967 0.0
C756 C 0.2583 0.31452 0.79196 0.0
C757 C 0.27726 0.18272 0.94226 0.0
C758 C 0.24175 0.19739 0.95753 0.0
C759 C 0.27117 0.16978 0.90897 0.0
C760 C 0.22947 0.17104 0.89009 0.0
C761 C 0.19368 0.18287 0.90556 0.0
C762 C 0.19973 0.19584 0.93896 0.0
C763 C 0.2244 0.16881 0.85381 0.0
C764 C 0.24796 0.20847 0.83819 0.0
C765 C 0.19514 0.13132 0.83447 0.0
C766 C 0.17207 0.08529 0.84917 0.0
C767 C 0.12652 0.08536 0.84515 0.0
C768 C 0.10469 0.03959 0.85712 0.0
C769 C 0.12813 0.99305 0.87253 0.0
C770 C 0.17346 0.99265 0.87648 0.0
C771 C 0.19546 0.0389 0.8652 0.0
H772 H 0.11118 0.95736 0.88146 0.0
H773 H 0.33892 0.37107 0.75594 0.0
H774 H 0.87749 0.75728 0.83811 0.0
H775 H 0.89151 0.74657 0.78233 0.0
H776 H 0.76186 0.68063 0.75331 0.0
H777 H 0.7495 0.68674 0.80944 0.0
H778 H 0.80544 0.65231 0.70913 0.0
H779 H 0.7831 0.83756 0.76051 0.0
H780 H 0.80089 0.91376 0.80184 0.0
H781 H 0.93011 0.92451 0.77968 0.0
H782 H 0.91276 0.84927 0.73773 0.0
H783 H 0.71632 0.81607 0.57085 0.0
H784 H 0.73512 0.78624 0.62784 0.0
H785 H 0.87087 0.81119 0.62387 0.0
H786 H 0.85258 0.84034 0.56649 0.0
H787 H 0.83747 0.85452 0.68264 0.0
H788 H 0.84325 0.68406 0.61776 0.0
H789 H 0.81403 0.6166 0.57399 0.0
H790 H 0.70446 0.58264 0.62138 0.0
H791 H 0.73271 0.65061 0.6652 0.0
C792 C 0.85341 0.73609 0.82033 0.0
C793 C 0.81212 0.7239 0.82776 0.0
C794 C 0.86096 0.73139 0.78821 0.0
C795 C 0.82675 0.71639 0.76325 0.0
C796 C 0.78852 0.69372 0.77192 0.0
C797 C 0.7816 0.69649 0.80425 0.0
C798 C 0.8269 0.73488 0.72892 0.0
C799 C 0.8127 0.69642 0.70341 0.0
C800 C 0.83628 0.79259 0.72114 0.0
C801 C 0.84685 0.83748 0.74637 0.0
C802 C 0.81532 0.85615 0.76455 0.0
C803 C 0.82528 0.89919 0.78801 0.0
C804 C 0.86671 0.92351 0.79361 0.0
C805 C 0.8981 0.90543 0.77543 0.0
C806 C 0.88817 0.86285 0.7517 0.0
C807 C 0.75016 0.81645 0.58217 0.0
C808 C 0.78299 0.83032 0.56399 0.0
C809 C 0.76082 0.79883 0.61467 0.0
C810 C 0.80439 0.79546 0.62971 0.0
C811 C 0.83709 0.813 0.61246 0.0
C812 C 0.82653 0.82985 0.57976 0.0
C813 C 0.81554 0.7722 0.66322 0.0
C814 C 0.8315 0.81 0.68843 0.0
C815 C 0.80662 0.71447 0.67065 0.0
C816 C 0.78997 0.67275 0.64465 0.0
C817 C 0.81278 0.66252 0.61874 0.0
C818 C 0.79641 0.62413 0.59393 0.0
C819 C 0.75737 0.59543 0.59487 0.0
C820 C 0.73469 0.60491 0.62068 0.0
C821 C 0.7509 0.64331 0.64554 0.0
H822 H 0.74472 0.56578 0.57562 0.0
H823 H 0.87441 0.95655 0.81193 0.0
H824 H 0.72979 0.84757 0.31013 0.0
H825 H 0.74641 0.85626 0.25491 0.0
H826 H 0.86761 0.76704 0.28526 0.0
H827 H 0.85026 0.75677 0.34018 0.0
H828 H 0.8055 0.88397 0.21491 0.0
H829 H 0.87091 0.65577 0.23934 0.0
H830 H 0.86762 0.57466 0.27743 0.0
H831 H 0.74024 0.62806 0.29125 0.0
H832 H 0.74311 0.70992 0.25367 0.0
H833 H 0.85504 0.76847 0.06483 0.0
H834 H 0.86204 0.79297 0.12273 0.0
H835 H 0.74227 0.70452 0.12822 0.0
H836 H 0.7346 0.68053 0.07025 0.0
H837 H 0.80803 0.67985 0.18047 0.0
H838 H 0.73761 0.8426 0.12351 0.0
H839 H 0.72827 0.92247 0.0837 0.0
H840 H 0.84754 0.99783 0.13099 0.0
H841 H 0.85776 0.91806 0.17094 0.0
C842 C 0.76135 0.83344 0.30561 0.0
C843 C 0.78865 0.80127 0.32934 0.0
C844 C 0.7706 0.83773 0.27382 0.0
C845 C 0.80755 0.8105 0.26569 0.0
C846 C 0.83847 0.78734 0.29084 0.0
C847 C 0.82893 0.78242 0.32245 0.0
C848 C 0.80899 0.79571 0.23106 0.0
C849 C 0.80677 0.83944 0.20743 0.0
C850 C 0.80912 0.7375 0.221 0.0
C851 C 0.80743 0.68907 0.24399 0.0
C852 C 0.8423 0.65021 0.25063 0.0
C853 C 0.84055 0.60427 0.27219 0.0
C854 C 0.80384 0.59644 0.28692 0.0
C855 C 0.76879 0.63449 0.28007 0.0
C856 C 0.77054 0.68079 0.25877 0.0
C857 C 0.83052 0.75337 0.07845 0.0
C858 C 0.79427 0.72234 0.0629 0.0
C859 C 0.8344 0.76793 0.11147 0.0
C860 C 0.80245 0.7511 0.12965 0.0
C861 C 0.76721 0.71811 0.11457 0.0
C862 C 0.76293 0.70432 0.08146 0.0
C863 C 0.80542 0.76803 0.16436 0.0
C864 C 0.80803 0.72451 0.18798 0.0
C865 C 0.8045 0.8263 0.17412 0.0
C866 C 0.79873 0.87398 0.14996 0.0
C867 C 0.76208 0.87588 0.12521 0.0
C868 C 0.75655 0.92122 0.10268 0.0
C869 C 0.78737 0.96509 0.10474 0.0
C870 C 0.82373 0.96376 0.12939 0.0
C871 C 0.82938 0.91853 0.152 0.0
H872 H 0.78301 0.00019 0.08731 0.0
H873 H 0.80248 0.56078 0.30354 0.0
H874 H 0.13817 0.23481 0.44029 0.0
H875 H 0.12936 0.24786 0.38127 0.0
H876 H 0.24444 0.14576 0.37898 0.0
H877 H 0.25448 0.13482 0.43826 0.0
H878 H 0.24942 0.23651 0.34512 0.0
H879 H 0.13561 0.09855 0.34966 0.0
H880 H 0.06935 0.0602 0.36691 0.0
H881 H 0.99687 0.20684 0.32463 0.0
H882 H 0.06287 0.24639 0.30746 0.0
H883 H 0.23158 0.13486 0.18886 0.0
H884 H 0.21914 0.14151 0.24442 0.0
H885 H 0.14782 0.29936 0.22156 0.0
H886 H 0.16093 0.29339 0.16463 0.0
H887 H 0.11458 0.19963 0.26649 0.0
H888 H 0.23244 0.32914 0.25622 0.0
H889 H 0.29965 0.35525 0.23585 0.0
H890 H 0.3661 0.21235 0.28771 0.0
H891 H 0.29894 0.18434 0.3077 0.0
C892 C 0.16116 0.21419 0.42715 0.0
C893 C 0.19704 0.18368 0.44398 0.0
C894 C 0.15606 0.22171 0.39331 0.0
C895 C 0.18612 0.19768 0.37548 0.0
C896 C 0.22096 0.16517 0.39215 0.0
C897 C 0.22653 0.15856 0.42603 0.0
C898 C 0.18278 0.20852 0.33978 0.0
C899 C 0.21986 0.22829 0.32806 0.0
C900 C 0.14394 0.19948 0.31733 0.0
C901 C 0.10428 0.17575 0.32763 0.0
C902 C 0.10562 0.12283 0.34428 0.0
C903 C 0.0681 0.10083 0.35399 0.0
C904 C 0.02896 0.13116 0.34696 0.0
C905 C 0.02723 0.18346 0.33011 0.0
C906 C 0.06467 0.20566 0.32036 0.0
C907 C 0.21299 0.17094 0.19512 0.0
C908 C 0.19789 0.21399 0.17214 0.0
C909 C 0.20568 0.17444 0.22708 0.0
C910 C 0.18293 0.22105 0.23709 0.0
C911 C 0.16549 0.26296 0.21412 0.0
C912 C 0.173 0.2595 0.18171 0.0
C913 C 0.18122 0.22652 0.27227 0.0
C914 C 0.14355 0.20937 0.28387 0.0
C915 C 0.21966 0.23704 0.29464 0.0
C916 C 0.26051 0.25452 0.28335 0.0
C917 C 0.26127 0.30299 0.26309 0.0
C918 C 0.29936 0.31809 0.25158 0.0
C919 C 0.33707 0.28533 0.26039 0.0
C920 C 0.3368 0.23753 0.28083 0.0
C921 C 0.29873 0.22206 0.29228 0.0
H922 H 0.36652 0.29708 0.25147 0.0
H923 H -5e-05 0.11406 0.3545 0.0
loop_
_geom_bond_atom_site_label_1
_geom_bond_atom_site_label_2
_geom_bond_distance
_geom_bond_site_symmetry_2
_ccdc_geom_bond_type
C0 O27 1.312 . S
C0 O28 1.208 . S
C1 O22 1.331 . S
C1 O25 1.244 . S
C2 O24 1.264 . S
C2 O26 1.273 . S
Mg3 O5 1.936 . S
Mg3 O12 2.081 1_545 S
Mg3 O14 2.023 1_545 S
Mg3 O18 2.031 . S
Mg3 O27 2.291 . S
Mg4 O5 1.963 1_565 S
Mg4 O15 1.942 . S
Mg4 O16 1.955 . S
Mg4 O23 1.986 1_565 S
O5 Mg3 1.936 . S
O5 Mg4 1.963 1_545 S
O5 Mg6 1.915 . S
Mg6 O5 1.915 . S
Mg6 O7 1.915 . S
Mg6 O11 2.013 . S
Mg6 O17 2.114 . S
Mg6 O21 2.013 . S
Mg6 O27 2.114 . S
O7 Mg6 1.915 . S
O7 Mg8 1.936 . S
O7 Mg9 1.963 . S
Mg8 O7 1.936 . S
Mg8 O17 2.291 . S
Mg8 O22 2.081 . S
Mg8 O24 2.023 . S
Mg8 O28 2.031 . S
Mg9 O7 1.963 . S
Mg9 O13 1.986 . S
Mg9 O25 1.942 . S
Mg9 O26 1.955 . S
C10 O21 1.191 . S
C10 O23 1.307 . S
O11 Mg6 2.013 . S
O11 C30 1.191 . S
O12 Mg3 2.081 1_565 S
O12 C20 1.331 . S
O13 Mg9 1.986 . S
O13 C30 1.307 . S
O14 Mg3 2.023 1_565 S
O14 C29 1.264 . S
O15 Mg4 1.942 . S
O15 C20 1.244 . S
O16 Mg4 1.955 . S
O16 C29 1.273 . S
O17 Mg6 2.114 . S
O17 Mg8 2.291 . S
O17 C19 1.312 . S
O18 Mg3 2.031 . S
O18 C19 1.208 . S
C19 O17 1.312 . S
C19 O18 1.208 . S
C20 O12 1.331 . S
C20 O15 1.244 . S
O21 Mg6 2.013 . S
O21 C10 1.191 . S
O22 C1 1.331 . S
O22 Mg8 2.081 . S
O23 Mg4 1.986 1_545 S
O23 C10 1.307 . S
O24 C2 1.264 . S
O24 Mg8 2.023 . S
O25 C1 1.244 . S
O25 Mg9 1.942 . S
O26 C2 1.273 . S
O26 Mg9 1.955 . S
O27 C0 1.312 . S
O27 Mg3 2.291 . S
O27 Mg6 2.114 . S
O28 C0 1.208 . S
O28 Mg8 2.031 . S
C29 O14 1.264 . S
C29 O16 1.273 . S
C30 O11 1.191 . S
C30 O13 1.307 . S
C31 O58 1.312 . S
C31 O59 1.208 . S
C32 O53 1.331 . S
C32 O56 1.244 . S
C33 O55 1.264 . S
C33 O57 1.273 . S
Mg34 O36 1.936 . S
Mg34 O43 2.081 . S
Mg34 O45 2.023 . S
Mg34 O49 2.031 . S
Mg34 O58 2.291 . S
Mg35 O36 1.963 . S
Mg35 O46 1.942 . S
Mg35 O47 1.955 . S
Mg35 O54 1.986 . S
O36 Mg34 1.936 . S
O36 Mg35 1.963 . S
O36 Mg37 1.915 . S
Mg37 O36 1.915 . S
Mg37 O38 1.915 . S
Mg37 O42 2.013 . S
Mg37 O48 2.114 . S
Mg37 O52 2.013 . S
Mg37 O58 2.114 . S
O38 Mg37 1.915 . S
O38 Mg39 1.936 . S
O38 Mg40 1.963 . S
Mg39 O38 1.936 . S
Mg39 O48 2.291 . S
Mg39 O53 2.081 . S
Mg39 O55 2.023 . S
Mg39 O59 2.031 . S
Mg40 O38 1.963 . S
Mg40 O44 1.986 . S
Mg40 O56 1.942 . S
Mg40 O57 1.955 . S
C41 O52 1.191 . S
C41 O54 1.307 . S
O42 Mg37 2.013 . S
O42 C61 1.191 . S
O43 Mg34 2.081 . S
O43 C51 1.331 . S
O44 Mg40 1.986 . S
O44 C61 1.307 . S
O45 Mg34 2.023 . S
O45 C60 1.264 . S
O46 Mg35 1.942 . S
O46 C51 1.244 . S
O47 Mg35 1.955 . S
O47 C60 1.273 . S
O48 Mg37 2.114 . S
O48 Mg39 2.291 . S
O48 C50 1.312 . S
O49 Mg34 2.031 . S
O49 C50 1.208 . S
C50 O48 1.312 . S
C50 O49 1.208 . S
C51 O43 1.331 . S
C51 O46 1.244 . S
O52 Mg37 2.013 . S
O52 C41 1.191 . S
O53 C32 1.331 . S
O53 Mg39 2.081 . S
O54 Mg35 1.986 . S
O54 C41 1.307 . S
O55 C33 1.264 . S
O55 Mg39 2.023 . S
O56 C32 1.244 . S
O56 Mg40 1.942 . S
O57 C33 1.273 . S
O57 Mg40 1.955 . S
O58 C31 1.312 . S
O58 Mg34 2.291 . S
O58 Mg37 2.114 . S
O59 C31 1.208 . S
O59 Mg39 2.031 . S
C60 O45 1.264 . S
C60 O47 1.273 . S
C61 O42 1.191 . S
C61 O44 1.307 . S
C62 O89 1.312 . S
C62 O90 1.208 . S
C63 O84 1.331 . S
C63 O87 1.244 . S
C64 O86 1.264 . S
C64 O88 1.273 . S
Mg65 O67 1.936 . S
Mg65 O74 2.081 1_565 S
Mg65 O76 2.023 1_565 S
Mg65 O80 2.031 . S
Mg65 O89 2.291 . S
Mg66 O67 1.963 . S
Mg66 O77 1.942 1_565 S
Mg66 O78 1.955 1_565 S
Mg66 O85 1.986 . S
O67 Mg65 1.936 . S
O67 Mg66 1.963 . S
O67 Mg68 1.915 . S
Mg68 O67 1.915 . S
Mg68 O69 1.915 . S
Mg68 O73 2.013 . S
Mg68 O79 2.114 . S
Mg68 O83 2.013 . S
Mg68 O89 2.114 . S
O69 Mg68 1.915 . S
O69 Mg70 1.936 . S
O69 Mg71 1.963 . S
Mg70 O69 1.936 . S
Mg70 O79 2.291 . S
Mg70 O84 2.081 . S
Mg70 O86 2.023 . S
Mg70 O90 2.031 . S
Mg71 O69 1.963 . S
Mg71 O75 1.986 . S
Mg71 O87 1.942 . S
Mg71 O88 1.955 . S
C72 O83 1.191 . S
C72 O85 1.307 . S
O73 Mg68 2.013 . S
O73 C92 1.191 . S
O74 Mg65 2.081 1_545 S
O74 C82 1.331 . S
O75 Mg71 1.986 . S
O75 C92 1.307 . S
O76 Mg65 2.023 1_545 S
O76 C91 1.264 . S
O77 Mg66 1.942 1_545 S
O77 C82 1.244 . S
O78 Mg66 1.955 1_545 S
O78 C91 1.273 . S
O79 Mg68 2.114 . S
O79 Mg70 2.291 . S
O79 C81 1.312 . S
O80 Mg65 2.031 . S
O80 C81 1.208 . S
C81 O79 1.312 . S
C81 O80 1.208 . S
C82 O74 1.331 . S
C82 O77 1.244 . S
O83 Mg68 2.013 . S
O83 C72 1.191 . S
O84 C63 1.331 . S
O84 Mg70 2.081 . S
O85 Mg66 1.986 . S
O85 C72 1.307 . S
O86 C64 1.264 . S
O86 Mg70 2.023 . S
O87 C63 1.244 . S
O87 Mg71 1.942 . S
O88 C64 1.273 . S
O88 Mg71 1.955 . S
O89 C62 1.312 . S
O89 Mg65 2.291 . S
O89 Mg68 2.114 . S
O90 C62 1.208 . S
O90 Mg70 2.031 . S
C91 O76 1.264 . S
C91 O78 1.273 . S
C92 O73 1.191 . S
C92 O75 1.307 . S
C93 O120 1.312 . S
C93 O121 1.208 . S
C94 O115 1.331 . S
C94 O118 1.244 . S
C95 O117 1.264 . S
C95 O119 1.273 . S
Mg96 O98 1.936 . S
Mg96 O105 2.081 . S
Mg96 O107 2.023 . S
Mg96 O111 2.031 . S
Mg96 O120 2.291 . S
Mg97 O98 1.963 . S
Mg97 O108 1.942 . S
Mg97 O109 1.955 . S
Mg97 O116 1.986 . S
O98 Mg96 1.936 . S
O98 Mg97 1.963 . S
O98 Mg99 1.915 . S
Mg99 O98 1.915 . S
Mg99 O100 1.915 . S
Mg99 O104 2.013 . S
Mg99 O110 2.114 . S
Mg99 O114 2.013 . S
Mg99 O120 2.114 . S
O100 Mg99 1.915 . S
O100 Mg101 1.936 . S
O100 Mg102 1.963 . S
Mg101 O100 1.936 . S
Mg101 O110 2.291 . S
Mg101 O115 2.081 . S
Mg101 O117 2.023 . S
Mg101 O121 2.031 . S
Mg102 O100 1.963 . S
Mg102 O106 1.986 . S
Mg102 O118 1.942 . S
Mg102 O119 1.955 . S
C103 O114 1.191 . S
C103 O116 1.307 . S
O104 Mg99 2.013 . S
O104 C123 1.191 . S
O105 Mg96 2.081 . S
O105 C113 1.331 . S
O106 Mg102 1.986 . S
O106 C123 1.307 . S
O107 Mg96 2.023 . S
O107 C122 1.264 . S
O108 Mg97 1.942 . S
O108 C113 1.244 . S
O109 Mg97 1.955 . S
O109 C122 1.273 . S
O110 Mg99 2.114 . S
O110 Mg101 2.291 . S
O110 C112 1.312 . S
O111 Mg96 2.031 . S
O111 C112 1.208 . S
C112 O110 1.312 . S
C112 O111 1.208 . S
C113 O105 1.331 . S
C113 O108 1.244 . S
O114 Mg99 2.013 . S
O114 C103 1.191 . S
O115 C94 1.331 . S
O115 Mg101 2.081 . S
O116 Mg97 1.986 . S
O116 C103 1.307 . S
O117 C95 1.264 . S
O117 Mg101 2.023 . S
O118 C94 1.244 . S
O118 Mg102 1.942 . S
O119 C95 1.273 . S
O119 Mg102 1.955 . S
O120 C93 1.312 . S
O120 Mg96 2.291 . S
O120 Mg99 2.114 . S
O121 C93 1.208 . S
O121 Mg101 2.031 . S
C122 O107 1.264 . S
C122 O109 1.273 . S
C123 O104 1.191 . S
C123 O106 1.307 . S
H124 C142 0.951 . S
H125 C144 0.951 . S
H126 C146 0.950 . S
H127 C147 0.950 . S
H128 C149 0.950 . S
H129 C152 0.950 . S
H130 C153 0.950 . S
H131 C155 0.950 . S
H132 C156 0.950 . S
H133 C157 0.951 . S
H134 C159 0.951 . S
H135 C161 0.950 . S
H136 C162 0.950 . S
H137 C164 0.950 . S
H138 C167 0.950 . S
H139 C168 0.950 . S
H140 C170 0.950 . S
H141 C171 0.950 . S
C142 H124 0.951 . S
C142 C143 1.366 . S
C142 C144 1.388 . S
C143 C142 1.366 . S
C143 C147 1.385 . S
C144 H125 0.951 . S
C144 C142 1.388 . S
C144 C145 1.366 . S
C145 C144 1.366 . S
C145 C146 1.414 . S
C145 C148 1.499 . S
C146 H126 0.950 . S
C146 C145 1.414 . S
C146 C147 1.374 . S
C147 H127 0.950 . S
C147 C143 1.385 . S
C147 C146 1.374 . S
C148 C145 1.499 . S
C148 C149 1.373 . S
C148 C150 1.389 . S
C149 H128 0.950 . S
C149 C148 1.373 . S
C149 C165 1.377 . S
C150 C148 1.389 . S
C150 C151 1.524 . S
C150 C164 1.377 . S
C151 C150 1.524 . S
C151 C152 1.397 . S
C151 C156 1.363 . S
C152 H129 0.950 . S
C152 C151 1.397 . S
C152 C153 1.334 . S
C153 H130 0.950 . S
C153 C152 1.334 . S
C153 C154 1.287 . S
C154 C153 1.287 . S
C154 C155 1.524 . S
C154 H173 0.913 . S
C155 H131 0.950 . S
C155 C154 1.524 . S
C155 C156 1.415 . S
C156 H132 0.950 . S
C156 C151 1.363 . S
C156 C155 1.415 . S
C157 H133 0.951 . S
C157 C158 1.366 . S
C157 C159 1.388 . S
C158 C157 1.366 . S
C158 C162 1.385 . S
C159 H134 0.951 . S
C159 C157 1.388 . S
C159 C160 1.366 . S
C160 C159 1.366 . S
C160 C161 1.414 . S
C160 C163 1.499 . S
C161 H135 0.950 . S
C161 C160 1.414 . S
C161 C162 1.374 . S
C162 H136 0.950 . S
C162 C158 1.385 . S
C162 C161 1.374 . S
C163 C160 1.499 . S
C163 C164 1.373 . S
C163 C165 1.389 . S
C164 H137 0.950 . S
C164 C150 1.377 . S
C164 C163 1.373 . S
C165 C149 1.377 . S
C165 C163 1.389 . S
C165 C166 1.524 . S
C166 C165 1.524 . S
C166 C167 1.397 . S
C166 C171 1.363 . S
C167 H138 0.950 . S
C167 C166 1.397 . S
C167 C168 1.334 . S
C168 H139 0.950 . S
C168 C167 1.334 . S
C168 C169 1.287 . S
C169 C168 1.287 . S
C169 C170 1.524 . S
C169 H172 0.999 . S
C170 H140 0.950 . S
C170 C169 1.524 . S
C170 C171 1.415 . S
C171 H141 0.950 . S
C171 C166 1.363 . S
C171 C170 1.415 . S
H172 C169 0.999 . S
H173 C154 0.913 . S
H174 C192 0.951 . S
H175 C194 0.951 . S
H176 C196 0.950 . S
H177 C197 0.950 . S
H178 C199 0.950 . S
H179 C202 0.950 . S
H180 C203 0.950 . S
H181 C205 0.950 . S
H182 C206 0.950 . S
H183 C207 0.951 . S
H184 C209 0.951 . S
H185 C211 0.950 . S
H186 C212 0.950 . S
H187 C214 0.950 . S
H188 C217 0.950 . S
H189 C218 0.950 . S
H190 C220 0.950 . S
H191 C221 0.950 . S
C192 H174 0.951 . S
C192 C193 1.366 . S
C192 C194 1.388 . S
C193 C192 1.366 . S
C193 C197 1.385 . S
C194 H175 0.951 . S
C194 C192 1.388 . S
C194 C195 1.366 . S
C195 C194 1.366 . S
C195 C196 1.414 . S
C195 C198 1.499 1_565 S
C196 H176 0.950 . S
C196 C195 1.414 . S
C196 C197 1.374 . S
C197 H177 0.950 . S
C197 C193 1.385 . S
C197 C196 1.374 . S
C198 C195 1.499 1_545 S
C198 C199 1.373 . S
C198 C200 1.389 . S
C199 H178 0.950 . S
C199 C198 1.373 . S
C199 C215 1.377 . S
C200 C198 1.389 . S
C200 C201 1.524 . S
C200 C214 1.377 . S
C201 C200 1.524 . S
C201 C202 1.397 . S
C201 C206 1.363 . S
C202 H179 0.950 . S
C202 C201 1.397 . S
C202 C203 1.334 1_545 S
C203 H180 0.950 . S
C203 C202 1.334 1_565 S
C203 C204 1.287 1_565 S
C204 C203 1.287 1_545 S
C204 C205 1.524 . S
C204 H223 0.913 1_545 S
C205 H181 0.950 . S
C205 C204 1.524 . S
C205 C206 1.415 . S
C206 H182 0.950 . S
C206 C201 1.363 . S
C206 C205 1.415 . S
C207 H183 0.951 . S
C207 C208 1.366 . S
C207 C209 1.388 . S
C208 C207 1.366 . S
C208 C212 1.385 . S
C209 H184 0.951 . S
C209 C207 1.388 . S
C209 C210 1.366 . S
C210 C209 1.366 . S
C210 C211 1.414 . S
C210 C213 1.499 . S
C211 H185 0.950 . S
C211 C210 1.414 . S
C211 C212 1.374 . S
C212 H186 0.950 . S
C212 C208 1.385 . S
C212 C211 1.374 . S
C213 C210 1.499 . S
C213 C214 1.373 . S
C213 C215 1.389 . S
C214 H187 0.950 . S
C214 C200 1.377 . S
C214 C213 1.373 . S
C215 C199 1.377 . S
C215 C213 1.389 . S
C215 C216 1.524 . S
C216 C215 1.524 . S
C216 C217 1.397 . S
C216 C221 1.363 . S
C217 H188 0.950 . S
C217 C216 1.397 . S
C217 C218 1.334 . S
C218 H189 0.950 . S
C218 C217 1.334 . S
C218 C219 1.287 . S
C219 C218 1.287 . S
C219 C220 1.524 . S
C219 H222 0.999 . S
C220 H190 0.950 . S
C220 C219 1.524 . S
C220 C221 1.415 . S
C221 H191 0.950 . S
C221 C216 1.363 . S
C221 C220 1.415 . S
H222 C219 0.999 . S
H223 C204 0.913 1_565 S
H224 C242 0.951 . S
H225 C244 0.951 . S
H226 C246 0.950 . S
H227 C247 0.950 . S
H228 C249 0.950 . S
H229 C252 0.950 . S
H230 C253 0.950 . S
H231 C255 0.950 . S
H232 C256 0.950 . S
H233 C257 0.951 . S
H234 C259 0.951 . S
H235 C261 0.950 . S
H236 C262 0.950 . S
H237 C264 0.950 . S
H238 C267 0.950 . S
H239 C268 0.950 1_554 S
H240 C270 0.950 . S
H241 C271 0.950 . S
C242 H224 0.951 . S
C242 C243 1.366 . S
C242 C244 1.388 . S
C243 C242 1.366 . S
C243 C247 1.385 . S
C244 H225 0.951 . S
C244 C242 1.388 . S
C244 C245 1.366 . S
C245 C244 1.366 . S
C245 C246 1.414 . S
C245 C248 1.499 . S
C246 H226 0.950 . S
C246 C245 1.414 . S
C246 C247 1.374 . S
C247 H227 0.950 . S
C247 C243 1.385 . S
C247 C246 1.374 . S
C248 C245 1.499 . S
C248 C249 1.373 . S
C248 C250 1.389 . S
C249 H228 0.950 . S
C249 C248 1.373 . S
C249 C265 1.377 . S
C250 C248 1.389 . S
C250 C251 1.524 . S
C250 C264 1.377 . S
C251 C250 1.524 . S
C251 C252 1.397 . S
C251 C256 1.363 . S
C252 H229 0.950 . S
C252 C251 1.397 . S
C252 C253 1.334 . S
C253 H230 0.950 . S
C253 C252 1.334 . S
C253 C254 1.287 . S
C254 C253 1.287 . S
C254 C255 1.524 . S
C254 H273 0.913 . S
C255 H231 0.950 . S
C255 C254 1.524 . S
C255 C256 1.415 . S
C256 H232 0.950 . S
C256 C251 1.363 . S
C256 C255 1.415 . S
C257 H233 0.951 . S
C257 C258 1.366 . S
C257 C259 1.388 . S
C258 C257 1.366 . S
C258 C262 1.385 . S
C259 H234 0.951 . S
C259 C257 1.388 . S
C259 C260 1.366 . S
C260 C259 1.366 . S
C260 C261 1.414 . S
C260 C263 1.499 . S
C261 H235 0.950 . S
C261 C260 1.414 . S
C261 C262 1.374 . S
C262 H236 0.950 . S
C262 C258 1.385 . S
C262 C261 1.374 . S
C263 C260 1.499 . S
C263 C264 1.373 . S
C263 C265 1.389 . S
C264 H237 0.950 . S
C264 C250 1.377 . S
C264 C263 1.373 . S
C265 C249 1.377 . S
C265 C263 1.389 . S
C265 C266 1.524 . S
C266 C265 1.524 . S
C266 C267 1.397 . S
C266 C271 1.363 . S
C267 H238 0.950 . S
C267 C266 1.397 . S
C267 C268 1.334 . S
C268 H239 0.950 1_556 S
C268 C267 1.334 . S
C268 C269 1.287 . S
C269 C268 1.287 . S
C269 C270 1.524 . S
C269 H272 0.999 1_556 S
C270 H240 0.950 . S
C270 C269 1.524 . S
C270 C271 1.415 . S
C271 H241 0.950 . S
C271 C266 1.363 . S
C271 C270 1.415 . S
H272 C269 0.999 1_554 S
H273 C254 0.913 . S
H274 C292 0.951 . S
H275 C294 0.951 . S
H276 C296 0.950 . S
H277 C297 0.950 . S
H278 C299 0.950 . S
H279 C302 0.950 . S
H280 C303 0.950 . S
H281 C305 0.950 . S
H282 C306 0.950 . S
H283 C307 0.951 . S
H284 C309 0.951 . S
H285 C311 0.950 . S
H286 C312 0.950 . S
H287 C314 0.950 . S
H288 C317 0.950 . S
H289 C318 0.950 . S
H290 C320 0.950 . S
H291 C321 0.950 . S
C292 H274 0.951 . S
C292 C293 1.366 . S
C292 C294 1.388 . S
C293 C292 1.366 . S
C293 C297 1.385 . S
C294 H275 0.951 . S
C294 C292 1.388 . S
C294 C295 1.366 . S
C295 C294 1.366 . S
C295 C296 1.414 . S
C295 C298 1.499 1_545 S
C296 H276 0.950 . S
C296 C295 1.414 . S
C296 C297 1.374 . S
C297 H277 0.950 . S
C297 C293 1.385 . S
C297 C296 1.374 . S
C298 C295 1.499 1_565 S
C298 C299 1.373 . S
C298 C300 1.389 . S
C299 H278 0.950 . S
C299 C298 1.373 . S
C299 C315 1.377 . S
C300 C298 1.389 . S
C300 C301 1.524 . S
C300 C314 1.377 . S
C301 C300 1.524 . S
C301 C302 1.397 . S
C301 C306 1.363 . S
C302 H279 0.950 . S
C302 C301 1.397 . S
C302 C303 1.334 1_565 S
C303 H280 0.950 . S
C303 C302 1.334 1_545 S
C303 C304 1.287 . S
C304 C303 1.287 . S
C304 C305 1.524 1_545 S
C304 H323 0.913 . S
C305 H281 0.950 . S
C305 C304 1.524 1_565 S
C305 C306 1.415 . S
C306 H282 0.950 . S
C306 C301 1.363 . S
C306 C305 1.415 . S
C307 H283 0.951 . S
C307 C308 1.366 . S
C307 C309 1.388 . S
C308 C307 1.366 . S
C308 C312 1.385 . S
C309 H284 0.951 . S
C309 C307 1.388 . S
C309 C310 1.366 . S
C310 C309 1.366 . S
C310 C311 1.414 . S
C310 C313 1.499 . S
C311 H285 0.950 . S
C311 C310 1.414 . S
C311 C312 1.374 . S
C312 H286 0.950 . S
C312 C308 1.385 . S
C312 C311 1.374 . S
C313 C310 1.499 . S
C313 C314 1.373 . S
C313 C315 1.389 . S
C314 H287 0.950 . S
C314 C300 1.377 . S
C314 C313 1.373 . S
C315 C299 1.377 . S
C315 C313 1.389 . S
C315 C316 1.524 . S
C316 C315 1.524 . S
C316 C317 1.397 . S
C316 C321 1.363 . S
C317 H288 0.950 . S
C317 C316 1.397 . S
C317 C318 1.334 . S
C318 H289 0.950 . S
C318 C317 1.334 . S
C318 C319 1.287 . S
C319 C318 1.287 . S
C319 C320 1.524 . S
C319 H322 0.999 . S
C320 H290 0.950 . S
C320 C319 1.524 . S
C320 C321 1.415 . S
C321 H291 0.950 . S
C321 C316 1.363 . S
C321 C320 1.415 . S
H322 C319 0.999 . S
H323 C304 0.913 . S
H324 C342 0.951 . S
H325 C344 0.951 . S
H326 C346 0.950 . S
H327 C347 0.950 . S
H328 C349 0.950 . S
H329 C352 0.950 . S
H330 C353 0.950 . S
H331 C355 0.950 . S
H332 C356 0.950 . S
H333 C357 0.951 . S
H334 C359 0.951 . S
H335 C361 0.950 . S
H336 C362 0.950 . S
H337 C364 0.950 . S
H338 C367 0.950 . S
H339 C368 0.950 1_545 S
H340 C370 0.950 . S
H341 C371 0.950 . S
C342 H324 0.951 . S
C342 C343 1.366 . S
C342 C344 1.388 . S
C343 C342 1.366 . S
C343 C347 1.385 . S
C344 H325 0.951 . S
C344 C342 1.388 . S
C344 C345 1.366 . S
C345 C344 1.366 . S
C345 C346 1.414 . S
C345 C348 1.499 . S
C346 H326 0.950 . S
C346 C345 1.414 . S
C346 C347 1.374 . S
C347 H327 0.950 . S
C347 C343 1.385 . S
C347 C346 1.374 . S
C348 C345 1.499 . S
C348 C349 1.373 . S
C348 C350 1.389 . S
C349 H328 0.950 . S
C349 C348 1.373 . S
C349 C365 1.377 . S
C350 C348 1.389 . S
C350 C351 1.524 . S
C350 C364 1.377 . S
C351 C350 1.524 . S
C351 C352 1.397 . S
C351 C356 1.363 . S
C352 H329 0.950 . S
C352 C351 1.397 . S
C352 C353 1.334 . S
C353 H330 0.950 . S
C353 C352 1.334 . S
C353 C354 1.287 . S
C354 C353 1.287 . S
C354 C355 1.524 . S
C354 H373 0.913 . S
C355 H331 0.950 . S
C355 C354 1.524 . S
C355 C356 1.415 . S
C356 H332 0.950 . S
C356 C351 1.363 . S
C356 C355 1.415 . S
C357 H333 0.951 . S
C357 C358 1.366 . S
C357 C359 1.388 . S
C358 C357 1.366 . S
C358 C362 1.384 1_565 S
C359 H334 0.951 . S
C359 C357 1.388 . S
C359 C360 1.366 . S
C360 C359 1.366 . S
C360 C361 1.414 . S
C360 C363 1.499 . S
C361 H335 0.950 . S
C361 C360 1.414 . S
C361 C362 1.373 1_565 S
C362 H336 0.950 . S
C362 C358 1.384 1_545 S
C362 C361 1.373 1_545 S
C363 C360 1.499 . S
C363 C364 1.373 . S
C363 C365 1.389 . S
C364 H337 0.950 . S
C364 C350 1.377 . S
C364 C363 1.373 . S
C365 C349 1.377 . S
C365 C363 1.389 . S
C365 C366 1.524 . S
C366 C365 1.524 . S
C366 C367 1.397 . S
C366 C371 1.363 . S
C367 H338 0.950 . S
C367 C366 1.397 . S
C367 C368 1.334 . S
C368 H339 0.950 1_565 S
C368 C367 1.334 . S
C368 C369 1.287 . S
C369 C368 1.287 . S
C369 C370 1.524 . S
C369 H372 0.999 . S
C370 H340 0.950 . S
C370 C369 1.524 . S
C370 C371 1.415 . S
C371 H341 0.950 . S
C371 C366 1.363 . S
C371 C370 1.415 . S
H372 C369 0.999 . S
H373 C354 0.913 . S
H374 C392 0.951 . S
H375 C394 0.951 . S
H376 C396 0.950 . S
H377 C397 0.950 . S
H378 C399 0.950 . S
H379 C402 0.950 . S
H380 C403 0.950 . S
H381 C405 0.950 . S
H382 C406 0.950 . S
H383 C407 0.951 . S
H384 C409 0.951 . S
H385 C411 0.950 . S
H386 C412 0.950 . S
H387 C414 0.950 . S
H388 C417 0.950 . S
H389 C418 0.950 . S
H390 C420 0.950 . S
H391 C421 0.950 . S
C392 H374 0.951 . S
C392 C393 1.366 . S
C392 C394 1.388 . S
C393 C392 1.366 . S
C393 C397 1.385 . S
C394 H375 0.951 . S
C394 C392 1.388 . S
C394 C395 1.366 . S
C395 C394 1.366 . S
C395 C396 1.414 . S
C395 C398 1.499 . S
C396 H376 0.950 . S
C396 C395 1.414 . S
C396 C397 1.374 . S
C397 H377 0.950 . S
C397 C393 1.385 . S
C397 C396 1.374 . S
C398 C395 1.499 . S
C398 C399 1.373 . S
C398 C400 1.389 . S
C399 H378 0.950 . S
C399 C398 1.373 . S
C399 C415 1.377 . S
C400 C398 1.389 . S
C400 C401 1.524 . S
C400 C414 1.377 . S
C401 C400 1.524 . S
C401 C402 1.397 . S
C401 C406 1.363 . S
C402 H379 0.950 . S
C402 C401 1.397 . S
C402 C403 1.334 . S
C403 H380 0.950 . S
C403 C402 1.334 . S
C403 C404 1.287 . S
C404 C403 1.287 . S
C404 C405 1.524 . S
C404 H423 0.913 . S
C405 H381 0.950 . S
C405 C404 1.524 . S
C405 C406 1.415 . S
C406 H382 0.950 . S
C406 C401 1.363 . S
C406 C405 1.415 . S
C407 H383 0.951 . S
C407 C408 1.366 . S
C407 C409 1.388 . S
C408 C407 1.366 . S
C408 C412 1.385 . S
C409 H384 0.951 . S
C409 C407 1.388 . S
C409 C410 1.366 . S
C410 C409 1.366 . S
C410 C411 1.414 . S
C410 C413 1.499 . S
C411 H385 0.950 . S
C411 C410 1.414 . S
C411 C412 1.374 . S
C412 H386 0.950 . S
C412 C408 1.385 . S
C412 C411 1.374 . S
C413 C410 1.499 . S
C413 C414 1.373 . S
C413 C415 1.389 . S
C414 H387 0.950 . S
C414 C400 1.377 . S
C414 C413 1.373 . S
C415 C399 1.377 . S
C415 C413 1.389 . S
C415 C416 1.524 . S
C416 C415 1.524 . S
C416 C417 1.397 . S
C416 C421 1.363 . S
C417 H388 0.950 . S
C417 C416 1.397 . S
C417 C418 1.334 . S
C418 H389 0.950 . S
C418 C417 1.334 . S
C418 C419 1.287 . S
C419 C418 1.287 . S
C419 C420 1.524 . S
C419 H422 0.999 . S
C420 H390 0.950 . S
C420 C419 1.524 . S
C420 C421 1.415 . S
C421 H391 0.950 . S
C421 C416 1.363 . S
C421 C420 1.415 . S
H422 C419 0.999 . S
H423 C404 0.913 . S
H424 C442 0.951 . S
H425 C444 0.951 . S
H426 C446 0.950 . S
H427 C447 0.950 . S
H428 C449 0.950 . S
H429 C452 0.950 . S
H430 C453 0.950 . S
H431 C455 0.950 . S
H432 C456 0.950 . S
H433 C457 0.951 . S
H434 C459 0.951 . S
H435 C461 0.950 . S
H436 C462 0.950 1_565 S
H437 C464 0.950 . S
H438 C467 0.950 . S
H439 C468 0.950 1_565 S
H440 C470 0.950 . S
H441 C471 0.950 . S
C442 H424 0.951 . S
C442 C443 1.366 . S
C442 C444 1.388 . S
C443 C442 1.366 . S
C443 C447 1.385 . S
C444 H425 0.951 . S
C444 C442 1.388 . S
C444 C445 1.366 . S
C445 C444 1.366 . S
C445 C446 1.414 . S
C445 C448 1.499 . S
C446 H426 0.950 . S
C446 C445 1.414 . S
C446 C447 1.374 . S
C447 H427 0.950 . S
C447 C443 1.385 . S
C447 C446 1.374 . S
C448 C445 1.499 . S
C448 C449 1.373 . S
C448 C450 1.389 . S
C449 H428 0.950 . S
C449 C448 1.373 . S
C449 C465 1.377 . S
C450 C448 1.389 . S
C450 C451 1.524 . S
C450 C464 1.377 . S
C451 C450 1.524 . S
C451 C452 1.397 . S
C451 C456 1.363 . S
C452 H429 0.950 . S
C452 C451 1.397 . S
C452 C453 1.334 . S
C453 H430 0.950 . S
C453 C452 1.334 . S
C453 C454 1.287 . S
C454 C453 1.287 . S
C454 C455 1.524 . S
C454 H473 0.913 . S
C455 H431 0.950 . S
C455 C454 1.524 . S
C455 C456 1.415 . S
C456 H432 0.950 . S
C456 C451 1.363 . S
C456 C455 1.415 . S
C457 H433 0.951 . S
C457 C458 1.366 . S
C457 C459 1.388 . S
C458 C457 1.366 . S
C458 C462 1.385 . S
C459 H434 0.951 . S
C459 C457 1.388 . S
C459 C460 1.366 . S
C460 C459 1.366 . S
C460 C461 1.414 . S
C460 C463 1.499 . S
C461 H435 0.950 . S
C461 C460 1.414 . S
C461 C462 1.374 . S
C462 H436 0.950 1_545 S
C462 C458 1.385 . S
C462 C461 1.374 . S
C463 C460 1.499 . S
C463 C464 1.373 . S
C463 C465 1.389 . S
C464 H437 0.950 . S
C464 C450 1.377 . S
C464 C463 1.373 . S
C465 C449 1.377 . S
C465 C463 1.389 . S
C465 C466 1.524 . S
C466 C465 1.524 . S
C466 C467 1.397 . S
C466 C471 1.363 . S
C467 H438 0.950 . S
C467 C466 1.397 . S
C467 C468 1.334 . S
C468 H439 0.950 1_545 S
C468 C467 1.334 . S
C468 C469 1.287 . S
C469 C468 1.287 . S
C469 C470 1.524 . S
C469 H472 0.999 . S
C470 H440 0.950 . S
C470 C469 1.524 . S
C470 C471 1.415 . S
C471 H441 0.950 . S
C471 C466 1.363 . S
C471 C470 1.415 . S
H472 C469 0.999 . S
H473 C454 0.913 . S
H474 C492 0.951 . S
H475 C494 0.951 . S
H476 C496 0.950 . S
H477 C497 0.950 . S
H478 C499 0.950 . S
H479 C502 0.950 . S
H480 C503 0.950 . S
H481 C505 0.950 . S
H482 C506 0.950 . S
H483 C507 0.951 . S
H484 C509 0.951 . S
H485 C511 0.950 . S
H486 C512 0.950 . S
H487 C514 0.950 . S
H488 C517 0.950 . S
H489 C518 0.950 . S
H490 C520 0.950 . S
H491 C521 0.950 . S
C492 H474 0.951 . S
C492 C493 1.366 . S
C492 C494 1.388 . S
C493 C492 1.366 . S
C493 C497 1.385 . S
C494 H475 0.951 . S
C494 C492 1.388 . S
C494 C495 1.366 . S
C495 C494 1.366 . S
C495 C496 1.414 . S
C495 C498 1.499 . S
C496 H476 0.950 . S
C496 C495 1.414 . S
C496 C497 1.374 . S
C497 H477 0.950 . S
C497 C493 1.385 . S
C497 C496 1.374 . S
C498 C495 1.499 . S
C498 C499 1.373 . S
C498 C500 1.389 . S
C499 H478 0.950 . S
C499 C498 1.373 . S
C499 C515 1.377 . S
C500 C498 1.389 . S
C500 C501 1.524 . S
C500 C514 1.377 . S
C501 C500 1.524 . S
C501 C502 1.397 . S
C501 C506 1.363 . S
C502 H479 0.950 . S
C502 C501 1.397 . S
C502 C503 1.334 . S
C503 H480 0.950 . S
C503 C502 1.334 . S
C503 C504 1.287 . S
C504 C503 1.287 . S
C504 C505 1.524 . S
C504 H523 0.913 . S
C505 H481 0.950 . S
C505 C504 1.524 . S
C505 C506 1.415 . S
C506 H482 0.950 . S
C506 C501 1.363 . S
C506 C505 1.415 . S
C507 H483 0.951 . S
C507 C508 1.366 . S
C507 C509 1.388 . S
C508 C507 1.366 . S
C508 C512 1.385 . S
C509 H484 0.951 . S
C509 C507 1.388 . S
C509 C510 1.366 . S
C510 C509 1.366 . S
C510 C511 1.414 . S
C510 C513 1.499 . S
C511 H485 0.950 . S
C511 C510 1.414 . S
C511 C512 1.374 . S
C512 H486 0.950 . S
C512 C508 1.385 . S
C512 C511 1.374 . S
C513 C510 1.499 . S
C513 C514 1.373 . S
C513 C515 1.389 . S
C514 H487 0.950 . S
C514 C500 1.377 . S
C514 C513 1.373 . S
C515 C499 1.377 . S
C515 C513 1.389 . S
C515 C516 1.524 . S
C516 C515 1.524 . S
C516 C517 1.397 . S
C516 C521 1.363 . S
C517 H488 0.950 . S
C517 C516 1.397 . S
C517 C518 1.334 . S
C518 H489 0.950 . S
C518 C517 1.334 . S
C518 C519 1.287 . S
C519 C518 1.287 . S
C519 C520 1.524 . S
C519 H522 0.999 . S
C520 H490 0.950 . S
C520 C519 1.524 . S
C520 C521 1.415 . S
C521 H491 0.950 . S
C521 C516 1.363 . S
C521 C520 1.415 . S
H522 C519 0.999 . S
H523 C504 0.913 . S
H524 C542 0.951 . S
H525 C544 0.951 . S
H526 C546 0.950 . S
H527 C547 0.950 . S
H528 C549 0.950 . S
H529 C552 0.950 . S
H530 C553 0.950 . S
H531 C555 0.950 . S
H532 C556 0.950 . S
H533 C557 0.951 . S
H534 C559 0.951 . S
H535 C561 0.950 . S
H536 C562 0.950 . S
H537 C564 0.950 . S
H538 C567 0.950 . S
H539 C568 0.950 . S
H540 C570 0.950 . S
H541 C571 0.950 . S
C542 H524 0.951 . S
C542 C543 1.366 1_565 S
C542 C544 1.388 . S
C543 C542 1.366 1_545 S
C543 C547 1.385 . S
C544 H525 0.951 . S
C544 C542 1.388 . S
C544 C545 1.366 1_565 S
C545 C544 1.366 1_545 S
C545 C546 1.414 . S
C545 C548 1.499 . S
C546 H526 0.950 . S
C546 C545 1.414 . S
C546 C547 1.374 . S
C547 H527 0.950 . S
C547 C543 1.385 . S
C547 C546 1.374 . S
C548 C545 1.499 . S
C548 C549 1.373 . S
C548 C550 1.389 1_544 S
C549 H528 0.950 . S
C549 C548 1.373 . S
C549 C565 1.377 1_455 S
C550 C548 1.389 1_566 S
C550 C551 1.524 . S
C550 C564 1.377 1_455 S
C551 C550 1.524 . S
C551 C552 1.397 1_565 S
C551 C556 1.363 . S
C552 H529 0.950 . S
C552 C551 1.397 1_545 S
C552 C553 1.334 . S
C553 H530 0.950 . S
C553 C552 1.334 . S
C553 C554 1.287 1_545 S
C554 C553 1.287 1_565 S
C554 C555 1.524 . S
C554 H573 0.913 . S
C555 H531 0.950 . S
C555 C554 1.524 . S
C555 C556 1.415 . S
C556 H532 0.950 . S
C556 C551 1.363 . S
C556 C555 1.415 . S
C557 H533 0.951 . S
C557 C558 1.366 1_545 S
C557 C559 1.388 . S
C558 C557 1.366 1_565 S
C558 C562 1.385 . S
C559 H534 0.951 . S
C559 C557 1.388 . S
C559 C560 1.366 1_545 S
C560 C559 1.366 1_565 S
C560 C561 1.414 . S
C560 C563 1.499 . S
C561 H535 0.950 . S
C561 C560 1.414 . S
C561 C562 1.374 . S
C562 H536 0.950 . S
C562 C558 1.385 . S
C562 C561 1.374 . S
C563 C560 1.499 . S
C563 C564 1.373 . S
C563 C565 1.389 1_566 S
C564 H537 0.950 . S
C564 C550 1.377 1_655 S
C564 C563 1.373 . S
C565 C549 1.377 1_655 S
C565 C563 1.389 1_544 S
C565 C566 1.524 . S
C566 C565 1.524 . S
C566 C567 1.397 1_545 S
C566 C571 1.363 . S
C567 H538 0.950 . S
C567 C566 1.397 1_565 S
C567 C568 1.334 . S
C568 H539 0.950 . S
C568 C567 1.334 . S
C568 C569 1.287 1_565 S
C569 C568 1.287 1_545 S
C569 C570 1.524 . S
C569 H572 0.999 . S
C570 H540 0.950 . S
C570 C569 1.524 . S
C570 C571 1.415 . S
C571 H541 0.950 . S
C571 C566 1.363 . S
C571 C570 1.415 . S
H572 C569 0.999 . S
H573 C554 0.913 . S
H574 C592 0.951 . S
H575 C594 0.951 . S
H576 C596 0.950 . S
H577 C597 0.950 . S
H578 C599 0.950 . S
H579 C602 0.950 . S
H580 C603 0.950 . S
H581 C605 0.950 . S
H582 C606 0.950 . S
H583 C607 0.951 . S
H584 C609 0.951 . S
H585 C611 0.950 . S
H586 C612 0.950 . S
H587 C614 0.950 . S
H588 C617 0.950 . S
H589 C618 0.950 . S
H590 C620 0.950 . S
H591 C621 0.950 . S
C592 H574 0.951 . S
C592 C593 1.366 . S
C592 C594 1.388 . S
C593 C592 1.366 . S
C593 C597 1.385 . S
C594 H575 0.951 . S
C594 C592 1.388 . S
C594 C595 1.366 . S
C595 C594 1.366 . S
C595 C596 1.414 . S
C595 C598 1.499 . S
C596 H576 0.950 . S
C596 C595 1.414 . S
C596 C597 1.374 . S
C597 H577 0.950 . S
C597 C593 1.385 . S
C597 C596 1.374 . S
C598 C595 1.499 . S
C598 C599 1.373 . S
C598 C600 1.389 . S
C599 H578 0.950 . S
C599 C598 1.373 . S
C599 C615 1.377 1_455 S
C600 C598 1.389 . S
C600 C601 1.524 . S
C600 C614 1.377 1_455 S
C601 C600 1.524 . S
C601 C602 1.397 . S
C601 C606 1.363 . S
C602 H579 0.950 . S
C602 C601 1.397 . S
C602 C603 1.334 . S
C603 H580 0.950 . S
C603 C602 1.334 . S
C603 C604 1.287 . S
C604 C603 1.287 . S
C604 C605 1.524 . S
C604 H623 0.913 . S
C605 H581 0.950 . S
C605 C604 1.524 . S
C605 C606 1.415 . S
C606 H582 0.950 . S
C606 C601 1.363 . S
C606 C605 1.415 . S
C607 H583 0.951 . S
C607 C608 1.366 . S
C607 C609 1.388 . S
C608 C607 1.366 . S
C608 C612 1.385 . S
C609 H584 0.951 . S
C609 C607 1.388 . S
C609 C610 1.366 . S
C610 C609 1.366 . S
C610 C611 1.414 . S
C610 C613 1.499 . S
C611 H585 0.950 . S
C611 C610 1.414 . S
C611 C612 1.374 . S
C612 H586 0.950 . S
C612 C608 1.385 . S
C612 C611 1.374 . S
C613 C610 1.499 . S
C613 C614 1.373 . S
C613 C615 1.389 . S
C614 H587 0.950 . S
C614 C600 1.377 1_655 S
C614 C613 1.373 . S
C615 C599 1.377 1_655 S
C615 C613 1.389 . S
C615 C616 1.524 . S
C616 C615 1.524 . S
C616 C617 1.397 . S
C616 C621 1.363 . S
C617 H588 0.950 . S
C617 C616 1.397 . S
C617 C618 1.334 . S
C618 H589 0.950 . S
C618 C617 1.334 . S
C618 C619 1.287 . S
C619 C618 1.287 . S
C619 C620 1.524 . S
C619 H622 0.999 . S
C620 H590 0.950 . S
C620 C619 1.524 . S
C620 C621 1.415 . S
C621 H591 0.950 . S
C621 C616 1.363 . S
C621 C620 1.415 . S
H622 C619 0.999 . S
H623 C604 0.913 . S
H624 C642 0.951 . S
H625 C644 0.951 1_556 S
H626 C646 0.950 . S
H627 C647 0.950 1_565 S
H628 C649 0.950 . S
H629 C652 0.950 . S
H630 C653 0.950 . S
H631 C655 0.950 . S
H632 C656 0.950 . S
H633 C657 0.951 . S
H634 C659 0.951 1_554 S
H635 C661 0.951 . S
H636 C662 0.950 1_545 S
H637 C664 0.950 . S
H638 C667 0.950 . S
H639 C668 0.950 . S
H640 C670 0.950 . S
H641 C671 0.950 . S
C642 H624 0.951 . S
C642 C643 1.366 . S
C642 C644 1.388 . S
C643 C642 1.366 . S
C643 C647 1.385 . S
C644 H625 0.951 1_554 S
C644 C642 1.388 . S
C644 C645 1.366 . S
C645 C644 1.366 . S
C645 C646 1.414 1_545 S
C645 C648 1.499 . S
C646 H626 0.950 . S
C646 C645 1.414 1_565 S
C646 C647 1.374 1_565 S
C647 H627 0.950 1_545 S
C647 C643 1.385 . S
C647 C646 1.374 1_545 S
C648 C645 1.499 . S
C648 C649 1.373 . S
C648 C650 1.389 1_544 S
C649 H628 0.950 . S
C649 C648 1.373 . S
C649 C665 1.377 1_545 S
C650 C648 1.389 1_566 S
C650 C651 1.524 . S
C650 C664 1.377 . S
C651 C650 1.524 . S
C651 C652 1.397 . S
C651 C656 1.363 1_565 S
C652 H629 0.950 . S
C652 C651 1.397 . S
C652 C653 1.334 . S
C653 H630 0.950 . S
C653 C652 1.334 . S
C653 C654 1.287 . S
C654 C653 1.287 . S
C654 C655 1.524 1_565 S
C654 H673 0.913 . S
C655 H631 0.950 . S
C655 C654 1.524 1_545 S
C655 C656 1.415 . S
C656 H632 0.950 . S
C656 C651 1.363 1_545 S
C656 C655 1.415 . S
C657 H633 0.951 . S
C657 C658 1.366 . S
C657 C659 1.388 . S
C658 C657 1.366 . S
C658 C662 1.385 . S
C659 H634 0.951 1_556 S
C659 C657 1.388 . S
C659 C660 1.366 . S
C660 C659 1.366 . S
C660 C661 1.414 1_565 S
C660 C663 1.499 . S
C661 H635 0.951 . S
C661 C660 1.414 1_545 S
C661 C662 1.374 1_545 S
C662 H636 0.950 1_565 S
C662 C658 1.385 . S
C662 C661 1.374 1_565 S
C663 C660 1.499 . S
C663 C664 1.373 . S
C663 C665 1.389 1_556 S
C664 H637 0.950 . S
C664 C650 1.377 . S
C664 C663 1.373 . S
C665 C649 1.377 1_565 S
C665 C663 1.389 1_554 S
C665 C666 1.524 1_565 S
C666 C665 1.524 1_545 S
C666 C667 1.397 . S
C666 C671 1.363 1_545 S
C667 H638 0.950 . S
C667 C666 1.397 . S
C667 C668 1.334 . S
C668 H639 0.950 . S
C668 C667 1.334 . S
C668 C669 1.287 . S
C669 C668 1.287 . S
C669 C670 1.524 1_545 S
C669 H672 0.999 . S
C670 H640 0.950 . S
C670 C669 1.524 1_565 S
C670 C671 1.415 . S
C671 H641 0.950 . S
C671 C666 1.363 1_565 S
C671 C670 1.415 . S
H672 C669 0.999 . S
H673 C654 0.913 . S
H674 C692 0.951 . S
H675 C694 0.951 . S
H676 C696 0.950 . S
H677 C697 0.950 . S
H678 C699 0.950 . S
H679 C702 0.950 . S
H680 C703 0.950 . S
H681 C705 0.950 . S
H682 C706 0.950 . S
H683 C707 0.951 . S
H684 C709 0.951 . S
H685 C711 0.950 . S
H686 C712 0.950 . S
H687 C714 0.950 . S
H688 C717 0.950 . S
H689 C718 0.950 . S
H690 C720 0.950 . S
H691 C721 0.950 . S
C692 H674 0.951 . S
C692 C693 1.366 . S
C692 C694 1.388 . S
C693 C692 1.366 . S
C693 C697 1.385 . S
C694 H675 0.951 . S
C694 C692 1.388 . S
C694 C695 1.366 . S
C695 C694 1.366 . S
C695 C696 1.414 . S
C695 C698 1.499 . S
C696 H676 0.950 . S
C696 C695 1.414 . S
C696 C697 1.374 . S
C697 H677 0.950 . S
C697 C693 1.385 . S
C697 C696 1.374 . S
C698 C695 1.499 . S
C698 C699 1.373 . S
C698 C700 1.389 . S
C699 H678 0.950 . S
C699 C698 1.373 . S
C699 C715 1.377 . S
C700 C698 1.389 . S
C700 C701 1.524 . S
C700 C714 1.377 . S
C701 C700 1.524 . S
C701 C702 1.397 . S
C701 C706 1.363 . S
C702 H679 0.950 . S
C702 C701 1.397 . S
C702 C703 1.334 . S
C703 H680 0.950 . S
C703 C702 1.334 . S
C703 C704 1.287 . S
C704 C703 1.287 . S
C704 C705 1.524 . S
C704 H723 0.913 . S
C705 H681 0.950 . S
C705 C704 1.524 . S
C705 C706 1.415 . S
C706 H682 0.950 . S
C706 C701 1.363 . S
C706 C705 1.415 . S
C707 H683 0.951 . S
C707 C708 1.366 . S
C707 C709 1.388 . S
C708 C707 1.366 . S
C708 C712 1.385 . S
C709 H684 0.951 . S
C709 C707 1.388 . S
C709 C710 1.366 . S
C710 C709 1.366 . S
C710 C711 1.414 . S
C710 C713 1.499 . S
C711 H685 0.950 . S
C711 C710 1.414 . S
C711 C712 1.374 . S
C712 H686 0.950 . S
C712 C708 1.385 . S
C712 C711 1.374 . S
C713 C710 1.499 . S
C713 C714 1.373 . S
C713 C715 1.389 . S
C714 H687 0.950 . S
C714 C700 1.377 . S
C714 C713 1.373 . S
C715 C699 1.377 . S
C715 C713 1.389 . S
C715 C716 1.524 . S
C716 C715 1.524 . S
C716 C717 1.397 . S
C716 C721 1.363 . S
C717 H688 0.950 . S
C717 C716 1.397 . S
C717 C718 1.334 . S
C718 H689 0.950 . S
C718 C717 1.334 . S
C718 C719 1.287 . S
C719 C718 1.287 . S
C719 C720 1.524 . S
C719 H722 0.999 . S
C720 H690 0.950 . S
C720 C719 1.524 . S
C720 C721 1.415 . S
C721 H691 0.950 . S
C721 C716 1.363 . S
C721 C720 1.415 . S
H722 C719 0.999 . S
H723 C704 0.913 . S
H724 C742 0.951 . S
H725 C744 0.951 . S
H726 C746 0.950 . S
H727 C747 0.950 . S
H728 C749 0.950 . S
H729 C752 0.950 . S
H730 C753 0.950 . S
H731 C755 0.950 . S
H732 C756 0.950 . S
H733 C757 0.951 . S
H734 C759 0.951 . S
H735 C761 0.950 . S
H736 C762 0.950 . S
H737 C764 0.950 . S
H738 C767 0.950 . S
H739 C768 0.950 . S
H740 C770 0.950 . S
H741 C771 0.950 . S
C742 H724 0.951 . S
C742 C743 1.366 . S
C742 C744 1.388 . S
C743 C742 1.366 . S
C743 C747 1.385 . S
C744 H725 0.951 . S
C744 C742 1.388 . S
C744 C745 1.366 . S
C745 C744 1.366 . S
C745 C746 1.414 . S
C745 C748 1.499 . S
C746 H726 0.950 . S
C746 C745 1.414 . S
C746 C747 1.374 . S
C747 H727 0.950 . S
C747 C743 1.385 . S
C747 C746 1.374 . S
C748 C745 1.499 . S
C748 C749 1.373 . S
C748 C750 1.389 . S
C749 H728 0.950 . S
C749 C748 1.373 . S
C749 C765 1.377 . S
C750 C748 1.389 . S
C750 C751 1.524 . S
C750 C764 1.377 . S
C751 C750 1.524 . S
C751 C752 1.397 . S
C751 C756 1.363 . S
C752 H729 0.950 . S
C752 C751 1.397 . S
C752 C753 1.334 . S
C753 H730 0.950 . S
C753 C752 1.334 . S
C753 C754 1.287 . S
C754 C753 1.287 . S
C754 C755 1.524 . S
C754 H773 0.913 . S
C755 H731 0.950 . S
C755 C754 1.524 . S
C755 C756 1.415 . S
C756 H732 0.950 . S
C756 C751 1.363 . S
C756 C755 1.415 . S
C757 H733 0.951 . S
C757 C758 1.366 . S
C757 C759 1.388 . S
C758 C757 1.366 . S
C758 C762 1.385 . S
C759 H734 0.951 . S
C759 C757 1.388 . S
C759 C760 1.366 . S
C760 C759 1.366 . S
C760 C761 1.414 . S
C760 C763 1.499 . S
C761 H735 0.950 . S
C761 C760 1.414 . S
C761 C762 1.374 . S
C762 H736 0.950 . S
C762 C758 1.385 . S
C762 C761 1.374 . S
C763 C760 1.499 . S
C763 C764 1.373 . S
C763 C765 1.389 . S
C764 H737 0.950 . S
C764 C750 1.377 . S
C764 C763 1.373 . S
C765 C749 1.377 . S
C765 C763 1.389 . S
C765 C766 1.524 . S
C766 C765 1.524 . S
C766 C767 1.397 . S
C766 C771 1.363 . S
C767 H738 0.950 . S
C767 C766 1.397 . S
C767 C768 1.334 . S
C768 H739 0.950 . S
C768 C767 1.334 . S
C768 C769 1.287 . S
C769 C768 1.287 . S
C769 C770 1.524 . S
C769 H772 0.999 . S
C770 H740 0.950 . S
C770 C769 1.524 . S
C770 C771 1.415 . S
C771 H741 0.950 . S
C771 C766 1.363 . S
C771 C770 1.415 . S
H772 C769 0.999 . S
H773 C754 0.913 . S
H774 C792 0.951 . S
H775 C794 0.951 . S
H776 C796 0.950 . S
H777 C797 0.950 . S
H778 C799 0.950 . S
H779 C802 0.950 . S
H780 C803 0.950 . S
H781 C805 0.950 . S
H782 C806 0.950 . S
H783 C807 0.951 . S
H784 C809 0.951 . S
H785 C811 0.950 . S
H786 C812 0.950 . S
H787 C814 0.950 . S
H788 C817 0.950 . S
H789 C818 0.950 . S
H790 C820 0.950 . S
H791 C821 0.950 . S
C792 H774 0.951 . S
C792 C793 1.366 . S
C792 C794 1.388 . S
C793 C792 1.366 . S
C793 C797 1.385 . S
C794 H775 0.951 . S
C794 C792 1.388 . S
C794 C795 1.366 . S
C795 C794 1.366 . S
C795 C796 1.414 . S
C795 C798 1.499 . S
C796 H776 0.950 . S
C796 C795 1.414 . S
C796 C797 1.374 . S
C797 H777 0.950 . S
C797 C793 1.385 . S
C797 C796 1.374 . S
C798 C795 1.499 . S
C798 C799 1.373 . S
C798 C800 1.389 . S
C799 H778 0.950 . S
C799 C798 1.373 . S
C799 C815 1.377 . S
C800 C798 1.389 . S
C800 C801 1.524 . S
C800 C814 1.377 . S
C801 C800 1.524 . S
C801 C802 1.397 . S
C801 C806 1.363 . S
C802 H779 0.950 . S
C802 C801 1.397 . S
C802 C803 1.334 . S
C803 H780 0.950 . S
C803 C802 1.334 . S
C803 C804 1.287 . S
C804 C803 1.287 . S
C804 C805 1.524 . S
C804 H823 0.913 . S
C805 H781 0.950 . S
C805 C804 1.524 . S
C805 C806 1.415 . S
C806 H782 0.950 . S
C806 C801 1.363 . S
C806 C805 1.415 . S
C807 H783 0.951 . S
C807 C808 1.366 . S
C807 C809 1.388 . S
C808 C807 1.366 . S
C808 C812 1.385 . S
C809 H784 0.951 . S
C809 C807 1.388 . S
C809 C810 1.366 . S
C810 C809 1.366 . S
C810 C811 1.414 . S
C810 C813 1.499 . S
C811 H785 0.950 . S
C811 C810 1.414 . S
C811 C812 1.374 . S
C812 H786 0.950 . S
C812 C808 1.385 . S
C812 C811 1.374 . S
C813 C810 1.499 . S
C813 C814 1.373 . S
C813 C815 1.389 . S
C814 H787 0.950 . S
C814 C800 1.377 . S
C814 C813 1.373 . S
C815 C799 1.377 . S
C815 C813 1.389 . S
C815 C816 1.524 . S
C816 C815 1.524 . S
C816 C817 1.397 . S
C816 C821 1.363 . S
C817 H788 0.950 . S
C817 C816 1.397 . S
C817 C818 1.334 . S
C818 H789 0.950 . S
C818 C817 1.334 . S
C818 C819 1.287 . S
C819 C818 1.287 . S
C819 C820 1.524 . S
C819 H822 0.999 . S
C820 H790 0.950 . S
C820 C819 1.524 . S
C820 C821 1.415 . S
C821 H791 0.950 . S
C821 C816 1.363 . S
C821 C820 1.415 . S
H822 C819 0.999 . S
H823 C804 0.913 . S
H824 C842 0.951 . S
H825 C844 0.951 . S
H826 C846 0.950 . S
H827 C847 0.950 . S
H828 C849 0.950 . S
H829 C852 0.950 . S
H830 C853 0.950 . S
H831 C855 0.950 . S
H832 C856 0.950 . S
H833 C857 0.951 . S
H834 C859 0.951 . S
H835 C861 0.950 . S
H836 C862 0.950 . S
H837 C864 0.950 . S
H838 C867 0.950 . S
H839 C868 0.950 . S
H840 C870 0.950 . S
H841 C871 0.950 . S
C842 H824 0.951 . S
C842 C843 1.366 . S
C842 C844 1.388 . S
C843 C842 1.366 . S
C843 C847 1.385 . S
C844 H825 0.951 . S
C844 C842 1.388 . S
C844 C845 1.366 . S
C845 C844 1.366 . S
C845 C846 1.414 . S
C845 C848 1.499 . S
C846 H826 0.950 . S
C846 C845 1.414 . S
C846 C847 1.374 . S
C847 H827 0.950 . S
C847 C843 1.385 . S
C847 C846 1.374 . S
C848 C845 1.499 . S
C848 C849 1.373 . S
C848 C850 1.389 . S
C849 H828 0.950 . S
C849 C848 1.373 . S
C849 C865 1.377 . S
C850 C848 1.389 . S
C850 C851 1.524 . S
C850 C864 1.377 . S
C851 C850 1.524 . S
C851 C852 1.397 . S
C851 C856 1.363 . S
C852 H829 0.950 . S
C852 C851 1.397 . S
C852 C853 1.334 . S
C853 H830 0.950 . S
C853 C852 1.334 . S
C853 C854 1.287 . S
C854 C853 1.287 . S
C854 C855 1.524 . S
C854 H873 0.913 . S
C855 H831 0.950 . S
C855 C854 1.524 . S
C855 C856 1.415 . S
C856 H832 0.950 . S
C856 C851 1.363 . S
C856 C855 1.415 . S
C857 H833 0.951 . S
C857 C858 1.366 . S
C857 C859 1.388 . S
C858 C857 1.366 . S
C858 C862 1.385 . S
C859 H834 0.951 . S
C859 C857 1.388 . S
C859 C860 1.366 . S
C860 C859 1.366 . S
C860 C861 1.414 . S
C860 C863 1.499 . S
C861 H835 0.950 . S
C861 C860 1.414 . S
C861 C862 1.374 . S
C862 H836 0.950 . S
C862 C858 1.385 . S
C862 C861 1.374 . S
C863 C860 1.499 . S
C863 C864 1.373 . S
C863 C865 1.389 . S
C864 H837 0.950 . S
C864 C850 1.377 . S
C864 C863 1.373 . S
C865 C849 1.377 . S
C865 C863 1.389 . S
C865 C866 1.524 . S
C866 C865 1.524 . S
C866 C867 1.397 . S
C866 C871 1.363 . S
C867 H838 0.950 . S
C867 C866 1.397 . S
C867 C868 1.334 . S
C868 H839 0.950 . S
C868 C867 1.334 . S
C868 C869 1.287 . S
C869 C868 1.287 . S
C869 C870 1.524 . S
C869 H872 0.999 . S
C870 H840 0.950 . S
C870 C869 1.524 . S
C870 C871 1.415 . S
C871 H841 0.950 . S
C871 C866 1.363 . S
C871 C870 1.415 . S
H872 C869 0.999 . S
H873 C854 0.913 . S
H874 C892 0.951 . S
H875 C894 0.951 . S
H876 C896 0.950 . S
H877 C897 0.950 . S
H878 C899 0.950 . S
H879 C902 0.950 . S
H880 C903 0.950 . S
H881 C905 0.950 . S
H882 C906 0.950 . S
H883 C907 0.951 . S
H884 C909 0.951 . S
H885 C911 0.950 . S
H886 C912 0.950 . S
H887 C914 0.950 . S
H888 C917 0.950 . S
H889 C918 0.950 . S
H890 C920 0.950 . S
H891 C921 0.950 . S
C892 H874 0.951 . S
C892 C893 1.366 . S
C892 C894 1.388 . S
C893 C892 1.366 . S
C893 C897 1.385 . S
C894 H875 0.951 . S
C894 C892 1.388 . S
C894 C895 1.366 . S
C895 C894 1.366 . S
C895 C896 1.414 . S
C895 C898 1.499 . S
C896 H876 0.950 . S
C896 C895 1.414 . S
C896 C897 1.374 . S
C897 H877 0.950 . S
C897 C893 1.385 . S
C897 C896 1.374 . S
C898 C895 1.499 . S
C898 C899 1.373 . S
C898 C900 1.389 . S
C899 H878 0.950 . S
C899 C898 1.373 . S
C899 C915 1.377 . S
C900 C898 1.389 . S
C900 C901 1.524 . S
C900 C914 1.377 . S
C901 C900 1.524 . S
C901 C902 1.397 . S
C901 C906 1.363 . S
C902 H879 0.950 . S
C902 C901 1.397 . S
C902 C903 1.334 . S
C903 H880 0.950 . S
C903 C902 1.334 . S
C903 C904 1.287 . S
C904 C903 1.287 . S
C904 C905 1.524 . S
C904 H923 0.913 . S
C905 H881 0.950 . S
C905 C904 1.524 . S
C905 C906 1.415 . S
C906 H882 0.950 . S
C906 C901 1.363 . S
C906 C905 1.415 . S
C907 H883 0.951 . S
C907 C908 1.366 . S
C907 C909 1.388 . S
C908 C907 1.366 . S
C908 C912 1.385 . S
C909 H884 0.951 . S
C909 C907 1.388 . S
C909 C910 1.366 . S
C910 C909 1.366 . S
C910 C911 1.414 . S
C910 C913 1.499 . S
C911 H885 0.950 . S
C911 C910 1.414 . S
C911 C912 1.374 . S
C912 H886 0.950 . S
C912 C908 1.385 . S
C912 C911 1.374 . S
C913 C910 1.499 . S
C913 C914 1.373 . S
C913 C915 1.389 . S
C914 H887 0.950 . S
C914 C900 1.377 . S
C914 C913 1.373 . S
C915 C899 1.377 . S
C915 C913 1.389 . S
C915 C916 1.524 . S
C916 C915 1.524 . S
C916 C917 1.397 . S
C916 C921 1.363 . S
C917 H888 0.950 . S
C917 C916 1.397 . S
C917 C918 1.334 . S
C918 H889 0.950 . S
C918 C917 1.334 . S
C918 C919 1.287 . S
C919 C918 1.287 . S
C919 C920 1.524 . S
C919 H922 0.999 . S
C920 H890 0.950 . S
C920 C919 1.524 . S
C920 C921 1.415 . S
C921 H891 0.950 . S
C921 C916 1.363 . S
C921 C920 1.415 . S
H922 C919 0.999 . S
H923 C904 0.913 . S
C143 C1 1.152 . S
C158 C20 1.162 . S
C193 C33 1.681 . S
C208 C60 1.687 . S
C243 C64 1.683 . S
C258 C91 1.688 . S
C293 C122 1.682 . S
C308 C95 1.687 . S
C343 C50 0.954 . S
C358 C29 0.894 . S
C393 C51 0.743 . S
C408 C30 0.740 . S
C443 C93 0.784 . S
C458 C82 0.771 . S
C493 C81 0.807 . S
C508 C94 0.788 . S
C543 C19 1.127 . S
C558 C92 1.110 . S
C593 C103 1.087 . S
C608 C61 1.087 . S
C643 C10 0.780 . S
C658 C62 0.779 . S
C693 C112 0.810 . S
C708 C31 0.810 . S
C743 C123 1.970 . S
C758 C2 2.028 1_556 S
C793 C72 1.778 . S
C808 C32 1.847 . S
C843 C41 1.744 . S
C858 C63 1.809 1_554 S
C893 C113 1.952 . S
C908 C0 1.970 . S
