# Generated by pormake.
# Topology uos, (4)-cn, num edge types: 1
# Building blocks:
#     Node 0, Type 0, BuildingBlock: CEKHIL_clean_sbu_0, # of connection points: 4
#     Node 1, Type 0, BuildingBlock: CEKHIL_clean_sbu_0, # of connection points: 4
#     Node 2, Type 0, BuildingBlock: CEKHIL_clean_sbu_0, # of connection points: 4
#     Node 3, Type 0, BuildingBlock: CEKHIL_clean_sbu_0, # of connection points: 4
#     Node 4, Type 0, BuildingBlock: CEKHIL_clean_sbu_0, # of connection points: 4
#     Node 5, Type 0, BuildingBlock: CEKHIL_clean_sbu_0, # of connection points: 4
#     Node 6, Type 0, BuildingBlock: CEKHIL_clean_sbu_0, # of connection points: 4
#     Node 7, Type 0, BuildingBlock: CEKHIL_clean_sbu_0, # of connection points: 4
#     Node 8, Type 0, BuildingBlock: CEKHIL_clean_sbu_0, # of connection points: 4
#     Node 9, Type 0, BuildingBlock: CEKHIL_clean_sbu_0, # of connection points: 4
#     Node 10, Type 0, BuildingBlock: CEKHIL_clean_sbu_0, # of connection points: 4
#     Node 11, Type 0, BuildingBlock: CEKHIL_clean_sbu_0, # of connection points: 4
#     Node 12, Type 0, BuildingBlock: CEKHIL_clean_sbu_0, # of connection points: 4
#     Node 13, Type 0, BuildingBlock: CEKHIL_clean_sbu_0, # of connection points: 4
#     Node 14, Type 0, BuildingBlock: CEKHIL_clean_sbu_0, # of connection points: 4
#     Node 15, Type 0, BuildingBlock: CEKHIL_clean_sbu_0, # of connection points: 4
#     Node 16, Type 0, BuildingBlock: CEKHIL_clean_sbu_0, # of connection points: 4
#     Node 17, Type 0, BuildingBlock: CEKHIL_clean_sbu_0, # of connection points: 4
#     Node 18, Type 0, BuildingBlock: CEKHIL_clean_sbu_0, # of connection points: 4
#     Node 19, Type 0, BuildingBlock: CEKHIL_clean_sbu_0, # of connection points: 4
#     Node 20, Type 0, BuildingBlock: CEKHIL_clean_sbu_0, # of connection points: 4
#     Node 21, Type 0, BuildingBlock: CEKHIL_clean_sbu_0, # of connection points: 4
#     Node 22, Type 0, BuildingBlock: CEKHIL_clean_sbu_0, # of connection points: 4
#     Node 23, Type 0, BuildingBlock: CEKHIL_clean_sbu_0, # of connection points: 4
#     Node 24, Type 0, BuildingBlock: CEKHIL_clean_sbu_0, # of connection points: 4
#     Node 25, Type 0, BuildingBlock: CEKHIL_clean_sbu_0, # of connection points: 4
#     Node 26, Type 0, BuildingBlock: CEKHIL_clean_sbu_0, # of connection points: 4
#     Node 27, Type 0, BuildingBlock: CEKHIL_clean_sbu_0, # of connection points: 4
#     Node 28, Type 0, BuildingBlock: CEKHIL_clean_sbu_0, # of connection points: 4
#     Node 29, Type 0, BuildingBlock: CEKHIL_clean_sbu_0, # of connection points: 4
#     Node 30, Type 0, BuildingBlock: CEKHIL_clean_sbu_0, # of connection points: 4
#     Node 31, Type 0, BuildingBlock: CEKHIL_clean_sbu_0, # of connection points: 4
#     Edge 32, Type (0, 0), BuildingBlock: XIVTED_clean_linker_0, # of connection points: 2
#     Edge 33, Type (0, 0), BuildingBlock: XIVTED_clean_linker_0, # of connection points: 2
#     Edge 34, Type (0, 0), BuildingBlock: XIVTED_clean_linker_0, # of connection points: 2
#     Edge 35, Type (0, 0), BuildingBlock: XIVTED_clean_linker_0, # of connection points: 2
#     Edge 36, Type (0, 0), BuildingBlock: XIVTED_clean_linker_0, # of connection points: 2
#     Edge 37, Type (0, 0), BuildingBlock: XIVTED_clean_linker_0, # of connection points: 2
#     Edge 38, Type (0, 0), BuildingBlock: XIVTED_clean_linker_0, # of connection points: 2
#     Edge 39, Type (0, 0), BuildingBlock: XIVTED_clean_linker_0, # of connection points: 2
#     Edge 40, Type (0, 0), BuildingBlock: XIVTED_clean_linker_0, # of connection points: 2
#     Edge 41, Type (0, 0), BuildingBlock: XIVTED_clean_linker_0, # of connection points: 2
#     Edge 42, Type (0, 0), BuildingBlock: XIVTED_clean_linker_0, # of connection points: 2
#     Edge 43, Type (0, 0), BuildingBlock: XIVTED_clean_linker_0, # of connection points: 2
#     Edge 44, Type (0, 0), BuildingBlock: XIVTED_clean_linker_0, # of connection points: 2
#     Edge 45, Type (0, 0), BuildingBlock: XIVTED_clean_linker_0, # of connection points: 2
#     Edge 46, Type (0, 0), BuildingBlock: XIVTED_clean_linker_0, # of connection points: 2
#     Edge 47, Type (0, 0), BuildingBlock: XIVTED_clean_linker_0, # of connection points: 2
#     Edge 48, Type (0, 0), BuildingBlock: XIVTED_clean_linker_0, # of connection points: 2
#     Edge 49, Type (0, 0), BuildingBlock: XIVTED_clean_linker_0, # of connection points: 2
#     Edge 50, Type (0, 0), BuildingBlock: XIVTED_clean_linker_0, # of connection points: 2
#     Edge 51, Type (0, 0), BuildingBlock: XIVTED_clean_linker_0, # of connection points: 2
#     Edge 52, Type (0, 0), BuildingBlock: XIVTED_clean_linker_0, # of connection points: 2
#     Edge 53, Type (0, 0), BuildingBlock: XIVTED_clean_linker_0, # of connection points: 2
#     Edge 54, Type (0, 0), BuildingBlock: XIVTED_clean_linker_0, # of connection points: 2
#     Edge 55, Type (0, 0), BuildingBlock: XIVTED_clean_linker_0, # of connection points: 2
#     Edge 56, Type (0, 0), BuildingBlock: XIVTED_clean_linker_0, # of connection points: 2
#     Edge 57, Type (0, 0), BuildingBlock: XIVTED_clean_linker_0, # of connection points: 2
#     Edge 58, Type (0, 0), BuildingBlock: XIVTED_clean_linker_0, # of connection points: 2
#     Edge 59, Type (0, 0), BuildingBlock: XIVTED_clean_linker_0, # of connection points: 2
#     Edge 60, Type (0, 0), BuildingBlock: XIVTED_clean_linker_0, # of connection points: 2
#     Edge 61, Type (0, 0), BuildingBlock: XIVTED_clean_linker_0, # of connection points: 2
#     Edge 62, Type (0, 0), BuildingBlock: XIVTED_clean_linker_0, # of connection points: 2
#     Edge 63, Type (0, 0), BuildingBlock: XIVTED_clean_linker_0, # of connection points: 2
#     Edge 64, Type (0, 0), BuildingBlock: XIVTED_clean_linker_0, # of connection points: 2
#     Edge 65, Type (0, 0), BuildingBlock: XIVTED_clean_linker_0, # of connection points: 2
#     Edge 66, Type (0, 0), BuildingBlock: XIVTED_clean_linker_0, # of connection points: 2
#     Edge 67, Type (0, 0), BuildingBlock: XIVTED_clean_linker_0, # of connection points: 2
#     Edge 68, Type (0, 0), BuildingBlock: XIVTED_clean_linker_0, # of connection points: 2
#     Edge 69, Type (0, 0), BuildingBlock: XIVTED_clean_linker_0, # of connection points: 2
#     Edge 70, Type (0, 0), BuildingBlock: XIVTED_clean_linker_0, # of connection points: 2
#     Edge 71, Type (0, 0), BuildingBlock: XIVTED_clean_linker_0, # of connection points: 2
#     Edge 72, Type (0, 0), BuildingBlock: XIVTED_clean_linker_0, # of connection points: 2
#     Edge 73, Type (0, 0), BuildingBlock: XIVTED_clean_linker_0, # of connection points: 2
#     Edge 74, Type (0, 0), BuildingBlock: XIVTED_clean_linker_0, # of connection points: 2
#     Edge 75, Type (0, 0), BuildingBlock: XIVTED_clean_linker_0, # of connection points: 2
#     Edge 76, Type (0, 0), BuildingBlock: XIVTED_clean_linker_0, # of connection points: 2
#     Edge 77, Type (0, 0), BuildingBlock: XIVTED_clean_linker_0, # of connection points: 2
#     Edge 78, Type (0, 0), BuildingBlock: XIVTED_clean_linker_0, # of connection points: 2
#     Edge 79, Type (0, 0), BuildingBlock: XIVTED_clean_linker_0, # of connection points: 2
#     Edge 80, Type (0, 0), BuildingBlock: XIVTED_clean_linker_0, # of connection points: 2
#     Edge 81, Type (0, 0), BuildingBlock: XIVTED_clean_linker_0, # of connection points: 2
#     Edge 82, Type (0, 0), BuildingBlock: XIVTED_clean_linker_0, # of connection points: 2
#     Edge 83, Type (0, 0), BuildingBlock: XIVTED_clean_linker_0, # of connection points: 2
#     Edge 84, Type (0, 0), BuildingBlock: XIVTED_clean_linker_0, # of connection points: 2
#     Edge 85, Type (0, 0), BuildingBlock: XIVTED_clean_linker_0, # of connection points: 2
#     Edge 86, Type (0, 0), BuildingBlock: XIVTED_clean_linker_0, # of connection points: 2
#     Edge 87, Type (0, 0), BuildingBlock: XIVTED_clean_linker_0, # of connection points: 2
#     Edge 88, Type (0, 0), BuildingBlock: XIVTED_clean_linker_0, # of connection points: 2
#     Edge 89, Type (0, 0), BuildingBlock: XIVTED_clean_linker_0, # of connection points: 2
#     Edge 90, Type (0, 0), BuildingBlock: XIVTED_clean_linker_0, # of connection points: 2
#     Edge 91, Type (0, 0), BuildingBlock: XIVTED_clean_linker_0, # of connection points: 2
#     Edge 92, Type (0, 0), BuildingBlock: XIVTED_clean_linker_0, # of connection points: 2
#     Edge 93, Type (0, 0), BuildingBlock: XIVTED_clean_linker_0, # of connection points: 2
#     Edge 94, Type (0, 0), BuildingBlock: XIVTED_clean_linker_0, # of connection points: 2
#     Edge 95, Type (0, 0), BuildingBlock: XIVTED_clean_linker_0, # of connection points: 2
# Relax obj value: 0.049
# Max RMSD: 0.070
# Mean RMSD: 0.070
data_MOF--net-uos--node1-CEKHIL_clean_sbu_0--edge1-XIVTED_clean_linker_0
_symmetry_space_group_name_H-M    P1
_symmetry_Int_Tables_number       1
_symmetry_cell_setting            triclinic
loop_
_symmetry_equiv_pos_as_xyz
'x, y, z'
_cell_length_a     85.492188
_cell_length_b     85.523044
_cell_length_c     22.980491
_cell_angle_alpha  90.000857
_cell_angle_beta   90.031501
_cell_angle_gamma 90.00001
loop_
_atom_site_label
_atom_site_type_symbol
_atom_site_fract_x
_atom_site_fract_y
_atom_site_fract_z
_atom_type_partial_charge
Co0 Co 0.16742 0.16541 0.11374 0.0
O1 O 0.14938 0.16117 0.06671 0.0
O2 O 0.17074 0.14672 0.06577 0.0
C3 C 0.16795 0.19141 0.09391 0.0
O4 O 0.18852 0.16708 0.15638 0.0
Co5 Co 0.1638 0.18891 0.21807 0.0
O6 O 0.1869 0.18816 0.21535 0.0
C7 C 0.1507 0.15703 0.22547 0.0
C8 C 0.15674 0.14928 0.04525 0.0
C9 C 0.19472 0.17727 0.19102 0.0
O10 O 0.15822 0.15255 0.17973 0.0
O11 O 0.15021 0.17121 0.24316 0.0
O12 O 0.17436 0.18163 0.05778 0.0
O13 O 0.16067 0.18507 0.13665 0.0
Co14 Co 0.08765 0.91698 0.36359 0.0
O15 O 0.09294 0.89841 0.32059 0.0
O16 O 0.10605 0.92057 0.31484 0.0
C17 C 0.06168 0.91586 0.3434 0.0
O18 O 0.08504 0.93871 0.40047 0.0
Co19 Co 0.06422 0.91504 0.46813 0.0
O20 O 0.06345 0.93792 0.45668 0.0
C21 C 0.09755 0.90647 0.48515 0.0
C22 C 0.10424 0.90623 0.29691 0.0
C23 C 0.07444 0.94544 0.43175 0.0
O24 O 0.10101 0.90995 0.43195 0.0
O25 O 0.08366 0.90702 0.50579 0.0
O26 O 0.07125 0.92206 0.30605 0.0
O27 O 0.0682 0.90967 0.38831 0.0
Co28 Co 0.33621 0.83512 0.6157 0.0
O29 O 0.35479 0.84061 0.57308 0.0
O30 O 0.33253 0.85351 0.56679 0.0
C31 C 0.33771 0.80918 0.59541 0.0
O32 O 0.31448 0.8323 0.65256 0.0
Co33 Co 0.33836 0.8115 0.71988 0.0
O34 O 0.31543 0.81085 0.70947 0.0
C35 C 0.34635 0.84497 0.73756 0.0
C36 C 0.34692 0.85185 0.54923 0.0
C37 C 0.30784 0.82181 0.68463 0.0
O38 O 0.34299 0.8485 0.6843 0.0
O39 O 0.34598 0.83104 0.75783 0.0
O40 O 0.33138 0.81867 0.55802 0.0
O41 O 0.34375 0.81578 0.64041 0.0
Co42 Co 0.41603 0.08573 0.8724 0.0
O43 O 0.41161 0.10408 0.82672 0.0
O44 O 0.39762 0.08243 0.8234 0.0
C45 C 0.44213 0.08549 0.85382 0.0
O46 O 0.41752 0.06431 0.91231 0.0
Co47 Co 0.43921 0.08806 0.97827 0.0
O48 O 0.43605 0.06522 0.98229 0.0
C49 C 0.40613 0.09777 0.99195 0.0
C50 C 0.39999 0.09653 0.80384 0.0
C51 C 0.4257 0.05789 0.95315 0.0
O52 O 0.40269 0.09381 0.9392 0.0
O53 O 0.41998 0.09729 0.01299 0.0
O54 O 0.43244 0.07944 0.8165 0.0
O55 O 0.4357 0.09241 0.89731 0.0
Co56 Co 0.16842 0.83658 0.89277 0.0
O57 O 0.14959 0.84186 0.93407 0.0
O58 O 0.17177 0.85481 0.94276 0.0
C59 C 0.16689 0.81059 0.91188 0.0
O60 O 0.19042 0.83394 0.85792 0.0
Co61 Co 0.16724 0.81343 0.78727 0.0
O62 O 0.18996 0.81224 0.80231 0.0
C63 C 0.15875 0.84682 0.77074 0.0
C64 C 0.15728 0.85304 0.95909 0.0
C65 C 0.19734 0.82321 0.82786 0.0
O66 O 0.1619 0.85015 0.82435 0.0
O67 O 0.15948 0.83299 0.7496 0.0
O68 O 0.17296 0.82 0.95011 0.0
O69 O 0.16114 0.81726 0.86648 0.0
Co70 Co 0.4159 0.91711 0.14434 0.0
O71 O 0.41186 0.89846 0.1888 0.0
O72 O 0.39785 0.92003 0.19546 0.0
C73 C 0.44214 0.91725 0.16032 0.0
O74 O 0.41705 0.93879 0.1062 0.0
Co75 Co 0.43829 0.9155 0.03596 0.0
O76 O 0.43486 0.9383 0.03365 0.0
C77 C 0.40514 0.90573 0.02491 0.0
C78 C 0.40038 0.90581 0.21344 0.0
C79 C 0.4248 0.94543 0.06475 0.0
O80 O 0.40209 0.90936 0.0783 0.0
O81 O 0.41881 0.90646 1.0024 0.0
O82 O 0.43273 0.92306 0.1991 0.0
O83 O 0.43539 0.91062 0.11685 0.0
Co84 Co 0.33444 0.16597 0.40117 0.0
O85 O 0.35339 0.16113 0.44266 0.0
O86 O 0.33149 0.14772 0.4514 0.0
C87 C 0.3354 0.19203 0.41965 0.0
O88 O 0.3124 0.16804 0.36613 0.0
Co89 Co 0.33516 0.1891 0.29533 0.0
O90 O 0.31236 0.18948 0.30909 0.0
C91 C 0.3442 0.15585 0.27921 0.0
C92 C 0.34594 0.1498 0.46772 0.0
C93 C 0.30525 0.1784 0.335 0.0
O94 O 0.34121 0.15247 0.3329 0.0
O95 O 0.34322 0.16965 0.258 0.0
O96 O 0.32955 0.18257 0.45817 0.0
O97 O 0.34129 0.18538 0.37452 0.0
Co98 Co 0.08545 0.08377 0.64739 0.0
O99 O 0.09007 0.10171 0.69459 0.0
O100 O 0.10388 0.07992 0.6961 0.0
C101 C 0.05936 0.08401 0.66587 0.0
O102 O 0.08343 0.0627 0.60502 0.0
Co103 Co 0.06237 0.08763 0.54189 0.0
O104 O 0.06267 0.06452 0.5446 0.0
C105 C 0.09458 0.10006 0.53574 0.0
C106 C 0.10169 0.09398 0.71647 0.0
C107 C 0.07334 0.05659 0.56978 0.0
O108 O 0.09877 0.09257 0.58193 0.0
O109 O 0.08047 0.10077 0.51733 0.0
O110 O 0.06883 0.07734 0.70256 0.0
O111 O 0.06606 0.09103 0.62327 0.0
Co112 Co 0.83372 0.83601 0.89788 0.0
O113 O 0.8515 0.83859 0.94835 0.0
O114 O 0.83103 0.85431 0.94787 0.0
C115 C 0.83104 0.80987 0.91225 0.0
O116 O 0.81303 0.83644 0.85264 0.0
Co117 Co 0.83676 0.81411 0.78884 0.0
O118 O 0.81442 0.81932 0.77793 0.0
C119 C 0.85215 0.84481 0.79042 0.0
C120 C 0.84461 0.85076 0.97001 0.0
C121 C 0.80704 0.82943 0.80808 0.0
O122 O 0.84428 0.84911 0.83552 0.0
O123 O 0.85221 0.83086 0.7705 0.0
O124 O 0.82518 0.81962 0.94979 0.0
O125 O 0.83924 0.81618 0.87171 0.0
Co126 Co 0.91597 0.08362 0.64236 0.0
O127 O 0.91126 0.10269 0.68314 0.0
O128 O 0.8975 0.08101 0.69177 0.0
C129 C 0.94196 0.08421 0.66234 0.0
O130 O 0.91796 0.06151 0.60788 0.0
Co131 Co 0.9394 0.08412 0.53754 0.0
O132 O 0.93961 0.06135 0.55193 0.0
C133 C 0.90638 0.09374 0.51999 0.0
C134 C 0.89974 0.09545 0.70785 0.0
C135 C 0.92844 0.05429 0.57755 0.0
O136 O 0.9028 0.09052 0.57331 0.0
O137 O 0.92026 0.09272 0.4995 0.0
O138 O 0.93225 0.07856 0.7004 0.0
O139 O 0.93558 0.09018 0.61676 0.0
Co140 Co 0.66925 0.16588 0.3981 0.0
O141 O 0.65112 0.16306 0.44655 0.0
O142 O 0.67166 0.14742 0.44746 0.0
C143 C 0.67165 0.19194 0.41426 0.0
O144 O 0.69027 0.16569 0.35509 0.0
Co145 Co 0.667 0.18824 0.29011 0.0
O146 O 0.68941 0.18311 0.28121 0.0
C147 C 0.65144 0.15761 0.2887 0.0
C148 C 0.65792 0.15086 0.46842 0.0
C149 C 0.69659 0.17291 0.31165 0.0
O150 O 0.65912 0.15304 0.33393 0.0
O151 O 0.65153 0.17168 0.26984 0.0
O152 O 0.67734 0.18208 0.4518 0.0
O153 O 0.66382 0.18574 0.37247 0.0
Co154 Co 0.58564 0.91765 0.14231 0.0
O155 O 0.58984 0.89895 0.18646 0.0
O156 O 0.60399 0.92046 0.19198 0.0
C157 C 0.55951 0.9179 0.16042 0.0
O158 O 0.58447 0.93937 0.10452 0.0
Co159 Co 0.56254 0.91647 0.03592 0.0
O160 O 0.56616 0.93925 0.03367 0.0
C161 C 0.59549 0.90628 0.02189 0.0
C162 C 0.60147 0.90627 0.21027 0.0
C163 C 0.57654 0.94619 0.06393 0.0
O164 O 0.59897 0.90985 0.07501 0.0
O165 O 0.58167 0.90715 1.00075 0.0
O166 O 0.56917 0.92367 0.19844 0.0
O167 O 0.56595 0.91131 0.11628 0.0
Co168 Co 0.8365 0.16627 0.11253 0.0
O169 O 0.85486 0.16178 0.06681 0.0
O170 O 0.83295 0.1482 0.06224 0.0
C171 C 0.83679 0.19247 0.096 0.0
O172 O 0.81499 0.16777 0.15171 0.0
Co173 Co 0.8386 0.18872 0.22029 0.0
O174 O 0.81569 0.18591 0.22296 0.0
C175 C 0.84825 0.15553 0.23145 0.0
C176 C 0.84711 0.15041 0.0431 0.0
C177 C 0.80842 0.17577 0.19262 0.0
O178 O 0.84431 0.15243 0.1784 0.0
O179 O 0.84775 0.16925 0.25364 0.0
O180 O 0.83061 0.18311 0.05783 0.0
O181 O 0.84344 0.18568 0.13938 0.0
Co182 Co 0.5855 0.08569 0.86558 0.0
O183 O 0.58857 0.10371 0.8168 0.0
O184 O 0.60396 0.08299 0.81646 0.0
C185 C 0.55937 0.08366 0.84917 0.0
O186 O 0.58545 0.06473 0.90902 0.0
Co187 Co 0.56299 0.0882 0.97306 0.0
O188 O 0.56802 0.06579 0.98277 0.0
C189 C 0.5938 0.10351 0.97478 0.0
C190 C 0.6007 0.09673 0.79517 0.0
C191 C 0.57821 0.05852 0.95264 0.0
O192 O 0.5984 0.09571 0.92986 0.0
O193 O 0.57965 0.1036 0.99291 0.0
O194 O 0.56916 0.07775 0.81187 0.0
O195 O 0.56569 0.0914 0.89089 0.0
Co196 Co 0.66654 0.83605 0.61327 0.0
O197 O 0.6478 0.84001 0.56905 0.0
O198 O 0.66921 0.8543 0.563 0.0
C199 C 0.66702 0.80987 0.59617 0.0
O200 O 0.68827 0.83511 0.65125 0.0
Co201 Co 0.66538 0.81324 0.72053 0.0
O202 O 0.68815 0.81694 0.72255 0.0
C203 C 0.65508 0.84616 0.73336 0.0
C204 C 0.65502 0.85164 0.54491 0.0
C205 C 0.69508 0.82728 0.69213 0.0
O206 O 0.65867 0.84951 0.68016 0.0
O207 O 0.65596 0.8324 0.75494 0.0
O208 O 0.67267 0.81946 0.55768 0.0
O209 O 0.66035 0.81641 0.63995 0.0
Co210 Co 0.91823 0.91537 0.36529 0.0
O211 O 0.91377 0.89716 0.31921 0.0
O212 O 0.89956 0.91868 0.31723 0.0
C213 C 0.94426 0.9155 0.34542 0.0
O214 O 0.92 0.93665 0.40654 0.0
Co215 Co 0.94185 0.91232 0.46956 0.0
O216 O 0.94095 0.9354 0.46621 0.0
C217 C 0.90992 0.89926 0.47821 0.0
C218 C 0.90194 0.90459 0.29743 0.0
C219 C 0.93005 0.94305 0.44123 0.0
O220 O 0.90535 0.90656 0.43204 0.0
O221 O 0.92415 0.89886 0.49552 0.0
O222 O 0.93455 0.92189 0.3089 0.0
O223 O 0.93783 0.90855 0.3887 0.0
Co224 Co 0.66628 0.66657 0.61488 0.0
O225 O 0.64755 0.6625 0.57056 0.0
O226 O 0.66887 0.64802 0.56619 0.0
C227 C 0.66699 0.69263 0.59572 0.0
O228 O 0.68798 0.66752 0.65297 0.0
Co229 Co 0.66533 0.68995 0.7203 0.0
O230 O 0.68807 0.68601 0.72308 0.0
C231 C 0.65426 0.65735 0.73521 0.0
C232 C 0.65473 0.65068 0.54751 0.0
C233 C 0.6949 0.67545 0.69331 0.0
O234 O 0.65819 0.65358 0.68271 0.0
O235 O 0.65513 0.67127 0.75536 0.0
O236 O 0.67261 0.68277 0.5581 0.0
O237 O 0.66024 0.6864 0.63996 0.0
Co238 Co 0.5862 0.41686 0.86146 0.0
O239 O 0.58906 0.39892 0.81204 0.0
O240 O 0.60456 0.41955 0.81177 0.0
C241 C 0.56004 0.41913 0.84625 0.0
O242 O 0.5864 0.43774 0.90541 0.0
Co243 Co 0.56408 0.41428 0.96993 0.0
O244 O 0.5691 0.43669 0.97957 0.0
C245 C 0.59476 0.39877 0.96981 0.0
C246 C 0.60119 0.40587 0.79023 0.0
C247 C 0.57925 0.44395 0.94925 0.0
O248 O 0.59925 0.40665 0.92492 0.0
O249 O 0.58069 0.39872 0.98865 0.0
O250 O 0.56977 0.42499 0.80862 0.0
O251 O 0.56641 0.41124 0.88748 0.0
Co252 Co 0.83589 0.33596 0.11186 0.0
O253 O 0.85469 0.341 0.06957 0.0
O254 O 0.83266 0.35425 0.06219 0.0
C255 C 0.8369 0.30992 0.09294 0.0
O256 O 0.81394 0.33372 0.14744 0.0
Co257 Co 0.83695 0.3128 0.21741 0.0
O258 O 0.81413 0.3122 0.20407 0.0
C259 C 0.84608 0.34602 0.23357 0.0
C260 C 0.84705 0.35231 0.04509 0.0
C261 C 0.8069 0.32324 0.17832 0.0
O262 O 0.84279 0.34943 0.18013 0.0
O263 O 0.84525 0.33218 0.25459 0.0
O264 O 0.83093 0.31942 0.05478 0.0
O265 O 0.84291 0.31653 0.13799 0.0
Co266 Co 0.91812 0.58694 0.36803 0.0
O267 O 0.91517 0.605 0.31916 0.0
O268 O 0.89955 0.58446 0.31931 0.0
C269 C 0.9442 0.58452 0.35123 0.0
O270 O 0.91792 0.56598 0.41147 0.0
Co271 Co 0.94079 0.58906 0.47515 0.0
O272 O 0.93555 0.56669 0.48462 0.0
C273 C 0.91017 0.60472 0.47785 0.0
C274 C 0.90292 0.59815 0.29783 0.0
C275 C 0.92517 0.55961 0.45476 0.0
O276 O 0.90544 0.59712 0.4326 0.0
O277 O 0.92432 0.60457 0.49589 0.0
O278 O 0.93425 0.57878 0.31406 0.0
O279 O 0.93807 0.59236 0.39304 0.0
Co280 Co 0.66836 0.335 0.39437 0.0
O281 O 0.65032 0.33897 0.44187 0.0
O282 O 0.67151 0.35366 0.44253 0.0
C283 C 0.66935 0.30898 0.41349 0.0
O284 O 0.68943 0.33367 0.35137 0.0
Co285 Co 0.66485 0.31168 0.28946 0.0
O286 O 0.68794 0.3129 0.29094 0.0
C287 C 0.65144 0.34338 0.28286 0.0
C288 C 0.65758 0.35094 0.46326 0.0
C289 C 0.69569 0.32377 0.31575 0.0
O290 O 0.65892 0.34784 0.32874 0.0
O291 O 0.65104 0.32925 0.26477 0.0
O292 O 0.67562 0.3188 0.44986 0.0
O293 O 0.66186 0.31529 0.37111 0.0
Co294 Co 0.91614 0.41843 0.64191 0.0
O295 O 0.91267 0.39962 0.68632 0.0
O296 O 0.89787 0.42069 0.69225 0.0
C297 C 0.94232 0.41971 0.65863 0.0
O298 O 0.91655 0.44019 0.60412 0.0
Co299 Co 0.93863 0.41774 0.53393 0.0
O300 O 0.93445 0.44042 0.53186 0.0
C301 C 0.90615 0.40623 0.5224 0.0
C302 C 0.90087 0.40658 0.71045 0.0
C303 C 0.92413 0.44717 0.563 0.0
O304 O 0.90278 0.41015 0.57528 0.0
O305 O 0.91986 0.4073 0.50058 0.0
O306 O 0.93259 0.42499 0.69736 0.0
O307 O 0.93595 0.4128 0.61492 0.0
Co308 Co 0.83386 0.66683 0.90004 0.0
O309 O 0.85196 0.66436 0.94908 0.0
O310 O 0.83163 0.64847 0.94997 0.0
C311 C 0.83104 0.69291 0.91511 0.0
O312 O 0.8129 0.66621 0.85659 0.0
Co313 Co 0.8359 0.68889 0.79118 0.0
O314 O 0.81357 0.68343 0.78207 0.0
C315 C 0.85173 0.6584 0.79083 0.0
C316 C 0.84529 0.65212 0.97114 0.0
C317 C 0.80651 0.67321 0.81274 0.0
O318 O 0.84422 0.65393 0.83659 0.0
O319 O 0.85143 0.67237 0.77108 0.0
O320 O 0.82546 0.68306 0.95289 0.0
O321 O 0.83903 0.68673 0.87374 0.0
Co322 Co 0.5852 0.58459 0.14467 0.0
O323 O 0.58876 0.60341 0.18899 0.0
O324 O 0.60319 0.58211 0.19636 0.0
C325 C 0.55893 0.58393 0.15958 0.0
O326 O 0.5847 0.56279 0.10722 0.0
Co327 Co 0.56308 0.58522 0.03543 0.0
O328 O 0.567 0.56249 0.03427 0.0
C329 C 0.59588 0.59615 0.02547 0.0
C330 C 0.60034 0.5963 0.21404 0.0
C331 C 0.57721 0.55576 0.06597 0.0
O332 O 0.59897 0.59257 0.0789 0.0
O333 O 0.58228 0.59501 1.00263 0.0
O334 O 0.56835 0.5784 0.19892 0.0
O335 O 0.56565 0.59057 0.1161 0.0
Co336 Co 0.33542 0.3355 0.39354 0.0
O337 O 0.35399 0.33981 0.43834 0.0
O338 O 0.33235 0.35379 0.44334 0.0
C339 C 0.33537 0.30937 0.41138 0.0
O340 O 0.3138 0.33417 0.35488 0.0
Co341 Co 0.33712 0.31257 0.28687 0.0
O342 O 0.31429 0.31592 0.28387 0.0
C343 C 0.34715 0.34558 0.27387 0.0
C344 C 0.34654 0.35138 0.462 0.0
C345 C 0.30715 0.3262 0.31397 0.0
O346 O 0.34329 0.34897 0.32676 0.0
O347 O 0.34649 0.33178 0.25251 0.0
O348 O 0.32942 0.31895 0.44928 0.0
O349 O 0.34201 0.31592 0.36752 0.0
Co350 Co 0.41542 0.5849 0.14323 0.0
O351 O 0.41122 0.60315 0.18982 0.0
O352 O 0.39712 0.58157 0.19273 0.0
C353 C 0.44158 0.58448 0.16084 0.0
O354 O 0.41668 0.56358 0.10244 0.0
Co355 Co 0.43822 0.58745 0.03645 0.0
O356 O 0.43485 0.56466 0.03127 0.0
C357 C 0.40517 0.59745 0.02476 0.0
C358 C 0.39961 0.5956 0.21271 0.0
C359 C 0.42462 0.55727 0.06077 0.0
O360 O 0.4019 0.59326 0.07739 0.0
O361 O 0.41893 0.59698 1.00303 0.0
O362 O 0.43195 0.57838 0.19824 0.0
O363 O 0.43507 0.59156 0.11782 0.0
Co364 Co 0.1665 0.66733 0.89013 0.0
O365 O 0.14793 0.66165 0.9325 0.0
O366 O 0.1703 0.64893 0.93887 0.0
C367 C 0.16477 0.69325 0.91068 0.0
O368 O 0.18827 0.67034 0.85371 0.0
Co369 Co 0.16442 0.69102 0.78622 0.0
O370 O 0.1873 0.69196 0.79775 0.0
C371 C 0.15656 0.65752 0.76799 0.0
C372 C 0.15588 0.65045 0.95631 0.0
C373 C 0.19491 0.681 0.82243 0.0
O374 O 0.15988 0.65397 0.82126 0.0
O375 O 0.15692 0.67148 0.74789 0.0
O376 O 0.17115 0.68378 0.94802 0.0
O377 O 0.15885 0.68665 0.86547 0.0
Co378 Co 0.08542 0.41647 0.64505 0.0
O379 O 0.08929 0.39791 0.69043 0.0
O380 O 0.10399 0.41909 0.69377 0.0
C381 C 0.05935 0.41758 0.66386 0.0
O382 O 0.08467 0.438 0.60553 0.0
Co383 Co 0.06211 0.41514 0.53936 0.0
O384 O 0.06624 0.43782 0.53511 0.0
C385 C 0.09471 0.40402 0.52538 0.0
C386 C 0.1012 0.40505 0.71312 0.0
C387 C 0.07682 0.44473 0.56453 0.0
O388 O 0.0984 0.408 0.57789 0.0
O389 O 0.08084 0.40493 0.50475 0.0
O390 O 0.06926 0.42322 0.70128 0.0
O391 O 0.06552 0.41052 0.62018 0.0
Co392 Co 0.33436 0.66591 0.61352 0.0
O393 O 0.35326 0.66065 0.57258 0.0
O394 O 0.33117 0.64755 0.56388 0.0
C395 C 0.33578 0.69187 0.59384 0.0
O396 O 0.31234 0.66852 0.64835 0.0
Co397 Co 0.33557 0.6893 0.71845 0.0
O398 O 0.3128 0.69017 0.70429 0.0
C399 C 0.34418 0.65599 0.73572 0.0
C400 C 0.34568 0.64936 0.54779 0.0
C401 C 0.30542 0.67917 0.67887 0.0
O402 O 0.3409 0.65251 0.68235 0.0
O403 O 0.34353 0.66988 0.75632 0.0
O404 O 0.32977 0.68238 0.55572 0.0
O405 O 0.34155 0.68527 0.63933 0.0
Co406 Co 0.0876 0.58436 0.36122 0.0
O407 O 0.09132 0.60299 0.31624 0.0
O408 O 0.10577 0.5817 0.31042 0.0
C409 C 0.06138 0.58363 0.3448 0.0
O410 O 0.08682 0.56274 0.40009 0.0
Co411 Co 0.06509 0.58586 0.46923 0.0
O412 O 0.0689 0.56313 0.47231 0.0
C413 C 0.09802 0.59625 0.48046 0.0
C414 C 0.10296 0.59582 0.29197 0.0
C415 C 0.07912 0.55608 0.44166 0.0
O416 O 0.10119 0.59253 0.42725 0.0
O417 O 0.08435 0.59536 0.50278 0.0
O418 O 0.07096 0.57794 0.30635 0.0
O419 O 0.06795 0.59051 0.38814 0.0
Co420 Co 0.16687 0.3348 0.11505 0.0
O421 O 0.14819 0.33861 0.07033 0.0
O422 O 0.16949 0.35306 0.06472 0.0
C423 C 0.16755 0.30864 0.09803 0.0
O424 O 0.18853 0.33396 0.15366 0.0
Co425 Co 0.16557 0.31205 0.22245 0.0
O426 O 0.18832 0.31586 0.22523 0.0
C427 C 0.15489 0.34485 0.23448 0.0
C428 C 0.15535 0.35029 0.04632 0.0
C429 C 0.19529 0.32618 0.19482 0.0
O430 O 0.15873 0.34822 0.18155 0.0
O431 O 0.15576 0.33111 0.25618 0.0
O432 O 0.17323 0.31826 0.05971 0.0
O433 O 0.16074 0.31513 0.14162 0.0
Co434 Co 0.41677 0.41701 0.86374 0.0
O435 O 0.41295 0.39836 0.81893 0.0
O436 O 0.3983 0.41955 0.81434 0.0
C437 C 0.44288 0.41799 0.84544 0.0
O438 O 0.41758 0.4386 0.90275 0.0
Co439 Co 0.4399 0.41559 0.97006 0.0
O440 O 0.43581 0.43828 0.97395 0.0
C441 C 0.40715 0.40482 0.98348 0.0
C442 C 0.40111 0.40545 0.79562 0.0
C443 C 0.42539 0.44527 0.94402 0.0
O444 O 0.40363 0.40872 0.93073 0.0
O445 O 0.42098 0.40568 1.00457 0.0
O446 O 0.43305 0.4236 0.80772 0.0
O447 O 0.43662 0.41101 0.88914 0.0
H448 H 0.28712 0.15177 0.32438 0.0
H449 H 0.2137 0.20177 0.21236 0.0
H450 H 0.28496 0.20211 0.31599 0.0
H451 H 0.21382 0.15137 0.20613 0.0
H452 H 0.23999 0.20137 0.2517 0.0
H453 H 0.26013 0.15057 0.28644 0.0
C454 C 0.28086 0.16254 0.31577 0.0
C455 C 0.28828 0.17707 0.32323 0.0
C456 C 0.23441 0.19033 0.24162 0.0
C457 C 0.25772 0.17578 0.27903 0.0
C458 C 0.21937 0.19057 0.21882 0.0
C459 C 0.21154 0.17658 0.20606 0.0
C460 C 0.24184 0.17598 0.25243 0.0
C461 C 0.21951 0.16242 0.21503 0.0
C462 C 0.26557 0.16184 0.29347 0.0
C463 C 0.27975 0.19065 0.3106 0.0
N464 N 0.23424 0.16246 0.23821 0.0
N465 N 0.26504 0.18966 0.28902 0.0
H466 H 0.10051 0.96438 0.44119 0.0
H467 H 0.04905 0.03792 0.54091 0.0
H468 H 0.05016 0.96492 0.45307 0.0
H469 H 0.09917 0.03714 0.5624 0.0
H470 H 0.04992 0.01143 0.50353 0.0
H471 H 0.10102 0.99153 0.47751 0.0
C472 C 0.08959 0.97029 0.45038 0.0
C473 C 0.07527 0.9624 0.44417 0.0
C474 C 0.06078 0.01692 0.51662 0.0
C475 C 0.07576 0.99316 0.48626 0.0
C476 C 0.06028 0.03208 0.53817 0.0
C477 C 0.07406 0.03977 0.55475 0.0
C478 C 0.07521 0.00924 0.51087 0.0
C479 C 0.08826 0.03157 0.55047 0.0
C480 C 0.08989 0.98568 0.47173 0.0
C481 C 0.06147 0.9705 0.45746 0.0
N482 N 0.0885 0.01674 0.52843 0.0
N483 N 0.06208 0.98535 0.47787 0.0
H484 H 0.21725 0.79879 0.82049 0.0
H485 H 0.28884 0.84798 0.68886 0.0
H486 H 0.21585 0.84905 0.8072 0.0
H487 H 0.2886 0.79805 0.71572 0.0
H488 H 0.26214 0.84924 0.72906 0.0
H489 H 0.24388 0.79897 0.78367 0.0
C490 C 0.2227 0.80992 0.8106 0.0
C491 C 0.21436 0.82391 0.81697 0.0
C492 C 0.26795 0.83803 0.72575 0.0
C493 C 0.24489 0.82425 0.77293 0.0
C494 C 0.28309 0.83728 0.70217 0.0
C495 C 0.29098 0.82288 0.69901 0.0
C496 C 0.26071 0.82428 0.74588 0.0
C497 C 0.28305 0.80942 0.71761 0.0
C498 C 0.2379 0.81003 0.78912 0.0
C499 C 0.22197 0.83801 0.80343 0.0
N500 N 0.26846 0.81047 0.74029 0.0
N501 N 0.23679 0.83782 0.78136 0.0
H502 H 0.42904 0.04522 0.06074 0.0
H503 H 0.4243 0.95781 0.95636 0.0
H504 H 0.41532 0.03331 0.88554 0.0
H505 H 0.41804 0.97036 0.13661 0.0
H506 H 0.42157 0.98525 0.92914 0.0
H507 H 0.42574 0.01796 0.0893 0.0
C508 C 0.42529 0.03685 0.02821 0.0
C509 C 0.42264 0.0415 0.97038 0.0
C510 C 0.42061 0.98202 0.97457 0.0
C511 C 0.41891 0.01021 1.00302 0.0
C512 C 0.42226 0.96638 0.99024 0.0
C513 C 0.42157 0.96186 0.04895 0.0
C514 C 0.41859 0.99334 0.01799 0.0
C515 C 0.41868 0.97339 0.09092 0.0
C516 C 0.4233 0.02131 0.04476 0.0
C517 C 0.41756 0.0302 0.93044 0.0
N518 N 0.41757 0.98868 0.07471 0.0
N519 N 0.41609 0.015 0.9473 0.0
H520 H 0.79523 0.82866 0.69822 0.0
H521 H 0.70752 0.82652 0.80042 0.0
H522 H 0.78196 0.83803 0.87591 0.0
H523 H 0.71972 0.83633 0.622 0.0
H524 H 0.73472 0.83044 0.82861 0.0
H525 H 0.76791 0.83134 0.66871 0.0
C526 C 0.78655 0.83142 0.73101 0.0
C527 C 0.79083 0.83296 0.78979 0.0
C528 C 0.73147 0.8319 0.78338 0.0
C529 C 0.7595 0.83587 0.75621 0.0
C530 C 0.71596 0.82955 0.7671 0.0
C531 C 0.71141 0.8309 0.70858 0.0
C532 C 0.74266 0.83533 0.74074 0.0
C533 C 0.72277 0.83511 0.66749 0.0
C534 C 0.77098 0.83303 0.714 0.0
C535 C 0.77916 0.83673 0.83023 0.0
N536 N 0.73797 0.83693 0.68422 0.0
N537 N 0.76396 0.83779 0.81283 0.0
H538 H 0.95409 0.96218 0.4684 0.0
H539 H 0.90208 0.03591 0.56345 0.0
H540 H 0.90388 0.96213 0.44954 0.0
H541 H 0.95248 0.03411 0.56481 0.0
H542 H 0.90157 0.00868 0.52772 0.0
H543 H 0.95293 0.98859 0.50611 0.0
C544 C 0.94277 0.96782 0.47179 0.0
C545 C 0.92906 0.9599 0.45591 0.0
C546 C 0.91271 0.01425 0.53641 0.0
C547 C 0.92757 0.99039 0.50027 0.0
C548 C 0.91299 0.02969 0.55746 0.0
C549 C 0.92735 0.03726 0.56702 0.0
C550 C 0.92688 0.00643 0.52539 0.0
C551 C 0.94115 0.02877 0.55774 0.0
C552 C 0.9421 0.98295 0.49362 0.0
C553 C 0.91474 0.96787 0.46095 0.0
N554 N 0.94056 0.01392 0.53734 0.0
N555 N 0.91434 0.98269 0.48317 0.0
H556 H 0.72146 0.16564 0.38253 0.0
H557 H 0.7843 0.16507 0.12337 0.0
H558 H 0.70886 0.17271 0.20266 0.0
H559 H 0.79516 0.17903 0.29929 0.0
H560 H 0.75685 0.16128 0.15273 0.0
H561 H 0.74907 0.16367 0.35313 0.0
C562 C 0.72448 0.1665 0.33687 0.0
C563 C 0.71294 0.16952 0.29504 0.0
C564 C 0.76533 0.16508 0.1848 0.0
C565 C 0.74427 0.16719 0.26117 0.0
C566 C 0.78095 0.16722 0.1681 0.0
C567 C 0.79195 0.1726 0.2087 0.0
C568 C 0.76085 0.16801 0.24268 0.0
C569 C 0.787 0.17514 0.26627 0.0
C570 C 0.74019 0.16547 0.32015 0.0
C571 C 0.71746 0.17059 0.23637 0.0
N572 N 0.77184 0.17282 0.28152 0.0
N573 N 0.73277 0.16946 0.22116 0.0
H574 H 0.57722 0.04629 0.06175 0.0
H575 H 0.5755 0.95891 0.95605 0.0
H576 H 0.58692 0.03369 0.88363 0.0
H577 H 0.58557 0.97069 0.13471 0.0
H578 H 0.57924 0.9862 0.92883 0.0
H579 H 0.57997 0.0189 0.08996 0.0
C580 C 0.58005 0.03775 0.02859 0.0
C581 C 0.58167 0.04223 0.97008 0.0
C582 C 0.58079 0.98283 0.97389 0.0
C583 C 0.58467 0.01082 1.00216 0.0
C584 C 0.57855 0.96727 0.98961 0.0
C585 C 0.58003 0.96258 0.04793 0.0
C586 C 0.58423 0.99393 0.0169 0.0
C587 C 0.58425 0.97385 0.08936 0.0
C588 C 0.5817 0.02213 0.04485 0.0
C589 C 0.58554 0.03072 0.92914 0.0
N590 N 0.58595 0.98909 0.07319 0.0
N591 N 0.58664 0.01547 0.9458 0.0
H592 H 0.71898 0.66503 0.62337 0.0
H593 H 0.78181 0.66504 0.88311 0.0
H594 H 0.70793 0.67742 0.80066 0.0
H595 H 0.79421 0.67312 0.70367 0.0
H596 H 0.75427 0.66248 0.85349 0.0
H597 H 0.74644 0.66112 0.65269 0.0
C598 C 0.72229 0.66676 0.66841 0.0
C599 C 0.71126 0.67181 0.70942 0.0
C600 C 0.76309 0.66462 0.82064 0.0
C601 C 0.74236 0.6671 0.74331 0.0
C602 C 0.77877 0.666 0.83749 0.0
C603 C 0.79023 0.6695 0.79589 0.0
C604 C 0.75896 0.66648 0.76175 0.0
C605 C 0.78568 0.67066 0.73725 0.0
C606 C 0.73791 0.66457 0.68508 0.0
C607 C 0.71614 0.67382 0.76737 0.0
N608 N 0.7704 0.66921 0.72193 0.0
N609 N 0.7313 0.67148 0.78256 0.0
H610 H 0.58891 0.46847 0.88046 0.0
H611 H 0.58563 0.53155 0.13898 0.0
H612 H 0.57749 0.45651 0.05784 0.0
H613 H 0.57746 0.54278 0.95849 0.0
H614 H 0.58938 0.50397 0.11113 0.0
H615 H 0.5916 0.49596 0.91022 0.0
C616 C 0.5872 0.47158 0.9257 0.0
C617 C 0.58275 0.46026 0.96654 0.0
C618 C 0.58691 0.51255 0.07773 0.0
C619 C 0.58593 0.49149 1.00089 0.0
C620 C 0.58482 0.52824 0.09358 0.0
C621 C 0.58099 0.53937 0.05111 0.0
C622 C 0.58548 0.50813 0.01896 0.0
C623 C 0.58012 0.5345 0.99277 0.0
C624 C 0.58867 0.48724 0.94262 0.0
C625 C 0.58069 0.46493 0.02472 0.0
N626 N 0.58231 0.51927 0.97844 0.0
N627 N 0.58224 0.48018 0.04013 0.0
H628 H 0.71512 0.34977 0.3123 0.0
H629 H 0.78677 0.29911 0.18914 0.0
H630 H 0.71441 0.29999 0.28183 0.0
H631 H 0.78855 0.34947 0.19504 0.0
H632 H 0.75997 0.29991 0.22378 0.0
H633 H 0.74208 0.35062 0.2737 0.0
C634 C 0.72068 0.33904 0.29827 0.0
C635 C 0.71248 0.3248 0.30008 0.0
C636 C 0.76607 0.31086 0.21716 0.0
C637 C 0.74303 0.3257 0.25548 0.0
C638 C 0.78139 0.31039 0.19703 0.0
C639 C 0.78988 0.32423 0.18912 0.0
C640 C 0.75908 0.3253 0.23044 0.0
C641 C 0.78232 0.33853 0.20007 0.0
C642 C 0.73597 0.33955 0.27572 0.0
C643 C 0.72017 0.31126 0.28084 0.0
N644 N 0.76735 0.33871 0.22084 0.0
N645 N 0.7349 0.31207 0.25942 0.0
H646 H 0.92319 0.45983 0.45515 0.0
H647 H 0.92724 0.54698 0.56315 0.0
H648 H 0.91697 0.47176 0.63599 0.0
H649 H 0.91464 0.53527 0.38663 0.0
H650 H 0.9236 0.51969 0.59109 0.0
H651 H 0.9201 0.48731 0.42914 0.0
C652 C 0.92105 0.46827 0.48941 0.0
C653 C 0.92049 0.46357 0.54792 0.0
C654 C 0.92144 0.5231 0.54642 0.0
C655 C 0.91712 0.49512 0.51837 0.0
C656 C 0.92361 0.53866 0.53027 0.0
C657 C 0.92141 0.54337 0.47224 0.0
C658 C 0.91735 0.51204 0.50407 0.0
C659 C 0.9165 0.53213 0.43175 0.0
C660 C 0.9192 0.48394 0.47444 0.0
C661 C 0.9175 0.47493 0.59042 0.0
N662 N 0.91488 0.51692 0.44824 0.0
N663 N 0.9162 0.49026 0.5749 0.0
H664 H 0.28264 0.33547 0.38401 0.0
H665 H 0.21986 0.33479 0.12393 0.0
H666 H 0.29439 0.32442 0.20613 0.0
H667 H 0.20793 0.32544 0.30296 0.0
H668 H 0.24742 0.33777 0.15333 0.0
H669 H 0.25511 0.33852 0.35438 0.0
C670 C 0.27946 0.33386 0.33877 0.0
C671 C 0.29073 0.32944 0.29767 0.0
C672 C 0.23869 0.33521 0.1861 0.0
C673 C 0.25952 0.33314 0.26342 0.0
C674 C 0.22301 0.33357 0.16937 0.0
C675 C 0.21169 0.32963 0.21091 0.0
C676 C 0.24292 0.33321 0.24485 0.0
C677 C 0.21636 0.32821 0.26935 0.0
C678 C 0.2638 0.33556 0.32191 0.0
C679 C 0.28601 0.32755 0.23946 0.0
N680 N 0.2316 0.32996 0.28457 0.0
N681 N 0.27079 0.32939 0.22409 0.0
H682 H 0.42659 0.54514 0.95195 0.0
H683 H 0.42567 0.45733 0.05297 0.0
H684 H 0.41551 0.53228 0.12871 0.0
H685 H 0.41708 0.47021 0.87433 0.0
H686 H 0.42235 0.48458 0.0818 0.0
H687 H 0.42358 0.5179 0.92253 0.0
C688 C 0.42346 0.53655 0.98462 0.0
C689 C 0.42149 0.54093 0.0431 0.0
C690 C 0.421 0.48146 0.0364 0.0
C691 C 0.41812 0.50967 0.00953 0.0
C692 C 0.42299 0.46593 0.01978 0.0
C693 C 0.42183 0.46156 0.96101 0.0
C694 C 0.41815 0.49283 0.99384 0.0
C695 C 0.41812 0.47311 0.92002 0.0
C696 C 0.42163 0.52103 0.96762 0.0
C697 C 0.41719 0.52938 0.08329 0.0
N698 N 0.41668 0.48831 0.93709 0.0
N699 N 0.4159 0.51419 0.06592 0.0
H700 H 0.28673 0.65305 0.69243 0.0
H701 H 0.21435 0.70524 0.80013 0.0
H702 H 0.28566 0.70346 0.69523 0.0
H703 H 0.21375 0.65489 0.81103 0.0
H704 H 0.24068 0.70416 0.76104 0.0
H705 H 0.2598 0.65273 0.73099 0.0
C706 C 0.28072 0.66402 0.6999 0.0
C707 C 0.28843 0.67831 0.6907 0.0
C708 C 0.23493 0.69329 0.77222 0.0
C709 C 0.25794 0.67805 0.7357 0.0
C710 C 0.21987 0.69392 0.79495 0.0
C711 C 0.21182 0.68014 0.80888 0.0
C712 C 0.24211 0.67875 0.76264 0.0
C713 C 0.21961 0.66581 0.80131 0.0
C714 C 0.26546 0.66383 0.72259 0.0
C715 C 0.28021 0.69217 0.70196 0.0
N716 N 0.23431 0.66546 0.77816 0.0
N717 N 0.26552 0.69168 0.72399 0.0
H718 H 0.08738 0.46908 0.63286 0.0
H719 H 0.08664 0.53119 0.37066 0.0
H720 H 0.07482 0.45728 0.45636 0.0
H721 H 0.0793 0.54382 0.5503 0.0
H722 H 0.08918 0.50364 0.40067 0.0
H723 H 0.09122 0.49639 0.60199 0.0
C724 C 0.08561 0.4722 0.58766 0.0
C725 C 0.08052 0.46099 0.54735 0.0
C726 C 0.08718 0.51252 0.43344 0.0
C727 C 0.08511 0.49195 0.51167 0.0
C728 C 0.0858 0.52819 0.41634 0.0
C729 C 0.08252 0.5397 0.45795 0.0
C730 C 0.08558 0.50849 0.49255 0.0
C731 C 0.08155 0.53523 0.51671 0.0
C732 C 0.08776 0.48774 0.57008 0.0
C733 C 0.07845 0.46562 0.48913 0.0
N734 N 0.08303 0.52 0.53224 0.0
N735 N 0.08072 0.48072 0.47307 0.0
H736 H 0.12837 0.15421 0.99637 0.0
H737 H 0.12742 0.08182 0.77588 0.0
H738 H 0.16792 0.12295 0.98663 0.0
H739 H 0.09774 0.12254 0.76519 0.0
H740 H 0.14175 0.0944 0.85693 0.0
H741 H 0.11601 0.14018 0.91756 0.0
C742 C 0.13451 0.14432 0.97775 0.0
C743 C 0.14931 0.13985 0.9983 0.0
C744 C 0.13213 0.10052 0.83642 0.0
C745 C 0.135 0.12352 0.90643 0.0
C746 C 0.12395 0.09337 0.79027 0.0
C747 C 0.11129 0.10108 0.76367 0.0
C748 C 0.12745 0.11538 0.85622 0.0
C749 C 0.10733 0.11604 0.78413 0.0
C750 C 0.1274 0.1363 0.93227 0.0
C751 C 0.15653 0.12684 0.97207 0.0
N752 N 0.11529 0.12257 0.82899 0.0
N753 N 0.1493 0.11909 0.92735 0.0
H754 H 0.12816 0.84917 1.00373 0.0
H755 H 0.12986 0.91834 0.23746 0.0
H756 H 0.16937 0.87782 0.0235 0.0
H757 H 0.09975 0.8779 0.24625 0.0
H758 H 0.14353 0.90627 0.15404 0.0
H759 H 0.11622 0.86258 0.08542 0.0
C760 C 0.13472 0.85838 0.02502 0.0
C761 C 0.14987 0.86229 0.0066 0.0
C762 C 0.13398 0.90007 0.17466 0.0
C763 C 0.1361 0.87783 0.10143 0.0
C764 C 0.12618 0.90693 0.22221 0.0
C765 C 0.1136 0.89915 0.24901 0.0
C766 C 0.12896 0.88548 0.15342 0.0
C767 C 0.10934 0.88441 0.22727 0.0
C768 C 0.12788 0.86601 0.0721 0.0
C769 C 0.15768 0.87439 0.03627 0.0
N770 N 0.11689 0.87816 0.18082 0.0
N771 N 0.15071 0.88176 0.08231 0.0
H772 H 0.40597 0.87752 0.26296 0.0
H773 H 0.33455 0.87706 0.48795 0.0
H774 H 0.37451 0.91686 0.27422 0.0
H775 H 0.3757 0.84806 0.50134 0.0
H776 H 0.34684 0.89094 0.40547 0.0
H777 H 0.39258 0.86536 0.34427 0.0
C778 C 0.39617 0.88362 0.28237 0.0
C779 C 0.39143 0.89831 0.26157 0.0
C780 C 0.35314 0.88158 0.42688 0.0
C781 C 0.37588 0.88428 0.35592 0.0
C782 C 0.34615 0.87367 0.47391 0.0
C783 C 0.35407 0.86133 0.50174 0.0
C784 C 0.36803 0.87696 0.40723 0.0
C785 C 0.36908 0.85745 0.48152 0.0
C786 C 0.38854 0.87666 0.32922 0.0
C787 C 0.37859 0.90555 0.28888 0.0
N788 N 0.37546 0.86512 0.43561 0.0
N789 N 0.37123 0.89845 0.33467 0.0
H790 H 0.37367 0.08504 0.74716 0.0
H791 H 0.37516 0.15395 0.51146 0.0
H792 H 0.4054 0.12427 0.74983 0.0
H793 H 0.33427 0.12492 0.53257 0.0
H794 H 0.38749 0.14057 0.59248 0.0
H795 H 0.35987 0.09717 0.66419 0.0
C796 C 0.3777 0.09619 0.73059 0.0
C797 C 0.39075 0.10362 0.75563 0.0
C798 C 0.37582 0.13705 0.57962 0.0
C799 C 0.37519 0.11739 0.66055 0.0
C800 C 0.36875 0.14467 0.53293 0.0
C801 C 0.35358 0.14064 0.51503 0.0
C802 C 0.3678 0.12512 0.60911 0.0
C803 C 0.34597 0.12845 0.54491 0.0
C804 C 0.36982 0.10309 0.6833 0.0
C805 C 0.39543 0.11805 0.73225 0.0
N806 N 0.35316 0.1211 0.59055 0.0
N807 N 0.38776 0.12435 0.68614 0.0
H808 H 0.83477 0.87817 0.02385 0.0
H809 H 0.90575 0.8756 0.25192 0.0
H810 H 0.87158 0.84366 0.02653 0.0
H811 H 0.87628 0.91636 0.23668 0.0
H812 H 0.89131 0.86323 0.17391 0.0
H813 H 0.8479 0.89195 0.10475 0.0
C814 C 0.84557 0.8735 0.0413 0.0
C815 C 0.85206 0.8597 0.01825 0.0
C816 C 0.88791 0.87488 0.1873 0.0
C817 C 0.86702 0.8753 0.11071 0.0
C818 C 0.89618 0.882 0.23226 0.0
C819 C 0.89231 0.89713 0.25105 0.0
C820 C 0.87551 0.88283 0.16023 0.0
C821 C 0.87969 0.9047 0.22357 0.0
C822 C 0.85306 0.88137 0.08737 0.0
C823 C 0.86608 0.85421 0.04258 0.0
N824 N 0.87172 0.89747 0.17942 0.0
N825 N 0.87299 0.86196 0.08725 0.0
H826 H 0.83536 0.12421 0.98675 0.0
H827 H 0.90403 0.12479 0.75012 0.0
H828 H 0.87478 0.1557 0.98821 0.0
H829 H 0.87475 0.08416 0.77307 0.0
H830 H 0.89076 0.13743 0.83069 0.0
H831 H 0.84726 0.11026 0.90379 0.0
C832 C 0.8465 0.12816 0.96987 0.0
C833 C 0.85407 0.14117 0.99463 0.0
C834 C 0.88717 0.12576 0.81831 0.0
C835 C 0.86759 0.12544 0.89953 0.0
C836 C 0.89472 0.11851 0.77189 0.0
C837 C 0.89058 0.10331 0.75466 0.0
C838 C 0.87521 0.11789 0.84822 0.0
C839 C 0.87835 0.09587 0.78487 0.0
C840 C 0.85328 0.1202 0.9226 0.0
C841 C 0.86848 0.14576 0.97086 0.0
N842 N 0.87108 0.10323 0.83027 0.0
N843 N 0.87467 0.138 0.92475 0.0
H844 H 0.59476 0.12455 0.74273 0.0
H845 H 0.66815 0.12407 0.5252 0.0
H846 H 0.62748 0.08615 0.73907 0.0
H847 H 0.63005 0.15713 0.5201 0.0
H848 H 0.6548 0.11023 0.60527 0.0
H849 H 0.60897 0.13699 0.66406 0.0
C850 C 0.60499 0.1187 0.72544 0.0
C851 C 0.60988 0.10423 0.74773 0.0
C852 C 0.6494 0.1205 0.58637 0.0
C853 C 0.6264 0.11857 0.65643 0.0
C854 C 0.65701 0.1284 0.54072 0.0
C855 C 0.65024 0.14181 0.5158 0.0
C856 C 0.635 0.12614 0.60733 0.0
C857 C 0.63578 0.14688 0.53772 0.0
C858 C 0.61312 0.12584 0.68016 0.0
C859 C 0.62327 0.0973 0.72321 0.0
N860 N 0.62873 0.1391 0.58201 0.0
N861 N 0.63109 0.10454 0.67884 0.0
H862 H 0.62657 0.84624 0.49594 0.0
H863 H 0.62746 0.9175 0.26948 0.0
H864 H 0.66605 0.8775 0.48432 0.0
H865 H 0.59613 0.87802 0.2609 0.0
H866 H 0.64108 0.90487 0.35173 0.0
H867 H 0.61432 0.85981 0.41504 0.0
C868 C 0.63268 0.85603 0.47655 0.0
C869 C 0.64743 0.86067 0.49714 0.0
C870 C 0.63126 0.899 0.33152 0.0
C871 C 0.63331 0.87641 0.4033 0.0
C872 C 0.62349 0.90618 0.2846 0.0
C873 C 0.6106 0.89883 0.2581 0.0
C874 C 0.62597 0.88446 0.3524 0.0
C875 C 0.60597 0.88418 0.27967 0.0
C876 C 0.62566 0.86377 0.42995 0.0
C877 C 0.65469 0.8735 0.46987 0.0
N878 N 0.61356 0.87758 0.32544 0.0
N879 N 0.64756 0.88094 0.42435 0.0
H880 H 0.66571 0.62434 0.49009 0.0
H881 H 0.59448 0.62467 0.26297 0.0
H882 H 0.62657 0.65614 0.49606 0.0
H883 H 0.62619 0.58557 0.27534 0.0
H884 H 0.60788 0.63713 0.3439 0.0
H885 H 0.65303 0.61053 0.40851 0.0
C886 C 0.65446 0.62838 0.47453 0.0
C887 C 0.64722 0.64145 0.5001 0.0
C888 C 0.61198 0.62582 0.32914 0.0
C889 C 0.63277 0.62584 0.40652 0.0
C890 C 0.60433 0.61869 0.28255 0.0
C891 C 0.60916 0.60399 0.26212 0.0
C892 C 0.62472 0.61834 0.35592 0.0
C893 C 0.62204 0.59689 0.28964 0.0
C894 C 0.64723 0.6205 0.42797 0.0
C895 C 0.63264 0.64615 0.47799 0.0
N896 N 0.6294 0.60414 0.3351 0.0
N897 N 0.62599 0.63844 0.43258 0.0
H898 H 0.59463 0.37849 0.73571 0.0
H899 H 0.66887 0.37707 0.52229 0.0
H900 H 0.62833 0.41604 0.73538 0.0
H901 H 0.62906 0.34619 0.51161 0.0
H902 H 0.65572 0.39124 0.60227 0.0
H903 H 0.60869 0.36603 0.65678 0.0
C904 C 0.60504 0.38415 0.71909 0.0
C905 C 0.61025 0.39839 0.74241 0.0
C906 C 0.64991 0.38138 0.58208 0.0
C907 C 0.62662 0.38402 0.65075 0.0
C908 C 0.6574 0.3733 0.53648 0.0
C909 C 0.6501 0.36037 0.51012 0.0
C910 C 0.63511 0.37638 0.6015 0.0
C911 C 0.63523 0.35602 0.53038 0.0
C912 C 0.61309 0.37701 0.67363 0.0
C913 C 0.62388 0.40508 0.71868 0.0
N914 N 0.62833 0.36393 0.57462 0.0
N915 N 0.63163 0.39782 0.67414 0.0
H916 H 0.90716 0.37853 0.76113 0.0
H917 H 0.83507 0.37763 0.98389 0.0
H918 H 0.87451 0.41693 0.76957 0.0
H919 H 0.87579 0.34802 0.99693 0.0
H920 H 0.84753 0.3914 0.90169 0.0
H921 H 0.8938 0.36612 0.84221 0.0
C922 C 0.89711 0.38436 0.77986 0.0
C923 C 0.89201 0.39886 0.75834 0.0
C924 C 0.85371 0.38193 0.92289 0.0
C925 C 0.87651 0.38457 0.8523 0.0
C926 C 0.84662 0.37408 0.96979 0.0
C927 C 0.85437 0.36162 0.99752 0.0
C928 C 0.86855 0.37715 0.90323 0.0
C929 C 0.86932 0.35752 0.9772 0.0
C930 C 0.88949 0.37727 0.82655 0.0
C931 C 0.87887 0.40577 0.78477 0.0
N932 N 0.87582 0.36517 0.9314 0.0
N933 N 0.87155 0.39856 0.83035 0.0
H934 H 0.90893 0.62594 0.24502 0.0
H935 H 0.83534 0.62523 0.02783 0.0
H936 H 0.87602 0.5877 0.24228 0.0
H937 H 0.87304 0.65875 0.02345 0.0
H938 H 0.84881 0.61151 0.10791 0.0
H939 H 0.89464 0.6384 0.16644 0.0
C940 C 0.89864 0.62013 0.22797 0.0
C941 C 0.89372 0.6057 0.25049 0.0
C942 C 0.8541 0.62186 0.0892 0.0
C943 C 0.87711 0.62007 0.15934 0.0
C944 C 0.84642 0.62969 0.04353 0.0
C945 C 0.85304 0.64319 0.01877 0.0
C946 C 0.86843 0.62764 0.11035 0.0
C947 C 0.86743 0.64842 0.04094 0.0
C948 C 0.89046 0.62728 0.18276 0.0
C949 C 0.88025 0.59882 0.22626 0.0
N950 N 0.87455 0.6407 0.08524 0.0
N951 N 0.87239 0.60607 0.18198 0.0
H952 H 0.33509 0.37731 0.52104 0.0
H953 H 0.40655 0.37701 0.74692 0.0
H954 H 0.37479 0.34624 0.51294 0.0
H955 H 0.37505 0.41631 0.73545 0.0
H956 H 0.39293 0.36464 0.66651 0.0
H957 H 0.34764 0.39106 0.60318 0.0
C958 C 0.34643 0.37342 0.53625 0.0
C959 C 0.35387 0.36057 0.5099 0.0
C960 C 0.38892 0.37597 0.68133 0.0
C961 C 0.36816 0.3761 0.60404 0.0
C962 C 0.3967 0.38306 0.72765 0.0
C963 C 0.39201 0.3978 0.74814 0.0
C964 C 0.3762 0.38352 0.65479 0.0
C965 C 0.37909 0.40496 0.72106 0.0
C966 C 0.35357 0.38127 0.5831 0.0
C967 C 0.36855 0.35605 0.53158 0.0
N968 N 0.37161 0.39775 0.67575 0.0
N969 N 0.37511 0.36371 0.57723 0.0
H970 H 0.37522 0.65267 0.50639 0.0
H971 H 0.37298 0.5844 0.26818 0.0
H972 H 0.33364 0.62482 0.48184 0.0
H973 H 0.40551 0.62297 0.26854 0.0
H974 H 0.35921 0.59655 0.35116 0.0
H975 H 0.38755 0.63907 0.426 0.0
C976 C 0.36865 0.6436 0.48429 0.0
C977 C 0.35328 0.63998 0.50102 0.0
C978 C 0.36933 0.60232 0.33273 0.0
C979 C 0.36752 0.62421 0.4076 0.0
C980 C 0.3772 0.5954 0.28546 0.0
C981 C 0.39045 0.60266 0.26121 0.0
C982 C 0.37492 0.61644 0.35628 0.0
C983 C 0.39538 0.6169 0.28546 0.0
C984 C 0.37573 0.63586 0.43797 0.0
C985 C 0.34549 0.62803 0.47041 0.0
N986 N 0.3877 0.62322 0.33152 0.0
N987 N 0.35269 0.62056 0.42507 0.0
H988 H 0.16857 0.62549 0.01804 0.0
H989 H 0.09675 0.62383 0.24128 0.0
H990 H 0.12693 0.65374 1.0034 0.0
H991 H 0.12919 0.58526 0.23202 0.0
H992 H 0.10998 0.63614 0.15989 0.0
H993 H 0.15639 0.61144 0.10034 0.0
C994 C 0.15688 0.62868 0.03176 0.0
C995 C 0.14879 0.64086 1.00364 0.0
C996 C 0.11427 0.62498 0.17539 0.0
C997 C 0.13495 0.62504 0.09798 0.0
C998 C 0.10673 0.61793 0.22229 0.0
C999 C 0.1118 0.60341 0.2437 0.0
C1000 C 0.12716 0.61762 0.14924 0.0
C1001 C 0.12485 0.59643 0.21689 0.0
C1002 C 0.14995 0.62067 0.07871 0.0
C1003 C 0.13368 0.64449 0.02346 0.0
N1004 N 0.13212 0.60361 0.17105 0.0
N1005 N 0.12736 0.63673 0.06931 0.0
H1006 H 0.12758 0.416 0.77065 0.0
H1007 H 0.12695 0.34471 0.99723 0.0
H1008 H 0.09566 0.37696 0.76476 0.0
H1009 H 0.16624 0.37622 0.98568 0.0
H1010 H 0.11458 0.35826 0.91659 0.0
H1011 H 0.14137 0.4033 0.85232 0.0
C1012 C 0.12351 0.40477 0.78625 0.0
C1013 C 0.11041 0.39757 0.76067 0.0
C1014 C 0.12591 0.36228 0.93145 0.0
C1015 C 0.12599 0.38309 0.8543 0.0
C1016 C 0.133 0.35455 0.9779 0.0
C1017 C 0.14772 0.35928 0.99848 0.0
C1018 C 0.13346 0.375 0.9049 0.0
C1019 C 0.1549 0.37216 0.97126 0.0
C1020 C 0.13138 0.39754 0.83284 0.0
C1021 C 0.10567 0.38301 0.78282 0.0
N1022 N 0.14769 0.3796 0.92586 0.0
N1023 N 0.11337 0.37636 0.82822 0.0
H1024 H 0.15844 0.28789 0.17973 0.0
H1025 H 0.18269 0.20975 0.01017 0.0
H1026 H 0.18023 0.2901 0.01051 0.0
H1027 H 0.15622 0.21239 0.1698 0.0
H1028 H 0.18392 0.23865 0.00864 0.0
H1029 H 0.15991 0.2598 0.17694 0.0
C1030 C 0.16361 0.28246 0.14178 0.0
C1031 C 0.16918 0.29143 0.09521 0.0
C1032 C 0.17791 0.23279 0.04388 0.0
C1033 C 0.17075 0.25875 0.09125 0.0
C1034 C 0.17721 0.21635 0.0448 0.0
C1035 C 0.16937 0.20863 0.09025 0.0
C1036 C 0.17077 0.24138 0.08888 0.0
C1037 C 0.16245 0.21772 0.13395 0.0
C1038 C 0.16442 0.26629 0.14011 0.0
C1039 C 0.17576 0.28359 0.04731 0.0
N1040 N 0.16333 0.23348 0.13208 0.0
N1041 N 0.17632 0.26762 0.04637 0.0
H1042 H 0.96496 0.90319 0.42107 0.0
H1043 H 0.04332 0.93008 0.25881 0.0
H1044 H 0.963 0.92985 0.2617 0.0
H1045 H 0.04069 0.90342 0.41797 0.0
H1046 H 0.01443 0.93086 0.25599 0.0
H1047 H 0.99305 0.90401 0.41801 0.0
C1048 C 0.97045 0.9093 0.38522 0.0
C1049 C 0.96152 0.9165 0.34161 0.0
C1050 C 0.02027 0.92488 0.29138 0.0
C1051 C 0.99425 0.91739 0.33748 0.0
C1052 C 0.03671 0.92442 0.293 0.0
C1053 C 0.04443 0.91669 0.33874 0.0
C1054 C 0.01165 0.91755 0.33583 0.0
C1055 C 0.03533 0.90955 0.3819 0.0
C1056 C 0.98663 0.90974 0.38343 0.0
C1057 C 0.96946 0.92415 0.29623 0.0
N1058 N 0.01954 0.91018 0.37929 0.0
N1059 N 0.98545 0.9244 0.29522 0.0
H1060 H 0.35084 0.7885 0.66946 0.0
H1061 H 0.32262 0.71045 0.50765 0.0
H1062 H 0.32343 0.79053 0.51184 0.0
H1063 H 0.34813 0.7126 0.66961 0.0
H1064 H 0.32267 0.73933 0.50428 0.0
H1065 H 0.34995 0.76033 0.66611 0.0
C1066 C 0.34459 0.783 0.63393 0.0
C1067 C 0.33715 0.79194 0.59096 0.0
C1068 C 0.32822 0.73339 0.54042 0.0
C1069 C 0.33608 0.75924 0.58667 0.0
C1070 C 0.32821 0.71696 0.54234 0.0
C1071 C 0.33537 0.70911 0.589 0.0
C1072 C 0.33548 0.74187 0.58542 0.0
C1073 C 0.34242 0.71807 0.63281 0.0
C1074 C 0.34408 0.76681 0.632 0.0
C1075 C 0.32931 0.78405 0.54587 0.0
N1076 N 0.34229 0.73386 0.62984 0.0
N1077 N 0.32896 0.76808 0.54485 0.0
H1078 H 0.46313 0.09592 0.93249 0.0
H1079 H 0.5408 0.07097 0.76153 0.0
H1080 H 0.46043 0.07159 0.76822 0.0
H1081 H 0.53866 0.09226 0.93166 0.0
H1082 H 0.51186 0.07012 0.76007 0.0
H1083 H 0.4912 0.09393 0.92989 0.0
C1084 C 0.46845 0.09008 0.8957 0.0
C1085 C 0.45935 0.08388 0.85057 0.0
C1086 C 0.51784 0.07486 0.79769 0.0
C1087 C 0.49201 0.0816 0.84694 0.0
C1088 C 0.5343 0.07532 0.79859 0.0
C1089 C 0.54217 0.08175 0.84669 0.0
C1090 C 0.50938 0.08086 0.84527 0.0
C1091 C 0.53322 0.08724 0.89349 0.0
C1092 C 0.48462 0.08893 0.89419 0.0
C1093 C 0.46705 0.07651 0.80396 0.0
N1094 N 0.51743 0.08669 0.89142 0.0
N1095 N 0.48301 0.07561 0.80317 0.0
H1096 H 0.18015 0.79195 0.99754 0.0
H1097 H 0.15087 0.71389 0.83841 0.0
H1098 H 0.15414 0.7899 0.8367 0.0
H1099 H 0.17947 0.71194 0.99307 0.0
H1100 H 0.15165 0.74209 0.84181 0.0
H1101 H 0.17992 0.76309 1.00119 0.0
C1102 C 0.17442 0.78547 0.96315 0.0
C1103 C 0.16717 0.79334 0.91672 0.0
C1104 C 0.15781 0.73562 0.87523 0.0
C1105 C 0.16683 0.76058 0.92066 0.0
C1106 C 0.15736 0.71941 0.87329 0.0
C1107 C 0.16517 0.7105 0.91538 0.0
C1108 C 0.16615 0.7432 0.91965 0.0
C1109 C 0.17329 0.71841 0.95972 0.0
C1110 C 0.1743 0.76904 0.96524 0.0
C1111 C 0.15992 0.7844 0.87331 0.0
N1112 N 0.17361 0.73438 0.9607 0.0
N1113 N 0.15994 0.7686 0.87644 0.0
H1114 H 0.46262 0.90754 0.07846 0.0
H1115 H 0.54117 0.93092 0.2477 0.0
H1116 H 0.46102 0.92992 0.24671 0.0
H1117 H 0.53851 0.90772 0.08118 0.0
H1118 H 0.51228 0.9319 0.2501 0.0
H1119 H 0.49077 0.90887 0.08016 0.0
C1120 C 0.4682 0.91281 0.11595 0.0
C1121 C 0.45939 0.91862 0.16254 0.0
C1122 C 0.51812 0.92666 0.21312 0.0
C1123 C 0.4921 0.92008 0.16514 0.0
C1124 C 0.53456 0.92611 0.21171 0.0
C1125 C 0.54227 0.91923 0.16417 0.0
C1126 C 0.5095 0.92031 0.1666 0.0
C1127 C 0.53317 0.91316 0.11875 0.0
C1128 C 0.4844 0.91355 0.11696 0.0
C1129 C 0.46741 0.92529 0.20988 0.0
N1130 N 0.51738 0.91384 0.12121 0.0
N1131 N 0.48338 0.9258 0.21013 0.0
H1132 H 0.32185 0.21073 0.50468 0.0
H1133 H 0.34605 0.28853 0.33256 0.0
H1134 H 0.34702 0.21268 0.34208 0.0
H1135 H 0.32249 0.29086 0.49841 0.0
H1136 H 0.34528 0.26038 0.33691 0.0
H1137 H 0.32093 0.23962 0.50546 0.0
C1138 C 0.32716 0.2172 0.46931 0.0
C1139 C 0.3345 0.20928 0.4232 0.0
C1140 C 0.34023 0.26691 0.37262 0.0
C1141 C 0.33347 0.24205 0.42373 0.0
C1142 C 0.34064 0.28311 0.37007 0.0
C1143 C 0.33432 0.29212 0.4152 0.0
C1144 C 0.33349 0.25943 0.42085 0.0
C1145 C 0.3275 0.28431 0.46267 0.0
C1146 C 0.32662 0.23363 0.46976 0.0
C1147 C 0.34119 0.21819 0.37849 0.0
N1148 N 0.32728 0.26834 0.4644 0.0
N1149 N 0.34049 0.23398 0.37996 0.0
H1150 H 0.96 0.07074 0.74951 0.0
H1151 H 0.03902 0.09679 0.58983 0.0
H1152 H 0.96321 0.0954 0.58609 0.0
H1153 H 0.04025 0.06957 0.74797 0.0
H1154 H 0.01088 0.09609 0.59143 0.0
H1155 H 0.98887 0.06985 0.75356 0.0
C1156 C 0.96674 0.07593 0.71461 0.0
C1157 C 0.95918 0.08317 0.66739 0.0
C1158 C 0.01716 0.0902 0.626 0.0
C1159 C 0.99194 0.08219 0.67174 0.0
C1160 C 0.03336 0.09058 0.62507 0.0
C1161 C 0.04208 0.08318 0.66875 0.0
C1162 C 0.00934 0.0824 0.67113 0.0
C1163 C 0.03395 0.07542 0.71338 0.0
C1164 C 0.98317 0.0754 0.71693 0.0
C1165 C 0.96844 0.08969 0.62334 0.0
N1166 N 0.01795 0.07523 0.71354 0.0
N1167 N 0.98422 0.08904 0.62671 0.0
H1168 H 0.81835 0.71115 1.00329 0.0
H1169 H 0.83739 0.78942 0.82584 0.0
H1170 H 0.83792 0.71373 0.83048 0.0
H1171 H 0.81897 0.79125 1.00049 0.0
H1172 H 0.83515 0.76134 0.82695 0.0
H1173 H 0.81622 0.73998 1.00391 0.0
C1174 C 0.82204 0.71772 0.96543 0.0
C1175 C 0.82839 0.71001 0.91685 0.0
C1176 C 0.83151 0.76775 0.86526 0.0
C1177 C 0.82597 0.74272 0.91722 0.0
C1178 C 0.83277 0.78391 0.86458 0.0
C1179 C 0.82843 0.79276 0.91325 0.0
C1180 C 0.82602 0.76011 0.91531 0.0
C1181 C 0.82246 0.78484 0.96204 0.0
C1182 C 0.82085 0.73413 0.96586 0.0
C1183 C 0.83301 0.71906 0.86904 0.0
N1184 N 0.82155 0.76888 0.96211 0.0
N1185 N 0.83174 0.73482 0.87059 0.0
H1186 H 0.68372 0.21024 0.50365 0.0
H1187 H 0.65889 0.28805 0.33485 0.0
H1188 H 0.66435 0.21278 0.33043 0.0
H1189 H 0.68395 0.29066 0.49771 0.0
H1190 H 0.66129 0.26006 0.33622 0.0
H1191 H 0.68471 0.23915 0.50594 0.0
C1192 C 0.67985 0.21682 0.46606 0.0
C1193 C 0.67384 0.20908 0.41692 0.0
C1194 C 0.66638 0.26661 0.37183 0.0
C1195 C 0.6749 0.24183 0.41929 0.0
C1196 C 0.66501 0.28273 0.37105 0.0
C1197 C 0.67129 0.2918 0.41614 0.0
C1198 C 0.67399 0.25919 0.41837 0.0
C1199 C 0.67897 0.28408 0.46201 0.0
C1200 C 0.68039 0.23327 0.46743 0.0
C1201 C 0.66898 0.21813 0.36945 0.0
N1202 N 0.68006 0.26813 0.46217 0.0
N1203 N 0.66957 0.2339 0.37202 0.0
H1204 H 0.82332 0.2914 0.0075 0.0
H1205 H 0.84815 0.21299 0.17487 0.0
H1206 H 0.84857 0.28907 0.16995 0.0
H1207 H 0.82358 0.21137 0.01087 0.0
H1208 H 0.84748 0.2412 0.17194 0.0
H1209 H 0.82248 0.26253 0.00559 0.0
C1210 C 0.82866 0.28485 0.04262 0.0
C1211 C 0.83602 0.29266 0.08898 0.0
C1212 C 0.84218 0.2348 0.13636 0.0
C1213 C 0.83508 0.25988 0.08713 0.0
C1214 C 0.84255 0.21858 0.13807 0.0
C1215 C 0.8359 0.20975 0.09304 0.0
C1216 C 0.83516 0.24248 0.08911 0.0
C1217 C 0.82884 0.21776 0.0465 0.0
C1218 C 0.82817 0.26842 0.04152 0.0
C1219 C 0.84274 0.28364 0.13335 0.0
N1220 N 0.82866 0.23374 0.04562 0.0
N1221 N 0.84209 0.26784 0.13124 0.0
H1222 H 0.67952 0.71074 0.50657 0.0
H1223 H 0.65904 0.78931 0.68013 0.0
H1224 H 0.6582 0.71379 0.67642 0.0
H1225 H 0.67865 0.7911 0.50721 0.0
H1226 H 0.6606 0.76124 0.67829 0.0
H1227 H 0.68099 0.73962 0.50403 0.0
C1228 C 0.67525 0.71743 0.54327 0.0
C1229 C 0.66872 0.70982 0.59177 0.0
C1230 C 0.66462 0.76762 0.64045 0.0
C1231 C 0.67039 0.74257 0.58923 0.0
C1232 C 0.66376 0.78379 0.64156 0.0
C1233 C 0.6687 0.79265 0.59371 0.0
C1234 C 0.67034 0.75996 0.59083 0.0
C1235 C 0.6747 0.78468 0.54503 0.0
C1236 C 0.67608 0.73386 0.54177 0.0
C1237 C 0.66334 0.71902 0.63807 0.0
N1238 N 0.67528 0.76871 0.54462 0.0
N1239 N 0.66429 0.73478 0.63552 0.0
H1240 H 0.53967 0.41256 0.93254 0.0
H1241 H 0.46084 0.43133 0.75774 0.0
H1242 H 0.54118 0.43058 0.75721 0.0
H1243 H 0.46414 0.40907 0.92588 0.0
H1244 H 0.48968 0.43348 0.75596 0.0
H1245 H 0.51157 0.41406 0.93104 0.0
C1246 C 0.53409 0.41694 0.89354 0.0
C1247 C 0.54287 0.42138 0.84481 0.0
C1248 C 0.48399 0.42821 0.79316 0.0
C1249 C 0.51016 0.42289 0.84231 0.0
C1250 C 0.46758 0.42698 0.79423 0.0
C1251 C 0.46006 0.42001 0.84204 0.0
C1252 C 0.49276 0.42249 0.84041 0.0
C1253 C 0.46931 0.41455 0.88809 0.0
C1254 C 0.5179 0.41775 0.89263 0.0
C1255 C 0.53482 0.42702 0.79571 0.0
N1256 N 0.48506 0.41592 0.88601 0.0
N1257 N 0.51884 0.4275 0.79545 0.0
H1258 H 0.96505 0.59154 0.43547 0.0
H1259 H 0.04283 0.57077 0.25774 0.0
H1260 H 0.96253 0.57231 0.26208 0.0
H1261 H 0.04064 0.59263 0.42684 0.0
H1262 H 0.01395 0.5692 0.25731 0.0
H1263 H 0.99309 0.5896 0.43269 0.0
C1264 C 0.97039 0.5868 0.39663 0.0
C1265 C 0.96134 0.58213 0.34885 0.0
C1266 C 0.01989 0.57425 0.29444 0.0
C1267 C 0.99402 0.58007 0.34486 0.0
C1268 C 0.03632 0.57515 0.29474 0.0
C1269 C 0.04417 0.58186 0.34238 0.0
C1270 C 0.01141 0.58005 0.34226 0.0
C1271 C 0.0352 0.58735 0.38911 0.0
C1272 C 0.98655 0.58572 0.39498 0.0
C1273 C 0.9691 0.57605 0.29987 0.0
N1274 N 0.01942 0.58633 0.38773 0.0
N1275 N 0.98508 0.57529 0.29887 0.0
H1276 H 0.96287 0.41604 0.57035 0.0
H1277 H 0.04137 0.4303 0.75289 0.0
H1278 H 0.96094 0.42837 0.75229 0.0
H1279 H 0.03814 0.40978 0.5817 0.0
H1280 H 0.01254 0.43284 0.75408 0.0
H1281 H 0.99099 0.41761 0.57335 0.0
C1282 C 0.96836 0.41914 0.61116 0.0
C1283 C 0.95948 0.42194 0.66126 0.0
C1284 C 0.01826 0.42786 0.71635 0.0
C1285 C 0.99216 0.42348 0.66545 0.0
C1286 C 0.03466 0.42643 0.7156 0.0
C1287 C 0.0422 0.41984 0.66708 0.0
C1288 C 0.00953 0.42279 0.66799 0.0
C1289 C 0.03296 0.41497 0.62004 0.0
C1290 C 0.98454 0.42 0.61293 0.0
C1291 C 0.96739 0.42606 0.71269 0.0
N1292 N 0.01724 0.41656 0.62176 0.0
N1293 N 0.98337 0.42657 0.71371 0.0
H1294 H 0.45986 0.57079 0.24669 0.0
H1295 H 0.53853 0.59253 0.07563 0.0
H1296 H 0.46261 0.59481 0.08184 0.0
H1297 H 0.53996 0.57204 0.24721 0.0
H1298 H 0.51035 0.59134 0.07725 0.0
H1299 H 0.48871 0.56932 0.24847 0.0
C1300 C 0.46649 0.57568 0.21092 0.0
C1301 C 0.4588 0.58293 0.16404 0.0
C1302 C 0.5167 0.58705 0.11479 0.0
C1303 C 0.49156 0.58126 0.16571 0.0
C1304 C 0.53291 0.5877 0.11383 0.0
C1305 C 0.54168 0.58242 0.16145 0.0
C1306 C 0.50896 0.58116 0.16395 0.0
C1307 C 0.53362 0.57627 0.2096 0.0
C1308 C 0.48291 0.57485 0.21199 0.0
C1309 C 0.46793 0.58909 0.11889 0.0
N1310 N 0.51764 0.57586 0.20981 0.0
N1311 N 0.48372 0.58811 0.12095 0.0
H1312 H 0.12119 0.15988 0.26306 0.0
H1313 H 0.12188 0.0888 0.48764 0.0
H1314 H 0.16118 0.1293 0.2728 0.0
H1315 H 0.09265 0.12973 0.49925 0.0
H1316 H 0.13623 0.1012 0.40641 0.0
H1317 H 0.10899 0.14554 0.34207 0.0
C1318 C 0.12724 0.14986 0.28124 0.0
C1319 C 0.14216 0.14573 0.26161 0.0
C1320 C 0.12686 0.10752 0.42764 0.0
C1321 C 0.12854 0.12953 0.35391 0.0
C1322 C 0.11885 0.10057 0.47432 0.0
C1323 C 0.10614 0.10834 0.49991 0.0
C1324 C 0.12189 0.12217 0.40679 0.0
C1325 C 0.10238 0.12338 0.48052 0.0
C1326 C 0.12039 0.1418 0.32692 0.0
C1327 C 0.14957 0.13271 0.28664 0.0
N1328 N 0.1101 0.12971 0.43489 0.0
N1329 N 0.14273 0.12509 0.33225 0.0
H1330 H 0.09815 0.9112 0.60183 0.0
H1331 H 0.16416 0.84808 0.65453 0.0
H1332 H 0.12502 0.89066 0.46256 0.0
H1333 H 0.14198 0.87363 0.79372 0.0
H1334 H 0.15243 0.86585 0.58416 0.0
H1335 H 0.11624 0.90005 0.67228 0.0
C1336 C 0.10799 0.90444 0.58602 0.0
C1337 C 0.10994 0.90161 0.52623 0.0
C1338 C 0.15028 0.86776 0.63005 0.0
C1339 C 0.1307 0.88868 0.60708 0.0
C1340 C 0.15694 0.85759 0.67033 0.0
C1341 C 0.1538 0.85924 0.73003 0.0
C1342 C 0.14018 0.87958 0.64935 0.0
C1343 C 0.14461 0.8719 0.74809 0.0
C1344 C 0.11836 0.89812 0.62637 0.0
C1345 C 0.12304 0.89303 0.50825 0.0
N1346 N 0.13788 0.88144 0.70777 0.0
N1347 N 0.13279 0.88662 0.54863 0.0
H1348 H 0.40253 0.91263 0.91057 0.0
H1349 H 0.34124 0.84508 0.85396 0.0
H1350 H 0.37924 0.88757 0.04841 0.0
H1351 H 0.36158 0.87286 0.71677 0.0
H1352 H 0.35189 0.86308 0.9257 0.0
H1353 H 0.38466 0.90109 0.8402 0.0
C1354 C 0.39348 0.9048 0.92608 0.0
C1355 C 0.39252 0.90079 0.98523 0.0
C1356 C 0.35388 0.86541 0.87998 0.0
C1357 C 0.37208 0.88738 0.90459 0.0
C1358 C 0.34785 0.8551 0.83888 0.0
C1359 C 0.35082 0.85732 0.77931 0.0
C1360 C 0.36314 0.87798 0.86163 0.0
C1361 C 0.35914 0.87065 0.76226 0.0
C1362 C 0.38326 0.89824 0.88582 0.0
C1363 C 0.38043 0.89086 1.00313 0.0
N1364 N 0.36527 0.88036 0.80337 0.0
N1365 N 0.37083 0.88424 0.96272 0.0
H1366 H 0.40543 0.09268 0.10808 0.0
H1367 H 0.33827 0.15445 0.16343 0.0
H1368 H 0.37866 0.11371 0.96946 0.0
H1369 H 0.36165 0.12941 0.30125 0.0
H1370 H 0.35022 0.13708 0.09227 0.0
H1371 H 0.38716 0.10331 0.17874 0.0
C1372 C 0.39559 0.09949 0.09246 0.0
C1373 C 0.39372 0.10261 0.03283 0.0
C1374 C 0.35259 0.13519 0.13803 0.0
C1375 C 0.37272 0.11491 0.11397 0.0
C1376 C 0.3458 0.14513 0.17877 0.0
C1377 C 0.34922 0.14353 0.23828 0.0
C1378 C 0.36308 0.12366 0.15672 0.0
C1379 C 0.35879 0.1311 0.25578 0.0
C1380 C 0.38511 0.10549 0.13294 0.0
C1381 C 0.38059 0.11116 0.01504 0.0
N1382 N 0.36563 0.12179 0.21501 0.0
N1383 N 0.37071 0.11727 0.05562 0.0
H1384 H 0.88121 0.90946 0.51819 0.0
H1385 H 0.88255 0.84291 0.76254 0.0
H1386 H 0.91376 0.87102 0.52702 0.0
H1387 H 0.84167 0.87156 0.7373 0.0
H1388 H 0.89559 0.85676 0.68392 0.0
H1389 H 0.86673 0.89802 0.60099 0.0
C1390 C 0.88502 0.89842 0.53647 0.0
C1391 C 0.89867 0.89114 0.51608 0.0
C1392 C 0.88383 0.86023 0.69575 0.0
C1393 C 0.8827 0.87844 0.61102 0.0
C1394 C 0.87651 0.85247 0.74128 0.0
C1395 C 0.86113 0.85622 0.75643 0.0
C1396 C 0.87563 0.8717 0.6643 0.0
C1397 C 0.85366 0.86854 0.72715 0.0
C1398 C 0.87692 0.89204 0.58406 0.0
C1399 C 0.90333 0.87704 0.5417 0.0
N1400 N 0.86093 0.87578 0.6817 0.0
N1401 N 0.89547 0.87126 0.588 0.0
H1402 H 0.86411 0.12828 0.20559 0.0
H1403 H 0.87895 0.1095 0.5432 0.0
H1404 H 0.84369 0.15409 0.34788 0.0
H1405 H 0.90618 0.09008 0.40259 0.0
H1406 H 0.86144 0.12148 0.47112 0.0
H1407 H 0.87522 0.10977 0.27641 0.0
C1408 C 0.86177 0.12989 0.25152 0.0
C1409 C 0.85328 0.14288 0.27104 0.0
C1410 C 0.87115 0.11441 0.45617 0.0
C1411 C 0.8658 0.12189 0.35191 0.0
C1412 C 0.88108 0.10754 0.49731 0.0
C1413 C 0.8942 0.09907 0.47883 0.0
C1414 C 0.87434 0.11268 0.39637 0.0
C1415 C 0.89639 0.09683 0.41875 0.0
C1416 C 0.86813 0.1194 0.29192 0.0
C1417 C 0.8505 0.14442 0.33105 0.0
N1418 N 0.88668 0.10371 0.37973 0.0
N1419 N 0.85684 0.13416 0.36931 0.0
H1420 H 0.6212 0.16007 0.25901 0.0
H1421 H 0.62291 0.09408 0.01251 0.0
H1422 H 0.66178 0.13094 0.23464 0.0
H1423 H 0.58951 0.13172 0.02388 0.0
H1424 H 0.63738 0.10563 0.09501 0.0
H1425 H 0.60826 0.14666 0.17907 0.0
C1426 C 0.62719 0.1505 0.23761 0.0
C1427 C 0.64246 0.14647 0.25348 0.0
C1428 C 0.62702 0.11144 0.07869 0.0
C1429 C 0.62806 0.13149 0.15989 0.0
C1430 C 0.61892 0.105 0.0312 0.0
C1431 C 0.60503 0.112 0.01163 0.0
C1432 C 0.62101 0.12482 0.10639 0.0
C1433 C 0.60014 0.12594 0.03787 0.0
C1434 C 0.61993 0.143 0.19134 0.0
C1435 C 0.64987 0.13416 0.22399 0.0
N1436 N 0.60802 0.13178 0.08409 0.0
N1437 N 0.64265 0.12716 0.17788 0.0
H1438 H 0.6611 0.84753 0.84877 0.0
H1439 H 0.5966 0.9121 0.90625 0.0
H1440 H 0.63784 0.87283 0.71131 0.0
H1441 H 0.62222 0.88911 0.04353 0.0
H1442 H 0.61426 0.90076 0.83484 0.0
H1443 H 0.64988 0.86532 0.91994 0.0
C1444 C 0.6537 0.85697 0.83351 0.0
C1445 C 0.65012 0.85854 0.77411 0.0
C1446 C 0.61619 0.89831 0.88052 0.0
C1447 C 0.63712 0.87896 0.85578 0.0
C1448 C 0.60608 0.90474 0.92142 0.0
C1449 C 0.60778 0.90126 0.98085 0.0
C1450 C 0.62803 0.88813 0.89892 0.0
C1451 C 0.62044 0.89197 0.99811 0.0
C1452 C 0.64734 0.86716 0.87427 0.0
C1453 C 0.64078 0.87115 0.75671 0.0
N1454 N 0.62995 0.88548 0.95714 0.0
N1455 N 0.63437 0.88074 0.79757 0.0
H1456 H 0.6215 0.61451 0.05099 0.0
H1457 H 0.64006 0.62892 0.71288 0.0
H1458 H 0.59849 0.59032 0.91021 0.0
H1459 H 0.65664 0.65826 0.85281 0.0
H1460 H 0.62912 0.61089 0.78564 0.0
H1461 H 0.63908 0.62681 0.97976 0.0
C1462 C 0.62036 0.61158 0.00533 0.0
C1463 C 0.60838 0.60167 0.98624 0.0
C1464 C 0.6353 0.62122 0.80023 0.0
C1465 C 0.62824 0.61561 0.90482 0.0
C1466 C 0.64155 0.63146 0.75873 0.0
C1467 C 0.64894 0.64526 0.77676 0.0
C1468 C 0.63663 0.62479 0.85991 0.0
C1469 C 0.65068 0.64794 0.83683 0.0
C1470 C 0.6303 0.61863 0.96465 0.0
C1471 C 0.60739 0.59819 0.92656 0.0
N1472 N 0.64447 0.6379 0.87611 0.0
N1473 N 0.61706 0.60526 0.88795 0.0
H1474 H 0.62123 0.34169 0.2525 0.0
H1475 H 0.6238 0.40814 0.00849 0.0
H1476 H 0.6626 0.36969 0.22808 0.0
H1477 H 0.59069 0.37018 0.01593 0.0
H1478 H 0.63824 0.39621 0.09034 0.0
H1479 H 0.6087 0.35537 0.17237 0.0
C1480 C 0.6275 0.35107 0.23098 0.0
C1481 C 0.64287 0.35468 0.2469 0.0
C1482 C 0.62796 0.39041 0.07321 0.0
C1483 C 0.6289 0.36999 0.15317 0.0
C1484 C 0.61989 0.39707 0.02611 0.0
C1485 C 0.60607 0.39009 0.0057 0.0
C1486 C 0.62199 0.37683 0.09971 0.0
C1487 C 0.60126 0.37595 0.03059 0.0
C1488 C 0.62046 0.35872 0.18462 0.0
C1489 C 0.65062 0.36677 0.21733 0.0
N1490 N 0.6091 0.3699 0.07652 0.0
N1491 N 0.64359 0.37395 0.17117 0.0
H1492 H 0.87918 0.38975 0.54767 0.0
H1493 H 0.86183 0.37342 0.20979 0.0
H1494 H 0.90511 0.41014 0.40558 0.0
H1495 H 0.84201 0.34659 0.35069 0.0
H1496 H 0.87348 0.39122 0.28162 0.0
H1497 H 0.86119 0.37796 0.47646 0.0
C1498 C 0.88094 0.39192 0.5017 0.0
C1499 C 0.89381 0.40064 0.48242 0.0
C1500 C 0.8664 0.38153 0.29668 0.0
C1501 C 0.8734 0.38735 0.40109 0.0
C1502 C 0.85971 0.37144 0.25567 0.0
C1503 C 0.85123 0.35836 0.27436 0.0
C1504 C 0.86445 0.37854 0.35655 0.0
C1505 C 0.84878 0.35636 0.33442 0.0
C1506 C 0.87074 0.38518 0.46108 0.0
C1507 C 0.89553 0.40319 0.42231 0.0
N1508 N 0.85548 0.36623 0.37333 0.0
N1509 N 0.88555 0.39648 0.38387 0.0
H1510 H 0.88225 0.66035 0.76486 0.0
H1511 H 0.88052 0.59595 0.51218 0.0
H1512 H 0.84128 0.6322 0.73417 0.0
H1513 H 0.91515 0.63225 0.53149 0.0
H1514 H 0.8659 0.60731 0.59461 0.0
H1515 H 0.89553 0.647 0.68552 0.0
C1516 C 0.87624 0.65098 0.74225 0.0
C1517 C 0.86079 0.6472 0.7562 0.0
C1518 C 0.87659 0.61286 0.58009 0.0
C1519 C 0.87557 0.63235 0.66321 0.0
C1520 C 0.88478 0.60654 0.53265 0.0
C1521 C 0.89904 0.6132 0.51526 0.0
C1522 C 0.88285 0.62579 0.60995 0.0
C1523 C 0.90424 0.62672 0.54375 0.0
C1524 C 0.8837 0.64353 0.6963 0.0
C1525 C 0.85334 0.6352 0.72507 0.0
N1526 N 0.89625 0.63244 0.58984 0.0
N1527 N 0.86076 0.62826 0.67931 0.0
H1528 H 0.36345 0.37267 0.29804 0.0
H1529 H 0.37968 0.38908 0.95962 0.0
H1530 H 0.34256 0.34656 0.15737 0.0
H1531 H 0.4067 0.40876 0.10039 0.0
H1532 H 0.36166 0.37779 0.03167 0.0
H1533 H 0.37507 0.39049 0.22606 0.0
C1534 C 0.36111 0.37086 0.2522 0.0
C1535 C 0.35236 0.35797 0.2335 0.0
C1536 C 0.37145 0.38474 0.0466 0.0
C1537 C 0.36549 0.37814 0.15128 0.0
C1538 C 0.38168 0.39119 0.00549 0.0
C1539 C 0.39487 0.39953 0.02414 0.0
C1540 C 0.37442 0.38681 0.10644 0.0
C1541 C 0.39688 0.40205 0.08415 0.0
C1542 C 0.36776 0.38096 0.21113 0.0
C1543 C 0.34957 0.35617 0.17356 0.0
N1544 N 0.38687 0.39561 0.12309 0.0
N1545 N 0.35624 0.36603 0.13462 0.0
H1546 H 0.37788 0.6133 0.05029 0.0
H1547 H 0.35964 0.62841 0.71251 0.0
H1548 H 0.40398 0.59315 0.9082 0.0
H1549 H 0.34013 0.65566 0.85288 0.0
H1550 H 0.37137 0.61077 0.78469 0.0
H1551 H 0.35943 0.62444 0.97924 0.0
C1552 C 0.37957 0.61104 1.00435 0.0
C1553 C 0.39262 0.60261 0.98496 0.0
C1554 C 0.36433 0.62051 0.79956 0.0
C1555 C 0.3717 0.61514 0.90386 0.0
C1556 C 0.35759 0.63051 0.75836 0.0
C1557 C 0.3492 0.64367 0.77679 0.0
C1558 C 0.36253 0.62369 0.85934 0.0
C1559 C 0.34684 0.64583 0.83682 0.0
C1560 C 0.36911 0.6174 0.96383 0.0
C1561 C 0.39426 0.59991 0.92493 0.0
N1562 N 0.3536 0.63606 0.87591 0.0
N1563 N 0.38403 0.60625 0.88657 0.0
H1564 H 0.16146 0.65759 0.6514 0.0
H1565 H 0.10056 0.58964 0.59505 0.0
H1566 H 0.14154 0.62951 0.78862 0.0
H1567 H 0.12376 0.61468 0.45693 0.0
H1568 H 0.1183 0.60141 0.66534 0.0
H1569 H 0.15079 0.6396 0.57961 0.0
C1570 C 0.15493 0.64752 0.66647 0.0
C1571 C 0.1521 0.6452 0.7261 0.0
C1572 C 0.11971 0.60421 0.61969 0.0
C1573 C 0.13975 0.62455 0.64372 0.0
C1574 C 0.10955 0.59753 0.57947 0.0
C1575 C 0.11053 0.60145 0.52023 0.0
C1576 C 0.13084 0.61511 0.60082 0.0
C1577 C 0.12256 0.61145 0.50227 0.0
C1578 C 0.14889 0.63721 0.62535 0.0
C1579 C 0.14388 0.63179 0.74311 0.0
N1580 N 0.13209 0.61818 0.54264 0.0
N1581 N 0.13775 0.6221 0.70199 0.0
H1582 H 0.13785 0.37146 0.21002 0.0
H1583 H 0.12242 0.38859 0.54857 0.0
H1584 H 0.15978 0.34622 0.35069 0.0
H1585 H 0.09462 0.40739 0.4082 0.0
H1586 H 0.14032 0.37728 0.47614 0.0
H1587 H 0.12602 0.38918 0.28187 0.0
C1588 C 0.14037 0.36983 0.25582 0.0
C1589 C 0.1495 0.35721 0.2746 0.0
C1590 C 0.13037 0.38404 0.46138 0.0
C1591 C 0.13612 0.37726 0.35667 0.0
C1592 C 0.12021 0.3905 0.5027 0.0
C1593 C 0.10686 0.3986 0.48433 0.0
C1594 C 0.12717 0.38587 0.40159 0.0
C1595 C 0.10458 0.40087 0.42429 0.0
C1596 C 0.13359 0.37987 0.29683 0.0
C1597 C 0.15249 0.35562 0.33447 0.0
N1598 N 0.11453 0.39443 0.38516 0.0
N1599 N 0.14571 0.36541 0.37336 0.0
loop_
_geom_bond_atom_site_label_1
_geom_bond_atom_site_label_2
_geom_bond_distance
_geom_bond_site_symmetry_2
_ccdc_geom_bond_type
Co0 O1 2.216 . S
Co0 O2 2.091 . S
Co0 O4 2.004 . S
Co0 O10 2.021 . S
Co0 O12 2.137 . S
Co0 O13 2.244 . S
O1 Co0 2.216 . S
O1 C8 1.247 . S
O2 Co0 2.091 . S
O2 C8 1.261 . S
C3 O12 1.247 . S
C3 O13 1.272 . S
O4 Co0 2.004 . S
O4 C9 1.259 . S
Co5 O6 2.061 . S
Co5 O11 2.052 . S
Co5 O13 2.135 . S
O6 Co5 2.061 . S
O6 C9 1.235 . S
C7 O10 1.238 . S
C7 O11 1.241 . S
C8 O1 1.247 . S
C8 O2 1.261 . S
C9 O4 1.259 . S
C9 O6 1.235 . S
O10 Co0 2.021 . S
O10 C7 1.238 . S
O11 Co5 2.052 . S
O11 C7 1.241 . S
O12 Co0 2.137 . S
O12 C3 1.247 . S
O13 Co0 2.244 . S
O13 C3 1.272 . S
O13 Co5 2.135 . S
Co14 O15 2.216 . S
Co14 O16 2.091 . S
Co14 O18 2.004 . S
Co14 O24 2.021 . S
Co14 O26 2.137 . S
Co14 O27 2.244 . S
O15 Co14 2.216 . S
O15 C22 1.247 . S
O16 Co14 2.091 . S
O16 C22 1.261 . S
C17 O26 1.247 . S
C17 O27 1.272 . S
O18 Co14 2.004 . S
O18 C23 1.259 . S
Co19 O20 2.061 . S
Co19 O25 2.052 . S
Co19 O27 2.135 . S
O20 Co19 2.061 . S
O20 C23 1.235 . S
C21 O24 1.238 . S
C21 O25 1.241 . S
C22 O15 1.247 . S
C22 O16 1.261 . S
C23 O18 1.259 . S
C23 O20 1.235 . S
O24 Co14 2.021 . S
O24 C21 1.238 . S
O25 Co19 2.052 . S
O25 C21 1.241 . S
O26 Co14 2.137 . S
O26 C17 1.247 . S
O27 Co14 2.244 . S
O27 C17 1.272 . S
O27 Co19 2.135 . S
Co28 O29 2.216 . S
Co28 O30 2.091 . S
Co28 O32 2.004 . S
Co28 O38 2.021 . S
Co28 O40 2.137 . S
Co28 O41 2.244 . S
O29 Co28 2.216 . S
O29 C36 1.247 . S
O30 Co28 2.091 . S
O30 C36 1.261 . S
C31 O40 1.247 . S
C31 O41 1.272 . S
O32 Co28 2.004 . S
O32 C37 1.259 . S
Co33 O34 2.061 . S
Co33 O39 2.052 . S
Co33 O41 2.135 . S
O34 Co33 2.061 . S
O34 C37 1.235 . S
C35 O38 1.238 . S
C35 O39 1.241 . S
C36 O29 1.247 . S
C36 O30 1.261 . S
C37 O32 1.259 . S
C37 O34 1.235 . S
O38 Co28 2.021 . S
O38 C35 1.238 . S
O39 Co33 2.052 . S
O39 C35 1.241 . S
O40 Co28 2.137 . S
O40 C31 1.247 . S
O41 Co28 2.244 . S
O41 C31 1.272 . S
O41 Co33 2.135 . S
Co42 O43 2.216 . S
Co42 O44 2.091 . S
Co42 O46 2.004 . S
Co42 O52 2.021 . S
Co42 O54 2.137 . S
Co42 O55 2.244 . S
O43 Co42 2.216 . S
O43 C50 1.247 . S
O44 Co42 2.091 . S
O44 C50 1.261 . S
C45 O54 1.247 . S
C45 O55 1.272 . S
O46 Co42 2.004 . S
O46 C51 1.259 . S
Co47 O48 2.061 . S
Co47 O53 2.052 . S
Co47 O55 2.135 . S
O48 Co47 2.061 . S
O48 C51 1.235 . S
C49 O52 1.238 . S
C49 O53 1.241 . S
C50 O43 1.247 . S
C50 O44 1.261 . S
C51 O46 1.259 . S
C51 O48 1.235 . S
O52 Co42 2.021 . S
O52 C49 1.238 . S
O53 Co47 2.052 . S
O53 C49 1.241 . S
O54 Co42 2.137 . S
O54 C45 1.247 . S
O55 Co42 2.244 . S
O55 C45 1.272 . S
O55 Co47 2.135 . S
Co56 O57 2.216 . S
Co56 O58 2.091 . S
Co56 O60 2.004 . S
Co56 O66 2.021 . S
Co56 O68 2.137 . S
Co56 O69 2.244 . S
O57 Co56 2.216 . S
O57 C64 1.247 . S
O58 Co56 2.091 . S
O58 C64 1.261 . S
C59 O68 1.247 . S
C59 O69 1.272 . S
O60 Co56 2.004 . S
O60 C65 1.259 . S
Co61 O62 2.061 . S
Co61 O67 2.052 . S
Co61 O69 2.135 . S
O62 Co61 2.061 . S
O62 C65 1.235 . S
C63 O66 1.238 . S
C63 O67 1.241 . S
C64 O57 1.247 . S
C64 O58 1.261 . S
C65 O60 1.259 . S
C65 O62 1.235 . S
O66 Co56 2.021 . S
O66 C63 1.238 . S
O67 Co61 2.052 . S
O67 C63 1.241 . S
O68 Co56 2.137 . S
O68 C59 1.247 . S
O69 Co56 2.244 . S
O69 C59 1.272 . S
O69 Co61 2.135 . S
Co70 O71 2.216 . S
Co70 O72 2.091 . S
Co70 O74 2.004 . S
Co70 O80 2.021 . S
Co70 O82 2.137 . S
Co70 O83 2.244 . S
O71 Co70 2.216 . S
O71 C78 1.247 . S
O72 Co70 2.091 . S
O72 C78 1.261 . S
C73 O82 1.247 . S
C73 O83 1.272 . S
O74 Co70 2.004 . S
O74 C79 1.259 . S
Co75 O76 2.061 . S
Co75 O81 2.052 . S
Co75 O83 2.135 . S
O76 Co75 2.061 . S
O76 C79 1.235 . S
C77 O80 1.238 . S
C77 O81 1.241 . S
C78 O71 1.247 . S
C78 O72 1.261 . S
C79 O74 1.259 . S
C79 O76 1.235 . S
O80 Co70 2.021 . S
O80 C77 1.238 . S
O81 Co75 2.052 . S
O81 C77 1.241 . S
O82 Co70 2.137 . S
O82 C73 1.247 . S
O83 Co70 2.244 . S
O83 C73 1.272 . S
O83 Co75 2.135 . S
Co84 O85 2.216 . S
Co84 O86 2.091 . S
Co84 O88 2.004 . S
Co84 O94 2.021 . S
Co84 O96 2.137 . S
Co84 O97 2.244 . S
O85 Co84 2.216 . S
O85 C92 1.247 . S
O86 Co84 2.091 . S
O86 C92 1.261 . S
C87 O96 1.247 . S
C87 O97 1.272 . S
O88 Co84 2.004 . S
O88 C93 1.259 . S
Co89 O90 2.061 . S
Co89 O95 2.052 . S
Co89 O97 2.135 . S
O90 Co89 2.061 . S
O90 C93 1.235 . S
C91 O94 1.238 . S
C91 O95 1.241 . S
C92 O85 1.247 . S
C92 O86 1.261 . S
C93 O88 1.259 . S
C93 O90 1.235 . S
O94 Co84 2.021 . S
O94 C91 1.238 . S
O95 Co89 2.052 . S
O95 C91 1.241 . S
O96 Co84 2.137 . S
O96 C87 1.247 . S
O97 Co84 2.244 . S
O97 C87 1.272 . S
O97 Co89 2.135 . S
Co98 O99 2.216 . S
Co98 O100 2.091 . S
Co98 O102 2.004 . S
Co98 O108 2.021 . S
Co98 O110 2.137 . S
Co98 O111 2.244 . S
O99 Co98 2.216 . S
O99 C106 1.247 . S
O100 Co98 2.091 . S
O100 C106 1.261 . S
C101 O110 1.247 . S
C101 O111 1.272 . S
O102 Co98 2.004 . S
O102 C107 1.259 . S
Co103 O104 2.061 . S
Co103 O109 2.052 . S
Co103 O111 2.135 . S
O104 Co103 2.061 . S
O104 C107 1.235 . S
C105 O108 1.238 . S
C105 O109 1.241 . S
C106 O99 1.247 . S
C106 O100 1.261 . S
C107 O102 1.259 . S
C107 O104 1.235 . S
O108 Co98 2.021 . S
O108 C105 1.238 . S
O109 Co103 2.052 . S
O109 C105 1.241 . S
O110 Co98 2.137 . S
O110 C101 1.247 . S
O111 Co98 2.244 . S
O111 C101 1.272 . S
O111 Co103 2.135 . S
Co112 O113 2.216 . S
Co112 O114 2.091 . S
Co112 O116 2.004 . S
Co112 O122 2.021 . S
Co112 O124 2.137 . S
Co112 O125 2.244 . S
O113 Co112 2.216 . S
O113 C120 1.247 . S
O114 Co112 2.091 . S
O114 C120 1.261 . S
C115 O124 1.247 . S
C115 O125 1.272 . S
O116 Co112 2.004 . S
O116 C121 1.259 . S
Co117 O118 2.061 . S
Co117 O123 2.052 . S
Co117 O125 2.135 . S
O118 Co117 2.061 . S
O118 C121 1.235 . S
C119 O122 1.238 . S
C119 O123 1.241 . S
C120 O113 1.247 . S
C120 O114 1.261 . S
C121 O116 1.259 . S
C121 O118 1.235 . S
O122 Co112 2.021 . S
O122 C119 1.238 . S
O123 Co117 2.052 . S
O123 C119 1.241 . S
O124 Co112 2.137 . S
O124 C115 1.247 . S
O125 Co112 2.244 . S
O125 C115 1.272 . S
O125 Co117 2.135 . S
Co126 O127 2.216 . S
Co126 O128 2.091 . S
Co126 O130 2.004 . S
Co126 O136 2.021 . S
Co126 O138 2.137 . S
Co126 O139 2.244 . S
O127 Co126 2.216 . S
O127 C134 1.247 . S
O128 Co126 2.091 . S
O128 C134 1.261 . S
C129 O138 1.247 . S
C129 O139 1.272 . S
O130 Co126 2.004 . S
O130 C135 1.259 . S
Co131 O132 2.061 . S
Co131 O137 2.052 . S
Co131 O139 2.135 . S
O132 Co131 2.061 . S
O132 C135 1.235 . S
C133 O136 1.238 . S
C133 O137 1.241 . S
C134 O127 1.247 . S
C134 O128 1.261 . S
C135 O130 1.259 . S
C135 O132 1.235 . S
O136 Co126 2.021 . S
O136 C133 1.238 . S
O137 Co131 2.052 . S
O137 C133 1.241 . S
O138 Co126 2.137 . S
O138 C129 1.247 . S
O139 Co126 2.244 . S
O139 C129 1.272 . S
O139 Co131 2.135 . S
Co140 O141 2.216 . S
Co140 O142 2.091 . S
Co140 O144 2.004 . S
Co140 O150 2.021 . S
Co140 O152 2.137 . S
Co140 O153 2.244 . S
O141 Co140 2.216 . S
O141 C148 1.247 . S
O142 Co140 2.091 . S
O142 C148 1.261 . S
C143 O152 1.247 . S
C143 O153 1.272 . S
O144 Co140 2.004 . S
O144 C149 1.259 . S
Co145 O146 2.061 . S
Co145 O151 2.052 . S
Co145 O153 2.135 . S
O146 Co145 2.061 . S
O146 C149 1.235 . S
C147 O150 1.238 . S
C147 O151 1.241 . S
C148 O141 1.247 . S
C148 O142 1.261 . S
C149 O144 1.259 . S
C149 O146 1.235 . S
O150 Co140 2.021 . S
O150 C147 1.238 . S
O151 Co145 2.052 . S
O151 C147 1.241 . S
O152 Co140 2.137 . S
O152 C143 1.247 . S
O153 Co140 2.244 . S
O153 C143 1.272 . S
O153 Co145 2.135 . S
Co154 O155 2.216 . S
Co154 O156 2.091 . S
Co154 O158 2.004 . S
Co154 O164 2.021 . S
Co154 O166 2.137 . S
Co154 O167 2.244 . S
O155 Co154 2.216 . S
O155 C162 1.247 . S
O156 Co154 2.091 . S
O156 C162 1.261 . S
C157 O166 1.247 . S
C157 O167 1.272 . S
O158 Co154 2.004 . S
O158 C163 1.259 . S
Co159 O160 2.061 . S
Co159 O165 2.052 . S
Co159 O167 2.135 . S
O160 Co159 2.061 . S
O160 C163 1.235 . S
C161 O164 1.238 . S
C161 O165 1.241 . S
C162 O155 1.247 . S
C162 O156 1.261 . S
C163 O158 1.259 . S
C163 O160 1.235 . S
O164 Co154 2.021 . S
O164 C161 1.238 . S
O165 Co159 2.052 . S
O165 C161 1.241 . S
O166 Co154 2.137 . S
O166 C157 1.247 . S
O167 Co154 2.244 . S
O167 C157 1.272 . S
O167 Co159 2.135 . S
Co168 O169 2.216 . S
Co168 O170 2.091 . S
Co168 O172 2.004 . S
Co168 O178 2.021 . S
Co168 O180 2.137 . S
Co168 O181 2.244 . S
O169 Co168 2.216 . S
O169 C176 1.247 . S
O170 Co168 2.091 . S
O170 C176 1.261 . S
C171 O180 1.247 . S
C171 O181 1.272 . S
O172 Co168 2.004 . S
O172 C177 1.259 . S
Co173 O174 2.061 . S
Co173 O179 2.052 . S
Co173 O181 2.135 . S
O174 Co173 2.061 . S
O174 C177 1.235 . S
C175 O178 1.238 . S
C175 O179 1.241 . S
C176 O169 1.247 . S
C176 O170 1.261 . S
C177 O172 1.259 . S
C177 O174 1.235 . S
O178 Co168 2.021 . S
O178 C175 1.238 . S
O179 Co173 2.052 . S
O179 C175 1.241 . S
O180 Co168 2.137 . S
O180 C171 1.247 . S
O181 Co168 2.244 . S
O181 C171 1.272 . S
O181 Co173 2.135 . S
Co182 O183 2.216 . S
Co182 O184 2.091 . S
Co182 O186 2.004 . S
Co182 O192 2.021 . S
Co182 O194 2.137 . S
Co182 O195 2.244 . S
O183 Co182 2.216 . S
O183 C190 1.247 . S
O184 Co182 2.091 . S
O184 C190 1.261 . S
C185 O194 1.247 . S
C185 O195 1.272 . S
O186 Co182 2.004 . S
O186 C191 1.259 . S
Co187 O188 2.061 . S
Co187 O193 2.052 . S
Co187 O195 2.135 . S
O188 Co187 2.061 . S
O188 C191 1.235 . S
C189 O192 1.238 . S
C189 O193 1.241 . S
C190 O183 1.247 . S
C190 O184 1.261 . S
C191 O186 1.259 . S
C191 O188 1.235 . S
O192 Co182 2.021 . S
O192 C189 1.238 . S
O193 Co187 2.052 . S
O193 C189 1.241 . S
O194 Co182 2.137 . S
O194 C185 1.247 . S
O195 Co182 2.244 . S
O195 C185 1.272 . S
O195 Co187 2.135 . S
Co196 O197 2.216 . S
Co196 O198 2.091 . S
Co196 O200 2.004 . S
Co196 O206 2.021 . S
Co196 O208 2.137 . S
Co196 O209 2.244 . S
O197 Co196 2.216 . S
O197 C204 1.247 . S
O198 Co196 2.091 . S
O198 C204 1.261 . S
C199 O208 1.247 . S
C199 O209 1.272 . S
O200 Co196 2.004 . S
O200 C205 1.259 . S
Co201 O202 2.061 . S
Co201 O207 2.052 . S
Co201 O209 2.135 . S
O202 Co201 2.061 . S
O202 C205 1.235 . S
C203 O206 1.238 . S
C203 O207 1.241 . S
C204 O197 1.247 . S
C204 O198 1.261 . S
C205 O200 1.259 . S
C205 O202 1.235 . S
O206 Co196 2.021 . S
O206 C203 1.238 . S
O207 Co201 2.052 . S
O207 C203 1.241 . S
O208 Co196 2.137 . S
O208 C199 1.247 . S
O209 Co196 2.244 . S
O209 C199 1.272 . S
O209 Co201 2.135 . S
Co210 O211 2.216 . S
Co210 O212 2.091 . S
Co210 O214 2.004 . S
Co210 O220 2.021 . S
Co210 O222 2.137 . S
Co210 O223 2.244 . S
O211 Co210 2.216 . S
O211 C218 1.247 . S
O212 Co210 2.091 . S
O212 C218 1.261 . S
C213 O222 1.247 . S
C213 O223 1.272 . S
O214 Co210 2.004 . S
O214 C219 1.259 . S
Co215 O216 2.061 . S
Co215 O221 2.052 . S
Co215 O223 2.135 . S
O216 Co215 2.061 . S
O216 C219 1.235 . S
C217 O220 1.238 . S
C217 O221 1.241 . S
C218 O211 1.247 . S
C218 O212 1.261 . S
C219 O214 1.259 . S
C219 O216 1.235 . S
O220 Co210 2.021 . S
O220 C217 1.238 . S
O221 Co215 2.052 . S
O221 C217 1.241 . S
O222 Co210 2.137 . S
O222 C213 1.247 . S
O223 Co210 2.244 . S
O223 C213 1.272 . S
O223 Co215 2.135 . S
Co224 O225 2.216 . S
Co224 O226 2.091 . S
Co224 O228 2.004 . S
Co224 O234 2.021 . S
Co224 O236 2.137 . S
Co224 O237 2.244 . S
O225 Co224 2.216 . S
O225 C232 1.247 . S
O226 Co224 2.091 . S
O226 C232 1.261 . S
C227 O236 1.247 . S
C227 O237 1.272 . S
O228 Co224 2.004 . S
O228 C233 1.259 . S
Co229 O230 2.061 . S
Co229 O235 2.052 . S
Co229 O237 2.135 . S
O230 Co229 2.061 . S
O230 C233 1.235 . S
C231 O234 1.238 . S
C231 O235 1.241 . S
C232 O225 1.247 . S
C232 O226 1.261 . S
C233 O228 1.259 . S
C233 O230 1.235 . S
O234 Co224 2.021 . S
O234 C231 1.238 . S
O235 Co229 2.052 . S
O235 C231 1.241 . S
O236 Co224 2.137 . S
O236 C227 1.247 . S
O237 Co224 2.244 . S
O237 C227 1.272 . S
O237 Co229 2.135 . S
Co238 O239 2.216 . S
Co238 O240 2.091 . S
Co238 O242 2.004 . S
Co238 O248 2.021 . S
Co238 O250 2.137 . S
Co238 O251 2.244 . S
O239 Co238 2.216 . S
O239 C246 1.247 . S
O240 Co238 2.091 . S
O240 C246 1.261 . S
C241 O250 1.247 . S
C241 O251 1.272 . S
O242 Co238 2.004 . S
O242 C247 1.259 . S
Co243 O244 2.061 . S
Co243 O249 2.052 . S
Co243 O251 2.135 . S
O244 Co243 2.061 . S
O244 C247 1.235 . S
C245 O248 1.238 . S
C245 O249 1.241 . S
C246 O239 1.247 . S
C246 O240 1.261 . S
C247 O242 1.259 . S
C247 O244 1.235 . S
O248 Co238 2.021 . S
O248 C245 1.238 . S
O249 Co243 2.052 . S
O249 C245 1.241 . S
O250 Co238 2.137 . S
O250 C241 1.247 . S
O251 Co238 2.244 . S
O251 C241 1.272 . S
O251 Co243 2.135 . S
Co252 O253 2.216 . S
Co252 O254 2.091 . S
Co252 O256 2.004 . S
Co252 O262 2.021 . S
Co252 O264 2.137 . S
Co252 O265 2.244 . S
O253 Co252 2.216 . S
O253 C260 1.247 . S
O254 Co252 2.091 . S
O254 C260 1.261 . S
C255 O264 1.247 . S
C255 O265 1.272 . S
O256 Co252 2.004 . S
O256 C261 1.259 . S
Co257 O258 2.061 . S
Co257 O263 2.052 . S
Co257 O265 2.135 . S
O258 Co257 2.061 . S
O258 C261 1.235 . S
C259 O262 1.238 . S
C259 O263 1.241 . S
C260 O253 1.247 . S
C260 O254 1.261 . S
C261 O256 1.259 . S
C261 O258 1.235 . S
O262 Co252 2.021 . S
O262 C259 1.238 . S
O263 Co257 2.052 . S
O263 C259 1.241 . S
O264 Co252 2.137 . S
O264 C255 1.247 . S
O265 Co252 2.244 . S
O265 C255 1.272 . S
O265 Co257 2.135 . S
Co266 O267 2.216 . S
Co266 O268 2.091 . S
Co266 O270 2.004 . S
Co266 O276 2.021 . S
Co266 O278 2.137 . S
Co266 O279 2.244 . S
O267 Co266 2.216 . S
O267 C274 1.247 . S
O268 Co266 2.091 . S
O268 C274 1.261 . S
C269 O278 1.247 . S
C269 O279 1.272 . S
O270 Co266 2.004 . S
O270 C275 1.259 . S
Co271 O272 2.061 . S
Co271 O277 2.052 . S
Co271 O279 2.135 . S
O272 Co271 2.061 . S
O272 C275 1.235 . S
C273 O276 1.238 . S
C273 O277 1.241 . S
C274 O267 1.247 . S
C274 O268 1.261 . S
C275 O270 1.259 . S
C275 O272 1.235 . S
O276 Co266 2.021 . S
O276 C273 1.238 . S
O277 Co271 2.052 . S
O277 C273 1.241 . S
O278 Co266 2.137 . S
O278 C269 1.247 . S
O279 Co266 2.244 . S
O279 C269 1.272 . S
O279 Co271 2.135 . S
Co280 O281 2.216 . S
Co280 O282 2.091 . S
Co280 O284 2.004 . S
Co280 O290 2.021 . S
Co280 O292 2.137 . S
Co280 O293 2.244 . S
O281 Co280 2.216 . S
O281 C288 1.247 . S
O282 Co280 2.091 . S
O282 C288 1.261 . S
C283 O292 1.247 . S
C283 O293 1.272 . S
O284 Co280 2.004 . S
O284 C289 1.259 . S
Co285 O286 2.061 . S
Co285 O291 2.052 . S
Co285 O293 2.135 . S
O286 Co285 2.061 . S
O286 C289 1.235 . S
C287 O290 1.238 . S
C287 O291 1.241 . S
C288 O281 1.247 . S
C288 O282 1.261 . S
C289 O284 1.259 . S
C289 O286 1.235 . S
O290 Co280 2.021 . S
O290 C287 1.238 . S
O291 Co285 2.052 . S
O291 C287 1.241 . S
O292 Co280 2.137 . S
O292 C283 1.247 . S
O293 Co280 2.244 . S
O293 C283 1.272 . S
O293 Co285 2.135 . S
Co294 O295 2.216 . S
Co294 O296 2.091 . S
Co294 O298 2.004 . S
Co294 O304 2.021 . S
Co294 O306 2.137 . S
Co294 O307 2.244 . S
O295 Co294 2.216 . S
O295 C302 1.247 . S
O296 Co294 2.091 . S
O296 C302 1.261 . S
C297 O306 1.247 . S
C297 O307 1.272 . S
O298 Co294 2.004 . S
O298 C303 1.259 . S
Co299 O300 2.061 . S
Co299 O305 2.052 . S
Co299 O307 2.135 . S
O300 Co299 2.061 . S
O300 C303 1.235 . S
C301 O304 1.238 . S
C301 O305 1.241 . S
C302 O295 1.247 . S
C302 O296 1.261 . S
C303 O298 1.259 . S
C303 O300 1.235 . S
O304 Co294 2.021 . S
O304 C301 1.238 . S
O305 Co299 2.052 . S
O305 C301 1.241 . S
O306 Co294 2.137 . S
O306 C297 1.247 . S
O307 Co294 2.244 . S
O307 C297 1.272 . S
O307 Co299 2.135 . S
Co308 O309 2.216 . S
Co308 O310 2.091 . S
Co308 O312 2.004 . S
Co308 O318 2.021 . S
Co308 O320 2.137 . S
Co308 O321 2.244 . S
O309 Co308 2.216 . S
O309 C316 1.247 . S
O310 Co308 2.091 . S
O310 C316 1.261 . S
C311 O320 1.247 . S
C311 O321 1.272 . S
O312 Co308 2.004 . S
O312 C317 1.259 . S
Co313 O314 2.061 . S
Co313 O319 2.052 . S
Co313 O321 2.135 . S
O314 Co313 2.061 . S
O314 C317 1.235 . S
C315 O318 1.238 . S
C315 O319 1.241 . S
C316 O309 1.247 . S
C316 O310 1.261 . S
C317 O312 1.259 . S
C317 O314 1.235 . S
O318 Co308 2.021 . S
O318 C315 1.238 . S
O319 Co313 2.052 . S
O319 C315 1.241 . S
O320 Co308 2.137 . S
O320 C311 1.247 . S
O321 Co308 2.244 . S
O321 C311 1.272 . S
O321 Co313 2.135 . S
Co322 O323 2.216 . S
Co322 O324 2.091 . S
Co322 O326 2.004 . S
Co322 O332 2.021 . S
Co322 O334 2.137 . S
Co322 O335 2.244 . S
O323 Co322 2.216 . S
O323 C330 1.247 . S
O324 Co322 2.091 . S
O324 C330 1.261 . S
C325 O334 1.247 . S
C325 O335 1.272 . S
O326 Co322 2.004 . S
O326 C331 1.259 . S
Co327 O328 2.061 . S
Co327 O333 2.052 . S
Co327 O335 2.135 . S
O328 Co327 2.061 . S
O328 C331 1.235 . S
C329 O332 1.238 . S
C329 O333 1.241 . S
C330 O323 1.247 . S
C330 O324 1.261 . S
C331 O326 1.259 . S
C331 O328 1.235 . S
O332 Co322 2.021 . S
O332 C329 1.238 . S
O333 Co327 2.052 . S
O333 C329 1.241 . S
O334 Co322 2.137 . S
O334 C325 1.247 . S
O335 Co322 2.244 . S
O335 C325 1.272 . S
O335 Co327 2.135 . S
Co336 O337 2.216 . S
Co336 O338 2.091 . S
Co336 O340 2.004 . S
Co336 O346 2.021 . S
Co336 O348 2.137 . S
Co336 O349 2.244 . S
O337 Co336 2.216 . S
O337 C344 1.247 . S
O338 Co336 2.091 . S
O338 C344 1.261 . S
C339 O348 1.247 . S
C339 O349 1.272 . S
O340 Co336 2.004 . S
O340 C345 1.259 . S
Co341 O342 2.061 . S
Co341 O347 2.052 . S
Co341 O349 2.135 . S
O342 Co341 2.061 . S
O342 C345 1.235 . S
C343 O346 1.238 . S
C343 O347 1.241 . S
C344 O337 1.247 . S
C344 O338 1.261 . S
C345 O340 1.259 . S
C345 O342 1.235 . S
O346 Co336 2.021 . S
O346 C343 1.238 . S
O347 Co341 2.052 . S
O347 C343 1.241 . S
O348 Co336 2.137 . S
O348 C339 1.247 . S
O349 Co336 2.244 . S
O349 C339 1.272 . S
O349 Co341 2.135 . S
Co350 O351 2.216 . S
Co350 O352 2.091 . S
Co350 O354 2.004 . S
Co350 O360 2.021 . S
Co350 O362 2.137 . S
Co350 O363 2.244 . S
O351 Co350 2.216 . S
O351 C358 1.247 . S
O352 Co350 2.091 . S
O352 C358 1.261 . S
C353 O362 1.247 . S
C353 O363 1.272 . S
O354 Co350 2.004 . S
O354 C359 1.259 . S
Co355 O356 2.061 . S
Co355 O361 2.052 . S
Co355 O363 2.135 . S
O356 Co355 2.061 . S
O356 C359 1.235 . S
C357 O360 1.238 . S
C357 O361 1.241 . S
C358 O351 1.247 . S
C358 O352 1.261 . S
C359 O354 1.259 . S
C359 O356 1.235 . S
O360 Co350 2.021 . S
O360 C357 1.238 . S
O361 Co355 2.052 . S
O361 C357 1.241 . S
O362 Co350 2.137 . S
O362 C353 1.247 . S
O363 Co350 2.244 . S
O363 C353 1.272 . S
O363 Co355 2.135 . S
Co364 O365 2.216 . S
Co364 O366 2.091 . S
Co364 O368 2.004 . S
Co364 O374 2.021 . S
Co364 O376 2.137 . S
Co364 O377 2.244 . S
O365 Co364 2.216 . S
O365 C372 1.247 . S
O366 Co364 2.091 . S
O366 C372 1.261 . S
C367 O376 1.247 . S
C367 O377 1.272 . S
O368 Co364 2.004 . S
O368 C373 1.259 . S
Co369 O370 2.061 . S
Co369 O375 2.052 . S
Co369 O377 2.135 . S
O370 Co369 2.061 . S
O370 C373 1.235 . S
C371 O374 1.238 . S
C371 O375 1.241 . S
C372 O365 1.247 . S
C372 O366 1.261 . S
C373 O368 1.259 . S
C373 O370 1.235 . S
O374 Co364 2.021 . S
O374 C371 1.238 . S
O375 Co369 2.052 . S
O375 C371 1.241 . S
O376 Co364 2.137 . S
O376 C367 1.247 . S
O377 Co364 2.244 . S
O377 C367 1.272 . S
O377 Co369 2.135 . S
Co378 O379 2.216 . S
Co378 O380 2.091 . S
Co378 O382 2.004 . S
Co378 O388 2.021 . S
Co378 O390 2.137 . S
Co378 O391 2.244 . S
O379 Co378 2.216 . S
O379 C386 1.247 . S
O380 Co378 2.091 . S
O380 C386 1.261 . S
C381 O390 1.247 . S
C381 O391 1.272 . S
O382 Co378 2.004 . S
O382 C387 1.259 . S
Co383 O384 2.061 . S
Co383 O389 2.052 . S
Co383 O391 2.135 . S
O384 Co383 2.061 . S
O384 C387 1.235 . S
C385 O388 1.238 . S
C385 O389 1.241 . S
C386 O379 1.247 . S
C386 O380 1.261 . S
C387 O382 1.259 . S
C387 O384 1.235 . S
O388 Co378 2.021 . S
O388 C385 1.238 . S
O389 Co383 2.052 . S
O389 C385 1.241 . S
O390 Co378 2.137 . S
O390 C381 1.247 . S
O391 Co378 2.244 . S
O391 C381 1.272 . S
O391 Co383 2.135 . S
Co392 O393 2.216 . S
Co392 O394 2.091 . S
Co392 O396 2.004 . S
Co392 O402 2.021 . S
Co392 O404 2.137 . S
Co392 O405 2.244 . S
O393 Co392 2.216 . S
O393 C400 1.247 . S
O394 Co392 2.091 . S
O394 C400 1.261 . S
C395 O404 1.247 . S
C395 O405 1.272 . S
O396 Co392 2.004 . S
O396 C401 1.259 . S
Co397 O398 2.061 . S
Co397 O403 2.052 . S
Co397 O405 2.135 . S
O398 Co397 2.061 . S
O398 C401 1.235 . S
C399 O402 1.238 . S
C399 O403 1.241 . S
C400 O393 1.247 . S
C400 O394 1.261 . S
C401 O396 1.259 . S
C401 O398 1.235 . S
O402 Co392 2.021 . S
O402 C399 1.238 . S
O403 Co397 2.052 . S
O403 C399 1.241 . S
O404 Co392 2.137 . S
O404 C395 1.247 . S
O405 Co392 2.244 . S
O405 C395 1.272 . S
O405 Co397 2.135 . S
Co406 O407 2.216 . S
Co406 O408 2.091 . S
Co406 O410 2.004 . S
Co406 O416 2.021 . S
Co406 O418 2.137 . S
Co406 O419 2.244 . S
O407 Co406 2.216 . S
O407 C414 1.247 . S
O408 Co406 2.091 . S
O408 C414 1.261 . S
C409 O418 1.247 . S
C409 O419 1.272 . S
O410 Co406 2.004 . S
O410 C415 1.259 . S
Co411 O412 2.061 . S
Co411 O417 2.052 . S
Co411 O419 2.135 . S
O412 Co411 2.061 . S
O412 C415 1.235 . S
C413 O416 1.238 . S
C413 O417 1.241 . S
C414 O407 1.247 . S
C414 O408 1.261 . S
C415 O410 1.259 . S
C415 O412 1.235 . S
O416 Co406 2.021 . S
O416 C413 1.238 . S
O417 Co411 2.052 . S
O417 C413 1.241 . S
O418 Co406 2.137 . S
O418 C409 1.247 . S
O419 Co406 2.244 . S
O419 C409 1.272 . S
O419 Co411 2.135 . S
Co420 O421 2.216 . S
Co420 O422 2.091 . S
Co420 O424 2.004 . S
Co420 O430 2.021 . S
Co420 O432 2.137 . S
Co420 O433 2.244 . S
O421 Co420 2.216 . S
O421 C428 1.247 . S
O422 Co420 2.091 . S
O422 C428 1.261 . S
C423 O432 1.247 . S
C423 O433 1.272 . S
O424 Co420 2.004 . S
O424 C429 1.259 . S
Co425 O426 2.061 . S
Co425 O431 2.052 . S
Co425 O433 2.135 . S
O426 Co425 2.061 . S
O426 C429 1.235 . S
C427 O430 1.238 . S
C427 O431 1.241 . S
C428 O421 1.247 . S
C428 O422 1.261 . S
C429 O424 1.259 . S
C429 O426 1.235 . S
O430 Co420 2.021 . S
O430 C427 1.238 . S
O431 Co425 2.052 . S
O431 C427 1.241 . S
O432 Co420 2.137 . S
O432 C423 1.247 . S
O433 Co420 2.244 . S
O433 C423 1.272 . S
O433 Co425 2.135 . S
Co434 O435 2.216 . S
Co434 O436 2.091 . S
Co434 O438 2.004 . S
Co434 O444 2.021 . S
Co434 O446 2.137 . S
Co434 O447 2.244 . S
O435 Co434 2.216 . S
O435 C442 1.247 . S
O436 Co434 2.091 . S
O436 C442 1.261 . S
C437 O446 1.247 . S
C437 O447 1.272 . S
O438 Co434 2.004 . S
O438 C443 1.259 . S
Co439 O440 2.061 . S
Co439 O445 2.052 . S
Co439 O447 2.135 . S
O440 Co439 2.061 . S
O440 C443 1.235 . S
C441 O444 1.238 . S
C441 O445 1.241 . S
C442 O435 1.247 . S
C442 O436 1.261 . S
C443 O438 1.259 . S
C443 O440 1.235 . S
O444 Co434 2.021 . S
O444 C441 1.238 . S
O445 Co439 2.052 . S
O445 C441 1.241 . S
O446 Co434 2.137 . S
O446 C437 1.247 . S
O447 Co434 2.244 . S
O447 C437 1.272 . S
O447 Co439 2.135 . S
H448 C454 0.930 . S
H449 C458 0.930 . S
H450 C463 0.929 . S
H451 C461 0.929 . S
H452 C456 0.929 . S
H453 C462 0.929 . S
C454 H448 0.930 . S
C454 C455 1.367 . S
C454 C462 1.378 . S
C455 C454 1.367 . S
C455 C463 1.433 . S
C456 H452 0.929 . S
C456 C458 1.378 . S
C456 C460 1.350 . S
C457 C460 1.463 . S
C457 C462 1.350 . S
C457 N465 1.427 . S
C458 H449 0.930 . S
C458 C456 1.378 . S
C458 C459 1.367 . S
C459 C458 1.367 . S
C459 C461 1.433 . S
C460 C456 1.350 . S
C460 C457 1.463 . S
C460 N464 1.427 . S
C461 H451 0.929 . S
C461 C459 1.433 . S
C461 N464 1.384 . S
C462 H453 0.929 . S
C462 C454 1.378 . S
C462 C457 1.350 . S
C463 H450 0.929 . S
C463 C455 1.433 . S
C463 N465 1.384 . S
N464 C460 1.427 . S
N464 C461 1.384 . S
N465 C457 1.427 . S
N465 C463 1.384 . S
H466 C472 0.930 . S
H467 C476 0.930 . S
H468 C481 0.929 . S
H469 C479 0.929 . S
H470 C474 0.929 . S
H471 C480 0.929 . S
C472 H466 0.930 . S
C472 C473 1.367 . S
C472 C480 1.378 . S
C473 C472 1.367 . S
C473 C481 1.433 . S
C474 H470 0.929 . S
C474 C476 1.378 . S
C474 C478 1.350 . S
C475 C478 1.463 1_565 S
C475 C480 1.350 . S
C475 N483 1.427 . S
C476 H467 0.930 . S
C476 C474 1.378 . S
C476 C477 1.367 . S
C477 C476 1.367 . S
C477 C479 1.433 . S
C478 C474 1.350 . S
C478 C475 1.463 1_545 S
C478 N482 1.427 . S
C479 H469 0.929 . S
C479 C477 1.433 . S
C479 N482 1.384 . S
C480 H471 0.929 . S
C480 C472 1.378 . S
C480 C475 1.350 . S
C481 H468 0.929 . S
C481 C473 1.433 . S
C481 N483 1.384 . S
N482 C478 1.427 . S
N482 C479 1.384 . S
N483 C475 1.427 . S
N483 C481 1.384 . S
H484 C490 0.930 . S
H485 C494 0.930 . S
H486 C499 0.929 . S
H487 C497 0.929 . S
H488 C492 0.929 . S
H489 C498 0.929 . S
C490 H484 0.930 . S
C490 C491 1.367 . S
C490 C498 1.378 . S
C491 C490 1.367 . S
C491 C499 1.433 . S
C492 H488 0.929 . S
C492 C494 1.378 . S
C492 C496 1.350 . S
C493 C496 1.463 . S
C493 C498 1.350 . S
C493 N501 1.427 . S
C494 H485 0.930 . S
C494 C492 1.378 . S
C494 C495 1.367 . S
C495 C494 1.367 . S
C495 C497 1.433 . S
C496 C492 1.350 . S
C496 C493 1.463 . S
C496 N500 1.427 . S
C497 H487 0.929 . S
C497 C495 1.433 . S
C497 N500 1.384 . S
C498 H489 0.929 . S
C498 C490 1.378 . S
C498 C493 1.350 . S
C499 H486 0.929 . S
C499 C491 1.433 . S
C499 N501 1.384 . S
N500 C496 1.427 . S
N500 C497 1.384 . S
N501 C493 1.427 . S
N501 C499 1.384 . S
H502 C508 0.930 . S
H503 C512 0.930 . S
H504 C517 0.929 . S
H505 C515 0.929 . S
H506 C510 0.929 . S
H507 C516 0.929 . S
C508 H502 0.930 . S
C508 C509 1.367 1_554 S
C508 C516 1.378 . S
C509 C508 1.367 1_556 S
C509 C517 1.433 . S
C510 H506 0.929 . S
C510 C512 1.378 . S
C510 C514 1.350 1_556 S
C511 C514 1.463 1_546 S
C511 C516 1.350 1_556 S
C511 N519 1.427 . S
C512 H503 0.930 . S
C512 C510 1.378 . S
C512 C513 1.367 1_556 S
C513 C512 1.367 1_554 S
C513 C515 1.433 . S
C514 C510 1.350 1_554 S
C514 C511 1.463 1_564 S
C514 N518 1.427 . S
C515 H505 0.929 . S
C515 C513 1.433 . S
C515 N518 1.384 . S
C516 H507 0.929 . S
C516 C508 1.378 . S
C516 C511 1.350 1_554 S
C517 H504 0.929 . S
C517 C509 1.433 . S
C517 N519 1.384 . S
N518 C514 1.427 . S
N518 C515 1.384 . S
N519 C511 1.427 . S
N519 C517 1.384 . S
H520 C526 0.930 . S
H521 C530 0.930 . S
H522 C535 0.929 . S
H523 C533 0.929 . S
H524 C528 0.929 . S
H525 C534 0.929 . S
C526 H520 0.930 . S
C526 C527 1.367 . S
C526 C534 1.378 . S
C527 C526 1.367 . S
C527 C535 1.433 . S
C528 H524 0.929 . S
C528 C530 1.378 . S
C528 C532 1.350 . S
C529 C532 1.463 . S
C529 C534 1.350 . S
C529 N537 1.427 . S
C530 H521 0.930 . S
C530 C528 1.378 . S
C530 C531 1.367 . S
C531 C530 1.367 . S
C531 C533 1.433 . S
C532 C528 1.350 . S
C532 C529 1.463 . S
C532 N536 1.427 . S
C533 H523 0.929 . S
C533 C531 1.433 . S
C533 N536 1.384 . S
C534 H525 0.929 . S
C534 C526 1.378 . S
C534 C529 1.350 . S
C535 H522 0.929 . S
C535 C527 1.433 . S
C535 N537 1.384 . S
N536 C532 1.427 . S
N536 C533 1.384 . S
N537 C529 1.427 . S
N537 C535 1.384 . S
H538 C544 0.930 . S
H539 C548 0.930 . S
H540 C553 0.929 . S
H541 C551 0.929 . S
H542 C546 0.929 . S
H543 C552 0.929 . S
C544 H538 0.930 . S
C544 C545 1.367 . S
C544 C552 1.378 . S
C545 C544 1.367 . S
C545 C553 1.433 . S
C546 H542 0.929 . S
C546 C548 1.378 . S
C546 C550 1.350 . S
C547 C550 1.463 1_565 S
C547 C552 1.350 . S
C547 N555 1.427 . S
C548 H539 0.930 . S
C548 C546 1.378 . S
C548 C549 1.367 . S
C549 C548 1.367 . S
C549 C551 1.433 . S
C550 C546 1.350 . S
C550 C547 1.463 1_545 S
C550 N554 1.427 . S
C551 H541 0.929 . S
C551 C549 1.433 . S
C551 N554 1.384 . S
C552 H543 0.929 . S
C552 C544 1.378 . S
C552 C547 1.350 . S
C553 H540 0.929 . S
C553 C545 1.433 . S
C553 N555 1.384 . S
N554 C550 1.427 . S
N554 C551 1.384 . S
N555 C547 1.427 . S
N555 C553 1.384 . S
H556 C562 0.930 . S
H557 C566 0.930 . S
H558 C571 0.929 . S
H559 C569 0.929 . S
H560 C564 0.929 . S
H561 C570 0.929 . S
C562 H556 0.930 . S
C562 C563 1.367 . S
C562 C570 1.378 . S
C563 C562 1.367 . S
C563 C571 1.433 . S
C564 H560 0.929 . S
C564 C566 1.378 . S
C564 C568 1.350 . S
C565 C568 1.463 . S
C565 C570 1.350 . S
C565 N573 1.427 . S
C566 H557 0.930 . S
C566 C564 1.378 . S
C566 C567 1.367 . S
C567 C566 1.367 . S
C567 C569 1.433 . S
C568 C564 1.350 . S
C568 C565 1.463 . S
C568 N572 1.427 . S
C569 H559 0.929 . S
C569 C567 1.433 . S
C569 N572 1.384 . S
C570 H561 0.929 . S
C570 C562 1.378 . S
C570 C565 1.350 . S
C571 H558 0.929 . S
C571 C563 1.433 . S
C571 N573 1.384 . S
N572 C568 1.427 . S
N572 C569 1.384 . S
N573 C565 1.427 . S
N573 C571 1.384 . S
H574 C580 0.930 1_554 S
H575 C584 0.930 1_556 S
H576 C589 0.929 . S
H577 C587 0.929 . S
H578 C582 0.929 . S
H579 C588 0.929 . S
C580 H574 0.930 1_556 S
C580 C581 1.367 . S
C580 C588 1.378 1_556 S
C581 C580 1.367 . S
C581 C589 1.433 . S
C582 H578 0.929 . S
C582 C584 1.378 1_556 S
C582 C586 1.350 1_556 S
C583 C586 1.463 1_546 S
C583 C588 1.350 1_556 S
C583 N591 1.427 . S
C584 H575 0.930 1_554 S
C584 C582 1.378 1_554 S
C584 C585 1.367 . S
C585 C584 1.367 . S
C585 C587 1.433 . S
C586 C582 1.350 1_554 S
C586 C583 1.463 1_564 S
C586 N590 1.427 . S
C587 H577 0.929 . S
C587 C585 1.433 . S
C587 N590 1.384 . S
C588 H579 0.929 . S
C588 C580 1.378 1_554 S
C588 C583 1.350 1_554 S
C589 H576 0.929 . S
C589 C581 1.433 . S
C589 N591 1.384 . S
N590 C586 1.427 . S
N590 C587 1.384 . S
N591 C583 1.427 . S
N591 C589 1.384 . S
H592 C598 0.930 . S
H593 C602 0.930 . S
H594 C607 0.929 . S
H595 C605 0.929 . S
H596 C600 0.929 . S
H597 C606 0.929 . S
C598 H592 0.930 . S
C598 C599 1.367 . S
C598 C606 1.378 . S
C599 C598 1.367 . S
C599 C607 1.433 . S
C600 H596 0.929 . S
C600 C602 1.378 . S
C600 C604 1.350 . S
C601 C604 1.463 . S
C601 C606 1.350 . S
C601 N609 1.427 . S
C602 H593 0.930 . S
C602 C600 1.378 . S
C602 C603 1.367 . S
C603 C602 1.367 . S
C603 C605 1.433 . S
C604 C600 1.350 . S
C604 C601 1.463 . S
C604 N608 1.427 . S
C605 H595 0.929 . S
C605 C603 1.433 . S
C605 N608 1.384 . S
C606 H597 0.929 . S
C606 C598 1.378 . S
C606 C601 1.350 . S
C607 H594 0.929 . S
C607 C599 1.433 . S
C607 N609 1.384 . S
N608 C604 1.427 . S
N608 C605 1.384 . S
N609 C601 1.427 . S
N609 C607 1.384 . S
H610 C616 0.930 . S
H611 C620 0.930 . S
H612 C625 0.929 1_554 S
H613 C623 0.929 1_556 S
H614 C618 0.929 . S
H615 C624 0.929 . S
C616 H610 0.930 . S
C616 C617 1.367 . S
C616 C624 1.378 . S
C617 C616 1.367 . S
C617 C625 1.433 . S
C618 H614 0.929 . S
C618 C620 1.378 . S
C618 C622 1.350 . S
C619 C622 1.463 1_556 S
C619 C624 1.350 . S
C619 N627 1.427 1_556 S
C620 H611 0.930 . S
C620 C618 1.378 . S
C620 C621 1.367 . S
C621 C620 1.367 . S
C621 C623 1.433 . S
C622 C618 1.350 . S
C622 C619 1.463 1_554 S
C622 N626 1.427 1_554 S
C623 H613 0.929 1_554 S
C623 C621 1.433 . S
C623 N626 1.384 1_554 S
C624 H615 0.929 . S
C624 C616 1.378 . S
C624 C619 1.350 . S
C625 H612 0.929 1_556 S
C625 C617 1.433 . S
C625 N627 1.384 1_556 S
N626 C622 1.427 1_556 S
N626 C623 1.384 1_556 S
N627 C619 1.427 1_554 S
N627 C625 1.384 1_554 S
H628 C634 0.930 . S
H629 C638 0.930 . S
H630 C643 0.929 . S
H631 C641 0.929 . S
H632 C636 0.929 . S
H633 C642 0.929 . S
C634 H628 0.930 . S
C634 C635 1.367 . S
C634 C642 1.378 . S
C635 C634 1.367 . S
C635 C643 1.433 . S
C636 H632 0.929 . S
C636 C638 1.378 . S
C636 C640 1.350 . S
C637 C640 1.463 . S
C637 C642 1.350 . S
C637 N645 1.427 . S
C638 H629 0.930 . S
C638 C636 1.378 . S
C638 C639 1.367 . S
C639 C638 1.367 . S
C639 C641 1.433 . S
C640 C636 1.350 . S
C640 C637 1.463 . S
C640 N644 1.427 . S
C641 H631 0.929 . S
C641 C639 1.433 . S
C641 N644 1.384 . S
C642 H633 0.929 . S
C642 C634 1.378 . S
C642 C637 1.350 . S
C643 H630 0.929 . S
C643 C635 1.433 . S
C643 N645 1.384 . S
N644 C640 1.427 . S
N644 C641 1.384 . S
N645 C637 1.427 . S
N645 C643 1.384 . S
H646 C652 0.930 . S
H647 C656 0.930 . S
H648 C661 0.929 . S
H649 C659 0.929 . S
H650 C654 0.929 . S
H651 C660 0.929 . S
C652 H646 0.930 . S
C652 C653 1.367 . S
C652 C660 1.378 . S
C653 C652 1.367 . S
C653 C661 1.433 . S
C654 H650 0.929 . S
C654 C656 1.378 . S
C654 C658 1.350 . S
C655 C658 1.463 . S
C655 C660 1.350 . S
C655 N663 1.427 . S
C656 H647 0.930 . S
C656 C654 1.378 . S
C656 C657 1.367 . S
C657 C656 1.367 . S
C657 C659 1.433 . S
C658 C654 1.350 . S
C658 C655 1.463 . S
C658 N662 1.427 . S
C659 H649 0.929 . S
C659 C657 1.433 . S
C659 N662 1.384 . S
C660 H651 0.929 . S
C660 C652 1.378 . S
C660 C655 1.350 . S
C661 H648 0.929 . S
C661 C653 1.433 . S
C661 N663 1.384 . S
N662 C658 1.427 . S
N662 C659 1.384 . S
N663 C655 1.427 . S
N663 C661 1.384 . S
H664 C670 0.930 . S
H665 C674 0.930 . S
H666 C679 0.929 . S
H667 C677 0.929 . S
H668 C672 0.929 . S
H669 C678 0.929 . S
C670 H664 0.930 . S
C670 C671 1.367 . S
C670 C678 1.378 . S
C671 C670 1.367 . S
C671 C679 1.433 . S
C672 H668 0.929 . S
C672 C674 1.378 . S
C672 C676 1.350 . S
C673 C676 1.463 . S
C673 C678 1.350 . S
C673 N681 1.427 . S
C674 H665 0.930 . S
C674 C672 1.378 . S
C674 C675 1.367 . S
C675 C674 1.367 . S
C675 C677 1.433 . S
C676 C672 1.350 . S
C676 C673 1.463 . S
C676 N680 1.427 . S
C677 H667 0.929 . S
C677 C675 1.433 . S
C677 N680 1.384 . S
C678 H669 0.929 . S
C678 C670 1.378 . S
C678 C673 1.350 . S
C679 H666 0.929 . S
C679 C671 1.433 . S
C679 N681 1.384 . S
N680 C676 1.427 . S
N680 C677 1.384 . S
N681 C673 1.427 . S
N681 C679 1.384 . S
H682 C688 0.930 . S
H683 C692 0.930 . S
H684 C697 0.929 . S
H685 C695 0.929 . S
H686 C690 0.929 . S
H687 C696 0.929 . S
C688 H682 0.930 . S
C688 C689 1.367 1_556 S
C688 C696 1.378 . S
C689 C688 1.367 1_554 S
C689 C697 1.433 . S
C690 H686 0.929 . S
C690 C692 1.378 . S
C690 C694 1.350 1_554 S
C691 C694 1.463 1_554 S
C691 C696 1.350 1_554 S
C691 N699 1.427 . S
C692 H683 0.930 . S
C692 C690 1.378 . S
C692 C693 1.367 1_554 S
C693 C692 1.367 1_556 S
C693 C695 1.433 . S
C694 C690 1.350 1_556 S
C694 C691 1.463 1_556 S
C694 N698 1.427 . S
C695 H685 0.929 . S
C695 C693 1.433 . S
C695 N698 1.384 . S
C696 H687 0.929 . S
C696 C688 1.378 . S
C696 C691 1.350 1_556 S
C697 H684 0.929 . S
C697 C689 1.433 . S
C697 N699 1.384 . S
N698 C694 1.427 . S
N698 C695 1.384 . S
N699 C691 1.427 . S
N699 C697 1.384 . S
H700 C706 0.930 . S
H701 C710 0.930 . S
H702 C715 0.929 . S
H703 C713 0.929 . S
H704 C708 0.929 . S
H705 C714 0.929 . S
C706 H700 0.930 . S
C706 C707 1.367 . S
C706 C714 1.378 . S
C707 C706 1.367 . S
C707 C715 1.433 . S
C708 H704 0.929 . S
C708 C710 1.378 . S
C708 C712 1.350 . S
C709 C712 1.463 . S
C709 C714 1.350 . S
C709 N717 1.427 . S
C710 H701 0.930 . S
C710 C708 1.378 . S
C710 C711 1.367 . S
C711 C710 1.367 . S
C711 C713 1.433 . S
C712 C708 1.350 . S
C712 C709 1.463 . S
C712 N716 1.427 . S
C713 H703 0.929 . S
C713 C711 1.433 . S
C713 N716 1.384 . S
C714 H705 0.929 . S
C714 C706 1.378 . S
C714 C709 1.350 . S
C715 H702 0.929 . S
C715 C707 1.433 . S
C715 N717 1.384 . S
N716 C712 1.427 . S
N716 C713 1.384 . S
N717 C709 1.427 . S
N717 C715 1.384 . S
H718 C724 0.930 . S
H719 C728 0.930 . S
H720 C733 0.929 . S
H721 C731 0.929 . S
H722 C726 0.929 . S
H723 C732 0.929 . S
C724 H718 0.930 . S
C724 C725 1.367 . S
C724 C732 1.378 . S
C725 C724 1.367 . S
C725 C733 1.433 . S
C726 H722 0.929 . S
C726 C728 1.378 . S
C726 C730 1.350 . S
C727 C730 1.463 . S
C727 C732 1.350 . S
C727 N735 1.427 . S
C728 H719 0.930 . S
C728 C726 1.378 . S
C728 C729 1.367 . S
C729 C728 1.367 . S
C729 C731 1.433 . S
C730 C726 1.350 . S
C730 C727 1.463 . S
C730 N734 1.427 . S
C731 H721 0.929 . S
C731 C729 1.433 . S
C731 N734 1.384 . S
C732 H723 0.929 . S
C732 C724 1.378 . S
C732 C727 1.350 . S
C733 H720 0.929 . S
C733 C725 1.433 . S
C733 N735 1.384 . S
N734 C730 1.427 . S
N734 C731 1.384 . S
N735 C727 1.427 . S
N735 C733 1.384 . S
H736 C742 0.930 . S
H737 C746 0.930 . S
H738 C751 0.925 1_554 S
H739 C749 0.929 . S
H740 C744 0.929 . S
H741 C750 0.929 . S
C742 H736 0.930 . S
C742 C743 1.367 . S
C742 C750 1.378 . S
C743 C742 1.367 . S
C743 C751 1.434 . S
C744 H740 0.929 . S
C744 C746 1.378 . S
C744 C748 1.350 . S
C745 C748 1.463 . S
C745 C750 1.350 . S
C745 N753 1.427 . S
C746 H737 0.930 . S
C746 C744 1.378 . S
C746 C747 1.367 . S
C747 C746 1.367 . S
C747 C749 1.433 . S
C748 C744 1.350 . S
C748 C745 1.463 . S
C748 N752 1.427 . S
C749 H739 0.929 . S
C749 C747 1.433 . S
C749 N752 1.384 . S
C750 H741 0.929 . S
C750 C742 1.378 . S
C750 C745 1.350 . S
C751 H738 0.925 1_556 S
C751 C743 1.434 . S
C751 N753 1.387 . S
N752 C748 1.427 . S
N752 C749 1.384 . S
N753 C745 1.427 . S
N753 C751 1.387 . S
H754 C760 0.930 1_556 S
H755 C764 0.930 . S
H756 C769 0.929 . S
H757 C767 0.929 . S
H758 C762 0.929 . S
H759 C768 0.929 . S
C760 H754 0.930 1_554 S
C760 C761 1.367 . S
C760 C768 1.378 . S
C761 C760 1.367 . S
C761 C769 1.433 . S
C762 H758 0.929 . S
C762 C764 1.378 . S
C762 C766 1.350 . S
C763 C766 1.463 . S
C763 C768 1.350 . S
C763 N771 1.427 . S
C764 H755 0.930 . S
C764 C762 1.378 . S
C764 C765 1.367 . S
C765 C764 1.367 . S
C765 C767 1.433 . S
C766 C762 1.350 . S
C766 C763 1.463 . S
C766 N770 1.427 . S
C767 H757 0.929 . S
C767 C765 1.433 . S
C767 N770 1.384 . S
C768 H759 0.929 . S
C768 C760 1.378 . S
C768 C763 1.350 . S
C769 H756 0.929 . S
C769 C761 1.433 . S
C769 N771 1.384 . S
N770 C766 1.427 . S
N770 C767 1.384 . S
N771 C763 1.427 . S
N771 C769 1.384 . S
H772 C778 0.930 . S
H773 C782 0.930 . S
H774 C787 0.929 . S
H775 C785 0.929 . S
H776 C780 0.929 . S
H777 C786 0.929 . S
C778 H772 0.930 . S
C778 C779 1.367 . S
C778 C786 1.378 . S
C779 C778 1.367 . S
C779 C787 1.433 . S
C780 H776 0.929 . S
C780 C782 1.378 . S
C780 C784 1.350 . S
C781 C784 1.463 . S
C781 C786 1.350 . S
C781 N789 1.427 . S
C782 H773 0.930 . S
C782 C780 1.378 . S
C782 C783 1.367 . S
C783 C782 1.367 . S
C783 C785 1.433 . S
C784 C780 1.350 . S
C784 C781 1.463 . S
C784 N788 1.427 . S
C785 H775 0.929 . S
C785 C783 1.433 . S
C785 N788 1.384 . S
C786 H777 0.929 . S
C786 C778 1.378 . S
C786 C781 1.350 . S
C787 H774 0.929 . S
C787 C779 1.433 . S
C787 N789 1.384 . S
N788 C784 1.427 . S
N788 C785 1.384 . S
N789 C781 1.427 . S
N789 C787 1.384 . S
H790 C796 0.930 . S
H791 C800 0.930 . S
H792 C805 0.929 . S
H793 C803 0.929 . S
H794 C798 0.929 . S
H795 C804 0.929 . S
C796 H790 0.930 . S
C796 C797 1.367 . S
C796 C804 1.378 . S
C797 C796 1.367 . S
C797 C805 1.433 . S
C798 H794 0.929 . S
C798 C800 1.378 . S
C798 C802 1.350 . S
C799 C802 1.463 . S
C799 C804 1.350 . S
C799 N807 1.427 . S
C800 H791 0.930 . S
C800 C798 1.378 . S
C800 C801 1.367 . S
C801 C800 1.367 . S
C801 C803 1.433 . S
C802 C798 1.350 . S
C802 C799 1.463 . S
C802 N806 1.427 . S
C803 H793 0.929 . S
C803 C801 1.433 . S
C803 N806 1.384 . S
C804 H795 0.929 . S
C804 C796 1.378 . S
C804 C799 1.350 . S
C805 H792 0.929 . S
C805 C797 1.433 . S
C805 N807 1.384 . S
N806 C802 1.427 . S
N806 C803 1.384 . S
N807 C799 1.427 . S
N807 C805 1.384 . S
H808 C814 0.930 1_556 S
H809 C818 0.930 . S
H810 C823 0.929 . S
H811 C821 0.929 . S
H812 C816 0.929 . S
H813 C822 0.929 . S
C814 H808 0.930 1_554 S
C814 C815 1.367 . S
C814 C822 1.378 . S
C815 C814 1.367 . S
C815 C823 1.433 . S
C816 H812 0.929 . S
C816 C818 1.378 . S
C816 C820 1.350 . S
C817 C820 1.463 . S
C817 C822 1.350 . S
C817 N825 1.427 . S
C818 H809 0.930 . S
C818 C816 1.378 . S
C818 C819 1.367 . S
C819 C818 1.367 . S
C819 C821 1.433 . S
C820 C816 1.350 . S
C820 C817 1.463 . S
C820 N824 1.427 . S
C821 H811 0.929 . S
C821 C819 1.433 . S
C821 N824 1.384 . S
C822 H813 0.929 . S
C822 C814 1.378 . S
C822 C817 1.350 . S
C823 H810 0.929 . S
C823 C815 1.433 . S
C823 N825 1.384 . S
N824 C820 1.427 . S
N824 C821 1.384 . S
N825 C817 1.427 . S
N825 C823 1.384 . S
H826 C832 0.930 . S
H827 C836 0.930 . S
H828 C841 0.929 . S
H829 C839 0.929 . S
H830 C834 0.929 . S
H831 C840 0.929 . S
C832 H826 0.930 . S
C832 C833 1.367 . S
C832 C840 1.378 . S
C833 C832 1.367 . S
C833 C841 1.433 . S
C834 H830 0.929 . S
C834 C836 1.378 . S
C834 C838 1.350 . S
C835 C838 1.463 . S
C835 C840 1.350 . S
C835 N843 1.427 . S
C836 H827 0.930 . S
C836 C834 1.378 . S
C836 C837 1.367 . S
C837 C836 1.367 . S
C837 C839 1.433 . S
C838 C834 1.350 . S
C838 C835 1.463 . S
C838 N842 1.427 . S
C839 H829 0.929 . S
C839 C837 1.433 . S
C839 N842 1.384 . S
C840 H831 0.929 . S
C840 C832 1.378 . S
C840 C835 1.350 . S
C841 H828 0.929 . S
C841 C833 1.433 . S
C841 N843 1.384 . S
N842 C838 1.427 . S
N842 C839 1.384 . S
N843 C835 1.427 . S
N843 C841 1.384 . S
H844 C850 0.930 . S
H845 C854 0.930 . S
H846 C859 0.929 . S
H847 C857 0.929 . S
H848 C852 0.929 . S
H849 C858 0.929 . S
C850 H844 0.930 . S
C850 C851 1.367 . S
C850 C858 1.378 . S
C851 C850 1.367 . S
C851 C859 1.433 . S
C852 H848 0.929 . S
C852 C854 1.378 . S
C852 C856 1.350 . S
C853 C856 1.463 . S
C853 C858 1.350 . S
C853 N861 1.427 . S
C854 H845 0.930 . S
C854 C852 1.378 . S
C854 C855 1.367 . S
C855 C854 1.367 . S
C855 C857 1.433 . S
C856 C852 1.350 . S
C856 C853 1.463 . S
C856 N860 1.427 . S
C857 H847 0.929 . S
C857 C855 1.433 . S
C857 N860 1.384 . S
C858 H849 0.929 . S
C858 C850 1.378 . S
C858 C853 1.350 . S
C859 H846 0.929 . S
C859 C851 1.433 . S
C859 N861 1.384 . S
N860 C856 1.427 . S
N860 C857 1.384 . S
N861 C853 1.427 . S
N861 C859 1.384 . S
H862 C868 0.930 . S
H863 C872 0.930 . S
H864 C877 0.929 . S
H865 C875 0.929 . S
H866 C870 0.929 . S
H867 C876 0.929 . S
C868 H862 0.930 . S
C868 C869 1.367 . S
C868 C876 1.378 . S
C869 C868 1.367 . S
C869 C877 1.433 . S
C870 H866 0.929 . S
C870 C872 1.378 . S
C870 C874 1.350 . S
C871 C874 1.463 . S
C871 C876 1.350 . S
C871 N879 1.427 . S
C872 H863 0.930 . S
C872 C870 1.378 . S
C872 C873 1.367 . S
C873 C872 1.367 . S
C873 C875 1.433 . S
C874 C870 1.350 . S
C874 C871 1.463 . S
C874 N878 1.427 . S
C875 H865 0.929 . S
C875 C873 1.433 . S
C875 N878 1.384 . S
C876 H867 0.929 . S
C876 C868 1.378 . S
C876 C871 1.350 . S
C877 H864 0.929 . S
C877 C869 1.433 . S
C877 N879 1.384 . S
N878 C874 1.427 . S
N878 C875 1.384 . S
N879 C871 1.427 . S
N879 C877 1.384 . S
H880 C886 0.930 . S
H881 C890 0.930 . S
H882 C895 0.929 . S
H883 C893 0.929 . S
H884 C888 0.929 . S
H885 C894 0.929 . S
C886 H880 0.930 . S
C886 C887 1.367 . S
C886 C894 1.378 . S
C887 C886 1.367 . S
C887 C895 1.433 . S
C888 H884 0.929 . S
C888 C890 1.378 . S
C888 C892 1.350 . S
C889 C892 1.463 . S
C889 C894 1.350 . S
C889 N897 1.427 . S
C890 H881 0.930 . S
C890 C888 1.378 . S
C890 C891 1.367 . S
C891 C890 1.367 . S
C891 C893 1.433 . S
C892 C888 1.350 . S
C892 C889 1.463 . S
C892 N896 1.427 . S
C893 H883 0.929 . S
C893 C891 1.433 . S
C893 N896 1.384 . S
C894 H885 0.929 . S
C894 C886 1.378 . S
C894 C889 1.350 . S
C895 H882 0.929 . S
C895 C887 1.433 . S
C895 N897 1.384 . S
N896 C892 1.427 . S
N896 C893 1.384 . S
N897 C889 1.427 . S
N897 C895 1.384 . S
H898 C904 0.930 . S
H899 C908 0.930 . S
H900 C913 0.929 . S
H901 C911 0.929 . S
H902 C906 0.929 . S
H903 C912 0.929 . S
C904 H898 0.930 . S
C904 C905 1.367 . S
C904 C912 1.378 . S
C905 C904 1.367 . S
C905 C913 1.433 . S
C906 H902 0.929 . S
C906 C908 1.378 . S
C906 C910 1.350 . S
C907 C910 1.463 . S
C907 C912 1.350 . S
C907 N915 1.427 . S
C908 H899 0.930 . S
C908 C906 1.378 . S
C908 C909 1.367 . S
C909 C908 1.367 . S
C909 C911 1.433 . S
C910 C906 1.350 . S
C910 C907 1.463 . S
C910 N914 1.427 . S
C911 H901 0.929 . S
C911 C909 1.433 . S
C911 N914 1.384 . S
C912 H903 0.929 . S
C912 C904 1.378 . S
C912 C907 1.350 . S
C913 H900 0.929 . S
C913 C905 1.433 . S
C913 N915 1.384 . S
N914 C910 1.427 . S
N914 C911 1.384 . S
N915 C907 1.427 . S
N915 C913 1.384 . S
H916 C922 0.930 . S
H917 C926 0.923 1_554 S
H918 C931 0.929 . S
H919 C929 0.929 . S
H920 C924 0.929 . S
H921 C930 0.929 . S
C922 H916 0.930 . S
C922 C923 1.367 . S
C922 C930 1.378 . S
C923 C922 1.367 . S
C923 C931 1.433 . S
C924 H920 0.929 . S
C924 C926 1.378 . S
C924 C928 1.350 . S
C925 C928 1.463 . S
C925 C930 1.350 . S
C925 N933 1.427 . S
C926 H917 0.923 1_556 S
C926 C924 1.378 . S
C926 C927 1.367 . S
C927 C926 1.367 . S
C927 C929 1.433 . S
C928 C924 1.350 . S
C928 C925 1.463 . S
C928 N932 1.427 . S
C929 H919 0.929 . S
C929 C927 1.433 . S
C929 N932 1.384 . S
C930 H921 0.929 . S
C930 C922 1.378 . S
C930 C925 1.350 . S
C931 H918 0.929 . S
C931 C923 1.433 . S
C931 N933 1.384 . S
N932 C928 1.427 . S
N932 C929 1.384 . S
N933 C925 1.427 . S
N933 C931 1.384 . S
H934 C940 0.930 . S
H935 C944 0.930 . S
H936 C949 0.929 . S
H937 C947 0.930 1_556 S
H938 C942 0.929 . S
H939 C948 0.929 . S
C940 H934 0.930 . S
C940 C941 1.367 . S
C940 C948 1.378 . S
C941 C940 1.367 . S
C941 C949 1.433 . S
C942 H938 0.929 . S
C942 C944 1.378 . S
C942 C946 1.350 . S
C943 C946 1.463 . S
C943 C948 1.350 . S
C943 N951 1.427 . S
C944 H935 0.930 . S
C944 C942 1.378 . S
C944 C945 1.367 . S
C945 C944 1.367 . S
C945 C947 1.433 . S
C946 C942 1.350 . S
C946 C943 1.463 . S
C946 N950 1.427 . S
C947 H937 0.930 1_554 S
C947 C945 1.433 . S
C947 N950 1.384 . S
C948 H939 0.929 . S
C948 C940 1.378 . S
C948 C943 1.350 . S
C949 H936 0.929 . S
C949 C941 1.433 . S
C949 N951 1.384 . S
N950 C946 1.427 . S
N950 C947 1.384 . S
N951 C943 1.427 . S
N951 C949 1.384 . S
H952 C958 0.930 . S
H953 C962 0.930 . S
H954 C967 0.929 . S
H955 C965 0.929 . S
H956 C960 0.929 . S
H957 C966 0.929 . S
C958 H952 0.930 . S
C958 C959 1.367 . S
C958 C966 1.378 . S
C959 C958 1.367 . S
C959 C967 1.433 . S
C960 H956 0.929 . S
C960 C962 1.378 . S
C960 C964 1.350 . S
C961 C964 1.463 . S
C961 C966 1.350 . S
C961 N969 1.427 . S
C962 H953 0.930 . S
C962 C960 1.378 . S
C962 C963 1.367 . S
C963 C962 1.367 . S
C963 C965 1.433 . S
C964 C960 1.350 . S
C964 C961 1.463 . S
C964 N968 1.427 . S
C965 H955 0.929 . S
C965 C963 1.433 . S
C965 N968 1.384 . S
C966 H957 0.929 . S
C966 C958 1.378 . S
C966 C961 1.350 . S
C967 H954 0.929 . S
C967 C959 1.433 . S
C967 N969 1.384 . S
N968 C964 1.427 . S
N968 C965 1.384 . S
N969 C961 1.427 . S
N969 C967 1.384 . S
H970 C976 0.930 . S
H971 C980 0.930 . S
H972 C985 0.929 . S
H973 C983 0.929 . S
H974 C978 0.929 . S
H975 C984 0.929 . S
C976 H970 0.930 . S
C976 C977 1.367 . S
C976 C984 1.378 . S
C977 C976 1.367 . S
C977 C985 1.433 . S
C978 H974 0.929 . S
C978 C980 1.378 . S
C978 C982 1.350 . S
C979 C982 1.463 . S
C979 C984 1.350 . S
C979 N987 1.427 . S
C980 H971 0.930 . S
C980 C978 1.378 . S
C980 C981 1.367 . S
C981 C980 1.367 . S
C981 C983 1.433 . S
C982 C978 1.350 . S
C982 C979 1.463 . S
C982 N986 1.427 . S
C983 H973 0.929 . S
C983 C981 1.433 . S
C983 N986 1.384 . S
C984 H975 0.929 . S
C984 C976 1.378 . S
C984 C979 1.350 . S
C985 H972 0.929 . S
C985 C977 1.433 . S
C985 N987 1.384 . S
N986 C982 1.427 . S
N986 C983 1.384 . S
N987 C979 1.427 . S
N987 C985 1.384 . S
H988 C994 0.930 . S
H989 C998 0.930 . S
H990 C1003 0.929 . S
H991 C1001 0.929 . S
H992 C996 0.929 . S
H993 C1002 0.929 . S
C994 H988 0.930 . S
C994 C995 1.367 . S
C994 C1002 1.378 . S
C995 C994 1.367 . S
C995 C1003 1.433 . S
C996 H992 0.929 . S
C996 C998 1.378 . S
C996 C1000 1.350 . S
C997 C1000 1.463 . S
C997 C1002 1.350 . S
C997 N1005 1.427 . S
C998 H989 0.930 . S
C998 C996 1.378 . S
C998 C999 1.367 . S
C999 C998 1.367 . S
C999 C1001 1.433 . S
C1000 C996 1.350 . S
C1000 C997 1.463 . S
C1000 N1004 1.427 . S
C1001 H991 0.929 . S
C1001 C999 1.433 . S
C1001 N1004 1.384 . S
C1002 H993 0.929 . S
C1002 C994 1.378 . S
C1002 C997 1.350 . S
C1003 H990 0.929 . S
C1003 C995 1.433 . S
C1003 N1005 1.384 . S
N1004 C1000 1.427 . S
N1004 C1001 1.384 . S
N1005 C997 1.427 . S
N1005 C1003 1.384 . S
H1006 C1012 0.930 . S
H1007 C1016 0.930 . S
H1008 C1021 0.929 . S
H1009 C1019 0.929 1_554 S
H1010 C1014 0.929 . S
H1011 C1020 0.929 . S
C1012 H1006 0.930 . S
C1012 C1013 1.367 . S
C1012 C1020 1.378 . S
C1013 C1012 1.367 . S
C1013 C1021 1.433 . S
C1014 H1010 0.929 . S
C1014 C1016 1.378 . S
C1014 C1018 1.350 . S
C1015 C1018 1.463 . S
C1015 C1020 1.350 . S
C1015 N1023 1.427 . S
C1016 H1007 0.930 . S
C1016 C1014 1.378 . S
C1016 C1017 1.367 . S
C1017 C1016 1.367 . S
C1017 C1019 1.433 . S
C1018 C1014 1.350 . S
C1018 C1015 1.463 . S
C1018 N1022 1.427 . S
C1019 H1009 0.929 1_556 S
C1019 C1017 1.433 . S
C1019 N1022 1.384 . S
C1020 H1011 0.929 . S
C1020 C1012 1.378 . S
C1020 C1015 1.350 . S
C1021 H1008 0.929 . S
C1021 C1013 1.433 . S
C1021 N1023 1.384 . S
N1022 C1018 1.427 . S
N1022 C1019 1.384 . S
N1023 C1015 1.427 . S
N1023 C1021 1.384 . S
H1024 C1030 0.930 . S
H1025 C1034 0.930 . S
H1026 C1039 0.929 . S
H1027 C1037 0.929 . S
H1028 C1032 0.929 . S
H1029 C1038 0.929 . S
C1030 H1024 0.930 . S
C1030 C1031 1.367 . S
C1030 C1038 1.378 . S
C1031 C1030 1.367 . S
C1031 C1039 1.433 . S
C1032 H1028 0.929 . S
C1032 C1034 1.378 . S
C1032 C1036 1.350 . S
C1033 C1036 1.463 . S
C1033 C1038 1.350 . S
C1033 N1041 1.427 . S
C1034 H1025 0.930 . S
C1034 C1032 1.378 . S
C1034 C1035 1.367 . S
C1035 C1034 1.367 . S
C1035 C1037 1.433 . S
C1036 C1032 1.350 . S
C1036 C1033 1.463 . S
C1036 N1040 1.427 . S
C1037 H1027 0.929 . S
C1037 C1035 1.433 . S
C1037 N1040 1.384 . S
C1038 H1029 0.929 . S
C1038 C1030 1.378 . S
C1038 C1033 1.350 . S
C1039 H1026 0.929 . S
C1039 C1031 1.433 . S
C1039 N1041 1.384 . S
N1040 C1036 1.427 . S
N1040 C1037 1.384 . S
N1041 C1033 1.427 . S
N1041 C1039 1.384 . S
H1042 C1048 0.930 . S
H1043 C1052 0.930 . S
H1044 C1057 0.929 . S
H1045 C1055 0.929 . S
H1046 C1050 0.929 . S
H1047 C1056 0.929 . S
C1048 H1042 0.930 . S
C1048 C1049 1.367 . S
C1048 C1056 1.378 . S
C1049 C1048 1.367 . S
C1049 C1057 1.433 . S
C1050 H1046 0.929 . S
C1050 C1052 1.378 . S
C1050 C1054 1.350 . S
C1051 C1054 1.463 1_655 S
C1051 C1056 1.350 . S
C1051 N1059 1.427 . S
C1052 H1043 0.930 . S
C1052 C1050 1.378 . S
C1052 C1053 1.367 . S
C1053 C1052 1.367 . S
C1053 C1055 1.433 . S
C1054 C1050 1.350 . S
C1054 C1051 1.463 1_455 S
C1054 N1058 1.427 . S
C1055 H1045 0.929 . S
C1055 C1053 1.433 . S
C1055 N1058 1.384 . S
C1056 H1047 0.929 . S
C1056 C1048 1.378 . S
C1056 C1051 1.350 . S
C1057 H1044 0.929 . S
C1057 C1049 1.433 . S
C1057 N1059 1.384 . S
N1058 C1054 1.427 . S
N1058 C1055 1.384 . S
N1059 C1051 1.427 . S
N1059 C1057 1.384 . S
H1060 C1066 0.930 . S
H1061 C1070 0.930 . S
H1062 C1075 0.929 . S
H1063 C1073 0.929 . S
H1064 C1068 0.929 . S
H1065 C1074 0.929 . S
C1066 H1060 0.930 . S
C1066 C1067 1.367 . S
C1066 C1074 1.378 . S
C1067 C1066 1.367 . S
C1067 C1075 1.433 . S
C1068 H1064 0.929 . S
C1068 C1070 1.378 . S
C1068 C1072 1.350 . S
C1069 C1072 1.463 . S
C1069 C1074 1.350 . S
C1069 N1077 1.427 . S
C1070 H1061 0.930 . S
C1070 C1068 1.378 . S
C1070 C1071 1.367 . S
C1071 C1070 1.367 . S
C1071 C1073 1.433 . S
C1072 C1068 1.350 . S
C1072 C1069 1.463 . S
C1072 N1076 1.427 . S
C1073 H1063 0.929 . S
C1073 C1071 1.433 . S
C1073 N1076 1.384 . S
C1074 H1065 0.929 . S
C1074 C1066 1.378 . S
C1074 C1069 1.350 . S
C1075 H1062 0.929 . S
C1075 C1067 1.433 . S
C1075 N1077 1.384 . S
N1076 C1072 1.427 . S
N1076 C1073 1.384 . S
N1077 C1069 1.427 . S
N1077 C1075 1.384 . S
H1078 C1084 0.930 . S
H1079 C1088 0.930 . S
H1080 C1093 0.929 . S
H1081 C1091 0.929 . S
H1082 C1086 0.929 . S
H1083 C1092 0.929 . S
C1084 H1078 0.930 . S
C1084 C1085 1.367 . S
C1084 C1092 1.378 . S
C1085 C1084 1.367 . S
C1085 C1093 1.433 . S
C1086 H1082 0.929 . S
C1086 C1088 1.378 . S
C1086 C1090 1.350 . S
C1087 C1090 1.463 . S
C1087 C1092 1.350 . S
C1087 N1095 1.427 . S
C1088 H1079 0.930 . S
C1088 C1086 1.378 . S
C1088 C1089 1.367 . S
C1089 C1088 1.367 . S
C1089 C1091 1.433 . S
C1090 C1086 1.350 . S
C1090 C1087 1.463 . S
C1090 N1094 1.427 . S
C1091 H1081 0.929 . S
C1091 C1089 1.433 . S
C1091 N1094 1.384 . S
C1092 H1083 0.929 . S
C1092 C1084 1.378 . S
C1092 C1087 1.350 . S
C1093 H1080 0.929 . S
C1093 C1085 1.433 . S
C1093 N1095 1.384 . S
N1094 C1090 1.427 . S
N1094 C1091 1.384 . S
N1095 C1087 1.427 . S
N1095 C1093 1.384 . S
H1096 C1102 0.930 . S
H1097 C1106 0.930 . S
H1098 C1111 0.929 . S
H1099 C1109 0.929 . S
H1100 C1104 0.929 . S
H1101 C1110 0.929 . S
C1102 H1096 0.930 . S
C1102 C1103 1.367 . S
C1102 C1110 1.378 . S
C1103 C1102 1.367 . S
C1103 C1111 1.433 . S
C1104 H1100 0.929 . S
C1104 C1106 1.378 . S
C1104 C1108 1.350 . S
C1105 C1108 1.463 . S
C1105 C1110 1.350 . S
C1105 N1113 1.427 . S
C1106 H1097 0.930 . S
C1106 C1104 1.378 . S
C1106 C1107 1.367 . S
C1107 C1106 1.367 . S
C1107 C1109 1.433 . S
C1108 C1104 1.350 . S
C1108 C1105 1.463 . S
C1108 N1112 1.427 . S
C1109 H1099 0.929 . S
C1109 C1107 1.433 . S
C1109 N1112 1.384 . S
C1110 H1101 0.929 . S
C1110 C1102 1.378 . S
C1110 C1105 1.350 . S
C1111 H1098 0.929 . S
C1111 C1103 1.433 . S
C1111 N1113 1.384 . S
N1112 C1108 1.427 . S
N1112 C1109 1.384 . S
N1113 C1105 1.427 . S
N1113 C1111 1.384 . S
H1114 C1120 0.930 . S
H1115 C1124 0.930 . S
H1116 C1129 0.929 . S
H1117 C1127 0.929 . S
H1118 C1122 0.929 . S
H1119 C1128 0.929 . S
C1120 H1114 0.930 . S
C1120 C1121 1.367 . S
C1120 C1128 1.378 . S
C1121 C1120 1.367 . S
C1121 C1129 1.433 . S
C1122 H1118 0.929 . S
C1122 C1124 1.378 . S
C1122 C1126 1.350 . S
C1123 C1126 1.463 . S
C1123 C1128 1.350 . S
C1123 N1131 1.427 . S
C1124 H1115 0.930 . S
C1124 C1122 1.378 . S
C1124 C1125 1.367 . S
C1125 C1124 1.367 . S
C1125 C1127 1.433 . S
C1126 C1122 1.350 . S
C1126 C1123 1.463 . S
C1126 N1130 1.427 . S
C1127 H1117 0.929 . S
C1127 C1125 1.433 . S
C1127 N1130 1.384 . S
C1128 H1119 0.929 . S
C1128 C1120 1.378 . S
C1128 C1123 1.350 . S
C1129 H1116 0.929 . S
C1129 C1121 1.433 . S
C1129 N1131 1.384 . S
N1130 C1126 1.427 . S
N1130 C1127 1.384 . S
N1131 C1123 1.427 . S
N1131 C1129 1.384 . S
H1132 C1138 0.930 . S
H1133 C1142 0.930 . S
H1134 C1147 0.929 . S
H1135 C1145 0.929 . S
H1136 C1140 0.929 . S
H1137 C1146 0.929 . S
C1138 H1132 0.930 . S
C1138 C1139 1.367 . S
C1138 C1146 1.378 . S
C1139 C1138 1.367 . S
C1139 C1147 1.433 . S
C1140 H1136 0.929 . S
C1140 C1142 1.378 . S
C1140 C1144 1.350 . S
C1141 C1144 1.463 . S
C1141 C1146 1.350 . S
C1141 N1149 1.427 . S
C1142 H1133 0.930 . S
C1142 C1140 1.378 . S
C1142 C1143 1.367 . S
C1143 C1142 1.367 . S
C1143 C1145 1.433 . S
C1144 C1140 1.350 . S
C1144 C1141 1.463 . S
C1144 N1148 1.427 . S
C1145 H1135 0.929 . S
C1145 C1143 1.433 . S
C1145 N1148 1.384 . S
C1146 H1137 0.929 . S
C1146 C1138 1.378 . S
C1146 C1141 1.350 . S
C1147 H1134 0.929 . S
C1147 C1139 1.433 . S
C1147 N1149 1.384 . S
N1148 C1144 1.427 . S
N1148 C1145 1.384 . S
N1149 C1141 1.427 . S
N1149 C1147 1.384 . S
H1150 C1156 0.930 . S
H1151 C1160 0.930 . S
H1152 C1165 0.929 . S
H1153 C1163 0.929 . S
H1154 C1158 0.929 . S
H1155 C1164 0.929 . S
C1156 H1150 0.930 . S
C1156 C1157 1.367 . S
C1156 C1164 1.378 . S
C1157 C1156 1.367 . S
C1157 C1165 1.433 . S
C1158 H1154 0.929 . S
C1158 C1160 1.378 . S
C1158 C1162 1.350 . S
C1159 C1162 1.463 1_655 S
C1159 C1164 1.350 . S
C1159 N1167 1.427 . S
C1160 H1151 0.930 . S
C1160 C1158 1.378 . S
C1160 C1161 1.367 . S
C1161 C1160 1.367 . S
C1161 C1163 1.433 . S
C1162 C1158 1.350 . S
C1162 C1159 1.463 1_455 S
C1162 N1166 1.427 . S
C1163 H1153 0.929 . S
C1163 C1161 1.433 . S
C1163 N1166 1.384 . S
C1164 H1155 0.929 . S
C1164 C1156 1.378 . S
C1164 C1159 1.350 . S
C1165 H1152 0.929 . S
C1165 C1157 1.433 . S
C1165 N1167 1.384 . S
N1166 C1162 1.427 . S
N1166 C1163 1.384 . S
N1167 C1159 1.427 . S
N1167 C1165 1.384 . S
H1168 C1174 0.930 . S
H1169 C1178 0.930 . S
H1170 C1183 0.929 . S
H1171 C1181 0.929 . S
H1172 C1176 0.929 . S
H1173 C1182 0.929 . S
C1174 H1168 0.930 . S
C1174 C1175 1.367 . S
C1174 C1182 1.378 . S
C1175 C1174 1.367 . S
C1175 C1183 1.433 . S
C1176 H1172 0.929 . S
C1176 C1178 1.378 . S
C1176 C1180 1.350 . S
C1177 C1180 1.463 . S
C1177 C1182 1.350 . S
C1177 N1185 1.427 . S
C1178 H1169 0.930 . S
C1178 C1176 1.378 . S
C1178 C1179 1.367 . S
C1179 C1178 1.367 . S
C1179 C1181 1.433 . S
C1180 C1176 1.350 . S
C1180 C1177 1.463 . S
C1180 N1184 1.427 . S
C1181 H1171 0.929 . S
C1181 C1179 1.433 . S
C1181 N1184 1.384 . S
C1182 H1173 0.929 . S
C1182 C1174 1.378 . S
C1182 C1177 1.350 . S
C1183 H1170 0.929 . S
C1183 C1175 1.433 . S
C1183 N1185 1.384 . S
N1184 C1180 1.427 . S
N1184 C1181 1.384 . S
N1185 C1177 1.427 . S
N1185 C1183 1.384 . S
H1186 C1192 0.930 . S
H1187 C1196 0.930 . S
H1188 C1201 0.929 . S
H1189 C1199 0.929 . S
H1190 C1194 0.929 . S
H1191 C1200 0.929 . S
C1192 H1186 0.930 . S
C1192 C1193 1.367 . S
C1192 C1200 1.378 . S
C1193 C1192 1.367 . S
C1193 C1201 1.433 . S
C1194 H1190 0.929 . S
C1194 C1196 1.378 . S
C1194 C1198 1.350 . S
C1195 C1198 1.463 . S
C1195 C1200 1.350 . S
C1195 N1203 1.427 . S
C1196 H1187 0.930 . S
C1196 C1194 1.378 . S
C1196 C1197 1.367 . S
C1197 C1196 1.367 . S
C1197 C1199 1.433 . S
C1198 C1194 1.350 . S
C1198 C1195 1.463 . S
C1198 N1202 1.427 . S
C1199 H1189 0.929 . S
C1199 C1197 1.433 . S
C1199 N1202 1.384 . S
C1200 H1191 0.929 . S
C1200 C1192 1.378 . S
C1200 C1195 1.350 . S
C1201 H1188 0.929 . S
C1201 C1193 1.433 . S
C1201 N1203 1.384 . S
N1202 C1198 1.427 . S
N1202 C1199 1.384 . S
N1203 C1195 1.427 . S
N1203 C1201 1.384 . S
H1204 C1210 0.930 . S
H1205 C1214 0.930 . S
H1206 C1219 0.929 . S
H1207 C1217 0.929 . S
H1208 C1212 0.929 . S
H1209 C1218 0.929 . S
C1210 H1204 0.930 . S
C1210 C1211 1.367 . S
C1210 C1218 1.378 . S
C1211 C1210 1.367 . S
C1211 C1219 1.433 . S
C1212 H1208 0.929 . S
C1212 C1214 1.378 . S
C1212 C1216 1.350 . S
C1213 C1216 1.463 . S
C1213 C1218 1.350 . S
C1213 N1221 1.427 . S
C1214 H1205 0.930 . S
C1214 C1212 1.378 . S
C1214 C1215 1.367 . S
C1215 C1214 1.367 . S
C1215 C1217 1.433 . S
C1216 C1212 1.350 . S
C1216 C1213 1.463 . S
C1216 N1220 1.427 . S
C1217 H1207 0.929 . S
C1217 C1215 1.433 . S
C1217 N1220 1.384 . S
C1218 H1209 0.929 . S
C1218 C1210 1.378 . S
C1218 C1213 1.350 . S
C1219 H1206 0.929 . S
C1219 C1211 1.433 . S
C1219 N1221 1.384 . S
N1220 C1216 1.427 . S
N1220 C1217 1.384 . S
N1221 C1213 1.427 . S
N1221 C1219 1.384 . S
H1222 C1228 0.930 . S
H1223 C1232 0.930 . S
H1224 C1237 0.929 . S
H1225 C1235 0.929 . S
H1226 C1230 0.929 . S
H1227 C1236 0.929 . S
C1228 H1222 0.930 . S
C1228 C1229 1.367 . S
C1228 C1236 1.378 . S
C1229 C1228 1.367 . S
C1229 C1237 1.433 . S
C1230 H1226 0.929 . S
C1230 C1232 1.378 . S
C1230 C1234 1.350 . S
C1231 C1234 1.463 . S
C1231 C1236 1.350 . S
C1231 N1239 1.427 . S
C1232 H1223 0.930 . S
C1232 C1230 1.378 . S
C1232 C1233 1.367 . S
C1233 C1232 1.367 . S
C1233 C1235 1.433 . S
C1234 C1230 1.350 . S
C1234 C1231 1.463 . S
C1234 N1238 1.427 . S
C1235 H1225 0.929 . S
C1235 C1233 1.433 . S
C1235 N1238 1.384 . S
C1236 H1227 0.929 . S
C1236 C1228 1.378 . S
C1236 C1231 1.350 . S
C1237 H1224 0.929 . S
C1237 C1229 1.433 . S
C1237 N1239 1.384 . S
N1238 C1234 1.427 . S
N1238 C1235 1.384 . S
N1239 C1231 1.427 . S
N1239 C1237 1.384 . S
H1240 C1246 0.930 . S
H1241 C1250 0.930 . S
H1242 C1255 0.929 . S
H1243 C1253 0.929 . S
H1244 C1248 0.929 . S
H1245 C1254 0.929 . S
C1246 H1240 0.930 . S
C1246 C1247 1.367 . S
C1246 C1254 1.378 . S
C1247 C1246 1.367 . S
C1247 C1255 1.433 . S
C1248 H1244 0.929 . S
C1248 C1250 1.378 . S
C1248 C1252 1.350 . S
C1249 C1252 1.463 . S
C1249 C1254 1.350 . S
C1249 N1257 1.427 . S
C1250 H1241 0.930 . S
C1250 C1248 1.378 . S
C1250 C1251 1.367 . S
C1251 C1250 1.367 . S
C1251 C1253 1.433 . S
C1252 C1248 1.350 . S
C1252 C1249 1.463 . S
C1252 N1256 1.427 . S
C1253 H1243 0.929 . S
C1253 C1251 1.433 . S
C1253 N1256 1.384 . S
C1254 H1245 0.929 . S
C1254 C1246 1.378 . S
C1254 C1249 1.350 . S
C1255 H1242 0.929 . S
C1255 C1247 1.433 . S
C1255 N1257 1.384 . S
N1256 C1252 1.427 . S
N1256 C1253 1.384 . S
N1257 C1249 1.427 . S
N1257 C1255 1.384 . S
H1258 C1264 0.930 . S
H1259 C1268 0.930 . S
H1260 C1273 0.929 . S
H1261 C1271 0.929 . S
H1262 C1266 0.929 . S
H1263 C1272 0.929 . S
C1264 H1258 0.930 . S
C1264 C1265 1.367 . S
C1264 C1272 1.378 . S
C1265 C1264 1.367 . S
C1265 C1273 1.433 . S
C1266 H1262 0.929 . S
C1266 C1268 1.378 . S
C1266 C1270 1.350 . S
C1267 C1270 1.463 1_655 S
C1267 C1272 1.350 . S
C1267 N1275 1.427 . S
C1268 H1259 0.930 . S
C1268 C1266 1.378 . S
C1268 C1269 1.367 . S
C1269 C1268 1.367 . S
C1269 C1271 1.433 . S
C1270 C1266 1.350 . S
C1270 C1267 1.463 1_455 S
C1270 N1274 1.427 . S
C1271 H1261 0.929 . S
C1271 C1269 1.433 . S
C1271 N1274 1.384 . S
C1272 H1263 0.929 . S
C1272 C1264 1.378 . S
C1272 C1267 1.350 . S
C1273 H1260 0.929 . S
C1273 C1265 1.433 . S
C1273 N1275 1.384 . S
N1274 C1270 1.427 . S
N1274 C1271 1.384 . S
N1275 C1267 1.427 . S
N1275 C1273 1.384 . S
H1276 C1282 0.930 . S
H1277 C1286 0.930 . S
H1278 C1291 0.929 . S
H1279 C1289 0.929 . S
H1280 C1284 0.929 . S
H1281 C1290 0.929 . S
C1282 H1276 0.930 . S
C1282 C1283 1.367 . S
C1282 C1290 1.378 . S
C1283 C1282 1.367 . S
C1283 C1291 1.433 . S
C1284 H1280 0.929 . S
C1284 C1286 1.378 . S
C1284 C1288 1.350 . S
C1285 C1288 1.463 1_655 S
C1285 C1290 1.350 . S
C1285 N1293 1.427 . S
C1286 H1277 0.930 . S
C1286 C1284 1.378 . S
C1286 C1287 1.367 . S
C1287 C1286 1.367 . S
C1287 C1289 1.433 . S
C1288 C1284 1.350 . S
C1288 C1285 1.463 1_455 S
C1288 N1292 1.427 . S
C1289 H1279 0.929 . S
C1289 C1287 1.433 . S
C1289 N1292 1.384 . S
C1290 H1281 0.929 . S
C1290 C1282 1.378 . S
C1290 C1285 1.350 . S
C1291 H1278 0.929 . S
C1291 C1283 1.433 . S
C1291 N1293 1.384 . S
N1292 C1288 1.427 . S
N1292 C1289 1.384 . S
N1293 C1285 1.427 . S
N1293 C1291 1.384 . S
H1294 C1300 0.930 . S
H1295 C1304 0.930 . S
H1296 C1309 0.929 . S
H1297 C1307 0.929 . S
H1298 C1302 0.929 . S
H1299 C1308 0.929 . S
C1300 H1294 0.930 . S
C1300 C1301 1.367 . S
C1300 C1308 1.378 . S
C1301 C1300 1.367 . S
C1301 C1309 1.433 . S
C1302 H1298 0.929 . S
C1302 C1304 1.378 . S
C1302 C1306 1.350 . S
C1303 C1306 1.463 . S
C1303 C1308 1.350 . S
C1303 N1311 1.427 . S
C1304 H1295 0.930 . S
C1304 C1302 1.378 . S
C1304 C1305 1.367 . S
C1305 C1304 1.367 . S
C1305 C1307 1.433 . S
C1306 C1302 1.350 . S
C1306 C1303 1.463 . S
C1306 N1310 1.427 . S
C1307 H1297 0.929 . S
C1307 C1305 1.433 . S
C1307 N1310 1.384 . S
C1308 H1299 0.929 . S
C1308 C1300 1.378 . S
C1308 C1303 1.350 . S
C1309 H1296 0.929 . S
C1309 C1301 1.433 . S
C1309 N1311 1.384 . S
N1310 C1306 1.427 . S
N1310 C1307 1.384 . S
N1311 C1303 1.427 . S
N1311 C1309 1.384 . S
H1312 C1318 0.930 . S
H1313 C1322 0.930 . S
H1314 C1327 0.929 . S
H1315 C1325 0.929 . S
H1316 C1320 0.929 . S
H1317 C1326 0.929 . S
C1318 H1312 0.930 . S
C1318 C1319 1.367 . S
C1318 C1326 1.378 . S
C1319 C1318 1.367 . S
C1319 C1327 1.433 . S
C1320 H1316 0.929 . S
C1320 C1322 1.378 . S
C1320 C1324 1.350 . S
C1321 C1324 1.463 . S
C1321 C1326 1.350 . S
C1321 N1329 1.427 . S
C1322 H1313 0.930 . S
C1322 C1320 1.378 . S
C1322 C1323 1.367 . S
C1323 C1322 1.367 . S
C1323 C1325 1.433 . S
C1324 C1320 1.350 . S
C1324 C1321 1.463 . S
C1324 N1328 1.427 . S
C1325 H1315 0.929 . S
C1325 C1323 1.433 . S
C1325 N1328 1.384 . S
C1326 H1317 0.929 . S
C1326 C1318 1.378 . S
C1326 C1321 1.350 . S
C1327 H1314 0.929 . S
C1327 C1319 1.433 . S
C1327 N1329 1.384 . S
N1328 C1324 1.427 . S
N1328 C1325 1.384 . S
N1329 C1321 1.427 . S
N1329 C1327 1.384 . S
H1330 C1336 0.930 . S
H1331 C1340 0.930 . S
H1332 C1345 0.929 . S
H1333 C1343 0.929 . S
H1334 C1338 0.929 . S
H1335 C1344 0.929 . S
C1336 H1330 0.930 . S
C1336 C1337 1.367 . S
C1336 C1344 1.378 . S
C1337 C1336 1.367 . S
C1337 C1345 1.433 . S
C1338 H1334 0.929 . S
C1338 C1340 1.378 . S
C1338 C1342 1.350 . S
C1339 C1342 1.463 . S
C1339 C1344 1.350 . S
C1339 N1347 1.427 . S
C1340 H1331 0.930 . S
C1340 C1338 1.378 . S
C1340 C1341 1.367 . S
C1341 C1340 1.367 . S
C1341 C1343 1.433 . S
C1342 C1338 1.350 . S
C1342 C1339 1.463 . S
C1342 N1346 1.427 . S
C1343 H1333 0.929 . S
C1343 C1341 1.433 . S
C1343 N1346 1.384 . S
C1344 H1335 0.929 . S
C1344 C1336 1.378 . S
C1344 C1339 1.350 . S
C1345 H1332 0.929 . S
C1345 C1337 1.433 . S
C1345 N1347 1.384 . S
N1346 C1342 1.427 . S
N1346 C1343 1.384 . S
N1347 C1339 1.427 . S
N1347 C1345 1.384 . S
H1348 C1354 0.930 . S
H1349 C1358 0.930 . S
H1350 C1363 0.929 1_554 S
H1351 C1361 0.929 . S
H1352 C1356 0.929 . S
H1353 C1362 0.929 . S
C1354 H1348 0.930 . S
C1354 C1355 1.367 . S
C1354 C1362 1.378 . S
C1355 C1354 1.367 . S
C1355 C1363 1.433 . S
C1356 H1352 0.929 . S
C1356 C1358 1.378 . S
C1356 C1360 1.350 . S
C1357 C1360 1.463 . S
C1357 C1362 1.350 . S
C1357 N1365 1.427 . S
C1358 H1349 0.930 . S
C1358 C1356 1.378 . S
C1358 C1359 1.367 . S
C1359 C1358 1.367 . S
C1359 C1361 1.433 . S
C1360 C1356 1.350 . S
C1360 C1357 1.463 . S
C1360 N1364 1.427 . S
C1361 H1351 0.929 . S
C1361 C1359 1.433 . S
C1361 N1364 1.384 . S
C1362 H1353 0.929 . S
C1362 C1354 1.378 . S
C1362 C1357 1.350 . S
C1363 H1350 0.929 1_556 S
C1363 C1355 1.433 . S
C1363 N1365 1.384 . S
N1364 C1360 1.427 . S
N1364 C1361 1.384 . S
N1365 C1357 1.427 . S
N1365 C1363 1.384 . S
H1366 C1372 0.930 . S
H1367 C1376 0.930 . S
H1368 C1381 0.929 1_556 S
H1369 C1379 0.929 . S
H1370 C1374 0.929 . S
H1371 C1380 0.929 . S
C1372 H1366 0.930 . S
C1372 C1373 1.367 . S
C1372 C1380 1.378 . S
C1373 C1372 1.367 . S
C1373 C1381 1.433 . S
C1374 H1370 0.929 . S
C1374 C1376 1.378 . S
C1374 C1378 1.350 . S
C1375 C1378 1.463 . S
C1375 C1380 1.350 . S
C1375 N1383 1.427 . S
C1376 H1367 0.930 . S
C1376 C1374 1.378 . S
C1376 C1377 1.367 . S
C1377 C1376 1.367 . S
C1377 C1379 1.433 . S
C1378 C1374 1.350 . S
C1378 C1375 1.463 . S
C1378 N1382 1.427 . S
C1379 H1369 0.929 . S
C1379 C1377 1.433 . S
C1379 N1382 1.384 . S
C1380 H1371 0.929 . S
C1380 C1372 1.378 . S
C1380 C1375 1.350 . S
C1381 H1368 0.929 1_554 S
C1381 C1373 1.433 . S
C1381 N1383 1.384 . S
N1382 C1378 1.427 . S
N1382 C1379 1.384 . S
N1383 C1375 1.427 . S
N1383 C1381 1.384 . S
H1384 C1390 0.930 . S
H1385 C1394 0.930 . S
H1386 C1399 0.929 . S
H1387 C1397 0.929 . S
H1388 C1392 0.929 . S
H1389 C1398 0.929 . S
C1390 H1384 0.930 . S
C1390 C1391 1.367 . S
C1390 C1398 1.378 . S
C1391 C1390 1.367 . S
C1391 C1399 1.433 . S
C1392 H1388 0.929 . S
C1392 C1394 1.378 . S
C1392 C1396 1.350 . S
C1393 C1396 1.463 . S
C1393 C1398 1.350 . S
C1393 N1401 1.427 . S
C1394 H1385 0.930 . S
C1394 C1392 1.378 . S
C1394 C1395 1.367 . S
C1395 C1394 1.367 . S
C1395 C1397 1.433 . S
C1396 C1392 1.350 . S
C1396 C1393 1.463 . S
C1396 N1400 1.427 . S
C1397 H1387 0.929 . S
C1397 C1395 1.433 . S
C1397 N1400 1.384 . S
C1398 H1389 0.929 . S
C1398 C1390 1.378 . S
C1398 C1393 1.350 . S
C1399 H1386 0.929 . S
C1399 C1391 1.433 . S
C1399 N1401 1.384 . S
N1400 C1396 1.427 . S
N1400 C1397 1.384 . S
N1401 C1393 1.427 . S
N1401 C1399 1.384 . S
H1402 C1408 0.930 . S
H1403 C1412 0.930 . S
H1404 C1417 0.929 . S
H1405 C1415 0.929 . S
H1406 C1410 0.929 . S
H1407 C1416 0.929 . S
C1408 H1402 0.930 . S
C1408 C1409 1.367 . S
C1408 C1416 1.378 . S
C1409 C1408 1.367 . S
C1409 C1417 1.433 . S
C1410 H1406 0.929 . S
C1410 C1412 1.378 . S
C1410 C1414 1.350 . S
C1411 C1414 1.463 . S
C1411 C1416 1.350 . S
C1411 N1419 1.427 . S
C1412 H1403 0.930 . S
C1412 C1410 1.378 . S
C1412 C1413 1.367 . S
C1413 C1412 1.367 . S
C1413 C1415 1.433 . S
C1414 C1410 1.350 . S
C1414 C1411 1.463 . S
C1414 N1418 1.427 . S
C1415 H1405 0.929 . S
C1415 C1413 1.433 . S
C1415 N1418 1.384 . S
C1416 H1407 0.929 . S
C1416 C1408 1.378 . S
C1416 C1411 1.350 . S
C1417 H1404 0.929 . S
C1417 C1409 1.433 . S
C1417 N1419 1.384 . S
N1418 C1414 1.427 . S
N1418 C1415 1.384 . S
N1419 C1411 1.427 . S
N1419 C1417 1.384 . S
H1420 C1426 0.930 . S
H1421 C1430 0.930 . S
H1422 C1435 0.929 . S
H1423 C1433 0.929 . S
H1424 C1428 0.929 . S
H1425 C1434 0.929 . S
C1426 H1420 0.930 . S
C1426 C1427 1.367 . S
C1426 C1434 1.378 . S
C1427 C1426 1.367 . S
C1427 C1435 1.433 . S
C1428 H1424 0.929 . S
C1428 C1430 1.378 . S
C1428 C1432 1.350 . S
C1429 C1432 1.463 . S
C1429 C1434 1.350 . S
C1429 N1437 1.427 . S
C1430 H1421 0.930 . S
C1430 C1428 1.378 . S
C1430 C1431 1.367 . S
C1431 C1430 1.367 . S
C1431 C1433 1.433 . S
C1432 C1428 1.350 . S
C1432 C1429 1.463 . S
C1432 N1436 1.427 . S
C1433 H1423 0.929 . S
C1433 C1431 1.433 . S
C1433 N1436 1.384 . S
C1434 H1425 0.929 . S
C1434 C1426 1.378 . S
C1434 C1429 1.350 . S
C1435 H1422 0.929 . S
C1435 C1427 1.433 . S
C1435 N1437 1.384 . S
N1436 C1432 1.427 . S
N1436 C1433 1.384 . S
N1437 C1429 1.427 . S
N1437 C1435 1.384 . S
H1438 C1444 0.930 . S
H1439 C1448 0.930 . S
H1440 C1453 0.929 . S
H1441 C1451 0.929 . S
H1442 C1446 0.929 . S
H1443 C1452 0.929 . S
C1444 H1438 0.930 . S
C1444 C1445 1.367 . S
C1444 C1452 1.378 . S
C1445 C1444 1.367 . S
C1445 C1453 1.433 . S
C1446 H1442 0.929 . S
C1446 C1448 1.378 . S
C1446 C1450 1.350 . S
C1447 C1450 1.463 . S
C1447 C1452 1.350 . S
C1447 N1455 1.427 . S
C1448 H1439 0.930 . S
C1448 C1446 1.378 . S
C1448 C1449 1.367 . S
C1449 C1448 1.367 . S
C1449 C1451 1.433 1_556 S
C1450 C1446 1.350 . S
C1450 C1447 1.463 . S
C1450 N1454 1.427 . S
C1451 H1441 0.929 . S
C1451 C1449 1.433 1_554 S
C1451 N1454 1.384 1_554 S
C1452 H1443 0.929 . S
C1452 C1444 1.378 . S
C1452 C1447 1.350 . S
C1453 H1440 0.929 . S
C1453 C1445 1.433 . S
C1453 N1455 1.384 . S
N1454 C1450 1.427 . S
N1454 C1451 1.384 1_556 S
N1455 C1447 1.427 . S
N1455 C1453 1.384 . S
H1456 C1462 0.930 1_554 S
H1457 C1466 0.930 . S
H1458 C1471 0.929 . S
H1459 C1469 0.929 . S
H1460 C1464 0.929 . S
H1461 C1470 0.929 . S
C1462 H1456 0.930 1_556 S
C1462 C1463 1.367 . S
C1462 C1470 1.378 . S
C1463 C1462 1.367 . S
C1463 C1471 1.433 . S
C1464 H1460 0.929 . S
C1464 C1466 1.378 . S
C1464 C1468 1.350 . S
C1465 C1468 1.463 . S
C1465 C1470 1.350 . S
C1465 N1473 1.427 . S
C1466 H1457 0.930 . S
C1466 C1464 1.378 . S
C1466 C1467 1.367 . S
C1467 C1466 1.367 . S
C1467 C1469 1.433 . S
C1468 C1464 1.350 . S
C1468 C1465 1.463 . S
C1468 N1472 1.427 . S
C1469 H1459 0.929 . S
C1469 C1467 1.433 . S
C1469 N1472 1.384 . S
C1470 H1461 0.929 . S
C1470 C1462 1.378 . S
C1470 C1465 1.350 . S
C1471 H1458 0.929 . S
C1471 C1463 1.433 . S
C1471 N1473 1.384 . S
N1472 C1468 1.427 . S
N1472 C1469 1.384 . S
N1473 C1465 1.427 . S
N1473 C1471 1.384 . S
H1474 C1480 0.930 . S
H1475 C1484 0.930 . S
H1476 C1489 0.929 . S
H1477 C1487 0.929 1_556 S
H1478 C1482 0.929 . S
H1479 C1488 0.929 . S
C1480 H1474 0.930 . S
C1480 C1481 1.367 . S
C1480 C1488 1.378 . S
C1481 C1480 1.367 . S
C1481 C1489 1.433 . S
C1482 H1478 0.929 . S
C1482 C1484 1.378 . S
C1482 C1486 1.350 . S
C1483 C1486 1.463 . S
C1483 C1488 1.350 . S
C1483 N1491 1.427 . S
C1484 H1475 0.930 . S
C1484 C1482 1.378 . S
C1484 C1485 1.367 . S
C1485 C1484 1.367 . S
C1485 C1487 1.433 . S
C1486 C1482 1.350 . S
C1486 C1483 1.463 . S
C1486 N1490 1.427 . S
C1487 H1477 0.929 1_554 S
C1487 C1485 1.433 . S
C1487 N1490 1.384 . S
C1488 H1479 0.929 . S
C1488 C1480 1.378 . S
C1488 C1483 1.350 . S
C1489 H1476 0.929 . S
C1489 C1481 1.433 . S
C1489 N1491 1.384 . S
N1490 C1486 1.427 . S
N1490 C1487 1.384 . S
N1491 C1483 1.427 . S
N1491 C1489 1.384 . S
H1492 C1498 0.930 . S
H1493 C1502 0.930 . S
H1494 C1507 0.929 . S
H1495 C1505 0.929 . S
H1496 C1500 0.929 . S
H1497 C1506 0.929 . S
C1498 H1492 0.930 . S
C1498 C1499 1.367 . S
C1498 C1506 1.378 . S
C1499 C1498 1.367 . S
C1499 C1507 1.433 . S
C1500 H1496 0.929 . S
C1500 C1502 1.378 . S
C1500 C1504 1.350 . S
C1501 C1504 1.463 . S
C1501 C1506 1.350 . S
C1501 N1509 1.427 . S
C1502 H1493 0.930 . S
C1502 C1500 1.378 . S
C1502 C1503 1.367 . S
C1503 C1502 1.367 . S
C1503 C1505 1.433 . S
C1504 C1500 1.350 . S
C1504 C1501 1.463 . S
C1504 N1508 1.427 . S
C1505 H1495 0.929 . S
C1505 C1503 1.433 . S
C1505 N1508 1.384 . S
C1506 H1497 0.929 . S
C1506 C1498 1.378 . S
C1506 C1501 1.350 . S
C1507 H1494 0.929 . S
C1507 C1499 1.433 . S
C1507 N1509 1.384 . S
N1508 C1504 1.427 . S
N1508 C1505 1.384 . S
N1509 C1501 1.427 . S
N1509 C1507 1.384 . S
H1510 C1516 0.930 . S
H1511 C1520 0.930 . S
H1512 C1525 0.929 . S
H1513 C1523 0.929 . S
H1514 C1518 0.929 . S
H1515 C1524 0.929 . S
C1516 H1510 0.930 . S
C1516 C1517 1.367 . S
C1516 C1524 1.378 . S
C1517 C1516 1.367 . S
C1517 C1525 1.433 . S
C1518 H1514 0.929 . S
C1518 C1520 1.378 . S
C1518 C1522 1.350 . S
C1519 C1522 1.463 . S
C1519 C1524 1.350 . S
C1519 N1527 1.427 . S
C1520 H1511 0.930 . S
C1520 C1518 1.378 . S
C1520 C1521 1.367 . S
C1521 C1520 1.367 . S
C1521 C1523 1.433 . S
C1522 C1518 1.350 . S
C1522 C1519 1.463 . S
C1522 N1526 1.427 . S
C1523 H1513 0.929 . S
C1523 C1521 1.433 . S
C1523 N1526 1.384 . S
C1524 H1515 0.929 . S
C1524 C1516 1.378 . S
C1524 C1519 1.350 . S
C1525 H1512 0.929 . S
C1525 C1517 1.433 . S
C1525 N1527 1.384 . S
N1526 C1522 1.427 . S
N1526 C1523 1.384 . S
N1527 C1519 1.427 . S
N1527 C1525 1.384 . S
H1528 C1534 0.930 . S
H1529 C1538 0.930 . S
H1530 C1543 0.929 . S
H1531 C1541 0.929 . S
H1532 C1536 0.929 . S
H1533 C1542 0.929 . S
C1534 H1528 0.930 . S
C1534 C1535 1.367 . S
C1534 C1542 1.378 . S
C1535 C1534 1.367 . S
C1535 C1543 1.433 . S
C1536 H1532 0.929 . S
C1536 C1538 1.378 1_554 S
C1536 C1540 1.350 . S
C1537 C1540 1.463 . S
C1537 C1542 1.350 . S
C1537 N1545 1.427 . S
C1538 H1529 0.930 . S
C1538 C1536 1.378 1_556 S
C1538 C1539 1.367 1_556 S
C1539 C1538 1.367 1_554 S
C1539 C1541 1.433 . S
C1540 C1536 1.350 . S
C1540 C1537 1.463 . S
C1540 N1544 1.427 . S
C1541 H1531 0.929 . S
C1541 C1539 1.433 . S
C1541 N1544 1.384 . S
C1542 H1533 0.929 . S
C1542 C1534 1.378 . S
C1542 C1537 1.350 . S
C1543 H1530 0.929 . S
C1543 C1535 1.433 . S
C1543 N1545 1.384 . S
N1544 C1540 1.427 . S
N1544 C1541 1.384 . S
N1545 C1537 1.427 . S
N1545 C1543 1.384 . S
H1546 C1552 0.930 1_554 S
H1547 C1556 0.930 . S
H1548 C1561 0.929 . S
H1549 C1559 0.929 . S
H1550 C1554 0.929 . S
H1551 C1560 0.929 . S
C1552 H1546 0.930 1_556 S
C1552 C1553 1.367 . S
C1552 C1560 1.378 . S
C1553 C1552 1.367 . S
C1553 C1561 1.433 . S
C1554 H1550 0.929 . S
C1554 C1556 1.378 . S
C1554 C1558 1.350 . S
C1555 C1558 1.463 . S
C1555 C1560 1.350 . S
C1555 N1563 1.427 . S
C1556 H1547 0.930 . S
C1556 C1554 1.378 . S
C1556 C1557 1.367 . S
C1557 C1556 1.367 . S
C1557 C1559 1.433 . S
C1558 C1554 1.350 . S
C1558 C1555 1.463 . S
C1558 N1562 1.427 . S
C1559 H1549 0.929 . S
C1559 C1557 1.433 . S
C1559 N1562 1.384 . S
C1560 H1551 0.929 . S
C1560 C1552 1.378 . S
C1560 C1555 1.350 . S
C1561 H1548 0.929 . S
C1561 C1553 1.433 . S
C1561 N1563 1.384 . S
N1562 C1558 1.427 . S
N1562 C1559 1.384 . S
N1563 C1555 1.427 . S
N1563 C1561 1.384 . S
H1564 C1570 0.930 . S
H1565 C1574 0.930 . S
H1566 C1579 0.929 . S
H1567 C1577 0.929 . S
H1568 C1572 0.929 . S
H1569 C1578 0.929 . S
C1570 H1564 0.930 . S
C1570 C1571 1.367 . S
C1570 C1578 1.378 . S
C1571 C1570 1.367 . S
C1571 C1579 1.433 . S
C1572 H1568 0.929 . S
C1572 C1574 1.378 . S
C1572 C1576 1.350 . S
C1573 C1576 1.463 . S
C1573 C1578 1.350 . S
C1573 N1581 1.427 . S
C1574 H1565 0.930 . S
C1574 C1572 1.378 . S
C1574 C1575 1.367 . S
C1575 C1574 1.367 . S
C1575 C1577 1.433 . S
C1576 C1572 1.350 . S
C1576 C1573 1.463 . S
C1576 N1580 1.427 . S
C1577 H1567 0.929 . S
C1577 C1575 1.433 . S
C1577 N1580 1.384 . S
C1578 H1569 0.929 . S
C1578 C1570 1.378 . S
C1578 C1573 1.350 . S
C1579 H1566 0.929 . S
C1579 C1571 1.433 . S
C1579 N1581 1.384 . S
N1580 C1576 1.427 . S
N1580 C1577 1.384 . S
N1581 C1573 1.427 . S
N1581 C1579 1.384 . S
H1582 C1588 0.930 . S
H1583 C1592 0.930 . S
H1584 C1597 0.929 . S
H1585 C1595 0.929 . S
H1586 C1590 0.929 . S
H1587 C1596 0.929 . S
C1588 H1582 0.930 . S
C1588 C1589 1.367 . S
C1588 C1596 1.378 . S
C1589 C1588 1.367 . S
C1589 C1597 1.433 . S
C1590 H1586 0.929 . S
C1590 C1592 1.378 . S
C1590 C1594 1.350 . S
C1591 C1594 1.463 . S
C1591 C1596 1.350 . S
C1591 N1599 1.427 . S
C1592 H1583 0.930 . S
C1592 C1590 1.378 . S
C1592 C1593 1.367 . S
C1593 C1592 1.367 . S
C1593 C1595 1.433 . S
C1594 C1590 1.350 . S
C1594 C1591 1.463 . S
C1594 N1598 1.427 . S
C1595 H1585 0.929 . S
C1595 C1593 1.433 . S
C1595 N1598 1.384 . S
C1596 H1587 0.929 . S
C1596 C1588 1.378 . S
C1596 C1591 1.350 . S
C1597 H1584 0.929 . S
C1597 C1589 1.433 . S
C1597 N1599 1.384 . S
N1598 C1594 1.427 . S
N1598 C1595 1.384 . S
N1599 C1591 1.427 . S
N1599 C1597 1.384 . S
C455 C93 1.492 . S
C459 C9 1.485 . S
C473 C23 1.490 . S
C477 C107 1.484 . S
C491 C65 1.486 . S
C495 C37 1.492 . S
C509 C51 1.484 . S
C513 C79 1.485 . S
C527 C121 1.488 . S
C531 C205 1.483 . S
C545 C219 1.483 . S
C549 C135 1.490 . S
C563 C149 1.487 . S
C567 C177 1.492 . S
C581 C191 1.483 . S
C585 C163 1.487 . S
C599 C233 1.492 . S
C603 C317 1.487 . S
C617 C247 1.492 . S
C621 C331 1.489 . S
C635 C289 1.490 . S
C639 C261 1.484 . S
C653 C303 1.488 . S
C657 C275 1.483 . S
C671 C345 1.489 . S
C675 C429 1.492 . S
C689 C359 1.484 . S
C693 C443 1.486 . S
C707 C401 1.490 . S
C711 C373 1.484 . S
C725 C387 1.492 . S
C729 C415 1.490 . S
C743 C8 1.492 1_556 S
C747 C106 1.491 . S
C761 C64 1.491 1_554 S
C765 C22 1.491 . S
C779 C78 1.492 . S
C783 C36 1.490 . S
C797 C50 1.490 . S
C801 C92 1.492 . S
C815 C120 1.490 1_554 S
C819 C218 1.492 . S
C833 C176 1.490 1_556 S
C837 C134 1.492 . S
C851 C190 1.492 . S
C855 C148 1.490 . S
C869 C204 1.492 . S
C873 C162 1.490 . S
C887 C232 1.490 . S
C891 C330 1.492 . S
C905 C246 1.492 . S
C909 C288 1.491 . S
C923 C302 1.492 . S
C927 C260 1.490 1_556 S
C941 C274 1.492 . S
C945 C316 1.490 1_554 S
C959 C344 1.491 . S
C963 C442 1.491 . S
C977 C400 1.492 . S
C981 C358 1.490 . S
C995 C372 1.490 1_554 S
C999 C414 1.492 . S
C1013 C386 1.491 . S
C1017 C428 1.492 1_556 S
C1031 C423 1.484 . S
C1035 C3 1.485 . S
C1049 C213 1.484 . S
C1053 C17 1.485 . S
C1067 C31 1.483 . S
C1071 C395 1.486 . S
C1085 C45 1.485 . S
C1089 C185 1.484 . S
C1103 C59 1.483 . S
C1107 C367 1.486 . S
C1121 C73 1.484 . S
C1125 C157 1.485 . S
C1139 C87 1.484 . S
C1143 C339 1.486 . S
C1157 C129 1.485 . S
C1161 C101 1.484 . S
C1175 C311 1.486 . S
C1179 C115 1.484 . S
C1193 C143 1.485 . S
C1197 C283 1.484 . S
C1211 C255 1.485 . S
C1215 C171 1.484 . S
C1229 C227 1.486 . S
C1233 C199 1.483 . S
C1247 C241 1.483 . S
C1251 C437 1.486 . S
C1265 C269 1.484 . S
C1269 C409 1.485 . S
C1283 C297 1.483 . S
C1287 C381 1.486 . S
C1301 C353 1.485 . S
C1305 C325 1.484 . S
C1319 C7 1.424 . S
C1323 C105 1.427 . S
C1337 C21 1.420 . S
C1341 C63 1.420 . S
C1355 C77 1.422 1_556 S
C1359 C35 1.420 . S
C1373 C49 1.420 1_554 S
C1377 C91 1.423 . S
C1391 C217 1.429 . S
C1395 C119 1.426 . S
C1409 C175 1.432 . S
C1413 C133 1.434 . S
C1427 C147 1.425 . S
C1431 C189 1.428 1_554 S
C1445 C203 1.420 . S
C1449 C161 1.420 1_556 S
C1463 C329 1.429 1_556 S
C1467 C231 1.433 . S
C1481 C287 1.423 . S
C1485 C245 1.426 1_554 S
C1499 C301 1.433 . S
C1503 C259 1.430 . S
C1517 C315 1.425 . S
C1521 C273 1.429 . S
C1535 C343 1.434 . S
C1539 C441 1.434 1_554 S
C1553 C357 1.430 1_556 S
C1557 C399 1.433 . S
C1571 C371 1.420 . S
C1575 C413 1.422 . S
C1589 C427 1.434 . S
C1593 C385 1.434 . S
