# Generated by pormake.
# Topology snw, (6)-cn, num edge types: 1
# Building blocks:
#     Node 0, Type 0, BuildingBlock: MIDCAF_clean_sbu_0, # of connection points: 6
#     Node 1, Type 0, BuildingBlock: MIDCAF_clean_sbu_0, # of connection points: 6
#     Node 2, Type 0, BuildingBlock: MIDCAF_clean_sbu_0, # of connection points: 6
#     Node 3, Type 0, BuildingBlock: MIDCAF_clean_sbu_0, # of connection points: 6
#     Node 4, Type 0, BuildingBlock: MIDCAF_clean_sbu_0, # of connection points: 6
#     Node 5, Type 0, BuildingBlock: MIDCAF_clean_sbu_0, # of connection points: 6
#     Node 6, Type 0, BuildingBlock: MIDCAF_clean_sbu_0, # of connection points: 6
#     Node 7, Type 0, BuildingBlock: MIDCAF_clean_sbu_0, # of connection points: 6
#     Edge 8, Type (0, 0), BuildingBlock: TEMPAE_clean_linker_10, # of connection points: 2
#     Edge 9, Type (0, 0), BuildingBlock: TEMPAE_clean_linker_10, # of connection points: 2
#     Edge 10, Type (0, 0), BuildingBlock: TEMPAE_clean_linker_10, # of connection points: 2
#     Edge 11, Type (0, 0), BuildingBlock: TEMPAE_clean_linker_10, # of connection points: 2
#     Edge 12, Type (0, 0), BuildingBlock: TEMPAE_clean_linker_10, # of connection points: 2
#     Edge 13, Type (0, 0), BuildingBlock: TEMPAE_clean_linker_10, # of connection points: 2
#     Edge 14, Type (0, 0), BuildingBlock: TEMPAE_clean_linker_10, # of connection points: 2
#     Edge 15, Type (0, 0), BuildingBlock: TEMPAE_clean_linker_10, # of connection points: 2
#     Edge 16, Type (0, 0), BuildingBlock: TEMPAE_clean_linker_10, # of connection points: 2
#     Edge 17, Type (0, 0), BuildingBlock: TEMPAE_clean_linker_10, # of connection points: 2
#     Edge 18, Type (0, 0), BuildingBlock: TEMPAE_clean_linker_10, # of connection points: 2
#     Edge 19, Type (0, 0), BuildingBlock: TEMPAE_clean_linker_10, # of connection points: 2
#     Edge 20, Type (0, 0), BuildingBlock: TEMPAE_clean_linker_10, # of connection points: 2
#     Edge 21, Type (0, 0), BuildingBlock: TEMPAE_clean_linker_10, # of connection points: 2
#     Edge 22, Type (0, 0), BuildingBlock: TEMPAE_clean_linker_10, # of connection points: 2
#     Edge 23, Type (0, 0), BuildingBlock: TEMPAE_clean_linker_10, # of connection points: 2
#     Edge 24, Type (0, 0), BuildingBlock: TEMPAE_clean_linker_10, # of connection points: 2
#     Edge 25, Type (0, 0), BuildingBlock: TEMPAE_clean_linker_10, # of connection points: 2
#     Edge 26, Type (0, 0), BuildingBlock: TEMPAE_clean_linker_10, # of connection points: 2
#     Edge 27, Type (0, 0), BuildingBlock: TEMPAE_clean_linker_10, # of connection points: 2
#     Edge 28, Type (0, 0), BuildingBlock: TEMPAE_clean_linker_10, # of connection points: 2
#     Edge 29, Type (0, 0), BuildingBlock: TEMPAE_clean_linker_10, # of connection points: 2
#     Edge 30, Type (0, 0), BuildingBlock: TEMPAE_clean_linker_10, # of connection points: 2
#     Edge 31, Type (0, 0), BuildingBlock: TEMPAE_clean_linker_10, # of connection points: 2
# Relax obj value: 0.252
# Max RMSD: 0.249
# Mean RMSD: 0.249
data_MOF--net-snw--node1-MIDCAF_clean_sbu_0--edge1-TEMPAE_clean_linker_10
_symmetry_space_group_name_H-M    P1
_symmetry_Int_Tables_number       1
_symmetry_cell_setting            triclinic
loop_
_symmetry_equiv_pos_as_xyz
'x, y, z'
_cell_length_a     19.232692
_cell_length_b     19.376539
_cell_length_c     79.698172
_cell_angle_alpha  89.858207
_cell_angle_beta   90.128176
_cell_angle_gamma 89.822778
loop_
_atom_site_label
_atom_site_type_symbol
_atom_site_fract_x
_atom_site_fract_y
_atom_site_fract_z
_atom_type_partial_charge
Zn0 Zn 0.00084 0.34846 0.0547 0.0
Zn1 Zn 0.02068 0.11516 0.06818 0.0
Zn2 Zn 0.0111 0.22586 0.06 0.0
C3 C 0.93204 0.15294 0.09051 0.0
C4 C 0.1514 0.14621 0.06915 0.0
O5 O 0.00068 0.23537 0.03212 0.0
O6 O 0.02138 0.34733 0.03077 0.0
C7 C 0.88179 0.32212 0.07108 0.0
O8 O 0.92788 0.1975 0.07847 0.0
O9 O 0.98491 0.11441 0.09136 0.0
O10 O 0.11953 0.09248 0.06487 0.0
O11 O 0.1176 0.20367 0.07029 0.0
O12 O 0.90325 0.36779 0.06108 0.0
O13 O 0.91793 0.26677 0.07338 0.0
O14 O 0.10786 0.27488 0.0704 0.0
O15 O 0.07503 0.38378 0.06946 0.0
C16 C 0.11917 0.33896 0.07388 0.0
O17 O 0.99436 0.16232 0.03681 0.0
O18 O 0.95695 0.07494 0.05178 0.0
C19 C 0.01196 0.29054 0.02348 0.0
C20 C 0.96537 0.10235 0.03759 0.0
Zn21 Zn 0.12007 0.75287 0.30551 0.0
Zn22 Zn 0.88008 0.78099 0.31637 0.0
Zn23 Zn 0.99255 0.77078 0.30918 0.0
C24 C 0.92773 0.87001 0.337 0.0
C25 C 0.89172 0.64854 0.32055 0.0
O26 O 0.00852 0.77717 0.28147 0.0
O27 O 0.12229 0.75991 0.2813 0.0
C28 C 0.11025 0.87444 0.32327 0.0
O29 O 0.97285 0.86394 0.32513 0.0
O30 O 0.88266 0.82363 0.33891 0.0
O31 O 0.84386 0.68641 0.31487 0.0
O32 O 0.95387 0.67324 0.3216 0.0
O33 O 0.15605 0.83334 0.31791 0.0
O34 O 0.04542 0.86022 0.32111 0.0
O35 O 0.02647 0.67126 0.3217 0.0
O36 O 0.13756 0.6617 0.31497 0.0
C37 C 0.08477 0.6379 0.32225 0.0
O38 O 0.93205 0.78328 0.2852 0.0
O39 O 0.84971 0.84152 0.2979 0.0
C40 C 0.0665 0.7716 0.2735 0.0
C41 C 0.87524 0.81894 0.28442 0.0
Zn42 Zn 0.45761 0.62582 0.55124 0.0
Zn43 Zn 0.48123 0.85741 0.57111 0.0
Zn44 Zn 0.47206 0.75133 0.55905 0.0
C45 C 0.5736 0.79917 0.58938 0.0
C46 C 0.34627 0.84271 0.574 0.0
O47 O 0.48177 0.75171 0.53115 0.0
O48 O 0.47192 0.63898 0.52738 0.0
C49 C 0.57505 0.62727 0.57079 0.0
O50 O 0.56562 0.76137 0.57618 0.0
O51 O 0.52775 0.84326 0.59292 0.0
O52 O 0.38671 0.89295 0.57205 0.0
O53 O 0.36995 0.78106 0.57153 0.0
O54 O 0.53511 0.58402 0.56399 0.0
O55 O 0.56053 0.6922 0.57003 0.0
O56 O 0.37015 0.70965 0.56869 0.0
O57 O 0.36316 0.60386 0.55836 0.0
C58 C 0.33695 0.65219 0.56678 0.0
O59 O 0.48814 0.82352 0.53748 0.0
O60 O 0.53678 0.90189 0.55351 0.0
C61 C 0.48089 0.69859 0.52145 0.0
C62 C 0.52002 0.88174 0.53902 0.0
Zn63 Zn 0.70627 0.20361 0.81408 0.0
Zn64 Zn 0.37405 0.2287 0.81747 0.0
Zn65 Zn 0.49132 0.21501 0.81157 0.0
C66 C 0.43449 0.31683 0.839 0.0
C67 C 0.38357 0.09302 0.82202 0.0
O68 O 0.52528 0.22623 0.78527 0.0
O69 O 0.61355 0.20744 0.80125 0.0
C70 C 0.62085 0.31832 0.83022 0.0
O71 O 0.48364 0.30415 0.82856 0.0
O72 O 0.3796 0.28157 0.83853 0.0
O73 O 0.33515 0.13514 0.81893 0.0
O74 O 0.44712 0.11421 0.82129 0.0
O75 O 0.67978 0.29021 0.82693 0.0
O76 O 0.56089 0.29384 0.82536 0.0
O77 O 0.5165 0.11225 0.82187 0.0
O78 O 0.613 0.15857 0.81532 0.0
C79 C 0.58246 0.10816 0.82206 0.0
O80 O 0.4473 0.23695 0.78634 0.0
O81 O 0.35077 0.28022 0.79684 0.0
C82 C 0.59131 0.22341 0.78679 0.0
C83 C 0.38863 0.26812 0.78426 0.0
Zn84 Zn 0.00346 0.48938 0.89362 0.0
Zn85 Zn 0.04087 0.84559 0.91038 0.0
Zn86 Zn 0.0158 0.72458 0.90665 0.0
C87 C 0.91932 0.83626 0.89017 0.0
C88 C 0.15878 0.80646 0.8958 0.0
O89 O 0.0025 0.65936 0.92908 0.0
O90 O 0.00315 0.57822 0.9101 0.0
C91 C 0.92407 0.63399 0.88706 0.0
O92 O 0.9298 0.77119 0.89223 0.0
O93 O 0.96132 0.87905 0.8965 0.0
O94 O 0.13619 0.86115 0.90238 0.0
O95 O 0.12091 0.7516 0.89603 0.0
O96 O 0.97359 0.59619 0.89275 0.0
O97 O 0.92679 0.69836 0.89059 0.0
O98 O 0.10996 0.68279 0.8955 0.0
O99 O 0.05242 0.58681 0.89449 0.0
C100 C 0.10941 0.61872 0.89177 0.0
O101 O -0.00035 0.73574 0.93394 0.0
O102 O 0.02649 0.84656 0.93456 0.0
C103 C -0.00019 0.59463 0.92564 0.0
C104 C 0.00698 0.79263 0.94202 0.0
Zn105 Zn 0.61388 0.74418 0.16059 0.0
Zn106 Zn 0.38689 0.73789 0.14236 0.0
Zn107 Zn 0.49768 0.74359 0.15299 0.0
C108 C 0.42075 0.60609 0.14089 0.0
C109 C 0.4389 0.82938 0.12143 0.0
O110 O 0.50763 0.76042 0.18049 0.0
O111 O 0.60162 0.69715 0.18255 0.0
C112 C 0.61443 0.64074 0.13911 0.0
O113 O 0.47924 0.63795 0.14231 0.0
O114 O 0.36492 0.6389 0.143 0.0
O115 O 0.39377 0.78263 0.1201 0.0
O116 O 0.48125 0.8276 0.13399 0.0
O117 O 0.6571 0.68733 0.14301 0.0
O118 O 0.5501 0.64745 0.14347 0.0
O119 O 0.54625 0.83473 0.1416 0.0
O120 O 0.63151 0.84649 0.15985 0.0
C121 C 0.59625 0.87061 0.14781 0.0
O122 O 0.42922 0.75955 0.17535 0.0
O123 O 0.34072 0.79225 0.15979 0.0
C124 C 0.55452 0.73138 0.18967 0.0
C125 C 0.36717 0.78454 0.17416 0.0
Zn126 Zn 0.48153 0.14154 0.40928 0.0
Zn127 Zn 0.49603 0.49988 0.3943 0.0
Zn128 Zn 0.49318 0.26404 0.40724 0.0
C129 C 0.39853 0.36495 0.39094 0.0
C130 C 0.58353 0.35895 0.38788 0.0
O131 O 0.50388 0.25266 0.43465 0.0
O132 O 0.50881 0.13889 0.43291 0.0
C133 C 0.35653 0.17394 0.39694 0.0
O134 O 0.39944 0.30072 0.39464 0.0
O135 O 0.4529 0.39925 0.39487 0.0
O136 O 0.53365 0.39602 0.39356 0.0
O137 O 0.58163 0.29465 0.39157 0.0
O138 O 0.3834 0.12202 0.40399 0.0
O139 O 0.39082 0.231 0.39621 0.0
O140 O 0.5847 0.2228 0.39375 0.0
O141 O 0.55382 0.11329 0.39298 0.0
C142 C 0.59617 0.16028 0.38906 0.0
O143 O 0.50148 0.32951 0.42978 0.0
O144 O 0.49905 0.40979 0.41048 0.0
C145 C 0.51286 0.19319 0.44154 0.0
C146 C 0.50309 0.39411 0.42609 0.0
Zn147 Zn 0.09753 0.22485 0.64801 0.0
Zn148 Zn 0.85221 0.24677 0.65672 0.0
Zn149 Zn 0.9783 0.23532 0.65407 0.0
C150 C 0.86524 0.12774 0.63935 0.0
C151 C 0.88492 0.36501 0.64125 0.0
O152 O 0.03263 0.24855 0.67879 0.0
O153 O 0.13451 0.27232 0.66768 0.0
C154 C 0.05782 0.09612 0.64278 0.0
O155 O 0.92853 0.13938 0.64395 0.0
O156 O 0.81912 0.17292 0.64184 0.0
O157 O 0.83494 0.34289 0.64989 0.0
O158 O 0.94146 0.32929 0.64022 0.0
O159 O 0.11323 0.1249 0.64741 0.0
O160 O 0.00046 0.13086 0.64293 0.0
O161 O 0.01194 0.3202 0.63663 0.0
O162 O 0.10895 0.27561 0.62679 0.0
C163 C 0.064 0.32306 0.62646 0.0
O164 O 0.95859 0.24528 0.6816 0.0
O165 O 0.84498 0.22861 0.68068 0.0
C166 C 0.09611 0.26899 0.68043 0.0
C167 C 0.89986 0.23663 0.68908 0.0
C168 C 0.94179 0.31153 -0.00171 0.0
C169 C 0.00673 0.29429 0.00513 0.0
C170 C 0.9367 0.35294 -0.01618 0.0
C171 C -0.00184 0.37688 0.97597 0.0
C172 C 0.06355 0.35232 0.98168 0.0
C173 C 0.06702 0.31152 -0.00375 0.0
C174 C 0.86584 0.37715 0.9781 0.0
C175 C 0.13037 0.37506 0.97348 0.0
C176 C 0.99004 0.47026 0.93397 0.0
C177 C 0.99541 0.53989 0.93873 0.0
C178 C 0.98992 0.41682 0.94589 0.0
C179 C 0.99476 0.43307 0.96312 0.0
C180 C -0.00158 0.50332 0.9681 0.0
C181 C -0.00118 0.55588 0.95585 0.0
C182 C 0.98603 0.34288 0.94002 0.0
C183 C 0.00308 0.52291 -0.01362 0.0
H184 H 0.89519 0.29977 0.00538 0.0
H185 H 0.11732 0.29958 0.00174 0.0
H186 H 0.85805 0.43154 -0.01798 0.0
H187 H 0.8615 0.3755 0.96423 0.0
H188 H 0.82354 0.34548 -0.01639 0.0
H189 H 0.17553 0.34369 0.97776 0.0
H190 H 0.12637 0.37143 0.95962 0.0
H191 H 0.14045 0.42988 0.97664 0.0
H192 H 0.98659 0.45698 0.92084 0.0
H193 H 0.00279 0.60938 0.95967 0.0
H194 H 0.94185 0.31617 0.94613 0.0
H195 H 0.03413 0.31491 0.94372 0.0
H196 H 0.9797 0.33895 0.92619 0.0
H197 H 0.95866 0.5006 -0.00662 0.0
H198 H 0.00308 0.57973 -0.01177 0.0
H199 H 0.05142 0.50124 -0.00806 0.0
C200 C 0.60749 0.82423 0.20598 0.0
C201 C 0.57465 0.75972 0.20605 0.0
C202 C 0.65729 0.84122 0.21821 0.0
C203 C 0.67228 0.79368 0.23126 0.0
C204 C 0.63382 0.73146 0.23232 0.0
C205 C 0.58666 0.71449 0.21948 0.0
C206 C 0.69824 0.90711 0.21624 0.0
C207 C 0.64559 0.68081 0.24647 0.0
C208 C 0.84663 0.78744 0.25438 0.0
C209 C 0.83057 0.82317 0.26915 0.0
C210 C 0.79671 0.78054 0.24148 0.0
C211 C 0.72876 0.80821 0.24365 0.0
C212 C 0.71363 0.84697 0.25816 0.0
C213 C 0.76492 0.85518 0.27048 0.0
C214 C 0.8158 0.74133 0.22582 0.0
C215 C 0.64175 0.87601 0.26125 0.0
H216 H 0.60013 0.85823 0.19528 0.0
H217 H 0.56281 0.66385 0.2193 0.0
H218 H 0.70018 0.93603 0.22821 0.0
H219 H 0.75264 0.8942 0.2128 0.0
H220 H 0.67612 0.94131 0.20636 0.0
H221 H 0.60589 0.63928 0.24659 0.0
H222 H 0.69765 0.65665 0.24517 0.0
H223 H 0.64445 0.70781 0.25874 0.0
H224 H 0.89701 0.76273 0.25317 0.0
H225 H 0.75164 0.88357 0.28174 0.0
H226 H 0.79953 0.77072 0.21449 0.0
H227 H 0.78793 0.69131 0.22562 0.0
H228 H 0.87255 0.73089 0.22507 0.0
H229 H 0.62466 0.90835 0.2505 0.0
H230 H 0.63925 0.90762 0.27284 0.0
H231 H 0.60406 0.83299 0.26242 0.0
C232 C 0.43563 0.69057 0.4929 0.0
C233 C 0.49332 0.70114 0.50332 0.0
C234 C 0.44089 0.64919 0.47849 0.0
C235 C 0.50547 0.61797 0.47449 0.0
C236 C 0.56565 0.63664 0.48367 0.0
C237 C 0.55885 0.67868 0.49792 0.0
C238 C 0.37569 0.63248 0.46877 0.0
C239 C 0.63579 0.60554 0.47976 0.0
C240 C 0.49595 0.43679 0.45589 0.0
C241 C 0.50779 0.44981 0.43884 0.0
C242 C 0.49609 0.49102 0.46764 0.0
C243 C 0.50823 0.55986 0.46221 0.0
C244 C 0.52187 0.57287 0.4451 0.0
C245 C 0.52194 0.51781 0.43369 0.0
C246 C 0.48211 0.47481 0.48586 0.0
C247 C 0.53524 0.64515 0.43876 0.0
H248 H 0.3847 0.70692 0.49719 0.0
H249 H 0.60335 0.68576 0.50612 0.0
H250 H 0.38574 0.63348 0.45507 0.0
H251 H 0.35828 0.57963 0.47208 0.0
H252 H 0.33281 0.66914 0.47162 0.0
H253 H 0.67865 0.63434 0.48593 0.0
H254 H 0.63721 0.55141 0.48435 0.0
H255 H 0.64525 0.6045 0.46605 0.0
H256 H 0.48532 0.3845 0.45999 0.0
H257 H 0.533 0.52845 0.42066 0.0
H258 H 0.43415 0.5018 0.48998 0.0
H259 H 0.52551 0.49389 0.49377 0.0
H260 H 0.47573 0.41861 0.48814 0.0
H261 H 0.48908 0.67816 0.44115 0.0
H262 H 0.54682 0.6464 0.42511 0.0
H263 H 0.57956 0.66835 0.44564 0.0
C264 C 0.7099 0.25646 0.7774 0.0
C265 C 0.64151 0.23797 0.77314 0.0
C266 C 0.76228 0.26094 0.76527 0.0
C267 C 0.74577 0.24827 0.74829 0.0
C268 C 0.67589 0.23352 0.74372 0.0
C269 C 0.62444 0.22836 0.75624 0.0
C270 C 0.83577 0.27692 0.77072 0.0
C271 C 0.65597 0.22119 0.72565 0.0
C272 C 0.86309 0.30719 0.7128 0.0
C273 C 0.8902 0.24414 0.70721 0.0
C274 C 0.81858 0.31013 0.72673 0.0
C275 C 0.80185 0.24851 0.73539 0.0
C276 C 0.8355 0.18603 0.73091 0.0
C277 C 0.87885 0.18449 0.71673 0.0
C278 C 0.78405 0.37787 0.73103 0.0
C279 C 0.82091 0.11957 0.74015 0.0
H280 H 0.72309 0.26662 0.79035 0.0
H281 H 0.57166 0.21448 0.75287 0.0
H282 H 0.87016 0.23245 0.76783 0.0
H283 H 0.85598 0.32201 0.76368 0.0
H284 H 0.83949 0.28798 0.78437 0.0
H285 H 0.599 0.21446 0.72404 0.0
H286 H 0.67317 0.26509 0.71774 0.0
H287 H 0.68267 0.1742 0.72098 0.0
H288 H 0.87023 0.35297 0.70514 0.0
H289 H 0.89829 0.13543 0.71215 0.0
H290 H 0.78426 0.38659 0.74477 0.0
H291 H 0.72894 0.37651 0.72689 0.0
H292 H 0.80985 0.42225 0.72479 0.0
H293 H 0.82442 0.12752 0.7539 0.0
H294 H 0.85759 0.07779 0.73653 0.0
H295 H 0.76721 0.10237 0.73728 0.0
C296 C 0.36796 0.2369 0.75414 0.0
C297 C 0.35745 0.28202 0.7676 0.0
C298 C 0.32367 0.23893 0.74003 0.0
C299 C 0.26796 0.28718 0.73945 0.0
C300 C 0.26012 0.33551 0.75256 0.0
C301 C 0.30506 0.33252 0.76639 0.0
C302 C 0.33447 0.18742 0.72611 0.0
C303 C 0.20217 0.38836 0.75238 0.0
C304 C 0.18786 0.32671 0.69702 0.0
C305 C 0.12953 0.28322 0.69679 0.0
C306 C 0.23244 0.32933 0.7109 0.0
C307 C 0.21822 0.28786 0.72507 0.0
C308 C 0.15689 0.24716 0.72541 0.0
C309 C 0.11303 0.24529 0.71121 0.0
C310 C 0.29655 0.3741 0.71006 0.0
C311 C 0.13934 0.20325 0.74046 0.0
H312 H 0.40777 0.19734 0.7551 0.0
H313 H 0.29684 0.36774 0.77676 0.0
H314 H 0.28895 0.1525 0.72536 0.0
H315 H 0.33846 0.21449 0.71386 0.0
H316 H 0.38207 0.15571 0.72802 0.0
H317 H 0.20521 0.42432 0.76319 0.0
H318 H 0.20366 0.41899 0.74061 0.0
H319 H 0.15118 0.36177 0.75276 0.0
H320 H 0.20059 0.35659 0.68593 0.0
H321 H 0.06839 0.21126 0.71104 0.0
H322 H 0.34379 0.34112 0.71049 0.0
H323 H 0.29877 0.40907 0.72104 0.0
H324 H 0.29821 0.40584 0.69844 0.0
H325 H 0.17959 0.16263 0.74211 0.0
H326 H 0.08779 0.17804 0.73919 0.0
H327 H 0.13937 0.23513 0.75201 0.0
C328 C 0.33817 0.77542 0.20507 0.0
C329 C 0.32065 0.79662 0.18878 0.0
C330 C 0.28839 0.77758 0.21805 0.0
C331 C 0.21944 0.80019 0.21455 0.0
C332 C 0.20246 0.82384 0.1983 0.0
C333 C 0.25327 0.82275 0.18576 0.0
C334 C 0.30897 0.75383 0.23541 0.0
C335 C 0.12964 0.84743 0.19391 0.0
C336 C 0.08253 0.73118 0.24458 0.0
C337 C 0.07485 0.78677 0.2556 0.0
C338 C 0.12635 0.73617 0.23051 0.0
C339 C 0.16447 0.79768 0.22773 0.0
C340 C 0.15177 0.85589 0.23798 0.0
C341 C 0.10626 0.84992 0.25166 0.0
C342 C 0.13614 0.67377 0.21947 0.0
C343 C 0.19144 0.92232 0.2356 0.0
H344 H 0.38982 0.75525 0.20755 0.0
H345 H 0.23884 0.83997 0.17328 0.0
H346 H 0.29488 0.79369 0.2448 0.0
H347 H 0.28005 0.70622 0.23868 0.0
H348 H 0.36558 0.74291 0.23642 0.0
H349 H 0.12544 0.86644 0.18079 0.0
H350 H 0.09286 0.80392 0.19557 0.0
H351 H 0.11274 0.88923 0.20248 0.0
H352 H 0.05982 0.68181 0.24785 0.0
H353 H 0.10198 0.89229 0.26047 0.0
H354 H 0.18843 0.6512 0.22172 0.0
H355 H 0.13326 0.68869 0.20603 0.0
H356 H 0.09654 0.63344 0.22197 0.0
H357 H 0.24661 0.91399 0.23921 0.0
H358 H 0.17002 0.96489 0.24337 0.0
H359 H 0.19074 0.93863 0.22226 0.0
C360 C 0.58915 0.14741 0.46335 0.0
C361 C 0.52727 0.18237 0.45943 0.0
C362 C 0.59283 0.10168 0.47699 0.0
C363 C 0.53347 0.09188 0.48716 0.0
C364 C 0.47352 0.13327 0.48442 0.0
C365 C 0.47095 0.17784 0.47045 0.0
C366 C 0.65785 0.05886 0.47942 0.0
C367 C 0.40996 0.12615 0.49534 0.0
C368 C 0.5065 0.91738 0.50862 0.0
C369 C 0.5297 0.93131 0.52493 0.0
C370 C 0.50855 0.96887 0.49609 0.0
C371 C 0.53308 0.03601 0.50008 0.0
C372 C 0.5577 0.04976 0.51641 0.0
C373 C 0.55657 -0.00272 0.5285 0.0
C374 C 0.4834 0.95182 0.47864 0.0
C375 C 0.58341 0.1206 0.52128 0.0
H376 H 0.63213 0.14965 0.45457 0.0
H377 H 0.42251 0.20342 0.4672 0.0
H378 H 0.67426 0.05883 0.49276 0.0
H379 H 0.64696 0.00457 0.4759 0.0
H380 H 0.7017 0.07783 0.47163 0.0
H381 H 0.37162 0.16811 0.493 0.0
H382 H 0.38448 0.07597 0.49276 0.0
H383 H 0.42472 0.12658 0.50881 0.0
H384 H 0.48558 0.86689 0.50574 0.0
H385 H 0.5748 0.00915 0.54104 0.0
H386 H 0.52443 0.96403 0.46933 0.0
H387 H 0.43737 0.98403 0.4755 0.0
H388 H 0.46901 0.8966 0.47735 0.0
H389 H 0.62703 0.13631 0.51305 0.0
H390 H 0.6013 0.12274 0.53453 0.0
H391 H 0.54117 0.1591 0.51952 0.0
C392 C 0.91659 -0.00488 0.02533 0.0
C393 C 0.95131 0.05818 0.02277 0.0
C394 C 0.91698 0.94306 0.0132 0.0
C395 C 0.95067 0.95487 -0.00224 0.0
C396 C 0.98049 0.02056 -0.00556 0.0
C397 C 0.98114 0.07139 0.00708 0.0
C398 C 0.88545 0.87379 0.0174 0.0
C399 C 0.01454 0.03597 0.97782 0.0
C400 C 0.03075 0.81053 0.97198 0.0
C401 C 0.98167 0.80351 0.95912 0.0
C402 C 0.0191 0.85631 -0.01465 0.0
C403 C 0.9579 0.89736 -0.01452 0.0
C404 C 0.90547 0.88553 0.97336 0.0
C405 C 0.91757 0.83765 0.9605 0.0
C406 C 0.0749 0.86494 -0.00149 0.0
C407 C 0.83994 0.92861 0.97282 0.0
H408 H 0.89237 0.98449 0.03733 0.0
H409 H 0.00784 0.11982 0.00497 0.0
H410 H 0.84925 0.85716 0.00735 0.0
H411 H 0.9273 0.83435 0.01824 0.0
H412 H 0.85685 0.87452 0.02949 0.0
H413 H 0.02817 0.0914 0.97651 0.0
H414 H 0.06277 0.00484 0.97661 0.0
H415 H 0.97953 0.02133 0.96734 0.0
H416 H 0.08098 0.7855 0.97071 0.0
H417 H 0.88044 0.83375 0.95027 0.0
H418 H 0.05168 0.86554 0.01124 0.0
H419 H 0.10153 0.91506 -0.00339 0.0
H420 H 0.11444 0.82309 -0.00206 0.0
H421 H 0.81664 0.93352 -0.01453 0.0
H422 H 0.80046 0.90665 0.96416 0.0
H423 H 0.85295 0.98143 0.96844 0.0
C424 C 0.45789 0.9551 0.11511 0.0
C425 C 0.43381 0.88998 0.11013 0.0
C426 C 0.43533 0.01531 0.1068 0.0
C427 C 0.38473 0.00999 0.09394 0.0
C428 C 0.36694 0.94395 0.08764 0.0
C429 C 0.39286 0.88488 0.09564 0.0
C430 C 0.4613 0.08426 0.11285 0.0
C431 C 0.314 0.93505 0.07376 0.0
C432 C 0.21991 0.11256 0.0937 0.0
C433 C 0.21933 0.13604 0.07713 0.0
C434 C 0.27808 0.07832 0.10025 0.0
C435 C 0.33749 0.06885 0.08998 0.0
C436 C 0.3407 0.10236 0.07418 0.0
C437 C 0.28047 0.13404 0.06765 0.0
C438 C 0.27222 0.0449 0.11734 0.0
C439 C 0.40524 0.09966 0.06351 0.0
H440 H 0.48955 0.9599 0.12626 0.0
H441 H 0.37563 0.83455 0.09144 0.0
H442 H 0.43358 0.09882 0.12451 0.0
H443 H 0.51757 0.08091 0.11597 0.0
H444 H 0.45334 0.12558 0.10336 0.0
H445 H 0.30699 0.88011 0.0702 0.0
H446 H 0.26289 0.95586 0.07781 0.0
H447 H 0.3302 0.9641 0.06245 0.0
H448 H 0.1723 0.11482 0.10096 0.0
H449 H 0.28001 0.15315 0.05486 0.0
H450 H 0.31661 0.06029 0.12536 0.0
H451 H 0.27376 0.98787 0.11605 0.0
H452 H 0.22332 0.05932 0.12386 0.0
H453 H 0.45258 0.08974 0.07116 0.0
H454 H 0.4118 0.14899 0.05657 0.0
H455 H 0.4001 0.05805 0.05407 0.0
C456 C 0.20029 0.93786 0.33946 0.0
C457 C 0.13282 0.93596 0.33283 0.0
C458 C 0.2226 -0.00681 0.3493 0.0
C459 C 0.17596 0.04803 0.35287 0.0
C460 C 0.10854 0.04791 0.3457 0.0
C461 C 0.08827 0.9921 0.33556 0.0
C462 C 0.29569 0.99149 0.35635 0.0
C463 C 0.05654 0.1046 0.34912 0.0
C464 C 0.24247 0.11682 0.39334 0.0
C465 C 0.29179 0.16383 0.38737 0.0
C466 C 0.19486 0.08604 0.38237 0.0
C467 C 0.19831 0.10162 0.36505 0.0
C468 C 0.24013 0.15718 0.35952 0.0
C469 C 0.28704 0.18765 0.37079 0.0
C470 C 0.14782 0.03001 0.38892 0.0
C471 C 0.24222 0.17806 0.3413 0.0
H472 H 0.23562 0.89515 0.33726 0.0
H473 H 0.03782 -0.0075 0.32969 0.0
H474 H 0.32344 0.03982 0.35312 0.0
H475 H 0.29376 0.98764 0.37024 0.0
H476 H 0.3265 0.94721 0.35154 0.0
H477 H 0.02232 0.11322 0.33805 0.0
H478 H 0.02287 0.0887 0.35973 0.0
H479 H 0.08183 0.15407 0.35247 0.0
H480 H 0.24526 0.09945 0.40628 0.0
H481 H 0.32471 0.22459 0.36618 0.0
H482 H 0.1709 0.97884 0.38601 0.0
H483 H 0.09607 0.03282 0.38277 0.0
H484 H 0.14089 0.03362 0.40273 0.0
H485 H 0.27646 0.14183 0.33437 0.0
H486 H 0.26306 0.23112 0.33973 0.0
H487 H 0.18962 0.17561 0.33559 0.0
C488 C 0.02758 0.01089 0.62036 0.0
C489 C 0.06388 0.02714 0.63509 0.0
C490 C 0.05039 0.95669 0.61001 0.0
C491 C 0.11392 0.92296 0.61381 0.0
C492 C 0.14465 0.93272 0.62979 0.0
C493 C 0.11831 0.98403 0.64037 0.0
C494 C 0.0107 0.94021 0.59421 0.0
C495 C 0.21076 0.8958 0.63486 0.0
C496 C 0.23583 0.8082 0.58902 0.0
C497 C 0.27579 0.85782 0.58069 0.0
C498 C 0.17626 0.82701 0.5982 0.0
C499 C 0.15915 0.89788 0.59994 0.0
C500 C 0.19681 0.9477 0.59058 0.0
C501 C 0.25284 0.92658 0.58069 0.0
C502 C 0.13509 0.77074 0.60667 0.0
C503 C 0.18307 0.02442 0.59222 0.0
H504 H 0.9854 0.04386 0.61616 0.0
H505 H 0.14526 -0.00455 0.652 0.0
H506 H 0.03583 0.96501 0.58325 0.0
H507 H 0.01077 0.88362 0.592 0.0
H508 H 0.95615 0.959 0.59492 0.0
H509 H 0.22757 0.90912 0.6478 0.0
H510 H 0.20297 0.83924 0.63424 0.0
H511 H 0.25337 0.90935 0.62608 0.0
H512 H 0.25317 0.75556 0.58933 0.0
H513 H 0.28227 0.96538 0.57396 0.0
H514 H 0.08643 0.78994 0.6125 0.0
H515 H 0.16771 0.74514 0.61637 0.0
H516 H 0.12159 0.73047 0.59732 0.0
H517 H 0.1302 0.03712 0.58761 0.0
H518 H 0.2207 0.05607 0.585 0.0
H519 H 0.18619 0.04021 0.60558 0.0
C520 C 0.27282 0.86012 0.89004 0.0
C521 C 0.22355 0.80983 0.88597 0.0
C522 C 0.31953 0.88418 0.87795 0.0
C523 C 0.31611 0.85722 0.86146 0.0
C524 C 0.27633 0.79718 0.8584 0.0
C525 C 0.22931 0.77452 0.8707 0.0
C526 C 0.36332 0.94643 0.88209 0.0
C527 C 0.27564 0.76322 0.84142 0.0
C528 C 0.2965 0.01049 0.83304 0.0
C529 C 0.36559 0.02367 0.82855 0.0
C530 C 0.27887 0.9523 0.84244 0.0
C531 C 0.33173 0.9053 0.84742 0.0
C532 C 0.40019 0.91383 0.84126 0.0
C533 C 0.41634 0.97314 0.83179 0.0
C534 C 0.20443 0.94499 0.84829 0.0
C535 C 0.45651 0.8618 0.84517 0.0
H536 H 0.26989 0.8859 0.90208 0.0
H537 H 0.19228 0.73443 0.86761 0.0
H538 H 0.41522 0.94273 0.87615 0.0
H539 H 0.33732 -0.00642 0.87717 0.0
H540 H 0.37036 0.95253 0.89585 0.0
H541 H 0.26163 0.70779 0.84249 0.0
H542 H 0.23624 0.78885 0.83333 0.0
H543 H 0.32693 0.76773 0.83519 0.0
H544 H 0.25631 0.04805 0.83015 0.0
H545 H 0.46891 0.98094 0.82741 0.0
H546 H 0.20196 0.95047 0.86214 0.0
H547 H 0.1841 0.89327 0.84503 0.0
H548 H 0.16941 0.98436 0.84261 0.0
H549 H 0.461 0.85346 0.8589 0.0
H550 H 0.50793 0.87791 0.84022 0.0
H551 H 0.44269 0.81142 0.83951 0.0
C552 C 0.82215 0.8233 0.86908 0.0
C553 C 0.85881 0.86355 0.88069 0.0
C554 C 0.76822 0.85236 0.85934 0.0
C555 C 0.75182 0.92337 0.86112 0.0
C556 C 0.78703 0.96326 0.87329 0.0
C557 C 0.83962 0.93283 0.88293 0.0
C558 C 0.73089 0.80791 0.84671 0.0
C559 C 0.77147 0.03919 0.87565 0.0
C560 C 0.68959 0.03817 0.82581 0.0
C561 C 0.62146 0.0531 0.83081 0.0
C562 C 0.73088 0.99138 0.83486 0.0
C563 C 0.70345 0.95901 0.84934 0.0
C564 C 0.63335 0.97116 0.85394 0.0
C565 C 0.59315 0.01843 0.84463 0.0
C566 C 0.80548 0.9805 0.82957 0.0
C567 C 0.60222 0.93726 0.86924 0.0
H568 H 0.83721 0.77006 0.86715 0.0
H569 H 0.86695 0.96417 0.89205 0.0
H570 H 0.67384 0.81562 0.84762 0.0
H571 H 0.74667 0.82315 0.83384 0.0
H572 H 0.74281 0.75219 0.84847 0.0
H573 H 0.80095 0.06183 0.88629 0.0
H574 H 0.78507 0.06796 0.86406 0.0
H575 H 0.71518 0.04723 0.87793 0.0
H576 H 0.71137 0.06464 0.81504 0.0
H577 H 0.54084 0.03077 0.84868 0.0
H578 H 0.81824 0.92467 0.82926 0.0
H579 H 0.84065 0.00498 0.83886 0.0
H580 H 0.81635 0.0031 0.81703 0.0
H581 H 0.60823 0.88041 0.8684 0.0
H582 H 0.5462 0.94986 0.87071 0.0
H583 H 0.63021 0.95424 0.88068 0.0
C584 C 0.87417 -0.00109 0.63566 0.0
C585 C 0.84426 0.0625 0.63123 0.0
C586 C 0.84836 0.93672 0.62899 0.0
C587 C 0.78919 0.93842 0.61836 0.0
C588 C 0.76025 0.00296 0.61355 0.0
C589 C 0.78858 0.06387 0.61991 0.0
C590 C 0.88316 0.86984 0.63393 0.0
C591 C 0.69714 0.00803 0.60223 0.0
C592 C 0.70124 0.81665 0.58921 0.0
C593 C 0.64043 0.80396 0.59836 0.0
C594 C 0.75797 0.85016 0.59672 0.0
C595 C 0.75167 0.87452 0.61336 0.0
C596 C 0.69489 0.85244 0.62328 0.0
C597 C 0.63976 0.81721 0.61562 0.0
C598 C 0.82062 0.8676 0.58623 0.0
C599 C 0.68721 0.87507 0.64127 0.0
H600 H 0.91647 -0.0025 0.64466 0.0
H601 H 0.76554 0.11299 0.61639 0.0
H602 H 0.86256 0.85261 0.64623 0.0
H603 H 0.87396 0.82838 0.62461 0.0
H604 H 0.94013 0.87722 0.63539 0.0
H605 H 0.68074 0.06227 0.59994 0.0
H606 H 0.70838 0.98383 0.58994 0.0
H607 H 0.6528 0.97996 0.60792 0.0
H608 H 0.7017 0.80779 0.57579 0.0
H609 H 0.59279 0.80711 0.62271 0.0
H610 H 0.86888 0.86 0.59367 0.0
H611 H 0.81822 0.92264 0.58238 0.0
H612 H 0.82341 0.83532 0.57474 0.0
H613 H 0.73715 0.86911 0.6481 0.0
H614 H 0.64654 0.84511 0.64794 0.0
H615 H 0.67252 0.93052 0.6416 0.0
C616 C 0.90104 0.93313 0.36311 0.0
C617 C 0.91721 0.93519 0.34602 0.0
C618 C 0.86463 0.98759 0.37063 0.0
C619 C 0.84373 0.04477 0.3607 0.0
C620 C 0.86909 0.05142 0.34414 0.0
C621 C 0.9043 -0.00437 0.33683 0.0
C622 C 0.84003 0.97914 0.38848 0.0
C623 C 0.85126 0.11338 0.33346 0.0
C624 C 0.6549 0.086 0.36833 0.0
C625 C 0.65899 0.14089 0.37963 0.0
C626 C 0.71481 0.05708 0.36137 0.0
C627 C 0.78081 0.0841 0.36576 0.0
C628 C 0.78508 0.14293 0.37622 0.0
C629 C 0.72386 0.17018 0.38326 0.0
C630 C 0.70732 -0.00523 0.35011 0.0
C631 C 0.85396 0.17493 0.38075 0.0
H632 H 0.91085 0.88615 0.37017 0.0
H633 H 0.9158 -0.0031 0.32351 0.0
H634 H 0.84497 0.02835 0.39544 0.0
H635 H 0.78425 0.96455 0.38844 0.0
H636 H 0.86974 0.93843 0.39525 0.0
H637 H 0.88827 0.11919 0.32287 0.0
H638 H 0.79825 0.10708 0.32817 0.0
H639 H 0.8516 0.16131 0.34105 0.0
H640 H 0.60462 0.06371 0.36544 0.0
H641 H 0.72713 0.21232 0.39215 0.0
H642 H 0.73283 0.94934 0.35602 0.0
H643 H 0.73325 0.00423 0.33792 0.0
H644 H 0.65207 0.98165 0.34762 0.0
H645 H 0.87501 0.14911 0.39212 0.0
H646 H 0.84778 0.2307 0.38363 0.0
H647 H 0.89257 0.16905 0.37052 0.0
C648 C 0.63638 -0.00727 0.1486 0.0
C649 C 0.62042 0.93348 0.13937 0.0
C650 C 0.67264 0.04756 0.14114 0.0
C651 C 0.697 0.04045 0.12449 0.0
C652 C 0.67549 0.98317 0.11475 0.0
C653 C 0.63637 0.93076 0.12229 0.0
C654 C 0.68913 0.11068 0.15142 0.0
C655 C 0.69971 0.97359 0.09689 0.0
C656 C 0.80533 0.16204 0.09803 0.0
C657 C 0.87261 0.13825 0.10175 0.0
C658 C 0.74728 0.13651 0.10674 0.0
C659 C 0.7566 0.0826 0.11857 0.0
C660 C 0.82476 0.0613 0.12301 0.0
C661 C 0.88178 0.09076 0.11488 0.0
C662 C 0.67623 0.16469 0.10243 0.0
C663 C 0.83768 0.00297 0.1353 0.0
H664 H 0.62268 -0.00485 0.16178 0.0
H665 H 0.6233 0.88489 0.11518 0.0
H666 H 0.74166 0.10528 0.15704 0.0
H667 H 0.68888 0.1578 0.14346 0.0
H668 H 0.65123 0.11747 0.16179 0.0
H669 H 0.67629 0.92743 0.0909 0.0
H670 H 0.68608 0.01956 0.08926 0.0
H671 H 0.75716 0.96788 0.09666 0.0
H672 H 0.79726 0.19762 0.08773 0.0
H673 H 0.9336 0.07254 0.11798 0.0
H674 H 0.63837 0.15652 0.11273 0.0
H675 H 0.65646 0.13882 0.09098 0.0
H676 H 0.67923 0.22084 0.09964 0.0
H677 H 0.81477 0.01547 0.14766 0.0
H678 H 0.89394 0.99212 0.13714 0.0
H679 H 0.81236 0.95515 0.13072 0.0
C680 C 0.83429 0.48169 0.63768 0.0
C681 C 0.87289 0.42701 0.63095 0.0
C682 C 0.80168 0.53001 0.62717 0.0
C683 C 0.80682 0.52214 0.60958 0.0
C684 C 0.85404 0.47322 0.60289 0.0
C685 C 0.88623 0.42546 0.6137 0.0
C686 C 0.75447 0.58362 0.63483 0.0
C687 C 0.86371 0.46559 0.58422 0.0
C688 C 0.63242 0.53641 0.58789 0.0
C689 C 0.63583 0.60149 0.58031 0.0
C690 C 0.68848 0.50997 0.59709 0.0
C691 C 0.74987 0.54971 0.59883 0.0
C692 C 0.75434 0.61506 0.5909 0.0
C693 C 0.69715 0.6399 0.58161 0.0
C694 C 0.68125 0.43971 0.60521 0.0
C695 C 0.81821 0.65965 0.59248 0.0
H696 H 0.82488 0.48334 0.65109 0.0
H697 H 0.91631 0.38325 0.60849 0.0
H698 H 0.75913 0.63354 0.62809 0.0
H699 H 0.69968 0.56632 0.63374 0.0
H700 H 0.76637 0.59189 0.64833 0.0
H701 H 0.91274 0.43774 0.58124 0.0
H702 H 0.81957 0.43579 0.57897 0.0
H703 H 0.86436 0.51679 0.57796 0.0
H704 H 0.58519 0.50628 0.58683 0.0
H705 H 0.70082 0.68858 0.57507 0.0
H706 H 0.68555 0.44453 0.61904 0.0
H707 H 0.7237 0.40507 0.60095 0.0
H708 H 0.63075 0.41487 0.60222 0.0
H709 H 0.81363 0.69168 0.60395 0.0
H710 H 0.8232 0.69521 0.58159 0.0
H711 H 0.86642 0.62835 0.59356 0.0
C712 C 0.87523 0.53956 0.86975 0.0
C713 C 0.86505 0.60244 0.87798 0.0
C714 C 0.81974 0.50458 0.86224 0.0
C715 C 0.75181 0.53307 0.86298 0.0
C716 C 0.74132 0.59774 0.87088 0.0
C717 C 0.79819 0.63159 0.87838 0.0
C718 C 0.83394 0.43629 0.85375 0.0
C719 C 0.67001 0.63007 0.87193 0.0
C720 C 0.64601 0.44272 0.83008 0.0
C721 C 0.62463 0.3845 0.83911 0.0
C722 C 0.67988 0.49748 0.83817 0.0
C723 C 0.69304 0.49308 0.85562 0.0
C724 C 0.66273 0.43881 0.86505 0.0
C725 C 0.62923 0.38458 0.85662 0.0
C726 C 0.70975 0.55502 0.82765 0.0
C727 C 0.67359 0.43318 0.88374 0.0
H728 H 0.92691 0.51719 0.86926 0.0
H729 H 0.78985 0.67962 0.88503 0.0
H730 H 0.80444 0.39465 0.86011 0.0
H731 H 0.81626 0.43826 0.8405 0.0
H732 H 0.88999 0.42226 0.85394 0.0
H733 H 0.67272 0.68559 0.87533 0.0
H734 H 0.64162 0.62504 0.85987 0.0
H735 H 0.63927 0.60287 0.88166 0.0
H736 H 0.64285 0.44218 0.81649 0.0
H737 H 0.61304 0.33919 0.86355 0.0
H738 H 0.76555 0.54425 0.82525 0.0
H739 H 0.70626 0.60517 0.83429 0.0
H740 H 0.68268 0.55961 0.81537 0.0
H741 H 0.72678 0.41329 0.88628 0.0
H742 H 0.63564 0.39737 0.88959 0.0
H743 H 0.6689 0.48449 0.88978 0.0
C744 C 0.70193 0.58672 0.12042 0.0
C745 C 0.63986 0.58054 0.12946 0.0
C746 C 0.72979 0.53091 0.1116 0.0
C747 C 0.69421 0.46699 0.11153 0.0
C748 C 0.63114 0.46016 0.12054 0.0
C749 C 0.60525 0.51695 0.12963 0.0
C750 C 0.79766 0.54071 0.10235 0.0
C751 C 0.59062 0.3936 0.1204 0.0
C752 C 0.76378 0.3725 0.07423 0.0
C753 C 0.82075 0.33846 0.08148 0.0
C754 C 0.7149 0.4069 0.08424 0.0
C755 C 0.72472 0.40878 0.10183 0.0
C756 C 0.77736 0.36739 0.10927 0.0
C757 C 0.82512 0.33275 0.09896 0.0
C758 C 0.65793 0.4481 0.07582 0.0
C759 C 0.78891 0.3667 0.128 0.0
H760 H 0.72919 0.63561 0.12025 0.0
H761 H 0.55876 0.51123 0.13711 0.0
H762 H 0.83654 0.50222 0.10673 0.0
H763 H 0.78964 0.53249 0.08871 0.0
H764 H 0.81971 0.59309 0.10416 0.0
H765 H 0.54898 0.39317 0.13004 0.0
H766 H 0.56594 0.38692 0.10791 0.0
H767 H 0.62546 0.34864 0.12249 0.0
H768 H 0.76014 0.37632 0.06067 0.0
H769 H 0.86932 0.30648 0.10457 0.0
H770 H 0.67352 0.50314 0.07516 0.0
H771 H 0.60902 0.44517 0.08313 0.0
H772 H 0.64783 0.42973 0.06285 0.0
H773 H 0.81703 0.41427 0.13168 0.0
H774 H 0.82046 0.32139 0.13199 0.0
H775 H 0.73873 0.36601 0.13482 0.0
C776 C 0.89743 0.56065 0.34356 0.0
C777 C 0.87141 0.58157 0.32793 0.0
C778 C 0.86216 0.51085 0.35318 0.0
C779 C 0.79898 0.48277 0.34708 0.0
C780 C 0.7772 0.49819 0.33051 0.0
C781 C 0.81391 0.54717 0.32112 0.0
C782 C 0.88872 0.49392 0.37053 0.0
C783 C 0.71055 0.46936 0.32337 0.0
C784 C 0.68918 0.34796 0.36955 0.0
C785 C 0.64111 0.38969 0.37805 0.0
C786 C 0.74338 0.37704 0.36006 0.0
C787 C 0.74862 0.44974 0.35878 0.0
C788 C 0.70064 0.49206 0.36753 0.0
C789 C 0.64796 0.46153 0.37711 0.0
C790 C 0.79447 0.33008 0.35133 0.0
C791 C 0.70345 0.56987 0.36635 0.0
H792 H 0.9411 0.58775 0.34897 0.0
H793 H 0.79401 0.56294 0.30895 0.0
H794 H 0.86007 0.52533 0.37988 0.0
H795 H 0.88007 0.43873 0.3736 0.0
H796 H 0.94505 0.50555 0.37178 0.0
H797 H 0.70624 0.47836 0.30963 0.0
H798 H 0.70679 0.41315 0.32582 0.0
H799 H 0.66556 0.49459 0.32957 0.0
H800 H 0.68351 0.29258 0.36999 0.0
H801 H 0.61168 0.49428 0.38376 0.0
H802 H 0.8472 0.33811 0.35664 0.0
H803 H 0.79718 0.34266 0.33776 0.0
H804 H 0.78068 0.27474 0.35274 0.0
H805 H 0.7553 0.58858 0.37037 0.0
H806 H 0.66326 0.59529 0.37421 0.0
H807 H 0.69561 0.58636 0.35313 0.0
C808 C 0.27382 0.36327 0.38175 0.0
C809 C 0.33799 0.39746 0.38255 0.0
C810 C 0.21716 0.3919 0.37297 0.0
C811 C 0.22483 0.45668 0.36496 0.0
C812 C 0.2889 0.49242 0.36623 0.0
C813 C 0.3446 0.46234 0.37499 0.0
C814 C 0.15005 0.35194 0.37189 0.0
C815 C 0.29942 0.56181 0.35793 0.0
C816 C 0.13299 0.52096 0.32628 0.0
C817 C 0.09529 0.57655 0.33286 0.0
C818 C 0.16929 0.47548 0.33686 0.0
C819 C 0.16822 0.4866 0.35441 0.0
C820 C 0.12299 0.53725 0.36116 0.0
C821 C 0.08727 0.58219 0.35025 0.0
C822 C 0.21567 0.42133 0.3291 0.0
C823 C 0.11878 0.54957 0.37981 0.0
H824 H 0.26785 0.31396 0.38797 0.0
H825 H 0.39392 0.48908 0.37557 0.0
H826 H 0.10485 0.38605 0.37442 0.0
H827 H 0.14369 0.33125 0.35902 0.0
H828 H 0.14906 0.30786 0.38083 0.0
H829 H 0.3516 0.58372 0.36058 0.0
H830 H 0.29338 0.55672 0.34413 0.0
H831 H 0.25942 0.59894 0.36232 0.0
H832 H 0.13946 0.51699 0.3128 0.0
H833 H 0.05925 0.62599 0.35536 0.0
H834 H 0.21354 0.37238 0.33631 0.0
H835 H 0.2703 0.43964 0.32933 0.0
H836 H 0.20105 0.41075 0.31586 0.0
H837 H 0.11951 0.50009 0.38684 0.0
H838 H 0.07103 0.57876 0.38319 0.0
H839 H 0.16458 0.58002 0.38387 0.0
C840 C 0.23495 0.31663 0.08815 0.0
C841 C 0.18163 0.36215 0.08337 0.0
C842 C 0.29191 0.339 0.09783 0.0
C843 C 0.29571 0.40907 0.10271 0.0
C844 C 0.24301 0.45578 0.09749 0.0
C845 C 0.18705 0.4318 0.08794 0.0
C846 C 0.34774 0.28769 0.10266 0.0
C847 C 0.24446 0.53121 0.10236 0.0
C848 C 0.36753 0.49069 0.14119 0.0
C849 C 0.41501 0.53628 0.13388 0.0
C850 C 0.3354 0.43939 0.13157 0.0
C851 C 0.35081 0.43471 0.11425 0.0
C852 C 0.40734 0.47267 0.10764 0.0
C853 C 0.43839 0.52406 0.11752 0.0
C854 C 0.27729 0.39811 0.13931 0.0
C855 C 0.42815 0.46613 0.0895 0.0
H856 H 0.23216 0.26359 0.08444 0.0
H857 H 0.14668 0.468 0.08427 0.0
H858 H 0.39322 0.29474 0.0943 0.0
H859 H 0.36574 0.29577 0.11574 0.0
H860 H 0.32953 0.23361 0.10136 0.0
H861 H 0.19996 0.56073 0.09703 0.0
H862 H 0.24294 0.53618 0.11622 0.0
H863 H 0.2933 0.55541 0.09793 0.0
H864 H 0.34973 0.50013 0.15388 0.0
H865 H 0.47504 0.55949 0.11184 0.0
H866 H 0.27729 0.34442 0.13452 0.0
H867 H 0.22669 0.42212 0.13591 0.0
H868 H 0.2814 0.39675 0.15322 0.0
H869 H 0.42667 0.41139 0.08548 0.0
H870 H 0.48113 0.48693 0.0873 0.0
H871 H 0.3909 0.49554 0.08156 0.0
C872 C 0.23832 0.61168 0.88806 0.0
C873 C 0.17207 0.58375 0.88523 0.0
C874 C 0.29844 0.57918 0.8819 0.0
C875 C 0.2919 0.51776 0.87247 0.0
C876 C 0.22487 0.48971 0.86949 0.0
C877 C 0.1659 0.5227 0.87605 0.0
C878 C 0.36846 0.61107 0.88542 0.0
C879 C 0.21527 0.42462 0.85935 0.0
C880 C 0.41684 0.44182 0.84119 0.0
C881 C 0.43251 0.37945 0.84928 0.0
C882 C 0.37699 0.49257 0.84933 0.0
C883 C 0.35413 0.48057 0.86596 0.0
C884 C 0.38035 0.42302 0.87497 0.0
C885 C 0.41855 0.37241 0.86642 0.0
C886 C 0.35147 0.55395 0.83937 0.0
C887 C 0.36039 0.41026 0.89301 0.0
H888 H 0.24334 0.6586 0.89533 0.0
H889 H 0.11476 0.50122 0.87378 0.0
H890 H 0.40824 0.571 0.88819 0.0
H891 H 0.3858 0.64021 0.8742 0.0
H892 H 0.36617 0.64765 0.89612 0.0
H893 H 0.15958 0.41154 0.85751 0.0
H894 H 0.23987 0.43053 0.84684 0.0
H895 H 0.24118 0.38064 0.86577 0.0
H896 H 0.42729 0.44693 0.82788 0.0
H897 H 0.43067 0.32399 0.87265 0.0
H898 H 0.35345 0.60157 0.84703 0.0
H899 H 0.29643 0.54556 0.8357 0.0
H900 H 0.38252 0.56197 0.82779 0.0
H901 H 0.3615 0.45903 0.90027 0.0
H902 H 0.39561 0.37214 0.89911 0.0
H903 H 0.30659 0.3898 0.89349 0.0
C904 C 0.12276 0.37674 0.60207 0.0
C905 C 0.07687 0.3837 0.61559 0.0
C906 C 0.14967 0.43463 0.59387 0.0
C907 C 0.12849 0.50151 0.59895 0.0
C908 C 0.07652 0.50871 0.61139 0.0
C909 C 0.0526 0.44966 0.6199 0.0
C910 C 0.20516 0.42396 0.5807 0.0
C911 C 0.0491 0.57854 0.61651 0.0
C912 C 0.28261 0.61726 0.59334 0.0
C913 C 0.27451 0.63598 0.57651 0.0
C914 C 0.23067 0.58009 0.60168 0.0
C915 C 0.16924 0.56181 0.59291 0.0
C916 C 0.15723 0.58888 0.57664 0.0
C917 C 0.21098 0.62435 0.56841 0.0
C918 C 0.24544 0.55321 0.61913 0.0
C919 C 0.09049 0.57462 0.56732 0.0
H920 H 0.14115 0.32584 0.59856 0.0
H921 H 0.01802 0.4557 0.6305 0.0
H922 H 0.19016 0.45008 0.56884 0.0
H923 H 0.25483 0.44702 0.58501 0.0
H924 H 0.21446 0.36849 0.57798 0.0
H925 H 0.99463 0.57464 0.62104 0.0
H926 H 0.08118 0.59899 0.62694 0.0
H927 H 0.05091 0.61604 0.60597 0.0
H928 H 0.33208 0.62632 0.59951 0.0
H929 H 0.20489 0.6392 0.55536 0.0
H930 H 0.25446 0.49663 0.61861 0.0
H931 H 0.20025 0.56244 0.62744 0.0
H932 H 0.29196 0.57782 0.6248 0.0
H933 H 0.09369 0.52318 0.5613 0.0
H934 H 0.08106 0.6137 0.55735 0.0
H935 H 0.04549 0.5742 0.57602 0.0
loop_
_geom_bond_atom_site_label_1
_geom_bond_atom_site_label_2
_geom_bond_distance
_geom_bond_site_symmetry_2
_ccdc_geom_bond_type
Zn0 O6 1.920 . S
Zn0 O12 1.898 1_455 S
Zn0 O15 1.905 . S
Zn1 O9 1.905 . S
Zn1 O10 1.898 1_655 S
Zn1 O18 1.920 . S
Zn2 O5 2.080 . S
Zn2 O8 2.114 1_455 S
Zn2 O11 2.120 . S
Zn2 O13 2.120 1_455 S
Zn2 O14 2.114 . S
Zn2 O17 2.080 1_455 S
C3 O8 1.166 . S
C3 O9 1.182 . S
C4 O10 1.167 . S
C4 O11 1.299 . S
O5 Zn2 2.080 . S
O5 C19 1.305 . S
O6 Zn0 1.920 . S
O6 C19 1.234 . S
C7 O12 1.167 . S
C7 O13 1.299 . S
O8 Zn2 2.114 1_655 S
O8 C3 1.166 . S
O9 Zn1 1.905 . S
O9 C3 1.182 . S
O10 Zn1 1.898 1_455 S
O10 C4 1.167 . S
O11 Zn2 2.120 . S
O11 C4 1.299 . S
O12 Zn0 1.898 1_655 S
O12 C7 1.167 . S
O13 Zn2 2.120 1_655 S
O13 C7 1.299 . S
O14 Zn2 2.114 . S
O14 C16 1.166 . S
O15 Zn0 1.905 . S
O15 C16 1.182 . S
C16 O14 1.166 . S
C16 O15 1.182 . S
O17 Zn2 2.080 1_655 S
O17 C20 1.305 . S
O18 Zn1 1.920 . S
O18 C20 1.234 . S
C19 O5 1.305 . S
C19 O6 1.234 . S
C20 O17 1.305 . S
C20 O18 1.234 . S
Zn21 O27 1.920 . S
Zn21 O33 1.898 . S
Zn21 O36 1.905 . S
Zn22 O30 1.905 . S
Zn22 O31 1.898 . S
Zn22 O39 1.920 . S
Zn23 O26 2.080 . S
Zn23 O29 2.114 1_455 S
Zn23 O32 2.120 1_455 S
Zn23 O34 2.120 . S
Zn23 O35 2.114 . S
Zn23 O38 2.080 1_455 S
C24 O29 1.166 . S
C24 O30 1.182 . S
C25 O31 1.167 . S
C25 O32 1.299 . S
O26 Zn23 2.080 . S
O26 C40 1.305 . S
O27 Zn21 1.920 . S
O27 C40 1.234 . S
C28 O33 1.167 . S
C28 O34 1.299 . S
O29 Zn23 2.114 1_655 S
O29 C24 1.166 . S
O30 Zn22 1.905 . S
O30 C24 1.182 . S
O31 Zn22 1.898 . S
O31 C25 1.167 . S
O32 Zn23 2.120 1_655 S
O32 C25 1.299 . S
O33 Zn21 1.898 . S
O33 C28 1.167 . S
O34 Zn23 2.120 . S
O34 C28 1.299 . S
O35 Zn23 2.114 . S
O35 C37 1.166 . S
O36 Zn21 1.905 . S
O36 C37 1.182 . S
C37 O35 1.166 . S
C37 O36 1.182 . S
O38 Zn23 2.080 1_655 S
O38 C41 1.305 . S
O39 Zn22 1.920 . S
O39 C41 1.234 . S
C40 O26 1.305 . S
C40 O27 1.234 . S
C41 O38 1.305 . S
C41 O39 1.234 . S
Zn42 O48 1.920 . S
Zn42 O54 1.898 . S
Zn42 O57 1.905 . S
Zn43 O51 1.905 . S
Zn43 O52 1.898 . S
Zn43 O60 1.920 . S
Zn44 O47 2.080 . S
Zn44 O50 2.114 . S
Zn44 O53 2.120 . S
Zn44 O55 2.120 . S
Zn44 O56 2.114 . S
Zn44 O59 2.080 . S
C45 O50 1.166 . S
C45 O51 1.182 . S
C46 O52 1.167 . S
C46 O53 1.299 . S
O47 Zn44 2.080 . S
O47 C61 1.305 . S
O48 Zn42 1.920 . S
O48 C61 1.234 . S
C49 O54 1.167 . S
C49 O55 1.299 . S
O50 Zn44 2.114 . S
O50 C45 1.166 . S
O51 Zn43 1.905 . S
O51 C45 1.182 . S
O52 Zn43 1.898 . S
O52 C46 1.167 . S
O53 Zn44 2.120 . S
O53 C46 1.299 . S
O54 Zn42 1.898 . S
O54 C49 1.167 . S
O55 Zn44 2.120 . S
O55 C49 1.299 . S
O56 Zn44 2.114 . S
O56 C58 1.166 . S
O57 Zn42 1.905 . S
O57 C58 1.182 . S
C58 O56 1.166 . S
C58 O57 1.182 . S
O59 Zn44 2.080 . S
O59 C62 1.305 . S
O60 Zn43 1.920 . S
O60 C62 1.234 . S
C61 O47 1.305 . S
C61 O48 1.234 . S
C62 O59 1.305 . S
C62 O60 1.234 . S
Zn63 O69 1.920 . S
Zn63 O75 1.898 . S
Zn63 O78 1.905 . S
Zn64 O72 1.905 . S
Zn64 O73 1.898 . S
Zn64 O81 1.920 . S
Zn65 O68 2.080 . S
Zn65 O71 2.114 . S
Zn65 O74 2.120 . S
Zn65 O76 2.120 . S
Zn65 O77 2.114 . S
Zn65 O80 2.080 . S
C66 O71 1.166 . S
C66 O72 1.182 . S
C67 O73 1.167 . S
C67 O74 1.299 . S
O68 Zn65 2.080 . S
O68 C82 1.305 . S
O69 Zn63 1.920 . S
O69 C82 1.234 . S
C70 O75 1.167 . S
C70 O76 1.299 . S
O71 Zn65 2.114 . S
O71 C66 1.166 . S
O72 Zn64 1.905 . S
O72 C66 1.182 . S
O73 Zn64 1.898 . S
O73 C67 1.167 . S
O74 Zn65 2.120 . S
O74 C67 1.299 . S
O75 Zn63 1.898 . S
O75 C70 1.167 . S
O76 Zn65 2.120 . S
O76 C70 1.299 . S
O77 Zn65 2.114 . S
O77 C79 1.166 . S
O78 Zn63 1.905 . S
O78 C79 1.182 . S
C79 O77 1.166 . S
C79 O78 1.182 . S
O80 Zn65 2.080 . S
O80 C83 1.305 . S
O81 Zn64 1.920 . S
O81 C83 1.234 . S
C82 O68 1.305 . S
C82 O69 1.234 . S
C83 O80 1.305 . S
C83 O81 1.234 . S
Zn84 O90 1.920 . S
Zn84 O96 1.898 1_455 S
Zn84 O99 1.905 . S
Zn85 O93 1.905 . S
Zn85 O94 1.898 1_655 S
Zn85 O102 1.920 . S
Zn86 O89 2.080 . S
Zn86 O92 2.114 1_455 S
Zn86 O95 2.120 . S
Zn86 O97 2.120 1_455 S
Zn86 O98 2.114 . S
Zn86 O101 2.080 1_455 S
C87 O92 1.166 . S
C87 O93 1.182 . S
C88 O94 1.167 . S
C88 O95 1.299 . S
O89 Zn86 2.080 . S
O89 C103 1.305 . S
O90 Zn84 1.920 . S
O90 C103 1.234 . S
C91 O96 1.167 . S
C91 O97 1.299 . S
O92 Zn86 2.114 1_655 S
O92 C87 1.166 . S
O93 Zn85 1.905 . S
O93 C87 1.182 . S
O94 Zn85 1.898 1_455 S
O94 C88 1.167 . S
O95 Zn86 2.120 . S
O95 C88 1.299 . S
O96 Zn84 1.898 1_655 S
O96 C91 1.167 . S
O97 Zn86 2.120 1_655 S
O97 C91 1.299 . S
O98 Zn86 2.114 . S
O98 C100 1.166 . S
O99 Zn84 1.905 . S
O99 C100 1.182 . S
C100 O98 1.166 . S
C100 O99 1.182 . S
O101 Zn86 2.080 1_655 S
O101 C104 1.305 . S
O102 Zn85 1.920 . S
O102 C104 1.234 . S
C103 O89 1.305 . S
C103 O90 1.234 . S
C104 O101 1.305 . S
C104 O102 1.234 . S
Zn105 O111 1.920 . S
Zn105 O117 1.898 . S
Zn105 O120 1.905 . S
Zn106 O114 1.905 . S
Zn106 O115 1.898 . S
Zn106 O123 1.920 . S
Zn107 O110 2.080 . S
Zn107 O113 2.114 . S
Zn107 O116 2.120 . S
Zn107 O118 2.120 . S
Zn107 O119 2.114 . S
Zn107 O122 2.080 . S
C108 O113 1.166 . S
C108 O114 1.182 . S
C109 O115 1.167 . S
C109 O116 1.299 . S
O110 Zn107 2.080 . S
O110 C124 1.305 . S
O111 Zn105 1.920 . S
O111 C124 1.234 . S
C112 O117 1.167 . S
C112 O118 1.299 . S
O113 Zn107 2.114 . S
O113 C108 1.166 . S
O114 Zn106 1.905 . S
O114 C108 1.182 . S
O115 Zn106 1.898 . S
O115 C109 1.167 . S
O116 Zn107 2.120 . S
O116 C109 1.299 . S
O117 Zn105 1.898 . S
O117 C112 1.167 . S
O118 Zn107 2.120 . S
O118 C112 1.299 . S
O119 Zn107 2.114 . S
O119 C121 1.166 . S
O120 Zn105 1.905 . S
O120 C121 1.182 . S
C121 O119 1.166 . S
C121 O120 1.182 . S
O122 Zn107 2.080 . S
O122 C125 1.305 . S
O123 Zn106 1.920 . S
O123 C125 1.234 . S
C124 O110 1.305 . S
C124 O111 1.234 . S
C125 O122 1.305 . S
C125 O123 1.234 . S
Zn126 O132 1.920 . S
Zn126 O138 1.898 . S
Zn126 O141 1.905 . S
Zn127 O135 1.905 . S
Zn127 O136 1.898 . S
Zn127 O144 1.920 . S
Zn128 O131 2.080 . S
Zn128 O134 2.114 . S
Zn128 O137 2.120 . S
Zn128 O139 2.120 . S
Zn128 O140 2.114 . S
Zn128 O143 2.080 . S
C129 O134 1.166 . S
C129 O135 1.182 . S
C130 O136 1.167 . S
C130 O137 1.299 . S
O131 Zn128 2.080 . S
O131 C145 1.305 . S
O132 Zn126 1.920 . S
O132 C145 1.234 . S
C133 O138 1.167 . S
C133 O139 1.299 . S
O134 Zn128 2.114 . S
O134 C129 1.166 . S
O135 Zn127 1.905 . S
O135 C129 1.182 . S
O136 Zn127 1.898 . S
O136 C130 1.167 . S
O137 Zn128 2.120 . S
O137 C130 1.299 . S
O138 Zn126 1.898 . S
O138 C133 1.167 . S
O139 Zn128 2.120 . S
O139 C133 1.299 . S
O140 Zn128 2.114 . S
O140 C142 1.166 . S
O141 Zn126 1.905 . S
O141 C142 1.182 . S
C142 O140 1.166 . S
C142 O141 1.182 . S
O143 Zn128 2.080 . S
O143 C146 1.305 . S
O144 Zn127 1.920 . S
O144 C146 1.234 . S
C145 O131 1.305 . S
C145 O132 1.234 . S
C146 O143 1.305 . S
C146 O144 1.234 . S
Zn147 O153 1.920 . S
Zn147 O159 1.898 . S
Zn147 O162 1.905 . S
Zn148 O156 1.905 . S
Zn148 O157 1.898 . S
Zn148 O165 1.920 . S
Zn149 O152 2.080 . S
Zn149 O155 2.114 1_455 S
Zn149 O158 2.120 1_455 S
Zn149 O160 2.120 . S
Zn149 O161 2.114 . S
Zn149 O164 2.080 1_455 S
C150 O155 1.166 . S
C150 O156 1.182 . S
C151 O157 1.167 . S
C151 O158 1.299 . S
O152 Zn149 2.080 . S
O152 C166 1.305 . S
O153 Zn147 1.920 . S
O153 C166 1.234 . S
C154 O159 1.167 . S
C154 O160 1.299 . S
O155 Zn149 2.114 1_655 S
O155 C150 1.166 . S
O156 Zn148 1.905 . S
O156 C150 1.182 . S
O157 Zn148 1.898 . S
O157 C151 1.167 . S
O158 Zn149 2.120 1_655 S
O158 C151 1.299 . S
O159 Zn147 1.898 . S
O159 C154 1.167 . S
O160 Zn149 2.120 . S
O160 C154 1.299 . S
O161 Zn149 2.114 . S
O161 C163 1.166 . S
O162 Zn147 1.905 . S
O162 C163 1.182 . S
C163 O161 1.166 . S
C163 O162 1.182 . S
O164 Zn149 2.080 1_655 S
O164 C167 1.305 . S
O165 Zn148 1.920 . S
O165 C167 1.234 . S
C166 O152 1.305 . S
C166 O153 1.234 . S
C167 O164 1.305 . S
C167 O165 1.234 . S
C168 C169 1.391 1_655 S
C168 C170 1.394 . S
C168 H184 0.931 . S
C169 C168 1.391 1_455 S
C169 C173 1.376 . S
C170 C168 1.394 . S
C170 C171 1.369 1_655 S
C170 C174 1.531 . S
C171 C170 1.369 1_455 S
C171 C172 1.410 . S
C171 C179 1.503 1_554 S
C172 C171 1.410 . S
C172 C173 1.392 . S
C172 C175 1.498 1_554 S
C173 C169 1.376 . S
C173 C172 1.392 . S
C173 H185 0.929 . S
C174 C170 1.531 . S
C174 H186 0.960 . S
C174 H187 0.962 . S
C174 H188 0.960 . S
C175 C172 1.498 1_556 S
C175 H189 0.962 . S
C175 H190 0.981 . S
C175 H191 0.953 1_556 S
C176 C177 1.370 . S
C176 C178 1.363 . S
C176 H192 0.931 1_455 S
C177 C176 1.370 . S
C177 C181 1.408 . S
C178 C176 1.363 . S
C178 C179 1.370 . S
C178 C182 1.524 1_455 S
C179 C171 1.503 1_556 S
C179 C178 1.370 . S
C179 C180 1.403 . S
C180 C179 1.403 . S
C180 C181 1.404 . S
C180 C183 1.539 1_556 S
C181 C177 1.408 . S
C181 C180 1.404 . S
C181 H193 0.930 . S
C182 C178 1.524 1_655 S
C182 H194 0.956 . S
C182 H195 0.961 1_655 S
C182 H196 0.961 . S
C183 C180 1.539 1_554 S
C183 H197 0.958 . S
C183 H198 0.961 . S
C183 H199 0.960 . S
H184 C168 0.931 . S
H185 C173 0.929 . S
H186 C174 0.960 . S
H187 C174 0.962 . S
H188 C174 0.960 . S
H189 C175 0.962 . S
H190 C175 0.981 . S
H191 C175 0.953 1_554 S
H192 C176 0.931 1_655 S
H193 C181 0.930 . S
H194 C182 0.956 . S
H195 C182 0.961 1_455 S
H196 C182 0.961 . S
H197 C183 0.958 . S
H198 C183 0.961 . S
H199 C183 0.960 . S
C200 C201 1.391 . S
C200 C202 1.394 . S
C200 H216 0.931 . S
C201 C200 1.391 . S
C201 C205 1.376 . S
C202 C200 1.394 . S
C202 C203 1.369 . S
C202 C206 1.531 . S
C203 C202 1.369 . S
C203 C204 1.410 . S
C203 C211 1.503 . S
C204 C203 1.410 . S
C204 C205 1.392 . S
C204 C207 1.511 . S
C205 C201 1.376 . S
C205 C204 1.392 . S
C205 H217 0.929 . S
C206 C202 1.531 . S
C206 H218 0.960 . S
C206 H219 0.962 . S
C206 H220 0.960 . S
C207 C204 1.511 . S
C207 H221 0.961 . S
C207 H222 0.961 . S
C207 H223 0.961 . S
C208 C209 1.370 . S
C208 C210 1.363 . S
C208 H224 0.931 . S
C209 C208 1.370 . S
C209 C213 1.408 . S
C210 C208 1.363 . S
C210 C211 1.370 . S
C210 C214 1.524 . S
C211 C203 1.503 . S
C211 C210 1.370 . S
C211 C212 1.403 . S
C212 C211 1.403 . S
C212 C213 1.404 . S
C212 C215 1.539 . S
C213 C209 1.408 . S
C213 C212 1.404 . S
C213 H225 0.930 . S
C214 C210 1.524 . S
C214 H226 0.956 . S
C214 H227 0.961 . S
C214 H228 0.961 . S
C215 C212 1.539 . S
C215 H229 0.958 . S
C215 H230 0.961 . S
C215 H231 0.960 . S
H216 C200 0.931 . S
H217 C205 0.929 . S
H218 C206 0.960 . S
H219 C206 0.962 . S
H220 C206 0.960 . S
H221 C207 0.961 . S
H222 C207 0.961 . S
H223 C207 0.961 . S
H224 C208 0.931 . S
H225 C213 0.930 . S
H226 C214 0.956 . S
H227 C214 0.961 . S
H228 C214 0.961 . S
H229 C215 0.958 . S
H230 C215 0.961 . S
H231 C215 0.960 . S
C232 C233 1.391 . S
C232 C234 1.394 . S
C232 H248 0.931 . S
C233 C232 1.391 . S
C233 C237 1.376 . S
C234 C232 1.394 . S
C234 C235 1.369 . S
C234 C238 1.531 . S
C235 C234 1.369 . S
C235 C236 1.410 . S
C235 C243 1.503 . S
C236 C235 1.410 . S
C236 C237 1.392 . S
C236 C239 1.511 . S
C237 C233 1.376 . S
C237 C236 1.392 . S
C237 H249 0.929 . S
C238 C234 1.531 . S
C238 H250 0.960 . S
C238 H251 0.962 . S
C238 H252 0.960 . S
C239 C236 1.511 . S
C239 H253 0.961 . S
C239 H254 0.961 . S
C239 H255 0.961 . S
C240 C241 1.370 . S
C240 C242 1.363 . S
C240 H256 0.931 . S
C241 C240 1.370 . S
C241 C245 1.408 . S
C242 C240 1.363 . S
C242 C243 1.370 . S
C242 C246 1.524 . S
C243 C235 1.503 . S
C243 C242 1.370 . S
C243 C244 1.403 . S
C244 C243 1.403 . S
C244 C245 1.404 . S
C244 C247 1.539 . S
C245 C241 1.408 . S
C245 C244 1.404 . S
C245 H257 0.930 . S
C246 C242 1.524 . S
C246 H258 0.956 . S
C246 H259 0.961 . S
C246 H260 0.961 . S
C247 C244 1.539 . S
C247 H261 0.958 . S
C247 H262 0.961 . S
C247 H263 0.960 . S
H248 C232 0.931 . S
H249 C237 0.929 . S
H250 C238 0.960 . S
H251 C238 0.962 . S
H252 C238 0.960 . S
H253 C239 0.961 . S
H254 C239 0.961 . S
H255 C239 0.961 . S
H256 C240 0.931 . S
H257 C245 0.930 . S
H258 C246 0.956 . S
H259 C246 0.961 . S
H260 C246 0.961 . S
H261 C247 0.958 . S
H262 C247 0.961 . S
H263 C247 0.960 . S
C264 C265 1.391 . S
C264 C266 1.394 . S
C264 H280 0.931 . S
C265 C264 1.391 . S
C265 C269 1.376 . S
C266 C264 1.394 . S
C266 C267 1.369 . S
C266 C270 1.531 . S
C267 C266 1.369 . S
C267 C268 1.410 . S
C267 C275 1.503 . S
C268 C267 1.410 . S
C268 C269 1.392 . S
C268 C271 1.511 . S
C269 C265 1.376 . S
C269 C268 1.392 . S
C269 H281 0.929 . S
C270 C266 1.531 . S
C270 H282 0.960 . S
C270 H283 0.962 . S
C270 H284 0.960 . S
C271 C268 1.511 . S
C271 H285 0.961 . S
C271 H286 0.961 . S
C271 H287 0.961 . S
C272 C273 1.370 . S
C272 C274 1.363 . S
C272 H288 0.931 . S
C273 C272 1.370 . S
C273 C277 1.408 . S
C274 C272 1.363 . S
C274 C275 1.370 . S
C274 C278 1.524 . S
C275 C267 1.503 . S
C275 C274 1.370 . S
C275 C276 1.403 . S
C276 C275 1.403 . S
C276 C277 1.404 . S
C276 C279 1.539 . S
C277 C273 1.408 . S
C277 C276 1.404 . S
C277 H289 0.930 . S
C278 C274 1.524 . S
C278 H290 0.956 . S
C278 H291 0.961 . S
C278 H292 0.961 . S
C279 C276 1.539 . S
C279 H293 0.958 . S
C279 H294 0.961 . S
C279 H295 0.960 . S
H280 C264 0.931 . S
H281 C269 0.929 . S
H282 C270 0.960 . S
H283 C270 0.962 . S
H284 C270 0.960 . S
H285 C271 0.961 . S
H286 C271 0.961 . S
H287 C271 0.961 . S
H288 C272 0.931 . S
H289 C277 0.930 . S
H290 C278 0.956 . S
H291 C278 0.961 . S
H292 C278 0.961 . S
H293 C279 0.958 . S
H294 C279 0.961 . S
H295 C279 0.960 . S
C296 C297 1.391 . S
C296 C298 1.394 . S
C296 H312 0.931 . S
C297 C296 1.391 . S
C297 C301 1.376 . S
C298 C296 1.394 . S
C298 C299 1.369 . S
C298 C302 1.531 . S
C299 C298 1.369 . S
C299 C300 1.410 . S
C299 C307 1.503 . S
C300 C299 1.410 . S
C300 C301 1.392 . S
C300 C303 1.511 . S
C301 C297 1.376 . S
C301 C300 1.392 . S
C301 H313 0.929 . S
C302 C298 1.531 . S
C302 H314 0.960 . S
C302 H315 0.962 . S
C302 H316 0.960 . S
C303 C300 1.511 . S
C303 H317 0.961 . S
C303 H318 0.961 . S
C303 H319 0.961 . S
C304 C305 1.370 . S
C304 C306 1.363 . S
C304 H320 0.931 . S
C305 C304 1.370 . S
C305 C309 1.408 . S
C306 C304 1.363 . S
C306 C307 1.370 . S
C306 C310 1.524 . S
C307 C299 1.503 . S
C307 C306 1.370 . S
C307 C308 1.403 . S
C308 C307 1.403 . S
C308 C309 1.404 . S
C308 C311 1.539 . S
C309 C305 1.408 . S
C309 C308 1.404 . S
C309 H321 0.930 . S
C310 C306 1.524 . S
C310 H322 0.956 . S
C310 H323 0.961 . S
C310 H324 0.961 . S
C311 C308 1.539 . S
C311 H325 0.958 . S
C311 H326 0.961 . S
C311 H327 0.960 . S
H312 C296 0.931 . S
H313 C301 0.929 . S
H314 C302 0.960 . S
H315 C302 0.962 . S
H316 C302 0.960 . S
H317 C303 0.961 . S
H318 C303 0.961 . S
H319 C303 0.961 . S
H320 C304 0.931 . S
H321 C309 0.930 . S
H322 C310 0.956 . S
H323 C310 0.961 . S
H324 C310 0.961 . S
H325 C311 0.958 . S
H326 C311 0.961 . S
H327 C311 0.960 . S
C328 C329 1.391 . S
C328 C330 1.394 . S
C328 H344 0.931 . S
C329 C328 1.391 . S
C329 C333 1.376 . S
C330 C328 1.394 . S
C330 C331 1.369 . S
C330 C334 1.531 . S
C331 C330 1.369 . S
C331 C332 1.410 . S
C331 C339 1.503 . S
C332 C331 1.410 . S
C332 C333 1.392 . S
C332 C335 1.511 . S
C333 C329 1.376 . S
C333 C332 1.392 . S
C333 H345 0.929 . S
C334 C330 1.531 . S
C334 H346 0.960 . S
C334 H347 0.962 . S
C334 H348 0.960 . S
C335 C332 1.511 . S
C335 H349 0.961 . S
C335 H350 0.961 . S
C335 H351 0.961 . S
C336 C337 1.370 . S
C336 C338 1.363 . S
C336 H352 0.931 . S
C337 C336 1.370 . S
C337 C341 1.408 . S
C338 C336 1.363 . S
C338 C339 1.370 . S
C338 C342 1.524 . S
C339 C331 1.503 . S
C339 C338 1.370 . S
C339 C340 1.403 . S
C340 C339 1.403 . S
C340 C341 1.404 . S
C340 C343 1.539 . S
C341 C337 1.408 . S
C341 C340 1.404 . S
C341 H353 0.930 . S
C342 C338 1.524 . S
C342 H354 0.956 . S
C342 H355 0.961 . S
C342 H356 0.961 . S
C343 C340 1.539 . S
C343 H357 0.958 . S
C343 H358 0.961 . S
C343 H359 0.960 . S
H344 C328 0.931 . S
H345 C333 0.929 . S
H346 C334 0.960 . S
H347 C334 0.962 . S
H348 C334 0.960 . S
H349 C335 0.961 . S
H350 C335 0.961 . S
H351 C335 0.961 . S
H352 C336 0.931 . S
H353 C341 0.930 . S
H354 C342 0.956 . S
H355 C342 0.961 . S
H356 C342 0.961 . S
H357 C343 0.958 . S
H358 C343 0.961 . S
H359 C343 0.960 . S
C360 C361 1.391 . S
C360 C362 1.394 . S
C360 H376 0.931 . S
C361 C360 1.391 . S
C361 C365 1.376 . S
C362 C360 1.394 . S
C362 C363 1.369 . S
C362 C366 1.531 . S
C363 C362 1.369 . S
C363 C364 1.410 . S
C363 C371 1.503 1_545 S
C364 C363 1.410 . S
C364 C365 1.392 . S
C364 C367 1.511 . S
C365 C361 1.376 . S
C365 C364 1.392 . S
C365 H377 0.929 . S
C366 C362 1.531 . S
C366 H378 0.960 . S
C366 H379 0.962 . S
C366 H380 0.960 . S
C367 C364 1.511 . S
C367 H381 0.961 . S
C367 H382 0.961 1_545 S
C367 H383 0.961 . S
C368 C369 1.370 . S
C368 C370 1.363 . S
C368 H384 0.931 . S
C369 C368 1.370 . S
C369 C373 1.408 . S
C370 C368 1.363 . S
C370 C371 1.370 . S
C370 C374 1.524 . S
C371 C363 1.503 1_565 S
C371 C370 1.370 . S
C371 C372 1.403 1_565 S
C372 C371 1.403 1_545 S
C372 C373 1.404 1_545 S
C372 C375 1.539 . S
C373 C369 1.408 . S
C373 C372 1.404 1_565 S
C373 H385 0.930 . S
C374 C370 1.524 . S
C374 H386 0.956 . S
C374 H387 0.961 . S
C374 H388 0.961 . S
C375 C372 1.539 . S
C375 H389 0.958 . S
C375 H390 0.961 . S
C375 H391 0.960 . S
H376 C360 0.931 . S
H377 C365 0.929 . S
H378 C366 0.960 . S
H379 C366 0.962 . S
H380 C366 0.960 . S
H381 C367 0.961 . S
H382 C367 0.961 1_565 S
H383 C367 0.961 . S
H384 C368 0.931 . S
H385 C373 0.930 . S
H386 C374 0.956 . S
H387 C374 0.961 . S
H388 C374 0.961 . S
H389 C375 0.958 . S
H390 C375 0.961 . S
H391 C375 0.960 . S
C392 C393 1.391 . S
C392 C394 1.394 . S
C392 H408 0.931 . S
C393 C392 1.391 . S
C393 C397 1.376 1_655 S
C394 C392 1.394 . S
C394 C395 1.369 . S
C394 C398 1.531 1_554 S
C395 C394 1.369 . S
C395 C396 1.410 1_655 S
C395 C403 1.503 1_544 S
C396 C395 1.410 1_455 S
C396 C397 1.392 . S
C396 C399 1.511 . S
C397 C393 1.376 1_455 S
C397 C396 1.392 . S
C397 H409 0.929 . S
C398 C394 1.531 1_556 S
C398 H410 0.960 . S
C398 H411 0.962 1_556 S
C398 H412 0.960 . S
C399 C396 1.511 . S
C399 H413 0.959 1_545 S
C399 H414 0.961 1_545 S
C399 H415 0.961 . S
C400 C401 1.370 . S
C400 C402 1.363 . S
C400 H416 0.931 . S
C401 C400 1.370 . S
C401 C405 1.408 . S
C402 C400 1.363 . S
C402 C403 1.370 . S
C402 C406 1.524 1_556 S
C403 C395 1.503 1_566 S
C403 C402 1.370 . S
C403 C404 1.403 1_565 S
C404 C403 1.403 1_545 S
C404 C405 1.404 1_545 S
C404 C407 1.539 1_655 S
C405 C401 1.408 . S
C405 C404 1.404 1_565 S
C405 H417 0.930 . S
C406 C402 1.524 1_554 S
C406 H418 0.956 . S
C406 H419 0.961 . S
C406 H420 0.961 . S
C407 C404 1.539 1_455 S
C407 H421 0.958 1_455 S
C407 H422 0.961 . S
C407 H423 0.960 . S
H408 C392 0.931 . S
H409 C397 0.929 . S
H410 C398 0.960 . S
H411 C398 0.962 1_554 S
H412 C398 0.960 . S
H413 C399 0.959 1_565 S
H414 C399 0.961 1_565 S
H415 C399 0.961 . S
H416 C400 0.931 . S
H417 C405 0.930 . S
H418 C406 0.956 . S
H419 C406 0.961 . S
H420 C406 0.961 . S
H421 C407 0.958 1_655 S
H422 C407 0.961 . S
H423 C407 0.960 . S
C424 C425 1.391 . S
C424 C426 1.394 . S
C424 H440 0.931 . S
C425 C424 1.391 . S
C425 C429 1.376 . S
C426 C424 1.394 . S
C426 C427 1.369 1_565 S
C426 C430 1.531 1_565 S
C427 C426 1.369 1_545 S
C427 C428 1.410 1_545 S
C427 C435 1.503 . S
C428 C427 1.410 1_565 S
C428 C429 1.392 . S
C428 C431 1.511 1_565 S
C429 C425 1.376 . S
C429 C428 1.392 . S
C429 H441 0.929 . S
C430 C426 1.531 1_545 S
C430 H442 0.960 . S
C430 H443 0.962 1_545 S
C430 H444 0.960 . S
C431 C428 1.511 1_545 S
C431 H445 0.961 1_545 S
C431 H446 0.961 . S
C431 H447 0.961 . S
C432 C433 1.370 . S
C432 C434 1.363 . S
C432 H448 0.931 . S
C433 C432 1.370 . S
C433 C437 1.408 . S
C434 C432 1.363 . S
C434 C435 1.370 . S
C434 C438 1.524 1_545 S
C435 C427 1.503 . S
C435 C434 1.370 . S
C435 C436 1.403 . S
C436 C435 1.403 . S
C436 C437 1.404 . S
C436 C439 1.539 . S
C437 C433 1.408 . S
C437 C436 1.404 . S
C437 H449 0.930 . S
C438 C434 1.524 1_565 S
C438 H450 0.956 . S
C438 H451 0.961 . S
C438 H452 0.961 . S
C439 C436 1.539 . S
C439 H453 0.958 . S
C439 H454 0.961 . S
C439 H455 0.960 . S
H440 C424 0.931 . S
H441 C429 0.929 . S
H442 C430 0.960 . S
H443 C430 0.962 1_565 S
H444 C430 0.960 . S
H445 C431 0.961 1_565 S
H446 C431 0.961 . S
H447 C431 0.961 . S
H448 C432 0.931 . S
H449 C437 0.930 . S
H450 C438 0.956 . S
H451 C438 0.961 . S
H452 C438 0.961 . S
H453 C439 0.958 . S
H454 C439 0.961 . S
H455 C439 0.960 . S
C456 C457 1.391 . S
C456 C458 1.394 1_565 S
C456 H472 0.931 . S
C457 C456 1.391 . S
C457 C461 1.376 . S
C458 C456 1.394 1_545 S
C458 C459 1.369 . S
C458 C462 1.531 . S
C459 C458 1.369 . S
C459 C460 1.410 1_545 S
C459 C467 1.503 . S
C460 C459 1.410 1_565 S
C460 C461 1.392 . S
C460 C463 1.511 . S
C461 C457 1.376 . S
C461 C460 1.392 . S
C461 H473 0.929 . S
C462 C458 1.531 . S
C462 H474 0.960 . S
C462 H475 0.962 . S
C462 H476 0.960 . S
C463 C460 1.511 . S
C463 H477 0.961 . S
C463 H478 0.961 . S
C463 H479 0.961 1_565 S
C464 C465 1.370 . S
C464 C466 1.363 . S
C464 H480 0.931 . S
C465 C464 1.370 . S
C465 C469 1.408 . S
C466 C464 1.363 . S
C466 C467 1.370 . S
C466 C470 1.524 1_545 S
C467 C459 1.503 . S
C467 C466 1.370 . S
C467 C468 1.403 . S
C468 C467 1.403 . S
C468 C469 1.404 . S
C468 C471 1.539 . S
C469 C465 1.408 . S
C469 C468 1.404 . S
C469 H481 0.930 . S
C470 C466 1.524 1_565 S
C470 H482 0.956 . S
C470 H483 0.961 . S
C470 H484 0.961 . S
C471 C468 1.539 . S
C471 H485 0.958 . S
C471 H486 0.961 . S
C471 H487 0.960 . S
H472 C456 0.931 . S
H473 C461 0.929 . S
H474 C462 0.960 . S
H475 C462 0.962 . S
H476 C462 0.960 . S
H477 C463 0.961 . S
H478 C463 0.961 . S
H479 C463 0.961 1_545 S
H480 C464 0.931 . S
H481 C469 0.930 . S
H482 C470 0.956 . S
H483 C470 0.961 . S
H484 C470 0.961 . S
H485 C471 0.958 . S
H486 C471 0.961 . S
H487 C471 0.960 . S
C488 C489 1.391 . S
C488 C490 1.394 . S
C488 H504 0.931 . S
C489 C488 1.391 . S
C489 C493 1.376 . S
C490 C488 1.394 . S
C490 C491 1.369 . S
C490 C494 1.531 . S
C491 C490 1.369 . S
C491 C492 1.410 1_545 S
C491 C499 1.503 1_545 S
C492 C491 1.410 1_565 S
C492 C493 1.392 1_565 S
C492 C495 1.511 . S
C493 C489 1.376 . S
C493 C492 1.392 1_545 S
C493 H505 0.929 . S
C494 C490 1.531 . S
C494 H506 0.960 . S
C494 H507 0.962 . S
C494 H508 0.960 . S
C495 C492 1.511 . S
C495 H509 0.961 . S
C495 H510 0.961 . S
C495 H511 0.961 . S
C496 C497 1.370 . S
C496 C498 1.363 . S
C496 H512 0.931 . S
C497 C496 1.370 . S
C497 C501 1.408 . S
C498 C496 1.363 . S
C498 C499 1.370 . S
C498 C502 1.524 . S
C499 C491 1.503 1_565 S
C499 C498 1.370 . S
C499 C500 1.403 . S
C500 C499 1.403 . S
C500 C501 1.404 . S
C500 C503 1.539 1_565 S
C501 C497 1.408 . S
C501 C500 1.404 . S
C501 H513 0.930 . S
C502 C498 1.524 . S
C502 H514 0.956 . S
C502 H515 0.961 . S
C502 H516 0.961 . S
C503 C500 1.539 1_545 S
C503 H517 0.958 . S
C503 H518 0.961 . S
C503 H519 0.960 . S
H504 C488 0.931 . S
H505 C493 0.929 . S
H506 C494 0.960 . S
H507 C494 0.962 . S
H508 C494 0.960 . S
H509 C495 0.961 . S
H510 C495 0.961 . S
H511 C495 0.961 . S
H512 C496 0.931 . S
H513 C501 0.930 . S
H514 C502 0.956 . S
H515 C502 0.961 . S
H516 C502 0.961 . S
H517 C503 0.958 . S
H518 C503 0.961 . S
H519 C503 0.960 . S
C520 C521 1.391 . S
C520 C522 1.394 . S
C520 H536 0.931 . S
C521 C520 1.391 . S
C521 C525 1.376 . S
C522 C520 1.394 . S
C522 C523 1.369 . S
C522 C526 1.531 . S
C523 C522 1.369 . S
C523 C524 1.410 . S
C523 C531 1.503 . S
C524 C523 1.410 . S
C524 C525 1.392 . S
C524 C527 1.511 . S
C525 C521 1.376 . S
C525 C524 1.392 . S
C525 H537 0.929 . S
C526 C522 1.531 . S
C526 H538 0.960 . S
C526 H539 0.962 . S
C526 H540 0.960 . S
C527 C524 1.511 . S
C527 H541 0.961 . S
C527 H542 0.961 1_565 S
C527 H543 0.961 . S
C528 C529 1.370 . S
C528 C530 1.363 . S
C528 H544 0.931 . S
C529 C528 1.370 . S
C529 C533 1.408 . S
C530 C528 1.363 . S
C530 C531 1.370 1_545 S
C530 C534 1.524 . S
C531 C523 1.503 . S
C531 C530 1.370 1_565 S
C531 C532 1.403 . S
C532 C531 1.403 . S
C532 C533 1.404 1_565 S
C532 C535 1.539 . S
C533 C529 1.408 . S
C533 C532 1.404 1_545 S
C533 H545 0.930 1_545 S
C534 C530 1.524 . S
C534 H546 0.956 . S
C534 H547 0.961 . S
C534 H548 0.961 . S
C535 C532 1.539 . S
C535 H549 0.958 . S
C535 H550 0.961 . S
C535 H551 0.960 . S
H536 C520 0.931 . S
H537 C525 0.929 . S
H538 C526 0.960 . S
H539 C526 0.962 . S
H540 C526 0.960 . S
H541 C527 0.961 . S
H542 C527 0.961 1_545 S
H543 C527 0.961 . S
H544 C528 0.931 . S
H545 C533 0.930 1_565 S
H546 C534 0.956 . S
H547 C534 0.961 . S
H548 C534 0.961 . S
H549 C535 0.958 . S
H550 C535 0.961 . S
H551 C535 0.960 . S
C552 C553 1.391 . S
C552 C554 1.394 . S
C552 H568 0.931 . S
C553 C552 1.391 . S
C553 C557 1.376 . S
C554 C552 1.394 . S
C554 C555 1.369 . S
C554 C558 1.531 . S
C555 C554 1.369 . S
C555 C556 1.410 . S
C555 C563 1.503 1_565 S
C556 C555 1.410 . S
C556 C557 1.392 . S
C556 C559 1.511 1_565 S
C557 C553 1.376 . S
C557 C556 1.392 . S
C557 H569 0.929 . S
C558 C554 1.531 . S
C558 H570 0.960 . S
C558 H571 0.962 . S
C558 H572 0.960 . S
C559 C556 1.511 1_545 S
C559 H573 0.961 . S
C559 H574 0.961 . S
C559 H575 0.961 1_545 S
C560 C561 1.370 . S
C560 C562 1.363 . S
C560 H576 0.931 . S
C561 C560 1.370 . S
C561 C565 1.408 . S
C562 C560 1.363 . S
C562 C563 1.370 . S
C562 C566 1.524 . S
C563 C555 1.503 1_545 S
C563 C562 1.370 . S
C563 C564 1.403 . S
C564 C563 1.403 . S
C564 C565 1.404 . S
C564 C567 1.539 1_545 S
C565 C561 1.408 . S
C565 C564 1.404 . S
C565 H577 0.930 . S
C566 C562 1.524 . S
C566 H578 0.956 . S
C566 H579 0.961 . S
C566 H580 0.961 . S
C567 C564 1.539 1_565 S
C567 H581 0.958 . S
C567 H582 0.961 . S
C567 H583 0.960 . S
H568 C552 0.931 . S
H569 C557 0.929 . S
H570 C558 0.960 . S
H571 C558 0.962 . S
H572 C558 0.960 . S
H573 C559 0.961 . S
H574 C559 0.961 . S
H575 C559 0.961 1_565 S
H576 C560 0.931 . S
H577 C565 0.930 . S
H578 C566 0.956 . S
H579 C566 0.961 . S
H580 C566 0.961 . S
H581 C567 0.958 . S
H582 C567 0.961 . S
H583 C567 0.960 . S
C584 C585 1.391 . S
C584 C586 1.394 . S
C584 H600 0.931 . S
C585 C584 1.391 . S
C585 C589 1.376 . S
C586 C584 1.394 . S
C586 C587 1.369 . S
C586 C590 1.531 1_545 S
C587 C586 1.369 . S
C587 C588 1.410 . S
C587 C595 1.503 1_545 S
C588 C587 1.410 . S
C588 C589 1.392 . S
C588 C591 1.511 . S
C589 C585 1.376 . S
C589 C588 1.392 . S
C589 H601 0.929 . S
C590 C586 1.531 1_565 S
C590 H602 0.960 . S
C590 H603 0.962 . S
C590 H604 0.960 . S
C591 C588 1.511 . S
C591 H605 0.961 . S
C591 H606 0.961 . S
C591 H607 0.961 . S
C592 C593 1.370 . S
C592 C594 1.363 . S
C592 H608 0.931 . S
C593 C592 1.370 . S
C593 C597 1.408 . S
C594 C592 1.363 . S
C594 C595 1.370 . S
C594 C598 1.524 1_565 S
C595 C587 1.503 1_565 S
C595 C594 1.370 . S
C595 C596 1.403 . S
C596 C595 1.403 . S
C596 C597 1.404 . S
C596 C599 1.539 . S
C597 C593 1.408 . S
C597 C596 1.404 . S
C597 H609 0.930 . S
C598 C594 1.524 1_545 S
C598 H610 0.956 . S
C598 H611 0.961 . S
C598 H612 0.961 . S
C599 C596 1.539 . S
C599 H613 0.958 . S
C599 H614 0.961 . S
C599 H615 0.960 . S
H600 C584 0.931 . S
H601 C589 0.929 . S
H602 C590 0.960 . S
H603 C590 0.962 . S
H604 C590 0.960 . S
H605 C591 0.961 . S
H606 C591 0.961 . S
H607 C591 0.961 . S
H608 C592 0.931 . S
H609 C597 0.930 . S
H610 C598 0.956 . S
H611 C598 0.961 . S
H612 C598 0.961 . S
H613 C599 0.958 . S
H614 C599 0.961 . S
H615 C599 0.960 . S
C616 C617 1.391 . S
C616 C618 1.394 . S
C616 H632 0.931 . S
C617 C616 1.391 . S
C617 C621 1.376 . S
C618 C616 1.394 . S
C618 C619 1.369 . S
C618 C622 1.531 . S
C619 C618 1.369 . S
C619 C620 1.410 . S
C619 C627 1.503 1_565 S
C620 C619 1.410 . S
C620 C621 1.392 . S
C620 C623 1.511 1_565 S
C621 C617 1.376 . S
C621 C620 1.392 . S
C621 H633 0.929 . S
C622 C618 1.531 . S
C622 H634 0.960 . S
C622 H635 0.962 . S
C622 H636 0.960 . S
C623 C620 1.511 1_545 S
C623 H637 0.961 . S
C623 H638 0.961 . S
C623 H639 0.961 . S
C624 C625 1.370 . S
C624 C626 1.363 . S
C624 H640 0.931 . S
C625 C624 1.370 . S
C625 C629 1.408 . S
C626 C624 1.363 . S
C626 C627 1.370 . S
C626 C630 1.524 . S
C627 C619 1.503 1_545 S
C627 C626 1.370 . S
C627 C628 1.403 . S
C628 C627 1.403 . S
C628 C629 1.404 . S
C628 C631 1.539 . S
C629 C625 1.408 . S
C629 C628 1.404 . S
C629 H641 0.930 . S
C630 C626 1.524 . S
C630 H642 0.956 1_545 S
C630 H643 0.961 . S
C630 H644 0.961 . S
C631 C628 1.539 . S
C631 H645 0.958 1_545 S
C631 H646 0.961 . S
C631 H647 0.960 . S
H632 C616 0.931 . S
H633 C621 0.929 . S
H634 C622 0.960 . S
H635 C622 0.962 . S
H636 C622 0.960 . S
H637 C623 0.961 . S
H638 C623 0.961 . S
H639 C623 0.961 . S
H640 C624 0.931 . S
H641 C629 0.930 . S
H642 C630 0.956 1_565 S
H643 C630 0.961 . S
H644 C630 0.961 . S
H645 C631 0.958 1_565 S
H646 C631 0.961 . S
H647 C631 0.960 . S
C648 C649 1.391 . S
C648 C650 1.394 . S
C648 H664 0.931 . S
C649 C648 1.391 . S
C649 C653 1.376 . S
C650 C648 1.394 . S
C650 C651 1.369 . S
C650 C654 1.531 1_565 S
C651 C650 1.369 . S
C651 C652 1.410 . S
C651 C659 1.503 1_565 S
C652 C651 1.410 . S
C652 C653 1.392 . S
C652 C655 1.511 . S
C653 C649 1.376 . S
C653 C652 1.392 . S
C653 H665 0.929 . S
C654 C650 1.531 1_545 S
C654 H666 0.960 . S
C654 H667 0.962 . S
C654 H668 0.960 . S
C655 C652 1.511 . S
C655 H669 0.961 . S
C655 H670 0.961 . S
C655 H671 0.961 . S
C656 C657 1.370 . S
C656 C658 1.363 . S
C656 H672 0.931 . S
C657 C656 1.370 . S
C657 C661 1.408 . S
C658 C656 1.363 . S
C658 C659 1.370 . S
C658 C662 1.524 . S
C659 C651 1.503 1_545 S
C659 C658 1.370 . S
C659 C660 1.403 . S
C660 C659 1.403 . S
C660 C661 1.404 . S
C660 C663 1.539 1_545 S
C661 C657 1.408 . S
C661 C660 1.404 . S
C661 H673 0.930 . S
C662 C658 1.524 . S
C662 H674 0.956 . S
C662 H675 0.961 . S
C662 H676 0.961 . S
C663 C660 1.539 1_565 S
C663 H677 0.958 1_565 S
C663 H678 0.961 . S
C663 H679 0.960 . S
H664 C648 0.931 . S
H665 C653 0.929 . S
H666 C654 0.960 . S
H667 C654 0.962 . S
H668 C654 0.960 . S
H669 C655 0.961 . S
H670 C655 0.961 . S
H671 C655 0.961 . S
H672 C656 0.931 . S
H673 C661 0.930 . S
H674 C662 0.956 . S
H675 C662 0.961 . S
H676 C662 0.961 . S
H677 C663 0.958 1_545 S
H678 C663 0.961 . S
H679 C663 0.960 . S
C680 C681 1.391 . S
C680 C682 1.394 . S
C680 H696 0.931 . S
C681 C680 1.391 . S
C681 C685 1.376 . S
C682 C680 1.394 . S
C682 C683 1.369 . S
C682 C686 1.531 . S
C683 C682 1.369 . S
C683 C684 1.410 . S
C683 C691 1.503 . S
C684 C683 1.410 . S
C684 C685 1.392 . S
C684 C687 1.511 . S
C685 C681 1.376 . S
C685 C684 1.392 . S
C685 H697 0.929 . S
C686 C682 1.531 . S
C686 H698 0.960 . S
C686 H699 0.962 . S
C686 H700 0.960 . S
C687 C684 1.511 . S
C687 H701 0.961 . S
C687 H702 0.961 . S
C687 H703 0.961 . S
C688 C689 1.370 . S
C688 C690 1.363 . S
C688 H704 0.931 . S
C689 C688 1.370 . S
C689 C693 1.408 . S
C690 C688 1.363 . S
C690 C691 1.370 . S
C690 C694 1.524 . S
C691 C683 1.503 . S
C691 C690 1.370 . S
C691 C692 1.403 . S
C692 C691 1.403 . S
C692 C693 1.404 . S
C692 C695 1.539 . S
C693 C689 1.408 . S
C693 C692 1.404 . S
C693 H705 0.930 . S
C694 C690 1.524 . S
C694 H706 0.956 . S
C694 H707 0.961 . S
C694 H708 0.961 . S
C695 C692 1.539 . S
C695 H709 0.958 . S
C695 H710 0.961 . S
C695 H711 0.960 . S
H696 C680 0.931 . S
H697 C685 0.929 . S
H698 C686 0.960 . S
H699 C686 0.962 . S
H700 C686 0.960 . S
H701 C687 0.961 . S
H702 C687 0.961 . S
H703 C687 0.961 . S
H704 C688 0.931 . S
H705 C693 0.930 . S
H706 C694 0.956 . S
H707 C694 0.961 . S
H708 C694 0.961 . S
H709 C695 0.958 . S
H710 C695 0.961 . S
H711 C695 0.960 . S
C712 C713 1.391 . S
C712 C714 1.394 . S
C712 H728 0.931 . S
C713 C712 1.391 . S
C713 C717 1.376 . S
C714 C712 1.394 . S
C714 C715 1.369 . S
C714 C718 1.531 . S
C715 C714 1.369 . S
C715 C716 1.410 . S
C715 C723 1.503 . S
C716 C715 1.410 . S
C716 C717 1.392 . S
C716 C719 1.511 . S
C717 C713 1.376 . S
C717 C716 1.392 . S
C717 H729 0.929 . S
C718 C714 1.531 . S
C718 H730 0.960 . S
C718 H731 0.962 . S
C718 H732 0.960 . S
C719 C716 1.511 . S
C719 H733 0.961 . S
C719 H734 0.961 . S
C719 H735 0.961 . S
C720 C721 1.370 . S
C720 C722 1.363 . S
C720 H736 0.931 . S
C721 C720 1.370 . S
C721 C725 1.408 . S
C722 C720 1.363 . S
C722 C723 1.370 . S
C722 C726 1.524 . S
C723 C715 1.503 . S
C723 C722 1.370 . S
C723 C724 1.403 . S
C724 C723 1.403 . S
C724 C725 1.404 . S
C724 C727 1.539 . S
C725 C721 1.408 . S
C725 C724 1.404 . S
C725 H737 0.930 . S
C726 C722 1.524 . S
C726 H738 0.956 . S
C726 H739 0.961 . S
C726 H740 0.961 . S
C727 C724 1.539 . S
C727 H741 0.958 . S
C727 H742 0.961 . S
C727 H743 0.960 . S
H728 C712 0.931 . S
H729 C717 0.929 . S
H730 C718 0.960 . S
H731 C718 0.962 . S
H732 C718 0.960 . S
H733 C719 0.961 . S
H734 C719 0.961 . S
H735 C719 0.961 . S
H736 C720 0.931 . S
H737 C725 0.930 . S
H738 C726 0.956 . S
H739 C726 0.961 . S
H740 C726 0.961 . S
H741 C727 0.958 . S
H742 C727 0.961 . S
H743 C727 0.960 . S
C744 C745 1.391 . S
C744 C746 1.394 . S
C744 H760 0.931 . S
C745 C744 1.391 . S
C745 C749 1.376 . S
C746 C744 1.394 . S
C746 C747 1.369 . S
C746 C750 1.531 . S
C747 C746 1.369 . S
C747 C748 1.410 . S
C747 C755 1.503 . S
C748 C747 1.410 . S
C748 C749 1.392 . S
C748 C751 1.511 . S
C749 C745 1.376 . S
C749 C748 1.392 . S
C749 H761 0.929 . S
C750 C746 1.531 . S
C750 H762 0.960 . S
C750 H763 0.962 . S
C750 H764 0.960 . S
C751 C748 1.511 . S
C751 H765 0.961 . S
C751 H766 0.961 . S
C751 H767 0.961 . S
C752 C753 1.370 . S
C752 C754 1.363 . S
C752 H768 0.931 . S
C753 C752 1.370 . S
C753 C757 1.408 . S
C754 C752 1.363 . S
C754 C755 1.370 . S
C754 C758 1.524 . S
C755 C747 1.503 . S
C755 C754 1.370 . S
C755 C756 1.403 . S
C756 C755 1.403 . S
C756 C757 1.404 . S
C756 C759 1.539 . S
C757 C753 1.408 . S
C757 C756 1.404 . S
C757 H769 0.930 . S
C758 C754 1.524 . S
C758 H770 0.956 . S
C758 H771 0.961 . S
C758 H772 0.961 . S
C759 C756 1.539 . S
C759 H773 0.958 . S
C759 H774 0.961 . S
C759 H775 0.960 . S
H760 C744 0.931 . S
H761 C749 0.929 . S
H762 C750 0.960 . S
H763 C750 0.962 . S
H764 C750 0.960 . S
H765 C751 0.961 . S
H766 C751 0.961 . S
H767 C751 0.961 . S
H768 C752 0.931 . S
H769 C757 0.930 . S
H770 C758 0.956 . S
H771 C758 0.961 . S
H772 C758 0.961 . S
H773 C759 0.958 . S
H774 C759 0.961 . S
H775 C759 0.960 . S
C776 C777 1.391 . S
C776 C778 1.394 . S
C776 H792 0.931 . S
C777 C776 1.391 . S
C777 C781 1.376 . S
C778 C776 1.394 . S
C778 C779 1.369 . S
C778 C782 1.531 . S
C779 C778 1.369 . S
C779 C780 1.410 . S
C779 C787 1.503 . S
C780 C779 1.410 . S
C780 C781 1.392 . S
C780 C783 1.511 . S
C781 C777 1.376 . S
C781 C780 1.392 . S
C781 H793 0.929 . S
C782 C778 1.531 . S
C782 H794 0.960 . S
C782 H795 0.962 . S
C782 H796 0.960 . S
C783 C780 1.511 . S
C783 H797 0.961 . S
C783 H798 0.961 . S
C783 H799 0.961 . S
C784 C785 1.370 . S
C784 C786 1.363 . S
C784 H800 0.931 . S
C785 C784 1.370 . S
C785 C789 1.408 . S
C786 C784 1.363 . S
C786 C787 1.370 . S
C786 C790 1.524 . S
C787 C779 1.503 . S
C787 C786 1.370 . S
C787 C788 1.403 . S
C788 C787 1.403 . S
C788 C789 1.404 . S
C788 C791 1.539 . S
C789 C785 1.408 . S
C789 C788 1.404 . S
C789 H801 0.930 . S
C790 C786 1.524 . S
C790 H802 0.956 . S
C790 H803 0.961 . S
C790 H804 0.961 . S
C791 C788 1.539 . S
C791 H805 0.958 . S
C791 H806 0.961 . S
C791 H807 0.960 . S
H792 C776 0.931 . S
H793 C781 0.929 . S
H794 C782 0.960 . S
H795 C782 0.962 . S
H796 C782 0.960 . S
H797 C783 0.961 . S
H798 C783 0.961 . S
H799 C783 0.961 . S
H800 C784 0.931 . S
H801 C789 0.930 . S
H802 C790 0.956 . S
H803 C790 0.961 . S
H804 C790 0.961 . S
H805 C791 0.958 . S
H806 C791 0.961 . S
H807 C791 0.960 . S
C808 C809 1.391 . S
C808 C810 1.394 . S
C808 H824 0.931 . S
C809 C808 1.391 . S
C809 C813 1.376 . S
C810 C808 1.394 . S
C810 C811 1.369 . S
C810 C814 1.531 . S
C811 C810 1.369 . S
C811 C812 1.410 . S
C811 C819 1.503 . S
C812 C811 1.410 . S
C812 C813 1.392 . S
C812 C815 1.511 . S
C813 C809 1.376 . S
C813 C812 1.392 . S
C813 H825 0.929 . S
C814 C810 1.531 . S
C814 H826 0.960 . S
C814 H827 0.962 . S
C814 H828 0.960 . S
C815 C812 1.511 . S
C815 H829 0.961 . S
C815 H830 0.961 . S
C815 H831 0.961 . S
C816 C817 1.370 . S
C816 C818 1.363 . S
C816 H832 0.931 . S
C817 C816 1.370 . S
C817 C821 1.408 . S
C818 C816 1.363 . S
C818 C819 1.370 . S
C818 C822 1.524 . S
C819 C811 1.503 . S
C819 C818 1.370 . S
C819 C820 1.403 . S
C820 C819 1.403 . S
C820 C821 1.404 . S
C820 C823 1.539 . S
C821 C817 1.408 . S
C821 C820 1.404 . S
C821 H833 0.930 . S
C822 C818 1.524 . S
C822 H834 0.956 . S
C822 H835 0.961 . S
C822 H836 0.961 . S
C823 C820 1.539 . S
C823 H837 0.958 . S
C823 H838 0.961 . S
C823 H839 0.960 . S
H824 C808 0.931 . S
H825 C813 0.929 . S
H826 C814 0.960 . S
H827 C814 0.962 . S
H828 C814 0.960 . S
H829 C815 0.961 . S
H830 C815 0.961 . S
H831 C815 0.961 . S
H832 C816 0.931 . S
H833 C821 0.930 . S
H834 C822 0.956 . S
H835 C822 0.961 . S
H836 C822 0.961 . S
H837 C823 0.958 . S
H838 C823 0.961 . S
H839 C823 0.960 . S
C840 C841 1.391 . S
C840 C842 1.394 . S
C840 H856 0.931 . S
C841 C840 1.391 . S
C841 C845 1.376 . S
C842 C840 1.394 . S
C842 C843 1.369 . S
C842 C846 1.531 . S
C843 C842 1.369 . S
C843 C844 1.410 . S
C843 C851 1.503 . S
C844 C843 1.410 . S
C844 C845 1.392 . S
C844 C847 1.511 . S
C845 C841 1.376 . S
C845 C844 1.392 . S
C845 H857 0.929 . S
C846 C842 1.531 . S
C846 H858 0.960 . S
C846 H859 0.962 . S
C846 H860 0.960 . S
C847 C844 1.511 . S
C847 H861 0.961 . S
C847 H862 0.961 . S
C847 H863 0.961 . S
C848 C849 1.370 . S
C848 C850 1.363 . S
C848 H864 0.931 . S
C849 C848 1.370 . S
C849 C853 1.408 . S
C850 C848 1.363 . S
C850 C851 1.370 . S
C850 C854 1.524 . S
C851 C843 1.503 . S
C851 C850 1.370 . S
C851 C852 1.403 . S
C852 C851 1.403 . S
C852 C853 1.404 . S
C852 C855 1.539 . S
C853 C849 1.408 . S
C853 C852 1.404 . S
C853 H865 0.930 . S
C854 C850 1.524 . S
C854 H866 0.956 . S
C854 H867 0.961 . S
C854 H868 0.961 . S
C855 C852 1.539 . S
C855 H869 0.958 . S
C855 H870 0.961 . S
C855 H871 0.960 . S
H856 C840 0.931 . S
H857 C845 0.929 . S
H858 C846 0.960 . S
H859 C846 0.962 . S
H860 C846 0.960 . S
H861 C847 0.961 . S
H862 C847 0.961 . S
H863 C847 0.961 . S
H864 C848 0.931 . S
H865 C853 0.930 . S
H866 C854 0.956 . S
H867 C854 0.961 . S
H868 C854 0.961 . S
H869 C855 0.958 . S
H870 C855 0.961 . S
H871 C855 0.960 . S
C872 C873 1.391 . S
C872 C874 1.394 . S
C872 H888 0.931 . S
C873 C872 1.391 . S
C873 C877 1.376 . S
C874 C872 1.394 . S
C874 C875 1.369 . S
C874 C878 1.531 . S
C875 C874 1.369 . S
C875 C876 1.410 . S
C875 C883 1.503 . S
C876 C875 1.410 . S
C876 C877 1.392 . S
C876 C879 1.511 . S
C877 C873 1.376 . S
C877 C876 1.392 . S
C877 H889 0.929 . S
C878 C874 1.531 . S
C878 H890 0.960 . S
C878 H891 0.962 . S
C878 H892 0.960 . S
C879 C876 1.511 . S
C879 H893 0.961 . S
C879 H894 0.961 . S
C879 H895 0.961 . S
C880 C881 1.370 . S
C880 C882 1.363 . S
C880 H896 0.931 . S
C881 C880 1.370 . S
C881 C885 1.408 . S
C882 C880 1.363 . S
C882 C883 1.370 . S
C882 C886 1.524 . S
C883 C875 1.503 . S
C883 C882 1.370 . S
C883 C884 1.403 . S
C884 C883 1.403 . S
C884 C885 1.404 . S
C884 C887 1.539 . S
C885 C881 1.408 . S
C885 C884 1.404 . S
C885 H897 0.930 . S
C886 C882 1.524 . S
C886 H898 0.956 . S
C886 H899 0.961 . S
C886 H900 0.961 . S
C887 C884 1.539 . S
C887 H901 0.958 . S
C887 H902 0.961 . S
C887 H903 0.960 . S
H888 C872 0.931 . S
H889 C877 0.929 . S
H890 C878 0.960 . S
H891 C878 0.962 . S
H892 C878 0.960 . S
H893 C879 0.961 . S
H894 C879 0.961 . S
H895 C879 0.961 . S
H896 C880 0.931 . S
H897 C885 0.930 . S
H898 C886 0.956 . S
H899 C886 0.961 . S
H900 C886 0.961 . S
H901 C887 0.958 . S
H902 C887 0.961 . S
H903 C887 0.960 . S
C904 C905 1.391 . S
C904 C906 1.394 . S
C904 H920 0.931 . S
C905 C904 1.391 . S
C905 C909 1.376 . S
C906 C904 1.394 . S
C906 C907 1.369 . S
C906 C910 1.531 . S
C907 C906 1.369 . S
C907 C908 1.410 . S
C907 C915 1.503 . S
C908 C907 1.410 . S
C908 C909 1.392 . S
C908 C911 1.511 . S
C909 C905 1.376 . S
C909 C908 1.392 . S
C909 H921 0.929 . S
C910 C906 1.531 . S
C910 H922 0.960 . S
C910 H923 0.962 . S
C910 H924 0.960 . S
C911 C908 1.511 . S
C911 H925 0.961 . S
C911 H926 0.961 . S
C911 H927 0.961 . S
C912 C913 1.370 . S
C912 C914 1.363 . S
C912 H928 0.931 . S
C913 C912 1.370 . S
C913 C917 1.408 . S
C914 C912 1.363 . S
C914 C915 1.370 . S
C914 C918 1.524 . S
C915 C907 1.503 . S
C915 C914 1.370 . S
C915 C916 1.403 . S
C916 C915 1.403 . S
C916 C917 1.404 . S
C916 C919 1.539 . S
C917 C913 1.408 . S
C917 C916 1.404 . S
C917 H929 0.930 . S
C918 C914 1.524 . S
C918 H930 0.956 . S
C918 H931 0.961 . S
C918 H932 0.961 . S
C919 C916 1.539 . S
C919 H933 0.958 . S
C919 H934 0.961 . S
C919 H935 0.960 . S
H920 C904 0.931 . S
H921 C909 0.929 . S
H922 C910 0.960 . S
H923 C910 0.962 . S
H924 C910 0.960 . S
H925 C911 0.961 . S
H926 C911 0.961 . S
H927 C911 0.961 . S
H928 C912 0.931 . S
H929 C917 0.930 . S
H930 C918 0.956 . S
H931 C918 0.961 . S
H932 C918 0.961 . S
H933 C919 0.958 . S
H934 C919 0.961 . S
H935 C919 0.960 . S
C169 C19 1.390 . S
C177 C103 1.449 . S
C201 C124 1.459 . S
C209 C41 1.424 . S
C233 C61 1.462 . S
C241 C146 1.409 . S
C265 C82 1.419 . S
C273 C167 1.441 . S
C297 C83 1.384 . S
C305 C166 1.440 . S
C329 C125 1.440 . S
C337 C40 1.415 . S
C361 C145 1.469 . S
C369 C62 1.408 . S
C393 C20 1.468 . S
C401 C104 1.408 . S
C425 C109 1.265 . S
C433 C4 1.234 . S
C457 C28 1.271 . S
C465 C133 1.237 . S
C489 C154 1.150 . S
C497 C46 1.187 . S
C521 C88 1.248 . S
C529 C67 1.228 . S
C553 C87 1.203 . S
C561 C79 1.189 . S
C585 C150 1.141 . S
C593 C45 1.186 . S
C617 C24 1.214 . S
C625 C142 1.158 . S
C649 C121 1.094 . S
C657 C3 1.158 . S
C681 C151 1.268 . S
C689 C49 1.239 . S
C713 C91 1.244 . S
C721 C70 1.227 . S
C745 C112 1.232 . S
C753 C7 1.224 . S
C777 C25 1.149 . S
C785 C130 1.189 . S
C809 C129 1.100 . S
C817 C37 1.164 . S
C841 C16 1.161 . S
C849 C108 1.188 . S
C873 C100 1.149 . S
C881 C66 1.186 . S
C905 C163 1.221 . S
C913 C58 1.180 . S
