# Generated by pormake.
# Topology lcy-a-x, (5)-cn, num edge types: 1
# Building blocks:
#     Node 0, Type 0, BuildingBlock: BEQFEK_clean_sbu_0, # of connection points: 5
#     Node 1, Type 0, BuildingBlock: BEQFEK_clean_sbu_0, # of connection points: 5
#     Node 2, Type 0, BuildingBlock: BEQFEK_clean_sbu_0, # of connection points: 5
#     Node 3, Type 0, BuildingBlock: BEQFEK_clean_sbu_0, # of connection points: 5
#     Node 4, Type 0, BuildingBlock: BEQFEK_clean_sbu_0, # of connection points: 5
#     Node 5, Type 0, BuildingBlock: BEQFEK_clean_sbu_0, # of connection points: 5
#     Node 6, Type 0, BuildingBlock: BEQFEK_clean_sbu_0, # of connection points: 5
#     Node 7, Type 0, BuildingBlock: BEQFEK_clean_sbu_0, # of connection points: 5
#     Node 8, Type 0, BuildingBlock: BEQFEK_clean_sbu_0, # of connection points: 5
#     Node 9, Type 0, BuildingBlock: BEQFEK_clean_sbu_0, # of connection points: 5
#     Node 10, Type 0, BuildingBlock: BEQFEK_clean_sbu_0, # of connection points: 5
#     Node 11, Type 0, BuildingBlock: BEQFEK_clean_sbu_0, # of connection points: 5
#     Node 12, Type 0, BuildingBlock: BEQFEK_clean_sbu_0, # of connection points: 5
#     Node 13, Type 0, BuildingBlock: BEQFEK_clean_sbu_0, # of connection points: 5
#     Node 14, Type 0, BuildingBlock: BEQFEK_clean_sbu_0, # of connection points: 5
#     Node 15, Type 0, BuildingBlock: BEQFEK_clean_sbu_0, # of connection points: 5
#     Node 16, Type 0, BuildingBlock: BEQFEK_clean_sbu_0, # of connection points: 5
#     Node 17, Type 0, BuildingBlock: BEQFEK_clean_sbu_0, # of connection points: 5
#     Node 18, Type 0, BuildingBlock: BEQFEK_clean_sbu_0, # of connection points: 5
#     Node 19, Type 0, BuildingBlock: BEQFEK_clean_sbu_0, # of connection points: 5
#     Node 20, Type 0, BuildingBlock: BEQFEK_clean_sbu_0, # of connection points: 5
#     Node 21, Type 0, BuildingBlock: BEQFEK_clean_sbu_0, # of connection points: 5
#     Node 22, Type 0, BuildingBlock: BEQFEK_clean_sbu_0, # of connection points: 5
#     Node 23, Type 0, BuildingBlock: BEQFEK_clean_sbu_0, # of connection points: 5
#     Edge 24, Type (0, 0), BuildingBlock: TEMPAE_clean_linker_10, # of connection points: 2
#     Edge 25, Type (0, 0), BuildingBlock: TEMPAE_clean_linker_10, # of connection points: 2
#     Edge 26, Type (0, 0), BuildingBlock: TEMPAE_clean_linker_10, # of connection points: 2
#     Edge 27, Type (0, 0), BuildingBlock: TEMPAE_clean_linker_10, # of connection points: 2
#     Edge 28, Type (0, 0), BuildingBlock: TEMPAE_clean_linker_10, # of connection points: 2
#     Edge 29, Type (0, 0), BuildingBlock: TEMPAE_clean_linker_10, # of connection points: 2
#     Edge 30, Type (0, 0), BuildingBlock: TEMPAE_clean_linker_10, # of connection points: 2
#     Edge 31, Type (0, 0), BuildingBlock: TEMPAE_clean_linker_10, # of connection points: 2
#     Edge 32, Type (0, 0), BuildingBlock: TEMPAE_clean_linker_10, # of connection points: 2
#     Edge 33, Type (0, 0), BuildingBlock: TEMPAE_clean_linker_10, # of connection points: 2
#     Edge 34, Type (0, 0), BuildingBlock: TEMPAE_clean_linker_10, # of connection points: 2
#     Edge 35, Type (0, 0), BuildingBlock: TEMPAE_clean_linker_10, # of connection points: 2
#     Edge 36, Type (0, 0), BuildingBlock: TEMPAE_clean_linker_10, # of connection points: 2
#     Edge 37, Type (0, 0), BuildingBlock: TEMPAE_clean_linker_10, # of connection points: 2
#     Edge 38, Type (0, 0), BuildingBlock: TEMPAE_clean_linker_10, # of connection points: 2
#     Edge 39, Type (0, 0), BuildingBlock: TEMPAE_clean_linker_10, # of connection points: 2
#     Edge 40, Type (0, 0), BuildingBlock: TEMPAE_clean_linker_10, # of connection points: 2
#     Edge 41, Type (0, 0), BuildingBlock: TEMPAE_clean_linker_10, # of connection points: 2
#     Edge 42, Type (0, 0), BuildingBlock: TEMPAE_clean_linker_10, # of connection points: 2
#     Edge 43, Type (0, 0), BuildingBlock: TEMPAE_clean_linker_10, # of connection points: 2
#     Edge 44, Type (0, 0), BuildingBlock: TEMPAE_clean_linker_10, # of connection points: 2
#     Edge 45, Type (0, 0), BuildingBlock: TEMPAE_clean_linker_10, # of connection points: 2
#     Edge 46, Type (0, 0), BuildingBlock: TEMPAE_clean_linker_10, # of connection points: 2
#     Edge 47, Type (0, 0), BuildingBlock: TEMPAE_clean_linker_10, # of connection points: 2
#     Edge 48, Type (0, 0), BuildingBlock: TEMPAE_clean_linker_10, # of connection points: 2
#     Edge 49, Type (0, 0), BuildingBlock: TEMPAE_clean_linker_10, # of connection points: 2
#     Edge 50, Type (0, 0), BuildingBlock: TEMPAE_clean_linker_10, # of connection points: 2
#     Edge 51, Type (0, 0), BuildingBlock: TEMPAE_clean_linker_10, # of connection points: 2
#     Edge 52, Type (0, 0), BuildingBlock: TEMPAE_clean_linker_10, # of connection points: 2
#     Edge 53, Type (0, 0), BuildingBlock: TEMPAE_clean_linker_10, # of connection points: 2
#     Edge 54, Type (0, 0), BuildingBlock: TEMPAE_clean_linker_10, # of connection points: 2
#     Edge 55, Type (0, 0), BuildingBlock: TEMPAE_clean_linker_10, # of connection points: 2
#     Edge 56, Type (0, 0), BuildingBlock: TEMPAE_clean_linker_10, # of connection points: 2
#     Edge 57, Type (0, 0), BuildingBlock: TEMPAE_clean_linker_10, # of connection points: 2
#     Edge 58, Type (0, 0), BuildingBlock: TEMPAE_clean_linker_10, # of connection points: 2
#     Edge 59, Type (0, 0), BuildingBlock: TEMPAE_clean_linker_10, # of connection points: 2
#     Edge 60, Type (0, 0), BuildingBlock: TEMPAE_clean_linker_10, # of connection points: 2
#     Edge 61, Type (0, 0), BuildingBlock: TEMPAE_clean_linker_10, # of connection points: 2
#     Edge 62, Type (0, 0), BuildingBlock: TEMPAE_clean_linker_10, # of connection points: 2
#     Edge 63, Type (0, 0), BuildingBlock: TEMPAE_clean_linker_10, # of connection points: 2
#     Edge 64, Type (0, 0), BuildingBlock: TEMPAE_clean_linker_10, # of connection points: 2
#     Edge 65, Type (0, 0), BuildingBlock: TEMPAE_clean_linker_10, # of connection points: 2
#     Edge 66, Type (0, 0), BuildingBlock: TEMPAE_clean_linker_10, # of connection points: 2
#     Edge 67, Type (0, 0), BuildingBlock: TEMPAE_clean_linker_10, # of connection points: 2
#     Edge 68, Type (0, 0), BuildingBlock: TEMPAE_clean_linker_10, # of connection points: 2
#     Edge 69, Type (0, 0), BuildingBlock: TEMPAE_clean_linker_10, # of connection points: 2
#     Edge 70, Type (0, 0), BuildingBlock: TEMPAE_clean_linker_10, # of connection points: 2
#     Edge 71, Type (0, 0), BuildingBlock: TEMPAE_clean_linker_10, # of connection points: 2
#     Edge 72, Type (0, 0), BuildingBlock: TEMPAE_clean_linker_10, # of connection points: 2
#     Edge 73, Type (0, 0), BuildingBlock: TEMPAE_clean_linker_10, # of connection points: 2
#     Edge 74, Type (0, 0), BuildingBlock: TEMPAE_clean_linker_10, # of connection points: 2
#     Edge 75, Type (0, 0), BuildingBlock: TEMPAE_clean_linker_10, # of connection points: 2
#     Edge 76, Type (0, 0), BuildingBlock: TEMPAE_clean_linker_10, # of connection points: 2
#     Edge 77, Type (0, 0), BuildingBlock: TEMPAE_clean_linker_10, # of connection points: 2
#     Edge 78, Type (0, 0), BuildingBlock: TEMPAE_clean_linker_10, # of connection points: 2
#     Edge 79, Type (0, 0), BuildingBlock: TEMPAE_clean_linker_10, # of connection points: 2
#     Edge 80, Type (0, 0), BuildingBlock: TEMPAE_clean_linker_10, # of connection points: 2
#     Edge 81, Type (0, 0), BuildingBlock: TEMPAE_clean_linker_10, # of connection points: 2
#     Edge 82, Type (0, 0), BuildingBlock: TEMPAE_clean_linker_10, # of connection points: 2
#     Edge 83, Type (0, 0), BuildingBlock: TEMPAE_clean_linker_10, # of connection points: 2
# Relax obj value: 1.259
# Max RMSD: 0.181
# Mean RMSD: 0.181
data_MOF--net-lcy-a-x--node1-BEQFEK_clean_sbu_0--edge1-TEMPAE_clean_linker_10
_symmetry_space_group_name_H-M    P1
_symmetry_Int_Tables_number       1
_symmetry_cell_setting            triclinic
loop_
_symmetry_equiv_pos_as_xyz
'x, y, z'
_cell_length_a     53.245848
_cell_length_b     53.240047
_cell_length_c     53.182846
_cell_angle_alpha  90.016487
_cell_angle_beta   89.99774
_cell_angle_gamma 90.031715
loop_
_atom_site_label
_atom_site_type_symbol
_atom_site_fract_x
_atom_site_fract_y
_atom_site_fract_z
_atom_type_partial_charge
Co0 Co 0.02447 0.99374 0.76455 0.0
Co1 Co 0.04142 0.01276 0.7112 0.0
C2 C 0.98726 0.00775 0.72487 0.0
O3 O 0.99278 0.00021 0.74676 0.0
O4 O 0.00428 0.01406 0.70946 0.0
C5 C -0.00277 0.00275 0.80685 0.0
O6 O -0.00101 0.02512 0.79656 0.0
C7 C 0.04471 0.05514 0.67757 0.0
C8 C 0.06965 0.04197 0.6472 0.0
C9 C 0.05552 0.06256 0.6549 0.0
N10 N 0.05224 0.03162 0.68281 0.0
N11 N 0.06725 0.02383 0.66468 0.0
C12 C 0.02714 0.06959 0.69418 0.0
H13 H 0.01157 0.0777 0.68293 0.0
H14 H 0.0194 0.05759 0.70927 0.0
H15 H 0.03755 0.08502 0.70354 0.0
C16 C 0.06112 0.03355 0.78053 0.0
N17 N 0.04793 0.02038 0.76328 0.0
N18 N 0.05642 0.02607 0.74078 0.0
C19 C 0.07606 0.04172 0.74312 0.0
C20 C 0.07946 0.04757 0.76831 0.0
C21 C 0.05666 0.03273 0.80826 0.0
H22 H 0.0508 0.0136 0.81405 0.0
H23 H 0.04148 0.04613 0.81314 0.0
H24 H 0.07387 0.03832 0.81865 0.0
O25 O 0.03901 0.96419 0.74717 0.0
O26 O 0.04953 0.97697 0.70843 0.0
H27 H 0.0943 0.0353 0.70781 0.0
H28 H 0.11018 0.05761 0.72741 0.0
C29 C 0.09149 0.0508 0.72142 0.0
H30 H 0.08151 0.06629 0.71188 0.0
H31 H 0.07551 0.00608 0.66405 0.0
O32 O 0.01147 0.98548 0.79849 0.0
C33 C 0.04744 0.95985 0.72506 0.0
Co34 Co 0.27397 0.79608 0.02985 0.0
Co35 Co 0.25334 0.83046 0.98619 0.0
C36 C 0.26779 0.7768 0.97767 0.0
O37 O 0.27327 0.77362 0.00058 0.0
O38 O 0.26009 0.79789 0.96983 0.0
C39 C 0.26951 0.75155 0.0553 0.0
O40 O 0.24914 0.75233 0.04136 0.0
C41 C 0.21605 0.83579 0.94851 0.0
C42 C 0.22185 0.87323 0.93168 0.0
C43 C 0.20774 0.8514 0.92944 0.0
N44 N 0.23443 0.84748 0.96113 0.0
N45 N 0.2379 0.86992 0.95109 0.0
C46 C 0.20596 0.81047 0.95569 0.0
H47 H 0.20965 0.80654 0.97583 0.0
H48 H 0.18546 0.80937 0.95206 0.0
H49 H 0.21552 0.79576 0.94445 0.0
C50 C 0.22523 0.81236 0.05307 0.0
N51 N 0.24262 0.81269 0.03462 0.0
N52 N 0.23486 0.82777 0.01661 0.0
C53 C 0.2127 0.83787 0.02327 0.0
C54 C 0.20532 0.82793 0.04621 0.0
C55 C 0.22661 0.79566 0.07567 0.0
H56 H 0.2463 0.79054 0.07975 0.0
H57 H 0.21544 0.7784 0.07219 0.0
H58 H 0.2189 0.80509 0.09251 0.0
O59 O 0.30089 0.82139 0.02341 0.0
O60 O 0.28602 0.8458 0.99258 0.0
H61 H 0.1848 0.86709 0.01984 0.0
H62 H 0.18856 0.84752 0.9925 0.0
C63 C 0.19871 0.85696 0.00804 0.0
H64 H 0.21208 0.87066 -0.00018 0.0
H65 H 0.2515 0.88273 0.95711 0.0
O66 O 0.28319 0.77117 0.05642 0.0
C67 C 0.30331 0.83971 0.008 0.0
Co68 Co 0.55593 0.06795 0.29053 0.0
Co69 Co 0.52903 0.03652 0.24819 0.0
C70 C 0.57785 0.06103 0.2387 0.0
O71 O 0.57877 0.06962 0.2609 0.0
O72 O 0.55962 0.0477 0.23132 0.0
C73 C 0.59705 0.06253 0.31869 0.0
O74 O 0.59485 0.04225 0.30477 0.0
C75 C 0.52649 -0.00394 0.21285 0.0
C76 C 0.48789 -0.00198 0.19784 0.0
C77 C 0.51059 0.98544 0.19507 0.0
N78 N 0.51391 0.01409 0.22512 0.0
N79 N 0.49079 0.01518 0.21623 0.0
C80 C 0.553 0.98904 0.21912 0.0
H81 H 0.55739 0.9942 0.23886 0.0
H82 H 0.55608 0.96861 0.21638 0.0
H83 H 0.56605 -0.00035 0.20679 0.0
C84 C 0.54097 0.02247 0.31987 0.0
N85 N 0.54399 0.0349 0.29793 0.0
N86 N 0.53372 0.02162 0.27974 0.0
C87 C 0.52369 0.00061 0.28947 0.0
C88 C 0.52799 0.00049 0.3151 0.0
C89 C 0.54838 0.03232 0.34513 0.0
H90 H 0.54734 0.05312 0.34537 0.0
H91 H 0.56799 0.02657 0.34918 0.0
H92 H 0.5361 0.02444 0.36005 0.0
O93 O 0.52577 0.08965 0.28291 0.0
O94 O 0.50788 0.06564 0.25337 0.0
H95 H 0.49317 0.99209 0.26468 0.0
H96 H 0.4997 0.96776 0.28722 0.0
C97 C 0.50832 0.98209 0.27488 0.0
H98 H 0.52041 0.97248 0.26092 0.0
H99 H 0.47726 0.02803 0.22223 0.0
O100 O 0.57979 0.07908 0.31748 0.0
C101 C 0.50802 0.0852 0.26717 0.0
Co102 Co 0.21851 0.31162 0.50598 0.0
Co103 Co 0.24556 0.28279 0.46149 0.0
C104 C 0.20965 0.32326 0.45061 0.0
O105 O 0.20448 0.32511 0.47385 0.0
O106 O 0.22645 0.30823 0.44288 0.0
C107 C 0.21495 0.35993 0.5228 0.0
O108 O 0.22266 0.3616 0.49942 0.0
C109 C 0.27888 0.27588 0.41906 0.0
C110 C 0.29117 0.23643 0.42267 0.0
C111 C 0.29523 0.25828 0.40911 0.0
N112 N 0.26635 0.26526 0.43819 0.0
N113 N 0.27336 0.24152 0.43999 0.0
C114 C 0.27464 0.30234 0.41053 0.0
H115 H 0.25516 0.30385 0.40342 0.0
H116 H 0.2766 0.31537 0.42671 0.0
H117 H 0.2874 0.30802 0.3951 0.0
C118 C 0.27118 0.31334 0.52387 0.0
N119 N 0.25407 0.30842 0.50579 0.0
N120 N 0.26541 0.29734 0.4868 0.0
C121 C 0.29005 0.29523 0.49204 0.0
C122 C 0.29436 0.305 0.51572 0.0
C123 C 0.26513 0.32355 0.54934 0.0
H124 H 0.24668 0.31636 0.5558 0.0
H125 H 0.2642 0.34432 0.54813 0.0
H126 H 0.27986 0.31849 0.56321 0.0
O127 O 0.20335 0.27762 0.51023 0.0
O128 O 0.22205 0.25912 0.47746 0.0
H129 H 0.30519 0.263 0.4734 0.0
H130 H 0.32855 0.28581 0.48241 0.0
C131 C 0.30917 0.28335 0.47517 0.0
H132 H 0.30823 0.29214 0.45636 0.0
H133 H 0.26681 0.22911 0.4537 0.0
O134 O 0.2106 0.33818 0.53188 0.0
C135 C 0.20697 0.25845 0.4961 0.0
Co136 Co 0.52817 0.5399 0.27615 0.0
Co137 Co 0.57438 0.51533 0.30411 0.0
C138 C 0.52788 0.53222 0.33137 0.0
O139 O 0.51645 0.53769 0.31122 0.0
O140 O 0.55019 0.52395 0.33098 0.0
C141 C 0.47893 0.53508 0.26239 0.0
O142 O 0.48345 0.51496 0.27597 0.0
C143 C 0.5898 0.47238 0.33233 0.0
C144 C 0.62978 0.47889 0.34106 0.0
C145 C 0.60996 0.46251 0.34558 0.0
N146 N 0.59734 0.4933 0.32046 0.0
N147 N 0.62136 0.49704 0.32546 0.0
C148 C 0.56295 0.46382 0.33299 0.0
H149 H 0.5569 0.46054 0.35269 0.0
H150 H 0.55039 0.47767 0.32392 0.0
H151 H 0.561 0.44597 0.32246 0.0
C152 C 0.53613 0.49583 0.2428 0.0
N153 N 0.54131 0.50939 0.26358 0.0
N154 N 0.56067 0.49934 0.27521 0.0
C155 C 0.56842 0.47909 0.26214 0.0
C156 C 0.55309 0.47607 0.24131 0.0
C157 C 0.51478 0.50127 0.22526 0.0
H158 H 0.51242 0.52182 0.22309 0.0
H159 H 0.49727 0.49318 0.23311 0.0
H160 H 0.51764 0.493 0.20642 0.0
O161 O 0.55549 0.56546 0.27574 0.0
O162 O 0.58887 0.54783 0.29445 0.0
H163 H 0.6065 0.47612 0.27509 0.0
H164 H 0.59775 0.45309 0.25167 0.0
C165 C 0.59115 0.46376 0.26835 0.0
H166 H 0.58642 0.45016 0.28339 0.0
H167 H 0.63164 0.51251 0.31924 0.0
O168 O 0.49688 0.55031 0.25814 0.0
C169 C 0.57825 0.56637 0.28353 0.0
Co170 Co 0.78232 0.25705 0.54949 0.0
Co171 Co 0.80158 0.30725 0.57275 0.0
C172 C 0.81019 0.25455 0.59458 0.0
O173 O 0.80496 0.2429 0.57448 0.0
O174 O 0.80832 0.27833 0.59563 0.0
C175 C 0.76143 0.20935 0.54478 0.0
O176 O 0.76393 0.21122 0.56928 0.0
C177 C 0.8491 0.32817 0.58494 0.0
C178 C 0.84082 0.36277 0.60614 0.0
C179 C 0.86037 0.34714 0.59876 0.0
N180 N 0.8243 0.33244 0.58395 0.0
N181 N 0.81938 0.35341 0.59629 0.0
C182 C 0.86106 0.30428 0.57598 0.0
H183 H 0.84682 0.29097 0.56869 0.0
H184 H 0.87441 0.30851 0.56056 0.0
H185 H 0.87171 0.29535 0.59154 0.0
C186 C 0.80729 0.27777 0.50447 0.0
N187 N 0.79933 0.27943 0.52838 0.0
N188 N 0.80653 0.30101 0.53792 0.0
C189 C 0.81853 0.31425 0.52003 0.0
C190 C 0.81983 0.29988 0.49823 0.0
C191 C 0.80589 0.25409 0.48932 0.0
H192 H 0.78977 0.25536 0.47616 0.0
H193 H 0.80323 0.23759 0.50171 0.0
H194 H 0.8232 0.25134 0.47813 0.0
O195 O 0.7554 0.27498 0.56806 0.0
O196 O 0.76614 0.31407 0.57923 0.0
H197 H 0.81643 0.35107 0.53637 0.0
H198 H 0.83103 0.34995 0.50552 0.0
C199 C 0.82894 0.34011 0.5238 0.0
H200 H 0.84767 0.33888 0.53278 0.0
H201 H 0.80135 0.36037 0.59942 0.0
O202 O 0.76729 0.22805 0.5311 0.0
C203 C 0.75029 0.29612 0.57819 0.0
Co204 Co 0.02908 0.48247 0.79656 0.0
Co205 Co 0.99542 0.49198 0.84437 0.0
C206 C 0.05158 0.49324 0.84672 0.0
O207 O 0.05358 0.48947 0.82333 0.0
O208 O 0.03021 0.49416 0.85714 0.0
C209 C 0.06601 0.50023 0.76619 0.0
O210 O 0.06039 0.51933 0.78082 0.0
C211 C 0.98048 0.52808 0.88177 0.0
C212 C 0.95062 0.50904 0.90335 0.0
C213 C 0.96445 0.53113 0.90212 0.0
N214 N 0.97613 0.50549 0.87137 0.0
N215 N 0.95813 0.4942 0.88421 0.0
C216 C 0.00117 0.54534 0.87344 0.0
H217 H 0.01286 0.5366 0.85866 0.0
H218 H 0.99317 0.56269 0.86524 0.0
H219 H 0.013 0.55072 0.88976 0.0
C220 C -0.00361 0.52248 0.77573 0.0
N221 N 0.00385 0.50714 0.7944 0.0
N222 N 0.98936 0.5107 0.81414 0.0
C223 C 0.97205 0.52828 0.80838 0.0
C224 C 0.97633 0.53691 0.78407 0.0
C225 C 0.00801 0.52332 0.75012 0.0
H226 H 0.01369 0.50417 0.74421 0.0
H227 H 0.02496 0.5354 0.75052 0.0
H228 H 0.99465 0.53128 0.73621 0.0
O229 O 0.01269 0.45011 0.80406 0.0
O230 O 0.9888 0.45592 0.83828 0.0
H231 H 0.94666 0.52242 0.83931 0.0
H232 H 0.93513 0.54345 0.81611 0.0
C233 C 0.95226 0.53749 0.82619 0.0
H234 H 0.95949 0.55386 0.83682 0.0
H235 H 0.95147 0.47617 0.88034 0.0
O236 O 0.05181 0.481 0.76686 0.0
C237 C -0.00252 0.44198 0.82079 0.0
Co238 Co 0.81548 0.76979 0.06255 0.0
Co239 Co 0.77554 0.74588 0.09927 0.0
C240 C 0.81065 0.78549 0.11681 0.0
O241 O 0.82169 0.78539 0.09571 0.0
O242 O 0.79147 0.77189 0.12065 0.0
C243 C 0.8316 0.81489 0.04455 0.0
O244 O 0.81595 0.82038 0.0628 0.0
C245 C 0.72847 0.75009 0.12525 0.0
C246 C 0.72046 0.71155 0.13834 0.0
C247 C 0.71101 0.73583 0.13816 0.0
N248 N 0.7471 0.73495 0.11765 0.0
N249 N 0.74229 0.71188 0.12547 0.0
C250 C 0.72826 0.77799 0.1213 0.0
H251 H 0.74675 0.7848 0.11468 0.0
H252 H 0.71417 0.78294 0.1068 0.0
H253 H 0.723 0.7877 0.13901 0.0
C254 C 0.769 0.77717 0.03203 0.0
N255 N 0.78102 0.76986 0.05316 0.0
N256 N 0.76511 0.75772 0.06764 0.0
C257 C 0.74296 0.75567 0.0557 0.0
C258 C 0.74441 0.76845 0.03308 0.0
C259 C 0.78065 0.7931 0.012 0.0
H260 H 0.79828 0.78421 0.00535 0.0
H261 H 0.78539 0.81168 0.02011 0.0
H262 H 0.76792 0.79622 0.99586 0.0
O263 O 0.82717 0.7341 0.06638 0.0
O264 O 0.79965 0.71877 0.09424 0.0
H265 H 0.7293 0.72232 0.07405 0.0
H266 H 0.71085 0.73227 0.04746 0.0
C267 C 0.72186 0.7389 0.0639 0.0
H268 H 0.70898 0.74937 0.07643 0.0
H269 H 0.75397 0.69648 0.12224 0.0
O270 O 0.83492 0.79191 0.03863 0.0
C271 C 0.81913 0.71627 0.08053 0.0
Co272 Co 0.78589 0.03499 0.02043 0.0
Co273 Co 0.75032 0.07383 0.04805 0.0
C274 C 0.72972 0.03114 0.01803 0.0
O275 O 0.75145 0.02303 0.01268 0.0
O276 O 0.72686 0.05044 0.03166 0.0
C277 C 0.7988 0.9861 0.02055 0.0
O278 O 0.78013 0.98866 0.03651 0.0
C279 C 0.71374 0.0805 0.0866 0.0
C280 C 0.70981 0.12147 0.09144 0.0
C281 C 0.7009 0.09858 0.10037 0.0
N282 N 0.72927 0.09208 0.07047 0.0
N283 N 0.72679 0.1166 0.07323 0.0
C284 C 0.71335 0.05253 0.08993 0.0
H285 H 0.73086 0.044 0.08259 0.0
H286 H 0.71121 0.04748 0.11006 0.0
H287 H 0.69742 0.04452 0.07913 0.0
C288 C 0.81094 0.03649 0.06983 0.0
N289 N 0.79131 0.04191 0.05478 0.0
N290 N 0.77665 0.05821 0.06619 0.0
C291 C 0.78648 0.06371 0.08888 0.0
C292 C 0.80857 0.05024 0.09178 0.0
C293 C 0.83304 0.0209 0.06216 0.0
H294 H 0.83806 0.02491 0.04233 0.0
H295 H 0.82803 0.00074 0.06374 0.0
H296 H 0.84955 0.02461 0.07436 0.0
O297 O 0.79088 0.06714 0.00195 0.0
O298 O 0.76536 0.09456 0.02129 0.0
H299 H 0.77189 0.1002 0.09755 0.0
H300 H 0.78699 0.08503 0.12391 0.0
C301 C 0.77515 0.08198 0.10709 0.0
H302 H 0.75687 0.07461 0.11366 0.0
H303 H 0.73679 0.12994 0.06292 0.0
O304 O 0.80728 0.00577 0.00985 0.0
C305 C 0.78147 0.0892 0.00429 0.0
Co306 Co 0.245 0.52739 0.25306 0.0
Co307 Co 0.20319 0.49352 0.27788 0.0
C308 C 0.24809 0.4706 0.25551 0.0
O309 O 0.25509 0.49214 0.24818 0.0
O310 O 0.22874 0.4678 0.26913 0.0
C311 C 0.29464 0.5378 0.25866 0.0
O312 O 0.28937 0.52169 0.27662 0.0
C313 C 0.18416 0.4602 0.31562 0.0
C314 C 0.14285 0.46275 0.31251 0.0
C315 C 0.16202 0.45149 0.32602 0.0
N316 N 0.17851 0.47628 0.29711 0.0
N317 N 0.15379 0.47774 0.29517 0.0
C318 C 0.21047 0.45241 0.322 0.0
H319 H 0.21587 0.43642 0.30974 0.0
H320 H 0.22371 0.4681 0.31841 0.0
H321 H 0.21229 0.44623 0.34178 0.0
C322 C 0.24173 0.55233 0.30302 0.0
N323 N 0.23428 0.53481 0.28628 0.0
N324 N 0.21673 0.52076 0.29659 0.0
C325 C 0.21263 0.52889 0.32024 0.0
C326 C 0.22872 0.54873 0.32535 0.0
C327 C 0.26206 0.5712 0.29827 0.0
H328 H 0.28021 0.56372 0.30525 0.0
H329 H 0.25828 0.58903 0.30824 0.0
H330 H 0.26349 0.5754 0.27795 0.0
O331 O 0.21693 0.53227 0.22954 0.0
O332 O 0.189 0.50533 0.24559 0.0
H333 H 0.19004 0.53109 0.3539 0.0
H334 H 0.20085 0.50015 0.34579 0.0
C335 C 0.19369 0.51806 0.33801 0.0
H336 H 0.1758 0.51446 0.32801 0.0
H337 H 0.14441 0.48895 0.28211 0.0
O338 O 0.27694 0.54525 0.24437 0.0
C339 C 0.19598 0.52055 0.2284 0.0
Co340 Co 0.76129 -0.00269 0.52909 0.0
Co341 Co 0.79518 0.96592 0.56595 0.0
C342 C 0.81166 0.01546 0.54422 0.0
O343 O 0.79068 0.0192 0.53364 0.0
O344 O 0.81558 0.99568 0.55692 0.0
C345 C 0.74856 0.03243 0.4933 0.0
O346 O 0.76941 0.02347 0.48356 0.0
C347 C 0.82267 0.96419 0.61254 0.0
C348 C 0.83996 0.92656 0.61208 0.0
C349 C 0.83987 0.94918 0.62509 0.0
N350 N 0.81325 0.95115 0.59306 0.0
N351 N 0.82325 0.92846 0.59315 0.0
C352 C 0.81769 0.99156 0.61677 0.0
H353 H 0.83552 0.0023 0.61551 0.0
H354 H 0.80394 -0.00113 0.60294 0.0
H355 H 0.80974 0.99443 0.63581 0.0
C356 C 0.72507 0.99087 0.57067 0.0
N357 N 0.74759 0.98692 0.55991 0.0
N358 N 0.7614 0.97296 0.57487 0.0
C359 C 0.74778 0.96683 0.59526 0.0
C360 C 0.72428 0.97812 0.59342 0.0
C361 C 0.70529 0.00764 0.55989 0.0
H362 H 0.70091 0.00156 0.54042 0.0
H363 H 0.7126 0.02714 0.55891 0.0
H364 H 0.68788 0.00727 0.57137 0.0
O365 O 0.77316 0.96787 0.50927 0.0
O366 O 0.79624 0.94489 0.53579 0.0
H367 H 0.76997 0.93669 0.61014 0.0
H368 H 0.74299 0.94427 0.62893 0.0
C369 C 0.75805 0.95228 0.61706 0.0
H370 H 0.76974 0.96489 0.62881 0.0
H371 H 0.81999 0.91493 0.57932 0.0
O372 O 0.73817 0.02006 0.51091 0.0
C373 C 0.7871 0.94885 0.51399 0.0
Co374 Co 0.27874 0.54937 0.76417 0.0
Co375 Co 0.30031 0.59419 0.79599 0.0
C376 C 0.24604 0.59083 0.78434 0.0
O377 O 0.24955 0.57092 0.77178 0.0
O378 O 0.26413 0.60146 0.79558 0.0
C379 C 0.2458 0.51041 0.76563 0.0
O380 O 0.24735 0.51778 0.78917 0.0
C381 C 0.30225 0.62536 0.83999 0.0
C382 C 0.33447 0.65051 0.83301 0.0
C383 C 0.31471 0.6462 0.8495 0.0
N384 N 0.31375 0.6181 0.81876 0.0
N385 N 0.33318 0.63301 0.81474 0.0
C386 C 0.28009 0.61189 0.85094 0.0
H387 H 0.28008 0.59192 0.84496 0.0
H388 H 0.2803 0.61306 0.87178 0.0
H389 H 0.26254 0.62058 0.84391 0.0
C390 C 0.30846 0.5203 0.80188 0.0
N391 N 0.29906 0.54189 0.79255 0.0
N392 N 0.30829 0.56086 0.80551 0.0
C393 C 0.3239 0.55196 0.82328 0.0
C394 C 0.3246 0.52598 0.82152 0.0
C395 C 0.30277 0.49465 0.79193 0.0
H396 H 0.29919 0.49546 0.77141 0.0
H397 H 0.28577 0.48724 0.80145 0.0
H398 H 0.31856 0.48161 0.79584 0.0
O399 O 0.29951 0.56782 0.73956 0.0
O400 O 0.31331 0.60059 0.76197 0.0
H401 H 0.34708 0.5835 0.83257 0.0
H402 H 0.35066 0.55733 0.85374 0.0
C403 C 0.33702 0.56808 0.84229 0.0
H404 H 0.32294 0.57651 0.8551 0.0
H405 H 0.34491 0.63185 0.79907 0.0
O406 O 0.26119 0.51969 0.74985 0.0
C407 C 0.3118 0.58838 0.74141 0.0
Co408 Co 0.28941 0.53477 0.04788 0.0
Co409 Co 0.25079 0.50806 0.01199 0.0
C410 C 0.24406 0.56079 0.02502 0.0
O411 O 0.26278 0.55891 0.03956 0.0
O412 O 0.23809 0.54278 0.01062 0.0
C413 C 0.31883 0.57616 0.04816 0.0
O414 O 0.31381 0.57254 0.02423 0.0
C415 C 0.21977 0.49927 0.96833 0.0
C416 C 0.20363 0.46177 0.9756 0.0
C417 C 0.20226 0.48215 0.95939 0.0
N418 N 0.23052 0.48971 0.98905 0.0
N419 N 0.22105 0.46714 0.99317 0.0
C420 C 0.22667 0.52423 0.95733 0.0
H421 H 0.24648 0.52889 0.96186 0.0
H422 H 0.22398 0.52417 0.93663 0.0
H423 H 0.21458 0.53901 0.96563 0.0
C424 C 0.32508 0.51281 0.01014 0.0
N425 N 0.3019 0.51671 0.01962 0.0
N426 N 0.28549 0.50488 0.0054 0.0
C427 C 0.29766 0.49271 0.98695 0.0
C428 C 0.32321 0.4975 0.98907 0.0
C429 C 0.34862 0.5243 0.02027 0.0
H430 H 0.34683 0.52772 0.04076 0.0
H431 H 0.35209 0.54246 0.01066 0.0
H432 H 0.36493 0.51186 0.01652 0.0
O433 O 0.27242 0.51191 0.07184 0.0
O434 O 0.24313 0.49651 0.04608 0.0
H435 H 0.27097 0.46527 0.97468 0.0
H436 H 0.29797 0.46779 0.95463 0.0
C437 C 0.28465 0.47858 0.96637 0.0
H438 H 0.27424 0.49196 0.9543 0.0
H439 H 0.22563 0.45593 0.00859 0.0
O440 O 0.31361 0.55854 0.06349 0.0
C441 C 0.25255 0.49895 0.06795 0.0
Co442 Co 0.81042 0.00461 0.32664 0.0
Co443 Co 0.83886 0.95928 0.30088 0.0
C444 C 0.78395 0.95715 0.31096 0.0
O445 O 0.78395 0.97915 0.32012 0.0
O446 O 0.80401 0.94736 0.30271 0.0
C447 C 0.77321 0.03868 0.31949 0.0
O448 O 0.77484 0.02627 0.29817 0.0
C449 C 0.84616 0.92342 0.26073 0.0
C450 C 0.88396 0.90784 0.2678 0.0
C451 C 0.86348 0.90619 0.25178 0.0
N452 N 0.85605 0.93502 0.28086 0.0
N453 N 0.87869 0.92572 0.285 0.0
C454 C 0.81956 0.92715 0.25221 0.0
H455 H 0.80709 0.91499 0.26367 0.0
H456 H 0.81383 0.94697 0.25512 0.0
H457 H 0.81671 0.9221 0.23226 0.0
C458 C 0.83541 0.03212 0.28483 0.0
N459 N 0.83068 0.01104 0.29801 0.0
N460 N 0.84179 0.99198 0.28685 0.0
C461 C 0.85344 0.00026 0.26595 0.0
C462 C 0.84965 0.02603 0.26386 0.0
C463 C 0.82634 0.05779 0.29186 0.0
H464 H 0.82494 0.05954 0.31259 0.0
H465 H 0.80756 0.06108 0.28352 0.0
H466 H 0.8393 0.07236 0.28444 0.0
O467 O 0.83145 0.99088 0.35404 0.0
O468 O 0.85132 0.95874 0.33575 0.0
H469 H 0.87925 0.971 0.25625 0.0
H470 H 0.87475 0.9935 0.23154 0.0
C471 C 0.86526 0.98322 0.24688 0.0
H472 H 0.85055 0.97118 0.2384 0.0
H473 H 0.89032 0.93123 0.29979 0.0
O474 O 0.78945 0.03415 0.33647 0.0
C475 C 0.84647 0.97215 0.35502 0.0
Co476 Co 0.33865 0.54998 0.55495 0.0
Co477 Co 0.38109 0.58489 0.532 0.0
C478 C 0.39252 0.53703 0.55959 0.0
O479 O 0.36964 0.5314 0.56279 0.0
O480 O 0.39895 0.55707 0.54852 0.0
C481 C 0.31494 0.50375 0.55828 0.0
O482 O 0.33609 0.49863 0.54666 0.0
C483 C 0.41953 0.58361 0.49527 0.0
C484 C 0.43372 0.62236 0.49155 0.0
C485 C 0.43723 0.59801 0.48278 0.0
N486 N 0.40649 0.59847 0.51089 0.0
N487 N 0.41506 0.62167 0.50877 0.0
C488 C 0.41363 0.55633 0.49132 0.0
H489 H 0.39422 0.55193 0.49731 0.0
H490 H 0.41597 0.55106 0.47126 0.0
H491 H 0.42656 0.54477 0.50287 0.0
C492 C 0.31834 0.55574 0.50372 0.0
N493 N 0.33677 0.55879 0.52077 0.0
N494 N 0.35356 0.57456 0.51183 0.0
C495 C 0.34615 0.58244 0.48895 0.0
C496 C 0.3236 0.57083 0.48308 0.0
C497 C 0.29628 0.53865 0.5073 0.0
H498 H 0.28506 0.54509 0.52366 0.0
H499 H 0.30313 0.51944 0.51131 0.0
H500 H 0.28416 0.53763 0.49041 0.0
O501 O 0.33882 0.58205 0.57432 0.0
O502 O 0.3688 0.60724 0.55864 0.0
H503 H 0.3662 0.61737 0.48739 0.0
H504 H 0.34599 0.61172 0.46069 0.0
C505 C 0.35895 0.60281 0.47437 0.0
H506 H 0.37505 0.59467 0.46394 0.0
H507 H 0.40813 0.63697 0.5189 0.0
O508 O 0.31052 0.5265 0.5643 0.0
C509 C 0.35099 0.60283 0.5741 0.0
Co510 Co 0.78957 0.04336 0.80276 0.0
Co511 Co 0.76473 0.09066 0.77805 0.0
C512 C 0.81904 0.07896 0.77047 0.0
O513 O 0.81766 0.0596 0.78428 0.0
O514 O 0.79978 0.09237 0.76645 0.0
C515 C 0.81895 0.00173 0.79812 0.0
O516 O 0.81435 0.00754 0.77454 0.0
C517 C 0.75478 0.12424 0.73712 0.0
C518 C 0.73512 0.15552 0.75571 0.0
C519 C 0.74687 0.14866 0.73352 0.0
N520 N 0.74838 0.11696 0.76039 0.0
N521 N 0.73591 0.1355 0.77122 0.0
C522 C 0.77077 0.10919 0.71954 0.0
H523 H 0.77229 0.08941 0.72592 0.0
H524 H 0.76254 0.10978 0.70038 0.0
H525 H 0.78975 0.11762 0.71834 0.0
C526 C 0.7482 0.01795 0.77491 0.0
N527 N 0.76068 0.0386 0.78246 0.0
N528 N 0.75015 0.05852 0.77225 0.0
C529 C 0.7308 0.05112 0.75774 0.0
C530 C 0.72902 0.02505 0.7587 0.0
C531 C 0.75516 0.9917 0.78209 0.0
H532 H 0.76209 0.99125 0.80175 0.0
H533 H 0.77034 0.98489 0.76957 0.0
H534 H 0.73879 0.97893 0.78007 0.0
O535 O 0.78062 0.06465 0.83148 0.0
O536 O 0.76433 0.09911 0.81415 0.0
H537 H 0.71194 0.08604 0.75091 0.0
H538 H 0.69887 0.05995 0.73388 0.0
C539 C 0.71654 0.06846 0.74076 0.0
H540 H 0.72837 0.07322 0.72428 0.0
H541 H 0.73016 0.13541 0.78998 0.0
O542 O 0.80569 0.01216 0.81502 0.0
C543 C 0.77111 0.08653 0.83331 0.0
Co544 Co 0.98408 0.70879 0.06165 0.0
Co545 Co 0.02047 0.6687 0.0854 0.0
C546 C 0.99528 0.66169 0.03477 0.0
O547 O 0.98423 0.68277 0.03556 0.0
O548 O 0.00965 0.65451 0.05245 0.0
C549 C 0.94685 0.73299 0.03286 0.0
O550 O 0.93761 0.71013 0.03299 0.0
C551 C 0.07037 0.64956 0.08017 0.0
C552 C 0.07682 0.62657 0.11407 0.0
C553 C 0.08833 0.63517 0.09226 0.0
N554 N 0.04951 0.64999 0.09434 0.0
N555 N 0.05337 0.63619 0.11461 0.0
C556 C 0.07261 0.66234 0.05513 0.0
H557 H 0.08305 0.6503 0.04167 0.0
H558 H 0.05395 0.66698 0.04732 0.0
H559 H 0.08302 0.68025 0.05737 0.0
C560 C 0.02867 0.74089 0.06902 0.0
N561 N 0.01657 0.71875 0.07055 0.0
N562 N 0.03014 0.70291 0.08367 0.0
C563 C 0.05063 0.71489 0.09235 0.0
C564 C 0.05073 0.73923 0.08294 0.0
C565 C 0.01995 0.76234 0.05305 0.0
H566 H 0.00732 0.77452 0.06431 0.0
H567 H 0.00934 0.75521 0.03659 0.0
H568 H 0.03601 0.77374 0.04625 0.0
O569 O 0.96727 0.69422 0.09156 0.0
O570 O 0.9918 0.66452 0.10847 0.0
H571 H 0.05834 0.69034 0.12353 0.0
H572 H 0.07603 0.71938 0.1236 0.0
C573 C 0.06825 0.70422 0.11156 0.0
H574 H 0.08415 0.69473 0.10209 0.0
H575 H 0.0401 0.63339 0.12878 0.0
O576 O 0.96567 0.73765 0.04681 0.0
C577 C 0.97148 0.6772 0.10802 0.0
Co578 Co 0.52422 0.82506 0.02135 0.0
Co579 Co 0.53597 0.87297 0.9885 0.0
C580 C 0.53523 0.87414 0.04495 0.0
O581 O 0.53108 0.85084 0.04666 0.0
O582 O 0.53704 0.88465 0.02367 0.0
C583 C 0.5338 0.79428 0.06209 0.0
O584 O 0.55474 0.8073 0.06059 0.0
C585 C 0.57271 0.91058 0.98062 0.0
C586 C 0.55928 0.93374 0.94898 0.0
C587 C 0.57805 0.93205 0.96703 0.0
N588 N 0.55163 0.90023 0.97154 0.0
N589 N 0.54363 0.91403 0.9525 0.0
C590 C 0.58792 0.89928 0.0015 0.0
H591 H 0.5846 0.87877 0.00273 0.0
H592 H 0.60824 0.90289 -0.00143 0.0
H593 H 0.58223 0.90779 0.01967 0.0
C594 C 0.5677 0.80525 0.99109 0.0
N595 N 0.55061 0.82289 -0.00272 0.0
N596 N 0.55398 0.8426 0.98271 0.0
C597 C 0.57263 0.83783 0.96635 0.0
C598 C 0.58271 0.81433 0.97153 0.0
C599 C 0.57077 0.78091 0.00482 0.0
H600 H 0.58989 0.77974 0.01305 0.0
H601 H 0.56832 0.76503 0.99156 0.0
H602 H 0.55659 0.77884 0.01975 0.0
O603 O 0.49254 0.83479 0.00409 0.0
O604 O 0.50038 0.86872 0.98052 0.0
H605 H 0.59032 0.84481 0.93048 0.0
H606 H 0.59229 0.87025 0.95276 0.0
C607 C 0.58002 0.85513 0.9454 0.0
H608 H 0.56302 0.86397 0.93721 0.0
H609 H 0.52718 0.91044 0.94239 0.0
O610 O 0.51838 0.79553 0.04381 0.0
C611 C 0.48541 0.85205 0.98899 0.0
Co612 Co 0.46305 0.27105 0.24243 0.0
Co613 Co 0.41513 0.2859 0.21108 0.0
C614 C 0.41615 0.28554 0.26785 0.0
O615 O 0.43929 0.28027 0.26895 0.0
O616 O 0.4051 0.2877 0.24685 0.0
C617 C 0.49978 0.2798 0.27806 0.0
O618 O 0.48882 0.30187 0.27674 0.0
C619 C 0.38056 0.32603 0.20243 0.0
C620 C 0.35235 0.31009 0.17656 0.0
C621 C 0.35755 0.33107 0.19122 0.0
N622 N 0.38844 0.3033 0.19483 0.0
N623 N 0.37171 0.29394 0.17907 0.0
C624 C 0.39352 0.34097 0.22255 0.0
H625 H 0.40984 0.3307 0.23029 0.0
H626 H 0.40085 0.35872 0.21455 0.0
H627 H 0.38012 0.34565 0.23783 0.0
C628 C 0.48631 0.3095 0.20928 0.0
N629 N 0.4666 0.29587 0.21738 0.0
N630 N 0.44666 0.30161 0.2039 0.0
C631 C 0.45316 0.31912 0.1868 0.0
C632 C 0.47839 0.32499 0.18977 0.0
C633 C 0.51164 0.30921 0.22153 0.0
H634 H 0.51544 0.29051 0.22973 0.0
H635 H 0.51213 0.32358 0.23664 0.0
H636 H 0.52681 0.3135 0.20801 0.0
O637 O 0.45004 0.24062 0.22654 0.0
O638 O 0.41626 0.24952 0.20315 0.0
H639 H 0.42281 0.31535 0.16049 0.0
H640 H 0.44633 0.33839 0.1518 0.0
C641 C 0.43567 0.33007 0.1677 0.0
H642 H 0.4243 0.34509 0.17653 0.0
H643 H 0.37273 0.27597 0.17127 0.0
O644 O 0.49363 0.26304 0.26219 0.0
C645 C 0.43231 0.23401 0.21186 0.0
Co646 Co 0.02336 0.22573 0.48786 0.0
Co647 Co 0.00286 0.17289 0.47078 0.0
C648 C 0.00983 0.18654 0.52512 0.0
O649 O 0.01812 0.20822 0.52005 0.0
O650 O 0.00294 0.17173 0.50781 0.0
C651 C 0.01856 0.26794 0.51667 0.0
O652 O -0.00311 0.25653 0.51985 0.0
C653 C 0.96158 0.13939 0.47556 0.0
C654 C 0.97166 0.10594 0.45329 0.0
C655 C 0.95398 0.11513 0.47014 0.0
N656 N 0.98294 0.14422 0.46306 0.0
N657 N 0.98885 0.12425 0.44954 0.0
C658 C 0.94867 0.15809 0.49222 0.0
H659 H 0.95373 0.17753 0.48677 0.0
H660 H 0.92798 0.15564 0.4913 0.0
H661 H 0.95476 0.15529 0.51192 0.0
C662 C 0.98151 0.24275 0.45486 0.0
N663 N 0.99563 0.22475 0.46565 0.0
N664 N 0.98817 0.20265 0.45745 0.0
C665 C 0.96925 0.20596 0.441 0.0
C666 C 0.964 0.23144 0.43905 0.0
C667 C 0.98312 0.27002 0.4616 0.0
H668 H 0.97106 0.27368 0.47822 0.0
H669 H 0.97665 0.28218 0.44603 0.0
H670 H 0.00272 0.27515 0.46622 0.0
O671 O 0.05154 0.20842 0.4717 0.0
O672 O 0.03869 0.16991 0.46061 0.0
H673 H 0.94587 0.19227 0.41082 0.0
H674 H 0.94197 0.1764 0.44044 0.0
C675 C 0.95591 0.1851 0.42764 0.0
H676 H 0.96957 0.17046 0.42188 0.0
H677 H 0.00515 0.12268 0.4387 0.0
O678 O 0.03322 0.25973 0.49966 0.0
C679 C 0.05569 0.18676 0.46228 0.0
Co680 Co 0.00922 0.78181 0.81841 0.0
Co681 Co 0.04883 0.75547 0.78293 0.0
C682 C 0.06499 0.78872 0.82479 0.0
O683 O 0.04247 0.7926 0.83148 0.0
O684 O 0.07015 0.77455 0.80636 0.0
C685 C 0.99473 0.77808 0.866 0.0
O686 O 0.015 0.76434 0.86292 0.0
C687 C 0.08667 0.71756 0.77518 0.0
C688 C 0.09227 0.71688 0.73404 0.0
C689 C 0.10002 0.7057 0.75628 0.0
N690 N 0.07127 0.73452 0.76466 0.0
N691 N 0.07473 0.73416 0.74005 0.0
C692 C 0.08922 0.71365 0.80298 0.0
H693 H 0.08004 0.72899 0.81361 0.0
H694 H 0.08004 0.69579 0.80845 0.0
H695 H 0.10936 0.71238 0.80823 0.0
C696 C 0.98679 0.73143 0.81537 0.0
N697 N 0.00656 0.74697 0.81215 0.0
N698 N 0.0234 0.73585 0.79787 0.0
C699 C 0.01479 0.71295 0.7914 0.0
C700 C 0.99141 0.70952 0.80228 0.0
C701 C 0.96241 0.73888 0.82723 0.0
H702 H 0.95772 0.75852 0.82212 0.0
H703 H 0.96429 0.73774 0.84797 0.0
H704 H 0.94691 0.72625 0.82133 0.0
O705 O 0.00398 0.7995 0.78567 0.0
O706 O 0.03214 0.77999 0.76124 0.0
H707 H 0.03118 0.70667 0.75511 0.0
H708 H 0.01538 0.67957 0.76782 0.0
C709 C 0.02712 0.69604 0.77256 0.0
H710 H 0.04497 0.68888 0.78039 0.0
H711 H 0.06519 0.74571 0.7274 0.0
O712 O 0.98612 0.78985 0.84699 0.0
C713 C 0.01488 0.79635 0.76438 0.0
Co714 Co 0.54639 0.29571 0.50149 0.0
Co715 Co 0.54191 0.34217 0.53753 0.0
C716 C 0.56215 0.34811 0.48627 0.0
O717 O 0.56036 0.32463 0.48267 0.0
O718 O 0.55477 0.35808 0.50662 0.0
C719 C 0.52766 0.27899 0.45727 0.0
O720 O 0.51545 0.29996 0.46174 0.0
C721 C 0.52441 0.39048 0.5541 0.0
C722 C 0.53204 0.39054 0.59494 0.0
C723 C 0.52194 0.40494 0.57569 0.0
N724 N 0.53545 0.36875 0.56031 0.0
N725 N 0.54033 0.36893 0.58467 0.0
C726 C 0.51422 0.39573 0.52833 0.0
H727 H 0.51184 0.37802 0.5176 0.0
H728 H 0.49583 0.40546 0.52946 0.0
H729 H 0.52762 0.40787 0.51797 0.0
C730 C 0.49278 0.29043 0.51718 0.0
N731 N 0.51484 0.30286 0.51705 0.0
N732 N 0.51289 0.3227 0.53172 0.0
C733 C 0.48956 0.3236 0.54151 0.0
C734 C 0.47608 0.30321 0.53254 0.0
C735 C 0.48809 0.26591 0.50423 0.0
H736 H 0.50576 0.25499 0.50279 0.0
H737 H 0.48081 0.26952 0.48503 0.0
H738 H 0.47379 0.25477 0.51456 0.0
O739 O 0.57097 0.28636 0.52765 0.0
O740 O 0.56762 0.32025 0.55212 0.0
H741 H 0.49302 0.34591 0.57487 0.0
H742 H 0.46095 0.34059 0.56541 0.0
C743 C 0.48025 0.34402 0.55852 0.0
H744 H 0.48007 0.36201 0.54814 0.0
H745 H 0.54873 0.3541 0.59434 0.0
O746 O 0.54281 0.27079 0.47384 0.0
C747 C 0.57724 0.29891 0.54714 0.0
Co748 Co 0.05869 0.27831 0.71187 0.0
Co749 Co 0.0169 0.24001 0.72864 0.0
C750 C 0.00578 0.27596 0.68904 0.0
O751 O 0.02761 0.28519 0.69216 0.0
O752 O -0.00144 0.25681 0.70137 0.0
C753 C 0.0778 0.31629 0.68205 0.0
O754 O 0.06107 0.33013 0.6938 0.0
C755 C 0.98053 0.19755 0.73435 0.0
C756 C 0.98457 0.19033 0.77508 0.0
C757 C 0.97208 0.18221 0.75374 0.0
N758 N -0.00245 0.21374 0.74384 0.0
N759 N -0.00018 0.20921 0.76817 0.0
C760 C 0.97197 0.19735 0.70754 0.0
H761 H 0.97648 0.21532 0.69813 0.0
H762 H 0.98172 0.18202 0.69733 0.0
H763 H 0.95145 0.19377 0.70651 0.0
C764 C 0.08863 0.2318 0.71286 0.0
N765 N 0.06644 0.24392 0.71304 0.0
N766 N 0.04836 0.22775 0.71763 0.0
C767 C 0.05829 0.20463 0.71917 0.0
C768 C 0.0842 0.20643 0.71667 0.0
C769 C 0.11353 0.24473 0.71168 0.0
H770 H 0.114 0.2602 0.72567 0.0
H771 H 0.11586 0.25325 0.69279 0.0
H772 H 0.12922 0.23147 0.71519 0.0
O773 O 0.05335 0.29089 0.74599 0.0
O774 O 0.02191 0.26518 0.75583 0.0
H775 H 0.0396 0.18223 0.74677 0.0
H776 H 0.05363 0.16421 0.72181 0.0
C777 C 0.04354 0.18178 0.7263 0.0
H778 H 0.02556 0.18164 0.7159 0.0
H779 H 0.01179 0.21914 0.78012 0.0
O780 O 0.08492 0.29608 0.69261 0.0
C781 C 0.03643 0.28345 0.76123 0.0
Co782 Co 0.53113 0.77562 0.27963 0.0
Co783 Co 0.5782 0.79824 0.30739 0.0
C784 C 0.57708 0.79454 0.25235 0.0
O785 O 0.55598 0.78369 0.25359 0.0
O786 O 0.58754 0.80294 0.272 0.0
C787 C 0.49811 0.78617 0.24215 0.0
O788 O 0.50694 0.80844 0.24813 0.0
C789 C 0.61463 0.83689 0.31733 0.0
C790 C 0.63678 0.82199 0.34905 0.0
C791 C 0.63572 0.84167 0.33194 0.0
N792 N 0.60413 0.81532 0.32511 0.0
N793 N 0.61728 0.80655 0.34424 0.0
C794 C 0.60398 0.85265 0.29657 0.0
H795 H 0.58351 0.84922 0.29461 0.0
H796 H 0.60744 0.87289 0.30019 0.0
H797 H 0.61298 0.8474 0.27853 0.0
C798 C 0.50533 0.81392 0.31149 0.0
N799 N 0.52597 0.80177 0.30334 0.0
N800 N 0.54568 0.81053 0.31545 0.0
C801 C 0.53814 0.82824 0.33184 0.0
C802 C 0.51229 0.83131 0.32969 0.0
C803 C 0.47938 0.80955 0.30166 0.0
H804 H 0.47714 0.78972 0.29569 0.0
H805 H 0.47606 0.82186 0.28518 0.0
H806 H 0.4652 0.81426 0.31623 0.0
O807 O 0.54496 0.74589 0.2968 0.0
O808 O 0.58013 0.76169 0.31355 0.0
H809 H 0.57045 0.83124 0.35573 0.0
H810 H 0.54614 0.85324 0.3632 0.0
C811 C 0.55582 0.84354 0.34757 0.0
H812 H 0.56503 0.85789 0.33563 0.0
H813 H 0.61352 0.78961 0.35336 0.0
O814 O 0.50225 0.76806 0.25723 0.0
C815 C 0.56565 0.74322 0.30868 0.0
C816 C 0.05917 0.91608 0.73406 0.0
C817 C 0.04911 0.93357 0.71736 0.0
C818 C 0.05267 0.89074 0.73221 0.0
C819 C 0.03511 0.88313 0.71362 0.0
C820 C 0.02743 0.90023 0.69482 0.0
C821 C 0.03478 0.92543 0.6968 0.0
C822 C 0.06225 0.87282 0.75205 0.0
C823 C 0.0092 0.8929 0.67438 0.0
C824 C 0.02725 0.81452 0.72307 0.0
C825 C 0.01154 0.81523 0.74432 0.0
C826 C 0.03254 0.83649 0.70963 0.0
C827 C 0.02153 0.85923 0.71757 0.0
C828 C 0.00181 0.85886 0.73546 0.0
C829 C -0.0029 0.83673 0.74885 0.0
C830 C 0.05265 0.83592 0.68967 0.0
C831 C 0.98843 0.88261 0.74326 0.0
H832 H 0.07038 0.92256 0.74982 0.0
H833 H 0.02694 0.93912 0.6839 0.0
H834 H 0.04686 0.86825 0.76536 0.0
H835 H 0.06865 0.85501 0.74334 0.0
H836 H 0.0781 0.88094 0.76295 0.0
H837 H 0.01305 0.90363 0.65689 0.0
H838 H 0.0099 0.87252 0.67011 0.0
H839 H 0.98984 0.89762 0.68052 0.0
H840 H 0.0377 0.79761 0.71865 0.0
H841 H 0.98414 0.83715 0.76457 0.0
H842 H 0.07113 0.83987 0.69849 0.0
H843 H 0.04928 0.85038 0.67504 0.0
H844 H 0.05371 0.81716 0.68058 0.0
H845 H 0.00089 0.8938 0.75571 0.0
H846 H 0.9708 0.8785 0.75365 0.0
H847 H 0.98387 0.89428 0.72661 0.0
C848 C 0.44324 0.83362 0.98247 0.0
C849 C 0.4584 0.85492 0.98473 0.0
C850 C 0.4171 0.83562 0.9839 0.0
C851 C 0.40611 0.8594 0.98855 0.0
C852 C 0.42129 0.88118 0.98945 0.0
C853 C 0.44738 0.87869 0.98718 0.0
C854 C 0.40139 0.81205 0.98201 0.0
C855 C 0.41028 0.90674 0.99486 0.0
C856 C 0.3358 0.85928 0.9809 0.0
C857 C 0.3283 0.85107 0.00482 0.0
C858 C 0.36113 0.86386 0.97559 0.0
C859 C 0.3791 0.86073 0.99487 0.0
C860 C 0.37127 0.85514 0.0197 0.0
C861 C 0.3459 0.85001 0.02432 0.0
C862 C 0.3688 0.86951 0.94885 0.0
C863 C 0.3899 0.85254 0.04094 0.0
H864 H 0.4519 0.81528 0.98054 0.0
H865 H 0.45925 0.89512 0.98928 0.0
H866 H 0.3935 0.8074 0.00075 0.0
H867 H 0.38538 0.81499 0.96898 0.0
H868 H 0.4125 0.79571 0.97531 0.0
H869 H 0.42384 0.92208 0.9908 0.0
H870 H 0.39297 0.90993 0.98372 0.0
H871 H 0.40502 0.90779 0.01503 0.0
H872 H 0.32223 0.86009 0.96572 0.0
H873 H 0.34005 0.84396 0.04289 0.0
H874 H 0.37689 0.85232 0.94026 0.0
H875 H 0.38347 0.8843 0.94824 0.0
H876 H 0.35259 0.87563 0.93721 0.0
H877 H 0.38051 0.85215 0.05959 0.0
H878 H 0.4036 0.86825 0.04064 0.0
H879 H 0.4006 0.8348 0.03862 0.0
C880 C 0.44743 0.19338 0.19727 0.0
C881 C 0.42864 0.20704 0.20944 0.0
C882 C 0.45441 0.16966 0.20615 0.0
C883 C 0.44243 0.15992 0.22784 0.0
C884 C 0.42091 0.17199 0.23765 0.0
C885 C 0.41403 0.19549 0.22802 0.0
C886 C 0.47684 0.1568 0.1945 0.0
C887 C 0.40735 0.16202 0.26047 0.0
C888 C 0.4672 0.09671 0.24763 0.0
C889 C 0.488 0.10378 0.26235 0.0
C890 C 0.45091 0.11469 0.23759 0.0
C891 C 0.45541 0.14029 0.24264 0.0
C892 C 0.47478 0.14738 0.25957 0.0
C893 C 0.49097 0.12896 0.26922 0.0
C894 C 0.43037 0.10633 0.21989 0.0
C895 C 0.47965 0.1746 0.26598 0.0
H896 H 0.45877 0.20254 0.18301 0.0
H897 H 0.39963 0.20632 0.23756 0.0
H898 H 0.4935 0.15961 0.20674 0.0
H899 H 0.47355 0.1363 0.19284 0.0
H900 H 0.48122 0.16446 0.17557 0.0
H901 H 0.38797 0.16965 0.26175 0.0
H902 H 0.40643 0.14121 0.26029 0.0
H903 H 0.41772 0.16779 0.27764 0.0
H904 H 0.46441 0.07715 0.24266 0.0
H905 H 0.5068 0.13449 0.28077 0.0
H906 H 0.4368 0.10889 0.20022 0.0
H907 H 0.41311 0.11771 0.22241 0.0
H908 H 0.4256 0.08619 0.22259 0.0
H909 H 0.48718 0.18444 0.2492 0.0
H910 H 0.49337 0.1767 0.28158 0.0
H911 H 0.46191 0.18408 0.2714 0.0
C912 C 0.09343 0.16476 0.47658 0.0
C913 C 0.08212 0.18038 0.45867 0.0
C914 C 0.1184 0.16891 0.48394 0.0
C915 C 0.13192 0.18893 0.47286 0.0
C916 C 0.12184 0.20153 0.45165 0.0
C917 C 0.09686 0.19711 0.44486 0.0
C918 C 0.12884 0.15426 0.50583 0.0
C919 C 0.13594 0.22242 0.43861 0.0
C920 C 0.16664 0.23847 0.50885 0.0
C921 C 0.19049 0.23621 0.49808 0.0
C922 C 0.14775 0.22104 0.50313 0.0
C923 C 0.15309 0.20094 0.48642 0.0
C924 C 0.17806 0.19651 0.47873 0.0
C925 C 0.19655 0.21431 0.4846 0.0
C926 C 0.1214 0.226 0.51246 0.0
C927 C 0.18481 0.1747 0.46193 0.0
H928 H 0.08191 0.1518 0.48729 0.0
H929 H 0.08796 0.20909 0.43097 0.0
H930 H 0.1496 0.15274 0.50483 0.0
H931 H 0.1239 0.16397 0.52361 0.0
H932 H 0.12062 0.13509 0.50654 0.0
H933 H 0.12694 0.22782 0.42055 0.0
H934 H 0.13643 0.23921 0.45098 0.0
H935 H 0.1556 0.21677 0.43478 0.0
H936 H 0.16196 0.2551 0.51964 0.0
H937 H 0.21524 0.21206 0.47681 0.0
H938 H 0.11274 0.20847 0.51965 0.0
H939 H 0.10964 0.23286 0.49666 0.0
H940 H 0.12102 0.24032 0.52766 0.0
H941 H 0.17268 0.15815 0.46561 0.0
H942 H 0.20478 0.1692 0.46447 0.0
H943 H 0.18223 0.18029 0.442 0.0
C944 C 0.60214 0.59819 0.30749 0.0
C945 C 0.59013 0.59119 0.28508 0.0
C946 C 0.60494 0.62358 0.31378 0.0
C947 C 0.59606 0.64206 0.29691 0.0
C948 C 0.5875 0.63499 0.2727 0.0
C949 C 0.58425 0.60951 0.2672 0.0
C950 C 0.61436 0.63037 0.33966 0.0
C951 C 0.57892 0.65427 0.25375 0.0
C952 C 0.55844 0.6981 0.31751 0.0
C953 C 0.57516 0.71765 0.31238 0.0
C954 C 0.56597 0.67308 0.31486 0.0
C955 C 0.59053 0.66771 0.30603 0.0
C956 C 0.60807 0.68736 0.30274 0.0
C957 C 0.60021 0.71223 0.30627 0.0
C958 C 0.54695 0.65252 0.31946 0.0
C959 C 0.63429 0.6825 0.29316 0.0
H960 H 0.60672 0.58399 0.32136 0.0
H961 H 0.57526 0.604 0.24974 0.0
H962 H 0.62586 0.61504 0.3479 0.0
H963 H 0.62569 0.64785 0.33925 0.0
H964 H 0.59804 0.6337 0.35222 0.0
H965 H 0.57716 0.6461 0.2346 0.0
H966 H 0.56029 0.6617 0.25943 0.0
H967 H 0.59221 0.67031 0.25302 0.0
H968 H 0.53914 0.70241 0.32238 0.0
H969 H 0.6131 0.72744 0.30208 0.0
H970 H 0.55539 0.63713 0.3307 0.0
H971 H 0.54087 0.64445 0.30121 0.0
H972 H 0.53005 0.65957 0.32949 0.0
H973 H 0.64205 0.66473 0.30078 0.0
H974 H 0.64722 0.69816 0.29801 0.0
H975 H 0.63374 0.68078 0.27237 0.0
C976 C 0.60257 0.30132 0.58629 0.0
C977 C 0.59889 0.29099 0.56228 0.0
C978 C 0.62624 0.30062 0.59771 0.0
C979 C 0.6465 0.28985 0.58444 0.0
C980 C 0.6421 0.27667 0.56168 0.0
C981 C 0.61814 0.27717 0.55097 0.0
C982 C 0.62988 0.31356 0.62269 0.0
C983 C 0.66323 0.26452 0.54711 0.0
C984 C 0.71008 0.31909 0.57859 0.0
C985 C 0.72479 0.29941 0.58761 0.0
C986 C 0.68388 0.31762 0.58006 0.0
C987 C 0.67264 0.29617 0.59123 0.0
C988 C 0.68767 0.27828 0.60375 0.0
C989 C 0.71376 0.27988 0.6014 0.0
C990 C 0.66839 0.33735 0.56682 0.0
C991 C 0.67637 0.25598 0.6171 0.0
H992 H 0.58744 0.3115 0.59537 0.0
H993 H 0.61522 0.26892 0.53256 0.0
H994 H 0.64516 0.30471 0.63376 0.0
H995 H 0.63498 0.3335 0.61943 0.0
H996 H 0.61231 0.31322 0.63394 0.0
H997 H 0.65628 0.25346 0.53081 0.0
H998 H 0.67618 0.27925 0.54 0.0
H999 H 0.67425 0.25187 0.55944 0.0
H1000 H 0.71884 0.33418 0.56806 0.0
H1001 H 0.72543 0.26488 0.60875 0.0
H1002 H 0.65263 0.34358 0.57892 0.0
H1003 H 0.6602 0.32923 0.54942 0.0
H1004 H 0.67976 0.35404 0.56157 0.0
H1005 H 0.68931 0.24859 0.63173 0.0
H1006 H 0.67287 0.24072 0.60333 0.0
H1007 H 0.65818 0.26089 0.62602 0.0
C1008 C 0.00689 0.29705 0.79502 0.0
C1009 C 0.03052 0.29904 0.78341 0.0
C1010 C -0.00247 0.31676 0.80977 0.0
C1011 C 0.01223 0.33863 0.81281 0.0
C1012 C 0.03761 0.33872 0.8048 0.0
C1013 C 0.04646 0.31888 0.79004 0.0
C1014 C 0.97084 0.31545 0.81916 0.0
C1015 C 0.05434 0.36131 0.80869 0.0
C1016 C 0.9885 0.40287 0.79798 0.0
C1017 C 0.99238 0.41499 0.82093 0.0
C1018 C 0.99192 0.37698 0.79583 0.0
C1019 C -0.00014 0.36313 0.81717 0.0
C1020 C 0.00066 0.37482 0.84106 0.0
C1021 C -0.00318 0.40086 0.84269 0.0
C1022 C 0.98999 0.36514 0.77006 0.0
C1023 C 0.00819 0.36063 0.8644 0.0
H1024 H 0.99467 0.28136 0.79064 0.0
H1025 H 0.06508 0.32006 0.78186 0.0
H1026 H 0.96849 0.32616 0.8369 0.0
H1027 H 0.95814 0.32376 0.80487 0.0
H1028 H 0.96492 0.29568 0.8223 0.0
H1029 H 0.07439 0.35686 0.80504 0.0
H1030 H 0.04855 0.37652 0.79564 0.0
H1031 H 0.05253 0.36855 0.82815 0.0
H1032 H 0.98474 0.41396 0.78129 0.0
H1033 H -0.00026 0.41037 0.86049 0.0
H1034 H 0.9791 0.34741 0.77094 0.0
H1035 H 0.00908 0.36055 0.76304 0.0
H1036 H 0.98085 0.37783 0.75623 0.0
H1037 H -0.00097 0.36876 0.88131 0.0
H1038 H 0.0288 0.36221 0.86701 0.0
H1039 H 0.00331 0.34041 0.8631 0.0
C1040 C 0.93982 0.645 0.1171 0.0
C1041 C 0.94969 0.66882 0.12251 0.0
C1042 C 0.91372 0.64155 0.11585 0.0
C1043 C 0.89791 0.66246 0.12 0.0
C1044 C 0.90793 0.68436 0.13141 0.0
C1045 C 0.93399 0.6873 0.13247 0.0
C1046 C 0.90354 0.61698 0.10615 0.0
C1047 C 0.89159 0.70658 0.13802 0.0
C1048 C 0.85726 0.69094 0.07118 0.0
C1049 C 0.8353 0.69421 0.08516 0.0
C1050 C 0.87699 0.67642 0.08067 0.0
C1051 C 0.87468 0.66548 0.10492 0.0
C1052 C 0.85097 0.66485 0.11673 0.0
C1053 C 0.83139 0.67928 0.10666 0.0
C1054 C 0.90142 0.67598 0.06629 0.0
C1055 C 0.8469 0.65156 0.14142 0.0
H1056 H 0.95211 0.63038 0.11 0.0
H1057 H 0.94185 0.70548 0.1373 0.0
H1058 H 0.88342 0.61449 0.11103 0.0
H1059 H 0.90546 0.61635 0.08539 0.0
H1060 H 0.9145 0.60103 0.11395 0.0
H1061 H 0.90181 0.72055 0.1497 0.0
H1062 H 0.8853 0.71604 0.12052 0.0
H1063 H 0.87467 0.70037 0.14843 0.0
H1064 H 0.86 0.70156 0.054 0.0
H1065 H 0.81399 0.68077 0.11714 0.0
H1066 H 0.90982 0.65696 0.06648 0.0
H1067 H 0.91493 0.68911 0.07525 0.0
H1068 H 0.89875 0.68171 0.04639 0.0
H1069 H 0.86156 0.63724 0.14517 0.0
H1070 H 0.82819 0.64231 0.14159 0.0
H1071 H 0.84705 0.6655 0.15693 0.0
C1072 C 0.76526 0.12235 0.97591 0.0
C1073 C 0.78533 0.10709 0.98358 0.0
C1074 C 0.76335 0.13 0.95078 0.0
C1075 C 0.78202 0.12226 0.93358 0.0
C1076 C 0.80485 0.11214 0.9427 0.0
C1077 C 0.80612 0.10425 0.96775 0.0
C1078 C 0.73939 0.14218 0.94193 0.0
C1079 C 0.826 0.10525 0.92513 0.0
C1080 C 0.76274 0.08248 0.8786 0.0
C1081 C 0.76928 0.09776 0.85835 0.0
C1082 C 0.76489 0.09121 0.90321 0.0
C1083 C 0.77456 0.11569 0.90761 0.0
C1084 C 0.77975 0.13181 0.8871 0.0
C1085 C 0.77664 0.12269 0.86251 0.0
C1086 C 0.75835 0.07347 0.92446 0.0
C1087 C 0.78935 0.1582 0.891 0.0
H1088 H 0.74944 0.12533 0.98838 0.0
H1089 H 0.82213 0.09332 0.974 0.0
H1090 H 0.74307 0.15527 0.92614 0.0
H1091 H 0.72629 0.12744 0.93512 0.0
H1092 H 0.73001 0.15258 0.95742 0.0
H1093 H 0.82172 0.08695 0.91607 0.0
H1094 H 0.82818 0.11953 0.9101 0.0
H1095 H 0.84407 0.10337 0.9354 0.0
H1096 H 0.75668 0.06332 0.87516 0.0
H1097 H 0.78149 0.1345 0.84662 0.0
H1098 H 0.74552 0.08274 0.93801 0.0
H1099 H 0.77567 0.06807 0.93472 0.0
H1100 H 0.74914 0.05602 0.91764 0.0
H1101 H 0.77348 0.17046 0.8966 0.0
H1102 H 0.79777 0.16604 0.87357 0.0
H1103 H 0.80355 0.15896 0.90624 0.0
C1104 C 0.24687 0.49117 0.11371 0.0
C1105 C 0.23663 0.49219 0.08956 0.0
C1106 C 0.23131 0.49253 0.13487 0.0
C1107 C 0.20502 0.49563 0.1316 0.0
C1108 C 0.1944 0.49397 0.10736 0.0
C1109 C 0.21038 0.49196 0.08656 0.0
C1110 C 0.24329 0.49301 0.16061 0.0
C1111 C 0.16657 0.497 0.10294 0.0
C1112 C 0.177 0.49407 0.19559 0.0
C1113 C 0.18434 0.51818 0.20344 0.0
C1114 C 0.18026 0.48676 0.17051 0.0
C1115 C 0.18993 0.50441 0.15323 0.0
C1116 C 0.19146 0.53009 0.16003 0.0
C1117 C 0.18895 0.5367 0.18537 0.0
C1118 C 0.17754 0.45937 0.16381 0.0
C1119 C 0.19995 0.54983 0.14153 0.0
H1120 H 0.2671 0.49096 0.11607 0.0
H1121 H 0.20223 0.49265 0.06789 0.0
H1122 H 0.23287 0.48061 0.17373 0.0
H1123 H 0.26324 0.4869 0.16009 0.0
H1124 H 0.24261 0.51238 0.16829 0.0
H1125 H 0.16057 0.48685 0.08571 0.0
H1126 H 0.15527 0.49023 0.11909 0.0
H1127 H 0.16236 0.51721 0.1002 0.0
H1128 H 0.1727 0.47976 0.20944 0.0
H1129 H 0.19383 0.55556 0.19135 0.0
H1130 H 0.19587 0.44984 0.16665 0.0
H1131 H 0.17202 0.45684 0.14387 0.0
H1132 H 0.16345 0.44999 0.17603 0.0
H1133 H 0.22073 0.54925 0.13989 0.0
H1134 H 0.19443 0.56897 0.14774 0.0
H1135 H 0.19192 0.54626 0.12263 0.0
C1136 C 0.78678 0.93703 0.46895 0.0
C1137 C 0.79847 0.93572 0.49244 0.0
C1138 C 0.80098 0.93538 0.44689 0.0
C1139 C 0.82742 0.9327 0.44866 0.0
C1140 C 0.83858 0.9272 0.47209 0.0
C1141 C 0.82382 0.92852 0.49387 0.0
C1142 C 0.78811 0.94008 0.42202 0.0
C1143 C 0.86652 0.92333 0.47474 0.0
C1144 C 0.85366 0.936 0.3835 0.0
C1145 C 0.85288 0.96215 0.38001 0.0
C1146 C 0.84851 0.92552 0.40711 0.0
C1147 C 0.84296 0.94169 0.4274 0.0
C1148 C 0.84676 0.96794 0.42486 0.0
C1149 C 0.8515 0.97791 0.401 0.0
C1150 C 0.84566 0.89742 0.40928 0.0
C1151 C 0.84236 0.98582 0.44648 0.0
H1152 H 0.76706 0.942 0.46782 0.0
H1153 H 0.83296 0.92703 0.51203 0.0
H1154 H 0.79223 0.9595 0.41565 0.0
H1155 H 0.79517 0.92697 0.40744 0.0
H1156 H 0.7674 0.93791 0.42345 0.0
H1157 H 0.8708 0.91104 0.49107 0.0
H1158 H 0.87484 0.91497 0.45755 0.0
H1159 H 0.87569 0.94175 0.47808 0.0
H1160 H 0.85521 0.92364 0.36737 0.0
H1161 H 0.85158 -0.00188 0.3984 0.0
H1162 H 0.826 0.89216 0.40478 0.0
H1163 H 0.84989 0.89072 0.42856 0.0
H1164 H 0.85815 0.88759 0.39574 0.0
H1165 H 0.82189 0.98743 0.45009 0.0
H1166 H 0.84982 0.00489 0.44245 0.0
H1167 H 0.85134 0.9787 0.46389 0.0
C1168 C 0.32286 0.62267 0.605 0.0
C1169 C 0.34712 0.61977 0.59541 0.0
C1170 C 0.31927 0.62787 0.6305 0.0
C1171 C 0.34052 0.62923 0.64642 0.0
C1172 C 0.36478 0.63132 0.63584 0.0
C1173 C 0.36785 0.62662 0.6101 0.0
C1174 C 0.29295 0.62724 0.64097 0.0
C1175 C 0.38777 0.63404 0.65215 0.0
C1176 C 0.32517 0.62526 0.71578 0.0
C1177 C 0.32314 0.59913 0.71867 0.0
C1178 C 0.33239 0.63572 0.69268 0.0
C1179 C 0.33783 0.61954 0.67233 0.0
C1180 C 0.33773 0.59311 0.6759 0.0
C1181 C 0.33014 0.58327 0.69899 0.0
C1182 C 0.33241 0.66391 0.68985 0.0
C1183 C 0.34413 0.57504 0.6549 0.0
H1184 H 0.30682 0.61798 0.59332 0.0
H1185 H 0.38665 0.6248 0.60246 0.0
H1186 H 0.29089 0.64079 0.65668 0.0
H1187 H 0.27879 0.63164 0.62628 0.0
H1188 H 0.28894 0.60815 0.64838 0.0
H1189 H 0.4037 0.64221 0.64141 0.0
H1190 H 0.38387 0.646 0.66878 0.0
H1191 H 0.39355 0.61521 0.659 0.0
H1192 H 0.3198 0.63758 0.7311 0.0
H1193 H 0.329 0.56308 0.70144 0.0
H1194 H 0.34552 0.67032 0.67496 0.0
H1195 H 0.33754 0.67318 0.70785 0.0
H1196 H 0.31322 0.67023 0.68474 0.0
H1197 H 0.32959 0.57611 0.63998 0.0
H1198 H 0.34518 0.55527 0.66152 0.0
H1199 H 0.36243 0.58005 0.64631 0.0
C1200 C -0.00328 0.15796 0.55974 0.0
C1201 C 0.01323 0.17626 0.55058 0.0
C1202 C 0.00316 0.14327 0.58062 0.0
C1203 C 0.02707 0.14636 0.59189 0.0
C1204 C 0.04294 0.16618 0.58395 0.0
C1205 C 0.03561 0.18118 0.56356 0.0
C1206 C 0.98527 0.123 0.5892 0.0
C1207 C 0.06882 0.16986 0.59497 0.0
C1208 C 0.04216 0.10807 0.65024 0.0
C1209 C 0.05079 0.0855 0.63957 0.0
C1210 C 0.03457 0.1283 0.6351 0.0
C1211 C 0.03691 0.12639 0.6087 0.0
C1212 C 0.04769 0.10459 0.59793 0.0
C1213 C 0.05419 0.08436 0.61343 0.0
C1214 C 0.02309 0.1512 0.64731 0.0
C1215 C 0.05157 0.10225 0.56987 0.0
H1216 H 0.97933 0.15429 0.54982 0.0
H1217 H 0.04853 0.1952 0.55634 0.0
H1218 H 0.99218 0.10443 0.58273 0.0
H1219 H 0.98425 0.12247 0.61004 0.0
H1220 H 0.96605 0.12583 0.58156 0.0
H1221 H 0.07625 0.18896 0.59098 0.0
H1222 H 0.06887 0.16681 0.61558 0.0
H1223 H 0.08182 0.15593 0.5865 0.0
H1224 H 0.0411 0.11019 0.67034 0.0
H1225 H 0.06132 0.06732 0.60487 0.0
H1226 H 0.00284 0.15211 0.64248 0.0
H1227 H 0.03194 0.16863 0.6401 0.0
H1228 H 0.02493 0.15086 0.66812 0.0
H1229 H 0.0331 0.10127 0.56027 0.0
H1230 H 0.06251 0.08522 0.5648 0.0
H1231 H 0.06159 0.119 0.56253 0.0
C1232 C 0.17084 0.86361 0.90291 0.0
C1233 C 0.18848 0.84555 0.91027 0.0
C1234 C 0.15082 0.85711 0.88692 0.0
C1235 C 0.14835 0.83194 0.8786 0.0
C1236 C 0.16694 0.81407 0.88493 0.0
C1237 C 0.18708 0.82129 0.90016 0.0
C1238 C 0.1319 0.8769 0.87966 0.0
C1239 C 0.16501 0.78698 0.8766 0.0
C1240 C 0.08427 0.80433 0.86448 0.0
C1241 C 0.08555 0.80127 0.83838 0.0
C1242 C 0.10436 0.81502 0.87778 0.0
C1243 C 0.12576 0.82362 0.86448 0.0
C1244 C 0.12649 0.82179 0.83794 0.0
C1245 C 0.10655 0.81016 0.82523 0.0
C1246 C 0.10318 0.81599 0.90614 0.0
C1247 C 0.14857 0.83155 0.82304 0.0
H1248 H 0.17219 0.88253 0.91032 0.0
H1249 H 0.20149 0.80768 0.90459 0.0
H1250 H 0.12822 0.87627 0.85912 0.0
H1251 H 0.11383 0.87317 0.88934 0.0
H1252 H 0.13829 0.8961 0.88478 0.0
H1253 H 0.18108 0.77546 0.88325 0.0
H1254 H 0.14739 0.77859 0.88397 0.0
H1255 H 0.16421 0.78585 0.85581 0.0
H1256 H 0.06798 0.79744 0.87459 0.0
H1257 H 0.10729 0.80815 0.80495 0.0
H1258 H 0.10645 0.83543 0.91286 0.0
H1259 H 0.11825 0.80404 0.91418 0.0
H1260 H 0.08482 0.80938 0.91355 0.0
H1261 H 0.15369 0.85075 0.82936 0.0
H1262 H 0.14461 0.83203 0.80253 0.0
H1263 H 0.16514 0.81935 0.82623 0.0
C1264 C 0.53063 0.91539 0.06649 0.0
C1265 C 0.53535 0.88955 0.068 0.0
C1266 C 0.52751 0.92983 0.08827 0.0
C1267 C 0.52979 0.91823 0.11211 0.0
C1268 C 0.53564 0.89237 0.1138 0.0
C1269 C 0.5381 0.87824 0.09167 0.0
C1270 C 0.52087 0.9573 0.08572 0.0
C1271 C 0.53888 0.87954 0.13892 0.0
C1272 C 0.54039 0.96446 0.16502 0.0
C1273 C 0.51624 0.96651 0.17542 0.0
C1274 C 0.5454 0.94761 0.14543 0.0
C1275 C 0.52554 0.9333 0.13516 0.0
C1276 C 0.50113 0.93514 0.14554 0.0
C1277 C 0.49683 0.9516 0.16568 0.0
C1278 C 0.57177 0.94589 0.13508 0.0
C1279 C 0.47935 0.92054 0.13469 0.0
H1280 H 0.52834 0.92419 0.04825 0.0
H1281 H 0.54188 0.85827 0.09292 0.0
H1282 H 0.50248 0.96098 0.09483 0.0
H1283 H 0.53505 0.96906 0.09545 0.0
H1284 H 0.51977 0.9634 0.06577 0.0
H1285 H 0.54513 0.85973 0.13692 0.0
H1286 H 0.55284 0.88985 0.15049 0.0
H1287 H 0.52085 0.87975 0.14936 0.0
H1288 H 0.5553 0.97668 0.17128 0.0
H1289 H 0.47808 0.95321 0.17347 0.0
H1290 H 0.57246 0.9545 0.11611 0.0
H1291 H 0.5775 0.92595 0.13308 0.0
H1292 H 0.58563 0.95566 0.14726 0.0
H1293 H 0.47601 0.92654 0.11499 0.0
H1294 H 0.46176 0.9233 0.14558 0.0
H1295 H 0.48379 0.90019 0.13427 0.0
C1296 C 0.33093 0.28361 0.39258 0.0
C1297 C 0.31532 0.2625 0.39053 0.0
C1298 C 0.34898 0.28892 0.37417 0.0
C1299 C 0.35187 0.27229 0.35365 0.0
C1300 C 0.33714 0.25014 0.3523 0.0
C1301 C 0.31899 0.24549 0.37085 0.0
C1302 C 0.36435 0.31267 0.37629 0.0
C1303 C 0.3401 0.23173 0.33091 0.0
C1304 C 0.37647 0.29506 0.29089 0.0
C1305 C 0.4011 0.28578 0.29117 0.0
C1306 C 0.36058 0.29174 0.31163 0.0
C1307 C 0.36946 0.27854 0.33295 0.0
C1308 C 0.39468 0.27022 0.33384 0.0
C1309 C 0.41029 0.27413 0.31297 0.0
C1310 C 0.33395 0.30142 0.31026 0.0
C1311 C 0.40479 0.25604 0.35625 0.0
H1312 H 0.32878 0.2962 0.40846 0.0
H1313 H 0.30719 0.22893 0.36961 0.0
H1314 H 0.38468 0.30826 0.3753 0.0
H1315 H 0.36 0.32526 0.36024 0.0
H1316 H 0.3606 0.32298 0.39406 0.0
H1317 H 0.32832 0.21468 0.33347 0.0
H1318 H 0.33472 0.24087 0.31295 0.0
H1319 H 0.36002 0.22589 0.32917 0.0
H1320 H 0.36937 0.30428 0.27417 0.0
H1321 H 0.4293 0.26687 0.3133 0.0
H1322 H 0.32953 0.31278 0.32718 0.0
H1323 H 0.32068 0.28535 0.30991 0.0
H1324 H 0.33066 0.31311 0.29328 0.0
H1325 H 0.40129 0.26668 0.37383 0.0
H1326 H 0.42526 0.25233 0.35466 0.0
H1327 H 0.39487 0.23779 0.35799 0.0
C1328 C 0.56262 0.38786 0.46165 0.0
C1329 C 0.57268 0.36402 0.46622 0.0
C1330 C 0.57141 0.40259 0.44164 0.0
C1331 C 0.59136 0.39358 0.42646 0.0
C1332 C 0.60225 0.36991 0.43167 0.0
C1333 C 0.59242 0.35516 0.45121 0.0
C1334 C 0.55882 0.42743 0.43627 0.0
C1335 C 0.62414 0.36009 0.41653 0.0
C1336 C 0.59386 0.42106 0.36089 0.0
C1337 C 0.60912 0.44219 0.36461 0.0
C1338 C 0.58853 0.40453 0.38067 0.0
C1339 C 0.59979 0.40855 0.40444 0.0
C1340 C 0.61738 0.42827 0.40753 0.0
C1341 C 0.62167 0.44505 0.38761 0.0
C1342 C 0.56955 0.38381 0.37656 0.0
C1343 C 0.63062 0.43248 0.43227 0.0
H1344 H 0.54724 0.3946 0.47319 0.0
H1345 H 0.60035 0.33678 0.45494 0.0
H1346 H 0.57276 0.44288 0.43722 0.0
H1347 H 0.55097 0.42732 0.41693 0.0
H1348 H 0.5434 0.43157 0.44972 0.0
H1349 H 0.63214 0.34264 0.4247 0.0
H1350 H 0.61804 0.35605 0.39702 0.0
H1351 H 0.63918 0.3745 0.41545 0.0
H1352 H 0.58534 0.41786 0.34271 0.0
H1353 H 0.63387 0.46111 0.39048 0.0
H1354 H 0.55279 0.38728 0.38848 0.0
H1355 H 0.57745 0.36541 0.38224 0.0
H1356 H 0.56337 0.38254 0.35664 0.0
H1357 H 0.61715 0.44013 0.4462 0.0
H1358 H 0.64651 0.44589 0.43043 0.0
H1359 H 0.63787 0.41446 0.43985 0.0
C1360 C 0.96577 0.27711 0.66453 0.0
C1361 C 0.98786 0.28908 0.67233 0.0
C1362 C 0.94752 0.2901 0.6507 0.0
C1363 C 0.95134 0.31577 0.64475 0.0
C1364 C 0.97398 0.32774 0.65182 0.0
C1365 C 0.99201 0.31422 0.6655 0.0
C1366 C 0.92377 0.27652 0.64312 0.0
C1367 C 0.97883 0.35501 0.64577 0.0
C1368 C 0.90628 0.33857 0.59482 0.0
C1369 C 0.88587 0.34606 0.60967 0.0
C1370 C 0.9287 0.3303 0.60591 0.0
C1371 C 0.93079 0.3301 0.63243 0.0
C1372 C 0.91131 0.34047 0.64731 0.0
C1373 C 0.88898 0.34831 0.63571 0.0
C1374 C 0.94919 0.31979 0.58935 0.0
C1375 C 0.91309 0.34117 0.67563 0.0
H1376 H 0.96253 0.25765 0.66959 0.0
H1377 H 0.00907 0.32363 0.67146 0.0
H1378 H 0.90741 0.28508 0.65279 0.0
H1379 H 0.92062 0.27844 0.62258 0.0
H1380 H 0.92437 0.25621 0.64788 0.0
H1381 H -0.00128 0.36037 0.64916 0.0
H1382 H 0.97408 0.35915 0.6259 0.0
H1383 H 0.96665 0.36699 0.65773 0.0
H1384 H 0.90417 0.33773 0.57458 0.0
H1385 H 0.87329 0.35431 0.64723 0.0
H1386 H 0.9499 0.29907 0.59155 0.0
H1387 H 0.96776 0.32733 0.59499 0.0
H1388 H 0.94602 0.32414 0.56916 0.0
H1389 H 0.91122 0.32181 0.68316 0.0
H1390 H 0.89814 0.353 0.68412 0.0
H1391 H 0.93165 0.34848 0.68163 0.0
C1392 C 0.96536 0.64333 0.00388 0.0
C1393 C 0.98967 0.64431 0.01397 0.0
C1394 C 0.959 0.62545 0.98559 0.0
C1395 C 0.97765 0.60875 0.97663 0.0
C1396 C 0.00244 0.61022 0.98623 0.0
C1397 C 0.00804 0.62772 0.00514 0.0
C1398 C 0.9322 0.62393 0.97642 0.0
C1399 C 0.023 0.59323 0.9766 0.0
C1400 C 0.96164 0.54614 0.94652 0.0
C1401 C 0.96457 0.55168 0.92093 0.0
C1402 C 0.96474 0.56484 0.96487 0.0
C1403 C 0.97131 0.58952 0.95741 0.0
C1404 C 0.97298 0.59549 0.93155 0.0
C1405 C 0.96898 0.57659 0.91363 0.0
C1406 C 0.96187 0.55799 0.99227 0.0
C1407 C 0.98006 0.62153 0.92278 0.0
H1408 H 0.95105 0.65596 0.01101 0.0
H1409 H 0.02685 0.62856 0.01293 0.0
H1410 H 0.93149 0.62625 0.95572 0.0
H1411 H 0.92435 0.60512 0.98078 0.0
H1412 H 0.92001 0.63843 0.98519 0.0
H1413 H 0.04156 0.5977 0.98505 0.0
H1414 H 0.01837 0.57337 0.9809 0.0
H1415 H 0.02452 0.5949 0.95585 0.0
H1416 H 0.95782 0.52698 0.95227 0.0
H1417 H 0.96959 0.58139 0.89391 0.0
H1418 H 0.94936 0.57161 0.00188 0.0
H1419 H 0.98043 0.55888 0.0017 0.0
H1420 H 0.95408 0.53879 0.9948 0.0
H1421 H 0.96698 0.63566 0.93071 0.0
H1422 H 0.97992 0.62323 0.90196 0.0
H1423 H -0.00084 0.62627 0.9297 0.0
C1424 C 0.67235 0.76236 0.13953 0.0
C1425 C 0.68823 0.74481 0.15106 0.0
C1426 C 0.65211 0.77292 0.15265 0.0
C1427 C 0.64743 0.76525 0.17766 0.0
C1428 C 0.66273 0.74661 0.18895 0.0
C1429 C 0.68295 0.73657 0.17545 0.0
C1430 C 0.63591 0.79233 0.13979 0.0
C1431 C 0.65814 0.73774 0.21555 0.0
C1432 C 0.61497 0.80481 0.22672 0.0
C1433 C 0.59202 0.79213 0.22909 0.0
C1434 C 0.63252 0.79755 0.20847 0.0
C1435 C 0.62703 0.77696 0.19255 0.0
C1436 C 0.60307 0.76555 0.19339 0.0
C1437 C 0.58568 0.77353 0.21146 0.0
C1438 C 0.6577 0.81057 0.20765 0.0
C1439 C 0.59659 0.74354 0.17666 0.0
H1440 H 0.67575 0.7679 0.12025 0.0
H1441 H 0.69515 0.72285 0.18427 0.0
H1442 H 0.61719 0.78413 0.13574 0.0
H1443 H 0.63297 0.80884 0.15218 0.0
H1444 H 0.64423 0.79884 0.12178 0.0
H1445 H 0.67118 0.72247 0.22119 0.0
H1446 H 0.66048 0.75367 0.22881 0.0
H1447 H 0.63858 0.73082 0.21753 0.0
H1448 H 0.61987 0.81937 0.2401 0.0
H1449 H 0.5679 0.76371 0.21304 0.0
H1450 H 0.66289 0.81515 0.18796 0.0
H1451 H 0.67235 0.79781 0.21519 0.0
H1452 H 0.65783 0.82814 0.21892 0.0
H1453 H 0.59926 0.74872 0.15665 0.0
H1454 H 0.57695 0.73704 0.17934 0.0
H1455 H 0.60938 0.72759 0.1807 0.0
C1456 C 0.6673 0.07344 0.12196 0.0
C1457 C 0.68265 0.09484 0.12118 0.0
C1458 C 0.65152 0.0687 0.14247 0.0
C1459 C 0.64975 0.0866 0.16204 0.0
C1460 C 0.6641 0.10897 0.16079 0.0
C1461 C 0.68063 0.11268 0.14051 0.0
C1462 C 0.63673 0.04446 0.14315 0.0
C1463 C 0.6618 0.12903 0.18071 0.0
C1464 C 0.58886 0.08105 0.19829 0.0
C1465 C 0.59674 0.06887 0.22022 0.0
C1466 C 0.60621 0.0883 0.17988 0.0
C1467 C 0.63189 0.08223 0.18307 0.0
C1468 C 0.63997 0.07015 0.20542 0.0
C1469 C 0.62226 0.06404 0.22405 0.0
C1470 C 0.59694 0.10199 0.1568 0.0
C1471 C 0.66705 0.06266 0.20915 0.0
H1472 H 0.66731 0.06033 0.10647 0.0
H1473 H 0.69209 0.1295 0.13987 0.0
H1474 H 0.63969 0.03475 0.16138 0.0
H1475 H 0.61638 0.04852 0.1415 0.0
H1476 H 0.64211 0.03147 0.12772 0.0
H1477 H 0.6738 0.14562 0.17666 0.0
H1478 H 0.64198 0.13531 0.18216 0.0
H1479 H 0.66717 0.12132 0.19931 0.0
H1480 H 0.56906 0.08502 0.19564 0.0
H1481 H 0.62817 0.0546 0.24112 0.0
H1482 H 0.59838 0.08955 0.14014 0.0
H1483 H 0.60874 0.11876 0.15309 0.0
H1484 H 0.57707 0.10807 0.15873 0.0
H1485 H 0.67254 0.04889 0.19447 0.0
H1486 H 0.67039 0.05414 0.22792 0.0
H1487 H 0.6795 0.07923 0.20703 0.0
C1488 C 0.14885 0.4103 0.34376 0.0
C1489 C 0.15971 0.43396 0.34722 0.0
C1490 C 0.15189 0.39144 0.36197 0.0
C1491 C 0.16627 0.39658 0.3838 0.0
C1492 C 0.17517 0.42124 0.3883 0.0
C1493 C 0.17153 0.43973 0.36998 0.0
C1494 C 0.14155 0.36555 0.35687 0.0
C1495 C 0.19066 0.42754 0.41125 0.0
C1496 C 0.17406 0.35151 0.43853 0.0
C1497 C 0.19708 0.34016 0.43254 0.0
C1498 C 0.16298 0.36904 0.42222 0.0
C1499 C 0.17556 0.3757 0.39975 0.0
C1500 C 0.19846 0.36381 0.39335 0.0
C1501 C 0.20881 0.34605 0.40973 0.0
C1502 C 0.1383 0.38098 0.42939 0.0
C1503 C 0.21269 0.37067 0.36973 0.0
H1504 H 0.13951 0.40603 0.32615 0.0
H1505 H 0.17948 0.45831 0.37267 0.0
H1506 H 0.15703 0.35302 0.35074 0.0
H1507 H 0.13328 0.35736 0.37418 0.0
H1508 H 0.12703 0.36582 0.34187 0.0
H1509 H 0.19356 0.4481 0.41337 0.0
H1510 H 0.18156 0.42027 0.42853 0.0
H1511 H 0.20932 0.4184 0.40968 0.0
H1512 H 0.16482 0.34689 0.4561 0.0
H1513 H 0.2267 0.33759 0.40512 0.0
H1514 H 0.12515 0.38079 0.4132 0.0
H1515 H 0.14144 0.4009 0.43463 0.0
H1516 H 0.12929 0.37127 0.44554 0.0
H1517 H 0.20049 0.36828 0.353 0.0
H1518 H 0.22983 0.35906 0.36712 0.0
H1519 H 0.21836 0.39072 0.37051 0.0
C1520 C 0.8529 0.97322 0.6636 0.0
C1521 C 0.85912 0.95751 0.64337 0.0
C1522 C 0.87165 0.98337 0.6792 0.0
C1523 C 0.89711 0.97723 0.67465 0.0
C1524 C 0.90336 0.96057 0.65485 0.0
C1525 C 0.88428 0.9509 0.63948 0.0
C1526 C 0.8642 0.00065 0.70044 0.0
C1527 C 0.93028 0.95329 0.64956 0.0
C1528 C 0.95227 0.01747 0.69505 0.0
C1529 C 0.96154 0.00359 0.71539 0.0
C1530 C 0.93014 0.0101 0.68267 0.0
C1531 C 0.91748 0.988 0.69046 0.0
C1532 C 0.92616 0.97463 0.71171 0.0
C1533 C 0.94792 0.98277 0.7241 0.0
C1534 C 0.9212 0.02508 0.66031 0.0
C1535 C 0.91333 0.95087 0.72047 0.0
H1536 H 0.8334 0.97759 0.66729 0.0
H1537 H 0.88916 0.93875 0.62387 0.0
H1538 H 0.86745 0.99108 0.71866 0.0
H1539 H 0.87589 0.01791 0.70031 0.0
H1540 H 0.8441 0.00615 0.69941 0.0
H1541 H 0.93188 0.93967 0.63381 0.0
H1542 H 0.94138 0.97027 0.64478 0.0
H1543 H 0.93886 0.94483 0.66658 0.0
H1544 H 0.96282 0.03351 0.68824 0.0
H1545 H 0.95522 0.97174 0.7396 0.0
H1546 H 0.90076 0.02886 0.66185 0.0
H1547 H 0.92421 0.01405 0.64286 0.0
H1548 H 0.93129 0.04325 0.65849 0.0
H1549 H 0.89326 0.95466 0.72451 0.0
H1550 H 0.92219 0.9429 0.73761 0.0
H1551 H 0.91402 0.93648 0.70538 0.0
C1552 C 0.27595 0.73154 0.9682 0.0
C1553 C 0.27232 0.7562 0.95963 0.0
C1554 C 0.28211 0.71217 0.95142 0.0
C1555 C 0.28531 0.71777 0.92561 0.0
C1556 C 0.28132 0.74255 0.91682 0.0
C1557 C 0.27461 0.76142 0.93391 0.0
C1558 C 0.28568 0.68588 0.96145 0.0
C1559 C 0.28474 0.74929 0.88943 0.0
C1560 C 0.32547 0.67583 0.88424 0.0
C1561 C 0.30715 0.66292 0.87042 0.0
C1562 C 0.31864 0.6933 0.9028 0.0
C1563 C 0.29289 0.69785 0.90763 0.0
C1564 C 0.27434 0.68451 0.89411 0.0
C1565 C 0.28169 0.66754 0.87539 0.0
C1566 C 0.33895 0.70741 0.91671 0.0
C1567 C 0.24668 0.68868 0.8989 0.0
H1568 H 0.27411 0.72738 0.98808 0.0
H1569 H 0.27196 0.78046 0.9272 0.0
H1570 H 0.27611 0.67194 0.94924 0.0
H1571 H 0.30598 0.68122 0.96159 0.0
H1572 H 0.27834 0.68387 0.98091 0.0
H1573 H 0.28092 0.76945 0.88567 0.0
H1574 H 0.30426 0.74502 0.88349 0.0
H1575 H 0.27202 0.73781 0.87757 0.0
H1576 H 0.34516 0.67251 0.88029 0.0
H1577 H 0.26734 0.65873 0.86405 0.0
H1578 H 0.33668 0.70481 0.93728 0.0
H1579 H 0.33725 0.72782 0.91282 0.0
H1580 H 0.35809 0.70116 0.91124 0.0
H1581 H 0.24253 0.68673 0.91926 0.0
H1582 H 0.23471 0.67525 0.88832 0.0
H1583 H 0.24142 0.70804 0.89331 0.0
C1584 C 0.17418 0.46523 0.9259 0.0
C1585 C 0.1828 0.48581 0.93987 0.0
C1586 C 0.15389 0.4677 0.90925 0.0
C1587 C 0.14195 0.49131 0.90662 0.0
C1588 C 0.15105 0.51232 0.92009 0.0
C1589 C 0.17115 0.50924 0.9368 0.0
C1590 C 0.14464 0.44487 0.89518 0.0
C1591 C 0.13895 0.53786 0.91758 0.0
C1592 C 0.09797 0.49934 0.85103 0.0
C1593 C 0.07453 0.49486 0.86225 0.0
C1594 C 0.12008 0.4991 0.86538 0.0
C1595 C 0.11872 0.49356 0.89137 0.0
C1596 C 0.09507 0.48955 0.90286 0.0
C1597 C 0.07324 0.4905 0.8882 0.0
C1598 C 0.14488 0.50412 0.85256 0.0
C1599 C 0.09286 0.48355 0.93054 0.0
H1600 H 0.18302 0.44705 0.92838 0.0
H1601 H 0.17683 0.525 0.94827 0.0
H1602 H 0.12518 0.44036 0.90114 0.0
H1603 H 0.14412 0.44879 0.8747 0.0
H1604 H 0.15665 0.42814 0.89848 0.0
H1605 H 0.14981 0.55274 0.92742 0.0
H1606 H 0.13717 0.54306 0.89745 0.0
H1607 H 0.11973 0.53732 0.9256 0.0
H1608 H 0.09908 0.50288 0.83098 0.0
H1609 H 0.05519 0.48696 0.89696 0.0
H1610 H 0.15496 0.4861 0.8498 0.0
H1611 H 0.157 0.51639 0.86428 0.0
H1612 H 0.1423 0.51317 0.83392 0.0
H1613 H 0.10305 0.46586 0.93474 0.0
H1614 H 0.07303 0.48139 0.93665 0.0
H1615 H 0.10169 0.49864 0.9419 0.0
C1616 C 0.84509 0.81099 0.13589 0.0
C1617 C 0.82033 0.80199 0.13696 0.0
C1618 C 0.85447 0.82717 0.15446 0.0
C1619 C 0.83854 0.83493 0.17427 0.0
C1620 C 0.81357 0.82581 0.17553 0.0
C1621 C 0.80483 0.80923 0.15697 0.0
C1622 C 0.88133 0.83614 0.15274 0.0
C1623 C 0.7959 0.83404 0.19616 0.0
C1624 C 0.86413 0.86252 0.23493 0.0
C1625 C 0.86008 0.88819 0.23098 0.0
C1626 C 0.85807 0.84492 0.21622 0.0
C1627 C 0.84761 0.85332 0.19322 0.0
C1628 C 0.84478 0.87937 0.18872 0.0
C1629 C 0.85147 0.89652 0.20756 0.0
C1630 C 0.86199 0.81732 0.22139 0.0
C1631 C 0.83371 0.88911 0.16446 0.0
H1632 H 0.85723 0.80529 0.12055 0.0
H1633 H 0.78564 0.80244 0.15779 0.0
H1634 H 0.88176 0.85678 0.15 0.0
H1635 H 0.89138 0.83208 0.17056 0.0
H1636 H 0.89168 0.82715 0.13699 0.0
H1637 H 0.77712 0.82507 0.19456 0.0
H1638 H 0.80395 0.82934 0.21481 0.0
H1639 H 0.79347 0.85473 0.19551 0.0
H1640 H 0.87113 0.85616 0.25298 0.0
H1641 H 0.84938 0.91649 0.2042 0.0
H1642 H 0.8725 0.80847 0.20571 0.0
H1643 H 0.84354 0.80774 0.22268 0.0
H1644 H 0.87241 0.81406 0.23919 0.0
H1645 H 0.84454 0.88195 0.14816 0.0
H1646 H 0.83348 0.90996 0.16367 0.0
H1647 H 0.81416 0.88216 0.16241 0.0
C1648 C 0.49027 0.53853 0.3586 0.0
C1649 C 0.51638 0.53917 0.35559 0.0
C1650 C 0.479 0.5479 0.38052 0.0
C1651 C 0.4942 0.55896 0.3994 0.0
C1652 C 0.52061 0.55943 0.39652 0.0
C1653 C 0.53142 0.54914 0.37479 0.0
C1654 C 0.45082 0.54632 0.38331 0.0
C1655 C 0.53736 0.57174 0.41586 0.0
C1656 C 0.45938 0.60454 0.44184 0.0
C1657 C 0.45482 0.58952 0.46296 0.0
C1658 C 0.47325 0.59522 0.42139 0.0
C1659 C 0.48231 0.5702 0.42203 0.0
C1660 C 0.47893 0.5555 0.4439 0.0
C1661 C 0.46579 0.56561 0.46433 0.0
C1662 C 0.47738 0.6118 0.39874 0.0
C1663 C 0.48807 0.52867 0.44529 0.0
H1664 H 0.47866 0.53086 0.3437 0.0
H1665 H 0.55161 0.55007 0.37226 0.0
H1666 H 0.44592 0.53706 0.40135 0.0
H1667 H 0.4427 0.5655 0.38378 0.0
H1668 H 0.44191 0.53572 0.36768 0.0
H1669 H 0.5576 0.56987 0.41113 0.0
H1670 H 0.53272 0.59201 0.41722 0.0
H1671 H 0.53411 0.56342 0.43468 0.0
H1672 H 0.45131 0.6232 0.44088 0.0
H1673 H 0.46357 0.55445 0.48118 0.0
H1674 H 0.46636 0.60452 0.38261 0.0
H1675 H 0.49746 0.61157 0.39315 0.0
H1676 H 0.47164 0.63154 0.40232 0.0
H1677 H 0.47838 0.51725 0.43076 0.0
H1678 H 0.48455 0.52004 0.46398 0.0
H1679 H 0.50847 0.52774 0.44126 0.0
C1680 C 0.81186 0.21381 0.61762 0.0
C1681 C 0.81067 0.24012 0.61831 0.0
C1682 C 0.80408 0.19944 0.63828 0.0
C1683 C 0.79474 0.21172 0.65995 0.0
C1684 C 0.79576 0.2382 0.66165 0.0
C1685 C 0.80402 0.25211 0.64087 0.0
C1686 C 0.80402 0.17116 0.63615 0.0
C1687 C 0.78605 0.25197 0.68449 0.0
C1688 C 0.74435 0.17617 0.69575 0.0
C1689 C 0.75828 0.16629 0.71565 0.0
C1690 C 0.75595 0.19151 0.67768 0.0
C1691 C 0.78196 0.19696 0.67984 0.0
C1692 C 0.79579 0.18768 0.70051 0.0
C1693 C 0.78377 0.1723 0.71814 0.0
C1694 C 0.74053 0.20147 0.65604 0.0
C1695 C 0.82339 0.19338 0.70364 0.0
H1696 H 0.8172 0.20441 0.60034 0.0
H1697 H 0.80311 0.27243 0.64166 0.0
H1698 H 0.81237 0.16256 0.65321 0.0
H1699 H 0.78437 0.16433 0.63468 0.0
H1700 H 0.81456 0.16452 0.61939 0.0
H1701 H 0.79135 0.27216 0.68431 0.0
H1702 H 0.76525 0.25064 0.68498 0.0
H1703 H 0.79325 0.24333 0.70204 0.0
H1704 H 0.72462 0.17143 0.69404 0.0
H1705 H 0.79438 0.16462 0.73376 0.0
H1706 H 0.7478 0.1938 0.63805 0.0
H1707 H 0.74219 0.22223 0.65505 0.0
H1708 H 0.72035 0.19644 0.65773 0.0
H1709 H 0.83425 0.18289 0.68926 0.0
H1710 H 0.83035 0.18806 0.72258 0.0
H1711 H 0.8272 0.21365 0.70067 0.0
C1712 C 0.22765 0.59525 0.05211 0.0
C1713 C 0.22555 0.58096 0.02997 0.0
C1714 C 0.20684 0.60791 0.06207 0.0
C1715 C 0.1837 0.60703 0.04907 0.0
C1716 C 0.18234 0.59531 0.02519 0.0
C1717 C 0.20327 0.58223 0.01598 0.0
C1718 C 0.20899 0.62002 0.08768 0.0
C1719 C 0.15814 0.59462 0.01043 0.0
C1720 C 0.12312 0.60448 0.08642 0.0
C1721 C 0.11385 0.62885 0.08327 0.0
C1722 C 0.14622 0.59739 0.07594 0.0
C1723 C 0.16027 0.61512 0.06187 0.0
C1724 C 0.15157 0.6401 0.05964 0.0
C1725 C 0.12859 0.64674 0.07069 0.0
C1726 C 0.15516 0.57068 0.07927 0.0
C1727 C 0.16604 0.65953 0.04488 0.0
H1728 H 0.24489 0.59469 0.06295 0.0
H1729 H 0.20157 0.57155 -0.00129 0.0
H1730 H 0.20216 0.63968 0.08699 0.0
H1731 H 0.197 0.60975 0.10131 0.0
H1732 H 0.22857 0.62 0.09487 0.0
H1733 H 0.16114 0.58825 0.99076 0.0
H1734 H 0.1448 0.58149 0.01962 0.0
H1735 H 0.14921 0.61345 0.01011 0.0
H1736 H 0.11191 0.59069 0.09639 0.0
H1737 H 0.12214 0.66595 0.0693 0.0
H1738 H 0.17496 0.57039 0.08572 0.0
H1739 H 0.15441 0.56074 0.06094 0.0
H1740 H 0.1435 0.56015 0.09301 0.0
H1741 H 0.18581 0.66043 0.05137 0.0
H1742 H 0.15761 0.67856 0.04648 0.0
H1743 H 0.16641 0.65412 0.02473 0.0
C1744 C 0.70826 0.9927 0.00178 0.0
C1745 C 0.70737 0.01831 0.00778 0.0
C1746 C 0.68682 0.98014 0.99298 0.0
C1747 C 0.66419 0.99369 0.98951 0.0
C1748 C 0.66353 0.01979 0.99449 0.0
C1749 C 0.68504 0.03172 0.00392 0.0
C1750 C 0.6881 0.95217 0.98844 0.0
C1751 C 0.63993 0.03499 0.99044 0.0
C1752 C 0.61293 0.96015 0.95258 0.0
C1753 C 0.59841 0.95022 0.97214 0.0
C1754 C 0.63403 0.97519 0.95783 0.0
C1755 C 0.64068 0.98005 0.98318 0.0
C1756 C 0.62528 0.97102 0.00287 0.0
C1757 C 0.60408 0.95665 -0.00296 0.0
C1758 C 0.64961 0.98521 0.93636 0.0
C1759 C 0.63167 0.97569 0.03016 0.0
H1760 H 0.72551 0.9823 0.00475 0.0
H1761 H 0.68442 0.05163 0.00819 0.0
H1762 H 0.67537 0.94234 0.00173 0.0
H1763 H 0.68161 0.94767 0.96914 0.0
H1764 H 0.70739 0.94462 0.99092 0.0
H1765 H 0.64336 0.05549 0.99235 0.0
H1766 H 0.63206 0.03122 0.97149 0.0
H1767 H 0.6255 0.0294 0.0044 0.0
H1768 H 0.60831 0.95547 0.93328 0.0
H1769 H 0.59213 0.95006 0.01213 0.0
H1770 H 0.66824 0.9759 0.93629 0.0
H1771 H 0.65291 0.00565 0.93876 0.0
H1772 H 0.64051 0.98196 0.91784 0.0
H1773 H 0.65037 0.96757 0.03451 0.0
H1774 H 0.61765 0.96733 0.04318 0.0
H1775 H 0.63279 -0.00386 0.0339 0.0
C1776 C 0.31401 0.34662 0.19962 0.0
C1777 C 0.33981 0.35159 0.1976 0.0
C1778 C 0.29728 0.36509 0.20829 0.0
C1779 C 0.30668 0.38889 0.21555 0.0
C1780 C 0.33256 0.39426 0.21273 0.0
C1781 C 0.34864 0.37575 0.20317 0.0
C1782 C 0.26962 0.35907 0.20997 0.0
C1783 C 0.3434 0.41939 0.22029 0.0
C1784 C 0.26613 0.4471 0.21975 0.0
C1785 C 0.26141 0.44856 0.24561 0.0
C1786 C 0.2796 0.42697 0.20953 0.0
C1787 C 0.28957 0.40845 0.22577 0.0
C1788 C 0.28457 0.40967 0.25196 0.0
C1789 C 0.27005 0.42955 0.26154 0.0
C1790 C 0.28366 0.42595 0.18144 0.0
C1791 C 0.29547 0.39064 0.26993 0.0
H1792 H 0.30696 0.32807 0.19504 0.0
H1793 H 0.36819 0.38029 0.20021 0.0
H1794 H 0.26346 0.35962 0.22989 0.0
H1795 H 0.25856 0.37342 0.19966 0.0
H1796 H 0.26513 0.34026 0.20213 0.0
H1797 H 0.36415 0.42003 0.21825 0.0
H1798 H 0.33516 0.43451 0.20857 0.0
H1799 H 0.33855 0.42356 0.24016 0.0
H1800 H 0.25916 0.46178 0.20748 0.0
H1801 H 0.26637 0.43084 0.28156 0.0
H1802 H 0.28037 0.40667 0.17421 0.0
H1803 H 0.30338 0.43102 0.17704 0.0
H1804 H 0.2711 0.43911 0.17123 0.0
H1805 H 0.29007 0.37137 0.26417 0.0
H1806 H 0.28917 0.39378 0.28959 0.0
H1807 H 0.31629 0.39167 0.26937 0.0
C1808 C 0.91854 0.08429 0.46811 0.0
C1809 C 0.93344 0.10077 0.48221 0.0
C1810 C 0.89874 0.07097 0.47944 0.0
C1811 C 0.89385 0.07427 0.50544 0.0
C1812 C 0.90913 0.09057 0.5198 0.0
C1813 C 0.92896 0.10328 0.50809 0.0
C1814 C 0.88302 0.05342 0.46362 0.0
C1815 C 0.90447 0.09468 0.54752 0.0
C1816 C 0.8286 0.05609 0.52783 0.0
C1817 C 0.83294 0.03218 0.53799 0.0
C1818 C 0.84843 0.07045 0.51804 0.0
C1819 C 0.87302 0.06032 0.51774 0.0
C1820 C 0.87763 0.03656 0.52872 0.0
C1821 C 0.85758 0.0229 0.53899 0.0
C1822 C 0.84279 0.09601 0.50716 0.0
C1823 C 0.90354 0.02501 0.52858 0.0
H1824 H 0.92219 0.08208 0.44818 0.0
H1825 H 0.9412 0.11493 0.51939 0.0
H1826 H 0.88352 0.0342 0.47169 0.0
H1827 H 0.86315 0.05966 0.46377 0.0
H1828 H 0.88959 0.05253 0.44382 0.0
H1829 H 0.91773 0.10849 0.55585 0.0
H1830 H 0.88501 0.10153 0.55047 0.0
H1831 H 0.90631 0.07667 0.55783 0.0
H1832 H 0.80959 0.06335 0.52696 0.0
H1833 H 0.86105 0.00432 0.54657 0.0
H1834 H 0.84249 0.09472 0.48634 0.0
H1835 H 0.85748 0.10982 0.51246 0.0
H1836 H 0.8243 0.10318 0.5136 0.0
H1837 H 0.90961 0.02173 0.50888 0.0
H1838 H 0.90417 0.00685 0.53884 0.0
H1839 H 0.91732 0.03802 0.53723 0.0
C1840 C 0.20373 0.59654 0.76474 0.0
C1841 C 0.22146 0.60372 0.78293 0.0
C1842 C 0.18241 0.61129 0.76006 0.0
C1843 C 0.17848 0.63339 0.7743 0.0
C1844 C 0.19547 0.63988 0.79372 0.0
C1845 C 0.21683 0.62505 0.7977 0.0
C1846 C 0.16476 0.60392 0.73908 0.0
C1847 C 0.1917 0.66315 0.80954 0.0
C1848 C 0.14208 0.68788 0.74639 0.0
C1849 C 0.1192 0.68594 0.75915 0.0
C1850 C 0.16138 0.67048 0.75069 0.0
C1851 C 0.15749 0.65061 0.76799 0.0
C1852 C 0.13395 0.64791 0.78001 0.0
C1853 C 0.11502 0.6656 0.77534 0.0
C1854 C 0.1862 0.67381 0.73735 0.0
C1855 C 0.12901 0.62681 0.79833 0.0
H1856 H 0.20711 0.58006 0.75325 0.0
H1857 H 0.23034 0.63067 0.81186 0.0
H1858 H 0.14551 0.60129 0.74659 0.0
H1859 H 0.16382 0.61916 0.72489 0.0
H1860 H 0.17069 0.58637 0.72949 0.0
H1861 H 0.20557 0.6645 0.82509 0.0
H1862 H 0.19352 0.6801 0.79755 0.0
H1863 H 0.17252 0.66331 0.81769 0.0
H1864 H 0.1452 0.70353 0.73372 0.0
H1865 H 0.09694 0.66352 0.78443 0.0
H1866 H 0.19149 0.65622 0.7275 0.0
H1867 H 0.20115 0.67788 0.7513 0.0
H1868 H 0.18569 0.68936 0.72343 0.0
H1869 H 0.13307 0.60843 0.78939 0.0
H1870 H 0.1093 0.62671 0.80518 0.0
H1871 H 0.14173 0.62866 0.81476 0.0
C1872 C 0.50721 0.44623 0.55904 0.0
C1873 C 0.50771 0.42859 0.57856 0.0
C1874 C 0.48956 0.46567 0.55894 0.0
C1875 C 0.47303 0.46832 0.57961 0.0
C1876 C 0.47557 0.45244 0.60078 0.0
C1877 C 0.49275 0.43249 0.59989 0.0
C1878 C 0.48732 0.48206 0.53585 0.0
C1879 C 0.45909 0.4555 0.62366 0.0
C1880 C 0.43467 0.52812 0.57764 0.0
C1881 C 0.41209 0.5193 0.56742 0.0
C1882 C 0.45423 0.51146 0.58336 0.0
C1883 C 0.45139 0.48567 0.57759 0.0
C1884 C 0.42836 0.47666 0.56774 0.0
C1885 C 0.40877 0.49359 0.56322 0.0
C1886 C 0.47811 0.52154 0.59487 0.0
C1887 C 0.42483 0.44938 0.56071 0.0
H1888 H 0.51981 0.44416 0.54321 0.0
H1889 H 0.49348 0.41921 0.61533 0.0
H1890 H 0.46887 0.47871 0.5267 0.0
H1891 H 0.48808 0.50219 0.5411 0.0
H1892 H 0.50237 0.47825 0.52189 0.0
H1893 H 0.46658 0.44502 0.6401 0.0
H1894 H 0.45725 0.47562 0.62878 0.0
H1895 H 0.43999 0.44829 0.61948 0.0
H1896 H 0.43704 0.54806 0.58107 0.0
H1897 H 0.39129 0.4869 0.55515 0.0
H1898 H 0.49324 0.52177 0.58054 0.0
H1899 H 0.48446 0.50928 0.6105 0.0
H1900 H 0.47569 0.54096 0.60214 0.0
H1901 H 0.43861 0.44409 0.54597 0.0
H1902 H 0.40563 0.44543 0.55355 0.0
H1903 H 0.42838 0.43719 0.57723 0.0
C1904 C 0.86615 0.07643 0.76946 0.0
C1905 C 0.84379 0.08772 0.76118 0.0
C1906 C 0.88954 0.08777 0.76479 0.0
C1907 C 0.89047 0.11085 0.75159 0.0
C1908 C 0.86826 0.12075 0.74091 0.0
C1909 C 0.84521 0.1092 0.74601 0.0
C1910 C 0.91281 0.07603 0.77588 0.0
C1911 C 0.8683 0.14492 0.72609 0.0
C1912 C 0.93508 0.1617 0.77321 0.0
C1913 C 0.95227 0.16277 0.75334 0.0
C1914 C 0.91545 0.14422 0.77321 0.0
C1915 C 0.91314 0.12709 0.75297 0.0
C1916 C 0.93117 0.12723 0.73339 0.0
C1917 C 0.95052 0.14522 0.73373 0.0
C1918 C 0.89667 0.14468 0.79451 0.0
C1919 C 0.92967 0.10876 0.71192 0.0
H1920 H 0.86537 0.05956 0.78086 0.0
H1921 H 0.82817 0.11796 0.73925 0.0
H1922 H 0.92985 0.08055 0.76477 0.0
H1923 H 0.91555 0.08327 0.79526 0.0
H1924 H 0.91085 0.0553 0.77701 0.0
H1925 H 0.85151 0.14623 0.71379 0.0
H1926 H 0.86806 0.16103 0.73935 0.0
H1927 H 0.88531 0.14664 0.71421 0.0
H1928 H 0.93654 0.17512 0.78849 0.0
H1929 H 0.96433 0.14542 0.71879 0.0
H1930 H 0.89531 0.12582 0.80328 0.0
H1931 H 0.87779 0.14953 0.78712 0.0
H1932 H 0.90174 0.15851 0.80931 0.0
H1933 H 0.92809 0.08931 0.71927 0.0
H1934 H 0.9463 0.10989 0.69935 0.0
H1935 H 0.91256 0.11248 0.70061 0.0
C1936 C 0.66878 0.87005 0.34944 0.0
C1937 C 0.65522 0.8613 0.32861 0.0
C1938 C 0.68869 0.88712 0.34647 0.0
C1939 C 0.69508 0.89569 0.32209 0.0
C1940 C 0.68112 0.88737 0.30108 0.0
C1941 C 0.66168 0.86996 0.30454 0.0
C1942 C 0.70343 0.8953 0.36931 0.0
C1943 C 0.68726 0.89618 0.27478 0.0
C1944 C 0.73739 0.95299 0.31658 0.0
C1945 C 0.76081 0.9418 0.31204 0.0
C1946 C 0.71568 0.93826 0.31944 0.0
C1947 C 0.71759 0.91176 0.31829 0.0
C1948 C 0.74114 0.90041 0.31346 0.0
C1949 C 0.76239 0.91557 0.31015 0.0
C1950 C 0.69079 0.95104 0.32403 0.0
C1951 C 0.74401 0.8722 0.31232 0.0
H1952 H 0.66406 0.86324 0.36806 0.0
H1953 H 0.65237 0.86245 0.28815 0.0
H1954 H 0.72314 0.88876 0.36763 0.0
H1955 H 0.7039 0.91609 0.37049 0.0
H1956 H 0.6954 0.88777 0.38706 0.0
H1957 H 0.67304 0.88994 0.26082 0.0
H1958 H 0.68849 0.91698 0.27424 0.0
H1959 H 0.70584 0.88871 0.26902 0.0
H1960 H 0.73603 0.97326 0.31801 0.0
H1961 H 0.78044 0.90676 0.30686 0.0
H1962 H 0.68444 0.94718 0.34351 0.0
H1963 H 0.67626 0.94352 0.3111 0.0
H1964 H 0.692 0.9717 0.32143 0.0
H1965 H 0.73796 0.86375 0.33041 0.0
H1966 H 0.76367 0.86636 0.3085 0.0
H1967 H 0.73176 0.86434 0.2974 0.0
C1968 C 0.11631 0.076 0.77304 0.0
C1969 C 0.0907 0.07136 0.77686 0.0
C1970 C 0.1249 0.10058 0.76867 0.0
C1971 C 0.10726 0.12043 0.76776 0.0
C1972 C 0.08231 0.11611 0.77618 0.0
C1973 C 0.07442 0.0915 0.78084 0.0
C1974 C 0.15205 0.10461 0.76174 0.0
C1975 C 0.06249 0.13637 0.77619 0.0
C1976 C 0.11107 0.18855 0.75013 0.0
C1977 C 0.10178 0.18708 0.72552 0.0
C1978 C 0.11692 0.16657 0.7635 0.0
C1979 C 0.11232 0.143 0.75209 0.0
C1980 C 0.10668 0.1419 0.72601 0.0
C1981 C 0.1021 0.16416 0.71286 0.0
C1982 C 0.12451 0.16858 0.79073 0.0
C1983 C 0.10136 0.11737 0.71287 0.0
H1984 H 0.12903 0.0603 0.77052 0.0
H1985 H 0.05463 0.08785 0.78409 0.0
H1986 H 0.15441 0.102 0.74118 0.0
H1987 H 0.15838 0.12386 0.76664 0.0
H1988 H 0.16429 0.09074 0.77138 0.0
H1989 H 0.0481 0.13266 0.79086 0.0
H1990 H 0.07036 0.15534 0.77936 0.0
H1991 H 0.0528 0.13616 0.75774 0.0
H1992 H 0.11104 0.20647 0.75982 0.0
H1993 H 0.09502 0.16331 0.69374 0.0
H1994 H 0.13695 0.15279 0.79626 0.0
H1995 H 0.10749 0.16786 0.80274 0.0
H1996 H 0.13429 0.18663 0.79449 0.0
H1997 H 0.11632 0.1035 0.71688 0.0
H1998 H 0.09981 0.11962 0.69215 0.0
H1999 H 0.08329 0.10975 0.71995 0.0
C2000 C 0.09628 0.74872 0.08094 0.0
C2001 C 0.07168 0.75741 0.08403 0.0
C2002 C 0.11641 0.76542 0.07936 0.0
C2003 C 0.11171 0.79159 0.07986 0.0
C2004 C 0.08707 0.80056 0.08414 0.0
C2005 C 0.06729 0.78325 0.08647 0.0
C2006 C 0.1425 0.75496 0.07523 0.0
C2007 C 0.08125 0.82828 0.08446 0.0
C2008 C 0.17317 0.82656 0.08072 0.0
C2009 C 0.1791 0.82566 0.05508 0.0
C2010 C 0.14987 0.81773 0.08938 0.0
C2011 C 0.13207 0.80871 0.07178 0.0
C2012 C 0.13676 0.81118 0.04573 0.0
C2013 C 0.16042 0.81911 0.03771 0.0
C2014 C 0.14544 0.81561 0.1173 0.0
C2015 C 0.11794 0.80258 0.02627 0.0
H2016 H 0.09978 0.72885 0.07842 0.0
H2017 H 0.0483 0.78999 0.08932 0.0
H2018 H 0.14834 0.75836 0.05549 0.0
H2019 H 0.15627 0.76449 0.08766 0.0
H2020 H 0.14339 0.73443 0.07885 0.0
H2021 H 0.0632 0.8322 0.09418 0.0
H2022 H 0.09643 0.83914 0.09374 0.0
H2023 H 0.07967 0.83512 0.06482 0.0
H2024 H 0.18716 0.83281 0.0941 0.0
H2025 H 0.16482 0.81821 0.01785 0.0
H2026 H 0.14938 0.79605 0.12335 0.0
H2027 H 0.12563 0.81983 0.12212 0.0
H2028 H 0.15794 0.82841 0.12807 0.0
H2029 H 0.11814 0.78176 0.02518 0.0
H2030 H 0.12237 0.81015 0.00731 0.0
H2031 H 0.09867 0.8085 0.03151 0.0
C2032 C 0.53844 0.96108 0.33646 0.0
C2033 C 0.52107 0.98023 0.33242 0.0
C2034 C 0.53038 0.93715 0.34371 0.0
C2035 C 0.50431 0.93263 0.34713 0.0
C2036 C 0.48727 0.953 0.34675 0.0
C2037 C 0.49585 0.97668 0.33897 0.0
C2038 C 0.54937 0.91608 0.34427 0.0
C2039 C 0.45963 0.94933 0.35162 0.0
C2040 C 0.49367 0.87107 0.31574 0.0
C2041 C 0.49908 0.85485 0.33564 0.0
C2042 C 0.49164 0.89689 0.31983 0.0
C2043 C 0.49509 0.90646 0.34448 0.0
C2044 C 0.49608 0.88969 0.36508 0.0
C2045 C 0.49814 0.86382 0.36038 0.0
C2046 C 0.48979 0.91394 0.29723 0.0
C2047 C 0.49816 0.89905 0.39174 0.0
H2048 H 0.55793 0.96407 0.33129 0.0
H2049 H 0.48249 0.99172 0.3358 0.0
H2050 H 0.54696 0.9045 0.36142 0.0
H2051 H 0.54649 0.90367 0.32774 0.0
H2052 H 0.569 0.92317 0.34379 0.0
H2053 H 0.45119 0.96662 0.3597 0.0
H2054 H 0.44991 0.94534 0.33361 0.0
H2055 H 0.45615 0.93338 0.3646 0.0
H2056 H 0.49418 0.86407 0.2966 0.0
H2057 H 0.50171 0.85102 0.37582 0.0
H2058 H 0.50845 0.92248 0.29352 0.0
H2059 H 0.47621 0.9293 0.30072 0.0
H2060 H 0.48382 0.90362 0.28008 0.0
H2061 H 0.51826 0.90174 0.39656 0.0
H2062 H 0.49019 0.88518 0.40515 0.0
H2063 H 0.4884 0.9173 0.3942 0.0
C2064 C 0.43798 0.29708 0.55921 0.0
C2065 C 0.44899 0.2986 0.53535 0.0
C2066 C 0.41177 0.29651 0.56187 0.0
C2067 C 0.39655 0.29722 0.5401 0.0
C2068 C 0.40776 0.29717 0.51592 0.0
C2069 C 0.43392 0.2979 0.51387 0.0
C2070 C 0.40046 0.29632 0.58789 0.0
C2071 C 0.39214 0.29741 0.49219 0.0
C2072 C 0.32856 0.27969 0.53415 0.0
C2073 C 0.31799 0.30334 0.52978 0.0
C2074 C 0.35399 0.27737 0.54031 0.0
C2075 C 0.3689 0.29928 0.54204 0.0
C2076 C 0.35748 0.3233 0.54057 0.0
C2077 C 0.33196 0.32504 0.53437 0.0
C2078 C 0.36535 0.25146 0.54206 0.0
C2079 C 0.37273 0.3471 0.54273 0.0
H2080 H 0.44986 0.2972 0.57576 0.0
H2081 H 0.44259 0.29907 0.49546 0.0
H2082 H 0.39215 0.31499 0.59194 0.0
H2083 H 0.38511 0.28228 0.58914 0.0
H2084 H 0.41467 0.29211 0.60259 0.0
H2085 H 0.40385 0.29636 0.47493 0.0
H2086 H 0.37888 0.28133 0.49216 0.0
H2087 H 0.38079 0.31487 0.4914 0.0
H2088 H 0.31744 0.26296 0.5307 0.0
H2089 H 0.32352 0.34328 0.53101 0.0
H2090 H 0.37969 0.25057 0.55717 0.0
H2091 H 0.37482 0.2469 0.52404 0.0
H2092 H 0.35083 0.2369 0.54567 0.0
H2093 H 0.38615 0.34586 0.55863 0.0
H2094 H 0.36062 0.36387 0.54543 0.0
H2095 H 0.38384 0.34976 0.52527 0.0
C2096 C 0.54778 0.4302 0.23721 0.0
C2097 C 0.55092 0.45346 0.22548 0.0
C2098 C 0.54017 0.4092 0.22343 0.0
C2099 C 0.53521 0.41179 0.19737 0.0
C2100 C 0.54104 0.43456 0.18498 0.0
C2101 C 0.5491 0.45521 0.19927 0.0
C2102 C 0.53494 0.38499 0.23735 0.0
C2103 C 0.53666 0.43795 0.15718 0.0
C2104 C 0.51584 0.3484 0.17385 0.0
C2105 C 0.49084 0.34848 0.18201 0.0
C2106 C 0.53047 0.37025 0.17554 0.0
C2107 C 0.51943 0.39244 0.18509 0.0
C2108 C 0.49316 0.39347 0.18907 0.0
C2109 C 0.47917 0.37131 0.18774 0.0
C2110 C 0.55823 0.36865 0.17018 0.0
C2111 C 0.48041 0.41707 0.19832 0.0
H2112 H 0.54949 0.42881 0.25748 0.0
H2113 H 0.55263 0.47306 0.19012 0.0
H2114 H 0.51435 0.38196 0.2386 0.0
H2115 H 0.5431 0.36877 0.22713 0.0
H2116 H 0.54271 0.38522 0.25674 0.0
H2117 H 0.54951 0.45237 0.14926 0.0
H2118 H 0.53922 0.42011 0.14671 0.0
H2119 H 0.51711 0.44446 0.15411 0.0
H2120 H 0.52451 0.33084 0.1683 0.0
H2121 H 0.45973 0.37149 0.19379 0.0
H2122 H 0.56834 0.36417 0.18787 0.0
H2123 H 0.56564 0.38675 0.16297 0.0
H2124 H 0.56238 0.35358 0.15635 0.0
H2125 H 0.48487 0.41989 0.21852 0.0
H2126 H 0.45967 0.41597 0.19629 0.0
H2127 H 0.48729 0.43374 0.18789 0.0
C2128 C 0.91797 0.23231 0.44335 0.0
C2129 C 0.9395 0.24234 0.43219 0.0
C2130 C 0.89571 0.24607 0.44423 0.0
C2131 C 0.89521 0.27062 0.43392 0.0
C2132 C 0.91569 0.27917 0.41929 0.0
C2133 C 0.93783 0.26484 0.41865 0.0
C2134 C 0.87399 0.23559 0.45922 0.0
C2135 C 0.91534 0.30444 0.40655 0.0
C2136 C 0.83263 0.29535 0.45324 0.0
C2137 C 0.83858 0.30232 0.47794 0.0
C2138 C 0.85171 0.28864 0.4363 0.0
C2139 C 0.87692 0.28863 0.44467 0.0
C2140 C 0.88304 0.29974 0.4681 0.0
C2141 C 0.8637 0.30632 0.48455 0.0
C2142 C 0.84455 0.27869 0.41076 0.0
C2143 C 0.90978 0.30093 0.47759 0.0
H2144 H 0.91916 0.21481 0.4537 0.0
H2145 H 0.9543 0.27212 0.40913 0.0
H2146 H 0.8717 0.24648 0.47688 0.0
H2147 H 0.85634 0.23716 0.44832 0.0
H2148 H 0.87679 0.21553 0.46426 0.0
H2149 H 0.92614 0.30379 0.38869 0.0
H2150 H 0.89591 0.31081 0.40251 0.0
H2151 H 0.92448 0.31853 0.41891 0.0
H2152 H 0.81312 0.29287 0.44794 0.0
H2153 H 0.86845 0.3117 0.5036 0.0
H2154 H 0.83956 0.25852 0.41234 0.0
H2155 H 0.8602 0.28056 0.3971 0.0
H2156 H 0.82783 0.28875 0.40339 0.0
H2157 H 0.91636 0.28172 0.48234 0.0
H2158 H 0.91153 0.31284 0.49466 0.0
H2159 H 0.92243 0.30855 0.46291 0.0
C2160 C 0.98997 0.57944 0.77196 0.0
C2161 C 0.9702 0.56247 0.7753 0.0
C2162 C 0.9856 0.60525 0.77177 0.0
C2163 C 0.96086 0.61425 0.77562 0.0
C2164 C 0.94048 0.59722 0.77582 0.0
C2165 C 0.94542 0.57131 0.77529 0.0
C2166 C 0.00787 0.62279 0.77005 0.0
C2167 C 0.91376 0.60603 0.779 0.0
C2168 C 0.97089 0.67034 0.81608 0.0
C2169 C 0.9742 0.68852 0.79751 0.0
C2170 C 0.96251 0.64627 0.80962 0.0
C2171 C 0.95775 0.64059 0.78399 0.0
C2172 C 0.95728 0.66012 0.766 0.0
C2173 C 0.9656 0.68408 0.77303 0.0
C2174 C 0.9624 0.62609 0.82958 0.0
C2175 C 0.95138 0.65512 0.73873 0.0
H2176 H 0.00917 0.57272 0.77185 0.0
H2177 H 0.93001 0.55809 0.77665 0.0
H2178 H 0.0046 0.63694 0.75514 0.0
H2179 H 0.01036 0.63293 0.78812 0.0
H2180 H 0.0256 0.6127 0.76571 0.0
H2181 H 0.90035 0.59255 0.77038 0.0
H2182 H 0.90938 0.60727 0.79936 0.0
H2183 H 0.91081 0.62487 0.7706 0.0
H2184 H 0.97727 0.67414 0.83508 0.0
H2185 H 0.96785 0.69853 0.75884 0.0
H2186 H 0.97956 0.6144 0.82766 0.0
H2187 H 0.9459 0.61358 0.82733 0.0
H2188 H 0.96214 0.6342 0.84884 0.0
H2189 H 0.96885 0.64953 0.72882 0.0
H2190 H 0.94396 0.67225 0.7294 0.0
H2191 H 0.93754 0.63968 0.73661 0.0
C2192 C 0.61421 0.7801 0.96389 0.0
C2193 C 0.60849 0.80575 0.96524 0.0
C2194 C 0.63896 0.77174 0.96735 0.0
C2195 C 0.65829 0.78963 0.971 0.0
C2196 C 0.6532 0.81537 0.96724 0.0
C2197 C 0.62825 0.82322 0.9652 0.0
C2198 C 0.64368 0.74402 0.97072 0.0
C2199 C 0.67359 0.83496 0.96939 0.0
C2200 C 0.70052 0.78187 0.02718 0.0
C2201 C 0.72303 0.77388 0.01631 0.0
C2202 C 0.67916 0.78584 0.0126 0.0
C2203 C 0.6806 0.78282 0.98616 0.0
C2204 C 0.70338 0.77496 0.9749 0.0
C2205 C 0.72436 0.77021 0.99025 0.0
C2206 C 0.65514 0.79367 0.02564 0.0
C2207 C 0.70598 0.77237 0.94677 0.0
H2208 H 0.5992 0.76648 0.96235 0.0
H2209 H 0.62439 0.84312 0.96621 0.0
H2210 H 0.66218 0.73854 0.96289 0.0
H2211 H 0.6438 0.73959 0.99111 0.0
H2212 H 0.62879 0.73255 0.96163 0.0
H2213 H 0.66808 0.85275 0.95996 0.0
H2214 H 0.6771 0.8391 0.98954 0.0
H2215 H 0.6914 0.82811 0.96101 0.0
H2216 H 0.6996 0.78501 0.04731 0.0
H2217 H 0.74168 0.76353 0.9819 0.0
H2218 H 0.63933 0.78149 0.01963 0.0
H2219 H 0.65039 0.81328 0.02046 0.0
H2220 H 0.65668 0.79263 0.04645 0.0
H2221 H 0.68841 0.76542 0.93798 0.0
H2222 H 0.72162 0.75953 0.94169 0.0
H2223 H 0.71013 0.7911 0.93862 0.0
C2224 C 0.87327 0.04219 0.22665 0.0
C2225 C 0.85083 0.04041 0.24024 0.0
C2226 C 0.87291 0.04847 0.20102 0.0
C2227 C 0.84959 0.05332 0.18925 0.0
C2228 C 0.82741 0.05486 0.20387 0.0
C2229 C 0.8283 0.04816 0.22922 0.0
C2230 C 0.89702 0.04725 0.1862 0.0
C2231 C 0.80219 0.06062 0.19218 0.0
C2232 C 0.83494 0.07299 0.12305 0.0
C2233 C 0.82543 0.05033 0.11365 0.0
C2234 C 0.84572 0.07404 0.14707 0.0
C2235 C 0.847 0.05184 0.16159 0.0
C2236 C 0.84034 0.02844 0.15071 0.0
C2237 C 0.82952 0.028 0.12675 0.0
C2238 C 0.8532 0.09921 0.15773 0.0
C2239 C 0.84199 0.00421 0.16539 0.0
H2240 H 0.89076 0.03659 0.23546 0.0
H2241 H 0.81092 0.04676 0.23974 0.0
H2242 H 0.89893 0.02826 0.17781 0.0
H2243 H 0.89713 0.06113 0.17065 0.0
H2244 H 0.91359 0.05061 0.19845 0.0
H2245 H 0.78756 0.06436 0.20661 0.0
H2246 H 0.80351 0.07717 0.1796 0.0
H2247 H 0.796 0.04439 0.18063 0.0
H2248 H 0.83233 0.09014 0.11238 0.0
H2249 H 0.82248 0.01047 0.11912 0.0
H2250 H 0.86968 0.0975 0.17037 0.0
H2251 H 0.83737 0.10688 0.16892 0.0
H2252 H 0.85763 0.11286 0.14256 0.0
H2253 H 0.86035 0.00276 0.17514 0.0
H2254 H 0.83957 0.98748 0.15314 0.0
H2255 H 0.82707 0.00389 0.17997 0.0
C2256 C 0.28236 0.57927 0.46262 0.0
C2257 C 0.30813 0.57456 0.46044 0.0
C2258 C 0.2669 0.57936 0.44132 0.0
C2259 C 0.27775 0.57527 0.4174 0.0
C2260 C 0.30412 0.57283 0.41498 0.0
C2261 C 0.31902 0.57226 0.43664 0.0
C2262 C 0.23886 0.58183 0.44467 0.0
C2263 C 0.31642 0.56898 0.38968 0.0
C2264 C 0.24418 0.53778 0.36776 0.0
C2265 C 0.23737 0.55643 0.35053 0.0
C2266 C 0.25589 0.54395 0.39041 0.0
C2267 C 0.26158 0.56939 0.39558 0.0
C2268 C 0.25368 0.58847 0.37884 0.0
C2269 C 0.24127 0.58173 0.35654 0.0
C2270 C 0.26346 0.52305 0.40808 0.0
C2271 C 0.25962 0.61576 0.38371 0.0
H2272 H 0.27414 0.58182 0.4811 0.0
H2273 H 0.33904 0.56886 0.43504 0.0
H2274 H 0.23076 0.59456 0.4303 0.0
H2275 H 0.22997 0.56313 0.44214 0.0
H2276 H 0.23386 0.58897 0.46365 0.0
H2277 H 0.33715 0.57121 0.39065 0.0
H2278 H 0.3122 0.54978 0.38274 0.0
H2279 H 0.30888 0.58249 0.37571 0.0
H2280 H 0.24143 0.51816 0.36302 0.0
H2281 H 0.23529 0.59618 0.34352 0.0
H2282 H 0.25753 0.52747 0.42759 0.0
H2283 H 0.28421 0.52114 0.40813 0.0
H2284 H 0.25517 0.5047 0.4026 0.0
H2285 H 0.25508 0.62093 0.40339 0.0
H2286 H 0.24922 0.62844 0.3708 0.0
H2287 H 0.28004 0.61894 0.38102 0.0
C2288 C 0.70716 0.00734 0.62493 0.0
C2289 C 0.70751 0.98312 0.61483 0.0
C2290 C 0.70061 0.01114 0.6501 0.0
C2291 C 0.69451 0.99007 0.66522 0.0
C2292 C 0.69037 0.96647 0.65376 0.0
C2293 C 0.69711 0.96318 0.62847 0.0
C2294 C 0.70431 0.03693 0.66135 0.0
C2295 C 0.68228 0.94395 0.6689 0.0
C2296 C 0.73437 -0.00345 0.72266 0.0
C2297 C 0.71804 0.00928 0.73878 0.0
C2298 C 0.72602 0.98749 0.69952 0.0
C2299 C 0.70067 0.99141 0.69235 0.0
C2300 C 0.6834 0.00143 0.70992 0.0
C2301 C 0.69238 0.01039 0.73309 0.0
C2302 C 0.74513 0.97634 0.68169 0.0
C2303 C 0.65603 0.00486 0.7036 0.0
H2304 H 0.71487 0.02282 0.61414 0.0
H2305 H 0.69678 0.94454 0.62026 0.0
H2306 H 0.6888 0.04152 0.67447 0.0
H2307 H 0.72212 0.03729 0.6722 0.0
H2308 H 0.70527 0.05173 0.64666 0.0
H2309 H 0.67235 0.93005 0.65688 0.0
H2310 H 0.6991 0.93463 0.67692 0.0
H2311 H 0.66983 0.94951 0.68468 0.0
H2312 H 0.75423 0.99573 0.72708 0.0
H2313 H 0.67968 0.01983 0.74592 0.0
H2314 H 0.74799 0.98917 0.66549 0.0
H2315 H 0.73831 0.95813 0.67429 0.0
H2316 H 0.76362 0.97318 0.69085 0.0
H2317 H 0.65301 0.0242 0.69646 0.0
H2318 H 0.64421 0.00253 0.72066 0.0
H2319 H 0.64963 0.9914 0.68901 0.0
C2320 C 0.31566 0.49829 0.85724 0.0
C2321 C 0.3335 0.50896 0.84131 0.0
C2322 C 0.32244 0.49022 0.88129 0.0
C2323 C 0.34781 0.49254 0.88917 0.0
C2324 C 0.36645 0.4994 0.8715 0.0
C2325 C 0.35899 0.50801 0.84769 0.0
C2326 C 0.30183 0.48263 0.89925 0.0
C2327 C 0.39388 0.50031 0.87844 0.0
C2328 C 0.34365 0.51899 0.95386 0.0
C2329 C 0.34058 0.49686 0.96759 0.0
C2330 C 0.34955 0.51808 0.92827 0.0
C2331 C 0.3529 0.49438 0.91654 0.0
C2332 C 0.3543 0.47244 0.93146 0.0
C2333 C 0.3477 0.47387 0.95699 0.0
C2334 C 0.34839 0.54216 0.91326 0.0
C2335 C 0.35973 0.4471 0.92006 0.0
H2336 H 0.29597 0.49891 0.852 0.0
H2337 H 0.37281 0.51596 0.835 0.0
H2338 H 0.30672 0.46478 0.90874 0.0
H2339 H 0.29961 0.49733 0.91388 0.0
H2340 H 0.28347 0.48013 0.88963 0.0
H2341 H 0.40577 0.49573 0.8619 0.0
H2342 H 0.39886 0.51959 0.8846 0.0
H2343 H 0.39836 0.48709 0.89394 0.0
H2344 H 0.33825 0.53676 0.96226 0.0
H2345 H 0.3456 0.45676 0.96786 0.0
H2346 H 0.33143 0.54203 0.90111 0.0
H2347 H 0.36503 0.54383 0.90087 0.0
H2348 H 0.34758 0.55904 0.92551 0.0
H2349 H 0.3418 0.43778 0.91496 0.0
H2350 H 0.36952 0.43482 0.93381 0.0
H2351 H 0.3714 0.44876 0.90285 0.0
C2352 C 0.863 0.99195 0.78656 0.0
C2353 C 0.84404 0.99176 0.80483 0.0
C2354 C 0.88825 0.9894 0.79327 0.0
C2355 C 0.89479 0.98528 0.81876 0.0
C2356 C 0.87557 0.98246 0.83695 0.0
C2357 C 0.85037 0.98619 0.82985 0.0
C2358 C 0.90803 0.9931 0.77325 0.0
C2359 C 0.88148 0.97709 0.86415 0.0
C2360 C 0.96398 0.97159 0.81862 0.0
C2361 C 0.97344 -0.0038 0.81972 0.0
C2362 C 0.93819 0.96695 0.82186 0.0
C2363 C 0.92171 0.98738 0.82604 0.0
C2364 C 0.93176 0.01152 0.83092 0.0
C2365 C 0.95759 0.0156 0.82783 0.0
C2366 C 0.9283 0.94069 0.81792 0.0
C2367 C 0.91492 0.03369 0.83633 0.0
H2368 H 0.85838 -0.00387 0.76716 0.0
H2369 H 0.83579 0.9858 0.84407 0.0
H2370 H 0.92042 0.00911 0.77823 0.0
H2371 H 0.91999 0.97613 0.77203 0.0
H2372 H 0.89977 -0.00311 0.75446 0.0
H2373 H 0.86602 0.9663 0.87312 0.0
H2374 H 0.89925 0.96641 0.86625 0.0
H2375 H 0.8834 0.99509 0.87447 0.0
H2376 H 0.97615 0.95633 0.81283 0.0
H2377 H 0.96493 0.03454 0.82938 0.0
H2378 H 0.92192 0.93859 0.79816 0.0
H2379 H 0.912 0.93693 0.83038 0.0
H2380 H 0.94306 0.92639 0.82151 0.0
H2381 H 0.90247 0.03728 0.81999 0.0
H2382 H 0.92574 0.05108 0.84035 0.0
H2383 H 0.90272 0.02952 0.85269 0.0
C2384 C 0.26415 0.70532 0.05973 0.0
C2385 C 0.2787 0.72682 0.06433 0.0
C2386 C 0.27423 0.6812 0.06248 0.0
C2387 C 0.29942 0.67835 0.07056 0.0
C2388 C 0.31345 0.69986 0.07759 0.0
C2389 C 0.303 0.72393 0.07417 0.0
C2390 C 0.25852 0.65889 0.05455 0.0
C2391 C 0.34003 0.69761 0.08713 0.0
C2392 C 0.31372 0.60946 0.08121 0.0
C2393 C 0.32168 0.6024 0.05705 0.0
C2394 C 0.30876 0.63479 0.08694 0.0
C2395 C 0.31163 0.65329 0.068 0.0
C2396 C 0.32226 0.64651 0.04455 0.0
C2397 C 0.32734 0.62119 0.03947 0.0
C2398 C 0.29811 0.64131 0.11239 0.0
C2399 C 0.32581 0.66559 0.02382 0.0
H2400 H 0.24525 0.70728 0.05241 0.0
H2401 H 0.31433 0.74041 0.078 0.0
H2402 H 0.26577 0.6514 0.03647 0.0
H2403 H 0.25981 0.64362 0.06863 0.0
H2404 H 0.23842 0.66388 0.05199 0.0
H2405 H 0.34604 0.71483 0.09728 0.0
H2406 H 0.34202 0.68122 0.09986 0.0
H2407 H 0.35292 0.69474 0.071 0.0
H2408 H 0.3094 0.5951 0.09499 0.0
H2409 H 0.33386 0.61591 0.02089 0.0
H2410 H 0.27736 0.64275 0.111 0.0
H2411 H 0.30534 0.6597 0.11904 0.0
H2412 H 0.30266 0.6267 0.12659 0.0
H2413 H 0.30719 0.67232 0.01732 0.0
H2414 H 0.33603 0.65769 0.00741 0.0
H2415 H 0.33631 0.68213 0.03089 0.0
C2416 C 0.7335 0.05812 0.30475 0.0
C2417 C 0.75027 0.05361 0.32456 0.0
C2418 C 0.70885 0.066 0.30934 0.0
C2419 C 0.70084 0.07003 0.33444 0.0
C2420 C 0.7186 0.06862 0.35425 0.0
C2421 C 0.74314 0.06014 0.34912 0.0
C2422 C 0.69075 0.06732 0.28747 0.0
C2423 C 0.71129 0.07408 0.38109 0.0
C2424 C 0.63281 0.09023 0.332 0.0
C2425 C 0.62119 0.0666 0.33172 0.0
C2426 C 0.65888 0.09229 0.3362 0.0
C2427 C 0.67334 0.0702 0.33968 0.0
C2428 C 0.66098 0.04682 0.34262 0.0
C2429 C 0.63504 0.0454 0.3388 0.0
C2430 C 0.67114 0.11775 0.33446 0.0
C2431 C 0.67545 0.02274 0.34665 0.0
H2432 H 0.73904 0.05372 0.28563 0.0
H2433 H 0.75611 0.05713 0.36454 0.0
H2434 H 0.67682 0.05186 0.28899 0.0
H2435 H 0.68026 0.08529 0.28775 0.0
H2436 H 0.70042 0.06563 0.26903 0.0
H2437 H 0.72768 0.08095 0.39205 0.0
H2438 H 0.69603 0.08823 0.38214 0.0
H2439 H 0.70454 0.05655 0.39012 0.0
H2440 H 0.62212 0.10674 0.32675 0.0
H2441 H 0.62592 0.02717 0.3391 0.0
H2442 H 0.67732 0.12113 0.31483 0.0
H2443 H 0.68791 0.11892 0.34681 0.0
H2444 H 0.65778 0.1329 0.33968 0.0
H2445 H 0.687 0.01864 0.32976 0.0
H2446 H 0.6629 0.00643 0.35015 0.0
H2447 H 0.68841 0.02468 0.36283 0.0
C2448 C 0.30094 0.4598 0.55102 0.0
C2449 C 0.29601 0.4835 0.56142 0.0
C2450 C 0.28287 0.44073 0.55122 0.0
C2451 C 0.25922 0.44515 0.56259 0.0
C2452 C 0.25464 0.46845 0.57468 0.0
C2453 C 0.27301 0.48753 0.57366 0.0
C2454 C 0.28874 0.41629 0.5379 0.0
C2455 C 0.23012 0.47376 0.58783 0.0
C2456 C 0.21375 0.40607 0.52618 0.0
C2457 C 0.21659 0.38288 0.53833 0.0
C2458 C 0.2248 0.42786 0.53588 0.0
C2459 C 0.23884 0.42638 0.55842 0.0
C2460 C 0.23802 0.404 0.57286 0.0
C2461 C 0.2269 0.38228 0.56255 0.0
C2462 C 0.22452 0.45142 0.52008 0.0
C2463 C 0.25145 0.40215 0.59773 0.0
H2464 H 0.31873 0.45631 0.54175 0.0
H2465 H 0.26914 0.50567 0.58207 0.0
H2466 H 0.28623 0.40022 0.55091 0.0
H2467 H 0.2756 0.41358 0.52193 0.0
H2468 H 0.30824 0.41573 0.53048 0.0
H2469 H 0.23289 0.48712 0.60364 0.0
H2470 H 0.21689 0.48258 0.57436 0.0
H2471 H 0.22132 0.45635 0.59519 0.0
H2472 H 0.20516 0.40666 0.50769 0.0
H2473 H 0.22866 0.36449 0.57229 0.0
H2474 H 0.24318 0.45397 0.51113 0.0
H2475 H 0.22083 0.46814 0.53193 0.0
H2476 H 0.21009 0.45057 0.50502 0.0
H2477 H 0.27164 0.39823 0.59439 0.0
H2478 H 0.24368 0.38669 0.60942 0.0
H2479 H 0.25006 0.42007 0.60831 0.0
C2480 C 0.44355 0.56436 0.25171 0.0
C2481 C 0.453 0.53987 0.25372 0.0
C2482 C 0.41763 0.56858 0.24848 0.0
C2483 C 0.40102 0.5478 0.24698 0.0
C2484 C 0.41091 0.52311 0.24679 0.0
C2485 C 0.43671 0.51948 0.25034 0.0
C2486 C 0.40788 0.59517 0.24863 0.0
C2487 C 0.39403 0.50037 0.24482 0.0
C2488 C 0.33661 0.54689 0.27653 0.0
C2489 C 0.32094 0.546 0.2554 0.0
C2490 C 0.36263 0.54968 0.27402 0.0
C2491 C 0.37337 0.55121 0.2497 0.0
C2492 C 0.35746 0.55219 0.22834 0.0
C2493 C 0.33129 0.5497 0.23145 0.0
C2494 C 0.37875 0.54898 0.29739 0.0
C2495 C 0.36812 0.5539 0.20212 0.0
H2496 H 0.45611 0.58018 0.25431 0.0
H2497 H 0.44404 0.50051 0.2515 0.0
H2498 H 0.39286 0.59765 0.23439 0.0
H2499 H 0.3996 0.59935 0.26731 0.0
H2500 H 0.42306 0.60901 0.24494 0.0
H2501 H 0.40483 0.48278 0.2418 0.0
H2502 H 0.383 0.49837 0.26242 0.0
H2503 H 0.3805 0.50264 0.22912 0.0
H2504 H 0.32858 0.54435 0.2951 0.0
H2505 H 0.31918 0.54896 0.21508 0.0
H2506 H 0.3929 0.56427 0.29697 0.0
H2507 H 0.38907 0.53089 0.29817 0.0
H2508 H 0.36744 0.55085 0.31485 0.0
H2509 H 0.38385 0.56756 0.20137 0.0
H2510 H 0.35361 0.55948 0.18819 0.0
H2511 H 0.37569 0.53529 0.19656 0.0
C2512 C 0.72296 0.07045 0.50405 0.0
C2513 C 0.74342 0.05976 0.49132 0.0
C2514 C 0.72189 0.09644 0.50849 0.0
C2515 C 0.74199 0.11193 0.5005 0.0
C2516 C 0.76123 0.10163 0.48531 0.0
C2517 C 0.76154 0.07569 0.48064 0.0
C2518 C 0.70032 0.10699 0.52354 0.0
C2519 C 0.78256 0.11766 0.47565 0.0
C2520 C 0.74325 0.183 0.51003 0.0
C2521 C 0.75513 0.18477 0.53349 0.0
C2522 C 0.73781 0.15942 0.49933 0.0
C2523 C 0.74545 0.13725 0.51194 0.0
C2524 C 0.75765 0.13909 0.53556 0.0
C2525 C 0.76189 0.16277 0.54621 0.0
C2526 C 0.7243 0.15843 0.47442 0.0
C2527 C 0.76696 0.11605 0.54933 0.0
H2528 H 0.70859 0.05836 0.51196 0.0
H2529 H 0.77719 0.06772 0.47034 0.0
H2530 H 0.70655 0.11047 0.54315 0.0
H2531 H 0.69407 0.12522 0.51556 0.0
H2532 H 0.68409 0.09388 0.52405 0.0
H2533 H 0.797 0.10645 0.46559 0.0
H2534 H 0.7751 0.13202 0.46256 0.0
H2535 H 0.79174 0.12778 0.49142 0.0
H2536 H 0.73796 0.20002 0.50017 0.0
H2537 H 0.77135 0.16407 0.56423 0.0
H2538 H 0.7118 0.14178 0.47312 0.0
H2539 H 0.7383 0.1572 0.45904 0.0
H2540 H 0.71291 0.17563 0.47129 0.0
H2541 H 0.75096 0.10351 0.55389 0.0
H2542 H 0.77686 0.12083 0.56709 0.0
H2543 H 0.78005 0.10532 0.53713 0.0
C2544 C 0.10095 0.47658 0.74477 0.0
C2545 C 0.0915 0.49898 0.75499 0.0
C2546 C 0.12679 0.47381 0.73979 0.0
C2547 C 0.14345 0.49371 0.74573 0.0
C2548 C 0.13364 0.517 0.75407 0.0
C2549 C 0.1078 0.51942 0.75822 0.0
C2550 C 0.13624 0.44901 0.72992 0.0
C2551 C 0.15061 0.5387 0.76102 0.0
C2552 C 0.20709 0.48628 0.77518 0.0
C2553 C 0.22233 0.49811 0.75725 0.0
C2554 C 0.18156 0.48199 0.7705 0.0
C2555 C 0.17108 0.4896 0.74725 0.0
C2556 C 0.1871 0.49832 0.72787 0.0
C2557 C 0.21264 0.50259 0.73311 0.0
C2558 C 0.16532 0.47175 0.79141 0.0
C2559 C 0.17683 0.50556 0.70247 0.0
H2560 H 0.08847 0.46073 0.74193 0.0
H2561 H 0.10068 0.53694 0.76576 0.0
H2562 H 0.15351 0.45136 0.71847 0.0
H2563 H 0.14072 0.4365 0.74598 0.0
H2564 H 0.1217 0.43952 0.71834 0.0
H2565 H 0.13992 0.55613 0.76515 0.0
H2566 H 0.16171 0.5337 0.77797 0.0
H2567 H 0.16408 0.54265 0.74564 0.0
H2568 H 0.21466 0.48226 0.79368 0.0
H2569 H 0.22437 0.51147 0.71902 0.0
H2570 H 0.15474 0.45511 0.78469 0.0
H2571 H 0.15134 0.48609 0.79717 0.0
H2572 H 0.17646 0.46624 0.80819 0.0
H2573 H 0.16186 0.49234 0.69644 0.0
H2574 H 0.19183 0.50593 0.68795 0.0
H2575 H 0.16843 0.5246 0.70361 0.0
C2576 C 0.7963 0.93989 0.02581 0.0
C2577 C 0.80931 0.96066 0.01616 0.0
C2578 C 0.80609 0.91561 0.02415 0.0
C2579 C 0.82961 0.91168 0.01231 0.0
C2580 C 0.84234 0.93234 0.00128 0.0
C2581 C 0.83208 0.95671 0.00345 0.0
C2582 C 0.79157 0.89428 0.03612 0.0
C2583 C 0.86717 0.92906 0.98806 0.0
C2584 C 0.85439 0.85486 0.04463 0.0
C2585 C 0.84251 0.83608 0.03056 0.0
C2586 C 0.85405 0.87994 0.03664 0.0
C2587 C 0.84121 0.88624 0.01421 0.0
C2588 C 0.83309 0.86675 -0.00206 0.0
C2589 C 0.83372 0.8417 0.0064 0.0
C2590 C 0.86372 0.89993 0.05428 0.0
C2591 C 0.82044 0.8726 0.97328 0.0
H2592 H 0.77848 0.94262 0.03528 0.0
H2593 H 0.84217 0.97263 0.99576 0.0
H2594 H 0.78791 0.8793 0.0221 0.0
H2595 H 0.80275 0.88589 0.0516 0.0
H2596 H 0.77326 0.90049 0.04396 0.0
H2597 H 0.87006 0.94389 0.97366 0.0
H2598 H 0.88258 0.93064 0.00201 0.0
H2599 H 0.86861 0.91039 0.9789 0.0
H2600 H 0.86129 0.85043 0.06331 0.0
H2601 H 0.8246 0.82715 0.99543 0.0
H2602 H 0.84767 0.90831 0.06465 0.0
H2603 H 0.87315 0.91519 0.04369 0.0
H2604 H 0.87712 0.89211 0.06824 0.0
H2605 H 0.80037 0.87703 0.97675 0.0
H2606 H 0.82133 0.85632 0.96023 0.0
H2607 H 0.8292 0.88917 0.96414 0.0
C2608 C 0.96079 0.79247 0.89604 0.0
C2609 C 0.98214 0.77792 0.89085 0.0
C2610 C 0.94913 0.79141 0.91985 0.0
C2611 C 0.95884 0.77504 0.93851 0.0
C2612 C 0.98052 0.76056 0.93328 0.0
C2613 C 0.99188 0.76232 0.90971 0.0
C2614 C 0.92625 0.80738 0.92466 0.0
C2615 C 0.99166 0.74274 0.95245 0.0
C2616 C 0.95459 0.77245 0.00846 0.0
C2617 C 0.94154 0.7497 0.01121 0.0
C2618 C 0.95701 0.78376 0.98473 0.0
C2619 C 0.94654 0.77173 0.96343 0.0
C2620 C 0.92994 0.75126 0.96688 0.0
C2621 C 0.92749 0.74054 0.99085 0.0
C2622 C 0.97368 0.8065 0.98202 0.0
C2623 C 0.91777 0.7383 0.94478 0.0
H2624 H 0.95317 0.8046 0.88156 0.0
H2625 H 0.00839 0.75101 0.90601 0.0
H2626 H 0.90915 0.79625 0.92042 0.0
H2627 H 0.92517 0.81351 0.94458 0.0
H2628 H 0.92609 0.82425 0.91238 0.0
H2629 H 0.00835 0.73257 0.94514 0.0
H2630 H -0.00259 0.75325 0.96952 0.0
H2631 H 0.97745 0.72862 0.95822 0.0
H2632 H 0.96486 0.78018 0.02428 0.0
H2633 H 0.91669 0.7234 0.99292 0.0
H2634 H 0.96659 0.81917 0.96704 0.0
H2635 H 0.99287 0.80037 0.97666 0.0
H2636 H 0.975 0.81716 -6e-05 0.0
H2637 H 0.91072 0.75223 0.93099 0.0
H2638 H 0.90194 0.72608 0.95076 0.0
H2639 H 0.93193 0.72641 0.93513 0.0
C2640 C 0.48718 0.80147 0.19935 0.0
C2641 C 0.49269 0.7812 0.21525 0.0
C2642 C 0.48987 0.7994 0.17319 0.0
C2643 C 0.4982 0.77643 0.16265 0.0
C2644 C 0.50116 0.75515 0.17836 0.0
C2645 C 0.49831 0.75776 0.20454 0.0
C2646 C 0.48628 0.82254 0.15716 0.0
C2647 C 0.50988 0.73032 0.16786 0.0
C2648 C 0.50122 0.77582 0.09106 0.0
C2649 C 0.52585 0.78436 0.08694 0.0
C2650 C 0.49223 0.77156 0.11561 0.0
C2651 C 0.50816 0.77624 0.13643 0.0
C2652 C 0.53345 0.78333 0.13222 0.0
C2653 C 0.54202 0.78703 0.1076 0.0
C2654 C 0.46527 0.76367 0.11926 0.0
C2655 C 0.55105 0.78899 0.15377 0.0
H2656 H 0.4826 0.81958 0.20749 0.0
H2657 H 0.50264 0.74198 0.21665 0.0
H2658 H 0.50486 0.82949 0.15073 0.0
H2659 H 0.47508 0.81802 0.14017 0.0
H2660 H 0.47677 0.83791 0.1676 0.0
H2661 H 0.50707 0.71473 0.18147 0.0
H2662 H 0.49977 0.7258 0.15019 0.0
H2663 H 0.53019 0.73151 0.16334 0.0
H2664 H 0.48857 0.77366 0.07524 0.0
H2665 H 0.56111 0.7935 0.10471 0.0
H2666 H 0.45405 0.78011 0.12543 0.0
H2667 H 0.46373 0.74912 0.13412 0.0
H2668 H 0.4569 0.75625 0.10162 0.0
H2669 H 0.54561 0.80708 0.16259 0.0
H2670 H 0.5709 0.79048 0.14754 0.0
H2671 H 0.5497 0.77427 0.16841 0.0
C2672 C 0.54792 0.25956 0.41959 0.0
C2673 C 0.52623 0.26808 0.43185 0.0
C2674 C 0.54801 0.25587 0.39338 0.0
C2675 C 0.52585 0.26068 0.37943 0.0
C2676 C 0.50332 0.26677 0.39224 0.0
C2677 C 0.50387 0.27058 0.41827 0.0
C2678 C 0.5723 0.24905 0.38051 0.0
C2679 C 0.47909 0.27152 0.37824 0.0
C2680 C 0.52355 0.29228 0.31623 0.0
C2681 C 0.51358 0.27312 0.30121 0.0
C2682 C 0.53025 0.28775 0.34129 0.0
C2683 C 0.52661 0.26348 0.3516 0.0
C2684 C 0.51915 0.24345 0.33575 0.0
C2685 C 0.51278 0.2485 0.3106 0.0
C2686 C 0.53874 0.30957 0.35735 0.0
C2687 C 0.51547 0.21723 0.34586 0.0
H2688 H 0.56528 0.25773 0.43008 0.0
H2689 H 0.48705 0.27696 0.42784 0.0
H2690 H 0.56898 0.23618 0.36444 0.0
H2691 H 0.5812 0.26635 0.37302 0.0
H2692 H 0.5857 0.24007 0.39376 0.0
H2693 H 0.46273 0.27305 0.39113 0.0
H2694 H 0.48065 0.2893 0.36746 0.0
H2695 H 0.47537 0.25622 0.36458 0.0
H2696 H 0.52455 0.31126 0.30889 0.0
H2697 H 0.50517 0.23355 0.29903 0.0
H2698 H 0.55506 0.30416 0.3691 0.0
H2699 H 0.5233 0.31513 0.37022 0.0
H2700 H 0.544 0.32618 0.34585 0.0
H2701 H 0.53031 0.21237 0.35966 0.0
H2702 H 0.51549 0.20303 0.33054 0.0
H2703 H 0.49712 0.21617 0.35569 0.0
C2704 C 0.06684 0.33725 0.64134 0.0
C2705 C 0.07838 0.3173 0.65417 0.0
C2706 C 0.06038 0.33502 0.61582 0.0
C2707 C 0.06507 0.31214 0.6031 0.0
C2708 C 0.0791 0.29306 0.61522 0.0
C2709 C 0.08596 0.29607 0.64048 0.0
C2710 C 0.04654 0.3563 0.60322 0.0
C2711 C 0.08432 0.26821 0.60252 0.0
C2712 C 0.01556 0.2853 0.55994 0.0
C2713 C 0.02831 0.28444 0.53687 0.0
C2714 C 0.02695 0.29542 0.58137 0.0
C2715 C 0.05131 0.30596 0.57954 0.0
C2716 C 0.06322 0.30752 0.55578 0.0
C2717 C 0.05175 0.29631 0.53474 0.0
C2718 C 0.0136 0.29313 0.60634 0.0
C2719 C 0.08864 0.31966 0.55278 0.0
H2720 H 0.0613 0.35394 0.65161 0.0
H2721 H 0.09521 0.28066 0.65006 0.0
H2722 H 0.05202 0.35795 0.58315 0.0
H2723 H 0.02604 0.35266 0.60396 0.0
H2724 H 0.05021 0.37449 0.61279 0.0
H2725 H 0.09743 0.25632 0.61358 0.0
H2726 H 0.06642 0.25776 0.60012 0.0
H2727 H 0.09241 0.27118 0.58356 0.0
H2728 H -0.00267 0.27642 0.56178 0.0
H2729 H 0.0616 0.29599 0.5169 0.0
H2730 H 0.01126 0.31198 0.61478 0.0
H2731 H 0.02502 0.28173 0.61956 0.0
H2732 H 0.99479 0.28427 0.6046 0.0
H2733 H 0.09059 0.33624 0.56529 0.0
H2734 H 0.09195 0.32563 0.53304 0.0
H2735 H 0.10349 0.306 0.55792 0.0
loop_
_geom_bond_atom_site_label_1
_geom_bond_atom_site_label_2
_geom_bond_distance
_geom_bond_site_symmetry_2
_ccdc_geom_bond_type
Co0 O3 1.970 . S
Co0 N17 1.989 . S
Co0 O25 1.967 1_545 S
Co0 O32 1.920 1_545 S
Co1 O4 1.966 . S
Co1 N10 2.022 . S
Co1 N18 1.993 . S
Co1 O26 1.941 1_545 S
C2 O3 1.258 . S
C2 O4 1.263 . S
O3 Co0 1.970 . S
O3 C2 1.258 . S
O4 Co1 1.966 . S
O4 C2 1.263 . S
C5 O6 1.235 . S
C5 O32 1.289 1_645 S
O6 C5 1.235 . S
C7 C9 1.400 . S
C7 N10 1.351 . S
C7 C12 1.501 . S
C8 C9 1.387 . S
C8 N11 1.341 . S
C9 C7 1.400 . S
C9 C8 1.387 . S
N10 Co1 2.022 . S
N10 C7 1.351 . S
N10 N11 1.365 . S
N11 C8 1.341 . S
N11 N10 1.365 . S
N11 H31 0.862 . S
C12 C7 1.501 . S
C12 H13 0.961 . S
C12 H14 0.961 . S
C12 H15 0.960 . S
H13 C12 0.961 . S
H14 C12 0.961 . S
H15 C12 0.960 . S
C16 N17 1.342 . S
C16 C20 1.401 . S
C16 C21 1.499 . S
N17 Co0 1.989 . S
N17 C16 1.342 . S
N17 N18 1.388 . S
N18 Co1 1.993 . S
N18 N17 1.388 . S
N18 C19 1.346 . S
C19 N18 1.346 . S
C19 C20 1.396 . S
C19 C29 1.510 . S
C20 C16 1.401 . S
C20 C19 1.396 . S
C21 C16 1.499 . S
C21 H22 0.959 . S
C21 H23 0.960 . S
C21 H24 0.961 . S
H22 C21 0.959 . S
H23 C21 0.960 . S
H24 C21 0.961 . S
O25 Co0 1.967 1_565 S
O25 C33 1.258 . S
O26 Co1 1.941 1_565 S
O26 C33 1.266 . S
H27 C29 0.959 . S
H28 C29 0.961 . S
C29 C19 1.510 . S
C29 H27 0.959 . S
C29 H28 0.961 . S
C29 H30 0.960 . S
H30 C29 0.960 . S
H31 N11 0.862 . S
O32 Co0 1.920 1_565 S
O32 C5 1.289 1_465 S
C33 O25 1.258 . S
C33 O26 1.266 . S
Co34 O37 1.970 1_554 S
Co34 N51 1.989 . S
Co34 O59 1.967 . S
Co34 O66 1.920 . S
Co35 O38 1.966 . S
Co35 N44 2.022 . S
Co35 N52 1.993 . S
Co35 O60 1.941 . S
C36 O37 1.258 . S
C36 O38 1.263 . S
O37 Co34 1.970 1_556 S
O37 C36 1.258 . S
O38 Co35 1.966 . S
O38 C36 1.263 . S
C39 O40 1.235 . S
C39 O66 1.289 . S
O40 C39 1.235 . S
C41 C43 1.400 . S
C41 N44 1.351 . S
C41 C46 1.501 . S
C42 C43 1.387 . S
C42 N45 1.341 . S
C43 C41 1.400 . S
C43 C42 1.387 . S
N44 Co35 2.022 . S
N44 C41 1.351 . S
N44 N45 1.365 . S
N45 C42 1.341 . S
N45 N44 1.365 . S
N45 H65 0.862 . S
C46 C41 1.501 . S
C46 H47 0.961 . S
C46 H48 0.961 . S
C46 H49 0.960 . S
H47 C46 0.961 . S
H48 C46 0.961 . S
H49 C46 0.960 . S
C50 N51 1.342 . S
C50 C54 1.401 . S
C50 C55 1.499 . S
N51 Co34 1.989 . S
N51 C50 1.342 . S
N51 N52 1.388 1_554 S
N52 Co35 1.993 . S
N52 N51 1.388 1_556 S
N52 C53 1.346 . S
C53 N52 1.346 . S
C53 C54 1.396 1_556 S
C53 C63 1.510 . S
C54 C50 1.401 . S
C54 C53 1.396 1_554 S
C55 C50 1.499 . S
C55 H56 0.959 . S
C55 H57 0.960 . S
C55 H58 0.961 . S
H56 C55 0.959 . S
H57 C55 0.960 . S
H58 C55 0.961 . S
O59 Co34 1.967 . S
O59 C67 1.258 1_554 S
O60 Co35 1.941 . S
O60 C67 1.266 . S
H61 C63 0.959 . S
H62 C63 0.961 . S
C63 C53 1.510 . S
C63 H61 0.959 . S
C63 H62 0.961 . S
C63 H64 0.960 . S
H64 C63 0.960 . S
H65 N45 0.862 . S
O66 Co34 1.920 . S
O66 C39 1.289 . S
C67 O59 1.258 1_556 S
C67 O60 1.266 . S
Co68 O71 1.970 . S
Co68 N85 1.989 . S
Co68 O93 1.967 . S
Co68 O100 1.920 . S
Co69 O72 1.966 . S
Co69 N78 2.022 . S
Co69 N86 1.993 . S
Co69 O94 1.941 . S
C70 O71 1.258 . S
C70 O72 1.263 . S
O71 Co68 1.970 . S
O71 C70 1.258 . S
O72 Co69 1.966 . S
O72 C70 1.263 . S
C73 O74 1.235 . S
C73 O100 1.289 . S
O74 C73 1.235 . S
C75 C77 1.411 . S
C75 N78 1.351 . S
C75 C80 1.501 . S
C76 C77 1.391 . S
C76 N79 1.341 . S
C77 C75 1.411 . S
C77 C76 1.391 . S
N78 Co69 2.022 . S
N78 C75 1.351 . S
N78 N79 1.365 . S
N79 C76 1.341 . S
N79 N78 1.365 . S
N79 H99 0.862 . S
C80 C75 1.501 . S
C80 H81 0.961 . S
C80 H82 0.961 . S
C80 H83 0.960 . S
H81 C80 0.961 . S
H82 C80 0.961 . S
H83 C80 0.960 . S
C84 N85 1.342 . S
C84 C88 1.401 1_545 S
C84 C89 1.499 . S
N85 Co68 1.989 . S
N85 C84 1.342 . S
N85 N86 1.388 . S
N86 Co69 1.993 . S
N86 N85 1.388 . S
N86 C87 1.346 1_545 S
C87 N86 1.346 1_565 S
C87 C88 1.396 . S
C87 C97 1.510 . S
C88 C84 1.401 1_565 S
C88 C87 1.396 . S
C89 C84 1.499 . S
C89 H90 0.959 . S
C89 H91 0.960 1_545 S
C89 H92 0.961 . S
H90 C89 0.959 . S
H91 C89 0.960 1_565 S
H92 C89 0.961 . S
O93 Co68 1.967 . S
O93 C101 1.258 . S
O94 Co69 1.941 . S
O94 C101 1.266 . S
H95 C97 0.959 . S
H96 C97 0.961 . S
C97 C87 1.510 . S
C97 H95 0.959 . S
C97 H96 0.961 . S
C97 H98 0.960 . S
H98 C97 0.960 . S
H99 N79 0.862 . S
O100 Co68 1.920 . S
O100 C73 1.289 . S
C101 O93 1.258 . S
C101 O94 1.266 . S
Co102 O105 1.970 . S
Co102 N119 1.989 . S
Co102 O127 1.967 . S
Co102 O134 1.920 . S
Co103 O106 1.966 . S
Co103 N112 2.022 . S
Co103 N120 1.993 . S
Co103 O128 1.941 . S
C104 O105 1.258 . S
C104 O106 1.263 . S
O105 Co102 1.970 . S
O105 C104 1.258 . S
O106 Co103 1.966 . S
O106 C104 1.263 . S
C107 O108 1.235 . S
C107 O134 1.289 . S
O108 C107 1.235 . S
C109 C111 1.400 . S
C109 N112 1.351 . S
C109 C114 1.501 . S
C110 C111 1.387 . S
C110 N113 1.341 . S
C111 C109 1.400 . S
C111 C110 1.387 . S
N112 Co103 2.022 . S
N112 C109 1.351 . S
N112 N113 1.365 . S
N113 C110 1.341 . S
N113 N112 1.365 . S
N113 H133 0.862 . S
C114 C109 1.501 . S
C114 H115 0.961 . S
C114 H116 0.961 . S
C114 H117 0.960 . S
H115 C114 0.961 . S
H116 C114 0.961 . S
H117 C114 0.960 . S
C118 N119 1.342 . S
C118 C122 1.401 . S
C118 C123 1.499 . S
N119 Co102 1.989 . S
N119 C118 1.342 . S
N119 N120 1.388 . S
N120 Co103 1.993 . S
N120 N119 1.388 . S
N120 C121 1.346 . S
C121 N120 1.346 . S
C121 C122 1.396 . S
C121 C131 1.510 . S
C122 C118 1.401 . S
C122 C121 1.396 . S
C123 C118 1.499 . S
C123 H124 0.959 . S
C123 H125 0.960 . S
C123 H126 0.961 . S
H124 C123 0.959 . S
H125 C123 0.960 . S
H126 C123 0.961 . S
O127 Co102 1.967 . S
O127 C135 1.258 . S
O128 Co103 1.941 . S
O128 C135 1.266 . S
H129 C131 0.959 . S
H130 C131 0.961 . S
C131 C121 1.510 . S
C131 H129 0.959 . S
C131 H130 0.961 . S
C131 H132 0.960 . S
H132 C131 0.960 . S
H133 N113 0.862 . S
O134 Co102 1.920 . S
O134 C107 1.289 . S
C135 O127 1.258 . S
C135 O128 1.266 . S
Co136 O139 1.970 . S
Co136 N153 1.989 . S
Co136 O161 1.967 . S
Co136 O168 1.920 . S
Co137 O140 1.966 . S
Co137 N146 2.022 . S
Co137 N154 1.993 . S
Co137 O162 1.941 . S
C138 O139 1.258 . S
C138 O140 1.263 . S
O139 Co136 1.970 . S
O139 C138 1.258 . S
O140 Co137 1.966 . S
O140 C138 1.263 . S
C141 O142 1.235 . S
C141 O168 1.289 . S
O142 C141 1.235 . S
C143 C145 1.400 . S
C143 N146 1.351 . S
C143 C148 1.501 . S
C144 C145 1.387 . S
C144 N147 1.341 . S
C145 C143 1.400 . S
C145 C144 1.387 . S
N146 Co137 2.022 . S
N146 C143 1.351 . S
N146 N147 1.365 . S
N147 C144 1.341 . S
N147 N146 1.365 . S
N147 H167 0.862 . S
C148 C143 1.501 . S
C148 H149 0.961 . S
C148 H150 0.961 . S
C148 H151 0.960 . S
H149 C148 0.961 . S
H150 C148 0.961 . S
H151 C148 0.960 . S
C152 N153 1.342 . S
C152 C156 1.401 . S
C152 C157 1.499 . S
N153 Co136 1.989 . S
N153 C152 1.342 . S
N153 N154 1.388 . S
N154 Co137 1.993 . S
N154 N153 1.388 . S
N154 C155 1.346 . S
C155 N154 1.346 . S
C155 C156 1.396 . S
C155 C165 1.510 . S
C156 C152 1.401 . S
C156 C155 1.396 . S
C157 C152 1.499 . S
C157 H158 0.959 . S
C157 H159 0.960 . S
C157 H160 0.961 . S
H158 C157 0.959 . S
H159 C157 0.960 . S
H160 C157 0.961 . S
O161 Co136 1.967 . S
O161 C169 1.258 . S
O162 Co137 1.941 . S
O162 C169 1.266 . S
H163 C165 0.959 . S
H164 C165 0.961 . S
C165 C155 1.510 . S
C165 H163 0.959 . S
C165 H164 0.961 . S
C165 H166 0.960 . S
H166 C165 0.960 . S
H167 N147 0.862 . S
O168 Co136 1.920 . S
O168 C141 1.289 . S
C169 O161 1.258 . S
C169 O162 1.266 . S
Co170 O173 1.970 . S
Co170 N187 1.989 . S
Co170 O195 1.967 . S
Co170 O202 1.920 . S
Co171 O174 1.966 . S
Co171 N180 2.022 . S
Co171 N188 1.993 . S
Co171 O196 1.941 . S
C172 O173 1.258 . S
C172 O174 1.263 . S
O173 Co170 1.970 . S
O173 C172 1.258 . S
O174 Co171 1.966 . S
O174 C172 1.263 . S
C175 O176 1.235 . S
C175 O202 1.289 . S
O176 C175 1.235 . S
C177 C179 1.400 . S
C177 N180 1.351 . S
C177 C182 1.501 . S
C178 C179 1.387 . S
C178 N181 1.341 . S
C179 C177 1.400 . S
C179 C178 1.387 . S
N180 Co171 2.022 . S
N180 C177 1.351 . S
N180 N181 1.365 . S
N181 C178 1.341 . S
N181 N180 1.365 . S
N181 H201 0.862 . S
C182 C177 1.501 . S
C182 H183 0.961 . S
C182 H184 0.961 . S
C182 H185 0.960 . S
H183 C182 0.961 . S
H184 C182 0.961 . S
H185 C182 0.960 . S
C186 N187 1.342 . S
C186 C190 1.401 . S
C186 C191 1.499 . S
N187 Co170 1.989 . S
N187 C186 1.342 . S
N187 N188 1.388 . S
N188 Co171 1.993 . S
N188 N187 1.388 . S
N188 C189 1.346 . S
C189 N188 1.346 . S
C189 C190 1.396 . S
C189 C199 1.510 . S
C190 C186 1.401 . S
C190 C189 1.396 . S
C191 C186 1.499 . S
C191 H192 0.959 . S
C191 H193 0.960 . S
C191 H194 0.961 . S
H192 C191 0.959 . S
H193 C191 0.960 . S
H194 C191 0.961 . S
O195 Co170 1.967 . S
O195 C203 1.258 . S
O196 Co171 1.941 . S
O196 C203 1.266 . S
H197 C199 0.959 . S
H198 C199 0.961 . S
C199 C189 1.510 . S
C199 H197 0.959 . S
C199 H198 0.961 . S
C199 H200 0.960 . S
H200 C199 0.960 . S
H201 N181 0.862 . S
O202 Co170 1.920 . S
O202 C175 1.289 . S
C203 O195 1.258 . S
C203 O196 1.266 . S
Co204 O207 1.970 . S
Co204 N221 1.989 . S
Co204 O229 1.967 . S
Co204 O236 1.920 . S
Co205 O208 1.966 1_655 S
Co205 N214 2.022 . S
Co205 N222 1.993 . S
Co205 O230 1.941 . S
C206 O207 1.258 . S
C206 O208 1.263 . S
O207 Co204 1.970 . S
O207 C206 1.258 . S
O208 Co205 1.966 1_455 S
O208 C206 1.263 . S
C209 O210 1.235 . S
C209 O236 1.289 . S
O210 C209 1.235 . S
C211 C213 1.400 . S
C211 N214 1.351 . S
C211 C216 1.501 . S
C212 C213 1.387 . S
C212 N215 1.341 . S
C213 C211 1.400 . S
C213 C212 1.387 . S
N214 Co205 2.022 . S
N214 C211 1.351 . S
N214 N215 1.365 . S
N215 C212 1.341 . S
N215 N214 1.365 . S
N215 H235 0.862 . S
C216 C211 1.501 . S
C216 H217 0.961 . S
C216 H218 0.961 . S
C216 H219 0.960 . S
H217 C216 0.961 . S
H218 C216 0.961 . S
H219 C216 0.960 . S
C220 N221 1.342 . S
C220 C224 1.401 1_455 S
C220 C225 1.499 . S
N221 Co204 1.989 . S
N221 C220 1.342 . S
N221 N222 1.388 1_455 S
N222 Co205 1.993 . S
N222 N221 1.388 1_655 S
N222 C223 1.346 . S
C223 N222 1.346 . S
C223 C224 1.396 . S
C223 C233 1.510 . S
C224 C220 1.401 1_655 S
C224 C223 1.396 . S
C225 C220 1.499 . S
C225 H226 0.959 . S
C225 H227 0.960 . S
C225 H228 0.961 . S
H226 C225 0.959 . S
H227 C225 0.960 . S
H228 C225 0.961 . S
O229 Co204 1.967 . S
O229 C237 1.258 1_455 S
O230 Co205 1.941 . S
O230 C237 1.266 . S
H231 C233 0.959 . S
H232 C233 0.961 . S
C233 C223 1.510 . S
C233 H231 0.959 . S
C233 H232 0.961 . S
C233 H234 0.960 . S
H234 C233 0.960 . S
H235 N215 0.862 . S
O236 Co204 1.920 . S
O236 C209 1.289 . S
C237 O229 1.258 1_655 S
C237 O230 1.266 . S
Co238 O241 1.970 . S
Co238 N255 1.989 . S
Co238 O263 1.967 . S
Co238 O270 1.920 . S
Co239 O242 1.966 . S
Co239 N248 2.022 . S
Co239 N256 1.993 . S
Co239 O264 1.941 . S
C240 O241 1.258 . S
C240 O242 1.263 . S
O241 Co238 1.970 . S
O241 C240 1.258 . S
O242 Co239 1.966 . S
O242 C240 1.263 . S
C243 O244 1.235 . S
C243 O270 1.289 . S
O244 C243 1.235 . S
C245 C247 1.400 . S
C245 N248 1.351 . S
C245 C250 1.501 . S
C246 C247 1.387 . S
C246 N249 1.341 . S
C247 C245 1.400 . S
C247 C246 1.387 . S
N248 Co239 2.022 . S
N248 C245 1.351 . S
N248 N249 1.365 . S
N249 C246 1.341 . S
N249 N248 1.365 . S
N249 H269 0.862 . S
C250 C245 1.501 . S
C250 H251 0.961 . S
C250 H252 0.961 . S
C250 H253 0.960 . S
H251 C250 0.961 . S
H252 C250 0.961 . S
H253 C250 0.960 . S
C254 N255 1.342 . S
C254 C258 1.401 . S
C254 C259 1.499 . S
N255 Co238 1.989 . S
N255 C254 1.342 . S
N255 N256 1.388 . S
N256 Co239 1.993 . S
N256 N255 1.388 . S
N256 C257 1.346 . S
C257 N256 1.346 . S
C257 C258 1.396 . S
C257 C267 1.510 . S
C258 C254 1.401 . S
C258 C257 1.396 . S
C259 C254 1.499 . S
C259 H260 0.959 . S
C259 H261 0.960 . S
C259 H262 0.963 . S
H260 C259 0.959 . S
H261 C259 0.960 . S
H262 C259 0.963 . S
O263 Co238 1.967 . S
O263 C271 1.258 . S
O264 Co239 1.941 . S
O264 C271 1.266 . S
H265 C267 0.959 . S
H266 C267 0.961 . S
C267 C257 1.510 . S
C267 H265 0.959 . S
C267 H266 0.961 . S
C267 H268 0.960 . S
H268 C267 0.960 . S
H269 N249 0.862 . S
O270 Co238 1.920 . S
O270 C243 1.289 . S
C271 O263 1.258 . S
C271 O264 1.266 . S
Co272 O275 1.970 . S
Co272 N289 1.989 . S
Co272 O297 1.967 1_554 S
Co272 O304 1.920 1_554 S
Co273 O276 1.966 . S
Co273 N282 2.022 . S
Co273 N290 1.993 . S
Co273 O298 1.941 1_554 S
C274 O275 1.258 . S
C274 O276 1.263 . S
O275 Co272 1.970 . S
O275 C274 1.258 . S
O276 Co273 1.966 . S
O276 C274 1.263 . S
C277 O278 1.235 . S
C277 O304 1.289 1_564 S
O278 C277 1.235 . S
C279 C281 1.400 . S
C279 N282 1.351 . S
C279 C284 1.501 . S
C280 C281 1.387 . S
C280 N283 1.341 . S
C281 C279 1.400 . S
C281 C280 1.387 . S
N282 Co273 2.022 . S
N282 C279 1.351 . S
N282 N283 1.365 . S
N283 C280 1.341 . S
N283 N282 1.365 . S
N283 H303 0.862 . S
C284 C279 1.501 . S
C284 H285 0.961 . S
C284 H286 0.961 . S
C284 H287 0.960 . S
H285 C284 0.961 . S
H286 C284 0.961 . S
H287 C284 0.960 . S
C288 N289 1.342 . S
C288 C292 1.401 . S
C288 C293 1.499 . S
N289 Co272 1.989 . S
N289 C288 1.342 . S
N289 N290 1.388 . S
N290 Co273 1.993 . S
N290 N289 1.388 . S
N290 C291 1.346 . S
C291 N290 1.346 . S
C291 C292 1.396 . S
C291 C301 1.510 . S
C292 C288 1.401 . S
C292 C291 1.396 . S
C293 C288 1.499 . S
C293 H294 0.959 . S
C293 H295 0.960 . S
C293 H296 0.961 . S
H294 C293 0.959 . S
H295 C293 0.960 . S
H296 C293 0.961 . S
O297 Co272 1.967 1_556 S
O297 C305 1.258 . S
O298 Co273 1.941 1_556 S
O298 C305 1.266 . S
H299 C301 0.959 . S
H300 C301 0.961 . S
C301 C291 1.510 . S
C301 H299 0.959 . S
C301 H300 0.961 . S
C301 H302 0.960 . S
H302 C301 0.960 . S
H303 N283 0.862 . S
O304 Co272 1.920 1_556 S
O304 C277 1.289 1_546 S
C305 O297 1.258 . S
C305 O298 1.266 . S
Co306 O309 1.970 . S
Co306 N323 1.989 . S
Co306 O331 1.967 . S
Co306 O338 1.920 . S
Co307 O310 1.966 . S
Co307 N316 2.022 . S
Co307 N324 1.993 . S
Co307 O332 1.941 . S
C308 O309 1.258 . S
C308 O310 1.263 . S
O309 Co306 1.970 . S
O309 C308 1.258 . S
O310 Co307 1.966 . S
O310 C308 1.263 . S
C311 O312 1.235 . S
C311 O338 1.289 . S
O312 C311 1.235 . S
C313 C315 1.400 . S
C313 N316 1.351 . S
C313 C318 1.501 . S
C314 C315 1.387 . S
C314 N317 1.341 . S
C315 C313 1.400 . S
C315 C314 1.387 . S
N316 Co307 2.022 . S
N316 C313 1.351 . S
N316 N317 1.365 . S
N317 C314 1.341 . S
N317 N316 1.365 . S
N317 H337 0.862 . S
C318 C313 1.501 . S
C318 H319 0.961 . S
C318 H320 0.961 . S
C318 H321 0.960 . S
H319 C318 0.961 . S
H320 C318 0.961 . S
H321 C318 0.960 . S
C322 N323 1.342 . S
C322 C326 1.401 . S
C322 C327 1.499 . S
N323 Co306 1.989 . S
N323 C322 1.342 . S
N323 N324 1.388 . S
N324 Co307 1.993 . S
N324 N323 1.388 . S
N324 C325 1.346 . S
C325 N324 1.346 . S
C325 C326 1.396 . S
C325 C335 1.510 . S
C326 C322 1.401 . S
C326 C325 1.396 . S
C327 C322 1.499 . S
C327 H328 0.959 . S
C327 H329 0.960 . S
C327 H330 0.961 . S
H328 C327 0.959 . S
H329 C327 0.960 . S
H330 C327 0.961 . S
O331 Co306 1.967 . S
O331 C339 1.258 . S
O332 Co307 1.941 . S
O332 C339 1.266 . S
H333 C335 0.959 . S
H334 C335 0.961 . S
C335 C325 1.510 . S
C335 H333 0.959 . S
C335 H334 0.961 . S
C335 H336 0.960 . S
H336 C335 0.960 . S
H337 N317 0.862 . S
O338 Co306 1.920 . S
O338 C311 1.289 . S
C339 O331 1.258 . S
C339 O332 1.266 . S
Co340 O343 1.970 . S
Co340 N357 1.989 . S
Co340 O365 1.967 . S
Co340 O372 1.920 . S
Co341 O344 1.966 1_565 S
Co341 N350 2.022 . S
Co341 N358 1.993 . S
Co341 O366 1.941 . S
C342 O343 1.258 . S
C342 O344 1.263 . S
O343 Co340 1.970 . S
O343 C342 1.258 . S
O344 Co341 1.966 1_545 S
O344 C342 1.263 . S
C345 O346 1.235 . S
C345 O372 1.289 . S
O346 C345 1.235 . S
C347 C349 1.400 . S
C347 N350 1.351 . S
C347 C352 1.501 . S
C348 C349 1.387 . S
C348 N351 1.341 . S
C349 C347 1.400 . S
C349 C348 1.387 . S
N350 Co341 2.022 . S
N350 C347 1.351 . S
N350 N351 1.365 . S
N351 C348 1.341 . S
N351 N350 1.365 . S
N351 H371 0.862 . S
C352 C347 1.501 . S
C352 H353 0.961 . S
C352 H354 0.961 . S
C352 H355 0.960 . S
H353 C352 0.961 . S
H354 C352 0.961 . S
H355 C352 0.960 . S
C356 N357 1.342 . S
C356 C360 1.401 1_545 S
C356 C361 1.499 . S
N357 Co340 1.989 . S
N357 C356 1.342 . S
N357 N358 1.388 1_545 S
N358 Co341 1.993 . S
N358 N357 1.388 1_565 S
N358 C359 1.346 . S
C359 N358 1.346 . S
C359 C360 1.396 . S
C359 C369 1.510 . S
C360 C356 1.401 1_565 S
C360 C359 1.396 . S
C361 C356 1.499 . S
C361 H362 0.959 . S
C361 H363 0.960 . S
C361 H364 0.961 . S
H362 C361 0.959 . S
H363 C361 0.960 . S
H364 C361 0.961 . S
O365 Co340 1.967 . S
O365 C373 1.258 1_545 S
O366 Co341 1.941 . S
O366 C373 1.266 . S
H367 C369 0.959 . S
H368 C369 0.961 . S
C369 C359 1.510 . S
C369 H367 0.959 . S
C369 H368 0.961 . S
C369 H370 0.960 . S
H370 C369 0.960 . S
H371 N351 0.862 . S
O372 Co340 1.920 . S
O372 C345 1.289 . S
C373 O365 1.258 1_565 S
C373 O366 1.266 . S
Co374 O377 1.970 . S
Co374 N391 1.989 . S
Co374 O399 1.967 . S
Co374 O406 1.920 . S
Co375 O378 1.966 . S
Co375 N384 2.022 . S
Co375 N392 1.993 . S
Co375 O400 1.941 . S
C376 O377 1.258 . S
C376 O378 1.263 . S
O377 Co374 1.970 . S
O377 C376 1.258 . S
O378 Co375 1.966 . S
O378 C376 1.263 . S
C379 O380 1.235 . S
C379 O406 1.289 . S
O380 C379 1.235 . S
C381 C383 1.400 . S
C381 N384 1.351 . S
C381 C386 1.501 . S
C382 C383 1.387 . S
C382 N385 1.341 . S
C383 C381 1.400 . S
C383 C382 1.387 . S
N384 Co375 2.022 . S
N384 C381 1.351 . S
N384 N385 1.365 . S
N385 C382 1.341 . S
N385 N384 1.365 . S
N385 H405 0.862 . S
C386 C381 1.501 . S
C386 H387 0.961 . S
C386 H388 0.961 . S
C386 H389 0.960 . S
H387 C386 0.961 . S
H388 C386 0.961 . S
H389 C386 0.960 . S
C390 N391 1.342 . S
C390 C394 1.401 . S
C390 C395 1.499 . S
N391 Co374 1.989 . S
N391 C390 1.342 . S
N391 N392 1.388 . S
N392 Co375 1.993 . S
N392 N391 1.388 . S
N392 C393 1.346 . S
C393 N392 1.346 . S
C393 C394 1.396 . S
C393 C403 1.510 . S
C394 C390 1.401 . S
C394 C393 1.396 . S
C395 C390 1.499 . S
C395 H396 0.959 . S
C395 H397 0.960 . S
C395 H398 0.961 . S
H396 C395 0.959 . S
H397 C395 0.960 . S
H398 C395 0.961 . S
O399 Co374 1.967 . S
O399 C407 1.258 . S
O400 Co375 1.941 . S
O400 C407 1.266 . S
H401 C403 0.959 . S
H402 C403 0.961 . S
C403 C393 1.510 . S
C403 H401 0.959 . S
C403 H402 0.961 . S
C403 H404 0.960 . S
H404 C403 0.960 . S
H405 N385 0.862 . S
O406 Co374 1.920 . S
O406 C379 1.289 . S
C407 O399 1.258 . S
C407 O400 1.266 . S
Co408 O411 1.970 . S
Co408 N425 1.989 . S
Co408 O433 1.967 . S
Co408 O440 1.920 . S
Co409 O412 1.966 . S
Co409 N418 2.022 . S
Co409 N426 1.993 . S
Co409 O434 1.941 . S
C410 O411 1.258 . S
C410 O412 1.263 . S
O411 Co408 1.970 . S
O411 C410 1.258 . S
O412 Co409 1.966 . S
O412 C410 1.263 . S
C413 O414 1.235 . S
C413 O440 1.289 . S
O414 C413 1.235 . S
C415 C417 1.411 . S
C415 N418 1.351 . S
C415 C420 1.501 . S
C416 C417 1.391 . S
C416 N419 1.341 . S
C417 C415 1.411 . S
C417 C416 1.391 . S
N418 Co409 2.022 . S
N418 C415 1.351 . S
N418 N419 1.365 . S
N419 C416 1.341 . S
N419 N418 1.365 . S
N419 H439 0.862 . S
C420 C415 1.501 . S
C420 H421 0.961 . S
C420 H422 0.961 . S
C420 H423 0.960 . S
H421 C420 0.961 . S
H422 C420 0.961 . S
H423 C420 0.960 . S
C424 N425 1.342 . S
C424 C428 1.401 1_554 S
C424 C429 1.499 . S
N425 Co408 1.989 . S
N425 C424 1.342 . S
N425 N426 1.388 . S
N426 Co409 1.993 . S
N426 N425 1.388 . S
N426 C427 1.346 1_554 S
C427 N426 1.346 1_556 S
C427 C428 1.396 . S
C427 C437 1.510 . S
C428 C424 1.401 1_556 S
C428 C427 1.396 . S
C429 C424 1.499 . S
C429 H430 0.959 . S
C429 H431 0.960 1_554 S
C429 H432 0.961 . S
H430 C429 0.959 . S
H431 C429 0.960 1_556 S
H432 C429 0.961 . S
O433 Co408 1.967 . S
O433 C441 1.258 . S
O434 Co409 1.941 . S
O434 C441 1.266 . S
H435 C437 0.959 . S
H436 C437 0.961 . S
C437 C427 1.510 . S
C437 H435 0.959 . S
C437 H436 0.961 . S
C437 H438 0.960 . S
H438 C437 0.960 . S
H439 N419 0.862 . S
O440 Co408 1.920 . S
O440 C413 1.289 . S
C441 O433 1.258 . S
C441 O434 1.266 . S
Co442 O445 1.970 1_545 S
Co442 N459 1.989 . S
Co442 O467 1.967 . S
Co442 O474 1.920 . S
Co443 O446 1.966 . S
Co443 N452 2.022 . S
Co443 N460 1.993 . S
Co443 O468 1.941 . S
C444 O445 1.258 . S
C444 O446 1.263 . S
O445 Co442 1.970 1_565 S
O445 C444 1.258 . S
O446 Co443 1.966 . S
O446 C444 1.263 . S
C447 O448 1.235 . S
C447 O474 1.289 . S
O448 C447 1.235 . S
C449 C451 1.400 . S
C449 N452 1.351 . S
C449 C454 1.501 . S
C450 C451 1.387 . S
C450 N453 1.341 . S
C451 C449 1.400 . S
C451 C450 1.387 . S
N452 Co443 2.022 . S
N452 C449 1.351 . S
N452 N453 1.365 . S
N453 C450 1.341 . S
N453 N452 1.365 . S
N453 H473 0.862 . S
C454 C449 1.501 . S
C454 H455 0.961 . S
C454 H456 0.961 . S
C454 H457 0.960 . S
H455 C454 0.961 . S
H456 C454 0.961 . S
H457 C454 0.960 . S
C458 N459 1.342 . S
C458 C462 1.401 . S
C458 C463 1.499 . S
N459 Co442 1.989 . S
N459 C458 1.342 . S
N459 N460 1.388 1_545 S
N460 Co443 1.993 . S
N460 N459 1.388 1_565 S
N460 C461 1.346 . S
C461 N460 1.346 . S
C461 C462 1.396 1_565 S
C461 C471 1.510 . S
C462 C458 1.401 . S
C462 C461 1.396 1_545 S
C463 C458 1.499 . S
C463 H464 0.959 . S
C463 H465 0.960 . S
C463 H466 0.961 . S
H464 C463 0.959 . S
H465 C463 0.960 . S
H466 C463 0.961 . S
O467 Co442 1.967 . S
O467 C475 1.258 1_545 S
O468 Co443 1.941 . S
O468 C475 1.266 . S
H469 C471 0.959 . S
H470 C471 0.961 . S
C471 C461 1.510 . S
C471 H469 0.959 . S
C471 H470 0.961 . S
C471 H472 0.960 . S
H472 C471 0.960 . S
H473 N453 0.862 . S
O474 Co442 1.920 . S
O474 C447 1.289 . S
C475 O467 1.258 1_565 S
C475 O468 1.266 . S
Co476 O479 1.970 . S
Co476 N493 1.989 . S
Co476 O501 1.967 . S
Co476 O508 1.920 . S
Co477 O480 1.966 . S
Co477 N486 2.022 . S
Co477 N494 1.993 . S
Co477 O502 1.941 . S
C478 O479 1.258 . S
C478 O480 1.263 . S
O479 Co476 1.970 . S
O479 C478 1.258 . S
O480 Co477 1.966 . S
O480 C478 1.263 . S
C481 O482 1.235 . S
C481 O508 1.289 . S
O482 C481 1.235 . S
C483 C485 1.400 . S
C483 N486 1.351 . S
C483 C488 1.501 . S
C484 C485 1.387 . S
C484 N487 1.341 . S
C485 C483 1.400 . S
C485 C484 1.387 . S
N486 Co477 2.022 . S
N486 C483 1.351 . S
N486 N487 1.365 . S
N487 C484 1.341 . S
N487 N486 1.365 . S
N487 H507 0.862 . S
C488 C483 1.501 . S
C488 H489 0.961 . S
C488 H490 0.961 . S
C488 H491 0.960 . S
H489 C488 0.961 . S
H490 C488 0.961 . S
H491 C488 0.960 . S
C492 N493 1.342 . S
C492 C496 1.401 . S
C492 C497 1.499 . S
N493 Co476 1.989 . S
N493 C492 1.342 . S
N493 N494 1.388 . S
N494 Co477 1.993 . S
N494 N493 1.388 . S
N494 C495 1.346 . S
C495 N494 1.346 . S
C495 C496 1.396 . S
C495 C505 1.510 . S
C496 C492 1.401 . S
C496 C495 1.396 . S
C497 C492 1.499 . S
C497 H498 0.959 . S
C497 H499 0.960 . S
C497 H500 0.961 . S
H498 C497 0.959 . S
H499 C497 0.960 . S
H500 C497 0.961 . S
O501 Co476 1.967 . S
O501 C509 1.258 . S
O502 Co477 1.941 . S
O502 C509 1.266 . S
H503 C505 0.959 . S
H504 C505 0.961 . S
C505 C495 1.510 . S
C505 H503 0.959 . S
C505 H504 0.961 . S
C505 H506 0.960 . S
H506 C505 0.960 . S
H507 N487 0.862 . S
O508 Co476 1.920 . S
O508 C481 1.289 . S
C509 O501 1.258 . S
C509 O502 1.266 . S
Co510 O513 1.970 . S
Co510 N527 1.989 . S
Co510 O535 1.967 . S
Co510 O542 1.920 . S
Co511 O514 1.966 . S
Co511 N520 2.022 . S
Co511 N528 1.993 . S
Co511 O536 1.941 . S
C512 O513 1.258 . S
C512 O514 1.263 . S
O513 Co510 1.970 . S
O513 C512 1.258 . S
O514 Co511 1.966 . S
O514 C512 1.263 . S
C515 O516 1.235 . S
C515 O542 1.289 . S
O516 C515 1.235 . S
C517 C519 1.400 . S
C517 N520 1.351 . S
C517 C522 1.501 . S
C518 C519 1.387 . S
C518 N521 1.341 . S
C519 C517 1.400 . S
C519 C518 1.387 . S
N520 Co511 2.022 . S
N520 C517 1.351 . S
N520 N521 1.365 . S
N521 C518 1.341 . S
N521 N520 1.365 . S
N521 H541 0.862 . S
C522 C517 1.501 . S
C522 H523 0.961 . S
C522 H524 0.961 . S
C522 H525 0.960 . S
H523 C522 0.961 . S
H524 C522 0.961 . S
H525 C522 0.960 . S
C526 N527 1.342 . S
C526 C530 1.401 . S
C526 C531 1.499 . S
N527 Co510 1.989 . S
N527 C526 1.342 . S
N527 N528 1.388 . S
N528 Co511 1.993 . S
N528 N527 1.388 . S
N528 C529 1.346 . S
C529 N528 1.346 . S
C529 C530 1.396 . S
C529 C539 1.510 . S
C530 C526 1.401 . S
C530 C529 1.396 . S
C531 C526 1.499 . S
C531 H532 0.959 . S
C531 H533 0.960 . S
C531 H534 0.963 . S
H532 C531 0.959 . S
H533 C531 0.960 . S
H534 C531 0.963 . S
O535 Co510 1.967 . S
O535 C543 1.258 . S
O536 Co511 1.941 . S
O536 C543 1.266 . S
H537 C539 0.959 . S
H538 C539 0.961 . S
C539 C529 1.510 . S
C539 H537 0.959 . S
C539 H538 0.961 . S
C539 H540 0.960 . S
H540 C539 0.960 . S
H541 N521 0.862 . S
O542 Co510 1.920 . S
O542 C515 1.289 . S
C543 O535 1.258 . S
C543 O536 1.266 . S
Co544 O547 1.970 . S
Co544 N561 1.989 . S
Co544 O569 1.967 1_455 S
Co544 O576 1.920 1_455 S
Co545 O548 1.966 . S
Co545 N554 2.022 . S
Co545 N562 1.993 . S
Co545 O570 1.941 1_455 S
C546 O547 1.258 . S
C546 O548 1.263 . S
O547 Co544 1.970 . S
O547 C546 1.258 . S
O548 Co545 1.966 . S
O548 C546 1.263 . S
C549 O550 1.235 . S
C549 O576 1.289 1_456 S
O550 C549 1.235 . S
C551 C553 1.400 . S
C551 N554 1.351 . S
C551 C556 1.501 . S
C552 C553 1.387 . S
C552 N555 1.341 . S
C553 C551 1.400 . S
C553 C552 1.387 . S
N554 Co545 2.022 . S
N554 C551 1.351 . S
N554 N555 1.365 . S
N555 C552 1.341 . S
N555 N554 1.365 . S
N555 H575 0.862 . S
C556 C551 1.501 . S
C556 H557 0.961 . S
C556 H558 0.961 . S
C556 H559 0.960 . S
H557 C556 0.961 . S
H558 C556 0.961 . S
H559 C556 0.960 . S
C560 N561 1.342 . S
C560 C564 1.401 . S
C560 C565 1.499 . S
N561 Co544 1.989 . S
N561 C560 1.342 . S
N561 N562 1.388 . S
N562 Co545 1.993 . S
N562 N561 1.388 . S
N562 C563 1.346 . S
C563 N562 1.346 . S
C563 C564 1.396 . S
C563 C573 1.510 . S
C564 C560 1.401 . S
C564 C563 1.396 . S
C565 C560 1.499 . S
C565 H566 0.959 . S
C565 H567 0.960 . S
C565 H568 0.961 . S
H566 C565 0.959 . S
H567 C565 0.960 . S
H568 C565 0.961 . S
O569 Co544 1.967 1_655 S
O569 C577 1.258 . S
O570 Co545 1.941 1_655 S
O570 C577 1.266 . S
H571 C573 0.959 . S
H572 C573 0.961 . S
C573 C563 1.510 . S
C573 H571 0.959 . S
C573 H572 0.961 . S
C573 H574 0.960 . S
H574 C573 0.960 . S
H575 N555 0.862 . S
O576 Co544 1.920 1_655 S
O576 C549 1.289 1_654 S
C577 O569 1.258 . S
C577 O570 1.266 . S
Co578 O581 1.970 . S
Co578 N595 1.989 . S
Co578 O603 1.967 . S
Co578 O610 1.920 . S
Co579 O582 1.966 1_556 S
Co579 N588 2.022 . S
Co579 N596 1.993 . S
Co579 O604 1.941 . S
C580 O581 1.258 . S
C580 O582 1.263 . S
O581 Co578 1.970 . S
O581 C580 1.258 . S
O582 Co579 1.966 1_554 S
O582 C580 1.263 . S
C583 O584 1.235 . S
C583 O610 1.289 . S
O584 C583 1.235 . S
C585 C587 1.400 . S
C585 N588 1.351 . S
C585 C590 1.501 . S
C586 C587 1.387 . S
C586 N589 1.341 . S
C587 C585 1.400 . S
C587 C586 1.387 . S
N588 Co579 2.022 . S
N588 C585 1.351 . S
N588 N589 1.365 . S
N589 C586 1.341 . S
N589 N588 1.365 . S
N589 H609 0.862 . S
C590 C585 1.501 . S
C590 H591 0.961 . S
C590 H592 0.961 . S
C590 H593 0.960 . S
H591 C590 0.961 . S
H592 C590 0.961 . S
H593 C590 0.960 . S
C594 N595 1.342 . S
C594 C598 1.401 1_554 S
C594 C599 1.499 . S
N595 Co578 1.989 . S
N595 C594 1.342 . S
N595 N596 1.388 1_554 S
N596 Co579 1.993 . S
N596 N595 1.388 1_556 S
N596 C597 1.346 . S
C597 N596 1.346 . S
C597 C598 1.396 . S
C597 C607 1.510 . S
C598 C594 1.401 1_556 S
C598 C597 1.396 . S
C599 C594 1.499 . S
C599 H600 0.959 . S
C599 H601 0.960 . S
C599 H602 0.961 . S
H600 C599 0.959 . S
H601 C599 0.960 . S
H602 C599 0.961 . S
O603 Co578 1.967 . S
O603 C611 1.258 1_554 S
O604 Co579 1.941 . S
O604 C611 1.266 . S
H605 C607 0.959 . S
H606 C607 0.961 . S
C607 C597 1.510 . S
C607 H605 0.959 . S
C607 H606 0.961 . S
C607 H608 0.960 . S
H608 C607 0.960 . S
H609 N589 0.862 . S
O610 Co578 1.920 . S
O610 C583 1.289 . S
C611 O603 1.258 1_556 S
C611 O604 1.266 . S
Co612 O615 1.970 . S
Co612 N629 1.989 . S
Co612 O637 1.967 . S
Co612 O644 1.920 . S
Co613 O616 1.966 . S
Co613 N622 2.022 . S
Co613 N630 1.993 . S
Co613 O638 1.941 . S
C614 O615 1.258 . S
C614 O616 1.263 . S
O615 Co612 1.970 . S
O615 C614 1.258 . S
O616 Co613 1.966 . S
O616 C614 1.263 . S
C617 O618 1.235 . S
C617 O644 1.289 . S
O618 C617 1.235 . S
C619 C621 1.400 . S
C619 N622 1.351 . S
C619 C624 1.501 . S
C620 C621 1.387 . S
C620 N623 1.341 . S
C621 C619 1.400 . S
C621 C620 1.387 . S
N622 Co613 2.022 . S
N622 C619 1.351 . S
N622 N623 1.365 . S
N623 C620 1.341 . S
N623 N622 1.365 . S
N623 H643 0.862 . S
C624 C619 1.501 . S
C624 H625 0.961 . S
C624 H626 0.961 . S
C624 H627 0.960 . S
H625 C624 0.961 . S
H626 C624 0.961 . S
H627 C624 0.960 . S
C628 N629 1.342 . S
C628 C632 1.401 . S
C628 C633 1.499 . S
N629 Co612 1.989 . S
N629 C628 1.342 . S
N629 N630 1.388 . S
N630 Co613 1.993 . S
N630 N629 1.388 . S
N630 C631 1.346 . S
C631 N630 1.346 . S
C631 C632 1.396 . S
C631 C641 1.510 . S
C632 C628 1.401 . S
C632 C631 1.396 . S
C633 C628 1.499 . S
C633 H634 0.959 . S
C633 H635 0.960 . S
C633 H636 0.961 . S
H634 C633 0.959 . S
H635 C633 0.960 . S
H636 C633 0.961 . S
O637 Co612 1.967 . S
O637 C645 1.258 . S
O638 Co613 1.941 . S
O638 C645 1.266 . S
H639 C641 0.959 . S
H640 C641 0.961 . S
C641 C631 1.510 . S
C641 H639 0.959 . S
C641 H640 0.961 . S
C641 H642 0.960 . S
H642 C641 0.960 . S
H643 N623 0.862 . S
O644 Co612 1.920 . S
O644 C617 1.289 . S
C645 O637 1.258 . S
C645 O638 1.266 . S
Co646 O649 1.970 . S
Co646 N663 1.989 . S
Co646 O671 1.967 . S
Co646 O678 1.920 . S
Co647 O650 1.966 . S
Co647 N656 2.022 . S
Co647 N664 1.993 . S
Co647 O672 1.941 . S
C648 O649 1.258 . S
C648 O650 1.263 . S
O649 Co646 1.970 . S
O649 C648 1.258 . S
O650 Co647 1.966 . S
O650 C648 1.263 . S
C651 O652 1.235 . S
C651 O678 1.289 . S
O652 C651 1.235 . S
C653 C655 1.411 . S
C653 N656 1.351 . S
C653 C658 1.501 . S
C654 C655 1.391 . S
C654 N657 1.341 . S
C655 C653 1.411 . S
C655 C654 1.391 . S
N656 Co647 2.022 . S
N656 C653 1.351 . S
N656 N657 1.365 . S
N657 C654 1.341 . S
N657 N656 1.365 . S
N657 H677 0.862 . S
C658 C653 1.501 . S
C658 H659 0.961 . S
C658 H660 0.961 . S
C658 H661 0.960 . S
H659 C658 0.961 . S
H660 C658 0.961 . S
H661 C658 0.960 . S
C662 N663 1.342 . S
C662 C666 1.401 1_455 S
C662 C667 1.499 . S
N663 Co646 1.989 . S
N663 C662 1.342 . S
N663 N664 1.388 . S
N664 Co647 1.993 . S
N664 N663 1.388 . S
N664 C665 1.346 1_455 S
C665 N664 1.346 1_655 S
C665 C666 1.396 . S
C665 C675 1.510 . S
C666 C662 1.401 1_655 S
C666 C665 1.396 . S
C667 C662 1.499 . S
C667 H668 0.959 . S
C667 H669 0.960 1_455 S
C667 H670 0.961 . S
H668 C667 0.959 . S
H669 C667 0.960 1_655 S
H670 C667 0.961 . S
O671 Co646 1.967 . S
O671 C679 1.258 . S
O672 Co647 1.941 . S
O672 C679 1.266 . S
H673 C675 0.959 . S
H674 C675 0.961 . S
C675 C665 1.510 . S
C675 H673 0.959 . S
C675 H674 0.961 . S
C675 H676 0.960 . S
H676 C675 0.960 . S
H677 N657 0.862 . S
O678 Co646 1.920 . S
O678 C651 1.289 . S
C679 O671 1.258 . S
C679 O672 1.266 . S
Co680 O683 1.970 . S
Co680 N697 1.989 . S
Co680 O705 1.967 . S
Co680 O712 1.920 . S
Co681 O684 1.966 . S
Co681 N690 2.022 . S
Co681 N698 1.993 . S
Co681 O706 1.941 . S
C682 O683 1.258 . S
C682 O684 1.263 . S
O683 Co680 1.970 . S
O683 C682 1.258 . S
O684 Co681 1.966 . S
O684 C682 1.263 . S
C685 O686 1.235 . S
C685 O712 1.289 . S
O686 C685 1.235 . S
C687 C689 1.400 . S
C687 N690 1.351 . S
C687 C692 1.501 . S
C688 C689 1.387 . S
C688 N691 1.341 . S
C689 C687 1.400 . S
C689 C688 1.387 . S
N690 Co681 2.022 . S
N690 C687 1.351 . S
N690 N691 1.365 . S
N691 C688 1.341 . S
N691 N690 1.365 . S
N691 H711 0.862 . S
C692 C687 1.501 . S
C692 H693 0.961 . S
C692 H694 0.961 . S
C692 H695 0.960 . S
H693 C692 0.961 . S
H694 C692 0.961 . S
H695 C692 0.960 . S
C696 N697 1.342 . S
C696 C700 1.401 . S
C696 C701 1.499 . S
N697 Co680 1.989 . S
N697 C696 1.342 . S
N697 N698 1.388 . S
N698 Co681 1.993 . S
N698 N697 1.388 . S
N698 C699 1.346 . S
C699 N698 1.346 . S
C699 C700 1.396 . S
C699 C709 1.510 . S
C700 C696 1.401 . S
C700 C699 1.396 . S
C701 C696 1.499 . S
C701 H702 0.959 . S
C701 H703 0.960 . S
C701 H704 0.963 . S
H702 C701 0.959 . S
H703 C701 0.960 . S
H704 C701 0.963 . S
O705 Co680 1.967 . S
O705 C713 1.258 . S
O706 Co681 1.941 . S
O706 C713 1.266 . S
H707 C709 0.959 . S
H708 C709 0.961 . S
C709 C699 1.510 . S
C709 H707 0.959 . S
C709 H708 0.961 . S
C709 H710 0.960 . S
H710 C709 0.960 . S
H711 N691 0.862 . S
O712 Co680 1.920 . S
O712 C685 1.289 . S
C713 O705 1.258 . S
C713 O706 1.266 . S
Co714 O717 1.970 . S
Co714 N731 1.989 . S
Co714 O739 1.967 . S
Co714 O746 1.920 . S
Co715 O718 1.966 . S
Co715 N724 2.022 . S
Co715 N732 1.993 . S
Co715 O740 1.941 . S
C716 O717 1.258 . S
C716 O718 1.263 . S
O717 Co714 1.970 . S
O717 C716 1.258 . S
O718 Co715 1.966 . S
O718 C716 1.263 . S
C719 O720 1.235 . S
C719 O746 1.289 . S
O720 C719 1.235 . S
C721 C723 1.400 . S
C721 N724 1.351 . S
C721 C726 1.501 . S
C722 C723 1.387 . S
C722 N725 1.341 . S
C723 C721 1.400 . S
C723 C722 1.387 . S
N724 Co715 2.022 . S
N724 C721 1.351 . S
N724 N725 1.365 . S
N725 C722 1.341 . S
N725 N724 1.365 . S
N725 H745 0.862 . S
C726 C721 1.501 . S
C726 H727 0.961 . S
C726 H728 0.961 . S
C726 H729 0.960 . S
H727 C726 0.961 . S
H728 C726 0.961 . S
H729 C726 0.960 . S
C730 N731 1.342 . S
C730 C734 1.401 . S
C730 C735 1.499 . S
N731 Co714 1.989 . S
N731 C730 1.342 . S
N731 N732 1.388 . S
N732 Co715 1.993 . S
N732 N731 1.388 . S
N732 C733 1.346 . S
C733 N732 1.346 . S
C733 C734 1.396 . S
C733 C743 1.510 . S
C734 C730 1.401 . S
C734 C733 1.396 . S
C735 C730 1.499 . S
C735 H736 0.959 . S
C735 H737 0.960 . S
C735 H738 0.961 . S
H736 C735 0.959 . S
H737 C735 0.960 . S
H738 C735 0.961 . S
O739 Co714 1.967 . S
O739 C747 1.258 . S
O740 Co715 1.941 . S
O740 C747 1.266 . S
H741 C743 0.959 . S
H742 C743 0.961 . S
C743 C733 1.510 . S
C743 H741 0.959 . S
C743 H742 0.961 . S
C743 H744 0.960 . S
H744 C743 0.960 . S
H745 N725 0.862 . S
O746 Co714 1.920 . S
O746 C719 1.289 . S
C747 O739 1.258 . S
C747 O740 1.266 . S
Co748 O751 1.970 1_455 S
Co748 N765 1.989 . S
Co748 O773 1.967 . S
Co748 O780 1.920 . S
Co749 O752 1.966 . S
Co749 N758 2.022 . S
Co749 N766 1.993 . S
Co749 O774 1.941 . S
C750 O751 1.258 . S
C750 O752 1.263 . S
O751 Co748 1.970 1_655 S
O751 C750 1.258 . S
O752 Co749 1.966 . S
O752 C750 1.263 . S
C753 O754 1.235 . S
C753 O780 1.289 . S
O754 C753 1.235 . S
C755 C757 1.400 . S
C755 N758 1.351 . S
C755 C760 1.501 . S
C756 C757 1.387 . S
C756 N759 1.341 . S
C757 C755 1.400 . S
C757 C756 1.387 . S
N758 Co749 2.022 . S
N758 C755 1.351 . S
N758 N759 1.365 . S
N759 C756 1.341 . S
N759 N758 1.365 . S
N759 H779 0.862 . S
C760 C755 1.501 . S
C760 H761 0.961 . S
C760 H762 0.961 . S
C760 H763 0.960 . S
H761 C760 0.961 . S
H762 C760 0.961 . S
H763 C760 0.960 . S
C764 N765 1.342 . S
C764 C768 1.401 . S
C764 C769 1.499 . S
N765 Co748 1.989 . S
N765 C764 1.342 . S
N765 N766 1.388 1_455 S
N766 Co749 1.993 . S
N766 N765 1.388 1_655 S
N766 C767 1.346 . S
C767 N766 1.346 . S
C767 C768 1.396 1_655 S
C767 C777 1.510 . S
C768 C764 1.401 . S
C768 C767 1.396 1_455 S
C769 C764 1.499 . S
C769 H770 0.959 . S
C769 H771 0.960 . S
C769 H772 0.961 . S
H770 C769 0.959 . S
H771 C769 0.960 . S
H772 C769 0.961 . S
O773 Co748 1.967 . S
O773 C781 1.258 1_455 S
O774 Co749 1.941 . S
O774 C781 1.266 . S
H775 C777 0.959 . S
H776 C777 0.961 . S
C777 C767 1.510 . S
C777 H775 0.959 . S
C777 H776 0.961 . S
C777 H778 0.960 . S
H778 C777 0.960 . S
H779 N759 0.862 . S
O780 Co748 1.920 . S
O780 C753 1.289 . S
C781 O773 1.258 1_655 S
C781 O774 1.266 . S
Co782 O785 1.970 . S
Co782 N799 1.989 . S
Co782 O807 1.967 . S
Co782 O814 1.920 . S
Co783 O786 1.966 . S
Co783 N792 2.022 . S
Co783 N800 1.993 . S
Co783 O808 1.941 . S
C784 O785 1.258 . S
C784 O786 1.263 . S
O785 Co782 1.970 . S
O785 C784 1.258 . S
O786 Co783 1.966 . S
O786 C784 1.263 . S
C787 O788 1.235 . S
C787 O814 1.289 . S
O788 C787 1.235 . S
C789 C791 1.400 . S
C789 N792 1.351 . S
C789 C794 1.501 . S
C790 C791 1.387 . S
C790 N793 1.341 . S
C791 C789 1.400 . S
C791 C790 1.387 . S
N792 Co783 2.022 . S
N792 C789 1.351 . S
N792 N793 1.365 . S
N793 C790 1.341 . S
N793 N792 1.365 . S
N793 H813 0.862 . S
C794 C789 1.501 . S
C794 H795 0.961 . S
C794 H796 0.961 . S
C794 H797 0.960 . S
H795 C794 0.961 . S
H796 C794 0.961 . S
H797 C794 0.960 . S
C798 N799 1.342 . S
C798 C802 1.401 . S
C798 C803 1.499 . S
N799 Co782 1.989 . S
N799 C798 1.342 . S
N799 N800 1.388 . S
N800 Co783 1.993 . S
N800 N799 1.388 . S
N800 C801 1.346 . S
C801 N800 1.346 . S
C801 C802 1.396 . S
C801 C811 1.510 . S
C802 C798 1.401 . S
C802 C801 1.396 . S
C803 C798 1.499 . S
C803 H804 0.959 . S
C803 H805 0.960 . S
C803 H806 0.961 . S
H804 C803 0.959 . S
H805 C803 0.960 . S
H806 C803 0.961 . S
O807 Co782 1.967 . S
O807 C815 1.258 . S
O808 Co783 1.941 . S
O808 C815 1.266 . S
H809 C811 0.959 . S
H810 C811 0.961 . S
C811 C801 1.510 . S
C811 H809 0.959 . S
C811 H810 0.961 . S
C811 H812 0.960 . S
H812 C811 0.960 . S
H813 N793 0.862 . S
O814 Co782 1.920 . S
O814 C787 1.289 . S
C815 O807 1.258 . S
C815 O808 1.266 . S
C816 C817 1.391 . S
C816 C818 1.394 . S
C816 H832 0.931 . S
C817 C816 1.391 . S
C817 C821 1.376 . S
C818 C816 1.394 . S
C818 C819 1.369 . S
C818 C822 1.531 . S
C819 C818 1.369 . S
C819 C820 1.410 . S
C819 C827 1.503 . S
C820 C819 1.410 . S
C820 C821 1.392 . S
C820 C823 1.511 . S
C821 C817 1.376 . S
C821 C820 1.392 . S
C821 H833 0.929 . S
C822 C818 1.531 . S
C822 H834 0.960 . S
C822 H835 0.962 . S
C822 H836 0.960 . S
C823 C820 1.511 . S
C823 H837 0.961 . S
C823 H838 0.961 . S
C823 H839 0.961 . S
C824 C825 1.370 . S
C824 C826 1.363 . S
C824 H840 0.931 . S
C825 C824 1.370 . S
C825 C829 1.408 . S
C826 C824 1.363 . S
C826 C827 1.370 . S
C826 C830 1.524 . S
C827 C819 1.503 . S
C827 C826 1.370 . S
C827 C828 1.403 . S
C828 C827 1.403 . S
C828 C829 1.404 . S
C828 C831 1.539 . S
C829 C825 1.408 . S
C829 C828 1.404 . S
C829 H841 0.930 . S
C830 C826 1.524 . S
C830 H842 0.956 . S
C830 H843 0.961 . S
C830 H844 0.961 . S
C831 C828 1.539 . S
C831 H845 0.958 . S
C831 H846 0.961 . S
C831 H847 0.960 . S
H832 C816 0.931 . S
H833 C821 0.929 . S
H834 C822 0.960 . S
H835 C822 0.962 . S
H836 C822 0.960 . S
H837 C823 0.961 . S
H838 C823 0.961 . S
H839 C823 0.961 . S
H840 C824 0.931 . S
H841 C829 0.930 . S
H842 C830 0.956 . S
H843 C830 0.961 . S
H844 C830 0.961 . S
H845 C831 0.958 . S
H846 C831 0.961 . S
H847 C831 0.960 . S
C848 C849 1.391 . S
C848 C850 1.394 . S
C848 H864 0.931 . S
C849 C848 1.391 . S
C849 C853 1.407 . S
C850 C848 1.394 . S
C850 C851 1.369 . S
C850 C854 1.531 . S
C851 C850 1.369 . S
C851 C852 1.410 1_556 S
C851 C859 1.503 . S
C852 C851 1.410 1_554 S
C852 C853 1.385 1_554 S
C852 C855 1.511 . S
C853 C849 1.407 . S
C853 C852 1.385 1_556 S
C853 H865 0.905 1_556 S
C854 C850 1.531 . S
C854 H866 0.960 . S
C854 H867 0.962 . S
C854 H868 0.960 . S
C855 C852 1.511 . S
C855 H869 0.961 . S
C855 H870 0.961 . S
C855 H871 0.961 . S
C856 C857 1.380 . S
C856 C858 1.363 . S
C856 H872 0.931 . S
C857 C856 1.380 . S
C857 C861 1.403 1_556 S
C858 C856 1.363 . S
C858 C859 1.370 . S
C858 C862 1.524 . S
C859 C851 1.503 . S
C859 C858 1.370 . S
C859 C860 1.403 1_556 S
C860 C859 1.403 1_554 S
C860 C861 1.404 . S
C860 C863 1.539 . S
C861 C857 1.403 1_554 S
C861 C860 1.404 . S
C861 H873 0.930 . S
C862 C858 1.524 . S
C862 H874 0.956 . S
C862 H875 0.961 . S
C862 H876 0.961 . S
C863 C860 1.539 . S
C863 H877 0.958 1_554 S
C863 H878 0.961 . S
C863 H879 0.960 . S
H864 C848 0.931 . S
H865 C853 0.905 1_554 S
H866 C854 0.960 . S
H867 C854 0.962 . S
H868 C854 0.960 . S
H869 C855 0.961 . S
H870 C855 0.961 . S
H871 C855 0.961 . S
H872 C856 0.931 . S
H873 C861 0.930 . S
H874 C862 0.956 . S
H875 C862 0.961 . S
H876 C862 0.961 . S
H877 C863 0.958 1_556 S
H878 C863 0.961 . S
H879 C863 0.960 . S
C880 C881 1.391 . S
C880 C882 1.394 . S
C880 H896 0.931 . S
C881 C880 1.391 . S
C881 C885 1.376 . S
C882 C880 1.394 . S
C882 C883 1.369 . S
C882 C886 1.531 . S
C883 C882 1.369 . S
C883 C884 1.410 . S
C883 C891 1.503 . S
C884 C883 1.410 . S
C884 C885 1.392 . S
C884 C887 1.511 . S
C885 C881 1.376 . S
C885 C884 1.392 . S
C885 H897 0.929 . S
C886 C882 1.531 . S
C886 H898 0.960 . S
C886 H899 0.962 . S
C886 H900 0.960 . S
C887 C884 1.511 . S
C887 H901 0.961 . S
C887 H902 0.961 . S
C887 H903 0.961 . S
C888 C889 1.370 . S
C888 C890 1.363 . S
C888 H904 0.931 . S
C889 C888 1.370 . S
C889 C893 1.408 . S
C890 C888 1.363 . S
C890 C891 1.370 . S
C890 C894 1.524 . S
C891 C883 1.503 . S
C891 C890 1.370 . S
C891 C892 1.403 . S
C892 C891 1.403 . S
C892 C893 1.404 . S
C892 C895 1.539 . S
C893 C889 1.408 . S
C893 C892 1.404 . S
C893 H905 0.930 . S
C894 C890 1.524 . S
C894 H906 0.956 . S
C894 H907 0.961 . S
C894 H908 0.961 . S
C895 C892 1.539 . S
C895 H909 0.958 . S
C895 H910 0.961 . S
C895 H911 0.960 . S
H896 C880 0.931 . S
H897 C885 0.929 . S
H898 C886 0.960 . S
H899 C886 0.962 . S
H900 C886 0.960 . S
H901 C887 0.961 . S
H902 C887 0.961 . S
H903 C887 0.961 . S
H904 C888 0.931 . S
H905 C893 0.930 . S
H906 C894 0.956 . S
H907 C894 0.961 . S
H908 C894 0.961 . S
H909 C895 0.958 . S
H910 C895 0.961 . S
H911 C895 0.960 . S
C912 C913 1.391 . S
C912 C914 1.394 . S
C912 H928 0.931 . S
C913 C912 1.391 . S
C913 C917 1.376 . S
C914 C912 1.394 . S
C914 C915 1.369 . S
C914 C918 1.531 . S
C915 C914 1.369 . S
C915 C916 1.410 . S
C915 C923 1.503 . S
C916 C915 1.410 . S
C916 C917 1.392 . S
C916 C919 1.511 . S
C917 C913 1.376 . S
C917 C916 1.392 . S
C917 H929 0.929 . S
C918 C914 1.531 . S
C918 H930 0.960 . S
C918 H931 0.962 . S
C918 H932 0.960 . S
C919 C916 1.511 . S
C919 H933 0.961 . S
C919 H934 0.961 . S
C919 H935 0.961 . S
C920 C921 1.370 . S
C920 C922 1.363 . S
C920 H936 0.931 . S
C921 C920 1.370 . S
C921 C925 1.408 . S
C922 C920 1.363 . S
C922 C923 1.370 . S
C922 C926 1.524 . S
C923 C915 1.503 . S
C923 C922 1.370 . S
C923 C924 1.403 . S
C924 C923 1.403 . S
C924 C925 1.404 . S
C924 C927 1.539 . S
C925 C921 1.408 . S
C925 C924 1.404 . S
C925 H937 0.930 . S
C926 C922 1.524 . S
C926 H938 0.956 . S
C926 H939 0.961 . S
C926 H940 0.961 . S
C927 C924 1.539 . S
C927 H941 0.958 . S
C927 H942 0.961 . S
C927 H943 0.960 . S
H928 C912 0.931 . S
H929 C917 0.929 . S
H930 C918 0.960 . S
H931 C918 0.962 . S
H932 C918 0.960 . S
H933 C919 0.961 . S
H934 C919 0.961 . S
H935 C919 0.961 . S
H936 C920 0.931 . S
H937 C925 0.930 . S
H938 C926 0.956 . S
H939 C926 0.961 . S
H940 C926 0.961 . S
H941 C927 0.958 . S
H942 C927 0.961 . S
H943 C927 0.960 . S
C944 C945 1.391 . S
C944 C946 1.394 . S
C944 H960 0.931 . S
C945 C944 1.391 . S
C945 C949 1.376 . S
C946 C944 1.394 . S
C946 C947 1.369 . S
C946 C950 1.531 . S
C947 C946 1.369 . S
C947 C948 1.410 . S
C947 C955 1.503 . S
C948 C947 1.410 . S
C948 C949 1.392 . S
C948 C951 1.511 . S
C949 C945 1.376 . S
C949 C948 1.392 . S
C949 H961 0.929 . S
C950 C946 1.531 . S
C950 H962 0.960 . S
C950 H963 0.962 . S
C950 H964 0.960 . S
C951 C948 1.511 . S
C951 H965 0.961 . S
C951 H966 0.961 . S
C951 H967 0.961 . S
C952 C953 1.370 . S
C952 C954 1.363 . S
C952 H968 0.931 . S
C953 C952 1.370 . S
C953 C957 1.408 . S
C954 C952 1.363 . S
C954 C955 1.370 . S
C954 C958 1.524 . S
C955 C947 1.503 . S
C955 C954 1.370 . S
C955 C956 1.403 . S
C956 C955 1.403 . S
C956 C957 1.404 . S
C956 C959 1.539 . S
C957 C953 1.408 . S
C957 C956 1.404 . S
C957 H969 0.930 . S
C958 C954 1.524 . S
C958 H970 0.956 . S
C958 H971 0.961 . S
C958 H972 0.961 . S
C959 C956 1.539 . S
C959 H973 0.958 . S
C959 H974 0.961 . S
C959 H975 0.960 . S
H960 C944 0.931 . S
H961 C949 0.929 . S
H962 C950 0.960 . S
H963 C950 0.962 . S
H964 C950 0.960 . S
H965 C951 0.961 . S
H966 C951 0.961 . S
H967 C951 0.961 . S
H968 C952 0.931 . S
H969 C957 0.930 . S
H970 C958 0.956 . S
H971 C958 0.961 . S
H972 C958 0.961 . S
H973 C959 0.958 . S
H974 C959 0.961 . S
H975 C959 0.960 . S
C976 C977 1.391 . S
C976 C978 1.394 . S
C976 H992 0.931 . S
C977 C976 1.391 . S
C977 C981 1.376 . S
C978 C976 1.394 . S
C978 C979 1.369 . S
C978 C982 1.531 . S
C979 C978 1.369 . S
C979 C980 1.410 . S
C979 C987 1.503 . S
C980 C979 1.410 . S
C980 C981 1.392 . S
C980 C983 1.511 . S
C981 C977 1.376 . S
C981 C980 1.392 . S
C981 H993 0.929 . S
C982 C978 1.531 . S
C982 H994 0.960 . S
C982 H995 0.962 . S
C982 H996 0.960 . S
C983 C980 1.511 . S
C983 H997 0.961 . S
C983 H998 0.961 . S
C983 H999 0.961 . S
C984 C985 1.370 . S
C984 C986 1.363 . S
C984 H1000 0.931 . S
C985 C984 1.370 . S
C985 C989 1.408 . S
C986 C984 1.363 . S
C986 C987 1.370 . S
C986 C990 1.524 . S
C987 C979 1.503 . S
C987 C986 1.370 . S
C987 C988 1.403 . S
C988 C987 1.403 . S
C988 C989 1.404 . S
C988 C991 1.539 . S
C989 C985 1.408 . S
C989 C988 1.404 . S
C989 H1001 0.930 . S
C990 C986 1.524 . S
C990 H1002 0.956 . S
C990 H1003 0.961 . S
C990 H1004 0.961 . S
C991 C988 1.539 . S
C991 H1005 0.958 . S
C991 H1006 0.961 . S
C991 H1007 0.960 . S
H992 C976 0.931 . S
H993 C981 0.929 . S
H994 C982 0.960 . S
H995 C982 0.962 . S
H996 C982 0.960 . S
H997 C983 0.961 . S
H998 C983 0.961 . S
H999 C983 0.961 . S
H1000 C984 0.931 . S
H1001 C989 0.930 . S
H1002 C990 0.956 . S
H1003 C990 0.961 . S
H1004 C990 0.961 . S
H1005 C991 0.958 . S
H1006 C991 0.961 . S
H1007 C991 0.960 . S
C1008 C1009 1.372 1_655 S
C1008 C1010 1.394 . S
C1008 H1024 0.931 . S
C1009 C1008 1.372 1_455 S
C1009 C1013 1.392 . S
C1010 C1008 1.394 . S
C1010 C1011 1.369 . S
C1010 C1014 1.531 . S
C1011 C1010 1.369 . S
C1011 C1012 1.410 1_655 S
C1011 C1019 1.503 . S
C1012 C1011 1.410 1_455 S
C1012 C1013 1.392 . S
C1012 C1015 1.511 . S
C1013 C1009 1.392 . S
C1013 C1012 1.392 . S
C1013 H1025 0.929 . S
C1014 C1010 1.531 . S
C1014 H1026 0.960 . S
C1014 H1027 0.962 . S
C1014 H1028 0.960 . S
C1015 C1012 1.511 . S
C1015 H1029 0.961 . S
C1015 H1030 0.961 . S
C1015 H1031 0.961 . S
C1016 C1017 1.370 . S
C1016 C1018 1.363 . S
C1016 H1032 0.931 . S
C1017 C1016 1.370 . S
C1017 C1021 1.442 . S
C1018 C1016 1.363 . S
C1018 C1019 1.370 . S
C1018 C1022 1.524 . S
C1019 C1011 1.503 . S
C1019 C1018 1.370 . S
C1019 C1020 1.403 1_655 S
C1020 C1019 1.403 1_455 S
C1020 C1021 1.396 1_455 S
C1020 C1023 1.539 . S
C1021 C1017 1.442 . S
C1021 C1020 1.396 1_655 S
C1021 H1033 0.906 1_655 S
C1022 C1018 1.524 . S
C1022 H1034 0.956 . S
C1022 H1035 0.961 . S
C1022 H1036 0.961 . S
C1023 C1020 1.539 . S
C1023 H1037 0.958 . S
C1023 H1038 0.961 . S
C1023 H1039 0.960 . S
H1024 C1008 0.931 . S
H1025 C1013 0.929 . S
H1026 C1014 0.960 . S
H1027 C1014 0.962 . S
H1028 C1014 0.960 . S
H1029 C1015 0.961 . S
H1030 C1015 0.961 . S
H1031 C1015 0.961 . S
H1032 C1016 0.931 . S
H1033 C1021 0.906 1_455 S
H1034 C1022 0.956 . S
H1035 C1022 0.961 . S
H1036 C1022 0.961 . S
H1037 C1023 0.958 . S
H1038 C1023 0.961 . S
H1039 C1023 0.960 . S
C1040 C1041 1.391 . S
C1040 C1042 1.394 . S
C1040 H1056 0.931 . S
C1041 C1040 1.391 . S
C1041 C1045 1.376 . S
C1042 C1040 1.394 . S
C1042 C1043 1.369 . S
C1042 C1046 1.531 . S
C1043 C1042 1.369 . S
C1043 C1044 1.410 . S
C1043 C1051 1.503 . S
C1044 C1043 1.410 . S
C1044 C1045 1.392 . S
C1044 C1047 1.511 . S
C1045 C1041 1.376 . S
C1045 C1044 1.392 . S
C1045 H1057 0.929 . S
C1046 C1042 1.531 . S
C1046 H1058 0.960 . S
C1046 H1059 0.962 . S
C1046 H1060 0.960 . S
C1047 C1044 1.511 . S
C1047 H1061 0.961 . S
C1047 H1062 0.961 . S
C1047 H1063 0.961 . S
C1048 C1049 1.370 . S
C1048 C1050 1.363 . S
C1048 H1064 0.931 . S
C1049 C1048 1.370 . S
C1049 C1053 1.408 . S
C1050 C1048 1.363 . S
C1050 C1051 1.370 . S
C1050 C1054 1.524 . S
C1051 C1043 1.503 . S
C1051 C1050 1.370 . S
C1051 C1052 1.403 . S
C1052 C1051 1.403 . S
C1052 C1053 1.404 . S
C1052 C1055 1.539 . S
C1053 C1049 1.408 . S
C1053 C1052 1.404 . S
C1053 H1065 0.930 . S
C1054 C1050 1.524 . S
C1054 H1066 0.956 . S
C1054 H1067 0.961 . S
C1054 H1068 0.961 . S
C1055 C1052 1.539 . S
C1055 H1069 0.958 . S
C1055 H1070 0.961 . S
C1055 H1071 0.960 . S
H1056 C1040 0.931 . S
H1057 C1045 0.929 . S
H1058 C1046 0.960 . S
H1059 C1046 0.962 . S
H1060 C1046 0.960 . S
H1061 C1047 0.961 . S
H1062 C1047 0.961 . S
H1063 C1047 0.961 . S
H1064 C1048 0.931 . S
H1065 C1053 0.930 . S
H1066 C1054 0.956 . S
H1067 C1054 0.961 . S
H1068 C1054 0.961 . S
H1069 C1055 0.958 . S
H1070 C1055 0.961 . S
H1071 C1055 0.960 . S
C1072 C1073 1.391 . S
C1072 C1074 1.394 . S
C1072 H1088 0.931 . S
C1073 C1072 1.391 . S
C1073 C1077 1.376 . S
C1074 C1072 1.394 . S
C1074 C1075 1.369 . S
C1074 C1078 1.531 . S
C1075 C1074 1.369 . S
C1075 C1076 1.410 . S
C1075 C1083 1.503 . S
C1076 C1075 1.410 . S
C1076 C1077 1.392 . S
C1076 C1079 1.511 . S
C1077 C1073 1.376 . S
C1077 C1076 1.392 . S
C1077 H1089 0.929 . S
C1078 C1074 1.531 . S
C1078 H1090 0.960 . S
C1078 H1091 0.962 . S
C1078 H1092 0.960 . S
C1079 C1076 1.511 . S
C1079 H1093 0.961 . S
C1079 H1094 0.961 . S
C1079 H1095 0.961 . S
C1080 C1081 1.370 . S
C1080 C1082 1.363 . S
C1080 H1096 0.931 . S
C1081 C1080 1.370 . S
C1081 C1085 1.408 . S
C1082 C1080 1.363 . S
C1082 C1083 1.370 . S
C1082 C1086 1.524 . S
C1083 C1075 1.503 . S
C1083 C1082 1.370 . S
C1083 C1084 1.403 . S
C1084 C1083 1.403 . S
C1084 C1085 1.404 . S
C1084 C1087 1.539 . S
C1085 C1081 1.408 . S
C1085 C1084 1.404 . S
C1085 H1097 0.930 . S
C1086 C1082 1.524 . S
C1086 H1098 0.956 . S
C1086 H1099 0.961 . S
C1086 H1100 0.961 . S
C1087 C1084 1.539 . S
C1087 H1101 0.958 . S
C1087 H1102 0.961 . S
C1087 H1103 0.960 . S
H1088 C1072 0.931 . S
H1089 C1077 0.929 . S
H1090 C1078 0.960 . S
H1091 C1078 0.962 . S
H1092 C1078 0.960 . S
H1093 C1079 0.961 . S
H1094 C1079 0.961 . S
H1095 C1079 0.961 . S
H1096 C1080 0.931 . S
H1097 C1085 0.930 . S
H1098 C1086 0.956 . S
H1099 C1086 0.961 . S
H1100 C1086 0.961 . S
H1101 C1087 0.958 . S
H1102 C1087 0.961 . S
H1103 C1087 0.960 . S
C1104 C1105 1.391 . S
C1104 C1106 1.394 . S
C1104 H1120 0.931 . S
C1105 C1104 1.391 . S
C1105 C1109 1.376 . S
C1106 C1104 1.394 . S
C1106 C1107 1.369 . S
C1106 C1110 1.531 . S
C1107 C1106 1.369 . S
C1107 C1108 1.410 . S
C1107 C1115 1.503 . S
C1108 C1107 1.410 . S
C1108 C1109 1.392 . S
C1108 C1111 1.511 . S
C1109 C1105 1.376 . S
C1109 C1108 1.392 . S
C1109 H1121 0.929 . S
C1110 C1106 1.531 . S
C1110 H1122 0.960 . S
C1110 H1123 0.962 . S
C1110 H1124 0.960 . S
C1111 C1108 1.511 . S
C1111 H1125 0.961 . S
C1111 H1126 0.961 . S
C1111 H1127 0.961 . S
C1112 C1113 1.370 . S
C1112 C1114 1.363 . S
C1112 H1128 0.931 . S
C1113 C1112 1.370 . S
C1113 C1117 1.408 . S
C1114 C1112 1.363 . S
C1114 C1115 1.370 . S
C1114 C1118 1.524 . S
C1115 C1107 1.503 . S
C1115 C1114 1.370 . S
C1115 C1116 1.403 . S
C1116 C1115 1.403 . S
C1116 C1117 1.404 . S
C1116 C1119 1.539 . S
C1117 C1113 1.408 . S
C1117 C1116 1.404 . S
C1117 H1129 0.930 . S
C1118 C1114 1.524 . S
C1118 H1130 0.956 . S
C1118 H1131 0.961 . S
C1118 H1132 0.961 . S
C1119 C1116 1.539 . S
C1119 H1133 0.958 . S
C1119 H1134 0.961 . S
C1119 H1135 0.960 . S
H1120 C1104 0.931 . S
H1121 C1109 0.929 . S
H1122 C1110 0.960 . S
H1123 C1110 0.962 . S
H1124 C1110 0.960 . S
H1125 C1111 0.961 . S
H1126 C1111 0.961 . S
H1127 C1111 0.961 . S
H1128 C1112 0.931 . S
H1129 C1117 0.930 . S
H1130 C1118 0.956 . S
H1131 C1118 0.961 . S
H1132 C1118 0.961 . S
H1133 C1119 0.958 . S
H1134 C1119 0.961 . S
H1135 C1119 0.960 . S
C1136 C1137 1.398 . S
C1136 C1138 1.392 1_565 S
C1136 H1152 0.925 1_565 S
C1137 C1136 1.398 . S
C1137 C1141 1.376 . S
C1138 C1136 1.392 1_545 S
C1138 C1139 1.369 1_545 S
C1138 C1142 1.531 . S
C1139 C1138 1.369 1_565 S
C1139 C1140 1.410 . S
C1139 C1147 1.503 . S
C1140 C1139 1.410 . S
C1140 C1141 1.392 . S
C1140 C1143 1.511 . S
C1141 C1137 1.376 . S
C1141 C1140 1.392 . S
C1141 H1153 0.929 . S
C1142 C1138 1.531 . S
C1142 H1154 0.960 . S
C1142 H1155 0.962 . S
C1142 H1156 0.960 . S
C1143 C1140 1.511 . S
C1143 H1157 0.961 . S
C1143 H1158 0.961 . S
C1143 H1159 0.961 . S
C1144 C1145 1.370 . S
C1144 C1146 1.363 . S
C1144 H1160 0.936 . S
C1145 C1144 1.370 . S
C1145 C1149 1.408 . S
C1146 C1144 1.363 . S
C1146 C1147 1.370 . S
C1146 C1150 1.524 . S
C1147 C1139 1.503 . S
C1147 C1146 1.370 . S
C1147 C1148 1.403 . S
C1148 C1147 1.403 . S
C1148 C1149 1.404 . S
C1148 C1151 1.539 . S
C1149 C1145 1.408 . S
C1149 C1148 1.404 . S
C1149 H1161 0.930 . S
C1150 C1146 1.524 . S
C1150 H1162 0.956 1_565 S
C1150 H1163 0.961 . S
C1150 H1164 0.961 . S
C1151 C1148 1.539 . S
C1151 H1165 0.958 1_565 S
C1151 H1166 0.961 . S
C1151 H1167 0.960 . S
H1152 C1136 0.925 1_545 S
H1153 C1141 0.929 . S
H1154 C1142 0.960 . S
H1155 C1142 0.962 . S
H1156 C1142 0.960 . S
H1157 C1143 0.961 . S
H1158 C1143 0.961 . S
H1159 C1143 0.961 . S
H1160 C1144 0.936 . S
H1161 C1149 0.930 . S
H1162 C1150 0.956 1_545 S
H1163 C1150 0.961 . S
H1164 C1150 0.961 . S
H1165 C1151 0.958 1_545 S
H1166 C1151 0.961 . S
H1167 C1151 0.960 . S
C1168 C1169 1.391 . S
C1168 C1170 1.394 . S
C1168 H1184 0.931 . S
C1169 C1168 1.391 . S
C1169 C1173 1.376 . S
C1170 C1168 1.394 . S
C1170 C1171 1.369 . S
C1170 C1174 1.531 . S
C1171 C1170 1.369 . S
C1171 C1172 1.410 . S
C1171 C1179 1.503 . S
C1172 C1171 1.410 . S
C1172 C1173 1.392 . S
C1172 C1175 1.511 . S
C1173 C1169 1.376 . S
C1173 C1172 1.392 . S
C1173 H1185 0.929 . S
C1174 C1170 1.531 . S
C1174 H1186 0.960 . S
C1174 H1187 0.962 . S
C1174 H1188 0.960 . S
C1175 C1172 1.511 . S
C1175 H1189 0.961 . S
C1175 H1190 0.961 . S
C1175 H1191 0.961 . S
C1176 C1177 1.370 . S
C1176 C1178 1.363 . S
C1176 H1192 0.931 . S
C1177 C1176 1.370 . S
C1177 C1181 1.408 . S
C1178 C1176 1.363 . S
C1178 C1179 1.370 . S
C1178 C1182 1.524 . S
C1179 C1171 1.503 . S
C1179 C1178 1.370 . S
C1179 C1180 1.403 . S
C1180 C1179 1.403 . S
C1180 C1181 1.404 . S
C1180 C1183 1.539 . S
C1181 C1177 1.408 . S
C1181 C1180 1.404 . S
C1181 H1193 0.930 . S
C1182 C1178 1.524 . S
C1182 H1194 0.956 . S
C1182 H1195 0.961 . S
C1182 H1196 0.961 . S
C1183 C1180 1.539 . S
C1183 H1197 0.958 . S
C1183 H1198 0.961 . S
C1183 H1199 0.960 . S
H1184 C1168 0.931 . S
H1185 C1173 0.929 . S
H1186 C1174 0.960 . S
H1187 C1174 0.962 . S
H1188 C1174 0.960 . S
H1189 C1175 0.961 . S
H1190 C1175 0.961 . S
H1191 C1175 0.961 . S
H1192 C1176 0.931 . S
H1193 C1181 0.930 . S
H1194 C1182 0.956 . S
H1195 C1182 0.961 . S
H1196 C1182 0.961 . S
H1197 C1183 0.958 . S
H1198 C1183 0.961 . S
H1199 C1183 0.960 . S
C1200 C1201 1.391 . S
C1200 C1202 1.394 . S
C1200 H1216 0.931 . S
C1201 C1200 1.391 . S
C1201 C1205 1.376 . S
C1202 C1200 1.394 . S
C1202 C1203 1.369 . S
C1202 C1206 1.531 . S
C1203 C1202 1.369 . S
C1203 C1204 1.410 . S
C1203 C1211 1.503 . S
C1204 C1203 1.410 . S
C1204 C1205 1.392 . S
C1204 C1207 1.511 . S
C1205 C1201 1.376 . S
C1205 C1204 1.392 . S
C1205 H1217 0.929 . S
C1206 C1202 1.531 . S
C1206 H1218 0.960 . S
C1206 H1219 0.962 . S
C1206 H1220 0.960 . S
C1207 C1204 1.511 . S
C1207 H1221 0.961 . S
C1207 H1222 0.961 . S
C1207 H1223 0.961 . S
C1208 C1209 1.370 . S
C1208 C1210 1.363 . S
C1208 H1224 0.931 . S
C1209 C1208 1.370 . S
C1209 C1213 1.408 . S
C1210 C1208 1.363 . S
C1210 C1211 1.370 . S
C1210 C1214 1.524 . S
C1211 C1203 1.503 . S
C1211 C1210 1.370 . S
C1211 C1212 1.403 . S
C1212 C1211 1.403 . S
C1212 C1213 1.404 . S
C1212 C1215 1.539 . S
C1213 C1209 1.408 . S
C1213 C1212 1.404 . S
C1213 H1225 0.930 . S
C1214 C1210 1.524 . S
C1214 H1226 0.956 . S
C1214 H1227 0.961 . S
C1214 H1228 0.961 . S
C1215 C1212 1.539 . S
C1215 H1229 0.958 . S
C1215 H1230 0.961 . S
C1215 H1231 0.960 . S
H1216 C1200 0.931 . S
H1217 C1205 0.929 . S
H1218 C1206 0.960 . S
H1219 C1206 0.962 . S
H1220 C1206 0.960 . S
H1221 C1207 0.961 . S
H1222 C1207 0.961 . S
H1223 C1207 0.961 . S
H1224 C1208 0.931 . S
H1225 C1213 0.930 . S
H1226 C1214 0.956 . S
H1227 C1214 0.961 . S
H1228 C1214 0.961 . S
H1229 C1215 0.958 . S
H1230 C1215 0.961 . S
H1231 C1215 0.960 . S
C1232 C1233 1.391 . S
C1232 C1234 1.394 . S
C1232 H1248 0.931 . S
C1233 C1232 1.391 . S
C1233 C1237 1.376 . S
C1234 C1232 1.394 . S
C1234 C1235 1.369 . S
C1234 C1238 1.531 . S
C1235 C1234 1.369 . S
C1235 C1236 1.410 . S
C1235 C1243 1.503 . S
C1236 C1235 1.410 . S
C1236 C1237 1.392 . S
C1236 C1239 1.511 . S
C1237 C1233 1.376 . S
C1237 C1236 1.392 . S
C1237 H1249 0.929 . S
C1238 C1234 1.531 . S
C1238 H1250 0.960 . S
C1238 H1251 0.962 . S
C1238 H1252 0.960 . S
C1239 C1236 1.511 . S
C1239 H1253 0.961 . S
C1239 H1254 0.961 . S
C1239 H1255 0.961 . S
C1240 C1241 1.370 . S
C1240 C1242 1.363 . S
C1240 H1256 0.931 . S
C1241 C1240 1.370 . S
C1241 C1245 1.408 . S
C1242 C1240 1.363 . S
C1242 C1243 1.370 . S
C1242 C1246 1.524 . S
C1243 C1235 1.503 . S
C1243 C1242 1.370 . S
C1243 C1244 1.403 . S
C1244 C1243 1.403 . S
C1244 C1245 1.404 . S
C1244 C1247 1.539 . S
C1245 C1241 1.408 . S
C1245 C1244 1.404 . S
C1245 H1257 0.930 . S
C1246 C1242 1.524 . S
C1246 H1258 0.956 . S
C1246 H1259 0.961 . S
C1246 H1260 0.961 . S
C1247 C1244 1.539 . S
C1247 H1261 0.958 . S
C1247 H1262 0.961 . S
C1247 H1263 0.960 . S
H1248 C1232 0.931 . S
H1249 C1237 0.929 . S
H1250 C1238 0.960 . S
H1251 C1238 0.962 . S
H1252 C1238 0.960 . S
H1253 C1239 0.961 . S
H1254 C1239 0.961 . S
H1255 C1239 0.961 . S
H1256 C1240 0.931 . S
H1257 C1245 0.930 . S
H1258 C1246 0.956 . S
H1259 C1246 0.961 . S
H1260 C1246 0.961 . S
H1261 C1247 0.958 . S
H1262 C1247 0.961 . S
H1263 C1247 0.960 . S
C1264 C1265 1.391 . S
C1264 C1266 1.394 . S
C1264 H1280 0.931 . S
C1265 C1264 1.391 . S
C1265 C1269 1.376 . S
C1266 C1264 1.394 . S
C1266 C1267 1.369 . S
C1266 C1270 1.531 . S
C1267 C1266 1.369 . S
C1267 C1268 1.410 . S
C1267 C1275 1.503 . S
C1268 C1267 1.410 . S
C1268 C1269 1.392 . S
C1268 C1271 1.511 . S
C1269 C1265 1.376 . S
C1269 C1268 1.392 . S
C1269 H1281 0.929 . S
C1270 C1266 1.531 . S
C1270 H1282 0.960 . S
C1270 H1283 0.962 . S
C1270 H1284 0.960 . S
C1271 C1268 1.511 . S
C1271 H1285 0.961 . S
C1271 H1286 0.961 . S
C1271 H1287 0.961 . S
C1272 C1273 1.370 . S
C1272 C1274 1.363 . S
C1272 H1288 0.931 1_565 S
C1273 C1272 1.370 . S
C1273 C1277 1.408 . S
C1274 C1272 1.363 . S
C1274 C1275 1.370 . S
C1274 C1278 1.524 . S
C1275 C1267 1.503 . S
C1275 C1274 1.370 . S
C1275 C1276 1.403 . S
C1276 C1275 1.403 . S
C1276 C1277 1.404 . S
C1276 C1279 1.539 . S
C1277 C1273 1.408 . S
C1277 C1276 1.404 . S
C1277 H1289 0.930 . S
C1278 C1274 1.524 . S
C1278 H1290 0.956 . S
C1278 H1291 0.961 . S
C1278 H1292 0.961 . S
C1279 C1276 1.539 . S
C1279 H1293 0.958 . S
C1279 H1294 0.961 . S
C1279 H1295 0.960 . S
H1280 C1264 0.931 . S
H1281 C1269 0.929 . S
H1282 C1270 0.960 . S
H1283 C1270 0.962 . S
H1284 C1270 0.960 . S
H1285 C1271 0.961 . S
H1286 C1271 0.961 . S
H1287 C1271 0.961 . S
H1288 C1272 0.931 1_545 S
H1289 C1277 0.930 . S
H1290 C1278 0.956 . S
H1291 C1278 0.961 . S
H1292 C1278 0.961 . S
H1293 C1279 0.958 . S
H1294 C1279 0.961 . S
H1295 C1279 0.960 . S
C1296 C1297 1.391 . S
C1296 C1298 1.394 . S
C1296 H1312 0.931 . S
C1297 C1296 1.391 . S
C1297 C1301 1.376 . S
C1298 C1296 1.394 . S
C1298 C1299 1.369 . S
C1298 C1302 1.531 . S
C1299 C1298 1.369 . S
C1299 C1300 1.410 . S
C1299 C1307 1.503 . S
C1300 C1299 1.410 . S
C1300 C1301 1.392 . S
C1300 C1303 1.511 . S
C1301 C1297 1.376 . S
C1301 C1300 1.392 . S
C1301 H1313 0.929 . S
C1302 C1298 1.531 . S
C1302 H1314 0.960 . S
C1302 H1315 0.962 . S
C1302 H1316 0.960 . S
C1303 C1300 1.511 . S
C1303 H1317 0.961 . S
C1303 H1318 0.961 . S
C1303 H1319 0.961 . S
C1304 C1305 1.370 . S
C1304 C1306 1.363 . S
C1304 H1320 0.931 . S
C1305 C1304 1.370 . S
C1305 C1309 1.408 . S
C1306 C1304 1.363 . S
C1306 C1307 1.370 . S
C1306 C1310 1.524 . S
C1307 C1299 1.503 . S
C1307 C1306 1.370 . S
C1307 C1308 1.403 . S
C1308 C1307 1.403 . S
C1308 C1309 1.404 . S
C1308 C1311 1.539 . S
C1309 C1305 1.408 . S
C1309 C1308 1.404 . S
C1309 H1321 0.930 . S
C1310 C1306 1.524 . S
C1310 H1322 0.956 . S
C1310 H1323 0.961 . S
C1310 H1324 0.961 . S
C1311 C1308 1.539 . S
C1311 H1325 0.958 . S
C1311 H1326 0.961 . S
C1311 H1327 0.960 . S
H1312 C1296 0.931 . S
H1313 C1301 0.929 . S
H1314 C1302 0.960 . S
H1315 C1302 0.962 . S
H1316 C1302 0.960 . S
H1317 C1303 0.961 . S
H1318 C1303 0.961 . S
H1319 C1303 0.961 . S
H1320 C1304 0.931 . S
H1321 C1309 0.930 . S
H1322 C1310 0.956 . S
H1323 C1310 0.961 . S
H1324 C1310 0.961 . S
H1325 C1311 0.958 . S
H1326 C1311 0.961 . S
H1327 C1311 0.960 . S
C1328 C1329 1.391 . S
C1328 C1330 1.394 . S
C1328 H1344 0.931 . S
C1329 C1328 1.391 . S
C1329 C1333 1.376 . S
C1330 C1328 1.394 . S
C1330 C1331 1.369 . S
C1330 C1334 1.531 . S
C1331 C1330 1.369 . S
C1331 C1332 1.410 . S
C1331 C1339 1.503 . S
C1332 C1331 1.410 . S
C1332 C1333 1.392 . S
C1332 C1335 1.511 . S
C1333 C1329 1.376 . S
C1333 C1332 1.392 . S
C1333 H1345 0.929 . S
C1334 C1330 1.531 . S
C1334 H1346 0.960 . S
C1334 H1347 0.962 . S
C1334 H1348 0.960 . S
C1335 C1332 1.511 . S
C1335 H1349 0.961 . S
C1335 H1350 0.961 . S
C1335 H1351 0.961 . S
C1336 C1337 1.370 . S
C1336 C1338 1.363 . S
C1336 H1352 0.931 . S
C1337 C1336 1.370 . S
C1337 C1341 1.408 . S
C1338 C1336 1.363 . S
C1338 C1339 1.370 . S
C1338 C1342 1.524 . S
C1339 C1331 1.503 . S
C1339 C1338 1.370 . S
C1339 C1340 1.403 . S
C1340 C1339 1.403 . S
C1340 C1341 1.404 . S
C1340 C1343 1.539 . S
C1341 C1337 1.408 . S
C1341 C1340 1.404 . S
C1341 H1353 0.930 . S
C1342 C1338 1.524 . S
C1342 H1354 0.956 . S
C1342 H1355 0.961 . S
C1342 H1356 0.961 . S
C1343 C1340 1.539 . S
C1343 H1357 0.958 . S
C1343 H1358 0.961 . S
C1343 H1359 0.960 . S
H1344 C1328 0.931 . S
H1345 C1333 0.929 . S
H1346 C1334 0.960 . S
H1347 C1334 0.962 . S
H1348 C1334 0.960 . S
H1349 C1335 0.961 . S
H1350 C1335 0.961 . S
H1351 C1335 0.961 . S
H1352 C1336 0.931 . S
H1353 C1341 0.930 . S
H1354 C1342 0.956 . S
H1355 C1342 0.961 . S
H1356 C1342 0.961 . S
H1357 C1343 0.958 . S
H1358 C1343 0.961 . S
H1359 C1343 0.960 . S
C1360 C1361 1.391 . S
C1360 C1362 1.394 . S
C1360 H1376 0.931 . S
C1361 C1360 1.391 . S
C1361 C1365 1.376 . S
C1362 C1360 1.394 . S
C1362 C1363 1.369 . S
C1362 C1366 1.531 . S
C1363 C1362 1.369 . S
C1363 C1364 1.410 . S
C1363 C1371 1.503 . S
C1364 C1363 1.410 . S
C1364 C1365 1.392 . S
C1364 C1367 1.511 . S
C1365 C1361 1.376 . S
C1365 C1364 1.392 . S
C1365 H1377 0.929 . S
C1366 C1362 1.531 . S
C1366 H1378 0.960 . S
C1366 H1379 0.962 . S
C1366 H1380 0.960 . S
C1367 C1364 1.511 . S
C1367 H1381 0.961 . S
C1367 H1382 0.961 . S
C1367 H1383 0.961 . S
C1368 C1369 1.370 . S
C1368 C1370 1.363 . S
C1368 H1384 0.931 . S
C1369 C1368 1.370 . S
C1369 C1373 1.408 . S
C1370 C1368 1.363 . S
C1370 C1371 1.370 . S
C1370 C1374 1.524 . S
C1371 C1363 1.503 . S
C1371 C1370 1.370 . S
C1371 C1372 1.403 . S
C1372 C1371 1.403 . S
C1372 C1373 1.404 . S
C1372 C1375 1.539 . S
C1373 C1369 1.408 . S
C1373 C1372 1.404 . S
C1373 H1385 0.930 . S
C1374 C1370 1.524 . S
C1374 H1386 0.956 . S
C1374 H1387 0.961 . S
C1374 H1388 0.961 . S
C1375 C1372 1.539 . S
C1375 H1389 0.958 . S
C1375 H1390 0.961 . S
C1375 H1391 0.960 . S
H1376 C1360 0.931 . S
H1377 C1365 0.929 . S
H1378 C1366 0.960 . S
H1379 C1366 0.962 . S
H1380 C1366 0.960 . S
H1381 C1367 0.961 . S
H1382 C1367 0.961 . S
H1383 C1367 0.961 . S
H1384 C1368 0.931 . S
H1385 C1373 0.930 . S
H1386 C1374 0.956 . S
H1387 C1374 0.961 . S
H1388 C1374 0.961 . S
H1389 C1375 0.958 . S
H1390 C1375 0.961 . S
H1391 C1375 0.960 . S
C1392 C1393 1.391 . S
C1392 C1394 1.394 1_554 S
C1392 H1408 0.931 . S
C1393 C1392 1.391 . S
C1393 C1397 1.376 1_654 S
C1394 C1392 1.394 1_556 S
C1394 C1395 1.369 . S
C1394 C1398 1.531 . S
C1395 C1394 1.369 . S
C1395 C1396 1.410 . S
C1395 C1403 1.503 . S
C1396 C1395 1.410 . S
C1396 C1397 1.392 1_655 S
C1396 C1399 1.511 1_655 S
C1397 C1393 1.376 1_456 S
C1397 C1396 1.392 1_455 S
C1397 H1409 0.929 . S
C1398 C1394 1.531 . S
C1398 H1410 0.960 . S
C1398 H1411 0.962 . S
C1398 H1412 0.960 . S
C1399 C1396 1.511 1_455 S
C1399 H1413 0.961 . S
C1399 H1414 0.961 . S
C1399 H1415 0.961 . S
C1400 C1401 1.370 . S
C1400 C1402 1.363 . S
C1400 H1416 0.931 . S
C1401 C1400 1.370 . S
C1401 C1405 1.408 . S
C1402 C1400 1.363 . S
C1402 C1403 1.370 . S
C1402 C1406 1.524 . S
C1403 C1395 1.503 . S
C1403 C1402 1.370 . S
C1403 C1404 1.403 . S
C1404 C1403 1.403 . S
C1404 C1405 1.404 . S
C1404 C1407 1.539 . S
C1405 C1401 1.408 . S
C1405 C1404 1.404 . S
C1405 H1417 0.930 . S
C1406 C1402 1.524 . S
C1406 H1418 0.956 1_556 S
C1406 H1419 0.961 . S
C1406 H1420 0.961 . S
C1407 C1404 1.539 . S
C1407 H1421 0.958 . S
C1407 H1422 0.961 . S
C1407 H1423 0.960 . S
H1408 C1392 0.931 . S
H1409 C1397 0.929 . S
H1410 C1398 0.960 . S
H1411 C1398 0.962 . S
H1412 C1398 0.960 . S
H1413 C1399 0.961 . S
H1414 C1399 0.961 . S
H1415 C1399 0.961 . S
H1416 C1400 0.931 . S
H1417 C1405 0.930 . S
H1418 C1406 0.956 1_554 S
H1419 C1406 0.961 . S
H1420 C1406 0.961 . S
H1421 C1407 0.958 . S
H1422 C1407 0.961 . S
H1423 C1407 0.960 . S
C1424 C1425 1.391 . S
C1424 C1426 1.394 . S
C1424 H1440 0.931 . S
C1425 C1424 1.391 . S
C1425 C1429 1.376 . S
C1426 C1424 1.394 . S
C1426 C1427 1.369 . S
C1426 C1430 1.531 . S
C1427 C1426 1.369 . S
C1427 C1428 1.410 . S
C1427 C1435 1.503 . S
C1428 C1427 1.410 . S
C1428 C1429 1.392 . S
C1428 C1431 1.511 . S
C1429 C1425 1.376 . S
C1429 C1428 1.392 . S
C1429 H1441 0.929 . S
C1430 C1426 1.531 . S
C1430 H1442 0.960 . S
C1430 H1443 0.962 . S
C1430 H1444 0.960 . S
C1431 C1428 1.511 . S
C1431 H1445 0.961 . S
C1431 H1446 0.961 . S
C1431 H1447 0.961 . S
C1432 C1433 1.370 . S
C1432 C1434 1.363 . S
C1432 H1448 0.931 . S
C1433 C1432 1.370 . S
C1433 C1437 1.408 . S
C1434 C1432 1.363 . S
C1434 C1435 1.370 . S
C1434 C1438 1.524 . S
C1435 C1427 1.503 . S
C1435 C1434 1.370 . S
C1435 C1436 1.403 . S
C1436 C1435 1.403 . S
C1436 C1437 1.404 . S
C1436 C1439 1.539 . S
C1437 C1433 1.408 . S
C1437 C1436 1.404 . S
C1437 H1449 0.930 . S
C1438 C1434 1.524 . S
C1438 H1450 0.956 . S
C1438 H1451 0.961 . S
C1438 H1452 0.961 . S
C1439 C1436 1.539 . S
C1439 H1453 0.958 . S
C1439 H1454 0.961 . S
C1439 H1455 0.960 . S
H1440 C1424 0.931 . S
H1441 C1429 0.929 . S
H1442 C1430 0.960 . S
H1443 C1430 0.962 . S
H1444 C1430 0.960 . S
H1445 C1431 0.961 . S
H1446 C1431 0.961 . S
H1447 C1431 0.961 . S
H1448 C1432 0.931 . S
H1449 C1437 0.930 . S
H1450 C1438 0.956 . S
H1451 C1438 0.961 . S
H1452 C1438 0.961 . S
H1453 C1439 0.958 . S
H1454 C1439 0.961 . S
H1455 C1439 0.960 . S
C1456 C1457 1.391 . S
C1456 C1458 1.394 . S
C1456 H1472 0.931 . S
C1457 C1456 1.391 . S
C1457 C1461 1.376 . S
C1458 C1456 1.394 . S
C1458 C1459 1.369 . S
C1458 C1462 1.531 . S
C1459 C1458 1.369 . S
C1459 C1460 1.410 . S
C1459 C1467 1.503 . S
C1460 C1459 1.410 . S
C1460 C1461 1.392 . S
C1460 C1463 1.511 . S
C1461 C1457 1.376 . S
C1461 C1460 1.392 . S
C1461 H1473 0.929 . S
C1462 C1458 1.531 . S
C1462 H1474 0.960 . S
C1462 H1475 0.962 . S
C1462 H1476 0.960 . S
C1463 C1460 1.511 . S
C1463 H1477 0.961 . S
C1463 H1478 0.961 . S
C1463 H1479 0.961 . S
C1464 C1465 1.370 . S
C1464 C1466 1.363 . S
C1464 H1480 0.931 . S
C1465 C1464 1.370 . S
C1465 C1469 1.408 . S
C1466 C1464 1.363 . S
C1466 C1467 1.370 . S
C1466 C1470 1.524 . S
C1467 C1459 1.503 . S
C1467 C1466 1.370 . S
C1467 C1468 1.403 . S
C1468 C1467 1.403 . S
C1468 C1469 1.404 . S
C1468 C1471 1.539 . S
C1469 C1465 1.408 . S
C1469 C1468 1.404 . S
C1469 H1481 0.930 . S
C1470 C1466 1.524 . S
C1470 H1482 0.956 . S
C1470 H1483 0.961 . S
C1470 H1484 0.961 . S
C1471 C1468 1.539 . S
C1471 H1485 0.958 . S
C1471 H1486 0.961 . S
C1471 H1487 0.960 . S
H1472 C1456 0.931 . S
H1473 C1461 0.929 . S
H1474 C1462 0.960 . S
H1475 C1462 0.962 . S
H1476 C1462 0.960 . S
H1477 C1463 0.961 . S
H1478 C1463 0.961 . S
H1479 C1463 0.961 . S
H1480 C1464 0.931 . S
H1481 C1469 0.930 . S
H1482 C1470 0.956 . S
H1483 C1470 0.961 . S
H1484 C1470 0.961 . S
H1485 C1471 0.958 . S
H1486 C1471 0.961 . S
H1487 C1471 0.960 . S
C1488 C1489 1.391 . S
C1488 C1490 1.394 . S
C1488 H1504 0.931 . S
C1489 C1488 1.391 . S
C1489 C1493 1.376 . S
C1490 C1488 1.394 . S
C1490 C1491 1.369 . S
C1490 C1494 1.531 . S
C1491 C1490 1.369 . S
C1491 C1492 1.410 . S
C1491 C1499 1.503 . S
C1492 C1491 1.410 . S
C1492 C1493 1.392 . S
C1492 C1495 1.511 . S
C1493 C1489 1.376 . S
C1493 C1492 1.392 . S
C1493 H1505 0.929 . S
C1494 C1490 1.531 . S
C1494 H1506 0.960 . S
C1494 H1507 0.962 . S
C1494 H1508 0.960 . S
C1495 C1492 1.511 . S
C1495 H1509 0.961 . S
C1495 H1510 0.961 . S
C1495 H1511 0.961 . S
C1496 C1497 1.370 . S
C1496 C1498 1.363 . S
C1496 H1512 0.931 . S
C1497 C1496 1.370 . S
C1497 C1501 1.408 . S
C1498 C1496 1.363 . S
C1498 C1499 1.370 . S
C1498 C1502 1.524 . S
C1499 C1491 1.503 . S
C1499 C1498 1.370 . S
C1499 C1500 1.403 . S
C1500 C1499 1.403 . S
C1500 C1501 1.404 . S
C1500 C1503 1.539 . S
C1501 C1497 1.408 . S
C1501 C1500 1.404 . S
C1501 H1513 0.930 . S
C1502 C1498 1.524 . S
C1502 H1514 0.956 . S
C1502 H1515 0.961 . S
C1502 H1516 0.961 . S
C1503 C1500 1.539 . S
C1503 H1517 0.958 . S
C1503 H1518 0.961 . S
C1503 H1519 0.960 . S
H1504 C1488 0.931 . S
H1505 C1493 0.929 . S
H1506 C1494 0.960 . S
H1507 C1494 0.962 . S
H1508 C1494 0.960 . S
H1509 C1495 0.961 . S
H1510 C1495 0.961 . S
H1511 C1495 0.961 . S
H1512 C1496 0.931 . S
H1513 C1501 0.930 . S
H1514 C1502 0.956 . S
H1515 C1502 0.961 . S
H1516 C1502 0.961 . S
H1517 C1503 0.958 . S
H1518 C1503 0.961 . S
H1519 C1503 0.960 . S
C1520 C1521 1.391 . S
C1520 C1522 1.394 . S
C1520 H1536 0.931 . S
C1521 C1520 1.391 . S
C1521 C1525 1.376 . S
C1522 C1520 1.394 . S
C1522 C1523 1.369 . S
C1522 C1526 1.531 . S
C1523 C1522 1.369 . S
C1523 C1524 1.410 . S
C1523 C1531 1.503 . S
C1524 C1523 1.410 . S
C1524 C1525 1.392 . S
C1524 C1527 1.511 . S
C1525 C1521 1.376 . S
C1525 C1524 1.392 . S
C1525 H1537 0.929 . S
C1526 C1522 1.531 . S
C1526 H1538 0.960 . S
C1526 H1539 0.962 1_565 S
C1526 H1540 0.960 . S
C1527 C1524 1.511 . S
C1527 H1541 0.961 . S
C1527 H1542 0.937 1_655 S
C1527 H1543 0.961 . S
C1528 C1529 1.369 . S
C1528 C1530 1.362 1_455 S
C1528 H1544 0.934 1_565 S
C1529 C1528 1.369 . S
C1529 C1533 1.408 1_455 S
C1530 C1528 1.362 1_655 S
C1530 C1531 1.370 . S
C1530 C1534 1.525 . S
C1531 C1523 1.503 . S
C1531 C1530 1.370 . S
C1531 C1532 1.403 . S
C1532 C1531 1.403 . S
C1532 C1533 1.404 . S
C1532 C1535 1.539 . S
C1533 C1529 1.408 1_655 S
C1533 C1532 1.404 . S
C1533 H1545 0.930 . S
C1534 C1530 1.525 . S
C1534 H1546 0.954 1_565 S
C1534 H1547 0.963 . S
C1534 H1548 0.947 1_665 S
C1535 C1532 1.539 . S
C1535 H1549 0.958 . S
C1535 H1550 0.961 . S
C1535 H1551 0.960 . S
H1536 C1520 0.931 . S
H1537 C1525 0.929 . S
H1538 C1526 0.960 . S
H1539 C1526 0.962 1_545 S
H1540 C1526 0.960 . S
H1541 C1527 0.961 . S
H1542 C1527 0.937 1_455 S
H1543 C1527 0.961 . S
H1544 C1528 0.934 1_545 S
H1545 C1533 0.930 . S
H1546 C1534 0.954 1_545 S
H1547 C1534 0.963 . S
H1548 C1534 0.947 1_445 S
H1549 C1535 0.958 . S
H1550 C1535 0.961 . S
H1551 C1535 0.960 . S
C1552 C1553 1.391 . S
C1552 C1554 1.394 . S
C1552 H1568 0.931 . S
C1553 C1552 1.391 . S
C1553 C1557 1.376 . S
C1554 C1552 1.394 . S
C1554 C1555 1.369 . S
C1554 C1558 1.531 . S
C1555 C1554 1.369 . S
C1555 C1556 1.410 . S
C1555 C1563 1.503 . S
C1556 C1555 1.410 . S
C1556 C1557 1.392 . S
C1556 C1559 1.511 . S
C1557 C1553 1.376 . S
C1557 C1556 1.392 . S
C1557 H1569 0.929 . S
C1558 C1554 1.531 . S
C1558 H1570 0.960 . S
C1558 H1571 0.962 . S
C1558 H1572 0.960 . S
C1559 C1556 1.511 . S
C1559 H1573 0.961 . S
C1559 H1574 0.961 . S
C1559 H1575 0.961 . S
C1560 C1561 1.370 . S
C1560 C1562 1.363 . S
C1560 H1576 0.931 . S
C1561 C1560 1.370 . S
C1561 C1565 1.408 . S
C1562 C1560 1.363 . S
C1562 C1563 1.370 . S
C1562 C1566 1.524 . S
C1563 C1555 1.503 . S
C1563 C1562 1.370 . S
C1563 C1564 1.403 . S
C1564 C1563 1.403 . S
C1564 C1565 1.404 . S
C1564 C1567 1.539 . S
C1565 C1561 1.408 . S
C1565 C1564 1.404 . S
C1565 H1577 0.930 . S
C1566 C1562 1.524 . S
C1566 H1578 0.956 . S
C1566 H1579 0.961 . S
C1566 H1580 0.961 . S
C1567 C1564 1.539 . S
C1567 H1581 0.958 . S
C1567 H1582 0.961 . S
C1567 H1583 0.960 . S
H1568 C1552 0.931 . S
H1569 C1557 0.929 . S
H1570 C1558 0.960 . S
H1571 C1558 0.962 . S
H1572 C1558 0.960 . S
H1573 C1559 0.961 . S
H1574 C1559 0.961 . S
H1575 C1559 0.961 . S
H1576 C1560 0.931 . S
H1577 C1565 0.930 . S
H1578 C1566 0.956 . S
H1579 C1566 0.961 . S
H1580 C1566 0.961 . S
H1581 C1567 0.958 . S
H1582 C1567 0.961 . S
H1583 C1567 0.960 . S
C1584 C1585 1.391 . S
C1584 C1586 1.394 . S
C1584 H1600 0.931 . S
C1585 C1584 1.391 . S
C1585 C1589 1.376 . S
C1586 C1584 1.394 . S
C1586 C1587 1.369 . S
C1586 C1590 1.531 . S
C1587 C1586 1.369 . S
C1587 C1588 1.410 . S
C1587 C1595 1.503 . S
C1588 C1587 1.410 . S
C1588 C1589 1.392 . S
C1588 C1591 1.511 . S
C1589 C1585 1.376 . S
C1589 C1588 1.392 . S
C1589 H1601 0.929 1_556 S
C1590 C1586 1.531 . S
C1590 H1602 0.960 . S
C1590 H1603 0.962 . S
C1590 H1604 0.960 . S
C1591 C1588 1.511 . S
C1591 H1605 0.961 . S
C1591 H1606 0.961 . S
C1591 H1607 0.961 . S
C1592 C1593 1.370 . S
C1592 C1594 1.363 . S
C1592 H1608 0.931 . S
C1593 C1592 1.370 . S
C1593 C1597 1.408 . S
C1594 C1592 1.363 . S
C1594 C1595 1.370 . S
C1594 C1598 1.524 . S
C1595 C1587 1.503 . S
C1595 C1594 1.370 . S
C1595 C1596 1.403 . S
C1596 C1595 1.403 . S
C1596 C1597 1.404 . S
C1596 C1599 1.539 . S
C1597 C1593 1.408 . S
C1597 C1596 1.404 . S
C1597 H1609 0.930 . S
C1598 C1594 1.524 . S
C1598 H1610 0.956 . S
C1598 H1611 0.961 . S
C1598 H1612 0.961 . S
C1599 C1596 1.539 . S
C1599 H1613 0.958 . S
C1599 H1614 0.961 . S
C1599 H1615 0.960 . S
H1600 C1584 0.931 . S
H1601 C1589 0.929 1_554 S
H1602 C1590 0.960 . S
H1603 C1590 0.962 . S
H1604 C1590 0.960 . S
H1605 C1591 0.961 . S
H1606 C1591 0.961 . S
H1607 C1591 0.961 . S
H1608 C1592 0.931 . S
H1609 C1597 0.930 . S
H1610 C1598 0.956 . S
H1611 C1598 0.961 . S
H1612 C1598 0.961 . S
H1613 C1599 0.958 . S
H1614 C1599 0.961 . S
H1615 C1599 0.960 . S
C1616 C1617 1.391 . S
C1616 C1618 1.394 . S
C1616 H1632 0.931 . S
C1617 C1616 1.391 . S
C1617 C1621 1.376 . S
C1618 C1616 1.394 . S
C1618 C1619 1.369 . S
C1618 C1622 1.531 . S
C1619 C1618 1.369 . S
C1619 C1620 1.410 . S
C1619 C1627 1.503 . S
C1620 C1619 1.410 . S
C1620 C1621 1.392 . S
C1620 C1623 1.511 . S
C1621 C1617 1.376 . S
C1621 C1620 1.392 . S
C1621 H1633 0.929 . S
C1622 C1618 1.531 . S
C1622 H1634 0.960 . S
C1622 H1635 0.962 . S
C1622 H1636 0.960 . S
C1623 C1620 1.511 . S
C1623 H1637 0.961 . S
C1623 H1638 0.961 . S
C1623 H1639 0.961 . S
C1624 C1625 1.370 . S
C1624 C1626 1.363 . S
C1624 H1640 0.931 . S
C1625 C1624 1.370 . S
C1625 C1629 1.408 . S
C1626 C1624 1.363 . S
C1626 C1627 1.370 . S
C1626 C1630 1.524 . S
C1627 C1619 1.503 . S
C1627 C1626 1.370 . S
C1627 C1628 1.403 . S
C1628 C1627 1.403 . S
C1628 C1629 1.404 . S
C1628 C1631 1.539 . S
C1629 C1625 1.408 . S
C1629 C1628 1.404 . S
C1629 H1641 0.930 . S
C1630 C1626 1.524 . S
C1630 H1642 0.956 . S
C1630 H1643 0.961 . S
C1630 H1644 0.961 . S
C1631 C1628 1.539 . S
C1631 H1645 0.958 . S
C1631 H1646 0.961 . S
C1631 H1647 0.960 . S
H1632 C1616 0.931 . S
H1633 C1621 0.929 . S
H1634 C1622 0.960 . S
H1635 C1622 0.962 . S
H1636 C1622 0.960 . S
H1637 C1623 0.961 . S
H1638 C1623 0.961 . S
H1639 C1623 0.961 . S
H1640 C1624 0.931 . S
H1641 C1629 0.930 . S
H1642 C1630 0.956 . S
H1643 C1630 0.961 . S
H1644 C1630 0.961 . S
H1645 C1631 0.958 . S
H1646 C1631 0.961 . S
H1647 C1631 0.960 . S
C1648 C1649 1.391 . S
C1648 C1650 1.394 . S
C1648 H1664 0.931 . S
C1649 C1648 1.391 . S
C1649 C1653 1.376 . S
C1650 C1648 1.394 . S
C1650 C1651 1.369 . S
C1650 C1654 1.531 . S
C1651 C1650 1.369 . S
C1651 C1652 1.410 . S
C1651 C1659 1.503 . S
C1652 C1651 1.410 . S
C1652 C1653 1.392 . S
C1652 C1655 1.511 . S
C1653 C1649 1.376 . S
C1653 C1652 1.392 . S
C1653 H1665 0.929 . S
C1654 C1650 1.531 . S
C1654 H1666 0.960 . S
C1654 H1667 0.962 . S
C1654 H1668 0.960 . S
C1655 C1652 1.511 . S
C1655 H1669 0.961 . S
C1655 H1670 0.961 . S
C1655 H1671 0.961 . S
C1656 C1657 1.370 . S
C1656 C1658 1.363 . S
C1656 H1672 0.931 . S
C1657 C1656 1.370 . S
C1657 C1661 1.408 . S
C1658 C1656 1.363 . S
C1658 C1659 1.370 . S
C1658 C1662 1.524 . S
C1659 C1651 1.503 . S
C1659 C1658 1.370 . S
C1659 C1660 1.403 . S
C1660 C1659 1.403 . S
C1660 C1661 1.404 . S
C1660 C1663 1.539 . S
C1661 C1657 1.408 . S
C1661 C1660 1.404 . S
C1661 H1673 0.930 . S
C1662 C1658 1.524 . S
C1662 H1674 0.956 . S
C1662 H1675 0.961 . S
C1662 H1676 0.961 . S
C1663 C1660 1.539 . S
C1663 H1677 0.958 . S
C1663 H1678 0.961 . S
C1663 H1679 0.960 . S
H1664 C1648 0.931 . S
H1665 C1653 0.929 . S
H1666 C1654 0.960 . S
H1667 C1654 0.962 . S
H1668 C1654 0.960 . S
H1669 C1655 0.961 . S
H1670 C1655 0.961 . S
H1671 C1655 0.961 . S
H1672 C1656 0.931 . S
H1673 C1661 0.930 . S
H1674 C1662 0.956 . S
H1675 C1662 0.961 . S
H1676 C1662 0.961 . S
H1677 C1663 0.958 . S
H1678 C1663 0.961 . S
H1679 C1663 0.960 . S
C1680 C1681 1.391 . S
C1680 C1682 1.394 . S
C1680 H1696 0.931 . S
C1681 C1680 1.391 . S
C1681 C1685 1.376 . S
C1682 C1680 1.394 . S
C1682 C1683 1.369 . S
C1682 C1686 1.531 . S
C1683 C1682 1.369 . S
C1683 C1684 1.410 . S
C1683 C1691 1.503 . S
C1684 C1683 1.410 . S
C1684 C1685 1.392 . S
C1684 C1687 1.511 . S
C1685 C1681 1.376 . S
C1685 C1684 1.392 . S
C1685 H1697 0.929 . S
C1686 C1682 1.531 . S
C1686 H1698 0.960 . S
C1686 H1699 0.962 . S
C1686 H1700 0.960 . S
C1687 C1684 1.511 . S
C1687 H1701 0.961 . S
C1687 H1702 0.961 . S
C1687 H1703 0.961 . S
C1688 C1689 1.370 . S
C1688 C1690 1.363 . S
C1688 H1704 0.931 . S
C1689 C1688 1.370 . S
C1689 C1693 1.408 . S
C1690 C1688 1.363 . S
C1690 C1691 1.370 . S
C1690 C1694 1.524 . S
C1691 C1683 1.503 . S
C1691 C1690 1.370 . S
C1691 C1692 1.403 . S
C1692 C1691 1.403 . S
C1692 C1693 1.404 . S
C1692 C1695 1.539 . S
C1693 C1689 1.408 . S
C1693 C1692 1.404 . S
C1693 H1705 0.930 . S
C1694 C1690 1.524 . S
C1694 H1706 0.956 . S
C1694 H1707 0.961 . S
C1694 H1708 0.961 . S
C1695 C1692 1.539 . S
C1695 H1709 0.958 . S
C1695 H1710 0.961 . S
C1695 H1711 0.960 . S
H1696 C1680 0.931 . S
H1697 C1685 0.929 . S
H1698 C1686 0.960 . S
H1699 C1686 0.962 . S
H1700 C1686 0.960 . S
H1701 C1687 0.961 . S
H1702 C1687 0.961 . S
H1703 C1687 0.961 . S
H1704 C1688 0.931 . S
H1705 C1693 0.930 . S
H1706 C1694 0.956 . S
H1707 C1694 0.961 . S
H1708 C1694 0.961 . S
H1709 C1695 0.958 . S
H1710 C1695 0.961 . S
H1711 C1695 0.960 . S
C1712 C1713 1.391 . S
C1712 C1714 1.394 . S
C1712 H1728 0.931 . S
C1713 C1712 1.391 . S
C1713 C1717 1.376 . S
C1714 C1712 1.394 . S
C1714 C1715 1.369 . S
C1714 C1718 1.531 . S
C1715 C1714 1.369 . S
C1715 C1716 1.410 . S
C1715 C1723 1.503 . S
C1716 C1715 1.410 . S
C1716 C1717 1.392 . S
C1716 C1719 1.511 . S
C1717 C1713 1.376 . S
C1717 C1716 1.392 . S
C1717 H1729 0.929 . S
C1718 C1714 1.531 . S
C1718 H1730 0.960 . S
C1718 H1731 0.962 . S
C1718 H1732 0.960 . S
C1719 C1716 1.511 . S
C1719 H1733 0.961 . S
C1719 H1734 0.961 . S
C1719 H1735 0.961 . S
C1720 C1721 1.370 . S
C1720 C1722 1.363 . S
C1720 H1736 0.931 . S
C1721 C1720 1.370 . S
C1721 C1725 1.408 . S
C1722 C1720 1.363 . S
C1722 C1723 1.370 . S
C1722 C1726 1.524 . S
C1723 C1715 1.503 . S
C1723 C1722 1.370 . S
C1723 C1724 1.403 . S
C1724 C1723 1.403 . S
C1724 C1725 1.404 . S
C1724 C1727 1.539 . S
C1725 C1721 1.408 . S
C1725 C1724 1.404 . S
C1725 H1737 0.930 . S
C1726 C1722 1.524 . S
C1726 H1738 0.956 . S
C1726 H1739 0.961 . S
C1726 H1740 0.961 . S
C1727 C1724 1.539 . S
C1727 H1741 0.958 . S
C1727 H1742 0.961 . S
C1727 H1743 0.960 . S
H1728 C1712 0.931 . S
H1729 C1717 0.929 . S
H1730 C1718 0.960 . S
H1731 C1718 0.962 . S
H1732 C1718 0.960 . S
H1733 C1719 0.961 . S
H1734 C1719 0.961 . S
H1735 C1719 0.961 . S
H1736 C1720 0.931 . S
H1737 C1725 0.930 . S
H1738 C1726 0.956 . S
H1739 C1726 0.961 . S
H1740 C1726 0.961 . S
H1741 C1727 0.958 . S
H1742 C1727 0.961 . S
H1743 C1727 0.960 . S
C1744 C1745 1.391 1_564 S
C1744 C1746 1.394 1_554 S
C1744 H1760 0.931 . S
C1745 C1744 1.391 1_546 S
C1745 C1749 1.376 . S
C1746 C1744 1.394 1_556 S
C1746 C1747 1.369 . S
C1746 C1750 1.531 1_556 S
C1747 C1746 1.369 . S
C1747 C1748 1.410 1_565 S
C1747 C1755 1.503 . S
C1748 C1747 1.410 1_545 S
C1748 C1749 1.392 . S
C1748 C1751 1.511 . S
C1749 C1745 1.376 . S
C1749 C1748 1.392 . S
C1749 H1761 0.929 . S
C1750 C1746 1.531 1_554 S
C1750 H1762 0.960 . S
C1750 H1763 0.962 1_554 S
C1750 H1764 0.960 . S
C1751 C1748 1.511 . S
C1751 H1765 0.961 . S
C1751 H1766 0.961 1_545 S
C1751 H1767 0.961 . S
C1752 C1753 1.370 . S
C1752 C1754 1.363 . S
C1752 H1768 0.931 . S
C1753 C1752 1.370 . S
C1753 C1757 1.408 . S
C1754 C1752 1.363 . S
C1754 C1755 1.370 . S
C1754 C1758 1.524 . S
C1755 C1747 1.503 . S
C1755 C1754 1.370 . S
C1755 C1756 1.403 . S
C1756 C1755 1.403 . S
C1756 C1757 1.404 . S
C1756 C1759 1.523 1_556 S
C1757 C1753 1.408 . S
C1757 C1756 1.404 . S
C1757 H1769 0.930 . S
C1758 C1754 1.524 . S
C1758 H1770 0.956 . S
C1758 H1771 0.961 . S
C1758 H1772 0.961 . S
C1759 C1756 1.523 1_554 S
C1759 H1773 0.975 . S
C1759 H1774 0.960 1_554 S
C1759 H1775 0.959 . S
H1760 C1744 0.931 . S
H1761 C1749 0.929 . S
H1762 C1750 0.960 . S
H1763 C1750 0.962 1_556 S
H1764 C1750 0.960 . S
H1765 C1751 0.961 . S
H1766 C1751 0.961 1_565 S
H1767 C1751 0.961 . S
H1768 C1752 0.931 . S
H1769 C1757 0.930 . S
H1770 C1758 0.956 . S
H1771 C1758 0.961 . S
H1772 C1758 0.961 . S
H1773 C1759 0.975 . S
H1774 C1759 0.960 1_556 S
H1775 C1759 0.959 . S
C1776 C1777 1.391 . S
C1776 C1778 1.394 . S
C1776 H1792 0.931 . S
C1777 C1776 1.391 . S
C1777 C1781 1.376 . S
C1778 C1776 1.394 . S
C1778 C1779 1.369 . S
C1778 C1782 1.531 . S
C1779 C1778 1.369 . S
C1779 C1780 1.410 . S
C1779 C1787 1.503 . S
C1780 C1779 1.410 . S
C1780 C1781 1.392 . S
C1780 C1783 1.511 . S
C1781 C1777 1.376 . S
C1781 C1780 1.392 . S
C1781 H1793 0.929 . S
C1782 C1778 1.531 . S
C1782 H1794 0.960 . S
C1782 H1795 0.962 . S
C1782 H1796 0.960 . S
C1783 C1780 1.511 . S
C1783 H1797 0.961 . S
C1783 H1798 0.961 . S
C1783 H1799 0.961 . S
C1784 C1785 1.370 . S
C1784 C1786 1.363 . S
C1784 H1800 0.931 . S
C1785 C1784 1.370 . S
C1785 C1789 1.408 . S
C1786 C1784 1.363 . S
C1786 C1787 1.370 . S
C1786 C1790 1.524 . S
C1787 C1779 1.503 . S
C1787 C1786 1.370 . S
C1787 C1788 1.403 . S
C1788 C1787 1.403 . S
C1788 C1789 1.404 . S
C1788 C1791 1.539 . S
C1789 C1785 1.408 . S
C1789 C1788 1.404 . S
C1789 H1801 0.930 . S
C1790 C1786 1.524 . S
C1790 H1802 0.956 . S
C1790 H1803 0.961 . S
C1790 H1804 0.961 . S
C1791 C1788 1.539 . S
C1791 H1805 0.958 . S
C1791 H1806 0.961 . S
C1791 H1807 0.960 . S
H1792 C1776 0.931 . S
H1793 C1781 0.929 . S
H1794 C1782 0.960 . S
H1795 C1782 0.962 . S
H1796 C1782 0.960 . S
H1797 C1783 0.961 . S
H1798 C1783 0.961 . S
H1799 C1783 0.961 . S
H1800 C1784 0.931 . S
H1801 C1789 0.930 . S
H1802 C1790 0.956 . S
H1803 C1790 0.961 . S
H1804 C1790 0.961 . S
H1805 C1791 0.958 . S
H1806 C1791 0.961 . S
H1807 C1791 0.960 . S
C1808 C1809 1.391 . S
C1808 C1810 1.394 . S
C1808 H1824 0.931 . S
C1809 C1808 1.391 . S
C1809 C1813 1.376 . S
C1810 C1808 1.394 . S
C1810 C1811 1.369 . S
C1810 C1814 1.531 . S
C1811 C1810 1.369 . S
C1811 C1812 1.410 . S
C1811 C1819 1.503 . S
C1812 C1811 1.410 . S
C1812 C1813 1.392 . S
C1812 C1815 1.511 . S
C1813 C1809 1.376 . S
C1813 C1812 1.392 . S
C1813 H1825 0.929 1_655 S
C1814 C1810 1.531 . S
C1814 H1826 0.960 . S
C1814 H1827 0.962 . S
C1814 H1828 0.960 . S
C1815 C1812 1.511 . S
C1815 H1829 0.961 . S
C1815 H1830 0.961 . S
C1815 H1831 0.961 . S
C1816 C1817 1.370 . S
C1816 C1818 1.363 . S
C1816 H1832 0.931 . S
C1817 C1816 1.370 . S
C1817 C1821 1.408 . S
C1818 C1816 1.363 . S
C1818 C1819 1.370 . S
C1818 C1822 1.524 . S
C1819 C1811 1.503 . S
C1819 C1818 1.370 . S
C1819 C1820 1.403 . S
C1820 C1819 1.403 . S
C1820 C1821 1.404 . S
C1820 C1823 1.539 . S
C1821 C1817 1.408 . S
C1821 C1820 1.404 . S
C1821 H1833 0.930 . S
C1822 C1818 1.524 . S
C1822 H1834 0.956 . S
C1822 H1835 0.961 . S
C1822 H1836 0.961 . S
C1823 C1820 1.539 . S
C1823 H1837 0.958 . S
C1823 H1838 0.961 . S
C1823 H1839 0.960 . S
H1824 C1808 0.931 . S
H1825 C1813 0.929 1_455 S
H1826 C1814 0.960 . S
H1827 C1814 0.962 . S
H1828 C1814 0.960 . S
H1829 C1815 0.961 . S
H1830 C1815 0.961 . S
H1831 C1815 0.961 . S
H1832 C1816 0.931 . S
H1833 C1821 0.930 . S
H1834 C1822 0.956 . S
H1835 C1822 0.961 . S
H1836 C1822 0.961 . S
H1837 C1823 0.958 . S
H1838 C1823 0.961 . S
H1839 C1823 0.960 . S
C1840 C1841 1.391 . S
C1840 C1842 1.394 . S
C1840 H1856 0.931 . S
C1841 C1840 1.391 . S
C1841 C1845 1.376 . S
C1842 C1840 1.394 . S
C1842 C1843 1.369 . S
C1842 C1846 1.531 . S
C1843 C1842 1.369 . S
C1843 C1844 1.410 . S
C1843 C1851 1.503 . S
C1844 C1843 1.410 . S
C1844 C1845 1.392 . S
C1844 C1847 1.511 . S
C1845 C1841 1.376 . S
C1845 C1844 1.392 . S
C1845 H1857 0.929 . S
C1846 C1842 1.531 . S
C1846 H1858 0.960 . S
C1846 H1859 0.962 . S
C1846 H1860 0.960 . S
C1847 C1844 1.511 . S
C1847 H1861 0.961 . S
C1847 H1862 0.961 . S
C1847 H1863 0.961 . S
C1848 C1849 1.370 . S
C1848 C1850 1.363 . S
C1848 H1864 0.931 . S
C1849 C1848 1.370 . S
C1849 C1853 1.408 . S
C1850 C1848 1.363 . S
C1850 C1851 1.370 . S
C1850 C1854 1.524 . S
C1851 C1843 1.503 . S
C1851 C1850 1.370 . S
C1851 C1852 1.403 . S
C1852 C1851 1.403 . S
C1852 C1853 1.404 . S
C1852 C1855 1.539 . S
C1853 C1849 1.408 . S
C1853 C1852 1.404 . S
C1853 H1865 0.930 . S
C1854 C1850 1.524 . S
C1854 H1866 0.956 . S
C1854 H1867 0.961 . S
C1854 H1868 0.961 . S
C1855 C1852 1.539 . S
C1855 H1869 0.958 . S
C1855 H1870 0.961 . S
C1855 H1871 0.960 . S
H1856 C1840 0.931 . S
H1857 C1845 0.929 . S
H1858 C1846 0.960 . S
H1859 C1846 0.962 . S
H1860 C1846 0.960 . S
H1861 C1847 0.961 . S
H1862 C1847 0.961 . S
H1863 C1847 0.961 . S
H1864 C1848 0.931 . S
H1865 C1853 0.930 . S
H1866 C1854 0.956 . S
H1867 C1854 0.961 . S
H1868 C1854 0.961 . S
H1869 C1855 0.958 . S
H1870 C1855 0.961 . S
H1871 C1855 0.960 . S
C1872 C1873 1.391 . S
C1872 C1874 1.394 . S
C1872 H1888 0.931 . S
C1873 C1872 1.391 . S
C1873 C1877 1.376 . S
C1874 C1872 1.394 . S
C1874 C1875 1.369 . S
C1874 C1878 1.531 . S
C1875 C1874 1.369 . S
C1875 C1876 1.410 . S
C1875 C1883 1.503 . S
C1876 C1875 1.410 . S
C1876 C1877 1.392 . S
C1876 C1879 1.511 . S
C1877 C1873 1.376 . S
C1877 C1876 1.392 . S
C1877 H1889 0.929 . S
C1878 C1874 1.531 . S
C1878 H1890 0.960 . S
C1878 H1891 0.962 . S
C1878 H1892 0.960 . S
C1879 C1876 1.511 . S
C1879 H1893 0.961 . S
C1879 H1894 0.961 . S
C1879 H1895 0.961 . S
C1880 C1881 1.370 . S
C1880 C1882 1.363 . S
C1880 H1896 0.931 . S
C1881 C1880 1.370 . S
C1881 C1885 1.408 . S
C1882 C1880 1.363 . S
C1882 C1883 1.370 . S
C1882 C1886 1.524 . S
C1883 C1875 1.503 . S
C1883 C1882 1.370 . S
C1883 C1884 1.403 . S
C1884 C1883 1.403 . S
C1884 C1885 1.404 . S
C1884 C1887 1.539 . S
C1885 C1881 1.408 . S
C1885 C1884 1.404 . S
C1885 H1897 0.930 . S
C1886 C1882 1.524 . S
C1886 H1898 0.956 . S
C1886 H1899 0.961 . S
C1886 H1900 0.961 . S
C1887 C1884 1.539 . S
C1887 H1901 0.958 . S
C1887 H1902 0.961 . S
C1887 H1903 0.960 . S
H1888 C1872 0.931 . S
H1889 C1877 0.929 . S
H1890 C1878 0.960 . S
H1891 C1878 0.962 . S
H1892 C1878 0.960 . S
H1893 C1879 0.961 . S
H1894 C1879 0.961 . S
H1895 C1879 0.961 . S
H1896 C1880 0.931 . S
H1897 C1885 0.930 . S
H1898 C1886 0.956 . S
H1899 C1886 0.961 . S
H1900 C1886 0.961 . S
H1901 C1887 0.958 . S
H1902 C1887 0.961 . S
H1903 C1887 0.960 . S
C1904 C1905 1.391 . S
C1904 C1906 1.394 . S
C1904 H1920 0.931 . S
C1905 C1904 1.391 . S
C1905 C1909 1.376 . S
C1906 C1904 1.394 . S
C1906 C1907 1.369 . S
C1906 C1910 1.531 . S
C1907 C1906 1.369 . S
C1907 C1908 1.410 . S
C1907 C1915 1.503 . S
C1908 C1907 1.410 . S
C1908 C1909 1.392 . S
C1908 C1911 1.511 . S
C1909 C1905 1.376 . S
C1909 C1908 1.392 . S
C1909 H1921 0.929 . S
C1910 C1906 1.531 . S
C1910 H1922 0.960 . S
C1910 H1923 0.962 . S
C1910 H1924 0.960 . S
C1911 C1908 1.511 . S
C1911 H1925 0.961 . S
C1911 H1926 0.961 . S
C1911 H1927 0.961 . S
C1912 C1913 1.370 . S
C1912 C1914 1.363 . S
C1912 H1928 0.931 . S
C1913 C1912 1.370 . S
C1913 C1917 1.408 . S
C1914 C1912 1.363 . S
C1914 C1915 1.370 . S
C1914 C1918 1.524 . S
C1915 C1907 1.503 . S
C1915 C1914 1.370 . S
C1915 C1916 1.403 . S
C1916 C1915 1.403 . S
C1916 C1917 1.404 . S
C1916 C1919 1.539 . S
C1917 C1913 1.408 . S
C1917 C1916 1.404 . S
C1917 H1929 0.930 . S
C1918 C1914 1.524 . S
C1918 H1930 0.956 . S
C1918 H1931 0.961 . S
C1918 H1932 0.961 . S
C1919 C1916 1.539 . S
C1919 H1933 0.958 . S
C1919 H1934 0.961 . S
C1919 H1935 0.960 . S
H1920 C1904 0.931 . S
H1921 C1909 0.929 . S
H1922 C1910 0.960 . S
H1923 C1910 0.962 . S
H1924 C1910 0.960 . S
H1925 C1911 0.961 . S
H1926 C1911 0.961 . S
H1927 C1911 0.961 . S
H1928 C1912 0.931 . S
H1929 C1917 0.930 . S
H1930 C1918 0.956 . S
H1931 C1918 0.961 . S
H1932 C1918 0.961 . S
H1933 C1919 0.958 . S
H1934 C1919 0.961 . S
H1935 C1919 0.960 . S
C1936 C1937 1.391 . S
C1936 C1938 1.394 . S
C1936 H1952 0.931 . S
C1937 C1936 1.391 . S
C1937 C1941 1.376 . S
C1938 C1936 1.394 . S
C1938 C1939 1.369 . S
C1938 C1942 1.531 . S
C1939 C1938 1.369 . S
C1939 C1940 1.410 . S
C1939 C1947 1.503 . S
C1940 C1939 1.410 . S
C1940 C1941 1.392 . S
C1940 C1943 1.511 . S
C1941 C1937 1.376 . S
C1941 C1940 1.392 . S
C1941 H1953 0.929 . S
C1942 C1938 1.531 . S
C1942 H1954 0.960 . S
C1942 H1955 0.962 . S
C1942 H1956 0.960 . S
C1943 C1940 1.511 . S
C1943 H1957 0.961 . S
C1943 H1958 0.961 . S
C1943 H1959 0.961 . S
C1944 C1945 1.370 . S
C1944 C1946 1.363 . S
C1944 H1960 0.931 . S
C1945 C1944 1.370 . S
C1945 C1949 1.408 . S
C1946 C1944 1.363 . S
C1946 C1947 1.370 . S
C1946 C1950 1.524 . S
C1947 C1939 1.503 . S
C1947 C1946 1.370 . S
C1947 C1948 1.403 . S
C1948 C1947 1.403 . S
C1948 C1949 1.404 . S
C1948 C1951 1.539 . S
C1949 C1945 1.408 . S
C1949 C1948 1.404 . S
C1949 H1961 0.930 . S
C1950 C1946 1.524 . S
C1950 H1962 0.956 . S
C1950 H1963 0.961 . S
C1950 H1964 0.961 . S
C1951 C1948 1.539 . S
C1951 H1965 0.958 . S
C1951 H1966 0.961 . S
C1951 H1967 0.960 . S
H1952 C1936 0.931 . S
H1953 C1941 0.929 . S
H1954 C1942 0.960 . S
H1955 C1942 0.962 . S
H1956 C1942 0.960 . S
H1957 C1943 0.961 . S
H1958 C1943 0.961 . S
H1959 C1943 0.961 . S
H1960 C1944 0.931 . S
H1961 C1949 0.930 . S
H1962 C1950 0.956 . S
H1963 C1950 0.961 . S
H1964 C1950 0.961 . S
H1965 C1951 0.958 . S
H1966 C1951 0.961 . S
H1967 C1951 0.960 . S
C1968 C1969 1.391 . S
C1968 C1970 1.394 . S
C1968 H1984 0.931 . S
C1969 C1968 1.391 . S
C1969 C1973 1.376 . S
C1970 C1968 1.394 . S
C1970 C1971 1.369 . S
C1970 C1974 1.531 . S
C1971 C1970 1.369 . S
C1971 C1972 1.410 . S
C1971 C1979 1.503 . S
C1972 C1971 1.410 . S
C1972 C1973 1.392 . S
C1972 C1975 1.511 . S
C1973 C1969 1.376 . S
C1973 C1972 1.392 . S
C1973 H1985 0.929 . S
C1974 C1970 1.531 . S
C1974 H1986 0.960 . S
C1974 H1987 0.962 . S
C1974 H1988 0.960 . S
C1975 C1972 1.511 . S
C1975 H1989 0.961 1_455 S
C1975 H1990 0.961 . S
C1975 H1991 0.961 . S
C1976 C1977 1.370 . S
C1976 C1978 1.363 . S
C1976 H1992 0.931 . S
C1977 C1976 1.370 . S
C1977 C1981 1.408 . S
C1978 C1976 1.363 . S
C1978 C1979 1.370 . S
C1978 C1982 1.524 . S
C1979 C1971 1.503 . S
C1979 C1978 1.370 . S
C1979 C1980 1.403 . S
C1980 C1979 1.403 . S
C1980 C1981 1.404 . S
C1980 C1983 1.539 . S
C1981 C1977 1.408 . S
C1981 C1980 1.404 . S
C1981 H1993 0.930 . S
C1982 C1978 1.524 . S
C1982 H1994 0.956 . S
C1982 H1995 0.961 . S
C1982 H1996 0.961 . S
C1983 C1980 1.539 . S
C1983 H1997 0.958 . S
C1983 H1998 0.961 . S
C1983 H1999 0.960 . S
H1984 C1968 0.931 . S
H1985 C1973 0.929 . S
H1986 C1974 0.960 . S
H1987 C1974 0.962 . S
H1988 C1974 0.960 . S
H1989 C1975 0.961 1_655 S
H1990 C1975 0.961 . S
H1991 C1975 0.961 . S
H1992 C1976 0.931 . S
H1993 C1981 0.930 . S
H1994 C1982 0.956 . S
H1995 C1982 0.961 . S
H1996 C1982 0.961 . S
H1997 C1983 0.958 . S
H1998 C1983 0.961 . S
H1999 C1983 0.960 . S
C2000 C2001 1.391 . S
C2000 C2002 1.394 . S
C2000 H2016 0.931 . S
C2001 C2000 1.391 . S
C2001 C2005 1.376 . S
C2002 C2000 1.394 . S
C2002 C2003 1.369 . S
C2002 C2006 1.531 . S
C2003 C2002 1.369 . S
C2003 C2004 1.410 . S
C2003 C2011 1.503 . S
C2004 C2003 1.410 . S
C2004 C2005 1.392 . S
C2004 C2007 1.511 . S
C2005 C2001 1.376 . S
C2005 C2004 1.392 . S
C2005 H2017 0.929 . S
C2006 C2002 1.531 . S
C2006 H2018 0.960 . S
C2006 H2019 0.962 . S
C2006 H2020 0.960 . S
C2007 C2004 1.511 . S
C2007 H2021 0.961 . S
C2007 H2022 0.961 . S
C2007 H2023 0.961 . S
C2008 C2009 1.370 . S
C2008 C2010 1.363 . S
C2008 H2024 0.931 . S
C2009 C2008 1.370 . S
C2009 C2013 1.408 . S
C2010 C2008 1.363 . S
C2010 C2011 1.370 . S
C2010 C2014 1.524 . S
C2011 C2003 1.503 . S
C2011 C2010 1.370 . S
C2011 C2012 1.403 . S
C2012 C2011 1.403 . S
C2012 C2013 1.404 . S
C2012 C2015 1.539 1_554 S
C2013 C2009 1.408 . S
C2013 C2012 1.404 . S
C2013 H2025 0.930 1_554 S
C2014 C2010 1.524 . S
C2014 H2026 0.956 . S
C2014 H2027 0.961 . S
C2014 H2028 0.961 . S
C2015 C2012 1.539 1_556 S
C2015 H2029 0.958 . S
C2015 H2030 0.961 . S
C2015 H2031 0.960 1_556 S
H2016 C2000 0.931 . S
H2017 C2005 0.929 . S
H2018 C2006 0.960 . S
H2019 C2006 0.962 . S
H2020 C2006 0.960 . S
H2021 C2007 0.961 . S
H2022 C2007 0.961 . S
H2023 C2007 0.961 . S
H2024 C2008 0.931 . S
H2025 C2013 0.930 1_556 S
H2026 C2014 0.956 . S
H2027 C2014 0.961 . S
H2028 C2014 0.961 . S
H2029 C2015 0.958 . S
H2030 C2015 0.961 . S
H2031 C2015 0.960 1_554 S
C2032 C2033 1.391 . S
C2032 C2034 1.394 . S
C2032 H2048 0.931 . S
C2033 C2032 1.391 . S
C2033 C2037 1.376 . S
C2034 C2032 1.394 . S
C2034 C2035 1.369 . S
C2034 C2038 1.531 . S
C2035 C2034 1.369 . S
C2035 C2036 1.410 . S
C2035 C2043 1.503 . S
C2036 C2035 1.410 . S
C2036 C2037 1.392 . S
C2036 C2039 1.511 . S
C2037 C2033 1.376 . S
C2037 C2036 1.392 . S
C2037 H2049 0.929 . S
C2038 C2034 1.531 . S
C2038 H2050 0.960 . S
C2038 H2051 0.962 . S
C2038 H2052 0.960 . S
C2039 C2036 1.511 . S
C2039 H2053 0.961 . S
C2039 H2054 0.961 . S
C2039 H2055 0.961 . S
C2040 C2041 1.370 . S
C2040 C2042 1.363 . S
C2040 H2056 0.931 . S
C2041 C2040 1.370 . S
C2041 C2045 1.408 . S
C2042 C2040 1.363 . S
C2042 C2043 1.370 . S
C2042 C2046 1.524 . S
C2043 C2035 1.503 . S
C2043 C2042 1.370 . S
C2043 C2044 1.403 . S
C2044 C2043 1.403 . S
C2044 C2045 1.404 . S
C2044 C2047 1.539 . S
C2045 C2041 1.408 . S
C2045 C2044 1.404 . S
C2045 H2057 0.930 . S
C2046 C2042 1.524 . S
C2046 H2058 0.956 . S
C2046 H2059 0.961 . S
C2046 H2060 0.961 . S
C2047 C2044 1.539 . S
C2047 H2061 0.958 . S
C2047 H2062 0.961 . S
C2047 H2063 0.960 . S
H2048 C2032 0.931 . S
H2049 C2037 0.929 . S
H2050 C2038 0.960 . S
H2051 C2038 0.962 . S
H2052 C2038 0.960 . S
H2053 C2039 0.961 . S
H2054 C2039 0.961 . S
H2055 C2039 0.961 . S
H2056 C2040 0.931 . S
H2057 C2045 0.930 . S
H2058 C2046 0.956 . S
H2059 C2046 0.961 . S
H2060 C2046 0.961 . S
H2061 C2047 0.958 . S
H2062 C2047 0.961 . S
H2063 C2047 0.960 . S
C2064 C2065 1.391 . S
C2064 C2066 1.394 . S
C2064 H2080 0.931 . S
C2065 C2064 1.391 . S
C2065 C2069 1.376 . S
C2066 C2064 1.394 . S
C2066 C2067 1.369 . S
C2066 C2070 1.531 . S
C2067 C2066 1.369 . S
C2067 C2068 1.410 . S
C2067 C2075 1.503 . S
C2068 C2067 1.410 . S
C2068 C2069 1.392 . S
C2068 C2071 1.511 . S
C2069 C2065 1.376 . S
C2069 C2068 1.392 . S
C2069 H2081 0.929 . S
C2070 C2066 1.531 . S
C2070 H2082 0.960 . S
C2070 H2083 0.962 . S
C2070 H2084 0.960 . S
C2071 C2068 1.511 . S
C2071 H2085 0.961 . S
C2071 H2086 0.961 . S
C2071 H2087 0.961 . S
C2072 C2073 1.370 . S
C2072 C2074 1.363 . S
C2072 H2088 0.931 . S
C2073 C2072 1.370 . S
C2073 C2077 1.408 . S
C2074 C2072 1.363 . S
C2074 C2075 1.370 . S
C2074 C2078 1.524 . S
C2075 C2067 1.503 . S
C2075 C2074 1.370 . S
C2075 C2076 1.403 . S
C2076 C2075 1.403 . S
C2076 C2077 1.404 . S
C2076 C2079 1.539 . S
C2077 C2073 1.408 . S
C2077 C2076 1.404 . S
C2077 H2089 0.930 . S
C2078 C2074 1.524 . S
C2078 H2090 0.956 . S
C2078 H2091 0.961 . S
C2078 H2092 0.961 . S
C2079 C2076 1.539 . S
C2079 H2093 0.958 . S
C2079 H2094 0.961 . S
C2079 H2095 0.960 . S
H2080 C2064 0.931 . S
H2081 C2069 0.929 . S
H2082 C2070 0.960 . S
H2083 C2070 0.962 . S
H2084 C2070 0.960 . S
H2085 C2071 0.961 . S
H2086 C2071 0.961 . S
H2087 C2071 0.961 . S
H2088 C2072 0.931 . S
H2089 C2077 0.930 . S
H2090 C2078 0.956 . S
H2091 C2078 0.961 . S
H2092 C2078 0.961 . S
H2093 C2079 0.958 . S
H2094 C2079 0.961 . S
H2095 C2079 0.960 . S
C2096 C2097 1.391 . S
C2096 C2098 1.394 . S
C2096 H2112 0.931 . S
C2097 C2096 1.391 . S
C2097 C2101 1.376 . S
C2098 C2096 1.394 . S
C2098 C2099 1.369 . S
C2098 C2102 1.531 . S
C2099 C2098 1.369 . S
C2099 C2100 1.410 . S
C2099 C2107 1.503 . S
C2100 C2099 1.410 . S
C2100 C2101 1.392 . S
C2100 C2103 1.511 . S
C2101 C2097 1.376 . S
C2101 C2100 1.392 . S
C2101 H2113 0.929 . S
C2102 C2098 1.531 . S
C2102 H2114 0.960 . S
C2102 H2115 0.962 . S
C2102 H2116 0.960 . S
C2103 C2100 1.511 . S
C2103 H2117 0.961 . S
C2103 H2118 0.961 . S
C2103 H2119 0.961 . S
C2104 C2105 1.370 . S
C2104 C2106 1.363 . S
C2104 H2120 0.931 . S
C2105 C2104 1.370 . S
C2105 C2109 1.408 . S
C2106 C2104 1.363 . S
C2106 C2107 1.370 . S
C2106 C2110 1.524 . S
C2107 C2099 1.503 . S
C2107 C2106 1.370 . S
C2107 C2108 1.403 . S
C2108 C2107 1.403 . S
C2108 C2109 1.404 . S
C2108 C2111 1.539 . S
C2109 C2105 1.408 . S
C2109 C2108 1.404 . S
C2109 H2121 0.930 . S
C2110 C2106 1.524 . S
C2110 H2122 0.956 . S
C2110 H2123 0.961 . S
C2110 H2124 0.961 . S
C2111 C2108 1.539 . S
C2111 H2125 0.958 . S
C2111 H2126 0.961 . S
C2111 H2127 0.960 . S
H2112 C2096 0.931 . S
H2113 C2101 0.929 . S
H2114 C2102 0.960 . S
H2115 C2102 0.962 . S
H2116 C2102 0.960 . S
H2117 C2103 0.961 . S
H2118 C2103 0.961 . S
H2119 C2103 0.961 . S
H2120 C2104 0.931 . S
H2121 C2109 0.930 . S
H2122 C2110 0.956 . S
H2123 C2110 0.961 . S
H2124 C2110 0.961 . S
H2125 C2111 0.958 . S
H2126 C2111 0.961 . S
H2127 C2111 0.960 . S
C2128 C2129 1.391 . S
C2128 C2130 1.394 . S
C2128 H2144 0.931 . S
C2129 C2128 1.391 . S
C2129 C2133 1.376 . S
C2130 C2128 1.394 . S
C2130 C2131 1.369 . S
C2130 C2134 1.531 . S
C2131 C2130 1.369 . S
C2131 C2132 1.410 . S
C2131 C2139 1.503 . S
C2132 C2131 1.410 . S
C2132 C2133 1.392 . S
C2132 C2135 1.511 . S
C2133 C2129 1.376 . S
C2133 C2132 1.392 . S
C2133 H2145 0.929 . S
C2134 C2130 1.531 . S
C2134 H2146 0.960 . S
C2134 H2147 0.962 . S
C2134 H2148 0.960 . S
C2135 C2132 1.511 . S
C2135 H2149 0.961 . S
C2135 H2150 0.961 . S
C2135 H2151 0.961 . S
C2136 C2137 1.370 . S
C2136 C2138 1.363 . S
C2136 H2152 0.931 . S
C2137 C2136 1.370 . S
C2137 C2141 1.408 . S
C2138 C2136 1.363 . S
C2138 C2139 1.370 . S
C2138 C2142 1.524 . S
C2139 C2131 1.503 . S
C2139 C2138 1.370 . S
C2139 C2140 1.403 . S
C2140 C2139 1.403 . S
C2140 C2141 1.404 . S
C2140 C2143 1.539 . S
C2141 C2137 1.408 . S
C2141 C2140 1.404 . S
C2141 H2153 0.930 . S
C2142 C2138 1.524 . S
C2142 H2154 0.956 . S
C2142 H2155 0.961 . S
C2142 H2156 0.961 . S
C2143 C2140 1.539 . S
C2143 H2157 0.958 . S
C2143 H2158 0.961 . S
C2143 H2159 0.960 . S
H2144 C2128 0.931 . S
H2145 C2133 0.929 . S
H2146 C2134 0.960 . S
H2147 C2134 0.962 . S
H2148 C2134 0.960 . S
H2149 C2135 0.961 . S
H2150 C2135 0.961 . S
H2151 C2135 0.961 . S
H2152 C2136 0.931 . S
H2153 C2141 0.930 . S
H2154 C2142 0.956 . S
H2155 C2142 0.961 . S
H2156 C2142 0.961 . S
H2157 C2143 0.958 . S
H2158 C2143 0.961 . S
H2159 C2143 0.960 . S
C2160 C2161 1.391 1_455 S
C2160 C2162 1.394 . S
C2160 H2176 0.931 . S
C2161 C2160 1.391 1_655 S
C2161 C2165 1.376 . S
C2162 C2160 1.394 . S
C2162 C2163 1.369 . S
C2162 C2166 1.531 . S
C2163 C2162 1.369 . S
C2163 C2164 1.410 1_455 S
C2163 C2171 1.503 . S
C2164 C2163 1.410 1_655 S
C2164 C2165 1.392 . S
C2164 C2167 1.511 . S
C2165 C2161 1.376 . S
C2165 C2164 1.392 . S
C2165 H2177 0.929 . S
C2166 C2162 1.531 . S
C2166 H2178 0.960 . S
C2166 H2179 0.962 . S
C2166 H2180 0.960 . S
C2167 C2164 1.511 . S
C2167 H2181 0.961 . S
C2167 H2182 0.961 . S
C2167 H2183 0.961 . S
C2168 C2169 1.370 . S
C2168 C2170 1.363 . S
C2168 H2184 0.931 . S
C2169 C2168 1.370 . S
C2169 C2173 1.408 . S
C2170 C2168 1.363 . S
C2170 C2171 1.370 . S
C2170 C2174 1.524 . S
C2171 C2163 1.503 . S
C2171 C2170 1.370 . S
C2171 C2172 1.403 . S
C2172 C2171 1.403 . S
C2172 C2173 1.404 . S
C2172 C2175 1.539 1_455 S
C2173 C2169 1.408 . S
C2173 C2172 1.404 . S
C2173 H2185 0.930 . S
C2174 C2170 1.524 . S
C2174 H2186 0.956 . S
C2174 H2187 0.961 . S
C2174 H2188 0.961 . S
C2175 C2172 1.539 1_655 S
C2175 H2189 0.958 . S
C2175 H2190 0.961 . S
C2175 H2191 0.960 . S
H2176 C2160 0.931 . S
H2177 C2165 0.929 . S
H2178 C2166 0.960 . S
H2179 C2166 0.962 . S
H2180 C2166 0.960 . S
H2181 C2167 0.961 . S
H2182 C2167 0.961 . S
H2183 C2167 0.961 . S
H2184 C2168 0.931 . S
H2185 C2173 0.930 . S
H2186 C2174 0.956 . S
H2187 C2174 0.961 . S
H2188 C2174 0.961 . S
H2189 C2175 0.958 . S
H2190 C2175 0.961 . S
H2191 C2175 0.960 . S
C2192 C2193 1.391 1_554 S
C2192 C2194 1.394 . S
C2192 H2208 0.931 . S
C2193 C2192 1.391 1_556 S
C2193 C2197 1.376 . S
C2194 C2192 1.394 . S
C2194 C2195 1.369 . S
C2194 C2198 1.531 . S
C2195 C2194 1.369 . S
C2195 C2196 1.410 1_554 S
C2195 C2203 1.503 . S
C2196 C2195 1.410 1_556 S
C2196 C2197 1.392 . S
C2196 C2199 1.511 . S
C2197 C2193 1.376 . S
C2197 C2196 1.392 . S
C2197 H2209 0.929 . S
C2198 C2194 1.531 . S
C2198 H2210 0.960 . S
C2198 H2211 0.962 . S
C2198 H2212 0.960 . S
C2199 C2196 1.511 . S
C2199 H2213 0.961 . S
C2199 H2214 0.958 . S
C2199 H2215 0.961 . S
C2200 C2201 1.370 . S
C2200 C2202 1.363 . S
C2200 H2216 0.931 . S
C2201 C2200 1.370 . S
C2201 C2205 1.408 . S
C2202 C2200 1.363 . S
C2202 C2203 1.370 . S
C2202 C2206 1.524 . S
C2203 C2195 1.503 . S
C2203 C2202 1.370 . S
C2203 C2204 1.403 1_554 S
C2204 C2203 1.403 1_556 S
C2204 C2205 1.404 1_556 S
C2204 C2207 1.539 . S
C2205 C2201 1.408 . S
C2205 C2204 1.404 1_554 S
C2205 H2217 0.930 1_554 S
C2206 C2202 1.524 . S
C2206 H2218 0.956 . S
C2206 H2219 0.961 . S
C2206 H2220 0.961 . S
C2207 C2204 1.539 . S
C2207 H2221 0.958 . S
C2207 H2222 0.961 . S
C2207 H2223 0.960 . S
H2208 C2192 0.931 . S
H2209 C2197 0.929 . S
H2210 C2198 0.960 . S
H2211 C2198 0.962 . S
H2212 C2198 0.960 . S
H2213 C2199 0.961 . S
H2214 C2199 0.958 . S
H2215 C2199 0.961 . S
H2216 C2200 0.931 . S
H2217 C2205 0.930 1_556 S
H2218 C2206 0.956 . S
H2219 C2206 0.961 . S
H2220 C2206 0.961 . S
H2221 C2207 0.958 . S
H2222 C2207 0.961 . S
H2223 C2207 0.960 . S
C2224 C2225 1.391 . S
C2224 C2226 1.394 . S
C2224 H2240 0.931 . S
C2225 C2224 1.391 . S
C2225 C2229 1.376 . S
C2226 C2224 1.394 . S
C2226 C2227 1.369 . S
C2226 C2230 1.531 . S
C2227 C2226 1.369 . S
C2227 C2228 1.410 . S
C2227 C2235 1.503 . S
C2228 C2227 1.410 . S
C2228 C2229 1.392 . S
C2228 C2231 1.511 . S
C2229 C2225 1.376 . S
C2229 C2228 1.392 . S
C2229 H2241 0.929 . S
C2230 C2226 1.531 . S
C2230 H2242 0.960 . S
C2230 H2243 0.962 . S
C2230 H2244 0.960 1_545 S
C2231 C2228 1.511 . S
C2231 H2245 0.961 . S
C2231 H2246 0.961 . S
C2231 H2247 0.961 . S
C2232 C2233 1.370 . S
C2232 C2234 1.363 . S
C2232 H2248 0.931 . S
C2233 C2232 1.370 . S
C2233 C2237 1.408 . S
C2234 C2232 1.363 . S
C2234 C2235 1.370 . S
C2234 C2238 1.524 . S
C2235 C2227 1.503 . S
C2235 C2234 1.370 . S
C2235 C2236 1.403 . S
C2236 C2235 1.403 . S
C2236 C2237 1.404 . S
C2236 C2239 1.539 . S
C2237 C2233 1.408 . S
C2237 C2236 1.404 . S
C2237 H2249 0.930 . S
C2238 C2234 1.524 . S
C2238 H2250 0.956 . S
C2238 H2251 0.961 . S
C2238 H2252 0.961 . S
C2239 C2236 1.539 . S
C2239 H2253 0.958 . S
C2239 H2254 0.961 . S
C2239 H2255 0.960 . S
H2240 C2224 0.931 . S
H2241 C2229 0.929 . S
H2242 C2230 0.960 . S
H2243 C2230 0.962 . S
H2244 C2230 0.960 1_565 S
H2245 C2231 0.961 . S
H2246 C2231 0.961 . S
H2247 C2231 0.961 . S
H2248 C2232 0.931 . S
H2249 C2237 0.930 . S
H2250 C2238 0.956 . S
H2251 C2238 0.961 . S
H2252 C2238 0.961 . S
H2253 C2239 0.958 . S
H2254 C2239 0.961 . S
H2255 C2239 0.960 . S
C2256 C2257 1.391 . S
C2256 C2258 1.394 . S
C2256 H2272 0.931 . S
C2257 C2256 1.391 . S
C2257 C2261 1.376 . S
C2258 C2256 1.394 . S
C2258 C2259 1.369 . S
C2258 C2262 1.531 . S
C2259 C2258 1.369 . S
C2259 C2260 1.410 . S
C2259 C2267 1.503 . S
C2260 C2259 1.410 . S
C2260 C2261 1.392 . S
C2260 C2263 1.511 . S
C2261 C2257 1.376 . S
C2261 C2260 1.392 . S
C2261 H2273 0.929 . S
C2262 C2258 1.531 . S
C2262 H2274 0.960 . S
C2262 H2275 0.962 . S
C2262 H2276 0.960 . S
C2263 C2260 1.511 . S
C2263 H2277 0.961 . S
C2263 H2278 0.961 . S
C2263 H2279 0.961 . S
C2264 C2265 1.370 . S
C2264 C2266 1.363 . S
C2264 H2280 0.931 . S
C2265 C2264 1.370 . S
C2265 C2269 1.408 . S
C2266 C2264 1.363 . S
C2266 C2267 1.370 . S
C2266 C2270 1.524 . S
C2267 C2259 1.503 . S
C2267 C2266 1.370 . S
C2267 C2268 1.403 . S
C2268 C2267 1.403 . S
C2268 C2269 1.404 . S
C2268 C2271 1.539 . S
C2269 C2265 1.408 . S
C2269 C2268 1.404 . S
C2269 H2281 0.930 . S
C2270 C2266 1.524 . S
C2270 H2282 0.956 . S
C2270 H2283 0.961 . S
C2270 H2284 0.961 . S
C2271 C2268 1.539 . S
C2271 H2285 0.958 . S
C2271 H2286 0.961 . S
C2271 H2287 0.960 . S
H2272 C2256 0.931 . S
H2273 C2261 0.929 . S
H2274 C2262 0.960 . S
H2275 C2262 0.962 . S
H2276 C2262 0.960 . S
H2277 C2263 0.961 . S
H2278 C2263 0.961 . S
H2279 C2263 0.961 . S
H2280 C2264 0.931 . S
H2281 C2269 0.930 . S
H2282 C2270 0.956 . S
H2283 C2270 0.961 . S
H2284 C2270 0.961 . S
H2285 C2271 0.958 . S
H2286 C2271 0.961 . S
H2287 C2271 0.960 . S
C2288 C2289 1.391 1_545 S
C2288 C2290 1.394 . S
C2288 H2304 0.931 . S
C2289 C2288 1.391 1_565 S
C2289 C2293 1.376 . S
C2290 C2288 1.394 . S
C2290 C2291 1.369 . S
C2290 C2294 1.531 . S
C2291 C2290 1.369 . S
C2291 C2292 1.410 1_545 S
C2291 C2299 1.503 . S
C2292 C2291 1.410 1_565 S
C2292 C2293 1.392 . S
C2292 C2295 1.511 . S
C2293 C2289 1.376 . S
C2293 C2292 1.392 . S
C2293 H2305 0.929 . S
C2294 C2290 1.531 . S
C2294 H2306 0.960 . S
C2294 H2307 0.962 . S
C2294 H2308 0.960 . S
C2295 C2292 1.511 . S
C2295 H2309 0.961 . S
C2295 H2310 0.961 . S
C2295 H2311 0.961 . S
C2296 C2297 1.370 . S
C2296 C2298 1.363 . S
C2296 H2312 0.931 . S
C2297 C2296 1.370 . S
C2297 C2301 1.408 . S
C2298 C2296 1.363 . S
C2298 C2299 1.370 . S
C2298 C2302 1.524 1_545 S
C2299 C2291 1.503 . S
C2299 C2298 1.370 . S
C2299 C2300 1.403 . S
C2300 C2299 1.403 . S
C2300 C2301 1.404 . S
C2300 C2303 1.539 . S
C2301 C2297 1.408 . S
C2301 C2300 1.404 . S
C2301 H2313 0.930 . S
C2302 C2298 1.524 1_565 S
C2302 H2314 0.956 . S
C2302 H2315 0.961 . S
C2302 H2316 0.961 . S
C2303 C2300 1.539 . S
C2303 H2317 0.958 . S
C2303 H2318 0.961 . S
C2303 H2319 0.960 . S
H2304 C2288 0.931 . S
H2305 C2293 0.929 . S
H2306 C2294 0.960 . S
H2307 C2294 0.962 . S
H2308 C2294 0.960 . S
H2309 C2295 0.961 . S
H2310 C2295 0.961 . S
H2311 C2295 0.961 . S
H2312 C2296 0.931 . S
H2313 C2301 0.930 . S
H2314 C2302 0.956 . S
H2315 C2302 0.961 . S
H2316 C2302 0.961 . S
H2317 C2303 0.958 . S
H2318 C2303 0.961 . S
H2319 C2303 0.960 . S
C2320 C2321 1.391 . S
C2320 C2322 1.394 . S
C2320 H2336 0.931 . S
C2321 C2320 1.391 . S
C2321 C2325 1.376 . S
C2322 C2320 1.394 . S
C2322 C2323 1.369 . S
C2322 C2326 1.531 . S
C2323 C2322 1.369 . S
C2323 C2324 1.410 . S
C2323 C2331 1.503 . S
C2324 C2323 1.410 . S
C2324 C2325 1.392 . S
C2324 C2327 1.511 . S
C2325 C2321 1.376 . S
C2325 C2324 1.392 . S
C2325 H2337 0.929 . S
C2326 C2322 1.531 . S
C2326 H2338 0.960 . S
C2326 H2339 0.962 . S
C2326 H2340 0.960 . S
C2327 C2324 1.511 . S
C2327 H2341 0.961 . S
C2327 H2342 0.961 . S
C2327 H2343 0.961 . S
C2328 C2329 1.370 . S
C2328 C2330 1.363 . S
C2328 H2344 0.931 . S
C2329 C2328 1.370 . S
C2329 C2333 1.408 . S
C2330 C2328 1.363 . S
C2330 C2331 1.370 . S
C2330 C2334 1.524 . S
C2331 C2323 1.503 . S
C2331 C2330 1.370 . S
C2331 C2332 1.403 . S
C2332 C2331 1.403 . S
C2332 C2333 1.404 . S
C2332 C2335 1.539 . S
C2333 C2329 1.408 . S
C2333 C2332 1.404 . S
C2333 H2345 0.930 . S
C2334 C2330 1.524 . S
C2334 H2346 0.956 . S
C2334 H2347 0.961 . S
C2334 H2348 0.961 . S
C2335 C2332 1.539 . S
C2335 H2349 0.958 . S
C2335 H2350 0.961 . S
C2335 H2351 0.960 . S
H2336 C2320 0.931 . S
H2337 C2325 0.929 . S
H2338 C2326 0.960 . S
H2339 C2326 0.962 . S
H2340 C2326 0.960 . S
H2341 C2327 0.961 . S
H2342 C2327 0.961 . S
H2343 C2327 0.961 . S
H2344 C2328 0.931 . S
H2345 C2333 0.930 . S
H2346 C2334 0.956 . S
H2347 C2334 0.961 . S
H2348 C2334 0.961 . S
H2349 C2335 0.958 . S
H2350 C2335 0.961 . S
H2351 C2335 0.960 . S
C2352 C2353 1.391 . S
C2352 C2354 1.393 . S
C2352 H2368 0.931 1_545 S
C2353 C2352 1.391 . S
C2353 C2357 1.376 . S
C2354 C2352 1.393 . S
C2354 C2355 1.367 . S
C2354 C2358 1.533 1_545 S
C2355 C2354 1.367 . S
C2355 C2356 1.410 . S
C2355 C2363 1.503 . S
C2356 C2355 1.410 . S
C2356 C2357 1.392 . S
C2356 C2359 1.511 . S
C2357 C2353 1.376 . S
C2357 C2356 1.392 . S
C2357 H2369 0.929 . S
C2358 C2354 1.533 1_565 S
C2358 H2370 0.960 . S
C2358 H2371 0.962 . S
C2358 H2372 0.960 . S
C2359 C2356 1.511 . S
C2359 H2373 0.961 . S
C2359 H2374 0.961 . S
C2359 H2375 0.961 . S
C2360 C2361 1.370 1_565 S
C2360 C2362 1.368 . S
C2360 H2376 0.931 . S
C2361 C2360 1.370 1_545 S
C2361 C2365 1.408 . S
C2362 C2360 1.368 . S
C2362 C2363 1.356 1_565 S
C2362 C2366 1.535 . S
C2363 C2355 1.503 . S
C2363 C2362 1.356 1_545 S
C2363 C2364 1.403 . S
C2364 C2363 1.403 . S
C2364 C2365 1.404 . S
C2364 C2367 1.539 . S
C2365 C2361 1.408 . S
C2365 C2364 1.404 . S
C2365 H2377 0.930 . S
C2366 C2362 1.535 . S
C2366 H2378 0.956 . S
C2366 H2379 0.961 1_565 S
C2366 H2380 0.961 . S
C2367 C2364 1.539 . S
C2367 H2381 0.958 . S
C2367 H2382 0.961 . S
C2367 H2383 0.960 . S
H2368 C2352 0.931 1_565 S
H2369 C2357 0.929 . S
H2370 C2358 0.960 . S
H2371 C2358 0.962 . S
H2372 C2358 0.960 . S
H2373 C2359 0.961 . S
H2374 C2359 0.961 . S
H2375 C2359 0.961 . S
H2376 C2360 0.931 . S
H2377 C2365 0.930 . S
H2378 C2366 0.956 . S
H2379 C2366 0.961 1_545 S
H2380 C2366 0.961 . S
H2381 C2367 0.958 . S
H2382 C2367 0.961 . S
H2383 C2367 0.960 . S
C2384 C2385 1.391 . S
C2384 C2386 1.394 . S
C2384 H2400 0.931 . S
C2385 C2384 1.391 . S
C2385 C2389 1.376 . S
C2386 C2384 1.394 . S
C2386 C2387 1.369 . S
C2386 C2390 1.531 . S
C2387 C2386 1.369 . S
C2387 C2388 1.410 . S
C2387 C2395 1.503 . S
C2388 C2387 1.410 . S
C2388 C2389 1.392 . S
C2388 C2391 1.511 . S
C2389 C2385 1.376 . S
C2389 C2388 1.392 . S
C2389 H2401 0.929 . S
C2390 C2386 1.531 . S
C2390 H2402 0.960 . S
C2390 H2403 0.962 . S
C2390 H2404 0.960 1_554 S
C2391 C2388 1.511 . S
C2391 H2405 0.961 . S
C2391 H2406 0.961 . S
C2391 H2407 0.961 . S
C2392 C2393 1.370 . S
C2392 C2394 1.363 . S
C2392 H2408 0.931 . S
C2393 C2392 1.370 . S
C2393 C2397 1.408 . S
C2394 C2392 1.363 . S
C2394 C2395 1.370 . S
C2394 C2398 1.524 . S
C2395 C2387 1.503 . S
C2395 C2394 1.370 . S
C2395 C2396 1.403 . S
C2396 C2395 1.403 . S
C2396 C2397 1.404 . S
C2396 C2399 1.539 . S
C2397 C2393 1.408 . S
C2397 C2396 1.404 . S
C2397 H2409 0.930 . S
C2398 C2394 1.524 . S
C2398 H2410 0.956 . S
C2398 H2411 0.961 . S
C2398 H2412 0.961 . S
C2399 C2396 1.539 . S
C2399 H2413 0.958 1_554 S
C2399 H2414 0.961 . S
C2399 H2415 0.960 . S
H2400 C2384 0.931 . S
H2401 C2389 0.929 . S
H2402 C2390 0.960 . S
H2403 C2390 0.962 . S
H2404 C2390 0.960 1_556 S
H2405 C2391 0.961 . S
H2406 C2391 0.961 . S
H2407 C2391 0.961 . S
H2408 C2392 0.931 . S
H2409 C2397 0.930 . S
H2410 C2398 0.956 . S
H2411 C2398 0.961 . S
H2412 C2398 0.961 . S
H2413 C2399 0.958 1_556 S
H2414 C2399 0.961 . S
H2415 C2399 0.960 . S
C2416 C2417 1.391 . S
C2416 C2418 1.394 . S
C2416 H2432 0.931 . S
C2417 C2416 1.391 . S
C2417 C2421 1.376 . S
C2418 C2416 1.394 . S
C2418 C2419 1.369 . S
C2418 C2422 1.531 . S
C2419 C2418 1.369 . S
C2419 C2420 1.410 . S
C2419 C2427 1.503 . S
C2420 C2419 1.410 . S
C2420 C2421 1.392 . S
C2420 C2423 1.511 . S
C2421 C2417 1.376 . S
C2421 C2420 1.392 . S
C2421 H2433 0.929 . S
C2422 C2418 1.531 . S
C2422 H2434 0.960 . S
C2422 H2435 0.962 . S
C2422 H2436 0.960 1_545 S
C2423 C2420 1.511 . S
C2423 H2437 0.961 . S
C2423 H2438 0.961 . S
C2423 H2439 0.961 . S
C2424 C2425 1.370 . S
C2424 C2426 1.363 . S
C2424 H2440 0.931 . S
C2425 C2424 1.370 . S
C2425 C2429 1.408 . S
C2426 C2424 1.363 . S
C2426 C2427 1.370 . S
C2426 C2430 1.524 . S
C2427 C2419 1.503 . S
C2427 C2426 1.370 . S
C2427 C2428 1.403 . S
C2428 C2427 1.403 . S
C2428 C2429 1.404 . S
C2428 C2431 1.539 . S
C2429 C2425 1.408 . S
C2429 C2428 1.404 . S
C2429 H2441 0.930 . S
C2430 C2426 1.524 . S
C2430 H2442 0.956 . S
C2430 H2443 0.961 . S
C2430 H2444 0.961 . S
C2431 C2428 1.539 . S
C2431 H2445 0.963 . S
C2431 H2446 0.961 . S
C2431 H2447 0.960 . S
H2432 C2416 0.931 . S
H2433 C2421 0.929 . S
H2434 C2422 0.960 . S
H2435 C2422 0.962 . S
H2436 C2422 0.960 1_565 S
H2437 C2423 0.961 . S
H2438 C2423 0.961 . S
H2439 C2423 0.961 . S
H2440 C2424 0.931 . S
H2441 C2429 0.930 . S
H2442 C2430 0.956 . S
H2443 C2430 0.961 . S
H2444 C2430 0.961 . S
H2445 C2431 0.963 . S
H2446 C2431 0.961 . S
H2447 C2431 0.960 . S
C2448 C2449 1.391 . S
C2448 C2450 1.394 . S
C2448 H2464 0.931 . S
C2449 C2448 1.391 . S
C2449 C2453 1.376 . S
C2450 C2448 1.394 . S
C2450 C2451 1.369 . S
C2450 C2454 1.531 . S
C2451 C2450 1.369 . S
C2451 C2452 1.410 . S
C2451 C2459 1.503 . S
C2452 C2451 1.410 . S
C2452 C2453 1.392 . S
C2452 C2455 1.511 . S
C2453 C2449 1.376 . S
C2453 C2452 1.392 . S
C2453 H2465 0.929 . S
C2454 C2450 1.531 . S
C2454 H2466 0.960 . S
C2454 H2467 0.962 . S
C2454 H2468 0.960 . S
C2455 C2452 1.511 . S
C2455 H2469 0.961 . S
C2455 H2470 0.961 . S
C2455 H2471 0.961 . S
C2456 C2457 1.370 . S
C2456 C2458 1.363 . S
C2456 H2472 0.931 . S
C2457 C2456 1.370 . S
C2457 C2461 1.408 . S
C2458 C2456 1.363 . S
C2458 C2459 1.370 . S
C2458 C2462 1.524 . S
C2459 C2451 1.503 . S
C2459 C2458 1.370 . S
C2459 C2460 1.403 . S
C2460 C2459 1.403 . S
C2460 C2461 1.404 . S
C2460 C2463 1.539 . S
C2461 C2457 1.408 . S
C2461 C2460 1.404 . S
C2461 H2473 0.930 . S
C2462 C2458 1.524 . S
C2462 H2474 0.956 . S
C2462 H2475 0.961 . S
C2462 H2476 0.961 . S
C2463 C2460 1.539 . S
C2463 H2477 0.958 . S
C2463 H2478 0.961 . S
C2463 H2479 0.960 . S
H2464 C2448 0.931 . S
H2465 C2453 0.929 . S
H2466 C2454 0.960 . S
H2467 C2454 0.962 . S
H2468 C2454 0.960 . S
H2469 C2455 0.961 . S
H2470 C2455 0.961 . S
H2471 C2455 0.961 . S
H2472 C2456 0.931 . S
H2473 C2461 0.930 . S
H2474 C2462 0.956 . S
H2475 C2462 0.961 . S
H2476 C2462 0.961 . S
H2477 C2463 0.958 . S
H2478 C2463 0.961 . S
H2479 C2463 0.960 . S
C2480 C2481 1.391 . S
C2480 C2482 1.394 . S
C2480 H2496 0.931 . S
C2481 C2480 1.391 . S
C2481 C2485 1.376 . S
C2482 C2480 1.394 . S
C2482 C2483 1.369 . S
C2482 C2486 1.531 . S
C2483 C2482 1.369 . S
C2483 C2484 1.410 . S
C2483 C2491 1.503 . S
C2484 C2483 1.410 . S
C2484 C2485 1.392 . S
C2484 C2487 1.511 . S
C2485 C2481 1.376 . S
C2485 C2484 1.392 . S
C2485 H2497 0.929 . S
C2486 C2482 1.531 . S
C2486 H2498 0.960 . S
C2486 H2499 0.962 . S
C2486 H2500 0.960 . S
C2487 C2484 1.511 . S
C2487 H2501 0.961 . S
C2487 H2502 0.961 . S
C2487 H2503 0.961 . S
C2488 C2489 1.370 . S
C2488 C2490 1.363 . S
C2488 H2504 0.931 . S
C2489 C2488 1.370 . S
C2489 C2493 1.408 . S
C2490 C2488 1.363 . S
C2490 C2491 1.370 . S
C2490 C2494 1.524 . S
C2491 C2483 1.503 . S
C2491 C2490 1.370 . S
C2491 C2492 1.403 . S
C2492 C2491 1.403 . S
C2492 C2493 1.404 . S
C2492 C2495 1.539 . S
C2493 C2489 1.408 . S
C2493 C2492 1.404 . S
C2493 H2505 0.930 . S
C2494 C2490 1.524 . S
C2494 H2506 0.956 . S
C2494 H2507 0.961 . S
C2494 H2508 0.961 . S
C2495 C2492 1.539 . S
C2495 H2509 0.958 . S
C2495 H2510 0.961 . S
C2495 H2511 0.960 . S
H2496 C2480 0.931 . S
H2497 C2485 0.929 . S
H2498 C2486 0.960 . S
H2499 C2486 0.962 . S
H2500 C2486 0.960 . S
H2501 C2487 0.961 . S
H2502 C2487 0.961 . S
H2503 C2487 0.961 . S
H2504 C2488 0.931 . S
H2505 C2493 0.930 . S
H2506 C2494 0.956 . S
H2507 C2494 0.961 . S
H2508 C2494 0.961 . S
H2509 C2495 0.958 . S
H2510 C2495 0.961 . S
H2511 C2495 0.960 . S
C2512 C2513 1.391 . S
C2512 C2514 1.394 . S
C2512 H2528 0.931 . S
C2513 C2512 1.391 . S
C2513 C2517 1.376 . S
C2514 C2512 1.394 . S
C2514 C2515 1.369 . S
C2514 C2518 1.531 . S
C2515 C2514 1.369 . S
C2515 C2516 1.410 . S
C2515 C2523 1.503 . S
C2516 C2515 1.410 . S
C2516 C2517 1.392 . S
C2516 C2519 1.511 . S
C2517 C2513 1.376 . S
C2517 C2516 1.392 . S
C2517 H2529 0.929 . S
C2518 C2514 1.531 . S
C2518 H2530 0.960 . S
C2518 H2531 0.962 . S
C2518 H2532 0.960 . S
C2519 C2516 1.511 . S
C2519 H2533 0.961 . S
C2519 H2534 0.961 . S
C2519 H2535 0.961 . S
C2520 C2521 1.370 . S
C2520 C2522 1.363 . S
C2520 H2536 0.931 . S
C2521 C2520 1.370 . S
C2521 C2525 1.408 . S
C2522 C2520 1.363 . S
C2522 C2523 1.370 . S
C2522 C2526 1.524 . S
C2523 C2515 1.503 . S
C2523 C2522 1.370 . S
C2523 C2524 1.403 . S
C2524 C2523 1.403 . S
C2524 C2525 1.404 . S
C2524 C2527 1.539 . S
C2525 C2521 1.408 . S
C2525 C2524 1.404 . S
C2525 H2537 0.930 . S
C2526 C2522 1.524 . S
C2526 H2538 0.956 . S
C2526 H2539 0.961 . S
C2526 H2540 0.961 . S
C2527 C2524 1.539 . S
C2527 H2541 0.958 . S
C2527 H2542 0.961 . S
C2527 H2543 0.960 . S
H2528 C2512 0.931 . S
H2529 C2517 0.929 . S
H2530 C2518 0.960 . S
H2531 C2518 0.962 . S
H2532 C2518 0.960 . S
H2533 C2519 0.961 . S
H2534 C2519 0.961 . S
H2535 C2519 0.961 . S
H2536 C2520 0.931 . S
H2537 C2525 0.930 . S
H2538 C2526 0.956 . S
H2539 C2526 0.961 . S
H2540 C2526 0.961 . S
H2541 C2527 0.958 . S
H2542 C2527 0.961 . S
H2543 C2527 0.960 . S
C2544 C2545 1.391 . S
C2544 C2546 1.394 . S
C2544 H2560 0.931 . S
C2545 C2544 1.391 . S
C2545 C2549 1.376 . S
C2546 C2544 1.394 . S
C2546 C2547 1.369 . S
C2546 C2550 1.531 . S
C2547 C2546 1.369 . S
C2547 C2548 1.410 . S
C2547 C2555 1.503 . S
C2548 C2547 1.410 . S
C2548 C2549 1.392 . S
C2548 C2551 1.511 . S
C2549 C2545 1.376 . S
C2549 C2548 1.392 . S
C2549 H2561 0.929 . S
C2550 C2546 1.531 . S
C2550 H2562 0.960 . S
C2550 H2563 0.962 . S
C2550 H2564 0.960 . S
C2551 C2548 1.511 . S
C2551 H2565 0.961 . S
C2551 H2566 0.961 . S
C2551 H2567 0.961 . S
C2552 C2553 1.370 . S
C2552 C2554 1.363 . S
C2552 H2568 0.931 . S
C2553 C2552 1.370 . S
C2553 C2557 1.408 . S
C2554 C2552 1.363 . S
C2554 C2555 1.370 . S
C2554 C2558 1.524 . S
C2555 C2547 1.503 . S
C2555 C2554 1.370 . S
C2555 C2556 1.403 . S
C2556 C2555 1.403 . S
C2556 C2557 1.404 . S
C2556 C2559 1.539 . S
C2557 C2553 1.408 . S
C2557 C2556 1.404 . S
C2557 H2569 0.930 . S
C2558 C2554 1.524 . S
C2558 H2570 0.956 . S
C2558 H2571 0.961 . S
C2558 H2572 0.961 . S
C2559 C2556 1.539 . S
C2559 H2573 0.958 . S
C2559 H2574 0.961 . S
C2559 H2575 0.960 . S
H2560 C2544 0.931 . S
H2561 C2549 0.929 . S
H2562 C2550 0.960 . S
H2563 C2550 0.962 . S
H2564 C2550 0.960 . S
H2565 C2551 0.961 . S
H2566 C2551 0.961 . S
H2567 C2551 0.961 . S
H2568 C2552 0.931 . S
H2569 C2557 0.930 . S
H2570 C2558 0.956 . S
H2571 C2558 0.961 . S
H2572 C2558 0.961 . S
H2573 C2559 0.958 . S
H2574 C2559 0.961 . S
H2575 C2559 0.960 . S
C2576 C2577 1.391 . S
C2576 C2578 1.394 . S
C2576 H2592 0.931 . S
C2577 C2576 1.391 . S
C2577 C2581 1.376 1_554 S
C2578 C2576 1.394 . S
C2578 C2579 1.369 . S
C2578 C2582 1.531 . S
C2579 C2578 1.369 . S
C2579 C2580 1.410 1_554 S
C2579 C2587 1.503 . S
C2580 C2579 1.410 1_556 S
C2580 C2581 1.392 . S
C2580 C2583 1.511 . S
C2581 C2577 1.376 1_556 S
C2581 C2580 1.392 . S
C2581 H2593 0.929 . S
C2582 C2578 1.531 . S
C2582 H2594 0.960 . S
C2582 H2595 0.962 . S
C2582 H2596 0.960 . S
C2583 C2580 1.511 . S
C2583 H2597 0.961 . S
C2583 H2598 0.961 1_556 S
C2583 H2599 0.961 . S
C2584 C2585 1.370 . S
C2584 C2586 1.363 . S
C2584 H2600 0.931 . S
C2585 C2584 1.370 . S
C2585 C2589 1.408 1_554 S
C2586 C2584 1.363 . S
C2586 C2587 1.370 . S
C2586 C2590 1.524 . S
C2587 C2579 1.503 . S
C2587 C2586 1.370 . S
C2587 C2588 1.403 1_554 S
C2588 C2587 1.403 1_556 S
C2588 C2589 1.404 . S
C2588 C2591 1.539 . S
C2589 C2585 1.408 1_556 S
C2589 C2588 1.404 . S
C2589 H2601 0.930 . S
C2590 C2586 1.524 . S
C2590 H2602 0.956 . S
C2590 H2603 0.961 . S
C2590 H2604 0.961 . S
C2591 C2588 1.539 . S
C2591 H2605 0.958 . S
C2591 H2606 0.961 . S
C2591 H2607 0.960 . S
H2592 C2576 0.931 . S
H2593 C2581 0.929 . S
H2594 C2582 0.960 . S
H2595 C2582 0.962 . S
H2596 C2582 0.960 . S
H2597 C2583 0.961 . S
H2598 C2583 0.961 1_554 S
H2599 C2583 0.961 . S
H2600 C2584 0.931 . S
H2601 C2589 0.930 . S
H2602 C2590 0.956 . S
H2603 C2590 0.961 . S
H2604 C2590 0.961 . S
H2605 C2591 0.958 . S
H2606 C2591 0.961 . S
H2607 C2591 0.960 . S
C2608 C2609 1.391 1_655 S
C2608 C2610 1.394 . S
C2608 H2624 0.931 . S
C2609 C2608 1.391 1_455 S
C2609 C2613 1.376 . S
C2610 C2608 1.394 . S
C2610 C2611 1.369 1_655 S
C2610 C2614 1.531 . S
C2611 C2610 1.369 1_455 S
C2611 C2612 1.410 . S
C2611 C2619 1.503 . S
C2612 C2611 1.410 . S
C2612 C2613 1.392 . S
C2612 C2615 1.511 . S
C2613 C2609 1.376 . S
C2613 C2612 1.392 . S
C2613 H2625 0.929 . S
C2614 C2610 1.531 . S
C2614 H2626 0.960 . S
C2614 H2627 0.962 . S
C2614 H2628 0.960 . S
C2615 C2612 1.511 . S
C2615 H2629 0.961 . S
C2615 H2630 0.961 . S
C2615 H2631 0.961 . S
C2616 C2617 1.370 . S
C2616 C2618 1.363 . S
C2616 H2632 0.930 1_455 S
C2617 C2616 1.370 . S
C2617 C2621 1.408 . S
C2618 C2616 1.363 . S
C2618 C2619 1.370 . S
C2618 C2622 1.524 . S
C2619 C2611 1.503 . S
C2619 C2618 1.370 . S
C2619 C2620 1.403 . S
C2620 C2619 1.403 . S
C2620 C2621 1.404 . S
C2620 C2623 1.539 . S
C2621 C2617 1.408 . S
C2621 C2620 1.404 . S
C2621 H2633 0.930 . S
C2622 C2618 1.524 . S
C2622 H2634 0.956 1_455 S
C2622 H2635 0.961 . S
C2622 H2636 0.961 . S
C2623 C2620 1.539 . S
C2623 H2637 0.958 . S
C2623 H2638 0.961 . S
C2623 H2639 0.960 . S
H2624 C2608 0.931 . S
H2625 C2613 0.929 . S
H2626 C2614 0.960 . S
H2627 C2614 0.962 . S
H2628 C2614 0.960 . S
H2629 C2615 0.961 . S
H2630 C2615 0.961 . S
H2631 C2615 0.961 . S
H2632 C2616 0.930 1_655 S
H2633 C2621 0.930 . S
H2634 C2622 0.956 1_655 S
H2635 C2622 0.961 . S
H2636 C2622 0.961 . S
H2637 C2623 0.958 . S
H2638 C2623 0.961 . S
H2639 C2623 0.960 . S
C2640 C2641 1.391 . S
C2640 C2642 1.394 . S
C2640 H2656 0.931 . S
C2641 C2640 1.391 . S
C2641 C2645 1.376 . S
C2642 C2640 1.394 . S
C2642 C2643 1.369 . S
C2642 C2646 1.531 . S
C2643 C2642 1.369 . S
C2643 C2644 1.410 . S
C2643 C2651 1.503 . S
C2644 C2643 1.410 . S
C2644 C2645 1.392 . S
C2644 C2647 1.511 . S
C2645 C2641 1.376 . S
C2645 C2644 1.392 . S
C2645 H2657 0.929 . S
C2646 C2642 1.531 . S
C2646 H2658 0.960 . S
C2646 H2659 0.962 . S
C2646 H2660 0.960 . S
C2647 C2644 1.511 . S
C2647 H2661 0.961 . S
C2647 H2662 0.961 . S
C2647 H2663 0.961 . S
C2648 C2649 1.370 . S
C2648 C2650 1.363 . S
C2648 H2664 0.931 . S
C2649 C2648 1.370 . S
C2649 C2653 1.408 . S
C2650 C2648 1.363 . S
C2650 C2651 1.370 . S
C2650 C2654 1.524 . S
C2651 C2643 1.503 . S
C2651 C2650 1.370 . S
C2651 C2652 1.403 . S
C2652 C2651 1.403 . S
C2652 C2653 1.404 . S
C2652 C2655 1.539 . S
C2653 C2649 1.408 . S
C2653 C2652 1.404 . S
C2653 H2665 0.930 . S
C2654 C2650 1.524 . S
C2654 H2666 0.956 . S
C2654 H2667 0.961 . S
C2654 H2668 0.961 . S
C2655 C2652 1.539 . S
C2655 H2669 0.958 . S
C2655 H2670 0.961 . S
C2655 H2671 0.960 . S
H2656 C2640 0.931 . S
H2657 C2645 0.929 . S
H2658 C2646 0.960 . S
H2659 C2646 0.962 . S
H2660 C2646 0.960 . S
H2661 C2647 0.961 . S
H2662 C2647 0.961 . S
H2663 C2647 0.961 . S
H2664 C2648 0.931 . S
H2665 C2653 0.930 . S
H2666 C2654 0.956 . S
H2667 C2654 0.961 . S
H2668 C2654 0.961 . S
H2669 C2655 0.958 . S
H2670 C2655 0.961 . S
H2671 C2655 0.960 . S
C2672 C2673 1.391 . S
C2672 C2674 1.394 . S
C2672 H2688 0.931 . S
C2673 C2672 1.391 . S
C2673 C2677 1.376 . S
C2674 C2672 1.394 . S
C2674 C2675 1.369 . S
C2674 C2678 1.531 . S
C2675 C2674 1.369 . S
C2675 C2676 1.410 . S
C2675 C2683 1.503 . S
C2676 C2675 1.410 . S
C2676 C2677 1.392 . S
C2676 C2679 1.511 . S
C2677 C2673 1.376 . S
C2677 C2676 1.392 . S
C2677 H2689 0.929 . S
C2678 C2674 1.531 . S
C2678 H2690 0.960 . S
C2678 H2691 0.962 . S
C2678 H2692 0.960 . S
C2679 C2676 1.511 . S
C2679 H2693 0.961 . S
C2679 H2694 0.961 . S
C2679 H2695 0.961 . S
C2680 C2681 1.370 . S
C2680 C2682 1.363 . S
C2680 H2696 0.931 . S
C2681 C2680 1.370 . S
C2681 C2685 1.408 . S
C2682 C2680 1.363 . S
C2682 C2683 1.370 . S
C2682 C2686 1.524 . S
C2683 C2675 1.503 . S
C2683 C2682 1.370 . S
C2683 C2684 1.403 . S
C2684 C2683 1.403 . S
C2684 C2685 1.404 . S
C2684 C2687 1.539 . S
C2685 C2681 1.408 . S
C2685 C2684 1.404 . S
C2685 H2697 0.930 . S
C2686 C2682 1.524 . S
C2686 H2698 0.956 . S
C2686 H2699 0.961 . S
C2686 H2700 0.961 . S
C2687 C2684 1.539 . S
C2687 H2701 0.958 . S
C2687 H2702 0.961 . S
C2687 H2703 0.960 . S
H2688 C2672 0.931 . S
H2689 C2677 0.929 . S
H2690 C2678 0.960 . S
H2691 C2678 0.962 . S
H2692 C2678 0.960 . S
H2693 C2679 0.961 . S
H2694 C2679 0.961 . S
H2695 C2679 0.961 . S
H2696 C2680 0.931 . S
H2697 C2685 0.930 . S
H2698 C2686 0.956 . S
H2699 C2686 0.961 . S
H2700 C2686 0.961 . S
H2701 C2687 0.958 . S
H2702 C2687 0.961 . S
H2703 C2687 0.960 . S
C2704 C2705 1.391 . S
C2704 C2706 1.394 . S
C2704 H2720 0.931 . S
C2705 C2704 1.391 . S
C2705 C2709 1.376 . S
C2706 C2704 1.394 . S
C2706 C2707 1.369 . S
C2706 C2710 1.531 . S
C2707 C2706 1.369 . S
C2707 C2708 1.410 . S
C2707 C2715 1.503 . S
C2708 C2707 1.410 . S
C2708 C2709 1.392 . S
C2708 C2711 1.511 . S
C2709 C2705 1.376 . S
C2709 C2708 1.392 . S
C2709 H2721 0.929 . S
C2710 C2706 1.531 . S
C2710 H2722 0.960 . S
C2710 H2723 0.963 1_455 S
C2710 H2724 0.960 . S
C2711 C2708 1.511 . S
C2711 H2725 0.961 . S
C2711 H2726 0.961 . S
C2711 H2727 0.961 . S
C2712 C2713 1.370 . S
C2712 C2714 1.363 . S
C2712 H2728 0.931 . S
C2713 C2712 1.370 . S
C2713 C2717 1.408 . S
C2714 C2712 1.363 . S
C2714 C2715 1.370 . S
C2714 C2718 1.524 . S
C2715 C2707 1.503 . S
C2715 C2714 1.370 . S
C2715 C2716 1.403 . S
C2716 C2715 1.403 . S
C2716 C2717 1.404 . S
C2716 C2719 1.539 . S
C2717 C2713 1.408 . S
C2717 C2716 1.404 . S
C2717 H2729 0.930 . S
C2718 C2714 1.524 . S
C2718 H2730 0.956 . S
C2718 H2731 0.961 . S
C2718 H2732 0.961 . S
C2719 C2716 1.539 . S
C2719 H2733 0.958 . S
C2719 H2734 0.961 . S
C2719 H2735 0.960 . S
H2720 C2704 0.931 . S
H2721 C2709 0.929 . S
H2722 C2710 0.960 . S
H2723 C2710 0.963 1_655 S
H2724 C2710 0.960 . S
H2725 C2711 0.961 . S
H2726 C2711 0.961 . S
H2727 C2711 0.961 . S
H2728 C2712 0.931 . S
H2729 C2717 0.930 . S
H2730 C2718 0.956 . S
H2731 C2718 0.961 . S
H2732 C2718 0.961 . S
H2733 C2719 0.958 . S
H2734 C2719 0.961 . S
H2735 C2719 0.960 . S
C817 C33 0.585 . S
C825 C713 0.553 . S
C849 C611 0.605 . S
C857 C67 0.560 . S
C881 C645 0.574 . S
C889 C101 0.559 . S
C913 C679 0.555 . S
C921 C135 0.574 . S
C945 C169 0.546 . S
C953 C815 0.577 . S
C977 C747 0.656 . S
C985 C203 0.521 . S
C1009 C781 0.637 1_455 S
C1017 C237 0.517 . S
C1041 C577 0.547 . S
C1049 C271 0.576 . S
C1073 C305 0.666 . S
C1081 C543 0.519 . S
C1105 C441 0.447 . S
C1113 C339 0.608 . S
C1137 C373 0.497 . S
C1145 C475 0.594 . S
C1169 C509 0.449 . S
C1177 C407 0.607 . S
C1201 C648 1.758 . S
C1209 C9 1.717 . S
C1233 C43 1.729 . S
C1241 C682 1.756 . S
C1265 C580 1.741 . S
C1273 C77 1.695 1_565 S
C1297 C111 1.690 . S
C1305 C614 1.750 . S
C1329 C716 1.756 . S
C1337 C145 1.718 . S
C1361 C750 1.756 . S
C1369 C179 1.703 . S
C1393 C546 1.740 1_655 S
C1401 C213 1.702 . S
C1425 C247 1.720 . S
C1433 C784 1.753 . S
C1457 C281 1.680 . S
C1465 C70 1.751 . S
C1489 C315 1.702 . S
C1497 C104 1.758 . S
C1521 C349 1.715 . S
C1529 C2 1.752 1_565 S
C1553 C36 1.756 . S
C1561 C383 1.703 . S
C1585 C417 1.714 1_556 S
C1593 C206 1.758 . S
C1617 C240 1.742 . S
C1625 C451 1.699 . S
C1649 C138 1.758 . S
C1657 C485 1.706 . S
C1681 C172 1.758 . S
C1689 C519 1.717 . S
C1713 C410 1.751 . S
C1721 C553 1.699 . S
C1745 C274 1.757 1_556 S
C1753 C587 1.704 . S
C1777 C621 1.682 . S
C1785 C308 1.755 . S
C1809 C655 1.713 1_655 S
C1817 C342 1.758 . S
C1841 C376 1.752 . S
C1849 C689 1.699 . S
C1873 C723 1.678 . S
C1881 C478 1.752 . S
C1905 C512 1.753 . S
C1913 C757 1.700 . S
C1937 C791 1.725 . S
C1945 C444 1.758 . S
C1969 C20 1.102 . S
C1977 C768 1.107 . S
C2001 C564 1.090 . S
C2009 C54 1.122 . S
C2033 C88 1.157 . S
C2041 C802 1.144 . S
C2065 C734 1.099 . S
C2073 C122 1.107 . S
C2097 C156 1.079 . S
C2105 C632 1.114 . S
C2129 C666 1.075 . S
C2137 C190 1.109 . S
C2161 C224 1.168 . S
C2169 C700 1.142 . S
C2193 C598 1.168 . S
C2201 C258 1.139 . S
C2225 C462 1.076 . S
C2233 C292 1.107 . S
C2257 C496 1.153 . S
C2265 C326 1.127 . S
C2289 C360 1.114 . S
C2297 C530 1.133 . S
C2321 C394 1.153 . S
C2329 C428 1.143 . S
C2353 C515 1.069 . S
C2361 C5 1.103 . S
C2385 C39 1.115 . S
C2393 C413 1.136 . S
C2417 C447 1.118 . S
C2425 C73 1.137 . S
C2449 C481 1.064 . S
C2457 C107 1.106 . S
C2481 C141 1.100 . S
C2489 C311 1.108 . S
C2513 C345 1.068 . S
C2521 C175 1.103 . S
C2545 C209 1.125 . S
C2553 C379 1.116 . S
C2577 C277 1.149 . S
C2585 C243 1.148 . S
C2609 C685 1.085 . S
C2617 C549 1.104 . S
C2641 C787 1.064 . S
C2649 C583 1.107 . S
C2673 C719 1.159 . S
C2681 C617 1.130 . S
C2705 C753 1.184 . S
C2713 C651 1.154 . S
