# Generated by pormake.
# Topology afi, (4)-cn, num edge types: 1
# Building blocks:
#     Node 0, Type 0, BuildingBlock: KUFVIS_clean_sbu_0, # of connection points: 4
#     Node 1, Type 0, BuildingBlock: KUFVIS_clean_sbu_0, # of connection points: 4
#     Node 2, Type 0, BuildingBlock: KUFVIS_clean_sbu_0, # of connection points: 4
#     Node 3, Type 0, BuildingBlock: KUFVIS_clean_sbu_0, # of connection points: 4
#     Node 4, Type 0, BuildingBlock: KUFVIS_clean_sbu_0, # of connection points: 4
#     Node 5, Type 0, BuildingBlock: KUFVIS_clean_sbu_0, # of connection points: 4
#     Node 6, Type 0, BuildingBlock: KUFVIS_clean_sbu_0, # of connection points: 4
#     Node 7, Type 0, BuildingBlock: KUFVIS_clean_sbu_0, # of connection points: 4
#     Node 8, Type 0, BuildingBlock: KUFVIS_clean_sbu_0, # of connection points: 4
#     Node 9, Type 0, BuildingBlock: KUFVIS_clean_sbu_0, # of connection points: 4
#     Node 10, Type 0, BuildingBlock: KUFVIS_clean_sbu_0, # of connection points: 4
#     Node 11, Type 0, BuildingBlock: KUFVIS_clean_sbu_0, # of connection points: 4
#     Node 12, Type 0, BuildingBlock: KUFVIS_clean_sbu_0, # of connection points: 4
#     Node 13, Type 0, BuildingBlock: KUFVIS_clean_sbu_0, # of connection points: 4
#     Node 14, Type 0, BuildingBlock: KUFVIS_clean_sbu_0, # of connection points: 4
#     Node 15, Type 0, BuildingBlock: KUFVIS_clean_sbu_0, # of connection points: 4
#     Node 16, Type 0, BuildingBlock: KUFVIS_clean_sbu_0, # of connection points: 4
#     Node 17, Type 0, BuildingBlock: KUFVIS_clean_sbu_0, # of connection points: 4
#     Node 18, Type 0, BuildingBlock: KUFVIS_clean_sbu_0, # of connection points: 4
#     Node 19, Type 0, BuildingBlock: KUFVIS_clean_sbu_0, # of connection points: 4
#     Node 20, Type 0, BuildingBlock: KUFVIS_clean_sbu_0, # of connection points: 4
#     Node 21, Type 0, BuildingBlock: KUFVIS_clean_sbu_0, # of connection points: 4
#     Node 22, Type 0, BuildingBlock: KUFVIS_clean_sbu_0, # of connection points: 4
#     Node 23, Type 0, BuildingBlock: KUFVIS_clean_sbu_0, # of connection points: 4
#     Edge 24, Type (0, 0), BuildingBlock: XUDNAN_clean_linker_2, # of connection points: 2
#     Edge 25, Type (0, 0), BuildingBlock: XUDNAN_clean_linker_2, # of connection points: 2
#     Edge 26, Type (0, 0), BuildingBlock: XUDNAN_clean_linker_2, # of connection points: 2
#     Edge 27, Type (0, 0), BuildingBlock: XUDNAN_clean_linker_2, # of connection points: 2
#     Edge 28, Type (0, 0), BuildingBlock: XUDNAN_clean_linker_2, # of connection points: 2
#     Edge 29, Type (0, 0), BuildingBlock: XUDNAN_clean_linker_2, # of connection points: 2
#     Edge 30, Type (0, 0), BuildingBlock: XUDNAN_clean_linker_2, # of connection points: 2
#     Edge 31, Type (0, 0), BuildingBlock: XUDNAN_clean_linker_2, # of connection points: 2
#     Edge 32, Type (0, 0), BuildingBlock: XUDNAN_clean_linker_2, # of connection points: 2
#     Edge 33, Type (0, 0), BuildingBlock: XUDNAN_clean_linker_2, # of connection points: 2
#     Edge 34, Type (0, 0), BuildingBlock: XUDNAN_clean_linker_2, # of connection points: 2
#     Edge 35, Type (0, 0), BuildingBlock: XUDNAN_clean_linker_2, # of connection points: 2
#     Edge 36, Type (0, 0), BuildingBlock: XUDNAN_clean_linker_2, # of connection points: 2
#     Edge 37, Type (0, 0), BuildingBlock: XUDNAN_clean_linker_2, # of connection points: 2
#     Edge 38, Type (0, 0), BuildingBlock: XUDNAN_clean_linker_2, # of connection points: 2
#     Edge 39, Type (0, 0), BuildingBlock: XUDNAN_clean_linker_2, # of connection points: 2
#     Edge 40, Type (0, 0), BuildingBlock: XUDNAN_clean_linker_2, # of connection points: 2
#     Edge 41, Type (0, 0), BuildingBlock: XUDNAN_clean_linker_2, # of connection points: 2
#     Edge 42, Type (0, 0), BuildingBlock: XUDNAN_clean_linker_2, # of connection points: 2
#     Edge 43, Type (0, 0), BuildingBlock: XUDNAN_clean_linker_2, # of connection points: 2
#     Edge 44, Type (0, 0), BuildingBlock: XUDNAN_clean_linker_2, # of connection points: 2
#     Edge 45, Type (0, 0), BuildingBlock: XUDNAN_clean_linker_2, # of connection points: 2
#     Edge 46, Type (0, 0), BuildingBlock: XUDNAN_clean_linker_2, # of connection points: 2
#     Edge 47, Type (0, 0), BuildingBlock: XUDNAN_clean_linker_2, # of connection points: 2
#     Edge 48, Type (0, 0), BuildingBlock: XUDNAN_clean_linker_2, # of connection points: 2
#     Edge 49, Type (0, 0), BuildingBlock: XUDNAN_clean_linker_2, # of connection points: 2
#     Edge 50, Type (0, 0), BuildingBlock: XUDNAN_clean_linker_2, # of connection points: 2
#     Edge 51, Type (0, 0), BuildingBlock: XUDNAN_clean_linker_2, # of connection points: 2
#     Edge 52, Type (0, 0), BuildingBlock: XUDNAN_clean_linker_2, # of connection points: 2
#     Edge 53, Type (0, 0), BuildingBlock: XUDNAN_clean_linker_2, # of connection points: 2
#     Edge 54, Type (0, 0), BuildingBlock: XUDNAN_clean_linker_2, # of connection points: 2
#     Edge 55, Type (0, 0), BuildingBlock: XUDNAN_clean_linker_2, # of connection points: 2
#     Edge 56, Type (0, 0), BuildingBlock: XUDNAN_clean_linker_2, # of connection points: 2
#     Edge 57, Type (0, 0), BuildingBlock: XUDNAN_clean_linker_2, # of connection points: 2
#     Edge 58, Type (0, 0), BuildingBlock: XUDNAN_clean_linker_2, # of connection points: 2
#     Edge 59, Type (0, 0), BuildingBlock: XUDNAN_clean_linker_2, # of connection points: 2
#     Edge 60, Type (0, 0), BuildingBlock: XUDNAN_clean_linker_2, # of connection points: 2
#     Edge 61, Type (0, 0), BuildingBlock: XUDNAN_clean_linker_2, # of connection points: 2
#     Edge 62, Type (0, 0), BuildingBlock: XUDNAN_clean_linker_2, # of connection points: 2
#     Edge 63, Type (0, 0), BuildingBlock: XUDNAN_clean_linker_2, # of connection points: 2
#     Edge 64, Type (0, 0), BuildingBlock: XUDNAN_clean_linker_2, # of connection points: 2
#     Edge 65, Type (0, 0), BuildingBlock: XUDNAN_clean_linker_2, # of connection points: 2
#     Edge 66, Type (0, 0), BuildingBlock: XUDNAN_clean_linker_2, # of connection points: 2
#     Edge 67, Type (0, 0), BuildingBlock: XUDNAN_clean_linker_2, # of connection points: 2
#     Edge 68, Type (0, 0), BuildingBlock: XUDNAN_clean_linker_2, # of connection points: 2
#     Edge 69, Type (0, 0), BuildingBlock: XUDNAN_clean_linker_2, # of connection points: 2
#     Edge 70, Type (0, 0), BuildingBlock: XUDNAN_clean_linker_2, # of connection points: 2
#     Edge 71, Type (0, 0), BuildingBlock: XUDNAN_clean_linker_2, # of connection points: 2
# Relax obj value: 0.074
# Max RMSD: 0.079
# Mean RMSD: 0.079
data_MOF--net-afi--node1-KUFVIS_clean_sbu_0--edge1-XUDNAN_clean_linker_2
_symmetry_space_group_name_H-M    P1
_symmetry_Int_Tables_number       1
_symmetry_cell_setting            triclinic
loop_
_symmetry_equiv_pos_as_xyz
'x, y, z'
_cell_length_a     66.971855
_cell_length_b     66.974856
_cell_length_c     38.994132
_cell_angle_alpha  89.9444
_cell_angle_beta   90.036739
_cell_angle_gamma 119.97969
loop_
_atom_site_label
_atom_site_type_symbol
_atom_site_fract_x
_atom_site_fract_y
_atom_site_fract_z
_atom_type_partial_charge
Mn0 Mn 0.47605 0.12684 0.19916 0.0
Mn1 Mn 0.52288 0.16429 0.15321 0.0
C2 C 0.51231 0.13276 0.21332 0.0
C3 C 0.44617 0.08926 0.21059 0.0
C4 C 0.49905 0.1796 0.20459 0.0
O5 O 0.46173 0.12934 0.15428 0.0
O6 O 0.49436 0.15386 0.1257 0.0
C7 C 0.52241 0.13438 0.09695 0.0
N8 N 0.53364 0.14908 0.12333 0.0
C9 C 0.56888 0.14935 0.11014 0.0
C10 C 0.5577 0.13424 0.08277 0.0
C11 C 0.53436 0.1267 0.07619 0.0
C12 C 0.55618 0.15665 0.12967 0.0
H13 H 0.50454 0.12866 0.09169 0.0
C14 C 0.47241 0.14101 0.12774 0.0
O15 O 0.44514 0.10712 0.22115 0.0
O16 O 0.46378 0.09325 0.19196 0.0
N17 N 0.5516 0.17529 0.17674 0.0
C18 C 0.55863 0.18671 0.20717 0.0
C19 C 0.58103 0.19403 0.21908 0.0
C20 C 0.59598 0.18952 0.1996 0.0
C21 C 0.58823 0.1774 0.16862 0.0
C22 C 0.56571 0.17054 0.15805 0.0
H23 H 0.54701 0.1897 0.22258 0.0
O24 O 0.4962 0.12586 0.23632 0.0
O25 O 0.50715 0.13707 0.18307 0.0
O26 O 0.48307 0.15963 0.2139 0.0
O27 O 0.5143 0.18254 0.18254 0.0
C28 C 0.60158 0.17088 0.14868 0.0
C29 C 0.59193 0.15692 0.1194 0.0
H30 H 0.56679 0.12811 0.06688 0.0
H31 H 0.5256 0.11501 0.05515 0.0
H32 H 0.58671 0.20293 0.24337 0.0
H33 H 0.61314 0.19492 0.20911 0.0
H34 H 0.61905 0.17595 0.15619 0.0
H35 H 0.60219 0.15158 0.10475 0.0
Mn36 Mn 0.3551 0.45755 0.19713 0.0
Mn37 Mn 0.35774 0.50449 0.15953 0.0
C38 C 0.3826 0.49442 0.21418 0.0
C39 C 0.36573 0.42941 0.20451 0.0
C40 C 0.32044 0.47429 0.20979 0.0
O41 O 0.33912 0.44469 0.15115 0.0
O42 O 0.34135 0.4771 0.12918 0.0
C43 C 0.38749 0.51045 0.09972 0.0
N44 N 0.38322 0.5191 0.12862 0.0
C45 C 0.41637 0.5565 0.11861 0.0
C46 C 0.42108 0.54799 0.08869 0.0
C47 C 0.4066 0.52486 0.07925 0.0
C48 C 0.39694 0.54139 0.13781 0.0
H49 H 0.37637 0.49273 0.09227 0.0
C50 C 0.33537 0.45569 0.12752 0.0
O51 O 0.34608 0.42633 0.21526 0.0
O52 O 0.3788 0.44833 0.18782 0.0
N53 N 0.37359 0.53211 0.18614 0.0
C54 C 0.36816 0.5368 0.21766 0.0
C55 C 0.38192 0.55874 0.23209 0.0
C56 C 0.40097 0.57567 0.21385 0.0
C57 C 0.40619 0.57046 0.18142 0.0
C58 C 0.39189 0.54827 0.16838 0.0
H59 H 0.35359 0.52379 0.23183 0.0
O60 O 0.3752 0.4773 0.2356 0.0
O61 O 0.37271 0.48978 0.1843 0.0
O62 O 0.32722 0.45979 0.21438 0.0
O63 O 0.33097 0.49185 0.19046 0.0
C64 C 0.42549 0.58613 0.16207 0.0
C65 C 0.43053 0.57918 0.13064 0.0
H66 H 0.43591 0.55899 0.07297 0.0
H67 H 0.41015 0.51816 0.05623 0.0
H68 H 0.37791 0.56258 0.25726 0.0
H69 H 0.41169 0.5925 0.22522 0.0
H70 H 0.43686 0.6034 0.17151 0.0
H71 H 0.44568 0.59124 0.11635 0.0
Mn72 Mn 0.90266 0.35522 0.20381 0.0
Mn73 Mn 0.85707 0.35583 0.16825 0.0
C74 C 0.88783 0.3765 0.22887 0.0
C75 C 0.94181 0.36841 0.21436 0.0
C76 C 0.85207 0.31648 0.21123 0.0
O77 O 0.90395 0.34536 0.15496 0.0
O78 O 0.87071 0.34252 0.1365 0.0
C79 C 0.88072 0.38875 0.11146 0.0
N80 N 0.8667 0.38217 0.13946 0.0
C81 C 0.85346 0.40862 0.12547 0.0
C82 C 0.86783 0.41577 0.09655 0.0
C83 C 0.88174 0.40599 0.08976 0.0
C84 C 0.85385 0.39201 0.14683 0.0
H85 H 0.89073 0.38064 0.10541 0.0
C86 C 0.88833 0.34005 0.13238 0.0
O87 O 0.92601 0.34719 0.21954 0.0
O88 O 0.9351 0.38197 0.20138 0.0
N89 N 0.84186 0.36823 0.19485 0.0
C90 C 0.83008 0.36035 0.22487 0.0
C91 C 0.81662 0.36961 0.23682 0.0
C92 C 0.81468 0.38614 0.21707 0.0
C93 C 0.82672 0.39369 0.18598 0.0
C94 C 0.84072 0.38466 0.17626 0.0
H95 H 0.83086 0.34701 0.23939 0.0
O96 O 0.89826 0.3681 0.24681 0.0
O97 O 0.88552 0.37169 0.19615 0.0
O98 O 0.8736 0.32379 0.21365 0.0
O99 O 0.84406 0.32798 0.19671 0.0
C100 C 0.82523 0.40967 0.16407 0.0
C101 C 0.83856 0.4171 0.13378 0.0
H102 H 0.86829 0.4287 0.07935 0.0
H103 H 0.89278 0.41132 0.06739 0.0
H104 H 0.80732 0.36362 0.26076 0.0
H105 H 0.80387 0.39285 0.22597 0.0
H106 H 0.81425 0.41669 0.17062 0.0
H107 H 0.83761 0.4297 0.11748 0.0
Mn108 Mn 0.55537 0.89023 0.21037 0.0
Mn109 Mn 0.51136 0.85336 0.15915 0.0
C110 C 0.51748 0.87354 0.22983 0.0
C111 C 0.58153 0.92763 0.22915 0.0
C112 C 0.54072 0.83899 0.19992 0.0
O113 O 0.57094 0.89639 0.16337 0.0
O114 O 0.54026 0.87105 0.13265 0.0
C115 C 0.50939 0.89083 0.12161 0.0
N116 N 0.49864 0.87103 0.14035 0.0
C117 C 0.46295 0.87151 0.1395 0.0
C118 C 0.47361 0.89181 0.11999 0.0
C119 C 0.49696 0.90154 0.11109 0.0
C120 C 0.47635 0.86186 0.14975 0.0
H121 H 0.52734 0.89849 0.11495 0.0
C122 C 0.56145 0.88649 0.13528 0.0
O123 O 0.58572 0.91079 0.23262 0.0
O124 O 0.56234 0.92287 0.21415 0.0
N125 N 0.48154 0.83449 0.17904 0.0
C126 C 0.47303 0.81309 0.19302 0.0
C127 C 0.44944 0.79988 0.20083 0.0
C128 C 0.43463 0.80843 0.19305 0.0
C129 C 0.44348 0.8299 0.17684 0.0
C130 C 0.4671 0.84213 0.16934 0.0
H131 H 0.48414 0.80613 0.19809 0.0
O132 O 0.53457 0.88214 0.25124 0.0
O133 O 0.52304 0.87536 0.19756 0.0
O134 O 0.55412 0.85898 0.21246 0.0
O135 O 0.52373 0.83447 0.17992 0.0
C136 C 0.42968 0.83936 0.16708 0.0
C137 C 0.43949 0.86034 0.14883 0.0
H138 H 0.46402 0.90002 0.11161 0.0
H139 H 0.50535 0.91725 0.09613 0.0
H140 H 0.44268 0.78309 0.2126 0.0
H141 H 0.41646 0.79825 0.19921 0.0
H142 H 0.41147 0.83053 0.17319 0.0
H143 H 0.42872 0.86744 0.14138 0.0
Mn144 Mn 0.67505 0.55175 0.20313 0.0
Mn145 Mn 0.67403 0.50511 0.16869 0.0
C146 C 0.65339 0.51583 0.22877 0.0
C147 C 0.66154 0.57754 0.21299 0.0
C148 C 0.71349 0.53963 0.21145 0.0
O149 O 0.68501 0.56259 0.1541 0.0
O150 O 0.6869 0.53166 0.13617 0.0
C151 C 0.64107 0.49493 0.11165 0.0
N152 N 0.64772 0.48793 0.14008 0.0
C153 C 0.62224 0.448 0.12634 0.0
C154 C 0.61499 0.45477 0.09702 0.0
C155 C 0.62425 0.47835 0.08988 0.0
C156 C 0.63839 0.46531 0.14774 0.0
H157 H 0.64886 0.51298 0.10526 0.0
C158 C 0.68957 0.5518 0.13128 0.0
O159 O 0.68283 0.5832 0.21836 0.0
O160 O 0.64824 0.55725 0.2 0.0
N161 N 0.66184 0.47784 0.19606 0.0
C162 C 0.66953 0.47441 0.22661 0.0
C163 C 0.66058 0.45184 0.23908 0.0
C164 C 0.64455 0.43306 0.21935 0.0
C165 C 0.63714 0.43708 0.18776 0.0
C166 C 0.64579 0.45997 0.17754 0.0
H167 H 0.68249 0.48879 0.24115 0.0
O168 O 0.66205 0.5348 0.24635 0.0
O169 O 0.6583 0.51805 0.19608 0.0
O170 O 0.70641 0.55405 0.21355 0.0
O171 O 0.70193 0.52019 0.19689 0.0
C172 C 0.62163 0.4193 0.16587 0.0
C173 C 0.61424 0.42476 0.1351 0.0
H174 H 0.60239 0.44203 0.07978 0.0
H175 H 0.61885 0.4837 0.06719 0.0
H176 H 0.66643 0.44888 0.26344 0.0
H177 H 0.63807 0.41566 0.22869 0.0
H178 H 0.61491 0.4014 0.1728 0.0
H179 H 0.60198 0.41097 0.11881 0.0
Mn180 Mn 0.13353 0.67146 0.20608 0.0
Mn181 Mn 0.17873 0.67009 0.16968 0.0
C182 C 0.14298 0.64394 0.2226 0.0
C183 C 0.09478 0.66065 0.21332 0.0
C184 C 0.18448 0.70639 0.22091 0.0
O185 O 0.13697 0.68794 0.16033 0.0
O186 O 0.16755 0.68629 0.13907 0.0
C187 C 0.15654 0.64102 0.10862 0.0
N188 N 0.16882 0.64503 0.13819 0.0
C189 C 0.17364 0.6122 0.12837 0.0
C190 C 0.16107 0.60774 0.09781 0.0
C191 C 0.15247 0.6222 0.08793 0.0
C192 C 0.17741 0.63137 0.14775 0.0
H193 H 0.14997 0.65212 0.10081 0.0
C194 C 0.15176 0.6918 0.13665 0.0
O195 O 0.1113 0.68022 0.22427 0.0
O196 O 0.10063 0.64774 0.19616 0.0
N197 N 0.1904 0.65426 0.19665 0.0
C198 C 0.19979 0.65936 0.22868 0.0
C199 C 0.20776 0.64552 0.24355 0.0
C200 C 0.20613 0.6267 0.22526 0.0
C201 C 0.19641 0.6218 0.19234 0.0
C202 C 0.18871 0.63617 0.17886 0.0
H203 H 0.20093 0.67371 0.24292 0.0
O204 O 0.13294 0.65093 0.24408 0.0
O205 O 0.14859 0.65433 0.19311 0.0
O206 O 0.16307 0.69912 0.22465 0.0
O207 O 0.19215 0.69659 0.20135 0.0
C208 C 0.19331 0.60274 0.17287 0.0
C209 C 0.18202 0.598 0.14085 0.0
H210 H 0.15769 0.59312 0.08193 0.0
H211 H 0.14272 0.61884 0.0644 0.0
H212 H 0.21503 0.64926 0.26911 0.0
H213 H 0.21206 0.61592 0.23696 0.0
H214 H 0.19907 0.59132 0.18264 0.0
H215 H 0.17934 0.58304 0.12643 0.0
Mn216 Mn 0.90074 0.55528 0.31995 0.0
Mn217 Mn 0.85561 0.50764 0.35426 0.0
C218 C 0.89133 0.5188 0.30075 0.0
C219 C 0.93955 0.58316 0.31322 0.0
C220 C 0.84979 0.53995 0.30663 0.0
O221 O 0.89731 0.56695 0.36693 0.0
O222 O 0.8667 0.53406 0.38659 0.0
C223 C 0.87768 0.49887 0.41376 0.0
N224 N 0.86551 0.49155 0.38396 0.0
C225 C 0.86085 0.4537 0.39055 0.0
C226 C 0.87334 0.46085 0.42131 0.0
C227 C 0.8818 0.48353 0.43293 0.0
C228 C 0.85703 0.46966 0.37276 0.0
H229 H 0.88415 0.51625 0.42287 0.0
C230 C 0.88235 0.55532 0.3901 0.0
O231 O 0.92312 0.58672 0.3034 0.0
O232 O 0.93356 0.56392 0.32913 0.0
N233 N 0.84405 0.48105 0.32535 0.0
C234 C 0.83479 0.47782 0.29332 0.0
C235 C 0.82707 0.4566 0.27673 0.0
C236 C 0.82879 0.43889 0.29332 0.0
C237 C 0.83837 0.44263 0.32629 0.0
C238 C 0.84584 0.46416 0.34152 0.0
H239 H 0.83359 0.49145 0.28039 0.0
O240 O 0.90123 0.53641 0.28022 0.0
O241 O 0.8857 0.52275 0.33079 0.0
O242 O 0.87118 0.55416 0.3029 0.0
O243 O 0.84221 0.52172 0.32455 0.0
C244 C 0.84155 0.42612 0.34414 0.0
C245 C 0.85268 0.43162 0.37633 0.0
H246 H 0.87676 0.44915 0.43601 0.0
H247 H 0.89149 0.48917 0.45661 0.0
H248 H 0.8199 0.45392 0.25115 0.0
H249 H 0.82303 0.42263 0.2803 0.0
H250 H 0.83597 0.40933 0.333 0.0
H251 H 0.85542 0.41893 0.38948 0.0
Mn252 Mn 0.35604 0.89178 0.31174 0.0
Mn253 Mn 0.36486 0.85413 0.3585 0.0
C254 C 0.37683 0.87568 0.28841 0.0
C255 C 0.36689 0.92961 0.29568 0.0
C256 C 0.32005 0.84027 0.32106 0.0
O257 O 0.34769 0.89676 0.36022 0.0
O258 O 0.3543 0.87117 0.38788 0.0
C259 C 0.4053 0.89119 0.39475 0.0
N260 N 0.39573 0.87159 0.37553 0.0
C261 C 0.43185 0.87204 0.37298 0.0
C262 C 0.44201 0.89208 0.39303 0.0
C263 C 0.42869 0.90175 0.40384 0.0
C264 C 0.40858 0.86257 0.36414 0.0
H265 H 0.39523 0.89882 0.40282 0.0
C266 C 0.34825 0.88646 0.38736 0.0
O267 O 0.34575 0.91293 0.29271 0.0
O268 O 0.38158 0.92444 0.30861 0.0
N269 N 0.37534 0.83573 0.33573 0.0
C270 C 0.3621 0.81457 0.32124 0.0
C271 C 0.37223 0.80146 0.31143 0.0
C272 C 0.39573 0.80984 0.31774 0.0
C273 C 0.40876 0.83103 0.33446 0.0
C274 C 0.39761 0.84318 0.34395 0.0
H275 H 0.34391 0.80767 0.31742 0.0
O276 O 0.36782 0.8847 0.26878 0.0
O277 O 0.37389 0.87679 0.32116 0.0
O278 O 0.32612 0.86046 0.30973 0.0
O279 O 0.33309 0.83552 0.33936 0.0
C280 C 0.43219 0.84025 0.34293 0.0
C281 C 0.44383 0.86094 0.36174 0.0
H282 H 0.46 0.90016 0.40033 0.0
H283 H 0.43641 0.91729 0.41917 0.0
H284 H 0.36189 0.78486 0.29929 0.0
H285 H 0.40352 0.79972 0.31008 0.0
H286 H 0.44136 0.83145 0.33538 0.0
H287 H 0.46185 0.86788 0.3681 0.0
Mn288 Mn 0.47564 0.34517 0.31094 0.0
Mn289 Mn 0.52382 0.3552 0.35361 0.0
C290 C 0.51136 0.37599 0.29588 0.0
C291 C 0.4453 0.35214 0.29971 0.0
C292 C 0.4995 0.31628 0.30245 0.0
O293 O 0.46244 0.32881 0.35662 0.0
O294 O 0.49586 0.33596 0.3816 0.0
C295 C 0.52304 0.38286 0.4123 0.0
N296 N 0.53419 0.38045 0.38481 0.0
C297 C 0.56888 0.41591 0.39822 0.0
C298 C 0.55776 0.41874 0.42671 0.0
C299 C 0.53473 0.40217 0.43373 0.0
C300 C 0.55645 0.39618 0.37803 0.0
H301 H 0.50539 0.37012 0.41794 0.0
C302 C 0.47389 0.32733 0.38186 0.0
O303 O 0.44445 0.33323 0.28981 0.0
O304 O 0.4629 0.36614 0.3181 0.0
N305 N 0.55203 0.37417 0.32951 0.0
C306 C 0.55886 0.37081 0.2982 0.0
C307 C 0.58089 0.38676 0.28587 0.0
C308 C 0.59564 0.40602 0.30583 0.0
C309 C 0.58805 0.40936 0.3377 0.0
C310 C 0.56591 0.39287 0.34864 0.0
H311 H 0.54733 0.35643 0.2824 0.0
O312 O 0.49509 0.36635 0.27318 0.0
O313 O 0.50687 0.36642 0.326 0.0
O314 O 0.48267 0.31952 0.29574 0.0
O315 O 0.51575 0.32913 0.32279 0.0
C316 C 0.60114 0.42896 0.35824 0.0
C317 C 0.59159 0.4322 0.38854 0.0
H318 H 0.56665 0.4337 0.44314 0.0
H319 H 0.52603 0.40426 0.45563 0.0
H320 H 0.5864 0.38434 0.2609 0.0
H321 H 0.61248 0.41845 0.29601 0.0
H322 H 0.61832 0.44198 0.35047 0.0
H323 H 0.60163 0.44761 0.40369 0.0
Mn324 Mn 0.13935 0.47257 0.31529 0.0
Mn325 Mn 0.18584 0.51956 0.34728 0.0
C326 C 0.15358 0.50812 0.28846 0.0
C327 C 0.09993 0.44675 0.30683 0.0
C328 C 0.18954 0.48365 0.30624 0.0
O329 O 0.13913 0.46273 0.36477 0.0
O330 O 0.17238 0.49382 0.38116 0.0
C331 C 0.16448 0.53157 0.40419 0.0
N332 N 0.1774 0.53766 0.37504 0.0
C333 C 0.19173 0.57796 0.38576 0.0
C334 C 0.17847 0.57211 0.41579 0.0
C335 C 0.16457 0.5488 0.42482 0.0
C336 C 0.19028 0.56 0.36561 0.0
H337 H 0.15451 0.51376 0.412 0.0
C338 C 0.15479 0.47392 0.38705 0.0
O339 O 0.11544 0.44093 0.30155 0.0
O340 O 0.10712 0.46732 0.31885 0.0
N341 N 0.20052 0.54604 0.31822 0.0
C342 C 0.21109 0.54854 0.28741 0.0
C343 C 0.22411 0.57066 0.27311 0.0
C344 C 0.2268 0.58999 0.29125 0.0
C345 C 0.21594 0.58695 0.32312 0.0
C346 C 0.20234 0.56442 0.33528 0.0
H347 H 0.20966 0.53377 0.27401 0.0
O348 O 0.14288 0.48893 0.27142 0.0
O349 O 0.15672 0.50627 0.32106 0.0
O350 O 0.16795 0.46962 0.30477 0.0
O351 O 0.19799 0.50347 0.31979 0.0
C352 C 0.2183 0.60537 0.34353 0.0
C353 C 0.20635 0.60089 0.37499 0.0
H354 H 0.17883 0.58537 0.43211 0.0
H355 H 0.15439 0.54415 0.44806 0.0
H356 H 0.23248 0.57287 0.24855 0.0
H357 H 0.23731 0.60707 0.28054 0.0
H358 H 0.22899 0.62303 0.33506 0.0
H359 H 0.20803 0.61517 0.39022 0.0
Mn360 Mn 0.67854 0.12808 0.3141 0.0
Mn361 Mn 0.6769 0.17437 0.34452 0.0
C362 C 0.65646 0.14109 0.28627 0.0
C363 C 0.66514 0.08852 0.30887 0.0
C364 C 0.71657 0.17844 0.30284 0.0
O365 O 0.68912 0.12926 0.36327 0.0
O366 O 0.68981 0.16188 0.37903 0.0
C367 C 0.64369 0.15304 0.40162 0.0
N368 N 0.65038 0.16583 0.37233 0.0
C369 C 0.62445 0.18022 0.38307 0.0
C370 C 0.61715 0.16708 0.41324 0.0
C371 C 0.62661 0.1532 0.42232 0.0
C372 C 0.64086 0.17865 0.36282 0.0
H373 H 0.65164 0.14317 0.40946 0.0
C374 C 0.69315 0.14496 0.38517 0.0
O375 O 0.6863 0.10384 0.30193 0.0
O376 O 0.65193 0.09607 0.32029 0.0
N377 N 0.66468 0.18844 0.31503 0.0
C378 C 0.67252 0.19873 0.28399 0.0
C379 C 0.66342 0.21176 0.26966 0.0
C380 C 0.64707 0.21478 0.28804 0.0
C381 C 0.6395 0.20422 0.32018 0.0
C382 C 0.64835 0.19053 0.3323 0.0
H383 H 0.68572 0.19711 0.27045 0.0
O384 O 0.66497 0.13008 0.27015 0.0
O385 O 0.66158 0.14499 0.31883 0.0
O386 O 0.70961 0.15693 0.30155 0.0
O387 O 0.70498 0.18647 0.31691 0.0
C388 C 0.6237 0.20688 0.34084 0.0
C389 C 0.61626 0.19497 0.37236 0.0
H390 H 0.60435 0.16754 0.42966 0.0
H391 H 0.62117 0.14313 0.44568 0.0
H392 H 0.6694 0.2199 0.2449 0.0
H393 H 0.64047 0.22526 0.27727 0.0
H394 H 0.61684 0.21767 0.33243 0.0
H395 H 0.60381 0.19681 0.38772 0.0
Mn396 Mn 0.55104 0.66474 0.31013 0.0
Mn397 Mn 0.50286 0.66262 0.3404 0.0
C398 C 0.51586 0.64184 0.28314 0.0
C399 C 0.57825 0.65269 0.30364 0.0
C400 C 0.53766 0.70195 0.29749 0.0
O401 O 0.56048 0.67566 0.35932 0.0
O402 O 0.52848 0.67645 0.37454 0.0
C403 C 0.49208 0.63043 0.39874 0.0
N404 N 0.48555 0.63638 0.36913 0.0
C405 C 0.44555 0.60936 0.38017 0.0
C406 C 0.45185 0.60285 0.41069 0.0
C407 C 0.47524 0.61324 0.41979 0.0
C408 C 0.46316 0.62597 0.35963 0.0
H409 H 0.50993 0.63901 0.40655 0.0
C410 C 0.54872 0.67981 0.38099 0.0
O411 O 0.58314 0.67362 0.29717 0.0
O412 O 0.55781 0.63885 0.31579 0.0
N413 N 0.47637 0.64936 0.31126 0.0
C414 C 0.47345 0.65663 0.28 0.0
C415 C 0.45125 0.64662 0.26574 0.0
C416 C 0.43223 0.62991 0.28437 0.0
C417 C 0.43568 0.62293 0.31669 0.0
C418 C 0.45831 0.63274 0.32882 0.0
H419 H 0.48795 0.67006 0.26623 0.0
O420 O 0.53523 0.6506 0.26653 0.0
O421 O 0.51726 0.64728 0.31554 0.0
O422 O 0.55241 0.69525 0.29716 0.0
O423 O 0.51804 0.69038 0.3116 0.0
C424 C 0.41757 0.60683 0.33755 0.0
C425 C 0.42249 0.60014 0.36938 0.0
H426 H 0.43888 0.58993 0.42735 0.0
H427 H 0.48024 0.6084 0.4434 0.0
H428 H 0.44872 0.65215 0.24083 0.0
H429 H 0.41506 0.62262 0.27366 0.0
H430 H 0.39984 0.59921 0.32911 0.0
H431 H 0.40846 0.58748 0.38494 0.0
Mn432 Mn 0.55577 0.89672 0.82509 0.0
Mn433 Mn 0.51407 0.84993 0.86638 0.0
C434 C 0.51744 0.88119 0.80909 0.0
C435 C 0.57737 0.93646 0.8149 0.0
C436 C 0.54638 0.84723 0.81471 0.0
O437 O 0.57136 0.89784 0.87061 0.0
O438 O 0.54245 0.86571 0.89519 0.0
C439 C 0.50499 0.87204 0.92547 0.0
N440 N 0.4972 0.85793 0.8976 0.0
C441 C 0.45799 0.84789 0.90937 0.0
C442 C 0.4656 0.86225 0.93828 0.0
C443 C 0.4892 0.87439 0.94633 0.0
C444 C 0.47447 0.84592 0.88986 0.0
H445 H 0.52308 0.88139 0.9318 0.0
C446 C 0.56276 0.88347 0.89539 0.0
O447 O 0.58457 0.92272 0.80455 0.0
O448 O 0.55885 0.92739 0.83347 0.0
N449 N 0.48571 0.83365 0.84156 0.0
C450 C 0.48172 0.82327 0.8103 0.0
C451 C 0.45922 0.81176 0.79705 0.0
C452 C 0.44106 0.81103 0.81607 0.0
C453 C 0.44562 0.82202 0.84805 0.0
C454 C 0.46839 0.83314 0.86003 0.0
H455 H 0.49568 0.82412 0.79534 0.0
O456 O 0.5339 0.89228 0.7871 0.0
O457 O 0.52376 0.87821 0.83937 0.0
O458 O 0.55859 0.86881 0.80884 0.0
O459 O 0.52934 0.83872 0.83524 0.0
C460 C 0.42864 0.8232 0.86783 0.0
C461 C 0.43481 0.83607 0.89852 0.0
H462 H 0.45351 0.86433 0.9542 0.0
H463 H 0.49522 0.88557 0.96853 0.0
H464 H 0.4559 0.80361 0.77212 0.0
H465 H 0.42377 0.80239 0.80555 0.0
H466 H 0.41089 0.81476 0.85924 0.0
H467 H 0.42169 0.83727 0.9131 0.0
Mn468 Mn 0.66973 0.55265 0.81404 0.0
Mn469 Mn 0.66664 0.50489 0.8492 0.0
C470 C 0.64296 0.51616 0.79449 0.0
C471 C 0.65866 0.58051 0.80632 0.0
C472 C 0.70544 0.53705 0.80253 0.0
O473 O 0.68414 0.56428 0.86148 0.0
O474 O 0.68169 0.53135 0.88143 0.0
C475 C 0.63516 0.49647 0.90765 0.0
N476 N 0.6403 0.48901 0.87827 0.0
C477 C 0.60703 0.45122 0.88467 0.0
C478 C 0.60139 0.45851 0.915 0.0
C479 C 0.6155 0.48124 0.9265 0.0
C480 C 0.62698 0.46708 0.86716 0.0
H481 H 0.646 0.51388 0.91671 0.0
C482 C 0.68722 0.55259 0.88489 0.0
O483 O 0.67879 0.58412 0.79719 0.0
O484 O 0.64534 0.56125 0.82209 0.0
N485 N 0.65185 0.47822 0.82042 0.0
C486 C 0.65825 0.4748 0.7888 0.0
C487 C 0.64497 0.45347 0.77237 0.0
C488 C 0.62537 0.43586 0.78874 0.0
C489 C 0.61914 0.43979 0.82129 0.0
C490 C 0.633 0.46142 0.83635 0.0
H491 H 0.67323 0.48834 0.77606 0.0
O492 O 0.65091 0.53375 0.77389 0.0
O493 O 0.65214 0.52013 0.8248 0.0
O494 O 0.69848 0.55145 0.79836 0.0
O495 O 0.69441 0.51876 0.82021 0.0
C496 C 0.59929 0.42337 0.83887 0.0
C497 C 0.59329 0.42905 0.87061 0.0
H498 H 0.58612 0.44688 0.92946 0.0
H499 H 0.61122 0.487 0.94986 0.0
H500 H 0.64976 0.45063 0.74711 0.0
H501 H 0.61504 0.41951 0.77587 0.0
H502 H 0.58824 0.4065 0.82785 0.0
H503 H 0.57775 0.41642 0.88355 0.0
Mn504 Mn 0.12819 0.67103 0.82236 0.0
Mn505 Mn 0.17355 0.66877 0.85649 0.0
C506 C 0.13756 0.64383 0.80362 0.0
C507 C 0.08929 0.66002 0.81577 0.0
C508 C 0.17912 0.70622 0.80767 0.0
O509 O 0.1319 0.68657 0.86909 0.0
O510 O 0.16282 0.68468 0.88828 0.0
C511 C 0.15162 0.63881 0.91688 0.0
N512 N 0.16369 0.64322 0.88705 0.0
C513 C 0.16842 0.61016 0.89505 0.0
C514 C 0.15603 0.60529 0.92585 0.0
C515 C 0.14758 0.61966 0.93677 0.0
C516 C 0.17212 0.62963 0.87648 0.0
H517 H 0.14518 0.64986 0.92549 0.0
C518 C 0.14715 0.69025 0.89196 0.0
O519 O 0.10568 0.67993 0.80561 0.0
O520 O 0.09538 0.64695 0.83199 0.0
N521 N 0.18489 0.65323 0.82825 0.0
C522 C 0.19415 0.65882 0.79617 0.0
C523 C 0.20201 0.64519 0.78036 0.0
C524 C 0.20042 0.62607 0.79778 0.0
C525 C 0.19083 0.62067 0.83077 0.0
C526 C 0.18323 0.63485 0.8452 0.0
H527 H 0.19526 0.67341 0.78262 0.0
O528 O 0.1275 0.65131 0.78299 0.0
O529 O 0.14331 0.65363 0.83348 0.0
O530 O 0.15772 0.69926 0.80461 0.0
O531 O 0.1868 0.69571 0.82573 0.0
C532 C 0.18779 0.60132 0.84941 0.0
C533 C 0.17667 0.59611 0.88158 0.0
H534 H 0.15271 0.59042 0.94113 0.0
H535 H 0.13799 0.61599 0.96049 0.0
H536 H 0.20918 0.64933 0.75476 0.0
H537 H 0.20627 0.61545 0.78537 0.0
H538 H 0.19349 0.59003 0.83889 0.0
H539 H 0.17404 0.58093 0.89536 0.0
Mn540 Mn 0.47176 0.12597 0.81724 0.0
Mn541 Mn 0.51719 0.17156 0.85418 0.0
C542 C 0.50818 0.14127 0.79342 0.0
C543 C 0.44615 0.0868 0.80682 0.0
C544 C 0.48396 0.17661 0.80879 0.0
O545 O 0.45968 0.12464 0.86545 0.0
O546 O 0.48946 0.15808 0.88436 0.0
C547 C 0.52449 0.147 0.91177 0.0
N548 N 0.53285 0.16136 0.8842 0.0
C549 C 0.57197 0.17331 0.89997 0.0
C550 C 0.5638 0.1586 0.92849 0.0
C551 C 0.53993 0.14518 0.93419 0.0
C552 C 0.55572 0.17375 0.87787 0.0
H553 H 0.50623 0.13729 0.91693 0.0
C554 C 0.46934 0.14046 0.88789 0.0
O555 O 0.44069 0.10249 0.80073 0.0
O556 O 0.46625 0.09365 0.82048 0.0
N557 N 0.54554 0.1868 0.82929 0.0
C558 C 0.55046 0.19924 0.79971 0.0
C559 C 0.5735 0.21254 0.78909 0.0
C560 C 0.59126 0.21369 0.80972 0.0
C561 C 0.58577 0.20108 0.8404 0.0
C562 C 0.56245 0.18728 0.8488 0.0
H563 H 0.53689 0.19902 0.78445 0.0
O564 O 0.48967 0.13038 0.77491 0.0
O565 O 0.50516 0.14332 0.82603 0.0
O566 O 0.46966 0.15508 0.80646 0.0
O567 O 0.50317 0.18466 0.82424 0.0
C568 C 0.60249 0.20178 0.86313 0.0
C569 C 0.5956 0.18784 0.89285 0.0
H570 H 0.57568 0.15753 0.94625 0.0
H571 H 0.53348 0.13386 0.95623 0.0
H572 H 0.5776 0.22229 0.76546 0.0
H573 H 0.60905 0.22435 0.80182 0.0
H574 H 0.62068 0.21256 0.8576 0.0
H575 H 0.60859 0.18816 0.90976 0.0
Mn576 Mn 0.35763 0.46725 0.81702 0.0
Mn577 Mn 0.35913 0.51245 0.85835 0.0
C578 C 0.38448 0.50472 0.80175 0.0
C579 C 0.36864 0.43976 0.8061 0.0
C580 C 0.32196 0.48308 0.80753 0.0
O581 O 0.342 0.45282 0.86257 0.0
O582 O 0.34309 0.48406 0.887 0.0
C583 C 0.38902 0.51721 0.91743 0.0
N584 N 0.38452 0.52653 0.88947 0.0
C585 C 0.41733 0.56385 0.90115 0.0
C586 C 0.42226 0.55466 0.93014 0.0
C587 C 0.40806 0.53123 0.93827 0.0
C588 C 0.39794 0.54912 0.8816 0.0
H589 H 0.37813 0.49924 0.92384 0.0
C590 C 0.33772 0.46278 0.88715 0.0
O591 O 0.34885 0.43684 0.79648 0.0
O592 O 0.38177 0.45818 0.82383 0.0
N593 N 0.37455 0.54088 0.83348 0.0
C594 C 0.36904 0.54626 0.8025 0.0
C595 C 0.3826 0.5686 0.78922 0.0
C596 C 0.40153 0.5852 0.80803 0.0
C597 C 0.40683 0.57926 0.8399 0.0
C598 C 0.39272 0.5567 0.8518 0.0
H599 H 0.35458 0.5335 0.78788 0.0
O600 O 0.37716 0.48823 0.77927 0.0
O601 O 0.37479 0.49913 0.83179 0.0
O602 O 0.32927 0.46916 0.80164 0.0
O603 O 0.33228 0.5003 0.82748 0.0
C604 C 0.42607 0.59455 0.85968 0.0
C605 C 0.43127 0.58688 0.89034 0.0
H606 H 0.43706 0.56536 0.9461 0.0
H607 H 0.41179 0.524 0.96055 0.0
H608 H 0.37854 0.57299 0.76446 0.0
H609 H 0.4121 0.60234 0.79752 0.0
H610 H 0.4373 0.61209 0.85111 0.0
H611 H 0.44637 0.59867 0.90495 0.0
Mn612 Mn 0.89904 0.35313 0.81738 0.0
Mn613 Mn 0.85384 0.35358 0.85462 0.0
C614 C 0.88378 0.37435 0.79318 0.0
C615 C 0.93818 0.36665 0.80579 0.0
C616 C 0.84839 0.31423 0.81126 0.0
O617 O 0.90107 0.3434 0.86603 0.0
O618 O 0.86806 0.34046 0.88571 0.0
C619 C 0.8781 0.3866 0.91102 0.0
N620 N 0.86366 0.37988 0.88348 0.0
C621 C 0.85004 0.40583 0.89868 0.0
C622 C 0.86484 0.41312 0.92714 0.0
C623 C 0.87914 0.40367 0.93308 0.0
C624 C 0.85042 0.38942 0.87691 0.0
H625 H 0.88841 0.37872 0.91644 0.0
C626 C 0.88579 0.33811 0.88916 0.0
O627 O 0.92244 0.34538 0.80072 0.0
O628 O 0.93142 0.38005 0.81914 0.0
N629 N 0.83812 0.36579 0.8288 0.0
C630 C 0.82606 0.35793 0.799 0.0
C631 C 0.81219 0.36691 0.78782 0.0
C632 C 0.81015 0.38315 0.8081 0.0
C633 C 0.8225 0.39072 0.83893 0.0
C634 C 0.83691 0.38198 0.84786 0.0
H635 H 0.82694 0.3448 0.78408 0.0
O636 O 0.894 0.36594 0.77475 0.0
O637 O 0.8819 0.36952 0.8259 0.0
O638 O 0.8699 0.32155 0.80813 0.0
O639 O 0.84059 0.32574 0.82624 0.0
C640 C 0.821 0.40644 0.86132 0.0
C641 C 0.83474 0.41397 0.89123 0.0
H642 H 0.86532 0.42591 0.94464 0.0
H643 H 0.89051 0.40911 0.95508 0.0
H644 H 0.80265 0.36094 0.76406 0.0
H645 H 0.79903 0.38966 0.79978 0.0
H646 H 0.80972 0.41323 0.85541 0.0
H647 H 0.83378 0.42641 0.90788 0.0
Mn648 Mn 0.13608 0.47407 0.70664 0.0
Mn649 Mn 0.18172 0.52184 0.67455 0.0
C650 C 0.14936 0.50947 0.73347 0.0
C651 C 0.0968 0.44746 0.71492 0.0
C652 C 0.18681 0.48688 0.716 0.0
O653 O 0.13627 0.4643 0.65728 0.0
O654 O 0.16906 0.49594 0.64097 0.0
C655 C 0.15926 0.53244 0.61749 0.0
N656 N 0.17236 0.5391 0.64648 0.0
C657 C 0.1854 0.57909 0.6351 0.0
C658 C 0.17194 0.57265 0.60522 0.0
C659 C 0.1586 0.54921 0.59661 0.0
C660 C 0.18469 0.56155 0.65553 0.0
H661 H 0.14974 0.51454 0.61001 0.0
C662 C 0.15194 0.47573 0.63514 0.0
O663 O 0.11268 0.44216 0.72043 0.0
O664 O 0.10355 0.46793 0.70279 0.0
N665 N 0.19575 0.54853 0.7032 0.0
C666 C 0.20661 0.55159 0.7339 0.0
C667 C 0.21929 0.57389 0.74767 0.0
C668 C 0.22135 0.59284 0.7291 0.0
C669 C 0.21019 0.58923 0.69737 0.0
C670 C 0.19695 0.56653 0.68575 0.0
H671 H 0.20571 0.53713 0.74758 0.0
O672 O 0.13904 0.49021 0.75043 0.0
O673 O 0.1526 0.50781 0.70084 0.0
O674 O 0.16534 0.47224 0.71736 0.0
O675 O 0.19467 0.50663 0.70239 0.0
C676 C 0.21189 0.60726 0.67659 0.0
C677 C 0.19961 0.6022 0.64535 0.0
H678 H 0.17175 0.58556 0.58869 0.0
H679 H 0.14827 0.54411 0.57349 0.0
H680 H 0.22789 0.57654 0.77213 0.0
H681 H 0.23162 0.61007 0.73938 0.0
H682 H 0.22229 0.62504 0.68464 0.0
H683 H 0.20076 0.61617 0.62986 0.0
Mn684 Mn 0.6732 0.12948 0.70033 0.0
Mn685 Mn 0.67703 0.17801 0.66739 0.0
C686 C 0.6488 0.14245 0.71932 0.0
C687 C 0.65538 0.08927 0.70441 0.0
C688 C 0.71209 0.17849 0.71703 0.0
O689 O 0.68897 0.13221 0.65427 0.0
O690 O 0.69065 0.16497 0.63533 0.0
C691 C 0.64712 0.15981 0.60607 0.0
N692 N 0.65237 0.17143 0.6364 0.0
C693 C 0.62192 0.18026 0.62893 0.0
C694 C 0.61622 0.1684 0.59761 0.0
C695 C 0.62888 0.15814 0.58614 0.0
C696 C 0.64055 0.18172 0.64741 0.0
H697 H 0.65679 0.1519 0.5971 0.0
C698 C 0.69414 0.14789 0.63152 0.0
O699 O 0.676 0.10242 0.71646 0.0
O700 O 0.64636 0.09938 0.6873 0.0
N701 N 0.6637 0.19147 0.69605 0.0
C702 C 0.66946 0.19959 0.7287 0.0
C703 C 0.65727 0.20887 0.74513 0.0
C704 C 0.63931 0.20972 0.72783 0.0
C705 C 0.6336 0.20114 0.69431 0.0
C706 C 0.6464 0.19214 0.6792 0.0
H707 H 0.683 0.19861 0.74228 0.0
O708 O 0.65429 0.1305 0.73942 0.0
O709 O 0.65908 0.14792 0.68973 0.0
O710 O 0.70319 0.15669 0.72004 0.0
O711 O 0.70326 0.18777 0.6986 0.0
C712 C 0.61515 0.20035 0.6758 0.0
C713 C 0.60939 0.19003 0.64307 0.0
H714 H 0.60197 0.16682 0.58236 0.0
H715 H 0.62454 0.14892 0.56203 0.0
H716 H 0.66159 0.21519 0.77116 0.0
H717 H 0.62976 0.21663 0.74075 0.0
H718 H 0.60494 0.20718 0.68683 0.0
H719 H 0.59488 0.18913 0.62938 0.0
Mn720 Mn 0.55388 0.67245 0.70239 0.0
Mn721 Mn 0.50617 0.67107 0.67153 0.0
C722 C 0.51871 0.65117 0.73045 0.0
C723 C 0.58005 0.65922 0.71083 0.0
C724 C 0.54243 0.7113 0.71133 0.0
O725 O 0.56293 0.68142 0.65241 0.0
O726 O 0.53142 0.6831 0.63685 0.0
C727 C 0.49362 0.6371 0.61534 0.0
N728 N 0.48783 0.64423 0.64447 0.0
C729 C 0.44742 0.61825 0.63462 0.0
C730 C 0.45295 0.61055 0.60461 0.0
C731 C 0.47618 0.61982 0.59516 0.0
C732 C 0.46558 0.63491 0.65432 0.0
H733 H 0.51135 0.64484 0.6072 0.0
C734 C 0.55126 0.68543 0.63031 0.0
O735 O 0.58581 0.68059 0.71539 0.0
O736 O 0.55937 0.64559 0.69936 0.0
N737 N 0.48005 0.65945 0.70127 0.0
C738 C 0.47789 0.66768 0.73213 0.0
C739 C 0.45593 0.65871 0.7469 0.0
C740 C 0.4364 0.64202 0.72918 0.0
C741 C 0.43908 0.63403 0.69724 0.0
C742 C 0.46148 0.64281 0.68463 0.0
H743 H 0.49282 0.68104 0.74523 0.0
O744 O 0.53817 0.66009 0.74685 0.0
O745 O 0.52002 0.65572 0.69772 0.0
O746 O 0.55673 0.70406 0.71241 0.0
O747 O 0.52245 0.69958 0.69839 0.0
C748 C 0.42044 0.61789 0.67722 0.0
C749 C 0.4246 0.61014 0.64577 0.0
H750 H 0.43952 0.59754 0.58863 0.0
H751 H 0.48058 0.61405 0.57193 0.0
H752 H 0.454 0.665 0.77152 0.0
H753 H 0.41944 0.63551 0.74029 0.0
H754 H 0.40288 0.61106 0.68601 0.0
H755 H 0.41016 0.59747 0.63087 0.0
Mn756 Mn 0.89544 0.55338 0.70605 0.0
Mn757 Mn 0.85135 0.50609 0.66916 0.0
C758 C 0.88595 0.51666 0.72434 0.0
C759 C 0.93409 0.58141 0.71483 0.0
C760 C 0.84401 0.5374 0.71666 0.0
O761 O 0.89303 0.56568 0.659 0.0
O762 O 0.863 0.53301 0.63762 0.0
C763 C 0.87488 0.4985 0.61052 0.0
N764 N 0.86211 0.49065 0.63973 0.0
C765 C 0.8579 0.45303 0.63247 0.0
C766 C 0.87101 0.46073 0.60233 0.0
C767 C 0.87955 0.48356 0.59134 0.0
C768 C 0.85353 0.4686 0.65029 0.0
H769 H 0.88141 0.516 0.60187 0.0
C770 C 0.87867 0.55434 0.63501 0.0
O771 O 0.91733 0.58464 0.72396 0.0
O772 O 0.92857 0.56243 0.69854 0.0
N773 N 0.83938 0.47907 0.69725 0.0
C774 C 0.82948 0.47528 0.72887 0.0
C775 C 0.82161 0.45385 0.74492 0.0
C776 C 0.82386 0.4365 0.72821 0.0
C777 C 0.83411 0.44081 0.69567 0.0
C778 C 0.84169 0.46253 0.68098 0.0
H779 H 0.82788 0.48864 0.74191 0.0
O780 O 0.89517 0.53391 0.74556 0.0
O781 O 0.8809 0.52105 0.69415 0.0
O782 O 0.86528 0.55171 0.72152 0.0
O783 O 0.83701 0.51944 0.69834 0.0
C784 C 0.83783 0.42469 0.67777 0.0
C785 C 0.84961 0.43075 0.64611 0.0
H786 H 0.87486 0.44935 0.58765 0.0
H787 H 0.88971 0.48964 0.56813 0.0
H788 H 0.81392 0.45073 0.77018 0.0
H789 H 0.81798 0.42007 0.74082 0.0
H790 H 0.83217 0.40776 0.68849 0.0
H791 H 0.85276 0.41836 0.63293 0.0
Mn792 Mn 0.35475 0.88954 0.70336 0.0
Mn793 Mn 0.35598 0.84501 0.6649 0.0
C794 C 0.3748 0.87335 0.72843 0.0
C795 C 0.36811 0.92849 0.71551 0.0
C796 C 0.31544 0.83901 0.70628 0.0
O797 O 0.34611 0.89241 0.65439 0.0
O798 O 0.34475 0.86055 0.63271 0.0
C799 C 0.39172 0.87042 0.61218 0.0
N800 N 0.38357 0.85529 0.63886 0.0
C801 C 0.41049 0.84229 0.62699 0.0
C802 C 0.41921 0.85778 0.59942 0.0
C803 C 0.40997 0.87211 0.59225 0.0
C804 C 0.39285 0.84197 0.64664 0.0
H805 H 0.38412 0.88083 0.60584 0.0
C806 C 0.34224 0.87825 0.63005 0.0
O807 O 0.34675 0.91275 0.71973 0.0
O808 O 0.38179 0.92183 0.70288 0.0
N809 N 0.36666 0.82831 0.69174 0.0
C810 C 0.35731 0.81552 0.7206 0.0
C811 C 0.36584 0.8015 0.73296 0.0
C812 C 0.38328 0.80018 0.71482 0.0
C813 C 0.39243 0.81334 0.68496 0.0
C814 C 0.38394 0.82773 0.67477 0.0
H815 H 0.34347 0.81602 0.734 0.0
O816 O 0.36646 0.88375 0.74654 0.0
O817 O 0.37096 0.87222 0.69544 0.0
O818 O 0.32309 0.86043 0.71108 0.0
O819 O 0.32684 0.83134 0.69057 0.0
C820 C 0.40947 0.8126 0.66469 0.0
C821 C 0.41844 0.827 0.63562 0.0
H822 H 0.43298 0.85881 0.58358 0.0
H823 H 0.41654 0.88406 0.57094 0.0
H824 H 0.35866 0.79138 0.75599 0.0
H825 H 0.38948 0.78899 0.72403 0.0
H826 H 0.41611 0.80134 0.67159 0.0
H827 H 0.43183 0.82659 0.62061 0.0
Mn828 Mn 0.47204 0.349 0.6963 0.0
Mn829 Mn 0.51951 0.35057 0.66426 0.0
C830 C 0.50757 0.37128 0.72268 0.0
C831 C 0.44559 0.36169 0.70455 0.0
C832 C 0.48489 0.31133 0.70711 0.0
O833 O 0.46181 0.33828 0.64733 0.0
O834 O 0.4932 0.3366 0.63137 0.0
C835 C 0.52931 0.38267 0.6061 0.0
N836 N 0.53638 0.37668 0.63514 0.0
C837 C 0.57618 0.40359 0.62261 0.0
C838 C 0.56933 0.41016 0.59266 0.0
C839 C 0.54577 0.39984 0.58459 0.0
C840 C 0.55894 0.38702 0.64367 0.0
H841 H 0.51132 0.37412 0.59908 0.0
C842 C 0.47293 0.33334 0.62562 0.0
O843 O 0.44027 0.34055 0.71038 0.0
O844 O 0.46591 0.3753 0.69189 0.0
N845 N 0.54656 0.36374 0.6922 0.0
C846 C 0.55005 0.3564 0.72303 0.0
C847 C 0.57254 0.3662 0.73618 0.0
C848 C 0.59123 0.38275 0.71685 0.0
C849 C 0.58719 0.38981 0.68498 0.0
C850 C 0.56433 0.38021 0.67399 0.0
H851 H 0.53578 0.34306 0.7373 0.0
O852 O 0.48838 0.3626 0.73974 0.0
O853 O 0.50579 0.36612 0.69012 0.0
O854 O 0.47024 0.31813 0.70794 0.0
O855 O 0.5046 0.323 0.69328 0.0
C856 C 0.60493 0.4058 0.66348 0.0
C857 C 0.59943 0.41264 0.63225 0.0
H858 H 0.58201 0.42303 0.57563 0.0
H859 H 0.54036 0.40471 0.56142 0.0
H860 H 0.57552 0.36063 0.76075 0.0
H861 H 0.60861 0.38987 0.72667 0.0
H862 H 0.62282 0.41326 0.67103 0.0
H863 H 0.61318 0.42525 0.61624 0.0
H864 H 0.45456 0.05384 0.21955 0.0
H865 H 0.40078 0.07153 0.22918 0.0
H866 H 0.37399 0.03213 0.25089 0.0
H867 H 0.41904 0.99427 0.19451 0.0
H868 H 0.43515 0.98463 0.21982 0.0
H869 H 0.44922 0.01352 0.20288 0.0
H870 H 0.46237 0.02982 0.26414 0.0
H871 H 0.44826 1.001 0.28128 0.0
H872 H 0.44115 0.02185 0.29761 0.0
H873 H 0.35294 0.98996 0.27045 0.0
H874 H 0.34056 0.95033 0.29063 0.0
H875 H 0.40956 0.96215 0.2731 0.0
C876 C 0.43703 0.04932 0.22573 0.0
C877 C 0.42956 0.06556 0.22213 0.0
C878 C 0.40673 0.05924 0.23146 0.0
C879 C 0.39144 0.03691 0.24377 0.0
C880 C 0.39942 0.02133 0.24723 0.0
C881 C 0.4218 0.0274 0.23883 0.0
C882 C 0.42669 1.00811 0.24684 0.0
C883 C 0.43288 0.99963 0.21406 0.0
C884 C 0.44574 0.01565 0.27409 0.0
C885 C 0.40352 0.99009 0.26087 0.0
C886 C 0.38789 0.99786 0.26048 0.0
C887 C 0.36512 0.98382 0.27113 0.0
C888 C 0.35823 0.96135 0.2825 0.0
C889 C 0.37416 0.9533 0.28379 0.0
C890 C 0.39709 0.96796 0.2729 0.0
H891 H 0.45419 0.39559 0.28522 0.0
H892 H 0.39973 0.32409 0.28301 0.0
H893 H 0.37328 0.33585 0.25724 0.0
H894 H 0.41931 0.42153 0.30343 0.0
H895 H 0.4356 0.44575 0.27537 0.0
H896 H 0.44941 0.43163 0.2956 0.0
H897 H 0.4622 0.42502 0.23601 0.0
H898 H 0.4482 0.43888 0.21556 0.0
H899 H 0.44082 0.41006 0.20327 0.0
H900 H 0.35251 0.35609 0.23359 0.0
H901 H 0.33988 0.38261 0.21098 0.0
H902 H 0.40931 0.44013 0.22285 0.0
C903 C 0.43657 0.38245 0.27985 0.0
C904 C 0.4288 0.35897 0.28672 0.0
C905 C 0.40588 0.34219 0.2783 0.0
C906 C 0.3908 0.34872 0.26361 0.0
C907 C 0.3991 0.37204 0.25677 0.0
C908 C 0.42154 0.3886 0.26433 0.0
C909 C 0.42664 0.41233 0.25287 0.0
C910 C 0.43311 0.42877 0.28366 0.0
C911 C 0.44559 0.42214 0.22529 0.0
C912 C 0.40348 0.40664 0.23801 0.0
C913 C 0.38773 0.38335 0.24084 0.0
C914 C 0.36481 0.37428 0.23079 0.0
C915 C 0.35779 0.38942 0.21791 0.0
C916 C 0.37374 0.41326 0.21447 0.0
C917 C 0.39692 0.42186 0.22427 0.0
H918 H 0.97561 0.41292 0.23012 0.0
H919 H 0.96205 0.34248 0.22532 0.0
H920 H 1.00047 0.35487 0.2497 0.0
H921 H 0.03705 0.44107 0.20953 0.0
H922 H 0.04479 0.4645 0.23908 0.0
H923 H 0.01666 0.45034 0.21951 0.0
H924 H 0.99788 0.44196 0.27972 0.0
H925 H 0.02595 0.45582 0.29949 0.0
H926 H 1.00507 0.42655 0.31071 0.0
H927 H 0.0399 0.37441 0.27508 0.0
H928 H 0.07863 0.40027 0.29865 0.0
H929 H 0.06679 0.45812 0.2899 0.0
C930 C 0.98093 0.40021 0.23366 0.0
C931 C 0.96588 0.37673 0.22552 0.0
C932 C 0.97328 0.36055 0.23121 0.0
C933 C 0.99507 0.36741 0.24513 0.0
C934 C 1.00928 0.39053 0.25358 0.0
C935 C 1.00262 0.40675 0.24801 0.0
C936 C 0.02111 0.43039 0.26031 0.0
C937 C 0.03046 0.44759 0.23032 0.0
C938 C 1.01195 0.43919 0.28928 0.0
C939 C 0.03916 0.42487 0.27356 0.0
C940 C 0.03193 0.40176 0.2693 0.0
C941 C 0.04573 0.39252 0.27866 0.0
C942 C 0.06769 0.40735 0.29212 0.0
C943 C 0.07566 0.43115 0.29646 0.0
C944 C 0.06101 0.43993 0.28747 0.0
H945 H 0.57262 0.96276 0.24225 0.0
H946 H 0.62681 0.94525 0.2465 0.0
H947 H 0.65376 0.98406 0.26919 0.0
H948 H 0.60793 0.02188 0.21697 0.0
H949 H 0.59282 0.03217 0.24324 0.0
H950 H 0.57792 1.00311 0.22708 0.0
H951 H 0.56626 0.98757 0.28902 0.0
H952 H 0.58125 0.0166 0.3054 0.0
H953 H 0.5883 0.99558 0.32121 0.0
H954 H 0.67533 0.02545 0.28881 0.0
H955 H 0.6895 0.06587 0.30612 0.0
H956 H 0.62073 0.05571 0.29295 0.0
C957 C 0.59018 0.96713 0.24785 0.0
C958 C 0.59767 0.95103 0.2424 0.0
C959 C 0.6207 0.95731 0.25044 0.0
C960 C 0.63614 0.97932 0.26334 0.0
C961 C 0.6282 0.99476 0.26855 0.0
C962 C 0.60572 0.98891 0.26129 0.0
C963 C 0.6015 1.00862 0.26967 0.0
C964 C 0.59464 0.01693 0.23731 0.0
C965 C 0.58325 1.00167 0.29801 0.0
C966 C 0.62518 0.02656 0.2824 0.0
C967 C 0.64037 0.01825 0.28135 0.0
C968 C 0.66353 0.03204 0.29014 0.0
C969 C 0.67143 0.05496 0.29994 0.0
C970 C 0.65616 0.0638 0.30137 0.0
C971 C 0.63268 0.04927 0.29284 0.0
H972 H 0.56857 0.60874 0.28686 0.0
H973 H 0.62479 0.67911 0.29719 0.0
H974 H 0.65193 0.66752 0.27464 0.0
H975 H 0.60144 0.58007 0.3087 0.0
H976 H 0.58682 0.55758 0.27735 0.0
H977 H 0.57212 0.57106 0.29675 0.0
H978 H 0.56364 0.58125 0.23642 0.0
H979 H 0.5786 0.5681 0.21685 0.0
H980 H 0.58721 0.59767 0.20734 0.0
H981 H 0.6729 0.64873 0.24982 0.0
H982 H 0.68653 0.6237 0.2253 0.0
H983 H 0.61668 0.56567 0.22788 0.0
C984 C 0.58668 0.62157 0.28507 0.0
C985 C 0.59464 0.6448 0.2942 0.0
C986 C 0.61835 0.66121 0.2906 0.0
C987 C 0.63389 0.6548 0.27772 0.0
C988 C 0.62545 0.63192 0.26817 0.0
C989 C 0.60243 0.61551 0.27172 0.0
C990 C 0.59779 0.5923 0.25816 0.0
C991 C 0.58903 0.57418 0.28696 0.0
C992 C 0.5808 0.58437 0.22789 0.0
C993 C 0.62178 0.59828 0.24644 0.0
C994 C 0.63746 0.62122 0.25264 0.0
C995 C 0.66076 0.63076 0.24476 0.0
C996 C 0.66834 0.61641 0.23074 0.0
C997 C 0.65267 0.5928 0.22433 0.0
C998 C 0.62902 0.58374 0.23194 0.0
H999 H 0.06121 0.61655 0.22918 0.0
H1000 H 0.07493 0.68697 0.22397 0.0
H1001 H 0.03696 0.6749 0.25016 0.0
H1002 H 0.99888 0.58768 0.21323 0.0
H1003 H 0.99257 0.56496 0.24357 0.0
H1004 H 0.01983 0.57884 0.22147 0.0
H1005 H 0.041 0.58857 0.27995 0.0
H1006 H 1.01381 0.57511 0.30224 0.0
H1007 H 0.03502 0.60465 0.31133 0.0
H1008 H 0.99784 0.65537 0.27756 0.0
H1009 H 0.95986 0.62951 0.30379 0.0
H1010 H 0.97265 0.57229 0.29581 0.0
C1011 C 0.0559 0.62926 0.23273 0.0
C1012 C 0.07076 0.65263 0.22397 0.0
C1013 C 0.06363 0.66895 0.23011 0.0
C1014 C 0.04216 0.66227 0.2451 0.0
C1015 C 0.02816 0.63924 0.25434 0.0
C1016 C 0.03468 0.62295 0.24839 0.0
C1017 C 0.01689 0.59958 0.26245 0.0
C1018 C 1.00642 0.58172 0.23345 0.0
C1019 C 0.02731 0.59151 0.29067 0.0
C1020 C 0.99935 0.60529 0.27714 0.0
C1021 C 1.00615 0.62824 0.27196 0.0
C1022 C 0.99242 0.63742 0.282 0.0
C1023 C 0.97094 0.62265 0.29702 0.0
C1024 C 0.96356 0.59906 0.30241 0.0
C1025 C 0.97815 0.5904 0.29284 0.0
H1026 H 0.62234 0.96838 0.79579 0.0
H1027 H 0.55259 0.95691 0.79988 0.0
H1028 H 0.56505 0.99318 0.76877 0.0
H1029 H 0.64968 0.03086 0.8109 0.0
H1030 H 0.6739 0.03788 0.7833 0.0
H1031 H 0.65956 1.0105 0.80511 0.0
H1032 H 0.65296 0.98963 0.74682 0.0
H1033 H 0.66696 0.01695 0.72478 0.0
H1034 H 0.6381 0.99531 0.71299 0.0
H1035 H 0.58351 0.02824 0.73335 0.0
H1036 H 0.60885 0.06553 0.70606 0.0
H1037 H 0.66844 0.05853 0.72993 0.0
C1038 C 0.60984 0.97372 0.79038 0.0
C1039 C 0.58647 0.95981 0.80021 0.0
C1040 C 0.57059 0.96736 0.79289 0.0
C1041 C 0.57744 0.98784 0.77491 0.0
C1042 C 0.6004 1.00096 0.76503 0.0
C1043 C 0.61659 0.99471 0.77332 0.0
C1044 C 0.64045 0.01306 0.76133 0.0
C1045 C 0.65687 0.02371 0.79199 0.0
C1046 C 0.65019 1.00313 0.73491 0.0
C1047 C 0.63496 0.03035 0.74478 0.0
C1048 C 0.6116 0.02256 0.74659 0.0
C1049 C 0.60189 0.03472 0.73213 0.0
C1050 C 0.61648 0.05585 0.71638 0.0
C1051 C 0.64068 0.06505 0.71584 0.0
C1052 C 0.65002 0.05195 0.72994 0.0
H1053 H 0.61415 0.57056 0.79371 0.0
H1054 H 0.68515 0.62631 0.79228 0.0
H1055 H 0.67273 0.65218 0.76697 0.0
H1056 H 0.59893 0.58372 0.71278 0.0
H1057 H 0.57007 0.57628 0.72502 0.0
H1058 H 0.58403 0.56246 0.74572 0.0
H1059 H 0.57746 0.57547 0.80512 0.0
H1060 H 0.56317 0.58903 0.78465 0.0
H1061 H 0.58739 0.60556 0.81258 0.0
H1062 H 0.65287 0.67184 0.7409 0.0
H1063 H 0.62676 0.68426 0.71661 0.0
H1064 H 0.56867 0.61535 0.73135 0.0
C1065 C 0.62698 0.58836 0.78878 0.0
C1066 C 0.65061 0.59655 0.79543 0.0
C1067 C 0.66697 0.61975 0.78769 0.0
C1068 C 0.66008 0.63455 0.7732 0.0
C1069 C 0.63676 0.62583 0.76616 0.0
C1070 C 0.62042 0.6033 0.77372 0.0
C1071 C 0.59661 0.59807 0.76217 0.0
C1072 C 0.58684 0.579 0.7348 0.0
C1073 C 0.58019 0.59166 0.79297 0.0
C1074 C 0.60213 0.62117 0.74699 0.0
C1075 C 0.6254 0.63695 0.74976 0.0
C1076 C 0.63464 0.65962 0.73847 0.0
C1077 C 0.61968 0.6665 0.7246 0.0
C1078 C 0.59575 0.65074 0.72167 0.0
C1079 C 0.58696 0.62768 0.73262 0.0
H1080 H 0.96775 0.57113 0.7318 0.0
H1081 H 0.95353 0.62751 0.72623 0.0
H1082 H 0.99133 0.65354 0.75284 0.0
H1083 H 0.9939 0.58563 0.81434 0.0
H1084 H 1.01523 0.57746 0.80524 0.0
H1085 H 0.988 0.56357 0.78302 0.0
H1086 H 1.00911 0.575 0.72451 0.0
H1087 H 0.0364 0.58857 0.74654 0.0
H1088 H 0.02989 0.6048 0.71614 0.0
H1089 H 0.03057 0.67342 0.78016 0.0
H1090 H 0.0687 0.68583 0.80616 0.0
H1091 H 0.0563 0.61595 0.7986 0.0
C1092 C 0.97287 0.5891 0.73546 0.0
C1093 C 0.95792 0.59746 0.72641 0.0
C1094 C 0.96486 0.62086 0.73262 0.0
C1095 C 0.98625 0.63573 0.74784 0.0
C1096 C 1.00036 0.62685 0.75725 0.0
C1097 C 0.994 0.60409 0.75133 0.0
C1098 C 1.01193 0.59869 0.7654 0.0
C1099 C 1.00164 0.58024 0.79368 0.0
C1100 C 0.02246 0.59134 0.73642 0.0
C1101 C 0.02939 0.62199 0.78001 0.0
C1102 C 0.02242 0.63802 0.77481 0.0
C1103 C 0.0361 0.66097 0.78466 0.0
C1104 C 0.05767 0.66785 0.79954 0.0
C1105 C 0.06521 0.65177 0.80502 0.0
C1106 C 0.05068 0.62847 0.7956 0.0
H1107 H 0.45744 0.05342 0.79138 0.0
H1108 H 0.39989 0.06594 0.79659 0.0
H1109 H 0.37409 0.02713 0.77324 0.0
H1110 H 0.44133 0.02341 0.71138 0.0
H1111 H 0.45034 1.00299 0.7226 0.0
H1112 H 0.46428 0.03119 0.74192 0.0
H1113 H 0.45471 0.01277 0.80244 0.0
H1114 H 0.44098 0.98452 0.78331 0.0
H1115 H 0.42527 0.99208 0.8131 0.0
H1116 H 0.35456 0.98748 0.7488 0.0
H1117 H 0.34222 0.94889 0.72517 0.0
H1118 H 0.41244 0.96202 0.73263 0.0
C1119 C 0.43932 0.04779 0.78817 0.0
C1120 C 0.4306 0.06262 0.79614 0.0
C1121 C 0.40691 0.05484 0.79083 0.0
C1122 C 0.39212 0.03284 0.77752 0.0
C1123 C 0.4013 0.01882 0.76926 0.0
C1124 C 0.42432 0.0259 0.77437 0.0
C1125 C 0.42979 1.00763 0.76211 0.0
C1126 C 0.44749 0.01686 0.73276 0.0
C1127 C 0.43818 0.99872 0.79203 0.0
C1128 C 0.40625 0.98921 0.74942 0.0
C1129 C 0.3901 0.99607 0.75397 0.0
C1130 C 0.36706 0.98193 0.74502 0.0
C1131 C 0.36022 0.96005 0.73155 0.0
C1132 C 0.37637 0.9525 0.72678 0.0
C1133 C 0.39977 0.96745 0.73549 0.0
H1134 H 0.41293 0.44964 0.79237 0.0
H1135 H 0.34174 0.39434 0.79072 0.0
H1136 H 0.35367 0.36865 0.76353 0.0
H1137 H 0.42737 0.43765 0.71009 0.0
H1138 H 0.45624 0.44465 0.72149 0.0
H1139 H 0.44263 0.45832 0.74354 0.0
H1140 H 0.44946 0.44423 0.80193 0.0
H1141 H 0.46343 0.43084 0.78011 0.0
H1142 H 0.43936 0.41398 0.80814 0.0
H1143 H 0.37308 0.34909 0.73597 0.0
H1144 H 0.39889 0.33673 0.71038 0.0
H1145 H 0.45731 0.4053 0.72593 0.0
C1146 C 0.39997 0.43196 0.78698 0.0
C1147 C 0.37643 0.42382 0.7941 0.0
C1148 C 0.35986 0.40081 0.78575 0.0
C1149 C 0.36647 0.38613 0.77021 0.0
C1150 C 0.3897 0.39481 0.76271 0.0
C1151 C 0.40624 0.41716 0.77083 0.0
C1152 C 0.4299 0.42241 0.75856 0.0
C1153 C 0.4396 0.44192 0.73183 0.0
C1154 C 0.44651 0.4282 0.789 0.0
C1155 C 0.42405 0.39951 0.74239 0.0
C1156 C 0.40078 0.38382 0.74527 0.0
C1157 C 0.39131 0.36127 0.73337 0.0
C1158 C 0.40607 0.35442 0.71876 0.0
C1159 C 0.43 0.37013 0.7157 0.0
C1160 C 0.43901 0.39307 0.72722 0.0
H1161 H 0.06307 0.45796 0.73168 0.0
H1162 H 0.07615 0.40093 0.7228 0.0
H1163 H 0.0373 0.37441 0.74556 0.0
H1164 H 0.03301 0.44008 0.81139 0.0
H1165 H 1.01246 0.44913 0.80126 0.0
H1166 H 0.04067 0.4636 0.78196 0.0
H1167 H 0.02229 0.45514 0.72145 0.0
H1168 H 0.99402 0.44089 0.74057 0.0
H1169 H 1.00173 0.42588 0.70968 0.0
H1170 H 0.99745 0.35411 0.76997 0.0
H1171 H 0.9588 0.34113 0.79402 0.0
H1172 H 0.97164 0.41134 0.79029 0.0
C1173 C 0.05756 0.43981 0.73393 0.0
C1174 C 0.07256 0.43145 0.72508 0.0
C1175 C 0.06492 0.40769 0.7292 0.0
C1176 C 0.04289 0.3925 0.74217 0.0
C1177 C 0.0287 0.40133 0.75132 0.0
C1178 C 0.03566 0.42441 0.74738 0.0
C1179 C 0.01727 0.42948 0.76046 0.0
C1180 C 0.0264 0.44659 0.79056 0.0
C1181 C 1.00829 0.43837 0.7313 0.0
C1182 C 0.99893 0.40566 0.77232 0.0
C1183 C 1.00591 0.38969 0.76662 0.0
C1184 C 0.99183 0.36647 0.77465 0.0
C1185 C 0.96991 0.35926 0.78838 0.0
C1186 C 0.96226 0.37521 0.79435 0.0
C1187 C 0.97714 0.39879 0.78654 0.0
H1188 H 0.46551 0.18913 0.23119 0.0
H1189 H 0.5391 0.21938 0.21309 0.0
H1190 H 0.54578 0.25621 0.23501 0.0
H1191 H 0.46308 0.23986 0.20483 0.0
H1192 H 0.44251 0.23722 0.23686 0.0
H1193 H 0.44255 0.21187 0.22151 0.0
H1194 H 0.44709 0.20115 0.28365 0.0
H1195 H 0.44686 0.22637 0.29921 0.0
H1196 H 0.47057 0.22191 0.30967 0.0
H1197 H 0.5459 0.28943 0.25817 0.0
H1198 H 0.53934 0.31912 0.28263 0.0
H1199 H 0.46551 0.27129 0.28413 0.0
C1200 C 0.483 0.20346 0.23237 0.0
C1201 C 0.50179 0.20103 0.22066 0.0
C1202 C 0.52437 0.22042 0.22205 0.0
C1203 C 0.52843 0.24162 0.2344 0.0
C1204 C 0.50975 0.24361 0.24509 0.0
C1205 C 0.48745 0.22527 0.24431 0.0
C1206 C 0.47078 0.23306 0.25675 0.0
C1207 C 0.45371 0.23034 0.22828 0.0
C1208 C 0.45807 0.21983 0.28926 0.0
C1209 C 0.48739 0.25848 0.26457 0.0
C1210 C 0.50973 0.26383 0.25763 0.0
C1211 C 0.52848 0.28559 0.26349 0.0
C1212 C 0.5245 0.30245 0.27733 0.0
C1213 C 0.50189 0.29785 0.28489 0.0
C1214 C 0.48295 0.27551 0.27802 0.0
H1215 H 0.23304 0.51227 0.28207 0.0
H1216 H 0.18308 0.43999 0.29786 0.0
H1217 H 0.2115 0.42946 0.27664 0.0
H1218 H 0.25616 0.50426 0.20321 0.0
H1219 H 0.28511 0.52686 0.21251 0.0
H1220 H 0.26091 0.52834 0.22958 0.0
H1221 H 0.27727 0.53209 0.29097 0.0
H1222 H 0.30142 0.53041 0.27412 0.0
H1223 H 0.28342 0.51042 0.30674 0.0
H1224 H 0.24667 0.42731 0.2558 0.0
H1225 H 0.28345 0.43337 0.23136 0.0
H1226 H 0.3089 0.50693 0.22644 0.0
C1227 C 0.22802 0.4942 0.2811 0.0
C1228 C 0.20587 0.47694 0.29185 0.0
C1229 C 0.19993 0.4535 0.2897 0.0
C1230 C 0.21601 0.44738 0.27785 0.0
C1231 C 0.23782 0.46489 0.2678 0.0
C1232 C 0.24366 0.48781 0.26884 0.0
C1233 C 0.26783 0.50336 0.25548 0.0
C1234 C 0.26747 0.51647 0.22328 0.0
C1235 C 0.2834 0.52005 0.28351 0.0
C1236 C 0.27483 0.48568 0.24693 0.0
C1237 C 0.25745 0.46359 0.25456 0.0
C1238 C 0.2603 0.44453 0.24951 0.0
C1239 C 0.2813 0.44814 0.2358 0.0
C1240 C 0.29902 0.47059 0.22683 0.0
C1241 C 0.29565 0.48952 0.23276 0.0
H1242 H 0.72928 0.22176 0.28093 0.0
H1243 H 0.75469 0.17377 0.29004 0.0
H1244 H 0.7928 0.20391 0.26803 0.0
H1245 H 0.75885 0.24837 0.20217 0.0
H1246 H 0.76387 0.27643 0.21459 0.0
H1247 H 0.73901 0.25089 0.23063 0.0
H1248 H 0.75165 0.26514 0.29291 0.0
H1249 H 0.77666 0.29062 0.27709 0.0
H1250 H 0.78 0.27205 0.30718 0.0
H1251 H 0.82918 0.2411 0.24759 0.0
H1252 H 0.85847 0.2797 0.22609 0.0
H1253 H 0.80741 0.30149 0.22908 0.0
C1254 C 0.74278 0.21744 0.27824 0.0
C1255 C 0.73902 0.1954 0.28741 0.0
C1256 C 0.75715 0.19051 0.28309 0.0
C1257 C 0.77886 0.20756 0.27077 0.0
C1258 C 0.78201 0.22927 0.2625 0.0
C1259 C 0.76426 0.23403 0.26569 0.0
C1260 C 0.77161 0.25841 0.25477 0.0
C1261 C 0.7575 0.25852 0.22369 0.0
C1262 C 0.76988 0.27237 0.28478 0.0
C1263 C 0.79642 0.26686 0.24515 0.0
C1264 C 0.80229 0.24999 0.24995 0.0
C1265 C 0.82463 0.25432 0.24351 0.0
C1266 C 0.84119 0.27632 0.23147 0.0
C1267 C 0.83524 0.29361 0.22567 0.0
C1268 C 0.81254 0.28865 0.23286 0.0
H1269 H 0.50886 0.79384 0.21469 0.0
H1270 H 0.58237 0.8418 0.20997 0.0
H1271 H 0.58988 0.81139 0.23148 0.0
H1272 H 0.51051 0.7687 0.29349 0.0
H1273 H 0.48796 0.74006 0.28251 0.0
H1274 H 0.48843 0.76474 0.26328 0.0
H1275 H 0.48818 0.74869 0.20277 0.0
H1276 H 0.4876 0.72388 0.22182 0.0
H1277 H 0.50995 0.74148 0.19166 0.0
H1278 H 0.58922 0.77567 0.25498 0.0
H1279 H 0.58041 0.73858 0.28169 0.0
H1280 H 0.50729 0.71518 0.27456 0.0
C1281 C 0.52652 0.79783 0.21743 0.0
C1282 C 0.54503 0.82012 0.21013 0.0
C1283 C 0.56792 0.82478 0.21519 0.0
C1284 C 0.57236 0.80762 0.22733 0.0
C1285 C 0.5537 0.78591 0.23479 0.0
C1286 C 0.53122 0.78103 0.23022 0.0
C1287 C 0.51422 0.75694 0.24263 0.0
C1288 C 0.49942 0.75767 0.27224 0.0
C1289 C 0.4991 0.74186 0.21294 0.0
C1290 C 0.53062 0.74904 0.25497 0.0
C1291 C 0.55332 0.76585 0.24983 0.0
C1292 C 0.5715 0.76239 0.25914 0.0
C1293 C 0.56633 0.74126 0.27426 0.0
C1294 C 0.54318 0.72399 0.28044 0.0
C1295 C 0.52519 0.72806 0.27047 0.0
H1296 H 0.72637 0.50921 0.23421 0.0
H1297 H 0.75164 0.58242 0.22258 0.0
H1298 H 0.78988 0.59077 0.24437 0.0
H1299 H 0.75628 0.51376 0.31335 0.0
H1300 H 0.76144 0.49058 0.30243 0.0
H1301 H 0.73649 0.4908 0.28568 0.0
H1302 H 0.7491 0.48798 0.2239 0.0
H1303 H 0.77421 0.48798 0.24042 0.0
H1304 H 0.77739 0.50921 0.20914 0.0
H1305 H 0.82617 0.59055 0.2649 0.0
H1306 H 0.85565 0.58216 0.28812 0.0
H1307 H 0.80519 0.50913 0.28887 0.0
C1308 C 0.7399 0.52704 0.23626 0.0
C1309 C 0.73606 0.54519 0.22647 0.0
C1310 C 0.75418 0.56826 0.23 0.0
C1311 C 0.77597 0.57314 0.24218 0.0
C1312 C 0.77921 0.55475 0.25116 0.0
C1313 C 0.7615 0.53218 0.24882 0.0
C1314 C 0.76901 0.51547 0.26098 0.0
C1315 C 0.75498 0.50186 0.29248 0.0
C1316 C 0.76733 0.49921 0.23187 0.0
C1317 C 0.79384 0.53209 0.27032 0.0
C1318 C 0.79955 0.55467 0.26416 0.0
C1319 C 0.82179 0.57294 0.27005 0.0
C1320 C 0.83846 0.568 0.28305 0.0
C1321 C 0.83272 0.54501 0.29047 0.0
C1322 C 0.8101 0.52691 0.28376 0.0
H1323 H 0.22907 0.7193 0.23866 0.0
H1324 H 0.1781 0.74109 0.2457 0.0
H1325 H 0.2067 0.77693 0.27465 0.0
H1326 H 0.25545 0.7419 0.32233 0.0
H1327 H 0.28408 0.75032 0.3075 0.0
H1328 H 0.25943 0.72616 0.28807 0.0
H1329 H 0.27263 0.74525 0.22831 0.0
H1330 H 0.29729 0.76942 0.24755 0.0
H1331 H 0.27764 0.77404 0.2217 0.0
H1332 H 0.24196 0.81194 0.29836 0.0
H1333 H 0.28034 0.84212 0.31865 0.0
H1334 H 0.30738 0.79633 0.29989 0.0
C1335 C 0.22387 0.73155 0.24644 0.0
C1336 C 0.20133 0.7274 0.23976 0.0
C1337 C 0.19521 0.74382 0.25062 0.0
C1338 C 0.21136 0.76426 0.26704 0.0
C1339 C 0.23346 0.76787 0.273 0.0
C1340 C 0.23963 0.75184 0.26342 0.0
C1341 C 0.2645 0.75988 0.27283 0.0
C1342 C 0.26594 0.74359 0.29926 0.0
C1343 C 0.27886 0.76229 0.24068 0.0
C1344 C 0.27151 0.78318 0.28851 0.0
C1345 C 0.25339 0.78751 0.28823 0.0
C1346 C 0.25614 0.80855 0.29925 0.0
C1347 C 0.27799 0.8256 0.31067 0.0
C1348 C 0.29675 0.82144 0.31149 0.0
C1349 C 0.2933 0.79982 0.30056 0.0
H1350 H 0.51333 0.72435 0.73884 0.0
H1351 H 0.58563 0.74984 0.71747 0.0
H1352 H 0.59507 0.78829 0.73992 0.0
H1353 H 0.51151 0.77513 0.7174 0.0
H1354 H 0.49214 0.7718 0.75185 0.0
H1355 H 0.49139 0.74679 0.73342 0.0
H1356 H 0.49796 0.73443 0.79346 0.0
H1357 H 0.49853 0.75929 0.81211 0.0
H1358 H 0.52241 0.75443 0.81868 0.0
H1359 H 0.59571 0.82501 0.76288 0.0
H1360 H 0.58809 0.85421 0.78969 0.0
H1361 H 0.51579 0.80252 0.79903 0.0
C1362 C 0.53118 0.73798 0.7388 0.0
C1363 C 0.54873 0.73414 0.72613 0.0
C1364 C 0.57191 0.7524 0.72707 0.0
C1365 C 0.57739 0.77431 0.73962 0.0
C1366 C 0.55954 0.77753 0.75163 0.0
C1367 C 0.53695 0.75966 0.75177 0.0
C1368 C 0.52092 0.76697 0.76726 0.0
C1369 C 0.50294 0.76506 0.7409 0.0
C1370 C 0.50928 0.75295 0.79981 0.0
C1371 C 0.5379 0.79185 0.77568 0.0
C1372 C 0.56008 0.79787 0.76614 0.0
C1373 C 0.57841 0.82034 0.77068 0.0
C1374 C 0.57393 0.83685 0.78576 0.0
C1375 C 0.55139 0.83067 0.79665 0.0
C1376 C 0.53327 0.80786 0.79127 0.0
H1377 H 0.71873 0.506 0.78341 0.0
H1378 H 0.74305 0.57933 0.78854 0.0
H1379 H 0.78156 0.58756 0.76872 0.0
H1380 H 0.77006 0.50776 0.81193 0.0
H1381 H 0.76772 0.48583 0.78274 0.0
H1382 H 0.74212 0.48571 0.79718 0.0
H1383 H 0.73012 0.48646 0.73422 0.0
H1384 H 0.75555 0.4863 0.71958 0.0
H1385 H 0.75001 0.50877 0.70574 0.0
H1386 H 0.81832 0.58759 0.75184 0.0
H1387 H 0.84867 0.57949 0.73197 0.0
H1388 H 0.79937 0.50617 0.73429 0.0
C1389 C 0.73211 0.52381 0.78018 0.0
C1390 C 0.72789 0.54205 0.78765 0.0
C1391 C 0.74584 0.56509 0.7828 0.0
C1392 C 0.76781 0.56992 0.77177 0.0
C1393 C 0.77148 0.55152 0.76517 0.0
C1394 C 0.75397 0.52892 0.76859 0.0
C1395 C 0.76213 0.51225 0.75886 0.0
C1396 C 0.7604 0.49699 0.78951 0.0
C1397 C 0.74866 0.49759 0.72774 0.0
C1398 C 0.78704 0.52898 0.74974 0.0
C1399 C 0.79221 0.55155 0.75397 0.0
C1400 C 0.81438 0.56998 0.74814 0.0
C1401 C 0.83155 0.56521 0.73708 0.0
C1402 C 0.8264 0.54222 0.73143 0.0
C1403 C 0.80383 0.52394 0.73811 0.0
H1404 H 0.30102 0.79462 0.72568 0.0
H1405 H 0.27823 0.84481 0.71919 0.0
H1406 H 0.24005 0.81578 0.74215 0.0
H1407 H 0.24753 0.74418 0.70342 0.0
H1408 H 0.25111 0.72592 0.73384 0.0
H1409 H 0.27604 0.75028 0.71539 0.0
H1410 H 0.29153 0.766 0.77618 0.0
H1411 H 0.26672 0.74164 0.79482 0.0
H1412 H 0.27354 0.77049 0.80589 0.0
H1413 H 0.20376 0.7803 0.76466 0.0
H1414 H 0.17429 0.74333 0.7903 0.0
H1415 H 0.22248 0.71796 0.78575 0.0
C1416 C 0.288 0.79953 0.72888 0.0
C1417 C 0.29255 0.82195 0.72034 0.0
C1418 C 0.27511 0.82773 0.72551 0.0
C1419 C 0.25336 0.81132 0.7384 0.0
C1420 C 0.24947 0.78934 0.7465 0.0
C1421 C 0.26646 0.78359 0.74234 0.0
C1422 C 0.2585 0.75929 0.75465 0.0
C1423 C 0.25828 0.74402 0.72506 0.0
C1424 C 0.27346 0.75937 0.78467 0.0
C1425 C 0.23429 0.75216 0.76632 0.0
C1426 C 0.22922 0.76956 0.76097 0.0
C1427 C 0.20763 0.76664 0.76913 0.0
C1428 C 0.19096 0.74556 0.78353 0.0
C1429 C 0.1961 0.7278 0.79019 0.0
C1430 C 0.21806 0.73124 0.78124 0.0
H1431 H 0.51508 0.29826 0.73014 0.0
H1432 H 0.44194 0.27386 0.71989 0.0
H1433 H 0.43319 0.23605 0.74402 0.0
H1434 H 0.51361 0.24601 0.70807 0.0
H1435 H 0.53519 0.24975 0.73905 0.0
H1436 H 0.53539 0.27457 0.72089 0.0
H1437 H 0.53385 0.28917 0.78184 0.0
H1438 H 0.53381 0.26447 0.8002 0.0
H1439 H 0.51115 0.27049 0.81081 0.0
H1440 H 0.433 0.19999 0.76731 0.0
H1441 H 0.4413 0.17075 0.7921 0.0
H1442 H 0.51449 0.22053 0.78892 0.0
C1443 C 0.49718 0.285 0.73291 0.0
C1444 C 0.47918 0.28896 0.72291 0.0
C1445 C 0.45601 0.27121 0.72743 0.0
C1446 C 0.45089 0.24967 0.74097 0.0
C1447 C 0.46915 0.24631 0.75024 0.0
C1448 C 0.49181 0.26366 0.74674 0.0
C1449 C 0.50839 0.25614 0.75931 0.0
C1450 C 0.52406 0.25665 0.73008 0.0
C1451 C 0.52263 0.27095 0.78986 0.0
C1452 C 0.49157 0.23174 0.77026 0.0
C1453 C 0.469 0.22619 0.76461 0.0
C1454 C 0.45061 0.20425 0.77206 0.0
C1455 C 0.45548 0.18773 0.78598 0.0
C1456 C 0.47852 0.19338 0.79267 0.0
C1457 C 0.49667 0.21568 0.78449 0.0
H1458 H 0.22986 0.51664 0.74067 0.0
H1459 H 0.18225 0.44391 0.72355 0.0
H1460 H 0.21195 0.43486 0.74381 0.0
H1461 H 0.28124 0.51766 0.71452 0.0
H1462 H 0.29896 0.53767 0.7473 0.0
H1463 H 0.274 0.53828 0.73147 0.0
H1464 H 0.25796 0.5331 0.79328 0.0
H1465 H 0.28297 0.53269 0.80935 0.0
H1466 H 0.25454 0.50912 0.8188 0.0
H1467 H 0.24818 0.43433 0.76311 0.0
H1468 H 0.2858 0.44176 0.78592 0.0
H1469 H 0.30837 0.51464 0.7934 0.0
C1470 C 0.22561 0.49877 0.74125 0.0
C1471 C 0.20375 0.48097 0.73033 0.0
C1472 C 0.19884 0.45781 0.73189 0.0
C1473 C 0.21565 0.45254 0.74318 0.0
C1474 C 0.23714 0.47059 0.75331 0.0
C1475 C 0.24198 0.4932 0.75296 0.0
C1476 C 0.26608 0.50943 0.76606 0.0
C1477 C 0.28094 0.52678 0.73817 0.0
C1478 C 0.26533 0.52181 0.79882 0.0
C1479 C 0.27423 0.49247 0.77359 0.0
C1480 C 0.25743 0.47018 0.76571 0.0
C1481 C 0.26135 0.45171 0.76962 0.0
C1482 C 0.28283 0.45611 0.7824 0.0
C1483 C 0.30001 0.47876 0.79159 0.0
C1484 C 0.29555 0.49711 0.78689 0.0
H1485 H 0.80438 0.30045 0.79159 0.0
H1486 H 0.85347 0.27633 0.79892 0.0
H1487 H 0.82339 0.23774 0.77844 0.0
H1488 H 0.75437 0.24889 0.81899 0.0
H1489 H 0.73547 0.25189 0.78912 0.0
H1490 H 0.76075 0.27713 0.80492 0.0
H1491 H 0.77478 0.29009 0.74262 0.0
H1492 H 0.74941 0.26506 0.72664 0.0
H1493 H 0.77759 0.27054 0.71392 0.0
H1494 H 0.78628 0.20082 0.75837 0.0
H1495 H 0.74823 0.17161 0.73478 0.0
H1496 H 0.72552 0.22189 0.73899 0.0
C1497 C 0.8089 0.2871 0.78897 0.0
C1498 C 0.83126 0.29139 0.7971 0.0
C1499 C 0.83646 0.27346 0.79278 0.0
C1500 C 0.81943 0.25145 0.78138 0.0
C1501 C 0.79741 0.24778 0.77403 0.0
C1502 C 0.79233 0.26532 0.77725 0.0
C1503 C 0.76785 0.25759 0.76652 0.0
C1504 C 0.75379 0.25895 0.79669 0.0
C1505 C 0.76739 0.27165 0.73558 0.0
C1506 C 0.75976 0.23288 0.75676 0.0
C1507 C 0.77682 0.22728 0.76159 0.0
C1508 C 0.77289 0.20514 0.7544 0.0
C1509 C 0.7512 0.1886 0.74124 0.0
C1510 C 0.7339 0.19444 0.73497 0.0
C1511 C 0.73834 0.21682 0.74335 0.0
H1512 H 0.46152 0.10776 0.08079 0.0
H1513 H 0.45796 0.16928 0.10164 0.0
H1514 H 0.44761 0.17051 0.04102 0.0
H1515 H 0.49149 0.12755 1.0084 0.0
H1516 H 0.47881 0.10078 0.98502 0.0
H1517 H 0.47884 0.10046 0.03104 0.0
H1518 H 0.43441 0.07425 0.03166 0.0
H1519 H 0.4342 0.07423 0.98541 0.0
H1520 H 0.41667 0.08304 1.00878 0.0
H1521 H 0.4474 0.17065 0.97744 0.0
H1522 H 0.45659 0.16929 0.91635 0.0
H1523 H 0.46018 0.10755 0.93558 0.0
C1524 C 0.45722 0.12065 0.07283 0.0
C1525 C 0.45963 0.13795 0.09581 0.0
C1526 C 0.45532 0.15546 0.08447 0.0
C1527 C 0.44954 0.15629 0.05009 0.0
C1528 C 0.4483 0.13954 0.02748 0.0
C1529 C 0.45182 0.12188 0.03848 0.0
C1530 C 0.45359 0.10851 1.00842 0.0
C1531 C 0.47706 0.1094 1.00822 0.0
C1532 C 0.43351 0.08352 1.00858 0.0
C1533 C 0.45155 0.12198 0.97873 0.0
C1534 C 0.44816 0.13961 0.99026 0.0
C1535 C 0.44917 0.15642 0.96801 0.0
C1536 C 0.45436 0.15554 0.93339 0.0
C1537 C 0.45821 0.13785 0.92134 0.0
C1538 C 0.45615 0.12054 0.94404 0.0
H1539 H 0.36032 0.45171 0.93392 0.0
H1540 H 0.29552 0.44913 0.91443 0.0
H1541 H 0.2839 0.43786 0.9748 0.0
H1542 H 0.34004 0.40554 1.00335 0.0
H1543 H 0.36622 0.42238 0.0274 0.0
H1544 H 0.36669 0.42391 0.9812 0.0
H1545 H 0.38481 0.46832 0.98453 0.0
H1546 H 0.38433 0.46692 0.03051 0.0
H1547 H 0.3703 0.48027 1.00864 0.0
H1548 H 0.28314 0.43568 0.03849 0.0
H1549 H 0.29345 0.44312 0.09996 0.0
H1550 H 0.35866 0.44691 0.07915 0.0
C1551 C 0.34318 0.44743 0.94207 0.0
C1552 C 0.32835 0.45031 0.9195 0.0
C1553 C 0.30667 0.44619 0.93126 0.0
C1554 C 0.30001 0.43984 0.96548 0.0
C1555 C 0.31537 0.43793 0.98764 0.0
C1556 C 0.33651 0.44151 0.97634 0.0
C1557 C 0.35147 0.44242 1.00616 0.0
C1558 C 0.35639 0.42236 1.00442 0.0
C1559 C 0.37403 0.46586 1.00753 0.0
C1560 C 0.33582 0.43956 0.03606 0.0
C1561 C 0.31492 0.43668 0.02484 0.0
C1562 C 0.29904 0.43705 0.04763 0.0
C1563 C 0.30494 0.44117 0.08249 0.0
C1564 C 0.32637 0.44457 0.09422 0.0
C1565 C 0.34167 0.4431 0.0709 0.0
H1566 H 0.91753 0.3644 0.93687 0.0
H1567 H 0.85964 0.29619 0.91854 0.0
H1568 H 0.85923 0.28659 0.97993 0.0
H1569 H 0.94543 0.34947 1.00978 0.0
H1570 H 0.95211 0.37557 0.03232 0.0
H1571 H 0.95163 0.37506 0.98608 0.0
H1572 H 0.92214 0.38941 0.98626 0.0
H1573 H 0.92239 0.38982 0.03233 0.0
H1574 H 0.89554 0.37334 1.00969 0.0
H1575 H 0.8599 0.2871 0.04359 0.0
H1576 H 0.8616 0.29772 0.10474 0.0
H1577 H 0.91899 0.36565 0.08291 0.0
C1578 C 0.90562 0.34708 0.94565 0.0
C1579 C 0.88914 0.33067 0.92308 0.0
C1580 C 0.8728 0.30864 0.93548 0.0
C1581 C 0.87245 0.30311 0.97026 0.0
C1582 C 0.88843 0.31992 0.99229 0.0
C1583 C 0.9048 0.34147 0.98046 0.0
C1584 C 0.91752 0.3576 0.01 0.0
C1585 C 0.9432 0.36485 1.00951 0.0
C1586 C 0.91418 0.37877 1.00953 0.0
C1587 C 0.90529 0.34202 0.04027 0.0
C1588 C 0.88876 0.32025 0.02949 0.0
C1589 C 0.87328 0.3038 0.05244 0.0
C1590 C 0.87436 0.30991 0.08707 0.0
C1591 C 0.89094 0.33214 0.09843 0.0
C1592 C 0.90689 0.34819 0.07493 0.0
H1593 H 0.56386 0.91638 0.08644 0.0
H1594 H 0.58617 0.86761 0.11092 0.0
H1595 H 0.59709 0.86772 0.05026 0.0
H1596 H 0.53578 0.89034 0.01476 0.0
H1597 H 0.54251 0.91577 0.99027 0.0
H1598 H 0.54252 0.91681 0.03625 0.0
H1599 H 0.58465 0.95082 0.03576 0.0
H1600 H 0.58469 0.94997 0.98953 0.0
H1601 H 0.60658 0.94781 0.01346 0.0
H1602 H 0.59575 0.86532 0.98617 0.0
H1603 H 0.58473 0.86278 0.92494 0.0
H1604 H 0.56493 0.91436 0.94144 0.0
C1605 C 0.57223 0.90675 0.07925 0.0
C1606 C 0.57489 0.89254 0.10333 0.0
C1607 C 0.58482 0.87922 0.09294 0.0
C1608 C 0.59092 0.8791 0.0585 0.0
C1609 C 0.58705 0.89248 0.03487 0.0
C1610 C 0.5783 0.90642 0.04495 0.0
C1611 C 0.57258 0.91651 0.0142 0.0
C1612 C 0.54684 0.90942 0.01388 0.0
C1613 C 0.58806 0.94285 0.01318 0.0
C1614 C 0.57836 0.9052 0.98522 0.0
C1615 C 0.5869 0.89156 0.99759 0.0
C1616 C 0.59002 0.87667 0.97605 0.0
C1617 C 0.5838 0.87534 0.94133 0.0
C1618 C 0.57492 0.88906 0.92847 0.0
C1619 C 0.57278 0.90457 0.95048 0.0
H1620 H 0.7049 0.53593 0.07899 0.0
H1621 H 0.68751 0.58865 0.10307 0.0
H1622 H 0.69152 0.5995 0.04168 0.0
H1623 H 0.74559 0.56658 1.00696 0.0
H1624 H 0.73519 0.54005 0.98343 0.0
H1625 H 0.7353 0.53973 0.02965 0.0
H1626 H 0.69157 0.50972 0.0297 0.0
H1627 H 0.69132 0.50998 0.98367 0.0
H1628 H 0.67196 0.51624 1.00728 0.0
H1629 H 0.69134 0.60004 0.97591 0.0
H1630 H 0.68648 0.5898 0.91421 0.0
H1631 H 0.70432 0.53697 0.93492 0.0
C1632 C 0.70258 0.55024 0.07169 0.0
C1633 C 0.69598 0.56148 0.09603 0.0
C1634 C 0.69283 0.57991 0.08505 0.0
C1635 C 0.69506 0.58619 0.05016 0.0
C1636 C 0.70072 0.57407 0.02666 0.0
C1637 C 0.70467 0.55662 0.0372 0.0
C1638 C 0.70797 0.54441 1.00705 0.0
C1639 C 0.73247 0.54791 1.00676 0.0
C1640 C 0.68962 0.51858 1.00693 0.0
C1641 C 0.70446 0.55709 0.97771 0.0
C1642 C 0.70062 0.57439 0.98928 0.0
C1643 C 0.69481 0.58686 0.96661 0.0
C1644 C 0.69218 0.581 0.93153 0.0
C1645 C 0.69511 0.56264 0.91959 0.0
C1646 C 0.70213 0.55123 0.94303 0.0
H1647 H 0.18054 0.70778 0.941 0.0
H1648 H 0.10994 0.69067 0.92193 0.0
H1649 H 0.10545 0.69651 0.98355 0.0
H1650 H 0.16928 0.67613 0.01292 0.0
H1651 H 0.19565 0.69537 0.03502 0.0
H1652 H 0.19486 0.69526 0.98903 0.0
H1653 H 0.20914 0.73911 0.98869 0.0
H1654 H 0.21011 0.73939 0.0349 0.0
H1655 H 0.19362 0.74998 0.01275 0.0
H1656 H 0.10679 0.69713 0.04919 0.0
H1657 H 0.11366 0.69217 0.11018 0.0
H1658 H 0.18333 0.70869 0.08489 0.0
C1659 C 0.16433 0.70602 0.94942 0.0
C1660 C 0.14563 0.69887 0.92646 0.0
C1661 C 0.12464 0.69647 0.93883 0.0
C1662 C 0.12193 0.69969 0.97388 0.0
C1663 C 0.14045 0.70561 0.99612 0.0
C1664 C 0.16135 0.70902 0.9841 0.0
C1665 C 0.17767 0.71232 0.01318 0.0
C1666 C 0.18475 0.69366 0.01248 0.0
C1667 C 0.19889 0.73665 0.01232 0.0
C1668 C 0.16247 0.70932 0.04363 0.0
C1669 C 0.14118 0.70585 0.03351 0.0
C1670 C 0.1236 0.70036 0.05735 0.0
C1671 C 0.12769 0.69766 0.09204 0.0
C1672 C 0.14909 0.70015 0.10251 0.0
C1673 C 0.16685 0.7069 0.07797 0.0
H1674 H 0.84704 0.53943 0.58348 0.0
H1675 H 0.91701 0.59221 0.60784 0.0
H1676 H 0.92377 0.60343 0.54658 0.0
H1677 H 0.86045 0.51987 0.51286 0.0
H1678 H 0.83501 0.51341 0.48859 0.0
H1679 H 0.83413 0.51339 0.53457 0.0
H1680 H 0.82035 0.54335 0.53341 0.0
H1681 H 0.82103 0.54335 0.48719 0.0
H1682 H 0.83695 0.57005 0.51039 0.0
H1683 H 0.9248 0.60366 0.48093 0.0
H1684 H 0.91992 0.59285 0.41948 0.0
H1685 H 0.84928 0.53986 0.43958 0.0
C1686 C 0.86357 0.55391 0.57625 0.0
C1687 C 0.88145 0.56499 0.60059 0.0
C1688 C 0.90291 0.58365 0.58982 0.0
C1689 C 0.90692 0.5901 0.55499 0.0
C1690 C 0.8892 0.57795 0.53138 0.0
C1691 C 0.86783 0.56042 0.54181 0.0
C1692 C 0.8525 0.54797 0.51156 0.0
C1693 C 0.84512 0.52216 0.51193 0.0
C1694 C 0.83146 0.55139 0.51058 0.0
C1695 C 0.86883 0.5605 0.48232 0.0
C1696 C 0.88981 0.57801 0.494 0.0
C1697 C 0.90824 0.59033 0.47153 0.0
C1698 C 0.9053 0.58413 0.43659 0.0
C1699 C 0.88418 0.56556 0.42458 0.0
C1700 C 0.8656 0.55427 0.44775 0.0
H1701 H 0.37264 0.90762 0.58351 0.0
H1702 H 0.30023 0.85888 0.59881 0.0
H1703 H 0.29265 0.86254 0.53749 0.0
H1704 H 0.36704 0.94356 0.51382 0.0
H1705 H 0.39158 0.94588 0.49122 0.0
H1706 H 0.3903 0.94373 0.53735 0.0
H1707 H 0.39613 0.9083 0.53419 0.0
H1708 H 0.39747 0.91038 0.48823 0.0
H1709 H 0.3767 0.88383 0.50853 0.0
H1710 H 0.2941 0.86679 0.47326 0.0
H1711 H 0.3048 0.86855 0.41207 0.0
H1712 H 0.37652 0.91323 0.43827 0.0
C1713 C 0.35509 0.89844 0.57409 0.0
C1714 C 0.33687 0.88346 0.59575 0.0
C1715 C 0.31424 0.87088 0.58256 0.0
C1716 C 0.30983 0.8729 0.54784 0.0
C1717 C 0.32832 0.8874 0.52672 0.0
C1718 C 0.35054 0.89992 0.5394 0.0
C1719 C 0.36789 0.9113 0.51074 0.0
C1720 C 0.37991 0.93769 0.51345 0.0
C1721 C 0.38557 0.90294 0.51041 0.0
C1722 C 0.35212 0.90262 0.47981 0.0
C1723 C 0.32928 0.88933 0.48953 0.0
C1724 C 0.31184 0.87764 0.46537 0.0
C1725 C 0.318 0.87886 0.43065 0.0
C1726 C 0.34136 0.89155 0.42055 0.0
C1727 C 0.35848 0.90405 0.4453 0.0
H1728 H 0.489 0.31581 0.57687 0.0
H1729 H 0.43574 0.33344 0.59484 0.0
H1730 H 0.42448 0.32581 0.53367 0.0
H1731 H 0.50805 0.34485 0.50212 0.0
H1732 H 0.51466 0.32463 0.48194 0.0
H1733 H 0.5149 0.32668 0.52782 0.0
H1734 H 0.48534 0.2829 0.53187 0.0
H1735 H 0.48495 0.28077 0.48576 0.0
H1736 H 0.45842 0.27119 0.50897 0.0
H1737 H 0.42389 0.32286 0.46836 0.0
H1738 H 0.43505 0.32642 0.40718 0.0
H1739 H 0.48832 0.31029 0.43335 0.0
C1740 C 0.4745 0.31746 0.56833 0.0
C1741 C 0.46324 0.32518 0.5908 0.0
C1742 C 0.44453 0.32733 0.57826 0.0
C1743 C 0.43799 0.323 0.54351 0.0
C1744 C 0.45011 0.31622 0.52178 0.0
C1745 C 0.46786 0.31327 0.53396 0.0
C1746 C 0.4802 0.30876 0.5052 0.0
C1747 C 0.50595 0.32733 0.50422 0.0
C1748 C 0.47702 0.28445 0.50813 0.0
C1749 C 0.46733 0.31059 0.47463 0.0
C1750 C 0.44972 0.31447 0.48452 0.0
C1751 C 0.43725 0.31927 0.46039 0.0
C1752 C 0.44361 0.32112 0.4256 0.0
C1753 C 0.46246 0.31847 0.41544 0.0
C1754 C 0.47364 0.3121 0.44022 0.0
H1755 H 0.18385 0.49354 0.58384 0.0
H1756 H 0.11442 0.43824 0.60544 0.0
H1757 H 0.1091 0.4278 0.54386 0.0
H1758 H 0.17043 0.51222 0.51038 0.0
H1759 H 0.19689 0.51975 0.48823 0.0
H1760 H 0.19638 0.52008 0.53427 0.0
H1761 H 0.21224 0.4918 0.5364 0.0
H1762 H 0.21288 0.49145 0.4902 0.0
H1763 H 0.19732 0.46479 0.51368 0.0
H1764 H 0.10986 0.42729 0.47807 0.0
H1765 H 0.11662 0.43676 0.41622 0.0
H1766 H 0.18562 0.49225 0.43968 0.0
C1767 C 0.16768 0.47882 0.57597 0.0
C1768 C 0.14959 0.46667 0.59967 0.0
C1769 C 0.12865 0.4477 0.58792 0.0
C1770 C 0.12546 0.44166 0.55293 0.0
C1771 C 0.14346 0.45459 0.53011 0.0
C1772 C 0.16424 0.47265 0.54139 0.0
C1773 C 0.18016 0.48539 0.51183 0.0
C1774 C 0.1863 0.51085 0.51115 0.0
C1775 C 0.20194 0.48321 0.51311 0.0
C1776 C 0.16493 0.47214 0.48194 0.0
C1777 C 0.1439 0.45427 0.49277 0.0
C1778 C 0.12644 0.44097 0.46938 0.0
C1779 C 0.13045 0.44645 0.43424 0.0
C1780 C 0.1517 0.4652 0.42288 0.0
C1781 C 0.16925 0.47766 0.44722 0.0
H1782 H 0.70823 0.17741 0.43575 0.0
H1783 H 0.69238 0.10729 0.4155 0.0
H1784 H 0.69748 0.10219 0.47714 0.0
H1785 H 0.75042 0.19018 0.50667 0.0
H1786 H 0.7399 0.20643 0.52959 0.0
H1787 H 0.73917 0.20568 0.48337 0.0
H1788 H 0.69524 0.19105 0.48468 0.0
H1789 H 0.69585 0.19175 0.53071 0.0
H1790 H 0.67648 0.16539 0.50871 0.0
H1791 H 0.69799 0.10299 0.54265 0.0
H1792 H 0.69374 0.10963 0.60399 0.0
H1793 H 0.71023 0.1795 0.57978 0.0
C1794 C 0.70645 0.16115 0.44397 0.0
C1795 C 0.69997 0.14279 0.42064 0.0
C1796 C 0.69757 0.12172 0.43274 0.0
C1797 C 0.70043 0.11867 0.46777 0.0
C1798 C 0.70602 0.13693 0.49026 0.0
C1799 C 0.70925 0.15786 0.47861 0.0
C1800 C 0.71274 0.17402 0.50793 0.0
C1801 C 0.73701 0.19534 0.50682 0.0
C1802 C 0.69396 0.18094 0.508 0.0
C1803 C 0.71013 0.1587 0.53807 0.0
C1804 C 0.70654 0.13745 0.52759 0.0
C1805 C 0.70131 0.11976 0.55113 0.0
C1806 C 0.699 0.12371 0.586 0.0
C1807 C 0.70174 0.14513 0.5969 0.0
C1808 C 0.70824 0.16299 0.57257 0.0
H1809 H 0.52893 0.69139 0.43282 0.0
H1810 H 0.58738 0.68222 0.41089 0.0
H1811 H 0.59764 0.68742 0.47255 0.0
H1812 H 0.55543 0.73376 0.50292 0.0
H1813 H 0.52874 0.72112 0.52656 0.0
H1814 H 0.52829 0.72003 0.48037 0.0
H1815 H 0.50243 0.67552 0.48274 0.0
H1816 H 0.50287 0.67646 0.52881 0.0
H1817 H 0.51208 0.65885 0.50663 0.0
H1818 H 0.59828 0.68878 0.53855 0.0
H1819 H 0.58929 0.68634 0.60057 0.0
H1820 H 0.5306 0.69488 0.57723 0.0
C1821 C 0.54427 0.69104 0.44063 0.0
C1822 C 0.5574 0.6865 0.41674 0.0
C1823 C 0.57713 0.68589 0.4285 0.0
C1824 C 0.58308 0.68879 0.46355 0.0
C1825 C 0.56925 0.6925 0.48651 0.0
C1826 C 0.55036 0.69382 0.4753 0.0
C1827 C 0.53703 0.69597 0.50496 0.0
C1828 C 0.53741 0.7191 0.50362 0.0
C1829 C 0.51215 0.67549 0.50582 0.0
C1830 C 0.55101 0.69516 0.53481 0.0
C1831 C 0.56966 0.69334 0.52389 0.0
C1832 C 0.58394 0.69061 0.54728 0.0
C1833 C 0.57872 0.68928 0.58253 0.0
C1834 C 0.5593 0.69055 0.59406 0.0
C1835 C 0.54574 0.69409 0.56964 0.0
H1836 H 0.53533 0.13788 0.27393 0.0
H1837 H 0.5328 0.11774 0.16807 0.0
H1838 H 0.57053 0.11974 0.17464 0.0
H1839 H 0.59253 0.17386 0.28943 0.0
H1840 H 0.59304 0.1604 0.32947 0.0
H1841 H 0.56673 0.15837 0.31498 0.0
H1842 H 0.54805 0.11389 0.32108 0.0
H1843 H 0.57528 0.11722 0.33468 0.0
H1844 H 0.56044 0.09925 0.29837 0.0
H1845 H 0.61223 0.1334 0.19015 0.0
H1846 H 0.64819 0.1405 0.2182 0.0
H1847 H 0.61953 0.14178 0.31738 0.0
C1848 C 0.54283 0.13398 0.25218 0.0
C1849 C 0.53276 0.13034 0.21934 0.0
C1850 C 0.54176 0.12313 0.19234 0.0
C1851 C 0.56289 0.12378 0.19603 0.0
C1852 C 0.57381 0.13006 0.22775 0.0
C1853 C 0.56324 0.13317 0.25595 0.0
C1854 C 0.5772 0.13639 0.28807 0.0
C1855 C 0.58271 0.1587 0.30647 0.0
C1856 C 0.56448 0.11544 0.31196 0.0
C1857 C 0.59862 0.13753 0.27292 0.0
C1858 C 0.59621 0.13387 0.23793 0.0
C1859 C 0.61407 0.13552 0.2177 0.0
C1860 C 0.63452 0.13982 0.23387 0.0
C1861 C 0.63691 0.14205 0.27002 0.0
C1862 C 0.61868 0.14102 0.28971 0.0
H1863 H 0.47976 0.60426 0.31561 0.0
H1864 H 0.50679 0.63347 0.2154 0.0
H1865 H 0.47806 0.59714 0.18814 0.0
H1866 H 0.46552 0.54602 0.29572 0.0
H1867 H 0.43912 0.53255 0.32007 0.0
H1868 H 0.46245 0.56039 0.33268 0.0
H1869 H 0.43529 0.57623 0.33004 0.0
H1870 H 0.41141 0.54932 0.31639 0.0
H1871 H 0.42001 0.57489 0.29099 0.0
H1872 H 0.45089 0.55562 0.17294 0.0
H1873 H 0.4163 0.51711 0.1672 0.0
H1874 H 0.40112 0.51753 0.27493 0.0
C1875 C 0.47905 0.60337 0.28793 0.0
C1876 C 0.49538 0.6219 0.26764 0.0
C1877 C 0.49444 0.61957 0.23147 0.0
C1878 C 0.47837 0.59892 0.21575 0.0
C1879 C 0.46308 0.58079 0.23649 0.0
C1880 C 0.46261 0.58301 0.27164 0.0
C1881 C 0.44334 0.56104 0.28744 0.0
C1882 C 0.4532 0.54931 0.31033 0.0
C1883 C 0.42642 0.56567 0.30732 0.0
C1884 C 0.43228 0.54689 0.25559 0.0
C1885 C 0.44497 0.55804 0.22681 0.0
C1886 C 0.43999 0.54736 0.19493 0.0
C1887 C 0.42018 0.52568 0.19183 0.0
C1888 C 0.40492 0.51564 0.21982 0.0
C1889 C 0.41175 0.52566 0.25263 0.0
H1890 H 0.88985 0.4975 0.23915 0.0
H1891 H 0.90165 0.49568 0.34789 0.0
H1892 H 0.89922 0.45791 0.34131 0.0
H1893 H 0.8543 0.44035 0.21819 0.0
H1894 H 0.87058 0.44097 0.18069 0.0
H1895 H 0.8717 0.4669 0.19511 0.0
H1896 H 0.91631 0.48551 0.19656 0.0
H1897 H 0.91394 0.45869 0.18294 0.0
H1898 H 0.92906 0.47227 0.22195 0.0
H1899 H 0.88707 0.41724 0.32444 0.0
H1900 H 0.88296 0.38249 0.29622 0.0
H1901 H 0.88867 0.41399 0.1967 0.0
C1902 C 0.89175 0.48899 0.2615 0.0
C1903 C 0.89328 0.49806 0.29469 0.0
C1904 C 0.89796 0.48768 0.32284 0.0
C1905 C 0.89698 0.46644 0.31929 0.0
C1906 C 0.89292 0.45664 0.28685 0.0
C1907 C 0.8922 0.46832 0.25813 0.0
C1908 C 0.89139 0.45536 0.22588 0.0
C1909 C 0.87064 0.45058 0.20372 0.0
C1910 C 0.91402 0.46876 0.20565 0.0
C1911 C 0.88905 0.43337 0.24113 0.0
C1912 C 0.88989 0.4346 0.27648 0.0
C1913 C 0.88707 0.41627 0.29674 0.0
C1914 C 0.88452 0.39652 0.28044 0.0
C1915 C 0.88518 0.39531 0.24421 0.0
C1916 C 0.88729 0.41399 0.22431 0.0
H1917 H 0.50447 0.90565 0.23814 0.0
H1918 H 0.48103 0.83347 0.25416 0.0
H1919 H 0.44098 0.82588 0.263 0.0
H1920 H 0.46906 0.90342 0.31289 0.0
H1921 H 0.46522 0.92653 0.29689 0.0
H1922 H 0.49103 0.92573 0.28659 0.0
H1923 H 0.48308 0.92757 0.22188 0.0
H1924 H 0.4569 0.92776 0.23184 0.0
H1925 H 0.45606 0.90598 0.20374 0.0
H1926 H 0.40254 0.82712 0.24725 0.0
H1927 H 0.37125 0.83592 0.25964 0.0
H1928 H 0.42229 0.9068 0.28056 0.0
C1929 C 0.49072 0.88818 0.24282 0.0
C1930 C 0.4948 0.86947 0.24112 0.0
C1931 C 0.47734 0.84739 0.25147 0.0
C1932 C 0.45475 0.84302 0.25666 0.0
C1933 C 0.45061 0.86138 0.25374 0.0
C1934 C 0.46851 0.88378 0.25081 0.0
C1935 C 0.46041 0.9008 0.25819 0.0
C1936 C 0.47212 0.91495 0.29057 0.0
C1937 C 0.46435 0.91645 0.22705 0.0
C1938 C 0.43495 0.88437 0.26409 0.0
C1939 C 0.42946 0.86185 0.25863 0.0
C1940 C 0.40665 0.84426 0.25506 0.0
C1941 C 0.38909 0.84932 0.26219 0.0
C1942 C 0.3947 0.87125 0.27477 0.0
C1943 C 0.4178 0.88937 0.27375 0.0
H1944 H 0.61679 0.479 0.19574 0.0
H1945 H 0.64459 0.50632 0.29643 0.0
H1946 H 0.6086 0.47644 0.32306 0.0
H1947 H 0.55694 0.46067 0.21516 0.0
H1948 H 0.54538 0.43447 0.19049 0.0
H1949 H 0.57237 0.45926 0.17824 0.0
H1950 H 0.59129 0.43488 0.18076 0.0
H1951 H 0.56533 0.40961 0.19383 0.0
H1952 H 0.59105 0.41985 0.21954 0.0
H1953 H 0.56717 0.44729 0.33754 0.0
H1954 H 0.53041 0.4105 0.34276 0.0
H1955 H 0.53367 0.39624 0.23544 0.0
C1956 C 0.61572 0.47818 0.22338 0.0
C1957 C 0.63374 0.4949 0.24395 0.0
C1958 C 0.63108 0.49372 0.28009 0.0
C1959 C 0.6106 0.477 0.29548 0.0
C1960 C 0.59298 0.46126 0.27445 0.0
C1961 C 0.59561 0.46105 0.23936 0.0
C1962 C 0.57454 0.44084 0.22328 0.0
C1963 C 0.56154 0.44932 0.20044 0.0
C1964 C 0.58096 0.42527 0.20325 0.0
C1965 C 0.56067 0.4289 0.25494 0.0
C1966 C 0.57081 0.442 0.28381 0.0
C1967 C 0.55988 0.43614 0.31551 0.0
C1968 C 0.53928 0.41508 0.31837 0.0
C1969 C 0.53085 0.39955 0.29046 0.0
C1970 C 0.54077 0.40717 0.25775 0.0
H1971 H 0.14614 0.62399 0.28276 0.0
H1972 H 0.13291 0.6113 0.1741 0.0
H1973 H 0.13638 0.5764 0.17887 0.0
H1974 H 0.18375 0.60439 0.29955 0.0
H1975 H 0.16888 0.58849 0.33773 0.0
H1976 H 0.16632 0.61269 0.32434 0.0
H1977 H 0.12184 0.58528 0.32559 0.0
H1978 H 0.12572 0.5615 0.33798 0.0
H1979 H 0.10923 0.55933 0.3002 0.0
H1980 H 0.14947 0.54813 0.1939 0.0
H1981 H 0.15573 0.51833 0.2208 0.0
H1982 H 0.1522 0.54398 0.32143 0.0
C1983 C 0.14405 0.61383 0.26005 0.0
C1984 C 0.14168 0.62146 0.22739 0.0
C1985 C 0.13701 0.60682 0.19875 0.0
C1986 C 0.1386 0.58682 0.20128 0.0
C1987 C 0.14342 0.58099 0.2332 0.0
C1988 C 0.14438 0.59307 0.26242 0.0
C1989 C 0.14665 0.58126 0.29402 0.0
C1990 C 0.16777 0.59779 0.31508 0.0
C1991 C 0.12454 0.57125 0.31572 0.0
C1992 C 0.14947 0.56221 0.27776 0.0
C1993 C 0.14754 0.56247 0.24253 0.0
C1994 C 0.1504 0.54729 0.22154 0.0
C1995 C 0.1542 0.53061 0.23705 0.0
C1996 C 0.15486 0.52901 0.27322 0.0
C1997 C 0.15264 0.54521 0.29378 0.0
H1998 H 0.49648 0.87817 0.74709 0.0
H1999 H 0.48925 0.88485 0.85576 0.0
H2000 H 0.44954 0.87727 0.84698 0.0
H2001 H 0.46915 0.91415 0.73265 0.0
H2002 H 0.45811 0.90152 0.69123 0.0
H2003 H 0.4845 0.90386 0.70694 0.0
H2004 H 0.46754 0.8597 0.69954 0.0
H2005 H 0.44208 0.85865 0.6829 0.0
H2006 H 0.43992 0.84023 0.71848 0.0
H2007 H 0.40936 0.86484 0.82605 0.0
H2008 H 0.37653 0.86334 0.79509 0.0
H2009 H 0.41361 0.87563 0.69909 0.0
C2010 C 0.48623 0.8774 0.76905 0.0
C2011 C 0.49451 0.87872 0.80279 0.0
C2012 C 0.48182 0.88048 0.8304 0.0
C2013 C 0.45951 0.87681 0.82548 0.0
C2014 C 0.45099 0.87349 0.79218 0.0
C2015 C 0.46459 0.87554 0.76434 0.0
C2016 C 0.45325 0.87647 0.73125 0.0
C2017 C 0.46708 0.90042 0.71454 0.0
C2018 C 0.4505 0.85752 0.70662 0.0
C2019 C 0.43018 0.87239 0.74457 0.0
C2020 C 0.4293 0.87054 0.7799 0.0
C2021 C 0.40994 0.86664 0.79843 0.0
C2022 C 0.39133 0.86565 0.78057 0.0
C2023 C 0.39228 0.86895 0.74459 0.0
C2024 C 0.41193 0.87213 0.72633 0.0
H2025 H 0.62432 0.49406 0.73289 0.0
H2026 H 0.60882 0.49361 0.84069 0.0
H2027 H 0.5738 0.45562 0.83409 0.0
H2028 H 0.55985 0.46723 0.7123 0.0
H2029 H 0.56255 0.45319 0.67463 0.0
H2030 H 0.58629 0.48057 0.68802 0.0
H2031 H 0.61321 0.46298 0.69034 0.0
H2032 H 0.58907 0.43648 0.67602 0.0
H2033 H 0.60421 0.43696 0.71481 0.0
H2034 H 0.54629 0.41454 0.81817 0.0
H2035 H 0.51701 0.37878 0.79037 0.0
H2036 H 0.54407 0.40879 0.69052 0.0
C2037 C 0.61351 0.48585 0.75499 0.0
C2038 C 0.62038 0.49541 0.78807 0.0
C2039 C 0.60492 0.48533 0.81583 0.0
C2040 C 0.58485 0.46395 0.81226 0.0
C2041 C 0.57977 0.45367 0.78012 0.0
C2042 C 0.59261 0.46499 0.75153 0.0
C2043 C 0.5813 0.45128 0.7194 0.0
C2044 C 0.57194 0.46382 0.69729 0.0
C2045 C 0.59804 0.44663 0.69902 0.0
C2046 C 0.56174 0.42934 0.73483 0.0
C2047 C 0.56136 0.43122 0.77004 0.0
C2048 C 0.54588 0.41304 0.79051 0.0
C2049 C 0.52948 0.39272 0.77447 0.0
C2050 C 0.52837 0.39078 0.73825 0.0
C2051 C 0.54491 0.40935 0.7182 0.0
H2052 H 0.14065 0.62469 0.74243 0.0
H2053 H 0.12718 0.61042 0.85081 0.0
H2054 H 0.13064 0.57561 0.84472 0.0
H2055 H 0.1039 0.55999 0.72319 0.0
H2056 H 0.12053 0.56275 0.68534 0.0
H2057 H 0.11638 0.58624 0.69844 0.0
H2058 H 0.16081 0.61389 0.70004 0.0
H2059 H 0.16363 0.58997 0.68599 0.0
H2060 H 0.17835 0.60549 0.72445 0.0
H2061 H 0.14436 0.54811 0.82884 0.0
H2062 H 0.15133 0.51906 0.8012 0.0
H2063 H 0.14738 0.54535 0.7012 0.0
C2064 C 0.13845 0.61417 0.76477 0.0
C2065 C 0.13602 0.62133 0.79775 0.0
C2066 C 0.13126 0.60627 0.82591 0.0
C2067 C 0.13286 0.58632 0.82264 0.0
C2068 C 0.13779 0.58099 0.79048 0.0
C2069 C 0.13879 0.59345 0.76166 0.0
C2070 C 0.14128 0.58209 0.72968 0.0
C2071 C 0.11921 0.57218 0.70788 0.0
C2072 C 0.16238 0.59897 0.70889 0.0
C2073 C 0.14424 0.56294 0.74535 0.0
C2074 C 0.14218 0.56275 0.78059 0.0
C2075 C 0.14533 0.54758 0.80118 0.0
C2076 C 0.14954 0.53132 0.78524 0.0
C2077 C 0.15026 0.53009 0.74903 0.0
C2078 C 0.14776 0.54631 0.72887 0.0
H2079 H 0.62788 0.14135 0.78076 0.0
H2080 H 0.61772 0.1381 0.67105 0.0
H2081 H 0.5835 0.14238 0.67855 0.0
H2082 H 0.56371 0.10224 0.79066 0.0
H2083 H 0.56366 0.11358 0.83254 0.0
H2084 H 0.58866 0.11253 0.81797 0.0
H2085 H 0.6141 0.15624 0.82896 0.0
H2086 H 0.58893 0.15675 0.84339 0.0
H2087 H 0.60653 0.17588 0.80919 0.0
H2088 H 0.55374 0.15202 0.6981 0.0
H2089 H 0.52106 0.1519 0.72736 0.0
H2090 H 0.54434 0.13933 0.82463 0.0
C2091 C 0.61864 0.14201 0.7584 0.0
C2092 C 0.62706 0.14257 0.72502 0.0
C2093 C 0.61319 0.14079 0.69653 0.0
C2094 C 0.59344 0.14265 0.70061 0.0
C2095 C 0.58674 0.14428 0.7337 0.0
C2096 C 0.59788 0.14218 0.76208 0.0
C2097 C 0.58443 0.13993 0.79444 0.0
C2098 C 0.57453 0.11563 0.8098 0.0
C2099 C 0.59945 0.15841 0.82054 0.0
C2100 C 0.56535 0.14358 0.78019 0.0
C2101 C 0.56716 0.14606 0.74497 0.0
C2102 C 0.55182 0.14969 0.72561 0.0
C2103 C 0.53344 0.14976 0.74249 0.0
C2104 C 0.53037 0.146 0.7783 0.0
C2105 C 0.54669 0.14306 0.79745 0.0
H2106 H 0.40273 0.52809 0.74128 0.0
H2107 H 0.41823 0.52781 0.84884 0.0
H2108 H 0.45266 0.56649 0.84295 0.0
H2109 H 0.46657 0.55549 0.72062 0.0
H2110 H 0.46361 0.56961 0.68318 0.0
H2111 H 0.44002 0.54214 0.6966 0.0
H2112 H 0.41294 0.55953 0.69968 0.0
H2113 H 0.43692 0.58611 0.68532 0.0
H2114 H 0.42196 0.58546 0.72436 0.0
H2115 H 0.48066 0.60795 0.82682 0.0
H2116 H 0.51001 0.64363 0.79859 0.0
H2117 H 0.48197 0.61364 0.6992 0.0
C2118 C 0.41333 0.53633 0.76356 0.0
C2119 C 0.40656 0.52633 0.7964 0.0
C2120 C 0.42189 0.53647 0.82429 0.0
C2121 C 0.44166 0.55821 0.82105 0.0
C2122 C 0.44665 0.56878 0.78905 0.0
C2123 C 0.43391 0.55748 0.76039 0.0
C2124 C 0.44503 0.57129 0.7283 0.0
C2125 C 0.45437 0.55889 0.70586 0.0
C2126 C 0.42811 0.57589 0.70832 0.0
C2127 C 0.46457 0.5932 0.74369 0.0
C2128 C 0.46507 0.59131 0.77891 0.0
C2129 C 0.48086 0.60946 0.79917 0.0
C2130 C 0.49731 0.62974 0.7829 0.0
C2131 C 0.49812 0.63168 0.74666 0.0
C2132 C 0.48135 0.61313 0.72689 0.0
H2133 H 0.88423 0.41139 0.82618 0.0
H2134 H 0.87922 0.3811 0.72595 0.0
H2135 H 0.8832 0.41605 0.69854 0.0
H2136 H 0.84921 0.43683 0.80524 0.0
H2137 H 0.86599 0.46322 0.82895 0.0
H2138 H 0.86557 0.43748 0.84271 0.0
H2139 H 0.90883 0.45585 0.84096 0.0
H2140 H 0.91082 0.48266 0.82819 0.0
H2141 H 0.92411 0.47019 0.80239 0.0
H2142 H 0.89548 0.45702 0.68273 0.0
H2143 H 0.89749 0.49465 0.67702 0.0
H2144 H 0.88418 0.49468 0.78552 0.0
C2145 C 0.88297 0.41168 0.79858 0.0
C2146 C 0.8811 0.39328 0.77827 0.0
C2147 C 0.88061 0.3949 0.74207 0.0
C2148 C 0.8831 0.41477 0.72622 0.0
C2149 C 0.88564 0.43281 0.74688 0.0
C2150 C 0.88462 0.43117 0.7822 0.0
C2151 C 0.88644 0.45282 0.79789 0.0
C2152 C 0.86543 0.44721 0.81994 0.0
C2153 C 0.90889 0.46617 0.81858 0.0
C2154 C 0.88713 0.466 0.76593 0.0
C2155 C 0.88837 0.45482 0.737 0.0
C2156 C 0.89275 0.46509 0.70486 0.0
C2157 C 0.89348 0.48625 0.70179 0.0
C2158 C 0.88821 0.49604 0.73004 0.0
C2159 C 0.88645 0.48657 0.76302 0.0
loop_
_geom_bond_atom_site_label_1
_geom_bond_atom_site_label_2
_geom_bond_distance
_geom_bond_site_symmetry_2
_ccdc_geom_bond_type
Mn0 O5 2.095 . S
Mn0 O15 2.162 . S
Mn0 O16 2.297 . S
Mn0 O24 2.385 . S
Mn0 O25 2.209 . S
Mn0 O26 2.094 . S
Mn1 O6 2.121 . S
Mn1 N8 2.257 . S
Mn1 N17 2.282 . S
Mn1 O25 2.215 . S
Mn1 O27 2.117 . S
C2 O24 1.234 . S
C2 O25 1.283 . S
C3 O15 1.281 . S
C3 O16 1.236 . S
C4 O26 1.240 . S
C4 O27 1.264 . S
O5 Mn0 2.095 . S
O5 C14 1.250 . S
O6 Mn1 2.121 . S
O6 C14 1.258 . S
C7 N8 1.326 . S
C7 C11 1.460 . S
C7 H13 0.929 . S
N8 Mn1 2.257 . S
N8 C7 1.326 . S
N8 C12 1.362 . S
C9 C10 1.258 . S
C9 C12 1.431 . S
C9 C29 1.449 . S
C10 C9 1.258 . S
C10 C11 1.477 . S
C10 H30 0.931 . S
C11 C7 1.460 . S
C11 C10 1.477 . S
C11 H31 0.930 . S
C12 N8 1.362 . S
C12 C9 1.431 . S
C12 C22 1.476 . S
H13 C7 0.929 . S
C14 O5 1.250 . S
C14 O6 1.258 . S
O15 Mn0 2.162 . S
O15 C3 1.281 . S
O16 Mn0 2.297 . S
O16 C3 1.236 . S
N17 Mn1 2.282 . S
N17 C18 1.328 . S
N17 C22 1.318 . S
C18 N17 1.328 . S
C18 C19 1.457 . S
C18 H23 0.929 . S
C19 C18 1.457 . S
C19 C20 1.291 . S
C19 H32 0.931 . S
C20 C19 1.291 . S
C20 C21 1.373 . S
C20 H33 0.929 . S
C21 C20 1.373 . S
C21 C22 1.396 . S
C21 C28 1.403 . S
C22 C12 1.476 . S
C22 N17 1.318 . S
C22 C21 1.396 . S
H23 C18 0.929 . S
O24 Mn0 2.385 . S
O24 C2 1.234 . S
O25 Mn0 2.209 . S
O25 Mn1 2.215 . S
O25 C2 1.283 . S
O26 Mn0 2.094 . S
O26 C4 1.240 . S
O27 Mn1 2.117 . S
O27 C4 1.264 . S
C28 C21 1.403 . S
C28 C29 1.399 . S
C28 H34 0.929 . S
C29 C9 1.449 . S
C29 C28 1.399 . S
C29 H35 0.930 . S
H30 C10 0.931 . S
H31 C11 0.930 . S
H32 C19 0.931 . S
H33 C20 0.929 . S
H34 C28 0.929 . S
H35 C29 0.930 . S
Mn36 O41 2.095 . S
Mn36 O51 2.162 . S
Mn36 O52 2.297 . S
Mn36 O60 2.385 . S
Mn36 O61 2.209 . S
Mn36 O62 2.094 . S
Mn37 O42 2.121 . S
Mn37 N44 2.257 . S
Mn37 N53 2.282 . S
Mn37 O61 2.215 . S
Mn37 O63 2.117 . S
C38 O60 1.234 . S
C38 O61 1.283 . S
C39 O51 1.281 . S
C39 O52 1.236 . S
C40 O62 1.240 . S
C40 O63 1.264 . S
O41 Mn36 2.095 . S
O41 C50 1.250 . S
O42 Mn37 2.121 . S
O42 C50 1.258 . S
C43 N44 1.326 . S
C43 C47 1.460 . S
C43 H49 0.929 . S
N44 Mn37 2.257 . S
N44 C43 1.326 . S
N44 C48 1.362 . S
C45 C46 1.258 . S
C45 C48 1.431 . S
C45 C65 1.449 . S
C46 C45 1.258 . S
C46 C47 1.477 . S
C46 H66 0.931 . S
C47 C43 1.460 . S
C47 C46 1.477 . S
C47 H67 0.930 . S
C48 N44 1.362 . S
C48 C45 1.431 . S
C48 C58 1.476 . S
H49 C43 0.929 . S
C50 O41 1.250 . S
C50 O42 1.258 . S
O51 Mn36 2.162 . S
O51 C39 1.281 . S
O52 Mn36 2.297 . S
O52 C39 1.236 . S
N53 Mn37 2.282 . S
N53 C54 1.328 . S
N53 C58 1.318 . S
C54 N53 1.328 . S
C54 C55 1.457 . S
C54 H59 0.929 . S
C55 C54 1.457 . S
C55 C56 1.291 . S
C55 H68 0.931 . S
C56 C55 1.291 . S
C56 C57 1.373 . S
C56 H69 0.929 . S
C57 C56 1.373 . S
C57 C58 1.396 . S
C57 C64 1.403 . S
C58 C48 1.476 . S
C58 N53 1.318 . S
C58 C57 1.396 . S
H59 C54 0.929 . S
O60 Mn36 2.385 . S
O60 C38 1.234 . S
O61 Mn36 2.209 . S
O61 Mn37 2.215 . S
O61 C38 1.283 . S
O62 Mn36 2.094 . S
O62 C40 1.240 . S
O63 Mn37 2.117 . S
O63 C40 1.264 . S
C64 C57 1.403 . S
C64 C65 1.399 . S
C64 H70 0.929 . S
C65 C45 1.449 . S
C65 C64 1.399 . S
C65 H71 0.930 . S
H66 C46 0.931 . S
H67 C47 0.930 . S
H68 C55 0.931 . S
H69 C56 0.929 . S
H70 C64 0.929 . S
H71 C65 0.930 . S
Mn72 O77 2.095 . S
Mn72 O87 2.162 . S
Mn72 O88 2.297 . S
Mn72 O96 2.385 . S
Mn72 O97 2.209 . S
Mn72 O98 2.094 . S
Mn73 O78 2.121 . S
Mn73 N80 2.257 . S
Mn73 N89 2.282 . S
Mn73 O97 2.215 . S
Mn73 O99 2.117 . S
C74 O96 1.234 . S
C74 O97 1.283 . S
C75 O87 1.281 . S
C75 O88 1.236 . S
C76 O98 1.240 . S
C76 O99 1.264 . S
O77 Mn72 2.095 . S
O77 C86 1.250 . S
O78 Mn73 2.121 . S
O78 C86 1.258 . S
C79 N80 1.326 . S
C79 C83 1.460 . S
C79 H85 0.929 . S
N80 Mn73 2.257 . S
N80 C79 1.326 . S
N80 C84 1.362 . S
C81 C82 1.258 . S
C81 C84 1.431 . S
C81 C101 1.449 . S
C82 C81 1.258 . S
C82 C83 1.477 . S
C82 H102 0.931 . S
C83 C79 1.460 . S
C83 C82 1.477 . S
C83 H103 0.930 . S
C84 N80 1.362 . S
C84 C81 1.431 . S
C84 C94 1.476 . S
H85 C79 0.929 . S
C86 O77 1.250 . S
C86 O78 1.258 . S
O87 Mn72 2.162 . S
O87 C75 1.281 . S
O88 Mn72 2.297 . S
O88 C75 1.236 . S
N89 Mn73 2.282 . S
N89 C90 1.328 . S
N89 C94 1.318 . S
C90 N89 1.328 . S
C90 C91 1.457 . S
C90 H95 0.929 . S
C91 C90 1.457 . S
C91 C92 1.291 . S
C91 H104 0.931 . S
C92 C91 1.291 . S
C92 C93 1.373 . S
C92 H105 0.929 . S
C93 C92 1.373 . S
C93 C94 1.396 . S
C93 C100 1.403 . S
C94 C84 1.476 . S
C94 N89 1.318 . S
C94 C93 1.396 . S
H95 C90 0.929 . S
O96 Mn72 2.385 . S
O96 C74 1.234 . S
O97 Mn72 2.209 . S
O97 Mn73 2.215 . S
O97 C74 1.283 . S
O98 Mn72 2.094 . S
O98 C76 1.240 . S
O99 Mn73 2.117 . S
O99 C76 1.264 . S
C100 C93 1.403 . S
C100 C101 1.399 . S
C100 H106 0.929 . S
C101 C81 1.449 . S
C101 C100 1.399 . S
C101 H107 0.930 . S
H102 C82 0.931 . S
H103 C83 0.930 . S
H104 C91 0.931 . S
H105 C92 0.929 . S
H106 C100 0.929 . S
H107 C101 0.930 . S
Mn108 O113 2.095 . S
Mn108 O123 2.162 . S
Mn108 O124 2.297 . S
Mn108 O132 2.385 . S
Mn108 O133 2.209 . S
Mn108 O134 2.094 . S
Mn109 O114 2.121 . S
Mn109 N116 2.257 . S
Mn109 N125 2.282 . S
Mn109 O133 2.215 . S
Mn109 O135 2.117 . S
C110 O132 1.234 . S
C110 O133 1.283 . S
C111 O123 1.281 . S
C111 O124 1.236 . S
C112 O134 1.240 . S
C112 O135 1.264 . S
O113 Mn108 2.095 . S
O113 C122 1.250 . S
O114 Mn109 2.121 . S
O114 C122 1.258 . S
C115 N116 1.326 . S
C115 C119 1.460 . S
C115 H121 0.929 . S
N116 Mn109 2.257 . S
N116 C115 1.326 . S
N116 C120 1.362 . S
C117 C118 1.258 . S
C117 C120 1.431 . S
C117 C137 1.449 . S
C118 C117 1.258 . S
C118 C119 1.477 . S
C118 H138 0.931 . S
C119 C115 1.460 . S
C119 C118 1.477 . S
C119 H139 0.930 . S
C120 N116 1.362 . S
C120 C117 1.431 . S
C120 C130 1.476 . S
H121 C115 0.929 . S
C122 O113 1.250 . S
C122 O114 1.258 . S
O123 Mn108 2.162 . S
O123 C111 1.281 . S
O124 Mn108 2.297 . S
O124 C111 1.236 . S
N125 Mn109 2.282 . S
N125 C126 1.328 . S
N125 C130 1.318 . S
C126 N125 1.328 . S
C126 C127 1.457 . S
C126 H131 0.929 . S
C127 C126 1.457 . S
C127 C128 1.291 . S
C127 H140 0.931 . S
C128 C127 1.291 . S
C128 C129 1.373 . S
C128 H141 0.929 . S
C129 C128 1.373 . S
C129 C130 1.396 . S
C129 C136 1.403 . S
C130 C120 1.476 . S
C130 N125 1.318 . S
C130 C129 1.396 . S
H131 C126 0.929 . S
O132 Mn108 2.385 . S
O132 C110 1.234 . S
O133 Mn108 2.209 . S
O133 Mn109 2.215 . S
O133 C110 1.283 . S
O134 Mn108 2.094 . S
O134 C112 1.240 . S
O135 Mn109 2.117 . S
O135 C112 1.264 . S
C136 C129 1.403 . S
C136 C137 1.399 . S
C136 H142 0.929 . S
C137 C117 1.449 . S
C137 C136 1.399 . S
C137 H143 0.930 . S
H138 C118 0.931 . S
H139 C119 0.930 . S
H140 C127 0.931 . S
H141 C128 0.929 . S
H142 C136 0.929 . S
H143 C137 0.930 . S
Mn144 O149 2.095 . S
Mn144 O159 2.162 . S
Mn144 O160 2.297 . S
Mn144 O168 2.385 . S
Mn144 O169 2.209 . S
Mn144 O170 2.094 . S
Mn145 O150 2.121 . S
Mn145 N152 2.257 . S
Mn145 N161 2.282 . S
Mn145 O169 2.215 . S
Mn145 O171 2.117 . S
C146 O168 1.234 . S
C146 O169 1.283 . S
C147 O159 1.281 . S
C147 O160 1.236 . S
C148 O170 1.240 . S
C148 O171 1.264 . S
O149 Mn144 2.095 . S
O149 C158 1.250 . S
O150 Mn145 2.121 . S
O150 C158 1.258 . S
C151 N152 1.326 . S
C151 C155 1.460 . S
C151 H157 0.929 . S
N152 Mn145 2.257 . S
N152 C151 1.326 . S
N152 C156 1.362 . S
C153 C154 1.258 . S
C153 C156 1.431 . S
C153 C173 1.449 . S
C154 C153 1.258 . S
C154 C155 1.477 . S
C154 H174 0.931 . S
C155 C151 1.460 . S
C155 C154 1.477 . S
C155 H175 0.930 . S
C156 N152 1.362 . S
C156 C153 1.431 . S
C156 C166 1.476 . S
H157 C151 0.929 . S
C158 O149 1.250 . S
C158 O150 1.258 . S
O159 Mn144 2.162 . S
O159 C147 1.281 . S
O160 Mn144 2.297 . S
O160 C147 1.236 . S
N161 Mn145 2.282 . S
N161 C162 1.328 . S
N161 C166 1.318 . S
C162 N161 1.328 . S
C162 C163 1.457 . S
C162 H167 0.929 . S
C163 C162 1.457 . S
C163 C164 1.291 . S
C163 H176 0.931 . S
C164 C163 1.291 . S
C164 C165 1.373 . S
C164 H177 0.929 . S
C165 C164 1.373 . S
C165 C166 1.396 . S
C165 C172 1.403 . S
C166 C156 1.476 . S
C166 N161 1.318 . S
C166 C165 1.396 . S
H167 C162 0.929 . S
O168 Mn144 2.385 . S
O168 C146 1.234 . S
O169 Mn144 2.209 . S
O169 Mn145 2.215 . S
O169 C146 1.283 . S
O170 Mn144 2.094 . S
O170 C148 1.240 . S
O171 Mn145 2.117 . S
O171 C148 1.264 . S
C172 C165 1.403 . S
C172 C173 1.399 . S
C172 H178 0.929 . S
C173 C153 1.449 . S
C173 C172 1.399 . S
C173 H179 0.930 . S
H174 C154 0.931 . S
H175 C155 0.930 . S
H176 C163 0.931 . S
H177 C164 0.929 . S
H178 C172 0.929 . S
H179 C173 0.930 . S
Mn180 O185 2.095 . S
Mn180 O195 2.162 . S
Mn180 O196 2.297 . S
Mn180 O204 2.385 . S
Mn180 O205 2.209 . S
Mn180 O206 2.094 . S
Mn181 O186 2.121 . S
Mn181 N188 2.257 . S
Mn181 N197 2.282 . S
Mn181 O205 2.215 . S
Mn181 O207 2.117 . S
C182 O204 1.234 . S
C182 O205 1.283 . S
C183 O195 1.281 . S
C183 O196 1.236 . S
C184 O206 1.240 . S
C184 O207 1.264 . S
O185 Mn180 2.095 . S
O185 C194 1.250 . S
O186 Mn181 2.121 . S
O186 C194 1.258 . S
C187 N188 1.326 . S
C187 C191 1.460 . S
C187 H193 0.929 . S
N188 Mn181 2.257 . S
N188 C187 1.326 . S
N188 C192 1.362 . S
C189 C190 1.258 . S
C189 C192 1.431 . S
C189 C209 1.449 . S
C190 C189 1.258 . S
C190 C191 1.477 . S
C190 H210 0.931 . S
C191 C187 1.460 . S
C191 C190 1.477 . S
C191 H211 0.930 . S
C192 N188 1.362 . S
C192 C189 1.431 . S
C192 C202 1.476 . S
H193 C187 0.929 . S
C194 O185 1.250 . S
C194 O186 1.258 . S
O195 Mn180 2.162 . S
O195 C183 1.281 . S
O196 Mn180 2.297 . S
O196 C183 1.236 . S
N197 Mn181 2.282 . S
N197 C198 1.328 . S
N197 C202 1.318 . S
C198 N197 1.328 . S
C198 C199 1.457 . S
C198 H203 0.929 . S
C199 C198 1.457 . S
C199 C200 1.291 . S
C199 H212 0.931 . S
C200 C199 1.291 . S
C200 C201 1.373 . S
C200 H213 0.929 . S
C201 C200 1.373 . S
C201 C202 1.396 . S
C201 C208 1.403 . S
C202 C192 1.476 . S
C202 N197 1.318 . S
C202 C201 1.396 . S
H203 C198 0.929 . S
O204 Mn180 2.385 . S
O204 C182 1.234 . S
O205 Mn180 2.209 . S
O205 Mn181 2.215 . S
O205 C182 1.283 . S
O206 Mn180 2.094 . S
O206 C184 1.240 . S
O207 Mn181 2.117 . S
O207 C184 1.264 . S
C208 C201 1.403 . S
C208 C209 1.399 . S
C208 H214 0.929 . S
C209 C189 1.449 . S
C209 C208 1.399 . S
C209 H215 0.930 . S
H210 C190 0.931 . S
H211 C191 0.930 . S
H212 C199 0.931 . S
H213 C200 0.929 . S
H214 C208 0.929 . S
H215 C209 0.930 . S
Mn216 O221 2.095 . S
Mn216 O231 2.162 . S
Mn216 O232 2.297 . S
Mn216 O240 2.385 . S
Mn216 O241 2.209 . S
Mn216 O242 2.094 . S
Mn217 O222 2.121 . S
Mn217 N224 2.257 . S
Mn217 N233 2.282 . S
Mn217 O241 2.215 . S
Mn217 O243 2.117 . S
C218 O240 1.234 . S
C218 O241 1.283 . S
C219 O231 1.281 . S
C219 O232 1.236 . S
C220 O242 1.240 . S
C220 O243 1.264 . S
O221 Mn216 2.095 . S
O221 C230 1.250 . S
O222 Mn217 2.121 . S
O222 C230 1.258 . S
C223 N224 1.326 . S
C223 C227 1.460 . S
C223 H229 0.929 . S
N224 Mn217 2.257 . S
N224 C223 1.326 . S
N224 C228 1.362 . S
C225 C226 1.258 . S
C225 C228 1.431 . S
C225 C245 1.449 . S
C226 C225 1.258 . S
C226 C227 1.477 . S
C226 H246 0.931 . S
C227 C223 1.460 . S
C227 C226 1.477 . S
C227 H247 0.930 . S
C228 N224 1.362 . S
C228 C225 1.431 . S
C228 C238 1.476 . S
H229 C223 0.929 . S
C230 O221 1.250 . S
C230 O222 1.258 . S
O231 Mn216 2.162 . S
O231 C219 1.281 . S
O232 Mn216 2.297 . S
O232 C219 1.236 . S
N233 Mn217 2.282 . S
N233 C234 1.328 . S
N233 C238 1.318 . S
C234 N233 1.328 . S
C234 C235 1.457 . S
C234 H239 0.929 . S
C235 C234 1.457 . S
C235 C236 1.291 . S
C235 H248 0.931 . S
C236 C235 1.291 . S
C236 C237 1.373 . S
C236 H249 0.929 . S
C237 C236 1.373 . S
C237 C238 1.396 . S
C237 C244 1.403 . S
C238 C228 1.476 . S
C238 N233 1.318 . S
C238 C237 1.396 . S
H239 C234 0.929 . S
O240 Mn216 2.385 . S
O240 C218 1.234 . S
O241 Mn216 2.209 . S
O241 Mn217 2.215 . S
O241 C218 1.283 . S
O242 Mn216 2.094 . S
O242 C220 1.240 . S
O243 Mn217 2.117 . S
O243 C220 1.264 . S
C244 C237 1.403 . S
C244 C245 1.399 . S
C244 H250 0.929 . S
C245 C225 1.449 . S
C245 C244 1.399 . S
C245 H251 0.930 . S
H246 C226 0.931 . S
H247 C227 0.930 . S
H248 C235 0.931 . S
H249 C236 0.929 . S
H250 C244 0.929 . S
H251 C245 0.930 . S
Mn252 O257 2.095 . S
Mn252 O267 2.162 . S
Mn252 O268 2.297 . S
Mn252 O276 2.385 . S
Mn252 O277 2.209 . S
Mn252 O278 2.094 . S
Mn253 O258 2.121 . S
Mn253 N260 2.257 . S
Mn253 N269 2.282 . S
Mn253 O277 2.215 . S
Mn253 O279 2.117 . S
C254 O276 1.234 . S
C254 O277 1.283 . S
C255 O267 1.281 . S
C255 O268 1.236 . S
C256 O278 1.240 . S
C256 O279 1.264 . S
O257 Mn252 2.095 . S
O257 C266 1.250 . S
O258 Mn253 2.121 . S
O258 C266 1.258 . S
C259 N260 1.326 . S
C259 C263 1.460 . S
C259 H265 0.929 . S
N260 Mn253 2.257 . S
N260 C259 1.326 . S
N260 C264 1.362 . S
C261 C262 1.258 . S
C261 C264 1.431 . S
C261 C281 1.449 . S
C262 C261 1.258 . S
C262 C263 1.477 . S
C262 H282 0.931 . S
C263 C259 1.460 . S
C263 C262 1.477 . S
C263 H283 0.930 . S
C264 N260 1.362 . S
C264 C261 1.431 . S
C264 C274 1.476 . S
H265 C259 0.929 . S
C266 O257 1.250 . S
C266 O258 1.258 . S
O267 Mn252 2.162 . S
O267 C255 1.281 . S
O268 Mn252 2.297 . S
O268 C255 1.236 . S
N269 Mn253 2.282 . S
N269 C270 1.328 . S
N269 C274 1.318 . S
C270 N269 1.328 . S
C270 C271 1.457 . S
C270 H275 0.929 . S
C271 C270 1.457 . S
C271 C272 1.291 . S
C271 H284 0.931 . S
C272 C271 1.291 . S
C272 C273 1.373 . S
C272 H285 0.929 . S
C273 C272 1.373 . S
C273 C274 1.396 . S
C273 C280 1.403 . S
C274 C264 1.476 . S
C274 N269 1.318 . S
C274 C273 1.396 . S
H275 C270 0.929 . S
O276 Mn252 2.385 . S
O276 C254 1.234 . S
O277 Mn252 2.209 . S
O277 Mn253 2.215 . S
O277 C254 1.283 . S
O278 Mn252 2.094 . S
O278 C256 1.240 . S
O279 Mn253 2.117 . S
O279 C256 1.264 . S
C280 C273 1.403 . S
C280 C281 1.399 . S
C280 H286 0.929 . S
C281 C261 1.449 . S
C281 C280 1.399 . S
C281 H287 0.930 . S
H282 C262 0.931 . S
H283 C263 0.930 . S
H284 C271 0.931 . S
H285 C272 0.929 . S
H286 C280 0.929 . S
H287 C281 0.930 . S
Mn288 O293 2.095 . S
Mn288 O303 2.162 . S
Mn288 O304 2.297 . S
Mn288 O312 2.385 . S
Mn288 O313 2.209 . S
Mn288 O314 2.094 . S
Mn289 O294 2.121 . S
Mn289 N296 2.257 . S
Mn289 N305 2.282 . S
Mn289 O313 2.215 . S
Mn289 O315 2.117 . S
C290 O312 1.234 . S
C290 O313 1.283 . S
C291 O303 1.281 . S
C291 O304 1.236 . S
C292 O314 1.240 . S
C292 O315 1.264 . S
O293 Mn288 2.095 . S
O293 C302 1.250 . S
O294 Mn289 2.121 . S
O294 C302 1.258 . S
C295 N296 1.326 . S
C295 C299 1.460 . S
C295 H301 0.929 . S
N296 Mn289 2.257 . S
N296 C295 1.326 . S
N296 C300 1.362 . S
C297 C298 1.258 . S
C297 C300 1.431 . S
C297 C317 1.449 . S
C298 C297 1.258 . S
C298 C299 1.477 . S
C298 H318 0.931 . S
C299 C295 1.460 . S
C299 C298 1.477 . S
C299 H319 0.930 . S
C300 N296 1.362 . S
C300 C297 1.431 . S
C300 C310 1.476 . S
H301 C295 0.929 . S
C302 O293 1.250 . S
C302 O294 1.258 . S
O303 Mn288 2.162 . S
O303 C291 1.281 . S
O304 Mn288 2.297 . S
O304 C291 1.236 . S
N305 Mn289 2.282 . S
N305 C306 1.328 . S
N305 C310 1.318 . S
C306 N305 1.328 . S
C306 C307 1.457 . S
C306 H311 0.929 . S
C307 C306 1.457 . S
C307 C308 1.291 . S
C307 H320 0.931 . S
C308 C307 1.291 . S
C308 C309 1.373 . S
C308 H321 0.929 . S
C309 C308 1.373 . S
C309 C310 1.396 . S
C309 C316 1.403 . S
C310 C300 1.476 . S
C310 N305 1.318 . S
C310 C309 1.396 . S
H311 C306 0.929 . S
O312 Mn288 2.385 . S
O312 C290 1.234 . S
O313 Mn288 2.209 . S
O313 Mn289 2.215 . S
O313 C290 1.283 . S
O314 Mn288 2.094 . S
O314 C292 1.240 . S
O315 Mn289 2.117 . S
O315 C292 1.264 . S
C316 C309 1.403 . S
C316 C317 1.399 . S
C316 H322 0.929 . S
C317 C297 1.449 . S
C317 C316 1.399 . S
C317 H323 0.930 . S
H318 C298 0.931 . S
H319 C299 0.930 . S
H320 C307 0.931 . S
H321 C308 0.929 . S
H322 C316 0.929 . S
H323 C317 0.930 . S
Mn324 O329 2.095 . S
Mn324 O339 2.162 . S
Mn324 O340 2.297 . S
Mn324 O348 2.385 . S
Mn324 O349 2.209 . S
Mn324 O350 2.094 . S
Mn325 O330 2.121 . S
Mn325 N332 2.257 . S
Mn325 N341 2.282 . S
Mn325 O349 2.215 . S
Mn325 O351 2.117 . S
C326 O348 1.234 . S
C326 O349 1.283 . S
C327 O339 1.281 . S
C327 O340 1.236 . S
C328 O350 1.240 . S
C328 O351 1.264 . S
O329 Mn324 2.095 . S
O329 C338 1.250 . S
O330 Mn325 2.121 . S
O330 C338 1.258 . S
C331 N332 1.326 . S
C331 C335 1.460 . S
C331 H337 0.929 . S
N332 Mn325 2.257 . S
N332 C331 1.326 . S
N332 C336 1.362 . S
C333 C334 1.258 . S
C333 C336 1.431 . S
C333 C353 1.449 . S
C334 C333 1.258 . S
C334 C335 1.477 . S
C334 H354 0.931 . S
C335 C331 1.460 . S
C335 C334 1.477 . S
C335 H355 0.930 . S
C336 N332 1.362 . S
C336 C333 1.431 . S
C336 C346 1.476 . S
H337 C331 0.929 . S
C338 O329 1.250 . S
C338 O330 1.258 . S
O339 Mn324 2.162 . S
O339 C327 1.281 . S
O340 Mn324 2.297 . S
O340 C327 1.236 . S
N341 Mn325 2.282 . S
N341 C342 1.328 . S
N341 C346 1.318 . S
C342 N341 1.328 . S
C342 C343 1.457 . S
C342 H347 0.929 . S
C343 C342 1.457 . S
C343 C344 1.291 . S
C343 H356 0.931 . S
C344 C343 1.291 . S
C344 C345 1.373 . S
C344 H357 0.929 . S
C345 C344 1.373 . S
C345 C346 1.396 . S
C345 C352 1.403 . S
C346 C336 1.476 . S
C346 N341 1.318 . S
C346 C345 1.396 . S
H347 C342 0.929 . S
O348 Mn324 2.385 . S
O348 C326 1.234 . S
O349 Mn324 2.209 . S
O349 Mn325 2.215 . S
O349 C326 1.283 . S
O350 Mn324 2.094 . S
O350 C328 1.240 . S
O351 Mn325 2.117 . S
O351 C328 1.264 . S
C352 C345 1.403 . S
C352 C353 1.399 . S
C352 H358 0.929 . S
C353 C333 1.449 . S
C353 C352 1.399 . S
C353 H359 0.930 . S
H354 C334 0.931 . S
H355 C335 0.930 . S
H356 C343 0.931 . S
H357 C344 0.929 . S
H358 C352 0.929 . S
H359 C353 0.930 . S
Mn360 O365 2.095 . S
Mn360 O375 2.162 . S
Mn360 O376 2.297 . S
Mn360 O384 2.385 . S
Mn360 O385 2.209 . S
Mn360 O386 2.094 . S
Mn361 O366 2.121 . S
Mn361 N368 2.257 . S
Mn361 N377 2.282 . S
Mn361 O385 2.215 . S
Mn361 O387 2.117 . S
C362 O384 1.234 . S
C362 O385 1.283 . S
C363 O375 1.281 . S
C363 O376 1.236 . S
C364 O386 1.240 . S
C364 O387 1.264 . S
O365 Mn360 2.095 . S
O365 C374 1.250 . S
O366 Mn361 2.121 . S
O366 C374 1.258 . S
C367 N368 1.326 . S
C367 C371 1.460 . S
C367 H373 0.929 . S
N368 Mn361 2.257 . S
N368 C367 1.326 . S
N368 C372 1.362 . S
C369 C370 1.258 . S
C369 C372 1.431 . S
C369 C389 1.449 . S
C370 C369 1.258 . S
C370 C371 1.477 . S
C370 H390 0.931 . S
C371 C367 1.460 . S
C371 C370 1.477 . S
C371 H391 0.930 . S
C372 N368 1.362 . S
C372 C369 1.431 . S
C372 C382 1.476 . S
H373 C367 0.929 . S
C374 O365 1.250 . S
C374 O366 1.258 . S
O375 Mn360 2.162 . S
O375 C363 1.281 . S
O376 Mn360 2.297 . S
O376 C363 1.236 . S
N377 Mn361 2.282 . S
N377 C378 1.328 . S
N377 C382 1.318 . S
C378 N377 1.328 . S
C378 C379 1.457 . S
C378 H383 0.929 . S
C379 C378 1.457 . S
C379 C380 1.291 . S
C379 H392 0.931 . S
C380 C379 1.291 . S
C380 C381 1.373 . S
C380 H393 0.929 . S
C381 C380 1.373 . S
C381 C382 1.396 . S
C381 C388 1.403 . S
C382 C372 1.476 . S
C382 N377 1.318 . S
C382 C381 1.396 . S
H383 C378 0.929 . S
O384 Mn360 2.385 . S
O384 C362 1.234 . S
O385 Mn360 2.209 . S
O385 Mn361 2.215 . S
O385 C362 1.283 . S
O386 Mn360 2.094 . S
O386 C364 1.240 . S
O387 Mn361 2.117 . S
O387 C364 1.264 . S
C388 C381 1.403 . S
C388 C389 1.399 . S
C388 H394 0.929 . S
C389 C369 1.449 . S
C389 C388 1.399 . S
C389 H395 0.930 . S
H390 C370 0.931 . S
H391 C371 0.930 . S
H392 C379 0.931 . S
H393 C380 0.929 . S
H394 C388 0.929 . S
H395 C389 0.930 . S
Mn396 O401 2.095 . S
Mn396 O411 2.162 . S
Mn396 O412 2.297 . S
Mn396 O420 2.385 . S
Mn396 O421 2.209 . S
Mn396 O422 2.094 . S
Mn397 O402 2.121 . S
Mn397 N404 2.257 . S
Mn397 N413 2.282 . S
Mn397 O421 2.215 . S
Mn397 O423 2.117 . S
C398 O420 1.234 . S
C398 O421 1.283 . S
C399 O411 1.281 . S
C399 O412 1.236 . S
C400 O422 1.240 . S
C400 O423 1.264 . S
O401 Mn396 2.095 . S
O401 C410 1.250 . S
O402 Mn397 2.121 . S
O402 C410 1.258 . S
C403 N404 1.326 . S
C403 C407 1.460 . S
C403 H409 0.929 . S
N404 Mn397 2.257 . S
N404 C403 1.326 . S
N404 C408 1.362 . S
C405 C406 1.258 . S
C405 C408 1.431 . S
C405 C425 1.449 . S
C406 C405 1.258 . S
C406 C407 1.477 . S
C406 H426 0.931 . S
C407 C403 1.460 . S
C407 C406 1.477 . S
C407 H427 0.930 . S
C408 N404 1.362 . S
C408 C405 1.431 . S
C408 C418 1.476 . S
H409 C403 0.929 . S
C410 O401 1.250 . S
C410 O402 1.258 . S
O411 Mn396 2.162 . S
O411 C399 1.281 . S
O412 Mn396 2.297 . S
O412 C399 1.236 . S
N413 Mn397 2.282 . S
N413 C414 1.328 . S
N413 C418 1.318 . S
C414 N413 1.328 . S
C414 C415 1.457 . S
C414 H419 0.929 . S
C415 C414 1.457 . S
C415 C416 1.291 . S
C415 H428 0.931 . S
C416 C415 1.291 . S
C416 C417 1.373 . S
C416 H429 0.929 . S
C417 C416 1.373 . S
C417 C418 1.396 . S
C417 C424 1.403 . S
C418 C408 1.476 . S
C418 N413 1.318 . S
C418 C417 1.396 . S
H419 C414 0.929 . S
O420 Mn396 2.385 . S
O420 C398 1.234 . S
O421 Mn396 2.209 . S
O421 Mn397 2.215 . S
O421 C398 1.283 . S
O422 Mn396 2.094 . S
O422 C400 1.240 . S
O423 Mn397 2.117 . S
O423 C400 1.264 . S
C424 C417 1.403 . S
C424 C425 1.399 . S
C424 H430 0.929 . S
C425 C405 1.449 . S
C425 C424 1.399 . S
C425 H431 0.930 . S
H426 C406 0.931 . S
H427 C407 0.930 . S
H428 C415 0.931 . S
H429 C416 0.929 . S
H430 C424 0.929 . S
H431 C425 0.930 . S
Mn432 O437 2.095 . S
Mn432 O447 2.162 . S
Mn432 O448 2.297 . S
Mn432 O456 2.385 . S
Mn432 O457 2.209 . S
Mn432 O458 2.094 . S
Mn433 O438 2.121 . S
Mn433 N440 2.257 . S
Mn433 N449 2.282 . S
Mn433 O457 2.215 . S
Mn433 O459 2.117 . S
C434 O456 1.234 . S
C434 O457 1.283 . S
C435 O447 1.281 . S
C435 O448 1.236 . S
C436 O458 1.240 . S
C436 O459 1.264 . S
O437 Mn432 2.095 . S
O437 C446 1.250 . S
O438 Mn433 2.121 . S
O438 C446 1.258 . S
C439 N440 1.326 . S
C439 C443 1.460 . S
C439 H445 0.929 . S
N440 Mn433 2.257 . S
N440 C439 1.326 . S
N440 C444 1.362 . S
C441 C442 1.258 . S
C441 C444 1.431 . S
C441 C461 1.449 . S
C442 C441 1.258 . S
C442 C443 1.477 . S
C442 H462 0.931 . S
C443 C439 1.460 . S
C443 C442 1.477 . S
C443 H463 0.930 . S
C444 N440 1.362 . S
C444 C441 1.431 . S
C444 C454 1.476 . S
H445 C439 0.929 . S
C446 O437 1.250 . S
C446 O438 1.258 . S
O447 Mn432 2.162 . S
O447 C435 1.281 . S
O448 Mn432 2.297 . S
O448 C435 1.236 . S
N449 Mn433 2.282 . S
N449 C450 1.328 . S
N449 C454 1.318 . S
C450 N449 1.328 . S
C450 C451 1.457 . S
C450 H455 0.929 . S
C451 C450 1.457 . S
C451 C452 1.291 . S
C451 H464 0.931 . S
C452 C451 1.291 . S
C452 C453 1.373 . S
C452 H465 0.929 . S
C453 C452 1.373 . S
C453 C454 1.396 . S
C453 C460 1.403 . S
C454 C444 1.476 . S
C454 N449 1.318 . S
C454 C453 1.396 . S
H455 C450 0.929 . S
O456 Mn432 2.385 . S
O456 C434 1.234 . S
O457 Mn432 2.209 . S
O457 Mn433 2.215 . S
O457 C434 1.283 . S
O458 Mn432 2.094 . S
O458 C436 1.240 . S
O459 Mn433 2.117 . S
O459 C436 1.264 . S
C460 C453 1.403 . S
C460 C461 1.399 . S
C460 H466 0.929 . S
C461 C441 1.449 . S
C461 C460 1.399 . S
C461 H467 0.930 . S
H462 C442 0.931 . S
H463 C443 0.930 . S
H464 C451 0.931 . S
H465 C452 0.929 . S
H466 C460 0.929 . S
H467 C461 0.930 . S
Mn468 O473 2.095 . S
Mn468 O483 2.162 . S
Mn468 O484 2.297 . S
Mn468 O492 2.385 . S
Mn468 O493 2.209 . S
Mn468 O494 2.094 . S
Mn469 O474 2.121 . S
Mn469 N476 2.257 . S
Mn469 N485 2.282 . S
Mn469 O493 2.215 . S
Mn469 O495 2.117 . S
C470 O492 1.234 . S
C470 O493 1.283 . S
C471 O483 1.281 . S
C471 O484 1.236 . S
C472 O494 1.240 . S
C472 O495 1.264 . S
O473 Mn468 2.095 . S
O473 C482 1.250 . S
O474 Mn469 2.121 . S
O474 C482 1.258 . S
C475 N476 1.326 . S
C475 C479 1.460 . S
C475 H481 0.929 . S
N476 Mn469 2.257 . S
N476 C475 1.326 . S
N476 C480 1.362 . S
C477 C478 1.258 . S
C477 C480 1.431 . S
C477 C497 1.449 . S
C478 C477 1.258 . S
C478 C479 1.477 . S
C478 H498 0.931 . S
C479 C475 1.460 . S
C479 C478 1.477 . S
C479 H499 0.930 . S
C480 N476 1.362 . S
C480 C477 1.431 . S
C480 C490 1.476 . S
H481 C475 0.929 . S
C482 O473 1.250 . S
C482 O474 1.258 . S
O483 Mn468 2.162 . S
O483 C471 1.281 . S
O484 Mn468 2.297 . S
O484 C471 1.236 . S
N485 Mn469 2.282 . S
N485 C486 1.328 . S
N485 C490 1.318 . S
C486 N485 1.328 . S
C486 C487 1.457 . S
C486 H491 0.929 . S
C487 C486 1.457 . S
C487 C488 1.291 . S
C487 H500 0.931 . S
C488 C487 1.291 . S
C488 C489 1.373 . S
C488 H501 0.929 . S
C489 C488 1.373 . S
C489 C490 1.396 . S
C489 C496 1.403 . S
C490 C480 1.476 . S
C490 N485 1.318 . S
C490 C489 1.396 . S
H491 C486 0.929 . S
O492 Mn468 2.385 . S
O492 C470 1.234 . S
O493 Mn468 2.209 . S
O493 Mn469 2.215 . S
O493 C470 1.283 . S
O494 Mn468 2.094 . S
O494 C472 1.240 . S
O495 Mn469 2.117 . S
O495 C472 1.264 . S
C496 C489 1.403 . S
C496 C497 1.399 . S
C496 H502 0.929 . S
C497 C477 1.449 . S
C497 C496 1.399 . S
C497 H503 0.930 . S
H498 C478 0.931 . S
H499 C479 0.930 . S
H500 C487 0.931 . S
H501 C488 0.929 . S
H502 C496 0.929 . S
H503 C497 0.930 . S
Mn504 O509 2.095 . S
Mn504 O519 2.162 . S
Mn504 O520 2.297 . S
Mn504 O528 2.385 . S
Mn504 O529 2.209 . S
Mn504 O530 2.094 . S
Mn505 O510 2.121 . S
Mn505 N512 2.257 . S
Mn505 N521 2.282 . S
Mn505 O529 2.215 . S
Mn505 O531 2.117 . S
C506 O528 1.234 . S
C506 O529 1.283 . S
C507 O519 1.281 . S
C507 O520 1.236 . S
C508 O530 1.240 . S
C508 O531 1.264 . S
O509 Mn504 2.095 . S
O509 C518 1.250 . S
O510 Mn505 2.121 . S
O510 C518 1.258 . S
C511 N512 1.326 . S
C511 C515 1.460 . S
C511 H517 0.929 . S
N512 Mn505 2.257 . S
N512 C511 1.326 . S
N512 C516 1.362 . S
C513 C514 1.258 . S
C513 C516 1.431 . S
C513 C533 1.449 . S
C514 C513 1.258 . S
C514 C515 1.477 . S
C514 H534 0.931 . S
C515 C511 1.460 . S
C515 C514 1.477 . S
C515 H535 0.930 . S
C516 N512 1.362 . S
C516 C513 1.431 . S
C516 C526 1.476 . S
H517 C511 0.929 . S
C518 O509 1.250 . S
C518 O510 1.258 . S
O519 Mn504 2.162 . S
O519 C507 1.281 . S
O520 Mn504 2.297 . S
O520 C507 1.236 . S
N521 Mn505 2.282 . S
N521 C522 1.328 . S
N521 C526 1.318 . S
C522 N521 1.328 . S
C522 C523 1.457 . S
C522 H527 0.929 . S
C523 C522 1.457 . S
C523 C524 1.291 . S
C523 H536 0.931 . S
C524 C523 1.291 . S
C524 C525 1.373 . S
C524 H537 0.929 . S
C525 C524 1.373 . S
C525 C526 1.396 . S
C525 C532 1.403 . S
C526 C516 1.476 . S
C526 N521 1.318 . S
C526 C525 1.396 . S
H527 C522 0.929 . S
O528 Mn504 2.385 . S
O528 C506 1.234 . S
O529 Mn504 2.209 . S
O529 Mn505 2.215 . S
O529 C506 1.283 . S
O530 Mn504 2.094 . S
O530 C508 1.240 . S
O531 Mn505 2.117 . S
O531 C508 1.264 . S
C532 C525 1.403 . S
C532 C533 1.399 . S
C532 H538 0.929 . S
C533 C513 1.449 . S
C533 C532 1.399 . S
C533 H539 0.930 . S
H534 C514 0.931 . S
H535 C515 0.930 . S
H536 C523 0.931 . S
H537 C524 0.929 . S
H538 C532 0.929 . S
H539 C533 0.930 . S
Mn540 O545 2.095 . S
Mn540 O555 2.162 . S
Mn540 O556 2.297 . S
Mn540 O564 2.385 . S
Mn540 O565 2.209 . S
Mn540 O566 2.094 . S
Mn541 O546 2.121 . S
Mn541 N548 2.257 . S
Mn541 N557 2.282 . S
Mn541 O565 2.215 . S
Mn541 O567 2.117 . S
C542 O564 1.234 . S
C542 O565 1.283 . S
C543 O555 1.281 . S
C543 O556 1.236 . S
C544 O566 1.240 . S
C544 O567 1.264 . S
O545 Mn540 2.095 . S
O545 C554 1.250 . S
O546 Mn541 2.121 . S
O546 C554 1.258 . S
C547 N548 1.326 . S
C547 C551 1.460 . S
C547 H553 0.929 . S
N548 Mn541 2.257 . S
N548 C547 1.326 . S
N548 C552 1.362 . S
C549 C550 1.258 . S
C549 C552 1.431 . S
C549 C569 1.449 . S
C550 C549 1.258 . S
C550 C551 1.477 . S
C550 H570 0.931 . S
C551 C547 1.460 . S
C551 C550 1.477 . S
C551 H571 0.930 . S
C552 N548 1.362 . S
C552 C549 1.431 . S
C552 C562 1.476 . S
H553 C547 0.929 . S
C554 O545 1.250 . S
C554 O546 1.258 . S
O555 Mn540 2.162 . S
O555 C543 1.281 . S
O556 Mn540 2.297 . S
O556 C543 1.236 . S
N557 Mn541 2.282 . S
N557 C558 1.328 . S
N557 C562 1.318 . S
C558 N557 1.328 . S
C558 C559 1.457 . S
C558 H563 0.929 . S
C559 C558 1.457 . S
C559 C560 1.291 . S
C559 H572 0.931 . S
C560 C559 1.291 . S
C560 C561 1.373 . S
C560 H573 0.929 . S
C561 C560 1.373 . S
C561 C562 1.396 . S
C561 C568 1.403 . S
C562 C552 1.476 . S
C562 N557 1.318 . S
C562 C561 1.396 . S
H563 C558 0.929 . S
O564 Mn540 2.385 . S
O564 C542 1.234 . S
O565 Mn540 2.209 . S
O565 Mn541 2.215 . S
O565 C542 1.283 . S
O566 Mn540 2.094 . S
O566 C544 1.240 . S
O567 Mn541 2.117 . S
O567 C544 1.264 . S
C568 C561 1.403 . S
C568 C569 1.399 . S
C568 H574 0.929 . S
C569 C549 1.449 . S
C569 C568 1.399 . S
C569 H575 0.930 . S
H570 C550 0.931 . S
H571 C551 0.930 . S
H572 C559 0.931 . S
H573 C560 0.929 . S
H574 C568 0.929 . S
H575 C569 0.930 . S
Mn576 O581 2.095 . S
Mn576 O591 2.162 . S
Mn576 O592 2.297 . S
Mn576 O600 2.385 . S
Mn576 O601 2.209 . S
Mn576 O602 2.094 . S
Mn577 O582 2.121 . S
Mn577 N584 2.257 . S
Mn577 N593 2.282 . S
Mn577 O601 2.215 . S
Mn577 O603 2.117 . S
C578 O600 1.234 . S
C578 O601 1.283 . S
C579 O591 1.281 . S
C579 O592 1.236 . S
C580 O602 1.240 . S
C580 O603 1.264 . S
O581 Mn576 2.095 . S
O581 C590 1.250 . S
O582 Mn577 2.121 . S
O582 C590 1.258 . S
C583 N584 1.326 . S
C583 C587 1.460 . S
C583 H589 0.929 . S
N584 Mn577 2.257 . S
N584 C583 1.326 . S
N584 C588 1.362 . S
C585 C586 1.258 . S
C585 C588 1.431 . S
C585 C605 1.449 . S
C586 C585 1.258 . S
C586 C587 1.477 . S
C586 H606 0.931 . S
C587 C583 1.460 . S
C587 C586 1.477 . S
C587 H607 0.930 . S
C588 N584 1.362 . S
C588 C585 1.431 . S
C588 C598 1.476 . S
H589 C583 0.929 . S
C590 O581 1.250 . S
C590 O582 1.258 . S
O591 Mn576 2.162 . S
O591 C579 1.281 . S
O592 Mn576 2.297 . S
O592 C579 1.236 . S
N593 Mn577 2.282 . S
N593 C594 1.328 . S
N593 C598 1.318 . S
C594 N593 1.328 . S
C594 C595 1.457 . S
C594 H599 0.929 . S
C595 C594 1.457 . S
C595 C596 1.291 . S
C595 H608 0.931 . S
C596 C595 1.291 . S
C596 C597 1.373 . S
C596 H609 0.929 . S
C597 C596 1.373 . S
C597 C598 1.396 . S
C597 C604 1.403 . S
C598 C588 1.476 . S
C598 N593 1.318 . S
C598 C597 1.396 . S
H599 C594 0.929 . S
O600 Mn576 2.385 . S
O600 C578 1.234 . S
O601 Mn576 2.209 . S
O601 Mn577 2.215 . S
O601 C578 1.283 . S
O602 Mn576 2.094 . S
O602 C580 1.240 . S
O603 Mn577 2.117 . S
O603 C580 1.264 . S
C604 C597 1.403 . S
C604 C605 1.399 . S
C604 H610 0.929 . S
C605 C585 1.449 . S
C605 C604 1.399 . S
C605 H611 0.930 . S
H606 C586 0.931 . S
H607 C587 0.930 . S
H608 C595 0.931 . S
H609 C596 0.929 . S
H610 C604 0.929 . S
H611 C605 0.930 . S
Mn612 O617 2.095 . S
Mn612 O627 2.162 . S
Mn612 O628 2.297 . S
Mn612 O636 2.385 . S
Mn612 O637 2.209 . S
Mn612 O638 2.094 . S
Mn613 O618 2.121 . S
Mn613 N620 2.257 . S
Mn613 N629 2.282 . S
Mn613 O637 2.215 . S
Mn613 O639 2.117 . S
C614 O636 1.234 . S
C614 O637 1.283 . S
C615 O627 1.281 . S
C615 O628 1.236 . S
C616 O638 1.240 . S
C616 O639 1.264 . S
O617 Mn612 2.095 . S
O617 C626 1.250 . S
O618 Mn613 2.121 . S
O618 C626 1.258 . S
C619 N620 1.326 . S
C619 C623 1.460 . S
C619 H625 0.929 . S
N620 Mn613 2.257 . S
N620 C619 1.326 . S
N620 C624 1.362 . S
C621 C622 1.258 . S
C621 C624 1.431 . S
C621 C641 1.449 . S
C622 C621 1.258 . S
C622 C623 1.477 . S
C622 H642 0.931 . S
C623 C619 1.460 . S
C623 C622 1.477 . S
C623 H643 0.930 . S
C624 N620 1.362 . S
C624 C621 1.431 . S
C624 C634 1.476 . S
H625 C619 0.929 . S
C626 O617 1.250 . S
C626 O618 1.258 . S
O627 Mn612 2.162 . S
O627 C615 1.281 . S
O628 Mn612 2.297 . S
O628 C615 1.236 . S
N629 Mn613 2.282 . S
N629 C630 1.328 . S
N629 C634 1.318 . S
C630 N629 1.328 . S
C630 C631 1.457 . S
C630 H635 0.929 . S
C631 C630 1.457 . S
C631 C632 1.291 . S
C631 H644 0.931 . S
C632 C631 1.291 . S
C632 C633 1.373 . S
C632 H645 0.929 . S
C633 C632 1.373 . S
C633 C634 1.396 . S
C633 C640 1.403 . S
C634 C624 1.476 . S
C634 N629 1.318 . S
C634 C633 1.396 . S
H635 C630 0.929 . S
O636 Mn612 2.385 . S
O636 C614 1.234 . S
O637 Mn612 2.209 . S
O637 Mn613 2.215 . S
O637 C614 1.283 . S
O638 Mn612 2.094 . S
O638 C616 1.240 . S
O639 Mn613 2.117 . S
O639 C616 1.264 . S
C640 C633 1.403 . S
C640 C641 1.399 . S
C640 H646 0.929 . S
C641 C621 1.449 . S
C641 C640 1.399 . S
C641 H647 0.930 . S
H642 C622 0.931 . S
H643 C623 0.930 . S
H644 C631 0.931 . S
H645 C632 0.929 . S
H646 C640 0.929 . S
H647 C641 0.930 . S
Mn648 O653 2.095 . S
Mn648 O663 2.162 . S
Mn648 O664 2.297 . S
Mn648 O672 2.385 . S
Mn648 O673 2.209 . S
Mn648 O674 2.094 . S
Mn649 O654 2.121 . S
Mn649 N656 2.257 . S
Mn649 N665 2.282 . S
Mn649 O673 2.215 . S
Mn649 O675 2.117 . S
C650 O672 1.234 . S
C650 O673 1.283 . S
C651 O663 1.281 . S
C651 O664 1.236 . S
C652 O674 1.240 . S
C652 O675 1.264 . S
O653 Mn648 2.095 . S
O653 C662 1.250 . S
O654 Mn649 2.121 . S
O654 C662 1.258 . S
C655 N656 1.326 . S
C655 C659 1.460 . S
C655 H661 0.929 . S
N656 Mn649 2.257 . S
N656 C655 1.326 . S
N656 C660 1.362 . S
C657 C658 1.258 . S
C657 C660 1.431 . S
C657 C677 1.449 . S
C658 C657 1.258 . S
C658 C659 1.477 . S
C658 H678 0.931 . S
C659 C655 1.460 . S
C659 C658 1.477 . S
C659 H679 0.930 . S
C660 N656 1.362 . S
C660 C657 1.431 . S
C660 C670 1.476 . S
H661 C655 0.929 . S
C662 O653 1.250 . S
C662 O654 1.258 . S
O663 Mn648 2.162 . S
O663 C651 1.281 . S
O664 Mn648 2.297 . S
O664 C651 1.236 . S
N665 Mn649 2.282 . S
N665 C666 1.328 . S
N665 C670 1.318 . S
C666 N665 1.328 . S
C666 C667 1.457 . S
C666 H671 0.929 . S
C667 C666 1.457 . S
C667 C668 1.291 . S
C667 H680 0.931 . S
C668 C667 1.291 . S
C668 C669 1.373 . S
C668 H681 0.929 . S
C669 C668 1.373 . S
C669 C670 1.396 . S
C669 C676 1.403 . S
C670 C660 1.476 . S
C670 N665 1.318 . S
C670 C669 1.396 . S
H671 C666 0.929 . S
O672 Mn648 2.385 . S
O672 C650 1.234 . S
O673 Mn648 2.209 . S
O673 Mn649 2.215 . S
O673 C650 1.283 . S
O674 Mn648 2.094 . S
O674 C652 1.240 . S
O675 Mn649 2.117 . S
O675 C652 1.264 . S
C676 C669 1.403 . S
C676 C677 1.399 . S
C676 H682 0.929 . S
C677 C657 1.449 . S
C677 C676 1.399 . S
C677 H683 0.930 . S
H678 C658 0.931 . S
H679 C659 0.930 . S
H680 C667 0.931 . S
H681 C668 0.929 . S
H682 C676 0.929 . S
H683 C677 0.930 . S
Mn684 O689 2.095 . S
Mn684 O699 2.162 . S
Mn684 O700 2.297 . S
Mn684 O708 2.385 . S
Mn684 O709 2.209 . S
Mn684 O710 2.094 . S
Mn685 O690 2.121 . S
Mn685 N692 2.257 . S
Mn685 N701 2.282 . S
Mn685 O709 2.215 . S
Mn685 O711 2.117 . S
C686 O708 1.234 . S
C686 O709 1.283 . S
C687 O699 1.281 . S
C687 O700 1.236 . S
C688 O710 1.240 . S
C688 O711 1.264 . S
O689 Mn684 2.095 . S
O689 C698 1.250 . S
O690 Mn685 2.121 . S
O690 C698 1.258 . S
C691 N692 1.326 . S
C691 C695 1.460 . S
C691 H697 0.929 . S
N692 Mn685 2.257 . S
N692 C691 1.326 . S
N692 C696 1.362 . S
C693 C694 1.258 . S
C693 C696 1.431 . S
C693 C713 1.449 . S
C694 C693 1.258 . S
C694 C695 1.477 . S
C694 H714 0.931 . S
C695 C691 1.460 . S
C695 C694 1.477 . S
C695 H715 0.930 . S
C696 N692 1.362 . S
C696 C693 1.431 . S
C696 C706 1.476 . S
H697 C691 0.929 . S
C698 O689 1.250 . S
C698 O690 1.258 . S
O699 Mn684 2.162 . S
O699 C687 1.281 . S
O700 Mn684 2.297 . S
O700 C687 1.236 . S
N701 Mn685 2.282 . S
N701 C702 1.328 . S
N701 C706 1.318 . S
C702 N701 1.328 . S
C702 C703 1.457 . S
C702 H707 0.929 . S
C703 C702 1.457 . S
C703 C704 1.291 . S
C703 H716 0.931 . S
C704 C703 1.291 . S
C704 C705 1.373 . S
C704 H717 0.929 . S
C705 C704 1.373 . S
C705 C706 1.396 . S
C705 C712 1.403 . S
C706 C696 1.476 . S
C706 N701 1.318 . S
C706 C705 1.396 . S
H707 C702 0.929 . S
O708 Mn684 2.385 . S
O708 C686 1.234 . S
O709 Mn684 2.209 . S
O709 Mn685 2.215 . S
O709 C686 1.283 . S
O710 Mn684 2.094 . S
O710 C688 1.240 . S
O711 Mn685 2.117 . S
O711 C688 1.264 . S
C712 C705 1.403 . S
C712 C713 1.399 . S
C712 H718 0.929 . S
C713 C693 1.449 . S
C713 C712 1.399 . S
C713 H719 0.930 . S
H714 C694 0.931 . S
H715 C695 0.930 . S
H716 C703 0.931 . S
H717 C704 0.929 . S
H718 C712 0.929 . S
H719 C713 0.930 . S
Mn720 O725 2.095 . S
Mn720 O735 2.162 . S
Mn720 O736 2.297 . S
Mn720 O744 2.385 . S
Mn720 O745 2.209 . S
Mn720 O746 2.094 . S
Mn721 O726 2.121 . S
Mn721 N728 2.257 . S
Mn721 N737 2.282 . S
Mn721 O745 2.215 . S
Mn721 O747 2.117 . S
C722 O744 1.234 . S
C722 O745 1.283 . S
C723 O735 1.281 . S
C723 O736 1.236 . S
C724 O746 1.240 . S
C724 O747 1.264 . S
O725 Mn720 2.095 . S
O725 C734 1.250 . S
O726 Mn721 2.121 . S
O726 C734 1.258 . S
C727 N728 1.326 . S
C727 C731 1.460 . S
C727 H733 0.929 . S
N728 Mn721 2.257 . S
N728 C727 1.326 . S
N728 C732 1.362 . S
C729 C730 1.258 . S
C729 C732 1.431 . S
C729 C749 1.449 . S
C730 C729 1.258 . S
C730 C731 1.477 . S
C730 H750 0.931 . S
C731 C727 1.460 . S
C731 C730 1.477 . S
C731 H751 0.930 . S
C732 N728 1.362 . S
C732 C729 1.431 . S
C732 C742 1.476 . S
H733 C727 0.929 . S
C734 O725 1.250 . S
C734 O726 1.258 . S
O735 Mn720 2.162 . S
O735 C723 1.281 . S
O736 Mn720 2.297 . S
O736 C723 1.236 . S
N737 Mn721 2.282 . S
N737 C738 1.328 . S
N737 C742 1.318 . S
C738 N737 1.328 . S
C738 C739 1.457 . S
C738 H743 0.929 . S
C739 C738 1.457 . S
C739 C740 1.291 . S
C739 H752 0.931 . S
C740 C739 1.291 . S
C740 C741 1.373 . S
C740 H753 0.929 . S
C741 C740 1.373 . S
C741 C742 1.396 . S
C741 C748 1.403 . S
C742 C732 1.476 . S
C742 N737 1.318 . S
C742 C741 1.396 . S
H743 C738 0.929 . S
O744 Mn720 2.385 . S
O744 C722 1.234 . S
O745 Mn720 2.209 . S
O745 Mn721 2.215 . S
O745 C722 1.283 . S
O746 Mn720 2.094 . S
O746 C724 1.240 . S
O747 Mn721 2.117 . S
O747 C724 1.264 . S
C748 C741 1.403 . S
C748 C749 1.399 . S
C748 H754 0.929 . S
C749 C729 1.449 . S
C749 C748 1.399 . S
C749 H755 0.930 . S
H750 C730 0.931 . S
H751 C731 0.930 . S
H752 C739 0.931 . S
H753 C740 0.929 . S
H754 C748 0.929 . S
H755 C749 0.930 . S
Mn756 O761 2.095 . S
Mn756 O771 2.162 . S
Mn756 O772 2.297 . S
Mn756 O780 2.385 . S
Mn756 O781 2.209 . S
Mn756 O782 2.094 . S
Mn757 O762 2.121 . S
Mn757 N764 2.257 . S
Mn757 N773 2.282 . S
Mn757 O781 2.215 . S
Mn757 O783 2.117 . S
C758 O780 1.234 . S
C758 O781 1.283 . S
C759 O771 1.281 . S
C759 O772 1.236 . S
C760 O782 1.240 . S
C760 O783 1.264 . S
O761 Mn756 2.095 . S
O761 C770 1.250 . S
O762 Mn757 2.121 . S
O762 C770 1.258 . S
C763 N764 1.326 . S
C763 C767 1.460 . S
C763 H769 0.929 . S
N764 Mn757 2.257 . S
N764 C763 1.326 . S
N764 C768 1.362 . S
C765 C766 1.258 . S
C765 C768 1.431 . S
C765 C785 1.449 . S
C766 C765 1.258 . S
C766 C767 1.477 . S
C766 H786 0.931 . S
C767 C763 1.460 . S
C767 C766 1.477 . S
C767 H787 0.930 . S
C768 N764 1.362 . S
C768 C765 1.431 . S
C768 C778 1.476 . S
H769 C763 0.929 . S
C770 O761 1.250 . S
C770 O762 1.258 . S
O771 Mn756 2.162 . S
O771 C759 1.281 . S
O772 Mn756 2.297 . S
O772 C759 1.236 . S
N773 Mn757 2.282 . S
N773 C774 1.328 . S
N773 C778 1.318 . S
C774 N773 1.328 . S
C774 C775 1.457 . S
C774 H779 0.929 . S
C775 C774 1.457 . S
C775 C776 1.291 . S
C775 H788 0.931 . S
C776 C775 1.291 . S
C776 C777 1.373 . S
C776 H789 0.929 . S
C777 C776 1.373 . S
C777 C778 1.396 . S
C777 C784 1.403 . S
C778 C768 1.476 . S
C778 N773 1.318 . S
C778 C777 1.396 . S
H779 C774 0.929 . S
O780 Mn756 2.385 . S
O780 C758 1.234 . S
O781 Mn756 2.209 . S
O781 Mn757 2.215 . S
O781 C758 1.283 . S
O782 Mn756 2.094 . S
O782 C760 1.240 . S
O783 Mn757 2.117 . S
O783 C760 1.264 . S
C784 C777 1.403 . S
C784 C785 1.399 . S
C784 H790 0.929 . S
C785 C765 1.449 . S
C785 C784 1.399 . S
C785 H791 0.930 . S
H786 C766 0.931 . S
H787 C767 0.930 . S
H788 C775 0.931 . S
H789 C776 0.929 . S
H790 C784 0.929 . S
H791 C785 0.930 . S
Mn792 O797 2.095 . S
Mn792 O807 2.162 . S
Mn792 O808 2.297 . S
Mn792 O816 2.385 . S
Mn792 O817 2.209 . S
Mn792 O818 2.094 . S
Mn793 O798 2.121 . S
Mn793 N800 2.257 . S
Mn793 N809 2.282 . S
Mn793 O817 2.215 . S
Mn793 O819 2.117 . S
C794 O816 1.234 . S
C794 O817 1.283 . S
C795 O807 1.281 . S
C795 O808 1.236 . S
C796 O818 1.240 . S
C796 O819 1.264 . S
O797 Mn792 2.095 . S
O797 C806 1.250 . S
O798 Mn793 2.121 . S
O798 C806 1.258 . S
C799 N800 1.326 . S
C799 C803 1.460 . S
C799 H805 0.929 . S
N800 Mn793 2.257 . S
N800 C799 1.326 . S
N800 C804 1.362 . S
C801 C802 1.258 . S
C801 C804 1.431 . S
C801 C821 1.449 . S
C802 C801 1.258 . S
C802 C803 1.477 . S
C802 H822 0.931 . S
C803 C799 1.460 . S
C803 C802 1.477 . S
C803 H823 0.930 . S
C804 N800 1.362 . S
C804 C801 1.431 . S
C804 C814 1.476 . S
H805 C799 0.929 . S
C806 O797 1.250 . S
C806 O798 1.258 . S
O807 Mn792 2.162 . S
O807 C795 1.281 . S
O808 Mn792 2.297 . S
O808 C795 1.236 . S
N809 Mn793 2.282 . S
N809 C810 1.328 . S
N809 C814 1.318 . S
C810 N809 1.328 . S
C810 C811 1.457 . S
C810 H815 0.929 . S
C811 C810 1.457 . S
C811 C812 1.291 . S
C811 H824 0.931 . S
C812 C811 1.291 . S
C812 C813 1.373 . S
C812 H825 0.929 . S
C813 C812 1.373 . S
C813 C814 1.396 . S
C813 C820 1.403 . S
C814 C804 1.476 . S
C814 N809 1.318 . S
C814 C813 1.396 . S
H815 C810 0.929 . S
O816 Mn792 2.385 . S
O816 C794 1.234 . S
O817 Mn792 2.209 . S
O817 Mn793 2.215 . S
O817 C794 1.283 . S
O818 Mn792 2.094 . S
O818 C796 1.240 . S
O819 Mn793 2.117 . S
O819 C796 1.264 . S
C820 C813 1.403 . S
C820 C821 1.399 . S
C820 H826 0.929 . S
C821 C801 1.449 . S
C821 C820 1.399 . S
C821 H827 0.930 . S
H822 C802 0.931 . S
H823 C803 0.930 . S
H824 C811 0.931 . S
H825 C812 0.929 . S
H826 C820 0.929 . S
H827 C821 0.930 . S
Mn828 O833 2.095 . S
Mn828 O843 2.162 . S
Mn828 O844 2.297 . S
Mn828 O852 2.385 . S
Mn828 O853 2.209 . S
Mn828 O854 2.094 . S
Mn829 O834 2.121 . S
Mn829 N836 2.257 . S
Mn829 N845 2.282 . S
Mn829 O853 2.215 . S
Mn829 O855 2.117 . S
C830 O852 1.234 . S
C830 O853 1.283 . S
C831 O843 1.281 . S
C831 O844 1.236 . S
C832 O854 1.240 . S
C832 O855 1.264 . S
O833 Mn828 2.095 . S
O833 C842 1.250 . S
O834 Mn829 2.121 . S
O834 C842 1.258 . S
C835 N836 1.326 . S
C835 C839 1.460 . S
C835 H841 0.929 . S
N836 Mn829 2.257 . S
N836 C835 1.326 . S
N836 C840 1.362 . S
C837 C838 1.258 . S
C837 C840 1.431 . S
C837 C857 1.449 . S
C838 C837 1.258 . S
C838 C839 1.477 . S
C838 H858 0.931 . S
C839 C835 1.460 . S
C839 C838 1.477 . S
C839 H859 0.930 . S
C840 N836 1.362 . S
C840 C837 1.431 . S
C840 C850 1.476 . S
H841 C835 0.929 . S
C842 O833 1.250 . S
C842 O834 1.258 . S
O843 Mn828 2.162 . S
O843 C831 1.281 . S
O844 Mn828 2.297 . S
O844 C831 1.236 . S
N845 Mn829 2.282 . S
N845 C846 1.328 . S
N845 C850 1.318 . S
C846 N845 1.328 . S
C846 C847 1.457 . S
C846 H851 0.929 . S
C847 C846 1.457 . S
C847 C848 1.291 . S
C847 H860 0.931 . S
C848 C847 1.291 . S
C848 C849 1.373 . S
C848 H861 0.929 . S
C849 C848 1.373 . S
C849 C850 1.396 . S
C849 C856 1.403 . S
C850 C840 1.476 . S
C850 N845 1.318 . S
C850 C849 1.396 . S
H851 C846 0.929 . S
O852 Mn828 2.385 . S
O852 C830 1.234 . S
O853 Mn828 2.209 . S
O853 Mn829 2.215 . S
O853 C830 1.283 . S
O854 Mn828 2.094 . S
O854 C832 1.240 . S
O855 Mn829 2.117 . S
O855 C832 1.264 . S
C856 C849 1.403 . S
C856 C857 1.399 . S
C856 H862 0.929 . S
C857 C837 1.449 . S
C857 C856 1.399 . S
C857 H863 0.930 . S
H858 C838 0.931 . S
H859 C839 0.930 . S
H860 C847 0.931 . S
H861 C848 0.929 . S
H862 C856 0.929 . S
H863 C857 0.930 . S
H864 C876 0.930 . S
H865 C878 0.930 . S
H866 C879 0.930 . S
H867 C883 0.959 . S
H868 C883 0.959 . S
H869 C883 0.961 . S
H870 C884 0.960 . S
H871 C884 0.961 . S
H872 C884 0.959 . S
H873 C887 0.929 . S
H874 C888 0.931 . S
H875 C890 0.930 . S
C876 H864 0.930 . S
C876 C877 1.399 . S
C876 C881 1.399 . S
C877 C876 1.399 . S
C877 C878 1.376 . S
C878 H865 0.930 . S
C878 C877 1.376 . S
C878 C879 1.388 . S
C879 H866 0.930 . S
C879 C878 1.388 . S
C879 C880 1.390 . S
C880 C879 1.390 . S
C880 C881 1.394 . S
C880 C886 1.465 1_545 S
C881 C876 1.399 . S
C881 C880 1.394 . S
C881 C882 1.516 1_545 S
C882 C881 1.516 1_565 S
C882 C883 1.502 . S
C882 C884 1.561 . S
C882 C885 1.526 . S
C883 H867 0.959 . S
C883 H868 0.959 . S
C883 H869 0.961 . S
C883 C882 1.502 . S
C884 H870 0.960 . S
C884 H871 0.961 . S
C884 H872 0.959 . S
C884 C882 1.561 . S
C885 C882 1.526 . S
C885 C886 1.396 . S
C885 C890 1.390 . S
C886 C880 1.465 1_565 S
C886 C885 1.396 . S
C886 C887 1.399 . S
C887 H873 0.929 . S
C887 C886 1.399 . S
C887 C888 1.385 . S
C888 H874 0.931 . S
C888 C887 1.385 . S
C888 C889 1.389 . S
C889 C888 1.389 . S
C889 C890 1.387 . S
C890 H875 0.930 . S
C890 C885 1.390 . S
C890 C889 1.387 . S
H891 C903 0.930 . S
H892 C905 0.930 . S
H893 C906 0.930 . S
H894 C910 0.959 . S
H895 C910 0.959 . S
H896 C910 0.961 . S
H897 C911 0.960 . S
H898 C911 0.961 . S
H899 C911 0.959 . S
H900 C914 0.929 . S
H901 C915 0.931 . S
H902 C917 0.930 . S
C903 H891 0.930 . S
C903 C904 1.399 . S
C903 C908 1.399 . S
C904 C903 1.399 . S
C904 C905 1.376 . S
C905 H892 0.930 . S
C905 C904 1.376 . S
C905 C906 1.388 . S
C906 H893 0.930 . S
C906 C905 1.388 . S
C906 C907 1.390 . S
C907 C906 1.390 . S
C907 C908 1.394 . S
C907 C913 1.465 . S
C908 C903 1.399 . S
C908 C907 1.394 . S
C908 C909 1.516 . S
C909 C908 1.516 . S
C909 C910 1.502 . S
C909 C911 1.561 . S
C909 C912 1.526 . S
C910 H894 0.959 . S
C910 H895 0.959 . S
C910 H896 0.961 . S
C910 C909 1.502 . S
C911 H897 0.960 . S
C911 H898 0.961 . S
C911 H899 0.959 . S
C911 C909 1.561 . S
C912 C909 1.526 . S
C912 C913 1.396 . S
C912 C917 1.390 . S
C913 C907 1.465 . S
C913 C912 1.396 . S
C913 C914 1.399 . S
C914 H900 0.929 . S
C914 C913 1.399 . S
C914 C915 1.385 . S
C915 H901 0.931 . S
C915 C914 1.385 . S
C915 C916 1.389 . S
C916 C915 1.389 . S
C916 C917 1.387 . S
C917 H902 0.930 . S
C917 C912 1.390 . S
C917 C916 1.387 . S
H918 C930 0.930 . S
H919 C932 0.930 . S
H920 C933 0.930 . S
H921 C937 0.959 . S
H922 C937 0.959 . S
H923 C937 0.961 . S
H924 C938 0.960 1_655 S
H925 C938 0.961 . S
H926 C938 0.959 . S
H927 C941 0.929 . S
H928 C942 0.931 . S
H929 C944 0.930 . S
C930 H918 0.930 . S
C930 C931 1.399 . S
C930 C935 1.399 . S
C931 C930 1.399 . S
C931 C932 1.376 . S
C932 H919 0.930 . S
C932 C931 1.376 . S
C932 C933 1.388 . S
C933 H920 0.930 . S
C933 C932 1.388 . S
C933 C934 1.390 . S
C934 C933 1.390 . S
C934 C935 1.394 . S
C934 C940 1.465 1_655 S
C935 C930 1.399 . S
C935 C934 1.394 . S
C935 C936 1.516 1_655 S
C936 C935 1.516 1_455 S
C936 C937 1.502 . S
C936 C938 1.561 . S
C936 C939 1.526 . S
C937 H921 0.959 . S
C937 H922 0.959 . S
C937 H923 0.961 . S
C937 C936 1.502 . S
C938 H924 0.960 1_455 S
C938 H925 0.961 . S
C938 H926 0.959 . S
C938 C936 1.561 . S
C939 C936 1.526 . S
C939 C940 1.396 . S
C939 C944 1.390 . S
C940 C934 1.465 1_455 S
C940 C939 1.396 . S
C940 C941 1.399 . S
C941 H927 0.929 . S
C941 C940 1.399 . S
C941 C942 1.385 . S
C942 H928 0.931 . S
C942 C941 1.385 . S
C942 C943 1.389 . S
C943 C942 1.389 . S
C943 C944 1.387 . S
C944 H929 0.930 . S
C944 C939 1.390 . S
C944 C943 1.387 . S
H945 C957 0.930 . S
H946 C959 0.930 . S
H947 C960 0.930 . S
H948 C964 0.959 . S
H949 C964 0.959 . S
H950 C964 0.961 . S
H951 C965 0.960 . S
H952 C965 0.961 . S
H953 C965 0.959 . S
H954 C968 0.929 . S
H955 C969 0.931 . S
H956 C971 0.930 . S
C957 H945 0.930 . S
C957 C958 1.399 . S
C957 C962 1.399 . S
C958 C957 1.399 . S
C958 C959 1.376 . S
C959 H946 0.930 . S
C959 C958 1.376 . S
C959 C960 1.388 . S
C960 H947 0.930 . S
C960 C959 1.388 . S
C960 C961 1.390 . S
C961 C960 1.390 . S
C961 C962 1.394 . S
C961 C967 1.465 1_565 S
C962 C957 1.399 . S
C962 C961 1.394 . S
C962 C963 1.516 . S
C963 C962 1.516 . S
C963 C964 1.502 . S
C963 C965 1.561 . S
C963 C966 1.526 1_565 S
C964 H948 0.959 . S
C964 H949 0.959 . S
C964 H950 0.961 . S
C964 C963 1.502 . S
C965 H951 0.960 . S
C965 H952 0.961 . S
C965 H953 0.959 . S
C965 C963 1.561 . S
C966 C963 1.526 1_545 S
C966 C967 1.396 . S
C966 C971 1.390 . S
C967 C961 1.465 1_545 S
C967 C966 1.396 . S
C967 C968 1.399 . S
C968 H954 0.929 . S
C968 C967 1.399 . S
C968 C969 1.385 . S
C969 H955 0.931 . S
C969 C968 1.385 . S
C969 C970 1.389 . S
C970 C969 1.389 . S
C970 C971 1.387 . S
C971 H956 0.930 . S
C971 C966 1.390 . S
C971 C970 1.387 . S
H972 C984 0.930 . S
H973 C986 0.930 . S
H974 C987 0.930 . S
H975 C991 0.959 . S
H976 C991 0.959 . S
H977 C991 0.961 . S
H978 C992 0.960 . S
H979 C992 0.961 . S
H980 C992 0.959 . S
H981 C995 0.929 . S
H982 C996 0.931 . S
H983 C998 0.930 . S
C984 H972 0.930 . S
C984 C985 1.399 . S
C984 C989 1.399 . S
C985 C984 1.399 . S
C985 C986 1.376 . S
C986 H973 0.930 . S
C986 C985 1.376 . S
C986 C987 1.388 . S
C987 H974 0.930 . S
C987 C986 1.388 . S
C987 C988 1.390 . S
C988 C987 1.390 . S
C988 C989 1.394 . S
C988 C994 1.465 . S
C989 C984 1.399 . S
C989 C988 1.394 . S
C989 C990 1.516 . S
C990 C989 1.516 . S
C990 C991 1.502 . S
C990 C992 1.561 . S
C990 C993 1.526 . S
C991 H975 0.959 . S
C991 H976 0.959 . S
C991 H977 0.961 . S
C991 C990 1.502 . S
C992 H978 0.960 . S
C992 H979 0.961 . S
C992 H980 0.959 . S
C992 C990 1.561 . S
C993 C990 1.526 . S
C993 C994 1.396 . S
C993 C998 1.390 . S
C994 C988 1.465 . S
C994 C993 1.396 . S
C994 C995 1.399 . S
C995 H981 0.929 . S
C995 C994 1.399 . S
C995 C996 1.385 . S
C996 H982 0.931 . S
C996 C995 1.385 . S
C996 C997 1.389 . S
C997 C996 1.389 . S
C997 C998 1.387 . S
C998 H983 0.930 . S
C998 C993 1.390 . S
C998 C997 1.387 . S
H999 C1011 0.930 . S
H1000 C1013 0.930 . S
H1001 C1014 0.930 . S
H1002 C1018 0.959 . S
H1003 C1018 0.959 . S
H1004 C1018 0.961 . S
H1005 C1019 0.960 1_455 S
H1006 C1019 0.961 . S
H1007 C1019 0.959 . S
H1008 C1022 0.929 . S
H1009 C1023 0.931 . S
H1010 C1025 0.930 . S
C1011 H999 0.930 . S
C1011 C1012 1.399 . S
C1011 C1016 1.399 . S
C1012 C1011 1.399 . S
C1012 C1013 1.376 . S
C1013 H1000 0.930 . S
C1013 C1012 1.376 . S
C1013 C1014 1.388 . S
C1014 H1001 0.930 . S
C1014 C1013 1.388 . S
C1014 C1015 1.390 . S
C1015 C1014 1.390 . S
C1015 C1016 1.394 . S
C1015 C1021 1.465 1_455 S
C1016 C1011 1.399 . S
C1016 C1015 1.394 . S
C1016 C1017 1.516 1_455 S
C1017 C1016 1.516 1_655 S
C1017 C1018 1.502 . S
C1017 C1019 1.561 . S
C1017 C1020 1.526 . S
C1018 H1002 0.959 . S
C1018 H1003 0.959 . S
C1018 H1004 0.961 . S
C1018 C1017 1.502 . S
C1019 H1005 0.960 1_655 S
C1019 H1006 0.961 . S
C1019 H1007 0.959 . S
C1019 C1017 1.561 . S
C1020 C1017 1.526 . S
C1020 C1021 1.396 . S
C1020 C1025 1.390 . S
C1021 C1015 1.465 1_655 S
C1021 C1020 1.396 . S
C1021 C1022 1.399 . S
C1022 H1008 0.929 . S
C1022 C1021 1.399 . S
C1022 C1023 1.385 . S
C1023 H1009 0.931 . S
C1023 C1022 1.385 . S
C1023 C1024 1.389 . S
C1024 C1023 1.389 . S
C1024 C1025 1.387 . S
C1025 H1010 0.930 . S
C1025 C1020 1.390 . S
C1025 C1024 1.387 . S
H1026 C1038 0.930 . S
H1027 C1040 0.930 . S
H1028 C1041 0.930 . S
H1029 C1045 0.959 . S
H1030 C1045 0.959 . S
H1031 C1045 0.961 . S
H1032 C1046 0.960 . S
H1033 C1046 0.961 . S
H1034 C1046 0.959 . S
H1035 C1049 0.929 . S
H1036 C1050 0.931 . S
H1037 C1052 0.930 . S
C1038 H1026 0.930 . S
C1038 C1039 1.399 . S
C1038 C1043 1.399 . S
C1039 C1038 1.399 . S
C1039 C1040 1.376 . S
C1040 H1027 0.930 . S
C1040 C1039 1.376 . S
C1040 C1041 1.388 . S
C1041 H1028 0.930 . S
C1041 C1040 1.388 . S
C1041 C1042 1.390 . S
C1042 C1041 1.390 . S
C1042 C1043 1.394 . S
C1042 C1048 1.465 1_565 S
C1043 C1038 1.399 . S
C1043 C1042 1.394 . S
C1043 C1044 1.516 . S
C1044 C1043 1.516 . S
C1044 C1045 1.502 . S
C1044 C1046 1.561 . S
C1044 C1047 1.526 1_565 S
C1045 H1029 0.959 . S
C1045 H1030 0.959 . S
C1045 H1031 0.961 . S
C1045 C1044 1.502 . S
C1046 H1032 0.960 . S
C1046 H1033 0.961 . S
C1046 H1034 0.959 . S
C1046 C1044 1.561 . S
C1047 C1044 1.526 1_545 S
C1047 C1048 1.396 . S
C1047 C1052 1.390 . S
C1048 C1042 1.465 1_545 S
C1048 C1047 1.396 . S
C1048 C1049 1.399 . S
C1049 H1035 0.929 . S
C1049 C1048 1.399 . S
C1049 C1050 1.385 . S
C1050 H1036 0.931 . S
C1050 C1049 1.385 . S
C1050 C1051 1.389 . S
C1051 C1050 1.389 . S
C1051 C1052 1.387 . S
C1052 H1037 0.930 . S
C1052 C1047 1.390 . S
C1052 C1051 1.387 . S
H1053 C1065 0.930 . S
H1054 C1067 0.930 . S
H1055 C1068 0.930 . S
H1056 C1072 0.959 . S
H1057 C1072 0.959 . S
H1058 C1072 0.961 . S
H1059 C1073 0.960 . S
H1060 C1073 0.961 . S
H1061 C1073 0.959 . S
H1062 C1076 0.929 . S
H1063 C1077 0.931 . S
H1064 C1079 0.930 . S
C1065 H1053 0.930 . S
C1065 C1066 1.399 . S
C1065 C1070 1.399 . S
C1066 C1065 1.399 . S
C1066 C1067 1.376 . S
C1067 H1054 0.930 . S
C1067 C1066 1.376 . S
C1067 C1068 1.388 . S
C1068 H1055 0.930 . S
C1068 C1067 1.388 . S
C1068 C1069 1.390 . S
C1069 C1068 1.390 . S
C1069 C1070 1.394 . S
C1069 C1075 1.465 . S
C1070 C1065 1.399 . S
C1070 C1069 1.394 . S
C1070 C1071 1.516 . S
C1071 C1070 1.516 . S
C1071 C1072 1.502 . S
C1071 C1073 1.561 . S
C1071 C1074 1.526 . S
C1072 H1056 0.959 . S
C1072 H1057 0.959 . S
C1072 H1058 0.961 . S
C1072 C1071 1.502 . S
C1073 H1059 0.960 . S
C1073 H1060 0.961 . S
C1073 H1061 0.959 . S
C1073 C1071 1.561 . S
C1074 C1071 1.526 . S
C1074 C1075 1.396 . S
C1074 C1079 1.390 . S
C1075 C1069 1.465 . S
C1075 C1074 1.396 . S
C1075 C1076 1.399 . S
C1076 H1062 0.929 . S
C1076 C1075 1.399 . S
C1076 C1077 1.385 . S
C1077 H1063 0.931 . S
C1077 C1076 1.385 . S
C1077 C1078 1.389 . S
C1078 C1077 1.389 . S
C1078 C1079 1.387 . S
C1079 H1064 0.930 . S
C1079 C1074 1.390 . S
C1079 C1078 1.387 . S
H1080 C1092 0.930 . S
H1081 C1094 0.930 . S
H1082 C1095 0.930 . S
H1083 C1099 0.959 . S
H1084 C1099 0.959 1_455 S
H1085 C1099 0.961 . S
H1086 C1100 0.960 1_655 S
H1087 C1100 0.961 . S
H1088 C1100 0.959 . S
H1089 C1103 0.929 . S
H1090 C1104 0.931 . S
H1091 C1106 0.930 . S
C1092 H1080 0.930 . S
C1092 C1093 1.399 . S
C1092 C1097 1.399 . S
C1093 C1092 1.399 . S
C1093 C1094 1.376 . S
C1094 H1081 0.930 . S
C1094 C1093 1.376 . S
C1094 C1095 1.388 . S
C1095 H1082 0.930 . S
C1095 C1094 1.388 . S
C1095 C1096 1.390 . S
C1096 C1095 1.390 . S
C1096 C1097 1.394 . S
C1096 C1102 1.465 1_655 S
C1097 C1092 1.399 . S
C1097 C1096 1.394 . S
C1097 C1098 1.553 . S
C1098 C1097 1.553 . S
C1098 C1099 1.501 . S
C1098 C1100 1.539 1_655 S
C1098 C1101 1.513 1_655 S
C1099 H1083 0.959 . S
C1099 H1084 0.959 1_655 S
C1099 H1085 0.961 . S
C1099 C1098 1.501 . S
C1100 H1086 0.960 1_455 S
C1100 H1087 0.961 . S
C1100 H1088 0.959 . S
C1100 C1098 1.539 1_455 S
C1101 C1098 1.513 1_455 S
C1101 C1102 1.396 . S
C1101 C1106 1.390 . S
C1102 C1096 1.465 1_455 S
C1102 C1101 1.396 . S
C1102 C1103 1.399 . S
C1103 H1089 0.929 . S
C1103 C1102 1.399 . S
C1103 C1104 1.385 . S
C1104 H1090 0.931 . S
C1104 C1103 1.385 . S
C1104 C1105 1.389 . S
C1105 C1104 1.389 . S
C1105 C1106 1.387 . S
C1106 H1091 0.930 . S
C1106 C1101 1.390 . S
C1106 C1105 1.387 . S
H1107 C1119 0.930 . S
H1108 C1121 0.930 . S
H1109 C1122 0.930 . S
H1110 C1126 0.959 . S
H1111 C1126 0.959 . S
H1112 C1126 0.961 . S
H1113 C1127 0.943 1_545 S
H1114 C1127 0.989 . S
H1115 C1127 0.969 . S
H1116 C1130 0.929 . S
H1117 C1131 0.931 . S
H1118 C1133 0.930 . S
C1119 H1107 0.930 . S
C1119 C1120 1.399 . S
C1119 C1124 1.399 . S
C1120 C1119 1.399 . S
C1120 C1121 1.376 . S
C1121 H1108 0.930 . S
C1121 C1120 1.376 . S
C1121 C1122 1.388 . S
C1122 H1109 0.930 . S
C1122 C1121 1.388 . S
C1122 C1123 1.390 . S
C1123 C1122 1.390 . S
C1123 C1124 1.394 . S
C1123 C1129 1.465 1_545 S
C1124 C1119 1.399 . S
C1124 C1123 1.394 . S
C1124 C1125 1.516 . S
C1125 C1124 1.516 . S
C1125 C1126 1.502 . S
C1125 C1127 1.541 1_545 S
C1125 C1128 1.526 1_545 S
C1126 H1110 0.959 . S
C1126 H1111 0.959 . S
C1126 H1112 0.961 . S
C1126 C1125 1.502 . S
C1127 H1113 0.943 1_565 S
C1127 H1114 0.989 . S
C1127 H1115 0.969 . S
C1127 C1125 1.541 1_565 S
C1128 C1125 1.526 1_565 S
C1128 C1129 1.396 . S
C1128 C1133 1.390 . S
C1129 C1123 1.465 1_565 S
C1129 C1128 1.396 . S
C1129 C1130 1.399 . S
C1130 H1116 0.929 . S
C1130 C1129 1.399 . S
C1130 C1131 1.385 . S
C1131 H1117 0.931 . S
C1131 C1130 1.385 . S
C1131 C1132 1.389 . S
C1132 C1131 1.389 . S
C1132 C1133 1.387 . S
C1133 H1118 0.930 . S
C1133 C1128 1.390 . S
C1133 C1132 1.387 . S
H1134 C1146 0.930 . S
H1135 C1148 0.930 . S
H1136 C1149 0.930 . S
H1137 C1153 0.959 . S
H1138 C1153 0.959 . S
H1139 C1153 0.961 . S
H1140 C1154 0.960 . S
H1141 C1154 0.961 . S
H1142 C1154 0.959 . S
H1143 C1157 0.929 . S
H1144 C1158 0.931 . S
H1145 C1160 0.930 . S
C1146 H1134 0.930 . S
C1146 C1147 1.399 . S
C1146 C1151 1.399 . S
C1147 C1146 1.399 . S
C1147 C1148 1.376 . S
C1148 H1135 0.930 . S
C1148 C1147 1.376 . S
C1148 C1149 1.388 . S
C1149 H1136 0.930 . S
C1149 C1148 1.388 . S
C1149 C1150 1.390 . S
C1150 C1149 1.390 . S
C1150 C1151 1.394 . S
C1150 C1156 1.465 . S
C1151 C1146 1.399 . S
C1151 C1150 1.394 . S
C1151 C1152 1.516 . S
C1152 C1151 1.516 . S
C1152 C1153 1.502 . S
C1152 C1154 1.561 . S
C1152 C1155 1.526 . S
C1153 H1137 0.959 . S
C1153 H1138 0.959 . S
C1153 H1139 0.961 . S
C1153 C1152 1.502 . S
C1154 H1140 0.960 . S
C1154 H1141 0.961 . S
C1154 H1142 0.959 . S
C1154 C1152 1.561 . S
C1155 C1152 1.526 . S
C1155 C1156 1.396 . S
C1155 C1160 1.390 . S
C1156 C1150 1.465 . S
C1156 C1155 1.396 . S
C1156 C1157 1.399 . S
C1157 H1143 0.929 . S
C1157 C1156 1.399 . S
C1157 C1158 1.385 . S
C1158 H1144 0.931 . S
C1158 C1157 1.385 . S
C1158 C1159 1.389 . S
C1159 C1158 1.389 . S
C1159 C1160 1.387 . S
C1160 H1145 0.930 . S
C1160 C1155 1.390 . S
C1160 C1159 1.387 . S
H1161 C1173 0.930 . S
H1162 C1175 0.930 . S
H1163 C1176 0.930 . S
H1164 C1180 0.959 . S
H1165 C1180 0.959 . S
H1166 C1180 0.961 . S
H1167 C1181 0.960 . S
H1168 C1181 0.961 . S
H1169 C1181 0.959 . S
H1170 C1184 0.929 . S
H1171 C1185 0.931 . S
H1172 C1187 0.930 . S
C1173 H1161 0.930 . S
C1173 C1174 1.399 . S
C1173 C1178 1.399 . S
C1174 C1173 1.399 . S
C1174 C1175 1.376 . S
C1175 H1162 0.930 . S
C1175 C1174 1.376 . S
C1175 C1176 1.388 . S
C1176 H1163 0.930 . S
C1176 C1175 1.388 . S
C1176 C1177 1.390 . S
C1177 C1176 1.390 . S
C1177 C1178 1.394 . S
C1177 C1183 1.465 1_455 S
C1178 C1173 1.399 . S
C1178 C1177 1.394 . S
C1178 C1179 1.516 . S
C1179 C1178 1.516 . S
C1179 C1180 1.502 . S
C1179 C1181 1.561 . S
C1179 C1182 1.526 1_455 S
C1180 H1164 0.959 . S
C1180 H1165 0.959 . S
C1180 H1166 0.961 . S
C1180 C1179 1.502 . S
C1181 H1167 0.960 . S
C1181 H1168 0.961 . S
C1181 H1169 0.959 . S
C1181 C1179 1.561 . S
C1182 C1179 1.526 1_655 S
C1182 C1183 1.396 . S
C1182 C1187 1.390 . S
C1183 C1177 1.465 1_655 S
C1183 C1182 1.396 . S
C1183 C1184 1.399 . S
C1184 H1170 0.929 . S
C1184 C1183 1.399 . S
C1184 C1185 1.385 . S
C1185 H1171 0.931 . S
C1185 C1184 1.385 . S
C1185 C1186 1.389 . S
C1186 C1185 1.389 . S
C1186 C1187 1.387 . S
C1187 H1172 0.930 . S
C1187 C1182 1.390 . S
C1187 C1186 1.387 . S
H1188 C1200 0.930 . S
H1189 C1202 0.930 . S
H1190 C1203 0.930 . S
H1191 C1207 0.959 . S
H1192 C1207 0.959 . S
H1193 C1207 0.961 . S
H1194 C1208 0.960 . S
H1195 C1208 0.961 . S
H1196 C1208 0.959 . S
H1197 C1211 0.929 . S
H1198 C1212 0.931 . S
H1199 C1214 0.930 . S
C1200 H1188 0.930 . S
C1200 C1201 1.399 . S
C1200 C1205 1.399 . S
C1201 C1200 1.399 . S
C1201 C1202 1.376 . S
C1202 H1189 0.930 . S
C1202 C1201 1.376 . S
C1202 C1203 1.388 . S
C1203 H1190 0.930 . S
C1203 C1202 1.388 . S
C1203 C1204 1.390 . S
C1204 C1203 1.390 . S
C1204 C1205 1.394 . S
C1204 C1210 1.465 . S
C1205 C1200 1.399 . S
C1205 C1204 1.394 . S
C1205 C1206 1.516 . S
C1206 C1205 1.516 . S
C1206 C1207 1.502 . S
C1206 C1208 1.561 . S
C1206 C1209 1.526 . S
C1207 H1191 0.959 . S
C1207 H1192 0.959 . S
C1207 H1193 0.961 . S
C1207 C1206 1.502 . S
C1208 H1194 0.960 . S
C1208 H1195 0.961 . S
C1208 H1196 0.959 . S
C1208 C1206 1.561 . S
C1209 C1206 1.526 . S
C1209 C1210 1.396 . S
C1209 C1214 1.390 . S
C1210 C1204 1.465 . S
C1210 C1209 1.396 . S
C1210 C1211 1.399 . S
C1211 H1197 0.929 . S
C1211 C1210 1.399 . S
C1211 C1212 1.385 . S
C1212 H1198 0.931 . S
C1212 C1211 1.385 . S
C1212 C1213 1.389 . S
C1213 C1212 1.389 . S
C1213 C1214 1.387 . S
C1214 H1199 0.930 . S
C1214 C1209 1.390 . S
C1214 C1213 1.387 . S
H1215 C1227 0.930 . S
H1216 C1229 0.930 . S
H1217 C1230 0.930 . S
H1218 C1234 0.959 . S
H1219 C1234 0.959 . S
H1220 C1234 0.961 . S
H1221 C1235 0.960 . S
H1222 C1235 0.961 . S
H1223 C1235 0.959 . S
H1224 C1238 0.929 . S
H1225 C1239 0.931 . S
H1226 C1241 0.930 . S
C1227 H1215 0.930 . S
C1227 C1228 1.399 . S
C1227 C1232 1.399 . S
C1228 C1227 1.399 . S
C1228 C1229 1.376 . S
C1229 H1216 0.930 . S
C1229 C1228 1.376 . S
C1229 C1230 1.388 . S
C1230 H1217 0.930 . S
C1230 C1229 1.388 . S
C1230 C1231 1.390 . S
C1231 C1230 1.390 . S
C1231 C1232 1.394 . S
C1231 C1237 1.465 . S
C1232 C1227 1.399 . S
C1232 C1231 1.394 . S
C1232 C1233 1.516 . S
C1233 C1232 1.516 . S
C1233 C1234 1.502 . S
C1233 C1235 1.561 . S
C1233 C1236 1.526 . S
C1234 H1218 0.959 . S
C1234 H1219 0.959 . S
C1234 H1220 0.961 . S
C1234 C1233 1.502 . S
C1235 H1221 0.960 . S
C1235 H1222 0.961 . S
C1235 H1223 0.959 . S
C1235 C1233 1.561 . S
C1236 C1233 1.526 . S
C1236 C1237 1.396 . S
C1236 C1241 1.390 . S
C1237 C1231 1.465 . S
C1237 C1236 1.396 . S
C1237 C1238 1.399 . S
C1238 H1224 0.929 . S
C1238 C1237 1.399 . S
C1238 C1239 1.385 . S
C1239 H1225 0.931 . S
C1239 C1238 1.385 . S
C1239 C1240 1.389 . S
C1240 C1239 1.389 . S
C1240 C1241 1.387 . S
C1241 H1226 0.930 . S
C1241 C1236 1.390 . S
C1241 C1240 1.387 . S
H1242 C1254 0.930 . S
H1243 C1256 0.930 . S
H1244 C1257 0.930 . S
H1245 C1261 0.959 . S
H1246 C1261 0.959 . S
H1247 C1261 0.961 . S
H1248 C1262 0.960 . S
H1249 C1262 0.961 . S
H1250 C1262 0.959 . S
H1251 C1265 0.929 . S
H1252 C1266 0.931 . S
H1253 C1268 0.930 . S
C1254 H1242 0.930 . S
C1254 C1255 1.399 . S
C1254 C1259 1.399 . S
C1255 C1254 1.399 . S
C1255 C1256 1.376 . S
C1256 H1243 0.930 . S
C1256 C1255 1.376 . S
C1256 C1257 1.388 . S
C1257 H1244 0.930 . S
C1257 C1256 1.388 . S
C1257 C1258 1.390 . S
C1258 C1257 1.390 . S
C1258 C1259 1.394 . S
C1258 C1264 1.465 . S
C1259 C1254 1.399 . S
C1259 C1258 1.394 . S
C1259 C1260 1.516 . S
C1260 C1259 1.516 . S
C1260 C1261 1.502 . S
C1260 C1262 1.561 . S
C1260 C1263 1.526 . S
C1261 H1245 0.959 . S
C1261 H1246 0.959 . S
C1261 H1247 0.961 . S
C1261 C1260 1.502 . S
C1262 H1248 0.960 . S
C1262 H1249 0.961 . S
C1262 H1250 0.959 . S
C1262 C1260 1.561 . S
C1263 C1260 1.526 . S
C1263 C1264 1.396 . S
C1263 C1268 1.390 . S
C1264 C1258 1.465 . S
C1264 C1263 1.396 . S
C1264 C1265 1.399 . S
C1265 H1251 0.929 . S
C1265 C1264 1.399 . S
C1265 C1266 1.385 . S
C1266 H1252 0.931 . S
C1266 C1265 1.385 . S
C1266 C1267 1.389 . S
C1267 C1266 1.389 . S
C1267 C1268 1.387 . S
C1268 H1253 0.930 . S
C1268 C1263 1.390 . S
C1268 C1267 1.387 . S
H1269 C1281 0.930 . S
H1270 C1283 0.930 . S
H1271 C1284 0.930 . S
H1272 C1288 0.959 . S
H1273 C1288 0.959 . S
H1274 C1288 0.961 . S
H1275 C1289 0.960 . S
H1276 C1289 0.961 . S
H1277 C1289 0.959 . S
H1278 C1292 0.929 . S
H1279 C1293 0.931 . S
H1280 C1295 0.930 . S
C1281 H1269 0.930 . S
C1281 C1282 1.399 . S
C1281 C1286 1.399 . S
C1282 C1281 1.399 . S
C1282 C1283 1.376 . S
C1283 H1270 0.930 . S
C1283 C1282 1.376 . S
C1283 C1284 1.388 . S
C1284 H1271 0.930 . S
C1284 C1283 1.388 . S
C1284 C1285 1.390 . S
C1285 C1284 1.390 . S
C1285 C1286 1.394 . S
C1285 C1291 1.465 . S
C1286 C1281 1.399 . S
C1286 C1285 1.394 . S
C1286 C1287 1.516 . S
C1287 C1286 1.516 . S
C1287 C1288 1.502 . S
C1287 C1289 1.561 . S
C1287 C1290 1.526 . S
C1288 H1272 0.959 . S
C1288 H1273 0.959 . S
C1288 H1274 0.961 . S
C1288 C1287 1.502 . S
C1289 H1275 0.960 . S
C1289 H1276 0.961 . S
C1289 H1277 0.959 . S
C1289 C1287 1.561 . S
C1290 C1287 1.526 . S
C1290 C1291 1.396 . S
C1290 C1295 1.390 . S
C1291 C1285 1.465 . S
C1291 C1290 1.396 . S
C1291 C1292 1.399 . S
C1292 H1278 0.929 . S
C1292 C1291 1.399 . S
C1292 C1293 1.385 . S
C1293 H1279 0.931 . S
C1293 C1292 1.385 . S
C1293 C1294 1.389 . S
C1294 C1293 1.389 . S
C1294 C1295 1.387 . S
C1295 H1280 0.930 . S
C1295 C1290 1.390 . S
C1295 C1294 1.387 . S
H1296 C1308 0.930 . S
H1297 C1310 0.930 . S
H1298 C1311 0.930 . S
H1299 C1315 0.959 . S
H1300 C1315 0.959 . S
H1301 C1315 0.961 . S
H1302 C1316 0.960 . S
H1303 C1316 0.961 . S
H1304 C1316 0.959 . S
H1305 C1319 0.929 . S
H1306 C1320 0.931 . S
H1307 C1322 0.930 . S
C1308 H1296 0.930 . S
C1308 C1309 1.399 . S
C1308 C1313 1.399 . S
C1309 C1308 1.399 . S
C1309 C1310 1.376 . S
C1310 H1297 0.930 . S
C1310 C1309 1.376 . S
C1310 C1311 1.388 . S
C1311 H1298 0.930 . S
C1311 C1310 1.388 . S
C1311 C1312 1.390 . S
C1312 C1311 1.390 . S
C1312 C1313 1.394 . S
C1312 C1318 1.465 . S
C1313 C1308 1.399 . S
C1313 C1312 1.394 . S
C1313 C1314 1.516 . S
C1314 C1313 1.516 . S
C1314 C1315 1.502 . S
C1314 C1316 1.561 . S
C1314 C1317 1.526 . S
C1315 H1299 0.959 . S
C1315 H1300 0.959 . S
C1315 H1301 0.961 . S
C1315 C1314 1.502 . S
C1316 H1302 0.960 . S
C1316 H1303 0.961 . S
C1316 H1304 0.959 . S
C1316 C1314 1.561 . S
C1317 C1314 1.526 . S
C1317 C1318 1.396 . S
C1317 C1322 1.390 . S
C1318 C1312 1.465 . S
C1318 C1317 1.396 . S
C1318 C1319 1.399 . S
C1319 H1305 0.929 . S
C1319 C1318 1.399 . S
C1319 C1320 1.385 . S
C1320 H1306 0.931 . S
C1320 C1319 1.385 . S
C1320 C1321 1.389 . S
C1321 C1320 1.389 . S
C1321 C1322 1.387 . S
C1322 H1307 0.930 . S
C1322 C1317 1.390 . S
C1322 C1321 1.387 . S
H1323 C1335 0.930 . S
H1324 C1337 0.930 . S
H1325 C1338 0.930 . S
H1326 C1342 0.959 . S
H1327 C1342 0.959 . S
H1328 C1342 0.961 . S
H1329 C1343 0.960 . S
H1330 C1343 0.961 . S
H1331 C1343 0.959 . S
H1332 C1346 0.929 . S
H1333 C1347 0.931 . S
H1334 C1349 0.930 . S
C1335 H1323 0.930 . S
C1335 C1336 1.399 . S
C1335 C1340 1.399 . S
C1336 C1335 1.399 . S
C1336 C1337 1.376 . S
C1337 H1324 0.930 . S
C1337 C1336 1.376 . S
C1337 C1338 1.388 . S
C1338 H1325 0.930 . S
C1338 C1337 1.388 . S
C1338 C1339 1.390 . S
C1339 C1338 1.390 . S
C1339 C1340 1.394 . S
C1339 C1345 1.465 . S
C1340 C1335 1.399 . S
C1340 C1339 1.394 . S
C1340 C1341 1.516 . S
C1341 C1340 1.516 . S
C1341 C1342 1.502 . S
C1341 C1343 1.561 . S
C1341 C1344 1.526 . S
C1342 H1326 0.959 . S
C1342 H1327 0.959 . S
C1342 H1328 0.961 . S
C1342 C1341 1.502 . S
C1343 H1329 0.960 . S
C1343 H1330 0.961 . S
C1343 H1331 0.959 . S
C1343 C1341 1.561 . S
C1344 C1341 1.526 . S
C1344 C1345 1.396 . S
C1344 C1349 1.390 . S
C1345 C1339 1.465 . S
C1345 C1344 1.396 . S
C1345 C1346 1.399 . S
C1346 H1332 0.929 . S
C1346 C1345 1.399 . S
C1346 C1347 1.385 . S
C1347 H1333 0.931 . S
C1347 C1346 1.385 . S
C1347 C1348 1.389 . S
C1348 C1347 1.389 . S
C1348 C1349 1.387 . S
C1349 H1334 0.930 . S
C1349 C1344 1.390 . S
C1349 C1348 1.387 . S
H1350 C1362 0.930 . S
H1351 C1364 0.930 . S
H1352 C1365 0.930 . S
H1353 C1369 0.959 . S
H1354 C1369 0.959 . S
H1355 C1369 0.961 . S
H1356 C1370 0.960 . S
H1357 C1370 0.961 . S
H1358 C1370 0.959 . S
H1359 C1373 0.929 . S
H1360 C1374 0.931 . S
H1361 C1376 0.930 . S
C1362 H1350 0.930 . S
C1362 C1363 1.399 . S
C1362 C1367 1.399 . S
C1363 C1362 1.399 . S
C1363 C1364 1.376 . S
C1364 H1351 0.930 . S
C1364 C1363 1.376 . S
C1364 C1365 1.388 . S
C1365 H1352 0.930 . S
C1365 C1364 1.388 . S
C1365 C1366 1.390 . S
C1366 C1365 1.390 . S
C1366 C1367 1.394 . S
C1366 C1372 1.465 . S
C1367 C1362 1.399 . S
C1367 C1366 1.394 . S
C1367 C1368 1.516 . S
C1368 C1367 1.516 . S
C1368 C1369 1.502 . S
C1368 C1370 1.561 . S
C1368 C1371 1.526 . S
C1369 H1353 0.959 . S
C1369 H1354 0.959 . S
C1369 H1355 0.961 . S
C1369 C1368 1.502 . S
C1370 H1356 0.960 . S
C1370 H1357 0.961 . S
C1370 H1358 0.959 . S
C1370 C1368 1.561 . S
C1371 C1368 1.526 . S
C1371 C1372 1.396 . S
C1371 C1376 1.390 . S
C1372 C1366 1.465 . S
C1372 C1371 1.396 . S
C1372 C1373 1.399 . S
C1373 H1359 0.929 . S
C1373 C1372 1.399 . S
C1373 C1374 1.385 . S
C1374 H1360 0.931 . S
C1374 C1373 1.385 . S
C1374 C1375 1.389 . S
C1375 C1374 1.389 . S
C1375 C1376 1.387 . S
C1376 H1361 0.930 . S
C1376 C1371 1.390 . S
C1376 C1375 1.387 . S
H1377 C1389 0.930 . S
H1378 C1391 0.930 . S
H1379 C1392 0.930 . S
H1380 C1396 0.959 . S
H1381 C1396 0.959 . S
H1382 C1396 0.961 . S
H1383 C1397 0.960 . S
H1384 C1397 0.961 . S
H1385 C1397 0.959 . S
H1386 C1400 0.929 . S
H1387 C1401 0.931 . S
H1388 C1403 0.930 . S
C1389 H1377 0.930 . S
C1389 C1390 1.399 . S
C1389 C1394 1.399 . S
C1390 C1389 1.399 . S
C1390 C1391 1.376 . S
C1391 H1378 0.930 . S
C1391 C1390 1.376 . S
C1391 C1392 1.388 . S
C1392 H1379 0.930 . S
C1392 C1391 1.388 . S
C1392 C1393 1.390 . S
C1393 C1392 1.390 . S
C1393 C1394 1.394 . S
C1393 C1399 1.465 . S
C1394 C1389 1.399 . S
C1394 C1393 1.394 . S
C1394 C1395 1.516 . S
C1395 C1394 1.516 . S
C1395 C1396 1.502 . S
C1395 C1397 1.561 . S
C1395 C1398 1.526 . S
C1396 H1380 0.959 . S
C1396 H1381 0.959 . S
C1396 H1382 0.961 . S
C1396 C1395 1.502 . S
C1397 H1383 0.960 . S
C1397 H1384 0.961 . S
C1397 H1385 0.959 . S
C1397 C1395 1.561 . S
C1398 C1395 1.526 . S
C1398 C1399 1.396 . S
C1398 C1403 1.390 . S
C1399 C1393 1.465 . S
C1399 C1398 1.396 . S
C1399 C1400 1.399 . S
C1400 H1386 0.929 . S
C1400 C1399 1.399 . S
C1400 C1401 1.385 . S
C1401 H1387 0.931 . S
C1401 C1400 1.385 . S
C1401 C1402 1.389 . S
C1402 C1401 1.389 . S
C1402 C1403 1.387 . S
C1403 H1388 0.930 . S
C1403 C1398 1.390 . S
C1403 C1402 1.387 . S
H1404 C1416 0.930 . S
H1405 C1418 0.930 . S
H1406 C1419 0.930 . S
H1407 C1423 0.959 . S
H1408 C1423 0.959 . S
H1409 C1423 0.961 . S
H1410 C1424 0.960 . S
H1411 C1424 0.961 . S
H1412 C1424 0.959 . S
H1413 C1427 0.929 . S
H1414 C1428 0.931 . S
H1415 C1430 0.930 . S
C1416 H1404 0.930 . S
C1416 C1417 1.399 . S
C1416 C1421 1.399 . S
C1417 C1416 1.399 . S
C1417 C1418 1.376 . S
C1418 H1405 0.930 . S
C1418 C1417 1.376 . S
C1418 C1419 1.388 . S
C1419 H1406 0.930 . S
C1419 C1418 1.388 . S
C1419 C1420 1.390 . S
C1420 C1419 1.390 . S
C1420 C1421 1.394 . S
C1420 C1426 1.465 . S
C1421 C1416 1.399 . S
C1421 C1420 1.394 . S
C1421 C1422 1.516 . S
C1422 C1421 1.516 . S
C1422 C1423 1.502 . S
C1422 C1424 1.561 . S
C1422 C1425 1.526 . S
C1423 H1407 0.959 . S
C1423 H1408 0.959 . S
C1423 H1409 0.961 . S
C1423 C1422 1.502 . S
C1424 H1410 0.960 . S
C1424 H1411 0.961 . S
C1424 H1412 0.959 . S
C1424 C1422 1.561 . S
C1425 C1422 1.526 . S
C1425 C1426 1.396 . S
C1425 C1430 1.390 . S
C1426 C1420 1.465 . S
C1426 C1425 1.396 . S
C1426 C1427 1.399 . S
C1427 H1413 0.929 . S
C1427 C1426 1.399 . S
C1427 C1428 1.385 . S
C1428 H1414 0.931 . S
C1428 C1427 1.385 . S
C1428 C1429 1.389 . S
C1429 C1428 1.389 . S
C1429 C1430 1.387 . S
C1430 H1415 0.930 . S
C1430 C1425 1.390 . S
C1430 C1429 1.387 . S
H1431 C1443 0.930 . S
H1432 C1445 0.930 . S
H1433 C1446 0.930 . S
H1434 C1450 0.959 . S
H1435 C1450 0.959 . S
H1436 C1450 0.961 . S
H1437 C1451 0.960 . S
H1438 C1451 0.961 . S
H1439 C1451 0.959 . S
H1440 C1454 0.929 . S
H1441 C1455 0.931 . S
H1442 C1457 0.930 . S
C1443 H1431 0.930 . S
C1443 C1444 1.399 . S
C1443 C1448 1.399 . S
C1444 C1443 1.399 . S
C1444 C1445 1.376 . S
C1445 H1432 0.930 . S
C1445 C1444 1.376 . S
C1445 C1446 1.388 . S
C1446 H1433 0.930 . S
C1446 C1445 1.388 . S
C1446 C1447 1.390 . S
C1447 C1446 1.390 . S
C1447 C1448 1.394 . S
C1447 C1453 1.465 . S
C1448 C1443 1.399 . S
C1448 C1447 1.394 . S
C1448 C1449 1.516 . S
C1449 C1448 1.516 . S
C1449 C1450 1.502 . S
C1449 C1451 1.561 . S
C1449 C1452 1.526 . S
C1450 H1434 0.959 . S
C1450 H1435 0.959 . S
C1450 H1436 0.961 . S
C1450 C1449 1.502 . S
C1451 H1437 0.960 . S
C1451 H1438 0.961 . S
C1451 H1439 0.959 . S
C1451 C1449 1.561 . S
C1452 C1449 1.526 . S
C1452 C1453 1.396 . S
C1452 C1457 1.390 . S
C1453 C1447 1.465 . S
C1453 C1452 1.396 . S
C1453 C1454 1.399 . S
C1454 H1440 0.929 . S
C1454 C1453 1.399 . S
C1454 C1455 1.385 . S
C1455 H1441 0.931 . S
C1455 C1454 1.385 . S
C1455 C1456 1.389 . S
C1456 C1455 1.389 . S
C1456 C1457 1.387 . S
C1457 H1442 0.930 . S
C1457 C1452 1.390 . S
C1457 C1456 1.387 . S
H1458 C1470 0.930 . S
H1459 C1472 0.930 . S
H1460 C1473 0.930 . S
H1461 C1477 0.959 . S
H1462 C1477 0.959 . S
H1463 C1477 0.961 . S
H1464 C1478 0.960 . S
H1465 C1478 0.961 . S
H1466 C1478 0.959 . S
H1467 C1481 0.929 . S
H1468 C1482 0.931 . S
H1469 C1484 0.930 . S
C1470 H1458 0.930 . S
C1470 C1471 1.399 . S
C1470 C1475 1.399 . S
C1471 C1470 1.399 . S
C1471 C1472 1.376 . S
C1472 H1459 0.930 . S
C1472 C1471 1.376 . S
C1472 C1473 1.388 . S
C1473 H1460 0.930 . S
C1473 C1472 1.388 . S
C1473 C1474 1.390 . S
C1474 C1473 1.390 . S
C1474 C1475 1.394 . S
C1474 C1480 1.465 . S
C1475 C1470 1.399 . S
C1475 C1474 1.394 . S
C1475 C1476 1.516 . S
C1476 C1475 1.516 . S
C1476 C1477 1.502 . S
C1476 C1478 1.561 . S
C1476 C1479 1.526 . S
C1477 H1461 0.959 . S
C1477 H1462 0.959 . S
C1477 H1463 0.961 . S
C1477 C1476 1.502 . S
C1478 H1464 0.960 . S
C1478 H1465 0.961 . S
C1478 H1466 0.959 . S
C1478 C1476 1.561 . S
C1479 C1476 1.526 . S
C1479 C1480 1.396 . S
C1479 C1484 1.390 . S
C1480 C1474 1.465 . S
C1480 C1479 1.396 . S
C1480 C1481 1.399 . S
C1481 H1467 0.929 . S
C1481 C1480 1.399 . S
C1481 C1482 1.385 . S
C1482 H1468 0.931 . S
C1482 C1481 1.385 . S
C1482 C1483 1.389 . S
C1483 C1482 1.389 . S
C1483 C1484 1.387 . S
C1484 H1469 0.930 . S
C1484 C1479 1.390 . S
C1484 C1483 1.387 . S
H1485 C1497 0.930 . S
H1486 C1499 0.930 . S
H1487 C1500 0.930 . S
H1488 C1504 0.959 . S
H1489 C1504 0.959 . S
H1490 C1504 0.961 . S
H1491 C1505 0.960 . S
H1492 C1505 0.961 . S
H1493 C1505 0.959 . S
H1494 C1508 0.929 . S
H1495 C1509 0.931 . S
H1496 C1511 0.930 . S
C1497 H1485 0.930 . S
C1497 C1498 1.399 . S
C1497 C1502 1.399 . S
C1498 C1497 1.399 . S
C1498 C1499 1.376 . S
C1499 H1486 0.930 . S
C1499 C1498 1.376 . S
C1499 C1500 1.388 . S
C1500 H1487 0.930 . S
C1500 C1499 1.388 . S
C1500 C1501 1.390 . S
C1501 C1500 1.390 . S
C1501 C1502 1.394 . S
C1501 C1507 1.465 . S
C1502 C1497 1.399 . S
C1502 C1501 1.394 . S
C1502 C1503 1.516 . S
C1503 C1502 1.516 . S
C1503 C1504 1.502 . S
C1503 C1505 1.561 . S
C1503 C1506 1.526 . S
C1504 H1488 0.959 . S
C1504 H1489 0.959 . S
C1504 H1490 0.961 . S
C1504 C1503 1.502 . S
C1505 H1491 0.960 . S
C1505 H1492 0.961 . S
C1505 H1493 0.959 . S
C1505 C1503 1.561 . S
C1506 C1503 1.526 . S
C1506 C1507 1.396 . S
C1506 C1511 1.390 . S
C1507 C1501 1.465 . S
C1507 C1506 1.396 . S
C1507 C1508 1.399 . S
C1508 H1494 0.929 . S
C1508 C1507 1.399 . S
C1508 C1509 1.385 . S
C1509 H1495 0.931 . S
C1509 C1508 1.385 . S
C1509 C1510 1.389 . S
C1510 C1509 1.389 . S
C1510 C1511 1.387 . S
C1511 H1496 0.930 . S
C1511 C1506 1.390 . S
C1511 C1510 1.387 . S
H1512 C1524 0.930 . S
H1513 C1526 0.930 . S
H1514 C1527 0.930 . S
H1515 C1531 0.962 . S
H1516 C1531 0.980 . S
H1517 C1531 0.938 1_554 S
H1518 C1532 0.956 1_554 S
H1519 C1532 0.964 . S
H1520 C1532 0.959 . S
H1521 C1535 0.929 . S
H1522 C1536 0.931 . S
H1523 C1538 0.930 . S
C1524 H1512 0.930 . S
C1524 C1525 1.399 . S
C1524 C1529 1.399 . S
C1525 C1524 1.399 . S
C1525 C1526 1.376 . S
C1526 H1513 0.930 . S
C1526 C1525 1.376 . S
C1526 C1527 1.388 . S
C1527 H1514 0.930 . S
C1527 C1526 1.388 . S
C1527 C1528 1.390 . S
C1528 C1527 1.390 . S
C1528 C1529 1.394 . S
C1528 C1534 1.465 1_554 S
C1529 C1524 1.399 . S
C1529 C1528 1.394 . S
C1529 C1530 1.516 1_554 S
C1530 C1529 1.516 1_556 S
C1530 C1531 1.502 . S
C1530 C1532 1.561 . S
C1530 C1533 1.526 . S
C1531 H1515 0.962 . S
C1531 H1516 0.980 . S
C1531 H1517 0.938 1_556 S
C1531 C1530 1.502 . S
C1532 H1518 0.956 1_556 S
C1532 H1519 0.964 . S
C1532 H1520 0.959 . S
C1532 C1530 1.561 . S
C1533 C1530 1.526 . S
C1533 C1534 1.396 . S
C1533 C1538 1.390 . S
C1534 C1528 1.465 1_556 S
C1534 C1533 1.396 . S
C1534 C1535 1.399 . S
C1535 H1521 0.929 . S
C1535 C1534 1.399 . S
C1535 C1536 1.385 . S
C1536 H1522 0.931 . S
C1536 C1535 1.385 . S
C1536 C1537 1.389 . S
C1537 C1536 1.389 . S
C1537 C1538 1.387 . S
C1538 H1523 0.930 . S
C1538 C1533 1.390 . S
C1538 C1537 1.387 . S
H1539 C1551 0.930 . S
H1540 C1553 0.930 . S
H1541 C1554 0.930 . S
H1542 C1558 0.962 . S
H1543 C1558 0.980 . S
H1544 C1558 0.938 1_556 S
H1545 C1559 0.956 1_556 S
H1546 C1559 0.964 . S
H1547 C1559 0.959 . S
H1548 C1562 0.929 . S
H1549 C1563 0.931 . S
H1550 C1565 0.930 . S
C1551 H1539 0.930 . S
C1551 C1552 1.399 . S
C1551 C1556 1.399 . S
C1552 C1551 1.399 . S
C1552 C1553 1.376 . S
C1553 H1540 0.930 . S
C1553 C1552 1.376 . S
C1553 C1554 1.388 . S
C1554 H1541 0.930 . S
C1554 C1553 1.388 . S
C1554 C1555 1.390 . S
C1555 C1554 1.390 . S
C1555 C1556 1.394 . S
C1555 C1561 1.465 1_556 S
C1556 C1551 1.399 . S
C1556 C1555 1.394 . S
C1556 C1557 1.516 1_556 S
C1557 C1556 1.516 1_554 S
C1557 C1558 1.502 . S
C1557 C1559 1.561 . S
C1557 C1560 1.526 . S
C1558 H1542 0.962 . S
C1558 H1543 0.980 . S
C1558 H1544 0.938 1_554 S
C1558 C1557 1.502 . S
C1559 H1545 0.956 1_554 S
C1559 H1546 0.964 . S
C1559 H1547 0.959 . S
C1559 C1557 1.561 . S
C1560 C1557 1.526 . S
C1560 C1561 1.396 . S
C1560 C1565 1.390 . S
C1561 C1555 1.465 1_554 S
C1561 C1560 1.396 . S
C1561 C1562 1.399 . S
C1562 H1548 0.929 . S
C1562 C1561 1.399 . S
C1562 C1563 1.385 . S
C1563 H1549 0.931 . S
C1563 C1562 1.385 . S
C1563 C1564 1.389 . S
C1564 C1563 1.389 . S
C1564 C1565 1.387 . S
C1565 H1550 0.930 . S
C1565 C1560 1.390 . S
C1565 C1564 1.387 . S
H1566 C1578 0.930 . S
H1567 C1580 0.930 . S
H1568 C1581 0.930 . S
H1569 C1585 0.962 . S
H1570 C1585 0.980 . S
H1571 C1585 0.938 1_556 S
H1572 C1586 0.956 1_556 S
H1573 C1586 0.964 . S
H1574 C1586 0.959 . S
H1575 C1589 0.929 . S
H1576 C1590 0.931 . S
H1577 C1592 0.930 . S
C1578 H1566 0.930 . S
C1578 C1579 1.399 . S
C1578 C1583 1.399 . S
C1579 C1578 1.399 . S
C1579 C1580 1.376 . S
C1580 H1567 0.930 . S
C1580 C1579 1.376 . S
C1580 C1581 1.388 . S
C1581 H1568 0.930 . S
C1581 C1580 1.388 . S
C1581 C1582 1.390 . S
C1582 C1581 1.390 . S
C1582 C1583 1.394 . S
C1582 C1588 1.465 1_556 S
C1583 C1578 1.399 . S
C1583 C1582 1.394 . S
C1583 C1584 1.516 1_556 S
C1584 C1583 1.516 1_554 S
C1584 C1585 1.502 . S
C1584 C1586 1.561 . S
C1584 C1587 1.526 . S
C1585 H1569 0.962 . S
C1585 H1570 0.980 . S
C1585 H1571 0.938 1_554 S
C1585 C1584 1.502 . S
C1586 H1572 0.956 1_554 S
C1586 H1573 0.964 . S
C1586 H1574 0.959 . S
C1586 C1584 1.561 . S
C1587 C1584 1.526 . S
C1587 C1588 1.396 . S
C1587 C1592 1.390 . S
C1588 C1582 1.465 1_554 S
C1588 C1587 1.396 . S
C1588 C1589 1.399 . S
C1589 H1575 0.929 . S
C1589 C1588 1.399 . S
C1589 C1590 1.385 . S
C1590 H1576 0.931 . S
C1590 C1589 1.385 . S
C1590 C1591 1.389 . S
C1591 C1590 1.389 . S
C1591 C1592 1.387 . S
C1592 H1577 0.930 . S
C1592 C1587 1.390 . S
C1592 C1591 1.387 . S
H1593 C1605 0.930 . S
H1594 C1607 0.930 . S
H1595 C1608 0.930 . S
H1596 C1612 0.962 . S
H1597 C1612 0.980 . S
H1598 C1612 0.938 1_554 S
H1599 C1613 0.956 1_554 S
H1600 C1613 0.964 . S
H1601 C1613 0.959 . S
H1602 C1616 0.929 . S
H1603 C1617 0.931 . S
H1604 C1619 0.930 . S
C1605 H1593 0.930 . S
C1605 C1606 1.399 . S
C1605 C1610 1.399 . S
C1606 C1605 1.399 . S
C1606 C1607 1.376 . S
C1607 H1594 0.930 . S
C1607 C1606 1.376 . S
C1607 C1608 1.388 . S
C1608 H1595 0.930 . S
C1608 C1607 1.388 . S
C1608 C1609 1.390 . S
C1609 C1608 1.390 . S
C1609 C1610 1.394 . S
C1609 C1615 1.465 1_554 S
C1610 C1605 1.399 . S
C1610 C1609 1.394 . S
C1610 C1611 1.516 1_554 S
C1611 C1610 1.516 1_556 S
C1611 C1612 1.502 . S
C1611 C1613 1.561 . S
C1611 C1614 1.526 . S
C1612 H1596 0.962 . S
C1612 H1597 0.980 . S
C1612 H1598 0.938 1_556 S
C1612 C1611 1.502 . S
C1613 H1599 0.956 1_556 S
C1613 H1600 0.964 . S
C1613 H1601 0.959 . S
C1613 C1611 1.561 . S
C1614 C1611 1.526 . S
C1614 C1615 1.396 . S
C1614 C1619 1.390 . S
C1615 C1609 1.465 1_556 S
C1615 C1614 1.396 . S
C1615 C1616 1.399 . S
C1616 H1602 0.929 . S
C1616 C1615 1.399 . S
C1616 C1617 1.385 . S
C1617 H1603 0.931 . S
C1617 C1616 1.385 . S
C1617 C1618 1.389 . S
C1618 C1617 1.389 . S
C1618 C1619 1.387 . S
C1619 H1604 0.930 . S
C1619 C1614 1.390 . S
C1619 C1618 1.387 . S
H1620 C1632 0.930 . S
H1621 C1634 0.930 . S
H1622 C1635 0.930 . S
H1623 C1639 0.962 . S
H1624 C1639 0.980 . S
H1625 C1639 0.938 1_554 S
H1626 C1640 0.956 1_554 S
H1627 C1640 0.964 . S
H1628 C1640 0.959 . S
H1629 C1643 0.929 . S
H1630 C1644 0.931 . S
H1631 C1646 0.930 . S
C1632 H1620 0.930 . S
C1632 C1633 1.399 . S
C1632 C1637 1.399 . S
C1633 C1632 1.399 . S
C1633 C1634 1.376 . S
C1634 H1621 0.930 . S
C1634 C1633 1.376 . S
C1634 C1635 1.388 . S
C1635 H1622 0.930 . S
C1635 C1634 1.388 . S
C1635 C1636 1.390 . S
C1636 C1635 1.390 . S
C1636 C1637 1.394 . S
C1636 C1642 1.465 1_554 S
C1637 C1632 1.399 . S
C1637 C1636 1.394 . S
C1637 C1638 1.516 1_554 S
C1638 C1637 1.516 1_556 S
C1638 C1639 1.502 . S
C1638 C1640 1.561 . S
C1638 C1641 1.526 . S
C1639 H1623 0.962 . S
C1639 H1624 0.980 . S
C1639 H1625 0.938 1_556 S
C1639 C1638 1.502 . S
C1640 H1626 0.956 1_556 S
C1640 H1627 0.964 . S
C1640 H1628 0.959 . S
C1640 C1638 1.561 . S
C1641 C1638 1.526 . S
C1641 C1642 1.396 . S
C1641 C1646 1.390 . S
C1642 C1636 1.465 1_556 S
C1642 C1641 1.396 . S
C1642 C1643 1.399 . S
C1643 H1629 0.929 . S
C1643 C1642 1.399 . S
C1643 C1644 1.385 . S
C1644 H1630 0.931 . S
C1644 C1643 1.385 . S
C1644 C1645 1.389 . S
C1645 C1644 1.389 . S
C1645 C1646 1.387 . S
C1646 H1631 0.930 . S
C1646 C1641 1.390 . S
C1646 C1645 1.387 . S
H1647 C1659 0.930 . S
H1648 C1661 0.930 . S
H1649 C1662 0.930 . S
H1650 C1666 0.962 . S
H1651 C1666 0.980 . S
H1652 C1666 0.938 1_556 S
H1653 C1667 0.956 1_556 S
H1654 C1667 0.964 . S
H1655 C1667 0.959 . S
H1656 C1670 0.929 . S
H1657 C1671 0.931 . S
H1658 C1673 0.930 . S
C1659 H1647 0.930 . S
C1659 C1660 1.399 . S
C1659 C1664 1.399 . S
C1660 C1659 1.399 . S
C1660 C1661 1.376 . S
C1661 H1648 0.930 . S
C1661 C1660 1.376 . S
C1661 C1662 1.388 . S
C1662 H1649 0.930 . S
C1662 C1661 1.388 . S
C1662 C1663 1.390 . S
C1663 C1662 1.390 . S
C1663 C1664 1.394 . S
C1663 C1669 1.465 1_556 S
C1664 C1659 1.399 . S
C1664 C1663 1.394 . S
C1664 C1665 1.516 1_556 S
C1665 C1664 1.516 1_554 S
C1665 C1666 1.502 . S
C1665 C1667 1.561 . S
C1665 C1668 1.526 . S
C1666 H1650 0.962 . S
C1666 H1651 0.980 . S
C1666 H1652 0.938 1_554 S
C1666 C1665 1.502 . S
C1667 H1653 0.956 1_554 S
C1667 H1654 0.964 . S
C1667 H1655 0.959 . S
C1667 C1665 1.561 . S
C1668 C1665 1.526 . S
C1668 C1669 1.396 . S
C1668 C1673 1.390 . S
C1669 C1663 1.465 1_554 S
C1669 C1668 1.396 . S
C1669 C1670 1.399 . S
C1670 H1656 0.929 . S
C1670 C1669 1.399 . S
C1670 C1671 1.385 . S
C1671 H1657 0.931 . S
C1671 C1670 1.385 . S
C1671 C1672 1.389 . S
C1672 C1671 1.389 . S
C1672 C1673 1.387 . S
C1673 H1658 0.930 . S
C1673 C1668 1.390 . S
C1673 C1672 1.387 . S
H1674 C1686 0.930 . S
H1675 C1688 0.930 . S
H1676 C1689 0.930 . S
H1677 C1693 0.959 . S
H1678 C1693 0.959 . S
H1679 C1693 0.961 . S
H1680 C1694 0.960 . S
H1681 C1694 0.961 . S
H1682 C1694 0.959 . S
H1683 C1697 0.929 . S
H1684 C1698 0.931 . S
H1685 C1700 0.930 . S
C1686 H1674 0.930 . S
C1686 C1687 1.399 . S
C1686 C1691 1.399 . S
C1687 C1686 1.399 . S
C1687 C1688 1.376 . S
C1688 H1675 0.930 . S
C1688 C1687 1.376 . S
C1688 C1689 1.388 . S
C1689 H1676 0.930 . S
C1689 C1688 1.388 . S
C1689 C1690 1.390 . S
C1690 C1689 1.390 . S
C1690 C1691 1.394 . S
C1690 C1696 1.465 . S
C1691 C1686 1.399 . S
C1691 C1690 1.394 . S
C1691 C1692 1.516 . S
C1692 C1691 1.516 . S
C1692 C1693 1.502 . S
C1692 C1694 1.561 . S
C1692 C1695 1.526 . S
C1693 H1677 0.959 . S
C1693 H1678 0.959 . S
C1693 H1679 0.961 . S
C1693 C1692 1.502 . S
C1694 H1680 0.960 . S
C1694 H1681 0.961 . S
C1694 H1682 0.959 . S
C1694 C1692 1.561 . S
C1695 C1692 1.526 . S
C1695 C1696 1.396 . S
C1695 C1700 1.390 . S
C1696 C1690 1.465 . S
C1696 C1695 1.396 . S
C1696 C1697 1.399 . S
C1697 H1683 0.929 . S
C1697 C1696 1.399 . S
C1697 C1698 1.385 . S
C1698 H1684 0.931 . S
C1698 C1697 1.385 . S
C1698 C1699 1.389 . S
C1699 C1698 1.389 . S
C1699 C1700 1.387 . S
C1700 H1685 0.930 . S
C1700 C1695 1.390 . S
C1700 C1699 1.387 . S
H1701 C1713 0.930 . S
H1702 C1715 0.930 . S
H1703 C1716 0.930 . S
H1704 C1720 0.959 . S
H1705 C1720 0.959 . S
H1706 C1720 0.961 . S
H1707 C1721 0.960 . S
H1708 C1721 0.961 . S
H1709 C1721 0.959 . S
H1710 C1724 0.929 . S
H1711 C1725 0.931 . S
H1712 C1727 0.930 . S
C1713 H1701 0.930 . S
C1713 C1714 1.399 . S
C1713 C1718 1.399 . S
C1714 C1713 1.399 . S
C1714 C1715 1.376 . S
C1715 H1702 0.930 . S
C1715 C1714 1.376 . S
C1715 C1716 1.388 . S
C1716 H1703 0.930 . S
C1716 C1715 1.388 . S
C1716 C1717 1.390 . S
C1717 C1716 1.390 . S
C1717 C1718 1.394 . S
C1717 C1723 1.465 . S
C1718 C1713 1.399 . S
C1718 C1717 1.394 . S
C1718 C1719 1.516 . S
C1719 C1718 1.516 . S
C1719 C1720 1.502 . S
C1719 C1721 1.561 . S
C1719 C1722 1.526 . S
C1720 H1704 0.959 . S
C1720 H1705 0.959 . S
C1720 H1706 0.961 . S
C1720 C1719 1.502 . S
C1721 H1707 0.960 . S
C1721 H1708 0.961 . S
C1721 H1709 0.959 . S
C1721 C1719 1.561 . S
C1722 C1719 1.526 . S
C1722 C1723 1.396 . S
C1722 C1727 1.390 . S
C1723 C1717 1.465 . S
C1723 C1722 1.396 . S
C1723 C1724 1.399 . S
C1724 H1710 0.929 . S
C1724 C1723 1.399 . S
C1724 C1725 1.385 . S
C1725 H1711 0.931 . S
C1725 C1724 1.385 . S
C1725 C1726 1.389 . S
C1726 C1725 1.389 . S
C1726 C1727 1.387 . S
C1727 H1712 0.930 . S
C1727 C1722 1.390 . S
C1727 C1726 1.387 . S
H1728 C1740 0.930 . S
H1729 C1742 0.930 . S
H1730 C1743 0.930 . S
H1731 C1747 0.959 . S
H1732 C1747 0.959 . S
H1733 C1747 0.961 . S
H1734 C1748 0.960 . S
H1735 C1748 0.961 . S
H1736 C1748 0.959 . S
H1737 C1751 0.929 . S
H1738 C1752 0.931 . S
H1739 C1754 0.930 . S
C1740 H1728 0.930 . S
C1740 C1741 1.399 . S
C1740 C1745 1.399 . S
C1741 C1740 1.399 . S
C1741 C1742 1.376 . S
C1742 H1729 0.930 . S
C1742 C1741 1.376 . S
C1742 C1743 1.388 . S
C1743 H1730 0.930 . S
C1743 C1742 1.388 . S
C1743 C1744 1.390 . S
C1744 C1743 1.390 . S
C1744 C1745 1.394 . S
C1744 C1750 1.465 . S
C1745 C1740 1.399 . S
C1745 C1744 1.394 . S
C1745 C1746 1.516 . S
C1746 C1745 1.516 . S
C1746 C1747 1.502 . S
C1746 C1748 1.561 . S
C1746 C1749 1.526 . S
C1747 H1731 0.959 . S
C1747 H1732 0.959 . S
C1747 H1733 0.961 . S
C1747 C1746 1.502 . S
C1748 H1734 0.960 . S
C1748 H1735 0.961 . S
C1748 H1736 0.959 . S
C1748 C1746 1.561 . S
C1749 C1746 1.526 . S
C1749 C1750 1.396 . S
C1749 C1754 1.390 . S
C1750 C1744 1.465 . S
C1750 C1749 1.396 . S
C1750 C1751 1.399 . S
C1751 H1737 0.929 . S
C1751 C1750 1.399 . S
C1751 C1752 1.385 . S
C1752 H1738 0.931 . S
C1752 C1751 1.385 . S
C1752 C1753 1.389 . S
C1753 C1752 1.389 . S
C1753 C1754 1.387 . S
C1754 H1739 0.930 . S
C1754 C1749 1.390 . S
C1754 C1753 1.387 . S
H1755 C1767 0.930 . S
H1756 C1769 0.930 . S
H1757 C1770 0.930 . S
H1758 C1774 0.959 . S
H1759 C1774 0.959 . S
H1760 C1774 0.961 . S
H1761 C1775 0.960 . S
H1762 C1775 0.961 . S
H1763 C1775 0.959 . S
H1764 C1778 0.929 . S
H1765 C1779 0.931 . S
H1766 C1781 0.930 . S
C1767 H1755 0.930 . S
C1767 C1768 1.399 . S
C1767 C1772 1.399 . S
C1768 C1767 1.399 . S
C1768 C1769 1.376 . S
C1769 H1756 0.930 . S
C1769 C1768 1.376 . S
C1769 C1770 1.388 . S
C1770 H1757 0.930 . S
C1770 C1769 1.388 . S
C1770 C1771 1.390 . S
C1771 C1770 1.390 . S
C1771 C1772 1.394 . S
C1771 C1777 1.465 . S
C1772 C1767 1.399 . S
C1772 C1771 1.394 . S
C1772 C1773 1.516 . S
C1773 C1772 1.516 . S
C1773 C1774 1.502 . S
C1773 C1775 1.561 . S
C1773 C1776 1.526 . S
C1774 H1758 0.959 . S
C1774 H1759 0.959 . S
C1774 H1760 0.961 . S
C1774 C1773 1.502 . S
C1775 H1761 0.960 . S
C1775 H1762 0.961 . S
C1775 H1763 0.959 . S
C1775 C1773 1.561 . S
C1776 C1773 1.526 . S
C1776 C1777 1.396 . S
C1776 C1781 1.390 . S
C1777 C1771 1.465 . S
C1777 C1776 1.396 . S
C1777 C1778 1.399 . S
C1778 H1764 0.929 . S
C1778 C1777 1.399 . S
C1778 C1779 1.385 . S
C1779 H1765 0.931 . S
C1779 C1778 1.385 . S
C1779 C1780 1.389 . S
C1780 C1779 1.389 . S
C1780 C1781 1.387 . S
C1781 H1766 0.930 . S
C1781 C1776 1.390 . S
C1781 C1780 1.387 . S
H1782 C1794 0.930 . S
H1783 C1796 0.930 . S
H1784 C1797 0.930 . S
H1785 C1801 0.959 . S
H1786 C1801 0.959 . S
H1787 C1801 0.961 . S
H1788 C1802 0.960 . S
H1789 C1802 0.961 . S
H1790 C1802 0.959 . S
H1791 C1805 0.929 . S
H1792 C1806 0.931 . S
H1793 C1808 0.930 . S
C1794 H1782 0.930 . S
C1794 C1795 1.399 . S
C1794 C1799 1.399 . S
C1795 C1794 1.399 . S
C1795 C1796 1.376 . S
C1796 H1783 0.930 . S
C1796 C1795 1.376 . S
C1796 C1797 1.388 . S
C1797 H1784 0.930 . S
C1797 C1796 1.388 . S
C1797 C1798 1.390 . S
C1798 C1797 1.390 . S
C1798 C1799 1.394 . S
C1798 C1804 1.465 . S
C1799 C1794 1.399 . S
C1799 C1798 1.394 . S
C1799 C1800 1.516 . S
C1800 C1799 1.516 . S
C1800 C1801 1.502 . S
C1800 C1802 1.561 . S
C1800 C1803 1.526 . S
C1801 H1785 0.959 . S
C1801 H1786 0.959 . S
C1801 H1787 0.961 . S
C1801 C1800 1.502 . S
C1802 H1788 0.960 . S
C1802 H1789 0.961 . S
C1802 H1790 0.959 . S
C1802 C1800 1.561 . S
C1803 C1800 1.526 . S
C1803 C1804 1.396 . S
C1803 C1808 1.390 . S
C1804 C1798 1.465 . S
C1804 C1803 1.396 . S
C1804 C1805 1.399 . S
C1805 H1791 0.929 . S
C1805 C1804 1.399 . S
C1805 C1806 1.385 . S
C1806 H1792 0.931 . S
C1806 C1805 1.385 . S
C1806 C1807 1.389 . S
C1807 C1806 1.389 . S
C1807 C1808 1.387 . S
C1808 H1793 0.930 . S
C1808 C1803 1.390 . S
C1808 C1807 1.387 . S
H1809 C1821 0.930 . S
H1810 C1823 0.930 . S
H1811 C1824 0.930 . S
H1812 C1828 0.959 . S
H1813 C1828 0.959 . S
H1814 C1828 0.961 . S
H1815 C1829 0.960 . S
H1816 C1829 0.961 . S
H1817 C1829 0.959 . S
H1818 C1832 0.929 . S
H1819 C1833 0.931 . S
H1820 C1835 0.930 . S
C1821 H1809 0.930 . S
C1821 C1822 1.399 . S
C1821 C1826 1.399 . S
C1822 C1821 1.399 . S
C1822 C1823 1.376 . S
C1823 H1810 0.930 . S
C1823 C1822 1.376 . S
C1823 C1824 1.388 . S
C1824 H1811 0.930 . S
C1824 C1823 1.388 . S
C1824 C1825 1.390 . S
C1825 C1824 1.390 . S
C1825 C1826 1.394 . S
C1825 C1831 1.465 . S
C1826 C1821 1.399 . S
C1826 C1825 1.394 . S
C1826 C1827 1.516 . S
C1827 C1826 1.516 . S
C1827 C1828 1.502 . S
C1827 C1829 1.561 . S
C1827 C1830 1.526 . S
C1828 H1812 0.959 . S
C1828 H1813 0.959 . S
C1828 H1814 0.961 . S
C1828 C1827 1.502 . S
C1829 H1815 0.960 . S
C1829 H1816 0.961 . S
C1829 H1817 0.959 . S
C1829 C1827 1.561 . S
C1830 C1827 1.526 . S
C1830 C1831 1.396 . S
C1830 C1835 1.390 . S
C1831 C1825 1.465 . S
C1831 C1830 1.396 . S
C1831 C1832 1.399 . S
C1832 H1818 0.929 . S
C1832 C1831 1.399 . S
C1832 C1833 1.385 . S
C1833 H1819 0.931 . S
C1833 C1832 1.385 . S
C1833 C1834 1.389 . S
C1834 C1833 1.389 . S
C1834 C1835 1.387 . S
C1835 H1820 0.930 . S
C1835 C1830 1.390 . S
C1835 C1834 1.387 . S
H1836 C1848 0.930 . S
H1837 C1850 0.930 . S
H1838 C1851 0.930 . S
H1839 C1855 0.959 . S
H1840 C1855 0.959 . S
H1841 C1855 0.961 . S
H1842 C1856 0.960 . S
H1843 C1856 0.961 . S
H1844 C1856 0.959 . S
H1845 C1859 0.929 . S
H1846 C1860 0.931 . S
H1847 C1862 0.930 . S
C1848 H1836 0.930 . S
C1848 C1849 1.399 . S
C1848 C1853 1.399 . S
C1849 C1848 1.399 . S
C1849 C1850 1.376 . S
C1850 H1837 0.930 . S
C1850 C1849 1.376 . S
C1850 C1851 1.388 . S
C1851 H1838 0.930 . S
C1851 C1850 1.388 . S
C1851 C1852 1.390 . S
C1852 C1851 1.390 . S
C1852 C1853 1.394 . S
C1852 C1858 1.465 . S
C1853 C1848 1.399 . S
C1853 C1852 1.394 . S
C1853 C1854 1.516 . S
C1854 C1853 1.516 . S
C1854 C1855 1.502 . S
C1854 C1856 1.561 . S
C1854 C1857 1.526 . S
C1855 H1839 0.959 . S
C1855 H1840 0.959 . S
C1855 H1841 0.961 . S
C1855 C1854 1.502 . S
C1856 H1842 0.960 . S
C1856 H1843 0.961 . S
C1856 H1844 0.959 . S
C1856 C1854 1.561 . S
C1857 C1854 1.526 . S
C1857 C1858 1.396 . S
C1857 C1862 1.390 . S
C1858 C1852 1.465 . S
C1858 C1857 1.396 . S
C1858 C1859 1.399 . S
C1859 H1845 0.929 . S
C1859 C1858 1.399 . S
C1859 C1860 1.385 . S
C1860 H1846 0.931 . S
C1860 C1859 1.385 . S
C1860 C1861 1.389 . S
C1861 C1860 1.389 . S
C1861 C1862 1.387 . S
C1862 H1847 0.930 . S
C1862 C1857 1.390 . S
C1862 C1861 1.387 . S
H1863 C1875 0.930 . S
H1864 C1877 0.930 . S
H1865 C1878 0.930 . S
H1866 C1882 0.959 . S
H1867 C1882 0.959 . S
H1868 C1882 0.961 . S
H1869 C1883 0.960 . S
H1870 C1883 0.961 . S
H1871 C1883 0.959 . S
H1872 C1886 0.929 . S
H1873 C1887 0.931 . S
H1874 C1889 0.930 . S
C1875 H1863 0.930 . S
C1875 C1876 1.399 . S
C1875 C1880 1.399 . S
C1876 C1875 1.399 . S
C1876 C1877 1.376 . S
C1877 H1864 0.930 . S
C1877 C1876 1.376 . S
C1877 C1878 1.388 . S
C1878 H1865 0.930 . S
C1878 C1877 1.388 . S
C1878 C1879 1.390 . S
C1879 C1878 1.390 . S
C1879 C1880 1.394 . S
C1879 C1885 1.465 . S
C1880 C1875 1.399 . S
C1880 C1879 1.394 . S
C1880 C1881 1.516 . S
C1881 C1880 1.516 . S
C1881 C1882 1.502 . S
C1881 C1883 1.561 . S
C1881 C1884 1.526 . S
C1882 H1866 0.959 . S
C1882 H1867 0.959 . S
C1882 H1868 0.961 . S
C1882 C1881 1.502 . S
C1883 H1869 0.960 . S
C1883 H1870 0.961 . S
C1883 H1871 0.959 . S
C1883 C1881 1.561 . S
C1884 C1881 1.526 . S
C1884 C1885 1.396 . S
C1884 C1889 1.390 . S
C1885 C1879 1.465 . S
C1885 C1884 1.396 . S
C1885 C1886 1.399 . S
C1886 H1872 0.929 . S
C1886 C1885 1.399 . S
C1886 C1887 1.385 . S
C1887 H1873 0.931 . S
C1887 C1886 1.385 . S
C1887 C1888 1.389 . S
C1888 C1887 1.389 . S
C1888 C1889 1.387 . S
C1889 H1874 0.930 . S
C1889 C1884 1.390 . S
C1889 C1888 1.387 . S
H1890 C1902 0.930 . S
H1891 C1904 0.930 . S
H1892 C1905 0.930 . S
H1893 C1909 0.959 . S
H1894 C1909 0.959 . S
H1895 C1909 0.961 . S
H1896 C1910 0.960 . S
H1897 C1910 0.961 . S
H1898 C1910 0.959 . S
H1899 C1913 0.929 . S
H1900 C1914 0.931 . S
H1901 C1916 0.930 . S
C1902 H1890 0.930 . S
C1902 C1903 1.399 . S
C1902 C1907 1.399 . S
C1903 C1902 1.399 . S
C1903 C1904 1.376 . S
C1904 H1891 0.930 . S
C1904 C1903 1.376 . S
C1904 C1905 1.388 . S
C1905 H1892 0.930 . S
C1905 C1904 1.388 . S
C1905 C1906 1.390 . S
C1906 C1905 1.390 . S
C1906 C1907 1.394 . S
C1906 C1912 1.465 . S
C1907 C1902 1.399 . S
C1907 C1906 1.394 . S
C1907 C1908 1.516 . S
C1908 C1907 1.516 . S
C1908 C1909 1.502 . S
C1908 C1910 1.561 . S
C1908 C1911 1.526 . S
C1909 H1893 0.959 . S
C1909 H1894 0.959 . S
C1909 H1895 0.961 . S
C1909 C1908 1.502 . S
C1910 H1896 0.960 . S
C1910 H1897 0.961 . S
C1910 H1898 0.959 . S
C1910 C1908 1.561 . S
C1911 C1908 1.526 . S
C1911 C1912 1.396 . S
C1911 C1916 1.390 . S
C1912 C1906 1.465 . S
C1912 C1911 1.396 . S
C1912 C1913 1.399 . S
C1913 H1899 0.929 . S
C1913 C1912 1.399 . S
C1913 C1914 1.385 . S
C1914 H1900 0.931 . S
C1914 C1913 1.385 . S
C1914 C1915 1.389 . S
C1915 C1914 1.389 . S
C1915 C1916 1.387 . S
C1916 H1901 0.930 . S
C1916 C1911 1.390 . S
C1916 C1915 1.387 . S
H1917 C1929 0.930 . S
H1918 C1931 0.930 . S
H1919 C1932 0.930 . S
H1920 C1936 0.959 . S
H1921 C1936 0.959 . S
H1922 C1936 0.961 . S
H1923 C1937 0.960 . S
H1924 C1937 0.961 . S
H1925 C1937 0.959 . S
H1926 C1940 0.929 . S
H1927 C1941 0.931 . S
H1928 C1943 0.930 . S
C1929 H1917 0.930 . S
C1929 C1930 1.399 . S
C1929 C1934 1.399 . S
C1930 C1929 1.399 . S
C1930 C1931 1.376 . S
C1931 H1918 0.930 . S
C1931 C1930 1.376 . S
C1931 C1932 1.388 . S
C1932 H1919 0.930 . S
C1932 C1931 1.388 . S
C1932 C1933 1.390 . S
C1933 C1932 1.390 . S
C1933 C1934 1.394 . S
C1933 C1939 1.465 . S
C1934 C1929 1.399 . S
C1934 C1933 1.394 . S
C1934 C1935 1.516 . S
C1935 C1934 1.516 . S
C1935 C1936 1.502 . S
C1935 C1937 1.561 . S
C1935 C1938 1.526 . S
C1936 H1920 0.959 . S
C1936 H1921 0.959 . S
C1936 H1922 0.961 . S
C1936 C1935 1.502 . S
C1937 H1923 0.960 . S
C1937 H1924 0.961 . S
C1937 H1925 0.959 . S
C1937 C1935 1.561 . S
C1938 C1935 1.526 . S
C1938 C1939 1.396 . S
C1938 C1943 1.390 . S
C1939 C1933 1.465 . S
C1939 C1938 1.396 . S
C1939 C1940 1.399 . S
C1940 H1926 0.929 . S
C1940 C1939 1.399 . S
C1940 C1941 1.385 . S
C1941 H1927 0.931 . S
C1941 C1940 1.385 . S
C1941 C1942 1.389 . S
C1942 C1941 1.389 . S
C1942 C1943 1.387 . S
C1943 H1928 0.930 . S
C1943 C1938 1.390 . S
C1943 C1942 1.387 . S
H1944 C1956 0.930 . S
H1945 C1958 0.930 . S
H1946 C1959 0.930 . S
H1947 C1963 0.959 . S
H1948 C1963 0.959 . S
H1949 C1963 0.961 . S
H1950 C1964 0.960 . S
H1951 C1964 0.961 . S
H1952 C1964 0.959 . S
H1953 C1967 0.929 . S
H1954 C1968 0.931 . S
H1955 C1970 0.930 . S
C1956 H1944 0.930 . S
C1956 C1957 1.399 . S
C1956 C1961 1.399 . S
C1957 C1956 1.399 . S
C1957 C1958 1.376 . S
C1958 H1945 0.930 . S
C1958 C1957 1.376 . S
C1958 C1959 1.388 . S
C1959 H1946 0.930 . S
C1959 C1958 1.388 . S
C1959 C1960 1.390 . S
C1960 C1959 1.390 . S
C1960 C1961 1.394 . S
C1960 C1966 1.465 . S
C1961 C1956 1.399 . S
C1961 C1960 1.394 . S
C1961 C1962 1.516 . S
C1962 C1961 1.516 . S
C1962 C1963 1.502 . S
C1962 C1964 1.561 . S
C1962 C1965 1.526 . S
C1963 H1947 0.959 . S
C1963 H1948 0.959 . S
C1963 H1949 0.961 . S
C1963 C1962 1.502 . S
C1964 H1950 0.960 . S
C1964 H1951 0.961 . S
C1964 H1952 0.959 . S
C1964 C1962 1.561 . S
C1965 C1962 1.526 . S
C1965 C1966 1.396 . S
C1965 C1970 1.390 . S
C1966 C1960 1.465 . S
C1966 C1965 1.396 . S
C1966 C1967 1.399 . S
C1967 H1953 0.929 . S
C1967 C1966 1.399 . S
C1967 C1968 1.385 . S
C1968 H1954 0.931 . S
C1968 C1967 1.385 . S
C1968 C1969 1.389 . S
C1969 C1968 1.389 . S
C1969 C1970 1.387 . S
C1970 H1955 0.930 . S
C1970 C1965 1.390 . S
C1970 C1969 1.387 . S
H1971 C1983 0.930 . S
H1972 C1985 0.930 . S
H1973 C1986 0.930 . S
H1974 C1990 0.959 . S
H1975 C1990 0.959 . S
H1976 C1990 0.961 . S
H1977 C1991 0.960 . S
H1978 C1991 0.961 . S
H1979 C1991 0.959 . S
H1980 C1994 0.929 . S
H1981 C1995 0.931 . S
H1982 C1997 0.930 . S
C1983 H1971 0.930 . S
C1983 C1984 1.399 . S
C1983 C1988 1.399 . S
C1984 C1983 1.399 . S
C1984 C1985 1.376 . S
C1985 H1972 0.930 . S
C1985 C1984 1.376 . S
C1985 C1986 1.388 . S
C1986 H1973 0.930 . S
C1986 C1985 1.388 . S
C1986 C1987 1.390 . S
C1987 C1986 1.390 . S
C1987 C1988 1.394 . S
C1987 C1993 1.465 . S
C1988 C1983 1.399 . S
C1988 C1987 1.394 . S
C1988 C1989 1.516 . S
C1989 C1988 1.516 . S
C1989 C1990 1.502 . S
C1989 C1991 1.561 . S
C1989 C1992 1.526 . S
C1990 H1974 0.959 . S
C1990 H1975 0.959 . S
C1990 H1976 0.961 . S
C1990 C1989 1.502 . S
C1991 H1977 0.960 . S
C1991 H1978 0.961 . S
C1991 H1979 0.959 . S
C1991 C1989 1.561 . S
C1992 C1989 1.526 . S
C1992 C1993 1.396 . S
C1992 C1997 1.390 . S
C1993 C1987 1.465 . S
C1993 C1992 1.396 . S
C1993 C1994 1.399 . S
C1994 H1980 0.929 . S
C1994 C1993 1.399 . S
C1994 C1995 1.385 . S
C1995 H1981 0.931 . S
C1995 C1994 1.385 . S
C1995 C1996 1.389 . S
C1996 C1995 1.389 . S
C1996 C1997 1.387 . S
C1997 H1982 0.930 . S
C1997 C1992 1.390 . S
C1997 C1996 1.387 . S
H1998 C2010 0.930 . S
H1999 C2012 0.930 . S
H2000 C2013 0.930 . S
H2001 C2017 0.959 . S
H2002 C2017 0.959 . S
H2003 C2017 0.961 . S
H2004 C2018 0.960 . S
H2005 C2018 0.961 . S
H2006 C2018 0.959 . S
H2007 C2021 0.929 . S
H2008 C2022 0.931 . S
H2009 C2024 0.930 . S
C2010 H1998 0.930 . S
C2010 C2011 1.399 . S
C2010 C2015 1.399 . S
C2011 C2010 1.399 . S
C2011 C2012 1.376 . S
C2012 H1999 0.930 . S
C2012 C2011 1.376 . S
C2012 C2013 1.388 . S
C2013 H2000 0.930 . S
C2013 C2012 1.388 . S
C2013 C2014 1.390 . S
C2014 C2013 1.390 . S
C2014 C2015 1.394 . S
C2014 C2020 1.465 . S
C2015 C2010 1.399 . S
C2015 C2014 1.394 . S
C2015 C2016 1.516 . S
C2016 C2015 1.516 . S
C2016 C2017 1.502 . S
C2016 C2018 1.561 . S
C2016 C2019 1.526 . S
C2017 H2001 0.959 . S
C2017 H2002 0.959 . S
C2017 H2003 0.961 . S
C2017 C2016 1.502 . S
C2018 H2004 0.960 . S
C2018 H2005 0.961 . S
C2018 H2006 0.959 . S
C2018 C2016 1.561 . S
C2019 C2016 1.526 . S
C2019 C2020 1.396 . S
C2019 C2024 1.390 . S
C2020 C2014 1.465 . S
C2020 C2019 1.396 . S
C2020 C2021 1.399 . S
C2021 H2007 0.929 . S
C2021 C2020 1.399 . S
C2021 C2022 1.385 . S
C2022 H2008 0.931 . S
C2022 C2021 1.385 . S
C2022 C2023 1.389 . S
C2023 C2022 1.389 . S
C2023 C2024 1.387 . S
C2024 H2009 0.930 . S
C2024 C2019 1.390 . S
C2024 C2023 1.387 . S
H2025 C2037 0.930 . S
H2026 C2039 0.930 . S
H2027 C2040 0.930 . S
H2028 C2044 0.959 . S
H2029 C2044 0.959 . S
H2030 C2044 0.961 . S
H2031 C2045 0.960 . S
H2032 C2045 0.961 . S
H2033 C2045 0.959 . S
H2034 C2048 0.929 . S
H2035 C2049 0.931 . S
H2036 C2051 0.930 . S
C2037 H2025 0.930 . S
C2037 C2038 1.399 . S
C2037 C2042 1.399 . S
C2038 C2037 1.399 . S
C2038 C2039 1.376 . S
C2039 H2026 0.930 . S
C2039 C2038 1.376 . S
C2039 C2040 1.388 . S
C2040 H2027 0.930 . S
C2040 C2039 1.388 . S
C2040 C2041 1.390 . S
C2041 C2040 1.390 . S
C2041 C2042 1.394 . S
C2041 C2047 1.465 . S
C2042 C2037 1.399 . S
C2042 C2041 1.394 . S
C2042 C2043 1.516 . S
C2043 C2042 1.516 . S
C2043 C2044 1.502 . S
C2043 C2045 1.561 . S
C2043 C2046 1.526 . S
C2044 H2028 0.959 . S
C2044 H2029 0.959 . S
C2044 H2030 0.961 . S
C2044 C2043 1.502 . S
C2045 H2031 0.960 . S
C2045 H2032 0.961 . S
C2045 H2033 0.959 . S
C2045 C2043 1.561 . S
C2046 C2043 1.526 . S
C2046 C2047 1.396 . S
C2046 C2051 1.390 . S
C2047 C2041 1.465 . S
C2047 C2046 1.396 . S
C2047 C2048 1.399 . S
C2048 H2034 0.929 . S
C2048 C2047 1.399 . S
C2048 C2049 1.385 . S
C2049 H2035 0.931 . S
C2049 C2048 1.385 . S
C2049 C2050 1.389 . S
C2050 C2049 1.389 . S
C2050 C2051 1.387 . S
C2051 H2036 0.930 . S
C2051 C2046 1.390 . S
C2051 C2050 1.387 . S
H2052 C2064 0.930 . S
H2053 C2066 0.930 . S
H2054 C2067 0.930 . S
H2055 C2071 0.959 . S
H2056 C2071 0.959 . S
H2057 C2071 0.961 . S
H2058 C2072 0.960 . S
H2059 C2072 0.961 . S
H2060 C2072 0.959 . S
H2061 C2075 0.929 . S
H2062 C2076 0.931 . S
H2063 C2078 0.930 . S
C2064 H2052 0.930 . S
C2064 C2065 1.399 . S
C2064 C2069 1.399 . S
C2065 C2064 1.399 . S
C2065 C2066 1.376 . S
C2066 H2053 0.930 . S
C2066 C2065 1.376 . S
C2066 C2067 1.388 . S
C2067 H2054 0.930 . S
C2067 C2066 1.388 . S
C2067 C2068 1.390 . S
C2068 C2067 1.390 . S
C2068 C2069 1.394 . S
C2068 C2074 1.465 . S
C2069 C2064 1.399 . S
C2069 C2068 1.394 . S
C2069 C2070 1.516 . S
C2070 C2069 1.516 . S
C2070 C2071 1.502 . S
C2070 C2072 1.561 . S
C2070 C2073 1.526 . S
C2071 H2055 0.959 . S
C2071 H2056 0.959 . S
C2071 H2057 0.961 . S
C2071 C2070 1.502 . S
C2072 H2058 0.960 . S
C2072 H2059 0.961 . S
C2072 H2060 0.959 . S
C2072 C2070 1.561 . S
C2073 C2070 1.526 . S
C2073 C2074 1.396 . S
C2073 C2078 1.390 . S
C2074 C2068 1.465 . S
C2074 C2073 1.396 . S
C2074 C2075 1.399 . S
C2075 H2061 0.929 . S
C2075 C2074 1.399 . S
C2075 C2076 1.385 . S
C2076 H2062 0.931 . S
C2076 C2075 1.385 . S
C2076 C2077 1.389 . S
C2077 C2076 1.389 . S
C2077 C2078 1.387 . S
C2078 H2063 0.930 . S
C2078 C2073 1.390 . S
C2078 C2077 1.387 . S
H2079 C2091 0.930 . S
H2080 C2093 0.930 . S
H2081 C2094 0.930 . S
H2082 C2098 0.959 . S
H2083 C2098 0.959 . S
H2084 C2098 0.961 . S
H2085 C2099 0.960 . S
H2086 C2099 0.961 . S
H2087 C2099 0.959 . S
H2088 C2102 0.929 . S
H2089 C2103 0.931 . S
H2090 C2105 0.930 . S
C2091 H2079 0.930 . S
C2091 C2092 1.399 . S
C2091 C2096 1.399 . S
C2092 C2091 1.399 . S
C2092 C2093 1.376 . S
C2093 H2080 0.930 . S
C2093 C2092 1.376 . S
C2093 C2094 1.388 . S
C2094 H2081 0.930 . S
C2094 C2093 1.388 . S
C2094 C2095 1.390 . S
C2095 C2094 1.390 . S
C2095 C2096 1.394 . S
C2095 C2101 1.465 . S
C2096 C2091 1.399 . S
C2096 C2095 1.394 . S
C2096 C2097 1.516 . S
C2097 C2096 1.516 . S
C2097 C2098 1.502 . S
C2097 C2099 1.561 . S
C2097 C2100 1.526 . S
C2098 H2082 0.959 . S
C2098 H2083 0.959 . S
C2098 H2084 0.961 . S
C2098 C2097 1.502 . S
C2099 H2085 0.960 . S
C2099 H2086 0.961 . S
C2099 H2087 0.959 . S
C2099 C2097 1.561 . S
C2100 C2097 1.526 . S
C2100 C2101 1.396 . S
C2100 C2105 1.390 . S
C2101 C2095 1.465 . S
C2101 C2100 1.396 . S
C2101 C2102 1.399 . S
C2102 H2088 0.929 . S
C2102 C2101 1.399 . S
C2102 C2103 1.385 . S
C2103 H2089 0.931 . S
C2103 C2102 1.385 . S
C2103 C2104 1.389 . S
C2104 C2103 1.389 . S
C2104 C2105 1.387 . S
C2105 H2090 0.930 . S
C2105 C2100 1.390 . S
C2105 C2104 1.387 . S
H2106 C2118 0.930 . S
H2107 C2120 0.930 . S
H2108 C2121 0.930 . S
H2109 C2125 0.959 . S
H2110 C2125 0.959 . S
H2111 C2125 0.961 . S
H2112 C2126 0.960 . S
H2113 C2126 0.961 . S
H2114 C2126 0.959 . S
H2115 C2129 0.929 . S
H2116 C2130 0.931 . S
H2117 C2132 0.930 . S
C2118 H2106 0.930 . S
C2118 C2119 1.399 . S
C2118 C2123 1.399 . S
C2119 C2118 1.399 . S
C2119 C2120 1.376 . S
C2120 H2107 0.930 . S
C2120 C2119 1.376 . S
C2120 C2121 1.388 . S
C2121 H2108 0.930 . S
C2121 C2120 1.388 . S
C2121 C2122 1.390 . S
C2122 C2121 1.390 . S
C2122 C2123 1.394 . S
C2122 C2128 1.465 . S
C2123 C2118 1.399 . S
C2123 C2122 1.394 . S
C2123 C2124 1.516 . S
C2124 C2123 1.516 . S
C2124 C2125 1.502 . S
C2124 C2126 1.561 . S
C2124 C2127 1.526 . S
C2125 H2109 0.959 . S
C2125 H2110 0.959 . S
C2125 H2111 0.961 . S
C2125 C2124 1.502 . S
C2126 H2112 0.960 . S
C2126 H2113 0.961 . S
C2126 H2114 0.959 . S
C2126 C2124 1.561 . S
C2127 C2124 1.526 . S
C2127 C2128 1.396 . S
C2127 C2132 1.390 . S
C2128 C2122 1.465 . S
C2128 C2127 1.396 . S
C2128 C2129 1.399 . S
C2129 H2115 0.929 . S
C2129 C2128 1.399 . S
C2129 C2130 1.385 . S
C2130 H2116 0.931 . S
C2130 C2129 1.385 . S
C2130 C2131 1.389 . S
C2131 C2130 1.389 . S
C2131 C2132 1.387 . S
C2132 H2117 0.930 . S
C2132 C2127 1.390 . S
C2132 C2131 1.387 . S
H2133 C2145 0.930 . S
H2134 C2147 0.930 . S
H2135 C2148 0.930 . S
H2136 C2152 0.959 . S
H2137 C2152 0.959 . S
H2138 C2152 0.961 . S
H2139 C2153 0.960 . S
H2140 C2153 0.961 . S
H2141 C2153 0.959 . S
H2142 C2156 0.929 . S
H2143 C2157 0.931 . S
H2144 C2159 0.930 . S
C2145 H2133 0.930 . S
C2145 C2146 1.399 . S
C2145 C2150 1.399 . S
C2146 C2145 1.399 . S
C2146 C2147 1.376 . S
C2147 H2134 0.930 . S
C2147 C2146 1.376 . S
C2147 C2148 1.388 . S
C2148 H2135 0.930 . S
C2148 C2147 1.388 . S
C2148 C2149 1.390 . S
C2149 C2148 1.390 . S
C2149 C2150 1.394 . S
C2149 C2155 1.465 . S
C2150 C2145 1.399 . S
C2150 C2149 1.394 . S
C2150 C2151 1.516 . S
C2151 C2150 1.516 . S
C2151 C2152 1.502 . S
C2151 C2153 1.561 . S
C2151 C2154 1.526 . S
C2152 H2136 0.959 . S
C2152 H2137 0.959 . S
C2152 H2138 0.961 . S
C2152 C2151 1.502 . S
C2153 H2139 0.960 . S
C2153 H2140 0.961 . S
C2153 H2141 0.959 . S
C2153 C2151 1.561 . S
C2154 C2151 1.526 . S
C2154 C2155 1.396 . S
C2154 C2159 1.390 . S
C2155 C2149 1.465 . S
C2155 C2154 1.396 . S
C2155 C2156 1.399 . S
C2156 H2142 0.929 . S
C2156 C2155 1.399 . S
C2156 C2157 1.385 . S
C2157 H2143 0.931 . S
C2157 C2156 1.385 . S
C2157 C2158 1.389 . S
C2158 C2157 1.389 . S
C2158 C2159 1.387 . S
C2159 H2144 0.930 . S
C2159 C2154 1.390 . S
C2159 C2158 1.387 . S
C877 C3 1.490 . S
C889 C255 1.503 . S
C904 C291 1.507 . S
C916 C39 1.493 . S
C931 C75 1.493 . S
C943 C327 1.508 . S
C958 C111 1.508 . S
C970 C363 1.496 . S
C985 C399 1.491 . S
C997 C147 1.506 . S
C1012 C183 1.493 . S
C1024 C219 1.508 . S
C1039 C435 1.498 . S
C1051 C687 1.490 . S
C1066 C471 1.506 . S
C1078 C723 1.496 . S
C1093 C759 1.508 . S
C1105 C507 1.503 . S
C1120 C543 1.508 . S
C1132 C795 1.500 . S
C1147 C579 1.497 . S
C1159 C831 1.508 . S
C1174 C651 1.502 . S
C1186 C615 1.492 . S
C1201 C4 1.326 . S
C1213 C292 1.324 . S
C1228 C328 1.350 . S
C1240 C40 1.354 . S
C1255 C364 1.328 . S
C1267 C76 1.333 . S
C1282 C112 1.330 . S
C1294 C400 1.335 . S
C1309 C148 1.352 . S
C1321 C220 1.355 . S
C1336 C184 1.328 . S
C1348 C256 1.333 . S
C1363 C724 1.333 . S
C1375 C436 1.338 . S
C1390 C472 1.341 . S
C1402 C760 1.337 . S
C1417 C796 1.340 . S
C1429 C508 1.335 . S
C1444 C832 1.328 . S
C1456 C544 1.332 . S
C1471 C652 1.351 . S
C1483 C580 1.354 . S
C1498 C616 1.335 . S
C1510 C688 1.340 . S
C1525 C14 1.480 . S
C1537 C554 1.469 . S
C1552 C590 1.483 . S
C1564 C50 1.496 . S
C1579 C626 1.458 . S
C1591 C86 1.468 . S
C1606 C122 1.477 . S
C1618 C446 1.467 . S
C1633 C158 1.524 . S
C1645 C482 1.526 . S
C1660 C518 1.515 . S
C1672 C194 1.506 . S
C1687 C770 1.470 . S
C1699 C230 1.461 . S
C1714 C806 1.450 . S
C1726 C266 1.449 . S
C1741 C842 1.511 . S
C1753 C302 1.500 . S
C1768 C662 1.478 . S
C1780 C338 1.467 . S
C1795 C374 1.494 . S
C1807 C698 1.506 . S
C1822 C410 1.526 . S
C1834 C734 1.521 . S
C1849 C2 1.424 . S
C1861 C362 1.418 . S
C1876 C398 1.417 . S
C1888 C38 1.423 . S
C1903 C218 1.408 . S
C1915 C74 1.402 . S
C1930 C110 1.425 . S
C1942 C254 1.421 . S
C1957 C146 1.410 . S
C1969 C290 1.418 . S
C1984 C182 1.411 . S
C1996 C326 1.404 . S
C2011 C434 1.411 . S
C2023 C794 1.400 . S
C2038 C470 1.425 . S
C2050 C830 1.417 . S
C2065 C506 1.425 . S
C2077 C650 1.416 . S
C2092 C686 1.406 . S
C2104 C542 1.401 . S
C2119 C578 1.425 . S
C2131 C722 1.413 . S
C2146 C614 1.402 . S
C2158 C758 1.417 . S
