# Generated by pormake.
# Topology smc, (6)-cn, num edge types: 1
# Building blocks:
#     Node 0, Type 0, BuildingBlock: VOLQOD_clean_sbu_1, # of connection points: 6
#     Node 1, Type 0, BuildingBlock: VOLQOD_clean_sbu_1, # of connection points: 6
#     Node 2, Type 0, BuildingBlock: VOLQOD_clean_sbu_1, # of connection points: 6
#     Node 3, Type 0, BuildingBlock: VOLQOD_clean_sbu_1, # of connection points: 6
#     Node 4, Type 0, BuildingBlock: VOLQOD_clean_sbu_1, # of connection points: 6
#     Node 5, Type 0, BuildingBlock: VOLQOD_clean_sbu_1, # of connection points: 6
#     Node 6, Type 0, BuildingBlock: VOLQOD_clean_sbu_1, # of connection points: 6
#     Node 7, Type 0, BuildingBlock: VOLQOD_clean_sbu_1, # of connection points: 6
#     Node 8, Type 0, BuildingBlock: VOLQOD_clean_sbu_1, # of connection points: 6
#     Edge 9, Type (0, 0), BuildingBlock: ZUJKAS_clean_linker_0, # of connection points: 2
#     Edge 10, Type (0, 0), BuildingBlock: ZUJKAS_clean_linker_0, # of connection points: 2
#     Edge 11, Type (0, 0), BuildingBlock: ZUJKAS_clean_linker_0, # of connection points: 2
#     Edge 12, Type (0, 0), BuildingBlock: ZUJKAS_clean_linker_0, # of connection points: 2
#     Edge 13, Type (0, 0), BuildingBlock: ZUJKAS_clean_linker_0, # of connection points: 2
#     Edge 14, Type (0, 0), BuildingBlock: ZUJKAS_clean_linker_0, # of connection points: 2
#     Edge 15, Type (0, 0), BuildingBlock: ZUJKAS_clean_linker_0, # of connection points: 2
#     Edge 16, Type (0, 0), BuildingBlock: ZUJKAS_clean_linker_0, # of connection points: 2
#     Edge 17, Type (0, 0), BuildingBlock: ZUJKAS_clean_linker_0, # of connection points: 2
#     Edge 18, Type (0, 0), BuildingBlock: ZUJKAS_clean_linker_0, # of connection points: 2
#     Edge 19, Type (0, 0), BuildingBlock: ZUJKAS_clean_linker_0, # of connection points: 2
#     Edge 20, Type (0, 0), BuildingBlock: ZUJKAS_clean_linker_0, # of connection points: 2
#     Edge 21, Type (0, 0), BuildingBlock: ZUJKAS_clean_linker_0, # of connection points: 2
#     Edge 22, Type (0, 0), BuildingBlock: ZUJKAS_clean_linker_0, # of connection points: 2
#     Edge 23, Type (0, 0), BuildingBlock: ZUJKAS_clean_linker_0, # of connection points: 2
#     Edge 24, Type (0, 0), BuildingBlock: ZUJKAS_clean_linker_0, # of connection points: 2
#     Edge 25, Type (0, 0), BuildingBlock: ZUJKAS_clean_linker_0, # of connection points: 2
#     Edge 26, Type (0, 0), BuildingBlock: ZUJKAS_clean_linker_0, # of connection points: 2
#     Edge 27, Type (0, 0), BuildingBlock: ZUJKAS_clean_linker_0, # of connection points: 2
#     Edge 28, Type (0, 0), BuildingBlock: ZUJKAS_clean_linker_0, # of connection points: 2
#     Edge 29, Type (0, 0), BuildingBlock: ZUJKAS_clean_linker_0, # of connection points: 2
#     Edge 30, Type (0, 0), BuildingBlock: ZUJKAS_clean_linker_0, # of connection points: 2
#     Edge 31, Type (0, 0), BuildingBlock: ZUJKAS_clean_linker_0, # of connection points: 2
#     Edge 32, Type (0, 0), BuildingBlock: ZUJKAS_clean_linker_0, # of connection points: 2
#     Edge 33, Type (0, 0), BuildingBlock: ZUJKAS_clean_linker_0, # of connection points: 2
#     Edge 34, Type (0, 0), BuildingBlock: ZUJKAS_clean_linker_0, # of connection points: 2
#     Edge 35, Type (0, 0), BuildingBlock: ZUJKAS_clean_linker_0, # of connection points: 2
# Relax obj value: 0.337
# Max RMSD: 0.273
# Mean RMSD: 0.261
data_MOF--net-smc--node1-VOLQOD_clean_sbu_1--edge1-ZUJKAS_clean_linker_0
_symmetry_space_group_name_H-M    P1
_symmetry_Int_Tables_number       1
_symmetry_cell_setting            triclinic
loop_
_symmetry_equiv_pos_as_xyz
'x, y, z'
_cell_length_a     38.525482
_cell_length_b     39.162974
_cell_length_c     62.040876
_cell_angle_alpha  89.835129
_cell_angle_beta   90.282413
_cell_angle_gamma 121.37766
loop_
_atom_site_label
_atom_site_type_symbol
_atom_site_fract_x
_atom_site_fract_y
_atom_site_fract_z
_atom_type_partial_charge
O0 O 0.92534 0.44809 0.00208 0.0
Zn1 Zn 0.97186 0.44701 0.98908 0.0
O2 O -0.006 0.42459 0.00888 0.0
Zn3 Zn 0.99179 0.37856 0.99526 0.0
Zn4 Zn 0.96246 0.40927 0.03511 0.0
Zn5 Zn 0.0495 0.4647 0.01642 0.0
O6 O 0.04821 0.38704 0.99252 0.0
O7 O 0.08666 0.45107 0.00198 0.0
O8 O 0.95447 0.41806 0.96079 0.0
O9 O 0.96922 0.37072 0.96495 0.0
O10 O 0.95317 0.32794 0.0114 0.0
O11 O 0.92885 0.34977 0.03688 0.0
O12 O -0.00211 0.42768 0.06122 0.0
O13 O 0.01189 0.50504 0.98394 0.0
O14 O 0.06031 0.46664 0.04867 0.0
O15 O 0.06308 0.51906 0.00614 0.0
C16 C 0.91374 0.44569 0.02146 0.0
C17 C 0.08284 0.41918 0.99428 0.0
C18 C 0.9294 0.32144 0.02718 0.0
C19 C 0.95545 0.38821 0.95354 0.0
C20 C 0.03593 0.45005 0.06437 0.0
C21 C 0.04568 0.53005 0.9927 0.0
O22 O 0.9271 0.43316 0.03641 0.0
O23 O 0.56782 0.51026 -0.00089 0.0
Zn24 Zn 0.57208 0.56036 0.98836 0.0
O25 O 0.60063 0.60383 0.00895 0.0
Zn26 Zn 0.64813 0.64787 0.99431 0.0
Zn27 Zn 0.61619 0.58425 0.03368 0.0
Zn28 Zn 0.5647 0.62079 0.01989 0.0
O29 O 0.64458 0.69779 0.994 0.0
O30 O 0.58425 0.67579 0.00926 0.0
O31 O 0.59718 0.57331 0.95883 0.0
O32 O 0.64951 0.63521 0.96281 0.0
O33 O 0.70031 0.65667 0.00804 0.0
O34 O 0.67615 0.61039 0.03393 0.0
O35 O 0.60129 0.5978 0.06186 0.0
O36 O 0.51439 0.54585 0.98539 0.0
O37 O 0.56456 0.62397 0.05248 0.0
O38 O 0.50728 0.58372 0.00941 0.0
C39 C 0.57375 0.49948 0.01743 0.0
C40 C 0.61614 0.70314 -0.0 0.0
C41 C 0.70573 0.63859 0.02364 0.0
C42 C 0.62767 0.60464 0.95106 0.0
C43 C 0.58079 0.61355 0.06693 0.0
C44 C 0.49235 0.5561 0.99524 0.0
O45 O 0.5905 0.52439 0.03279 0.0
O46 O 0.43843 0.93757 0.00322 0.0
Zn47 Zn 0.4373 0.98446 0.01485 0.0
O48 O 0.41316 0.00383 0.9944 0.0
Zn49 Zn 0.36636 0.00183 0.00801 0.0
Zn50 Zn 0.39702 0.97039 0.96899 0.0
Zn51 Zn 0.45308 0.05763 0.98526 0.0
O52 O 0.37339 0.05684 0.0086 0.0
O53 O 0.43624 0.09472 0.99576 0.0
O54 O 0.41066 0.97204 0.04382 0.0
O55 O 0.36205 0.98574 0.03929 0.0
O56 O 0.31405 0.95986 0.99348 0.0
O57 O 0.33677 0.93457 0.96912 0.0
O58 O 0.41241 0.00252 0.94165 0.0
O59 O 0.4958 0.02552 0.01958 0.0
O60 O 0.45639 0.0639 0.95302 0.0
O61 O 0.5085 0.07488 0.99712 0.0
C62 C 0.43596 0.92498 0.98405 0.0
C63 C 0.40414 0.09092 0.00386 0.0
C64 C 0.30758 0.9343 0.97885 0.0
C65 C 0.38145 0.97473 0.05123 0.0
C66 C 0.43726 0.03939 0.9378 0.0
C67 C 0.52039 0.05917 0.01106 0.0
O68 O 0.42312 0.9371 0.96863 0.0
O69 O 0.63698 0.82277 0.32913 0.0
Zn70 Zn 0.67448 0.80567 0.31826 0.0
O71 O 0.68971 0.78155 0.34086 0.0
Zn72 Zn 0.67741 0.72903 0.3307 0.0
Zn73 Zn 0.659 0.77691 0.36645 0.0
Zn74 Zn 0.74707 0.81575 0.34828 0.0
O75 O 0.72807 0.72587 0.33032 0.0
O76 O 0.77584 0.78775 0.33993 0.0
O77 O 0.64999 0.77054 0.29226 0.0
O78 O 0.65587 0.71851 0.30009 0.0
O79 O 0.63342 0.68538 0.34908 0.0
O80 O 0.61743 0.71972 0.37122 0.0
O81 O 0.69371 0.79443 0.39288 0.0
O82 O 0.72301 0.85638 0.30868 0.0
O83 O 0.75674 0.82466 0.3806 0.0
O84 O 0.77168 0.86859 0.33232 0.0
C85 C 0.62447 0.82429 0.34783 0.0
C86 C 0.76513 0.75252 0.3339 0.0
C87 C 0.61167 0.68669 0.36411 0.0
C88 C 0.6457 0.73712 0.28712 0.0
C89 C 0.73183 0.8131 0.39625 0.0
C90 C 0.75858 0.87911 0.31622 0.0
O91 O 0.63174 0.80895 0.36406 0.0
O92 O 0.24395 0.85294 0.32625 0.0
Zn93 Zn 0.24513 0.90114 0.31478 0.0
O94 O 0.26946 0.94523 0.33511 0.0
Zn95 Zn 0.31646 0.99172 0.32173 0.0
Zn96 Zn 0.28542 0.92805 0.36045 0.0
Zn97 Zn 0.22928 0.95775 0.34404 0.0
O98 O 0.30944 0.04012 0.32193 0.0
O99 O 0.24423 0.01006 0.33137 0.0
O100 O 0.27219 0.91643 0.28604 0.0
O101 O 0.32038 0.98022 0.29025 0.0
O102 O 0.36895 0.00159 0.33572 0.0
O103 O 0.34554 0.95392 0.36082 0.0
O104 O 0.26921 0.94322 0.38757 0.0
O105 O 0.18633 0.88133 0.31028 0.0
O106 O 0.2277 0.96304 0.37652 0.0
O107 O 0.17346 0.91685 0.33312 0.0
C108 C 0.24628 0.84287 0.34547 0.0
C109 C 0.27665 0.0404 0.32434 0.0
C110 C 0.3749 0.9828 0.35074 0.0
C111 C 0.30124 0.94909 0.2785 0.0
C112 C 0.24583 0.95625 0.39163 0.0
C113 C 0.16157 0.88904 0.31921 0.0
O114 O 0.25949 0.86828 0.36074 0.0
O115 O 0.18435 0.42103 0.33404 0.0
Zn116 Zn 0.13232 0.37726 0.32162 0.0
O117 O 0.08756 0.36238 0.34141 0.0
Zn118 Zn 0.04602 0.36798 0.32618 0.0
Zn119 Zn 0.10736 0.39694 0.36641 0.0
Zn120 Zn 0.06631 0.30812 0.35189 0.0
O121 O -0.00616 0.31422 0.32361 0.0
O122 O 0.01054 0.27391 0.33996 0.0
O123 O 0.124 0.39449 0.29242 0.0
O124 O 0.06333 0.38738 0.29572 0.0
O125 O 0.03806 0.41 0.34043 0.0
O126 O 0.08476 0.43225 0.36647 0.0
O127 O 0.09042 0.36682 0.39406 0.0
O128 O 0.1422 0.33239 0.318 0.0
O129 O 0.06105 0.30329 0.38447 0.0
O130 O 0.10159 0.28687 0.34192 0.0
C131 C 0.1945 0.43775 0.35243 0.0
C132 C 0.98526 0.27955 0.32968 0.0
C133 C 0.05706 0.43372 0.35604 0.0
C134 C 0.09473 0.39682 0.28456 0.0
C135 C 0.0724 0.32999 0.39899 0.0
C136 C 0.12967 0.29948 0.32784 0.0
O137 O 0.16814 0.43048 0.36682 0.0
O138 O 0.2775 0.13162 0.66129 0.0
Zn139 Zn 0.31627 0.11868 0.6479 0.0
O140 O 0.33294 0.09222 0.66835 0.0
Zn141 Zn 0.32288 0.04232 0.65524 0.0
Zn142 Zn 0.30213 0.08187 0.69473 0.0
Zn143 Zn 0.39009 0.12728 0.67579 0.0
O144 O 0.37511 0.04201 0.65281 0.0
O145 O 0.42067 0.10245 0.66546 0.0
O146 O 0.29231 0.08736 0.62063 0.0
O147 O 0.30058 0.03583 0.62503 0.0
O148 O 0.28036 -0.00521 0.67225 0.0
O149 O 0.2638 0.02332 0.69796 0.0
O150 O 0.33771 0.09896 0.72086 0.0
O151 O 0.36334 0.17201 0.63991 0.0
O152 O 0.40024 0.1336 0.70794 0.0
O153 O 0.41309 0.18164 0.66206 0.0
C154 C 0.26396 0.12861 0.68029 0.0
C155 C 0.4116 0.06899 0.65734 0.0
C156 C 0.25925 0.99237 0.6886 0.0
C157 C 0.28919 0.05536 0.61362 0.0
C158 C 0.37594 0.11957 0.72381 0.0
C159 C 0.39902 0.19418 0.64746 0.0
O160 O 0.27151 0.11077 0.6951 0.0
O161 O 0.88446 0.17027 0.66712 0.0
Zn162 Zn 0.89542 0.22248 0.65541 0.0
O163 O 0.92047 0.26467 0.67687 0.0
Zn164 Zn 0.97042 0.30931 0.66455 0.0
Zn165 Zn 0.93205 0.24328 0.70218 0.0
Zn166 Zn 0.8829 0.28109 0.68573 0.0
O167 O 0.9683 0.36019 0.66431 0.0
O168 O 0.90582 0.33764 0.6768 0.0
O169 O 0.92718 0.23567 0.62792 0.0
O170 O 0.97684 0.29833 0.6335 0.0
O171 O 0.01977 0.31505 0.68011 0.0
O172 O 0.99148 0.26513 0.70389 0.0
O173 O 0.91621 0.25871 0.72926 0.0
O174 O 0.84031 0.21152 0.64798 0.0
O175 O 0.87675 0.28098 0.71826 0.0
O176 O 0.828 0.24685 0.67131 0.0
C177 C 0.88567 0.15847 0.68608 0.0
C178 C 0.93937 0.36559 0.66923 0.0
C179 C 0.0227 0.29396 0.69492 0.0
C180 C 0.95835 0.26775 0.62135 0.0
C181 C 0.89337 0.27232 0.73337 0.0
C182 C 0.81654 0.22147 0.65601 0.0
O183 O 0.90168 0.1831 0.70161 0.0
O184 O 0.7753 0.61617 0.67597 0.0
Zn185 Zn 0.76747 0.65895 0.688 0.0
O186 O 0.74279 0.67677 0.66685 0.0
Zn187 Zn 0.69235 0.6689 0.67929 0.0
Zn188 Zn 0.73288 0.64638 0.64048 0.0
Zn189 Zn 0.77988 0.73239 0.65931 0.0
O190 O 0.69272 0.72088 0.67947 0.0
O191 O 0.75605 0.76417 0.66879 0.0
O192 O 0.7369 0.64109 0.71601 0.0
O193 O 0.68675 0.65228 0.71062 0.0
O194 O 0.64384 0.62447 0.6632 0.0
O195 O 0.67334 0.60849 0.63759 0.0
O196 O 0.75067 0.68088 0.61392 0.0
O197 O 0.82373 0.70339 0.69497 0.0
O198 O 0.78804 0.74198 0.62723 0.0
O199 O 0.83421 0.7534 0.67356 0.0
C200 C 0.77493 0.60436 0.65683 0.0
C201 C 0.72158 0.75647 0.67555 0.0
C202 C 0.6417 0.60329 0.64706 0.0
C203 C 0.70606 0.64156 0.72283 0.0
C204 C 0.77324 0.71845 0.61118 0.0
C205 C 0.84673 0.73857 0.6877 0.0
O206 O 0.76161 0.61536 0.64109 0.0
H207 H 0.43393 0.56361 0.01568 0.0
H208 H 0.3605 0.52341 0.01004 0.0
H209 H 0.37687 0.45704 0.95992 0.0
H210 H 0.45051 0.49724 0.96529 0.0
H211 H 0.32315 0.48279 0.94894 0.0
H212 H 0.28436 0.4055 0.02776 0.0
H213 H 0.31703 0.45868 0.03053 0.0
H214 H 0.3352 0.43055 0.01683 0.0
C215 C 0.42202 0.54057 0.00342 0.0
C216 C 0.4481 0.53355 0.99101 0.0
C217 C 0.38005 0.51738 0.00036 0.0
C218 C 0.3634 0.48673 0.98492 0.0
C219 C 0.38925 0.48026 0.9721 0.0
H220 H 0.09649 0.35706 0.99182 0.0
H221 H 0.16186 0.36235 0.98446 0.0
C222 C 0.43128 0.50336 0.97518 0.0
C223 C 0.31896 0.46276 0.98174 0.0
H224 H 0.23078 0.41 0.00995 0.0
C225 C 0.30281 0.466 0.96207 0.0
C226 C 0.2925 0.43995 -0.00133 0.0
C227 C 0.30814 0.43305 0.01956 0.0
C228 C 0.26099 0.45034 0.95967 0.0
C229 C 0.23511 0.43155 0.97748 0.0
C230 C 0.25077 0.42477 0.99637 0.0
C231 C 0.19427 0.4261 0.97845 0.0
C232 C 0.24515 0.45593 0.93851 0.0
C233 C 0.19109 0.46011 0.97742 0.0
C234 C 0.15437 0.45729 0.98186 0.0
C235 C 0.11999 0.42036 0.98742 0.0
C236 C 0.12257 0.38585 0.98753 0.0
C237 C 0.15973 0.38881 0.98331 0.0
H238 H 0.26409 0.45666 0.92486 0.0
H239 H 0.21312 0.4317 0.93566 0.0
H240 H 0.24654 0.48495 0.93873 0.0
H241 H 0.21757 0.48931 0.97421 0.0
H242 H 0.15323 0.48435 0.98149 0.0
H243 H 0.46207 0.91353 0.94519 0.0
H244 H 0.50449 0.88457 0.9395 0.0
H245 H 0.49411 0.85353 0.00688 0.0
H246 H 0.45225 0.88253 0.01278 0.0
H247 H 0.57669 0.90267 0.98992 0.0
H248 H 0.4772 0.76585 0.94116 0.0
H249 H 0.48242 0.81263 0.93328 0.0
H250 H 0.45614 0.78858 0.95765 0.0
C251 C 0.46798 0.89961 0.95867 0.0
C252 C 0.45404 0.90053 0.97948 0.0
C253 C 0.49231 0.88324 0.95539 0.0
C254 C 0.50256 0.86726 0.97282 0.0
C255 C 0.48673 0.86607 0.99328 0.0
H256 H 0.59521 0.74452 0.02596 0.0
H257 H 0.58029 0.79539 0.01492 0.0
C258 C 0.46269 0.88251 0.9966 0.0
C259 C 0.53178 0.85391 0.97049 0.0
H260 H 0.53797 0.77395 0.95479 0.0
C261 C 0.56872 0.87498 0.98182 0.0
C262 C 0.5215 0.8182 0.95963 0.0
C263 C 0.48216 0.79472 0.94724 0.0
C264 C 0.59419 0.85957 0.98401 0.0
C265 C 0.58213 0.82209 0.97478 0.0
C266 C 0.54707 0.80278 0.96182 0.0
C267 C 0.60017 0.79872 0.98199 0.0
C268 C 0.6326 0.88233 0.9972 0.0
C269 C 0.61733 0.78459 0.96724 0.0
C270 C 0.62654 0.75587 0.97367 0.0
C271 C 0.61758 0.7404 0.99472 0.0
C272 C 0.60259 0.75627 0.00969 0.0
C273 C 0.59419 0.78537 0.00341 0.0
H274 H 0.64433 0.91494 0.99704 0.0
H275 H 0.62597 0.87195 0.01418 0.0
H276 H 0.6566 0.87721 0.99114 0.0
H277 H 0.62167 0.79427 0.95058 0.0
H278 H 0.63753 0.74353 0.9618 0.0
H279 H 0.23674 0.91649 -0.00069 0.0
H280 H 0.17258 0.85184 -0.00129 0.0
H281 H 0.22112 0.80982 0.95003 0.0
H282 H 0.28389 0.87427 0.9497 0.0
H283 H 0.14093 0.77501 0.94536 0.0
H284 H 0.17921 0.7669 0.03133 0.0
H285 H 0.16822 0.80494 0.02471 0.0
H286 H 0.21311 0.80786 0.01415 0.0
C287 C 0.23323 0.89385 0.98803 0.0
C288 C 0.26589 0.90009 0.97504 0.0
C289 C 0.19665 0.85684 0.98781 0.0
C290 C 0.19269 0.82556 0.97492 0.0
C291 C 0.2236 0.83333 0.9603 0.0
H292 H 0.12431 0.59022 -0.00138 0.0
H293 H 0.1526 0.66183 0.99374 0.0
C294 C 0.25973 0.87027 0.96026 0.0
C295 C 0.1601 0.78343 0.97857 0.0
H296 H 0.13089 0.70775 0.01488 0.0
C297 C 0.13802 0.76027 0.96066 0.0
C298 C 0.15665 0.76433 -0.00144 0.0
C299 C 0.18067 0.78709 0.01828 0.0
C300 C 0.1152 0.71833 0.96172 0.0
C301 C 0.11348 0.69932 0.98144 0.0
C302 C 0.13271 0.72258 -0.00024 0.0
C303 C 0.09596 0.65565 0.98308 0.0
C304 C 0.09567 0.69485 0.94139 0.0
C305 C 0.05486 0.62842 0.97845 0.0
C306 C 0.03882 0.58738 0.98085 0.0
C307 C 0.06347 0.57304 0.98835 0.0
C308 C 0.10461 0.60038 0.99286 0.0
C309 C 0.12073 0.64127 0.99013 0.0
H310 H 0.10696 0.71396 0.92676 0.0
H311 H 0.10149 0.67005 0.93962 0.0
H312 H 0.06231 0.68165 0.94224 0.0
H313 H 0.03501 0.63887 0.97345 0.0
H314 H 0.00682 0.567 0.97753 0.0
H315 H 0.38083 0.10986 0.04118 0.0
H316 H 0.39747 0.17729 0.05201 0.0
H317 H 0.44612 0.22173 0.98872 0.0
H318 H 0.43077 0.15522 0.97812 0.0
H319 H 0.48954 0.24703 0.04462 0.0
H320 H 0.37042 0.26892 0.0084 0.0
H321 H 0.36063 0.2206 0.01723 0.0
H322 H 0.38638 0.24147 0.99222 0.0
C323 C 0.39386 0.13387 0.02945 0.0
C324 C 0.40453 0.12768 0.00884 0.0
C325 C 0.4035 0.17221 0.03567 0.0
C326 C 0.4228 0.20413 0.02109 0.0
C327 C 0.43087 0.19724 7e-05 0.0
H328 H 0.5494 0.4408 0.98741 0.0
H329 H 0.51123 0.36883 0.99347 0.0
C330 C 0.42211 0.15937 0.99405 0.0
C331 C 0.43971 0.24578 0.02803 0.0
H332 H 0.43532 0.32793 0.01505 0.0
C333 C 0.47726 0.2648 0.03883 0.0
C334 C 0.42348 0.26846 0.02027 0.0
C335 C 0.38282 0.24889 0.00901 0.0
C336 C 0.50082 0.30665 0.04038 0.0
C337 C 0.48586 0.32955 0.03116 0.0
C338 C 0.44678 0.3102 0.02196 0.0
C339 C 0.51197 0.37324 0.02825 0.0
C340 C 0.54275 0.32611 0.05025 0.0
C341 C 0.52601 0.39949 0.04588 0.0
C342 C 0.54833 0.44086 0.04246 0.0
C343 C 0.55641 0.45639 0.02137 0.0
C344 C 0.54353 0.42983 0.00384 0.0
C345 C 0.52156 0.3887 0.00727 0.0
H346 H 0.55175 0.30405 0.05414 0.0
H347 H 0.56561 0.34891 0.03912 0.0
H348 H 0.54347 0.34155 0.06536 0.0
H349 H 0.51859 0.38806 0.06218 0.0
H350 H 0.55758 0.46059 0.05628 0.0
H351 H 0.58336 0.12699 0.99333 0.0
H352 H 0.65529 0.15985 0.00269 0.0
H353 H 0.62788 0.07111 0.05174 0.0
H354 H 0.55574 0.03745 0.04227 0.0
H355 H 0.6892 0.19117 0.04279 0.0
H356 H 0.72058 0.07361 0.01738 0.0
H357 H 0.67573 0.07358 0.00876 0.0
H358 H 0.67904 0.05869 0.0357 0.0
C359 C 0.59254 0.11436 0.00608 0.0
C360 C 0.56382 0.07963 0.01704 0.0
C361 C 0.63364 0.1331 0.01137 0.0
C362 C 0.6468 0.11754 0.0277 0.0
C363 C 0.61833 0.08307 0.03881 0.0
H364 H 0.89452 0.29151 0.06619 0.0
H365 H 0.82747 0.23162 0.0718 0.0
C366 C 0.57713 0.06412 0.03346 0.0
C367 C 0.6903 0.13892 0.03352 0.0
H368 H 0.77601 0.13396 0.03052 0.0
C369 C 0.70821 0.17859 0.04042 0.0
C370 C 0.71467 0.12212 0.03037 0.0
C371 C 0.69677 0.07975 0.02251 0.0
C372 C 0.75028 0.2029 0.04309 0.0
C373 C 0.775 0.1865 0.03947 0.0
C374 C 0.75687 0.14616 0.03356 0.0
C375 C 0.81969 0.21266 0.0385 0.0
C376 C 0.76791 0.24662 0.04826 0.0
C377 C 0.83905 0.21915 0.0185 0.0
C378 C 0.87774 0.25268 0.01541 0.0
C379 C 0.89702 0.28027 0.03222 0.0
C380 C 0.87983 0.27092 0.05291 0.0
C381 C 0.84157 0.23686 0.05611 0.0
H382 H 0.7451 0.2557 0.04648 0.0
H383 H 0.77892 0.25244 0.06519 0.0
H384 H 0.79398 0.26587 0.03756 0.0
H385 H 0.82275 0.20057 0.00475 0.0
H386 H 0.89044 0.25914 -0.00068 0.0
H387 H 0.90198 0.46797 0.06134 0.0
H388 H 0.87664 0.51264 0.06876 0.0
H389 H 0.84921 0.51251 0.0013 0.0
H390 H 0.87421 0.46804 0.99367 0.0
H391 H 0.90386 0.5925 0.02338 0.0
H392 H 0.75616 0.49025 0.06406 0.0
H393 H 0.80077 0.48944 0.07204 0.0
H394 H 0.77886 0.47141 0.04592 0.0
C395 C 0.88955 0.47658 0.04817 0.0
C396 C 0.89033 0.46465 0.02689 0.0
C397 C 0.87539 0.5023 0.05244 0.0
C398 C 0.86165 0.51609 0.0355 0.0
C399 C 0.86017 0.50241 0.0145 0.0
H400 H 0.76198 0.64681 0.9946 0.0
H401 H 0.81281 0.62882 0.00153 0.0
C402 C 0.87423 0.4768 0.01022 0.0
C403 C 0.85018 0.54606 0.03921 0.0
H404 H 0.77115 0.55478 0.0557 0.0
C405 C 0.87517 0.58466 0.03078 0.0
C406 C 0.81311 0.53568 0.04911 0.0
C407 C 0.78541 0.49446 0.0583 0.0
C408 C 0.86301 0.61275 0.03108 0.0
C409 C 0.82454 0.60146 0.03961 0.0
C410 C 0.80075 0.56356 0.04921 0.0
C411 C 0.80541 0.62549 0.03624 0.0
C412 C 0.89106 0.6538 0.02183 0.0
C413 C 0.78583 0.63165 0.05347 0.0
C414 C 0.75618 0.64113 0.04944 0.0
C415 C 0.74618 0.64512 0.02817 0.0
C416 C 0.76954 0.64432 0.01114 0.0
C417 C 0.79872 0.63408 0.01514 0.0
H418 H 0.92339 0.66293 0.02415 0.0
H419 H 0.88551 0.65319 0.00423 0.0
H420 H 0.88608 0.67662 0.02932 0.0
H421 H 0.79062 0.62531 0.06986 0.0
H422 H 0.73848 0.64166 0.06282 0.0
H423 H 0.77072 0.70857 0.30146 0.0
H424 H 0.83149 0.70623 0.29211 0.0
H425 H 0.89204 0.77456 0.34919 0.0
H426 H 0.83228 0.77765 0.35825 0.0
H427 H 0.90569 0.78146 0.28541 0.0
H428 H 0.92704 0.69108 0.34652 0.0
H429 H 0.87768 0.68355 0.33998 0.0
H430 H 0.91112 0.72238 0.35847 0.0
C431 C 0.79664 0.72192 0.31229 0.0
C432 C 0.79721 0.74353 0.33046 0.0
C433 C 0.83117 0.72054 0.30696 0.0
C434 C 0.86593 0.73976 0.32013 0.0
C435 C 0.86522 0.75882 0.33907 0.0
H436 H 0.10206 0.90565 0.32629 0.0
H437 H 0.02899 0.86124 0.32044 0.0
C438 C 0.83126 0.76091 0.34413 0.0
C439 C 0.90546 0.747 0.31263 0.0
H440 H 0.98925 0.74963 0.33276 0.0
C441 C 0.92366 0.77328 0.29521 0.0
C442 C 0.92869 0.7361 0.32534 0.0
C443 C 0.90996 0.70637 0.3435 0.0
C444 C 0.96565 0.79263 0.29181 0.0
C445 C 0.98955 0.78528 0.30616 0.0
C446 C 0.97072 0.75552 0.32196 0.0
C447 C 0.03388 0.81269 0.30745 0.0
C448 C 0.98466 0.82309 0.27398 0.0
C449 C 0.0605 0.79987 0.30202 0.0
C450 C 0.10231 0.82531 0.30516 0.0
C451 C 0.11786 0.86357 0.3142 0.0
C452 C 0.09099 0.87637 0.31936 0.0
C453 C 0.04934 0.85116 0.31592 0.0
H454 H 0.96219 0.81789 0.26116 0.0
H455 H -0.00357 0.85341 0.28075 0.0
H456 H 0.01058 0.82242 0.2667 0.0
H457 H 0.04889 0.77008 0.29568 0.0
H458 H 0.12228 0.81452 0.30117 0.0
H459 H 0.11562 0.23036 0.34718 0.0
H460 H 0.15454 0.19762 0.34272 0.0
H461 H 0.23098 0.28643 0.29582 0.0
H462 H 0.19199 0.31906 0.29987 0.0
H463 H 0.20724 0.21036 0.28313 0.0
H464 H 0.26881 0.23807 0.3662 0.0
H465 H 0.21444 0.21402 0.36579 0.0
H466 H 0.24519 0.26363 0.35486 0.0
C467 C 0.14055 0.24284 0.33583 0.0
C468 C 0.15077 0.27748 0.32399 0.0
C469 C 0.16303 0.22434 0.33347 0.0
C470 C 0.19627 0.24025 0.31935 0.0
C471 C 0.20574 0.27399 0.30699 0.0
H472 H 0.33644 0.1201 0.32766 0.0
H473 H 0.32724 0.17747 0.3228 0.0
C474 C 0.18329 0.2925 0.30931 0.0
C475 C 0.22032 0.22086 0.3171 0.0
H476 H 0.27019 0.18571 0.34655 0.0
C477 C 0.22168 0.20561 0.2969 0.0
C478 C 0.24021 0.21571 0.33492 0.0
C479 C 0.24253 0.23412 0.35661 0.0
C480 C 0.23952 0.18247 0.29447 0.0
C481 C 0.25579 0.17399 0.31276 0.0
C482 C 0.25742 0.19199 0.33256 0.0
C483 C 0.26436 0.14132 0.31265 0.0
C484 C 0.23935 0.16599 0.2725 0.0
C485 C 0.23224 0.10238 0.30841 0.0
C486 C 0.23726 0.07003 0.31135 0.0
C487 C 0.27456 0.07583 0.31862 0.0
C488 C 0.30748 0.11494 0.32194 0.0
C489 C 0.30224 0.14757 0.31921 0.0
H490 H 0.2402 0.18603 0.25953 0.0
H491 H 0.26559 0.16188 0.27051 0.0
H492 H 0.21089 0.13652 0.27046 0.0
H493 H 0.20253 0.09675 0.30381 0.0
H494 H 0.21141 0.04021 0.30855 0.0
H495 H 0.93813 0.21388 0.35362 0.0
H496 H 0.88707 0.14807 0.33999 0.0
H497 H 0.89677 0.198 0.27666 0.0
H498 H 0.94789 0.26457 0.29043 0.0
H499 H 0.81051 0.11352 0.31328 0.0
H500 H 0.94491 0.1215 0.27436 0.0
H501 H 0.95132 0.15608 0.29538 0.0
H502 H 0.9337 0.16009 0.26924 0.0
C503 C 0.92823 0.21108 0.337 0.0
C504 C 0.94695 0.24395 0.323 0.0
C505 C 0.89907 0.17358 0.32923 0.0
C506 C 0.8887 0.16832 0.30731 0.0
C507 C 0.90461 0.20169 0.29363 0.0
H508 H 0.74004 0.91039 0.28175 0.0
H509 H 0.77077 0.98107 0.27276 0.0
C510 C 0.93352 0.23958 0.30152 0.0
C511 C 0.86691 0.12724 0.29878 0.0
H512 H 0.88768 0.05785 0.28021 0.0
C513 C 0.82669 0.10131 0.30532 0.0
C514 C 0.88859 0.11171 0.28862 0.0
C515 C 0.93207 0.13857 0.28146 0.0
C516 C 0.80855 0.05978 0.30347 0.0
C517 C 0.83141 0.0442 0.29484 0.0
C518 C 0.87047 0.07018 0.28679 0.0
C519 C 0.81754 0.00154 0.29721 0.0
C520 C 0.76639 0.03277 0.31236 0.0
C521 C 0.83509 0.98987 0.31324 0.0
C522 C 0.81765 0.94953 0.31852 0.0
C523 C 0.78237 0.92038 0.30779 0.0
C524 C 0.76693 0.93213 0.29053 0.0
C525 C 0.78436 0.97246 0.28532 0.0
H526 H 0.75392 0.04982 0.31992 0.0
H527 H 0.74558 0.01422 0.29916 0.0
H528 H 0.76677 0.01217 0.32458 0.0
H529 H 0.86088 0.01214 0.32252 0.0
H530 H 0.8304 0.94152 0.33179 0.0
H531 H 0.23172 0.80737 0.38523 0.0
H532 H 0.18911 0.73584 0.39314 0.0
H533 H 0.17387 0.70976 0.32509 0.0
H534 H 0.21615 0.78089 0.31695 0.0
H535 H 0.09881 0.67582 0.35107 0.0
H536 H 0.21536 0.64566 0.38379 0.0
H537 H 0.21432 0.68785 0.39438 0.0
H538 H 0.22881 0.6884 0.3669 0.0
C539 C 0.22002 0.78638 0.37194 0.0
C540 C 0.22723 0.79987 0.35045 0.0
C541 C 0.19556 0.74559 0.37651 0.0
C542 C 0.17825 0.71781 0.35967 0.0
C543 C 0.18678 0.73095 0.33827 0.0
H544 H 0.04358 0.47718 0.32664 0.0
H545 H 0.06246 0.54654 0.33148 0.0
C546 C 0.21118 0.77159 0.33367 0.0
C547 C 0.15029 0.67497 0.36412 0.0
H548 H 0.14872 0.59131 0.38062 0.0
C549 C 0.10944 0.65725 0.35779 0.0
C550 C 0.16434 0.65121 0.37309 0.0
C551 C 0.20812 0.66898 0.37988 0.0
C552 C 0.08241 0.61584 0.35953 0.0
C553 C 0.097 0.59172 0.36741 0.0
C554 C 0.13744 0.60985 0.37469 0.0
C555 C 0.07313 0.54756 0.36588 0.0
C556 C 0.03878 0.59838 0.35264 0.0
C557 C 0.07099 0.52449 0.38373 0.0
C558 C 0.06096 0.48508 0.38089 0.0
C559 C 0.05253 0.46813 0.36018 0.0
C560 C 0.04963 0.48949 0.34279 0.0
C561 C 0.06034 0.5292 0.34558 0.0
H562 H 0.02894 0.6202 0.35504 0.0
H563 H 0.03591 0.59117 0.33519 0.0
H564 H 0.01799 0.5706 0.36167 0.0
H565 H 0.08061 0.53805 0.39953 0.0
H566 H 0.06318 0.46903 0.39456 0.0
H567 H 0.25821 0.46634 0.32466 0.0
H568 H 0.33044 0.50273 0.33366 0.0
H569 H 0.30208 0.50234 0.40083 0.0
H570 H 0.22934 0.4657 0.39207 0.0
H571 H 0.37324 0.57975 0.3578 0.0
H572 H 0.37934 0.45394 0.39608 0.0
H573 H 0.33959 0.44549 0.37732 0.0
H574 H 0.33976 0.46282 0.40404 0.0
C575 C 0.26721 0.47412 0.34136 0.0
C576 C 0.23807 0.4631 0.35767 0.0
C577 C 0.30844 0.49473 0.34644 0.0
C578 C 0.32119 0.50443 0.3679 0.0
C579 C 0.29247 0.49441 0.38422 0.0
H580 H 0.56935 0.67559 0.40108 0.0
H581 H 0.49843 0.62369 0.407 0.0
C582 C 0.25109 0.47389 0.37914 0.0
C583 C 0.36489 0.52643 0.37281 0.0
H584 H 0.44153 0.51547 0.39243 0.0
C585 C 0.38819 0.56594 0.36558 0.0
C586 C 0.38388 0.50788 0.38285 0.0
C587 C 0.35959 0.46511 0.3905 0.0
C588 C 0.43045 0.58742 0.36775 0.0
C589 C 0.44963 0.56876 0.37746 0.0
C590 C 0.42637 0.52945 0.38509 0.0
C591 C 0.49416 0.58999 0.37855 0.0
C592 C 0.45454 0.62963 0.35911 0.0
C593 C 0.51554 0.58635 0.36139 0.0
C594 C 0.55606 0.61604 0.35788 0.0
C595 C 0.57516 0.64965 0.37144 0.0
C596 C 0.55508 0.65034 0.39016 0.0
C597 C 0.51471 0.6206 0.39369 0.0
H598 H 0.43504 0.63854 0.35058 0.0
H599 H 0.47019 0.65078 0.37263 0.0
H600 H 0.47824 0.63266 0.3478 0.0
H601 H 0.49983 0.56283 0.34954 0.0
H602 H 0.57089 0.6146 0.34341 0.0
H603 H 0.4061 0.97615 0.38871 0.0
H604 H 0.46234 0.96476 0.39289 0.0
H605 H 0.48973 0.98904 0.32523 0.0
H606 H 0.43433 0.00177 0.32116 0.0
H607 H 0.4534 0.90147 0.3719 0.0
H608 H 0.60228 0.03331 0.34998 0.0
H609 H 0.55898 0.03721 0.35694 0.0
H610 H 0.56382 0.02254 0.33018 0.0
C611 C 0.42534 0.98085 0.37495 0.0
C612 C 0.41577 0.98952 0.35458 0.0
C613 C 0.4574 0.97425 0.37735 0.0
C614 C 0.48015 0.97583 0.35937 0.0
C615 C 0.47312 0.98832 0.33942 0.0
H616 H 0.60384 0.86039 0.31683 0.0
H617 H 0.57132 0.89915 0.32178 0.0
C618 C 0.44135 -0.00445 0.33708 0.0
C619 C 0.50477 0.95679 0.36051 0.0
H620 H 0.59656 0.96902 0.34745 0.0
C621 C 0.48498 0.91653 0.36696 0.0
C622 C 0.54575 0.97627 0.35382 0.0
C623 C 0.56906 0.01984 0.34754 0.0
C624 C 0.50448 0.89478 0.36615 0.0
C625 C 0.54511 0.91395 0.35895 0.0
C626 C 0.56535 0.95446 0.35296 0.0
C627 C 0.56616 0.89165 0.35639 0.0
C628 C 0.48083 0.85096 0.37206 0.0
C629 C 0.57405 0.87465 0.37426 0.0
C630 C 0.59236 0.85213 0.37151 0.0
C631 C 0.60332 0.84648 0.35081 0.0
C632 C 0.59561 0.86391 0.33298 0.0
C633 C 0.57728 0.88633 0.33577 0.0
H634 H 0.44761 0.83891 0.37293 0.0
H635 H 0.48619 0.83306 0.36017 0.0
H636 H 0.4911 0.84692 0.38809 0.0
H637 H 0.56607 0.87884 0.39034 0.0
H638 H 0.59823 0.83949 0.3856 0.0
H639 H 0.77876 0.15642 0.62949 0.0
H640 H 0.70669 0.11709 0.62005 0.0
H641 H 0.68553 0.19866 0.6559 0.0
H642 H 0.75762 0.23823 0.66562 0.0
H643 H 0.64407 0.0817 0.65279 0.0
H644 H 0.62465 0.18135 0.59698 0.0
H645 H 0.67324 0.18587 0.60173 0.0
H646 H 0.65371 0.20625 0.62073 0.0
C647 C 0.75898 0.16648 0.63511 0.0
C648 C 0.77392 0.20045 0.64841 0.0
C649 C 0.71783 0.14389 0.62967 0.0
C650 C 0.69109 0.15526 0.63711 0.0
C651 C 0.706 0.18985 0.64974 0.0
H652 H 0.47118 0.08099 0.68471 0.0
H653 H 0.53578 0.0876 0.67528 0.0
C654 C 0.7471 0.21227 0.65538 0.0
C655 C 0.64695 0.12911 0.63363 0.0
H656 H 0.56466 0.13167 0.61578 0.0
C657 C 0.62662 0.09202 0.64421 0.0
C658 C 0.62447 0.14235 0.62209 0.0
C659 C 0.64512 0.18098 0.60954 0.0
C660 C 0.58408 0.06965 0.6453 0.0
C661 C 0.56173 0.08497 0.63563 0.0
C662 C 0.58195 0.12004 0.62324 0.0
C663 C 0.51942 0.0705 0.6419 0.0
C664 C 0.56348 0.03111 0.65791 0.0
C665 C 0.48845 0.05762 0.62636 0.0
C666 C 0.45113 0.05322 0.63187 0.0
C667 C 0.44514 0.06275 0.65277 0.0
C668 C 0.47523 0.07328 0.66853 0.0
C669 C 0.51198 0.07684 0.66317 0.0
H670 H 0.58206 0.01692 0.65802 0.0
H671 H 0.5597 0.03753 0.67486 0.0
H672 H 0.53294 0.00965 0.65116 0.0
H673 H 0.49398 0.05317 0.6098 0.0
H674 H 0.42837 0.04558 0.61944 0.0
H675 H 0.9645 0.4103 0.63243 0.0
H676 H 0.95231 0.46436 0.62301 0.0
H677 H 0.90777 0.45978 0.68726 0.0
H678 H 0.919 0.40565 0.69647 0.0
H679 H 0.86927 0.44763 0.62683 0.0
H680 H 0.97876 0.5814 0.67357 0.0
H681 H 0.98855 0.54254 0.66618 0.0
H682 H 0.95712 0.53607 0.68904 0.0
C683 C 0.95358 0.42202 0.64469 0.0
C684 C 0.94278 0.40417 0.66517 0.0
C685 C 0.94645 0.45263 0.63929 0.0
C686 C 0.9295 0.4662 0.65452 0.0
C687 C 0.92152 0.4502 0.67541 0.0
H688 H 0.79294 0.5644 0.6864 0.0
H689 H 0.83338 0.53375 0.68109 0.0
C690 C 0.92785 0.41927 0.68065 0.0
C691 C 0.91397 0.49224 0.64821 0.0
H692 H 0.91397 0.57474 0.66546 0.0
C693 C 0.87967 0.47609 0.63469 0.0
C694 C 0.92766 0.52919 0.65855 0.0
C695 C 0.96531 0.54854 0.6725 0.0
C696 C 0.85643 0.49415 0.63286 0.0
C697 C 0.86841 0.52952 0.6446 0.0
C698 C 0.90463 0.54736 0.65666 0.0
C699 C 0.84156 0.54582 0.64684 0.0
C700 C 0.81765 0.47369 0.61979 0.0
C701 C 0.83189 0.56191 0.6292 0.0
C702 C 0.80827 0.57917 0.63215 0.0
C703 C 0.79445 0.58097 0.65284 0.0
C704 C 0.80322 0.56367 0.67028 0.0
C705 C 0.82649 0.54629 0.6673 0.0
H706 H 0.80981 0.44356 0.6142 0.0
H707 H 0.79194 0.4706 0.62942 0.0
H708 H 0.82118 0.49214 0.60542 0.0
H709 H 0.84359 0.56219 0.61333 0.0
H710 H 0.80233 0.59257 0.61843 0.0
H711 H 0.61837 0.57163 0.607 0.0
H712 H 0.56424 0.50336 0.59857 0.0
H713 H 0.52488 0.48607 0.66483 0.0
H714 H 0.57801 0.55476 0.6731 0.0
H715 H 0.57088 0.44651 0.61673 0.0
H716 H 0.41788 0.41796 0.63483 0.0
H717 H 0.46114 0.46789 0.63102 0.0
H718 H 0.45203 0.44345 0.65683 0.0
C719 C 0.597 0.55375 0.61952 0.0
C720 C 0.60251 0.56813 0.64075 0.0
C721 C 0.56612 0.51479 0.6147 0.0
C722 C 0.54062 0.48953 0.63107 0.0
C723 C 0.54365 0.50517 0.65182 0.0
H724 H 0.47247 0.25378 0.66299 0.0
H725 H 0.50621 0.32512 0.65496 0.0
C726 C 0.57417 0.54444 0.65658 0.0
C727 C 0.51738 0.44573 0.62772 0.0
H728 H 0.42664 0.36084 0.63839 0.0
C729 C 0.53904 0.42785 0.62098 0.0
C730 C 0.47585 0.42134 0.63312 0.0
C731 C 0.45033 0.43875 0.63913 0.0
C732 C 0.52098 0.38627 0.62072 0.0
C733 C 0.48049 0.36202 0.62782 0.0
C734 C 0.45797 0.37965 0.63326 0.0
C735 C 0.4619 0.31861 0.63113 0.0
C736 C 0.54572 0.36874 0.61332 0.0
C737 C 0.42591 0.29145 0.62036 0.0
C738 C 0.40649 0.25069 0.62495 0.0
C739 C 0.42258 0.23645 0.64056 0.0
C740 C 0.45939 0.26369 0.65082 0.0
C741 C 0.47877 0.30446 0.64621 0.0
H742 H 0.57049 0.38946 0.60229 0.0
H743 H 0.55993 0.36351 0.62755 0.0
H744 H 0.52637 0.33974 0.60495 0.0
H745 H 0.41246 0.3019 0.60871 0.0
H746 H 0.37819 0.23054 0.61672 0.0
H747 H 0.74618 0.82065 0.65004 0.0
H748 H 0.75467 0.88461 0.66038 0.0
H749 H 0.69759 0.83468 0.72151 0.0
H750 H 0.68831 0.76978 0.71096 0.0
H751 H 0.69742 0.90975 0.67974 0.0
H752 H 0.82356 0.92568 0.73189 0.0
H753 H 0.80375 0.88962 0.71025 0.0
H754 H 0.77333 0.88172 0.73365 0.0
C755 C 0.7342 0.82294 0.66538 0.0
C756 C 0.71677 0.79061 0.67977 0.0
C757 C 0.73899 0.85938 0.67125 0.0
C758 C 0.72703 0.86425 0.69174 0.0
C759 C 0.70692 0.83126 0.70562 0.0
H760 H 0.8637 0.12017 0.7252 0.0
H761 H 0.81864 0.04818 0.73148 0.0
C762 C 0.70148 0.79433 0.69956 0.0
C763 C 0.74144 0.90528 0.69906 0.0
H764 H 0.82678 0.98458 0.72084 0.0
C765 C 0.72494 0.92605 0.68934 0.0
C766 C 0.77718 0.92625 0.71168 0.0
C767 C 0.79575 0.90493 0.72254 0.0
C768 C 0.74521 0.96785 0.69044 0.0
C769 C 0.78337 0.98914 0.70101 0.0
C770 C 0.79777 0.96812 0.71252 0.0
C771 C 0.81114 0.03254 0.69766 0.0
C772 C 0.72659 0.9889 0.67936 0.0
C773 C 0.82323 0.04718 0.67666 0.0
C774 C 0.84895 0.08798 0.67302 0.0
C775 C 0.8635 0.11501 0.69035 0.0
C776 C 0.85302 0.10009 0.71151 0.0
C777 C 0.82705 0.05908 0.71513 0.0
H778 H 0.69287 0.96989 0.67922 0.0
H779 H 0.7357 0.01775 0.68733 0.0
H780 H 0.7369 -0.00501 0.66235 0.0
H781 H 0.81248 0.02698 0.663 0.0
H782 H 0.85673 0.09838 0.65655 0.0
H783 H 0.90769 0.8095 0.67159 0.0
H784 H 0.97986 0.84334 0.68037 0.0
H785 H 0.95555 0.75359 0.7283 0.0
H786 H 0.88311 0.71885 0.71932 0.0
H787 H 0.02018 0.87459 0.71876 0.0
H788 H 0.04071 0.75172 0.68985 0.0
H789 H -0.00445 0.75311 0.68395 0.0
H790 H 0.00308 0.73912 0.71035 0.0
C791 C 0.91753 0.79703 0.68411 0.0
C792 C 0.8897 0.7613 0.69462 0.0
C793 C 0.9588 0.81639 0.6891 0.0
C794 C 0.97298 0.80051 0.70471 0.0
C795 C 0.94521 0.76577 0.71587 0.0
H796 H 0.2304 0.96871 0.72922 0.0
H797 H 0.16272 0.91293 0.73868 0.0
C798 C 0.90385 0.74618 0.7108 0.0
C799 C 0.0171 0.82057 0.70879 0.0
H800 H 0.09948 0.81163 0.70029 0.0
C801 C 0.03761 0.86075 0.7151 0.0
C802 C 0.03942 0.80216 0.70389 0.0
C803 C 0.01877 0.75924 0.69649 0.0
C804 C 0.08009 0.88398 0.71532 0.0
C805 C 0.10262 0.86596 0.70981 0.0
C806 C 0.08205 0.82511 0.7047 0.0
C807 C 0.14688 0.89058 0.70604 0.0
C808 C 0.1002 0.92823 0.71986 0.0
C809 C 0.16164 0.8938 0.68502 0.0
C810 C 0.20064 0.9249 0.67971 0.0
C811 C 0.2249 0.95335 0.69533 0.0
C812 C 0.21184 0.94739 0.71685 0.0
C813 C 0.17322 0.91572 0.72225 0.0
H814 H 0.07809 0.93836 0.71971 0.0
H815 H 0.11468 0.93485 0.73603 0.0
H816 H 0.12411 0.94602 0.70776 0.0
H817 H 0.14183 0.87443 0.67231 0.0
H818 H 0.2101 0.92886 0.66301 0.0
H819 H 0.24856 0.1745 0.65343 0.0
H820 H 0.21784 0.21341 0.66253 0.0
H821 H 0.20053 0.17047 0.728 0.0
H822 H 0.23134 0.13109 0.71909 0.0
H823 H 0.13132 0.16465 0.70778 0.0
H824 H 0.26727 0.31671 0.69907 0.0
H825 H 0.2586 0.28449 0.67653 0.0
H826 H 0.27052 0.2726 0.70249 0.0
C827 C 0.23821 0.17315 0.66979 0.0
C828 C 0.24247 0.14966 0.68555 0.0
C829 C 0.2211 0.19583 0.675 0.0
C830 C 0.20797 0.19556 0.69604 0.0
C831 C 0.21116 0.17147 0.71173 0.0
H832 H 0.04852 0.28078 0.73314 0.0
H833 H 0.10207 0.26543 0.73773 0.0
C834 C 0.22849 0.14883 0.70657 0.0
C835 C 0.18833 0.2184 0.70106 0.0
H836 H 0.20256 0.31197 0.69866 0.0
C837 C 0.14697 0.19693 0.70624 0.0
C838 C 0.20902 0.26047 0.69889 0.0
C839 C 0.25392 0.28502 0.69413 0.0
C840 C 0.12497 0.21612 0.70808 0.0
C841 C 0.14535 0.25815 0.70527 0.0
C842 C 0.18715 0.27985 0.70091 0.0
C843 C 0.12252 0.27896 0.70468 0.0
C844 C 0.07963 0.19082 0.71171 0.0
C845 C 0.11911 0.29529 0.68518 0.0
C846 C 0.08918 0.30499 0.68267 0.0
C847 C 0.06213 0.29792 0.69957 0.0
C848 C 0.06876 0.28602 0.71979 0.0
C849 C 0.09913 0.27703 0.7224 0.0
H850 H 0.06765 0.15851 0.70898 0.0
H851 H 0.0728 0.19449 0.7286 0.0
H852 H 0.06314 0.20024 0.70084 0.0
H853 H 0.13718 0.29729 0.67137 0.0
H854 H 0.08465 0.31407 0.66691 0.0
H855 H 0.15757 0.42172 0.25595 0.0
H856 H 0.16026 0.44293 0.21852 0.0
H857 H 0.03961 0.42305 0.22455 0.0
H858 H 0.03684 0.40252 0.26194 0.0
H859 H 0.1106 0.39925 0.18518 0.0
H860 H 0.10059 0.53352 0.1978 0.0
H861 H 0.11243 0.51017 0.21939 0.0
H862 H 0.06045 0.49063 0.21131 0.0
C863 C 0.13173 0.42219 0.24938 0.0
C864 C 0.09701 0.41049 0.262 0.0
C865 C 0.13337 0.43438 0.22799 0.0
C866 C 0.10048 0.43534 0.21888 0.0
C867 C 0.06581 0.42361 0.23142 0.0
H868 H 0.99226 0.43233 0.10139 0.0
H869 H 0.01579 0.4351 0.13822 0.0
C870 C 0.06415 0.41153 0.25277 0.0
C871 C 0.10096 0.44595 0.19587 0.0
H872 H 0.08174 0.50359 0.16239 0.0
C873 C 0.10519 0.42264 0.18015 0.0
C874 C 0.09418 0.47667 0.18935 0.0
C875 C 0.09209 0.50444 0.20537 0.0
C876 C 0.10008 0.42747 0.15815 0.0
C877 C 0.09086 0.45656 0.15178 0.0
C878 C 0.08871 0.48124 0.16738 0.0
C879 C 0.07844 0.45839 0.12942 0.0
C880 C 0.10218 0.39992 0.14197 0.0
C881 C 0.10618 0.4714 0.1123 0.0
C882 C 0.09283 0.47001 0.09108 0.0
C883 C 0.0515 0.4553 0.08675 0.0
C884 C 0.02422 0.4435 0.1041 0.0
C885 C 0.03761 0.44519 0.12519 0.0
H886 H 0.10547 0.37621 0.14981 0.0
H887 H 0.07436 0.3855 0.13176 0.0
H888 H 0.12861 0.41755 0.13121 0.0
H889 H 0.13793 0.482 0.11532 0.0
H890 H 0.11458 0.47933 0.07807 0.0
H891 H 0.64529 0.67435 0.26748 0.0
H892 H 0.62563 0.65125 0.23036 0.0
H893 H 0.59116 0.73871 0.22033 0.0
H894 H 0.61166 0.7627 0.25724 0.0
H895 H 0.55365 0.62065 0.20783 0.0
H896 H 0.67239 0.76517 0.17233 0.0
H897 H 0.67167 0.75379 0.20058 0.0
H898 H 0.63821 0.76916 0.19022 0.0
C899 C 0.63334 0.68857 0.25744 0.0
C900 C 0.63053 0.72072 0.26527 0.0
C901 C 0.62208 0.67529 0.23622 0.0
C902 C 0.60772 0.6938 0.22245 0.0
C903 C 0.60315 0.72468 0.23051 0.0
H904 H 0.55365 0.65998 0.08411 0.0
H905 H 0.55459 0.6774 0.12213 0.0
C906 C 0.61471 0.73821 0.25166 0.0
C907 C 0.59863 0.68143 0.19954 0.0
H908 H 0.62725 0.71529 0.14804 0.0
C909 C 0.56964 0.64136 0.19475 0.0
C910 C 0.61956 0.70852 0.18248 0.0
C911 C 0.65246 0.75147 0.18659 0.0
C912 C 0.56116 0.62762 0.17337 0.0
C913 C 0.58248 0.65459 0.1564 0.0
C914 C 0.61078 0.6948 0.16112 0.0
C915 C 0.57819 0.64123 0.13372 0.0
C916 C 0.52955 0.58436 0.16908 0.0
C917 C 0.59109 0.61512 0.12771 0.0
C918 C 0.59085 0.60532 0.10608 0.0
C919 C 0.57769 0.62147 0.08997 0.0
C920 C 0.5638 0.64689 0.0961 0.0
C921 C 0.56435 0.65691 0.11779 0.0
H922 H 0.50862 0.57046 0.18296 0.0
H923 H 0.51138 0.58135 0.15447 0.0
H924 H 0.54496 0.56746 0.1663 0.0
H925 H 0.60256 0.60326 0.13971 0.0
H926 H 0.60174 0.58566 0.10195 0.0
H927 H 0.31647 0.96936 0.07234 0.0
H928 H 0.30418 0.96359 0.11118 0.0
H929 H 0.41315 0.9603 0.1217 0.0
H930 H 0.42512 0.96493 0.08291 0.0
H931 H 0.3519 0.90664 0.14659 0.0
H932 H 0.36542 0.05417 0.1535 0.0
H933 H 0.32683 0.02149 0.1347 0.0
H934 H 0.37929 0.03852 0.12938 0.0
C935 C 0.33771 0.96716 0.0829 0.0
C936 C 0.37195 0.96791 0.07452 0.0
C937 C 0.3308 0.96419 0.10511 0.0
C938 C 0.35831 0.96254 0.11936 0.0
C939 C 0.39171 0.96187 0.111 0.0
H940 H 0.36712 0.00948 0.25729 0.0
H941 H 0.38345 0.01237 0.21899 0.0
C942 C 0.39846 0.96447 0.0888 0.0
C943 C 0.35243 0.96163 0.143 0.0
H944 H 0.34093 0.01205 0.18442 0.0
C945 C 0.34969 0.92978 0.15489 0.0
C946 C 0.35044 0.99229 0.15386 0.0
C947 C 0.35607 0.02877 0.14225 0.0
C948 C 0.34402 0.92724 0.17729 0.0
C949 C 0.33993 0.95682 0.18799 0.0
C950 C 0.34365 0.98917 0.17617 0.0
C951 C 0.33092 0.95441 0.21133 0.0
C952 C 0.34307 0.89318 0.18929 0.0
C953 C 0.29585 0.92105 0.21969 0.0
C954 C 0.28664 0.91915 0.24155 0.0
C955 C 0.312 0.95091 0.25547 0.0
C956 C 0.34698 0.9845 0.24703 0.0
C957 C 0.35635 0.98621 0.22515 0.0
H958 H 0.35926 0.88114 0.18029 0.0
H959 H 0.35709 0.90271 0.20553 0.0
H960 H 0.31103 0.86852 0.19127 0.0
H961 H 0.27518 0.89667 0.20924 0.0
H962 H 0.25921 0.893 0.24743 0.0
H963 H 0.48832 0.11579 0.92308 0.0
H964 H 0.49216 0.14106 0.8865 0.0
H965 H 0.40089 0.02259 0.86544 0.0
H966 H 0.39732 -0.0031 0.90172 0.0
H967 H 0.46498 0.06261 0.83649 0.0
H968 H 0.40284 0.15681 0.86147 0.0
H969 H 0.44811 0.166 0.87519 0.0
H970 H 0.4014 0.11906 0.87883 0.0
C971 C 0.46929 0.09503 0.91063 0.0
C972 C 0.44222 0.05435 0.91539 0.0
C973 C 0.47142 0.10959 0.88976 0.0
C974 C 0.44633 0.08381 0.87338 0.0
C975 C 0.42044 0.043 0.87789 0.0
H976 H 0.33268 0.09631 0.7612 0.0
H977 H 0.35742 0.09533 0.79722 0.0
C978 C 0.41838 0.02839 0.89868 0.0
C979 C 0.44544 0.09909 0.85166 0.0
H980 H 0.41456 0.15475 0.82455 0.0
C981 C 0.45455 0.08322 0.83383 0.0
C982 C 0.43158 0.12581 0.84834 0.0
C983 C 0.4201 0.14278 0.86691 0.0
C984 C 0.44852 0.092 0.8127 0.0
C985 C 0.43367 0.11792 0.80938 0.0
C986 C 0.42624 0.13515 0.82721 0.0
C987 C 0.42046 0.12313 0.78782 0.0
C988 C 0.45578 0.07162 0.79416 0.0
C989 C 0.44794 0.14024 0.77067 0.0
C990 C 0.43383 0.14072 0.7499 0.0
C991 C 0.39203 0.12418 0.74603 0.0
C992 C 0.36501 0.10903 0.76352 0.0
C993 C 0.37911 0.10854 0.78418 0.0
H994 H 0.46065 0.04742 0.7997 0.0
H995 H 0.42962 0.05862 0.78279 0.0
H996 H 0.48322 0.09393 0.78521 0.0
H997 H 0.4801 0.1523 0.77325 0.0
H998 H 0.45548 0.15281 0.7368 0.0
H999 H 0.92106 0.41592 0.92509 0.0
H1000 H 0.89833 0.39329 0.88819 0.0
H1001 H 0.93435 0.30631 0.89463 0.0
H1002 H 0.95653 0.32818 0.93161 0.0
H1003 H 0.94469 0.39534 0.85458 0.0
H1004 H 0.82081 0.23928 0.86942 0.0
H1005 H 0.84228 0.27636 0.89055 0.0
H1006 H 0.86756 0.2508 0.8822 0.0
C1007 C 0.92384 0.39171 0.91875 0.0
C1008 C 0.94061 0.37384 0.93136 0.0
C1009 C 0.91076 0.3788 0.89766 0.0
C1010 C 0.91398 0.34766 0.88879 0.0
C1011 C 0.9306 0.3297 0.90133 0.0
H1012 H 0.91488 0.24717 0.76921 0.0
H1013 H 0.91346 0.26526 0.80659 0.0
C1014 C 0.94359 0.34249 0.92243 0.0
C1015 C 0.90267 0.33574 0.86598 0.0
H1016 H 0.84751 0.25467 0.83337 0.0
C1017 C 0.92289 0.36475 0.84991 0.0
C1018 C 0.87408 0.29584 0.85996 0.0
C1019 C 0.84963 0.26387 0.87645 0.0
C1020 C 0.91703 0.35446 0.82798 0.0
C1021 C 0.88983 0.31421 0.82202 0.0
C1022 C 0.86836 0.28551 0.83803 0.0
C1023 C 0.88661 0.30068 0.79946 0.0
C1024 C 0.94156 0.38628 0.81141 0.0
C1025 C 0.87098 0.31383 0.7831 0.0
C1026 C 0.8717 0.3035 0.76158 0.0
C1027 C 0.8882 0.27996 0.75615 0.0
C1028 C 0.90227 0.26561 0.77276 0.0
C1029 C 0.90137 0.27579 0.79417 0.0
H1030 H 0.96573 0.41455 0.81891 0.0
H1031 H 0.95592 0.37564 0.79993 0.0
H1032 H 0.92111 0.39289 0.80206 0.0
H1033 H 0.85899 0.33269 0.78694 0.0
H1034 H 0.86054 0.31494 0.74918 0.0
H1035 H 0.65676 0.65858 0.74611 0.0
H1036 H 0.64322 0.6495 0.78479 0.0
H1037 H 0.71414 0.59352 0.79019 0.0
H1038 H 0.72906 0.6038 0.75164 0.0
H1039 H 0.60677 0.5863 0.81064 0.0
H1040 H 0.76868 0.67979 0.83474 0.0
H1041 H 0.75187 0.67735 0.80732 0.0
H1042 H 0.75886 0.63849 0.81794 0.0
C1043 C 0.66933 0.64413 0.75549 0.0
C1044 C 0.69436 0.63229 0.74581 0.0
C1045 C 0.66158 0.639 0.77763 0.0
C1046 C 0.67846 0.62171 0.79053 0.0
C1047 C 0.70183 0.60809 0.78072 0.0
H1048 H 0.59903 0.54206 0.92275 0.0
H1049 H 0.61171 0.54503 0.88403 0.0
C1050 C 0.71006 0.6137 0.75863 0.0
C1051 C 0.67188 0.61839 0.81423 0.0
H1052 H 0.72161 0.64396 0.86269 0.0
C1053 C 0.63188 0.59896 0.82203 0.0
C1054 C 0.70467 0.63553 0.82911 0.0
C1055 C 0.74842 0.65932 0.82188 0.0
C1056 C 0.62373 0.59598 0.84422 0.0
C1057 C 0.65649 0.6118 0.85911 0.0
C1058 C 0.69649 0.63141 0.85131 0.0
C1059 C 0.65007 0.60957 0.88282 0.0
C1060 C 0.58013 0.57699 0.85142 0.0
C1061 C 0.66889 0.64465 0.89526 0.0
C1062 C 0.66239 0.64298 0.9175 0.0
C1063 C 0.6367 0.60615 0.92775 0.0
C1064 C 0.61861 0.57095 0.91533 0.0
C1065 C 0.62557 0.57262 0.89314 0.0
H1066 H 0.56044 0.57737 0.83838 0.0
H1067 H 0.56824 0.54531 0.85579 0.0
H1068 H 0.57761 0.59255 0.86571 0.0
H1069 H 0.68813 0.6735 0.88771 0.0
H1070 H 0.67678 0.67066 0.92656 0.0
H1071 H 0.81003 0.84191 0.41072 0.0
H1072 H 0.83134 0.83912 0.44768 0.0
H1073 H 0.70805 0.78958 0.46945 0.0
H1074 H 0.68679 0.79322 0.43299 0.0
H1075 H 0.76291 0.84323 0.4981 0.0
H1076 H 0.80545 0.7331 0.4738 0.0
H1077 H 0.83208 0.78067 0.46037 0.0
H1078 H 0.77841 0.74787 0.45601 0.0
C1079 C 0.78762 0.83109 0.42345 0.0
C1080 C 0.74659 0.81733 0.4188 0.0
C1081 C 0.79979 0.8292 0.44454 0.0
C1082 C 0.7711 0.81328 0.46124 0.0
C1083 C 0.7307 0.80176 0.45681 0.0
H1084 H 0.738 0.67837 0.57376 0.0
H1085 H 0.7445 0.70645 0.53784 0.0
C1086 C 0.71858 0.80378 0.43588 0.0
C1087 C 0.78181 0.80609 0.48311 0.0
H1088 H 0.80844 0.7474 0.51065 0.0
C1089 C 0.77343 0.82273 0.50089 0.0
C1090 C 0.79512 0.77896 0.48667 0.0
C1091 C 0.80303 0.7588 0.46827 0.0
C1092 C 0.77632 0.81174 0.52209 0.0
C1093 C 0.78893 0.78406 0.52563 0.0
C1094 C 0.79896 0.76873 0.50789 0.0
C1095 C 0.78779 0.76745 0.54734 0.0
C1096 C 0.76356 0.8281 0.5404 0.0
C1097 C 0.8107 0.79226 0.56459 0.0
C1098 C 0.80676 0.7763 0.58528 0.0
C1099 C 0.78021 0.73513 0.58904 0.0
C1100 C 0.75866 0.71019 0.57151 0.0
C1101 C 0.76239 0.7262 0.55092 0.0
H1102 H 0.74647 0.84208 0.53459 0.0
H1103 H 0.74425 0.80411 0.55205 0.0
H1104 H 0.79102 0.85131 0.54907 0.0
H1105 H 0.83121 0.82403 0.56211 0.0
H1106 H 0.82408 0.79631 0.59837 0.0
H1107 H 0.2099 -0.00382 0.40718 0.0
H1108 H 0.20501 0.01161 0.44499 0.0
H1109 H 0.26476 0.9494 0.46508 0.0
H1110 H 0.26983 0.93388 0.42764 0.0
H1111 H 0.19074 0.93224 0.48951 0.0
H1112 H 0.30904 0.09395 0.48103 0.0
H1113 H 0.26775 0.07205 0.46188 0.0
H1114 H 0.30447 0.05703 0.46198 0.0
C1115 C 0.22174 0.98557 0.41966 0.0
C1116 C 0.24052 0.96404 0.41437 0.0
C1117 C 0.21901 -0.00551 0.44121 0.0
C1118 C 0.23479 0.98182 0.45771 0.0
C1119 C 0.25244 0.95943 0.45252 0.0
H1120 H 0.28707 -0.00586 0.59133 0.0
H1121 H 0.26724 0.97536 0.55383 0.0
C1122 C 0.25544 0.95075 0.43109 0.0
C1123 C 0.23457 0.99288 0.48045 0.0
H1124 H 0.28465 0.07034 0.51577 0.0
C1125 C 0.21082 0.96252 0.49528 0.0
C1126 C 0.26067 0.03242 0.48781 0.0
C1127 C 0.28718 0.0659 0.47246 0.0
C1128 C 0.2133 0.97049 0.51746 0.0
C1129 C 0.24106 0.00964 0.52497 0.0
C1130 C 0.26347 0.04033 0.51 0.0
C1131 C 0.24969 0.01895 0.54824 0.0
C1132 C 0.18638 0.93682 0.53261 0.0
C1133 C 0.24711 0.05019 0.55751 0.0
C1134 C 0.25898 0.06141 0.57892 0.0
C1135 C 0.2738 0.04166 0.59145 0.0
C1136 C 0.27557 0.00984 0.58222 0.0
C1137 C 0.26391 -0.00118 0.56079 0.0
H1138 H 0.15817 0.91371 0.52437 0.0
H1139 H 0.20288 0.9222 0.53828 0.0
H1140 H 0.17785 0.94791 0.54687 0.0
H1141 H 0.23649 0.06631 0.54806 0.0
H1142 H 0.25717 0.08602 0.58551 0.0
H1143 H 0.02085 0.33246 0.60087 0.0
H1144 H 0.04055 0.33764 0.56308 0.0
H1145 H 0.94741 0.21416 0.55298 0.0
H1146 H 0.92743 0.20845 0.59083 0.0
H1147 H 0.02709 0.24042 0.53356 0.0
H1148 H 0.96641 0.33814 0.51383 0.0
H1149 H 0.00072 0.35429 0.53644 0.0
H1150 H 0.95252 0.30817 0.53803 0.0
C1151 C 0.00467 0.30626 0.5907 0.0
C1152 C 0.97228 0.27013 0.59886 0.0
C1153 C 0.01593 0.30934 0.56909 0.0
C1154 C -0.00496 0.27643 0.55525 0.0
C1155 C 0.96375 0.23991 0.56344 0.0
H1156 H 0.02159 0.25531 0.41622 0.0
H1157 H 0.00245 0.23887 0.45419 0.0
C1158 C 0.95235 0.23679 0.58506 0.0
C1159 C 0.00495 0.28075 0.53203 0.0
H1160 H 0.00525 0.3307 0.48686 0.0
C1161 C 0.02213 0.25991 0.52324 0.0
C1162 C -0.0019 0.30599 0.51869 0.0
C1163 C 0.9781 0.32771 0.52711 0.0
C1164 C 0.03415 0.26493 0.50153 0.0
C1165 C 0.02813 0.29093 0.48834 0.0
C1166 C 0.01002 0.31094 0.49706 0.0
C1167 C 0.04185 0.29944 0.46565 0.0
C1168 C 0.05441 0.24351 0.49309 0.0
C1169 C 0.07021 0.33885 0.45955 0.0
C1170 C 0.08087 0.34836 0.43798 0.0
C1171 C 0.06335 0.31863 0.42198 0.0
C1172 C 0.03577 0.27885 0.42817 0.0
C1173 C 0.02493 0.26938 0.44985 0.0
H1174 H 0.06466 0.23163 0.50634 0.0
H1175 H 0.03247 0.21798 0.48291 0.0
H1176 H 0.08102 0.26381 0.48295 0.0
H1177 H 0.0836 0.36249 0.47149 0.0
H1178 H 0.10239 0.37926 0.43384 0.0
loop_
_geom_bond_atom_site_label_1
_geom_bond_atom_site_label_2
_geom_bond_distance
_geom_bond_site_symmetry_2
_ccdc_geom_bond_type
O0 Zn1 1.987 . S
O0 C16 1.225 1_556 S
Zn1 O0 1.987 . S
Zn1 O2 1.933 1_656 S
Zn1 O8 1.913 . S
Zn1 O13 1.915 1_655 S
O2 Zn1 1.933 1_454 S
O2 Zn3 1.923 1_454 S
O2 Zn4 1.950 1_455 S
O2 Zn5 1.945 . S
Zn3 O2 1.923 1_656 S
Zn3 O6 1.933 1_655 S
Zn3 O9 1.941 . S
Zn3 O10 1.965 1_556 S
Zn4 O2 1.950 1_655 S
Zn4 O11 1.938 . S
Zn4 O12 1.906 . S
Zn4 O22 1.953 . S
Zn5 O2 1.945 . S
Zn5 O7 1.932 . S
Zn5 O14 1.977 . S
Zn5 O15 1.910 . S
O6 Zn3 1.933 1_455 S
O6 C17 1.226 1_556 S
O7 Zn5 1.932 . S
O7 C17 1.307 . S
O8 Zn1 1.913 . S
O8 C19 1.269 . S
O9 Zn3 1.941 . S
O9 C19 1.278 . S
O10 Zn3 1.965 1_554 S
O10 C18 1.303 . S
O11 Zn4 1.938 . S
O11 C18 1.247 . S
O12 Zn4 1.906 . S
O12 C20 1.304 1_655 S
O13 Zn1 1.915 1_455 S
O13 C21 1.311 1_556 S
O14 Zn5 1.977 . S
O14 C20 1.272 . S
O15 Zn5 1.910 . S
O15 C21 1.231 . S
C16 O0 1.225 1_554 S
C16 O22 1.298 . S
C17 O6 1.226 1_554 S
C17 O7 1.307 . S
C18 O10 1.303 . S
C18 O11 1.247 . S
C19 O8 1.269 . S
C19 O9 1.278 . S
C20 O12 1.304 1_455 S
C20 O14 1.272 . S
C21 O13 1.311 1_554 S
C21 O15 1.231 . S
O22 Zn4 1.953 . S
O22 C16 1.298 . S
O23 Zn24 1.953 . S
O23 C39 1.225 1_556 S
Zn24 O23 1.953 . S
Zn24 O25 1.949 1_556 S
Zn24 O31 1.919 . S
Zn24 O36 1.924 . S
O25 Zn24 1.949 1_554 S
O25 Zn26 1.923 1_554 S
O25 Zn27 1.950 . S
O25 Zn28 1.945 . S
Zn26 O25 1.923 1_556 S
Zn26 O29 1.933 . S
Zn26 O32 1.941 . S
Zn26 O33 1.965 1_556 S
Zn27 O25 1.950 . S
Zn27 O34 1.938 . S
Zn27 O35 1.906 . S
Zn27 O45 1.953 . S
Zn28 O25 1.945 . S
Zn28 O30 1.932 . S
Zn28 O37 1.977 . S
Zn28 O38 1.910 . S
O29 Zn26 1.933 . S
O29 C40 1.226 1_556 S
O30 Zn28 1.932 . S
O30 C40 1.307 . S
O31 Zn24 1.919 . S
O31 C42 1.253 . S
O32 Zn26 1.941 . S
O32 C42 1.283 . S
O33 Zn26 1.965 1_554 S
O33 C41 1.303 . S
O34 Zn27 1.938 . S
O34 C41 1.247 . S
O35 Zn27 1.906 . S
O35 C43 1.304 . S
O36 Zn24 1.924 . S
O36 C44 1.311 1_556 S
O37 Zn28 1.977 . S
O37 C43 1.272 . S
O38 Zn28 1.910 . S
O38 C44 1.231 . S
C39 O23 1.225 1_554 S
C39 O45 1.298 . S
C40 O29 1.226 1_554 S
C40 O30 1.307 . S
C41 O33 1.303 . S
C41 O34 1.247 . S
C42 O31 1.253 . S
C42 O32 1.283 . S
C43 O35 1.304 . S
C43 O37 1.272 . S
C44 O36 1.311 1_554 S
C44 O38 1.231 . S
O45 Zn27 1.953 . S
O45 C39 1.298 . S
O46 Zn47 1.953 1_565 S
O46 C62 1.225 . S
Zn47 O46 1.953 1_545 S
Zn47 O48 1.949 . S
Zn47 O54 1.919 . S
Zn47 O59 1.924 . S
O48 Zn47 1.949 . S
O48 Zn49 1.923 . S
O48 Zn50 1.950 1_544 S
O48 Zn51 1.945 1_554 S
Zn49 O48 1.923 . S
Zn49 O52 1.933 . S
Zn49 O55 1.941 . S
Zn49 O56 1.965 1_545 S
Zn50 O48 1.950 1_566 S
Zn50 O57 1.938 . S
Zn50 O58 1.906 1_565 S
Zn50 O68 1.953 . S
Zn51 O48 1.945 1_556 S
Zn51 O53 1.932 . S
Zn51 O60 1.977 . S
Zn51 O61 1.910 . S
O52 Zn49 1.933 . S
O52 C63 1.226 . S
O53 Zn51 1.932 . S
O53 C63 1.307 1_556 S
O54 Zn47 1.919 . S
O54 C65 1.253 . S
O55 Zn49 1.941 . S
O55 C65 1.283 . S
O56 Zn49 1.965 1_565 S
O56 C64 1.303 . S
O57 Zn50 1.938 . S
O57 C64 1.247 1_556 S
O58 Zn50 1.906 1_545 S
O58 C66 1.304 . S
O59 Zn47 1.924 . S
O59 C67 1.311 . S
O60 Zn51 1.977 . S
O60 C66 1.272 . S
O61 Zn51 1.910 . S
O61 C67 1.231 1_556 S
C62 O46 1.225 . S
C62 O68 1.298 1_554 S
C63 O52 1.226 . S
C63 O53 1.307 1_554 S
C64 O56 1.303 . S
C64 O57 1.247 1_554 S
C65 O54 1.253 . S
C65 O55 1.283 . S
C66 O58 1.304 . S
C66 O60 1.272 . S
C67 O59 1.311 . S
C67 O61 1.231 1_554 S
O68 Zn50 1.953 . S
O68 C62 1.298 1_556 S
O69 Zn70 1.953 . S
O69 C85 1.225 . S
Zn70 O69 1.953 . S
Zn70 O71 1.949 . S
Zn70 O77 1.919 . S
Zn70 O82 1.924 . S
O71 Zn70 1.949 . S
O71 Zn72 1.923 . S
O71 Zn73 1.950 . S
O71 Zn74 1.945 . S
Zn72 O71 1.923 . S
Zn72 O75 1.933 . S
Zn72 O78 1.941 . S
Zn72 O79 1.965 . S
Zn73 O71 1.950 . S
Zn73 O80 1.938 . S
Zn73 O81 1.906 . S
Zn73 O91 1.953 . S
Zn74 O71 1.945 . S
Zn74 O76 1.932 . S
Zn74 O83 1.977 . S
Zn74 O84 1.910 . S
O75 Zn72 1.933 . S
O75 C86 1.226 . S
O76 Zn74 1.932 . S
O76 C86 1.307 . S
O77 Zn70 1.919 . S
O77 C88 1.253 . S
O78 Zn72 1.941 . S
O78 C88 1.283 . S
O79 Zn72 1.965 . S
O79 C87 1.303 . S
O80 Zn73 1.938 . S
O80 C87 1.247 . S
O81 Zn73 1.906 . S
O81 C89 1.304 . S
O82 Zn70 1.924 . S
O82 C90 1.311 . S
O83 Zn74 1.977 . S
O83 C89 1.272 . S
O84 Zn74 1.910 . S
O84 C90 1.231 . S
C85 O69 1.225 . S
C85 O91 1.298 . S
C86 O75 1.226 . S
C86 O76 1.307 . S
C87 O79 1.303 . S
C87 O80 1.247 . S
C88 O77 1.253 . S
C88 O78 1.283 . S
C89 O81 1.304 . S
C89 O83 1.272 . S
C90 O82 1.311 . S
C90 O84 1.231 . S
O91 Zn73 1.953 . S
O91 C85 1.298 . S
O92 Zn93 1.953 . S
O92 C108 1.225 . S
Zn93 O92 1.953 . S
Zn93 O94 1.949 . S
Zn93 O100 1.919 . S
Zn93 O105 1.924 . S
O94 Zn93 1.949 . S
O94 Zn95 1.923 . S
O94 Zn96 1.950 . S
O94 Zn97 1.945 . S
Zn95 O94 1.923 . S
Zn95 O98 1.933 1_565 S
Zn95 O101 1.941 . S
Zn95 O102 1.965 . S
Zn96 O94 1.950 . S
Zn96 O103 1.938 . S
Zn96 O104 1.906 . S
Zn96 O114 1.953 . S
Zn97 O94 1.945 . S
Zn97 O99 1.932 1_565 S
Zn97 O106 1.977 . S
Zn97 O107 1.910 . S
O98 Zn95 1.933 1_545 S
O98 C109 1.226 . S
O99 Zn97 1.932 1_545 S
O99 C109 1.307 . S
O100 Zn93 1.919 . S
O100 C111 1.253 . S
O101 Zn95 1.941 . S
O101 C111 1.283 . S
O102 Zn95 1.965 . S
O102 C110 1.303 . S
O103 Zn96 1.938 . S
O103 C110 1.247 . S
O104 Zn96 1.906 . S
O104 C112 1.304 . S
O105 Zn93 1.924 . S
O105 C113 1.311 . S
O106 Zn97 1.977 . S
O106 C112 1.272 . S
O107 Zn97 1.910 . S
O107 C113 1.231 . S
C108 O92 1.225 . S
C108 O114 1.298 . S
C109 O98 1.226 . S
C109 O99 1.307 . S
C110 O102 1.303 . S
C110 O103 1.247 . S
C111 O100 1.253 . S
C111 O101 1.283 . S
C112 O104 1.304 . S
C112 O106 1.272 . S
C113 O105 1.311 . S
C113 O107 1.231 . S
O114 Zn96 1.953 . S
O114 C108 1.298 . S
O115 Zn116 1.953 . S
O115 C131 1.225 . S
Zn116 O115 1.953 . S
Zn116 O117 1.949 . S
Zn116 O123 1.919 . S
Zn116 O128 1.924 . S
O117 Zn116 1.949 . S
O117 Zn118 1.923 . S
O117 Zn119 1.950 . S
O117 Zn120 1.945 . S
Zn118 O117 1.923 . S
Zn118 O121 1.933 . S
Zn118 O124 1.941 . S
Zn118 O125 1.965 . S
Zn119 O117 1.950 . S
Zn119 O126 1.938 . S
Zn119 O127 1.906 . S
Zn119 O137 1.953 . S
Zn120 O117 1.945 . S
Zn120 O122 1.932 . S
Zn120 O129 1.977 . S
Zn120 O130 1.910 . S
O121 Zn118 1.933 . S
O121 C132 1.226 . S
O122 Zn120 1.932 . S
O122 C132 1.307 . S
O123 Zn116 1.919 . S
O123 C134 1.253 . S
O124 Zn118 1.941 . S
O124 C134 1.283 . S
O125 Zn118 1.965 . S
O125 C133 1.303 . S
O126 Zn119 1.938 . S
O126 C133 1.247 . S
O127 Zn119 1.906 . S
O127 C135 1.304 . S
O128 Zn116 1.924 . S
O128 C136 1.311 . S
O129 Zn120 1.977 . S
O129 C135 1.272 . S
O130 Zn120 1.910 . S
O130 C136 1.231 . S
C131 O115 1.225 . S
C131 O137 1.298 . S
C132 O121 1.226 . S
C132 O122 1.307 . S
C133 O125 1.303 . S
C133 O126 1.247 . S
C134 O123 1.253 . S
C134 O124 1.283 . S
C135 O127 1.304 . S
C135 O129 1.272 . S
C136 O128 1.311 . S
C136 O130 1.231 . S
O137 Zn119 1.953 . S
O137 C131 1.298 . S
O138 Zn139 1.953 . S
O138 C154 1.225 . S
Zn139 O138 1.953 . S
Zn139 O140 1.949 . S
Zn139 O146 1.919 . S
Zn139 O151 1.924 . S
O140 Zn139 1.949 . S
O140 Zn141 1.923 . S
O140 Zn142 1.950 . S
O140 Zn143 1.945 . S
Zn141 O140 1.923 . S
Zn141 O144 1.933 . S
Zn141 O147 1.941 . S
Zn141 O148 1.965 . S
Zn142 O140 1.950 . S
Zn142 O149 1.938 . S
Zn142 O150 1.906 . S
Zn142 O160 1.953 . S
Zn143 O140 1.945 . S
Zn143 O145 1.932 . S
Zn143 O152 1.977 . S
Zn143 O153 1.910 . S
O144 Zn141 1.933 . S
O144 C155 1.226 . S
O145 Zn143 1.932 . S
O145 C155 1.307 . S
O146 Zn139 1.919 . S
O146 C157 1.253 . S
O147 Zn141 1.941 . S
O147 C157 1.283 . S
O148 Zn141 1.965 . S
O148 C156 1.303 . S
O149 Zn142 1.938 . S
O149 C156 1.247 . S
O150 Zn142 1.906 . S
O150 C158 1.304 . S
O151 Zn139 1.924 . S
O151 C159 1.311 . S
O152 Zn143 1.977 . S
O152 C158 1.272 . S
O153 Zn143 1.910 . S
O153 C159 1.231 . S
C154 O138 1.225 . S
C154 O160 1.298 . S
C155 O144 1.226 . S
C155 O145 1.307 . S
C156 O148 1.303 . S
C156 O149 1.247 . S
C157 O146 1.253 . S
C157 O147 1.283 . S
C158 O150 1.304 . S
C158 O152 1.272 . S
C159 O151 1.311 . S
C159 O153 1.231 . S
O160 Zn142 1.953 . S
O160 C154 1.298 . S
O161 Zn162 1.953 . S
O161 C177 1.225 . S
Zn162 O161 1.953 . S
Zn162 O163 1.949 . S
Zn162 O169 1.919 . S
Zn162 O174 1.924 . S
O163 Zn162 1.949 . S
O163 Zn164 1.923 . S
O163 Zn165 1.950 . S
O163 Zn166 1.945 . S
Zn164 O163 1.923 . S
Zn164 O167 1.933 . S
Zn164 O170 1.941 . S
Zn164 O171 1.965 1_655 S
Zn165 O163 1.950 . S
Zn165 O172 1.938 . S
Zn165 O173 1.906 . S
Zn165 O183 1.953 . S
Zn166 O163 1.945 . S
Zn166 O168 1.932 . S
Zn166 O175 1.977 . S
Zn166 O176 1.910 . S
O167 Zn164 1.933 . S
O167 C178 1.226 . S
O168 Zn166 1.932 . S
O168 C178 1.307 . S
O169 Zn162 1.919 . S
O169 C180 1.253 . S
O170 Zn164 1.941 . S
O170 C180 1.283 . S
O171 Zn164 1.965 1_455 S
O171 C179 1.303 . S
O172 Zn165 1.938 . S
O172 C179 1.247 1_655 S
O173 Zn165 1.906 . S
O173 C181 1.304 . S
O174 Zn162 1.924 . S
O174 C182 1.311 . S
O175 Zn166 1.977 . S
O175 C181 1.272 . S
O176 Zn166 1.910 . S
O176 C182 1.231 . S
C177 O161 1.225 . S
C177 O183 1.298 . S
C178 O167 1.226 . S
C178 O168 1.307 . S
C179 O171 1.303 . S
C179 O172 1.247 1_455 S
C180 O169 1.253 . S
C180 O170 1.283 . S
C181 O173 1.304 . S
C181 O175 1.272 . S
C182 O174 1.311 . S
C182 O176 1.231 . S
O183 Zn165 1.953 . S
O183 C177 1.298 . S
O184 Zn185 1.953 . S
O184 C200 1.225 . S
Zn185 O184 1.953 . S
Zn185 O186 1.949 . S
Zn185 O192 1.919 . S
Zn185 O197 1.924 . S
O186 Zn185 1.949 . S
O186 Zn187 1.923 . S
O186 Zn188 1.950 . S
O186 Zn189 1.945 . S
Zn187 O186 1.923 . S
Zn187 O190 1.933 . S
Zn187 O193 1.941 . S
Zn187 O194 1.965 . S
Zn188 O186 1.950 . S
Zn188 O195 1.938 . S
Zn188 O196 1.906 . S
Zn188 O206 1.953 . S
Zn189 O186 1.945 . S
Zn189 O191 1.932 . S
Zn189 O198 1.977 . S
Zn189 O199 1.910 . S
O190 Zn187 1.933 . S
O190 C201 1.226 . S
O191 Zn189 1.932 . S
O191 C201 1.307 . S
O192 Zn185 1.919 . S
O192 C203 1.253 . S
O193 Zn187 1.941 . S
O193 C203 1.283 . S
O194 Zn187 1.965 . S
O194 C202 1.303 . S
O195 Zn188 1.938 . S
O195 C202 1.247 . S
O196 Zn188 1.906 . S
O196 C204 1.304 . S
O197 Zn185 1.924 . S
O197 C205 1.311 . S
O198 Zn189 1.977 . S
O198 C204 1.272 . S
O199 Zn189 1.910 . S
O199 C205 1.231 . S
C200 O184 1.225 . S
C200 O206 1.298 . S
C201 O190 1.226 . S
C201 O191 1.307 . S
C202 O194 1.303 . S
C202 O195 1.247 . S
C203 O192 1.253 . S
C203 O193 1.283 . S
C204 O196 1.304 . S
C204 O198 1.272 . S
C205 O197 1.311 . S
C205 O199 1.231 . S
O206 Zn188 1.953 . S
O206 C200 1.298 . S
H207 C215 0.935 . S
H208 C217 0.942 . S
H209 C219 0.930 . S
H210 C222 0.929 . S
H211 C225 0.930 . S
H212 C227 0.960 . S
H213 C227 0.960 . S
H214 C227 0.960 . S
C215 H207 0.935 . S
C215 C216 1.372 1_556 S
C215 C217 1.384 . S
C216 C215 1.372 1_554 S
C216 C222 1.390 . S
C217 H208 0.942 . S
C217 C215 1.384 . S
C217 C218 1.362 1_556 S
C218 C217 1.362 1_554 S
C218 C219 1.400 . S
C218 C223 1.490 . S
C219 H209 0.930 . S
C219 C218 1.400 . S
C219 C222 1.386 . S
H220 C236 0.930 . S
H221 C237 0.931 . S
C222 H210 0.929 . S
C222 C216 1.390 . S
C222 C219 1.386 . S
C223 C218 1.490 . S
C223 C225 1.395 1_554 S
C223 C226 1.403 . S
H224 C230 0.930 . S
C225 H211 0.930 . S
C225 C223 1.395 1_556 S
C225 C228 1.403 . S
C226 C223 1.403 . S
C226 C227 1.524 . S
C226 C230 1.400 . S
C227 H212 0.960 . S
C227 H213 0.960 . S
C227 H214 0.960 . S
C227 C226 1.524 . S
C228 C225 1.403 . S
C228 C229 1.386 1_556 S
C228 C232 1.495 . S
C229 C228 1.386 1_554 S
C229 C230 1.392 . S
C229 C231 1.478 1_554 S
C230 H224 0.930 . S
C230 C226 1.400 . S
C230 C229 1.392 . S
C231 C229 1.478 1_556 S
C231 C233 1.381 . S
C231 C237 1.383 1_556 S
C232 C228 1.495 . S
C232 H238 0.959 . S
C232 H239 0.961 . S
C232 H240 0.960 . S
C233 C231 1.381 . S
C233 C234 1.394 . S
C233 H241 0.930 . S
C234 C233 1.394 . S
C234 C235 1.383 1_556 S
C234 H242 0.929 . S
C235 C234 1.383 1_554 S
C235 C236 1.377 . S
C236 H220 0.930 . S
C236 C235 1.377 . S
C236 C237 1.379 . S
C237 H221 0.931 . S
C237 C231 1.383 1_554 S
C237 C236 1.379 . S
H238 C232 0.959 . S
H239 C232 0.961 . S
H240 C232 0.960 . S
H241 C233 0.930 . S
H242 C234 0.929 . S
H243 C251 0.929 . S
H244 C253 0.930 . S
H245 C255 0.930 . S
H246 C258 0.929 . S
H247 C261 0.930 . S
H248 C263 0.960 . S
H249 C263 0.960 . S
H250 C263 0.960 . S
C251 H243 0.929 . S
C251 C252 1.377 1_556 S
C251 C253 1.384 . S
C252 C251 1.377 1_554 S
C252 C258 1.390 . S
C253 H244 0.930 . S
C253 C251 1.384 . S
C253 C254 1.372 1_556 S
C254 C253 1.372 1_554 S
C254 C255 1.400 . S
C254 C259 1.490 . S
C255 H245 0.930 . S
C255 C254 1.400 . S
C255 C258 1.386 . S
H256 C272 0.930 . S
H257 C273 0.931 . S
C258 H246 0.929 . S
C258 C252 1.390 . S
C258 C255 1.386 . S
C259 C254 1.490 . S
C259 C261 1.395 1_554 S
C259 C262 1.403 . S
H260 C266 0.930 . S
C261 H247 0.930 . S
C261 C259 1.395 1_556 S
C261 C264 1.403 . S
C262 C259 1.403 . S
C262 C263 1.524 . S
C262 C266 1.400 . S
C263 H248 0.960 . S
C263 H249 0.960 . S
C263 H250 0.960 . S
C263 C262 1.524 . S
C264 C261 1.403 . S
C264 C265 1.393 1_556 S
C264 C268 1.495 . S
C265 C264 1.393 1_554 S
C265 C266 1.385 . S
C265 C267 1.478 . S
C266 H260 0.930 . S
C266 C262 1.400 . S
C266 C265 1.385 . S
C267 C265 1.478 . S
C267 C269 1.371 1_554 S
C267 C273 1.393 . S
C268 C264 1.495 . S
C268 H274 0.959 . S
C268 H275 0.961 . S
C268 H276 0.960 . S
C269 C267 1.371 1_556 S
C269 C270 1.394 . S
C269 H277 0.930 . S
C270 C269 1.394 . S
C270 C271 1.383 1_556 S
C270 H278 0.929 . S
C271 C270 1.383 1_554 S
C271 C272 1.377 . S
C272 H256 0.930 . S
C272 C271 1.377 . S
C272 C273 1.379 . S
C273 H257 0.931 . S
C273 C267 1.393 . S
C273 C272 1.379 . S
H274 C268 0.959 . S
H275 C268 0.961 . S
H276 C268 0.960 . S
H277 C269 0.930 . S
H278 C270 0.929 . S
H279 C287 0.929 . S
H280 C289 0.930 . S
H281 C291 0.930 . S
H282 C294 0.929 . S
H283 C297 0.939 . S
H284 C299 0.960 . S
H285 C299 0.960 . S
H286 C299 0.960 . S
C287 H279 0.929 . S
C287 C288 1.377 . S
C287 C289 1.384 . S
C288 C287 1.377 . S
C288 C294 1.390 1_554 S
C289 H280 0.930 . S
C289 C287 1.384 . S
C289 C290 1.372 . S
C290 C289 1.372 . S
C290 C291 1.400 1_554 S
C290 C295 1.490 . S
C291 H281 0.930 . S
C291 C290 1.400 1_556 S
C291 C294 1.386 . S
H292 C308 0.930 . S
H293 C309 0.931 . S
C294 H282 0.929 . S
C294 C288 1.390 1_556 S
C294 C291 1.386 . S
C295 C290 1.490 . S
C295 C297 1.386 1_554 S
C295 C298 1.403 . S
H296 C302 0.930 . S
C297 H283 0.939 . S
C297 C295 1.386 1_556 S
C297 C300 1.405 . S
C298 C295 1.403 . S
C298 C299 1.524 . S
C298 C302 1.400 . S
C299 H284 0.960 . S
C299 H285 0.960 . S
C299 H286 0.960 . S
C299 C298 1.524 . S
C300 C297 1.405 . S
C300 C301 1.392 1_556 S
C300 C304 1.495 . S
C301 C300 1.392 1_554 S
C301 C302 1.385 . S
C301 C303 1.478 . S
C302 H296 0.930 . S
C302 C298 1.400 . S
C302 C301 1.385 . S
C303 C301 1.478 . S
C303 C305 1.381 . S
C303 C309 1.383 1_554 S
C304 C300 1.495 . S
C304 H310 0.959 . S
C304 H311 0.961 . S
C304 H312 0.960 1_556 S
C305 C303 1.381 . S
C305 C306 1.394 . S
C305 H313 0.930 . S
C306 C305 1.394 . S
C306 C307 1.383 . S
C306 H314 0.929 . S
C307 C306 1.383 . S
C307 C308 1.377 1_554 S
C308 H292 0.930 . S
C308 C307 1.377 1_556 S
C308 C309 1.379 . S
C309 H293 0.931 . S
C309 C303 1.383 1_556 S
C309 C308 1.379 . S
H310 C304 0.959 . S
H311 C304 0.961 . S
H312 C304 0.960 1_554 S
H313 C305 0.930 . S
H314 C306 0.929 . S
H315 C323 0.929 . S
H316 C325 0.930 . S
H317 C327 0.959 . S
H318 C330 0.929 . S
H319 C333 0.930 1_556 S
H320 C335 0.960 . S
H321 C335 0.960 . S
H322 C335 0.960 . S
C323 H315 0.929 . S
C323 C324 1.377 . S
C323 C325 1.384 . S
C324 C323 1.377 . S
C324 C330 1.390 1_554 S
C325 H316 0.930 . S
C325 C323 1.384 . S
C325 C326 1.372 . S
C326 C325 1.372 . S
C326 C327 1.372 1_554 S
C326 C331 1.490 . S
C327 H317 0.959 . S
C327 C326 1.372 1_556 S
C327 C330 1.388 . S
H328 C344 0.930 . S
H329 C345 0.931 . S
C330 H318 0.929 . S
C330 C324 1.390 1_556 S
C330 C327 1.388 . S
C331 C326 1.490 . S
C331 C333 1.395 . S
C331 C334 1.403 . S
H332 C338 0.930 . S
C333 H319 0.930 1_554 S
C333 C331 1.395 . S
C333 C336 1.403 . S
C334 C331 1.403 . S
C334 C335 1.524 . S
C334 C338 1.400 . S
C335 H320 0.960 . S
C335 H321 0.960 . S
C335 H322 0.960 . S
C335 C334 1.524 . S
C336 C333 1.403 . S
C336 C337 1.392 . S
C336 C340 1.495 1_554 S
C337 C336 1.392 . S
C337 C338 1.385 . S
C337 C339 1.478 . S
C338 H332 0.930 . S
C338 C334 1.400 . S
C338 C337 1.385 . S
C339 C337 1.478 . S
C339 C341 1.381 . S
C339 C345 1.383 1_554 S
C340 C336 1.495 1_556 S
C340 H346 0.959 . S
C340 H347 0.961 . S
C340 H348 0.960 1_556 S
C341 C339 1.381 . S
C341 C342 1.394 . S
C341 H349 0.930 . S
C342 C341 1.394 . S
C342 C343 1.383 . S
C342 H350 0.929 . S
C343 C342 1.383 . S
C343 C344 1.377 1_554 S
C344 H328 0.930 . S
C344 C343 1.377 1_556 S
C344 C345 1.379 . S
C345 H329 0.931 . S
C345 C339 1.383 1_556 S
C345 C344 1.379 . S
H346 C340 0.959 . S
H347 C340 0.961 . S
H348 C340 0.960 1_554 S
H349 C341 0.930 . S
H350 C342 0.929 . S
H351 C359 0.929 . S
H352 C361 0.930 . S
H353 C363 0.930 . S
H354 C366 0.929 . S
H355 C369 0.930 . S
H356 C371 0.960 . S
H357 C371 0.960 . S
H358 C371 0.996 . S
C359 H351 0.929 . S
C359 C360 1.377 1_556 S
C359 C361 1.384 . S
C360 C359 1.377 1_554 S
C360 C366 1.390 . S
C361 H352 0.930 . S
C361 C359 1.384 . S
C361 C362 1.372 1_556 S
C362 C361 1.372 1_554 S
C362 C363 1.400 . S
C362 C367 1.490 . S
C363 H353 0.930 . S
C363 C362 1.400 . S
C363 C366 1.386 . S
H364 C380 0.930 . S
H365 C381 0.931 . S
C366 H354 0.929 . S
C366 C360 1.390 . S
C366 C363 1.386 . S
C367 C362 1.490 . S
C367 C369 1.395 . S
C367 C370 1.406 . S
H368 C374 0.930 1_556 S
C369 H355 0.930 . S
C369 C367 1.395 . S
C369 C372 1.403 . S
C370 C367 1.406 . S
C370 C371 1.519 1_554 S
C370 C374 1.401 . S
C371 H356 0.960 . S
C371 H357 0.960 . S
C371 H358 0.996 . S
C371 C370 1.519 1_556 S
C372 C369 1.403 . S
C372 C373 1.392 . S
C372 C376 1.495 . S
C373 C372 1.392 . S
C373 C374 1.385 . S
C373 C375 1.478 . S
C374 H368 0.930 1_554 S
C374 C370 1.401 . S
C374 C373 1.385 . S
C375 C373 1.478 . S
C375 C377 1.369 1_554 S
C375 C381 1.383 . S
C376 C372 1.495 . S
C376 H382 0.959 . S
C376 H383 0.961 . S
C376 H384 0.960 . S
C377 C375 1.369 1_556 S
C377 C378 1.394 . S
C377 H385 0.943 . S
C378 C377 1.394 . S
C378 C379 1.360 1_556 S
C378 H386 0.954 . S
C379 C378 1.360 1_554 S
C379 C380 1.377 . S
C380 H364 0.930 . S
C380 C379 1.377 . S
C380 C381 1.379 . S
C381 H365 0.931 . S
C381 C375 1.383 . S
C381 C380 1.379 . S
H382 C376 0.959 . S
H383 C376 0.961 . S
H384 C376 0.960 . S
H385 C377 0.943 . S
H386 C378 0.954 . S
H387 C395 0.929 . S
H388 C397 0.930 . S
H389 C399 0.930 . S
H390 C402 0.929 . S
H391 C405 0.925 1_556 S
H392 C407 0.960 . S
H393 C407 0.960 . S
H394 C407 0.960 . S
C395 H387 0.929 . S
C395 C396 1.377 . S
C395 C397 1.384 . S
C396 C395 1.377 . S
C396 C402 1.390 1_554 S
C397 H388 0.930 . S
C397 C395 1.384 . S
C397 C398 1.372 . S
C398 C397 1.372 . S
C398 C399 1.400 1_554 S
C398 C403 1.490 . S
C399 H389 0.930 . S
C399 C398 1.400 1_556 S
C399 C402 1.386 . S
H400 C416 0.930 . S
H401 C417 0.931 . S
C402 H390 0.929 . S
C402 C396 1.390 1_556 S
C402 C399 1.386 . S
C403 C398 1.490 . S
C403 C405 1.395 . S
C403 C406 1.403 . S
H404 C410 0.930 . S
C405 H391 0.925 1_554 S
C405 C403 1.395 . S
C405 C408 1.403 . S
C406 C403 1.403 . S
C406 C407 1.524 . S
C406 C410 1.400 . S
C407 H392 0.960 . S
C407 H393 0.960 . S
C407 H394 0.960 . S
C407 C406 1.524 . S
C408 C405 1.403 . S
C408 C409 1.392 . S
C408 C412 1.495 1_554 S
C409 C408 1.392 . S
C409 C410 1.385 . S
C409 C411 1.478 . S
C410 H404 0.930 . S
C410 C406 1.400 . S
C410 C409 1.385 . S
C411 C409 1.478 . S
C411 C413 1.381 . S
C411 C417 1.383 1_554 S
C412 C408 1.495 1_556 S
C412 H418 0.959 . S
C412 H419 0.961 . S
C412 H420 0.960 1_556 S
C413 C411 1.381 . S
C413 C414 1.394 . S
C413 H421 0.930 . S
C414 C413 1.394 . S
C414 C415 1.383 . S
C414 H422 0.929 . S
C415 C414 1.383 . S
C415 C416 1.377 1_554 S
C416 H400 0.930 . S
C416 C415 1.377 1_556 S
C416 C417 1.379 . S
C417 H401 0.931 . S
C417 C411 1.383 1_556 S
C417 C416 1.379 . S
H418 C412 0.959 . S
H419 C412 0.961 . S
H420 C412 0.960 1_554 S
H421 C413 0.930 . S
H422 C414 0.929 . S
H423 C431 0.929 . S
H424 C433 0.930 . S
H425 C435 0.930 . S
H426 C438 0.929 . S
H427 C441 0.930 . S
H428 C443 0.960 . S
H429 C443 0.960 . S
H430 C443 0.960 . S
C431 H423 0.929 . S
C431 C432 1.377 . S
C431 C433 1.384 . S
C432 C431 1.377 . S
C432 C438 1.390 . S
C433 H424 0.930 . S
C433 C431 1.384 . S
C433 C434 1.372 . S
C434 C433 1.372 . S
C434 C435 1.400 . S
C434 C439 1.490 . S
C435 H425 0.930 . S
C435 C434 1.400 . S
C435 C438 1.386 . S
H436 C452 0.930 . S
H437 C453 0.931 . S
C438 H426 0.929 . S
C438 C432 1.390 . S
C438 C435 1.386 . S
C439 C434 1.490 . S
C439 C441 1.395 . S
C439 C442 1.403 . S
H440 C446 0.930 . S
C441 H427 0.930 . S
C441 C439 1.395 . S
C441 C444 1.403 . S
C442 C439 1.403 . S
C442 C443 1.524 . S
C442 C446 1.400 . S
C443 H428 0.960 . S
C443 H429 0.960 . S
C443 H430 0.960 . S
C443 C442 1.524 . S
C444 C441 1.403 . S
C444 C445 1.392 1_655 S
C444 C448 1.495 1_655 S
C445 C444 1.392 1_455 S
C445 C446 1.385 1_455 S
C445 C447 1.478 . S
C446 H440 0.930 . S
C446 C442 1.400 . S
C446 C445 1.385 1_655 S
C447 C445 1.478 . S
C447 C449 1.381 . S
C447 C453 1.383 . S
C448 C444 1.495 1_455 S
C448 H454 0.959 1_455 S
C448 H455 0.961 . S
C448 H456 0.960 . S
C449 C447 1.381 . S
C449 C450 1.394 . S
C449 H457 0.930 . S
C450 C449 1.394 . S
C450 C451 1.383 . S
C450 H458 0.929 . S
C451 C450 1.383 . S
C451 C452 1.377 . S
C452 H436 0.930 . S
C452 C451 1.377 . S
C452 C453 1.379 . S
C453 H437 0.931 . S
C453 C447 1.383 . S
C453 C452 1.379 . S
H454 C448 0.959 1_655 S
H455 C448 0.961 . S
H456 C448 0.960 . S
H457 C449 0.930 . S
H458 C450 0.929 . S
H459 C467 0.929 . S
H460 C469 0.930 . S
H461 C471 0.930 . S
H462 C474 0.929 . S
H463 C477 0.930 . S
H464 C479 0.960 . S
H465 C479 0.960 . S
H466 C479 0.960 . S
C467 H459 0.929 . S
C467 C468 1.377 . S
C467 C469 1.384 . S
C468 C467 1.377 . S
C468 C474 1.390 . S
C469 H460 0.930 . S
C469 C467 1.384 . S
C469 C470 1.372 . S
C470 C469 1.372 . S
C470 C471 1.400 . S
C470 C475 1.490 . S
C471 H461 0.930 . S
C471 C470 1.400 . S
C471 C474 1.386 . S
H472 C488 0.930 . S
H473 C489 0.931 . S
C474 H462 0.929 . S
C474 C468 1.390 . S
C474 C471 1.386 . S
C475 C470 1.490 . S
C475 C477 1.395 . S
C475 C478 1.403 . S
H476 C482 0.930 . S
C477 H463 0.930 . S
C477 C475 1.395 . S
C477 C480 1.403 . S
C478 C475 1.403 . S
C478 C479 1.524 . S
C478 C482 1.400 . S
C479 H464 0.960 . S
C479 H465 0.960 . S
C479 H466 0.960 . S
C479 C478 1.524 . S
C480 C477 1.403 . S
C480 C481 1.392 . S
C480 C484 1.495 . S
C481 C480 1.392 . S
C481 C482 1.385 . S
C481 C483 1.478 . S
C482 H476 0.930 . S
C482 C478 1.400 . S
C482 C481 1.385 . S
C483 C481 1.478 . S
C483 C485 1.381 . S
C483 C489 1.383 . S
C484 C480 1.495 . S
C484 H490 0.959 . S
C484 H491 0.961 . S
C484 H492 0.960 . S
C485 C483 1.381 . S
C485 C486 1.394 . S
C485 H493 0.930 . S
C486 C485 1.394 . S
C486 C487 1.383 . S
C486 H494 0.929 . S
C487 C486 1.383 . S
C487 C488 1.377 . S
C488 H472 0.930 . S
C488 C487 1.377 . S
C488 C489 1.379 . S
C489 H473 0.931 . S
C489 C483 1.383 . S
C489 C488 1.379 . S
H490 C484 0.959 . S
H491 C484 0.961 . S
H492 C484 0.960 . S
H493 C485 0.930 . S
H494 C486 0.929 . S
H495 C503 0.929 . S
H496 C505 0.930 . S
H497 C507 0.930 . S
H498 C510 0.929 . S
H499 C513 0.930 . S
H500 C515 0.960 . S
H501 C515 0.960 . S
H502 C515 0.960 . S
C503 H495 0.929 . S
C503 C504 1.377 . S
C503 C505 1.384 . S
C504 C503 1.377 . S
C504 C510 1.390 . S
C505 H496 0.930 . S
C505 C503 1.384 . S
C505 C506 1.372 . S
C506 C505 1.372 . S
C506 C507 1.400 . S
C506 C511 1.490 . S
C507 H497 0.930 . S
C507 C506 1.400 . S
C507 C510 1.386 . S
H508 C524 0.930 . S
H509 C525 0.931 1_545 S
C510 H498 0.929 . S
C510 C504 1.390 . S
C510 C507 1.386 . S
C511 C506 1.490 . S
C511 C513 1.395 . S
C511 C514 1.403 . S
H512 C518 0.930 . S
C513 H499 0.930 . S
C513 C511 1.395 . S
C513 C516 1.403 . S
C514 C511 1.403 . S
C514 C515 1.524 . S
C514 C518 1.400 . S
C515 H500 0.960 . S
C515 H501 0.960 . S
C515 H502 0.960 . S
C515 C514 1.524 . S
C516 C513 1.403 . S
C516 C517 1.392 . S
C516 C520 1.495 . S
C517 C516 1.392 . S
C517 C518 1.385 . S
C517 C519 1.478 . S
C518 H512 0.930 . S
C518 C514 1.400 . S
C518 C517 1.385 . S
C519 C517 1.478 . S
C519 C521 1.381 1_545 S
C519 C525 1.383 1_545 S
C520 C516 1.495 . S
C520 H526 0.959 . S
C520 H527 0.961 . S
C520 H528 0.960 . S
C521 C519 1.381 1_565 S
C521 C522 1.394 . S
C521 H529 0.930 1_565 S
C522 C521 1.394 . S
C522 C523 1.383 . S
C522 H530 0.929 . S
C523 C522 1.383 . S
C523 C524 1.377 . S
C524 H508 0.930 . S
C524 C523 1.377 . S
C524 C525 1.379 . S
C525 H509 0.931 1_565 S
C525 C519 1.383 1_565 S
C525 C524 1.379 . S
H526 C520 0.959 . S
H527 C520 0.961 . S
H528 C520 0.960 . S
H529 C521 0.930 1_545 S
H530 C522 0.929 . S
H531 C539 0.929 . S
H532 C541 0.930 . S
H533 C543 0.930 . S
H534 C546 0.929 . S
H535 C549 0.930 . S
H536 C551 0.960 . S
H537 C551 0.960 . S
H538 C551 0.960 . S
C539 H531 0.929 . S
C539 C540 1.377 . S
C539 C541 1.384 . S
C540 C539 1.377 . S
C540 C546 1.390 . S
C541 H532 0.930 . S
C541 C539 1.384 . S
C541 C542 1.372 . S
C542 C541 1.372 . S
C542 C543 1.400 . S
C542 C547 1.490 . S
C543 H533 0.930 . S
C543 C542 1.400 . S
C543 C546 1.386 . S
H544 C560 0.930 . S
H545 C561 0.931 . S
C546 H534 0.929 . S
C546 C540 1.390 . S
C546 C543 1.386 . S
C547 C542 1.490 . S
C547 C549 1.395 . S
C547 C550 1.403 . S
H548 C554 0.930 . S
C549 H535 0.930 . S
C549 C547 1.395 . S
C549 C552 1.403 . S
C550 C547 1.403 . S
C550 C551 1.524 . S
C550 C554 1.400 . S
C551 H536 0.960 . S
C551 H537 0.960 . S
C551 H538 0.960 . S
C551 C550 1.524 . S
C552 C549 1.403 . S
C552 C553 1.392 . S
C552 C556 1.495 . S
C553 C552 1.392 . S
C553 C554 1.385 . S
C553 C555 1.478 . S
C554 H548 0.930 . S
C554 C550 1.400 . S
C554 C553 1.385 . S
C555 C553 1.478 . S
C555 C557 1.381 . S
C555 C561 1.383 . S
C556 C552 1.495 . S
C556 H562 0.959 . S
C556 H563 0.961 . S
C556 H564 0.960 . S
C557 C555 1.381 . S
C557 C558 1.394 . S
C557 H565 0.930 . S
C558 C557 1.394 . S
C558 C559 1.383 . S
C558 H566 0.929 . S
C559 C558 1.383 . S
C559 C560 1.377 . S
C560 H544 0.930 . S
C560 C559 1.377 . S
C560 C561 1.379 . S
C561 H545 0.931 . S
C561 C555 1.383 . S
C561 C560 1.379 . S
H562 C556 0.959 . S
H563 C556 0.961 . S
H564 C556 0.960 . S
H565 C557 0.930 . S
H566 C558 0.929 . S
H567 C575 0.929 . S
H568 C577 0.930 . S
H569 C579 0.930 . S
H570 C582 0.929 . S
H571 C585 0.930 . S
H572 C587 0.960 . S
H573 C587 0.960 . S
H574 C587 0.960 . S
C575 H567 0.929 . S
C575 C576 1.377 . S
C575 C577 1.384 . S
C576 C575 1.377 . S
C576 C582 1.390 . S
C577 H568 0.930 . S
C577 C575 1.384 . S
C577 C578 1.372 . S
C578 C577 1.372 . S
C578 C579 1.400 . S
C578 C583 1.490 . S
C579 H569 0.930 . S
C579 C578 1.400 . S
C579 C582 1.386 . S
H580 C596 0.930 . S
H581 C597 0.931 . S
C582 H570 0.929 . S
C582 C576 1.390 . S
C582 C579 1.386 . S
C583 C578 1.490 . S
C583 C585 1.395 . S
C583 C586 1.403 . S
H584 C590 0.930 . S
C585 H571 0.930 . S
C585 C583 1.395 . S
C585 C588 1.403 . S
C586 C583 1.403 . S
C586 C587 1.524 . S
C586 C590 1.400 . S
C587 H572 0.960 . S
C587 H573 0.960 . S
C587 H574 0.960 . S
C587 C586 1.524 . S
C588 C585 1.403 . S
C588 C589 1.392 . S
C588 C592 1.495 . S
C589 C588 1.392 . S
C589 C590 1.385 . S
C589 C591 1.478 . S
C590 H584 0.930 . S
C590 C586 1.400 . S
C590 C589 1.385 . S
C591 C589 1.478 . S
C591 C593 1.381 . S
C591 C597 1.383 . S
C592 C588 1.495 . S
C592 H598 0.959 . S
C592 H599 0.961 . S
C592 H600 0.960 . S
C593 C591 1.381 . S
C593 C594 1.394 . S
C593 H601 0.930 . S
C594 C593 1.394 . S
C594 C595 1.383 . S
C594 H602 0.929 . S
C595 C594 1.383 . S
C595 C596 1.377 . S
C596 H580 0.930 . S
C596 C595 1.377 . S
C596 C597 1.379 . S
C597 H581 0.931 . S
C597 C591 1.383 . S
C597 C596 1.379 . S
H598 C592 0.959 . S
H599 C592 0.961 . S
H600 C592 0.960 . S
H601 C593 0.930 . S
H602 C594 0.929 . S
H603 C611 0.929 . S
H604 C613 0.930 . S
H605 C615 0.930 . S
H606 C618 0.929 . S
H607 C621 0.930 . S
H608 C623 0.960 . S
H609 C623 0.960 . S
H610 C623 0.960 . S
C611 H603 0.929 . S
C611 C612 1.377 . S
C611 C613 1.384 . S
C612 C611 1.377 . S
C612 C618 1.390 . S
C613 H604 0.930 . S
C613 C611 1.384 . S
C613 C614 1.372 . S
C614 C613 1.372 . S
C614 C615 1.400 . S
C614 C619 1.490 . S
C615 H605 0.930 . S
C615 C614 1.400 . S
C615 C618 1.386 . S
H616 C632 0.930 . S
H617 C633 0.931 . S
C618 H606 0.929 . S
C618 C612 1.390 . S
C618 C615 1.386 . S
C619 C614 1.490 . S
C619 C621 1.395 . S
C619 C622 1.403 . S
H620 C626 0.930 . S
C621 H607 0.930 . S
C621 C619 1.395 . S
C621 C624 1.403 . S
C622 C619 1.403 . S
C622 C623 1.524 . S
C622 C626 1.400 . S
C623 H608 0.960 . S
C623 H609 0.960 . S
C623 H610 0.960 . S
C623 C622 1.524 . S
C624 C621 1.403 . S
C624 C625 1.392 . S
C624 C628 1.495 . S
C625 C624 1.392 . S
C625 C626 1.385 . S
C625 C627 1.478 . S
C626 H620 0.930 . S
C626 C622 1.400 . S
C626 C625 1.385 . S
C627 C625 1.478 . S
C627 C629 1.381 . S
C627 C633 1.383 . S
C628 C624 1.495 . S
C628 H634 0.959 . S
C628 H635 0.961 . S
C628 H636 0.960 . S
C629 C627 1.381 . S
C629 C630 1.394 . S
C629 H637 0.930 . S
C630 C629 1.394 . S
C630 C631 1.383 . S
C630 H638 0.929 . S
C631 C630 1.383 . S
C631 C632 1.377 . S
C632 H616 0.930 . S
C632 C631 1.377 . S
C632 C633 1.379 . S
C633 H617 0.931 . S
C633 C627 1.383 . S
C633 C632 1.379 . S
H634 C628 0.959 . S
H635 C628 0.961 . S
H636 C628 0.960 . S
H637 C629 0.930 . S
H638 C630 0.929 . S
H639 C647 0.929 . S
H640 C649 0.930 . S
H641 C651 0.930 . S
H642 C654 0.929 . S
H643 C657 0.930 . S
H644 C659 0.960 . S
H645 C659 0.960 . S
H646 C659 0.960 . S
C647 H639 0.929 . S
C647 C648 1.377 . S
C647 C649 1.384 . S
C648 C647 1.377 . S
C648 C654 1.390 . S
C649 H640 0.930 . S
C649 C647 1.384 . S
C649 C650 1.372 . S
C650 C649 1.372 . S
C650 C651 1.400 . S
C650 C655 1.490 . S
C651 H641 0.930 . S
C651 C650 1.400 . S
C651 C654 1.386 . S
H652 C668 0.930 . S
H653 C669 0.931 . S
C654 H642 0.929 . S
C654 C648 1.390 . S
C654 C651 1.386 . S
C655 C650 1.490 . S
C655 C657 1.395 . S
C655 C658 1.403 . S
H656 C662 0.930 . S
C657 H643 0.930 . S
C657 C655 1.395 . S
C657 C660 1.403 . S
C658 C655 1.403 . S
C658 C659 1.524 . S
C658 C662 1.400 . S
C659 H644 0.960 . S
C659 H645 0.960 . S
C659 H646 0.960 . S
C659 C658 1.524 . S
C660 C657 1.403 . S
C660 C661 1.392 . S
C660 C664 1.495 . S
C661 C660 1.392 . S
C661 C662 1.385 . S
C661 C663 1.478 . S
C662 H656 0.930 . S
C662 C658 1.400 . S
C662 C661 1.385 . S
C663 C661 1.478 . S
C663 C665 1.381 . S
C663 C669 1.383 . S
C664 C660 1.495 . S
C664 H670 0.959 . S
C664 H671 0.961 . S
C664 H672 0.960 . S
C665 C663 1.381 . S
C665 C666 1.394 . S
C665 H673 0.930 . S
C666 C665 1.394 . S
C666 C667 1.383 . S
C666 H674 0.929 . S
C667 C666 1.383 . S
C667 C668 1.377 . S
C668 H652 0.930 . S
C668 C667 1.377 . S
C668 C669 1.379 . S
C669 H653 0.931 . S
C669 C663 1.383 . S
C669 C668 1.379 . S
H670 C664 0.959 . S
H671 C664 0.961 . S
H672 C664 0.960 . S
H673 C665 0.930 . S
H674 C666 0.929 . S
H675 C683 0.929 . S
H676 C685 0.930 . S
H677 C687 0.930 . S
H678 C690 0.929 . S
H679 C693 0.930 . S
H680 C695 0.960 . S
H681 C695 0.960 . S
H682 C695 0.960 . S
C683 H675 0.929 . S
C683 C684 1.377 . S
C683 C685 1.384 . S
C684 C683 1.377 . S
C684 C690 1.390 . S
C685 H676 0.930 . S
C685 C683 1.384 . S
C685 C686 1.372 . S
C686 C685 1.372 . S
C686 C687 1.400 . S
C686 C691 1.490 . S
C687 H677 0.930 . S
C687 C686 1.400 . S
C687 C690 1.386 . S
H688 C704 0.930 . S
H689 C705 0.931 . S
C690 H678 0.929 . S
C690 C684 1.390 . S
C690 C687 1.386 . S
C691 C686 1.490 . S
C691 C693 1.395 . S
C691 C694 1.403 . S
H692 C698 0.930 . S
C693 H679 0.930 . S
C693 C691 1.395 . S
C693 C696 1.403 . S
C694 C691 1.403 . S
C694 C695 1.524 . S
C694 C698 1.400 . S
C695 H680 0.960 . S
C695 H681 0.960 . S
C695 H682 0.960 . S
C695 C694 1.524 . S
C696 C693 1.403 . S
C696 C697 1.392 . S
C696 C700 1.495 . S
C697 C696 1.392 . S
C697 C698 1.385 . S
C697 C699 1.478 . S
C698 H692 0.930 . S
C698 C694 1.400 . S
C698 C697 1.385 . S
C699 C697 1.478 . S
C699 C701 1.381 . S
C699 C705 1.383 . S
C700 C696 1.495 . S
C700 H706 0.959 . S
C700 H707 0.961 . S
C700 H708 0.960 . S
C701 C699 1.381 . S
C701 C702 1.394 . S
C701 H709 0.930 . S
C702 C701 1.394 . S
C702 C703 1.383 . S
C702 H710 0.929 . S
C703 C702 1.383 . S
C703 C704 1.377 . S
C704 H688 0.930 . S
C704 C703 1.377 . S
C704 C705 1.379 . S
C705 H689 0.931 . S
C705 C699 1.383 . S
C705 C704 1.379 . S
H706 C700 0.959 . S
H707 C700 0.961 . S
H708 C700 0.960 . S
H709 C701 0.930 . S
H710 C702 0.929 . S
H711 C719 0.929 . S
H712 C721 0.930 . S
H713 C723 0.930 . S
H714 C726 0.929 . S
H715 C729 0.930 . S
H716 C731 0.960 . S
H717 C731 0.960 . S
H718 C731 0.960 . S
C719 H711 0.929 . S
C719 C720 1.377 . S
C719 C721 1.384 . S
C720 C719 1.377 . S
C720 C726 1.390 . S
C721 H712 0.930 . S
C721 C719 1.384 . S
C721 C722 1.372 . S
C722 C721 1.372 . S
C722 C723 1.400 . S
C722 C727 1.490 . S
C723 H713 0.930 . S
C723 C722 1.400 . S
C723 C726 1.386 . S
H724 C740 0.930 . S
H725 C741 0.931 . S
C726 H714 0.929 . S
C726 C720 1.390 . S
C726 C723 1.386 . S
C727 C722 1.490 . S
C727 C729 1.395 . S
C727 C730 1.403 . S
H728 C734 0.930 . S
C729 H715 0.930 . S
C729 C727 1.395 . S
C729 C732 1.403 . S
C730 C727 1.403 . S
C730 C731 1.524 . S
C730 C734 1.400 . S
C731 H716 0.960 . S
C731 H717 0.960 . S
C731 H718 0.960 . S
C731 C730 1.524 . S
C732 C729 1.403 . S
C732 C733 1.392 . S
C732 C736 1.495 . S
C733 C732 1.392 . S
C733 C734 1.385 . S
C733 C735 1.478 . S
C734 H728 0.930 . S
C734 C730 1.400 . S
C734 C733 1.385 . S
C735 C733 1.478 . S
C735 C737 1.381 . S
C735 C741 1.383 . S
C736 C732 1.495 . S
C736 H742 0.959 . S
C736 H743 0.961 . S
C736 H744 0.960 . S
C737 C735 1.381 . S
C737 C738 1.394 . S
C737 H745 0.930 . S
C738 C737 1.394 . S
C738 C739 1.383 . S
C738 H746 0.929 . S
C739 C738 1.383 . S
C739 C740 1.377 . S
C740 H724 0.930 . S
C740 C739 1.377 . S
C740 C741 1.379 . S
C741 H725 0.931 . S
C741 C735 1.383 . S
C741 C740 1.379 . S
H742 C736 0.959 . S
H743 C736 0.961 . S
H744 C736 0.960 . S
H745 C737 0.930 . S
H746 C738 0.929 . S
H747 C755 0.929 . S
H748 C757 0.930 . S
H749 C759 0.930 . S
H750 C762 0.929 . S
H751 C765 0.930 . S
H752 C767 0.960 . S
H753 C767 0.960 . S
H754 C767 0.960 . S
C755 H747 0.929 . S
C755 C756 1.377 . S
C755 C757 1.384 . S
C756 C755 1.377 . S
C756 C762 1.390 . S
C757 H748 0.930 . S
C757 C755 1.384 . S
C757 C758 1.372 . S
C758 C757 1.372 . S
C758 C759 1.400 . S
C758 C763 1.490 . S
C759 H749 0.930 . S
C759 C758 1.400 . S
C759 C762 1.386 . S
H760 C776 0.930 . S
H761 C777 0.931 . S
C762 H750 0.929 . S
C762 C756 1.390 . S
C762 C759 1.386 . S
C763 C758 1.490 . S
C763 C765 1.395 . S
C763 C766 1.403 . S
H764 C770 0.930 . S
C765 H751 0.930 . S
C765 C763 1.395 . S
C765 C768 1.403 . S
C766 C763 1.403 . S
C766 C767 1.524 . S
C766 C770 1.400 . S
C767 H752 0.960 . S
C767 H753 0.960 . S
C767 H754 0.960 . S
C767 C766 1.524 . S
C768 C765 1.403 . S
C768 C769 1.392 . S
C768 C772 1.495 . S
C769 C768 1.392 . S
C769 C770 1.385 . S
C769 C771 1.478 1_565 S
C770 H764 0.930 . S
C770 C766 1.400 . S
C770 C769 1.385 . S
C771 C769 1.478 1_545 S
C771 C773 1.381 . S
C771 C777 1.383 . S
C772 C768 1.495 . S
C772 H778 0.959 . S
C772 H779 0.961 . S
C772 H780 0.960 1_565 S
C773 C771 1.381 . S
C773 C774 1.394 . S
C773 H781 0.930 . S
C774 C773 1.394 . S
C774 C775 1.383 . S
C774 H782 0.929 . S
C775 C774 1.383 . S
C775 C776 1.377 . S
C776 H760 0.930 . S
C776 C775 1.377 . S
C776 C777 1.379 . S
C777 H761 0.931 . S
C777 C771 1.383 . S
C777 C776 1.379 . S
H778 C772 0.959 . S
H779 C772 0.961 . S
H780 C772 0.960 1_545 S
H781 C773 0.930 . S
H782 C774 0.929 . S
H783 C791 0.929 . S
H784 C793 0.930 . S
H785 C795 0.930 . S
H786 C798 0.929 . S
H787 C801 0.930 . S
H788 C803 0.960 . S
H789 C803 0.960 . S
H790 C803 0.960 . S
C791 H783 0.929 . S
C791 C792 1.377 . S
C791 C793 1.384 . S
C792 C791 1.377 . S
C792 C798 1.390 . S
C793 H784 0.930 . S
C793 C791 1.384 . S
C793 C794 1.372 . S
C794 C793 1.372 . S
C794 C795 1.400 . S
C794 C799 1.490 1_655 S
C795 H785 0.930 . S
C795 C794 1.400 . S
C795 C798 1.386 . S
H796 C812 0.930 . S
H797 C813 0.931 . S
C798 H786 0.929 . S
C798 C792 1.390 . S
C798 C795 1.386 . S
C799 C794 1.490 1_455 S
C799 C801 1.395 . S
C799 C802 1.403 . S
H800 C806 0.930 . S
C801 H787 0.930 . S
C801 C799 1.395 . S
C801 C804 1.403 . S
C802 C799 1.403 . S
C802 C803 1.524 . S
C802 C806 1.400 . S
C803 H788 0.960 . S
C803 H789 0.960 . S
C803 H790 0.960 . S
C803 C802 1.524 . S
C804 C801 1.403 . S
C804 C805 1.392 . S
C804 C808 1.495 . S
C805 C804 1.392 . S
C805 C806 1.385 . S
C805 C807 1.478 . S
C806 H800 0.930 . S
C806 C802 1.400 . S
C806 C805 1.385 . S
C807 C805 1.478 . S
C807 C809 1.381 . S
C807 C813 1.383 . S
C808 C804 1.495 . S
C808 H814 0.959 . S
C808 H815 0.961 . S
C808 H816 0.960 . S
C809 C807 1.381 . S
C809 C810 1.394 . S
C809 H817 0.930 . S
C810 C809 1.394 . S
C810 C811 1.383 1_565 S
C810 H818 0.929 1_565 S
C811 C810 1.383 1_545 S
C811 C812 1.377 1_545 S
C812 H796 0.930 . S
C812 C811 1.377 1_565 S
C812 C813 1.379 . S
C813 H797 0.931 . S
C813 C807 1.383 . S
C813 C812 1.379 . S
H814 C808 0.959 . S
H815 C808 0.961 . S
H816 C808 0.960 . S
H817 C809 0.930 . S
H818 C810 0.929 1_545 S
H819 C827 0.929 . S
H820 C829 0.930 . S
H821 C831 0.930 . S
H822 C834 0.929 . S
H823 C837 0.930 . S
H824 C839 0.960 . S
H825 C839 0.960 . S
H826 C839 0.960 . S
C827 H819 0.929 . S
C827 C828 1.377 . S
C827 C829 1.384 . S
C828 C827 1.377 . S
C828 C834 1.390 . S
C829 H820 0.930 . S
C829 C827 1.384 . S
C829 C830 1.372 . S
C830 C829 1.372 . S
C830 C831 1.400 . S
C830 C835 1.490 . S
C831 H821 0.930 . S
C831 C830 1.400 . S
C831 C834 1.386 . S
H832 C848 0.930 . S
H833 C849 0.931 . S
C834 H822 0.929 . S
C834 C828 1.390 . S
C834 C831 1.386 . S
C835 C830 1.490 . S
C835 C837 1.395 . S
C835 C838 1.403 . S
H836 C842 0.930 . S
C837 H823 0.930 . S
C837 C835 1.395 . S
C837 C840 1.403 . S
C838 C835 1.403 . S
C838 C839 1.524 . S
C838 C842 1.400 . S
C839 H824 0.960 . S
C839 H825 0.960 . S
C839 H826 0.960 . S
C839 C838 1.524 . S
C840 C837 1.403 . S
C840 C841 1.392 . S
C840 C844 1.495 . S
C841 C840 1.392 . S
C841 C842 1.385 . S
C841 C843 1.478 . S
C842 H836 0.930 . S
C842 C838 1.400 . S
C842 C841 1.385 . S
C843 C841 1.478 . S
C843 C845 1.381 . S
C843 C849 1.383 . S
C844 C840 1.495 . S
C844 H850 0.959 . S
C844 H851 0.961 . S
C844 H852 0.960 . S
C845 C843 1.381 . S
C845 C846 1.394 . S
C845 H853 0.930 . S
C846 C845 1.394 . S
C846 C847 1.383 . S
C846 H854 0.929 1_455 S
C847 C846 1.383 . S
C847 C848 1.377 . S
C848 H832 0.930 . S
C848 C847 1.377 . S
C848 C849 1.379 . S
C849 H833 0.931 . S
C849 C843 1.383 . S
C849 C848 1.379 . S
H850 C844 0.959 . S
H851 C844 0.961 . S
H852 C844 0.960 . S
H853 C845 0.930 . S
H854 C846 0.929 1_655 S
H855 C863 0.929 . S
H856 C865 0.930 . S
H857 C867 0.930 . S
H858 C870 0.929 . S
H859 C873 0.930 . S
H860 C875 0.960 . S
H861 C875 0.960 . S
H862 C875 0.960 . S
C863 H855 0.929 . S
C863 C864 1.377 . S
C863 C865 1.384 . S
C864 C863 1.377 . S
C864 C870 1.390 . S
C865 H856 0.930 . S
C865 C863 1.384 . S
C865 C866 1.372 . S
C866 C865 1.372 . S
C866 C867 1.400 . S
C866 C871 1.490 . S
C867 H857 0.930 . S
C867 C866 1.400 . S
C867 C870 1.386 . S
H868 C884 0.930 1_655 S
H869 C885 0.931 . S
C870 H858 0.929 . S
C870 C864 1.390 . S
C870 C867 1.386 . S
C871 C866 1.490 . S
C871 C873 1.395 . S
C871 C874 1.403 . S
H872 C878 0.930 . S
C873 H859 0.930 . S
C873 C871 1.395 . S
C873 C876 1.403 . S
C874 C871 1.403 . S
C874 C875 1.524 . S
C874 C878 1.400 . S
C875 H860 0.960 . S
C875 H861 0.960 . S
C875 H862 0.960 . S
C875 C874 1.524 . S
C876 C873 1.403 . S
C876 C877 1.392 . S
C876 C880 1.495 . S
C877 C876 1.392 . S
C877 C878 1.385 . S
C877 C879 1.478 . S
C878 H872 0.930 . S
C878 C874 1.400 . S
C878 C877 1.385 . S
C879 C877 1.478 . S
C879 C881 1.381 . S
C879 C885 1.383 . S
C880 C876 1.495 . S
C880 H886 0.959 . S
C880 H887 0.961 1_455 S
C880 H888 0.960 . S
C881 C879 1.381 . S
C881 C882 1.394 . S
C881 H889 0.930 . S
C882 C881 1.394 . S
C882 C883 1.383 . S
C882 H890 0.929 . S
C883 C882 1.383 . S
C883 C884 1.377 . S
C884 H868 0.930 1_455 S
C884 C883 1.377 . S
C884 C885 1.379 . S
C885 H869 0.931 . S
C885 C879 1.383 . S
C885 C884 1.379 . S
H886 C880 0.959 . S
H887 C880 0.961 1_655 S
H888 C880 0.960 . S
H889 C881 0.930 . S
H890 C882 0.929 . S
H891 C899 0.929 . S
H892 C901 0.930 . S
H893 C903 0.930 . S
H894 C906 0.929 . S
H895 C909 0.930 . S
H896 C911 0.960 . S
H897 C911 0.960 . S
H898 C911 0.960 . S
C899 H891 0.929 . S
C899 C900 1.377 . S
C899 C901 1.384 . S
C900 C899 1.377 . S
C900 C906 1.390 . S
C901 H892 0.930 . S
C901 C899 1.384 . S
C901 C902 1.372 . S
C902 C901 1.372 . S
C902 C903 1.400 . S
C902 C907 1.490 . S
C903 H893 0.930 . S
C903 C902 1.400 . S
C903 C906 1.386 . S
H904 C920 0.930 . S
H905 C921 0.931 . S
C906 H894 0.929 . S
C906 C900 1.390 . S
C906 C903 1.386 . S
C907 C902 1.490 . S
C907 C909 1.395 . S
C907 C910 1.403 . S
H908 C914 0.930 . S
C909 H895 0.930 . S
C909 C907 1.395 . S
C909 C912 1.403 . S
C910 C907 1.403 . S
C910 C911 1.524 . S
C910 C914 1.400 . S
C911 H896 0.960 . S
C911 H897 0.960 . S
C911 H898 0.960 . S
C911 C910 1.524 . S
C912 C909 1.403 . S
C912 C913 1.392 . S
C912 C916 1.495 . S
C913 C912 1.392 . S
C913 C914 1.385 . S
C913 C915 1.478 . S
C914 H908 0.930 . S
C914 C910 1.400 . S
C914 C913 1.385 . S
C915 C913 1.478 . S
C915 C917 1.381 . S
C915 C921 1.383 . S
C916 C912 1.495 . S
C916 H922 0.959 . S
C916 H923 0.961 . S
C916 H924 0.960 . S
C917 C915 1.381 . S
C917 C918 1.394 . S
C917 H925 0.930 . S
C918 C917 1.394 . S
C918 C919 1.383 . S
C918 H926 0.929 . S
C919 C918 1.383 . S
C919 C920 1.377 . S
C920 H904 0.930 . S
C920 C919 1.377 . S
C920 C921 1.379 . S
C921 H905 0.931 . S
C921 C915 1.383 . S
C921 C920 1.379 . S
H922 C916 0.959 . S
H923 C916 0.961 . S
H924 C916 0.960 . S
H925 C917 0.930 . S
H926 C918 0.929 . S
H927 C935 0.929 . S
H928 C937 0.930 . S
H929 C939 0.930 . S
H930 C942 0.929 . S
H931 C945 0.930 . S
H932 C947 0.960 . S
H933 C947 0.960 . S
H934 C947 0.960 . S
C935 H927 0.929 . S
C935 C936 1.377 1_565 S
C935 C937 1.384 . S
C936 C935 1.377 1_545 S
C936 C942 1.390 . S
C937 H928 0.930 . S
C937 C935 1.384 . S
C937 C938 1.372 1_565 S
C938 C937 1.372 1_545 S
C938 C939 1.400 . S
C938 C943 1.490 1_545 S
C939 H929 0.930 . S
C939 C938 1.400 . S
C939 C942 1.386 . S
H940 C956 0.930 . S
H941 C957 0.931 . S
C942 H930 0.929 . S
C942 C936 1.390 . S
C942 C939 1.386 . S
C943 C938 1.490 1_565 S
C943 C945 1.395 . S
C943 C946 1.403 1_565 S
H944 C950 0.930 . S
C945 H931 0.930 . S
C945 C943 1.395 . S
C945 C948 1.403 . S
C946 C943 1.403 1_545 S
C946 C947 1.524 . S
C946 C950 1.400 . S
C947 H932 0.960 . S
C947 H933 0.960 . S
C947 H934 0.960 . S
C947 C946 1.524 . S
C948 C945 1.403 . S
C948 C949 1.392 . S
C948 C952 1.495 . S
C949 C948 1.392 . S
C949 C950 1.385 1_565 S
C949 C951 1.478 . S
C950 H944 0.930 . S
C950 C946 1.400 . S
C950 C949 1.385 1_545 S
C951 C949 1.478 . S
C951 C953 1.381 . S
C951 C957 1.383 1_565 S
C952 C948 1.495 . S
C952 H958 0.959 . S
C952 H959 0.961 . S
C952 H960 0.960 . S
C953 C951 1.381 . S
C953 C954 1.394 . S
C953 H961 0.930 . S
C954 C953 1.394 . S
C954 C955 1.383 . S
C954 H962 0.929 . S
C955 C954 1.383 . S
C955 C956 1.377 1_565 S
C956 H940 0.930 . S
C956 C955 1.377 1_545 S
C956 C957 1.379 . S
C957 H941 0.931 . S
C957 C951 1.383 1_545 S
C957 C956 1.379 . S
H958 C952 0.959 . S
H959 C952 0.961 . S
H960 C952 0.960 . S
H961 C953 0.930 . S
H962 C954 0.929 . S
H963 C971 0.929 . S
H964 C973 0.930 . S
H965 C975 0.930 . S
H966 C978 0.929 1_565 S
H967 C981 0.930 . S
H968 C983 0.960 . S
H969 C983 0.960 . S
H970 C983 0.960 . S
C971 H963 0.929 . S
C971 C972 1.377 . S
C971 C973 1.384 . S
C972 C971 1.377 . S
C972 C978 1.390 . S
C973 H964 0.930 . S
C973 C971 1.384 . S
C973 C974 1.372 . S
C974 C973 1.372 . S
C974 C975 1.400 . S
C974 C979 1.490 . S
C975 H965 0.930 . S
C975 C974 1.400 . S
C975 C978 1.386 . S
H976 C992 0.930 . S
H977 C993 0.931 . S
C978 H966 0.929 1_545 S
C978 C972 1.390 . S
C978 C975 1.386 . S
C979 C974 1.490 . S
C979 C981 1.395 . S
C979 C982 1.403 . S
H980 C986 0.930 . S
C981 H967 0.930 . S
C981 C979 1.395 . S
C981 C984 1.403 . S
C982 C979 1.403 . S
C982 C983 1.524 . S
C982 C986 1.400 . S
C983 H968 0.960 . S
C983 H969 0.960 . S
C983 H970 0.960 . S
C983 C982 1.524 . S
C984 C981 1.403 . S
C984 C985 1.392 . S
C984 C988 1.495 . S
C985 C984 1.392 . S
C985 C986 1.385 . S
C985 C987 1.478 . S
C986 H980 0.930 . S
C986 C982 1.400 . S
C986 C985 1.385 . S
C987 C985 1.478 . S
C987 C989 1.381 . S
C987 C993 1.383 . S
C988 C984 1.495 . S
C988 H994 0.959 . S
C988 H995 0.961 . S
C988 H996 0.960 . S
C989 C987 1.381 . S
C989 C990 1.394 . S
C989 H997 0.930 . S
C990 C989 1.394 . S
C990 C991 1.383 . S
C990 H998 0.929 . S
C991 C990 1.383 . S
C991 C992 1.377 . S
C992 H976 0.930 . S
C992 C991 1.377 . S
C992 C993 1.379 . S
C993 H977 0.931 . S
C993 C987 1.383 . S
C993 C992 1.379 . S
H994 C988 0.959 . S
H995 C988 0.961 . S
H996 C988 0.960 . S
H997 C989 0.930 . S
H998 C990 0.929 . S
H999 C1007 0.929 . S
H1000 C1009 0.930 . S
H1001 C1011 0.930 . S
H1002 C1014 0.929 . S
H1003 C1017 0.930 . S
H1004 C1019 0.960 . S
H1005 C1019 0.960 . S
H1006 C1019 0.960 . S
C1007 H999 0.929 . S
C1007 C1008 1.377 . S
C1007 C1009 1.384 . S
C1008 C1007 1.377 . S
C1008 C1014 1.390 1_655 S
C1009 H1000 0.930 . S
C1009 C1007 1.384 . S
C1009 C1010 1.372 . S
C1010 C1009 1.372 . S
C1010 C1011 1.400 1_655 S
C1010 C1015 1.490 . S
C1011 H1001 0.930 . S
C1011 C1010 1.400 1_455 S
C1011 C1014 1.386 . S
H1012 C1028 0.930 . S
H1013 C1029 0.931 . S
C1014 H1002 0.929 . S
C1014 C1008 1.390 1_455 S
C1014 C1011 1.386 . S
C1015 C1010 1.490 . S
C1015 C1017 1.395 . S
C1015 C1018 1.403 . S
H1016 C1022 0.930 . S
C1017 H1003 0.930 . S
C1017 C1015 1.395 . S
C1017 C1020 1.403 . S
C1018 C1015 1.403 . S
C1018 C1019 1.524 . S
C1018 C1022 1.400 . S
C1019 H1004 0.960 . S
C1019 H1005 0.960 . S
C1019 H1006 0.960 . S
C1019 C1018 1.524 . S
C1020 C1017 1.403 . S
C1020 C1021 1.392 . S
C1020 C1024 1.495 . S
C1021 C1020 1.392 . S
C1021 C1022 1.385 . S
C1021 C1023 1.478 . S
C1022 H1016 0.930 . S
C1022 C1018 1.400 . S
C1022 C1021 1.385 . S
C1023 C1021 1.478 . S
C1023 C1025 1.381 . S
C1023 C1029 1.383 . S
C1024 C1020 1.495 . S
C1024 H1030 0.959 . S
C1024 H1031 0.961 . S
C1024 H1032 0.960 . S
C1025 C1023 1.381 . S
C1025 C1026 1.394 . S
C1025 H1033 0.930 . S
C1026 C1025 1.394 . S
C1026 C1027 1.383 . S
C1026 H1034 0.929 . S
C1027 C1026 1.383 . S
C1027 C1028 1.377 . S
C1028 H1012 0.930 . S
C1028 C1027 1.377 . S
C1028 C1029 1.379 . S
C1029 H1013 0.931 . S
C1029 C1023 1.383 . S
C1029 C1028 1.379 . S
H1030 C1024 0.959 . S
H1031 C1024 0.961 . S
H1032 C1024 0.960 . S
H1033 C1025 0.930 . S
H1034 C1026 0.929 . S
H1035 C1043 0.929 . S
H1036 C1045 0.930 . S
H1037 C1047 0.930 . S
H1038 C1050 0.929 . S
H1039 C1053 0.930 . S
H1040 C1055 0.960 . S
H1041 C1055 0.960 . S
H1042 C1055 0.960 . S
C1043 H1035 0.929 . S
C1043 C1044 1.377 . S
C1043 C1045 1.384 . S
C1044 C1043 1.377 . S
C1044 C1050 1.390 . S
C1045 H1036 0.930 . S
C1045 C1043 1.384 . S
C1045 C1046 1.372 . S
C1046 C1045 1.372 . S
C1046 C1047 1.400 . S
C1046 C1051 1.490 . S
C1047 H1037 0.930 . S
C1047 C1046 1.400 . S
C1047 C1050 1.386 . S
H1048 C1064 0.930 . S
H1049 C1065 0.931 . S
C1050 H1038 0.929 . S
C1050 C1044 1.390 . S
C1050 C1047 1.386 . S
C1051 C1046 1.490 . S
C1051 C1053 1.395 . S
C1051 C1054 1.403 . S
H1052 C1058 0.930 . S
C1053 H1039 0.930 . S
C1053 C1051 1.395 . S
C1053 C1056 1.403 . S
C1054 C1051 1.403 . S
C1054 C1055 1.524 . S
C1054 C1058 1.400 . S
C1055 H1040 0.960 . S
C1055 H1041 0.960 . S
C1055 H1042 0.960 . S
C1055 C1054 1.524 . S
C1056 C1053 1.403 . S
C1056 C1057 1.392 . S
C1056 C1060 1.495 . S
C1057 C1056 1.392 . S
C1057 C1058 1.385 . S
C1057 C1059 1.478 . S
C1058 H1052 0.930 . S
C1058 C1054 1.400 . S
C1058 C1057 1.385 . S
C1059 C1057 1.478 . S
C1059 C1061 1.381 . S
C1059 C1065 1.383 . S
C1060 C1056 1.495 . S
C1060 H1066 0.959 . S
C1060 H1067 0.961 . S
C1060 H1068 0.960 . S
C1061 C1059 1.381 . S
C1061 C1062 1.394 . S
C1061 H1069 0.930 . S
C1062 C1061 1.394 . S
C1062 C1063 1.383 . S
C1062 H1070 0.929 . S
C1063 C1062 1.383 . S
C1063 C1064 1.377 . S
C1064 H1048 0.930 . S
C1064 C1063 1.377 . S
C1064 C1065 1.379 . S
C1065 H1049 0.931 . S
C1065 C1059 1.383 . S
C1065 C1064 1.379 . S
H1066 C1060 0.959 . S
H1067 C1060 0.961 . S
H1068 C1060 0.960 . S
H1069 C1061 0.930 . S
H1070 C1062 0.929 . S
H1071 C1079 0.929 . S
H1072 C1081 0.930 . S
H1073 C1083 0.930 . S
H1074 C1086 0.929 . S
H1075 C1089 0.930 . S
H1076 C1091 0.960 . S
H1077 C1091 0.960 . S
H1078 C1091 0.960 . S
C1079 H1071 0.929 . S
C1079 C1080 1.377 . S
C1079 C1081 1.384 . S
C1080 C1079 1.377 . S
C1080 C1086 1.390 . S
C1081 H1072 0.930 . S
C1081 C1079 1.384 . S
C1081 C1082 1.372 . S
C1082 C1081 1.372 . S
C1082 C1083 1.400 . S
C1082 C1087 1.490 . S
C1083 H1073 0.930 . S
C1083 C1082 1.400 . S
C1083 C1086 1.386 . S
H1084 C1100 0.930 . S
H1085 C1101 0.931 . S
C1086 H1074 0.929 . S
C1086 C1080 1.390 . S
C1086 C1083 1.386 . S
C1087 C1082 1.490 . S
C1087 C1089 1.395 . S
C1087 C1090 1.403 . S
H1088 C1094 0.930 . S
C1089 H1075 0.930 . S
C1089 C1087 1.395 . S
C1089 C1092 1.403 . S
C1090 C1087 1.403 . S
C1090 C1091 1.524 . S
C1090 C1094 1.400 . S
C1091 H1076 0.960 . S
C1091 H1077 0.960 . S
C1091 H1078 0.960 . S
C1091 C1090 1.524 . S
C1092 C1089 1.403 . S
C1092 C1093 1.392 . S
C1092 C1096 1.495 . S
C1093 C1092 1.392 . S
C1093 C1094 1.385 . S
C1093 C1095 1.478 . S
C1094 H1088 0.930 . S
C1094 C1090 1.400 . S
C1094 C1093 1.385 . S
C1095 C1093 1.478 . S
C1095 C1097 1.381 . S
C1095 C1101 1.383 . S
C1096 C1092 1.495 . S
C1096 H1102 0.959 . S
C1096 H1103 0.961 . S
C1096 H1104 0.960 . S
C1097 C1095 1.381 . S
C1097 C1098 1.394 . S
C1097 H1105 0.930 . S
C1098 C1097 1.394 . S
C1098 C1099 1.383 . S
C1098 H1106 0.929 . S
C1099 C1098 1.383 . S
C1099 C1100 1.377 . S
C1100 H1084 0.930 . S
C1100 C1099 1.377 . S
C1100 C1101 1.379 . S
C1101 H1085 0.931 . S
C1101 C1095 1.383 . S
C1101 C1100 1.379 . S
H1102 C1096 0.959 . S
H1103 C1096 0.961 . S
H1104 C1096 0.960 . S
H1105 C1097 0.930 . S
H1106 C1098 0.929 . S
H1107 C1115 0.929 . S
H1108 C1117 0.930 . S
H1109 C1119 0.930 . S
H1110 C1122 0.929 . S
H1111 C1125 0.930 . S
H1112 C1127 0.960 . S
H1113 C1127 0.960 . S
H1114 C1127 0.960 . S
C1115 H1107 0.929 . S
C1115 C1116 1.377 . S
C1115 C1117 1.384 . S
C1116 C1115 1.377 . S
C1116 C1122 1.390 1_565 S
C1117 H1108 0.930 . S
C1117 C1115 1.384 . S
C1117 C1118 1.372 1_565 S
C1118 C1117 1.372 1_545 S
C1118 C1119 1.400 . S
C1118 C1123 1.490 . S
C1119 H1109 0.930 . S
C1119 C1118 1.400 . S
C1119 C1122 1.386 . S
H1120 C1136 0.930 . S
H1121 C1137 0.931 . S
C1122 H1110 0.929 . S
C1122 C1116 1.390 1_545 S
C1122 C1119 1.386 . S
C1123 C1118 1.490 . S
C1123 C1125 1.395 1_545 S
C1123 C1126 1.403 . S
H1124 C1130 0.930 . S
C1125 H1111 0.930 . S
C1125 C1123 1.395 1_565 S
C1125 C1128 1.403 1_565 S
C1126 C1123 1.403 . S
C1126 C1127 1.524 . S
C1126 C1130 1.400 . S
C1127 H1112 0.960 . S
C1127 H1113 0.960 . S
C1127 H1114 0.960 . S
C1127 C1126 1.524 . S
C1128 C1125 1.403 1_545 S
C1128 C1129 1.392 . S
C1128 C1132 1.495 1_545 S
C1129 C1128 1.392 . S
C1129 C1130 1.385 . S
C1129 C1131 1.478 . S
C1130 H1124 0.930 . S
C1130 C1126 1.400 . S
C1130 C1129 1.385 . S
C1131 C1129 1.478 . S
C1131 C1133 1.381 . S
C1131 C1137 1.383 . S
C1132 C1128 1.495 1_565 S
C1132 H1138 0.959 . S
C1132 H1139 0.961 . S
C1132 H1140 0.960 . S
C1133 C1131 1.381 . S
C1133 C1134 1.394 . S
C1133 H1141 0.930 . S
C1134 C1133 1.394 . S
C1134 C1135 1.383 . S
C1134 H1142 0.929 . S
C1135 C1134 1.383 . S
C1135 C1136 1.377 . S
C1136 H1120 0.930 . S
C1136 C1135 1.377 . S
C1136 C1137 1.379 . S
C1137 H1121 0.931 . S
C1137 C1131 1.383 . S
C1137 C1136 1.379 . S
H1138 C1132 0.959 . S
H1139 C1132 0.961 . S
H1140 C1132 0.960 . S
H1141 C1133 0.930 . S
H1142 C1134 0.929 . S
H1143 C1151 0.929 . S
H1144 C1153 0.930 1_455 S
H1145 C1155 0.930 . S
H1146 C1158 0.929 . S
H1147 C1161 0.930 . S
H1148 C1163 0.960 . S
H1149 C1163 0.960 . S
H1150 C1163 0.960 . S
C1151 H1143 0.929 . S
C1151 C1152 1.377 . S
C1151 C1153 1.384 . S
C1152 C1151 1.377 . S
C1152 C1158 1.390 . S
C1153 H1144 0.930 1_655 S
C1153 C1151 1.384 . S
C1153 C1154 1.372 . S
C1154 C1153 1.372 . S
C1154 C1155 1.400 . S
C1154 C1159 1.490 . S
C1155 H1145 0.930 . S
C1155 C1154 1.400 . S
C1155 C1158 1.386 . S
H1156 C1172 0.930 . S
H1157 C1173 0.931 1_655 S
C1158 H1146 0.929 . S
C1158 C1152 1.390 . S
C1158 C1155 1.386 . S
C1159 C1154 1.490 . S
C1159 C1161 1.395 1_655 S
C1159 C1162 1.403 . S
H1160 C1166 0.930 . S
C1161 H1147 0.930 . S
C1161 C1159 1.395 1_455 S
C1161 C1164 1.403 . S
C1162 C1159 1.403 . S
C1162 C1163 1.524 . S
C1162 C1166 1.400 1_655 S
C1163 H1148 0.960 . S
C1163 H1149 0.960 . S
C1163 H1150 0.960 . S
C1163 C1162 1.524 . S
C1164 C1161 1.403 . S
C1164 C1165 1.392 . S
C1164 C1168 1.495 . S
C1165 C1164 1.392 . S
C1165 C1166 1.385 . S
C1165 C1167 1.478 . S
C1166 H1160 0.930 . S
C1166 C1162 1.400 1_455 S
C1166 C1165 1.385 . S
C1167 C1165 1.478 . S
C1167 C1169 1.381 . S
C1167 C1173 1.383 . S
C1168 C1164 1.495 . S
C1168 H1174 0.959 . S
C1168 H1175 0.961 . S
C1168 H1176 0.960 . S
C1169 C1167 1.381 . S
C1169 C1170 1.394 . S
C1169 H1177 0.930 . S
C1170 C1169 1.394 . S
C1170 C1171 1.383 . S
C1170 H1178 0.929 . S
C1171 C1170 1.383 . S
C1171 C1172 1.377 . S
C1172 H1156 0.930 . S
C1172 C1171 1.377 . S
C1172 C1173 1.379 . S
C1173 H1157 0.931 1_455 S
C1173 C1167 1.383 . S
C1173 C1172 1.379 . S
H1174 C1168 0.959 . S
H1175 C1168 0.961 . S
H1176 C1168 0.960 . S
H1177 C1169 0.930 . S
H1178 C1170 0.929 . S
C216 C44 0.860 . S
C235 C17 0.850 . S
C252 C62 1.157 . S
C271 C40 1.144 . S
C288 C64 0.992 . S
C307 C21 1.004 . S
C324 C63 0.908 . S
C343 C39 0.934 . S
C360 C67 0.503 . S
C379 C18 0.452 . S
C396 C16 1.004 . S
C415 C41 1.015 . S
C432 C86 0.989 . S
C451 C113 0.972 . S
C468 C136 1.137 . S
C487 C109 1.115 . S
C504 C132 0.773 1_655 S
C523 C90 0.812 . S
C540 C108 0.945 . S
C559 C133 0.952 . S
C576 C131 0.588 . S
C595 C87 0.628 . S
C612 C110 0.728 . S
C631 C85 0.740 . S
C648 C182 0.721 . S
C667 C155 0.781 . S
C684 C178 1.204 . S
C703 C200 1.250 . S
C720 C202 0.806 . S
C739 C159 0.776 . S
C756 C201 0.731 . S
C775 C177 0.731 . S
C792 C205 0.601 . S
C811 C156 0.575 . S
C828 C154 0.873 . S
C847 C179 0.849 . S
C864 C134 1.569 . S
C883 C20 1.625 . S
C900 C88 1.804 . S
C919 C43 1.881 . S
C936 C65 1.652 . S
C955 C111 1.613 . S
C972 C66 1.586 . S
C991 C158 1.584 . S
C1008 C19 1.659 . S
C1027 C181 1.737 . S
C1044 C203 1.802 . S
C1063 C42 1.816 . S
C1080 C89 1.753 . S
C1099 C204 1.746 . S
C1116 C112 1.594 . S
C1135 C157 1.523 . S
C1152 C180 1.756 . S
C1171 C135 1.823 . S
