# Generated by pormake.
# Topology uoa, (4)-cn, num edge types: 1
# Building blocks:
#     Node 0, Type 0, BuildingBlock: KOZSID_clean_sbu_0, # of connection points: 4
#     Node 1, Type 0, BuildingBlock: KOZSID_clean_sbu_0, # of connection points: 4
#     Node 2, Type 0, BuildingBlock: KOZSID_clean_sbu_0, # of connection points: 4
#     Node 3, Type 0, BuildingBlock: KOZSID_clean_sbu_0, # of connection points: 4
#     Node 4, Type 0, BuildingBlock: KOZSID_clean_sbu_0, # of connection points: 4
#     Node 5, Type 0, BuildingBlock: KOZSID_clean_sbu_0, # of connection points: 4
#     Node 6, Type 0, BuildingBlock: KOZSID_clean_sbu_0, # of connection points: 4
#     Node 7, Type 0, BuildingBlock: KOZSID_clean_sbu_0, # of connection points: 4
#     Node 8, Type 0, BuildingBlock: KOZSID_clean_sbu_0, # of connection points: 4
#     Node 9, Type 0, BuildingBlock: KOZSID_clean_sbu_0, # of connection points: 4
#     Node 10, Type 0, BuildingBlock: KOZSID_clean_sbu_0, # of connection points: 4
#     Node 11, Type 0, BuildingBlock: KOZSID_clean_sbu_0, # of connection points: 4
#     Node 12, Type 0, BuildingBlock: KOZSID_clean_sbu_0, # of connection points: 4
#     Node 13, Type 0, BuildingBlock: KOZSID_clean_sbu_0, # of connection points: 4
#     Node 14, Type 0, BuildingBlock: KOZSID_clean_sbu_0, # of connection points: 4
#     Node 15, Type 0, BuildingBlock: KOZSID_clean_sbu_0, # of connection points: 4
#     Node 16, Type 0, BuildingBlock: KOZSID_clean_sbu_0, # of connection points: 4
#     Node 17, Type 0, BuildingBlock: KOZSID_clean_sbu_0, # of connection points: 4
#     Node 18, Type 0, BuildingBlock: KOZSID_clean_sbu_0, # of connection points: 4
#     Node 19, Type 0, BuildingBlock: KOZSID_clean_sbu_0, # of connection points: 4
#     Node 20, Type 0, BuildingBlock: KOZSID_clean_sbu_0, # of connection points: 4
#     Node 21, Type 0, BuildingBlock: KOZSID_clean_sbu_0, # of connection points: 4
#     Node 22, Type 0, BuildingBlock: KOZSID_clean_sbu_0, # of connection points: 4
#     Node 23, Type 0, BuildingBlock: KOZSID_clean_sbu_0, # of connection points: 4
#     Node 24, Type 0, BuildingBlock: KOZSID_clean_sbu_0, # of connection points: 4
#     Node 25, Type 0, BuildingBlock: KOZSID_clean_sbu_0, # of connection points: 4
#     Node 26, Type 0, BuildingBlock: KOZSID_clean_sbu_0, # of connection points: 4
#     Node 27, Type 0, BuildingBlock: KOZSID_clean_sbu_0, # of connection points: 4
#     Node 28, Type 0, BuildingBlock: KOZSID_clean_sbu_0, # of connection points: 4
#     Node 29, Type 0, BuildingBlock: KOZSID_clean_sbu_0, # of connection points: 4
#     Node 30, Type 0, BuildingBlock: KOZSID_clean_sbu_0, # of connection points: 4
#     Node 31, Type 0, BuildingBlock: KOZSID_clean_sbu_0, # of connection points: 4
#     Edge 32, Type (0, 0), BuildingBlock: OJICUG_clean_linker_0, # of connection points: 2
#     Edge 33, Type (0, 0), BuildingBlock: OJICUG_clean_linker_0, # of connection points: 2
#     Edge 34, Type (0, 0), BuildingBlock: OJICUG_clean_linker_0, # of connection points: 2
#     Edge 35, Type (0, 0), BuildingBlock: OJICUG_clean_linker_0, # of connection points: 2
#     Edge 36, Type (0, 0), BuildingBlock: OJICUG_clean_linker_0, # of connection points: 2
#     Edge 37, Type (0, 0), BuildingBlock: OJICUG_clean_linker_0, # of connection points: 2
#     Edge 38, Type (0, 0), BuildingBlock: OJICUG_clean_linker_0, # of connection points: 2
#     Edge 39, Type (0, 0), BuildingBlock: OJICUG_clean_linker_0, # of connection points: 2
#     Edge 40, Type (0, 0), BuildingBlock: OJICUG_clean_linker_0, # of connection points: 2
#     Edge 41, Type (0, 0), BuildingBlock: OJICUG_clean_linker_0, # of connection points: 2
#     Edge 42, Type (0, 0), BuildingBlock: OJICUG_clean_linker_0, # of connection points: 2
#     Edge 43, Type (0, 0), BuildingBlock: OJICUG_clean_linker_0, # of connection points: 2
#     Edge 44, Type (0, 0), BuildingBlock: OJICUG_clean_linker_0, # of connection points: 2
#     Edge 45, Type (0, 0), BuildingBlock: OJICUG_clean_linker_0, # of connection points: 2
#     Edge 46, Type (0, 0), BuildingBlock: OJICUG_clean_linker_0, # of connection points: 2
#     Edge 47, Type (0, 0), BuildingBlock: OJICUG_clean_linker_0, # of connection points: 2
#     Edge 48, Type (0, 0), BuildingBlock: OJICUG_clean_linker_0, # of connection points: 2
#     Edge 49, Type (0, 0), BuildingBlock: OJICUG_clean_linker_0, # of connection points: 2
#     Edge 50, Type (0, 0), BuildingBlock: OJICUG_clean_linker_0, # of connection points: 2
#     Edge 51, Type (0, 0), BuildingBlock: OJICUG_clean_linker_0, # of connection points: 2
#     Edge 52, Type (0, 0), BuildingBlock: OJICUG_clean_linker_0, # of connection points: 2
#     Edge 53, Type (0, 0), BuildingBlock: OJICUG_clean_linker_0, # of connection points: 2
#     Edge 54, Type (0, 0), BuildingBlock: OJICUG_clean_linker_0, # of connection points: 2
#     Edge 55, Type (0, 0), BuildingBlock: OJICUG_clean_linker_0, # of connection points: 2
#     Edge 56, Type (0, 0), BuildingBlock: OJICUG_clean_linker_0, # of connection points: 2
#     Edge 57, Type (0, 0), BuildingBlock: OJICUG_clean_linker_0, # of connection points: 2
#     Edge 58, Type (0, 0), BuildingBlock: OJICUG_clean_linker_0, # of connection points: 2
#     Edge 59, Type (0, 0), BuildingBlock: OJICUG_clean_linker_0, # of connection points: 2
#     Edge 60, Type (0, 0), BuildingBlock: OJICUG_clean_linker_0, # of connection points: 2
#     Edge 61, Type (0, 0), BuildingBlock: OJICUG_clean_linker_0, # of connection points: 2
#     Edge 62, Type (0, 0), BuildingBlock: OJICUG_clean_linker_0, # of connection points: 2
#     Edge 63, Type (0, 0), BuildingBlock: OJICUG_clean_linker_0, # of connection points: 2
#     Edge 64, Type (0, 0), BuildingBlock: OJICUG_clean_linker_0, # of connection points: 2
#     Edge 65, Type (0, 0), BuildingBlock: OJICUG_clean_linker_0, # of connection points: 2
#     Edge 66, Type (0, 0), BuildingBlock: OJICUG_clean_linker_0, # of connection points: 2
#     Edge 67, Type (0, 0), BuildingBlock: OJICUG_clean_linker_0, # of connection points: 2
#     Edge 68, Type (0, 0), BuildingBlock: OJICUG_clean_linker_0, # of connection points: 2
#     Edge 69, Type (0, 0), BuildingBlock: OJICUG_clean_linker_0, # of connection points: 2
#     Edge 70, Type (0, 0), BuildingBlock: OJICUG_clean_linker_0, # of connection points: 2
#     Edge 71, Type (0, 0), BuildingBlock: OJICUG_clean_linker_0, # of connection points: 2
#     Edge 72, Type (0, 0), BuildingBlock: OJICUG_clean_linker_0, # of connection points: 2
#     Edge 73, Type (0, 0), BuildingBlock: OJICUG_clean_linker_0, # of connection points: 2
#     Edge 74, Type (0, 0), BuildingBlock: OJICUG_clean_linker_0, # of connection points: 2
#     Edge 75, Type (0, 0), BuildingBlock: OJICUG_clean_linker_0, # of connection points: 2
#     Edge 76, Type (0, 0), BuildingBlock: OJICUG_clean_linker_0, # of connection points: 2
#     Edge 77, Type (0, 0), BuildingBlock: OJICUG_clean_linker_0, # of connection points: 2
#     Edge 78, Type (0, 0), BuildingBlock: OJICUG_clean_linker_0, # of connection points: 2
#     Edge 79, Type (0, 0), BuildingBlock: OJICUG_clean_linker_0, # of connection points: 2
#     Edge 80, Type (0, 0), BuildingBlock: OJICUG_clean_linker_0, # of connection points: 2
#     Edge 81, Type (0, 0), BuildingBlock: OJICUG_clean_linker_0, # of connection points: 2
#     Edge 82, Type (0, 0), BuildingBlock: OJICUG_clean_linker_0, # of connection points: 2
#     Edge 83, Type (0, 0), BuildingBlock: OJICUG_clean_linker_0, # of connection points: 2
#     Edge 84, Type (0, 0), BuildingBlock: OJICUG_clean_linker_0, # of connection points: 2
#     Edge 85, Type (0, 0), BuildingBlock: OJICUG_clean_linker_0, # of connection points: 2
#     Edge 86, Type (0, 0), BuildingBlock: OJICUG_clean_linker_0, # of connection points: 2
#     Edge 87, Type (0, 0), BuildingBlock: OJICUG_clean_linker_0, # of connection points: 2
#     Edge 88, Type (0, 0), BuildingBlock: OJICUG_clean_linker_0, # of connection points: 2
#     Edge 89, Type (0, 0), BuildingBlock: OJICUG_clean_linker_0, # of connection points: 2
#     Edge 90, Type (0, 0), BuildingBlock: OJICUG_clean_linker_0, # of connection points: 2
#     Edge 91, Type (0, 0), BuildingBlock: OJICUG_clean_linker_0, # of connection points: 2
#     Edge 92, Type (0, 0), BuildingBlock: OJICUG_clean_linker_0, # of connection points: 2
#     Edge 93, Type (0, 0), BuildingBlock: OJICUG_clean_linker_0, # of connection points: 2
#     Edge 94, Type (0, 0), BuildingBlock: OJICUG_clean_linker_0, # of connection points: 2
#     Edge 95, Type (0, 0), BuildingBlock: OJICUG_clean_linker_0, # of connection points: 2
# Relax obj value: 0.032
# Max RMSD: 0.244
# Mean RMSD: 0.244
data_MOF--net-uoa--node1-KOZSID_clean_sbu_0--edge1-OJICUG_clean_linker_0
_symmetry_space_group_name_H-M    P1
_symmetry_Int_Tables_number       1
_symmetry_cell_setting            triclinic
loop_
_symmetry_equiv_pos_as_xyz
'x, y, z'
_cell_length_a     76.674321
_cell_length_b     76.738597
_cell_length_c     25.065894
_cell_angle_alpha  90.020611
_cell_angle_beta   90.038516
_cell_angle_gamma 89.930046
loop_
_atom_site_label
_atom_site_type_symbol
_atom_site_fract_x
_atom_site_fract_y
_atom_site_fract_z
_atom_type_partial_charge
C0 C 1.0234 0.12756 0.97078 0.0
C1 C 1.00928 0.13437 0.94268 0.0
C2 C 0.99866 0.14217 0.97916 0.0
C3 C 1.00666 0.13952 0.02734 0.0
N4 N 1.02176 0.13061 0.02355 0.0
Co5 Co 0.03689 0.12319 0.08373 0.0
N6 N 1.01722 0.12562 0.13479 0.0
C7 C 1.00174 0.13335 0.1252 0.0
C8 C 0.98955 0.13029 0.16394 0.0
C9 C 0.99793 0.12031 0.20091 0.0
C10 C 1.01505 0.11835 0.18343 0.0
N11 N 0.05173 0.11633 0.14531 0.0
C12 C 0.04735 0.11296 0.1971 0.0
C13 C 0.06225 0.11074 0.2278 0.0
C14 C 0.07629 0.11293 0.19421 0.0
C15 C 0.0693 0.11648 0.14486 0.0
N16 N 0.05589 0.12036 0.03108 0.0
C17 C 0.07297 0.11963 0.0426 0.0
C18 C 0.08297 0.11712 0.99762 0.0
C19 C 0.07134 0.11623 0.9556 0.0
C20 C 0.05482 0.1182 0.97721 0.0
N21 N 0.04467 0.14798 0.09589 0.0
C22 C 0.06692 0.17754 0.1158 0.0
C23 C 0.06281 0.17193 0.06361 0.0
C24 C 0.0517 0.15742 0.05463 0.0
C25 C 0.05815 0.1687 0.15731 0.0
C26 C 0.04707 0.1543 0.14664 0.0
N27 N 0.03103 0.09807 0.07118 0.0
C28 C 0.04258 0.06869 0.06222 0.0
C29 C 0.02656 0.06198 0.04497 0.0
C30 C 1.01262 0.07408 0.04122 0.0
C31 C 1.01509 0.09198 0.05465 0.0
C32 C 0.04447 0.08632 0.07498 0.0
H33 H 1.00424 0.1009 0.05089 0.0
H34 H 0.05731 0.09041 0.08631 0.0
H35 H 0.0498 0.15315 0.01399 0.0
H36 H 0.04129 0.14765 0.18013 0.0
C37 C 0.99803 0.14062 0.07581 0.0
C38 C 0.0384 0.11896 0.94596 0.0
C39 C 0.02939 0.11342 0.21917 0.0
C40 C 0.07848 0.11841 0.09628 0.0
H41 H 1.00657 0.13349 0.90043 0.0
H42 H 0.98591 0.14777 0.97186 0.0
H43 H 0.97602 0.13435 0.16443 0.0
H44 H 0.99233 0.11582 0.23809 0.0
H45 H 0.06288 0.10814 0.27018 0.0
H46 H 0.08996 0.11195 0.2046 0.0
H47 H 0.09697 0.1154 0.99571 0.0
H48 H 0.07459 0.11431 0.91401 0.0
H49 H 0.06882 0.17808 0.02945 0.0
H50 H 0.06004 0.17261 0.19838 0.0
H51 H 0.05403 0.06047 0.06451 0.0
H52 H 0.99986 0.06978 0.02822 0.0
C53 C 0.171 0.77334 0.22138 0.0
C54 C 0.16432 0.75914 0.19345 0.0
C55 C 0.1566 0.74853 0.23003 0.0
C56 C 0.15916 0.7566 0.27811 0.0
N57 N 0.16795 0.77175 0.27417 0.0
Co58 Co 0.17528 0.78696 0.3342 0.0
N59 N 0.17298 0.76736 0.38548 0.0
C60 C 0.16536 0.75184 0.37605 0.0
C61 C 0.16856 0.7397 0.41486 0.0
C62 C 0.17853 0.74815 0.45169 0.0
C63 C 0.18032 0.76526 0.43408 0.0
N64 N 0.18208 0.80189 0.39563 0.0
C65 C 0.1855 0.79757 0.44747 0.0
C66 C 0.18765 0.81249 0.478 0.0
C67 C 0.18536 0.82648 0.44427 0.0
C68 C 0.18183 0.81943 0.39499 0.0
N69 N 0.17796 0.8059 0.28135 0.0
C70 C 0.17856 0.82299 0.2927 0.0
C71 C 0.18095 0.83296 0.24762 0.0
C72 C 0.18188 0.8213 0.2057 0.0
C73 C 0.18007 0.80481 0.22747 0.0
N74 N 0.15042 0.79467 0.3462 0.0
C75 C 0.1208 0.81704 0.36502 0.0
C76 C 0.12642 0.81261 0.31306 0.0
C77 C 0.14093 0.80146 0.30462 0.0
C78 C 0.12966 0.80845 0.40697 0.0
C79 C 0.1441 0.79732 0.39683 0.0
N80 N 0.20045 0.7812 0.32177 0.0
C81 C 0.22974 0.79287 0.31232 0.0
C82 C 0.23658 0.77684 0.29566 0.0
C83 C 0.22459 0.76282 0.29247 0.0
C84 C 0.20665 0.76525 0.3058 0.0
C85 C 0.21209 0.79471 0.3251 0.0
H86 H 0.19782 0.75434 0.30243 0.0
H87 H 0.2079 0.80754 0.33607 0.0
H88 H 0.14514 0.79926 0.26406 0.0
H89 H 0.15083 0.79179 0.43061 0.0
C90 C 0.15812 0.74804 0.32668 0.0
C91 C 0.17941 0.78837 0.19634 0.0
C92 C 0.18514 0.77964 0.46973 0.0
C93 C 0.17978 0.82855 0.34633 0.0
H94 H 0.16523 0.75638 0.15124 0.0
H95 H 0.15111 0.73575 0.22287 0.0
H96 H 0.16463 0.72616 0.41545 0.0
H97 H 0.18311 0.74262 0.48888 0.0
H98 H 0.19026 0.81318 0.52038 0.0
H99 H 0.18626 0.84015 0.45451 0.0
H100 H 0.18255 0.84695 0.24557 0.0
H101 H 0.18374 0.82453 0.16407 0.0
H102 H 0.11991 0.818 0.27849 0.0
H103 H 0.12611 0.81091 0.44805 0.0
H104 H 0.23785 0.80439 0.31412 0.0
H105 H 0.22898 0.75005 0.27997 0.0
C106 C 0.52513 0.91934 0.46987 0.0
C107 C 0.53917 0.91251 0.44151 0.0
C108 C 0.54982 0.90461 0.47777 0.0
C109 C 0.54192 0.90723 0.52608 0.0
N110 N 0.52684 0.9162 0.52256 0.0
Co111 Co 0.51181 0.92353 0.58299 0.0
N112 N 0.53156 0.9211 0.63377 0.0
C113 C 0.54701 0.91335 0.62394 0.0
C114 C 0.55928 0.9164 0.66254 0.0
C115 C 0.55098 0.9264 0.69964 0.0
C116 C 0.53382 0.92837 0.68241 0.0
N117 N 0.49704 0.93023 0.64485 0.0
C118 C 0.50152 0.93368 0.69653 0.0
C119 C 0.48667 0.9358 0.72744 0.0
C120 C 0.47256 0.93347 0.69408 0.0
C121 C 0.47948 0.92994 0.64463 0.0
N122 N 0.49274 0.92642 0.53059 0.0
C123 C 0.47567 0.9271 0.54226 0.0
C124 C 0.46563 0.92978 0.49742 0.0
C125 C 0.47722 0.93084 0.45535 0.0
C126 C 0.49376 0.92879 0.47679 0.0
N127 N 0.50413 0.89874 0.59493 0.0
C128 C 0.48175 0.86937 0.61512 0.0
C129 C 0.48574 0.87497 0.56287 0.0
C130 C 0.49692 0.88938 0.55373 0.0
C131 C 0.49075 0.87807 0.65649 0.0
C132 C 0.5019 0.89238 0.64566 0.0
N133 N 0.51751 0.94867 0.57069 0.0
C134 C 0.50577 0.978 0.56358 0.0
C135 C 0.52146 0.98469 0.54405 0.0
C136 C 0.53538 0.97269 0.5382 0.0
C137 C 0.53319 0.95479 0.55209 0.0
C138 C 0.50409 0.96037 0.57624 0.0
H139 H 0.54401 0.94592 0.54686 0.0
H140 H 0.4914 0.95625 0.58878 0.0
H141 H 0.49872 0.89368 0.51309 0.0
H142 H 0.50783 0.89898 0.67906 0.0
C143 C 0.55063 0.90609 0.57446 0.0
C144 C 0.51018 0.92815 0.44546 0.0
C145 C 0.51955 0.93342 0.71824 0.0
C146 C 0.47023 0.92813 0.59605 0.0
H147 H 0.54183 0.91345 0.39926 0.0
H148 H 0.56254 0.89899 0.47025 0.0
H149 H 0.57281 0.91235 0.6628 0.0
H150 H 0.55667 0.93093 0.73666 0.0
H151 H 0.4861 0.93845 0.76981 0.0
H152 H 0.45891 0.93442 0.70464 0.0
H153 H 0.45163 0.93151 0.49565 0.0
H154 H 0.47393 0.93292 0.41385 0.0
H155 H 0.47955 0.86889 0.52883 0.0
H156 H 0.48894 0.87414 0.69758 0.0
H157 H 0.49438 0.98626 0.56762 0.0
H158 H 0.54787 0.97706 0.52326 0.0
C159 C 0.37792 0.2755 0.7203 0.0
C160 C 0.38475 0.28964 0.69249 0.0
C161 C 0.39268 0.3001 0.72915 0.0
C162 C 0.39006 0.29201 0.77714 0.0
N163 N 0.38107 0.27698 0.77306 0.0
Co164 Co 0.37363 0.2618 0.83294 0.0
N165 N 0.37611 0.28135 0.88436 0.0
C166 C 0.38391 0.29678 0.87509 0.0
C167 C 0.38091 0.30891 0.91408 0.0
C168 C 0.37087 0.30055 0.95086 0.0
C169 C 0.36884 0.28348 0.93303 0.0
N170 N 0.36677 0.24689 0.89425 0.0
C171 C 0.36343 0.2512 0.94614 0.0
C172 C 0.36122 0.23627 0.97656 0.0
C173 C 0.36338 0.22229 0.94269 0.0
C174 C 0.3669 0.22935 0.89344 0.0
N175 N 0.37074 0.24295 0.77989 0.0
C176 C 0.36998 0.22586 0.79103 0.0
C177 C 0.36735 0.21598 0.74584 0.0
C178 C 0.36642 0.22771 0.70411 0.0
C179 C 0.36847 0.24415 0.72607 0.0
N180 N 0.39845 0.25388 0.84499 0.0
C181 C 0.42806 0.23152 0.8648 0.0
C182 C 0.4224 0.23565 0.81264 0.0
C183 C 0.40788 0.24679 0.8037 0.0
C184 C 0.41922 0.24032 0.90633 0.0
C185 C 0.4048 0.25144 0.89571 0.0
N186 N 0.34846 0.26775 0.82053 0.0
C187 C 0.31906 0.25624 0.8114 0.0
C188 C 0.3123 0.27226 0.79431 0.0
C189 C 0.32439 0.28618 0.79074 0.0
C190 C 0.34233 0.28369 0.80415 0.0
C191 C 0.33671 0.25433 0.82418 0.0
H192 H 0.35124 0.29453 0.80047 0.0
H193 H 0.34082 0.24149 0.83537 0.0
H194 H 0.40359 0.24871 0.76308 0.0
H195 H 0.39816 0.25723 0.92925 0.0
C196 C 0.39122 0.30053 0.82579 0.0
C197 C 0.36919 0.26065 0.69522 0.0
C198 C 0.3639 0.26912 0.96853 0.0
C199 C 0.3688 0.22026 0.84463 0.0
H200 H 0.3838 0.29248 0.65035 0.0
H201 H 0.3983 0.31282 0.72212 0.0
H202 H 0.38503 0.3224 0.91485 0.0
H203 H 0.36642 0.30609 0.98817 0.0
H204 H 0.35864 0.23558 0.01895 0.0
H205 H 0.36238 0.20862 0.95282 0.0
H206 H 0.36557 0.20201 0.74362 0.0
H207 H 0.36439 0.22456 0.66247 0.0
H208 H 0.42854 0.22962 0.77844 0.0
H209 H 0.42314 0.23843 0.94739 0.0
H210 H 0.31087 0.24479 0.81352 0.0
H211 H 0.32008 0.29894 0.77787 0.0
C212 C 1.02277 0.92217 0.5504 0.0
C213 C 1.00855 0.91547 0.57817 0.0
C214 C 0.99798 0.90772 0.54145 0.0
C215 C 1.00609 0.9103 0.49347 0.0
N216 N 1.02123 0.9191 0.49761 0.0
Co217 Co 0.03653 0.9264 0.4378 0.0
N218 N 1.01696 0.92411 0.38629 0.0
C219 C 1.00143 0.91647 0.39547 0.0
C220 C 0.98937 0.91949 0.35625 0.0
C221 C 0.99788 0.92937 0.31939 0.0
C222 C 1.01495 0.93131 0.33746 0.0
N223 N 0.05155 0.93313 0.37659 0.0
C224 C 0.04731 0.93646 0.32465 0.0
C225 C 0.06228 0.93855 0.29431 0.0
C226 C 0.07624 0.93629 0.32828 0.0
C227 C 0.06911 0.93284 0.37748 0.0
N228 N 0.05542 0.92909 0.49091 0.0
C229 C 0.07254 0.92968 0.47984 0.0
C230 C 0.08245 0.93214 0.52506 0.0
C231 C 0.07072 0.93314 0.56677 0.0
C232 C 0.05424 0.93128 0.54475 0.0
N233 N 0.0442 0.90155 0.42578 0.0
C234 C 0.06634 0.87184 0.40599 0.0
C235 C 0.06225 0.87749 0.45816 0.0
C236 C 0.05119 0.89206 0.46709 0.0
C237 C 0.05759 0.88073 0.36445 0.0
C238 C 0.04657 0.8952 0.37506 0.0
N239 N 0.03079 0.95158 0.45018 0.0
C240 C 0.0425 0.98086 0.45953 0.0
C241 C 0.02648 0.98772 0.47626 0.0
C242 C 1.01245 0.97574 0.47954 0.0
C243 C 1.01485 0.95781 0.4662 0.0
C244 C 0.04432 0.96321 0.44679 0.0
H245 H 1.00392 0.94899 0.46963 0.0
H246 H 0.05715 0.959 0.43581 0.0
H247 H 0.0493 0.89635 0.50772 0.0
H248 H 0.04082 0.90188 0.34153 0.0
C249 C 0.99757 0.90924 0.44478 0.0
C250 C 0.03774 0.93068 0.57557 0.0
C251 C 0.02941 0.93608 0.3021 0.0
C252 C 0.07818 0.93085 0.4263 0.0
H253 H 1.00574 0.91639 0.62034 0.0
H254 H 0.98519 0.90222 0.54845 0.0
H255 H 0.97585 0.91546 0.35533 0.0
H256 H 0.99243 0.93377 0.28187 0.0
H257 H 0.06302 0.94109 0.25191 0.0
H258 H 0.08994 0.93715 0.31823 0.0
H259 H 0.09645 0.93376 0.52733 0.0
H260 H 0.07388 0.93506 0.60844 0.0
H261 H 0.06824 0.8713 0.49235 0.0
H262 H 0.05946 0.8768 0.32339 0.0
H263 H 0.05403 0.98896 0.45764 0.0
H264 H 0.99968 0.98014 0.4921 0.0
C265 C 0.37587 0.77309 0.80097 0.0
C266 C 0.38249 0.75887 0.82896 0.0
C267 C 0.39003 0.74811 0.79233 0.0
C268 C 0.38742 0.75614 0.74421 0.0
N269 N 0.37878 0.77139 0.74815 0.0
Co270 Co 0.37157 0.78668 0.68816 0.0
N271 N 0.37367 0.76704 0.63688 0.0
C272 C 0.38118 0.75144 0.64625 0.0
C273 C 0.37806 0.7394 0.60711 0.0
C274 C 0.36826 0.74799 0.57011 0.0
C275 C 0.36646 0.76507 0.58804 0.0
N276 N 0.36486 0.80169 0.62683 0.0
C277 C 0.36142 0.79743 0.57499 0.0
C278 C 0.35936 0.81237 0.5445 0.0
C279 C 0.36175 0.82633 0.57825 0.0
C280 C 0.36524 0.81924 0.62748 0.0
N281 N 0.3691 0.80569 0.74098 0.0
C282 C 0.36866 0.82278 0.72964 0.0
C283 C 0.36643 0.8328 0.77472 0.0
C284 C 0.36543 0.82117 0.81665 0.0
C285 C 0.36706 0.80465 0.79486 0.0
N286 N 0.39647 0.79404 0.67602 0.0
C287 C 0.42647 0.81575 0.65695 0.0
C288 C 0.4208 0.8115 0.70897 0.0
C289 C 0.40609 0.80068 0.71753 0.0
C290 C 0.41744 0.80733 0.61507 0.0
C291 C 0.40281 0.79651 0.62535 0.0
N292 N 0.34636 0.78118 0.7007 0.0
C293 C 0.31712 0.79304 0.71041 0.0
C294 C 0.3102 0.77701 0.72668 0.0
C295 C 0.32213 0.7629 0.7295 0.0
C296 C 0.34007 0.76524 0.71626 0.0
C297 C 0.33479 0.79478 0.69769 0.0
H298 H 0.34885 0.75425 0.71933 0.0
H299 H 0.33906 0.8076 0.68695 0.0
H300 H 0.40186 0.7986 0.75812 0.0
H301 H 0.39597 0.79108 0.59163 0.0
C302 C 0.38837 0.74755 0.69563 0.0
C303 C 0.36761 0.78823 0.82597 0.0
C304 C 0.36174 0.77953 0.55261 0.0
C305 C 0.36741 0.82835 0.67608 0.0
H306 H 0.38168 0.75622 0.87125 0.0
H307 H 0.39545 0.73529 0.79953 0.0
H308 H 0.38197 0.72584 0.60632 0.0
H309 H 0.36381 0.74256 0.53263 0.0
H310 H 0.35677 0.81308 0.50211 0.0
H311 H 0.36096 0.84001 0.56804 0.0
H312 H 0.36497 0.84681 0.77677 0.0
H313 H 0.36367 0.82443 0.85831 0.0
H314 H 0.42742 0.8168 0.74346 0.0
H315 H 0.42101 0.80967 0.57397 0.0
H316 H 0.30905 0.80461 0.70886 0.0
H317 H 0.31769 0.75013 0.74165 0.0
C318 C 0.52721 0.12641 0.04846 0.0
C319 C 0.54168 0.13277 0.07586 0.0
C320 C 0.55208 0.14071 0.03916 0.0
C321 C 0.54369 0.13848 0.99144 0.0
N322 N 0.52853 0.12971 0.99576 0.0
Co323 Co 0.51312 0.12243 0.93612 0.0
N324 N 0.53259 0.12475 0.88439 0.0
C325 C 0.54814 0.13237 0.89339 0.0
C326 C 0.5602 0.12913 0.85436 0.0
C327 C 0.55166 0.11914 0.81783 0.0
C328 C 0.53458 0.11737 0.83584 0.0
N329 N 0.49801 0.11573 0.87501 0.0
C330 C 0.50218 0.11245 0.82299 0.0
C331 C 0.48717 0.1104 0.79276 0.0
C332 C 0.47326 0.11262 0.8269 0.0
C333 C 0.48045 0.11601 0.8761 0.0
N334 N 0.49434 0.11968 0.98947 0.0
C335 C 0.47721 0.11907 0.9786 0.0
C336 C 0.4674 0.11653 0.02394 0.0
C337 C 0.47921 0.1155 0.06548 0.0
C338 C 0.49564 0.11741 0.04326 0.0
N339 N 0.50535 0.1473 0.92439 0.0
C340 C 0.48287 0.17691 0.90573 0.0
C341 C 0.48731 0.17122 0.95765 0.0
C342 C 0.4985 0.15672 0.96602 0.0
C343 C 0.49151 0.1681 0.86376 0.0
C344 C 0.50268 0.15368 0.87382 0.0
N345 N 0.51888 0.09723 0.94833 0.0
C346 C 0.50711 0.06796 0.95768 0.0
C347 C 0.52307 0.0611 0.97496 0.0
C348 C 0.53712 0.07306 0.97845 0.0
C349 C 0.53478 0.09099 0.96482 0.0
C350 C 0.50535 0.0856 0.94471 0.0
H351 H 0.54571 0.09979 0.96846 0.0
H352 H 0.49254 0.0898 0.93348 0.0
H353 H 0.5007 0.15248 1.00655 0.0
H354 H 0.50824 0.147 0.83999 0.0
C355 C 0.55209 0.1396 0.94263 0.0
C356 C 0.51222 0.11801 0.07389 0.0
C357 C 0.52008 0.11277 0.80037 0.0
C358 C 0.47148 0.11794 0.92509 0.0
H359 H 0.54482 0.13148 0.11771 0.0
H360 H 0.56498 0.14601 0.04586 0.0
H361 H 0.57375 0.13307 0.85343 0.0
H362 H 0.55709 0.11458 0.78048 0.0
H363 H 0.48638 0.10788 0.75035 0.0
H364 H 0.45955 0.11176 0.81698 0.0
H365 H 0.45341 0.11487 0.02639 0.0
H366 H 0.47614 0.11351 0.10716 0.0
H367 H 0.48189 0.17767 0.99227 0.0
H368 H 0.48906 0.17168 0.8227 0.0
H369 H 0.49558 0.05988 0.95559 0.0
H370 H 0.54984 0.06866 0.99144 0.0
C371 C 0.17185 0.27565 0.30023 0.0
C372 C 0.16506 0.28979 0.32824 0.0
C373 C 0.1572 0.30035 0.29173 0.0
C374 C 0.1598 0.29232 0.24361 0.0
N375 N 0.16873 0.27723 0.24747 0.0
Co376 Co 0.17609 0.26206 0.1874 0.0
N377 N 0.17362 0.28166 0.13619 0.0
C378 C 0.16586 0.29712 0.14564 0.0
C379 C 0.1689 0.30928 0.10679 0.0
C380 C 0.17891 0.30089 0.06991 0.0
C381 C 0.1809 0.28381 0.08755 0.0
N382 N 0.18291 0.24717 0.12593 0.0
C383 C 0.18631 0.25151 0.07413 0.0
C384 C 0.18852 0.23661 0.04355 0.0
C385 C 0.1863 0.2226 0.07722 0.0
C386 C 0.18274 0.22962 0.12651 0.0
N387 N 0.17895 0.24313 0.24019 0.0
C388 C 0.17963 0.22604 0.22883 0.0
C389 C 0.18217 0.21609 0.27388 0.0
C390 C 0.18311 0.22775 0.31579 0.0
C391 C 0.18116 0.24424 0.29403 0.0
N392 N 0.15127 0.25429 0.17552 0.0
C393 C 0.12159 0.23202 0.15678 0.0
C394 C 0.1273 0.23639 0.20873 0.0
C395 C 0.14184 0.24748 0.21713 0.0
C396 C 0.13042 0.2406 0.11481 0.0
C397 C 0.14489 0.25168 0.12492 0.0
N398 N 0.20126 0.2679 0.19972 0.0
C399 C 0.23065 0.25633 0.2086 0.0
C400 C 0.23739 0.27232 0.22578 0.0
C401 C 0.22531 0.28627 0.22953 0.0
C402 C 0.20738 0.28382 0.21616 0.0
C403 C 0.21299 0.25445 0.19594 0.0
H404 H 0.19847 0.29468 0.21992 0.0
H405 H 0.20888 0.24163 0.1847 0.0
H406 H 0.1461 0.24963 0.25767 0.0
H407 H 0.15159 0.25721 0.09112 0.0
C408 C 0.15862 0.30088 0.19504 0.0
C409 C 0.18047 0.26068 0.32512 0.0
C410 C 0.18589 0.26945 0.05196 0.0
C411 C 0.18081 0.22049 0.17518 0.0
H412 H 0.16599 0.29254 0.37045 0.0
H413 H 0.15159 0.31309 0.29895 0.0
H414 H 0.16483 0.32279 0.1062 0.0
H415 H 0.18341 0.30647 0.03272 0.0
H416 H 0.19114 0.23595 1.00118 0.0
H417 H 0.18728 0.20893 0.06694 0.0
H418 H 0.18386 0.2021 0.27592 0.0
H419 H 0.18507 0.22454 0.3574 0.0
H420 H 0.12083 0.23099 0.24331 0.0
H421 H 0.12682 0.23818 0.07375 0.0
H422 H 0.23887 0.24487 0.20631 0.0
H423 H 0.22963 0.29901 0.24248 0.0
C424 C 0.99605 0.93314 0.04701 0.0
C425 C 0.98073 0.93946 0.06899 0.0
C426 C 0.9698 0.94319 0.02699 0.0
C427 C 0.97903 0.93897 0.98175 0.0
N428 N 0.99502 0.93274 0.99259 0.0
Co429 Co 1.01324 0.9268 0.93882 0.0
N430 N 0.99935 0.93602 0.87727 0.0
C431 C 0.98255 0.941 0.8796 0.0
C432 C 0.97585 0.94545 0.83056 0.0
C433 C 0.98925 0.94305 0.79493 0.0
C434 C 1.00348 0.93732 0.82424 0.0
N435 N 0.03226 0.92155 0.88665 0.0
C436 C 0.03476 0.92748 0.83634 0.0
C437 C 0.05159 0.92392 0.81858 0.0
C438 C 0.05945 0.91429 0.85722 0.0
C439 C 0.04731 0.91309 0.89696 0.0
N440 N 0.02701 0.91618 0.99869 0.0
C441 C 0.04137 0.90617 0.99364 0.0
C442 C 0.04758 0.89968 0.04072 0.0
C443 C 0.03655 0.90596 0.07852 0.0
C444 C 1.02403 0.91588 0.05201 0.0
N445 N 1.00167 0.90346 0.92625 0.0
C446 C 0.97802 0.87477 0.90699 0.0
C447 C 0.98743 0.88296 0.86542 0.0
C448 C 0.99912 0.89694 0.87579 0.0
C449 C 0.98187 0.88087 0.95885 0.0
C450 C 0.99351 0.89495 0.96748 0.0
N451 N 1.02329 0.95097 0.95196 0.0
C452 C 0.03029 0.97363 0.01709 0.0
C453 C 0.0258 0.98718 0.9817 0.0
C454 C 1.02193 0.98198 0.92928 0.0
C455 C 1.02102 0.96416 0.91531 0.0
C456 C 0.02934 0.95595 1.0013 0.0
H457 H 1.01809 0.96148 0.87446 0.0
H458 H 0.03322 0.94655 0.03033 0.0
H459 H 1.00558 0.90286 0.84223 0.0
H460 H 0.99536 0.89927 1.00796 0.0
C461 C 0.97394 0.94213 0.92886 0.0
C462 C 1.01081 0.92645 0.07895 0.0
C463 C 1.02093 0.9339 0.80108 0.0
C464 C 0.05034 0.90549 0.946 0.0
H465 H 0.97778 0.94105 0.11093 0.0
H466 H 0.95683 0.94872 0.02921 0.0
H467 H 0.96282 0.95009 0.82178 0.0
H468 H 0.98869 0.94543 0.75242 0.0
H469 H 0.05744 0.92739 0.78079 0.0
H470 H 0.07259 0.90911 0.85687 0.0
H471 H 0.05934 0.89214 0.04716 0.0
H472 H 0.03824 0.90393 0.1208 0.0
H473 H 0.98541 0.87912 0.82438 0.0
H474 H 0.97582 0.87497 0.99335 0.0
H475 H 0.03406 0.97644 0.05774 0.0
H476 H 1.01948 0.99159 0.8986 0.0
C477 C 0.86452 0.24535 0.79841 0.0
C478 C 0.85482 0.23212 0.82137 0.0
C479 C 0.8461 0.22399 0.78064 0.0
C480 C 0.85095 0.23267 0.73511 0.0
N481 N 0.86259 0.2455 0.74417 0.0
Co482 Co 0.87007 0.26323 0.69024 0.0
N483 N 0.85865 0.25075 0.6291 0.0
C484 C 0.84802 0.23688 0.63347 0.0
C485 C 0.84221 0.23084 0.58504 0.0
C486 C 0.84939 0.24176 0.54769 0.0
C487 C 0.85908 0.25403 0.57545 0.0
N488 N 0.87682 0.2818 0.638 0.0
C489 C 0.87322 0.28355 0.58535 0.0
C490 C 0.87701 0.30028 0.5672 0.0
C491 C 0.88405 0.30908 0.60886 0.0
C492 C 0.88369 0.29749 0.65018 0.0
N493 N 0.88222 0.2758 0.74998 0.0
C494 C 0.89066 0.29116 0.74643 0.0
C495 C 0.89878 0.2963 0.79221 0.0
C496 C 0.89502 0.28364 0.82807 0.0
C497 C 0.88462 0.27141 0.80193 0.0
N498 N 0.89206 0.2493 0.67564 0.0
C499 C 0.92185 0.22719 0.65495 0.0
C500 C 0.92356 0.24539 0.6632 0.0
C501 C 0.9086 0.25616 0.67281 0.0
C502 C 0.90483 0.22063 0.65808 0.0
C503 C 0.89051 0.2316 0.66869 0.0
N504 N 0.84733 0.27554 0.70479 0.0
C505 C 0.82409 0.27955 0.76974 0.0
C506 C 0.81102 0.27802 0.73047 0.0
C507 C 0.81691 0.27769 0.67725 0.0
C508 C 0.83492 0.27694 0.66543 0.0
C509 C 0.84193 0.27852 0.75612 0.0
H510 H 0.83855 0.27633 0.62407 0.0
H511 H 0.85119 0.27921 0.78799 0.0
H512 H 0.91051 0.26999 0.67786 0.0
H513 H 0.87809 0.22537 0.67127 0.0
C514 C 0.84459 0.22949 0.68352 0.0
C515 C 0.87439 0.25822 0.83012 0.0
C516 C 0.86669 0.26975 0.55054 0.0
C517 C 0.8902 0.30088 0.70029 0.0
H518 H 0.85372 0.22909 0.86341 0.0
H519 H 0.83692 0.21335 0.78404 0.0
H520 H 0.83377 0.21981 0.57769 0.0
H521 H 0.84727 0.24105 0.50508 0.0
H522 H 0.87491 0.30571 0.5279 0.0
H523 H 0.8888 0.32235 0.60911 0.0
H524 H 0.90606 0.30817 0.79921 0.0
H525 H 0.89882 0.28421 0.86944 0.0
H526 H 0.93632 0.25136 0.66122 0.0
H527 H 0.90247 0.20681 0.65318 0.0
H528 H 0.82067 0.28113 0.81133 0.0
H529 H 0.80777 0.27712 0.64443 0.0
C530 C 0.55351 0.11186 0.54748 0.0
C531 C 0.56637 0.10177 0.57112 0.0
C532 C 0.57427 0.09258 0.53094 0.0
C533 C 0.56584 0.09753 0.48502 0.0
N534 N 0.55341 0.10969 0.4933 0.0
Co535 Co 0.53599 0.1175 0.43864 0.0
N536 N 0.54821 0.10543 0.37822 0.0
C537 C 0.56183 0.09447 0.38327 0.0
C538 C 0.56778 0.08828 0.33518 0.0
C539 C 0.55706 0.09556 0.29734 0.0
C540 C 0.54499 0.10569 0.32449 0.0
N541 N 0.51764 0.12452 0.38586 0.0
C542 C 0.51575 0.12054 0.33353 0.0
C543 C 0.49909 0.12461 0.31515 0.0
C544 C 0.49052 0.13227 0.35624 0.0
C545 C 0.50215 0.13195 0.39752 0.0
N546 N 0.52378 0.13042 0.49756 0.0
C547 C 0.50878 0.13952 0.49316 0.0
C548 C 0.50393 0.14816 0.53831 0.0
C549 C 0.51639 0.14409 0.57464 0.0
C550 C 0.5282 0.13296 0.54944 0.0
N551 N 0.55059 0.1389 0.42307 0.0
C552 C 0.57377 0.16763 0.40047 0.0
C553 C 0.55548 0.16995 0.40532 0.0
C554 C 0.54419 0.1555 0.41616 0.0
C555 C 0.57982 0.15057 0.40824 0.0
C556 C 0.56833 0.13678 0.41923 0.0
N557 N 0.52303 0.09528 0.45422 0.0
C558 C 0.51874 0.0727 0.52094 0.0
C559 C 0.52001 0.05933 0.48264 0.0
C560 C 0.52048 0.06472 0.42901 0.0
C561 C 0.52154 0.08259 0.41578 0.0
C562 C 0.51988 0.09037 0.50589 0.0
H563 H 0.5222 0.08588 0.37414 0.0
H564 H 0.51929 0.09988 0.53701 0.0
H565 H 0.53033 0.15783 0.4187 0.0
H566 H 0.5742 0.12427 0.4245 0.0
C567 C 0.56897 0.09094 0.43366 0.0
C568 C 0.54089 0.12229 0.57852 0.0
C569 C 0.52944 0.11358 0.29905 0.0
C570 C 0.49902 0.13904 0.44705 0.0
H571 H 0.56928 0.10075 0.61327 0.0
H572 H 0.5846 0.08305 0.53495 0.0
H573 H 0.57859 0.07948 0.32837 0.0
H574 H 0.55774 0.0932 0.25485 0.0
H575 H 0.49359 0.12237 0.27598 0.0
H576 H 0.47737 0.13743 0.35612 0.0
H577 H 0.49236 0.15598 0.54464 0.0
H578 H 0.5159 0.14822 0.61569 0.0
H579 H 0.54985 0.18276 0.39978 0.0
H580 H 0.59364 0.14771 0.40653 0.0
H581 H 0.51775 0.06966 0.56295 0.0
H582 H 0.52037 0.05521 0.39712 0.0
C583 C 0.684 0.80444 0.29805 0.0
C584 C 0.69345 0.81781 0.32132 0.0
C585 C 0.70234 0.82593 0.28094 0.0
C586 C 0.69784 0.8171 0.2353 0.0
N587 N 0.68627 0.80419 0.24393 0.0
Co588 Co 0.67925 0.7863 0.18989 0.0
N589 N 0.69085 0.79877 0.12914 0.0
C590 C 0.70142 0.81267 0.13389 0.0
C591 C 0.70737 0.81871 0.08567 0.0
C592 C 0.70036 0.80775 0.04805 0.0
C593 C 0.69061 0.79547 0.07547 0.0
N594 N 0.67293 0.76759 0.13754 0.0
C595 C 0.67664 0.76587 0.08497 0.0
C596 C 0.67314 0.74909 0.06674 0.0
C597 C 0.66617 0.7402 0.1083 0.0
C598 C 0.66629 0.7518 0.14963 0.0
N599 N 0.66694 0.7737 0.24918 0.0
C600 C 0.65878 0.75819 0.24546 0.0
C601 C 0.65039 0.75309 0.29077 0.0
C602 C 0.65367 0.76594 0.32651 0.0
C603 C 0.66411 0.77821 0.30082 0.0
N604 N 0.65719 0.80002 0.1742 0.0
C605 C 0.62723 0.82192 0.15368 0.0
C606 C 0.62563 0.80375 0.16251 0.0
C607 C 0.64067 0.79307 0.17202 0.0
C608 C 0.64424 0.82855 0.15599 0.0
C609 C 0.65865 0.81769 0.16653 0.0
N610 N 0.70203 0.77423 0.20573 0.0
C611 C 0.72485 0.77029 0.27219 0.0
C612 C 0.73815 0.77133 0.23361 0.0
C613 C 0.73261 0.77175 0.18007 0.0
C614 C 0.71467 0.77277 0.16712 0.0
C615 C 0.70712 0.77141 0.25745 0.0
H616 H 0.71129 0.77334 0.12552 0.0
H617 H 0.6977 0.77096 0.28881 0.0
H618 H 0.63883 0.77926 0.17764 0.0
H619 H 0.67105 0.82399 0.16868 0.0
C620 C 0.70449 0.8202 0.18402 0.0
C621 C 0.67408 0.79154 0.32945 0.0
C622 C 0.68304 0.77975 0.05028 0.0
C623 C 0.65963 0.74839 0.19951 0.0
H624 H 0.69427 0.82095 0.36335 0.0
H625 H 0.71141 0.83665 0.28468 0.0
H626 H 0.71577 0.8298 0.0786 0.0
H627 H 0.7026 0.80847 1.00552 0.0
H628 H 0.67534 0.7437 0.02743 0.0
H629 H 0.66158 0.72686 0.10844 0.0
H630 H 0.6432 0.74116 0.29755 0.0
H631 H 0.64954 0.76545 0.36756 0.0
H632 H 0.61289 0.79772 0.16115 0.0
H633 H 0.64653 0.84237 0.15061 0.0
H634 H 0.728 0.76944 0.31418 0.0
H635 H 0.74206 0.77156 0.14801 0.0
C636 C 0.99628 0.11601 0.47505 0.0
C637 C 0.98091 0.10967 0.45354 0.0
C638 C 0.96997 0.10635 0.49581 0.0
C639 C 0.97925 0.11083 0.54075 0.0
N640 N 0.99527 0.11683 0.52943 0.0
Co641 Co 1.01357 0.12301 0.58268 0.0
N642 N 0.99977 0.11421 0.64478 0.0
C643 C 0.98291 0.10945 0.64297 0.0
C644 C 0.9763 0.10528 0.69231 0.0
C645 C 0.98984 0.10762 0.72755 0.0
C646 C 1.00405 0.11304 0.69772 0.0
N647 N 0.03269 0.12842 0.63432 0.0
C648 C 0.03536 0.12258 0.68467 0.0
C649 C 0.05221 0.12625 0.70201 0.0
C650 C 0.05989 0.13587 0.66308 0.0
C651 C 0.04764 0.13696 0.62357 0.0
N652 N 0.0272 0.13333 0.52223 0.0
C653 C 0.04146 0.14348 0.52671 0.0
C654 C 0.0476 0.14969 0.47922 0.0
C655 C 0.03662 0.14308 0.44181 0.0
C656 C 1.02419 0.13326 0.46894 0.0
N657 N 1.00207 0.14645 0.59442 0.0
C658 C 0.97849 0.17515 0.61326 0.0
C659 C 0.98862 0.16774 0.65455 0.0
C660 C 1.00018 0.15358 0.64445 0.0
C661 C 0.98154 0.1684 0.56179 0.0
C662 C 0.99332 0.15444 0.55326 0.0
N663 N 1.02354 0.09872 0.5703 0.0
C664 C 0.03104 0.07607 0.5056 0.0
C665 C 0.02595 0.06252 0.54018 0.0
C666 C 1.02151 0.06769 0.5922 0.0
C667 C 1.02064 0.08549 0.60637 0.0
C668 C 0.03013 0.09374 0.52161 0.0
H669 H 1.0172 0.0881 0.64687 0.0
H670 H 0.03448 0.10314 0.4932 0.0
H671 H 1.00704 0.14799 0.67788 0.0
H672 H 0.99473 0.1497 0.51304 0.0
C673 C 0.9742 0.1081 0.59388 0.0
C674 C 1.01105 0.12242 0.44273 0.0
C675 C 1.02164 0.1162 0.72031 0.0
C676 C 0.05051 0.14443 0.57425 0.0
H677 H 0.97791 0.10781 0.41172 0.0
H678 H 0.95696 0.10093 0.49398 0.0
H679 H 0.96327 0.1008 0.70154 0.0
H680 H 0.98939 0.10536 0.77013 0.0
H681 H 0.0582 0.12286 0.7397 0.0
H682 H 0.073 0.14111 0.66306 0.0
H683 H 0.0593 0.15724 0.4723 0.0
H684 H 0.03829 0.14479 0.39939 0.0
H685 H 0.98711 0.17232 0.69514 0.0
H686 H 0.97467 0.17373 0.52776 0.0
H687 H 0.03526 0.07328 0.46536 0.0
H688 H 1.01858 0.05807 0.62243 0.0
C689 C 0.6854 0.24316 0.22073 0.0
C690 C 0.69492 0.23025 0.19525 0.0
C691 C 0.70414 0.22167 0.23403 0.0
C692 C 0.69972 0.22974 0.281 0.0
N693 N 0.68795 0.24263 0.27478 0.0
Co694 Co 0.68008 0.25889 0.33273 0.0
N695 N 0.69256 0.24573 0.391 0.0
C696 C 0.70386 0.23254 0.38274 0.0
C697 C 0.71217 0.22714 0.42832 0.0
C698 C 0.70603 0.23775 0.46804 0.0
C699 C 0.69409 0.24901 0.44468 0.0
N700 N 0.67214 0.2755 0.38981 0.0
C701 C 0.6736 0.2747 0.44376 0.0
C702 C 0.66291 0.28691 0.46859 0.0
C703 C 0.65555 0.29661 0.42932 0.0
C704 C 0.6616 0.28942 0.383 0.0
N705 N 0.66736 0.27237 0.27564 0.0
C706 C 0.65836 0.28732 0.28283 0.0
C707 C 0.65112 0.29403 0.23754 0.0
C708 C 0.65591 0.28285 0.1983 0.0
C709 C 0.66576 0.2697 0.22213 0.0
N710 N 0.65865 0.24389 0.34498 0.0
C711 C 0.62932 0.2208 0.36124 0.0
C712 C 0.62729 0.23909 0.35779 0.0
C713 C 0.64193 0.25027 0.34949 0.0
C714 C 0.64656 0.21468 0.357 0.0
C715 C 0.66069 0.22616 0.349 0.0
N716 N 0.70229 0.27243 0.31961 0.0
C717 C 0.72522 0.27727 0.25399 0.0
C718 C 0.73847 0.27619 0.2927 0.0
C719 C 0.7328 0.27542 0.34611 0.0
C720 C 0.71482 0.27404 0.35858 0.0
C721 C 0.70751 0.27578 0.26825 0.0
H722 H 0.71132 0.27344 0.39997 0.0
H723 H 0.69829 0.27626 0.2364 0.0
H724 H 0.63949 0.26402 0.34646 0.0
H725 H 0.67335 0.22035 0.34609 0.0
C726 C 0.70673 0.22604 0.33131 0.0
C727 C 0.67531 0.2565 0.19138 0.0
C728 C 0.6862 0.26403 0.4731 0.0
C729 C 0.65621 0.29445 0.33287 0.0
H730 H 0.69559 0.22773 0.15282 0.0
H731 H 0.71336 0.21114 0.22841 0.0
H732 H 0.72203 0.2171 0.43194 0.0
H733 H 0.71055 0.23771 0.50888 0.0
H734 H 0.66082 0.28884 0.51087 0.0
H735 H 0.64649 0.30734 0.43393 0.0
H736 H 0.64342 0.30578 0.23345 0.0
H737 H 0.65288 0.28483 0.15673 0.0
H738 H 0.61442 0.24482 0.36044 0.0
H739 H 0.64938 0.20091 0.36046 0.0
H740 H 0.72839 0.27839 0.21208 0.0
H741 H 0.74219 0.27562 0.37838 0.0
C742 C 0.55259 0.93241 0.97475 0.0
C743 C 0.568 0.93867 0.95335 0.0
C744 C 0.57887 0.94213 0.99574 0.0
C745 C 0.56951 0.93782 0.04062 0.0
N746 N 0.5535 0.93179 0.02917 0.0
Co747 Co 0.53512 0.92577 0.0823 0.0
N748 N 0.54893 0.93458 0.14453 0.0
C749 C 0.56578 0.93936 0.1428 0.0
C750 C 0.5724 0.9435 0.19218 0.0
C751 C 0.55888 0.94111 0.22739 0.0
C752 C 0.54467 0.9357 0.19751 0.0
N753 N 0.51592 0.92054 0.13382 0.0
C754 C 0.51332 0.92638 0.18421 0.0
C755 C 0.4964 0.92297 0.20135 0.0
C756 C 0.48858 0.91352 0.16225 0.0
C757 C 0.50084 0.91226 0.12286 0.0
N758 N 0.52145 0.91547 0.0218 0.0
C759 C 0.50702 0.90556 0.02616 0.0
C760 C 0.50087 0.8993 0.9787 0.0
C761 C 0.51203 0.90564 0.94139 0.0
C762 C 0.52454 0.91536 0.96856 0.0
N763 N 0.54652 0.90228 0.09423 0.0
C764 C 0.57021 0.87366 0.11298 0.0
C765 C 0.56016 0.88111 0.15438 0.0
C766 C 0.54853 0.89523 0.14431 0.0
C767 C 0.56698 0.88029 0.06148 0.0
C768 C 0.55515 0.89422 0.05301 0.0
N769 N 0.52531 0.95011 0.06963 0.0
C770 C 0.51826 0.97279 1.00459 0.0
C771 C 0.52319 0.98633 0.03948 0.0
C772 C 0.52735 0.98113 0.09172 0.0
C773 C 0.52808 0.96331 0.1059 0.0
C774 C 0.51902 0.95512 0.02059 0.0
H775 H 0.53132 0.96066 0.14657 0.0
H776 H 0.51482 0.94575 0.99187 0.0
H777 H 0.54173 0.90085 0.17779 0.0
H778 H 0.55364 0.89887 0.01276 0.0
C779 C 0.57451 0.94065 0.09376 0.0
C780 C 0.53786 0.92593 0.9423 0.0
C781 C 0.52711 0.93244 0.22013 0.0
C782 C 0.4979 0.90482 0.07354 0.0
H783 H 0.57107 0.94038 0.91154 0.0
H784 H 0.59189 0.94752 0.994 0.0
H785 H 0.58544 0.94795 0.20147 0.0
H786 H 0.55936 0.9433 0.27001 0.0
H787 H 0.49046 0.9264 0.23908 0.0
H788 H 0.47539 0.90848 0.16208 0.0
H789 H 0.48908 0.8919 0.97171 0.0
H790 H 0.51042 0.90384 0.89897 0.0
H791 H 0.56179 0.87661 0.19499 0.0
H792 H 0.57375 0.87491 0.02737 0.0
H793 H 0.5143 0.97559 0.96409 0.0
H794 H 0.53017 0.99075 0.1221 0.0
C795 C 0.86579 0.80287 0.72379 0.0
C796 C 0.85968 0.81826 0.70184 0.0
C797 C 0.85571 0.82907 0.74388 0.0
C798 C 0.85959 0.81969 0.78912 0.0
N799 N 0.86583 0.80372 0.77828 0.0
Co800 Co 0.87136 0.78535 0.83203 0.0
N801 N 0.86213 0.79927 0.89354 0.0
C802 C 0.85718 0.81606 0.89116 0.0
C803 C 0.85278 0.8228 0.94016 0.0
C804 C 0.85518 0.80943 0.97588 0.0
C805 C 0.86085 0.79519 0.94663 0.0
N806 N 0.87617 0.76618 0.88414 0.0
C807 C 0.87022 0.76381 0.93448 0.0
C808 C 0.87327 0.74688 0.95211 0.0
C809 C 0.88259 0.73875 0.91331 0.0
C810 C 0.88412 0.75088 0.87365 0.0
N811 N 0.88194 0.77149 0.77226 0.0
C812 C 0.89148 0.75682 0.77732 0.0
C813 C 0.89809 0.75059 0.73043 0.0
C814 C 0.89239 0.76194 0.69269 0.0
C815 C 0.88266 0.77463 0.71906 0.0
N816 N 0.89484 0.7966 0.84532 0.0
C817 C 0.92354 0.82005 0.86575 0.0
C818 C 0.9152 0.81067 0.90696 0.0
C819 C 0.90123 0.79902 0.89602 0.0
C820 C 0.91764 0.81635 0.81366 0.0
C821 C 0.90354 0.80477 0.80443 0.0
N822 N 0.84708 0.77567 0.81818 0.0
C823 C 0.82428 0.76962 0.75258 0.0
C824 C 0.81079 0.77369 0.78866 0.0
C825 C 0.81609 0.77694 0.84142 0.0
C826 C 0.83396 0.77759 0.85526 0.0
C827 C 0.84199 0.7703 0.76823 0.0
H828 H 0.83678 0.78005 0.89635 0.0
H829 H 0.85134 0.76682 0.7386 0.0
H830 H 0.89526 0.79246 0.92927 0.0
H831 H 0.89928 0.8031 0.76383 0.0
C832 C 0.85623 0.8247 0.84193 0.0
C833 C 0.8726 0.78818 0.69184 0.0
C834 C 0.86432 0.77778 0.96997 0.0
C835 C 0.89171 0.7477 0.82472 0.0
H836 H 0.85838 0.82135 0.65989 0.0
H837 H 0.85028 0.84208 0.74166 0.0
H838 H 0.84822 0.83585 0.94891 0.0
H839 H 0.85286 0.81004 0.01841 0.0
H840 H 0.86971 0.74115 0.99 0.0
H841 H 0.8874 0.72548 0.91357 0.0
H842 H 0.90535 0.73866 0.72403 0.0
H843 H 0.89464 0.76036 0.65047 0.0
H844 H 0.91931 0.81235 0.94795 0.0
H845 H 0.92337 0.82293 0.77976 0.0
H846 H 0.82138 0.76641 0.71152 0.0
H847 H 0.80651 0.77909 0.87243 0.0
C848 C 0.52174 0.62897 0.47137 0.0
C849 C 0.50728 0.63524 0.44368 0.0
C850 C 0.49664 0.64292 0.48026 0.0
C851 C 0.5049 0.64065 0.52817 0.0
N852 N 0.52022 0.6321 0.52414 0.0
Co853 Co 0.53556 0.62489 0.5841 0.0
N854 N 0.51595 0.6271 0.6355 0.0
C855 C 0.50031 0.63455 0.62614 0.0
C856 C 0.48828 0.63145 0.6653 0.0
C857 C 0.49692 0.62174 0.70236 0.0
C858 C 0.51401 0.61996 0.6844 0.0
N859 N 0.55062 0.61827 0.64552 0.0
C860 C 0.5464 0.61515 0.6976 0.0
C861 C 0.56137 0.61317 0.72805 0.0
C862 C 0.57532 0.6153 0.69405 0.0
C863 C 0.56818 0.61855 0.6447 0.0
N864 N 0.5545 0.62225 0.53111 0.0
C865 C 0.57161 0.62165 0.54236 0.0
C866 C 0.58157 0.61928 0.49723 0.0
C867 C 0.56989 0.61836 0.45537 0.0
C868 C 0.55339 0.62016 0.47721 0.0
N869 N 0.5431 0.64978 0.59606 0.0
C870 C 0.56532 0.6794 0.61589 0.0
C871 C 0.56121 0.67376 0.56372 0.0
C872 C 0.55011 0.65924 0.55477 0.0
C873 C 0.55654 0.67057 0.6574 0.0
C874 C 0.54547 0.65616 0.64676 0.0
N875 N 0.52999 0.59967 0.57171 0.0
C876 C 0.54188 0.57043 0.56232 0.0
C877 C 0.52595 0.56354 0.54492 0.0
C878 C 0.51186 0.57548 0.54147 0.0
C879 C 0.51412 0.5934 0.55516 0.0
C880 C 0.54356 0.58807 0.57539 0.0
H881 H 0.50316 0.60218 0.55152 0.0
H882 H 0.55634 0.5923 0.58678 0.0
H883 H 0.5482 0.65496 0.51414 0.0
H884 H 0.53968 0.64953 0.68028 0.0
C885 C 0.49637 0.64166 0.57677 0.0
C886 C 0.53693 0.62085 0.44607 0.0
C887 C 0.52851 0.61562 0.7201 0.0
C888 C 0.57723 0.62051 0.59593 0.0
H889 H 0.50434 0.63406 0.40165 0.0
H890 H 0.4837 0.64811 0.4733 0.0
H891 H 0.47471 0.63535 0.6661 0.0
H892 H 0.49154 0.61739 0.74 0.0
H893 H 0.56211 0.6108 0.77055 0.0
H894 H 0.58902 0.6145 0.70418 0.0
H895 H 0.59558 0.61771 0.4951 0.0
H896 H 0.5731 0.61653 0.4137 0.0
H897 H 0.56721 0.67991 0.52954 0.0
H898 H 0.55842 0.6745 0.69846 0.0
H899 H 0.55345 0.56236 0.56444 0.0
H900 H 0.49916 0.57107 0.52845 0.0
C901 C 0.66723 0.27958 0.71267 0.0
C902 C 0.65457 0.27119 0.68249 0.0
C903 C 0.64567 0.26059 0.71677 0.0
C904 C 0.65316 0.26343 0.76572 0.0
N905 N 0.66617 0.27515 0.76477 0.0
Co906 Co 0.67668 0.28656 0.82846 0.0
N907 N 0.66858 0.26737 0.8759 0.0
C908 C 0.65805 0.2541 0.86154 0.0
C909 C 0.65681 0.24129 0.8993 0.0
C910 C 0.66686 0.24694 0.94073 0.0
C911 C 0.67316 0.26331 0.9267 0.0
N912 N 0.68551 0.29852 0.89385 0.0
C913 C 0.68555 0.2933 0.9461 0.0
C914 C 0.69161 0.30657 0.97878 0.0
C915 C 0.69557 0.32039 0.94604 0.0
C916 C 0.69163 0.31492 0.89523 0.0
N917 N 0.68558 0.30476 0.77853 0.0
C918 C 0.693 0.31985 0.79328 0.0
C919 C 0.70075 0.32833 0.75127 0.0
C920 C 0.69816 0.31785 0.7074 0.0
C921 C 0.68873 0.30352 0.72471 0.0
N922 N 0.65412 0.29974 0.83871 0.0
C923 C 0.62509 0.32279 0.85781 0.0
C924 C 0.63281 0.32108 0.80698 0.0
C925 C 0.64716 0.30971 0.79842 0.0
C926 C 0.63204 0.31201 0.89813 0.0
C927 C 0.64622 0.30063 0.88781 0.0
N928 N 0.70016 0.27466 0.81848 0.0
C929 C 0.73107 0.27581 0.84178 0.0
C930 C 0.73624 0.27162 0.78971 0.0
C931 C 0.72282 0.26677 0.75437 0.0
C932 C 0.70509 0.26773 0.77023 0.0
C933 C 0.71329 0.27697 0.85533 0.0
H934 H 0.6955 0.26326 0.74246 0.0
H935 H 0.71067 0.28038 0.89584 0.0
H936 H 0.65287 0.3094 0.75913 0.0
H937 H 0.65101 0.29288 0.92048 0.0
C938 C 0.65027 0.25359 0.81135 0.0
C939 C 0.68177 0.28934 0.68983 0.0
C940 C 0.68064 0.27568 0.96546 0.0
C941 C 0.69489 0.32397 0.84758 0.0
H942 H 0.6527 0.27194 0.63974 0.0
H943 H 0.63554 0.25133 0.70674 0.0
H944 H 0.64956 0.22922 0.89687 0.0
H945 H 0.66866 0.24004 0.97794 0.0
H946 H 0.69325 0.30624 0.02163 0.0
H947 H 0.70104 0.3328 0.95785 0.0
H948 H 0.70825 0.34026 0.75277 0.0
H949 H 0.70298 0.32057 0.6679 0.0
H950 H 0.62821 0.32896 0.77401 0.0
H951 H 0.62656 0.3123 0.93791 0.0
H952 H 0.7407 0.27901 0.87184 0.0
H953 H 0.72593 0.26232 0.7145 0.0
C954 C 0.02759 0.41983 0.97024 0.0
C955 C 0.04187 0.41337 0.94214 0.0
C956 C 0.05247 0.40542 0.97836 0.0
C957 C 0.04436 0.40771 0.02647 0.0
N958 N 0.02918 0.41653 0.02288 0.0
Co959 Co 1.01405 0.42374 0.08327 0.0
N960 N 0.03377 0.42128 0.13423 0.0
C961 C 0.04927 0.41363 0.12446 0.0
C962 C 0.06147 0.41661 0.16329 0.0
C963 C 0.05307 0.42645 0.20055 0.0
C964 C 0.03594 0.4284 0.18309 0.0
N965 N 0.99921 0.43027 0.14517 0.0
C966 C 1.00361 0.43345 0.19709 0.0
C967 C 0.98872 0.43545 0.2279 0.0
C968 C 0.97467 0.43331 0.19424 0.0
C969 C 0.98165 0.43001 0.14472 0.0
N970 N 0.99504 0.42668 0.03068 0.0
C971 C 0.97796 0.42739 0.04223 0.0
C972 C 0.96795 0.43009 0.99733 0.0
C973 C 0.97958 0.43113 0.95535 0.0
C974 C 0.9961 0.42905 0.97687 0.0
N975 N 1.00638 0.39888 0.09481 0.0
C976 C 0.98398 0.36943 0.11462 0.0
C977 C 0.98795 0.37515 0.06245 0.0
C978 C 0.99913 0.38959 0.0535 0.0
C979 C 0.993 0.37808 0.15607 0.0
C980 C 1.00416 0.39241 0.14543 0.0
N981 N 1.01971 0.44896 0.07132 0.0
C982 C 1.00789 0.4783 0.06463 0.0
C983 C 1.02349 0.48505 0.04456 0.0
C984 C 0.03741 0.47306 0.03831 0.0
C985 C 0.0353 0.45515 0.05227 0.0
C986 C 1.00629 0.46064 0.07731 0.0
H987 H 0.04613 0.44631 0.04669 0.0
H988 H 0.99364 0.4565 0.09016 0.0
H989 H 1.00091 0.39396 0.01293 0.0
H990 H 1.01011 0.39893 0.17893 0.0
C991 C 0.05299 0.40651 0.07492 0.0
C992 C 1.01252 0.42838 0.94554 0.0
C993 C 1.0216 0.43308 0.21905 0.0
C994 C 0.97247 0.42833 0.09598 0.0
H995 H 0.04476 0.41462 0.90012 0.0
H996 H 0.06531 0.40005 0.97106 0.0
H997 H 0.07501 0.41259 0.16368 0.0
H998 H 0.05866 0.43082 0.23791 0.0
H999 H 0.98812 0.4379 0.27038 0.0
H1000 H 0.961 0.4342 0.20467 0.0
H1001 H 0.95396 0.43182 0.99546 0.0
H1002 H 0.97631 0.43321 0.91382 0.0
H1003 H 0.98175 0.36913 0.02833 0.0
H1004 H 0.99123 0.37407 0.19709 0.0
H1005 H 0.9965 0.48654 0.06907 0.0
H1006 H 0.04984 0.47745 0.02299 0.0
C1007 C 0.87838 0.77571 0.21963 0.0
C1008 C 0.88521 0.78976 0.19139 0.0
C1009 C 0.89321 0.80029 0.2277 0.0
C1010 C 0.89066 0.79232 0.27592 0.0
N1011 N 0.88163 0.77731 0.27229 0.0
Co1012 Co 0.87438 0.76221 0.33256 0.0
N1013 N 0.87693 0.78184 0.3836 0.0
C1014 C 0.88475 0.79724 0.37398 0.0
C1015 C 0.88193 0.8094 0.41299 0.0
C1016 C 0.87199 0.80109 0.45016 0.0
C1017 C 0.86982 0.78403 0.43249 0.0
N1018 N 0.86776 0.74736 0.39424 0.0
C1019 C 0.86438 0.75176 0.44601 0.0
C1020 C 0.86225 0.73687 0.47671 0.0
C1021 C 0.86451 0.72283 0.44311 0.0
C1022 C 0.86801 0.72981 0.39374 0.0
N1023 N 0.87141 0.74326 0.27991 0.0
C1024 C 0.87073 0.72619 0.2913 0.0
C1025 C 0.86794 0.71625 0.24633 0.0
C1026 C 0.86681 0.72791 0.20448 0.0
C1027 C 0.86892 0.74439 0.22617 0.0
N1028 N 0.89924 0.75445 0.34413 0.0
C1029 C 0.92907 0.73236 0.3631 0.0
C1030 C 0.92323 0.73649 0.3111 0.0
C1031 C 0.9086 0.74749 0.30258 0.0
C1032 C 0.92027 0.74106 0.40492 0.0
C1033 C 0.90573 0.75206 0.39469 0.0
N1034 N 0.84918 0.76801 0.32056 0.0
C1035 C 0.81977 0.75641 0.3136 0.0
C1036 C 0.81307 0.77212 0.29407 0.0
C1037 C 0.82512 0.78596 0.28817 0.0
C1038 C 0.84304 0.78369 0.302 0.0
C1039 C 0.83744 0.75465 0.32616 0.0
H1040 H 0.85193 0.79447 0.29673 0.0
H1041 H 0.84155 0.74195 0.33864 0.0
H1042 H 0.90424 0.74947 0.26205 0.0
H1043 H 0.89907 0.7577 0.42843 0.0
C1044 C 0.89194 0.80091 0.32444 0.0
C1045 C 0.86948 0.76086 0.19515 0.0
C1046 C 0.86472 0.76972 0.46802 0.0
C1047 C 0.86975 0.72065 0.34501 0.0
H1048 H 0.88419 0.79249 0.14919 0.0
H1049 H 0.89886 0.81298 0.2203 0.0
H1050 H 0.8861 0.82287 0.41354 0.0
H1051 H 0.86765 0.8067 0.48749 0.0
H1052 H 0.85964 0.73625 0.51909 0.0
H1053 H 0.86354 0.70918 0.45345 0.0
H1054 H 0.86617 0.70227 0.24435 0.0
H1055 H 0.86462 0.72472 0.16296 0.0
H1056 H 0.92966 0.73099 0.27658 0.0
H1057 H 0.92394 0.73882 0.44601 0.0
H1058 H 0.81148 0.74507 0.31773 0.0
H1059 H 0.82076 0.79847 0.27326 0.0
C1060 C 0.52361 0.42347 0.04708 0.0
C1061 C 0.5095 0.41657 0.07486 0.0
C1062 C 0.49893 0.40887 0.03806 0.0
C1063 C 0.50693 0.41167 0.99003 0.0
N1064 N 0.52202 0.42057 0.9942 0.0
Co1065 Co 0.53717 0.42813 0.93433 0.0
N1066 N 0.51754 0.42589 0.88304 0.0
C1067 C 0.50204 0.41819 0.89233 0.0
C1068 C 0.48988 0.42135 0.8535 0.0
C1069 C 0.49829 0.43137 0.81677 0.0
C1070 C 0.5154 0.43325 0.8345 0.0
N1071 N 0.55206 0.43509 0.873 0.0
C1072 C 0.54772 0.43854 0.82119 0.0
C1073 C 0.56264 0.44074 0.7907 0.0
C1074 C 0.57666 0.43845 0.82441 0.0
C1075 C 0.56963 0.43486 0.87365 0.0
N1076 N 0.55611 0.43082 0.98728 0.0
C1077 C 0.5732 0.43156 0.97597 0.0
C1078 C 0.58316 0.434 0.02113 0.0
C1079 C 0.57148 0.43484 0.06302 0.0
C1080 C 0.55499 0.4329 0.04118 0.0
N1081 N 0.54498 0.40343 0.92157 0.0
C1082 C 0.56828 0.3747 0.90121 0.0
C1083 C 0.56356 0.37979 0.95349 0.0
C1084 C 0.552 0.39392 0.96268 0.0
C1085 C 0.55937 0.38349 0.85974 0.0
C1086 C 0.54771 0.3974 0.87067 0.0
N1087 N 0.53135 0.45319 0.94744 0.0
C1088 C 0.543 0.48248 0.9558 0.0
C1089 C 0.52719 0.48912 0.97473 0.0
C1090 C 0.51327 0.47712 0.97977 0.0
C1091 C 0.51558 0.45926 0.96556 0.0
C1092 C 0.54477 0.4649 0.94278 0.0
H1093 H 0.50476 0.45037 0.97009 0.0
H1094 H 0.55752 0.46082 0.93065 0.0
H1095 H 0.54971 0.39787 1.00344 0.0
H1096 H 0.54191 0.4041 0.83725 0.0
C1097 C 0.49831 0.41076 0.94147 0.0
C1098 C 0.53852 0.43211 0.07223 0.0
C1099 C 0.52978 0.4381 0.79889 0.0
C1100 C 0.57876 0.43283 0.92235 0.0
H1101 H 0.50675 0.41734 0.11709 0.0
H1102 H 0.48618 0.40326 0.04509 0.0
H1103 H 0.47636 0.41731 0.85274 0.0
H1104 H 0.49275 0.4359 0.77954 0.0
H1105 H 0.56331 0.44338 0.74834 0.0
H1106 H 0.59034 0.43939 0.81419 0.0
H1107 H 0.59715 0.43571 0.02325 0.0
H1108 H 0.57469 0.4367 0.10468 0.0
H1109 H 0.56906 0.37325 0.9878 0.0
H1110 H 0.56192 0.38036 0.81843 0.0
H1111 H 0.55438 0.49075 0.95242 0.0
H1112 H 0.50071 0.48146 0.99426 0.0
C1113 C 0.87881 0.27185 0.30043 0.0
C1114 C 0.88531 0.25749 0.32807 0.0
C1115 C 0.89305 0.24692 0.29138 0.0
C1116 C 0.89059 0.25511 0.24348 0.0
N1117 N 0.88187 0.27032 0.24765 0.0
Co1118 Co 0.87441 0.28557 0.18785 0.0
N1119 N 0.87658 0.26596 0.1365 0.0
C1120 C 0.88416 0.25039 0.14572 0.0
C1121 C 0.88091 0.23829 0.10685 0.0
C1122 C 0.87094 0.24681 0.07014 0.0
C1123 C 0.8692 0.26391 0.08794 0.0
N1124 N 0.8676 0.30054 0.1265 0.0
C1125 C 0.86424 0.29626 0.0746 0.0
C1126 C 0.86213 0.31119 0.04411 0.0
C1127 C 0.86438 0.32516 0.07793 0.0
C1128 C 0.86787 0.31809 0.12721 0.0
N1129 N 0.87178 0.3045 0.24077 0.0
C1130 C 0.87106 0.32159 0.22953 0.0
C1131 C 0.86862 0.33152 0.27469 0.0
C1132 C 0.86776 0.31984 0.31652 0.0
C1133 C 0.86968 0.30337 0.29463 0.0
N1134 N 0.89927 0.29318 0.1755 0.0
C1135 C 0.92902 0.31531 0.15627 0.0
C1136 C 0.92339 0.31099 0.2083 0.0
C1137 C 0.90881 0.29997 0.21695 0.0
C1138 C 0.92007 0.30674 0.11446 0.0
C1139 C 0.90557 0.29572 0.12481 0.0
N1140 N 0.84922 0.27992 0.2009 0.0
C1141 C 0.81989 0.29169 0.20977 0.0
C1142 C 0.81326 0.27602 0.22979 0.0
C1143 C 0.82531 0.26211 0.23483 0.0
C1144 C 0.84314 0.26428 0.21985 0.0
C1145 C 0.83748 0.29334 0.19599 0.0
H1146 H 0.85202 0.25344 0.22457 0.0
H1147 H 0.84156 0.30601 0.18314 0.0
H1148 H 0.90462 0.29787 0.25755 0.0
H1149 H 0.8988 0.29018 0.09113 0.0
C1150 C 0.89151 0.24655 0.19488 0.0
C1151 C 0.87044 0.28691 0.32562 0.0
C1152 C 0.86458 0.27834 0.05229 0.0
C1153 C 0.86983 0.32718 0.17595 0.0
H1154 H 0.88422 0.25454 0.37009 0.0
H1155 H 0.89838 0.23404 0.29829 0.0
H1156 H 0.88485 0.22474 0.10606 0.0
H1157 H 0.86639 0.24135 0.03282 0.0
H1158 H 0.85955 0.31188 1.00171 0.0
H1159 H 0.86348 0.33884 0.06776 0.0
H1160 H 0.86693 0.34551 0.27684 0.0
H1161 H 0.8659 0.32304 0.35819 0.0
H1162 H 0.92995 0.31637 0.24279 0.0
H1163 H 0.9236 0.30911 0.07334 0.0
H1164 H 0.81162 0.30308 0.20617 0.0
H1165 H 0.82103 0.24962 0.24997 0.0
C1166 C 0.02766 0.62788 0.54998 0.0
C1167 C 0.04194 0.63431 0.57813 0.0
C1168 C 0.05258 0.64215 0.5419 0.0
C1169 C 0.04449 0.63984 0.49375 0.0
N1170 N 0.02928 0.63111 0.49731 0.0
Co1171 Co 1.01413 0.62395 0.4369 0.0
N1172 N 0.03385 0.62629 0.386 0.0
C1173 C 0.04938 0.63385 0.3958 0.0
C1174 C 0.06154 0.63087 0.3569 0.0
C1175 C 0.0531 0.62111 0.31956 0.0
C1176 C 0.03598 0.6192 0.33707 0.0
N1177 N 0.99926 0.61746 0.37499 0.0
C1178 C 1.00364 0.61427 0.32307 0.0
C1179 C 0.98874 0.61233 0.29223 0.0
C1180 C 0.9747 0.61454 0.32585 0.0
C1181 C 0.9817 0.61781 0.37538 0.0
N1182 N 0.99511 0.62113 0.48942 0.0
C1183 C 0.97803 0.62051 0.47781 0.0
C1184 C 0.96801 0.6179 0.52269 0.0
C1185 C 0.97962 0.61684 0.56473 0.0
C1186 C 0.99615 0.61881 0.54325 0.0
N1187 N 1.00653 0.64883 0.42522 0.0
C1188 C 0.98416 0.67831 0.40512 0.0
C1189 C 0.98814 0.67264 0.45735 0.0
C1190 C 0.99931 0.65817 0.46644 0.0
C1191 C 0.99317 0.66962 0.36376 0.0
C1192 C 1.00433 0.65527 0.37454 0.0
N1193 N 1.01972 0.59871 0.44897 0.0
C1194 C 1.00785 0.56942 0.45571 0.0
C1195 C 1.02346 0.56261 0.47572 0.0
C1196 C 0.03741 0.57454 0.48193 0.0
C1197 C 0.03532 0.59246 0.46797 0.0
C1198 C 1.00627 0.58709 0.44304 0.0
H1199 H 0.04617 0.60125 0.4735 0.0
H1200 H 0.99363 0.59129 0.43022 0.0
H1201 H 1.00109 0.65383 0.50705 0.0
H1202 H 1.01028 0.64871 0.34111 0.0
C1203 C 0.05313 0.64097 0.44534 0.0
C1204 C 1.01257 0.61943 0.57465 0.0
C1205 C 1.02161 0.61459 0.30113 0.0
C1206 C 0.97252 0.61957 0.42406 0.0
H1207 H 0.04479 0.63311 0.62021 0.0
H1208 H 0.06543 0.64747 0.54926 0.0
H1209 H 0.07508 0.63485 0.35648 0.0
H1210 H 0.05865 0.61678 0.28212 0.0
H1211 H 0.98812 0.6099 0.24974 0.0
H1212 H 0.96103 0.61372 0.31538 0.0
H1213 H 0.954 0.61626 0.52451 0.0
H1214 H 0.97635 0.61482 0.60626 0.0
H1215 H 0.98194 0.67871 0.4914 0.0
H1216 H 0.99138 0.6736 0.3227 0.0
H1217 H 0.99645 0.56124 0.45131 0.0
H1218 H 0.04985 0.57009 0.4972 0.0
C1219 C 0.67054 0.77779 0.79996 0.0
C1220 C 0.66412 0.79215 0.82776 0.0
C1221 C 0.6562 0.80267 0.79129 0.0
C1222 C 0.65847 0.79444 0.74335 0.0
N1223 N 0.66725 0.77927 0.74727 0.0
Co1224 Co 0.67448 0.764 0.68725 0.0
N1225 N 0.67204 0.78357 0.6359 0.0
C1226 C 0.66437 0.79908 0.64527 0.0
C1227 C 0.66736 0.81117 0.60619 0.0
C1228 C 0.67724 0.80268 0.5692 0.0
C1229 C 0.67921 0.78562 0.58708 0.0
N1230 N 0.68112 0.74901 0.62577 0.0
C1231 C 0.68434 0.75329 0.57381 0.0
C1232 C 0.68641 0.73835 0.5433 0.0
C1233 C 0.68426 0.72438 0.5772 0.0
C1234 C 0.68089 0.73147 0.62654 0.0
N1235 N 0.67734 0.7451 0.74019 0.0
C1236 C 0.67799 0.72801 0.72897 0.0
C1237 C 0.68056 0.71809 0.77408 0.0
C1238 C 0.68157 0.72979 0.81588 0.0
C1239 C 0.67961 0.74626 0.79401 0.0
N1240 N 0.6496 0.7563 0.67566 0.0
C1241 C 0.61995 0.73396 0.65698 0.0
C1242 C 0.62571 0.73829 0.70892 0.0
C1243 C 0.64023 0.74942 0.71729 0.0
C1244 C 0.6287 0.74263 0.61504 0.0
C1245 C 0.64315 0.75374 0.62512 0.0
N1246 N 0.6997 0.76971 0.69929 0.0
C1247 C 0.72905 0.75795 0.70782 0.0
C1248 C 0.73588 0.77384 0.72561 0.0
C1249 C 0.72387 0.78784 0.7298 0.0
C1250 C 0.70592 0.78554 0.71626 0.0
C1251 C 0.71138 0.75621 0.69508 0.0
H1252 H 0.69708 0.79643 0.72038 0.0
H1253 H 0.7072 0.74345 0.68352 0.0
H1254 H 0.64453 0.75154 0.75781 0.0
H1255 H 0.64978 0.75934 0.5913 0.0
C1256 C 0.65725 0.80294 0.69472 0.0
C1257 C 0.67896 0.76273 0.82503 0.0
C1258 C 0.6839 0.7712 0.55147 0.0
C1259 C 0.67905 0.7224 0.67535 0.0
H1260 H 0.66535 0.79511 0.86975 0.0
H1261 H 0.65084 0.81553 0.79833 0.0
H1262 H 0.66333 0.82469 0.60547 0.0
H1263 H 0.68161 0.80816 0.53173 0.0
H1264 H 0.68888 0.73765 0.50086 0.0
H1265 H 0.68516 0.7107 0.56703 0.0
H1266 H 0.68224 0.70411 0.77622 0.0
H1267 H 0.68357 0.72661 0.8575 0.0
H1268 H 0.6193 0.73284 0.74352 0.0
H1269 H 0.62507 0.74026 0.57398 0.0
H1270 H 0.73721 0.74646 0.70515 0.0
H1271 H 0.72826 0.8005 0.74323 0.0
C1272 C 0.49634 0.43507 0.54341 0.0
C1273 C 0.48096 0.44134 0.56508 0.0
C1274 C 0.46999 0.44475 0.5229 0.0
C1275 C 0.47926 0.4404 0.47784 0.0
N1276 N 0.49531 0.43438 0.48901 0.0
Co1277 Co 0.5136 0.4284 0.43559 0.0
N1278 N 0.49975 0.4374 0.37366 0.0
C1279 C 0.48289 0.44218 0.37563 0.0
C1280 C 0.47625 0.44651 0.32642 0.0
C1281 C 0.48977 0.44424 0.29107 0.0
C1282 C 0.504 0.4387 0.32071 0.0
N1283 N 0.53269 0.42311 0.38375 0.0
C1284 C 0.53531 0.42904 0.33349 0.0
C1285 C 0.55216 0.42542 0.31607 0.0
C1286 C 0.5599 0.41573 0.3548 0.0
C1287 C 0.54767 0.41455 0.39431 0.0
N1288 N 0.52731 0.41794 0.49579 0.0
C1289 C 0.54159 0.40781 0.49105 0.0
C1290 C 0.54779 0.4015 0.53838 0.0
C1291 C 0.53683 0.40804 0.57599 0.0
C1292 C 0.52436 0.41792 0.54911 0.0
N1293 N 0.50212 0.40498 0.42337 0.0
C1294 C 0.4786 0.37613 0.40459 0.0
C1295 C 0.48798 0.3843 0.36289 0.0
C1296 C 0.49961 0.39835 0.37302 0.0
C1297 C 0.48241 0.38236 0.45635 0.0
C1298 C 0.49399 0.39652 0.46473 0.0
N1299 N 0.52351 0.45267 0.44852 0.0
C1300 C 0.53095 0.47522 0.51366 0.0
C1301 C 0.52582 0.48884 0.47933 0.0
C1302 C 0.5214 0.48376 0.4272 0.0
C1303 C 0.52059 0.46598 0.41268 0.0
C1304 C 0.53008 0.45757 0.49733 0.0
H1305 H 0.51719 0.46346 0.37208 0.0
H1306 H 0.53447 0.44812 0.52556 0.0
H1307 H 0.50605 0.40424 0.33936 0.0
H1308 H 0.4958 0.40095 0.50513 0.0
C1309 C 0.4742 0.44334 0.42478 0.0
C1310 C 0.51119 0.42868 0.57558 0.0
C1311 C 0.52155 0.43544 0.29789 0.0
C1312 C 0.55059 0.40697 0.44346 0.0
H1313 H 0.47799 0.4431 0.60695 0.0
H1314 H 0.45697 0.45017 0.52487 0.0
H1315 H 0.4632 0.45101 0.31733 0.0
H1316 H 0.48927 0.44658 0.24854 0.0
H1317 H 0.5581 0.42887 0.27839 0.0
H1318 H 0.57302 0.41049 0.35469 0.0
H1319 H 0.55952 0.39394 0.5451 0.0
H1320 H 0.53854 0.40623 0.61836 0.0
H1321 H 0.48599 0.38037 0.32192 0.0
H1322 H 0.47639 0.37651 0.49095 0.0
H1323 H 0.53519 0.47793 0.55394 0.0
H1324 H 0.51845 0.49343 0.39713 0.0
C1325 C 0.36505 0.74681 0.29688 0.0
C1326 C 0.35884 0.7314 0.3184 0.0
C1327 C 0.35563 0.72043 0.27613 0.0
C1328 C 0.36003 0.72973 0.23122 0.0
N1329 N 0.36588 0.7458 0.24253 0.0
Co1330 Co 0.37194 0.76413 0.18937 0.0
N1331 N 0.36325 0.75022 0.12728 0.0
C1332 C 0.35863 0.73333 0.12906 0.0
C1333 C 0.35452 0.72667 0.07972 0.0
C1334 C 0.35675 0.7402 0.0445 0.0
C1335 C 0.36205 0.75445 0.07435 0.0
N1336 N 0.37725 0.78324 0.13774 0.0
C1337 C 0.37151 0.78578 0.08721 0.0
C1338 C 0.37523 0.80258 0.06963 0.0
C1339 C 0.38473 0.81036 0.1087 0.0
C1340 C 0.38574 0.79821 0.14847 0.0
N1341 N 0.38215 0.77784 0.24984 0.0
C1342 C 0.3922 0.79217 0.24546 0.0
C1343 C 0.39836 0.79834 0.29301 0.0
C1344 C 0.39182 0.78731 0.33036 0.0
C1345 C 0.3821 0.77483 0.30312 0.0
N1346 N 0.39547 0.75284 0.17781 0.0
C1347 C 0.4244 0.7296 0.15928 0.0
C1348 C 0.4169 0.73958 0.11786 0.0
C1349 C 0.40262 0.75099 0.12782 0.0
C1350 C 0.41763 0.73263 0.21071 0.0
C1351 C 0.40354 0.74425 0.21909 0.0
N1352 N 0.34758 0.77393 0.20159 0.0
C1353 C 0.32492 0.7815 0.26613 0.0
C1354 C 0.31136 0.77629 0.23165 0.0
C1355 C 0.31654 0.77173 0.17973 0.0
C1356 C 0.33435 0.77087 0.16559 0.0
C1357 C 0.34259 0.78062 0.25014 0.0
H1358 H 0.33695 0.76732 0.12516 0.0
H1359 H 0.35199 0.78508 0.27847 0.0
H1360 H 0.39697 0.75776 0.09432 0.0
H1361 H 0.39878 0.74565 0.25927 0.0
C1362 C 0.35735 0.72463 0.17811 0.0
C1363 C 0.37134 0.76162 0.32919 0.0
C1364 C 0.36513 0.77201 0.05175 0.0
C1365 C 0.39314 0.80117 0.19789 0.0
H1366 H 0.35701 0.7284 0.36021 0.0
H1367 H 0.35033 0.70738 0.27795 0.0
H1368 H 0.35015 0.71361 0.07048 0.0
H1369 H 0.35451 0.73971 1.0019 0.0
H1370 H 0.37194 0.80846 0.03171 0.0
H1371 H 0.38997 0.82346 0.10859 0.0
H1372 H 0.40584 0.81008 0.30001 0.0
H1373 H 0.39352 0.78897 0.3728 0.0
H1374 H 0.42149 0.73807 0.0773 0.0
H1375 H 0.42304 0.72586 0.24481 0.0
H1376 H 0.32214 0.78581 0.30629 0.0
H1377 H 0.30691 0.76869 0.14956 0.0
C1378 C 0.0548 0.61412 0.04732 0.0
C1379 C 0.06827 0.60471 0.07036 0.0
C1380 C 0.07636 0.59583 0.02984 0.0
C1381 C 0.06742 0.6003 0.98434 0.0
N1382 N 0.05446 0.61183 0.9932 0.0
Co1383 Co 0.03642 0.61877 0.93945 0.0
N1384 N 0.04885 0.60723 0.87846 0.0
C1385 C 0.06283 0.59671 0.88297 0.0
C1386 C 0.06884 0.59081 0.83462 0.0
C1387 C 0.05778 0.5978 0.79719 0.0
C1388 C 0.04546 0.60748 0.82482 0.0
N1389 N 1.01755 0.625 0.88743 0.0
C1390 C 1.01577 0.6213 0.83485 0.0
C1391 C 0.99891 0.62471 0.81692 0.0
C1392 C 0.99003 0.63161 0.85867 0.0
C1393 C 1.00172 0.63154 0.89981 0.0
N1394 N 1.02385 0.63104 0.99897 0.0
C1395 C 1.00826 0.63912 0.99553 0.0
C1396 C 1.0032 0.64753 0.04091 0.0
C1397 C 1.01617 0.64433 0.07639 0.0
C1398 C 0.02846 0.63392 0.0505 0.0
N1399 N 0.04998 0.64085 0.92358 0.0
C1400 C 0.07172 0.67085 0.90294 0.0
C1401 C 0.05353 0.6724 0.91198 0.0
C1402 C 0.04294 0.65734 0.92155 0.0
C1403 C 0.07844 0.65388 0.9051 0.0
C1404 C 0.06766 0.63946 0.91569 0.0
N1405 N 1.02452 0.59596 0.9555 0.0
C1406 C 1.02086 0.57318 0.02212 0.0
C1407 C 1.02197 0.55986 0.9836 0.0
C1408 C 1.02227 0.56536 0.93003 0.0
C1409 C 1.02312 0.58328 0.91697 0.0
C1410 C 1.0218 0.5909 1.00727 0.0
H1411 H 1.02361 0.58664 0.87534 0.0
H1412 H 1.02132 0.60034 0.0386 0.0
H1413 H 0.02911 0.65913 0.92736 0.0
H1414 H 0.07404 0.62708 0.91772 0.0
C1415 C 0.07046 0.59366 0.93298 0.0
C1416 C 0.0419 0.62403 0.07892 0.0
C1417 C 0.02965 0.61501 0.79988 0.0
C1418 C 0.99835 0.63821 0.94976 0.0
H1419 H 0.07148 0.60391 0.11234 0.0
H1420 H 0.08714 0.58679 0.0334 0.0
H1421 H 0.07998 0.58247 0.82734 0.0
H1422 H 0.05846 0.59559 0.75463 0.0
H1423 H 0.99347 0.6225 0.77767 0.0
H1424 H 0.97665 0.63614 0.85903 0.0
H1425 H 0.99123 0.65467 0.0479 0.0
H1426 H 1.01576 0.64849 0.11745 0.0
H1427 H 0.04742 0.68511 0.91075 0.0
H1428 H 0.09227 0.65163 0.89957 0.0
H1429 H 1.0201 0.57008 0.06413 0.0
H1430 H 1.02212 0.55589 0.89801 0.0
C1431 C 0.1836 0.3026 0.79619 0.0
C1432 C 0.18991 0.31795 0.81785 0.0
C1433 C 0.19328 0.3289 0.77566 0.0
C1434 C 0.18887 0.31964 0.73063 0.0
N1435 N 0.18286 0.30362 0.74181 0.0
Co1436 Co 0.17675 0.28536 0.68839 0.0
N1437 N 0.18557 0.29923 0.62643 0.0
C1438 C 0.19033 0.31607 0.6284 0.0
C1439 C 0.1945 0.32273 0.57913 0.0
C1440 C 0.19215 0.30924 0.54375 0.0
C1441 C 0.18673 0.29502 0.57344 0.0
N1442 N 0.1714 0.26629 0.63657 0.0
C1443 C 0.17724 0.26371 0.5862 0.0
C1444 C 0.17364 0.24687 0.5687 0.0
C1445 C 0.16406 0.2391 0.60758 0.0
C1446 C 0.16293 0.2513 0.6472 0.0
N1447 N 0.16643 0.27165 0.74868 0.0
C1448 C 0.15636 0.25735 0.74406 0.0
C1449 C 0.15013 0.25116 0.79145 0.0
C1450 C 0.15665 0.26215 0.82897 0.0
C1451 C 0.16643 0.27463 0.80199 0.0
N1452 N 0.15326 0.29683 0.67666 0.0
C1453 C 0.12451 0.3204 0.65812 0.0
C1454 C 0.13198 0.31039 0.61666 0.0
C1455 C 0.14616 0.29883 0.62662 0.0
C1456 C 0.13123 0.31722 0.70957 0.0
C1457 C 0.14522 0.30545 0.71795 0.0
N1458 N 0.20109 0.27545 0.70079 0.0
C1459 C 0.22381 0.26807 0.76549 0.0
C1460 C 0.23736 0.27303 0.73069 0.0
C1461 C 0.23213 0.27739 0.67863 0.0
C1462 C 0.2143 0.27827 0.66458 0.0
C1463 C 0.20612 0.26898 0.7496 0.0
H1464 H 0.21164 0.28164 0.62403 0.0
H1465 H 0.19673 0.26471 0.77819 0.0
H1466 H 0.15178 0.29206 0.59309 0.0
H1467 H 0.14992 0.30395 0.75817 0.0
C1468 C 0.19165 0.32473 0.67756 0.0
C1469 C 0.17716 0.28781 0.82839 0.0
C1470 C 0.18354 0.27748 0.55066 0.0
C1471 C 0.15547 0.24835 0.69647 0.0
H1472 H 0.1917 0.32093 0.8597 0.0
H1473 H 0.19869 0.3419 0.77762 0.0
H1474 H 0.19897 0.33577 0.57002 0.0
H1475 H 0.1944 0.30975 0.50117 0.0
H1476 H 0.17704 0.24095 0.53093 0.0
H1477 H 0.15888 0.22599 0.60748 0.0
H1478 H 0.14263 0.23942 0.79824 0.0
H1479 H 0.15489 0.26045 0.87136 0.0
H1480 H 0.12743 0.312 0.57607 0.0
H1481 H 0.12585 0.32398 0.74373 0.0
H1482 H 0.22663 0.26394 0.80581 0.0
H1483 H 0.24174 0.28024 0.64827 0.0
C1484 C 0.4951 0.61684 0.9729 0.0
C1485 C 0.48188 0.60715 0.94973 0.0
C1486 C 0.47384 0.59826 0.99023 0.0
C1487 C 0.48257 0.60299 0.03583 0.0
N1488 N 0.49533 0.61473 0.02708 0.0
Co1489 Co 0.51311 0.62211 0.08111 0.0
N1490 N 0.50084 0.61032 0.14192 0.0
C1491 C 0.48703 0.59962 0.13726 0.0
C1492 C 0.48112 0.59354 0.18549 0.0
C1493 C 0.49208 0.6006 0.22301 0.0
C1494 C 0.50424 0.61049 0.19554 0.0
N1495 N 0.53174 0.62877 0.13342 0.0
C1496 C 0.53363 0.62496 0.18589 0.0
C1497 C 0.55036 0.62885 0.20398 0.0
C1498 C 0.559 0.63617 0.1625 0.0
C1499 C 0.54734 0.63586 0.12131 0.0
N1500 N 0.52545 0.63464 0.02171 0.0
C1501 C 0.54073 0.64324 0.02546 0.0
C1502 C 0.54564 0.6517 0.98007 0.0
C1503 C 0.53291 0.648 0.94425 0.0
C1504 C 0.5209 0.63726 0.96996 0.0
N1505 N 0.49905 0.64388 0.0968 0.0
C1506 C 0.47678 0.67344 0.11788 0.0
C1507 C 0.49496 0.6753 0.10957 0.0
C1508 C 0.50582 0.66045 0.09977 0.0
C1509 C 0.47032 0.6564 0.11475 0.0
C1510 C 0.48137 0.64218 0.10396 0.0
N1511 N 0.52559 0.5996 0.06534 0.0
C1512 C 0.52974 0.577 0.99855 0.0
C1513 C 0.52847 0.56364 0.03681 0.0
C1514 C 0.52801 0.56902 0.09046 0.0
C1515 C 0.52702 0.5869 0.10375 0.0
C1516 C 0.52865 0.59466 0.01363 0.0
H1517 H 0.52643 0.59019 0.14539 0.0
H1518 H 0.52929 0.60415 0.98252 0.0
H1519 H 0.51964 0.66246 0.09462 0.0
H1520 H 0.47522 0.62973 0.1013 0.0
C1521 C 0.47954 0.59639 0.08718 0.0
C1522 C 0.50789 0.62686 0.94136 0.0
C1523 C 0.51996 0.61809 0.22061 0.0
C1524 C 0.55055 0.64265 0.07144 0.0
H1525 H 0.4788 0.60618 0.90768 0.0
H1526 H 0.46325 0.58902 0.98659 0.0
H1527 H 0.47014 0.585 0.1926 0.0
H1528 H 0.49146 0.59827 0.26552 0.0
H1529 H 0.55588 0.62666 0.24312 0.0
H1530 H 0.57224 0.64107 0.16229 0.0
H1531 H 0.55738 0.65919 0.97328 0.0
H1532 H 0.53332 0.65209 0.90315 0.0
H1533 H 0.50085 0.68809 0.11159 0.0
H1534 H 0.45651 0.65395 0.11973 0.0
H1535 H 0.53072 0.57395 0.95654 0.0
H1536 H 0.5281 0.5595 0.12231 0.0
C1537 C 0.18244 0.74643 0.72544 0.0
C1538 C 0.18897 0.73114 0.70393 0.0
C1539 C 0.19225 0.72016 0.74616 0.0
C1540 C 0.18756 0.72934 0.79109 0.0
N1541 N 0.18147 0.74534 0.77978 0.0
Co1542 Co 0.175 0.76351 0.83303 0.0
N1543 N 0.18388 0.74975 0.89517 0.0
C1544 C 0.18875 0.73293 0.89338 0.0
C1545 C 0.19298 0.72635 0.94273 0.0
C1546 C 0.19056 0.73987 0.97795 0.0
C1547 C 0.18503 0.75404 0.9481 0.0
N1548 N 0.16929 0.78252 0.88471 0.0
C1549 C 0.17512 0.78524 0.93506 0.0
C1550 C 0.17115 0.80201 0.95244 0.0
C1551 C 0.16136 0.80956 0.91355 0.0
C1552 C 0.16046 0.79731 0.87401 0.0
N1553 N 0.1646 0.77708 0.77253 0.0
C1554 C 0.15418 0.79116 0.77696 0.0
C1555 C 0.14802 0.79731 0.72939 0.0
C1556 C 0.15496 0.78652 0.69198 0.0
C1557 C 0.16489 0.77418 0.7192 0.0
N1558 N 0.15167 0.75181 0.84433 0.0
C1559 C 0.12318 0.72798 0.8625 0.0
C1560 C 0.13047 0.73808 0.90403 0.0
C1561 C 0.14452 0.74977 0.89425 0.0
C1562 C 0.12995 0.73118 0.81114 0.0
C1563 C 0.14381 0.74307 0.80294 0.0
N1564 N 0.19922 0.77369 0.82107 0.0
C1565 C 0.22179 0.78164 0.75665 0.0
C1566 C 0.2354 0.77634 0.79082 0.0
C1567 C 0.2303 0.7716 0.84262 0.0
C1568 C 0.21252 0.77061 0.85687 0.0
C1569 C 0.20412 0.7806 0.77274 0.0
H1570 H 0.21 0.76693 0.8972 0.0
H1571 H 0.19466 0.78514 0.74469 0.0
H1572 H 0.15002 0.75661 0.92785 0.0
H1573 H 0.14857 0.74459 0.76281 0.0
C1574 C 0.19024 0.72426 0.84425 0.0
C1575 C 0.17601 0.76122 0.69315 0.0
C1576 C 0.18177 0.77161 0.97064 0.0
C1577 C 0.15299 0.80011 0.82461 0.0
H1578 H 0.19097 0.72822 0.66213 0.0
H1579 H 0.19779 0.7072 0.74433 0.0
H1580 H 0.19758 0.71335 0.95198 0.0
H1581 H 0.19284 0.73943 0.02053 0.0
H1582 H 0.17447 0.80804 0.99012 0.0
H1583 H 0.1559 0.82258 0.91355 0.0
H1584 H 0.14031 0.80892 0.72243 0.0
H1585 H 0.15337 0.78828 0.64954 0.0
H1586 H 0.12588 0.73646 0.94455 0.0
H1587 H 0.1247 0.72434 0.77693 0.0
H1588 H 0.22452 0.78612 0.71665 0.0
H1589 H 0.23998 0.76851 0.87262 0.0
C1590 C 0.05491 0.43379 0.47302 0.0
C1591 C 0.06828 0.44331 0.45003 0.0
C1592 C 0.07632 0.45219 0.49061 0.0
C1593 C 0.06745 0.44764 0.5361 0.0
N1594 N 0.05459 0.43603 0.52717 0.0
Co1595 Co 0.03662 0.42897 0.58088 0.0
N1596 N 0.04895 0.44059 0.64195 0.0
C1597 C 0.06286 0.45117 0.63749 0.0
C1598 C 0.06881 0.45713 0.68585 0.0
C1599 C 0.05778 0.45011 0.72324 0.0
C1600 C 0.04554 0.44036 0.69557 0.0
N1601 N 1.0178 0.42263 0.63284 0.0
C1602 C 1.01594 0.42642 0.68534 0.0
C1603 C 0.99909 0.42295 0.70311 0.0
C1604 C 0.99032 0.4159 0.66139 0.0
C1605 C 1.00204 0.41596 0.6204 0.0
N1606 N 1.02415 0.41663 0.52131 0.0
C1607 C 1.00866 0.4084 0.52475 0.0
C1608 C 1.00366 0.39998 0.47934 0.0
C1609 C 1.01656 0.40332 0.44383 0.0
C1610 C 0.02875 0.41381 0.46975 0.0
N1611 N 0.05038 0.40697 0.59678 0.0
C1612 C 0.07242 0.37712 0.61743 0.0
C1613 C 0.05425 0.37545 0.6083 0.0
C1614 C 0.04351 0.39043 0.59874 0.0
C1615 C 0.07898 0.39414 0.61535 0.0
C1616 C 0.06806 0.40849 0.60475 0.0
N1617 N 1.02453 0.45172 0.56481 0.0
C1618 C 1.02079 0.47449 0.49816 0.0
C1619 C 1.02191 0.48781 0.53665 0.0
C1620 C 1.0222 0.48232 0.59024 0.0
C1621 C 1.02308 0.4644 0.60332 0.0
C1622 C 1.02177 0.45678 0.51302 0.0
H1623 H 1.02356 0.46106 0.64494 0.0
H1624 H 1.02129 0.44733 0.48172 0.0
H1625 H 0.0297 0.38854 0.59287 0.0
H1626 H 0.07431 0.4209 0.60277 0.0
C1627 C 0.07045 0.45427 0.58749 0.0
C1628 C 0.04208 0.42383 0.44135 0.0
C1629 C 0.02975 0.43281 0.72042 0.0
C1630 C 0.99875 0.40924 0.57048 0.0
H1631 H 0.07146 0.44416 0.40805 0.0
H1632 H 0.08703 0.4613 0.4871 0.0
H1633 H 0.07988 0.46554 0.69316 0.0
H1634 H 0.05842 0.45235 0.76579 0.0
H1635 H 0.99359 0.42522 0.74223 0.0
H1636 H 0.97697 0.41131 0.66092 0.0
H1637 H 0.99176 0.39275 0.47233 0.0
H1638 H 1.01615 0.39918 0.40276 0.0
H1639 H 0.04826 0.36268 0.60947 0.0
H1640 H 0.09279 0.39649 0.62095 0.0
H1641 H 1.02001 0.47759 0.45614 0.0
H1642 H 1.02204 0.49179 0.62224 0.0
C1643 C 0.36626 0.30266 0.22374 0.0
C1644 C 0.35985 0.31793 0.20177 0.0
C1645 C 0.35602 0.32882 0.24378 0.0
C1646 C 0.36029 0.31961 0.28903 0.0
N1647 N 0.36664 0.30367 0.27819 0.0
Co1648 Co 0.37265 0.28549 0.332 0.0
N1649 N 0.36332 0.29931 0.39356 0.0
C1650 C 0.35824 0.31606 0.39121 0.0
C1651 C 0.35376 0.32273 0.44025 0.0
C1652 C 0.35625 0.30935 0.4759 0.0
C1653 C 0.36205 0.29517 0.44661 0.0
N1654 N 0.37795 0.2665 0.38417 0.0
C1655 C 0.37196 0.26394 0.4344 0.0
C1656 C 0.37548 0.2471 0.45201 0.0
C1657 C 0.38517 0.23929 0.41343 0.0
C1658 C 0.38643 0.25147 0.37383 0.0
N1659 N 0.38336 0.2718 0.27215 0.0
C1660 C 0.39343 0.25749 0.27726 0.0
C1661 C 0.39998 0.25131 0.23023 0.0
C1662 C 0.39369 0.26232 0.1924 0.0
C1663 C 0.38369 0.27479 0.21884 0.0
N1664 N 0.39594 0.29718 0.34471 0.0
C1665 C 0.42442 0.32097 0.36444 0.0
C1666 C 0.41626 0.31153 0.40587 0.0
C1667 C 0.4024 0.29972 0.39527 0.0
C1668 C 0.41843 0.3172 0.31248 0.0
C1669 C 0.40443 0.30546 0.3036 0.0
N1670 N 0.3485 0.27536 0.31874 0.0
C1671 C 0.32582 0.26851 0.25346 0.0
C1672 C 0.31227 0.2729 0.28895 0.0
C1673 C 0.31747 0.27664 0.34147 0.0
C1674 C 0.33531 0.27751 0.35546 0.0
C1675 C 0.34352 0.26943 0.26927 0.0
H1676 H 0.338 0.28032 0.39638 0.0
H1677 H 0.35293 0.26564 0.24018 0.0
H1678 H 0.39656 0.29312 0.42869 0.0
H1679 H 0.40007 0.30372 0.26311 0.0
C1680 C 0.35707 0.32465 0.34193 0.0
C1681 C 0.37307 0.28795 0.1918 0.0
C1682 C 0.36556 0.27774 0.46979 0.0
C1683 C 0.39408 0.24849 0.32486 0.0
H1684 H 0.35826 0.32088 0.15983 0.0
H1685 H 0.3504 0.34174 0.24154 0.0
H1686 H 0.34904 0.33572 0.44902 0.0
H1687 H 0.35386 0.3099 0.51841 0.0
H1688 H 0.37197 0.24121 0.48971 0.0
H1689 H 0.39036 0.22616 0.4137 0.0
H1690 H 0.40757 0.23959 0.22384 0.0
H1691 H 0.39575 0.26063 0.15014 0.0
H1692 H 0.42044 0.31329 0.44676 0.0
H1693 H 0.42401 0.32383 0.27844 0.0
H1694 H 0.323 0.26484 0.21272 0.0
H1695 H 0.30785 0.279 0.37219 0.0
C1696 C 0.03168 0.13191 0.80291 0.0
C1697 C 0.02534 0.11648 0.77935 0.0
H1698 H 0.0427 0.14417 0.87198 0.0
C1699 C 0.02513 0.10121 0.81039 0.0
H1700 H 0.03195 0.14394 0.78028 0.0
C1701 C 0.03084 0.10152 0.86391 0.0
C1702 C 0.03756 0.11691 0.88665 0.0
H1703 H 1.02053 0.08909 0.79331 0.0
H1704 H 0.02949 0.0899 0.88807 0.0
C1705 C 0.03829 0.13196 0.85494 0.0
C1706 C 0.16614 0.78148 0.05359 0.0
C1707 C 0.1816 0.77532 0.02968 0.0
H1708 H 0.15392 0.79236 0.12292 0.0
C1709 C 0.19697 0.77528 0.06037 0.0
H1710 H 0.15404 0.78161 0.03126 0.0
C1711 C 0.19674 0.78098 0.11389 0.0
C1712 C 0.18132 0.78753 0.13698 0.0
H1713 H 0.20911 0.77081 0.04302 0.0
H1714 H 0.20845 0.77977 0.13779 0.0
C1715 C 0.16615 0.78809 0.10561 0.0
C1716 C 0.52376 0.94678 0.31133 0.0
C1717 C 0.52344 0.93175 0.27919 0.0
H1718 H 0.51941 0.95755 0.38976 0.0
C1719 C 0.51693 0.91622 0.30157 0.0
H1720 H 0.52847 0.95899 0.29519 0.0
C1721 C 0.51025 0.91584 0.3535 0.0
C1722 C 0.51108 0.93065 0.38631 0.0
H1723 H 0.51655 0.90436 0.27808 0.0
H1724 H 0.50571 0.90355 0.36959 0.0
C1725 C 0.51799 0.94613 0.36475 0.0
C1726 C 0.38163 0.26787 0.55194 0.0
C1727 C 0.36608 0.27418 0.52893 0.0
H1728 H 0.39419 0.25669 0.6203 0.0
C1729 C 0.3509 0.27425 0.56044 0.0
H1730 H 0.39359 0.26766 0.52893 0.0
C1731 C 0.35142 0.26843 0.61384 0.0
C1732 C 0.36693 0.2617 0.63596 0.0
H1733 H 0.33867 0.27879 0.5438 0.0
H1734 H 0.33985 0.26965 0.63837 0.0
C1735 C 0.3819 0.26111 0.60377 0.0
C1736 C 0.03065 0.91795 0.71863 0.0
C1737 C 1.02445 0.93348 0.74196 0.0
H1738 H 0.04164 0.90549 0.64986 0.0
C1739 C 1.0244 0.94872 0.71076 0.0
H1740 H 0.03083 0.90596 0.74144 0.0
C1741 C 0.03016 0.94828 0.65731 0.0
C1742 C 0.03677 0.93279 0.63484 0.0
H1743 H 1.01994 0.96092 0.72769 0.0
H1744 H 0.02897 0.95989 0.63302 0.0
C1745 C 0.03731 0.91776 0.6667 0.0
C1746 C 0.38085 0.78813 0.91667 0.0
C1747 C 0.3657 0.78748 0.88526 0.0
H1748 H 0.39289 0.78196 0.9914 0.0
C1749 C 0.35027 0.781 0.90834 0.0
H1750 H 0.39307 0.79237 0.89933 0.0
C1751 C 0.35001 0.77544 0.96195 0.0
C1752 C 0.36536 0.7756 0.99273 0.0
H1753 H 0.33858 0.77973 0.88439 0.0
H1754 H 0.33788 0.771 0.97931 0.0
C1755 C 0.38082 0.78172 0.96889 0.0
C1756 C 0.51412 0.13083 0.16509 0.0
C1757 C 0.5133 0.11581 0.13316 0.0
H1758 H 0.52201 0.14209 0.23938 0.0
C1759 C 0.51855 0.09981 0.15555 0.0
H1760 H 0.51068 0.14341 0.14847 0.0
C1761 C 0.52445 0.09891 0.20884 0.0
C1762 C 0.52612 0.11416 0.23978 0.0
H1763 H 0.51851 0.0881 0.13141 0.0
H1764 H 0.52756 0.08633 0.22587 0.0
C1765 C 0.52113 0.13013 0.21657 0.0
C1766 C 0.19841 0.27403 0.4604 0.0
C1767 C 0.18316 0.27385 0.4916 0.0
H1768 H 0.20964 0.2696 0.38263 0.0
C1769 C 0.16769 0.26753 0.46824 0.0
H1770 H 0.21057 0.2786 0.47734 0.0
C1771 C 0.16756 0.2609 0.41625 0.0
C1772 C 0.1826 0.26158 0.38439 0.0
H1773 H 0.15568 0.26727 0.49101 0.0
H1774 H 0.15532 0.25649 0.39937 0.0
C1775 C 0.19803 0.26829 0.40692 0.0
C1776 C 1.01926 0.91786 0.22497 0.0
C1777 C 0.02603 0.93385 0.24331 0.0
H1778 H 1.00731 0.90371 0.16096 0.0
C1779 C 0.02634 0.94802 0.20773 0.0
H1780 H 1.01868 0.90671 0.25145 0.0
C1781 C 1.02027 0.94607 0.15487 0.0
C1782 C 1.01327 0.9301 0.13724 0.0
H1783 H 0.03111 0.96057 0.22092 0.0
H1784 H 1.02138 0.9569 0.12749 0.0
C1785 C 1.01235 0.91623 0.17359 0.0
C1786 C 0.88295 0.26787 0.97589 0.0
C1787 C 0.86695 0.27483 0.99362 0.0
H1788 H 0.8971 0.25529 0.913 0.0
C1789 C 0.8528 0.27497 0.95789 0.0
H1790 H 0.89405 0.26734 1.00262 0.0
C1791 C 0.85479 0.26856 0.90546 0.0
C1792 C 0.8708 0.26142 0.88831 0.0
H1793 H 0.84021 0.27981 0.9707 0.0
H1794 H 0.8439 0.26944 0.87812 0.0
C1795 C 0.8846 0.2606 0.92499 0.0
C1796 C 0.5305 0.13108 0.7239 0.0
C1797 C 0.52352 0.11512 0.74165 0.0
H1798 H 0.54347 0.14506 0.66151 0.0
C1799 C 0.5235 0.10095 0.70604 0.0
H1800 H 0.53099 0.14219 0.75055 0.0
C1801 C 0.53007 0.10288 0.65376 0.0
C1802 C 0.53726 0.11884 0.63663 0.0
H1803 H 0.51868 0.08838 0.71888 0.0
H1804 H 0.52934 0.09195 0.62661 0.0
C1805 C 0.53798 0.13264 0.67326 0.0
C1806 C 0.66544 0.78141 0.47492 0.0
C1807 C 0.68153 0.77469 0.4928 0.0
H1808 H 0.65118 0.79391 0.41206 0.0
C1809 C 0.69574 0.77492 0.45738 0.0
H1810 H 0.65429 0.78171 0.50147 0.0
C1811 C 0.69373 0.78142 0.40507 0.0
C1812 C 0.67761 0.78828 0.38769 0.0
H1813 H 0.7084 0.77032 0.47036 0.0
H1814 H 0.7047 0.78085 0.37802 0.0
C1815 C 0.66374 0.78877 0.42414 0.0
C1816 C 1.0119 0.13268 0.34814 0.0
C1817 C 1.01327 0.11881 0.38435 0.0
H1818 H 1.0179 0.14245 0.27041 0.0
C1819 C 1.02065 0.10303 0.36646 0.0
H1820 H 1.00663 0.14509 0.36103 0.0
C1821 C 0.02662 0.10126 0.31344 0.0
C1822 C 0.02586 0.11545 0.27799 0.0
H1823 H 1.02217 0.09222 0.39379 0.0
H1824 H 0.03173 0.08884 0.3001 0.0
C1825 C 1.01875 0.13126 0.29665 0.0
C1826 C 0.69349 0.26505 0.11048 0.0
C1827 C 0.67748 0.25943 0.13217 0.0
H1828 H 0.70715 0.27451 0.04096 0.0
C1829 C 0.66277 0.25937 0.09876 0.0
H1830 H 0.70504 0.26548 0.13532 0.0
C1831 C 0.66369 0.26584 0.04657 0.0
C1832 C 0.67967 0.27121 0.02421 0.0
H1833 H 0.65023 0.25528 0.11423 0.0
H1834 H 0.65184 0.26628 0.02303 0.0
C1835 C 0.69462 0.27064 0.05687 0.0
C1836 C 0.52229 0.94621 0.81179 0.0
C1837 C 0.52322 0.93182 0.77711 0.0
H1838 H 0.52657 0.95575 0.89172 0.0
C1839 C 0.5305 0.91619 0.79666 0.0
H1840 H 0.51702 0.95848 0.79778 0.0
C1841 C 0.53734 0.91516 0.84828 0.0
C1842 C 0.53582 0.92923 0.88371 0.0
H1843 H 0.53144 0.90484 0.77108 0.0
H1844 H 0.54269 0.90287 0.86192 0.0
C1845 C 0.52826 0.94482 0.86493 0.0
C1846 C 0.88351 0.78691 0.59797 0.0
C1847 C 0.86935 0.78595 0.63325 0.0
H1848 H 0.89367 0.7806 0.52085 0.0
C1849 C 0.85353 0.77892 0.61442 0.0
H1850 H 0.89595 0.7919 0.61162 0.0
C1851 C 0.852 0.77289 0.5614 0.0
C1852 C 0.86645 0.77326 0.52689 0.0
H1853 H 0.84249 0.77771 0.64104 0.0
H1854 H 0.83956 0.76806 0.54731 0.0
C1855 C 0.8823 0.78004 0.54644 0.0
C1856 C 0.52864 0.63401 0.30398 0.0
C1857 C 0.5235 0.61826 0.27977 0.0
H1858 H 0.53897 0.64674 0.37322 0.0
C1859 C 0.52501 0.6028 0.30973 0.0
H1860 H 0.52789 0.64613 0.28192 0.0
C1861 C 0.53081 0.60327 0.36313 0.0
C1862 C 0.53612 0.61906 0.38666 0.0
H1863 H 0.52177 0.59036 0.29189 0.0
H1864 H 0.53069 0.59141 0.38653 0.0
C1865 C 0.5355 0.6343 0.35569 0.0
C1866 C 0.68929 0.25837 0.5728 0.0
C1867 C 0.69105 0.26972 0.52937 0.0
H1868 H 0.68673 0.25549 0.65697 0.0
C1869 C 0.69398 0.28756 0.54092 0.0
H1870 H 0.68685 0.24464 0.56628 0.0
C1871 C 0.69207 0.29418 0.59312 0.0
C1872 C 0.68882 0.28297 0.63632 0.0
H1873 H 0.6957 0.29675 0.50856 0.0
H1874 H 0.69159 0.30813 0.59803 0.0
C1875 C 0.68889 0.26481 0.6253 0.0
C1876 C 0.02503 0.44741 0.81094 0.0
C1877 C 0.02623 0.4322 0.77962 0.0
H1878 H 1.01949 0.45821 0.88864 0.0
C1879 C 1.0207 0.41636 0.80241 0.0
H1880 H 0.02855 0.45993 0.79425 0.0
C1881 C 1.01373 0.41575 0.85396 0.0
C1882 C 1.0134 0.43071 0.88627 0.0
H1883 H 1.0212 0.40443 0.77933 0.0
H1884 H 1.00995 0.40325 0.87032 0.0
C1885 C 1.01913 0.44658 0.86421 0.0
C1886 C 0.8512 0.76883 0.11509 0.0
C1887 C 0.86679 0.76189 0.13609 0.0
H1888 H 0.83805 0.77932 0.04594 0.0
C1889 C 0.88149 0.76109 0.10284 0.0
H1890 H 0.83985 0.77023 0.14045 0.0
C1891 C 0.8809 0.76779 0.05096 0.0
C1892 C 0.86526 0.77433 0.0291 0.0
H1893 H 0.89385 0.75651 0.1185 0.0
H1894 H 0.89266 0.76737 0.02704 0.0
C1895 C 0.85034 0.77463 0.06172 0.0
C1896 C 0.53078 0.44973 0.15389 0.0
C1897 C 0.53753 0.43428 0.13154 0.0
H1898 H 0.52044 0.46237 0.22412 0.0
C1899 C 0.53819 0.41929 0.16361 0.0
H1900 H 0.52949 0.46131 0.12948 0.0
C1901 C 0.53152 0.41949 0.21557 0.0
C1902 C 0.52518 0.43499 0.23876 0.0
H1903 H 0.54261 0.40703 0.14691 0.0
H1904 H 0.53177 0.40752 0.23846 0.0
C1905 C 0.52502 0.45019 0.20736 0.0
C1906 C 0.88347 0.28545 0.41655 0.0
C1907 C 0.86836 0.28599 0.38487 0.0
H1908 H 0.89501 0.27779 0.49071 0.0
C1909 C 0.85249 0.28051 0.40748 0.0
H1910 H 0.89597 0.28906 0.3997 0.0
C1911 C 0.8518 0.27462 0.46073 0.0
C1912 C 0.86714 0.2732 0.4914 0.0
H1913 H 0.84074 0.28033 0.38349 0.0
H1914 H 0.83929 0.27128 0.47792 0.0
C1915 C 0.88298 0.27847 0.46806 0.0
C1916 C 1.02062 0.63147 0.71785 0.0
C1917 C 0.02618 0.61563 0.74067 0.0
H1918 H 1.00992 0.6446 0.64979 0.0
C1919 C 0.02504 0.60042 0.70935 0.0
H1920 H 1.02107 0.6434 0.74097 0.0
C1921 C 1.01917 0.60126 0.65603 0.0
C1922 C 1.01343 0.61713 0.63391 0.0
H1923 H 0.02857 0.5879 0.72607 0.0
H1924 H 1.01957 0.58962 0.6316 0.0
C1925 C 1.01371 0.63209 0.6662 0.0
C1926 C 0.69779 0.77508 0.96011 0.0
C1927 C 0.68251 0.77636 0.99105 0.0
H1928 H 0.70873 0.76949 0.88264 0.0
C1929 C 0.66666 0.771 0.96787 0.0
H1930 H 0.71031 0.77847 0.97714 0.0
C1931 C 0.6661 0.7641 0.91622 0.0
C1932 C 0.68115 0.76366 0.88431 0.0
H1933 H 0.65467 0.77156 0.99072 0.0
H1934 H 0.65359 0.76043 0.89952 0.0
C1935 C 0.69703 0.76923 0.90678 0.0
C1936 C 0.51932 0.42005 0.7217 0.0
C1937 C 0.52629 0.43594 0.74008 0.0
H1938 H 0.50724 0.40604 0.65763 0.0
C1939 C 0.52681 0.4501 0.70447 0.0
H1940 H 0.51862 0.40889 0.74812 0.0
C1941 C 0.52076 0.44822 0.65156 0.0
C1942 C 0.51354 0.43235 0.63391 0.0
H1943 H 0.53177 0.46259 0.71764 0.0
H1944 H 0.52206 0.45902 0.62414 0.0
C1945 C 0.51241 0.41851 0.67029 0.0
C1946 C 0.35174 0.77101 0.40508 0.0
C1947 C 0.36764 0.7638 0.38746 0.0
H1948 H 0.33731 0.78186 0.47127 0.0
C1949 C 0.38146 0.76249 0.42391 0.0
H1950 H 0.34097 0.77246 0.37753 0.0
C1951 C 0.37986 0.76918 0.47553 0.0
C1952 C 0.36394 0.77615 0.49385 0.0
H1953 H 0.39394 0.75732 0.41122 0.0
H1954 H 0.39099 0.76834 0.5021 0.0
C1955 C 0.34981 0.77688 0.45811 0.0
C1956 C 0.03938 0.63445 0.17362 0.0
C1957 C 0.03878 0.62055 0.13725 0.0
H1958 H 0.03244 0.64401 0.25097 0.0
C1959 C 0.03184 0.60453 0.15478 0.0
H1960 H 0.04455 0.64695 0.16138 0.0
C1961 C 0.02536 0.60263 0.20714 0.0
C1962 C 0.02524 0.61685 0.24249 0.0
H1963 H 0.03117 0.59355 0.1278 0.0
H1964 H 1.02065 0.59003 0.22019 0.0
C1965 C 0.03206 0.63285 0.22449 0.0
C1966 C 0.19649 0.27825 0.90489 0.0
C1967 C 0.1807 0.28559 0.8868 0.0
H1968 H 0.21062 0.2672 0.97143 0.0
C1969 C 0.16675 0.28688 0.92278 0.0
H1970 H 0.20735 0.27679 0.87772 0.0
C1971 C 0.1681 0.28001 0.97424 0.0
C1972 C 0.18393 0.27295 0.99312 0.0
H1973 H 0.15433 0.29212 0.90972 0.0
H1974 H 0.15686 0.2808 1.00032 0.0
C1975 C 0.19819 0.27226 0.9579 0.0
C1976 C 0.51832 0.63459 0.79542 0.0
C1977 C 0.52507 0.6184 0.77862 0.0
H1978 H 0.5057 0.64923 0.8572 0.0
C1979 C 0.5248 0.60444 0.81493 0.0
H1980 H 0.51798 0.64553 0.76811 0.0
C1981 C 0.51825 0.6068 0.86704 0.0
C1982 C 0.51141 0.62302 0.88341 0.0
H1983 H 0.52938 0.5917 0.80275 0.0
H1984 H 0.51871 0.596 0.89467 0.0
C1985 C 0.51094 0.63663 0.84607 0.0
C1986 C 0.16727 0.76896 0.54698 0.0
C1987 C 0.18306 0.77615 0.52855 0.0
H1988 H 0.15346 0.75672 0.61108 0.0
C1989 C 0.19722 0.77697 0.56421 0.0
H1990 H 0.15611 0.76806 0.52059 0.0
C1991 C 0.19543 0.77098 0.61719 0.0
C1992 C 0.17968 0.7635 0.63483 0.0
H1993 H 0.20963 0.78214 0.55104 0.0
H1994 H 0.20621 0.77253 0.64468 0.0
C1995 C 0.16586 0.76207 0.59841 0.0
C1996 C 0.02531 0.44512 0.31303 0.0
C1997 C 0.02527 0.43088 0.27773 0.0
H1998 H 0.03109 0.45425 0.39237 0.0
C1999 C 0.03221 0.41492 0.29582 0.0
H2000 H 1.02051 0.45769 0.29994 0.0
C2001 C 0.03959 0.41339 0.34667 0.0
C2002 C 0.0389 0.42728 0.383 0.0
H2003 H 0.03263 0.40374 0.26942 0.0
H2004 H 0.04487 0.40091 0.35892 0.0
C2005 C 0.03183 0.44327 0.36541 0.0
C2006 C 0.38343 0.28642 0.09729 0.0
C2007 C 0.3695 0.28548 0.13343 0.0
H2008 H 0.39315 0.28 0.01975 0.0
C2009 C 0.35358 0.27837 0.11557 0.0
H2010 H 0.39592 0.29153 0.11008 0.0
C2011 C 0.35176 0.27225 0.06271 0.0
C2012 C 0.366 0.27258 0.02738 0.0
H2013 H 0.3427 0.27723 0.14277 0.0
H2014 H 0.33923 0.2674 0.04936 0.0
C2015 C 0.38194 0.27942 0.04598 0.0
C2016 C 1.01452 0.03659 0.98862 0.0
C2017 C 0.02515 0.04268 0.03062 0.0
H2018 H 1.00613 1.0149 0.94081 0.0
C2019 C 0.0355 0.03011 0.05721 0.0
H2020 H 1.00637 0.04562 0.96671 0.0
C2021 C 0.03574 1.01247 0.04148 0.0
C2022 C 0.02543 1.00634 0.99876 0.0
H2023 H 0.04364 0.03386 0.09056 0.0
H2024 H 0.04441 1.00376 0.06265 0.0
C2025 C 1.01464 1.01881 0.97308 0.0
C2026 C 0.26207 0.76457 0.24011 0.0
C2027 C 0.25589 0.7755 0.28126 0.0
H2028 H 0.2838 0.75594 0.1929 0.0
C2029 C 0.26839 0.78617 0.3069 0.0
H2030 H 0.25311 0.75615 0.21895 0.0
C2031 C 0.28601 0.78646 0.29094 0.0
C2032 C 0.29222 0.77586 0.24903 0.0
H2033 H 0.2646 0.79454 0.33967 0.0
H2034 H 0.29464 0.7954 0.31131 0.0
C2035 C 0.27984 0.76471 0.22444 0.0
C2036 C 0.51257 0.03408 0.54518 0.0
C2037 C 0.52087 0.04016 0.49857 0.0
H2038 H 0.50676 1.01261 0.59663 0.0
C2039 C 0.53031 0.02773 0.46833 0.0
H2040 H 0.50502 0.04287 0.5698 0.0
C2041 C 0.53115 1.00997 0.48367 0.0
C2042 C 0.5225 1.00393 0.52973 0.0
H2043 H 0.53722 0.03171 0.43271 0.0
H2044 H 0.53819 1.00089 0.45857 0.0
C2045 C 0.51343 1.01645 0.56045 0.0
C2046 C 0.28679 0.28446 0.73842 0.0
C2047 C 0.29296 0.27367 0.77993 0.0
H2048 H 0.26505 0.29302 0.69097 0.0
C2049 C 0.28041 0.26318 0.806 0.0
H2050 H 0.29578 0.29274 0.71691 0.0
C2051 C 0.26276 0.26294 0.79017 0.0
C2052 C 0.25656 0.27341 0.74791 0.0
H2053 H 0.28418 0.25491 0.83902 0.0
H2054 H 0.25409 0.25416 0.81094 0.0
C2055 C 0.269 0.28436 0.72283 0.0
C2056 C 1.01427 1.01323 0.53191 0.0
C2057 C 0.02516 1.00703 0.49067 0.0
H2058 H 1.00568 0.03496 0.57918 0.0
C2059 C 0.0358 1.01952 0.46493 0.0
H2060 H 1.00587 1.00428 0.55316 0.0
C2061 C 0.03608 0.03715 0.48082 0.0
C2062 C 0.02552 0.04337 0.52283 0.0
H2063 H 0.04414 1.01572 0.43212 0.0
H2064 H 0.04498 0.04577 0.46034 0.0
C2065 C 1.01442 0.03099 0.54755 0.0
C2066 C 0.26074 0.78678 0.73193 0.0
C2067 C 0.25454 0.77598 0.77335 0.0
H2068 H 0.28217 0.79507 0.68365 0.0
C2069 C 0.26694 0.76471 0.79741 0.0
H2070 H 0.25209 0.7958 0.71197 0.0
C2071 C 0.2847 0.76461 0.78174 0.0
C2072 C 0.29088 0.77572 0.74111 0.0
H2073 H 0.26298 0.75579 0.82852 0.0
H2074 H 0.29366 0.75606 0.80251 0.0
C2075 C 0.27838 0.78655 0.716 0.0
C2076 C 0.53473 1.01787 0.04725 0.0
C2077 C 0.52372 1.00548 0.02212 0.0
H2078 H 0.54333 0.04457 0.05296 0.0
C2079 C 0.51335 1.01169 0.97961 0.0
H2080 H 0.54331 1.01391 0.07932 0.0
C2081 C 0.51374 0.0293 0.96358 0.0
C2082 C 0.52431 0.04179 0.98964 0.0
H2083 H 0.50452 1.00306 0.95882 0.0
H2084 H 0.50554 0.03308 0.93038 0.0
C2085 C 0.535 0.03562 0.03143 0.0
C2086 C 0.26927 0.26338 0.21336 0.0
C2087 C 0.25671 0.2737 0.24008 0.0
H2088 H 0.29564 0.25445 0.20779 0.0
C2089 C 0.26284 0.28426 0.28219 0.0
H2090 H 0.2655 0.25528 0.17995 0.0
C2091 C 0.28063 0.28409 0.29771 0.0
C2092 C 0.29309 0.27333 0.2719 0.0
H2093 H 0.25381 0.29239 0.3042 0.0
H2094 H 0.28456 0.29255 0.33009 0.0
C2095 C 0.28693 0.26309 0.22907 0.0
C2096 C 0.7865 0.26918 0.79454 0.0
C2097 C 0.79171 0.27635 0.74507 0.0
H2098 H 0.76558 0.26184 0.84683 0.0
C2099 C 0.77819 0.28133 0.70968 0.0
H2100 H 0.79613 0.26461 0.82283 0.0
C2101 C 0.76039 0.27937 0.72336 0.0
C2102 C 0.75531 0.27252 0.77321 0.0
H2103 H 0.78125 0.2871 0.67146 0.0
H2104 H 0.75058 0.2837 0.69525 0.0
C2105 C 0.76875 0.26742 0.80838 0.0
C2106 C 0.76353 0.76363 0.29571 0.0
C2107 C 0.7574 0.77199 0.24921 0.0
H2108 H 0.7851 0.75758 0.3468 0.0
C2109 C 0.76986 0.7813 0.21877 0.0
H2110 H 0.75472 0.75618 0.32048 0.0
C2111 C 0.78768 0.78196 0.23388 0.0
C2112 C 0.79377 0.77326 0.27987 0.0
H2113 H 0.76587 0.78822 0.18319 0.0
H2114 H 0.79677 0.78892 0.20866 0.0
C2115 C 0.78123 0.7643 0.3107 0.0
C2116 C 0.76367 0.28462 0.23098 0.0
C2117 C 0.75773 0.27591 0.27709 0.0
H2118 H 0.78498 0.29101 0.17944 0.0
C2119 C 0.77038 0.26651 0.30668 0.0
H2120 H 0.75474 0.29219 0.2069 0.0
C2121 C 0.78816 0.26598 0.2909 0.0
C2122 C 0.79403 0.27494 0.24511 0.0
H2123 H 0.76654 0.25935 0.34196 0.0
H2124 H 0.79737 0.25887 0.31538 0.0
C2125 C 0.78131 0.28409 0.21534 0.0
C2126 C 0.76139 0.78529 0.78278 0.0
C2127 C 0.75521 0.77503 0.74003 0.0
H2128 H 0.78317 0.79314 0.83122 0.0
C2129 C 0.76772 0.76481 0.71274 0.0
H2130 H 0.7524 0.79332 0.80526 0.0
C2131 C 0.78538 0.76435 0.72839 0.0
C2132 C 0.79159 0.77429 0.77181 0.0
H2133 H 0.76389 0.75694 0.67888 0.0
H2134 H 0.79405 0.75581 0.7066 0.0
C2135 C 0.77918 0.78493 0.79831 0.0
C2136 C 0.51395 0.53811 0.4885 0.0
C2137 C 0.52478 0.54424 0.53 0.0
H2138 H 0.50549 0.51647 0.44068 0.0
C2139 C 0.53546 0.53171 0.55555 0.0
H2140 H 0.50552 0.54708 0.46735 0.0
C2141 C 0.53583 0.51412 0.53929 0.0
C2142 C 0.52532 0.50796 0.49706 0.0
H2143 H 0.54376 0.53545 0.58854 0.0
H2144 H 0.54475 0.50546 0.5597 0.0
C2145 C 0.51419 0.52038 0.47248 0.0
C2146 C 0.03299 0.51042 0.98398 0.0
C2147 C 1.02445 0.50433 0.03019 0.0
H2148 H 0.03897 0.5322 0.93301 0.0
C2149 C 1.01545 0.51685 0.06112 0.0
H2150 H 0.03998 0.50135 0.95867 0.0
C2151 C 1.01461 0.53452 0.04602 0.0
C2152 C 1.02282 0.54065 0.99931 0.0
H2153 H 1.00885 0.51299 0.0974 0.0
H2154 H 1.00714 0.5433 0.07089 0.0
C2155 C 0.03216 0.5282 0.96876 0.0
C2156 C 0.51736 0.51433 0.03524 0.0
C2157 C 0.52605 0.50834 0.98918 0.0
H2158 H 0.51124 0.53603 0.0864 0.0
C2159 C 0.53513 0.52086 0.95866 0.0
H2160 H 0.51031 0.50523 0.06017 0.0
C2161 C 0.53598 0.53846 0.97415 0.0
C2162 C 0.52764 0.5445 0.02075 0.0
H2163 H 0.54185 0.51703 0.92251 0.0
H2164 H 0.54357 0.54725 0.94971 0.0
C2165 C 0.51816 0.53207 0.05079 0.0
C2166 C 0.03212 0.51943 0.55149 0.0
C2167 C 1.02276 0.50702 0.52095 0.0
H2168 H 0.03997 0.54626 0.56159 0.0
C2169 C 1.01453 0.51318 0.47424 0.0
H2170 H 0.03895 0.51541 0.58724 0.0
C2171 C 1.01538 0.53084 0.45915 0.0
C2172 C 1.0244 0.54333 0.49008 0.0
H2173 H 1.00704 0.50442 0.44938 0.0
H2174 H 1.00876 0.53472 0.42289 0.0
C2175 C 0.03297 0.53721 0.53628 0.0
C2176 C 0.09087 0.19187 0.17357 0.0
C2177 C 0.0805 0.19192 0.12682 0.0
H2178 H 0.11155 0.20351 0.2191 0.0
C2179 C 0.08373 0.20565 0.09039 0.0
H2180 H 0.08937 0.18156 0.20263 0.0
C2181 C 0.09665 0.21855 0.10009 0.0
C2182 C 0.10712 0.21842 0.14672 0.0
H2183 H 0.07611 0.20664 0.05416 0.0
H2184 H 0.09824 0.22877 0.07081 0.0
C2185 C 0.10381 0.20471 0.18318 0.0
C2186 C 0.10309 0.84444 0.3386 0.0
C2187 C 0.10638 0.83073 0.3751 0.0
H2188 H 0.08872 0.86767 0.31913 0.0
C2189 C 0.09595 0.83068 0.42177 0.0
H2190 H 0.1108 0.84558 0.30265 0.0
C2191 C 0.08308 0.84365 0.43148 0.0
C2192 C 0.07986 0.85738 0.395 0.0
H2193 H 0.09753 0.82046 0.45109 0.0
H2194 H 0.07549 0.84272 0.46773 0.0
C2195 C 0.0902 0.85736 0.34823 0.0
C2196 C 0.44463 0.84282 0.68301 0.0
C2197 C 0.44112 0.82911 0.64671 0.0
H2198 H 0.45938 0.86581 0.7021 0.0
C2199 C 0.45154 0.82875 0.60004 0.0
H2200 H 0.43693 0.84418 0.71893 0.0
C2201 C 0.46461 0.84146 0.59013 0.0
C2202 C 0.46804 0.85519 0.62639 0.0
H2203 H 0.44978 0.8185 0.5709 0.0
H2204 H 0.47218 0.84032 0.55388 0.0
C2205 C 0.45772 0.85546 0.67319 0.0
C2206 C 0.46917 0.20174 0.84887 0.0
C2207 C 0.46918 0.19136 0.89567 0.0
H2208 H 0.4571 0.22216 0.80281 0.0
C2209 C 0.45551 0.19475 0.9323 0.0
H2210 H 0.47934 0.2001 0.81942 0.0
C2211 C 0.4426 0.20767 0.92269 0.0
C2212 C 0.44251 0.21795 0.87578 0.0
H2213 H 0.4544 0.18711 0.96838 0.0
H2214 H 0.43234 0.20922 0.95193 0.0
C2215 C 0.4562 0.21463 0.83918 0.0
C2216 C 0.9377 0.84409 0.92346 0.0
C2217 C 0.93782 0.83371 0.87681 0.0
H2218 H 0.9492 0.86484 0.96883 0.0
C2219 C 0.95157 0.83695 0.84044 0.0
H2220 H 0.92737 0.84251 0.95247 0.0
C2221 C 0.96446 0.84987 0.85018 0.0
C2222 C 0.96428 0.86039 0.89668 0.0
H2223 H 0.95258 0.82931 0.80428 0.0
H2224 H 0.97473 0.85138 0.82099 0.0
C2225 C 0.95049 0.8571 0.933 0.0
C2226 C 0.94859 0.18903 0.59458 0.0
C2227 C 0.96446 0.18913 0.62335 0.0
H2228 H 0.92334 0.20046 0.58123 0.0
C2229 C 0.9664 0.20257 0.66175 0.0
H2230 H 0.94619 0.17901 0.56508 0.0
C2231 C 0.9531 0.21523 0.67078 0.0
C2232 C 0.9371 0.2148 0.64266 0.0
H2233 H 0.97831 0.2034 0.68483 0.0
H2234 H 0.95519 0.2251 0.70099 0.0
C2235 C 0.93526 0.20143 0.60422 0.0
C2236 C 0.61476 0.19111 0.34603 0.0
C2237 C 0.61405 0.20799 0.36851 0.0
H2238 H 0.60307 0.16593 0.33664 0.0
C2239 C 0.59893 0.21194 0.39878 0.0
H2240 H 0.62564 0.18738 0.32097 0.0
C2241 C 0.5856 0.19931 0.40784 0.0
C2242 C 0.58682 0.18219 0.38708 0.0
H2243 H 0.59759 0.22465 0.41706 0.0
H2244 H 0.57461 0.20283 0.43274 0.0
C2245 C 0.60158 0.17861 0.35505 0.0
C2246 C 0.58261 0.84639 0.16161 0.0
C2247 C 0.58434 0.85975 0.1229 0.0
H2248 H 0.59408 0.82399 0.20085 0.0
C2249 C 0.60009 0.85985 0.09359 0.0
H2250 H 0.5708 0.84557 0.18511 0.0
C2251 C 0.6135 0.84753 0.10297 0.0
C2252 C 0.61188 0.83422 0.1417 0.0
H2253 H 0.60234 0.86982 0.06384 0.0
H2254 H 0.62532 0.84849 0.07954 0.0
C2255 C 0.596 0.83379 0.17039 0.0
C2256 C 0.58214 0.70751 0.59048 0.0
C2257 C 0.5789 0.69379 0.62692 0.0
H2258 H 0.59662 0.73065 0.57093 0.0
C2259 C 0.58926 0.69375 0.67369 0.0
H2260 H 0.57453 0.70849 0.55423 0.0
C2261 C 0.60219 0.70661 0.68334 0.0
C2262 C 0.60549 0.72033 0.64689 0.0
H2263 H 0.58776 0.68345 0.70277 0.0
H2264 H 0.60991 0.70543 0.71929 0.0
C2265 C 0.59504 0.72043 0.60022 0.0
C2266 C 0.58367 0.35173 0.84133 0.0
C2267 C 0.58256 0.36094 0.89029 0.0
H2268 H 0.59729 0.33292 0.79278 0.0
C2269 C 0.59574 0.35713 0.92826 0.0
H2270 H 0.57395 0.35368 0.81066 0.0
C2271 C 0.60914 0.34483 0.91802 0.0
C2272 C 0.6103 0.3358 0.86899 0.0
H2273 H 0.59608 0.36392 0.96604 0.0
H2274 H 0.61893 0.34274 0.94851 0.0
C2275 C 0.59724 0.33958 0.83086 0.0
C2276 C 0.95386 0.32869 0.09905 0.0
C2277 C 0.94355 0.32883 0.14597 0.0
H2278 H 0.97434 0.34051 0.05274 0.0
C2279 C 0.94707 0.34248 0.18251 0.0
H2280 H 0.95211 0.31852 0.06967 0.0
C2281 C 0.96008 0.35523 0.17274 0.0
C2282 C 0.97031 0.35515 0.12574 0.0
H2283 H 0.93946 0.3437 0.21864 0.0
H2284 H 0.96176 0.36549 0.20191 0.0
C2285 C 0.96685 0.34151 0.08918 0.0
C2286 C 0.96013 0.69237 0.34705 0.0
C2287 C 0.97047 0.69257 0.39385 0.0
H2288 H 0.93938 0.70378 0.30126 0.0
C2289 C 0.96711 0.70634 0.43008 0.0
H2290 H 0.96175 0.68201 0.31816 0.0
C2291 C 0.9541 0.71914 0.42009 0.0
C2292 C 0.94365 0.71886 0.37341 0.0
H2293 H 0.9747 0.70742 0.46634 0.0
H2294 H 0.95242 0.72941 0.44921 0.0
C2295 C 0.94709 0.7051 0.33718 0.0
C2296 C 0.4385 0.34517 0.42177 0.0
C2297 C 0.43861 0.33477 0.37517 0.0
H2298 H 0.44991 0.36602 0.46687 0.0
C2299 C 0.45227 0.3381 0.33857 0.0
H2300 H 0.42823 0.34354 0.45096 0.0
C2301 C 0.46509 0.35111 0.34806 0.0
C2302 C 0.46493 0.36166 0.39453 0.0
H2303 H 0.45327 0.33045 0.30242 0.0
H2304 H 0.4753 0.35268 0.3187 0.0
C2305 C 0.45121 0.35828 0.43105 0.0
C2306 C 0.45189 0.71773 0.11094 0.0
C2307 C 0.43848 0.7157 0.14934 0.0
H2308 H 0.47449 0.70665 0.07171 0.0
C2309 C 0.43849 0.69988 0.17821 0.0
H2310 H 0.45262 0.72962 0.08781 0.0
C2311 C 0.45098 0.68666 0.16865 0.0
C2312 C 0.46432 0.68857 0.13017 0.0
H2313 H 0.42848 0.69744 0.2077 0.0
H2314 H 0.45011 0.67476 0.1917 0.0
C2315 C 0.46465 0.70453 0.10196 0.0
C2316 C 0.08339 0.70212 0.9196 0.0
C2317 C 0.08393 0.68623 0.89095 0.0
H2318 H 0.09501 0.72734 0.93433 0.0
C2319 C 0.09727 0.68464 0.85227 0.0
H2320 H 0.07355 0.70402 0.95001 0.0
C2321 C 0.10953 0.69808 0.84294 0.0
C2322 C 0.10933 0.71383 0.87223 0.0
H2323 H 0.09831 0.67283 0.82885 0.0
H2324 H 0.11954 0.69585 0.81327 0.0
C2325 C 0.09592 0.71553 0.91085 0.0
C2326 C 0.08447 0.34597 0.60067 0.0
C2327 C 0.0848 0.36183 0.62945 0.0
H2328 H 0.0964 0.32086 0.58587 0.0
C2329 C 0.09809 0.36351 0.6683 0.0
H2330 H 0.07468 0.344 0.57012 0.0
C2331 C 0.1105 0.35017 0.67767 0.0
C2332 C 0.1105 0.33445 0.64826 0.0
H2333 H 0.09898 0.37531 0.69182 0.0
H2334 H 0.12045 0.35247 0.7075 0.0
C2335 C 0.09715 0.33265 0.60946 0.0
loop_
_geom_bond_atom_site_label_1
_geom_bond_atom_site_label_2
_geom_bond_distance
_geom_bond_site_symmetry_2
_ccdc_geom_bond_type
C0 C1 1.443 . S
C0 N4 1.376 1_556 S
C0 C38 1.389 1_655 S
C1 C0 1.443 . S
C1 C2 1.340 . S
C1 H41 0.951 . S
C2 C1 1.340 . S
C2 C3 1.439 1_556 S
C2 H42 0.950 . S
C3 C2 1.439 1_554 S
C3 N4 1.374 . S
C3 C37 1.395 . S
N4 C0 1.376 1_554 S
N4 C3 1.374 . S
N4 Co5 2.008 1_655 S
Co5 N4 2.008 1_455 S
Co5 N6 1.995 1_455 S
Co5 N11 2.008 . S
Co5 N16 1.995 . S
Co5 N21 2.282 . S
Co5 N27 2.282 1_455 S
N6 Co5 1.995 1_655 S
N6 C7 1.376 . S
N6 C10 1.383 . S
C7 N6 1.376 . S
C7 C8 1.446 . S
C7 C37 1.391 . S
C8 C7 1.446 . S
C8 C9 1.339 . S
C8 H43 0.949 . S
C9 C8 1.339 . S
C9 C10 1.439 . S
C9 H44 0.950 . S
C10 N6 1.383 . S
C10 C9 1.439 . S
C10 C39 1.392 1_655 S
N11 Co5 2.008 . S
N11 C12 1.376 . S
N11 C15 1.374 . S
C12 N11 1.376 . S
C12 C13 1.443 . S
C12 C39 1.389 . S
C13 C12 1.443 . S
C13 C14 1.340 . S
C13 H45 0.951 . S
C14 C13 1.340 . S
C14 C15 1.439 . S
C14 H46 0.950 . S
C15 N11 1.374 . S
C15 C14 1.439 . S
C15 C40 1.395 . S
N16 Co5 1.995 . S
N16 C17 1.376 . S
N16 C20 1.383 1_554 S
C17 N16 1.376 . S
C17 C18 1.446 1_554 S
C17 C40 1.391 . S
C18 C17 1.446 1_556 S
C18 C19 1.339 . S
C18 H47 0.949 . S
C19 C18 1.339 . S
C19 C20 1.439 . S
C19 H48 0.950 . S
C20 N16 1.383 1_556 S
C20 C19 1.439 . S
C20 C38 1.392 . S
N21 Co5 2.282 . S
N21 C24 1.332 . S
N21 C26 1.332 . S
C22 C23 1.386 . S
C22 C25 1.388 . S
C23 C22 1.386 . S
C23 C24 1.382 . S
C23 H49 0.950 . S
C24 N21 1.332 . S
C24 C23 1.382 . S
C24 H35 0.952 . S
C25 C22 1.388 . S
C25 C26 1.382 . S
C25 H50 0.950 . S
C26 N21 1.332 . S
C26 C25 1.382 . S
C26 H36 0.923 1_455 S
N27 Co5 2.282 1_655 S
N27 C31 1.332 . S
N27 C32 1.332 1_655 S
C28 C29 1.319 1_455 S
C28 C32 1.411 . S
C28 H51 0.993 1_554 S
C29 C28 1.319 1_655 S
C29 C30 1.386 . S
C30 C29 1.386 . S
C30 C31 1.382 . S
C30 H52 0.950 . S
C31 N27 1.332 . S
C31 C30 1.382 . S
C31 H33 0.952 . S
C32 N27 1.332 1_455 S
C32 C28 1.411 . S
C32 H34 0.948 . S
H33 C31 0.952 . S
H34 C32 0.948 . S
H35 C24 0.952 . S
H36 C26 0.923 1_655 S
C37 C3 1.395 . S
C37 C7 1.391 . S
C38 C0 1.389 1_455 S
C38 C20 1.392 . S
C39 C10 1.392 1_455 S
C39 C12 1.389 . S
C40 C15 1.395 . S
C40 C17 1.391 . S
H41 C1 0.951 . S
H42 C2 0.950 . S
H43 C8 0.949 . S
H44 C9 0.950 . S
H45 C13 0.951 . S
H46 C14 0.950 . S
H47 C18 0.949 . S
H48 C19 0.950 . S
H49 C23 0.950 . S
H50 C25 0.950 . S
H51 C28 0.993 1_556 S
H52 C30 0.950 . S
C53 C54 1.443 . S
C53 N57 1.376 . S
C53 C91 1.389 . S
C54 C53 1.443 . S
C54 C55 1.340 . S
C54 H94 0.951 . S
C55 C54 1.340 . S
C55 C56 1.439 . S
C55 H95 0.950 . S
C56 C55 1.439 . S
C56 N57 1.374 . S
C56 C90 1.395 . S
N57 C53 1.376 . S
N57 C56 1.374 . S
N57 Co58 2.008 . S
Co58 N57 2.008 . S
Co58 N59 1.995 . S
Co58 N64 2.008 . S
Co58 N69 1.995 . S
Co58 N74 2.282 . S
Co58 N80 2.282 . S
N59 Co58 1.995 . S
N59 C60 1.376 . S
N59 C63 1.383 . S
C60 N59 1.376 . S
C60 C61 1.446 . S
C60 C90 1.391 . S
C61 C60 1.446 . S
C61 C62 1.339 . S
C61 H96 0.949 . S
C62 C61 1.339 . S
C62 C63 1.439 . S
C62 H97 0.950 . S
C63 N59 1.383 . S
C63 C62 1.439 . S
C63 C92 1.392 . S
N64 Co58 2.008 . S
N64 C65 1.376 . S
N64 C68 1.374 . S
C65 N64 1.376 . S
C65 C66 1.443 . S
C65 C92 1.389 . S
C66 C65 1.443 . S
C66 C67 1.340 . S
C66 H98 0.951 . S
C67 C66 1.340 . S
C67 C68 1.439 . S
C67 H99 0.950 . S
C68 N64 1.374 . S
C68 C67 1.439 . S
C68 C93 1.395 . S
N69 Co58 1.995 . S
N69 C70 1.376 . S
N69 C73 1.383 . S
C70 N69 1.376 . S
C70 C71 1.446 . S
C70 C93 1.391 . S
C71 C70 1.446 . S
C71 C72 1.339 . S
C71 H100 0.949 . S
C72 C71 1.339 . S
C72 C73 1.439 . S
C72 H101 0.950 . S
C73 N69 1.383 . S
C73 C72 1.439 . S
C73 C91 1.392 . S
N74 Co58 2.282 . S
N74 C77 1.332 . S
N74 C79 1.332 . S
C75 C76 1.386 . S
C75 C78 1.388 . S
C76 C75 1.386 . S
C76 C77 1.382 . S
C76 H102 0.950 . S
C77 N74 1.332 . S
C77 C76 1.382 . S
C77 H88 0.952 . S
C78 C75 1.388 . S
C78 C79 1.382 . S
C78 H103 0.950 . S
C79 N74 1.332 . S
C79 C78 1.382 . S
C79 H89 0.948 . S
N80 Co58 2.282 . S
N80 C84 1.332 . S
N80 C85 1.332 . S
C81 C82 1.388 . S
C81 C85 1.382 . S
C81 H104 0.950 . S
C82 C81 1.388 . S
C82 C83 1.386 . S
C83 C82 1.386 . S
C83 C84 1.382 . S
C83 H105 0.950 . S
C84 N80 1.332 . S
C84 C83 1.382 . S
C84 H86 0.952 . S
C85 N80 1.332 . S
C85 C81 1.382 . S
C85 H87 0.948 . S
H86 C84 0.952 . S
H87 C85 0.948 . S
H88 C77 0.952 . S
H89 C79 0.948 . S
C90 C56 1.395 . S
C90 C60 1.391 . S
C91 C53 1.389 . S
C91 C73 1.392 . S
C92 C63 1.392 . S
C92 C65 1.389 . S
C93 C68 1.395 . S
C93 C70 1.391 . S
H94 C54 0.951 . S
H95 C55 0.950 . S
H96 C61 0.949 . S
H97 C62 0.950 . S
H98 C66 0.951 . S
H99 C67 0.950 . S
H100 C71 0.949 . S
H101 C72 0.950 . S
H102 C76 0.950 . S
H103 C78 0.950 . S
H104 C81 0.950 . S
H105 C83 0.950 . S
C106 C107 1.443 . S
C106 N110 1.376 . S
C106 C144 1.389 . S
C107 C106 1.443 . S
C107 C108 1.340 . S
C107 H147 0.951 . S
C108 C107 1.340 . S
C108 C109 1.439 . S
C108 H148 0.950 . S
C109 C108 1.439 . S
C109 N110 1.374 . S
C109 C143 1.395 . S
N110 C106 1.376 . S
N110 C109 1.374 . S
N110 Co111 2.008 . S
Co111 N110 2.008 . S
Co111 N112 1.995 . S
Co111 N117 2.008 . S
Co111 N122 1.995 . S
Co111 N127 2.282 . S
Co111 N133 2.282 . S
N112 Co111 1.995 . S
N112 C113 1.376 . S
N112 C116 1.383 . S
C113 N112 1.376 . S
C113 C114 1.446 . S
C113 C143 1.391 . S
C114 C113 1.446 . S
C114 C115 1.339 . S
C114 H149 0.949 . S
C115 C114 1.339 . S
C115 C116 1.439 . S
C115 H150 0.950 . S
C116 N112 1.383 . S
C116 C115 1.439 . S
C116 C145 1.392 . S
N117 Co111 2.008 . S
N117 C118 1.376 . S
N117 C121 1.374 . S
C118 N117 1.376 . S
C118 C119 1.443 . S
C118 C145 1.389 . S
C119 C118 1.443 . S
C119 C120 1.340 . S
C119 H151 0.951 . S
C120 C119 1.340 . S
C120 C121 1.439 . S
C120 H152 0.950 . S
C121 N117 1.374 . S
C121 C120 1.439 . S
C121 C146 1.395 . S
N122 Co111 1.995 . S
N122 C123 1.376 . S
N122 C126 1.383 . S
C123 N122 1.376 . S
C123 C124 1.446 . S
C123 C146 1.391 . S
C124 C123 1.446 . S
C124 C125 1.339 . S
C124 H153 0.949 . S
C125 C124 1.339 . S
C125 C126 1.439 . S
C125 H154 0.950 . S
C126 N122 1.383 . S
C126 C125 1.439 . S
C126 C144 1.392 . S
N127 Co111 2.282 . S
N127 C130 1.332 . S
N127 C132 1.332 . S
C128 C129 1.386 . S
C128 C131 1.388 . S
C129 C128 1.386 . S
C129 C130 1.382 . S
C129 H155 0.950 . S
C130 N127 1.332 . S
C130 C129 1.382 . S
C130 H141 0.952 . S
C131 C128 1.388 . S
C131 C132 1.382 . S
C131 H156 0.950 . S
C132 N127 1.332 . S
C132 C131 1.382 . S
C132 H142 0.948 . S
N133 Co111 2.282 . S
N133 C137 1.332 . S
N133 C138 1.332 . S
C134 C135 1.388 . S
C134 C138 1.382 . S
C134 H157 0.950 . S
C135 C134 1.388 . S
C135 C136 1.386 . S
C136 C135 1.386 . S
C136 C137 1.382 . S
C136 H158 0.950 . S
C137 N133 1.332 . S
C137 C136 1.382 . S
C137 H139 0.952 . S
C138 N133 1.332 . S
C138 C134 1.382 . S
C138 H140 0.948 . S
H139 C137 0.952 . S
H140 C138 0.948 . S
H141 C130 0.952 . S
H142 C132 0.948 . S
C143 C109 1.395 . S
C143 C113 1.391 . S
C144 C106 1.389 . S
C144 C126 1.392 . S
C145 C116 1.392 . S
C145 C118 1.389 . S
C146 C121 1.395 . S
C146 C123 1.391 . S
H147 C107 0.951 . S
H148 C108 0.950 . S
H149 C114 0.949 . S
H150 C115 0.950 . S
H151 C119 0.951 . S
H152 C120 0.950 . S
H153 C124 0.949 . S
H154 C125 0.950 . S
H155 C129 0.950 . S
H156 C131 0.950 . S
H157 C134 0.950 . S
H158 C136 0.950 . S
C159 C160 1.443 . S
C159 N163 1.376 . S
C159 C197 1.389 . S
C160 C159 1.443 . S
C160 C161 1.340 . S
C160 H200 0.951 . S
C161 C160 1.340 . S
C161 C162 1.439 . S
C161 H201 0.950 . S
C162 C161 1.439 . S
C162 N163 1.374 . S
C162 C196 1.395 . S
N163 C159 1.376 . S
N163 C162 1.374 . S
N163 Co164 2.008 . S
Co164 N163 2.008 . S
Co164 N165 1.995 . S
Co164 N170 2.008 . S
Co164 N175 1.995 . S
Co164 N180 2.282 . S
Co164 N186 2.282 . S
N165 Co164 1.995 . S
N165 C166 1.376 . S
N165 C169 1.383 . S
C166 N165 1.376 . S
C166 C167 1.446 . S
C166 C196 1.391 . S
C167 C166 1.446 . S
C167 C168 1.339 . S
C167 H202 0.949 . S
C168 C167 1.339 . S
C168 C169 1.439 . S
C168 H203 0.950 . S
C169 N165 1.383 . S
C169 C168 1.439 . S
C169 C198 1.392 . S
N170 Co164 2.008 . S
N170 C171 1.376 . S
N170 C174 1.374 . S
C171 N170 1.376 . S
C171 C172 1.443 . S
C171 C198 1.389 . S
C172 C171 1.443 . S
C172 C173 1.340 . S
C172 H204 0.951 . S
C173 C172 1.340 . S
C173 C174 1.439 . S
C173 H205 0.950 . S
C174 N170 1.374 . S
C174 C173 1.439 . S
C174 C199 1.395 . S
N175 Co164 1.995 . S
N175 C176 1.376 . S
N175 C179 1.383 . S
C176 N175 1.376 . S
C176 C177 1.446 . S
C176 C199 1.391 . S
C177 C176 1.446 . S
C177 C178 1.339 . S
C177 H206 0.949 . S
C178 C177 1.339 . S
C178 C179 1.439 . S
C178 H207 0.950 . S
C179 N175 1.383 . S
C179 C178 1.439 . S
C179 C197 1.392 . S
N180 Co164 2.282 . S
N180 C183 1.332 . S
N180 C185 1.332 . S
C181 C182 1.386 . S
C181 C184 1.388 . S
C182 C181 1.386 . S
C182 C183 1.382 . S
C182 H208 0.950 . S
C183 N180 1.332 . S
C183 C182 1.382 . S
C183 H194 0.952 . S
C184 C181 1.388 . S
C184 C185 1.382 . S
C184 H209 0.950 . S
C185 N180 1.332 . S
C185 C184 1.382 . S
C185 H195 0.948 . S
N186 Co164 2.282 . S
N186 C190 1.332 . S
N186 C191 1.332 . S
C187 C188 1.388 . S
C187 C191 1.382 . S
C187 H210 0.950 . S
C188 C187 1.388 . S
C188 C189 1.386 . S
C189 C188 1.386 . S
C189 C190 1.382 . S
C189 H211 0.950 . S
C190 N186 1.332 . S
C190 C189 1.382 . S
C190 H192 0.952 . S
C191 N186 1.332 . S
C191 C187 1.382 . S
C191 H193 0.948 . S
H192 C190 0.952 . S
H193 C191 0.948 . S
H194 C183 0.952 . S
H195 C185 0.948 . S
C196 C162 1.395 . S
C196 C166 1.391 . S
C197 C159 1.389 . S
C197 C179 1.392 . S
C198 C169 1.392 . S
C198 C171 1.389 . S
C199 C174 1.395 . S
C199 C176 1.391 . S
H200 C160 0.951 . S
H201 C161 0.950 . S
H202 C167 0.949 . S
H203 C168 0.950 . S
H204 C172 0.951 . S
H205 C173 0.950 . S
H206 C177 0.949 . S
H207 C178 0.950 . S
H208 C182 0.950 . S
H209 C184 0.950 . S
H210 C187 0.950 . S
H211 C189 0.950 . S
C212 C213 1.443 . S
C212 N216 1.376 . S
C212 C250 1.389 1_655 S
C213 C212 1.443 . S
C213 C214 1.340 . S
C213 H253 0.951 . S
C214 C213 1.340 . S
C214 C215 1.439 . S
C214 H254 0.950 . S
C215 C214 1.439 . S
C215 N216 1.374 . S
C215 C249 1.395 . S
N216 C212 1.376 . S
N216 C215 1.374 . S
N216 Co217 2.008 1_655 S
Co217 N216 2.008 1_455 S
Co217 N218 1.995 1_455 S
Co217 N223 2.008 . S
Co217 N228 1.995 . S
Co217 N233 2.282 . S
Co217 N239 2.282 1_455 S
N218 Co217 1.995 1_655 S
N218 C219 1.376 . S
N218 C222 1.383 . S
C219 N218 1.376 . S
C219 C220 1.446 . S
C219 C249 1.391 . S
C220 C219 1.446 . S
C220 C221 1.339 . S
C220 H255 0.949 . S
C221 C220 1.339 . S
C221 C222 1.439 . S
C221 H256 0.950 . S
C222 N218 1.383 . S
C222 C221 1.439 . S
C222 C251 1.392 1_655 S
N223 Co217 2.008 . S
N223 C224 1.376 . S
N223 C227 1.374 . S
C224 N223 1.376 . S
C224 C225 1.443 . S
C224 C251 1.389 . S
C225 C224 1.443 . S
C225 C226 1.340 . S
C225 H257 0.951 . S
C226 C225 1.340 . S
C226 C227 1.439 . S
C226 H258 0.950 . S
C227 N223 1.374 . S
C227 C226 1.439 . S
C227 C252 1.395 . S
N228 Co217 1.995 . S
N228 C229 1.376 . S
N228 C232 1.383 . S
C229 N228 1.376 . S
C229 C230 1.446 . S
C229 C252 1.391 . S
C230 C229 1.446 . S
C230 C231 1.339 . S
C230 H259 0.949 . S
C231 C230 1.339 . S
C231 C232 1.439 . S
C231 H260 0.950 . S
C232 N228 1.383 . S
C232 C231 1.439 . S
C232 C250 1.392 . S
N233 Co217 2.282 . S
N233 C236 1.332 . S
N233 C238 1.332 . S
C234 C235 1.386 . S
C234 C237 1.388 . S
C235 C234 1.386 . S
C235 C236 1.382 . S
C235 H261 0.950 . S
C236 N233 1.332 . S
C236 C235 1.382 . S
C236 H247 0.952 . S
C237 C234 1.388 . S
C237 C238 1.382 . S
C237 H262 0.950 . S
C238 N233 1.332 . S
C238 C237 1.382 . S
C238 H248 0.924 1_455 S
N239 Co217 2.282 1_655 S
N239 C243 1.332 . S
N239 C244 1.332 1_655 S
C240 C241 1.319 1_455 S
C240 C244 1.411 . S
C240 H263 0.993 . S
C241 C240 1.319 1_655 S
C241 C242 1.386 . S
C242 C241 1.386 . S
C242 C243 1.382 . S
C242 H264 0.950 . S
C243 N239 1.332 . S
C243 C242 1.382 . S
C243 H245 0.952 . S
C244 N239 1.332 1_455 S
C244 C240 1.411 . S
C244 H246 0.948 . S
H245 C243 0.952 . S
H246 C244 0.948 . S
H247 C236 0.952 . S
H248 C238 0.924 1_655 S
C249 C215 1.395 . S
C249 C219 1.391 . S
C250 C212 1.389 1_455 S
C250 C232 1.392 . S
C251 C222 1.392 1_455 S
C251 C224 1.389 . S
C252 C227 1.395 . S
C252 C229 1.391 . S
H253 C213 0.951 . S
H254 C214 0.950 . S
H255 C220 0.949 . S
H256 C221 0.950 . S
H257 C225 0.951 . S
H258 C226 0.950 . S
H259 C230 0.949 . S
H260 C231 0.950 . S
H261 C235 0.950 . S
H262 C237 0.950 . S
H263 C240 0.993 . S
H264 C242 0.950 . S
C265 C266 1.443 . S
C265 N269 1.376 . S
C265 C303 1.389 . S
C266 C265 1.443 . S
C266 C267 1.340 . S
C266 H306 0.951 . S
C267 C266 1.340 . S
C267 C268 1.439 . S
C267 H307 0.950 . S
C268 C267 1.439 . S
C268 N269 1.374 . S
C268 C302 1.395 . S
N269 C265 1.376 . S
N269 C268 1.374 . S
N269 Co270 2.008 . S
Co270 N269 2.008 . S
Co270 N271 1.995 . S
Co270 N276 2.008 . S
Co270 N281 1.995 . S
Co270 N286 2.282 . S
Co270 N292 2.282 . S
N271 Co270 1.995 . S
N271 C272 1.376 . S
N271 C275 1.383 . S
C272 N271 1.376 . S
C272 C273 1.446 . S
C272 C302 1.391 . S
C273 C272 1.446 . S
C273 C274 1.339 . S
C273 H308 0.949 . S
C274 C273 1.339 . S
C274 C275 1.439 . S
C274 H309 0.950 . S
C275 N271 1.383 . S
C275 C274 1.439 . S
C275 C304 1.392 . S
N276 Co270 2.008 . S
N276 C277 1.376 . S
N276 C280 1.374 . S
C277 N276 1.376 . S
C277 C278 1.443 . S
C277 C304 1.389 . S
C278 C277 1.443 . S
C278 C279 1.340 . S
C278 H310 0.951 . S
C279 C278 1.340 . S
C279 C280 1.439 . S
C279 H311 0.950 . S
C280 N276 1.374 . S
C280 C279 1.439 . S
C280 C305 1.395 . S
N281 Co270 1.995 . S
N281 C282 1.376 . S
N281 C285 1.383 . S
C282 N281 1.376 . S
C282 C283 1.446 . S
C282 C305 1.391 . S
C283 C282 1.446 . S
C283 C284 1.339 . S
C283 H312 0.949 . S
C284 C283 1.339 . S
C284 C285 1.439 . S
C284 H313 0.950 . S
C285 N281 1.383 . S
C285 C284 1.439 . S
C285 C303 1.392 . S
N286 Co270 2.282 . S
N286 C289 1.332 . S
N286 C291 1.332 . S
C287 C288 1.386 . S
C287 C290 1.388 . S
C288 C287 1.386 . S
C288 C289 1.382 . S
C288 H314 0.950 . S
C289 N286 1.332 . S
C289 C288 1.382 . S
C289 H300 0.952 . S
C290 C287 1.388 . S
C290 C291 1.382 . S
C290 H315 0.950 . S
C291 N286 1.332 . S
C291 C290 1.382 . S
C291 H301 0.948 . S
N292 Co270 2.282 . S
N292 C296 1.332 . S
N292 C297 1.332 . S
C293 C294 1.388 . S
C293 C297 1.382 . S
C293 H316 0.950 . S
C294 C293 1.388 . S
C294 C295 1.386 . S
C295 C294 1.386 . S
C295 C296 1.382 . S
C295 H317 0.950 . S
C296 N292 1.332 . S
C296 C295 1.382 . S
C296 H298 0.952 . S
C297 N292 1.332 . S
C297 C293 1.382 . S
C297 H299 0.948 . S
H298 C296 0.952 . S
H299 C297 0.948 . S
H300 C289 0.952 . S
H301 C291 0.948 . S
C302 C268 1.395 . S
C302 C272 1.391 . S
C303 C265 1.389 . S
C303 C285 1.392 . S
C304 C275 1.392 . S
C304 C277 1.389 . S
C305 C280 1.395 . S
C305 C282 1.391 . S
H306 C266 0.951 . S
H307 C267 0.950 . S
H308 C273 0.949 . S
H309 C274 0.950 . S
H310 C278 0.951 . S
H311 C279 0.950 . S
H312 C283 0.949 . S
H313 C284 0.950 . S
H314 C288 0.950 . S
H315 C290 0.950 . S
H316 C293 0.950 . S
H317 C295 0.950 . S
C318 C319 1.443 . S
C318 N322 1.376 1_554 S
C318 C356 1.389 . S
C319 C318 1.443 . S
C319 C320 1.340 . S
C319 H359 0.951 . S
C320 C319 1.340 . S
C320 C321 1.439 1_554 S
C320 H360 0.950 . S
C321 C320 1.439 1_556 S
C321 N322 1.374 . S
C321 C355 1.395 . S
N322 C318 1.376 1_556 S
N322 C321 1.374 . S
N322 Co323 2.008 . S
Co323 N322 2.008 . S
Co323 N324 1.995 . S
Co323 N329 2.008 . S
Co323 N334 1.995 . S
Co323 N339 2.282 . S
Co323 N345 2.282 . S
N324 Co323 1.995 . S
N324 C325 1.376 . S
N324 C328 1.383 . S
C325 N324 1.376 . S
C325 C326 1.446 . S
C325 C355 1.391 . S
C326 C325 1.446 . S
C326 C327 1.339 . S
C326 H361 0.949 . S
C327 C326 1.339 . S
C327 C328 1.439 . S
C327 H362 0.950 . S
C328 N324 1.383 . S
C328 C327 1.439 . S
C328 C357 1.392 . S
N329 Co323 2.008 . S
N329 C330 1.376 . S
N329 C333 1.374 . S
C330 N329 1.376 . S
C330 C331 1.443 . S
C330 C357 1.389 . S
C331 C330 1.443 . S
C331 C332 1.340 . S
C331 H363 0.951 . S
C332 C331 1.340 . S
C332 C333 1.439 . S
C332 H364 0.950 . S
C333 N329 1.374 . S
C333 C332 1.439 . S
C333 C358 1.395 . S
N334 Co323 1.995 . S
N334 C335 1.376 . S
N334 C338 1.383 1_556 S
C335 N334 1.376 . S
C335 C336 1.446 1_556 S
C335 C358 1.391 . S
C336 C335 1.446 1_554 S
C336 C337 1.339 . S
C336 H365 0.949 . S
C337 C336 1.339 . S
C337 C338 1.439 . S
C337 H366 0.950 . S
C338 N334 1.383 1_554 S
C338 C337 1.439 . S
C338 C356 1.392 . S
N339 Co323 2.282 . S
N339 C342 1.332 . S
N339 C344 1.332 . S
C340 C341 1.386 . S
C340 C343 1.388 . S
C341 C340 1.386 . S
C341 C342 1.382 . S
C341 H367 0.950 . S
C342 N339 1.332 . S
C342 C341 1.382 . S
C342 H353 0.952 . S
C343 C340 1.388 . S
C343 C344 1.382 . S
C343 H368 0.950 . S
C344 N339 1.332 . S
C344 C343 1.382 . S
C344 H354 0.948 . S
N345 Co323 2.282 . S
N345 C349 1.332 . S
N345 C350 1.332 . S
C346 C347 1.388 . S
C346 C350 1.382 . S
C346 H369 0.950 1_556 S
C347 C346 1.388 . S
C347 C348 1.386 . S
C348 C347 1.386 . S
C348 C349 1.382 . S
C348 H370 0.950 . S
C349 N345 1.332 . S
C349 C348 1.382 . S
C349 H351 0.952 . S
C350 N345 1.332 . S
C350 C346 1.382 . S
C350 H352 0.948 . S
H351 C349 0.952 . S
H352 C350 0.948 . S
H353 C342 0.952 . S
H354 C344 0.948 . S
C355 C321 1.395 . S
C355 C325 1.391 . S
C356 C318 1.389 . S
C356 C338 1.392 . S
C357 C328 1.392 . S
C357 C330 1.389 . S
C358 C333 1.395 . S
C358 C335 1.391 . S
H359 C319 0.951 . S
H360 C320 0.950 . S
H361 C326 0.949 . S
H362 C327 0.950 . S
H363 C331 0.951 . S
H364 C332 0.950 . S
H365 C336 0.949 . S
H366 C337 0.950 . S
H367 C341 0.950 . S
H368 C343 0.950 . S
H369 C346 0.950 1_554 S
H370 C348 0.950 . S
C371 C372 1.443 . S
C371 N375 1.376 . S
C371 C409 1.389 . S
C372 C371 1.443 . S
C372 C373 1.340 . S
C372 H412 0.951 . S
C373 C372 1.340 . S
C373 C374 1.439 . S
C373 H413 0.950 . S
C374 C373 1.439 . S
C374 N375 1.374 . S
C374 C408 1.395 . S
N375 C371 1.376 . S
N375 C374 1.374 . S
N375 Co376 2.008 . S
Co376 N375 2.008 . S
Co376 N377 1.995 . S
Co376 N382 2.008 . S
Co376 N387 1.995 . S
Co376 N392 2.282 . S
Co376 N398 2.282 . S
N377 Co376 1.995 . S
N377 C378 1.376 . S
N377 C381 1.383 . S
C378 N377 1.376 . S
C378 C379 1.446 . S
C378 C408 1.391 . S
C379 C378 1.446 . S
C379 C380 1.339 . S
C379 H414 0.949 . S
C380 C379 1.339 . S
C380 C381 1.439 . S
C380 H415 0.950 . S
C381 N377 1.383 . S
C381 C380 1.439 . S
C381 C410 1.392 . S
N382 Co376 2.008 . S
N382 C383 1.376 . S
N382 C386 1.374 . S
C383 N382 1.376 . S
C383 C384 1.443 . S
C383 C410 1.389 . S
C384 C383 1.443 . S
C384 C385 1.340 . S
C384 H416 0.951 . S
C385 C384 1.340 . S
C385 C386 1.439 . S
C385 H417 0.950 . S
C386 N382 1.374 . S
C386 C385 1.439 . S
C386 C411 1.395 . S
N387 Co376 1.995 . S
N387 C388 1.376 . S
N387 C391 1.383 . S
C388 N387 1.376 . S
C388 C389 1.446 . S
C388 C411 1.391 . S
C389 C388 1.446 . S
C389 C390 1.339 . S
C389 H418 0.949 . S
C390 C389 1.339 . S
C390 C391 1.439 . S
C390 H419 0.950 . S
C391 N387 1.383 . S
C391 C390 1.439 . S
C391 C409 1.392 . S
N392 Co376 2.282 . S
N392 C395 1.332 . S
N392 C397 1.332 . S
C393 C394 1.386 . S
C393 C396 1.388 . S
C394 C393 1.386 . S
C394 C395 1.382 . S
C394 H420 0.950 . S
C395 N392 1.332 . S
C395 C394 1.382 . S
C395 H406 0.952 . S
C396 C393 1.388 . S
C396 C397 1.382 . S
C396 H421 0.950 . S
C397 N392 1.332 . S
C397 C396 1.382 . S
C397 H407 0.948 . S
N398 Co376 2.282 . S
N398 C402 1.332 . S
N398 C403 1.332 . S
C399 C400 1.388 . S
C399 C403 1.382 . S
C399 H422 0.950 . S
C400 C399 1.388 . S
C400 C401 1.386 . S
C401 C400 1.386 . S
C401 C402 1.382 . S
C401 H423 0.950 . S
C402 N398 1.332 . S
C402 C401 1.382 . S
C402 H404 0.952 . S
C403 N398 1.332 . S
C403 C399 1.382 . S
C403 H405 0.948 . S
H404 C402 0.952 . S
H405 C403 0.948 . S
H406 C395 0.952 . S
H407 C397 0.948 . S
C408 C374 1.395 . S
C408 C378 1.391 . S
C409 C371 1.389 . S
C409 C391 1.392 . S
C410 C381 1.392 . S
C410 C383 1.389 . S
C411 C386 1.395 . S
C411 C388 1.391 . S
H412 C372 0.951 . S
H413 C373 0.950 . S
H414 C379 0.949 . S
H415 C380 0.950 . S
H416 C384 0.951 . S
H417 C385 0.950 . S
H418 C389 0.949 . S
H419 C390 0.950 . S
H420 C394 0.950 . S
H421 C396 0.950 . S
H422 C399 0.950 . S
H423 C401 0.950 . S
C424 C425 1.443 . S
C424 N428 1.376 1_554 S
C424 C462 1.389 . S
C425 C424 1.443 . S
C425 C426 1.340 . S
C425 H465 0.951 . S
C426 C425 1.340 . S
C426 C427 1.439 1_554 S
C426 H466 0.950 . S
C427 C426 1.439 1_556 S
C427 N428 1.374 . S
C427 C461 1.395 . S
N428 C424 1.376 1_556 S
N428 C427 1.374 . S
N428 Co429 2.008 . S
Co429 N428 2.008 . S
Co429 N430 1.995 . S
Co429 N435 2.008 1_655 S
Co429 N440 1.995 1_655 S
Co429 N445 2.282 . S
Co429 N451 2.282 1_655 S
N430 Co429 1.995 . S
N430 C431 1.376 . S
N430 C434 1.383 . S
C431 N430 1.376 . S
C431 C432 1.446 . S
C431 C461 1.391 . S
C432 C431 1.446 . S
C432 C433 1.339 . S
C432 H467 0.949 . S
C433 C432 1.339 . S
C433 C434 1.439 . S
C433 H468 0.950 . S
C434 N430 1.383 . S
C434 C433 1.439 . S
C434 C463 1.392 . S
N435 Co429 2.008 1_455 S
N435 C436 1.376 . S
N435 C439 1.374 . S
C436 N435 1.376 . S
C436 C437 1.443 . S
C436 C463 1.389 1_455 S
C437 C436 1.443 . S
C437 C438 1.340 . S
C437 H469 0.951 . S
C438 C437 1.340 . S
C438 C439 1.439 . S
C438 H470 0.950 . S
C439 N435 1.374 . S
C439 C438 1.439 . S
C439 C464 1.395 . S
N440 Co429 1.995 1_455 S
N440 C441 1.376 . S
N440 C444 1.383 1_556 S
C441 N440 1.376 . S
C441 C442 1.446 1_556 S
C441 C464 1.391 . S
C442 C441 1.446 1_554 S
C442 C443 1.339 . S
C442 H471 0.949 . S
C443 C442 1.339 . S
C443 C444 1.439 . S
C443 H472 0.950 . S
C444 N440 1.383 1_554 S
C444 C443 1.439 . S
C444 C462 1.392 1_455 S
N445 Co429 2.282 . S
N445 C448 1.332 . S
N445 C450 1.332 . S
C446 C447 1.386 . S
C446 C449 1.388 . S
C447 C446 1.386 . S
C447 C448 1.382 . S
C447 H473 0.950 . S
C448 N445 1.332 . S
C448 C447 1.382 . S
C448 H459 0.952 . S
C449 C446 1.388 . S
C449 C450 1.382 . S
C449 H474 0.950 . S
C450 N445 1.332 . S
C450 C449 1.382 . S
C450 H460 0.948 . S
N451 Co429 2.282 1_455 S
N451 C455 1.332 1_455 S
N451 C456 1.332 . S
C452 C453 1.388 . S
C452 C456 1.382 . S
C452 H475 0.950 1_556 S
C453 C452 1.388 . S
C453 C454 1.419 . S
C454 C453 1.419 . S
C454 C455 1.370 1_455 S
C454 H476 0.930 1_455 S
C455 N451 1.332 1_655 S
C455 C454 1.370 1_655 S
C455 H457 0.952 . S
C456 N451 1.332 . S
C456 C452 1.382 . S
C456 H458 0.948 . S
H457 C455 0.952 . S
H458 C456 0.948 . S
H459 C448 0.952 . S
H460 C450 0.948 . S
C461 C427 1.395 . S
C461 C431 1.391 . S
C462 C424 1.389 . S
C462 C444 1.392 1_655 S
C463 C434 1.392 . S
C463 C436 1.389 1_655 S
C464 C439 1.395 . S
C464 C441 1.391 . S
H465 C425 0.951 . S
H466 C426 0.950 . S
H467 C432 0.949 . S
H468 C433 0.950 . S
H469 C437 0.951 . S
H470 C438 0.950 . S
H471 C442 0.949 . S
H472 C443 0.950 . S
H473 C447 0.950 . S
H474 C449 0.950 . S
H475 C452 0.950 1_554 S
H476 C454 0.930 1_655 S
C477 C478 1.443 . S
C477 N481 1.376 . S
C477 C515 1.389 . S
C478 C477 1.443 . S
C478 C479 1.340 . S
C478 H518 0.951 . S
C479 C478 1.340 . S
C479 C480 1.439 . S
C479 H519 0.950 . S
C480 C479 1.439 . S
C480 N481 1.374 . S
C480 C514 1.395 . S
N481 C477 1.376 . S
N481 C480 1.374 . S
N481 Co482 2.008 . S
Co482 N481 2.008 . S
Co482 N483 1.995 . S
Co482 N488 2.008 . S
Co482 N493 1.995 . S
Co482 N498 2.282 . S
Co482 N504 2.282 . S
N483 Co482 1.995 . S
N483 C484 1.376 . S
N483 C487 1.383 . S
C484 N483 1.376 . S
C484 C485 1.446 . S
C484 C514 1.391 . S
C485 C484 1.446 . S
C485 C486 1.339 . S
C485 H520 0.949 . S
C486 C485 1.339 . S
C486 C487 1.439 . S
C486 H521 0.950 . S
C487 N483 1.383 . S
C487 C486 1.439 . S
C487 C516 1.392 . S
N488 Co482 2.008 . S
N488 C489 1.376 . S
N488 C492 1.374 . S
C489 N488 1.376 . S
C489 C490 1.443 . S
C489 C516 1.389 . S
C490 C489 1.443 . S
C490 C491 1.340 . S
C490 H522 0.951 . S
C491 C490 1.340 . S
C491 C492 1.439 . S
C491 H523 0.950 . S
C492 N488 1.374 . S
C492 C491 1.439 . S
C492 C517 1.395 . S
N493 Co482 1.995 . S
N493 C494 1.376 . S
N493 C497 1.383 . S
C494 N493 1.376 . S
C494 C495 1.446 . S
C494 C517 1.391 . S
C495 C494 1.446 . S
C495 C496 1.339 . S
C495 H524 0.949 . S
C496 C495 1.339 . S
C496 C497 1.439 . S
C496 H525 0.950 . S
C497 N493 1.383 . S
C497 C496 1.439 . S
C497 C515 1.392 . S
N498 Co482 2.282 . S
N498 C501 1.332 . S
N498 C503 1.332 . S
C499 C500 1.386 . S
C499 C502 1.388 . S
C500 C499 1.386 . S
C500 C501 1.382 . S
C500 H526 0.950 . S
C501 N498 1.332 . S
C501 C500 1.382 . S
C501 H512 0.952 . S
C502 C499 1.388 . S
C502 C503 1.382 . S
C502 H527 0.950 . S
C503 N498 1.332 . S
C503 C502 1.382 . S
C503 H513 0.948 . S
N504 Co482 2.282 . S
N504 C508 1.332 . S
N504 C509 1.332 . S
C505 C506 1.388 . S
C505 C509 1.382 . S
C505 H528 0.950 . S
C506 C505 1.388 . S
C506 C507 1.386 . S
C507 C506 1.386 . S
C507 C508 1.382 . S
C507 H529 0.950 . S
C508 N504 1.332 . S
C508 C507 1.382 . S
C508 H510 0.952 . S
C509 N504 1.332 . S
C509 C505 1.382 . S
C509 H511 0.948 . S
H510 C508 0.952 . S
H511 C509 0.948 . S
H512 C501 0.952 . S
H513 C503 0.948 . S
C514 C480 1.395 . S
C514 C484 1.391 . S
C515 C477 1.389 . S
C515 C497 1.392 . S
C516 C487 1.392 . S
C516 C489 1.389 . S
C517 C492 1.395 . S
C517 C494 1.391 . S
H518 C478 0.951 . S
H519 C479 0.950 . S
H520 C485 0.949 . S
H521 C486 0.950 . S
H522 C490 0.951 . S
H523 C491 0.950 . S
H524 C495 0.949 . S
H525 C496 0.950 . S
H526 C500 0.950 . S
H527 C502 0.950 . S
H528 C505 0.950 . S
H529 C507 0.950 . S
C530 C531 1.443 . S
C530 N534 1.376 . S
C530 C568 1.389 . S
C531 C530 1.443 . S
C531 C532 1.340 . S
C531 H571 0.951 . S
C532 C531 1.340 . S
C532 C533 1.439 . S
C532 H572 0.950 . S
C533 C532 1.439 . S
C533 N534 1.374 . S
C533 C567 1.395 . S
N534 C530 1.376 . S
N534 C533 1.374 . S
N534 Co535 2.008 . S
Co535 N534 2.008 . S
Co535 N536 1.995 . S
Co535 N541 2.008 . S
Co535 N546 1.995 . S
Co535 N551 2.282 . S
Co535 N557 2.282 . S
N536 Co535 1.995 . S
N536 C537 1.376 . S
N536 C540 1.383 . S
C537 N536 1.376 . S
C537 C538 1.446 . S
C537 C567 1.391 . S
C538 C537 1.446 . S
C538 C539 1.339 . S
C538 H573 0.949 . S
C539 C538 1.339 . S
C539 C540 1.439 . S
C539 H574 0.950 . S
C540 N536 1.383 . S
C540 C539 1.439 . S
C540 C569 1.392 . S
N541 Co535 2.008 . S
N541 C542 1.376 . S
N541 C545 1.374 . S
C542 N541 1.376 . S
C542 C543 1.443 . S
C542 C569 1.389 . S
C543 C542 1.443 . S
C543 C544 1.340 . S
C543 H575 0.951 . S
C544 C543 1.340 . S
C544 C545 1.439 . S
C544 H576 0.950 . S
C545 N541 1.374 . S
C545 C544 1.439 . S
C545 C570 1.395 . S
N546 Co535 1.995 . S
N546 C547 1.376 . S
N546 C550 1.383 . S
C547 N546 1.376 . S
C547 C548 1.446 . S
C547 C570 1.391 . S
C548 C547 1.446 . S
C548 C549 1.339 . S
C548 H577 0.949 . S
C549 C548 1.339 . S
C549 C550 1.439 . S
C549 H578 0.950 . S
C550 N546 1.383 . S
C550 C549 1.439 . S
C550 C568 1.392 . S
N551 Co535 2.282 . S
N551 C554 1.332 . S
N551 C556 1.332 . S
C552 C553 1.386 . S
C552 C555 1.388 . S
C553 C552 1.386 . S
C553 C554 1.382 . S
C553 H579 0.950 . S
C554 N551 1.332 . S
C554 C553 1.382 . S
C554 H565 0.952 . S
C555 C552 1.388 . S
C555 C556 1.382 . S
C555 H580 0.950 . S
C556 N551 1.332 . S
C556 C555 1.382 . S
C556 H566 0.948 . S
N557 Co535 2.282 . S
N557 C561 1.332 . S
N557 C562 1.332 . S
C558 C559 1.388 . S
C558 C562 1.382 . S
C558 H581 0.950 . S
C559 C558 1.388 . S
C559 C560 1.386 . S
C560 C559 1.386 . S
C560 C561 1.382 . S
C560 H582 0.950 . S
C561 N557 1.332 . S
C561 C560 1.382 . S
C561 H563 0.952 . S
C562 N557 1.332 . S
C562 C558 1.382 . S
C562 H564 0.948 . S
H563 C561 0.952 . S
H564 C562 0.948 . S
H565 C554 0.952 . S
H566 C556 0.948 . S
C567 C533 1.395 . S
C567 C537 1.391 . S
C568 C530 1.389 . S
C568 C550 1.392 . S
C569 C540 1.392 . S
C569 C542 1.389 . S
C570 C545 1.395 . S
C570 C547 1.391 . S
H571 C531 0.951 . S
H572 C532 0.950 . S
H573 C538 0.949 . S
H574 C539 0.950 . S
H575 C543 0.951 . S
H576 C544 0.950 . S
H577 C548 0.949 . S
H578 C549 0.950 . S
H579 C553 0.950 . S
H580 C555 0.950 . S
H581 C558 0.950 . S
H582 C560 0.950 . S
C583 C584 1.443 . S
C583 N587 1.376 . S
C583 C621 1.389 . S
C584 C583 1.443 . S
C584 C585 1.340 . S
C584 H624 0.951 . S
C585 C584 1.340 . S
C585 C586 1.439 . S
C585 H625 0.950 . S
C586 C585 1.439 . S
C586 N587 1.374 . S
C586 C620 1.395 . S
N587 C583 1.376 . S
N587 C586 1.374 . S
N587 Co588 2.008 . S
Co588 N587 2.008 . S
Co588 N589 1.995 . S
Co588 N594 2.008 . S
Co588 N599 1.995 . S
Co588 N604 2.282 . S
Co588 N610 2.282 . S
N589 Co588 1.995 . S
N589 C590 1.376 . S
N589 C593 1.383 . S
C590 N589 1.376 . S
C590 C591 1.446 . S
C590 C620 1.391 . S
C591 C590 1.446 . S
C591 C592 1.339 . S
C591 H626 0.949 . S
C592 C591 1.339 . S
C592 C593 1.439 . S
C592 H627 0.950 . S
C593 N589 1.383 . S
C593 C592 1.439 . S
C593 C622 1.392 . S
N594 Co588 2.008 . S
N594 C595 1.376 . S
N594 C598 1.374 . S
C595 N594 1.376 . S
C595 C596 1.443 . S
C595 C622 1.389 . S
C596 C595 1.443 . S
C596 C597 1.340 . S
C596 H628 0.951 . S
C597 C596 1.340 . S
C597 C598 1.439 . S
C597 H629 0.950 . S
C598 N594 1.374 . S
C598 C597 1.439 . S
C598 C623 1.395 . S
N599 Co588 1.995 . S
N599 C600 1.376 . S
N599 C603 1.383 . S
C600 N599 1.376 . S
C600 C601 1.446 . S
C600 C623 1.391 . S
C601 C600 1.446 . S
C601 C602 1.339 . S
C601 H630 0.949 . S
C602 C601 1.339 . S
C602 C603 1.439 . S
C602 H631 0.950 . S
C603 N599 1.383 . S
C603 C602 1.439 . S
C603 C621 1.392 . S
N604 Co588 2.282 . S
N604 C607 1.332 . S
N604 C609 1.332 . S
C605 C606 1.386 . S
C605 C608 1.388 . S
C606 C605 1.386 . S
C606 C607 1.382 . S
C606 H632 0.950 . S
C607 N604 1.332 . S
C607 C606 1.382 . S
C607 H618 0.952 . S
C608 C605 1.388 . S
C608 C609 1.382 . S
C608 H633 0.950 . S
C609 N604 1.332 . S
C609 C608 1.382 . S
C609 H619 0.948 . S
N610 Co588 2.282 . S
N610 C614 1.332 . S
N610 C615 1.332 . S
C611 C612 1.388 . S
C611 C615 1.382 . S
C611 H634 0.950 . S
C612 C611 1.388 . S
C612 C613 1.386 . S
C613 C612 1.386 . S
C613 C614 1.382 . S
C613 H635 0.950 . S
C614 N610 1.332 . S
C614 C613 1.382 . S
C614 H616 0.952 . S
C615 N610 1.332 . S
C615 C611 1.382 . S
C615 H617 0.948 . S
H616 C614 0.952 . S
H617 C615 0.948 . S
H618 C607 0.952 . S
H619 C609 0.948 . S
C620 C586 1.395 . S
C620 C590 1.391 . S
C621 C583 1.389 . S
C621 C603 1.392 . S
C622 C593 1.392 . S
C622 C595 1.389 . S
C623 C598 1.395 . S
C623 C600 1.391 . S
H624 C584 0.951 . S
H625 C585 0.950 . S
H626 C591 0.949 . S
H627 C592 0.950 . S
H628 C596 0.951 . S
H629 C597 0.950 . S
H630 C601 0.949 . S
H631 C602 0.950 . S
H632 C606 0.950 . S
H633 C608 0.950 . S
H634 C611 0.950 . S
H635 C613 0.950 . S
C636 C637 1.443 . S
C636 N640 1.376 . S
C636 C674 1.389 . S
C637 C636 1.443 . S
C637 C638 1.340 . S
C637 H677 0.951 . S
C638 C637 1.340 . S
C638 C639 1.439 . S
C638 H678 0.950 . S
C639 C638 1.439 . S
C639 N640 1.374 . S
C639 C673 1.395 . S
N640 C636 1.376 . S
N640 C639 1.374 . S
N640 Co641 2.008 . S
Co641 N640 2.008 . S
Co641 N642 1.995 . S
Co641 N647 2.008 1_655 S
Co641 N652 1.995 1_655 S
Co641 N657 2.282 . S
Co641 N663 2.282 1_655 S
N642 Co641 1.995 . S
N642 C643 1.376 . S
N642 C646 1.383 . S
C643 N642 1.376 . S
C643 C644 1.446 . S
C643 C673 1.391 . S
C644 C643 1.446 . S
C644 C645 1.339 . S
C644 H679 0.949 . S
C645 C644 1.339 . S
C645 C646 1.439 . S
C645 H680 0.950 . S
C646 N642 1.383 . S
C646 C645 1.439 . S
C646 C675 1.392 . S
N647 Co641 2.008 1_455 S
N647 C648 1.376 . S
N647 C651 1.374 . S
C648 N647 1.376 . S
C648 C649 1.443 . S
C648 C675 1.389 1_455 S
C649 C648 1.443 . S
C649 C650 1.340 . S
C649 H681 0.951 . S
C650 C649 1.340 . S
C650 C651 1.439 . S
C650 H682 0.950 . S
C651 N647 1.374 . S
C651 C650 1.439 . S
C651 C676 1.395 . S
N652 Co641 1.995 1_455 S
N652 C653 1.376 . S
N652 C656 1.383 . S
C653 N652 1.376 . S
C653 C654 1.446 . S
C653 C676 1.391 . S
C654 C653 1.446 . S
C654 C655 1.339 . S
C654 H683 0.949 . S
C655 C654 1.339 . S
C655 C656 1.439 . S
C655 H684 0.950 . S
C656 N652 1.383 . S
C656 C655 1.439 . S
C656 C674 1.392 1_455 S
N657 Co641 2.282 . S
N657 C660 1.332 . S
N657 C662 1.332 . S
C658 C659 1.386 . S
C658 C661 1.388 . S
C659 C658 1.386 . S
C659 C660 1.382 . S
C659 H685 0.950 . S
C660 N657 1.332 . S
C660 C659 1.382 . S
C660 H671 0.952 . S
C661 C658 1.388 . S
C661 C662 1.382 . S
C661 H686 0.950 . S
C662 N657 1.332 . S
C662 C661 1.382 . S
C662 H672 0.948 . S
N663 Co641 2.282 1_455 S
N663 C667 1.332 1_455 S
N663 C668 1.332 . S
C664 C665 1.388 . S
C664 C668 1.382 . S
C664 H687 0.950 . S
C665 C664 1.388 . S
C665 C666 1.419 . S
C666 C665 1.419 . S
C666 C667 1.370 1_455 S
C666 H688 0.930 1_455 S
C667 N663 1.332 1_655 S
C667 C666 1.370 1_655 S
C667 H669 0.952 . S
C668 N663 1.332 . S
C668 C664 1.382 . S
C668 H670 0.948 . S
H669 C667 0.952 . S
H670 C668 0.948 . S
H671 C660 0.952 . S
H672 C662 0.948 . S
C673 C639 1.395 . S
C673 C643 1.391 . S
C674 C636 1.389 . S
C674 C656 1.392 1_655 S
C675 C646 1.392 . S
C675 C648 1.389 1_655 S
C676 C651 1.395 . S
C676 C653 1.391 . S
H677 C637 0.951 . S
H678 C638 0.950 . S
H679 C644 0.949 . S
H680 C645 0.950 . S
H681 C649 0.951 . S
H682 C650 0.950 . S
H683 C654 0.949 . S
H684 C655 0.950 . S
H685 C659 0.950 . S
H686 C661 0.950 . S
H687 C664 0.950 . S
H688 C666 0.930 1_655 S
C689 C690 1.443 . S
C689 N693 1.376 . S
C689 C727 1.389 . S
C690 C689 1.443 . S
C690 C691 1.340 . S
C690 H730 0.951 . S
C691 C690 1.340 . S
C691 C692 1.439 . S
C691 H731 0.950 . S
C692 C691 1.439 . S
C692 N693 1.374 . S
C692 C726 1.395 . S
N693 C689 1.376 . S
N693 C692 1.374 . S
N693 Co694 2.008 . S
Co694 N693 2.008 . S
Co694 N695 1.995 . S
Co694 N700 2.008 . S
Co694 N705 1.995 . S
Co694 N710 2.282 . S
Co694 N716 2.282 . S
N695 Co694 1.995 . S
N695 C696 1.376 . S
N695 C699 1.383 . S
C696 N695 1.376 . S
C696 C697 1.446 . S
C696 C726 1.391 . S
C697 C696 1.446 . S
C697 C698 1.339 . S
C697 H732 0.949 . S
C698 C697 1.339 . S
C698 C699 1.439 . S
C698 H733 0.950 . S
C699 N695 1.383 . S
C699 C698 1.439 . S
C699 C728 1.392 . S
N700 Co694 2.008 . S
N700 C701 1.376 . S
N700 C704 1.374 . S
C701 N700 1.376 . S
C701 C702 1.443 . S
C701 C728 1.389 . S
C702 C701 1.443 . S
C702 C703 1.340 . S
C702 H734 0.951 . S
C703 C702 1.340 . S
C703 C704 1.439 . S
C703 H735 0.950 . S
C704 N700 1.374 . S
C704 C703 1.439 . S
C704 C729 1.395 . S
N705 Co694 1.995 . S
N705 C706 1.376 . S
N705 C709 1.383 . S
C706 N705 1.376 . S
C706 C707 1.446 . S
C706 C729 1.391 . S
C707 C706 1.446 . S
C707 C708 1.339 . S
C707 H736 0.949 . S
C708 C707 1.339 . S
C708 C709 1.439 . S
C708 H737 0.950 . S
C709 N705 1.383 . S
C709 C708 1.439 . S
C709 C727 1.392 . S
N710 Co694 2.282 . S
N710 C713 1.332 . S
N710 C715 1.332 . S
C711 C712 1.386 . S
C711 C714 1.388 . S
C712 C711 1.386 . S
C712 C713 1.382 . S
C712 H738 0.950 . S
C713 N710 1.332 . S
C713 C712 1.382 . S
C713 H724 0.952 . S
C714 C711 1.388 . S
C714 C715 1.382 . S
C714 H739 0.950 . S
C715 N710 1.332 . S
C715 C714 1.382 . S
C715 H725 0.948 . S
N716 Co694 2.282 . S
N716 C720 1.332 . S
N716 C721 1.332 . S
C717 C718 1.388 . S
C717 C721 1.382 . S
C717 H740 0.950 . S
C718 C717 1.388 . S
C718 C719 1.386 . S
C719 C718 1.386 . S
C719 C720 1.382 . S
C719 H741 0.950 . S
C720 N716 1.332 . S
C720 C719 1.382 . S
C720 H722 0.952 . S
C721 N716 1.332 . S
C721 C717 1.382 . S
C721 H723 0.948 . S
H722 C720 0.952 . S
H723 C721 0.948 . S
H724 C713 0.952 . S
H725 C715 0.948 . S
C726 C692 1.395 . S
C726 C696 1.391 . S
C727 C689 1.389 . S
C727 C709 1.392 . S
C728 C699 1.392 . S
C728 C701 1.389 . S
C729 C704 1.395 . S
C729 C706 1.391 . S
H730 C690 0.951 . S
H731 C691 0.950 . S
H732 C697 0.949 . S
H733 C698 0.950 . S
H734 C702 0.951 . S
H735 C703 0.950 . S
H736 C707 0.949 . S
H737 C708 0.950 . S
H738 C712 0.950 . S
H739 C714 0.950 . S
H740 C717 0.950 . S
H741 C719 0.950 . S
C742 C743 1.443 . S
C742 N746 1.376 1_556 S
C742 C780 1.389 . S
C743 C742 1.443 . S
C743 C744 1.340 . S
C743 H783 0.951 . S
C744 C743 1.340 . S
C744 C745 1.439 1_556 S
C744 H784 0.950 . S
C745 C744 1.439 1_554 S
C745 N746 1.374 . S
C745 C779 1.395 . S
N746 C742 1.376 1_554 S
N746 C745 1.374 . S
N746 Co747 2.008 . S
Co747 N746 2.008 . S
Co747 N748 1.995 . S
Co747 N753 2.008 . S
Co747 N758 1.995 . S
Co747 N763 2.282 . S
Co747 N769 2.282 . S
N748 Co747 1.995 . S
N748 C749 1.376 . S
N748 C752 1.383 . S
C749 N748 1.376 . S
C749 C750 1.446 . S
C749 C779 1.391 . S
C750 C749 1.446 . S
C750 C751 1.339 . S
C750 H785 0.949 . S
C751 C750 1.339 . S
C751 C752 1.439 . S
C751 H786 0.950 . S
C752 N748 1.383 . S
C752 C751 1.439 . S
C752 C781 1.392 . S
N753 Co747 2.008 . S
N753 C754 1.376 . S
N753 C757 1.374 . S
C754 N753 1.376 . S
C754 C755 1.443 . S
C754 C781 1.389 . S
C755 C754 1.443 . S
C755 C756 1.340 . S
C755 H787 0.951 . S
C756 C755 1.340 . S
C756 C757 1.439 . S
C756 H788 0.950 . S
C757 N753 1.374 . S
C757 C756 1.439 . S
C757 C782 1.395 . S
N758 Co747 1.995 . S
N758 C759 1.376 . S
N758 C762 1.383 1_554 S
C759 N758 1.376 . S
C759 C760 1.446 1_554 S
C759 C782 1.391 . S
C760 C759 1.446 1_556 S
C760 C761 1.339 . S
C760 H789 0.949 . S
C761 C760 1.339 . S
C761 C762 1.439 . S
C761 H790 0.950 . S
C762 N758 1.383 1_556 S
C762 C761 1.439 . S
C762 C780 1.392 . S
N763 Co747 2.282 . S
N763 C766 1.332 . S
N763 C768 1.332 . S
C764 C765 1.386 . S
C764 C767 1.388 . S
C765 C764 1.386 . S
C765 C766 1.382 . S
C765 H791 0.950 . S
C766 N763 1.332 . S
C766 C765 1.382 . S
C766 H777 0.952 . S
C767 C764 1.388 . S
C767 C768 1.382 . S
C767 H792 0.950 . S
C768 N763 1.332 . S
C768 C767 1.382 . S
C768 H778 0.948 . S
N769 Co747 2.282 . S
N769 C773 1.332 . S
N769 C774 1.332 . S
C770 C771 1.388 . S
C770 C774 1.382 . S
C770 H793 0.950 1_554 S
C771 C770 1.388 . S
C771 C772 1.386 . S
C772 C771 1.386 . S
C772 C773 1.382 . S
C772 H794 0.950 . S
C773 N769 1.332 . S
C773 C772 1.382 . S
C773 H775 0.952 . S
C774 N769 1.332 . S
C774 C770 1.382 . S
C774 H776 0.948 . S
H775 C773 0.952 . S
H776 C774 0.948 . S
H777 C766 0.952 . S
H778 C768 0.948 . S
C779 C745 1.395 . S
C779 C749 1.391 . S
C780 C742 1.389 . S
C780 C762 1.392 . S
C781 C752 1.392 . S
C781 C754 1.389 . S
C782 C757 1.395 . S
C782 C759 1.391 . S
H783 C743 0.951 . S
H784 C744 0.950 . S
H785 C750 0.949 . S
H786 C751 0.950 . S
H787 C755 0.951 . S
H788 C756 0.950 . S
H789 C760 0.949 . S
H790 C761 0.950 . S
H791 C765 0.950 . S
H792 C767 0.950 . S
H793 C770 0.950 1_556 S
H794 C772 0.950 . S
C795 C796 1.443 . S
C795 N799 1.376 . S
C795 C833 1.389 . S
C796 C795 1.443 . S
C796 C797 1.340 . S
C796 H836 0.951 . S
C797 C796 1.340 . S
C797 C798 1.439 . S
C797 H837 0.950 . S
C798 C797 1.439 . S
C798 N799 1.374 . S
C798 C832 1.395 . S
N799 C795 1.376 . S
N799 C798 1.374 . S
N799 Co800 2.008 . S
Co800 N799 2.008 . S
Co800 N801 1.995 . S
Co800 N806 2.008 . S
Co800 N811 1.995 . S
Co800 N816 2.282 . S
Co800 N822 2.282 . S
N801 Co800 1.995 . S
N801 C802 1.376 . S
N801 C805 1.383 . S
C802 N801 1.376 . S
C802 C803 1.446 . S
C802 C832 1.391 . S
C803 C802 1.446 . S
C803 C804 1.339 . S
C803 H838 0.949 . S
C804 C803 1.339 . S
C804 C805 1.439 . S
C804 H839 0.950 . S
C805 N801 1.383 . S
C805 C804 1.439 . S
C805 C834 1.392 . S
N806 Co800 2.008 . S
N806 C807 1.376 . S
N806 C810 1.374 . S
C807 N806 1.376 . S
C807 C808 1.443 . S
C807 C834 1.389 . S
C808 C807 1.443 . S
C808 C809 1.340 . S
C808 H840 0.951 . S
C809 C808 1.340 . S
C809 C810 1.439 . S
C809 H841 0.950 . S
C810 N806 1.374 . S
C810 C809 1.439 . S
C810 C835 1.395 . S
N811 Co800 1.995 . S
N811 C812 1.376 . S
N811 C815 1.383 . S
C812 N811 1.376 . S
C812 C813 1.446 . S
C812 C835 1.391 . S
C813 C812 1.446 . S
C813 C814 1.339 . S
C813 H842 0.949 . S
C814 C813 1.339 . S
C814 C815 1.439 . S
C814 H843 0.950 . S
C815 N811 1.383 . S
C815 C814 1.439 . S
C815 C833 1.392 . S
N816 Co800 2.282 . S
N816 C819 1.332 . S
N816 C821 1.332 . S
C817 C818 1.386 . S
C817 C820 1.388 . S
C818 C817 1.386 . S
C818 C819 1.382 . S
C818 H844 0.950 . S
C819 N816 1.332 . S
C819 C818 1.382 . S
C819 H830 0.952 . S
C820 C817 1.388 . S
C820 C821 1.382 . S
C820 H845 0.950 . S
C821 N816 1.332 . S
C821 C820 1.382 . S
C821 H831 0.948 . S
N822 Co800 2.282 . S
N822 C826 1.332 . S
N822 C827 1.332 . S
C823 C824 1.388 . S
C823 C827 1.382 . S
C823 H846 0.950 . S
C824 C823 1.388 . S
C824 C825 1.386 . S
C825 C824 1.386 . S
C825 C826 1.382 . S
C825 H847 0.950 . S
C826 N822 1.332 . S
C826 C825 1.382 . S
C826 H828 0.952 . S
C827 N822 1.332 . S
C827 C823 1.382 . S
C827 H829 0.948 . S
H828 C826 0.952 . S
H829 C827 0.948 . S
H830 C819 0.952 . S
H831 C821 0.948 . S
C832 C798 1.395 . S
C832 C802 1.391 . S
C833 C795 1.389 . S
C833 C815 1.392 . S
C834 C805 1.392 . S
C834 C807 1.389 . S
C835 C810 1.395 . S
C835 C812 1.391 . S
H836 C796 0.951 . S
H837 C797 0.950 . S
H838 C803 0.949 . S
H839 C804 0.950 . S
H840 C808 0.951 . S
H841 C809 0.950 . S
H842 C813 0.949 . S
H843 C814 0.950 . S
H844 C818 0.950 . S
H845 C820 0.950 . S
H846 C823 0.950 . S
H847 C825 0.950 . S
C848 C849 1.443 . S
C848 N852 1.376 . S
C848 C886 1.389 . S
C849 C848 1.443 . S
C849 C850 1.340 . S
C849 H889 0.951 . S
C850 C849 1.340 . S
C850 C851 1.439 . S
C850 H890 0.950 . S
C851 C850 1.439 . S
C851 N852 1.374 . S
C851 C885 1.395 . S
N852 C848 1.376 . S
N852 C851 1.374 . S
N852 Co853 2.008 . S
Co853 N852 2.008 . S
Co853 N854 1.995 . S
Co853 N859 2.008 . S
Co853 N864 1.995 . S
Co853 N869 2.282 . S
Co853 N875 2.282 . S
N854 Co853 1.995 . S
N854 C855 1.376 . S
N854 C858 1.383 . S
C855 N854 1.376 . S
C855 C856 1.446 . S
C855 C885 1.391 . S
C856 C855 1.446 . S
C856 C857 1.339 . S
C856 H891 0.949 . S
C857 C856 1.339 . S
C857 C858 1.439 . S
C857 H892 0.950 . S
C858 N854 1.383 . S
C858 C857 1.439 . S
C858 C887 1.392 . S
N859 Co853 2.008 . S
N859 C860 1.376 . S
N859 C863 1.374 . S
C860 N859 1.376 . S
C860 C861 1.443 . S
C860 C887 1.389 . S
C861 C860 1.443 . S
C861 C862 1.340 . S
C861 H893 0.951 . S
C862 C861 1.340 . S
C862 C863 1.439 . S
C862 H894 0.950 . S
C863 N859 1.374 . S
C863 C862 1.439 . S
C863 C888 1.395 . S
N864 Co853 1.995 . S
N864 C865 1.376 . S
N864 C868 1.383 . S
C865 N864 1.376 . S
C865 C866 1.446 . S
C865 C888 1.391 . S
C866 C865 1.446 . S
C866 C867 1.339 . S
C866 H895 0.949 . S
C867 C866 1.339 . S
C867 C868 1.439 . S
C867 H896 0.950 . S
C868 N864 1.383 . S
C868 C867 1.439 . S
C868 C886 1.392 . S
N869 Co853 2.282 . S
N869 C872 1.332 . S
N869 C874 1.332 . S
C870 C871 1.386 . S
C870 C873 1.388 . S
C871 C870 1.386 . S
C871 C872 1.382 . S
C871 H897 0.950 . S
C872 N869 1.332 . S
C872 C871 1.382 . S
C872 H883 0.952 . S
C873 C870 1.388 . S
C873 C874 1.382 . S
C873 H898 0.950 . S
C874 N869 1.332 . S
C874 C873 1.382 . S
C874 H884 0.948 . S
N875 Co853 2.282 . S
N875 C879 1.332 . S
N875 C880 1.332 . S
C876 C877 1.388 . S
C876 C880 1.382 . S
C876 H899 0.950 . S
C877 C876 1.388 . S
C877 C878 1.386 . S
C878 C877 1.386 . S
C878 C879 1.382 . S
C878 H900 0.950 . S
C879 N875 1.332 . S
C879 C878 1.382 . S
C879 H881 0.952 . S
C880 N875 1.332 . S
C880 C876 1.382 . S
C880 H882 0.948 . S
H881 C879 0.952 . S
H882 C880 0.948 . S
H883 C872 0.952 . S
H884 C874 0.948 . S
C885 C851 1.395 . S
C885 C855 1.391 . S
C886 C848 1.389 . S
C886 C868 1.392 . S
C887 C858 1.392 . S
C887 C860 1.389 . S
C888 C863 1.395 . S
C888 C865 1.391 . S
H889 C849 0.951 . S
H890 C850 0.950 . S
H891 C856 0.949 . S
H892 C857 0.950 . S
H893 C861 0.951 . S
H894 C862 0.950 . S
H895 C866 0.949 . S
H896 C867 0.950 . S
H897 C871 0.950 . S
H898 C873 0.950 . S
H899 C876 0.950 . S
H900 C878 0.950 . S
C901 C902 1.443 . S
C901 N905 1.376 . S
C901 C939 1.389 . S
C902 C901 1.443 . S
C902 C903 1.340 . S
C902 H942 0.951 . S
C903 C902 1.340 . S
C903 C904 1.439 . S
C903 H943 0.950 . S
C904 C903 1.439 . S
C904 N905 1.374 . S
C904 C938 1.395 . S
N905 C901 1.376 . S
N905 C904 1.374 . S
N905 Co906 2.008 . S
Co906 N905 2.008 . S
Co906 N907 1.995 . S
Co906 N912 2.008 . S
Co906 N917 1.995 . S
Co906 N922 2.282 . S
Co906 N928 2.282 . S
N907 Co906 1.995 . S
N907 C908 1.376 . S
N907 C911 1.383 . S
C908 N907 1.376 . S
C908 C909 1.446 . S
C908 C938 1.391 . S
C909 C908 1.446 . S
C909 C910 1.339 . S
C909 H944 0.949 . S
C910 C909 1.339 . S
C910 C911 1.439 . S
C910 H945 0.950 . S
C911 N907 1.383 . S
C911 C910 1.439 . S
C911 C940 1.392 . S
N912 Co906 2.008 . S
N912 C913 1.376 . S
N912 C916 1.374 . S
C913 N912 1.376 . S
C913 C914 1.443 . S
C913 C940 1.389 . S
C914 C913 1.443 . S
C914 C915 1.340 . S
C914 H946 0.951 . S
C915 C914 1.340 . S
C915 C916 1.439 . S
C915 H947 0.950 . S
C916 N912 1.374 . S
C916 C915 1.439 . S
C916 C941 1.395 . S
N917 Co906 1.995 . S
N917 C918 1.376 . S
N917 C921 1.383 . S
C918 N917 1.376 . S
C918 C919 1.446 . S
C918 C941 1.391 . S
C919 C918 1.446 . S
C919 C920 1.339 . S
C919 H948 0.949 . S
C920 C919 1.339 . S
C920 C921 1.439 . S
C920 H949 0.950 . S
C921 N917 1.383 . S
C921 C920 1.439 . S
C921 C939 1.392 . S
N922 Co906 2.282 . S
N922 C925 1.332 . S
N922 C927 1.332 . S
C923 C924 1.386 . S
C923 C926 1.388 . S
C924 C923 1.386 . S
C924 C925 1.382 . S
C924 H950 0.950 . S
C925 N922 1.332 . S
C925 C924 1.382 . S
C925 H936 0.952 . S
C926 C923 1.388 . S
C926 C927 1.382 . S
C926 H951 0.950 . S
C927 N922 1.332 . S
C927 C926 1.382 . S
C927 H937 0.948 . S
N928 Co906 2.282 . S
N928 C932 1.332 . S
N928 C933 1.332 . S
C929 C930 1.388 . S
C929 C933 1.382 . S
C929 H952 0.950 . S
C930 C929 1.388 . S
C930 C931 1.386 . S
C931 C930 1.386 . S
C931 C932 1.382 . S
C931 H953 0.950 . S
C932 N928 1.332 . S
C932 C931 1.382 . S
C932 H934 0.952 . S
C933 N928 1.332 . S
C933 C929 1.382 . S
C933 H935 0.948 . S
H934 C932 0.952 . S
H935 C933 0.948 . S
H936 C925 0.952 . S
H937 C927 0.948 . S
C938 C904 1.395 . S
C938 C908 1.391 . S
C939 C901 1.389 . S
C939 C921 1.392 . S
C940 C911 1.392 . S
C940 C913 1.389 . S
C941 C916 1.395 . S
C941 C918 1.391 . S
H942 C902 0.951 . S
H943 C903 0.950 . S
H944 C909 0.949 . S
H945 C910 0.950 . S
H946 C914 0.951 . S
H947 C915 0.950 . S
H948 C919 0.949 . S
H949 C920 0.950 . S
H950 C924 0.950 . S
H951 C926 0.950 . S
H952 C929 0.950 . S
H953 C931 0.950 . S
C954 C955 1.443 . S
C954 N958 1.376 1_556 S
C954 C992 1.389 1_455 S
C955 C954 1.443 . S
C955 C956 1.340 . S
C955 H995 0.951 . S
C956 C955 1.340 . S
C956 C957 1.439 1_556 S
C956 H996 0.950 . S
C957 C956 1.439 1_554 S
C957 N958 1.374 . S
C957 C991 1.395 . S
N958 C954 1.376 1_554 S
N958 C957 1.374 . S
N958 Co959 2.008 1_455 S
Co959 N958 2.008 1_655 S
Co959 N960 1.995 1_655 S
Co959 N965 2.008 . S
Co959 N970 1.995 . S
Co959 N975 2.282 . S
Co959 N981 2.282 1_655 S
N960 Co959 1.995 1_455 S
N960 C961 1.376 . S
N960 C964 1.383 . S
C961 N960 1.376 . S
C961 C962 1.446 . S
C961 C991 1.391 . S
C962 C961 1.446 . S
C962 C963 1.339 . S
C962 H997 0.949 . S
C963 C962 1.339 . S
C963 C964 1.439 . S
C963 H998 0.950 . S
C964 N960 1.383 . S
C964 C963 1.439 . S
C964 C993 1.392 1_455 S
N965 Co959 2.008 . S
N965 C966 1.376 . S
N965 C969 1.374 . S
C966 N965 1.376 . S
C966 C967 1.443 . S
C966 C993 1.389 . S
C967 C966 1.443 . S
C967 C968 1.340 . S
C967 H999 0.951 . S
C968 C967 1.340 . S
C968 C969 1.439 . S
C968 H1000 0.950 . S
C969 N965 1.374 . S
C969 C968 1.439 . S
C969 C994 1.395 . S
N970 Co959 1.995 . S
N970 C971 1.376 . S
N970 C974 1.383 1_554 S
C971 N970 1.376 . S
C971 C972 1.446 1_554 S
C971 C994 1.391 . S
C972 C971 1.446 1_556 S
C972 C973 1.339 . S
C972 H1001 0.949 . S
C973 C972 1.339 . S
C973 C974 1.439 . S
C973 H1002 0.950 . S
C974 N970 1.383 1_556 S
C974 C973 1.439 . S
C974 C992 1.392 . S
N975 Co959 2.282 . S
N975 C978 1.332 . S
N975 C980 1.332 . S
C976 C977 1.386 . S
C976 C979 1.388 . S
C977 C976 1.386 . S
C977 C978 1.382 . S
C977 H1003 0.950 . S
C978 N975 1.332 . S
C978 C977 1.382 . S
C978 H989 0.952 . S
C979 C976 1.388 . S
C979 C980 1.382 . S
C979 H1004 0.950 . S
C980 N975 1.332 . S
C980 C979 1.382 . S
C980 H990 0.923 1_655 S
N981 Co959 2.282 1_455 S
N981 C985 1.332 . S
N981 C986 1.332 1_455 S
C982 C983 1.319 1_655 S
C982 C986 1.411 . S
C982 H1005 0.993 1_554 S
C983 C982 1.319 1_455 S
C983 C984 1.386 . S
C984 C983 1.386 . S
C984 C985 1.382 . S
C984 H1006 0.950 . S
C985 N981 1.332 . S
C985 C984 1.382 . S
C985 H987 0.952 . S
C986 N981 1.332 1_655 S
C986 C982 1.411 . S
C986 H988 0.948 . S
H987 C985 0.952 . S
H988 C986 0.948 . S
H989 C978 0.952 . S
H990 C980 0.923 1_455 S
C991 C957 1.395 . S
C991 C961 1.391 . S
C992 C954 1.389 1_655 S
C992 C974 1.392 . S
C993 C964 1.392 1_655 S
C993 C966 1.389 . S
C994 C969 1.395 . S
C994 C971 1.391 . S
H995 C955 0.951 . S
H996 C956 0.950 . S
H997 C962 0.949 . S
H998 C963 0.950 . S
H999 C967 0.951 . S
H1000 C968 0.950 . S
H1001 C972 0.949 . S
H1002 C973 0.950 . S
H1003 C977 0.950 . S
H1004 C979 0.950 . S
H1005 C982 0.993 1_556 S
H1006 C984 0.950 . S
C1007 C1008 1.443 . S
C1007 N1011 1.376 . S
C1007 C1045 1.389 . S
C1008 C1007 1.443 . S
C1008 C1009 1.340 . S
C1008 H1048 0.951 . S
C1009 C1008 1.340 . S
C1009 C1010 1.439 . S
C1009 H1049 0.950 . S
C1010 C1009 1.439 . S
C1010 N1011 1.374 . S
C1010 C1044 1.395 . S
N1011 C1007 1.376 . S
N1011 C1010 1.374 . S
N1011 Co1012 2.008 . S
Co1012 N1011 2.008 . S
Co1012 N1013 1.995 . S
Co1012 N1018 2.008 . S
Co1012 N1023 1.995 . S
Co1012 N1028 2.282 . S
Co1012 N1034 2.282 . S
N1013 Co1012 1.995 . S
N1013 C1014 1.376 . S
N1013 C1017 1.383 . S
C1014 N1013 1.376 . S
C1014 C1015 1.446 . S
C1014 C1044 1.391 . S
C1015 C1014 1.446 . S
C1015 C1016 1.339 . S
C1015 H1050 0.949 . S
C1016 C1015 1.339 . S
C1016 C1017 1.439 . S
C1016 H1051 0.950 . S
C1017 N1013 1.383 . S
C1017 C1016 1.439 . S
C1017 C1046 1.392 . S
N1018 Co1012 2.008 . S
N1018 C1019 1.376 . S
N1018 C1022 1.374 . S
C1019 N1018 1.376 . S
C1019 C1020 1.443 . S
C1019 C1046 1.389 . S
C1020 C1019 1.443 . S
C1020 C1021 1.340 . S
C1020 H1052 0.951 . S
C1021 C1020 1.340 . S
C1021 C1022 1.439 . S
C1021 H1053 0.950 . S
C1022 N1018 1.374 . S
C1022 C1021 1.439 . S
C1022 C1047 1.395 . S
N1023 Co1012 1.995 . S
N1023 C1024 1.376 . S
N1023 C1027 1.383 . S
C1024 N1023 1.376 . S
C1024 C1025 1.446 . S
C1024 C1047 1.391 . S
C1025 C1024 1.446 . S
C1025 C1026 1.339 . S
C1025 H1054 0.949 . S
C1026 C1025 1.339 . S
C1026 C1027 1.439 . S
C1026 H1055 0.950 . S
C1027 N1023 1.383 . S
C1027 C1026 1.439 . S
C1027 C1045 1.392 . S
N1028 Co1012 2.282 . S
N1028 C1031 1.332 . S
N1028 C1033 1.332 . S
C1029 C1030 1.386 . S
C1029 C1032 1.388 . S
C1030 C1029 1.386 . S
C1030 C1031 1.382 . S
C1030 H1056 0.950 . S
C1031 N1028 1.332 . S
C1031 C1030 1.382 . S
C1031 H1042 0.952 . S
C1032 C1029 1.388 . S
C1032 C1033 1.382 . S
C1032 H1057 0.950 . S
C1033 N1028 1.332 . S
C1033 C1032 1.382 . S
C1033 H1043 0.948 . S
N1034 Co1012 2.282 . S
N1034 C1038 1.332 . S
N1034 C1039 1.332 . S
C1035 C1036 1.388 . S
C1035 C1039 1.382 . S
C1035 H1058 0.950 . S
C1036 C1035 1.388 . S
C1036 C1037 1.386 . S
C1037 C1036 1.386 . S
C1037 C1038 1.382 . S
C1037 H1059 0.950 . S
C1038 N1034 1.332 . S
C1038 C1037 1.382 . S
C1038 H1040 0.952 . S
C1039 N1034 1.332 . S
C1039 C1035 1.382 . S
C1039 H1041 0.948 . S
H1040 C1038 0.952 . S
H1041 C1039 0.948 . S
H1042 C1031 0.952 . S
H1043 C1033 0.948 . S
C1044 C1010 1.395 . S
C1044 C1014 1.391 . S
C1045 C1007 1.389 . S
C1045 C1027 1.392 . S
C1046 C1017 1.392 . S
C1046 C1019 1.389 . S
C1047 C1022 1.395 . S
C1047 C1024 1.391 . S
H1048 C1008 0.951 . S
H1049 C1009 0.950 . S
H1050 C1015 0.949 . S
H1051 C1016 0.950 . S
H1052 C1020 0.951 . S
H1053 C1021 0.950 . S
H1054 C1025 0.949 . S
H1055 C1026 0.950 . S
H1056 C1030 0.950 . S
H1057 C1032 0.950 . S
H1058 C1035 0.950 . S
H1059 C1037 0.950 . S
C1060 C1061 1.443 . S
C1060 N1064 1.376 1_554 S
C1060 C1098 1.389 . S
C1061 C1060 1.443 . S
C1061 C1062 1.340 . S
C1061 H1101 0.951 . S
C1062 C1061 1.340 . S
C1062 C1063 1.439 1_554 S
C1062 H1102 0.950 . S
C1063 C1062 1.439 1_556 S
C1063 N1064 1.374 . S
C1063 C1097 1.395 . S
N1064 C1060 1.376 1_556 S
N1064 C1063 1.374 . S
N1064 Co1065 2.008 . S
Co1065 N1064 2.008 . S
Co1065 N1066 1.995 . S
Co1065 N1071 2.008 . S
Co1065 N1076 1.995 . S
Co1065 N1081 2.282 . S
Co1065 N1087 2.282 . S
N1066 Co1065 1.995 . S
N1066 C1067 1.376 . S
N1066 C1070 1.383 . S
C1067 N1066 1.376 . S
C1067 C1068 1.446 . S
C1067 C1097 1.391 . S
C1068 C1067 1.446 . S
C1068 C1069 1.339 . S
C1068 H1103 0.949 . S
C1069 C1068 1.339 . S
C1069 C1070 1.439 . S
C1069 H1104 0.950 . S
C1070 N1066 1.383 . S
C1070 C1069 1.439 . S
C1070 C1099 1.392 . S
N1071 Co1065 2.008 . S
N1071 C1072 1.376 . S
N1071 C1075 1.374 . S
C1072 N1071 1.376 . S
C1072 C1073 1.443 . S
C1072 C1099 1.389 . S
C1073 C1072 1.443 . S
C1073 C1074 1.340 . S
C1073 H1105 0.951 . S
C1074 C1073 1.340 . S
C1074 C1075 1.439 . S
C1074 H1106 0.950 . S
C1075 N1071 1.374 . S
C1075 C1074 1.439 . S
C1075 C1100 1.395 . S
N1076 Co1065 1.995 . S
N1076 C1077 1.376 . S
N1076 C1080 1.383 1_556 S
C1077 N1076 1.376 . S
C1077 C1078 1.446 1_556 S
C1077 C1100 1.391 . S
C1078 C1077 1.446 1_554 S
C1078 C1079 1.339 . S
C1078 H1107 0.949 . S
C1079 C1078 1.339 . S
C1079 C1080 1.439 . S
C1079 H1108 0.950 . S
C1080 N1076 1.383 1_554 S
C1080 C1079 1.439 . S
C1080 C1098 1.392 . S
N1081 Co1065 2.282 . S
N1081 C1084 1.332 . S
N1081 C1086 1.332 . S
C1082 C1083 1.386 . S
C1082 C1085 1.388 . S
C1083 C1082 1.386 . S
C1083 C1084 1.382 . S
C1083 H1109 0.950 . S
C1084 N1081 1.332 . S
C1084 C1083 1.382 . S
C1084 H1095 0.952 . S
C1085 C1082 1.388 . S
C1085 C1086 1.382 . S
C1085 H1110 0.950 . S
C1086 N1081 1.332 . S
C1086 C1085 1.382 . S
C1086 H1096 0.948 . S
N1087 Co1065 2.282 . S
N1087 C1091 1.332 . S
N1087 C1092 1.332 . S
C1088 C1089 1.388 . S
C1088 C1092 1.382 . S
C1088 H1111 0.950 1_556 S
C1089 C1088 1.388 . S
C1089 C1090 1.386 . S
C1090 C1089 1.386 . S
C1090 C1091 1.382 . S
C1090 H1112 0.950 . S
C1091 N1087 1.332 . S
C1091 C1090 1.382 . S
C1091 H1093 0.952 . S
C1092 N1087 1.332 . S
C1092 C1088 1.382 . S
C1092 H1094 0.948 . S
H1093 C1091 0.952 . S
H1094 C1092 0.948 . S
H1095 C1084 0.952 . S
H1096 C1086 0.948 . S
C1097 C1063 1.395 . S
C1097 C1067 1.391 . S
C1098 C1060 1.389 . S
C1098 C1080 1.392 . S
C1099 C1070 1.392 . S
C1099 C1072 1.389 . S
C1100 C1075 1.395 . S
C1100 C1077 1.391 . S
H1101 C1061 0.951 . S
H1102 C1062 0.950 . S
H1103 C1068 0.949 . S
H1104 C1069 0.950 . S
H1105 C1073 0.951 . S
H1106 C1074 0.950 . S
H1107 C1078 0.949 . S
H1108 C1079 0.950 . S
H1109 C1083 0.950 . S
H1110 C1085 0.950 . S
H1111 C1088 0.950 1_554 S
H1112 C1090 0.950 . S
C1113 C1114 1.443 . S
C1113 N1117 1.376 . S
C1113 C1151 1.389 . S
C1114 C1113 1.443 . S
C1114 C1115 1.340 . S
C1114 H1154 0.951 . S
C1115 C1114 1.340 . S
C1115 C1116 1.439 . S
C1115 H1155 0.950 . S
C1116 C1115 1.439 . S
C1116 N1117 1.374 . S
C1116 C1150 1.395 . S
N1117 C1113 1.376 . S
N1117 C1116 1.374 . S
N1117 Co1118 2.008 . S
Co1118 N1117 2.008 . S
Co1118 N1119 1.995 . S
Co1118 N1124 2.008 . S
Co1118 N1129 1.995 . S
Co1118 N1134 2.282 . S
Co1118 N1140 2.282 . S
N1119 Co1118 1.995 . S
N1119 C1120 1.376 . S
N1119 C1123 1.383 . S
C1120 N1119 1.376 . S
C1120 C1121 1.446 . S
C1120 C1150 1.391 . S
C1121 C1120 1.446 . S
C1121 C1122 1.339 . S
C1121 H1156 0.949 . S
C1122 C1121 1.339 . S
C1122 C1123 1.439 . S
C1122 H1157 0.950 . S
C1123 N1119 1.383 . S
C1123 C1122 1.439 . S
C1123 C1152 1.392 . S
N1124 Co1118 2.008 . S
N1124 C1125 1.376 . S
N1124 C1128 1.374 . S
C1125 N1124 1.376 . S
C1125 C1126 1.443 . S
C1125 C1152 1.389 . S
C1126 C1125 1.443 . S
C1126 C1127 1.340 . S
C1126 H1158 0.951 . S
C1127 C1126 1.340 . S
C1127 C1128 1.439 . S
C1127 H1159 0.950 . S
C1128 N1124 1.374 . S
C1128 C1127 1.439 . S
C1128 C1153 1.395 . S
N1129 Co1118 1.995 . S
N1129 C1130 1.376 . S
N1129 C1133 1.383 . S
C1130 N1129 1.376 . S
C1130 C1131 1.446 . S
C1130 C1153 1.391 . S
C1131 C1130 1.446 . S
C1131 C1132 1.339 . S
C1131 H1160 0.949 . S
C1132 C1131 1.339 . S
C1132 C1133 1.439 . S
C1132 H1161 0.950 . S
C1133 N1129 1.383 . S
C1133 C1132 1.439 . S
C1133 C1151 1.392 . S
N1134 Co1118 2.282 . S
N1134 C1137 1.332 . S
N1134 C1139 1.332 . S
C1135 C1136 1.386 . S
C1135 C1138 1.388 . S
C1136 C1135 1.386 . S
C1136 C1137 1.382 . S
C1136 H1162 0.950 . S
C1137 N1134 1.332 . S
C1137 C1136 1.382 . S
C1137 H1148 0.952 . S
C1138 C1135 1.388 . S
C1138 C1139 1.382 . S
C1138 H1163 0.950 . S
C1139 N1134 1.332 . S
C1139 C1138 1.382 . S
C1139 H1149 0.948 . S
N1140 Co1118 2.282 . S
N1140 C1144 1.332 . S
N1140 C1145 1.332 . S
C1141 C1142 1.388 . S
C1141 C1145 1.382 . S
C1141 H1164 0.950 . S
C1142 C1141 1.388 . S
C1142 C1143 1.386 . S
C1143 C1142 1.386 . S
C1143 C1144 1.382 . S
C1143 H1165 0.950 . S
C1144 N1140 1.332 . S
C1144 C1143 1.382 . S
C1144 H1146 0.952 . S
C1145 N1140 1.332 . S
C1145 C1141 1.382 . S
C1145 H1147 0.948 . S
H1146 C1144 0.952 . S
H1147 C1145 0.948 . S
H1148 C1137 0.952 . S
H1149 C1139 0.948 . S
C1150 C1116 1.395 . S
C1150 C1120 1.391 . S
C1151 C1113 1.389 . S
C1151 C1133 1.392 . S
C1152 C1123 1.392 . S
C1152 C1125 1.389 . S
C1153 C1128 1.395 . S
C1153 C1130 1.391 . S
H1154 C1114 0.951 . S
H1155 C1115 0.950 . S
H1156 C1121 0.949 . S
H1157 C1122 0.950 . S
H1158 C1126 0.951 . S
H1159 C1127 0.950 . S
H1160 C1131 0.949 . S
H1161 C1132 0.950 . S
H1162 C1136 0.950 . S
H1163 C1138 0.950 . S
H1164 C1141 0.950 . S
H1165 C1143 0.950 . S
C1166 C1167 1.443 . S
C1166 N1170 1.376 . S
C1166 C1204 1.389 1_455 S
C1167 C1166 1.443 . S
C1167 C1168 1.340 . S
C1167 H1207 0.951 . S
C1168 C1167 1.340 . S
C1168 C1169 1.439 . S
C1168 H1208 0.950 . S
C1169 C1168 1.439 . S
C1169 N1170 1.374 . S
C1169 C1203 1.395 . S
N1170 C1166 1.376 . S
N1170 C1169 1.374 . S
N1170 Co1171 2.008 1_455 S
Co1171 N1170 2.008 1_655 S
Co1171 N1172 1.995 1_655 S
Co1171 N1177 2.008 . S
Co1171 N1182 1.995 . S
Co1171 N1187 2.282 . S
Co1171 N1193 2.282 1_655 S
N1172 Co1171 1.995 1_455 S
N1172 C1173 1.376 . S
N1172 C1176 1.383 . S
C1173 N1172 1.376 . S
C1173 C1174 1.446 . S
C1173 C1203 1.391 . S
C1174 C1173 1.446 . S
C1174 C1175 1.339 . S
C1174 H1209 0.949 . S
C1175 C1174 1.339 . S
C1175 C1176 1.439 . S
C1175 H1210 0.950 . S
C1176 N1172 1.383 . S
C1176 C1175 1.439 . S
C1176 C1205 1.392 1_455 S
N1177 Co1171 2.008 . S
N1177 C1178 1.376 . S
N1177 C1181 1.374 . S
C1178 N1177 1.376 . S
C1178 C1179 1.443 . S
C1178 C1205 1.389 . S
C1179 C1178 1.443 . S
C1179 C1180 1.340 . S
C1179 H1211 0.951 . S
C1180 C1179 1.340 . S
C1180 C1181 1.439 . S
C1180 H1212 0.950 . S
C1181 N1177 1.374 . S
C1181 C1180 1.439 . S
C1181 C1206 1.395 . S
N1182 Co1171 1.995 . S
N1182 C1183 1.376 . S
N1182 C1186 1.383 . S
C1183 N1182 1.376 . S
C1183 C1184 1.446 . S
C1183 C1206 1.391 . S
C1184 C1183 1.446 . S
C1184 C1185 1.339 . S
C1184 H1213 0.949 . S
C1185 C1184 1.339 . S
C1185 C1186 1.439 . S
C1185 H1214 0.950 . S
C1186 N1182 1.383 . S
C1186 C1185 1.439 . S
C1186 C1204 1.392 . S
N1187 Co1171 2.282 . S
N1187 C1190 1.332 . S
N1187 C1192 1.332 . S
C1188 C1189 1.386 . S
C1188 C1191 1.388 . S
C1189 C1188 1.386 . S
C1189 C1190 1.382 . S
C1189 H1215 0.950 . S
C1190 N1187 1.332 . S
C1190 C1189 1.382 . S
C1190 H1201 0.952 . S
C1191 C1188 1.388 . S
C1191 C1192 1.382 . S
C1191 H1216 0.950 . S
C1192 N1187 1.332 . S
C1192 C1191 1.382 . S
C1192 H1202 0.924 1_655 S
N1193 Co1171 2.282 1_455 S
N1193 C1197 1.332 . S
N1193 C1198 1.332 1_455 S
C1194 C1195 1.319 1_655 S
C1194 C1198 1.411 . S
C1194 H1217 0.993 . S
C1195 C1194 1.319 1_455 S
C1195 C1196 1.386 . S
C1196 C1195 1.386 . S
C1196 C1197 1.382 . S
C1196 H1218 0.950 . S
C1197 N1193 1.332 . S
C1197 C1196 1.382 . S
C1197 H1199 0.952 . S
C1198 N1193 1.332 1_655 S
C1198 C1194 1.411 . S
C1198 H1200 0.948 . S
H1199 C1197 0.952 . S
H1200 C1198 0.948 . S
H1201 C1190 0.952 . S
H1202 C1192 0.924 1_455 S
C1203 C1169 1.395 . S
C1203 C1173 1.391 . S
C1204 C1166 1.389 1_655 S
C1204 C1186 1.392 . S
C1205 C1176 1.392 1_655 S
C1205 C1178 1.389 . S
C1206 C1181 1.395 . S
C1206 C1183 1.391 . S
H1207 C1167 0.951 . S
H1208 C1168 0.950 . S
H1209 C1174 0.949 . S
H1210 C1175 0.950 . S
H1211 C1179 0.951 . S
H1212 C1180 0.950 . S
H1213 C1184 0.949 . S
H1214 C1185 0.950 . S
H1215 C1189 0.950 . S
H1216 C1191 0.950 . S
H1217 C1194 0.993 . S
H1218 C1196 0.950 . S
C1219 C1220 1.443 . S
C1219 N1223 1.376 . S
C1219 C1257 1.389 . S
C1220 C1219 1.443 . S
C1220 C1221 1.340 . S
C1220 H1260 0.951 . S
C1221 C1220 1.340 . S
C1221 C1222 1.439 . S
C1221 H1261 0.950 . S
C1222 C1221 1.439 . S
C1222 N1223 1.374 . S
C1222 C1256 1.395 . S
N1223 C1219 1.376 . S
N1223 C1222 1.374 . S
N1223 Co1224 2.008 . S
Co1224 N1223 2.008 . S
Co1224 N1225 1.995 . S
Co1224 N1230 2.008 . S
Co1224 N1235 1.995 . S
Co1224 N1240 2.282 . S
Co1224 N1246 2.282 . S
N1225 Co1224 1.995 . S
N1225 C1226 1.376 . S
N1225 C1229 1.383 . S
C1226 N1225 1.376 . S
C1226 C1227 1.446 . S
C1226 C1256 1.391 . S
C1227 C1226 1.446 . S
C1227 C1228 1.339 . S
C1227 H1262 0.949 . S
C1228 C1227 1.339 . S
C1228 C1229 1.439 . S
C1228 H1263 0.950 . S
C1229 N1225 1.383 . S
C1229 C1228 1.439 . S
C1229 C1258 1.392 . S
N1230 Co1224 2.008 . S
N1230 C1231 1.376 . S
N1230 C1234 1.374 . S
C1231 N1230 1.376 . S
C1231 C1232 1.443 . S
C1231 C1258 1.389 . S
C1232 C1231 1.443 . S
C1232 C1233 1.340 . S
C1232 H1264 0.951 . S
C1233 C1232 1.340 . S
C1233 C1234 1.439 . S
C1233 H1265 0.950 . S
C1234 N1230 1.374 . S
C1234 C1233 1.439 . S
C1234 C1259 1.395 . S
N1235 Co1224 1.995 . S
N1235 C1236 1.376 . S
N1235 C1239 1.383 . S
C1236 N1235 1.376 . S
C1236 C1237 1.446 . S
C1236 C1259 1.391 . S
C1237 C1236 1.446 . S
C1237 C1238 1.339 . S
C1237 H1266 0.949 . S
C1238 C1237 1.339 . S
C1238 C1239 1.439 . S
C1238 H1267 0.950 . S
C1239 N1235 1.383 . S
C1239 C1238 1.439 . S
C1239 C1257 1.392 . S
N1240 Co1224 2.282 . S
N1240 C1243 1.332 . S
N1240 C1245 1.332 . S
C1241 C1242 1.386 . S
C1241 C1244 1.388 . S
C1242 C1241 1.386 . S
C1242 C1243 1.382 . S
C1242 H1268 0.950 . S
C1243 N1240 1.332 . S
C1243 C1242 1.382 . S
C1243 H1254 0.952 . S
C1244 C1241 1.388 . S
C1244 C1245 1.382 . S
C1244 H1269 0.950 . S
C1245 N1240 1.332 . S
C1245 C1244 1.382 . S
C1245 H1255 0.948 . S
N1246 Co1224 2.282 . S
N1246 C1250 1.332 . S
N1246 C1251 1.332 . S
C1247 C1248 1.388 . S
C1247 C1251 1.382 . S
C1247 H1270 0.950 . S
C1248 C1247 1.388 . S
C1248 C1249 1.386 . S
C1249 C1248 1.386 . S
C1249 C1250 1.382 . S
C1249 H1271 0.950 . S
C1250 N1246 1.332 . S
C1250 C1249 1.382 . S
C1250 H1252 0.952 . S
C1251 N1246 1.332 . S
C1251 C1247 1.382 . S
C1251 H1253 0.948 . S
H1252 C1250 0.952 . S
H1253 C1251 0.948 . S
H1254 C1243 0.952 . S
H1255 C1245 0.948 . S
C1256 C1222 1.395 . S
C1256 C1226 1.391 . S
C1257 C1219 1.389 . S
C1257 C1239 1.392 . S
C1258 C1229 1.392 . S
C1258 C1231 1.389 . S
C1259 C1234 1.395 . S
C1259 C1236 1.391 . S
H1260 C1220 0.951 . S
H1261 C1221 0.950 . S
H1262 C1227 0.949 . S
H1263 C1228 0.950 . S
H1264 C1232 0.951 . S
H1265 C1233 0.950 . S
H1266 C1237 0.949 . S
H1267 C1238 0.950 . S
H1268 C1242 0.950 . S
H1269 C1244 0.950 . S
H1270 C1247 0.950 . S
H1271 C1249 0.950 . S
C1272 C1273 1.443 . S
C1272 N1276 1.376 . S
C1272 C1310 1.389 . S
C1273 C1272 1.443 . S
C1273 C1274 1.340 . S
C1273 H1313 0.951 . S
C1274 C1273 1.340 . S
C1274 C1275 1.439 . S
C1274 H1314 0.950 . S
C1275 C1274 1.439 . S
C1275 N1276 1.374 . S
C1275 C1309 1.395 . S
N1276 C1272 1.376 . S
N1276 C1275 1.374 . S
N1276 Co1277 2.008 . S
Co1277 N1276 2.008 . S
Co1277 N1278 1.995 . S
Co1277 N1283 2.008 . S
Co1277 N1288 1.995 . S
Co1277 N1293 2.282 . S
Co1277 N1299 2.282 . S
N1278 Co1277 1.995 . S
N1278 C1279 1.376 . S
N1278 C1282 1.383 . S
C1279 N1278 1.376 . S
C1279 C1280 1.446 . S
C1279 C1309 1.391 . S
C1280 C1279 1.446 . S
C1280 C1281 1.339 . S
C1280 H1315 0.949 . S
C1281 C1280 1.339 . S
C1281 C1282 1.439 . S
C1281 H1316 0.950 . S
C1282 N1278 1.383 . S
C1282 C1281 1.439 . S
C1282 C1311 1.392 . S
N1283 Co1277 2.008 . S
N1283 C1284 1.376 . S
N1283 C1287 1.374 . S
C1284 N1283 1.376 . S
C1284 C1285 1.443 . S
C1284 C1311 1.389 . S
C1285 C1284 1.443 . S
C1285 C1286 1.340 . S
C1285 H1317 0.951 . S
C1286 C1285 1.340 . S
C1286 C1287 1.439 . S
C1286 H1318 0.950 . S
C1287 N1283 1.374 . S
C1287 C1286 1.439 . S
C1287 C1312 1.395 . S
N1288 Co1277 1.995 . S
N1288 C1289 1.376 . S
N1288 C1292 1.383 . S
C1289 N1288 1.376 . S
C1289 C1290 1.446 . S
C1289 C1312 1.391 . S
C1290 C1289 1.446 . S
C1290 C1291 1.339 . S
C1290 H1319 0.949 . S
C1291 C1290 1.339 . S
C1291 C1292 1.439 . S
C1291 H1320 0.950 . S
C1292 N1288 1.383 . S
C1292 C1291 1.439 . S
C1292 C1310 1.392 . S
N1293 Co1277 2.282 . S
N1293 C1296 1.332 . S
N1293 C1298 1.332 . S
C1294 C1295 1.386 . S
C1294 C1297 1.388 . S
C1295 C1294 1.386 . S
C1295 C1296 1.382 . S
C1295 H1321 0.950 . S
C1296 N1293 1.332 . S
C1296 C1295 1.382 . S
C1296 H1307 0.952 . S
C1297 C1294 1.388 . S
C1297 C1298 1.382 . S
C1297 H1322 0.950 . S
C1298 N1293 1.332 . S
C1298 C1297 1.382 . S
C1298 H1308 0.948 . S
N1299 Co1277 2.282 . S
N1299 C1303 1.332 . S
N1299 C1304 1.332 . S
C1300 C1301 1.388 . S
C1300 C1304 1.382 . S
C1300 H1323 0.950 . S
C1301 C1300 1.388 . S
C1301 C1302 1.386 . S
C1302 C1301 1.386 . S
C1302 C1303 1.382 . S
C1302 H1324 0.950 . S
C1303 N1299 1.332 . S
C1303 C1302 1.382 . S
C1303 H1305 0.952 . S
C1304 N1299 1.332 . S
C1304 C1300 1.382 . S
C1304 H1306 0.948 . S
H1305 C1303 0.952 . S
H1306 C1304 0.948 . S
H1307 C1296 0.952 . S
H1308 C1298 0.948 . S
C1309 C1275 1.395 . S
C1309 C1279 1.391 . S
C1310 C1272 1.389 . S
C1310 C1292 1.392 . S
C1311 C1282 1.392 . S
C1311 C1284 1.389 . S
C1312 C1287 1.395 . S
C1312 C1289 1.391 . S
H1313 C1273 0.951 . S
H1314 C1274 0.950 . S
H1315 C1280 0.949 . S
H1316 C1281 0.950 . S
H1317 C1285 0.951 . S
H1318 C1286 0.950 . S
H1319 C1290 0.949 . S
H1320 C1291 0.950 . S
H1321 C1295 0.950 . S
H1322 C1297 0.950 . S
H1323 C1300 0.950 . S
H1324 C1302 0.950 . S
C1325 C1326 1.443 . S
C1325 N1329 1.376 . S
C1325 C1363 1.389 . S
C1326 C1325 1.443 . S
C1326 C1327 1.340 . S
C1326 H1366 0.951 . S
C1327 C1326 1.340 . S
C1327 C1328 1.439 . S
C1327 H1367 0.950 . S
C1328 C1327 1.439 . S
C1328 N1329 1.374 . S
C1328 C1362 1.395 . S
N1329 C1325 1.376 . S
N1329 C1328 1.374 . S
N1329 Co1330 2.008 . S
Co1330 N1329 2.008 . S
Co1330 N1331 1.995 . S
Co1330 N1336 2.008 . S
Co1330 N1341 1.995 . S
Co1330 N1346 2.282 . S
Co1330 N1352 2.282 . S
N1331 Co1330 1.995 . S
N1331 C1332 1.376 . S
N1331 C1335 1.383 . S
C1332 N1331 1.376 . S
C1332 C1333 1.446 . S
C1332 C1362 1.391 . S
C1333 C1332 1.446 . S
C1333 C1334 1.339 . S
C1333 H1368 0.949 . S
C1334 C1333 1.339 . S
C1334 C1335 1.439 . S
C1334 H1369 0.950 . S
C1335 N1331 1.383 . S
C1335 C1334 1.439 . S
C1335 C1364 1.392 . S
N1336 Co1330 2.008 . S
N1336 C1337 1.376 . S
N1336 C1340 1.374 . S
C1337 N1336 1.376 . S
C1337 C1338 1.443 . S
C1337 C1364 1.389 . S
C1338 C1337 1.443 . S
C1338 C1339 1.340 . S
C1338 H1370 0.951 . S
C1339 C1338 1.340 . S
C1339 C1340 1.439 . S
C1339 H1371 0.950 . S
C1340 N1336 1.374 . S
C1340 C1339 1.439 . S
C1340 C1365 1.395 . S
N1341 Co1330 1.995 . S
N1341 C1342 1.376 . S
N1341 C1345 1.383 . S
C1342 N1341 1.376 . S
C1342 C1343 1.446 . S
C1342 C1365 1.391 . S
C1343 C1342 1.446 . S
C1343 C1344 1.339 . S
C1343 H1372 0.949 . S
C1344 C1343 1.339 . S
C1344 C1345 1.439 . S
C1344 H1373 0.950 . S
C1345 N1341 1.383 . S
C1345 C1344 1.439 . S
C1345 C1363 1.392 . S
N1346 Co1330 2.282 . S
N1346 C1349 1.332 . S
N1346 C1351 1.332 . S
C1347 C1348 1.386 . S
C1347 C1350 1.388 . S
C1348 C1347 1.386 . S
C1348 C1349 1.382 . S
C1348 H1374 0.950 . S
C1349 N1346 1.332 . S
C1349 C1348 1.382 . S
C1349 H1360 0.952 . S
C1350 C1347 1.388 . S
C1350 C1351 1.382 . S
C1350 H1375 0.950 . S
C1351 N1346 1.332 . S
C1351 C1350 1.382 . S
C1351 H1361 0.948 . S
N1352 Co1330 2.282 . S
N1352 C1356 1.332 . S
N1352 C1357 1.332 . S
C1353 C1354 1.388 . S
C1353 C1357 1.382 . S
C1353 H1376 0.950 . S
C1354 C1353 1.388 . S
C1354 C1355 1.386 . S
C1355 C1354 1.386 . S
C1355 C1356 1.382 . S
C1355 H1377 0.950 . S
C1356 N1352 1.332 . S
C1356 C1355 1.382 . S
C1356 H1358 0.952 . S
C1357 N1352 1.332 . S
C1357 C1353 1.382 . S
C1357 H1359 0.948 . S
H1358 C1356 0.952 . S
H1359 C1357 0.948 . S
H1360 C1349 0.952 . S
H1361 C1351 0.948 . S
C1362 C1328 1.395 . S
C1362 C1332 1.391 . S
C1363 C1325 1.389 . S
C1363 C1345 1.392 . S
C1364 C1335 1.392 . S
C1364 C1337 1.389 . S
C1365 C1340 1.395 . S
C1365 C1342 1.391 . S
H1366 C1326 0.951 . S
H1367 C1327 0.950 . S
H1368 C1333 0.949 . S
H1369 C1334 0.950 . S
H1370 C1338 0.951 . S
H1371 C1339 0.950 . S
H1372 C1343 0.949 . S
H1373 C1344 0.950 . S
H1374 C1348 0.950 . S
H1375 C1350 0.950 . S
H1376 C1353 0.950 . S
H1377 C1355 0.950 . S
C1378 C1379 1.443 . S
C1378 N1382 1.376 1_554 S
C1378 C1416 1.389 . S
C1379 C1378 1.443 . S
C1379 C1380 1.340 . S
C1379 H1419 0.951 . S
C1380 C1379 1.340 . S
C1380 C1381 1.439 1_554 S
C1380 H1420 0.950 . S
C1381 C1380 1.439 1_556 S
C1381 N1382 1.374 . S
C1381 C1415 1.395 . S
N1382 C1378 1.376 1_556 S
N1382 C1381 1.374 . S
N1382 Co1383 2.008 . S
Co1383 N1382 2.008 . S
Co1383 N1384 1.995 . S
Co1383 N1389 2.008 1_455 S
Co1383 N1394 1.995 1_455 S
Co1383 N1399 2.282 . S
Co1383 N1405 2.282 1_455 S
N1384 Co1383 1.995 . S
N1384 C1385 1.376 . S
N1384 C1388 1.383 . S
C1385 N1384 1.376 . S
C1385 C1386 1.446 . S
C1385 C1415 1.391 . S
C1386 C1385 1.446 . S
C1386 C1387 1.339 . S
C1386 H1421 0.949 . S
C1387 C1386 1.339 . S
C1387 C1388 1.439 . S
C1387 H1422 0.950 . S
C1388 N1384 1.383 . S
C1388 C1387 1.439 . S
C1388 C1417 1.392 . S
N1389 Co1383 2.008 1_655 S
N1389 C1390 1.376 . S
N1389 C1393 1.374 . S
C1390 N1389 1.376 . S
C1390 C1391 1.443 . S
C1390 C1417 1.389 1_655 S
C1391 C1390 1.443 . S
C1391 C1392 1.340 . S
C1391 H1423 0.951 . S
C1392 C1391 1.340 . S
C1392 C1393 1.439 . S
C1392 H1424 0.950 . S
C1393 N1389 1.374 . S
C1393 C1392 1.439 . S
C1393 C1418 1.395 . S
N1394 Co1383 1.995 1_655 S
N1394 C1395 1.376 . S
N1394 C1398 1.383 1_556 S
C1395 N1394 1.376 . S
C1395 C1396 1.446 1_556 S
C1395 C1418 1.391 . S
C1396 C1395 1.446 1_554 S
C1396 C1397 1.339 . S
C1396 H1425 0.949 . S
C1397 C1396 1.339 . S
C1397 C1398 1.439 . S
C1397 H1426 0.950 . S
C1398 N1394 1.383 1_554 S
C1398 C1397 1.439 . S
C1398 C1416 1.392 1_655 S
N1399 Co1383 2.282 . S
N1399 C1402 1.332 . S
N1399 C1404 1.332 . S
C1400 C1401 1.386 . S
C1400 C1403 1.388 . S
C1401 C1400 1.386 . S
C1401 C1402 1.382 . S
C1401 H1427 0.950 . S
C1402 N1399 1.332 . S
C1402 C1401 1.382 . S
C1402 H1413 0.952 . S
C1403 C1400 1.388 . S
C1403 C1404 1.382 . S
C1403 H1428 0.950 . S
C1404 N1399 1.332 . S
C1404 C1403 1.382 . S
C1404 H1414 0.948 . S
N1405 Co1383 2.282 1_655 S
N1405 C1409 1.332 1_655 S
N1405 C1410 1.332 . S
C1406 C1407 1.388 . S
C1406 C1410 1.382 . S
C1406 H1429 0.950 1_556 S
C1407 C1406 1.388 . S
C1407 C1408 1.419 . S
C1408 C1407 1.419 . S
C1408 C1409 1.370 1_655 S
C1408 H1430 0.930 1_655 S
C1409 N1405 1.332 1_455 S
C1409 C1408 1.370 1_455 S
C1409 H1411 0.952 . S
C1410 N1405 1.332 . S
C1410 C1406 1.382 . S
C1410 H1412 0.948 . S
H1411 C1409 0.952 . S
H1412 C1410 0.948 . S
H1413 C1402 0.952 . S
H1414 C1404 0.948 . S
C1415 C1381 1.395 . S
C1415 C1385 1.391 . S
C1416 C1378 1.389 . S
C1416 C1398 1.392 1_455 S
C1417 C1388 1.392 . S
C1417 C1390 1.389 1_455 S
C1418 C1393 1.395 . S
C1418 C1395 1.391 . S
H1419 C1379 0.951 . S
H1420 C1380 0.950 . S
H1421 C1386 0.949 . S
H1422 C1387 0.950 . S
H1423 C1391 0.951 . S
H1424 C1392 0.950 . S
H1425 C1396 0.949 . S
H1426 C1397 0.950 . S
H1427 C1401 0.950 . S
H1428 C1403 0.950 . S
H1429 C1406 0.950 1_554 S
H1430 C1408 0.930 1_455 S
C1431 C1432 1.443 . S
C1431 N1435 1.376 . S
C1431 C1469 1.389 . S
C1432 C1431 1.443 . S
C1432 C1433 1.340 . S
C1432 H1472 0.951 . S
C1433 C1432 1.340 . S
C1433 C1434 1.439 . S
C1433 H1473 0.950 . S
C1434 C1433 1.439 . S
C1434 N1435 1.374 . S
C1434 C1468 1.395 . S
N1435 C1431 1.376 . S
N1435 C1434 1.374 . S
N1435 Co1436 2.008 . S
Co1436 N1435 2.008 . S
Co1436 N1437 1.995 . S
Co1436 N1442 2.008 . S
Co1436 N1447 1.995 . S
Co1436 N1452 2.282 . S
Co1436 N1458 2.282 . S
N1437 Co1436 1.995 . S
N1437 C1438 1.376 . S
N1437 C1441 1.383 . S
C1438 N1437 1.376 . S
C1438 C1439 1.446 . S
C1438 C1468 1.391 . S
C1439 C1438 1.446 . S
C1439 C1440 1.339 . S
C1439 H1474 0.949 . S
C1440 C1439 1.339 . S
C1440 C1441 1.439 . S
C1440 H1475 0.950 . S
C1441 N1437 1.383 . S
C1441 C1440 1.439 . S
C1441 C1470 1.392 . S
N1442 Co1436 2.008 . S
N1442 C1443 1.376 . S
N1442 C1446 1.374 . S
C1443 N1442 1.376 . S
C1443 C1444 1.443 . S
C1443 C1470 1.389 . S
C1444 C1443 1.443 . S
C1444 C1445 1.340 . S
C1444 H1476 0.951 . S
C1445 C1444 1.340 . S
C1445 C1446 1.439 . S
C1445 H1477 0.950 . S
C1446 N1442 1.374 . S
C1446 C1445 1.439 . S
C1446 C1471 1.395 . S
N1447 Co1436 1.995 . S
N1447 C1448 1.376 . S
N1447 C1451 1.383 . S
C1448 N1447 1.376 . S
C1448 C1449 1.446 . S
C1448 C1471 1.391 . S
C1449 C1448 1.446 . S
C1449 C1450 1.339 . S
C1449 H1478 0.949 . S
C1450 C1449 1.339 . S
C1450 C1451 1.439 . S
C1450 H1479 0.950 . S
C1451 N1447 1.383 . S
C1451 C1450 1.439 . S
C1451 C1469 1.392 . S
N1452 Co1436 2.282 . S
N1452 C1455 1.332 . S
N1452 C1457 1.332 . S
C1453 C1454 1.386 . S
C1453 C1456 1.388 . S
C1454 C1453 1.386 . S
C1454 C1455 1.382 . S
C1454 H1480 0.950 . S
C1455 N1452 1.332 . S
C1455 C1454 1.382 . S
C1455 H1466 0.952 . S
C1456 C1453 1.388 . S
C1456 C1457 1.382 . S
C1456 H1481 0.950 . S
C1457 N1452 1.332 . S
C1457 C1456 1.382 . S
C1457 H1467 0.948 . S
N1458 Co1436 2.282 . S
N1458 C1462 1.332 . S
N1458 C1463 1.332 . S
C1459 C1460 1.388 . S
C1459 C1463 1.382 . S
C1459 H1482 0.950 . S
C1460 C1459 1.388 . S
C1460 C1461 1.386 . S
C1461 C1460 1.386 . S
C1461 C1462 1.382 . S
C1461 H1483 0.950 . S
C1462 N1458 1.332 . S
C1462 C1461 1.382 . S
C1462 H1464 0.952 . S
C1463 N1458 1.332 . S
C1463 C1459 1.382 . S
C1463 H1465 0.948 . S
H1464 C1462 0.952 . S
H1465 C1463 0.948 . S
H1466 C1455 0.952 . S
H1467 C1457 0.948 . S
C1468 C1434 1.395 . S
C1468 C1438 1.391 . S
C1469 C1431 1.389 . S
C1469 C1451 1.392 . S
C1470 C1441 1.392 . S
C1470 C1443 1.389 . S
C1471 C1446 1.395 . S
C1471 C1448 1.391 . S
H1472 C1432 0.951 . S
H1473 C1433 0.950 . S
H1474 C1439 0.949 . S
H1475 C1440 0.950 . S
H1476 C1444 0.951 . S
H1477 C1445 0.950 . S
H1478 C1449 0.949 . S
H1479 C1450 0.950 . S
H1480 C1454 0.950 . S
H1481 C1456 0.950 . S
H1482 C1459 0.950 . S
H1483 C1461 0.950 . S
C1484 C1485 1.443 . S
C1484 N1488 1.376 1_556 S
C1484 C1522 1.389 . S
C1485 C1484 1.443 . S
C1485 C1486 1.340 . S
C1485 H1525 0.951 . S
C1486 C1485 1.340 . S
C1486 C1487 1.439 1_556 S
C1486 H1526 0.950 . S
C1487 C1486 1.439 1_554 S
C1487 N1488 1.374 . S
C1487 C1521 1.395 . S
N1488 C1484 1.376 1_554 S
N1488 C1487 1.374 . S
N1488 Co1489 2.008 . S
Co1489 N1488 2.008 . S
Co1489 N1490 1.995 . S
Co1489 N1495 2.008 . S
Co1489 N1500 1.995 . S
Co1489 N1505 2.282 . S
Co1489 N1511 2.282 . S
N1490 Co1489 1.995 . S
N1490 C1491 1.376 . S
N1490 C1494 1.383 . S
C1491 N1490 1.376 . S
C1491 C1492 1.446 . S
C1491 C1521 1.391 . S
C1492 C1491 1.446 . S
C1492 C1493 1.339 . S
C1492 H1527 0.949 . S
C1493 C1492 1.339 . S
C1493 C1494 1.439 . S
C1493 H1528 0.950 . S
C1494 N1490 1.383 . S
C1494 C1493 1.439 . S
C1494 C1523 1.392 . S
N1495 Co1489 2.008 . S
N1495 C1496 1.376 . S
N1495 C1499 1.374 . S
C1496 N1495 1.376 . S
C1496 C1497 1.443 . S
C1496 C1523 1.389 . S
C1497 C1496 1.443 . S
C1497 C1498 1.340 . S
C1497 H1529 0.951 . S
C1498 C1497 1.340 . S
C1498 C1499 1.439 . S
C1498 H1530 0.950 . S
C1499 N1495 1.374 . S
C1499 C1498 1.439 . S
C1499 C1524 1.395 . S
N1500 Co1489 1.995 . S
N1500 C1501 1.376 . S
N1500 C1504 1.383 1_554 S
C1501 N1500 1.376 . S
C1501 C1502 1.446 1_554 S
C1501 C1524 1.391 . S
C1502 C1501 1.446 1_556 S
C1502 C1503 1.339 . S
C1502 H1531 0.949 . S
C1503 C1502 1.339 . S
C1503 C1504 1.439 . S
C1503 H1532 0.950 . S
C1504 N1500 1.383 1_556 S
C1504 C1503 1.439 . S
C1504 C1522 1.392 . S
N1505 Co1489 2.282 . S
N1505 C1508 1.332 . S
N1505 C1510 1.332 . S
C1506 C1507 1.386 . S
C1506 C1509 1.388 . S
C1507 C1506 1.386 . S
C1507 C1508 1.382 . S
C1507 H1533 0.950 . S
C1508 N1505 1.332 . S
C1508 C1507 1.382 . S
C1508 H1519 0.952 . S
C1509 C1506 1.388 . S
C1509 C1510 1.382 . S
C1509 H1534 0.950 . S
C1510 N1505 1.332 . S
C1510 C1509 1.382 . S
C1510 H1520 0.948 . S
N1511 Co1489 2.282 . S
N1511 C1515 1.332 . S
N1511 C1516 1.332 . S
C1512 C1513 1.388 . S
C1512 C1516 1.382 . S
C1512 H1535 0.950 1_554 S
C1513 C1512 1.388 . S
C1513 C1514 1.386 . S
C1514 C1513 1.386 . S
C1514 C1515 1.382 . S
C1514 H1536 0.950 . S
C1515 N1511 1.332 . S
C1515 C1514 1.382 . S
C1515 H1517 0.952 . S
C1516 N1511 1.332 . S
C1516 C1512 1.382 . S
C1516 H1518 0.948 . S
H1517 C1515 0.952 . S
H1518 C1516 0.948 . S
H1519 C1508 0.952 . S
H1520 C1510 0.948 . S
C1521 C1487 1.395 . S
C1521 C1491 1.391 . S
C1522 C1484 1.389 . S
C1522 C1504 1.392 . S
C1523 C1494 1.392 . S
C1523 C1496 1.389 . S
C1524 C1499 1.395 . S
C1524 C1501 1.391 . S
H1525 C1485 0.951 . S
H1526 C1486 0.950 . S
H1527 C1492 0.949 . S
H1528 C1493 0.950 . S
H1529 C1497 0.951 . S
H1530 C1498 0.950 . S
H1531 C1502 0.949 . S
H1532 C1503 0.950 . S
H1533 C1507 0.950 . S
H1534 C1509 0.950 . S
H1535 C1512 0.950 1_556 S
H1536 C1514 0.950 . S
C1537 C1538 1.443 . S
C1537 N1541 1.376 . S
C1537 C1575 1.389 . S
C1538 C1537 1.443 . S
C1538 C1539 1.340 . S
C1538 H1578 0.951 . S
C1539 C1538 1.340 . S
C1539 C1540 1.439 . S
C1539 H1579 0.950 . S
C1540 C1539 1.439 . S
C1540 N1541 1.374 . S
C1540 C1574 1.395 . S
N1541 C1537 1.376 . S
N1541 C1540 1.374 . S
N1541 Co1542 2.008 . S
Co1542 N1541 2.008 . S
Co1542 N1543 1.995 . S
Co1542 N1548 2.008 . S
Co1542 N1553 1.995 . S
Co1542 N1558 2.282 . S
Co1542 N1564 2.282 . S
N1543 Co1542 1.995 . S
N1543 C1544 1.376 . S
N1543 C1547 1.383 . S
C1544 N1543 1.376 . S
C1544 C1545 1.446 . S
C1544 C1574 1.391 . S
C1545 C1544 1.446 . S
C1545 C1546 1.339 . S
C1545 H1580 0.949 . S
C1546 C1545 1.339 . S
C1546 C1547 1.439 . S
C1546 H1581 0.950 . S
C1547 N1543 1.383 . S
C1547 C1546 1.439 . S
C1547 C1576 1.392 . S
N1548 Co1542 2.008 . S
N1548 C1549 1.376 . S
N1548 C1552 1.374 . S
C1549 N1548 1.376 . S
C1549 C1550 1.443 . S
C1549 C1576 1.389 . S
C1550 C1549 1.443 . S
C1550 C1551 1.340 . S
C1550 H1582 0.951 . S
C1551 C1550 1.340 . S
C1551 C1552 1.439 . S
C1551 H1583 0.950 . S
C1552 N1548 1.374 . S
C1552 C1551 1.439 . S
C1552 C1577 1.395 . S
N1553 Co1542 1.995 . S
N1553 C1554 1.376 . S
N1553 C1557 1.383 . S
C1554 N1553 1.376 . S
C1554 C1555 1.446 . S
C1554 C1577 1.391 . S
C1555 C1554 1.446 . S
C1555 C1556 1.339 . S
C1555 H1584 0.949 . S
C1556 C1555 1.339 . S
C1556 C1557 1.439 . S
C1556 H1585 0.950 . S
C1557 N1553 1.383 . S
C1557 C1556 1.439 . S
C1557 C1575 1.392 . S
N1558 Co1542 2.282 . S
N1558 C1561 1.332 . S
N1558 C1563 1.332 . S
C1559 C1560 1.386 . S
C1559 C1562 1.388 . S
C1560 C1559 1.386 . S
C1560 C1561 1.382 . S
C1560 H1586 0.950 . S
C1561 N1558 1.332 . S
C1561 C1560 1.382 . S
C1561 H1572 0.952 . S
C1562 C1559 1.388 . S
C1562 C1563 1.382 . S
C1562 H1587 0.950 . S
C1563 N1558 1.332 . S
C1563 C1562 1.382 . S
C1563 H1573 0.948 . S
N1564 Co1542 2.282 . S
N1564 C1568 1.332 . S
N1564 C1569 1.332 . S
C1565 C1566 1.388 . S
C1565 C1569 1.382 . S
C1565 H1588 0.950 . S
C1566 C1565 1.388 . S
C1566 C1567 1.386 . S
C1567 C1566 1.386 . S
C1567 C1568 1.382 . S
C1567 H1589 0.950 . S
C1568 N1564 1.332 . S
C1568 C1567 1.382 . S
C1568 H1570 0.952 . S
C1569 N1564 1.332 . S
C1569 C1565 1.382 . S
C1569 H1571 0.948 . S
H1570 C1568 0.952 . S
H1571 C1569 0.948 . S
H1572 C1561 0.952 . S
H1573 C1563 0.948 . S
C1574 C1540 1.395 . S
C1574 C1544 1.391 . S
C1575 C1537 1.389 . S
C1575 C1557 1.392 . S
C1576 C1547 1.392 . S
C1576 C1549 1.389 . S
C1577 C1552 1.395 . S
C1577 C1554 1.391 . S
H1578 C1538 0.951 . S
H1579 C1539 0.950 . S
H1580 C1545 0.949 . S
H1581 C1546 0.950 . S
H1582 C1550 0.951 . S
H1583 C1551 0.950 . S
H1584 C1555 0.949 . S
H1585 C1556 0.950 . S
H1586 C1560 0.950 . S
H1587 C1562 0.950 . S
H1588 C1565 0.950 . S
H1589 C1567 0.950 . S
C1590 C1591 1.443 . S
C1590 N1594 1.376 . S
C1590 C1628 1.389 . S
C1591 C1590 1.443 . S
C1591 C1592 1.340 . S
C1591 H1631 0.951 . S
C1592 C1591 1.340 . S
C1592 C1593 1.439 . S
C1592 H1632 0.950 . S
C1593 C1592 1.439 . S
C1593 N1594 1.374 . S
C1593 C1627 1.395 . S
N1594 C1590 1.376 . S
N1594 C1593 1.374 . S
N1594 Co1595 2.008 . S
Co1595 N1594 2.008 . S
Co1595 N1596 1.995 . S
Co1595 N1601 2.008 1_455 S
Co1595 N1606 1.995 1_455 S
Co1595 N1611 2.282 . S
Co1595 N1617 2.282 1_455 S
N1596 Co1595 1.995 . S
N1596 C1597 1.376 . S
N1596 C1600 1.383 . S
C1597 N1596 1.376 . S
C1597 C1598 1.446 . S
C1597 C1627 1.391 . S
C1598 C1597 1.446 . S
C1598 C1599 1.339 . S
C1598 H1633 0.949 . S
C1599 C1598 1.339 . S
C1599 C1600 1.439 . S
C1599 H1634 0.950 . S
C1600 N1596 1.383 . S
C1600 C1599 1.439 . S
C1600 C1629 1.392 . S
N1601 Co1595 2.008 1_655 S
N1601 C1602 1.376 . S
N1601 C1605 1.374 . S
C1602 N1601 1.376 . S
C1602 C1603 1.443 . S
C1602 C1629 1.389 1_655 S
C1603 C1602 1.443 . S
C1603 C1604 1.340 . S
C1603 H1635 0.951 . S
C1604 C1603 1.340 . S
C1604 C1605 1.439 . S
C1604 H1636 0.950 . S
C1605 N1601 1.374 . S
C1605 C1604 1.439 . S
C1605 C1630 1.395 . S
N1606 Co1595 1.995 1_655 S
N1606 C1607 1.376 . S
N1606 C1610 1.383 . S
C1607 N1606 1.376 . S
C1607 C1608 1.446 . S
C1607 C1630 1.391 . S
C1608 C1607 1.446 . S
C1608 C1609 1.339 . S
C1608 H1637 0.949 . S
C1609 C1608 1.339 . S
C1609 C1610 1.439 . S
C1609 H1638 0.950 . S
C1610 N1606 1.383 . S
C1610 C1609 1.439 . S
C1610 C1628 1.392 1_655 S
N1611 Co1595 2.282 . S
N1611 C1614 1.332 . S
N1611 C1616 1.332 . S
C1612 C1613 1.386 . S
C1612 C1615 1.388 . S
C1613 C1612 1.386 . S
C1613 C1614 1.382 . S
C1613 H1639 0.950 . S
C1614 N1611 1.332 . S
C1614 C1613 1.382 . S
C1614 H1625 0.952 . S
C1615 C1612 1.388 . S
C1615 C1616 1.382 . S
C1615 H1640 0.950 . S
C1616 N1611 1.332 . S
C1616 C1615 1.382 . S
C1616 H1626 0.948 . S
N1617 Co1595 2.282 1_655 S
N1617 C1621 1.332 1_655 S
N1617 C1622 1.332 . S
C1618 C1619 1.388 . S
C1618 C1622 1.382 . S
C1618 H1641 0.950 . S
C1619 C1618 1.388 . S
C1619 C1620 1.419 . S
C1620 C1619 1.419 . S
C1620 C1621 1.370 1_655 S
C1620 H1642 0.930 1_655 S
C1621 N1617 1.332 1_455 S
C1621 C1620 1.370 1_455 S
C1621 H1623 0.952 . S
C1622 N1617 1.332 . S
C1622 C1618 1.382 . S
C1622 H1624 0.948 . S
H1623 C1621 0.952 . S
H1624 C1622 0.948 . S
H1625 C1614 0.952 . S
H1626 C1616 0.948 . S
C1627 C1593 1.395 . S
C1627 C1597 1.391 . S
C1628 C1590 1.389 . S
C1628 C1610 1.392 1_455 S
C1629 C1600 1.392 . S
C1629 C1602 1.389 1_455 S
C1630 C1605 1.395 . S
C1630 C1607 1.391 . S
H1631 C1591 0.951 . S
H1632 C1592 0.950 . S
H1633 C1598 0.949 . S
H1634 C1599 0.950 . S
H1635 C1603 0.951 . S
H1636 C1604 0.950 . S
H1637 C1608 0.949 . S
H1638 C1609 0.950 . S
H1639 C1613 0.950 . S
H1640 C1615 0.950 . S
H1641 C1618 0.950 . S
H1642 C1620 0.930 1_455 S
C1643 C1644 1.443 . S
C1643 N1647 1.376 . S
C1643 C1681 1.389 . S
C1644 C1643 1.443 . S
C1644 C1645 1.340 . S
C1644 H1684 0.951 . S
C1645 C1644 1.340 . S
C1645 C1646 1.439 . S
C1645 H1685 0.950 . S
C1646 C1645 1.439 . S
C1646 N1647 1.374 . S
C1646 C1680 1.395 . S
N1647 C1643 1.376 . S
N1647 C1646 1.374 . S
N1647 Co1648 2.008 . S
Co1648 N1647 2.008 . S
Co1648 N1649 1.995 . S
Co1648 N1654 2.008 . S
Co1648 N1659 1.995 . S
Co1648 N1664 2.282 . S
Co1648 N1670 2.282 . S
N1649 Co1648 1.995 . S
N1649 C1650 1.376 . S
N1649 C1653 1.383 . S
C1650 N1649 1.376 . S
C1650 C1651 1.446 . S
C1650 C1680 1.391 . S
C1651 C1650 1.446 . S
C1651 C1652 1.339 . S
C1651 H1686 0.949 . S
C1652 C1651 1.339 . S
C1652 C1653 1.439 . S
C1652 H1687 0.950 . S
C1653 N1649 1.383 . S
C1653 C1652 1.439 . S
C1653 C1682 1.392 . S
N1654 Co1648 2.008 . S
N1654 C1655 1.376 . S
N1654 C1658 1.374 . S
C1655 N1654 1.376 . S
C1655 C1656 1.443 . S
C1655 C1682 1.389 . S
C1656 C1655 1.443 . S
C1656 C1657 1.340 . S
C1656 H1688 0.951 . S
C1657 C1656 1.340 . S
C1657 C1658 1.439 . S
C1657 H1689 0.950 . S
C1658 N1654 1.374 . S
C1658 C1657 1.439 . S
C1658 C1683 1.395 . S
N1659 Co1648 1.995 . S
N1659 C1660 1.376 . S
N1659 C1663 1.383 . S
C1660 N1659 1.376 . S
C1660 C1661 1.446 . S
C1660 C1683 1.391 . S
C1661 C1660 1.446 . S
C1661 C1662 1.339 . S
C1661 H1690 0.949 . S
C1662 C1661 1.339 . S
C1662 C1663 1.439 . S
C1662 H1691 0.950 . S
C1663 N1659 1.383 . S
C1663 C1662 1.439 . S
C1663 C1681 1.392 . S
N1664 Co1648 2.282 . S
N1664 C1667 1.332 . S
N1664 C1669 1.332 . S
C1665 C1666 1.386 . S
C1665 C1668 1.388 . S
C1666 C1665 1.386 . S
C1666 C1667 1.382 . S
C1666 H1692 0.950 . S
C1667 N1664 1.332 . S
C1667 C1666 1.382 . S
C1667 H1678 0.952 . S
C1668 C1665 1.388 . S
C1668 C1669 1.382 . S
C1668 H1693 0.950 . S
C1669 N1664 1.332 . S
C1669 C1668 1.382 . S
C1669 H1679 0.948 . S
N1670 Co1648 2.282 . S
N1670 C1674 1.332 . S
N1670 C1675 1.332 . S
C1671 C1672 1.388 . S
C1671 C1675 1.382 . S
C1671 H1694 0.950 . S
C1672 C1671 1.388 . S
C1672 C1673 1.386 . S
C1673 C1672 1.386 . S
C1673 C1674 1.382 . S
C1673 H1695 0.950 . S
C1674 N1670 1.332 . S
C1674 C1673 1.382 . S
C1674 H1676 0.952 . S
C1675 N1670 1.332 . S
C1675 C1671 1.382 . S
C1675 H1677 0.948 . S
H1676 C1674 0.952 . S
H1677 C1675 0.948 . S
H1678 C1667 0.952 . S
H1679 C1669 0.948 . S
C1680 C1646 1.395 . S
C1680 C1650 1.391 . S
C1681 C1643 1.389 . S
C1681 C1663 1.392 . S
C1682 C1653 1.392 . S
C1682 C1655 1.389 . S
C1683 C1658 1.395 . S
C1683 C1660 1.391 . S
H1684 C1644 0.951 . S
H1685 C1645 0.950 . S
H1686 C1651 0.949 . S
H1687 C1652 0.950 . S
H1688 C1656 0.951 . S
H1689 C1657 0.950 . S
H1690 C1661 0.949 . S
H1691 C1662 0.950 . S
H1692 C1666 0.950 . S
H1693 C1668 0.950 . S
H1694 C1671 0.950 . S
H1695 C1673 0.950 . S
C1696 C1697 1.387 . S
C1696 H1700 0.950 . S
C1696 C1705 1.389 . S
C1697 C1696 1.387 . S
C1697 C1699 1.387 . S
H1698 C1705 0.949 1_455 S
C1699 C1697 1.387 . S
C1699 C1701 1.390 1_655 S
C1699 H1703 0.950 . S
H1700 C1696 0.950 . S
C1701 C1699 1.390 1_455 S
C1701 C1702 1.387 . S
C1701 H1704 0.950 . S
C1702 C1701 1.387 . S
C1702 C1705 1.389 1_455 S
H1703 C1699 0.950 . S
H1704 C1701 0.950 . S
C1705 C1696 1.389 . S
C1705 H1698 0.949 1_655 S
C1705 C1702 1.389 1_655 S
C1706 C1707 1.387 . S
C1706 H1710 0.950 . S
C1706 C1715 1.390 . S
C1707 C1706 1.387 . S
C1707 C1709 1.387 . S
H1708 C1715 0.950 . S
C1709 C1707 1.387 . S
C1709 C1711 1.390 . S
C1709 H1713 0.950 1_554 S
H1710 C1706 0.950 . S
C1711 C1709 1.390 . S
C1711 C1712 1.387 . S
C1711 H1714 0.950 . S
C1712 C1711 1.387 . S
C1712 C1715 1.387 . S
H1713 C1709 0.950 1_556 S
H1714 C1711 0.950 . S
C1715 C1706 1.390 . S
C1715 H1708 0.950 . S
C1715 C1712 1.387 . S
C1716 C1717 1.387 . S
C1716 H1720 0.950 . S
C1716 C1725 1.390 . S
C1717 C1716 1.387 . S
C1717 C1719 1.387 . S
H1718 C1725 0.950 . S
C1719 C1717 1.387 . S
C1719 C1721 1.390 . S
C1719 H1723 0.950 . S
H1720 C1716 0.950 . S
C1721 C1719 1.390 . S
C1721 C1722 1.387 . S
C1721 H1724 0.950 . S
C1722 C1721 1.387 . S
C1722 C1725 1.387 . S
H1723 C1719 0.950 . S
H1724 C1721 0.950 . S
C1725 C1716 1.390 . S
C1725 H1718 0.950 . S
C1725 C1722 1.387 . S
C1726 C1727 1.387 . S
C1726 H1730 0.950 . S
C1726 C1735 1.390 . S
C1727 C1726 1.387 . S
C1727 C1729 1.387 . S
H1728 C1735 0.950 . S
C1729 C1727 1.387 . S
C1729 C1731 1.390 . S
C1729 H1733 0.950 . S
H1730 C1726 0.950 . S
C1731 C1729 1.390 . S
C1731 C1732 1.387 . S
C1731 H1734 0.950 . S
C1732 C1731 1.387 . S
C1732 C1735 1.387 . S
H1733 C1729 0.950 . S
H1734 C1731 0.950 . S
C1735 C1726 1.390 . S
C1735 H1728 0.950 . S
C1735 C1732 1.387 . S
C1736 C1737 1.387 . S
C1736 H1740 0.950 . S
C1736 C1745 1.392 1_655 S
C1737 C1736 1.387 . S
C1737 C1739 1.387 . S
H1738 C1745 0.948 . S
C1739 C1737 1.387 . S
C1739 C1741 1.390 1_655 S
C1739 H1743 0.950 . S
H1740 C1736 0.950 . S
C1741 C1739 1.390 1_455 S
C1741 C1742 1.387 . S
C1741 H1744 0.950 . S
C1742 C1741 1.387 . S
C1742 C1745 1.386 . S
H1743 C1739 0.950 . S
H1744 C1741 0.950 . S
C1745 C1736 1.392 1_455 S
C1745 H1738 0.948 . S
C1745 C1742 1.386 . S
C1746 C1747 1.387 . S
C1746 H1750 0.950 . S
C1746 C1755 1.390 . S
C1747 C1746 1.387 . S
C1747 C1749 1.387 . S
H1748 C1755 0.950 . S
C1749 C1747 1.387 . S
C1749 C1751 1.390 . S
C1749 H1753 0.950 . S
H1750 C1746 0.950 . S
C1751 C1749 1.390 . S
C1751 C1752 1.387 . S
C1751 H1754 0.950 . S
C1752 C1751 1.387 . S
C1752 C1755 1.387 . S
H1753 C1749 0.950 . S
H1754 C1751 0.950 . S
C1755 C1746 1.390 . S
C1755 H1748 0.950 . S
C1755 C1752 1.387 . S
C1756 C1757 1.387 . S
C1756 H1760 0.950 . S
C1756 C1765 1.390 . S
C1757 C1756 1.387 . S
C1757 C1759 1.387 . S
H1758 C1765 0.950 . S
C1759 C1757 1.387 . S
C1759 C1761 1.390 . S
C1759 H1763 0.950 . S
H1760 C1756 0.950 . S
C1761 C1759 1.390 . S
C1761 C1762 1.387 . S
C1761 H1764 0.950 . S
C1762 C1761 1.387 . S
C1762 C1765 1.387 . S
H1763 C1759 0.950 . S
H1764 C1761 0.950 . S
C1765 C1756 1.390 . S
C1765 H1758 0.950 . S
C1765 C1762 1.387 . S
C1766 C1767 1.387 . S
C1766 H1770 0.950 . S
C1766 C1775 1.390 . S
C1767 C1766 1.387 . S
C1767 C1769 1.387 . S
H1768 C1775 0.950 . S
C1769 C1767 1.387 . S
C1769 C1771 1.390 . S
C1769 H1773 0.950 . S
H1770 C1766 0.950 . S
C1771 C1769 1.390 . S
C1771 C1772 1.387 . S
C1771 H1774 0.950 . S
C1772 C1771 1.387 . S
C1772 C1775 1.387 . S
H1773 C1769 0.950 . S
H1774 C1771 0.950 . S
C1775 C1766 1.390 . S
C1775 H1768 0.950 . S
C1775 C1772 1.387 . S
C1776 C1777 1.367 1_655 S
C1776 H1780 0.956 . S
C1776 C1785 1.407 . S
C1777 C1776 1.367 1_455 S
C1777 C1779 1.387 . S
H1778 C1785 0.950 . S
C1779 C1777 1.387 . S
C1779 C1781 1.390 . S
C1779 H1783 0.950 . S
H1780 C1776 0.956 . S
C1781 C1779 1.390 . S
C1781 C1782 1.387 1_455 S
C1781 H1784 0.950 . S
C1782 C1781 1.387 1_655 S
C1782 C1785 1.387 . S
H1783 C1779 0.950 . S
H1784 C1781 0.950 . S
C1785 C1776 1.407 . S
C1785 H1778 0.950 . S
C1785 C1782 1.387 . S
C1786 C1787 1.387 . S
C1786 H1790 0.950 . S
C1786 C1795 1.390 . S
C1787 C1786 1.387 . S
C1787 C1789 1.387 . S
H1788 C1795 0.950 . S
C1789 C1787 1.387 . S
C1789 C1791 1.390 . S
C1789 H1793 0.950 . S
H1790 C1786 0.950 . S
C1791 C1789 1.390 . S
C1791 C1792 1.387 . S
C1791 H1794 0.950 . S
C1792 C1791 1.387 . S
C1792 C1795 1.387 . S
H1793 C1789 0.950 . S
H1794 C1791 0.950 . S
C1795 C1786 1.390 . S
C1795 H1788 0.950 . S
C1795 C1792 1.387 . S
C1796 C1797 1.387 . S
C1796 H1800 0.950 . S
C1796 C1805 1.390 . S
C1797 C1796 1.387 . S
C1797 C1799 1.387 . S
H1798 C1805 0.950 . S
C1799 C1797 1.387 . S
C1799 C1801 1.390 . S
C1799 H1803 0.950 . S
H1800 C1796 0.950 . S
C1801 C1799 1.390 . S
C1801 C1802 1.387 . S
C1801 H1804 0.950 . S
C1802 C1801 1.387 . S
C1802 C1805 1.387 . S
H1803 C1799 0.950 . S
H1804 C1801 0.950 . S
C1805 C1796 1.390 . S
C1805 H1798 0.950 . S
C1805 C1802 1.387 . S
C1806 C1807 1.387 . S
C1806 H1810 0.950 . S
C1806 C1815 1.390 . S
C1807 C1806 1.387 . S
C1807 C1809 1.387 . S
H1808 C1815 0.950 . S
C1809 C1807 1.387 . S
C1809 C1811 1.390 . S
C1809 H1813 0.950 . S
H1810 C1806 0.950 . S
C1811 C1809 1.390 . S
C1811 C1812 1.387 . S
C1811 H1814 0.950 . S
C1812 C1811 1.387 . S
C1812 C1815 1.387 . S
H1813 C1809 0.950 . S
H1814 C1811 0.950 . S
C1815 C1806 1.390 . S
C1815 H1808 0.950 . S
C1815 C1812 1.387 . S
C1816 C1817 1.387 . S
C1816 H1820 0.950 . S
C1816 C1825 1.390 1_655 S
C1817 C1816 1.387 . S
C1817 C1819 1.387 . S
H1818 C1825 0.950 . S
C1819 C1817 1.387 . S
C1819 C1821 1.390 1_655 S
C1819 H1823 0.950 . S
H1820 C1816 0.950 . S
C1821 C1819 1.390 1_455 S
C1821 C1822 1.387 . S
C1821 H1824 0.950 . S
C1822 C1821 1.387 . S
C1822 C1825 1.387 . S
H1823 C1819 0.950 . S
H1824 C1821 0.950 . S
C1825 C1816 1.390 1_455 S
C1825 H1818 0.950 . S
C1825 C1822 1.387 . S
C1826 C1827 1.387 . S
C1826 H1830 0.950 . S
C1826 C1835 1.390 . S
C1827 C1826 1.387 . S
C1827 C1829 1.387 . S
H1828 C1835 0.957 . S
C1829 C1827 1.387 . S
C1829 C1831 1.390 . S
C1829 H1833 0.950 . S
H1830 C1826 0.950 . S
C1831 C1829 1.390 . S
C1831 C1832 1.387 . S
C1831 H1834 0.950 . S
C1832 C1831 1.387 . S
C1832 C1835 1.387 . S
H1833 C1829 0.950 . S
H1834 C1831 0.950 . S
C1835 C1826 1.390 . S
C1835 H1828 0.957 . S
C1835 C1832 1.387 . S
C1836 C1837 1.387 . S
C1836 H1840 0.950 . S
C1836 C1845 1.390 . S
C1837 C1836 1.387 . S
C1837 C1839 1.387 . S
H1838 C1845 0.950 . S
C1839 C1837 1.387 . S
C1839 C1841 1.390 . S
C1839 H1843 0.950 . S
H1840 C1836 0.950 . S
C1841 C1839 1.390 . S
C1841 C1842 1.387 . S
C1841 H1844 0.950 . S
C1842 C1841 1.387 . S
C1842 C1845 1.387 . S
H1843 C1839 0.950 . S
H1844 C1841 0.950 . S
C1845 C1836 1.390 . S
C1845 H1838 0.950 . S
C1845 C1842 1.387 . S
C1846 C1847 1.387 . S
C1846 H1850 0.950 . S
C1846 C1855 1.390 . S
C1847 C1846 1.387 . S
C1847 C1849 1.387 . S
H1848 C1855 0.950 . S
C1849 C1847 1.387 . S
C1849 C1851 1.390 . S
C1849 H1853 0.950 . S
H1850 C1846 0.950 . S
C1851 C1849 1.390 . S
C1851 C1852 1.387 . S
C1851 H1854 0.950 . S
C1852 C1851 1.387 . S
C1852 C1855 1.387 . S
H1853 C1849 0.950 . S
H1854 C1851 0.950 . S
C1855 C1846 1.390 . S
C1855 H1848 0.950 . S
C1855 C1852 1.387 . S
C1856 C1857 1.387 . S
C1856 H1860 0.950 . S
C1856 C1865 1.390 . S
C1857 C1856 1.387 . S
C1857 C1859 1.387 . S
H1858 C1865 0.950 . S
C1859 C1857 1.387 . S
C1859 C1861 1.390 . S
C1859 H1863 0.950 . S
H1860 C1856 0.950 . S
C1861 C1859 1.390 . S
C1861 C1862 1.387 . S
C1861 H1864 0.950 . S
C1862 C1861 1.387 . S
C1862 C1865 1.387 . S
H1863 C1859 0.950 . S
H1864 C1861 0.950 . S
C1865 C1856 1.390 . S
C1865 H1858 0.950 . S
C1865 C1862 1.387 . S
C1866 C1867 1.387 . S
C1866 H1870 0.950 . S
C1866 C1875 1.390 . S
C1867 C1866 1.387 . S
C1867 C1869 1.387 . S
H1868 C1875 0.950 . S
C1869 C1867 1.387 . S
C1869 C1871 1.390 . S
C1869 H1873 0.950 . S
H1870 C1866 0.950 . S
C1871 C1869 1.390 . S
C1871 C1872 1.387 . S
C1871 H1874 0.950 . S
C1872 C1871 1.387 . S
C1872 C1875 1.387 . S
H1873 C1869 0.950 . S
H1874 C1871 0.950 . S
C1875 C1866 1.390 . S
C1875 H1868 0.950 . S
C1875 C1872 1.387 . S
C1876 C1877 1.387 . S
C1876 H1880 0.950 . S
C1876 C1885 1.390 1_455 S
C1877 C1876 1.387 . S
C1877 C1879 1.387 . S
H1878 C1885 0.950 . S
C1879 C1877 1.387 . S
C1879 C1881 1.390 1_455 S
C1879 H1883 0.950 . S
H1880 C1876 0.950 . S
C1881 C1879 1.390 1_655 S
C1881 C1882 1.387 . S
C1881 H1884 0.950 . S
C1882 C1881 1.387 . S
C1882 C1885 1.387 . S
H1883 C1879 0.950 . S
H1884 C1881 0.950 . S
C1885 C1876 1.390 1_655 S
C1885 H1878 0.950 . S
C1885 C1882 1.387 . S
C1886 C1887 1.387 . S
C1886 H1890 0.950 . S
C1886 C1895 1.390 . S
C1887 C1886 1.387 . S
C1887 C1889 1.387 . S
H1888 C1895 0.950 . S
C1889 C1887 1.387 . S
C1889 C1891 1.390 . S
C1889 H1893 0.950 . S
H1890 C1886 0.950 . S
C1891 C1889 1.390 . S
C1891 C1892 1.387 . S
C1891 H1894 0.950 . S
C1892 C1891 1.387 . S
C1892 C1895 1.387 . S
H1893 C1889 0.950 . S
H1894 C1891 0.950 . S
C1895 C1886 1.390 . S
C1895 H1888 0.950 . S
C1895 C1892 1.387 . S
C1896 C1897 1.387 . S
C1896 H1900 0.950 . S
C1896 C1905 1.390 . S
C1897 C1896 1.387 . S
C1897 C1899 1.387 . S
H1898 C1905 0.950 . S
C1899 C1897 1.387 . S
C1899 C1901 1.390 . S
C1899 H1903 0.950 . S
H1900 C1896 0.950 . S
C1901 C1899 1.390 . S
C1901 C1902 1.387 . S
C1901 H1904 0.950 . S
C1902 C1901 1.387 . S
C1902 C1905 1.387 . S
H1903 C1899 0.950 . S
H1904 C1901 0.950 . S
C1905 C1896 1.390 . S
C1905 H1898 0.950 . S
C1905 C1902 1.387 . S
C1906 C1907 1.387 . S
C1906 H1910 0.950 . S
C1906 C1915 1.390 . S
C1907 C1906 1.387 . S
C1907 C1909 1.387 . S
H1908 C1915 0.950 . S
C1909 C1907 1.387 . S
C1909 C1911 1.390 . S
C1909 H1913 0.950 . S
H1910 C1906 0.950 . S
C1911 C1909 1.390 . S
C1911 C1912 1.387 . S
C1911 H1914 0.950 . S
C1912 C1911 1.387 . S
C1912 C1915 1.387 . S
H1913 C1909 0.950 . S
H1914 C1911 0.950 . S
C1915 C1906 1.390 . S
C1915 H1908 0.950 . S
C1915 C1912 1.387 . S
C1916 C1917 1.387 . S
C1916 H1920 0.950 . S
C1916 C1925 1.390 1_455 S
C1917 C1916 1.387 . S
C1917 C1919 1.387 . S
H1918 C1925 0.950 . S
C1919 C1917 1.387 . S
C1919 C1921 1.390 1_455 S
C1919 H1923 0.950 . S
H1920 C1916 0.950 . S
C1921 C1919 1.390 1_655 S
C1921 C1922 1.387 . S
C1921 H1924 0.950 . S
C1922 C1921 1.387 . S
C1922 C1925 1.387 . S
H1923 C1919 0.950 . S
H1924 C1921 0.950 . S
C1925 C1916 1.390 1_655 S
C1925 H1918 0.950 . S
C1925 C1922 1.387 . S
C1926 C1927 1.387 . S
C1926 H1930 0.950 . S
C1926 C1935 1.390 . S
C1927 C1926 1.387 . S
C1927 C1929 1.387 . S
H1928 C1935 0.950 . S
C1929 C1927 1.387 . S
C1929 C1931 1.390 . S
C1929 H1933 0.950 . S
H1930 C1926 0.950 . S
C1931 C1929 1.390 . S
C1931 C1932 1.387 . S
C1931 H1934 0.950 . S
C1932 C1931 1.387 . S
C1932 C1935 1.387 . S
H1933 C1929 0.950 . S
H1934 C1931 0.950 . S
C1935 C1926 1.390 . S
C1935 H1928 0.950 . S
C1935 C1932 1.387 . S
C1936 C1937 1.387 . S
C1936 H1940 0.950 . S
C1936 C1945 1.390 . S
C1937 C1936 1.387 . S
C1937 C1939 1.387 . S
H1938 C1945 0.950 . S
C1939 C1937 1.387 . S
C1939 C1941 1.390 . S
C1939 H1943 0.950 . S
H1940 C1936 0.950 . S
C1941 C1939 1.390 . S
C1941 C1942 1.387 . S
C1941 H1944 0.950 . S
C1942 C1941 1.387 . S
C1942 C1945 1.387 . S
H1943 C1939 0.950 . S
H1944 C1941 0.950 . S
C1945 C1936 1.390 . S
C1945 H1938 0.950 . S
C1945 C1942 1.387 . S
C1946 C1947 1.387 . S
C1946 H1950 0.950 . S
C1946 C1955 1.390 . S
C1947 C1946 1.387 . S
C1947 C1949 1.387 . S
H1948 C1955 0.950 . S
C1949 C1947 1.387 . S
C1949 C1951 1.390 . S
C1949 H1953 0.950 . S
H1950 C1946 0.950 . S
C1951 C1949 1.390 . S
C1951 C1952 1.387 . S
C1951 H1954 0.950 . S
C1952 C1951 1.387 . S
C1952 C1955 1.387 . S
H1953 C1949 0.950 . S
H1954 C1951 0.950 . S
C1955 C1946 1.390 . S
C1955 H1948 0.950 . S
C1955 C1952 1.387 . S
C1956 C1957 1.383 1_655 S
C1956 H1960 0.949 1_655 S
C1956 C1965 1.396 . S
C1957 C1956 1.383 1_455 S
C1957 C1959 1.387 . S
H1958 C1965 0.950 . S
C1959 C1957 1.387 . S
C1959 C1961 1.390 1_455 S
C1959 H1963 0.950 . S
H1960 C1956 0.949 1_455 S
C1961 C1959 1.390 1_655 S
C1961 C1962 1.387 . S
C1961 H1964 0.950 . S
C1962 C1961 1.387 . S
C1962 C1965 1.387 . S
H1963 C1959 0.950 . S
H1964 C1961 0.950 . S
C1965 C1956 1.396 . S
C1965 H1958 0.950 . S
C1965 C1962 1.387 . S
C1966 C1967 1.387 . S
C1966 H1970 0.950 . S
C1966 C1975 1.390 . S
C1967 C1966 1.387 . S
C1967 C1969 1.387 . S
H1968 C1975 0.950 . S
C1969 C1967 1.387 . S
C1969 C1971 1.390 . S
C1969 H1973 0.950 . S
H1970 C1966 0.950 . S
C1971 C1969 1.390 . S
C1971 C1972 1.387 . S
C1971 H1974 0.950 . S
C1972 C1971 1.387 . S
C1972 C1975 1.387 . S
H1973 C1969 0.950 . S
H1974 C1971 0.950 . S
C1975 C1966 1.390 . S
C1975 H1968 0.950 . S
C1975 C1972 1.387 . S
C1976 C1977 1.387 . S
C1976 H1980 0.950 . S
C1976 C1985 1.390 . S
C1977 C1976 1.387 . S
C1977 C1979 1.387 . S
H1978 C1985 0.950 . S
C1979 C1977 1.387 . S
C1979 C1981 1.390 . S
C1979 H1983 0.950 . S
H1980 C1976 0.950 . S
C1981 C1979 1.390 . S
C1981 C1982 1.387 . S
C1981 H1984 0.950 . S
C1982 C1981 1.387 . S
C1982 C1985 1.387 . S
H1983 C1979 0.950 . S
H1984 C1981 0.950 . S
C1985 C1976 1.390 . S
C1985 H1978 0.950 . S
C1985 C1982 1.387 . S
C1986 C1987 1.387 . S
C1986 H1990 0.950 . S
C1986 C1995 1.390 . S
C1987 C1986 1.387 . S
C1987 C1989 1.387 . S
H1988 C1995 0.950 . S
C1989 C1987 1.387 . S
C1989 C1991 1.390 . S
C1989 H1993 0.950 . S
H1990 C1986 0.950 . S
C1991 C1989 1.390 . S
C1991 C1992 1.387 . S
C1991 H1994 0.950 . S
C1992 C1991 1.387 . S
C1992 C1995 1.387 . S
H1993 C1989 0.950 . S
H1994 C1991 0.950 . S
C1995 C1986 1.390 . S
C1995 H1988 0.950 . S
C1995 C1992 1.387 . S
C1996 C1997 1.387 . S
C1996 H2000 0.950 . S
C1996 C2005 1.390 1_655 S
C1997 C1996 1.387 . S
C1997 C1999 1.387 . S
H1998 C2005 0.950 . S
C1999 C1997 1.387 . S
C1999 C2001 1.391 . S
C1999 H2003 0.950 . S
H2000 C1996 0.950 . S
C2001 C1999 1.391 . S
C2001 C2002 1.387 1_655 S
C2001 H2004 0.949 1_655 S
C2002 C2001 1.387 1_455 S
C2002 C2005 1.387 . S
H2003 C1999 0.950 . S
H2004 C2001 0.949 1_455 S
C2005 C1996 1.390 1_455 S
C2005 H1998 0.950 . S
C2005 C2002 1.387 . S
C2006 C2007 1.387 . S
C2006 H2010 0.950 . S
C2006 C2015 1.390 . S
C2007 C2006 1.387 . S
C2007 C2009 1.387 . S
H2008 C2015 0.950 . S
C2009 C2007 1.387 . S
C2009 C2011 1.390 . S
C2009 H2013 0.950 . S
H2010 C2006 0.950 . S
C2011 C2009 1.390 . S
C2011 C2012 1.387 . S
C2011 H2014 0.950 . S
C2012 C2011 1.387 . S
C2012 C2015 1.387 . S
H2013 C2009 0.950 . S
H2014 C2011 0.950 . S
C2015 C2006 1.390 . S
C2015 H2008 0.950 . S
C2015 C2012 1.387 . S
C2016 C2017 1.387 1_556 S
C2016 H2020 0.950 . S
C2016 C2025 1.390 1_645 S
C2017 C2016 1.387 1_554 S
C2017 C2019 1.387 . S
H2018 C2025 0.950 . S
C2019 C2017 1.387 . S
C2019 C2021 1.390 1_645 S
C2019 H2023 0.950 . S
H2020 C2016 0.950 . S
C2021 C2019 1.390 1_465 S
C2021 C2022 1.387 1_554 S
C2021 H2024 0.950 . S
C2022 C2021 1.387 1_556 S
C2022 C2025 1.387 . S
H2023 C2019 0.950 . S
H2024 C2021 0.950 . S
C2025 C2016 1.390 1_465 S
C2025 H2018 0.950 . S
C2025 C2022 1.387 . S
C2026 C2027 1.387 . S
C2026 H2030 0.950 . S
C2026 C2035 1.390 . S
C2027 C2026 1.387 . S
C2027 C2029 1.387 . S
H2028 C2035 0.950 . S
C2029 C2027 1.387 . S
C2029 C2031 1.390 . S
C2029 H2033 0.950 . S
H2030 C2026 0.950 . S
C2031 C2029 1.390 . S
C2031 C2032 1.387 . S
C2031 H2034 0.950 . S
C2032 C2031 1.387 . S
C2032 C2035 1.387 . S
H2033 C2029 0.950 . S
H2034 C2031 0.950 . S
C2035 C2026 1.390 . S
C2035 H2028 0.950 . S
C2035 C2032 1.387 . S
C2036 C2037 1.387 . S
C2036 H2040 0.950 . S
C2036 C2045 1.390 1_545 S
C2037 C2036 1.387 . S
C2037 C2039 1.387 . S
H2038 C2045 0.950 . S
C2039 C2037 1.387 . S
C2039 C2041 1.390 1_545 S
C2039 H2043 0.950 . S
H2040 C2036 0.950 . S
C2041 C2039 1.390 1_565 S
C2041 C2042 1.387 . S
C2041 H2044 0.950 . S
C2042 C2041 1.387 . S
C2042 C2045 1.387 . S
H2043 C2039 0.950 . S
H2044 C2041 0.950 . S
C2045 C2036 1.390 1_565 S
C2045 H2038 0.950 . S
C2045 C2042 1.387 . S
C2046 C2047 1.387 . S
C2046 H2050 0.950 . S
C2046 C2055 1.390 . S
C2047 C2046 1.387 . S
C2047 C2049 1.387 . S
H2048 C2055 0.950 . S
C2049 C2047 1.387 . S
C2049 C2051 1.390 . S
C2049 H2053 0.950 . S
H2050 C2046 0.950 . S
C2051 C2049 1.390 . S
C2051 C2052 1.387 . S
C2051 H2054 0.950 . S
C2052 C2051 1.387 . S
C2052 C2055 1.387 . S
H2053 C2049 0.950 . S
H2054 C2051 0.950 . S
C2055 C2046 1.390 . S
C2055 H2048 0.950 . S
C2055 C2052 1.387 . S
C2056 C2057 1.387 . S
C2056 H2060 0.950 . S
C2056 C2065 1.390 1_665 S
C2057 C2056 1.387 . S
C2057 C2059 1.387 . S
H2058 C2065 0.950 . S
C2059 C2057 1.387 . S
C2059 C2061 1.390 1_665 S
C2059 H2063 0.950 . S
H2060 C2056 0.950 . S
C2061 C2059 1.390 1_445 S
C2061 C2062 1.387 . S
C2061 H2064 0.950 . S
C2062 C2061 1.387 . S
C2062 C2065 1.387 . S
H2063 C2059 0.950 . S
H2064 C2061 0.950 . S
C2065 C2056 1.390 1_445 S
C2065 H2058 0.950 . S
C2065 C2062 1.387 . S
C2066 C2067 1.387 . S
C2066 H2070 0.950 . S
C2066 C2075 1.390 . S
C2067 C2066 1.387 . S
C2067 C2069 1.387 . S
H2068 C2075 0.950 . S
C2069 C2067 1.387 . S
C2069 C2071 1.390 . S
C2069 H2073 0.950 . S
H2070 C2066 0.950 . S
C2071 C2069 1.390 . S
C2071 C2072 1.387 . S
C2071 H2074 0.950 . S
C2072 C2071 1.387 . S
C2072 C2075 1.387 . S
H2073 C2069 0.950 . S
H2074 C2071 0.950 . S
C2075 C2066 1.390 . S
C2075 H2068 0.950 . S
C2075 C2072 1.387 . S
C2076 C2077 1.387 . S
C2076 H2080 0.950 . S
C2076 C2085 1.390 1_565 S
C2077 C2076 1.387 . S
C2077 C2079 1.387 1_554 S
H2078 C2085 0.950 . S
C2079 C2077 1.387 1_556 S
C2079 C2081 1.390 1_565 S
C2079 H2083 0.950 . S
H2080 C2076 0.950 . S
C2081 C2079 1.390 1_545 S
C2081 C2082 1.387 . S
C2081 H2084 0.950 . S
C2082 C2081 1.387 . S
C2082 C2085 1.387 1_556 S
H2083 C2079 0.950 . S
H2084 C2081 0.950 . S
C2085 C2076 1.390 1_545 S
C2085 H2078 0.950 . S
C2085 C2082 1.387 1_554 S
C2086 C2087 1.387 . S
C2086 H2090 0.950 . S
C2086 C2095 1.390 . S
C2087 C2086 1.387 . S
C2087 C2089 1.387 . S
H2088 C2095 0.950 . S
C2089 C2087 1.387 . S
C2089 C2091 1.390 . S
C2089 H2093 0.950 . S
H2090 C2086 0.950 . S
C2091 C2089 1.390 . S
C2091 C2092 1.387 . S
C2091 H2094 0.950 . S
C2092 C2091 1.387 . S
C2092 C2095 1.387 . S
H2093 C2089 0.950 . S
H2094 C2091 0.950 . S
C2095 C2086 1.390 . S
C2095 H2088 0.950 . S
C2095 C2092 1.387 . S
C2096 C2097 1.387 . S
C2096 H2100 0.950 . S
C2096 C2105 1.390 . S
C2097 C2096 1.387 . S
C2097 C2099 1.387 . S
H2098 C2105 0.950 . S
C2099 C2097 1.387 . S
C2099 C2101 1.390 . S
C2099 H2103 0.950 . S
H2100 C2096 0.950 . S
C2101 C2099 1.390 . S
C2101 C2102 1.387 . S
C2101 H2104 0.950 . S
C2102 C2101 1.387 . S
C2102 C2105 1.387 . S
H2103 C2099 0.950 . S
H2104 C2101 0.950 . S
C2105 C2096 1.390 . S
C2105 H2098 0.950 . S
C2105 C2102 1.387 . S
C2106 C2107 1.387 . S
C2106 H2110 0.950 . S
C2106 C2115 1.390 . S
C2107 C2106 1.387 . S
C2107 C2109 1.387 . S
H2108 C2115 0.950 . S
C2109 C2107 1.387 . S
C2109 C2111 1.390 . S
C2109 H2113 0.950 . S
H2110 C2106 0.950 . S
C2111 C2109 1.390 . S
C2111 C2112 1.387 . S
C2111 H2114 0.950 . S
C2112 C2111 1.387 . S
C2112 C2115 1.387 . S
H2113 C2109 0.950 . S
H2114 C2111 0.950 . S
C2115 C2106 1.390 . S
C2115 H2108 0.950 . S
C2115 C2112 1.387 . S
C2116 C2117 1.387 . S
C2116 H2120 0.950 . S
C2116 C2125 1.390 . S
C2117 C2116 1.387 . S
C2117 C2119 1.387 . S
H2118 C2125 0.950 . S
C2119 C2117 1.387 . S
C2119 C2121 1.390 . S
C2119 H2123 0.950 . S
H2120 C2116 0.950 . S
C2121 C2119 1.390 . S
C2121 C2122 1.387 . S
C2121 H2124 0.950 . S
C2122 C2121 1.387 . S
C2122 C2125 1.387 . S
H2123 C2119 0.950 . S
H2124 C2121 0.950 . S
C2125 C2116 1.390 . S
C2125 H2118 0.950 . S
C2125 C2122 1.387 . S
C2126 C2127 1.387 . S
C2126 H2130 0.950 . S
C2126 C2135 1.390 . S
C2127 C2126 1.387 . S
C2127 C2129 1.387 . S
H2128 C2135 0.950 . S
C2129 C2127 1.387 . S
C2129 C2131 1.390 . S
C2129 H2133 0.950 . S
H2130 C2126 0.950 . S
C2131 C2129 1.390 . S
C2131 C2132 1.387 . S
C2131 H2134 0.950 . S
C2132 C2131 1.387 . S
C2132 C2135 1.387 . S
H2133 C2129 0.950 . S
H2134 C2131 0.950 . S
C2135 C2126 1.390 . S
C2135 H2128 0.950 . S
C2135 C2132 1.387 . S
C2136 C2137 1.387 . S
C2136 H2140 0.950 . S
C2136 C2145 1.390 . S
C2137 C2136 1.387 . S
C2137 C2139 1.387 . S
H2138 C2145 0.950 . S
C2139 C2137 1.387 . S
C2139 C2141 1.390 . S
C2139 H2143 0.950 . S
H2140 C2136 0.950 . S
C2141 C2139 1.390 . S
C2141 C2142 1.387 . S
C2141 H2144 0.950 . S
C2142 C2141 1.387 . S
C2142 C2145 1.387 . S
H2143 C2139 0.950 . S
H2144 C2141 0.950 . S
C2145 C2136 1.390 . S
C2145 H2138 0.950 . S
C2145 C2142 1.387 . S
C2146 C2147 1.387 1_556 S
C2146 H2150 0.950 . S
C2146 C2155 1.390 1_455 S
C2147 C2146 1.387 1_554 S
C2147 C2149 1.387 . S
H2148 C2155 0.950 . S
C2149 C2147 1.387 . S
C2149 C2151 1.390 1_455 S
C2149 H2153 0.950 . S
H2150 C2146 0.950 . S
C2151 C2149 1.390 1_655 S
C2151 C2152 1.387 1_554 S
C2151 H2154 0.950 . S
C2152 C2151 1.387 1_556 S
C2152 C2155 1.387 . S
H2153 C2149 0.950 . S
H2154 C2151 0.950 . S
C2155 C2146 1.390 1_655 S
C2155 H2148 0.950 . S
C2155 C2152 1.387 . S
C2156 C2157 1.387 1_554 S
C2156 H2160 0.950 . S
C2156 C2165 1.390 . S
C2157 C2156 1.387 1_556 S
C2157 C2159 1.387 . S
H2158 C2165 0.950 . S
C2159 C2157 1.387 . S
C2159 C2161 1.390 . S
C2159 H2163 0.950 . S
H2160 C2156 0.950 . S
C2161 C2159 1.390 . S
C2161 C2162 1.387 1_556 S
C2161 H2164 0.950 . S
C2162 C2161 1.387 1_554 S
C2162 C2165 1.387 . S
H2163 C2159 0.950 . S
H2164 C2161 0.950 . S
C2165 C2156 1.390 . S
C2165 H2158 0.950 . S
C2165 C2162 1.387 . S
C2166 C2167 1.387 . S
C2166 H2170 0.950 . S
C2166 C2175 1.390 1_655 S
C2167 C2166 1.387 . S
C2167 C2169 1.387 . S
H2168 C2175 0.950 . S
C2169 C2167 1.387 . S
C2169 C2171 1.390 1_655 S
C2169 H2173 0.950 . S
H2170 C2166 0.950 . S
C2171 C2169 1.390 1_455 S
C2171 C2172 1.387 . S
C2171 H2174 0.950 . S
C2172 C2171 1.387 . S
C2172 C2175 1.387 . S
H2173 C2169 0.950 . S
H2174 C2171 0.950 . S
C2175 C2166 1.390 1_455 S
C2175 H2168 0.950 . S
C2175 C2172 1.387 . S
C2176 C2177 1.387 . S
C2176 H2180 0.950 . S
C2176 C2185 1.390 . S
C2177 C2176 1.387 . S
C2177 C2179 1.387 . S
H2178 C2185 0.950 . S
C2179 C2177 1.387 . S
C2179 C2181 1.390 . S
C2179 H2183 0.950 . S
H2180 C2176 0.950 . S
C2181 C2179 1.390 . S
C2181 C2182 1.387 . S
C2181 H2184 0.950 . S
C2182 C2181 1.387 . S
C2182 C2185 1.387 . S
H2183 C2179 0.950 . S
H2184 C2181 0.950 . S
C2185 C2176 1.390 . S
C2185 H2178 0.950 . S
C2185 C2182 1.387 . S
C2186 C2187 1.387 . S
C2186 H2190 0.950 . S
C2186 C2195 1.390 . S
C2187 C2186 1.387 . S
C2187 C2189 1.387 . S
H2188 C2195 0.950 . S
C2189 C2187 1.387 . S
C2189 C2191 1.390 . S
C2189 H2193 0.950 . S
H2190 C2186 0.950 . S
C2191 C2189 1.390 . S
C2191 C2192 1.387 . S
C2191 H2194 0.950 . S
C2192 C2191 1.387 . S
C2192 C2195 1.387 . S
H2193 C2189 0.950 . S
H2194 C2191 0.950 . S
C2195 C2186 1.390 . S
C2195 H2188 0.950 . S
C2195 C2192 1.387 . S
C2196 C2197 1.387 . S
C2196 H2200 0.950 . S
C2196 C2205 1.390 . S
C2197 C2196 1.387 . S
C2197 C2199 1.387 . S
H2198 C2205 0.950 . S
C2199 C2197 1.387 . S
C2199 C2201 1.390 . S
C2199 H2203 0.950 . S
H2200 C2196 0.950 . S
C2201 C2199 1.390 . S
C2201 C2202 1.387 . S
C2201 H2204 0.950 . S
C2202 C2201 1.387 . S
C2202 C2205 1.387 . S
H2203 C2199 0.950 . S
H2204 C2201 0.950 . S
C2205 C2196 1.390 . S
C2205 H2198 0.950 . S
C2205 C2202 1.387 . S
C2206 C2207 1.387 . S
C2206 H2210 0.950 . S
C2206 C2215 1.390 . S
C2207 C2206 1.387 . S
C2207 C2209 1.387 . S
H2208 C2215 0.950 . S
C2209 C2207 1.387 . S
C2209 C2211 1.390 . S
C2209 H2213 0.950 . S
H2210 C2206 0.950 . S
C2211 C2209 1.390 . S
C2211 C2212 1.387 . S
C2211 H2214 0.950 . S
C2212 C2211 1.387 . S
C2212 C2215 1.387 . S
H2213 C2209 0.950 . S
H2214 C2211 0.950 . S
C2215 C2206 1.390 . S
C2215 H2208 0.950 . S
C2215 C2212 1.387 . S
C2216 C2217 1.387 . S
C2216 H2220 0.950 . S
C2216 C2225 1.390 . S
C2217 C2216 1.387 . S
C2217 C2219 1.387 . S
H2218 C2225 0.950 . S
C2219 C2217 1.387 . S
C2219 C2221 1.390 . S
C2219 H2223 0.950 . S
H2220 C2216 0.950 . S
C2221 C2219 1.390 . S
C2221 C2222 1.387 . S
C2221 H2224 0.950 . S
C2222 C2221 1.387 . S
C2222 C2225 1.387 . S
H2223 C2219 0.950 . S
H2224 C2221 0.950 . S
C2225 C2216 1.390 . S
C2225 H2218 0.950 . S
C2225 C2222 1.387 . S
C2226 C2227 1.387 . S
C2226 H2230 0.950 . S
C2226 C2235 1.390 . S
C2227 C2226 1.387 . S
C2227 C2229 1.387 . S
H2228 C2235 0.950 . S
C2229 C2227 1.387 . S
C2229 C2231 1.390 . S
C2229 H2233 0.950 . S
H2230 C2226 0.950 . S
C2231 C2229 1.390 . S
C2231 C2232 1.387 . S
C2231 H2234 0.950 . S
C2232 C2231 1.387 . S
C2232 C2235 1.387 . S
H2233 C2229 0.950 . S
H2234 C2231 0.950 . S
C2235 C2226 1.390 . S
C2235 H2228 0.950 . S
C2235 C2232 1.387 . S
C2236 C2237 1.387 . S
C2236 H2240 0.950 . S
C2236 C2245 1.390 . S
C2237 C2236 1.387 . S
C2237 C2239 1.387 . S
H2238 C2245 0.950 . S
C2239 C2237 1.387 . S
C2239 C2241 1.390 . S
C2239 H2243 0.950 . S
H2240 C2236 0.950 . S
C2241 C2239 1.390 . S
C2241 C2242 1.387 . S
C2241 H2244 0.950 . S
C2242 C2241 1.387 . S
C2242 C2245 1.387 . S
H2243 C2239 0.950 . S
H2244 C2241 0.950 . S
C2245 C2236 1.390 . S
C2245 H2238 0.950 . S
C2245 C2242 1.387 . S
C2246 C2247 1.387 . S
C2246 H2250 0.950 . S
C2246 C2255 1.390 . S
C2247 C2246 1.387 . S
C2247 C2249 1.387 . S
H2248 C2255 0.950 . S
C2249 C2247 1.387 . S
C2249 C2251 1.390 . S
C2249 H2253 0.950 . S
H2250 C2246 0.950 . S
C2251 C2249 1.390 . S
C2251 C2252 1.387 . S
C2251 H2254 0.950 . S
C2252 C2251 1.387 . S
C2252 C2255 1.387 . S
H2253 C2249 0.950 . S
H2254 C2251 0.950 . S
C2255 C2246 1.390 . S
C2255 H2248 0.950 . S
C2255 C2252 1.387 . S
C2256 C2257 1.387 . S
C2256 H2260 0.950 . S
C2256 C2265 1.390 . S
C2257 C2256 1.387 . S
C2257 C2259 1.387 . S
H2258 C2265 0.950 . S
C2259 C2257 1.387 . S
C2259 C2261 1.390 . S
C2259 H2263 0.950 . S
H2260 C2256 0.950 . S
C2261 C2259 1.390 . S
C2261 C2262 1.387 . S
C2261 H2264 0.950 . S
C2262 C2261 1.387 . S
C2262 C2265 1.387 . S
H2263 C2259 0.950 . S
H2264 C2261 0.950 . S
C2265 C2256 1.390 . S
C2265 H2258 0.950 . S
C2265 C2262 1.387 . S
C2266 C2267 1.387 . S
C2266 H2270 0.950 . S
C2266 C2275 1.390 . S
C2267 C2266 1.387 . S
C2267 C2269 1.387 . S
H2268 C2275 0.950 . S
C2269 C2267 1.387 . S
C2269 C2271 1.390 . S
C2269 H2273 0.950 . S
H2270 C2266 0.950 . S
C2271 C2269 1.390 . S
C2271 C2272 1.387 . S
C2271 H2274 0.950 . S
C2272 C2271 1.387 . S
C2272 C2275 1.387 . S
H2273 C2269 0.950 . S
H2274 C2271 0.950 . S
C2275 C2266 1.390 . S
C2275 H2268 0.950 . S
C2275 C2272 1.387 . S
C2276 C2277 1.387 . S
C2276 H2280 0.950 . S
C2276 C2285 1.390 . S
C2277 C2276 1.387 . S
C2277 C2279 1.387 . S
H2278 C2285 0.950 . S
C2279 C2277 1.387 . S
C2279 C2281 1.390 . S
C2279 H2283 0.950 . S
H2280 C2276 0.950 . S
C2281 C2279 1.390 . S
C2281 C2282 1.387 . S
C2281 H2284 0.950 . S
C2282 C2281 1.387 . S
C2282 C2285 1.387 . S
H2283 C2279 0.950 . S
H2284 C2281 0.950 . S
C2285 C2276 1.390 . S
C2285 H2278 0.950 . S
C2285 C2282 1.387 . S
C2286 C2287 1.387 . S
C2286 H2290 0.950 . S
C2286 C2295 1.390 . S
C2287 C2286 1.387 . S
C2287 C2289 1.387 . S
H2288 C2295 0.950 . S
C2289 C2287 1.387 . S
C2289 C2291 1.390 . S
C2289 H2293 0.950 . S
H2290 C2286 0.950 . S
C2291 C2289 1.390 . S
C2291 C2292 1.387 . S
C2291 H2294 0.950 . S
C2292 C2291 1.387 . S
C2292 C2295 1.387 . S
H2293 C2289 0.950 . S
H2294 C2291 0.950 . S
C2295 C2286 1.390 . S
C2295 H2288 0.950 . S
C2295 C2292 1.387 . S
C2296 C2297 1.387 . S
C2296 H2300 0.950 . S
C2296 C2305 1.390 . S
C2297 C2296 1.387 . S
C2297 C2299 1.387 . S
H2298 C2305 0.950 . S
C2299 C2297 1.387 . S
C2299 C2301 1.390 . S
C2299 H2303 0.950 . S
H2300 C2296 0.950 . S
C2301 C2299 1.390 . S
C2301 C2302 1.387 . S
C2301 H2304 0.950 . S
C2302 C2301 1.387 . S
C2302 C2305 1.387 . S
H2303 C2299 0.950 . S
H2304 C2301 0.950 . S
C2305 C2296 1.390 . S
C2305 H2298 0.950 . S
C2305 C2302 1.387 . S
C2306 C2307 1.387 . S
C2306 H2310 0.950 . S
C2306 C2315 1.390 . S
C2307 C2306 1.387 . S
C2307 C2309 1.387 . S
H2308 C2315 0.950 . S
C2309 C2307 1.387 . S
C2309 C2311 1.390 . S
C2309 H2313 0.950 . S
H2310 C2306 0.950 . S
C2311 C2309 1.390 . S
C2311 C2312 1.387 . S
C2311 H2314 0.950 . S
C2312 C2311 1.387 . S
C2312 C2315 1.387 . S
H2313 C2309 0.950 . S
H2314 C2311 0.950 . S
C2315 C2306 1.390 . S
C2315 H2308 0.950 . S
C2315 C2312 1.387 . S
C2316 C2317 1.387 . S
C2316 H2320 0.950 . S
C2316 C2325 1.390 . S
C2317 C2316 1.387 . S
C2317 C2319 1.387 . S
H2318 C2325 0.950 . S
C2319 C2317 1.387 . S
C2319 C2321 1.390 . S
C2319 H2323 0.950 . S
H2320 C2316 0.950 . S
C2321 C2319 1.390 . S
C2321 C2322 1.387 . S
C2321 H2324 0.950 . S
C2322 C2321 1.387 . S
C2322 C2325 1.387 . S
H2323 C2319 0.950 . S
H2324 C2321 0.950 . S
C2325 C2316 1.390 . S
C2325 H2318 0.950 . S
C2325 C2322 1.387 . S
C2326 C2327 1.387 . S
C2326 H2330 0.950 . S
C2326 C2335 1.390 . S
C2327 C2326 1.387 . S
C2327 C2329 1.387 . S
H2328 C2335 0.950 . S
C2329 C2327 1.387 . S
C2329 C2331 1.390 . S
C2329 H2333 0.950 . S
H2330 C2326 0.950 . S
C2331 C2329 1.390 . S
C2331 C2332 1.387 . S
C2331 H2334 0.950 . S
C2332 C2331 1.387 . S
C2332 C2335 1.387 . S
H2333 C2329 0.950 . S
H2334 C2331 0.950 . S
C2335 C2326 1.390 . S
C2335 H2328 0.950 . S
C2335 C2332 1.387 . S
C1697 C675 1.708 . S
C1702 C38 1.719 . S
C1707 C1576 1.708 1_554 S
C1712 C91 1.720 . S
C1717 C781 1.710 . S
C1722 C144 1.721 . S
C1727 C1682 1.708 . S
C1732 C197 1.719 . S
C1737 C463 1.708 . S
C1742 C250 1.719 . S
C1747 C303 1.719 . S
C1752 C1364 1.708 1_556 S
C1757 C356 1.719 . S
C1762 C569 1.708 . S
C1767 C1470 1.709 . S
C1772 C409 1.721 . S
C1777 C251 1.715 . S
C1782 C462 1.727 . S
C1787 C1152 1.715 1_556 S
C1792 C515 1.727 . S
C1797 C357 1.714 . S
C1802 C568 1.727 . S
C1807 C1258 1.714 . S
C1812 C621 1.727 . S
C1817 C674 1.727 . S
C1822 C39 1.715 . S
C1827 C727 1.726 . S
C1832 C940 1.713 1_554 S
C1837 C145 1.713 . S
C1842 C780 1.725 . S
C1847 C833 1.727 . S
C1852 C1046 1.715 . S
C1857 C1523 1.708 . S
C1862 C886 1.719 . S
C1867 C728 1.709 . S
C1872 C939 1.721 . S
C1877 C1629 1.710 . S
C1882 C992 1.721 . S
C1887 C1045 1.721 . S
C1892 C834 1.710 1_554 S
C1897 C1098 1.721 . S
C1902 C1311 1.710 . S
C1907 C1151 1.719 . S
C1912 C516 1.708 . S
C1917 C1417 1.708 . S
C1922 C1204 1.719 . S
C1927 C622 1.709 1_556 S
C1932 C1257 1.721 . S
C1937 C1099 1.714 . S
C1942 C1310 1.727 . S
C1947 C1363 1.725 . S
C1952 C304 1.713 . S
C1957 C1416 1.727 . S
C1962 C1205 1.714 . S
C1967 C1469 1.726 . S
C1972 C410 1.713 1_556 S
C1977 C887 1.714 . S
C1982 C1522 1.727 . S
C1987 C92 1.715 . S
C1992 C1575 1.727 . S
C1997 C993 1.713 . S
C2002 C1628 1.726 . S
C2007 C1681 1.727 . S
C2012 C198 1.715 1_554 S
C2017 C29 2.430 . S
C2022 C453 2.447 . S
C2027 C82 2.430 . S
C2032 C1354 2.447 . S
C2037 C559 2.444 . S
C2042 C135 2.427 . S
C2047 C188 2.430 . S
C2052 C1460 2.447 . S
C2057 C241 2.430 . S
C2062 C665 2.447 . S
C2067 C1566 2.444 . S
C2072 C294 2.427 . S
C2077 C771 2.447 . S
C2082 C347 2.430 . S
C2087 C400 2.427 . S
C2092 C1672 2.444 . S
C2097 C506 2.444 . S
C2102 C930 2.427 . S
C2107 C612 2.444 . S
C2112 C1036 2.427 . S
C2117 C718 2.444 . S
C2122 C1142 2.427 . S
C2127 C1248 2.430 . S
C2132 C824 2.447 . S
C2137 C877 2.430 . S
C2142 C1301 2.447 . S
C2147 C983 2.430 . S
C2152 C1407 2.447 . S
C2157 C1089 2.430 . S
C2162 C1513 2.447 . S
C2167 C1619 2.447 . S
C2172 C1195 2.430 . S
C2177 C22 2.075 . S
C2182 C393 2.074 . S
C2187 C75 2.075 . S
C2192 C234 2.075 . S
C2197 C287 2.074 . S
C2202 C128 2.075 . S
C2207 C340 2.075 . S
C2212 C181 2.073 . S
C2217 C817 2.068 . S
C2222 C446 2.069 . S
C2227 C658 2.069 . S
C2232 C499 2.068 . S
C2237 C711 2.069 . S
C2242 C552 2.067 . S
C2247 C764 2.067 . S
C2252 C605 2.069 . S
C2257 C870 2.074 . S
C2262 C1241 2.075 . S
C2267 C1082 2.075 . S
C2272 C923 2.073 . S
C2277 C1135 2.075 . S
C2282 C976 2.074 . S
C2287 C1188 2.075 . S
C2292 C1029 2.074 . S
C2297 C1665 2.068 . S
C2302 C1294 2.069 . S
C2307 C1347 2.068 . S
C2312 C1506 2.069 . S
C2317 C1400 2.069 . S
C2322 C1559 2.068 . S
C2327 C1612 2.069 . S
C2332 C1453 2.068 . S
