# Generated by pormake.
# Topology snp, (6)-cn, num edge types: 1
# Building blocks:
#     Node 0, Type 0, BuildingBlock: BETFEN_clean_sbu_0, # of connection points: 6
#     Node 1, Type 0, BuildingBlock: BETFEN_clean_sbu_0, # of connection points: 6
#     Node 2, Type 0, BuildingBlock: BETFEN_clean_sbu_0, # of connection points: 6
#     Node 3, Type 0, BuildingBlock: BETFEN_clean_sbu_0, # of connection points: 6
#     Edge 4, Type (0, 0), BuildingBlock: FUNLAD_clean_linker_0, # of connection points: 2
#     Edge 5, Type (0, 0), BuildingBlock: FUNLAD_clean_linker_0, # of connection points: 2
#     Edge 6, Type (0, 0), BuildingBlock: FUNLAD_clean_linker_0, # of connection points: 2
#     Edge 7, Type (0, 0), BuildingBlock: FUNLAD_clean_linker_0, # of connection points: 2
#     Edge 8, Type (0, 0), BuildingBlock: FUNLAD_clean_linker_0, # of connection points: 2
#     Edge 9, Type (0, 0), BuildingBlock: FUNLAD_clean_linker_0, # of connection points: 2
#     Edge 10, Type (0, 0), BuildingBlock: FUNLAD_clean_linker_0, # of connection points: 2
#     Edge 11, Type (0, 0), BuildingBlock: FUNLAD_clean_linker_0, # of connection points: 2
#     Edge 12, Type (0, 0), BuildingBlock: FUNLAD_clean_linker_0, # of connection points: 2
#     Edge 13, Type (0, 0), BuildingBlock: FUNLAD_clean_linker_0, # of connection points: 2
#     Edge 14, Type (0, 0), BuildingBlock: FUNLAD_clean_linker_0, # of connection points: 2
#     Edge 15, Type (0, 0), BuildingBlock: FUNLAD_clean_linker_0, # of connection points: 2
# Relax obj value: 0.232
# Max RMSD: 0.209
# Mean RMSD: 0.209
data_MOF--net-snp--node1-BETFEN_clean_sbu_0--edge1-FUNLAD_clean_linker_0
_symmetry_space_group_name_H-M    P1
_symmetry_Int_Tables_number       1
_symmetry_cell_setting            triclinic
loop_
_symmetry_equiv_pos_as_xyz
'x, y, z'
_cell_length_a     29.231357
_cell_length_b     29.280328
_cell_length_c     40.321219
_cell_angle_alpha  84.887182
_cell_angle_beta   84.901521
_cell_angle_gamma 97.435884
loop_
_atom_site_label
_atom_site_type_symbol
_atom_site_fract_x
_atom_site_fract_y
_atom_site_fract_z
_atom_type_partial_charge
Pr0 Pr 0.1949 0.001 0.20818 0.0
Pr1 Pr 0.25403 0.93541 0.16927 0.0
C2 C 0.13559 0.04935 0.241 0.0
C3 C 0.12374 0.06264 0.27513 0.0
C4 C 0.1221 0.1094 0.27963 0.0
C5 C 0.10925 0.12281 0.31125 0.0
C6 C 0.09735 0.08973 0.33932 0.0
C7 C 0.0997 0.04287 0.33484 0.0
C8 C 0.11276 0.02948 0.30315 0.0
C9 C 0.28934 0.03251 0.19249 0.0
C10 C 0.24837 0.92913 0.25281 0.0
C11 C 0.31381 0.89046 0.13446 0.0
C12 C 0.31334 0.87828 0.09985 0.0
C13 C 0.27969 0.89329 0.08038 0.0
C14 C 0.27653 0.88027 0.04818 0.0
C15 C 0.3067 0.8514 0.03472 0.0
C16 C 0.34109 0.83699 0.05406 0.0
C17 C 0.3443 0.85029 0.08648 0.0
C18 C 0.1611 0.90092 0.18333 0.0
C19 C 0.19184 0.00077 0.12529 0.0
O20 O 0.12516 0.00588 0.23593 0.0
O21 O 0.17524 0.06866 0.22497 0.0
O22 O 0.2628 0.01296 0.17358 0.0
O23 O 0.26702 0.03774 0.22091 0.0
O24 O 0.27245 0.92123 0.22492 0.0
O25 O 0.21399 0.95422 0.2528 0.0
O26 O 0.32208 0.93476 0.13773 0.0
O27 O 0.27923 0.86908 0.15529 0.0
O28 O 0.18505 0.92266 0.20301 0.0
O29 O 0.18569 0.89483 0.15606 0.0
O30 O 0.17033 0.00955 0.15391 0.0
O31 O 0.22834 0.97837 0.1245 0.0
H32 H 0.1305 0.1357 0.25853 0.0
H33 H 0.10882 0.15929 0.31367 0.0
H34 H 0.09045 0.01629 0.35566 0.0
H35 H 0.11374 -0.00689 0.30058 0.0
H36 H 0.25526 0.91461 0.09031 0.0
H37 H 0.25023 0.89277 0.03384 0.0
H38 H 0.36468 0.81451 0.0445 0.0
H39 H 0.37035 0.83814 0.10124 0.0
Pr40 Pr 0.91047 0.25569 0.67083 0.0
Pr41 Pr 0.9807 0.2 0.70851 0.0
C42 C 0.86544 0.31438 0.63547 0.0
C43 C 0.85838 0.31859 0.59948 0.0
C44 C 0.81329 0.3167 0.58978 0.0
C45 C 0.8054 0.31377 0.55623 0.0
C46 C 0.84252 0.31298 0.53165 0.0
C47 C 0.88784 0.31655 0.54123 0.0
C48 C 0.89568 0.31904 0.57479 0.0
C49 C 0.88035 0.16194 0.68508 0.0
C50 C 0.97754 0.19575 0.62603 0.0
C51 C 0.0327 0.14399 0.74094 0.0
C52 C 0.04716 0.13377 0.77501 0.0
C53 C 0.09447 0.13536 0.77922 0.0
C54 C 0.10901 0.12413 0.81077 0.0
C55 C 0.07659 0.11066 0.83909 0.0
C56 C 0.02913 0.10975 0.83489 0.0
C57 C 0.01459 0.12116 0.80328 0.0
C58 C 0.00821 0.29467 0.69064 0.0
C59 C 0.90754 0.25084 0.75439 0.0
O60 O 0.90771 0.32598 0.64323 0.0
O61 O 0.84419 0.2765 0.65284 0.0
O62 O 0.9022 0.18681 0.70424 0.0
O63 O 0.87063 0.18646 0.65884 0.0
O64 O -0.01179 0.1751 0.65439 0.0
O65 O 0.95355 0.23114 0.62556 0.0
O66 O -0.01076 0.13156 0.73648 0.0
O67 O 0.05019 0.18377 0.72431 0.0
O68 O -0.01135 0.26656 0.67284 0.0
O69 O 0.0155 0.27398 0.71916 0.0
O70 O 0.89601 0.27297 0.72683 0.0
O71 O 0.9351 0.21859 0.75388 0.0
H72 H 0.78396 0.31592 0.60835 0.0
H73 H 0.77014 0.3115 0.54957 0.0
H74 H 0.9171 0.31548 0.52298 0.0
H75 H 0.93081 0.31969 0.58151 0.0
H76 H 0.12034 0.14504 0.75795 0.0
H77 H 0.14586 0.1262 0.81294 0.0
H78 H 0.00302 0.09918 0.85589 0.0
H79 H 0.9778 0.11961 0.80097 0.0
Pr80 Pr 0.77281 0.09301 0.11751 0.0
Pr81 Pr 0.78763 0.00111 0.08289 0.0
C82 C 0.74446 0.16167 0.15038 0.0
C83 C 0.74994 0.17517 0.18455 0.0
C84 C 0.7726 0.21916 0.18902 0.0
C85 C 0.78067 0.23102 0.22113 0.0
C86 C 0.76606 0.19915 0.24955 0.0
C87 C 0.74254 0.15545 0.24496 0.0
C88 C 0.73481 0.14352 0.21293 0.0
C89 C 0.86327 0.07237 0.11244 0.0
C90 C 0.78977 -0.00171 0.16457 0.0
C91 C 0.80867 0.93579 0.04269 0.0
C92 C 0.82803 0.92918 1.00839 0.0
C93 C 0.81012 0.89005 0.9935 0.0
C94 C 0.82773 0.88224 0.96132 0.0
C95 C 0.86389 0.91341 0.94307 0.0
C96 C 0.88163 0.95289 0.95803 0.0
C97 C 0.86383 0.96074 0.9903 0.0
C98 C 0.69808 0.00634 0.11123 0.0
C99 C 0.78244 0.10072 0.03493 0.0
O100 O 0.71768 0.12265 0.14828 0.0
O101 O 0.78219 0.16777 0.12937 0.0
O102 O 0.83519 0.06679 0.09065 0.0
O103 O 0.84602 0.09398 0.13629 0.0
O104 O 0.80666 0.98109 0.13742 0.0
O105 O 0.76672 0.03447 0.16244 0.0
O106 O 0.83697 0.95363 0.06307 0.0
O107 O 0.768 0.94994 0.04571 0.0
O108 O 0.72487 0.03916 0.09455 0.0
O109 O 0.71658 0.96826 0.11269 0.0
O110 O 0.77362 0.12257 0.06161 0.0
O111 O 0.79016 0.05703 0.037 0.0
H112 H 0.78486 0.2441 0.16758 0.0
H113 H 0.79933 0.26479 0.22356 0.0
H114 H 0.72991 0.13025 0.26617 0.0
H115 H 0.71737 0.1092 0.21049 0.0
H116 H 0.78256 0.86515 1.00695 0.0
H117 H 0.81357 0.85114 0.95105 0.0
H118 H 0.90906 0.97798 0.9447 0.0
H119 H 0.87806 -0.00859 1.00108 0.0
Pr120 Pr 0.01643 0.80204 0.57834 0.0
Pr121 Pr 0.10208 0.78087 0.61911 0.0
C122 C 0.94853 0.83144 0.54364 0.0
C123 C 0.93762 0.8408 0.50836 0.0
C124 C 0.90008 0.81406 0.49661 0.0
C125 C 0.88804 0.82372 0.46401 0.0
C126 C 0.913 0.86069 0.44225 0.0
C127 C 0.95076 0.88729 0.45401 0.0
C128 C 0.96292 0.87748 0.48655 0.0
C129 C 0.02827 0.70918 0.59148 0.0
C130 C 0.11563 0.79293 0.53554 0.0
C131 C 0.16771 0.74745 0.65307 0.0
C132 C 0.17967 0.75145 0.68751 0.0
C133 C 0.22551 0.75097 0.69508 0.0
C134 C 0.23761 0.75923 0.7271 0.0
C135 C 0.20402 0.76834 0.752 0.0
C136 C 0.1579 0.7677 0.74438 0.0
C137 C 0.14592 0.75956 0.71246 0.0
C138 C 0.09028 0.87337 0.61035 0.0
C139 C 0.00737 0.80478 0.66225 0.0
O140 O 0.98168 0.85931 0.55403 0.0
O141 O 0.94783 0.78829 0.55565 0.0
O142 O 0.03273 0.73937 0.6117 0.0
O143 O 0.01568 0.72605 0.56337 0.0
O144 O 0.12987 0.77427 0.56328 0.0
O145 O 0.07639 0.81079 0.53531 0.0
O146 O 0.12783 0.72284 0.64992 0.0
O147 O 0.1757 0.78606 0.63317 0.0
O148 O 0.0839 0.84471 0.58895 0.0
O149 O 0.10984 0.85544 0.63517 0.0
O150 O -0.00948 0.81595 0.6335 0.0
O151 O 0.04605 0.78582 0.66349 0.0
H152 H 0.87956 0.7859 0.51284 0.0
H153 H 0.85843 0.80278 0.45611 0.0
H154 H 0.97123 0.91562 0.43795 0.0
H155 H -0.00795 0.89894 0.49462 0.0
H156 H 0.25213 0.7453 0.67602 0.0
H157 H 0.2735 0.75989 0.73202 0.0
H158 H 0.13096 0.77378 0.76305 0.0
H159 H 0.11038 0.76041 0.70711 0.0
C160 C 0.91247 0.01405 0.09411 0.0
C161 C 0.89757 0.04117 0.11878 0.0
C162 C 0.93706 0.9776 0.10253 0.0
C163 C 0.94684 0.96787 0.13567 0.0
C164 C 0.93462 -0.00282 0.15976 0.0
C165 C 0.9103 0.03354 0.15134 0.0
C166 C 0.97448 0.93044 0.14368 0.0
C167 C 0.97462 0.90988 0.17494 0.0
C168 C 0.01612 0.89021 0.18423 0.0
C169 C 0.04111 0.86682 0.16146 0.0
C170 C 0.08836 0.86652 0.16312 0.0
C171 C 0.11062 0.8887 0.18794 0.0
H172 H 0.01761 0.92247 0.2305 0.0
C173 C 0.084 0.90432 0.21414 0.0
C174 C 0.03669 0.90525 0.21222 0.0
H175 H 0.1003 0.91934 0.23444 0.0
H176 H 0.90392 0.0202 0.06866 0.0
H177 H 0.94778 0.95651 0.08328 0.0
H178 H 0.94388 -0.00753 0.18511 0.0
H179 H 0.89968 0.05431 0.17082 0.0
H180 H -0.00049 0.92389 0.12369 0.0
H181 H 0.9498 0.91658 0.195 0.0
H182 H 0.02537 0.85325 0.14039 0.0
H183 H 0.108 0.8525 0.14331 0.0
C184 C 0.05021 0.92003 0.64872 0.0
C185 C 0.06057 0.90921 0.61591 0.0
C186 C 0.01497 0.94617 0.65602 0.0
C187 C -0.01044 0.96233 0.63055 0.0
C188 C 0.00256 0.95492 0.59728 0.0
C189 C 0.03795 0.92841 0.58999 0.0
C190 C 0.95181 -0.01011 0.63787 0.0
C191 C 0.92692 0.98615 0.66802 0.0
C192 C 0.90042 0.02335 0.6772 0.0
C193 C 0.90678 0.042 0.7076 0.0
C194 C 0.8956 0.08614 0.71206 0.0
C195 C 0.8783 0.11158 0.68606 0.0
H196 H 0.86934 0.03116 0.63053 0.0
C197 C 0.86529 0.08982 0.65801 0.0
C198 C 0.87622 0.04582 0.65362 0.0
H199 H 0.85037 0.10818 0.63804 0.0
H200 H 0.06773 0.90643 0.66923 0.0
H201 H 0.00783 0.95347 0.68166 0.0
H202 H 0.98458 0.96867 0.57708 0.0
H203 H 0.0468 0.92188 0.56436 0.0
H204 H 0.94679 0.01637 0.61837 0.0
H205 H 0.93197 0.9601 0.68776 0.0
H206 H 0.92448 0.02456 0.72644 0.0
H207 H 0.90365 0.10162 0.73461 0.0
C208 C 0.63264 0.05204 0.12164 0.0
C209 C 0.64959 0.00923 0.12337 0.0
C210 C 0.58613 0.05445 0.13184 0.0
C211 C 0.55562 0.01389 0.14331 0.0
C212 C 0.57257 0.97115 0.14498 0.0
C213 C 0.6193 0.96887 0.13553 0.0
C214 C 0.50534 0.01472 0.15099 0.0
C215 C 0.48778 0.04917 0.1655 0.0
C216 C 0.4371 0.04874 0.17164 0.0
C217 C 0.41732 0.05896 0.20264 0.0
C218 C 0.36904 0.05485 0.20939 0.0
C219 C 0.34014 0.04146 0.18491 0.0
H220 H 0.42273 0.03072 0.12225 0.0
C221 C 0.36021 0.03434 0.15319 0.0
C222 C 0.4082 0.03742 0.14671 0.0
H223 H 0.33877 0.02549 0.13352 0.0
H224 H 0.65508 0.08358 0.11181 0.0
H225 H 0.57374 0.08777 0.1295 0.0
H226 H 0.54954 0.93941 0.15345 0.0
H227 H 0.6314 0.93538 0.13694 0.0
H228 H 0.48189 0.98507 0.14536 0.0
H229 H 0.51068 0.07661 0.17449 0.0
H230 H 0.43911 0.06833 0.22202 0.0
H231 H 0.35437 0.06103 0.23395 0.0
C232 C 0.01239 0.36304 0.64848 0.0
C233 C 0.01714 0.34509 0.68126 0.0
C234 C 0.01777 0.41079 0.63975 0.0
C235 C 0.02859 0.44174 0.66363 0.0
C236 C 0.03401 0.4236 0.69631 0.0
C237 C 0.02859 0.37572 0.70502 0.0
C238 C 0.03148 0.4928 0.65606 0.0
C239 C 0.03975 0.51488 0.62483 0.0
C240 C 0.03868 0.56536 0.61689 0.0
C241 C 0.03171 0.58175 0.58414 0.0
C242 C 0.02871 0.62857 0.57573 0.0
C243 C 0.03301 0.66005 0.5999 0.0
H244 H 0.0511 0.58671 0.66608 0.0
C245 C 0.0411 0.64408 0.63244 0.0
C246 C 0.04417 0.5973 0.64086 0.0
H247 H 0.0446 0.66765 0.65158 0.0
H248 H 0.00366 0.34011 0.62964 0.0
H249 H 0.01186 0.42294 0.61459 0.0
H250 H 0.042 0.44656 0.71528 0.0
H251 H 0.03234 0.36274 0.73051 0.0
H252 H 0.02559 0.51239 0.67726 0.0
H253 H 0.04595 0.49515 0.60374 0.0
H254 H 0.02774 0.5581 0.56507 0.0
H255 H 0.02268 0.64002 0.5504 0.0
C256 C 0.98272 0.20085 0.56308 0.0
C257 C -0.00725 0.17883 0.59354 0.0
C258 C -0.00339 0.18509 0.53244 0.0
C259 C 0.0213 0.14683 0.53128 0.0
C260 C 0.03074 0.1245 0.56181 0.0
C261 C 0.01679 0.14027 0.59248 0.0
C262 C 0.03687 0.12836 0.49916 0.0
C263 C 0.03785 0.15127 0.46835 0.0
C264 C 0.0528 0.13316 0.43606 0.0
C265 C 0.0403 0.15441 0.40617 0.0
C266 C 0.0543 0.14007 0.37512 0.0
C267 C 0.08179 0.10419 0.37282 0.0
H268 H 0.09163 0.08026 0.45608 0.0
C269 C 0.09432 0.0827 0.40273 0.0
C270 C 0.08012 0.097 0.43394 0.0
H271 H 0.11603 0.05545 0.40204 0.0
H272 H 0.96383 0.23035 0.5628 0.0
H273 H -0.01294 0.20285 0.51 0.0
H274 H 0.04919 0.09469 0.56198 0.0
H275 H 0.02481 0.12207 0.61536 0.0
H276 H 0.04804 0.09441 0.50134 0.0
H277 H 0.02671 0.18519 0.46608 0.0
H278 H 0.01933 0.18232 0.4068 0.0
H279 H 0.04312 0.157 0.35287 0.0
C280 C 0.8388 0.24896 0.79601 0.0
C281 C 0.88691 0.25884 0.78763 0.0
C282 C 0.82042 0.24294 0.82969 0.0
C283 C 0.84999 0.24738 0.85532 0.0
C284 C 0.89757 0.2615 0.84657 0.0
C285 C 0.91597 0.2664 0.81307 0.0
C286 C 0.83335 0.23321 0.89113 0.0
C287 C 0.80274 0.19478 0.90069 0.0
C288 C 0.79477 0.17236 0.93569 0.0
C289 C 0.78493 0.12392 0.94082 0.0
C290 C 0.7805 0.1009 0.97303 0.0
C291 C 0.78479 0.12585 1.00107 0.0
H292 H 0.80459 0.23504 0.96071 0.0
C293 C 0.79274 0.17451 0.99615 0.0
C294 C 0.79799 0.19759 0.96373 0.0
H295 H 0.79605 0.19473 1.01724 0.0
H296 H 0.81585 0.24236 0.77679 0.0
H297 H 0.78343 0.23293 0.8357 0.0
H298 H 0.92104 0.26539 0.8658 0.0
H299 H 0.95325 0.27358 0.80713 0.0
H300 H 0.8522 0.25004 0.90977 0.0
H301 H 0.78774 0.17544 0.88155 0.0
H302 H 0.78202 0.10362 0.91971 0.0
H303 H 0.77394 0.06342 0.9759 0.0
C304 C 0.90048 0.918 0.39412 0.0
C305 C 0.89939 0.87178 0.40768 0.0
C306 C 0.88729 0.92841 0.36194 0.0
C307 C 0.87258 0.89284 0.3423 0.0
C308 C 0.87226 0.84673 0.35564 0.0
C309 C 0.88512 0.83631 0.3879 0.0
C310 C 0.85868 0.90245 0.30763 0.0
C311 C 0.84149 0.94137 0.29708 0.0
C312 C 0.82642 0.95197 0.26291 0.0
C313 C 0.7975 0.98638 0.25859 0.0
C314 C 0.78439 -0.0001 0.22703 0.0
C315 C 0.80005 0.97971 0.19849 0.0
H316 H 0.86464 0.905 0.23641 0.0
C317 C 0.82845 0.94463 0.20272 0.0
C318 C 0.84156 0.93094 0.2345 0.0
H319 H 0.84168 0.92862 0.18133 0.0
H320 H 0.91105 0.94631 0.40853 0.0
H321 H 0.88938 0.96444 0.35244 0.0
H322 H 0.86167 0.81851 0.34112 0.0
H323 H 0.88445 0.80034 0.39717 0.0
H324 H 0.86055 0.8754 0.29103 0.0
H325 H 0.83618 0.96642 0.31485 0.0
H326 H 0.78532 0.00346 0.27977 0.0
H327 H 0.76271 0.02716 0.22501 0.0
C328 C 0.24845 0.75599 0.80221 0.0
C329 C 0.21692 0.77979 0.78553 0.0
C330 C 0.25917 0.76609 0.8342 0.0
C331 C 0.23868 0.80044 0.8501 0.0
C332 C 0.20763 0.82443 0.83323 0.0
C333 C 0.19706 0.81446 0.80134 0.0
C334 C 0.24643 0.81073 0.88482 0.0
C335 C 0.28333 0.80091 0.9006 0.0
C336 C 0.289 0.81188 0.93549 0.0
C337 C 0.33369 0.82211 0.94553 0.0
C338 C 0.33974 0.83423 0.97788 0.0
C339 C 0.3011 0.83594 1.00093 0.0
H340 H 0.21549 0.8022 0.95275 0.0
C341 C 0.25645 0.82376 0.99124 0.0
C342 C 0.25045 0.81182 0.95901 0.0
H343 H 0.22594 0.82331 1.00867 0.0
H344 H 0.26392 0.72868 0.79092 0.0
H345 H 0.28238 0.74599 0.84663 0.0
H346 H 0.19127 0.85103 0.84481 0.0
H347 H 0.17331 0.83412 0.78904 0.0
H348 H 0.22104 0.82894 0.89751 0.0
H349 H 0.31131 0.78681 0.88724 0.0
H350 H 0.36401 0.82184 0.92805 0.0
H351 H 0.3746 0.84341 0.98452 0.0
C352 C 0.85466 0.88449 0.88622 0.0
C353 C 0.88352 0.90397 0.90902 0.0
C354 C 0.8733 0.87352 0.85505 0.0
C355 C 0.92151 0.88176 0.84572 0.0
C356 C 0.95021 0.90158 0.86839 0.0
C357 C 0.93157 0.91275 0.89944 0.0
C358 C 0.94358 0.86796 0.81372 0.0
C359 C 0.9213 0.8599 0.78631 0.0
C360 C 0.94395 0.84524 0.75483 0.0
C361 C 0.92502 0.85394 0.72437 0.0
C362 C 0.94493 0.84027 0.69446 0.0
C363 C 0.98414 0.81693 0.69424 0.0
H364 H -0.00218 0.81262 0.77758 0.0
C365 C 0.00261 0.80753 0.72484 0.0
C366 C 0.98283 0.82137 0.75467 0.0
H367 H 0.0327 0.78963 0.72585 0.0
H368 H 0.81746 0.87753 0.89249 0.0
H369 H 0.84981 0.8575 0.83885 0.0
H370 H -0.01254 0.90811 0.86219 0.0
H371 H 0.95509 0.92707 0.91634 0.0
H372 H 0.98047 0.86576 0.81257 0.0
H373 H 0.88545 0.8659 0.78618 0.0
H374 H 0.89494 0.87194 0.72358 0.0
H375 H 0.92984 0.84852 0.67147 0.0
C376 C 0.25113 0.92781 0.31424 0.0
C377 C 0.25522 0.90488 0.28522 0.0
C378 C 0.24506 0.90288 0.34587 0.0
C379 C 0.24199 0.85431 0.34904 0.0
C380 C 0.2488 0.83171 0.32004 0.0
C381 C 0.25606 0.85688 0.28835 0.0
C382 C 0.22391 0.8267 0.38132 0.0
C383 C 0.23126 0.84166 0.41127 0.0
C384 C 0.20275 0.82131 0.44268 0.0
C385 C 0.22238 0.82099 0.47324 0.0
C386 C 0.19439 0.80853 0.50357 0.0
C387 C 0.1461 0.79777 0.50383 0.0
H388 H 0.1383 0.809 0.41991 0.0
C389 C 0.12664 0.79688 0.47325 0.0
C390 C 0.1547 0.80805 0.44297 0.0
H391 H 0.08947 0.7889 0.47278 0.0
H392 H 0.24985 0.96477 0.3124 0.0
H393 H 0.23898 0.92141 0.36755 0.0
H394 H 0.24613 0.7943 0.3218 0.0
H395 H 0.25833 0.83836 0.2663 0.0
H396 H 0.20111 0.79454 0.3803 0.0
H397 H 0.25711 0.87145 0.41269 0.0
H398 H 0.2592 0.83164 0.47367 0.0
H399 H 0.21019 0.81 0.52683 0.0
C400 C 0.06996 0.10821 0.90252 0.0
C401 C 0.09237 0.09686 0.87254 0.0
C402 C 0.08543 0.09563 0.93367 0.0
C403 C 0.12377 0.07114 0.93568 0.0
C404 C 0.14592 0.05979 0.90572 0.0
C405 C 0.13043 0.0722 0.87473 0.0
C406 C 0.14308 0.0578 0.9679 0.0
C407 C 0.12082 0.05702 0.99894 0.0
C408 C 0.14053 0.04276 1.03089 0.0
C409 C 0.11861 0.05232 0.06154 0.0
C410 C 0.13524 0.03913 0.09208 0.0
C411 C 0.17432 0.01576 0.09291 0.0
H412 H 0.19706 0.00944 1.0093 0.0
C413 C 0.19613 0.00589 0.06232 0.0
C414 C 0.17948 0.01898 0.03182 0.0
H415 H 0.22606 0.9876 0.06181 0.0
H416 H 0.04098 0.12775 0.90193 0.0
H417 H 0.06775 0.10612 0.95583 0.0
H418 H 0.17546 0.04096 0.90623 0.0
H419 H 0.1482 0.06197 0.85245 0.0
H420 H 0.17751 0.04775 0.96539 0.0
H421 H 0.08644 0.06728 1.00146 0.0
H422 H 0.08836 0.07017 0.06191 0.0
H423 H 0.11726 0.04713 0.11505 0.0
C424 C 0.77343 0.25584 0.2932 0.0
C425 C 0.77565 0.21092 0.28381 0.0
C426 C 0.78134 0.26628 0.32565 0.0
C427 C 0.7916 0.23197 0.34951 0.0
C428 C 0.79392 0.18725 0.34012 0.0
C429 C 0.78647 0.17693 0.30768 0.0
C430 C 0.79783 0.24071 0.38478 0.0
C431 C 0.81328 0.28253 0.39422 0.0
C432 C 0.81981 0.29017 0.42964 0.0
C433 C 0.85448 0.32498 0.43644 0.0
C434 C 0.8618 0.33259 0.46948 0.0
C435 C 0.83393 0.30615 0.49647 0.0
H436 H 0.76359 0.23784 0.45242 0.0
C437 C 0.79846 0.27208 0.48965 0.0
C438 C 0.79149 0.26411 0.45665 0.0
H439 H 0.77654 0.25096 0.50989 0.0
H440 H 0.76443 0.28273 0.27575 0.0
H441 H 0.77803 0.30084 0.33217 0.0
H442 H 0.8017 0.16011 0.35796 0.0
H443 H 0.78943 0.1422 0.30132 0.0
H444 H 0.79151 0.21084 0.40343 0.0
H445 H 0.82406 0.31164 0.3753 0.0
H446 H 0.87645 0.3459 0.41612 0.0
H447 H 0.88912 0.35938 0.47391 0.0
loop_
_geom_bond_atom_site_label_1
_geom_bond_atom_site_label_2
_geom_bond_distance
_geom_bond_site_symmetry_2
_ccdc_geom_bond_type
Pr0 C2 2.880 . S
Pr0 O20 2.562 . S
Pr0 O21 2.490 . S
Pr0 O22 2.695 . S
Pr0 O23 2.512 . S
Pr0 O25 2.437 . S
Pr0 O28 2.436 . S
Pr0 O30 2.438 . S
Pr1 C11 2.880 . S
Pr1 O22 2.436 1_565 S
Pr1 O24 2.438 . S
Pr1 O26 2.562 . S
Pr1 O27 2.490 . S
Pr1 O28 2.695 1_565 S
Pr1 O29 2.512 . S
Pr1 O31 2.437 1_565 S
C2 Pr0 2.880 . S
C2 C3 1.491 . S
C2 O20 1.254 . S
C2 O21 1.225 . S
C3 C2 1.491 . S
C3 C4 1.392 . S
C3 C8 1.356 . S
C4 C3 1.392 . S
C4 C5 1.368 . S
C4 H32 0.929 . S
C5 C4 1.368 . S
C5 C6 1.386 . S
C5 H33 0.929 . S
C6 C5 1.386 . S
C6 C7 1.373 . S
C7 C6 1.373 . S
C7 C8 1.409 . S
C7 H34 0.931 . S
C8 C3 1.356 . S
C8 C7 1.409 . S
C8 H35 0.930 . S
C9 O22 1.270 . S
C9 O23 1.248 . S
C10 O24 1.267 . S
C10 O25 1.278 1_565 S
C11 Pr1 2.880 . S
C11 C12 1.491 . S
C11 O26 1.254 . S
C11 O27 1.225 . S
C12 C11 1.491 . S
C12 C13 1.392 . S
C12 C17 1.356 . S
C13 C12 1.392 . S
C13 C14 1.368 1_554 S
C13 H36 0.929 . S
C14 C13 1.368 1_556 S
C14 C15 1.386 . S
C14 H37 0.929 . S
C15 C14 1.386 . S
C15 C16 1.373 . S
C16 C15 1.373 . S
C16 C17 1.409 1_556 S
C16 H38 0.931 . S
C17 C12 1.356 . S
C17 C16 1.409 1_554 S
C17 H39 0.930 . S
C18 O28 1.270 . S
C18 O29 1.248 1_545 S
C19 O30 1.267 . S
C19 O31 1.278 . S
O20 Pr0 2.562 . S
O20 C2 1.254 . S
O21 Pr0 2.490 . S
O21 C2 1.225 . S
O22 Pr0 2.695 . S
O22 Pr1 2.436 1_545 S
O22 C9 1.270 . S
O23 Pr0 2.512 . S
O23 C9 1.248 . S
O24 Pr1 2.438 . S
O24 C10 1.267 . S
O25 Pr0 2.437 . S
O25 C10 1.278 1_545 S
O26 Pr1 2.562 . S
O26 C11 1.254 . S
O27 Pr1 2.490 . S
O27 C11 1.225 . S
O28 Pr0 2.436 . S
O28 Pr1 2.695 1_545 S
O28 C18 1.270 . S
O29 Pr1 2.512 . S
O29 C18 1.248 1_565 S
O30 Pr0 2.438 . S
O30 C19 1.267 . S
O31 Pr1 2.437 1_545 S
O31 C19 1.278 . S
H32 C4 0.929 . S
H33 C5 0.929 . S
H34 C7 0.931 . S
H35 C8 0.930 . S
H36 C13 0.929 . S
H37 C14 0.929 . S
H38 C16 0.931 . S
H39 C17 0.930 . S
Pr40 C42 2.880 . S
Pr40 O60 2.562 . S
Pr40 O61 2.490 . S
Pr40 O62 2.695 1_655 S
Pr40 O63 2.512 . S
Pr40 O65 2.437 1_655 S
Pr40 O68 2.436 1_655 S
Pr40 O70 2.438 . S
Pr41 C51 2.880 . S
Pr41 O62 2.436 . S
Pr41 O64 2.438 . S
Pr41 O66 2.562 . S
Pr41 O67 2.490 . S
Pr41 O68 2.695 . S
Pr41 O69 2.512 . S
Pr41 O71 2.437 . S
C42 Pr40 2.880 . S
C42 C43 1.491 . S
C42 O60 1.254 . S
C42 O61 1.225 . S
C43 C42 1.491 . S
C43 C44 1.392 . S
C43 C48 1.356 . S
C44 C43 1.392 . S
C44 C45 1.368 . S
C44 H72 0.929 . S
C45 C44 1.368 . S
C45 C46 1.386 . S
C45 H73 0.929 . S
C46 C45 1.386 . S
C46 C47 1.373 . S
C47 C46 1.373 . S
C47 C48 1.409 . S
C47 H74 0.931 . S
C48 C43 1.356 . S
C48 C47 1.409 . S
C48 H75 0.930 . S
C49 O62 1.270 . S
C49 O63 1.248 1_455 S
C50 O64 1.267 . S
C50 O65 1.278 . S
C51 Pr41 2.880 . S
C51 C52 1.491 . S
C51 O66 1.254 . S
C51 O67 1.225 . S
C52 C51 1.491 . S
C52 C53 1.392 . S
C52 C57 1.356 . S
C53 C52 1.392 . S
C53 C54 1.368 . S
C53 H76 0.929 . S
C54 C53 1.368 . S
C54 C55 1.386 . S
C54 H77 0.929 . S
C55 C54 1.386 . S
C55 C56 1.373 . S
C56 C55 1.373 . S
C56 C57 1.409 . S
C56 H78 0.931 . S
C57 C52 1.356 . S
C57 C56 1.409 . S
C57 H79 0.930 . S
C58 O68 1.270 . S
C58 O69 1.248 . S
C59 O70 1.267 . S
C59 O71 1.278 1_655 S
O60 Pr40 2.562 . S
O60 C42 1.254 . S
O61 Pr40 2.490 . S
O61 C42 1.225 . S
O62 Pr40 2.695 1_455 S
O62 Pr41 2.436 . S
O62 C49 1.270 . S
O63 Pr40 2.512 . S
O63 C49 1.248 1_655 S
O64 Pr41 2.438 . S
O64 C50 1.267 . S
O65 Pr40 2.437 1_455 S
O65 C50 1.278 . S
O66 Pr41 2.562 . S
O66 C51 1.254 . S
O67 Pr41 2.490 . S
O67 C51 1.225 . S
O68 Pr40 2.436 1_455 S
O68 Pr41 2.695 . S
O68 C58 1.270 . S
O69 Pr41 2.512 . S
O69 C58 1.248 . S
O70 Pr40 2.438 . S
O70 C59 1.267 . S
O71 Pr41 2.437 . S
O71 C59 1.278 1_455 S
H72 C44 0.929 . S
H73 C45 0.929 . S
H74 C47 0.931 . S
H75 C48 0.930 . S
H76 C53 0.929 . S
H77 C54 0.929 . S
H78 C56 0.931 . S
H79 C57 0.930 . S
Pr80 C82 2.880 . S
Pr80 O100 2.562 . S
Pr80 O101 2.490 . S
Pr80 O102 2.695 . S
Pr80 O103 2.512 . S
Pr80 O105 2.437 . S
Pr80 O108 2.436 . S
Pr80 O110 2.438 . S
Pr81 C91 2.880 1_554 S
Pr81 O102 2.436 1_565 S
Pr81 O104 2.438 . S
Pr81 O106 2.562 . S
Pr81 O107 2.490 . S
Pr81 O108 2.695 1_565 S
Pr81 O109 2.512 . S
Pr81 O111 2.437 1_565 S
C82 Pr80 2.880 . S
C82 C83 1.491 . S
C82 O100 1.254 . S
C82 O101 1.225 . S
C83 C82 1.491 . S
C83 C84 1.392 . S
C83 C88 1.356 . S
C84 C83 1.392 . S
C84 C85 1.368 . S
C84 H112 0.929 . S
C85 C84 1.368 . S
C85 C86 1.386 . S
C85 H113 0.929 . S
C86 C85 1.386 . S
C86 C87 1.373 . S
C87 C86 1.373 . S
C87 C88 1.409 . S
C87 H114 0.931 . S
C88 C83 1.356 . S
C88 C87 1.409 . S
C88 H115 0.930 . S
C89 O102 1.270 . S
C89 O103 1.248 . S
C90 O104 1.267 . S
C90 O105 1.278 1_565 S
C91 Pr81 2.880 1_556 S
C91 C92 1.491 . S
C91 O106 1.254 1_556 S
C91 O107 1.225 1_556 S
C92 C91 1.491 . S
C92 C93 1.392 . S
C92 C97 1.356 . S
C93 C92 1.392 . S
C93 C94 1.368 . S
C93 H116 0.929 . S
C94 C93 1.368 . S
C94 C95 1.386 . S
C94 H117 0.929 . S
C95 C94 1.386 . S
C95 C96 1.373 . S
C96 C95 1.373 . S
C96 C97 1.409 . S
C96 H118 0.931 . S
C97 C92 1.356 . S
C97 C96 1.409 . S
C97 H119 0.930 . S
C98 O108 1.274 . S
C98 O109 1.239 1_545 S
C99 O110 1.267 . S
C99 O111 1.278 . S
O100 Pr80 2.562 . S
O100 C82 1.254 . S
O101 Pr80 2.490 . S
O101 C82 1.225 . S
O102 Pr80 2.695 . S
O102 Pr81 2.436 1_545 S
O102 C89 1.270 . S
O103 Pr80 2.512 . S
O103 C89 1.248 . S
O104 Pr81 2.438 . S
O104 C90 1.267 . S
O105 Pr80 2.437 . S
O105 C90 1.278 1_545 S
O106 Pr81 2.562 . S
O106 C91 1.254 1_554 S
O107 Pr81 2.490 . S
O107 C91 1.225 1_554 S
O108 Pr80 2.436 . S
O108 Pr81 2.695 1_545 S
O108 C98 1.274 . S
O109 Pr81 2.512 . S
O109 C98 1.239 1_565 S
O110 Pr80 2.438 . S
O110 C99 1.267 . S
O111 Pr81 2.437 1_545 S
O111 C99 1.278 . S
H112 C84 0.929 . S
H113 C85 0.929 . S
H114 C87 0.931 . S
H115 C88 0.930 . S
H116 C93 0.929 . S
H117 C94 0.929 . S
H118 C96 0.931 . S
H119 C97 0.930 . S
Pr120 C122 2.880 . S
Pr120 O140 2.562 . S
Pr120 O141 2.490 . S
Pr120 O142 2.695 1_655 S
Pr120 O143 2.512 . S
Pr120 O145 2.437 1_655 S
Pr120 O148 2.436 1_655 S
Pr120 O150 2.438 . S
Pr121 C131 2.880 . S
Pr121 O142 2.436 . S
Pr121 O144 2.438 . S
Pr121 O146 2.562 . S
Pr121 O147 2.490 . S
Pr121 O148 2.695 . S
Pr121 O149 2.512 . S
Pr121 O151 2.437 . S
C122 Pr120 2.880 . S
C122 C123 1.491 . S
C122 O140 1.254 . S
C122 O141 1.225 . S
C123 C122 1.491 . S
C123 C124 1.392 . S
C123 C128 1.356 . S
C124 C123 1.392 . S
C124 C125 1.368 . S
C124 H152 0.929 . S
C125 C124 1.368 . S
C125 C126 1.386 . S
C125 H153 0.929 . S
C126 C125 1.386 . S
C126 C127 1.373 . S
C127 C126 1.373 . S
C127 C128 1.409 . S
C127 H154 0.931 . S
C128 C123 1.356 . S
C128 C127 1.409 . S
C128 H155 0.930 . S
C129 O142 1.270 1_655 S
C129 O143 1.248 . S
C130 O144 1.267 . S
C130 O145 1.278 . S
C131 Pr121 2.880 . S
C131 C132 1.491 . S
C131 O146 1.254 . S
C131 O147 1.225 . S
C132 C131 1.491 . S
C132 C133 1.392 . S
C132 C137 1.356 . S
C133 C132 1.392 . S
C133 C134 1.368 . S
C133 H156 0.929 . S
C134 C133 1.368 . S
C134 C135 1.386 . S
C134 H157 0.929 . S
C135 C134 1.386 . S
C135 C136 1.373 . S
C136 C135 1.373 . S
C136 C137 1.409 . S
C136 H158 0.931 . S
C137 C132 1.356 . S
C137 C136 1.409 . S
C137 H159 0.930 . S
C138 O148 1.270 . S
C138 O149 1.248 . S
C139 O150 1.267 . S
C139 O151 1.278 1_655 S
O140 Pr120 2.562 . S
O140 C122 1.254 . S
O141 Pr120 2.490 . S
O141 C122 1.225 . S
O142 Pr120 2.695 1_455 S
O142 Pr121 2.436 . S
O142 C129 1.270 1_455 S
O143 Pr120 2.512 . S
O143 C129 1.248 . S
O144 Pr121 2.438 . S
O144 C130 1.267 . S
O145 Pr120 2.437 1_455 S
O145 C130 1.278 . S
O146 Pr121 2.562 . S
O146 C131 1.254 . S
O147 Pr121 2.490 . S
O147 C131 1.225 . S
O148 Pr120 2.436 1_455 S
O148 Pr121 2.695 . S
O148 C138 1.270 . S
O149 Pr121 2.512 . S
O149 C138 1.248 . S
O150 Pr120 2.438 . S
O150 C139 1.267 . S
O151 Pr121 2.437 . S
O151 C139 1.278 1_455 S
H152 C124 0.929 . S
H153 C125 0.929 . S
H154 C127 0.931 . S
H155 C128 0.930 . S
H156 C133 0.929 . S
H157 C134 0.929 . S
H158 C136 0.931 . S
H159 C137 0.930 . S
C160 C161 1.386 . S
C160 C162 1.383 . S
C160 H176 0.951 . S
C161 C160 1.386 . S
C161 C165 1.383 . S
C162 C160 1.383 . S
C162 C163 1.402 . S
C162 H177 0.951 . S
C163 C162 1.402 . S
C163 C164 1.375 . S
C163 C166 1.481 1_655 S
C164 C163 1.375 . S
C164 C165 1.367 . S
C164 H178 0.951 . S
C165 C161 1.383 . S
C165 C164 1.367 . S
C165 H179 0.950 . S
C166 C163 1.481 1_455 S
C166 C167 1.297 1_545 S
C166 H180 0.950 . S
C167 C166 1.297 1_565 S
C167 C168 1.479 1_565 S
C167 H181 0.950 1_455 S
C168 C167 1.479 1_545 S
C168 C169 1.382 . S
C168 C174 1.400 1_545 S
C169 C168 1.382 . S
C169 C170 1.369 . S
C169 H182 0.950 . S
C170 C169 1.369 . S
C170 C171 1.392 . S
C170 H183 0.951 . S
C171 C170 1.392 . S
C171 C173 1.384 . S
H172 C174 0.949 . S
C173 C171 1.384 . S
C173 C174 1.385 1_545 S
C173 H175 0.950 . S
C174 C168 1.400 1_565 S
C174 H172 0.949 . S
C174 C173 1.385 1_565 S
H175 C173 0.950 . S
H176 C160 0.951 . S
H177 C162 0.951 . S
H178 C164 0.951 . S
H179 C165 0.950 . S
H180 C166 0.950 . S
H181 C167 0.950 1_655 S
H182 C169 0.950 . S
H183 C170 0.951 . S
C184 C185 1.386 . S
C184 C186 1.383 . S
C184 H200 0.951 . S
C185 C184 1.386 . S
C185 C189 1.383 1_455 S
C186 C184 1.383 . S
C186 C187 1.402 1_455 S
C186 H201 0.951 . S
C187 C186 1.402 1_655 S
C187 C188 1.375 . S
C187 C190 1.485 . S
C188 C187 1.375 . S
C188 C189 1.367 . S
C188 H202 0.951 . S
C189 C185 1.383 1_655 S
C189 C188 1.367 . S
C189 H203 0.950 . S
C190 C187 1.485 . S
C190 C191 1.292 1_665 S
C190 H204 0.951 . S
C191 C190 1.292 1_445 S
C191 C192 1.479 . S
C191 H205 0.950 . S
C192 C191 1.479 . S
C192 C193 1.375 . S
C192 C198 1.404 1_455 S
C193 C192 1.375 . S
C193 C194 1.369 . S
C193 H206 0.950 . S
C194 C193 1.369 . S
C194 C195 1.392 . S
C194 H207 0.951 . S
C195 C194 1.392 . S
C195 C197 1.384 1_455 S
H196 C198 0.949 . S
C197 C195 1.384 1_655 S
C197 C198 1.385 . S
C197 H199 0.950 . S
C198 C192 1.404 1_655 S
C198 H196 0.949 . S
C198 C197 1.385 . S
H199 C197 0.950 . S
H200 C184 0.951 . S
H201 C186 0.951 . S
H202 C188 0.951 . S
H203 C189 0.950 . S
H204 C190 0.951 . S
H205 C191 0.950 . S
H206 C193 0.950 . S
H207 C194 0.951 . S
C208 C209 1.386 . S
C208 C210 1.383 . S
C208 H224 0.951 . S
C209 C208 1.386 . S
C209 C213 1.383 1_545 S
C210 C208 1.383 . S
C210 C211 1.402 . S
C210 H225 0.951 . S
C211 C210 1.402 . S
C211 C212 1.375 1_545 S
C211 C214 1.481 . S
C212 C211 1.375 1_565 S
C212 C213 1.367 . S
C212 H226 0.951 . S
C213 C209 1.383 1_565 S
C213 C212 1.367 . S
C213 H227 0.950 . S
C214 C211 1.481 . S
C214 C215 1.297 . S
C214 H228 0.950 1_545 S
C215 C214 1.297 . S
C215 C216 1.479 . S
C215 H229 0.950 . S
C216 C215 1.479 . S
C216 C217 1.375 . S
C216 C222 1.404 . S
C217 C216 1.375 . S
C217 C218 1.369 . S
C217 H230 0.950 . S
C218 C217 1.369 . S
C218 C219 1.392 . S
C218 H231 0.951 . S
C219 C218 1.392 . S
C219 C221 1.386 1_545 S
H220 C222 0.949 1_565 S
C221 C219 1.386 1_565 S
C221 C222 1.385 1_565 S
C221 H223 0.949 . S
C222 C216 1.404 . S
C222 H220 0.949 1_545 S
C222 C221 1.385 1_545 S
H223 C221 0.949 . S
H224 C208 0.951 . S
H225 C210 0.951 . S
H226 C212 0.951 . S
H227 C213 0.950 . S
H228 C214 0.950 1_565 S
H229 C215 0.950 . S
H230 C217 0.950 . S
H231 C218 0.951 . S
C232 C233 1.386 . S
C232 C234 1.383 . S
C232 H248 0.951 . S
C233 C232 1.386 . S
C233 C237 1.383 1_455 S
C234 C232 1.383 . S
C234 C235 1.402 . S
C234 H249 0.951 . S
C235 C234 1.402 . S
C235 C236 1.375 1_455 S
C235 C238 1.481 1_455 S
C236 C235 1.375 1_655 S
C236 C237 1.367 . S
C236 H250 0.951 . S
C237 C233 1.383 1_655 S
C237 C236 1.367 . S
C237 H251 0.950 . S
C238 C235 1.481 1_655 S
C238 C239 1.297 1_655 S
C238 H252 0.950 . S
C239 C238 1.297 1_455 S
C239 C240 1.479 . S
C239 H253 0.950 . S
C240 C239 1.479 . S
C240 C241 1.375 . S
C240 C246 1.404 1_455 S
C241 C240 1.375 . S
C241 C242 1.369 . S
C241 H254 0.950 . S
C242 C241 1.369 . S
C242 C243 1.392 . S
C242 H255 0.951 . S
C243 C242 1.392 . S
C243 C245 1.384 1_455 S
H244 C246 0.949 . S
C245 C243 1.384 1_655 S
C245 C246 1.385 . S
C245 H247 0.950 . S
C246 C240 1.404 1_655 S
C246 H244 0.949 . S
C246 C245 1.385 . S
H247 C245 0.950 . S
H248 C232 0.951 . S
H249 C234 0.951 . S
H250 C236 0.951 . S
H251 C237 0.950 . S
H252 C238 0.950 . S
H253 C239 0.950 . S
H254 C241 0.950 . S
H255 C242 0.951 . S
C256 C257 1.386 . S
C256 C258 1.383 . S
C256 H272 0.951 . S
C257 C256 1.386 . S
C257 C261 1.383 . S
C258 C256 1.383 . S
C258 C259 1.402 . S
C258 H273 0.951 . S
C259 C258 1.402 . S
C259 C260 1.375 . S
C259 C262 1.481 . S
C260 C259 1.375 . S
C260 C261 1.367 . S
C260 H274 0.951 . S
C261 C257 1.383 . S
C261 C260 1.367 . S
C261 H275 0.950 . S
C262 C259 1.481 . S
C262 C263 1.297 . S
C262 H276 0.950 . S
C263 C262 1.297 . S
C263 C264 1.479 . S
C263 H277 0.950 . S
C264 C263 1.479 . S
C264 C265 1.375 . S
C264 C270 1.404 . S
C265 C264 1.375 . S
C265 C266 1.369 . S
C265 H278 0.950 . S
C266 C265 1.369 . S
C266 C267 1.392 . S
C266 H279 0.951 . S
C267 C266 1.392 . S
C267 C269 1.384 . S
H268 C270 0.949 . S
C269 C267 1.384 . S
C269 C270 1.385 . S
C269 H271 0.950 . S
C270 C264 1.404 . S
C270 H268 0.949 . S
C270 C269 1.385 . S
H271 C269 0.950 . S
H272 C256 0.951 . S
H273 C258 0.951 . S
H274 C260 0.951 . S
H275 C261 0.950 . S
H276 C262 0.950 . S
H277 C263 0.950 . S
H278 C265 0.950 . S
H279 C266 0.951 . S
C280 C281 1.386 . S
C280 C282 1.383 . S
C280 H296 0.951 . S
C281 C280 1.386 . S
C281 C285 1.383 . S
C282 C280 1.383 . S
C282 C283 1.402 . S
C282 H297 0.951 . S
C283 C282 1.402 . S
C283 C284 1.375 . S
C283 C286 1.481 . S
C284 C283 1.375 . S
C284 C285 1.367 . S
C284 H298 0.951 . S
C285 C281 1.383 . S
C285 C284 1.367 . S
C285 H299 0.950 . S
C286 C283 1.481 . S
C286 C287 1.297 . S
C286 H300 0.950 . S
C287 C286 1.297 . S
C287 C288 1.479 . S
C287 H301 0.950 . S
C288 C287 1.479 . S
C288 C289 1.375 . S
C288 C294 1.404 . S
C289 C288 1.375 . S
C289 C290 1.369 . S
C289 H302 0.950 . S
C290 C289 1.369 . S
C290 C291 1.392 . S
C290 H303 0.951 . S
C291 C290 1.392 . S
C291 C293 1.384 . S
H292 C294 0.949 . S
C293 C291 1.384 . S
C293 C294 1.385 . S
C293 H295 0.950 . S
C294 C288 1.404 . S
C294 H292 0.949 . S
C294 C293 1.385 . S
H295 C293 0.950 . S
H296 C280 0.951 . S
H297 C282 0.951 . S
H298 C284 0.951 . S
H299 C285 0.950 . S
H300 C286 0.950 . S
H301 C287 0.950 . S
H302 C289 0.950 . S
H303 C290 0.951 . S
C304 C305 1.386 . S
C304 C306 1.383 . S
C304 H320 0.951 . S
C305 C304 1.386 . S
C305 C309 1.383 . S
C306 C304 1.383 . S
C306 C307 1.402 . S
C306 H321 0.951 . S
C307 C306 1.402 . S
C307 C308 1.375 . S
C307 C310 1.481 . S
C308 C307 1.375 . S
C308 C309 1.367 . S
C308 H322 0.951 . S
C309 C305 1.383 . S
C309 C308 1.367 . S
C309 H323 0.950 . S
C310 C307 1.481 . S
C310 C311 1.297 . S
C310 H324 0.950 . S
C311 C310 1.297 . S
C311 C312 1.479 . S
C311 H325 0.950 . S
C312 C311 1.479 . S
C312 C313 1.375 . S
C312 C318 1.404 . S
C313 C312 1.375 . S
C313 C314 1.369 . S
C313 H326 0.950 . S
C314 C313 1.369 . S
C314 C315 1.392 . S
C314 H327 0.951 1_565 S
C315 C314 1.392 . S
C315 C317 1.384 . S
H316 C318 0.949 . S
C317 C315 1.384 . S
C317 C318 1.385 . S
C317 H319 0.950 . S
C318 C312 1.404 . S
C318 H316 0.949 . S
C318 C317 1.385 . S
H319 C317 0.950 . S
H320 C304 0.951 . S
H321 C306 0.951 . S
H322 C308 0.951 . S
H323 C309 0.950 . S
H324 C310 0.950 . S
H325 C311 0.950 . S
H326 C313 0.950 . S
H327 C314 0.951 1_545 S
C328 C329 1.386 . S
C328 C330 1.383 . S
C328 H344 0.951 . S
C329 C328 1.386 . S
C329 C333 1.383 . S
C330 C328 1.383 . S
C330 C331 1.402 . S
C330 H345 0.951 . S
C331 C330 1.402 . S
C331 C332 1.375 . S
C331 C334 1.481 . S
C332 C331 1.375 . S
C332 C333 1.367 . S
C332 H346 0.951 . S
C333 C329 1.383 . S
C333 C332 1.367 . S
C333 H347 0.950 . S
C334 C331 1.481 . S
C334 C335 1.297 . S
C334 H348 0.950 . S
C335 C334 1.297 . S
C335 C336 1.479 . S
C335 H349 0.950 . S
C336 C335 1.479 . S
C336 C337 1.375 . S
C336 C342 1.404 . S
C337 C336 1.375 . S
C337 C338 1.369 . S
C337 H350 0.950 . S
C338 C337 1.369 . S
C338 C339 1.392 . S
C338 H351 0.951 . S
C339 C338 1.392 . S
C339 C341 1.384 . S
H340 C342 0.949 . S
C341 C339 1.384 . S
C341 C342 1.385 . S
C341 H343 0.950 . S
C342 C336 1.404 . S
C342 H340 0.949 . S
C342 C341 1.385 . S
H343 C341 0.950 . S
H344 C328 0.951 . S
H345 C330 0.951 . S
H346 C332 0.951 . S
H347 C333 0.950 . S
H348 C334 0.950 . S
H349 C335 0.950 . S
H350 C337 0.950 . S
H351 C338 0.951 . S
C352 C353 1.386 . S
C352 C354 1.383 . S
C352 H368 0.951 . S
C353 C352 1.386 . S
C353 C357 1.383 . S
C354 C352 1.383 . S
C354 C355 1.402 . S
C354 H369 0.951 . S
C355 C354 1.402 . S
C355 C356 1.375 . S
C355 C358 1.481 . S
C356 C355 1.375 . S
C356 C357 1.367 . S
C356 H370 0.951 . S
C357 C353 1.383 . S
C357 C356 1.367 . S
C357 H371 0.950 . S
C358 C355 1.481 . S
C358 C359 1.297 . S
C358 H372 0.950 . S
C359 C358 1.297 . S
C359 C360 1.479 . S
C359 H373 0.950 . S
C360 C359 1.479 . S
C360 C361 1.375 . S
C360 C366 1.404 . S
C361 C360 1.375 . S
C361 C362 1.369 . S
C361 H374 0.950 . S
C362 C361 1.369 . S
C362 C363 1.392 . S
C362 H375 0.951 . S
C363 C362 1.392 . S
C363 C365 1.384 . S
H364 C366 0.949 . S
C365 C363 1.384 . S
C365 C366 1.385 . S
C365 H367 0.950 . S
C366 C360 1.404 . S
C366 H364 0.949 . S
C366 C365 1.385 . S
H367 C365 0.950 . S
H368 C352 0.951 . S
H369 C354 0.951 . S
H370 C356 0.951 . S
H371 C357 0.950 . S
H372 C358 0.950 . S
H373 C359 0.950 . S
H374 C361 0.950 . S
H375 C362 0.951 . S
C376 C377 1.386 . S
C376 C378 1.383 . S
C376 H392 0.951 . S
C377 C376 1.386 . S
C377 C381 1.383 . S
C378 C376 1.383 . S
C378 C379 1.402 . S
C378 H393 0.951 . S
C379 C378 1.402 . S
C379 C380 1.375 . S
C379 C382 1.481 . S
C380 C379 1.375 . S
C380 C381 1.367 . S
C380 H394 0.951 . S
C381 C377 1.383 . S
C381 C380 1.367 . S
C381 H395 0.950 . S
C382 C379 1.481 . S
C382 C383 1.297 . S
C382 H396 0.950 . S
C383 C382 1.297 . S
C383 C384 1.479 . S
C383 H397 0.950 . S
C384 C383 1.479 . S
C384 C385 1.375 . S
C384 C390 1.404 . S
C385 C384 1.375 . S
C385 C386 1.369 . S
C385 H398 0.950 . S
C386 C385 1.369 . S
C386 C387 1.392 . S
C386 H399 0.951 . S
C387 C386 1.392 . S
C387 C389 1.384 . S
H388 C390 0.949 . S
C389 C387 1.384 . S
C389 C390 1.385 . S
C389 H391 0.950 . S
C390 C384 1.404 . S
C390 H388 0.949 . S
C390 C389 1.385 . S
H391 C389 0.950 . S
H392 C376 0.951 . S
H393 C378 0.951 . S
H394 C380 0.951 . S
H395 C381 0.950 . S
H396 C382 0.950 . S
H397 C383 0.950 . S
H398 C385 0.950 . S
H399 C386 0.951 . S
C400 C401 1.386 . S
C400 C402 1.383 . S
C400 H416 0.951 . S
C401 C400 1.386 . S
C401 C405 1.383 . S
C402 C400 1.383 . S
C402 C403 1.402 . S
C402 H417 0.951 . S
C403 C402 1.402 . S
C403 C404 1.375 . S
C403 C406 1.481 . S
C404 C403 1.375 . S
C404 C405 1.367 . S
C404 H418 0.951 . S
C405 C401 1.383 . S
C405 C404 1.367 . S
C405 H419 0.950 . S
C406 C403 1.481 . S
C406 C407 1.297 . S
C406 H420 0.950 . S
C407 C406 1.297 . S
C407 C408 1.479 . S
C407 H421 0.950 . S
C408 C407 1.479 . S
C408 C409 1.375 1_556 S
C408 C414 1.404 1_556 S
C409 C408 1.375 1_554 S
C409 C410 1.369 . S
C409 H422 0.950 . S
C410 C409 1.369 . S
C410 C411 1.392 . S
C410 H423 0.951 . S
C411 C410 1.392 . S
C411 C413 1.384 . S
H412 C414 0.949 1_556 S
C413 C411 1.384 . S
C413 C414 1.385 . S
C413 H415 0.950 . S
C414 C408 1.404 1_554 S
C414 H412 0.949 1_554 S
C414 C413 1.385 . S
H415 C413 0.950 . S
H416 C400 0.951 . S
H417 C402 0.951 . S
H418 C404 0.951 . S
H419 C405 0.950 . S
H420 C406 0.950 . S
H421 C407 0.950 . S
H422 C409 0.950 . S
H423 C410 0.951 . S
C424 C425 1.386 . S
C424 C426 1.383 . S
C424 H440 0.951 . S
C425 C424 1.386 . S
C425 C429 1.383 . S
C426 C424 1.383 . S
C426 C427 1.402 . S
C426 H441 0.951 . S
C427 C426 1.402 . S
C427 C428 1.375 . S
C427 C430 1.481 . S
C428 C427 1.375 . S
C428 C429 1.367 . S
C428 H442 0.951 . S
C429 C425 1.383 . S
C429 C428 1.367 . S
C429 H443 0.950 . S
C430 C427 1.481 . S
C430 C431 1.297 . S
C430 H444 0.950 . S
C431 C430 1.297 . S
C431 C432 1.479 . S
C431 H445 0.950 . S
C432 C431 1.479 . S
C432 C433 1.375 . S
C432 C438 1.404 . S
C433 C432 1.375 . S
C433 C434 1.369 . S
C433 H446 0.950 . S
C434 C433 1.369 . S
C434 C435 1.392 . S
C434 H447 0.951 . S
C435 C434 1.392 . S
C435 C437 1.384 . S
H436 C438 0.949 . S
C437 C435 1.384 . S
C437 C438 1.385 . S
C437 H439 0.950 . S
C438 C432 1.404 . S
C438 H436 0.949 . S
C438 C437 1.385 . S
H439 C437 0.950 . S
H440 C424 0.951 . S
H441 C426 0.951 . S
H442 C428 0.951 . S
H443 C429 0.950 . S
H444 C430 0.950 . S
H445 C431 0.950 . S
H446 C433 0.950 . S
H447 C434 0.951 . S
C161 C89 0.898 . S
C171 C18 0.788 . S
C185 C138 0.845 . S
C195 C49 0.695 . S
C209 C98 0.939 . S
C219 C9 0.922 . S
C233 C58 0.985 . S
C243 C129 0.917 1_455 S
C257 C50 1.508 . S
C267 C6 1.570 . S
C281 C59 2.322 . S
C291 C99 2.307 1_556 S
C305 C126 1.561 . S
C315 C90 1.471 . S
C329 C135 0.843 . S
C339 C15 0.799 . S
C353 C95 1.534 . S
C363 C139 1.474 . S
C377 C10 2.319 . S
C387 C130 2.307 . S
C401 C55 1.555 . S
C411 C19 1.529 . S
C425 C86 0.859 . S
C435 C46 0.863 . S
