# Generated by pormake.
# Topology zfp, (5)-cn, num edge types: 1
# Building blocks:
#     Node 0, Type 0, BuildingBlock: XOMCOT_clean_sbu_0, # of connection points: 5
#     Node 1, Type 0, BuildingBlock: XOMCOT_clean_sbu_0, # of connection points: 5
#     Node 2, Type 0, BuildingBlock: XOMCOT_clean_sbu_0, # of connection points: 5
#     Node 3, Type 0, BuildingBlock: XOMCOT_clean_sbu_0, # of connection points: 5
#     Node 4, Type 0, BuildingBlock: XOMCOT_clean_sbu_0, # of connection points: 5
#     Node 5, Type 0, BuildingBlock: XOMCOT_clean_sbu_0, # of connection points: 5
#     Node 6, Type 0, BuildingBlock: XOMCOT_clean_sbu_0, # of connection points: 5
#     Node 7, Type 0, BuildingBlock: XOMCOT_clean_sbu_0, # of connection points: 5
#     Node 8, Type 0, BuildingBlock: XOMCOT_clean_sbu_0, # of connection points: 5
#     Node 9, Type 0, BuildingBlock: XOMCOT_clean_sbu_0, # of connection points: 5
#     Node 10, Type 0, BuildingBlock: XOMCOT_clean_sbu_0, # of connection points: 5
#     Node 11, Type 0, BuildingBlock: XOMCOT_clean_sbu_0, # of connection points: 5
#     Node 12, Type 0, BuildingBlock: XOMCOT_clean_sbu_0, # of connection points: 5
#     Node 13, Type 0, BuildingBlock: XOMCOT_clean_sbu_0, # of connection points: 5
#     Node 14, Type 0, BuildingBlock: XOMCOT_clean_sbu_0, # of connection points: 5
#     Node 15, Type 0, BuildingBlock: XOMCOT_clean_sbu_0, # of connection points: 5
#     Edge 16, Type (0, 0), BuildingBlock: UVAHIK_clean_linker_0, # of connection points: 2
#     Edge 17, Type (0, 0), BuildingBlock: UVAHIK_clean_linker_0, # of connection points: 2
#     Edge 18, Type (0, 0), BuildingBlock: UVAHIK_clean_linker_0, # of connection points: 2
#     Edge 19, Type (0, 0), BuildingBlock: UVAHIK_clean_linker_0, # of connection points: 2
#     Edge 20, Type (0, 0), BuildingBlock: UVAHIK_clean_linker_0, # of connection points: 2
#     Edge 21, Type (0, 0), BuildingBlock: UVAHIK_clean_linker_0, # of connection points: 2
#     Edge 22, Type (0, 0), BuildingBlock: UVAHIK_clean_linker_0, # of connection points: 2
#     Edge 23, Type (0, 0), BuildingBlock: UVAHIK_clean_linker_0, # of connection points: 2
#     Edge 24, Type (0, 0), BuildingBlock: UVAHIK_clean_linker_0, # of connection points: 2
#     Edge 25, Type (0, 0), BuildingBlock: UVAHIK_clean_linker_0, # of connection points: 2
#     Edge 26, Type (0, 0), BuildingBlock: UVAHIK_clean_linker_0, # of connection points: 2
#     Edge 27, Type (0, 0), BuildingBlock: UVAHIK_clean_linker_0, # of connection points: 2
#     Edge 28, Type (0, 0), BuildingBlock: UVAHIK_clean_linker_0, # of connection points: 2
#     Edge 29, Type (0, 0), BuildingBlock: UVAHIK_clean_linker_0, # of connection points: 2
#     Edge 30, Type (0, 0), BuildingBlock: UVAHIK_clean_linker_0, # of connection points: 2
#     Edge 31, Type (0, 0), BuildingBlock: UVAHIK_clean_linker_0, # of connection points: 2
#     Edge 32, Type (0, 0), BuildingBlock: UVAHIK_clean_linker_0, # of connection points: 2
#     Edge 33, Type (0, 0), BuildingBlock: UVAHIK_clean_linker_0, # of connection points: 2
#     Edge 34, Type (0, 0), BuildingBlock: UVAHIK_clean_linker_0, # of connection points: 2
#     Edge 35, Type (0, 0), BuildingBlock: UVAHIK_clean_linker_0, # of connection points: 2
#     Edge 36, Type (0, 0), BuildingBlock: UVAHIK_clean_linker_0, # of connection points: 2
#     Edge 37, Type (0, 0), BuildingBlock: UVAHIK_clean_linker_0, # of connection points: 2
#     Edge 38, Type (0, 0), BuildingBlock: UVAHIK_clean_linker_0, # of connection points: 2
#     Edge 39, Type (0, 0), BuildingBlock: UVAHIK_clean_linker_0, # of connection points: 2
#     Edge 40, Type (0, 0), BuildingBlock: UVAHIK_clean_linker_0, # of connection points: 2
#     Edge 41, Type (0, 0), BuildingBlock: UVAHIK_clean_linker_0, # of connection points: 2
#     Edge 42, Type (0, 0), BuildingBlock: UVAHIK_clean_linker_0, # of connection points: 2
#     Edge 43, Type (0, 0), BuildingBlock: UVAHIK_clean_linker_0, # of connection points: 2
#     Edge 44, Type (0, 0), BuildingBlock: UVAHIK_clean_linker_0, # of connection points: 2
#     Edge 45, Type (0, 0), BuildingBlock: UVAHIK_clean_linker_0, # of connection points: 2
#     Edge 46, Type (0, 0), BuildingBlock: UVAHIK_clean_linker_0, # of connection points: 2
#     Edge 47, Type (0, 0), BuildingBlock: UVAHIK_clean_linker_0, # of connection points: 2
#     Edge 48, Type (0, 0), BuildingBlock: UVAHIK_clean_linker_0, # of connection points: 2
#     Edge 49, Type (0, 0), BuildingBlock: UVAHIK_clean_linker_0, # of connection points: 2
#     Edge 50, Type (0, 0), BuildingBlock: UVAHIK_clean_linker_0, # of connection points: 2
#     Edge 51, Type (0, 0), BuildingBlock: UVAHIK_clean_linker_0, # of connection points: 2
#     Edge 52, Type (0, 0), BuildingBlock: UVAHIK_clean_linker_0, # of connection points: 2
#     Edge 53, Type (0, 0), BuildingBlock: UVAHIK_clean_linker_0, # of connection points: 2
#     Edge 54, Type (0, 0), BuildingBlock: UVAHIK_clean_linker_0, # of connection points: 2
#     Edge 55, Type (0, 0), BuildingBlock: UVAHIK_clean_linker_0, # of connection points: 2
# Relax obj value: 0.340
# Max RMSD: 0.232
# Mean RMSD: 0.232
data_MOF--net-zfp--node1-XOMCOT_clean_sbu_0--edge1-UVAHIK_clean_linker_0
_symmetry_space_group_name_H-M    P1
_symmetry_Int_Tables_number       1
_symmetry_cell_setting            triclinic
loop_
_symmetry_equiv_pos_as_xyz
'x, y, z'
_cell_length_a     38.156067
_cell_length_b     37.971328
_cell_length_c     87.751688
_cell_angle_alpha  90.086866
_cell_angle_beta   89.83782
_cell_angle_gamma 90.08009
loop_
_atom_site_label
_atom_site_type_symbol
_atom_site_fract_x
_atom_site_fract_y
_atom_site_fract_z
_atom_type_partial_charge
Co0 Co 0.21125 0.30113 0.12921 0.0
C1 C 0.22038 0.27639 0.16135 0.0
C2 C 0.16658 0.27764 0.15441 0.0
C3 C 0.16762 0.27156 0.16978 0.0
N4 N 0.19962 0.28057 0.14896 0.0
N5 N 0.20135 0.27109 0.17418 0.0
H6 H 0.24839 0.28079 0.16138 0.0
H7 H 0.14308 0.2834 0.14806 0.0
C8 C 0.15342 0.25014 0.12133 0.0
O9 O 0.1722 0.22465 0.12726 0.0
N10 N 0.22222 0.32219 0.10977 0.0
C11 C 0.23731 0.35389 0.10771 0.0
C12 C 0.23892 0.36071 0.09235 0.0
C13 C 0.2151 0.30989 0.09568 0.0
N14 N 0.22486 0.33313 0.08479 0.0
C15 C 0.19166 0.35866 0.14859 0.0
C16 C 0.13813 0.38315 0.13023 0.0
C17 C 0.14281 0.39799 0.1447 0.0
C18 C 0.17027 0.38591 0.15386 0.0
C19 C 0.15958 0.35549 0.12555 0.0
N20 N 0.18518 0.34288 0.1349 0.0
H21 H 0.21265 0.34927 0.15574 0.0
H22 H 0.15516 0.34376 0.1145 0.0
H23 H 0.24593 0.3711 0.1168 0.0
H24 H 0.20215 0.28503 0.09347 0.0
O25 O 0.25694 0.31498 0.13647 0.0
O26 O 0.24599 0.26435 0.12495 0.0
O27 O 0.16654 0.28099 0.12029 0.0
C28 C 0.26907 0.28562 0.13101 0.0
H29 H 0.14522 0.27045 0.17737 0.0
H30 H 0.2496 0.38422 0.08714 0.0
H31 H 0.11721 0.39192 0.12284 0.0
H32 H 0.17488 0.39717 0.16502 0.0
Co33 Co 0.71781 0.20684 0.63298 0.0
C34 C 0.72369 0.22382 0.66603 0.0
C35 C 0.77318 0.21098 0.6557 0.0
C36 C 0.77836 0.21644 0.67102 0.0
N37 N 0.73896 0.21533 0.65261 0.0
N38 N 0.74723 0.22427 0.67754 0.0
H39 H 0.69581 0.22795 0.66745 0.0
H40 H 0.79284 0.20351 0.6474 0.0
C41 C 0.75877 0.1448 0.62094 0.0
O42 O 0.76749 0.16294 0.60878 0.0
N43 N 0.69746 0.19743 0.61301 0.0
C44 C 0.67946 0.16807 0.60925 0.0
C45 C 0.67456 0.16731 0.59376 0.0
C46 C 0.70357 0.21394 0.59958 0.0
N47 N 0.68994 0.196 0.58765 0.0
C48 C 0.64537 0.19422 0.63984 0.0
C49 C 0.65653 0.13576 0.65801 0.0
C50 C 0.62213 0.14461 0.65399 0.0
C51 C 0.61664 0.17498 0.6452 0.0
C52 C 0.68443 0.15563 0.6524 0.0
N53 N 0.67868 0.18338 0.64285 0.0
H54 H 0.64101 0.21676 0.63258 0.0
H55 H 0.71078 0.14807 0.65544 0.0
H56 H 0.67212 0.14739 0.6171 0.0
H57 H 0.71964 0.23723 0.59833 0.0
O58 O 0.69936 0.25404 0.63285 0.0
O59 O 0.75185 0.23967 0.62404 0.0
O60 O 0.74234 0.15973 0.63186 0.0
C61 C 0.72866 0.26424 0.62679 0.0
H62 H 0.80314 0.21438 0.67692 0.0
H63 H 0.66176 0.14648 0.58744 0.0
H64 H 0.66208 0.11263 0.66478 0.0
H65 H 0.59044 0.18317 0.64209 0.0
Co66 Co 0.79715 0.72532 0.13342 0.0
C67 C 0.79246 0.74294 0.16604 0.0
C68 C 0.81272 0.78632 0.15302 0.0
C69 C 0.81252 0.79562 0.16822 0.0
N70 N 0.80036 0.75325 0.15174 0.0
N71 N 0.7998 0.76827 0.17638 0.0
H72 H 0.78272 0.71694 0.16883 0.0
H73 H 0.82174 0.80232 0.1436 0.0
C74 C 0.86716 0.7305 0.11863 0.0
O75 O 0.86278 0.69695 0.11545 0.0
N76 N 0.79279 0.69826 0.11462 0.0
C77 C 0.78007 0.66549 0.1123 0.0
C78 C 0.77942 0.65873 0.09689 0.0
C79 C 0.79795 0.71143 0.10047 0.0
N80 N 0.79081 0.6876 0.08946 0.0
C81 C 0.81017 0.65663 0.14679 0.0
C82 C 0.87766 0.67165 0.15608 0.0
C83 C 0.86525 0.63709 0.15754 0.0
C84 C 0.83049 0.62999 0.15332 0.0
C85 C 0.85645 0.69725 0.14957 0.0
N86 N 0.8243 0.68889 0.14373 0.0
H87 H 0.78297 0.6514 0.14448 0.0
H88 H 0.86631 0.72388 0.14906 0.0
H89 H 0.77018 0.64793 0.12089 0.0
H90 H 0.80715 0.73794 0.09832 0.0
O91 O 0.75067 0.71055 0.13933 0.0
O92 O 0.7623 0.75761 0.12532 0.0
O93 O 0.84257 0.74749 0.12548 0.0
C94 C 0.73887 0.73739 0.13176 0.0
H95 H 0.82109 0.82057 0.17289 0.0
H96 H 0.77013 0.63476 0.09156 0.0
H97 H 0.90398 0.67886 0.15945 0.0
H98 H 0.81911 0.60416 0.15505 0.0
Co99 Co 0.29184 0.78572 0.63144 0.0
C100 C 0.27904 0.77958 0.6653 0.0
C101 C 0.23175 0.78315 0.6523 0.0
C102 C 0.22294 0.78081 0.66749 0.0
N103 N 0.267 0.78331 0.65089 0.0
N104 N 0.25273 0.77852 0.67562 0.0
H105 H 0.30617 0.77774 0.66842 0.0
H106 H 0.21367 0.78504 0.64286 0.0
C107 C 0.25303 0.85342 0.63395 0.0
O108 O 0.26159 0.85258 0.64843 0.0
N109 N 0.31583 0.78668 0.61205 0.0
C110 C 0.35006 0.77954 0.60998 0.0
C111 C 0.35719 0.77968 0.59464 0.0
C112 C 0.30244 0.79105 0.59794 0.0
N113 N 0.32729 0.78674 0.58706 0.0
C114 C 0.35217 0.80658 0.64973 0.0
C115 C 0.35902 0.87218 0.63649 0.0
C116 C 0.38247 0.86261 0.64796 0.0
C117 C 0.37905 0.8292 0.65461 0.0
C118 C 0.33287 0.84899 0.63205 0.0
N119 N 0.32802 0.81747 0.63927 0.0
H120 H 0.35176 0.77988 0.6539 0.0
H121 H 0.31743 0.85612 0.62229 0.0
H122 H 0.36842 0.77391 0.61902 0.0
H123 H 0.275 0.79595 0.59569 0.0
O124 O 0.31355 0.74088 0.63581 0.0
O125 O 0.26272 0.74735 0.62403 0.0
O126 O 0.26212 0.82797 0.62511 0.0
C127 C 0.28685 0.72619 0.62915 0.0
H128 H 0.19667 0.78038 0.67218 0.0
H129 H 0.38248 0.77474 0.58945 0.0
H130 H 0.36106 0.89735 0.63076 0.0
H131 H 0.39768 0.8202 0.66303 0.0
Co132 Co 0.70815 0.22724 0.88238 0.0
C133 C 0.71233 0.24317 0.84963 0.0
C134 C 0.69357 0.28769 0.86236 0.0
C135 C 0.69352 0.29614 0.84707 0.0
N136 N 0.70515 0.25443 0.86388 0.0
N137 N 0.70529 0.26807 0.83909 0.0
H138 H 0.72128 0.2168 0.84703 0.0
H139 H 0.68522 0.30439 0.87168 0.0
C140 C 0.63824 0.23433 0.89703 0.0
O141 O 0.64191 0.20082 0.90038 0.0
N142 N 0.7124 0.20081 0.90137 0.0
C143 C 0.72683 0.16884 0.90376 0.0
C144 C 0.72733 0.1621 0.91915 0.0
C145 C 0.70633 0.21377 0.91552 0.0
N146 N 0.71429 0.19031 0.92654 0.0
C147 C 0.69308 0.15802 0.86997 0.0
C148 C 0.62654 0.17413 0.85981 0.0
C149 C 0.63812 0.13925 0.85887 0.0
C150 C 0.67231 0.1315 0.86359 0.0
C151 C 0.64809 0.19963 0.86633 0.0
N152 N 0.67986 0.1909 0.87246 0.0
H153 H 0.71998 0.1522 0.8725 0.0
H154 H 0.63892 0.22652 0.86654 0.0
H155 H 0.73838 0.15207 0.89524 0.0
H156 H 0.6961 0.23988 0.91769 0.0
O157 O 0.75389 0.2111 0.87629 0.0
O158 O 0.74435 0.25898 0.89009 0.0
O159 O 0.66339 0.2507 0.89028 0.0
C160 C 0.76687 0.23784 0.88359 0.0
H161 H 0.6854 0.32101 0.84223 0.0
H162 H 0.73784 0.13876 0.92452 0.0
H163 H 0.60067 0.18159 0.85594 0.0
H164 H 0.68297 0.10524 0.86229 0.0
Co165 Co 0.81085 0.73347 0.38323 0.0
C166 C 0.79801 0.73712 0.34935 0.0
C167 C 0.75114 0.72999 0.36248 0.0
C168 C 0.74213 0.73192 0.34733 0.0
N169 N 0.78628 0.73253 0.36378 0.0
N170 N 0.77165 0.73644 0.3391 0.0
H171 H 0.82495 0.74104 0.3462 0.0
H172 H 0.73325 0.72702 0.37198 0.0
C173 C 0.77847 0.66217 0.38123 0.0
O174 O 0.78753 0.66309 0.36679 0.0
N175 N 0.83407 0.73571 0.40269 0.0
C176 C 0.86649 0.74843 0.40525 0.0
C177 C 0.87195 0.74976 0.42074 0.0
C178 C 0.82021 0.7293 0.41657 0.0
N179 N 0.84286 0.73776 0.4278 0.0
C180 C 0.87315 0.71863 0.36528 0.0
C181 C 0.88683 0.65441 0.37871 0.0
C182 C 0.90943 0.66655 0.36729 0.0
C183 C 0.90247 0.69923 0.36055 0.0
C184 C 0.85801 0.67447 0.38299 0.0
N185 N 0.85006 0.70523 0.37571 0.0
H186 H 0.86993 0.74502 0.36099 0.0
H187 H 0.84297 0.66567 0.39267 0.0
H188 H 0.88448 0.75712 0.39648 0.0
H189 H 0.79366 0.72015 0.41841 0.0
O190 O 0.82856 0.77982 0.37835 0.0
O191 O 0.7783 0.76966 0.39022 0.0
O192 O 0.785 0.68873 0.38989 0.0
C193 C 0.80058 0.79253 0.38477 0.0
H194 H 0.71582 0.73087 0.34278 0.0
H195 H 0.89535 0.75918 0.42639 0.0
H196 H 0.89165 0.62974 0.38453 0.0
H197 H 0.92025 0.71029 0.35219 0.0
Co198 Co 0.29707 0.80168 0.88184 0.0
C199 C 0.28731 0.78597 0.84839 0.0
C200 C 0.29183 0.73958 0.86211 0.0
C201 C 0.28798 0.72944 0.84713 0.0
N202 N 0.29228 0.77509 0.86291 0.0
N203 N 0.2851 0.75866 0.83855 0.0
H204 H 0.28552 0.81297 0.84483 0.0
H205 H 0.29463 0.72224 0.8718 0.0
C206 C 0.36478 0.76295 0.8783 0.0
O207 O 0.3616 0.76901 0.86364 0.0
N208 N 0.30065 0.82715 0.90081 0.0
C209 C 0.29493 0.86179 0.90284 0.0
C210 C 0.29773 0.86938 0.91812 0.0
C211 C 0.30654 0.81397 0.91485 0.0
N212 N 0.305 0.83933 0.9257 0.0
C213 C 0.31257 0.86099 0.86218 0.0
C214 C 0.38182 0.86786 0.87078 0.0
C215 C 0.36883 0.88945 0.85926 0.0
C216 C 0.33347 0.88683 0.85527 0.0
C217 C 0.3599 0.84312 0.87756 0.0
N218 N 0.32655 0.83774 0.87237 0.0
H219 H 0.28503 0.86003 0.85945 0.0
H220 H 0.36975 0.82898 0.88726 0.0
H221 H 0.28836 0.88011 0.89387 0.0
H222 H 0.31149 0.78639 0.91703 0.0
O223 O 0.25177 0.82264 0.87832 0.0
O224 O 0.25997 0.77266 0.8907 0.0
O225 O 0.34055 0.77307 0.88753 0.0
C226 C 0.23809 0.79622 0.8856 0.0
H227 H 0.28702 0.70267 0.84289 0.0
H228 H 0.29348 0.89494 0.92326 0.0
H229 H 0.40851 0.87074 0.8748 0.0
H230 H 0.32219 0.90447 0.84693 0.0
Co231 Co 0.24376 0.31977 0.37617 0.0
C232 C 0.2546 0.30196 0.34356 0.0
C233 C 0.30271 0.31451 0.35503 0.0
C234 C 0.30999 0.30866 0.33987 0.0
N235 N 0.26803 0.3106 0.35728 0.0
N236 N 0.27973 0.30089 0.33267 0.0
H237 H 0.2269 0.29818 0.34147 0.0
H238 H 0.32125 0.322 0.36376 0.0
C239 C 0.28173 0.38161 0.39036 0.0
O240 O 0.28131 0.36586 0.40367 0.0
N241 N 0.2198 0.32974 0.3954 0.0
C242 C 0.2031 0.36014 0.3988 0.0
C243 C 0.19569 0.36096 0.41412 0.0
C244 C 0.22211 0.31242 0.40886 0.0
N245 N 0.20779 0.33108 0.42043 0.0
C246 C 0.17403 0.338 0.36724 0.0
C247 C 0.19245 0.39783 0.35108 0.0
C248 C 0.15711 0.39191 0.35461 0.0
C249 C 0.14782 0.36079 0.36222 0.0
C250 C 0.21782 0.3746 0.35647 0.0
N251 N 0.2085 0.34636 0.36522 0.0
H252 H 0.16683 0.31508 0.37385 0.0
H253 H 0.24509 0.38027 0.35418 0.0
H254 H 0.19893 0.38164 0.39095 0.0
H255 H 0.23625 0.28807 0.41048 0.0
O256 O 0.22218 0.2739 0.37512 0.0
O257 O 0.27333 0.28409 0.38599 0.0
O258 O 0.27176 0.365 0.37846 0.0
C259 C 0.2493 0.26121 0.38207 0.0
H260 H 0.33552 0.31045 0.33452 0.0
H261 H 0.18381 0.38261 0.42028 0.0
H262 H 0.20067 0.42144 0.34513 0.0
H263 H 0.1207 0.35508 0.36494 0.0
Co264 Co 0.79729 0.73036 0.88285 0.0
C265 C 0.79061 0.74614 0.84931 0.0
C266 C 0.7968 0.7924 0.86303 0.0
C267 C 0.79437 0.80253 0.848 0.0
N268 N 0.79533 0.75692 0.86386 0.0
N269 N 0.79042 0.77336 0.83943 0.0
H270 H 0.78741 0.71929 0.84576 0.0
H271 H 0.79983 0.80972 0.87274 0.0
C272 C 0.86634 0.7665 0.88038 0.0
O273 O 0.86463 0.75866 0.86582 0.0
N274 N 0.79806 0.7051 0.90189 0.0
C275 C 0.79045 0.6708 0.90386 0.0
C276 C 0.79256 0.66311 0.91913 0.0
C277 C 0.80437 0.71801 0.91595 0.0
N278 N 0.8013 0.69278 0.92675 0.0
C279 C 0.81415 0.67092 0.86334 0.0
C280 C 0.87976 0.65911 0.8755 0.0
C281 C 0.86826 0.63792 0.86348 0.0
C282 C 0.83491 0.64374 0.85742 0.0
C283 C 0.8585 0.68619 0.88083 0.0
N284 N 0.82696 0.69342 0.87416 0.0
H285 H 0.78733 0.67292 0.85962 0.0
H286 H 0.86706 0.70043 0.89079 0.0
H287 H 0.78337 0.65276 0.89482 0.0
H288 H 0.81097 0.74525 0.91818 0.0
O289 O 0.75203 0.71023 0.87837 0.0
O290 O 0.75985 0.76023 0.89087 0.0
O291 O 0.84088 0.75807 0.8893 0.0
C292 C 0.73808 0.73696 0.88535 0.0
H293 H 0.79497 0.82926 0.84373 0.0
H294 H 0.78708 0.63778 0.92425 0.0
H295 H 0.90484 0.65445 0.88089 0.0
H296 H 0.82447 0.62656 0.84867 0.0
Co297 Co 0.31518 0.81955 0.3797 0.0
C298 C 0.29041 0.81098 0.34753 0.0
C299 C 0.29296 0.86501 0.35457 0.0
C300 C 0.28657 0.86405 0.33921 0.0
N301 N 0.29526 0.83178 0.35994 0.0
N302 N 0.28536 0.83015 0.33474 0.0
H303 H 0.29395 0.78273 0.34748 0.0
H304 H 0.29907 0.88854 0.36096 0.0
C305 C 0.26687 0.8794 0.38803 0.0
O306 O 0.24054 0.86123 0.38244 0.0
N307 N 0.33533 0.80786 0.39918 0.0
C308 C 0.36681 0.79292 0.40146 0.0
C309 C 0.37112 0.78761 0.41684 0.0
C310 C 0.32072 0.81132 0.41313 0.0
N311 N 0.34211 0.79906 0.42419 0.0
C312 C 0.37315 0.83669 0.36024 0.0
C313 C 0.39999 0.88949 0.3786 0.0
C314 C 0.41439 0.88417 0.36408 0.0
C315 C 0.40111 0.85706 0.35493 0.0
C316 C 0.3716 0.8691 0.38332 0.0
N317 N 0.35787 0.84388 0.37398 0.0
H318 H 0.36285 0.81596 0.35309 0.0
H319 H 0.36021 0.87405 0.39441 0.0
H320 H 0.3853 0.78634 0.39254 0.0
H321 H 0.29476 0.8219 0.41505 0.0
O322 O 0.32689 0.77295 0.37248 0.0
O323 O 0.27705 0.78645 0.38403 0.0
O324 O 0.29722 0.86538 0.38863 0.0
C325 C 0.29714 0.76225 0.378 0.0
H326 H 0.28545 0.88662 0.3317 0.0
H327 H 0.3941 0.77648 0.42217 0.0
H328 H 0.40968 0.91019 0.38599 0.0
H329 H 0.41195 0.852 0.34371 0.0
Co330 Co 0.20856 0.3001 0.87766 0.0
C331 C 0.21603 0.28489 0.84402 0.0
C332 C 0.20748 0.23869 0.85751 0.0
C333 C 0.21036 0.22867 0.84248 0.0
N334 N 0.21008 0.27409 0.85849 0.0
N335 N 0.21577 0.25777 0.83404 0.0
H336 H 0.22058 0.31166 0.84062 0.0
H337 H 0.20347 0.22134 0.86712 0.0
C338 C 0.13881 0.26561 0.87507 0.0
O339 O 0.14067 0.27409 0.86059 0.0
N340 N 0.20835 0.32477 0.89689 0.0
C341 C 0.21649 0.35892 0.89898 0.0
C342 C 0.21532 0.36621 0.91431 0.0
C343 C 0.20268 0.31154 0.91095 0.0
N344 N 0.20665 0.33645 0.92187 0.0
C345 C 0.19179 0.36035 0.85847 0.0
C346 C 0.1271 0.3725 0.87164 0.0
C347 C 0.13796 0.39395 0.8596 0.0
C348 C 0.17088 0.38794 0.853 0.0
C349 C 0.14845 0.34527 0.87654 0.0
N350 N 0.17946 0.33784 0.86939 0.0
H351 H 0.21835 0.35813 0.85436 0.0
H352 H 0.14034 0.33095 0.88654 0.0
H353 H 0.22346 0.37707 0.88998 0.0
H354 H 0.19611 0.28426 0.9131 0.0
O355 O 0.25448 0.3193 0.87332 0.0
O356 O 0.24483 0.26908 0.88542 0.0
O357 O 0.16446 0.27304 0.88399 0.0
C358 C 0.26739 0.29192 0.88017 0.0
H359 H 0.20912 0.20201 0.83812 0.0
H360 H 0.2216 0.39129 0.9195 0.0
H361 H 0.1023 0.37693 0.87737 0.0
H362 H 0.18084 0.40515 0.84415 0.0
Co363 Co 0.73665 0.23173 0.38229 0.0
C364 C 0.75018 0.24783 0.34988 0.0
C365 C 0.79748 0.23485 0.36183 0.0
C366 C 0.80527 0.23872 0.34658 0.0
N367 N 0.76293 0.24027 0.36383 0.0
N368 N 0.77547 0.24672 0.33909 0.0
H369 H 0.72263 0.2519 0.34756 0.0
H370 H 0.81543 0.22718 0.37074 0.0
C371 C 0.77398 0.17162 0.3977 0.0
O372 O 0.77201 0.18812 0.41082 0.0
N373 N 0.71017 0.22232 0.40096 0.0
C374 C 0.68941 0.19397 0.40328 0.0
C375 C 0.68113 0.19169 0.41846 0.0
C376 C 0.71422 0.23683 0.415 0.0
N377 N 0.6971 0.21828 0.42589 0.0
C378 C 0.6687 0.21679 0.37001 0.0
C379 C 0.68704 0.15428 0.35587 0.0
C380 C 0.65157 0.16401 0.35633 0.0
C381 C 0.64276 0.19647 0.36302 0.0
C382 C 0.71214 0.17558 0.36279 0.0
N383 N 0.70256 0.20538 0.37046 0.0
H384 H 0.66135 0.24088 0.37575 0.0
H385 H 0.73922 0.1675 0.36222 0.0
H386 H 0.68291 0.17431 0.39484 0.0
H387 H 0.73192 0.25834 0.41748 0.0
O388 O 0.71594 0.27769 0.38066 0.0
O389 O 0.76548 0.26687 0.39279 0.0
O390 O 0.76413 0.18686 0.38549 0.0
C391 C 0.74233 0.28996 0.3883 0.0
H392 H 0.83074 0.23508 0.34136 0.0
H393 H 0.66622 0.17071 0.42375 0.0
H394 H 0.6954 0.12963 0.35085 0.0
H395 H 0.61592 0.20568 0.36328 0.0
Co396 Co 0.29739 0.8024 0.13251 0.0
C397 C 0.29211 0.78387 0.16507 0.0
C398 C 0.31224 0.74086 0.15176 0.0
C399 C 0.3117 0.73099 0.16687 0.0
N400 N 0.30023 0.77407 0.1507 0.0
N401 N 0.29904 0.75808 0.17521 0.0
H402 H 0.28256 0.80982 0.16806 0.0
H403 H 0.32126 0.72515 0.14224 0.0
C404 C 0.36766 0.79734 0.11806 0.0
O405 O 0.36359 0.83103 0.11514 0.0
N406 N 0.29329 0.82971 0.11376 0.0
C407 C 0.2786 0.86161 0.11147 0.0
C408 C 0.27823 0.86868 0.0961 0.0
C409 C 0.29965 0.81714 0.09957 0.0
N410 N 0.29158 0.84073 0.08862 0.0
C411 C 0.31189 0.87144 0.14547 0.0
C412 C 0.37816 0.85478 0.15581 0.0
C413 C 0.36688 0.88977 0.15673 0.0
C414 C 0.33278 0.8978 0.15193 0.0
C415 C 0.35653 0.8295 0.1492 0.0
N416 N 0.32497 0.83851 0.14296 0.0
H417 H 0.28509 0.87744 0.1428 0.0
H418 H 0.36564 0.8026 0.14889 0.0
H419 H 0.26674 0.87803 0.12004 0.0
H420 H 0.31005 0.79115 0.09732 0.0
O421 O 0.25104 0.81739 0.13847 0.0
O422 O 0.26225 0.77045 0.12427 0.0
O423 O 0.34273 0.78016 0.12458 0.0
C424 C 0.239 0.7907 0.13081 0.0
H425 H 0.32005 0.70585 0.17137 0.0
H426 H 0.26753 0.89201 0.09079 0.0
H427 H 0.40395 0.84708 0.15969 0.0
H428 H 0.32235 0.92416 0.1532 0.0
Co429 Co 0.21725 0.2854 0.62685 0.0
C430 C 0.22749 0.27961 0.6609 0.0
C431 C 0.27559 0.28288 0.64832 0.0
C432 C 0.28348 0.28057 0.66357 0.0
N433 N 0.24044 0.28314 0.6466 0.0
N434 N 0.2532 0.27849 0.67144 0.0
H435 H 0.20016 0.27799 0.66378 0.0
H436 H 0.29425 0.28462 0.63905 0.0
C437 C 0.25518 0.35336 0.63023 0.0
O438 O 0.24473 0.35215 0.64449 0.0
N439 N 0.19527 0.28614 0.60708 0.0
C440 C 0.16203 0.27636 0.60411 0.0
C441 C 0.15729 0.27596 0.58858 0.0
C442 C 0.21036 0.29176 0.59336 0.0
N443 N 0.18764 0.28561 0.58187 0.0
C444 C 0.15553 0.30562 0.64438 0.0
C445 C 0.14944 0.37145 0.63133 0.0
C446 C 0.12566 0.36182 0.64275 0.0
C447 C 0.1286 0.32819 0.64922 0.0
C448 C 0.17562 0.34824 0.6269 0.0
N449 N 0.18018 0.31672 0.63412 0.0
H450 H 0.15583 0.27891 0.64854 0.0
H451 H 0.19169 0.35552 0.6173 0.0
H452 H 0.14291 0.26896 0.61266 0.0
H453 H 0.23768 0.29862 0.59181 0.0
O454 O 0.19529 0.24059 0.63098 0.0
O455 O 0.24716 0.247 0.61994 0.0
O456 O 0.24731 0.32808 0.62108 0.0
C457 C 0.22263 0.22586 0.62484 0.0
H458 H 0.30946 0.28001 0.66849 0.0
H459 H 0.1335 0.26871 0.58265 0.0
H460 H 0.14788 0.39679 0.62572 0.0
H461 H 0.10973 0.31906 0.65757 0.0
Co462 Co 0.71427 0.22193 0.13345 0.0
C463 C 0.72468 0.23667 0.16702 0.0
C464 C 0.71803 0.28317 0.15354 0.0
C465 C 0.72231 0.29313 0.16851 0.0
N466 N 0.71868 0.2477 0.15259 0.0
N467 N 0.72649 0.26386 0.17695 0.0
H468 H 0.72762 0.20967 0.17042 0.0
H469 H 0.71433 0.30063 0.14395 0.0
C470 C 0.64521 0.25788 0.13782 0.0
O471 O 0.64929 0.25052 0.15233 0.0
N472 N 0.71107 0.19757 0.1142 0.0
C473 C 0.71759 0.16321 0.11174 0.0
C474 C 0.71453 0.15651 0.0964 0.0
C475 C 0.70447 0.21147 0.10036 0.0
N476 N 0.70631 0.18684 0.08922 0.0
C477 C 0.69927 0.16185 0.15288 0.0
C478 C 0.6308 0.15339 0.14339 0.0
C479 C 0.64337 0.13236 0.15518 0.0
C480 C 0.6784 0.13571 0.15961 0.0
C481 C 0.65266 0.1785 0.13685 0.0
N482 N 0.68545 0.18475 0.14251 0.0
H483 H 0.72666 0.16327 0.15585 0.0
H484 H 0.64315 0.19251 0.12703 0.0
H485 H 0.72477 0.14451 0.12047 0.0
H486 H 0.69872 0.23903 0.09853 0.0
O487 O 0.76003 0.20145 0.13667 0.0
O488 O 0.75125 0.25205 0.12495 0.0
O489 O 0.66967 0.24986 0.12827 0.0
C490 C 0.77352 0.22845 0.12973 0.0
H491 H 0.72277 0.31986 0.17281 0.0
H492 H 0.71916 0.13138 0.09092 0.0
H493 H 0.60442 0.14997 0.13907 0.0
H494 H 0.68941 0.11845 0.16816 0.0
Co495 Co 0.79278 0.70688 0.63408 0.0
C496 C 0.78393 0.72554 0.66684 0.0
C497 C 0.73562 0.71098 0.65596 0.0
C498 C 0.72898 0.71713 0.67113 0.0
N499 N 0.77 0.71597 0.65332 0.0
N500 N 0.75934 0.72608 0.67798 0.0
H501 H 0.81157 0.73045 0.66861 0.0
H502 H 0.71684 0.70264 0.64747 0.0
C503 C 0.75204 0.64497 0.62194 0.0
O504 O 0.74386 0.66324 0.60977 0.0
N505 N 0.81474 0.69657 0.61451 0.0
C506 C 0.83104 0.666 0.61109 0.0
C507 C 0.83712 0.66454 0.59567 0.0
C508 C 0.81114 0.7133 0.60099 0.0
N509 N 0.82452 0.69419 0.58934 0.0
C510 C 0.86457 0.69461 0.64161 0.0
C511 C 0.85261 0.63561 0.65939 0.0
C512 C 0.88713 0.64417 0.65528 0.0
C513 C 0.89302 0.675 0.64682 0.0
C514 C 0.82496 0.65602 0.65399 0.0
N515 N 0.83112 0.68387 0.64453 0.0
H516 H 0.86925 0.71723 0.63441 0.0
H517 H 0.79846 0.64852 0.65693 0.0
H518 H 0.8362 0.64504 0.6191 0.0
H519 H 0.79702 0.73769 0.59943 0.0
O520 O 0.81131 0.75413 0.63387 0.0
O521 O 0.75957 0.73936 0.62446 0.0
O522 O 0.76822 0.65976 0.63294 0.0
C523 C 0.78251 0.76409 0.62738 0.0
H524 H 0.70376 0.71484 0.67672 0.0
H525 H 0.84876 0.64277 0.5895 0.0
H526 H 0.84676 0.6122 0.66595 0.0
H527 H 0.9193 0.68309 0.6437 0.0
C528 C 0.19537 0.29518 0.20008 0.0
C529 C 0.21335 0.27359 0.18967 0.0
C530 C 0.20612 0.29741 0.21522 0.0
C531 C 0.24874 0.24916 0.24542 0.0
H532 H 0.25914 0.34097 0.26438 0.0
C533 C 0.24886 0.27327 0.31093 0.0
C534 C 0.27507 0.29585 0.31652 0.0
C535 C 0.24421 0.26888 0.29521 0.0
C536 C 0.25654 0.31515 0.25923 0.0
H537 H 0.25675 0.23764 0.1868 0.0
H538 H 0.27531 0.2408 0.21368 0.0
H539 H 0.24681 0.33684 0.23712 0.0
H540 H 0.31667 0.3318 0.31002 0.0
H541 H 0.30826 0.32449 0.28264 0.0
H542 H 0.25751 0.22754 0.26769 0.0
C543 C 0.25297 0.2561 0.20998 0.0
C544 C 0.24936 0.31281 0.24366 0.0
C545 C 0.24255 0.25441 0.19467 0.0
C546 C 0.29651 0.31392 0.30607 0.0
C547 C 0.29155 0.30995 0.2904 0.0
C548 C 0.25537 0.25152 0.26109 0.0
C549 C 0.23483 0.27773 0.22037 0.0
C550 C 0.24517 0.27983 0.23662 0.0
C551 C 0.26531 0.28746 0.2848 0.0
C552 C 0.25918 0.28457 0.26815 0.0
H553 H 0.17305 0.31058 0.19645 0.0
H554 H 0.19157 0.31413 0.22299 0.0
H555 H 0.24535 0.22344 0.24027 0.0
H556 H 0.23212 0.25888 0.31873 0.0
H557 H 0.2236 0.25158 0.2912 0.0
C558 C 0.6865 0.28426 0.813 0.0
C559 C 0.70823 0.26467 0.82274 0.0
C560 C 0.68878 0.2802 0.79716 0.0
C561 C 0.71214 0.28065 0.76388 0.0
H562 H 0.72909 0.18744 0.74735 0.0
C563 C 0.71276 0.25021 0.69879 0.0
C564 C 0.74053 0.22897 0.69362 0.0
C565 C 0.70677 0.25485 0.71444 0.0
C566 C 0.72456 0.21369 0.75179 0.0
H567 H 0.75006 0.22616 0.82338 0.0
H568 H 0.75433 0.21934 0.79586 0.0
H569 H 0.72272 0.19516 0.77477 0.0
H570 H 0.78316 0.19526 0.70089 0.0
H571 H 0.77294 0.20352 0.728 0.0
H572 H 0.71395 0.29904 0.74079 0.0
C573 C 0.73491 0.23726 0.80043 0.0
C574 C 0.72102 0.21815 0.76753 0.0
C575 C 0.73253 0.24122 0.81625 0.0
C576 C 0.76186 0.2122 0.70444 0.0
C577 C 0.75574 0.21659 0.72002 0.0
C578 C 0.71553 0.27614 0.74809 0.0
C579 C 0.71292 0.25652 0.79067 0.0
C580 C 0.71521 0.25175 0.77381 0.0
C581 C 0.72818 0.23799 0.72523 0.0
C582 C 0.72224 0.24266 0.74189 0.0
H583 H 0.66716 0.30219 0.81761 0.0
H584 H 0.67111 0.29514 0.79003 0.0
H585 H 0.70803 0.30696 0.76831 0.0
H586 H 0.69598 0.2636 0.69074 0.0
H587 H 0.68519 0.27134 0.7181 0.0
C588 C 0.74983 0.72372 0.31314 0.0
C589 C 0.77436 0.74007 0.32276 0.0
C590 C 0.75248 0.72703 0.2973 0.0
C591 C 0.81536 0.75054 0.26652 0.0
H592 H 0.731 0.75978 0.24231 0.0
C593 C 0.81877 0.78517 0.20234 0.0
C594 C 0.79637 0.7659 0.19273 0.0
C595 C 0.81596 0.78228 0.21819 0.0
C596 C 0.75479 0.75691 0.2489 0.0
H597 H 0.82056 0.77331 0.32325 0.0
H598 H 0.825 0.77949 0.29567 0.0
H599 H 0.7264 0.75454 0.26994 0.0
H600 H 0.75304 0.72894 0.1923 0.0
H601 H 0.74821 0.72378 0.21995 0.0
H602 H 0.84371 0.75329 0.24545 0.0
C603 C 0.80411 0.76342 0.30033 0.0
C604 C 0.75217 0.75383 0.26475 0.0
C605 C 0.80156 0.75992 0.31617 0.0
C606 C 0.77089 0.7439 0.19936 0.0
C607 C 0.76791 0.7412 0.21522 0.0
C608 C 0.81797 0.75383 0.25068 0.0
C609 C 0.77963 0.74697 0.29067 0.0
C610 C 0.78242 0.75052 0.27378 0.0
C611 C 0.79052 0.76024 0.22482 0.0
C612 C 0.78772 0.75698 0.24168 0.0
H613 H 0.72889 0.70781 0.31784 0.0
H614 H 0.73352 0.71346 0.29025 0.0
H615 H 0.8392 0.74743 0.27304 0.0
H616 H 0.8389 0.80208 0.19763 0.0
H617 H 0.83358 0.79754 0.22527 0.0
C618 C 0.29833 0.73578 0.81279 0.0
C619 C 0.28139 0.7604 0.82221 0.0
C620 C 0.29536 0.7378 0.79692 0.0
C621 C 0.26835 0.79898 0.76567 0.0
H622 H 0.26891 0.71323 0.74161 0.0
C623 C 0.23225 0.79421 0.70151 0.0
C624 C 0.25582 0.77614 0.69197 0.0
C625 C 0.23556 0.79247 0.71737 0.0
C626 C 0.26894 0.73739 0.74818 0.0
H627 H 0.24743 0.80598 0.82243 0.0
H628 H 0.24103 0.80889 0.79482 0.0
H629 H 0.27332 0.70968 0.76927 0.0
H630 H 0.30093 0.74162 0.69156 0.0
H631 H 0.30634 0.738 0.71934 0.0
H632 H 0.26281 0.82644 0.74447 0.0
C633 C 0.25765 0.78862 0.79957 0.0
C634 C 0.27165 0.73545 0.76407 0.0
C635 C 0.26112 0.78691 0.81544 0.0
C636 C 0.28257 0.756 0.69864 0.0
C637 C 0.2855 0.75375 0.71451 0.0
C638 C 0.26506 0.80084 0.74981 0.0
C639 C 0.27486 0.76418 0.79005 0.0
C640 C 0.27156 0.76623 0.77307 0.0
C641 C 0.26214 0.77212 0.72404 0.0
C642 C 0.26546 0.77009 0.74089 0.0
H643 H 0.31455 0.71539 0.81769 0.0
H644 H 0.30968 0.71893 0.79007 0.0
H645 H 0.26889 0.82335 0.77208 0.0
H646 H 0.21159 0.81016 0.69668 0.0
H647 H 0.21707 0.80675 0.72444 0.0
C648 C 0.76652 0.74497 0.81635 0.0
C649 C 0.78716 0.77135 0.82309 0.0
C650 C 0.76388 0.74247 0.80051 0.0
C651 C 0.80972 0.76373 0.76498 0.0
H652 H 0.71848 0.74961 0.74663 0.0
C653 C 0.78962 0.75615 0.69932 0.0
C654 C 0.7643 0.73218 0.69405 0.0
C655 C 0.79315 0.76286 0.71496 0.0
C656 C 0.74425 0.75308 0.75155 0.0
H657 H 0.82149 0.8156 0.81853 0.0
H658 H 0.8171 0.81107 0.79074 0.0
H659 H 0.72303 0.75761 0.77408 0.0
H660 H 0.72412 0.69518 0.70106 0.0
H661 H 0.73067 0.70613 0.72815 0.0
H662 H 0.8311 0.75824 0.7425 0.0
C663 C 0.80288 0.79242 0.79776 0.0
C664 C 0.74679 0.75781 0.76729 0.0
C665 C 0.80514 0.79521 0.81364 0.0
C666 C 0.74329 0.71442 0.70473 0.0
C667 C 0.74701 0.72082 0.7203 0.0
C668 C 0.80724 0.75862 0.74921 0.0
C669 C 0.78215 0.76605 0.79104 0.0
C670 C 0.77955 0.76284 0.7742 0.0
C671 C 0.77163 0.74547 0.72565 0.0
C672 C 0.77447 0.7528 0.74231 0.0
H673 H 0.75214 0.72641 0.82333 0.0
H674 H 0.74791 0.7217 0.79565 0.0
H675 H 0.83537 0.76731 0.77003 0.0
H676 H 0.80604 0.77032 0.69132 0.0
H677 H 0.81221 0.78221 0.71863 0.0
C678 C 0.30538 0.837 0.3082 0.0
C679 C 0.28646 0.81791 0.3192 0.0
C680 C 0.30643 0.82583 0.29306 0.0
C681 C 0.25789 0.77709 0.26433 0.0
H682 H 0.3466 0.77768 0.2426 0.0
C683 C 0.26999 0.78123 0.19842 0.0
C684 C 0.29574 0.75993 0.19159 0.0
C685 C 0.26762 0.78395 0.2143 0.0
C686 C 0.32165 0.77704 0.24852 0.0
H687 H 0.25402 0.772 0.32301 0.0
H688 H 0.25522 0.75256 0.29621 0.0
H689 H 0.34541 0.78962 0.26993 0.0
H690 H 0.3391 0.72467 0.19612 0.0
H691 H 0.33509 0.72955 0.22381 0.0
H692 H 0.23407 0.76535 0.24278 0.0
C693 C 0.26932 0.77618 0.29944 0.0
C694 C 0.32096 0.7841 0.26415 0.0
C695 C 0.26875 0.78713 0.31473 0.0
C696 C 0.31879 0.74107 0.20101 0.0
C697 C 0.31667 0.74408 0.21687 0.0
C698 C 0.25854 0.77044 0.24862 0.0
C699 C 0.28829 0.79544 0.28847 0.0
C700 C 0.28906 0.78463 0.27219 0.0
C701 C 0.29122 0.76574 0.2237 0.0
C702 C 0.29042 0.77069 0.24052 0.0
H703 H 0.31974 0.86051 0.31134 0.0
H704 H 0.32104 0.84136 0.28486 0.0
H705 H 0.23292 0.77754 0.27023 0.0
H706 H 0.25166 0.79581 0.19148 0.0
H707 H 0.24791 0.80108 0.21922 0.0
C708 C 0.2728 0.29371 0.69744 0.0
C709 C 0.24921 0.27622 0.68775 0.0
C710 C 0.26883 0.29188 0.71326 0.0
C711 C 0.23245 0.23725 0.74373 0.0
H712 H 0.23588 0.3227 0.76793 0.0
C713 C 0.20135 0.23633 0.80822 0.0
C714 C 0.21983 0.25958 0.81772 0.0
C715 C 0.20468 0.23843 0.79237 0.0
C716 C 0.23542 0.29846 0.76141 0.0
H717 H 0.20328 0.2427 0.68704 0.0
H718 H 0.19657 0.23906 0.71476 0.0
H719 H 0.24253 0.32606 0.74033 0.0
H720 H 0.25693 0.30273 0.81811 0.0
H721 H 0.26374 0.30583 0.79051 0.0
H722 H 0.22635 0.2094 0.76472 0.0
C723 C 0.21801 0.25435 0.71007 0.0
C724 C 0.23906 0.30047 0.74557 0.0
C725 C 0.22167 0.25664 0.69423 0.0
C726 C 0.242 0.28479 0.81105 0.0
C727 C 0.24575 0.2866 0.7952 0.0
C728 C 0.2293 0.23515 0.75959 0.0
C729 C 0.24147 0.27208 0.71975 0.0
C730 C 0.23752 0.26991 0.73657 0.0
C731 C 0.22701 0.26355 0.78561 0.0
C732 C 0.23064 0.26574 0.76868 0.0
H733 H 0.29406 0.30924 0.69276 0.0
H734 H 0.28742 0.30563 0.72045 0.0
H735 H 0.23159 0.21321 0.73708 0.0
H736 H 0.18368 0.21697 0.81304 0.0
H737 H 0.18925 0.22068 0.78543 0.0
C738 C 0.79164 0.2292 0.31284 0.0
C739 C 0.77086 0.24937 0.32281 0.0
C740 C 0.78648 0.23082 0.29708 0.0
C741 C 0.75213 0.28707 0.26669 0.0
H742 H 0.74642 0.2003 0.24347 0.0
C743 C 0.7153 0.28698 0.20285 0.0
C744 C 0.7313 0.2621 0.19323 0.0
C745 C 0.71972 0.2853 0.21865 0.0
C746 C 0.74849 0.22485 0.2497 0.0
H747 H 0.72873 0.28741 0.32406 0.0
H748 H 0.71997 0.29063 0.29644 0.0
H749 H 0.75533 0.19796 0.27095 0.0
H750 H 0.76496 0.21628 0.19264 0.0
H751 H 0.77359 0.2138 0.22014 0.0
H752 H 0.74623 0.31411 0.2455 0.0
C753 C 0.74017 0.27347 0.30086 0.0
C754 C 0.75344 0.22345 0.26548 0.0
C755 C 0.74501 0.27147 0.31666 0.0
C756 C 0.75194 0.23555 0.19977 0.0
C757 C 0.75676 0.23411 0.21557 0.0
C758 C 0.74761 0.28851 0.25088 0.0
C759 C 0.76071 0.25298 0.29091 0.0
C760 C 0.75527 0.25454 0.27415 0.0
C761 C 0.74065 0.25894 0.22526 0.0
C762 C 0.74565 0.25741 0.24214 0.0
H763 H 0.81147 0.2116 0.31722 0.0
H764 H 0.80287 0.21491 0.2897 0.0
H765 H 0.75387 0.31148 0.27305 0.0
H766 H 0.69878 0.30741 0.19817 0.0
H767 H 0.70625 0.30446 0.22569 0.0
C768 C 0.2152 0.36077 0.05974 0.0
C769 C 0.22019 0.33031 0.06853 0.0
C770 C 0.21233 0.35865 0.04393 0.0
C771 C 0.1954 0.29772 0.01168 0.0
H772 H 0.24138 0.37183 0.98872 0.0
C773 C 0.2104 0.29968 0.94522 0.0
C774 C 0.20433 0.33243 0.93821 0.0
C775 C 0.21099 0.29682 0.96116 0.0
C776 C 0.22816 0.35108 0.99496 0.0
H777 H 0.22528 0.27355 0.06759 0.0
H778 H 0.22073 0.26977 0.03979 0.0
H779 H 0.24554 0.37139 0.01633 0.0
H780 H 0.1918 0.38725 0.94255 0.0
H781 H 0.19327 0.38235 0.97014 0.0
H782 H 0.17842 0.27735 0.99006 0.0
C783 C 0.21866 0.29532 0.04521 0.0
C784 C 0.23045 0.35086 0.01081 0.0
C785 C 0.22132 0.29745 0.06113 0.0
C786 C 0.1975 0.36184 0.94751 0.0
C787 C 0.19826 0.35903 0.96335 0.0
C788 C 0.19329 0.29784 0.99572 0.0
C789 C 0.21464 0.32602 0.0364 0.0
C790 C 0.21361 0.32457 0.01943 0.0
C791 C 0.20568 0.32668 0.97037 0.0
C792 C 0.20918 0.3249 0.98722 0.0
H793 H 0.21334 0.38637 0.06512 0.0
H794 H 0.20824 0.38274 0.03759 0.0
H795 H 0.18197 0.27717 0.01795 0.0
H796 H 0.21593 0.27651 0.93844 0.0
H797 H 0.21684 0.27155 0.96626 0.0
C798 C 0.70388 0.25422 0.44939 0.0
C799 C 0.70083 0.22123 0.4422 0.0
C800 C 0.70686 0.2565 0.46532 0.0
C801 C 0.73166 0.20319 0.49894 0.0
H802 H 0.67056 0.265 0.52206 0.0
C803 C 0.69653 0.17521 0.56111 0.0
C804 C 0.6947 0.20314 0.57161 0.0
C805 C 0.70111 0.18168 0.54559 0.0
C806 C 0.68823 0.24802 0.51577 0.0
H807 H 0.69993 0.16483 0.44606 0.0
H808 H 0.70481 0.16875 0.47355 0.0
H809 H 0.67219 0.26912 0.4942 0.0
H810 H 0.69626 0.25991 0.57396 0.0
H811 H 0.70423 0.27135 0.54662 0.0
H812 H 0.74709 0.18142 0.52035 0.0
C813 C 0.70486 0.19292 0.46701 0.0
C814 C 0.68917 0.25039 0.49982 0.0
C815 C 0.70155 0.19069 0.45122 0.0
C816 C 0.69772 0.23785 0.56616 0.0
C817 C 0.70203 0.24439 0.55052 0.0
C818 C 0.73072 0.20082 0.51481 0.0
C819 C 0.70749 0.22578 0.47429 0.0
C820 C 0.71013 0.22724 0.49121 0.0
C821 C 0.70393 0.2163 0.54007 0.0
C822 C 0.70824 0.22245 0.5234 0.0
H823 H 0.70341 0.27816 0.44271 0.0
H824 H 0.70896 0.2822 0.47061 0.0
H825 H 0.74868 0.1855 0.49267 0.0
H826 H 0.69484 0.14815 0.5649 0.0
H827 H 0.70198 0.15943 0.53786 0.0
C828 C 0.81382 0.66709 0.95202 0.0
C829 C 0.80511 0.69644 0.94306 0.0
C830 C 0.81562 0.66983 0.96787 0.0
C831 C 0.78336 0.72339 1.0001 0.0
H832 H 0.85175 0.66918 0.02271 0.0
C833 C 0.79154 0.72497 0.0663 0.0
C834 C 0.79479 0.69173 0.0732 0.0
C835 C 0.79515 0.72863 0.05048 0.0
C836 C 0.83238 0.68435 0.01656 0.0
H837 H 0.79212 0.75199 0.94382 0.0
H838 H 0.79589 0.75696 0.97154 0.0
H839 H 0.85472 0.67065 0.99498 0.0
H840 H 0.80514 0.63648 0.06892 0.0
H841 H 0.81119 0.64278 0.04143 0.0
H842 H 0.76091 0.73681 0.02177 0.0
C843 C 0.80088 0.73165 0.96626 0.0
C844 C 0.83404 0.68518 1.00066 0.0
C845 C 0.79908 0.7289 0.95035 0.0
C846 C 0.80208 0.66236 0.06396 0.0
C847 C 0.80596 0.66605 0.04821 0.0
C848 C 0.7818 0.72269 0.01604 0.0
C849 C 0.8089 0.70205 0.97523 0.0
C850 C 0.80914 0.70411 0.99219 0.0
C851 C 0.80248 0.69919 0.04127 0.0
C852 C 0.80589 0.70259 0.02444 0.0
H853 H 0.81913 0.64181 0.94681 0.0
H854 H 0.82146 0.64636 0.97437 0.0
H855 H 0.76354 0.73796 0.99396 0.0
H856 H 0.78569 0.74806 0.07308 0.0
H857 H 0.79248 0.75454 0.04548 0.0
C858 C 0.31254 0.82183 0.4475 0.0
C859 C 0.33582 0.79807 0.44044 0.0
C860 C 0.30825 0.8219 0.46339 0.0
C861 C 0.35581 0.79708 0.49814 0.0
H862 H 0.26567 0.80141 0.51859 0.0
C863 C 0.34455 0.76612 0.56151 0.0
C864 C 0.32335 0.78762 0.57073 0.0
C865 C 0.34319 0.76857 0.54567 0.0
C866 C 0.29105 0.80064 0.51304 0.0
H867 H 0.37117 0.75443 0.4446 0.0
H868 H 0.36402 0.75486 0.47209 0.0
H869 H 0.26849 0.80388 0.49067 0.0
H870 H 0.28305 0.82769 0.57054 0.0
H871 H 0.2808 0.83233 0.54264 0.0
H872 H 0.37857 0.79395 0.52029 0.0
C873 C 0.34961 0.77392 0.46541 0.0
C874 C 0.29265 0.80202 0.49707 0.0
C875 C 0.35377 0.77374 0.44961 0.0
C876 C 0.29964 0.81077 0.5637 0.0
C877 C 0.29838 0.81339 0.54775 0.0
C878 C 0.35424 0.79585 0.51401 0.0
C879 C 0.32728 0.79833 0.47253 0.0
C880 C 0.32506 0.79953 0.48945 0.0
C881 C 0.32073 0.79279 0.53857 0.0
C882 C 0.32185 0.79684 0.52168 0.0
H883 H 0.29841 0.84104 0.44082 0.0
H884 H 0.29092 0.8411 0.46856 0.0
H885 H 0.38125 0.79598 0.49265 0.0
H886 H 0.36241 0.74737 0.56655 0.0
H887 H 0.36 0.75153 0.53898 0.0
C888 C 0.69283 0.16299 0.06364 0.0
C889 C 0.70212 0.19163 0.07298 0.0
C890 C 0.69064 0.16681 0.04785 0.0
C891 C 0.72221 0.22258 0.01614 0.0
H892 H 0.65331 0.16941 0.99321 0.0
C893 C 0.71244 0.22719 0.94991 0.0
C894 C 0.70985 0.19407 0.9428 0.0
C895 C 0.7089 0.23032 0.96577 0.0
C896 C 0.67279 0.18434 0.99945 0.0
H897 H 0.71577 0.24709 0.07288 0.0
H898 H 0.71124 0.25396 0.04529 0.0
H899 H 0.65107 0.16924 0.02096 0.0
H900 H 0.70052 0.13851 0.94672 0.0
H901 H 0.6944 0.1439 0.97425 0.0
H902 H 0.74399 0.23744 0.99452 0.0
C903 C 0.70613 0.22835 0.05023 0.0
C904 C 0.67157 0.1842 0.01537 0.0
C905 C 0.70835 0.2245 0.06609 0.0
C906 C 0.70307 0.16432 0.95185 0.0
C907 C 0.69917 0.16748 0.96762 0.0
C908 C 0.72329 0.22289 1.00018 0.0
C909 C 0.6975 0.19945 0.04089 0.0
C910 C 0.69672 0.20266 0.02395 0.0
C911 C 0.70218 0.20046 0.97479 0.0
C912 C 0.69903 0.20315 0.99167 0.0
H913 H 0.68734 0.13741 0.06852 0.0
H914 H 0.68436 0.14382 0.04106 0.0
H915 H 0.74221 0.23684 0.02235 0.0
H916 H 0.71786 0.25056 0.94326 0.0
H917 H 0.71121 0.25611 0.97096 0.0
C918 C 0.82759 0.73582 0.56774 0.0
C919 C 0.82216 0.70158 0.5733 0.0
C920 C 0.827 0.74239 0.55204 0.0
C921 C 0.7939 0.70892 0.51561 0.0
H922 H 0.87563 0.75339 0.49769 0.0
C923 C 0.81858 0.70797 0.45051 0.0
C924 C 0.8369 0.73627 0.44399 0.0
C925 C 0.81452 0.7057 0.46635 0.0
C926 C 0.8522 0.74159 0.50245 0.0
H927 H 0.81028 0.64775 0.56693 0.0
H928 H 0.80859 0.65931 0.53955 0.0
H929 H 0.87153 0.74725 0.52524 0.0
H930 H 0.8638 0.78523 0.44875 0.0
H931 H 0.85557 0.78227 0.47624 0.0
H932 H 0.77409 0.70374 0.49295 0.0
C933 C 0.81372 0.68096 0.54729 0.0
C934 C 0.85 0.73798 0.51828 0.0
C935 C 0.815 0.67429 0.56292 0.0
C936 C 0.85011 0.76281 0.45353 0.0
C937 C 0.84551 0.76094 0.46931 0.0
C938 C 0.79578 0.71307 0.49979 0.0
C939 C 0.82015 0.71496 0.54167 0.0
C940 C 0.82105 0.72122 0.525 0.0
C941 C 0.82815 0.73207 0.476 0.0
C942 C 0.82518 0.72908 0.49294 0.0
H943 H 0.83319 0.75723 0.57553 0.0
H944 H 0.83191 0.76888 0.54798 0.0
H945 H 0.77114 0.69612 0.52053 0.0
H946 H 0.80839 0.68706 0.44338 0.0
H947 H 0.80149 0.68275 0.471 0.0
C948 C 0.2938 0.80396 0.06524 0.0
C949 C 0.29599 0.83711 0.07235 0.0
C950 C 0.29754 0.80084 0.04939 0.0
C951 C 0.33395 0.84675 0.0158 0.0
H952 H 0.26596 0.79275 0.99274 0.0
C953 C 0.31742 0.86456 0.95115 0.0
C954 C 0.30842 0.83545 0.94203 0.0
C955 C 0.31877 0.86166 0.967 0.0
C956 C 0.28558 0.80744 0.99899 0.0
H957 H 0.30467 0.89277 0.06844 0.0
H958 H 0.31119 0.88738 0.0409 0.0
H959 H 0.26308 0.79313 0.02054 0.0
H960 H 0.29446 0.78007 0.94262 0.0
H961 H 0.29764 0.77477 0.9703 0.0
H962 H 0.3565 0.86117 0.99436 0.0
C963 C 0.30657 0.86378 0.04753 0.0
C964 C 0.28385 0.8077 0.01494 0.0
C965 C 0.30246 0.86693 0.0633 0.0
C966 C 0.30167 0.80302 0.94922 0.0
C967 C 0.3031 0.80008 0.96514 0.0
C968 C 0.33585 0.84629 0.99989 0.0
C969 C 0.30405 0.83074 0.04037 0.0
C970 C 0.30761 0.82791 0.02351 0.0
C971 C 0.31138 0.82948 0.97425 0.0
C972 C 0.31127 0.82721 0.99124 0.0
H973 H 0.28859 0.78052 0.07188 0.0
H974 H 0.29562 0.775 0.04421 0.0
H975 H 0.35305 0.86205 0.02209 0.0
H976 H 0.32332 0.88982 0.94606 0.0
H977 H 0.3248 0.88502 0.97359 0.0
C978 C 0.21396 0.31451 0.55936 0.0
C979 C 0.19439 0.2869 0.56574 0.0
C980 C 0.21818 0.31698 0.54353 0.0
C981 C 0.1789 0.28328 0.50728 0.0
H982 H 0.26092 0.32695 0.4892 0.0
C983 C 0.20364 0.2893 0.44195 0.0
C984 C 0.20966 0.32351 0.43647 0.0
C985 C 0.20402 0.28254 0.45764 0.0
C986 C 0.2379 0.31465 0.49413 0.0
H987 H 0.16556 0.2392 0.56076 0.0
H988 H 0.1742 0.2423 0.5333 0.0
H989 H 0.2581 0.31879 0.51677 0.0
H990 H 0.22233 0.37707 0.44297 0.0
H991 H 0.22371 0.36516 0.47033 0.0
H992 H 0.15921 0.27859 0.4845 0.0
C993 C 0.18506 0.26308 0.54031 0.0
C994 C 0.23609 0.3102 0.50994 0.0
C995 C 0.18026 0.26108 0.55608 0.0
C996 C 0.21714 0.35057 0.44692 0.0
C997 C 0.21825 0.34369 0.46254 0.0
C998 C 0.18104 0.28715 0.49146 0.0
C999 C 0.20349 0.29143 0.53374 0.0
C1000 C 0.20636 0.2948 0.51679 0.0
C1001 C 0.21129 0.30973 0.46808 0.0
C1002 C 0.21035 0.30325 0.48475 0.0
H1003 H 0.22488 0.33484 0.56661 0.0
H1004 H 0.2321 0.33951 0.53899 0.0
H1005 H 0.15519 0.27204 0.51203 0.0
H1006 H 0.1978 0.26807 0.4341 0.0
H1007 H 0.19868 0.25609 0.46164 0.0
C1008 C 0.10022 0.41927 0.16431 0.0
C1009 C 0.11781 0.42459 0.15042 0.0
C1010 C 0.07356 0.44221 0.16888 0.0
C1011 C 1.00156 0.47871 0.16686 0.0
H1012 H 0.01131 0.58021 0.16423 0.0
C1013 C 0.88897 0.57582 0.155 0.0
C1014 C 0.88939 0.60863 0.16245 0.0
C1015 C 0.91572 0.55143 0.15746 0.0
C1016 C 1.00829 0.55194 0.16526 0.0
H1017 H 0.12263 0.45854 0.13072 0.0
H1018 H 0.07651 0.49918 0.13887 0.0
H1019 H 0.06283 0.54279 0.16094 0.0
H1020 H 0.91639 0.63999 0.1795 0.0
H1021 H 0.9636 0.59771 0.18343 0.0
H1022 H 0.94667 0.48786 0.17044 0.0
C1023 C 0.08318 0.47721 0.14617 0.0
C1024 C 0.03769 0.53059 0.16326 0.0
C1025 C 0.10937 0.45395 0.14147 0.0
C1026 C 0.91576 0.61537 0.17326 0.0
C1027 C 0.94271 0.59115 0.17558 0.0
C1028 C 0.97202 0.50008 0.16864 0.0
C1029 C 0.06459 0.47115 0.15976 0.0
C1030 C 0.03446 0.49379 0.16377 0.0
C1031 C 0.94352 0.55948 0.16733 0.0
C1032 C 0.97505 0.53686 0.16759 0.0
H1033 H 0.10613 0.39659 0.17132 0.0
H1034 H 0.05961 0.43709 0.17942 0.0
H1035 H 0.99839 0.45037 0.1672 0.0
H1036 H 0.86927 0.56984 0.14651 0.0
H1037 H 0.91586 0.52728 0.15087 0.0
C1038 C 0.41773 0.89547 0.66763 0.0
C1039 C 0.41077 0.88748 0.65227 0.0
C1040 C 0.44024 0.92341 0.67137 0.0
C1041 C 0.46305 1.00829 0.65759 0.0
H1042 H 0.55544 1.00271 0.67566 0.0
C1043 C 0.56782 0.11222 0.64643 0.0
C1044 C 0.59279 0.12027 0.65764 0.0
C1045 C 0.54288 0.08599 0.64893 0.0
C1046 C 0.52935 1.00492 0.67094 0.0
H1047 H 0.42432 0.90019 0.62888 0.0
H1048 H 0.46269 0.94918 0.63543 0.0
H1049 H 0.51829 0.95002 0.67461 0.0
H1050 H 0.61001 0.10824 0.68059 0.0
H1051 H 0.56612 0.06232 0.68498 0.0
H1052 H 0.47384 0.06271 0.6536 0.0
C1053 C 0.45049 0.9342 0.64452 0.0
C1054 C 0.50824 0.97475 0.67032 0.0
C1055 C 0.42849 0.90627 0.6408 0.0
C1056 C 0.59135 0.10236 0.67166 0.0
C1057 C 0.56628 0.07604 0.67417 0.0
C1058 C 0.48386 0.03842 0.65835 0.0
C1059 C 0.45575 0.94362 0.65978 0.0
C1060 C 0.47547 0.97607 0.66317 0.0
C1061 C 0.54214 0.06714 0.66271 0.0
C1062 C 0.51779 0.03683 0.6645 0.0
H1063 H 0.4044 0.88141 0.67668 0.0
H1064 H 0.44417 0.9303 0.68323 0.0
H1065 H 0.43766 1.00982 0.65212 0.0
H1066 H 0.5686 0.12494 0.6354 0.0
H1067 H 0.52519 0.0794 0.63972 0.0
C1068 C 0.42188 0.90441 0.84414 0.0
C1069 C 0.39228 0.91568 0.85228 0.0
C1070 C 0.44789 0.92845 0.83998 0.0
C1071 C 0.5099 0.97575 0.84508 0.0
H1072 H 0.49442 0.0755 0.83879 0.0
C1073 C 0.61161 0.0795 0.86194 0.0
C1074 C 0.61401 0.11106 0.85369 0.0
C1075 C 0.5861 0.05453 0.85833 0.0
C1076 C 0.49936 0.04763 0.84026 0.0
H1077 H 0.36554 0.9606 0.86198 0.0
H1078 H 0.41146 1.00268 0.85524 0.0
H1079 H 0.44512 0.03487 0.83742 0.0
H1080 H 0.59287 0.14038 0.83464 0.0
H1081 H 0.54853 0.09641 0.82814 0.0
H1082 H 0.5641 0.98839 0.84779 0.0
C1083 C 0.41438 0.97557 0.85162 0.0
C1084 C 0.47095 0.02437 0.83968 0.0
C1085 C 0.38807 0.95155 0.85554 0.0
C1086 C 0.5913 0.11647 0.84132 0.0
C1087 C 0.56587 0.09134 0.83764 0.0
C1088 C 0.53828 0.99892 0.8455 0.0
C1089 C 0.44517 0.9641 0.84422 0.0
C1090 C 0.47571 0.98825 0.84252 0.0
C1091 C 0.56252 0.06037 0.84629 0.0
C1092 C 0.53323 0.03527 0.84357 0.0
H1093 H 0.42548 0.87675 0.84153 0.0
H1094 H 0.47076 0.91879 0.83397 0.0
H1095 H 0.51471 0.94823 0.8475 0.0
H1096 H 0.62839 0.07482 0.87166 0.0
H1097 H 0.58394 0.03133 0.86543 0.0
C1098 C 0.12945 0.43936 0.33865 0.0
C1099 C 0.13112 0.42034 0.35238 0.0
C1100 C 0.1078 0.46901 0.33747 0.0
C1101 C 0.07516 0.54001 0.36029 0.0
H1102 H 0.99389 0.54736 0.33407 0.0
C1103 C 0.96097 0.63018 0.37476 0.0
C1104 C 0.94085 0.64563 0.3632 0.0
C1105 C 0.98819 0.60723 0.37118 0.0
C1106 C 0.01697 0.54618 0.3412 0.0
H1107 H 0.11141 0.41722 0.37554 0.0
H1108 H 0.07415 0.46913 0.37352 0.0
H1109 H 0.03332 0.49676 0.33155 0.0
H1110 H 0.93449 0.6505 0.33877 0.0
H1111 H 0.98281 0.61047 0.33242 0.0
H1112 H 0.05915 0.58894 0.37009 0.0
C1113 C 0.08922 0.46085 0.36366 0.0
C1114 C 0.03936 0.51715 0.33978 0.0
C1115 C 0.11025 0.43101 0.36476 0.0
C1116 C 0.94963 0.63893 0.3479 0.0
C1117 C 0.97704 0.61581 0.34429 0.0
C1118 C 0.05319 0.56917 0.36157 0.0
C1119 C 0.08824 0.48037 0.35012 0.0
C1120 C 0.06787 0.51334 0.3497 0.0
C1121 C 0.99626 0.59925 0.35592 0.0
C1122 C 0.02304 0.57194 0.35246 0.0
H1123 H 0.14536 0.43167 0.32896 0.0
H1124 H 0.10732 0.48377 0.32693 0.0
H1125 H 0.09733 0.53773 0.36792 0.0
H1126 H 0.95515 0.63525 0.38665 0.0
H1127 H 1.002 0.59467 0.38046 0.0
C1128 C 0.90201 0.60663 0.84301 0.0
C1129 C 0.89045 0.60853 0.85819 0.0
C1130 C 0.92667 0.58119 0.83864 0.0
C1131 C 0.96671 0.49731 0.8509 0.0
H1132 H 0.053 0.53324 0.83324 0.0
C1133 C 0.10049 0.44554 0.86577 0.0
C1134 C 0.11496 0.42308 0.8547 0.0
C1135 C 0.0734 0.46839 0.86201 0.0
C1136 C 0.02875 0.52273 0.83781 0.0
H1137 H 0.89393 0.58476 0.88054 0.0
H1138 H 0.93638 0.54017 0.87296 0.0
H1139 H 1.0008 0.571 0.83428 0.0
H1140 H 0.11426 0.40847 0.83083 0.0
H1141 H 0.06636 0.44918 0.82418 0.0
H1142 H 0.99534 0.44999 0.85538 0.0
C1143 C 0.92664 0.55814 0.86439 0.0
C1144 C 0.99894 0.54419 0.8384 0.0
C1145 C 0.90254 0.58375 0.86876 0.0
C1146 C 0.10359 0.42572 0.83952 0.0
C1147 C 0.07626 0.44877 0.83574 0.0
C1148 C 0.99638 0.47599 0.85031 0.0
C1149 C 0.93948 0.55696 0.84936 0.0
C1150 C 0.9681 0.53211 0.84553 0.0
C1151 C 0.0604 0.46937 0.84711 0.0
C1152 C 0.02786 0.48898 0.84425 0.0
H1153 H 0.89308 0.62569 0.83471 0.0
H1154 H 0.93614 0.58079 0.827 0.0
H1155 H 0.94318 0.48721 0.85629 0.0
H1156 H 0.10904 0.44419 0.87752 0.0
H1157 H 0.06147 0.48421 0.87091 0.0
C1158 C 0.59231 0.13599 0.35935 0.0
C1159 C 0.62399 0.13887 0.35119 0.0
C1160 C 0.56863 0.10898 0.35613 0.0
C1161 C 0.56921 0.01863 0.34451 0.0
H1162 H 0.46806 0.02838 0.34353 0.0
C1163 C 0.43627 0.92682 0.34463 0.0
C1164 C 0.44161 0.9084 0.35829 0.0
C1165 C 0.45959 0.95332 0.34018 0.0
C1166 C 0.49627 0.02526 0.34355 0.0
H1167 H 0.65407 0.11693 0.33238 0.0
H1168 H 0.61322 0.06879 0.32727 0.0
H1169 H 0.50519 0.08086 0.34169 0.0
H1170 H 0.47607 0.9017 0.37762 0.0
H1171 H 0.5174 0.9475 0.36966 0.0
H1172 H 0.56026 0.96325 0.3473 0.0
C1173 C 0.60697 0.08764 0.33614 0.0
C1174 C 0.51743 0.05522 0.34257 0.0
C1175 C 0.63041 0.11508 0.33917 0.0
C1176 C 0.47149 0.91561 0.36705 0.0
C1177 C 0.49513 0.94161 0.36245 0.0
C1178 C 0.54805 0.98873 0.34575 0.0
C1179 C 0.57627 0.08394 0.34483 0.0
C1180 C 0.55405 0.05221 0.34337 0.0
C1181 C 0.48893 0.96125 0.34918 0.0
C1182 C 0.5114 0.9919 0.34561 0.0
H1183 H 0.58656 0.15331 0.36884 0.0
H1184 H 0.5453 0.10644 0.36311 0.0
H1185 H 0.59739 0.01567 0.3453 0.0
H1186 H 0.4132 0.92186 0.33778 0.0
H1187 H 0.45432 0.96813 0.3299 0.0
C1188 C 0.41446 0.91187 0.17405 0.0
C1189 C 0.39142 0.9177 0.16184 0.0
C1190 C 0.44078 0.93627 0.17745 0.0
C1191 C 0.47113 0.02756 0.16922 0.0
H1192 H 0.56345 0.98826 0.17619 0.0
C1193 C 0.62235 0.07066 0.15825 0.0
C1194 C 0.61965 0.10634 0.16213 0.0
C1195 C 0.59539 0.04726 0.16208 0.0
C1196 C 0.53786 0.99968 0.17425 0.0
H1197 H 0.37722 0.9542 0.14393 0.0
H1198 H 0.42314 0.99653 0.14972 0.0
H1199 H 0.51267 0.94938 0.17522 0.0
H1200 H 0.58839 0.14554 0.17376 0.0
H1201 H 0.54193 0.10455 0.18109 0.0
H1202 H 0.49637 0.0775 0.16724 0.0
C1203 C 0.42063 0.97346 0.15688 0.0
C1204 C 0.50864 0.97743 0.17389 0.0
C1205 C 0.39425 0.94916 0.15354 0.0
C1206 C 0.59089 0.11799 0.17072 0.0
C1207 C 0.56419 0.09459 0.17474 0.0
C1208 C 0.50031 0.04974 0.16946 0.0
C1209 C 0.44469 0.96698 0.16868 0.0
C1210 C 0.47501 0.99103 0.17101 0.0
C1211 C 0.56542 0.05922 0.16995 0.0
C1212 C 0.53417 0.03602 0.17167 0.0
H1213 H 0.41258 0.88806 0.1808 0.0
H1214 H 0.45844 0.93078 0.18679 0.0
H1215 H 0.44557 0.039 0.16722 0.0
H1216 H 0.64418 0.06137 0.15142 0.0
H1217 H 0.59713 0.02037 0.15804 0.0
C1218 C 0.08123 0.40766 0.6363 0.0
C1219 C 0.09785 0.38697 0.64741 0.0
C1220 C 0.05941 0.43533 0.64054 0.0
C1221 C 0.04556 0.50741 0.65509 0.0
H1222 H 0.95357 0.49933 0.67363 0.0
C1223 C 0.91765 0.59959 0.67187 0.0
C1224 C 0.91611 0.61903 0.65825 0.0
C1225 C 0.94259 0.5729 0.67369 0.0
C1226 C 0.97955 0.5022 0.66879 0.0
H1227 H 0.10245 0.37747 0.67168 0.0
H1228 H 0.06297 0.42579 0.67911 0.0
H1229 H 0.99081 0.44701 0.67124 0.0
H1230 H 0.93982 0.62577 0.63593 0.0
H1231 H 0.98295 0.57973 0.63907 0.0
H1232 H 0.03461 0.56217 0.65237 0.0
C1233 C 0.06764 0.42059 0.66713 0.0
C1234 C 1.00071 0.47224 0.66739 0.0
C1235 C 0.09 0.39296 0.66288 0.0
C1236 C 0.94072 0.61195 0.64671 0.0
C1237 C 0.96552 0.58541 0.64852 0.0
C1238 C 0.02473 0.53731 0.65664 0.0
C1239 C 0.05318 0.44259 0.65597 0.0
C1240 C 0.03332 0.47453 0.66005 0.0
C1241 C 0.96649 0.5652 0.66192 0.0
C1242 C 0.99092 0.53485 0.66296 0.0
H1243 H 0.08594 0.40314 0.62427 0.0
H1244 H 0.04799 0.45168 0.63175 0.0
H1245 H 0.07085 0.50972 0.64953 0.0
H1246 H 0.89924 0.60462 0.68103 0.0
H1247 H 0.94289 0.55804 0.68421 0.0
C1248 C 0.59344 0.25225 0.11999 0.0
C1249 C 0.60918 0.26766 0.13288 0.0
C1250 C 0.55696 0.2548 0.11772 0.0
C1251 C 0.47766 0.30532 0.12947 0.0
H1252 H 0.4265 0.21858 0.12235 0.0
C1253 C 0.32927 0.29884 0.1407 0.0
C1254 C 0.30761 0.27891 0.13102 0.0
C1255 C 0.36581 0.2965 0.13976 0.0
C1256 C 0.44026 0.24319 0.12412 0.0
H1257 H 0.59918 0.29936 0.15294 0.0
H1258 H 0.53641 0.30493 0.14871 0.0
H1259 H 0.49067 0.2185 0.12165 0.0
H1260 H 0.30772 0.24004 0.11296 0.0
H1261 H 0.37184 0.23617 0.11112 0.0
H1262 H 0.42775 0.33022 0.13189 0.0
C1263 C 0.55188 0.29055 0.14042 0.0
C1264 C 0.47717 0.24313 0.1237 0.0
C1265 C 0.58799 0.28743 0.14284 0.0
C1266 C 0.32361 0.25558 0.12066 0.0
C1267 C 0.36045 0.25343 0.11962 0.0
C1268 C 0.44093 0.30546 0.12976 0.0
C1269 C 0.5356 0.27349 0.12808 0.0
C1270 C 0.49639 0.27409 0.12668 0.0
C1271 C 0.38216 0.27445 0.12896 0.0
C1272 C 0.42152 0.27427 0.12746 0.0
H1273 H 0.60889 0.23648 0.11219 0.0
H1274 H 0.54537 0.24158 0.10801 0.0
H1275 H 0.49148 0.32978 0.13156 0.0
H1276 H 0.31793 0.31685 0.14893 0.0
H1277 H 0.38127 0.31231 0.14752 0.0
C1278 C 0.70582 0.32217 0.61797 0.0
C1279 C 0.73413 0.30209 0.62327 0.0
C1280 C 0.70856 0.35876 0.61645 0.0
C1281 C 0.77268 0.43471 0.61802 0.0
H1282 H 0.68749 0.48833 0.62459 0.0
C1283 C 0.77065 0.58504 0.63094 0.0
C1284 C 0.74809 0.60585 0.62201 0.0
C1285 C 0.76918 0.5482 0.63032 0.0
C1286 C 0.71145 0.47374 0.62261 0.0
H1287 H 0.7878 0.30457 0.631 0.0
H1288 H 0.79239 0.3687 0.62909 0.0
H1289 H 0.68536 0.42435 0.62508 0.0
H1290 H 0.70599 0.60383 0.60553 0.0
H1291 H 0.70248 0.53919 0.60491 0.0
H1292 H 0.79881 0.48476 0.6164 0.0
C1293 C 0.76822 0.35627 0.62555 0.0
C1294 C 0.71032 0.43681 0.62276 0.0
C1295 C 0.76569 0.31936 0.62669 0.0
C1296 C 0.7236 0.58868 0.61261 0.0
C1297 C 0.7216 0.55168 0.61226 0.0
C1298 C 0.77389 0.4717 0.6182 0.0
C1299 C 0.73942 0.37675 0.62065 0.0
C1300 C 0.74088 0.4165 0.62039 0.0
C1301 C 0.74468 0.531 0.62098 0.0
C1302 C 0.74327 0.49166 0.62046 0.0
H1303 H 0.6812 0.30951 0.61514 0.0
H1304 H 0.68611 0.37287 0.6121 0.0
H1305 H 0.79677 0.42054 0.61587 0.0
H1306 H 0.7902 0.59719 0.63815 0.0
H1307 H 0.78715 0.53309 0.63725 0.0
C1308 C 0.41585 0.7564 0.12655 0.0
C1309 C 0.4036 0.78274 0.11667 0.0
C1310 C 0.45184 0.74864 0.1273 0.0
C1311 C 0.53711 0.79212 0.12009 0.0
H1312 H 0.57662 0.69907 0.12546 0.0
C1313 C 0.6873 0.76863 0.12007 0.0
C1314 C 0.70056 0.74317 0.13011 0.0
C1315 C 0.65102 0.77249 0.11809 0.0
C1316 C 0.56603 0.72533 0.12415 0.0
H1317 H 0.41908 0.81961 0.09904 0.0
H1318 H 0.4812 0.80568 0.10013 0.0
H1319 H 0.51337 0.70575 0.12232 0.0
H1320 H 0.68602 0.7022 0.14613 0.0
H1321 H 0.62313 0.70943 0.14296 0.0
H1322 H 0.58942 0.81188 0.12213 0.0
C1323 C 0.4634 0.79164 0.1076 0.0
C1324 C 0.5297 0.7291 0.12231 0.0
C1325 C 0.42768 0.79939 0.10688 0.0
C1326 C 0.67674 0.72201 0.13825 0.0
C1327 C 0.64056 0.72595 0.13633 0.0
C1328 C 0.57331 0.78838 0.12199 0.0
C1329 C 0.47617 0.76708 0.11817 0.0
C1330 C 0.51479 0.76255 0.12018 0.0
C1331 C 0.62711 0.75108 0.12615 0.0
C1332 C 0.58837 0.75494 0.12402 0.0
H1333 H 0.39802 0.74335 0.13434 0.0
H1334 H 0.46076 0.72957 0.13558 0.0
H1335 H 0.52651 0.81839 0.1188 0.0
H1336 H 0.70493 0.78518 0.11354 0.0
H1337 H 0.64176 0.79186 0.11 0.0
C1338 C 0.25481 0.40373 0.61169 0.0
C1339 C 0.26885 0.38756 0.62471 0.0
C1340 C 0.26 0.4399 0.60915 0.0
C1341 C 0.31336 0.51743 0.62024 0.0
H1342 H 0.22669 0.57003 0.6171 0.0
C1343 C 0.30812 0.6653 0.63496 0.0
C1344 C 0.28491 0.6874 0.62709 0.0
C1345 C 0.30731 0.6288 0.63279 0.0
C1346 C 0.2513 0.55595 0.61768 0.0
H1347 H 0.30137 0.39574 0.64458 0.0
H1348 H 0.31173 0.45812 0.63979 0.0
H1349 H 0.22562 0.50594 0.61526 0.0
H1350 H 0.24269 0.68843 0.61065 0.0
H1351 H 0.24179 0.6248 0.6065 0.0
H1352 H 0.33922 0.56711 0.62263 0.0
C1353 C 0.29633 0.44325 0.63166 0.0
C1354 C 0.25063 0.5191 0.61661 0.0
C1355 C 0.29048 0.40746 0.63439 0.0
C1356 C 0.26076 0.67209 0.61698 0.0
C1357 C 0.2602 0.63551 0.61465 0.0
C1358 C 0.31413 0.55426 0.62111 0.0
C1359 C 0.28006 0.46023 0.61936 0.0
C1360 C 0.28155 0.49937 0.61821 0.0
C1361 C 0.28355 0.61327 0.6225 0.0
C1362 C 0.283 0.5741 0.62022 0.0
H1363 H 0.23774 0.38914 0.60412 0.0
H1364 H 0.24735 0.45223 0.5995 0.0
H1365 H 0.33768 0.50299 0.62139 0.0
H1366 H 0.32691 0.6762 0.64292 0.0
H1367 H 0.32514 0.61274 0.63936 0.0
C1368 C 0.08985 0.26967 0.89429 0.0
C1369 C 0.10407 0.25463 0.88098 0.0
C1370 C 0.05394 0.26606 0.89759 0.0
C1371 C 0.97448 0.21409 0.88816 0.0
H1372 H 0.92343 0.30141 0.89381 0.0
C1373 C 0.8275 0.22149 0.87557 0.0
C1374 C 0.80549 0.24222 0.88479 0.0
C1375 C 0.86388 0.22299 0.87713 0.0
C1376 C 0.93721 0.27667 0.89251 0.0
H1377 H 0.09246 0.22236 0.86127 0.0
H1378 H 0.03055 0.2149 0.8673 0.0
H1379 H 0.98757 0.30179 0.89403 0.0
H1380 H 0.80464 0.28137 0.90276 0.0
H1381 H 0.8686 0.28379 0.90566 0.0
H1382 H 0.92453 0.18885 0.88653 0.0
C1383 C 0.04677 0.22979 0.87511 0.0
C1384 C 0.97403 0.27691 0.89265 0.0
C1385 C 0.0823 0.234 0.87166 0.0
C1386 C 0.8209 0.26516 0.89544 0.0
C1387 C 0.85756 0.26654 0.89708 0.0
C1388 C 0.93782 0.21379 0.88815 0.0
C1389 C 0.03186 0.24665 0.88784 0.0
C1390 C 0.99308 0.24573 0.89008 0.0
C1391 C 0.87954 0.24504 0.88808 0.0
C1392 C 0.91859 0.24521 0.88986 0.0
H1393 H 0.10591 0.28606 0.90159 0.0
H1394 H 0.04325 0.27916 0.90753 0.0
H1395 H 0.98834 0.18954 0.88637 0.0
H1396 H 0.81662 0.20377 0.86713 0.0
H1397 H 0.87976 0.20679 0.86967 0.0
C1398 C 0.81278 0.85388 0.37585 0.0
C1399 C 0.79537 0.83116 0.38601 0.0
C1400 C 0.80961 0.89045 0.37728 0.0
C1401 C 0.79505 0.96053 0.40486 0.0
H1402 H 0.77102 0.0177 0.36988 0.0
C1403 C 0.77462 0.11188 0.40997 0.0
C1404 C 0.78135 0.13318 0.39721 0.0
C1405 C 0.77672 0.07507 0.40891 0.0
C1406 C 0.77849 1.00241 0.37974 0.0
H1407 H 0.76105 0.82905 0.40569 0.0
H1408 H 0.75631 0.89333 0.40847 0.0
H1409 H 0.77307 0.95389 0.3674 0.0
H1410 H 0.79706 0.13253 0.37348 0.0
H1411 H 0.80274 0.06881 0.3718 0.0
H1412 H 0.80199 1.00876 0.41711 0.0
C1413 C 0.77206 0.88262 0.39928 0.0
C1414 C 0.77929 0.96567 0.37831 0.0
C1415 C 0.77459 0.84589 0.39764 0.0
C1416 C 0.79159 0.11688 0.38352 0.0
C1417 C 0.79437 0.08014 0.38253 0.0
C1418 C 0.79494 0.99736 0.40624 0.0
C1419 C 0.78957 0.90529 0.38911 0.0
C1420 C 0.78756 0.9443 0.39084 0.0
C1421 C 0.7862 0.05849 0.39511 0.0
C1422 C 0.78667 0.019 0.39369 0.0
H1423 H 0.82897 0.84335 0.36677 0.0
H1424 H 0.82355 0.90721 0.36932 0.0
H1425 H 0.80191 0.94473 0.41467 0.0
H1426 H 0.76612 0.12353 0.42063 0.0
H1427 H 0.76965 0.05969 0.41883 0.0
C1428 C 0.91581 0.76204 0.89919 0.0
C1429 C 0.90088 0.77796 0.88629 0.0
C1430 C 0.95173 0.76618 0.90229 0.0
C1431 C 0.02994 0.82058 0.89353 0.0
H1432 H 0.08249 0.73349 0.89621 0.0
C1433 C 0.17735 0.81714 0.88004 0.0
C1434 C 0.19949 0.79375 0.88782 0.0
C1435 C 0.14102 0.8158 0.88205 0.0
C1436 C 0.06836 0.75817 0.89578 0.0
H1437 H 0.91118 0.81236 0.86714 0.0
H1438 H 0.97311 0.82081 0.87289 0.0
H1439 H 0.01847 0.73199 0.89691 0.0
H1440 H 0.20063 0.75051 0.90387 0.0
H1441 H 0.13698 0.74856 0.90767 0.0
H1442 H 0.07941 0.84693 0.89239 0.0
C1443 C 0.95743 0.80478 0.88051 0.0
C1444 C 0.03157 0.75726 0.89618 0.0
C1445 C 0.92191 0.80001 0.87723 0.0
C1446 C 0.18429 0.76883 0.89767 0.0
C1447 C 0.14774 0.76767 0.89979 0.0
C1448 C 0.06662 0.82155 0.89332 0.0
C1449 C 0.97309 0.78702 0.89276 0.0
C1450 C 0.01193 0.78839 0.89468 0.0
C1451 C 0.12554 0.79128 0.89204 0.0
C1452 C 0.08646 0.79029 0.89399 0.0
H1453 H 0.90036 0.74456 0.90628 0.0
H1454 H 0.96302 0.75233 0.91187 0.0
H1455 H 0.01559 0.84506 0.89254 0.0
H1456 H 0.18806 0.83649 0.87225 0.0
H1457 H 0.12504 0.83383 0.87553 0.0
C1458 C 0.28281 0.20648 0.3902 0.0
C1459 C 0.25191 0.22249 0.38492 0.0
C1460 C 0.28485 0.16956 0.39176 0.0
C1461 C 0.241 0.08716 0.37797 0.0
H1462 H 0.29101 0.04187 0.41091 0.0
C1463 C 0.23247 0.93622 0.38685 0.0
C1464 C 0.26357 0.9183 0.39051 0.0
C1465 C 0.23095 0.97319 0.38727 0.0
C1466 C 0.27714 0.05403 0.40155 0.0
H1467 H 0.19857 0.212 0.37769 0.0
H1468 H 0.20188 0.14866 0.38064 0.0
H1469 H 0.28955 0.10618 0.40943 0.0
H1470 H 0.31719 0.92579 0.39806 0.0
H1471 H 0.31455 0.98988 0.39875 0.0
H1472 H 0.22864 0.03528 0.37003 0.0
C1473 C 0.22495 0.16415 0.38323 0.0
C1474 C 0.27637 0.09104 0.40068 0.0
C1475 C 0.22297 0.20076 0.38164 0.0
C1476 C 0.2927 0.93847 0.39517 0.0
C1477 C 0.29116 0.97542 0.39562 0.0
C1478 C 0.24172 0.05029 0.37885 0.0
C1479 C 0.25603 0.14778 0.38808 0.0
C1480 C 0.25807 0.10823 0.38892 0.0
C1481 C 0.26047 0.99345 0.39139 0.0
C1482 C 0.25963 0.03305 0.39068 0.0
H1483 H 0.30561 0.22237 0.39281 0.0
H1484 H 0.30932 0.15804 0.39547 0.0
H1485 H 0.22731 0.09914 0.36852 0.0
H1486 H 0.20947 0.92176 0.38321 0.0
H1487 H 0.2066 0.98594 0.3842 0.0
C1488 C 0.42133 0.73135 0.87448 0.0
C1489 C 0.39997 0.75242 0.88384 0.0
C1490 C 0.457 0.72724 0.87762 0.0
C1491 C 0.53069 0.77489 0.89403 0.0
H1492 H 0.57938 0.68605 0.88929 0.0
C1493 C 0.68351 0.7642 0.89682 0.0
C1494 C 0.69934 0.73983 0.88688 0.0
C1495 C 0.64683 0.76525 0.89847 0.0
C1496 C 0.56637 0.71122 0.89048 0.0
H1497 H 0.39916 0.7847 0.90423 0.0
H1498 H 0.46199 0.77806 0.90956 0.0
H1499 H 0.51558 0.68721 0.88909 0.0
H1500 H 0.68889 0.69816 0.87059 0.0
H1501 H 0.62568 0.70069 0.87304 0.0
H1502 H 0.58142 0.79918 0.89474 0.0
C1503 C 0.45087 0.76454 0.89983 0.0
C1504 C 0.52968 0.71178 0.89048 0.0
C1505 C 0.41483 0.76803 0.89687 0.0
C1506 C 0.67768 0.71705 0.87847 0.0
C1507 C 0.64123 0.71829 0.88 0.0
C1508 C 0.5675 0.77441 0.89385 0.0
C1509 C 0.47249 0.74465 0.89004 0.0
C1510 C 0.51135 0.74366 0.89199 0.0
C1511 C 0.62512 0.74209 0.89014 0.0
C1512 C 0.58593 0.74262 0.89174 0.0
H1513 H 0.41071 0.71918 0.86432 0.0
H1514 H 0.47287 0.71192 0.8698 0.0
H1515 H 0.51736 0.79995 0.89507 0.0
H1516 H 0.69946 0.78203 0.90351 0.0
H1517 H 0.63556 0.78381 0.90647 0.0
C1518 C 0.28086 0.44197 0.40235 0.0
C1519 C 0.28649 0.42062 0.38946 0.0
C1520 C 0.28056 0.47886 0.40114 0.0
C1521 C 0.27395 0.55145 0.37193 0.0
H1522 H 0.30007 0.61056 0.40612 0.0
C1523 C 0.30321 0.7015 0.36719 0.0
C1524 C 0.28883 0.72394 0.37834 0.0
C1525 C 0.29991 0.66483 0.36838 0.0
C1526 C 0.29234 0.59441 0.39651 0.0
H1527 H 0.29743 0.42168 0.36523 0.0
H1528 H 0.29892 0.48562 0.36323 0.0
H1529 H 0.30309 0.54669 0.40854 0.0
H1530 H 0.25945 0.72534 0.39946 0.0
H1531 H 0.25432 0.66096 0.40176 0.0
H1532 H 0.26477 0.59959 0.35975 0.0
C1533 C 0.29333 0.47413 0.37425 0.0
C1534 C 0.29395 0.55757 0.39789 0.0
C1535 C 0.29298 0.43724 0.37541 0.0
C1536 C 0.27041 0.70879 0.39059 0.0
C1537 C 0.2678 0.67193 0.39198 0.0
C1538 C 0.273 0.58827 0.37048 0.0
C1539 C 0.28646 0.4957 0.38703 0.0
C1540 C 0.28483 0.53532 0.3856 0.0
C1541 C 0.28284 0.64948 0.38095 0.0
C1542 C 0.28218 0.61026 0.38275 0.0
H1543 H 0.27515 0.43017 0.41331 0.0
H1544 H 0.27454 0.49401 0.41126 0.0
H1545 H 0.26576 0.53574 0.36227 0.0
H1546 H 0.31773 0.71233 0.35766 0.0
H1547 H 0.31196 0.6484 0.35974 0.0
C1548 C 0.59091 0.27576 0.88797 0.0
C1549 C 0.60234 0.24932 0.898 0.0
C1550 C 0.55503 0.28379 0.88679 0.0
C1551 C 0.46955 0.24028 0.89237 0.0
H1552 H 0.42954 0.33346 0.88824 0.0
C1553 C 0.31943 0.26121 0.8916 0.0
C1554 C 0.30582 0.2877 0.88217 0.0
C1555 C 0.35569 0.25803 0.89376 0.0
C1556 C 0.44027 0.30718 0.88917 0.0
H1557 H 0.58542 0.21263 0.91546 0.0
H1558 H 0.52349 0.22684 0.91352 0.0
H1559 H 0.49274 0.32691 0.89182 0.0
H1560 H 0.31972 0.33145 0.86749 0.0
H1561 H 0.38277 0.32535 0.87089 0.0
H1562 H 0.41761 0.22029 0.88942 0.0
C1563 C 0.5419 0.24083 0.90631 0.0
C1564 C 0.47656 0.30349 0.89127 0.0
C1565 C 0.57751 0.2329 0.9075 0.0
C1566 C 0.32931 0.31079 0.87488 0.0
C1567 C 0.36556 0.30746 0.87694 0.0
C1568 C 0.43344 0.24391 0.89015 0.0
C1569 C 0.53001 0.26546 0.89558 0.0
C1570 C 0.49159 0.26998 0.89304 0.0
C1571 C 0.37935 0.28108 0.88644 0.0
C1572 C 0.41814 0.27741 0.88862 0.0
H1573 H 0.60932 0.28868 0.8804 0.0
H1574 H 0.54673 0.30294 0.87841 0.0
H1575 H 0.48031 0.214 0.89335 0.0
H1576 H 0.30206 0.24317 0.89748 0.0
H1577 H 0.3651 0.23774 0.90137 0.0
C1578 C 0.77133 0.34292 0.4007 0.0
C1579 C 0.74544 0.32851 0.39116 0.0
C1580 C 0.77348 0.37961 0.40295 0.0
C1581 C 0.72134 0.46264 0.39723 0.0
H1582 H 0.81181 0.50899 0.39879 0.0
C1583 C 0.74541 0.60602 0.37858 0.0
C1584 C 0.76721 0.62767 0.38745 0.0
C1585 C 0.7404 0.57059 0.38232 0.0
C1586 C 0.78633 0.49639 0.39862 0.0
H1587 H 0.70189 0.34155 0.37636 0.0
H1588 H 0.70618 0.40451 0.37988 0.0
H1589 H 0.80875 0.44462 0.3988 0.0
H1590 H 0.80024 0.62932 0.40747 0.0
H1591 H 0.79221 0.56671 0.41382 0.0
H1592 H 0.69913 0.51443 0.39619 0.0
C1593 C 0.72426 0.38792 0.38607 0.0
C1594 C 0.78452 0.45942 0.39864 0.0
C1595 C 0.72197 0.35155 0.38393 0.0
C1596 C 0.78291 0.61339 0.40054 0.0
C1597 C 0.77861 0.57751 0.40408 0.0
C1598 C 0.7232 0.49945 0.39698 0.0
C1599 C 0.74986 0.40267 0.39567 0.0
C1600 C 0.752 0.44195 0.39754 0.0
C1601 C 0.75778 0.55559 0.39483 0.0
C1602 C 0.75572 0.51679 0.39735 0.0
H1603 H 0.78979 0.3259 0.40645 0.0
H1604 H 0.79345 0.38983 0.41051 0.0
H1605 H 0.69571 0.4504 0.39686 0.0
H1606 H 0.73329 0.61621 0.36834 0.0
H1607 H 0.72439 0.55441 0.37491 0.0
C1608 C 0.92699 0.72848 0.10722 0.0
C1609 C 0.90318 0.74502 0.11717 0.0
C1610 C 0.96275 0.73624 0.1078 0.0
C1611 C 0.02951 0.7988 0.12235 0.0
H1612 H 0.08922 0.7162 0.12156 0.0
C1613 C 0.17702 0.80614 0.13752 0.0
C1614 C 0.20063 0.78502 0.12924 0.0
C1615 C 0.14079 0.80217 0.13575 0.0
C1616 C 0.07312 0.73965 0.12158 0.0
H1617 H 0.89814 0.78423 0.135 0.0
H1618 H 0.96095 0.79803 0.13598 0.0
H1619 H 0.02621 0.70955 0.11856 0.0
H1620 H 0.20454 0.74309 0.11257 0.0
H1621 H 0.14127 0.73639 0.10927 0.0
H1622 H 0.07652 0.82893 0.12532 0.0
C1623 C 0.95177 0.77903 0.12769 0.0
C1624 C 0.03685 0.73583 0.11987 0.0
C1625 C 0.91575 0.77125 0.12709 0.0
C1626 C 0.18708 0.75962 0.11919 0.0
C1627 C 0.15075 0.75573 0.11736 0.0
C1628 C 0.06589 0.80266 0.12399 0.0
C1629 C 0.97584 0.76072 0.11838 0.0
C1630 C 0.01452 0.76533 0.12019 0.0
C1631 C 0.12705 0.77707 0.12558 0.0
C1632 C 0.08825 0.77311 0.12364 0.0
H1633 H 0.91815 0.70837 0.09935 0.0
H1634 H 0.98032 0.7223 0.10019 0.0
H1635 H 0.01318 0.82211 0.12252 0.0
H1636 H 0.18652 0.8259 0.14542 0.0
H1637 H 0.12355 0.81863 0.1425 0.0
C1638 C 0.20137 0.16549 0.63148 0.0
C1639 C 0.22492 0.18697 0.62339 0.0
C1640 C 0.20243 0.12885 0.63 0.0
C1641 C 0.25931 0.05483 0.61688 0.0
H1642 H 0.1727 1.00213 0.62117 0.0
C1643 C 0.25495 0.90187 0.61447 0.0
C1644 C 0.24053 0.88749 0.62785 0.0
C1645 C 0.25029 0.93771 0.61108 0.0
C1646 C 0.19708 0.01649 0.61987 0.0
H1647 H 0.26809 0.18674 0.60731 0.0
H1648 H 0.26945 0.12267 0.60436 0.0
H1649 H 0.17111 0.06627 0.62076 0.0
H1650 H 0.20789 0.89851 0.64751 0.0
H1651 H 0.19846 0.96032 0.64125 0.0
H1652 H 0.28508 1.00464 0.61593 0.0
C1653 C 0.25053 0.13409 0.61213 0.0
C1654 C 0.19628 0.05334 0.61978 0.0
C1655 C 0.24971 0.17089 0.61377 0.0
C1656 C 0.21915 0.90884 0.63708 0.0
C1657 C 0.21381 0.94427 0.6335 0.0
C1658 C 0.26002 0.01789 0.61674 0.0
C1659 C 0.22678 0.11249 0.6202 0.0
C1660 C 0.22747 0.07314 0.61871 0.0
C1661 C 0.23034 0.95946 0.62078 0.0
C1662 C 0.22899 0.99833 0.6186 0.0
H1663 H 0.18212 0.17699 0.63909 0.0
H1664 H 0.18431 0.11336 0.63674 0.0
H1665 H 0.28395 0.06892 0.61617 0.0
H1666 H 0.27179 0.88615 0.60721 0.0
H1667 H 0.26315 0.94868 0.60114 0.0
C1668 C 0.83414 0.20366 0.1323 0.0
C1669 C 0.81229 0.2314 0.12759 0.0
C1670 C 0.8706 0.20577 0.13067 0.0
C1671 C 0.94239 0.25398 0.11041 0.0
H1672 H 0.99972 0.21309 0.14218 0.0
C1673 C 0.09406 0.27376 0.11383 0.0
C1674 C 0.11473 0.24569 0.11922 0.0
C1675 C 0.05731 0.27157 0.11382 0.0
C1676 C 0.98424 0.22423 0.13307 0.0
H1677 H 0.81208 0.28321 0.11732 0.0
H1678 H 0.87599 0.28723 0.11464 0.0
H1679 H 0.93623 0.21138 0.14444 0.0
H1680 H 0.11236 0.19271 0.12832 0.0
H1681 H 0.0485 0.18871 0.12813 0.0
H1682 H 0.99069 0.26717 0.09914 0.0
C1683 C 0.86477 0.26351 0.11946 0.0
C1684 C 0.94759 0.22328 0.13437 0.0
C1685 C 0.82805 0.26133 0.12106 0.0
C1686 C 0.0975 0.21487 0.12407 0.0
C1687 C 0.06072 0.21273 0.12411 0.0
C1688 C 0.97915 0.25504 0.10913 0.0
C1689 C 0.88666 0.2358 0.12434 0.0
C1690 C 0.92598 0.23792 0.12302 0.0
C1691 C 0.04 0.24129 0.11925 0.0
C1692 C 1.00067 0.24 0.12041 0.0
H1693 H 0.82306 0.18003 0.13727 0.0
H1694 H 0.8862 0.18351 0.13428 0.0
H1695 H 0.92684 0.26519 0.10132 0.0
H1696 H 0.10622 0.29799 0.11002 0.0
H1697 H 0.04245 0.29423 0.11008 0.0
C1698 C 0.73963 0.08488 0.62988 0.0
C1699 C 0.76274 0.10567 0.62113 0.0
C1700 C 0.74123 0.04803 0.6294 0.0
C1701 C 0.79968 0.97373 0.62258 0.0
H1702 H 0.71502 0.91991 0.6151 0.0
C1703 C 0.80601 0.822 0.61867 0.0
C1704 C 0.7773 0.80187 0.62365 0.0
C1705 C 0.80333 0.85856 0.61698 0.0
C1706 C 0.73891 0.93426 0.61746 0.0
H1707 H 0.80594 0.10361 0.6051 0.0
H1708 H 0.80967 0.03897 0.60473 0.0
H1709 H 0.71277 0.98412 0.61537 0.0
H1710 H 0.72301 0.80426 0.63064 0.0
H1711 H 0.71847 0.86831 0.62846 0.0
H1712 H 0.82572 0.92454 0.62552 0.0
C1713 C 0.79002 0.05147 0.61183 0.0
C1714 C 0.73759 0.97125 0.6175 0.0
C1715 C 0.78789 0.08847 0.61204 0.0
C1716 C 0.74544 0.81907 0.62658 0.0
C1717 C 0.74295 0.85595 0.62528 0.0
C1718 C 0.8009 0.9368 0.62288 0.0
C1719 C 0.76642 0.0308 0.62038 0.0
C1720 C 0.76798 0.99144 0.62001 0.0
C1721 C 0.7721 0.87649 0.6207 0.0
C1722 C 0.77058 0.91625 0.62026 0.0
H1723 H 0.71956 0.09704 0.63685 0.0
H1724 H 0.72284 0.03294 0.63619 0.0
H1725 H 0.82346 0.9885 0.62476 0.0
H1726 H 0.83087 0.80941 0.61622 0.0
H1727 H 0.82612 0.87269 0.61289 0.0
loop_
_geom_bond_atom_site_label_1
_geom_bond_atom_site_label_2
_geom_bond_distance
_geom_bond_site_symmetry_2
_ccdc_geom_bond_type
Co0 N4 2.148 . S
Co0 N10 2.128 . S
Co0 N20 2.194 . S
Co0 O25 2.351 . S
Co0 O26 2.155 . S
Co0 O27 2.096 . S
C1 N4 1.301 . S
C1 N5 1.328 . S
C1 H6 0.930 . S
C2 C3 1.333 . S
C2 N4 1.317 . S
C2 H7 0.930 . S
C3 C2 1.333 . S
C3 N5 1.350 . S
C3 H29 0.931 . S
N4 Co0 2.148 . S
N4 C1 1.301 . S
N4 C2 1.317 . S
N5 C1 1.328 . S
N5 C3 1.350 . S
H6 C1 0.930 . S
H7 C2 0.930 . S
C8 O9 1.224 . S
C8 O27 1.247 . S
O9 C8 1.224 . S
N10 Co0 2.128 . S
N10 C11 1.355 . S
N10 C13 1.311 . S
C11 N10 1.355 . S
C11 C12 1.363 . S
C11 H23 0.929 . S
C12 C11 1.363 . S
C12 N14 1.375 . S
C12 H30 0.931 . S
C13 N10 1.311 . S
C13 N14 1.347 . S
C13 H24 0.929 . S
N14 C12 1.375 . S
N14 C13 1.347 . S
C15 C18 1.365 . S
C15 N20 1.328 . S
C15 H21 0.929 . S
C16 C17 1.362 . S
C16 C19 1.378 . S
C16 H31 0.929 . S
C17 C16 1.362 . S
C17 C18 1.366 . S
C18 C15 1.365 . S
C18 C17 1.366 . S
C18 H32 0.930 . S
C19 C16 1.378 . S
C19 N20 1.315 . S
C19 H22 0.930 . S
N20 Co0 2.194 . S
N20 C15 1.328 . S
N20 C19 1.315 . S
H21 C15 0.929 . S
H22 C19 0.930 . S
H23 C11 0.929 . S
H24 C13 0.929 . S
O25 Co0 2.351 . S
O25 C28 1.244 . S
O26 Co0 2.155 . S
O26 C28 1.240 . S
O27 Co0 2.096 . S
O27 C8 1.247 . S
C28 O25 1.244 . S
C28 O26 1.240 . S
H29 C3 0.931 . S
H30 C12 0.931 . S
H31 C16 0.929 . S
H32 C18 0.930 . S
Co33 N37 2.148 . S
Co33 N43 2.128 . S
Co33 N53 2.194 . S
Co33 O58 2.351 . S
Co33 O59 2.155 . S
Co33 O60 2.096 . S
C34 N37 1.301 . S
C34 N38 1.328 . S
C34 H39 0.930 . S
C35 C36 1.333 . S
C35 N37 1.317 . S
C35 H40 0.930 . S
C36 C35 1.333 . S
C36 N38 1.350 . S
C36 H62 0.931 . S
N37 Co33 2.148 . S
N37 C34 1.301 . S
N37 C35 1.317 . S
N38 C34 1.328 . S
N38 C36 1.350 . S
H39 C34 0.930 . S
H40 C35 0.930 . S
C41 O42 1.224 . S
C41 O60 1.247 . S
O42 C41 1.224 . S
N43 Co33 2.128 . S
N43 C44 1.355 . S
N43 C46 1.311 . S
C44 N43 1.355 . S
C44 C45 1.363 . S
C44 H56 0.929 . S
C45 C44 1.363 . S
C45 N47 1.375 . S
C45 H63 0.931 . S
C46 N43 1.311 . S
C46 N47 1.347 . S
C46 H57 0.929 . S
N47 C45 1.375 . S
N47 C46 1.347 . S
C48 C51 1.365 . S
C48 N53 1.328 . S
C48 H54 0.929 . S
C49 C50 1.362 . S
C49 C52 1.378 . S
C49 H64 0.929 . S
C50 C49 1.362 . S
C50 C51 1.366 . S
C51 C48 1.365 . S
C51 C50 1.366 . S
C51 H65 0.930 . S
C52 C49 1.378 . S
C52 N53 1.315 . S
C52 H55 0.930 . S
N53 Co33 2.194 . S
N53 C48 1.328 . S
N53 C52 1.315 . S
H54 C48 0.929 . S
H55 C52 0.930 . S
H56 C44 0.929 . S
H57 C46 0.929 . S
O58 Co33 2.351 . S
O58 C61 1.244 . S
O59 Co33 2.155 . S
O59 C61 1.240 . S
O60 Co33 2.096 . S
O60 C41 1.247 . S
C61 O58 1.244 . S
C61 O59 1.240 . S
H62 C36 0.931 . S
H63 C45 0.931 . S
H64 C49 0.929 . S
H65 C51 0.930 . S
Co66 N70 2.148 . S
Co66 N76 2.128 . S
Co66 N86 2.194 . S
Co66 O91 2.351 . S
Co66 O92 2.155 . S
Co66 O93 2.096 . S
C67 N70 1.301 . S
C67 N71 1.328 . S
C67 H72 0.930 . S
C68 C69 1.333 . S
C68 N70 1.317 . S
C68 H73 0.930 . S
C69 C68 1.333 . S
C69 N71 1.350 . S
C69 H95 0.931 . S
N70 Co66 2.148 . S
N70 C67 1.301 . S
N70 C68 1.317 . S
N71 C67 1.328 . S
N71 C69 1.350 . S
H72 C67 0.930 . S
H73 C68 0.930 . S
C74 O75 1.224 . S
C74 O93 1.247 . S
O75 C74 1.224 . S
N76 Co66 2.128 . S
N76 C77 1.355 . S
N76 C79 1.311 . S
C77 N76 1.355 . S
C77 C78 1.363 . S
C77 H89 0.929 . S
C78 C77 1.363 . S
C78 N80 1.375 . S
C78 H96 0.931 . S
C79 N76 1.311 . S
C79 N80 1.347 . S
C79 H90 0.929 . S
N80 C78 1.375 . S
N80 C79 1.347 . S
C81 C84 1.365 . S
C81 N86 1.328 . S
C81 H87 0.929 . S
C82 C83 1.362 . S
C82 C85 1.378 . S
C82 H97 0.929 . S
C83 C82 1.362 . S
C83 C84 1.366 . S
C84 C81 1.365 . S
C84 C83 1.366 . S
C84 H98 0.930 . S
C85 C82 1.378 . S
C85 N86 1.315 . S
C85 H88 0.930 . S
N86 Co66 2.194 . S
N86 C81 1.328 . S
N86 C85 1.315 . S
H87 C81 0.929 . S
H88 C85 0.930 . S
H89 C77 0.929 . S
H90 C79 0.929 . S
O91 Co66 2.351 . S
O91 C94 1.244 . S
O92 Co66 2.155 . S
O92 C94 1.240 . S
O93 Co66 2.096 . S
O93 C74 1.247 . S
C94 O91 1.244 . S
C94 O92 1.240 . S
H95 C69 0.931 . S
H96 C78 0.931 . S
H97 C82 0.929 . S
H98 C84 0.930 . S
Co99 N103 2.148 . S
Co99 N109 2.128 . S
Co99 N119 2.194 . S
Co99 O124 2.351 . S
Co99 O125 2.155 . S
Co99 O126 2.096 . S
C100 N103 1.301 . S
C100 N104 1.328 . S
C100 H105 0.930 . S
C101 C102 1.333 . S
C101 N103 1.317 . S
C101 H106 0.930 . S
C102 C101 1.333 . S
C102 N104 1.350 . S
C102 H128 0.931 . S
N103 Co99 2.148 . S
N103 C100 1.301 . S
N103 C101 1.317 . S
N104 C100 1.328 . S
N104 C102 1.350 . S
H105 C100 0.930 . S
H106 C101 0.930 . S
C107 O108 1.224 . S
C107 O126 1.247 . S
O108 C107 1.224 . S
N109 Co99 2.128 . S
N109 C110 1.355 . S
N109 C112 1.311 . S
C110 N109 1.355 . S
C110 C111 1.363 . S
C110 H122 0.929 . S
C111 C110 1.363 . S
C111 N113 1.375 . S
C111 H129 0.931 . S
C112 N109 1.311 . S
C112 N113 1.347 . S
C112 H123 0.929 . S
N113 C111 1.375 . S
N113 C112 1.347 . S
C114 C117 1.365 . S
C114 N119 1.328 . S
C114 H120 0.929 . S
C115 C116 1.362 . S
C115 C118 1.378 . S
C115 H130 0.929 . S
C116 C115 1.362 . S
C116 C117 1.366 . S
C117 C114 1.365 . S
C117 C116 1.366 . S
C117 H131 0.930 . S
C118 C115 1.378 . S
C118 N119 1.315 . S
C118 H121 0.930 . S
N119 Co99 2.194 . S
N119 C114 1.328 . S
N119 C118 1.315 . S
H120 C114 0.929 . S
H121 C118 0.930 . S
H122 C110 0.929 . S
H123 C112 0.929 . S
O124 Co99 2.351 . S
O124 C127 1.244 . S
O125 Co99 2.155 . S
O125 C127 1.240 . S
O126 Co99 2.096 . S
O126 C107 1.247 . S
C127 O124 1.244 . S
C127 O125 1.240 . S
H128 C102 0.931 . S
H129 C111 0.931 . S
H130 C115 0.929 . S
H131 C117 0.930 . S
Co132 N136 2.148 . S
Co132 N142 2.128 . S
Co132 N152 2.194 . S
Co132 O157 2.351 . S
Co132 O158 2.155 . S
Co132 O159 2.096 . S
C133 N136 1.301 . S
C133 N137 1.328 . S
C133 H138 0.930 . S
C134 C135 1.333 . S
C134 N136 1.317 . S
C134 H139 0.930 . S
C135 C134 1.333 . S
C135 N137 1.350 . S
C135 H161 0.931 . S
N136 Co132 2.148 . S
N136 C133 1.301 . S
N136 C134 1.317 . S
N137 C133 1.328 . S
N137 C135 1.350 . S
H138 C133 0.930 . S
H139 C134 0.930 . S
C140 O141 1.224 . S
C140 O159 1.247 . S
O141 C140 1.224 . S
N142 Co132 2.128 . S
N142 C143 1.355 . S
N142 C145 1.311 . S
C143 N142 1.355 . S
C143 C144 1.363 . S
C143 H155 0.929 . S
C144 C143 1.363 . S
C144 N146 1.375 . S
C144 H162 0.931 . S
C145 N142 1.311 . S
C145 N146 1.347 . S
C145 H156 0.929 . S
N146 C144 1.375 . S
N146 C145 1.347 . S
C147 C150 1.365 . S
C147 N152 1.328 . S
C147 H153 0.929 . S
C148 C149 1.362 . S
C148 C151 1.378 . S
C148 H163 0.929 . S
C149 C148 1.362 . S
C149 C150 1.366 . S
C150 C147 1.365 . S
C150 C149 1.366 . S
C150 H164 0.930 . S
C151 C148 1.378 . S
C151 N152 1.315 . S
C151 H154 0.930 . S
N152 Co132 2.194 . S
N152 C147 1.328 . S
N152 C151 1.315 . S
H153 C147 0.929 . S
H154 C151 0.930 . S
H155 C143 0.929 . S
H156 C145 0.929 . S
O157 Co132 2.351 . S
O157 C160 1.244 . S
O158 Co132 2.155 . S
O158 C160 1.240 . S
O159 Co132 2.096 . S
O159 C140 1.247 . S
C160 O157 1.244 . S
C160 O158 1.240 . S
H161 C135 0.931 . S
H162 C144 0.931 . S
H163 C148 0.929 . S
H164 C150 0.930 . S
Co165 N169 2.148 . S
Co165 N175 2.128 . S
Co165 N185 2.194 . S
Co165 O190 2.351 . S
Co165 O191 2.155 . S
Co165 O192 2.096 . S
C166 N169 1.301 . S
C166 N170 1.328 . S
C166 H171 0.930 . S
C167 C168 1.333 . S
C167 N169 1.317 . S
C167 H172 0.930 . S
C168 C167 1.333 . S
C168 N170 1.350 . S
C168 H194 0.931 . S
N169 Co165 2.148 . S
N169 C166 1.301 . S
N169 C167 1.317 . S
N170 C166 1.328 . S
N170 C168 1.350 . S
H171 C166 0.930 . S
H172 C167 0.930 . S
C173 O174 1.224 . S
C173 O192 1.247 . S
O174 C173 1.224 . S
N175 Co165 2.128 . S
N175 C176 1.355 . S
N175 C178 1.311 . S
C176 N175 1.355 . S
C176 C177 1.363 . S
C176 H188 0.929 . S
C177 C176 1.363 . S
C177 N179 1.375 . S
C177 H195 0.931 . S
C178 N175 1.311 . S
C178 N179 1.347 . S
C178 H189 0.929 . S
N179 C177 1.375 . S
N179 C178 1.347 . S
C180 C183 1.365 . S
C180 N185 1.328 . S
C180 H186 0.929 . S
C181 C182 1.362 . S
C181 C184 1.378 . S
C181 H196 0.929 . S
C182 C181 1.362 . S
C182 C183 1.366 . S
C183 C180 1.365 . S
C183 C182 1.366 . S
C183 H197 0.930 . S
C184 C181 1.378 . S
C184 N185 1.315 . S
C184 H187 0.930 . S
N185 Co165 2.194 . S
N185 C180 1.328 . S
N185 C184 1.315 . S
H186 C180 0.929 . S
H187 C184 0.930 . S
H188 C176 0.929 . S
H189 C178 0.929 . S
O190 Co165 2.351 . S
O190 C193 1.244 . S
O191 Co165 2.155 . S
O191 C193 1.240 . S
O192 Co165 2.096 . S
O192 C173 1.247 . S
C193 O190 1.244 . S
C193 O191 1.240 . S
H194 C168 0.931 . S
H195 C177 0.931 . S
H196 C181 0.929 . S
H197 C183 0.930 . S
Co198 N202 2.148 . S
Co198 N208 2.128 . S
Co198 N218 2.194 . S
Co198 O223 2.351 . S
Co198 O224 2.155 . S
Co198 O225 2.096 . S
C199 N202 1.301 . S
C199 N203 1.328 . S
C199 H204 0.930 . S
C200 C201 1.333 . S
C200 N202 1.317 . S
C200 H205 0.930 . S
C201 C200 1.333 . S
C201 N203 1.350 . S
C201 H227 0.931 . S
N202 Co198 2.148 . S
N202 C199 1.301 . S
N202 C200 1.317 . S
N203 C199 1.328 . S
N203 C201 1.350 . S
H204 C199 0.930 . S
H205 C200 0.930 . S
C206 O207 1.224 . S
C206 O225 1.247 . S
O207 C206 1.224 . S
N208 Co198 2.128 . S
N208 C209 1.355 . S
N208 C211 1.311 . S
C209 N208 1.355 . S
C209 C210 1.363 . S
C209 H221 0.929 . S
C210 C209 1.363 . S
C210 N212 1.375 . S
C210 H228 0.931 . S
C211 N208 1.311 . S
C211 N212 1.347 . S
C211 H222 0.929 . S
N212 C210 1.375 . S
N212 C211 1.347 . S
C213 C216 1.365 . S
C213 N218 1.328 . S
C213 H219 0.929 . S
C214 C215 1.362 . S
C214 C217 1.378 . S
C214 H229 0.929 . S
C215 C214 1.362 . S
C215 C216 1.366 . S
C216 C213 1.365 . S
C216 C215 1.366 . S
C216 H230 0.930 . S
C217 C214 1.378 . S
C217 N218 1.315 . S
C217 H220 0.930 . S
N218 Co198 2.194 . S
N218 C213 1.328 . S
N218 C217 1.315 . S
H219 C213 0.929 . S
H220 C217 0.930 . S
H221 C209 0.929 . S
H222 C211 0.929 . S
O223 Co198 2.351 . S
O223 C226 1.244 . S
O224 Co198 2.155 . S
O224 C226 1.240 . S
O225 Co198 2.096 . S
O225 C206 1.247 . S
C226 O223 1.244 . S
C226 O224 1.240 . S
H227 C201 0.931 . S
H228 C210 0.931 . S
H229 C214 0.929 . S
H230 C216 0.930 . S
Co231 N235 2.148 . S
Co231 N241 2.128 . S
Co231 N251 2.194 . S
Co231 O256 2.351 . S
Co231 O257 2.155 . S
Co231 O258 2.096 . S
C232 N235 1.301 . S
C232 N236 1.328 . S
C232 H237 0.930 . S
C233 C234 1.333 . S
C233 N235 1.317 . S
C233 H238 0.930 . S
C234 C233 1.333 . S
C234 N236 1.350 . S
C234 H260 0.931 . S
N235 Co231 2.148 . S
N235 C232 1.301 . S
N235 C233 1.317 . S
N236 C232 1.328 . S
N236 C234 1.350 . S
H237 C232 0.930 . S
H238 C233 0.930 . S
C239 O240 1.224 . S
C239 O258 1.247 . S
O240 C239 1.224 . S
N241 Co231 2.128 . S
N241 C242 1.355 . S
N241 C244 1.311 . S
C242 N241 1.355 . S
C242 C243 1.363 . S
C242 H254 0.929 . S
C243 C242 1.363 . S
C243 N245 1.375 . S
C243 H261 0.931 . S
C244 N241 1.311 . S
C244 N245 1.347 . S
C244 H255 0.929 . S
N245 C243 1.375 . S
N245 C244 1.347 . S
C246 C249 1.365 . S
C246 N251 1.328 . S
C246 H252 0.929 . S
C247 C248 1.362 . S
C247 C250 1.378 . S
C247 H262 0.929 . S
C248 C247 1.362 . S
C248 C249 1.366 . S
C249 C246 1.365 . S
C249 C248 1.366 . S
C249 H263 0.930 . S
C250 C247 1.378 . S
C250 N251 1.315 . S
C250 H253 0.930 . S
N251 Co231 2.194 . S
N251 C246 1.328 . S
N251 C250 1.315 . S
H252 C246 0.929 . S
H253 C250 0.930 . S
H254 C242 0.929 . S
H255 C244 0.929 . S
O256 Co231 2.351 . S
O256 C259 1.244 . S
O257 Co231 2.155 . S
O257 C259 1.240 . S
O258 Co231 2.096 . S
O258 C239 1.247 . S
C259 O256 1.244 . S
C259 O257 1.240 . S
H260 C234 0.931 . S
H261 C243 0.931 . S
H262 C247 0.929 . S
H263 C249 0.930 . S
Co264 N268 2.148 . S
Co264 N274 2.128 . S
Co264 N284 2.194 . S
Co264 O289 2.351 . S
Co264 O290 2.155 . S
Co264 O291 2.096 . S
C265 N268 1.301 . S
C265 N269 1.328 . S
C265 H270 0.930 . S
C266 C267 1.333 . S
C266 N268 1.317 . S
C266 H271 0.930 . S
C267 C266 1.333 . S
C267 N269 1.350 . S
C267 H293 0.931 . S
N268 Co264 2.148 . S
N268 C265 1.301 . S
N268 C266 1.317 . S
N269 C265 1.328 . S
N269 C267 1.350 . S
H270 C265 0.930 . S
H271 C266 0.930 . S
C272 O273 1.224 . S
C272 O291 1.247 . S
O273 C272 1.224 . S
N274 Co264 2.128 . S
N274 C275 1.355 . S
N274 C277 1.311 . S
C275 N274 1.355 . S
C275 C276 1.363 . S
C275 H287 0.929 . S
C276 C275 1.363 . S
C276 N278 1.375 . S
C276 H294 0.931 . S
C277 N274 1.311 . S
C277 N278 1.347 . S
C277 H288 0.929 . S
N278 C276 1.375 . S
N278 C277 1.347 . S
C279 C282 1.365 . S
C279 N284 1.328 . S
C279 H285 0.929 . S
C280 C281 1.362 . S
C280 C283 1.378 . S
C280 H295 0.929 . S
C281 C280 1.362 . S
C281 C282 1.366 . S
C282 C279 1.365 . S
C282 C281 1.366 . S
C282 H296 0.930 . S
C283 C280 1.378 . S
C283 N284 1.315 . S
C283 H286 0.930 . S
N284 Co264 2.194 . S
N284 C279 1.328 . S
N284 C283 1.315 . S
H285 C279 0.929 . S
H286 C283 0.930 . S
H287 C275 0.929 . S
H288 C277 0.929 . S
O289 Co264 2.351 . S
O289 C292 1.244 . S
O290 Co264 2.155 . S
O290 C292 1.240 . S
O291 Co264 2.096 . S
O291 C272 1.247 . S
C292 O289 1.244 . S
C292 O290 1.240 . S
H293 C267 0.931 . S
H294 C276 0.931 . S
H295 C280 0.929 . S
H296 C282 0.930 . S
Co297 N301 2.148 . S
Co297 N307 2.128 . S
Co297 N317 2.194 . S
Co297 O322 2.351 . S
Co297 O323 2.155 . S
Co297 O324 2.096 . S
C298 N301 1.301 . S
C298 N302 1.328 . S
C298 H303 0.930 . S
C299 C300 1.333 . S
C299 N301 1.317 . S
C299 H304 0.930 . S
C300 C299 1.333 . S
C300 N302 1.350 . S
C300 H326 0.931 . S
N301 Co297 2.148 . S
N301 C298 1.301 . S
N301 C299 1.317 . S
N302 C298 1.328 . S
N302 C300 1.350 . S
H303 C298 0.930 . S
H304 C299 0.930 . S
C305 O306 1.224 . S
C305 O324 1.247 . S
O306 C305 1.224 . S
N307 Co297 2.128 . S
N307 C308 1.355 . S
N307 C310 1.311 . S
C308 N307 1.355 . S
C308 C309 1.363 . S
C308 H320 0.929 . S
C309 C308 1.363 . S
C309 N311 1.375 . S
C309 H327 0.931 . S
C310 N307 1.311 . S
C310 N311 1.347 . S
C310 H321 0.929 . S
N311 C309 1.375 . S
N311 C310 1.347 . S
C312 C315 1.365 . S
C312 N317 1.328 . S
C312 H318 0.929 . S
C313 C314 1.362 . S
C313 C316 1.378 . S
C313 H328 0.929 . S
C314 C313 1.362 . S
C314 C315 1.366 . S
C315 C312 1.365 . S
C315 C314 1.366 . S
C315 H329 0.930 . S
C316 C313 1.378 . S
C316 N317 1.315 . S
C316 H319 0.930 . S
N317 Co297 2.194 . S
N317 C312 1.328 . S
N317 C316 1.315 . S
H318 C312 0.929 . S
H319 C316 0.930 . S
H320 C308 0.929 . S
H321 C310 0.929 . S
O322 Co297 2.351 . S
O322 C325 1.244 . S
O323 Co297 2.155 . S
O323 C325 1.240 . S
O324 Co297 2.096 . S
O324 C305 1.247 . S
C325 O322 1.244 . S
C325 O323 1.240 . S
H326 C300 0.931 . S
H327 C309 0.931 . S
H328 C313 0.929 . S
H329 C315 0.930 . S
Co330 N334 2.148 . S
Co330 N340 2.128 . S
Co330 N350 2.194 . S
Co330 O355 2.351 . S
Co330 O356 2.155 . S
Co330 O357 2.096 . S
C331 N334 1.301 . S
C331 N335 1.328 . S
C331 H336 0.930 . S
C332 C333 1.333 . S
C332 N334 1.317 . S
C332 H337 0.930 . S
C333 C332 1.333 . S
C333 N335 1.350 . S
C333 H359 0.931 . S
N334 Co330 2.148 . S
N334 C331 1.301 . S
N334 C332 1.317 . S
N335 C331 1.328 . S
N335 C333 1.350 . S
H336 C331 0.930 . S
H337 C332 0.930 . S
C338 O339 1.224 . S
C338 O357 1.247 . S
O339 C338 1.224 . S
N340 Co330 2.128 . S
N340 C341 1.355 . S
N340 C343 1.311 . S
C341 N340 1.355 . S
C341 C342 1.363 . S
C341 H353 0.929 . S
C342 C341 1.363 . S
C342 N344 1.375 . S
C342 H360 0.931 . S
C343 N340 1.311 . S
C343 N344 1.347 . S
C343 H354 0.929 . S
N344 C342 1.375 . S
N344 C343 1.347 . S
C345 C348 1.365 . S
C345 N350 1.328 . S
C345 H351 0.929 . S
C346 C347 1.362 . S
C346 C349 1.378 . S
C346 H361 0.929 . S
C347 C346 1.362 . S
C347 C348 1.366 . S
C348 C345 1.365 . S
C348 C347 1.366 . S
C348 H362 0.930 . S
C349 C346 1.378 . S
C349 N350 1.315 . S
C349 H352 0.930 . S
N350 Co330 2.194 . S
N350 C345 1.328 . S
N350 C349 1.315 . S
H351 C345 0.929 . S
H352 C349 0.930 . S
H353 C341 0.929 . S
H354 C343 0.929 . S
O355 Co330 2.351 . S
O355 C358 1.244 . S
O356 Co330 2.155 . S
O356 C358 1.240 . S
O357 Co330 2.096 . S
O357 C338 1.247 . S
C358 O355 1.244 . S
C358 O356 1.240 . S
H359 C333 0.931 . S
H360 C342 0.931 . S
H361 C346 0.929 . S
H362 C348 0.930 . S
Co363 N367 2.148 . S
Co363 N373 2.128 . S
Co363 N383 2.194 . S
Co363 O388 2.351 . S
Co363 O389 2.155 . S
Co363 O390 2.096 . S
C364 N367 1.301 . S
C364 N368 1.328 . S
C364 H369 0.930 . S
C365 C366 1.333 . S
C365 N367 1.317 . S
C365 H370 0.930 . S
C366 C365 1.333 . S
C366 N368 1.350 . S
C366 H392 0.931 . S
N367 Co363 2.148 . S
N367 C364 1.301 . S
N367 C365 1.317 . S
N368 C364 1.328 . S
N368 C366 1.350 . S
H369 C364 0.930 . S
H370 C365 0.930 . S
C371 O372 1.224 . S
C371 O390 1.247 . S
O372 C371 1.224 . S
N373 Co363 2.128 . S
N373 C374 1.355 . S
N373 C376 1.311 . S
C374 N373 1.355 . S
C374 C375 1.363 . S
C374 H386 0.929 . S
C375 C374 1.363 . S
C375 N377 1.375 . S
C375 H393 0.931 . S
C376 N373 1.311 . S
C376 N377 1.347 . S
C376 H387 0.929 . S
N377 C375 1.375 . S
N377 C376 1.347 . S
C378 C381 1.365 . S
C378 N383 1.328 . S
C378 H384 0.929 . S
C379 C380 1.362 . S
C379 C382 1.378 . S
C379 H394 0.929 . S
C380 C379 1.362 . S
C380 C381 1.366 . S
C381 C378 1.365 . S
C381 C380 1.366 . S
C381 H395 0.930 . S
C382 C379 1.378 . S
C382 N383 1.315 . S
C382 H385 0.930 . S
N383 Co363 2.194 . S
N383 C378 1.328 . S
N383 C382 1.315 . S
H384 C378 0.929 . S
H385 C382 0.930 . S
H386 C374 0.929 . S
H387 C376 0.929 . S
O388 Co363 2.351 . S
O388 C391 1.244 . S
O389 Co363 2.155 . S
O389 C391 1.240 . S
O390 Co363 2.096 . S
O390 C371 1.247 . S
C391 O388 1.244 . S
C391 O389 1.240 . S
H392 C366 0.931 . S
H393 C375 0.931 . S
H394 C379 0.929 . S
H395 C381 0.930 . S
Co396 N400 2.148 . S
Co396 N406 2.128 . S
Co396 N416 2.194 . S
Co396 O421 2.351 . S
Co396 O422 2.155 . S
Co396 O423 2.096 . S
C397 N400 1.301 . S
C397 N401 1.328 . S
C397 H402 0.930 . S
C398 C399 1.333 . S
C398 N400 1.317 . S
C398 H403 0.930 . S
C399 C398 1.333 . S
C399 N401 1.350 . S
C399 H425 0.931 . S
N400 Co396 2.148 . S
N400 C397 1.301 . S
N400 C398 1.317 . S
N401 C397 1.328 . S
N401 C399 1.350 . S
H402 C397 0.930 . S
H403 C398 0.930 . S
C404 O405 1.224 . S
C404 O423 1.247 . S
O405 C404 1.224 . S
N406 Co396 2.128 . S
N406 C407 1.355 . S
N406 C409 1.311 . S
C407 N406 1.355 . S
C407 C408 1.363 . S
C407 H419 0.929 . S
C408 C407 1.363 . S
C408 N410 1.375 . S
C408 H426 0.931 . S
C409 N406 1.311 . S
C409 N410 1.347 . S
C409 H420 0.929 . S
N410 C408 1.375 . S
N410 C409 1.347 . S
C411 C414 1.365 . S
C411 N416 1.328 . S
C411 H417 0.929 . S
C412 C413 1.362 . S
C412 C415 1.378 . S
C412 H427 0.929 . S
C413 C412 1.362 . S
C413 C414 1.366 . S
C414 C411 1.365 . S
C414 C413 1.366 . S
C414 H428 0.930 . S
C415 C412 1.378 . S
C415 N416 1.315 . S
C415 H418 0.930 . S
N416 Co396 2.194 . S
N416 C411 1.328 . S
N416 C415 1.315 . S
H417 C411 0.929 . S
H418 C415 0.930 . S
H419 C407 0.929 . S
H420 C409 0.929 . S
O421 Co396 2.351 . S
O421 C424 1.244 . S
O422 Co396 2.155 . S
O422 C424 1.240 . S
O423 Co396 2.096 . S
O423 C404 1.247 . S
C424 O421 1.244 . S
C424 O422 1.240 . S
H425 C399 0.931 . S
H426 C408 0.931 . S
H427 C412 0.929 . S
H428 C414 0.930 . S
Co429 N433 2.148 . S
Co429 N439 2.128 . S
Co429 N449 2.194 . S
Co429 O454 2.351 . S
Co429 O455 2.155 . S
Co429 O456 2.096 . S
C430 N433 1.301 . S
C430 N434 1.328 . S
C430 H435 0.930 . S
C431 C432 1.333 . S
C431 N433 1.317 . S
C431 H436 0.930 . S
C432 C431 1.333 . S
C432 N434 1.350 . S
C432 H458 0.931 . S
N433 Co429 2.148 . S
N433 C430 1.301 . S
N433 C431 1.317 . S
N434 C430 1.328 . S
N434 C432 1.350 . S
H435 C430 0.930 . S
H436 C431 0.930 . S
C437 O438 1.224 . S
C437 O456 1.247 . S
O438 C437 1.224 . S
N439 Co429 2.128 . S
N439 C440 1.355 . S
N439 C442 1.311 . S
C440 N439 1.355 . S
C440 C441 1.363 . S
C440 H452 0.929 . S
C441 C440 1.363 . S
C441 N443 1.375 . S
C441 H459 0.931 . S
C442 N439 1.311 . S
C442 N443 1.347 . S
C442 H453 0.929 . S
N443 C441 1.375 . S
N443 C442 1.347 . S
C444 C447 1.365 . S
C444 N449 1.328 . S
C444 H450 0.929 . S
C445 C446 1.362 . S
C445 C448 1.378 . S
C445 H460 0.929 . S
C446 C445 1.362 . S
C446 C447 1.366 . S
C447 C444 1.365 . S
C447 C446 1.366 . S
C447 H461 0.930 . S
C448 C445 1.378 . S
C448 N449 1.315 . S
C448 H451 0.930 . S
N449 Co429 2.194 . S
N449 C444 1.328 . S
N449 C448 1.315 . S
H450 C444 0.929 . S
H451 C448 0.930 . S
H452 C440 0.929 . S
H453 C442 0.929 . S
O454 Co429 2.351 . S
O454 C457 1.244 . S
O455 Co429 2.155 . S
O455 C457 1.240 . S
O456 Co429 2.096 . S
O456 C437 1.247 . S
C457 O454 1.244 . S
C457 O455 1.240 . S
H458 C432 0.931 . S
H459 C441 0.931 . S
H460 C445 0.929 . S
H461 C447 0.930 . S
Co462 N466 2.148 . S
Co462 N472 2.128 . S
Co462 N482 2.194 . S
Co462 O487 2.351 . S
Co462 O488 2.155 . S
Co462 O489 2.096 . S
C463 N466 1.301 . S
C463 N467 1.328 . S
C463 H468 0.930 . S
C464 C465 1.333 . S
C464 N466 1.317 . S
C464 H469 0.930 . S
C465 C464 1.333 . S
C465 N467 1.350 . S
C465 H491 0.931 . S
N466 Co462 2.148 . S
N466 C463 1.301 . S
N466 C464 1.317 . S
N467 C463 1.328 . S
N467 C465 1.350 . S
H468 C463 0.930 . S
H469 C464 0.930 . S
C470 O471 1.224 . S
C470 O489 1.247 . S
O471 C470 1.224 . S
N472 Co462 2.128 . S
N472 C473 1.355 . S
N472 C475 1.311 . S
C473 N472 1.355 . S
C473 C474 1.363 . S
C473 H485 0.929 . S
C474 C473 1.363 . S
C474 N476 1.375 . S
C474 H492 0.931 . S
C475 N472 1.311 . S
C475 N476 1.347 . S
C475 H486 0.929 . S
N476 C474 1.375 . S
N476 C475 1.347 . S
C477 C480 1.365 . S
C477 N482 1.328 . S
C477 H483 0.929 . S
C478 C479 1.362 . S
C478 C481 1.378 . S
C478 H493 0.929 . S
C479 C478 1.362 . S
C479 C480 1.366 . S
C480 C477 1.365 . S
C480 C479 1.366 . S
C480 H494 0.930 . S
C481 C478 1.378 . S
C481 N482 1.315 . S
C481 H484 0.930 . S
N482 Co462 2.194 . S
N482 C477 1.328 . S
N482 C481 1.315 . S
H483 C477 0.929 . S
H484 C481 0.930 . S
H485 C473 0.929 . S
H486 C475 0.929 . S
O487 Co462 2.351 . S
O487 C490 1.244 . S
O488 Co462 2.155 . S
O488 C490 1.240 . S
O489 Co462 2.096 . S
O489 C470 1.247 . S
C490 O487 1.244 . S
C490 O488 1.240 . S
H491 C465 0.931 . S
H492 C474 0.931 . S
H493 C478 0.929 . S
H494 C480 0.930 . S
Co495 N499 2.148 . S
Co495 N505 2.128 . S
Co495 N515 2.194 . S
Co495 O520 2.351 . S
Co495 O521 2.155 . S
Co495 O522 2.096 . S
C496 N499 1.301 . S
C496 N500 1.328 . S
C496 H501 0.930 . S
C497 C498 1.333 . S
C497 N499 1.317 . S
C497 H502 0.930 . S
C498 C497 1.333 . S
C498 N500 1.350 . S
C498 H524 0.931 . S
N499 Co495 2.148 . S
N499 C496 1.301 . S
N499 C497 1.317 . S
N500 C496 1.328 . S
N500 C498 1.350 . S
H501 C496 0.930 . S
H502 C497 0.930 . S
C503 O504 1.224 . S
C503 O522 1.247 . S
O504 C503 1.224 . S
N505 Co495 2.128 . S
N505 C506 1.355 . S
N505 C508 1.311 . S
C506 N505 1.355 . S
C506 C507 1.363 . S
C506 H518 0.929 . S
C507 C506 1.363 . S
C507 N509 1.375 . S
C507 H525 0.931 . S
C508 N505 1.311 . S
C508 N509 1.347 . S
C508 H519 0.929 . S
N509 C507 1.375 . S
N509 C508 1.347 . S
C510 C513 1.365 . S
C510 N515 1.328 . S
C510 H516 0.929 . S
C511 C512 1.362 . S
C511 C514 1.378 . S
C511 H526 0.929 . S
C512 C511 1.362 . S
C512 C513 1.366 . S
C513 C510 1.365 . S
C513 C512 1.366 . S
C513 H527 0.930 . S
C514 C511 1.378 . S
C514 N515 1.315 . S
C514 H517 0.930 . S
N515 Co495 2.194 . S
N515 C510 1.328 . S
N515 C514 1.315 . S
H516 C510 0.929 . S
H517 C514 0.930 . S
H518 C506 0.929 . S
H519 C508 0.929 . S
O520 Co495 2.351 . S
O520 C523 1.244 . S
O521 Co495 2.155 . S
O521 C523 1.240 . S
O522 Co495 2.096 . S
O522 C503 1.247 . S
C523 O520 1.244 . S
C523 O521 1.240 . S
H524 C498 0.931 . S
H525 C507 0.931 . S
H526 C511 0.929 . S
H527 C513 0.930 . S
C528 C529 1.349 . S
C528 C530 1.327 . S
C528 H553 0.950 . S
C529 C528 1.349 . S
C529 C545 1.349 . S
C530 C528 1.327 . S
C530 C549 1.429 . S
C530 H554 0.950 . S
C531 C548 1.574 . S
C531 C550 1.368 . S
C531 H555 0.949 . S
H532 C536 0.949 . S
C533 C534 1.349 . S
C533 C535 1.327 . S
C533 H556 0.950 . S
C534 C533 1.349 . S
C534 C546 1.349 . S
C535 C533 1.327 . S
C535 C551 1.429 . S
C535 H557 0.950 . S
C536 H532 0.949 . S
C536 C544 1.574 . S
C536 C552 1.368 . S
H537 C545 0.950 . S
H538 C543 0.950 . S
H539 C544 0.949 . S
H540 C546 0.950 . S
H541 C547 0.950 . S
H542 C548 0.949 . S
C543 H538 0.950 . S
C543 C545 1.327 . S
C543 C549 1.429 . S
C544 C536 1.574 . S
C544 H539 0.949 . S
C544 C550 1.368 . S
C545 C529 1.349 . S
C545 H537 0.950 . S
C545 C543 1.327 . S
C546 C534 1.349 . S
C546 H540 0.950 . S
C546 C547 1.327 . S
C547 H541 0.950 . S
C547 C546 1.327 . S
C547 C551 1.429 . S
C548 C531 1.574 . S
C548 H542 0.949 . S
C548 C552 1.368 . S
C549 C530 1.429 . S
C549 C543 1.429 . S
C549 C550 1.523 . S
C550 C531 1.368 . S
C550 C544 1.368 . S
C550 C549 1.523 . S
C551 C535 1.429 . S
C551 C547 1.429 . S
C551 C552 1.523 . S
C552 C536 1.368 . S
C552 C548 1.368 . S
C552 C551 1.523 . S
H553 C528 0.950 . S
H554 C530 0.950 . S
H555 C531 0.949 . S
H556 C533 0.950 . S
H557 C535 0.950 . S
C558 C559 1.349 . S
C558 C560 1.327 . S
C558 H583 0.950 . S
C559 C558 1.349 . S
C559 C575 1.349 . S
C560 C558 1.327 . S
C560 C579 1.429 . S
C560 H584 0.950 . S
C561 C578 1.574 . S
C561 C580 1.368 . S
C561 H585 0.949 . S
H562 C566 0.949 . S
C563 C564 1.349 . S
C563 C565 1.327 . S
C563 H586 0.950 . S
C564 C563 1.349 . S
C564 C576 1.349 . S
C565 C563 1.327 . S
C565 C581 1.429 . S
C565 H587 0.950 . S
C566 H562 0.949 . S
C566 C574 1.574 . S
C566 C582 1.368 . S
H567 C575 0.950 . S
H568 C573 0.950 . S
H569 C574 0.949 . S
H570 C576 0.950 . S
H571 C577 0.950 . S
H572 C578 0.949 . S
C573 H568 0.950 . S
C573 C575 1.327 . S
C573 C579 1.429 . S
C574 C566 1.574 . S
C574 H569 0.949 . S
C574 C580 1.368 . S
C575 C559 1.349 . S
C575 H567 0.950 . S
C575 C573 1.327 . S
C576 C564 1.349 . S
C576 H570 0.950 . S
C576 C577 1.327 . S
C577 H571 0.950 . S
C577 C576 1.327 . S
C577 C581 1.429 . S
C578 C561 1.574 . S
C578 H572 0.949 . S
C578 C582 1.368 . S
C579 C560 1.429 . S
C579 C573 1.429 . S
C579 C580 1.523 . S
C580 C561 1.368 . S
C580 C574 1.368 . S
C580 C579 1.523 . S
C581 C565 1.429 . S
C581 C577 1.429 . S
C581 C582 1.523 . S
C582 C566 1.368 . S
C582 C578 1.368 . S
C582 C581 1.523 . S
H583 C558 0.950 . S
H584 C560 0.950 . S
H585 C561 0.949 . S
H586 C563 0.950 . S
H587 C565 0.950 . S
C588 C589 1.349 . S
C588 C590 1.327 . S
C588 H613 0.950 . S
C589 C588 1.349 . S
C589 C605 1.349 . S
C590 C588 1.327 . S
C590 C609 1.429 . S
C590 H614 0.950 . S
C591 C608 1.574 . S
C591 C610 1.368 . S
C591 H615 0.949 . S
H592 C596 0.949 . S
C593 C594 1.349 . S
C593 C595 1.327 . S
C593 H616 0.950 . S
C594 C593 1.349 . S
C594 C606 1.349 . S
C595 C593 1.327 . S
C595 C611 1.429 . S
C595 H617 0.950 . S
C596 H592 0.949 . S
C596 C604 1.574 . S
C596 C612 1.368 . S
H597 C605 0.950 . S
H598 C603 0.950 . S
H599 C604 0.949 . S
H600 C606 0.950 . S
H601 C607 0.950 . S
H602 C608 0.949 . S
C603 H598 0.950 . S
C603 C605 1.327 . S
C603 C609 1.429 . S
C604 C596 1.574 . S
C604 H599 0.949 . S
C604 C610 1.368 . S
C605 C589 1.349 . S
C605 H597 0.950 . S
C605 C603 1.327 . S
C606 C594 1.349 . S
C606 H600 0.950 . S
C606 C607 1.327 . S
C607 H601 0.950 . S
C607 C606 1.327 . S
C607 C611 1.429 . S
C608 C591 1.574 . S
C608 H602 0.949 . S
C608 C612 1.368 . S
C609 C590 1.429 . S
C609 C603 1.429 . S
C609 C610 1.523 . S
C610 C591 1.368 . S
C610 C604 1.368 . S
C610 C609 1.523 . S
C611 C595 1.429 . S
C611 C607 1.429 . S
C611 C612 1.523 . S
C612 C596 1.368 . S
C612 C608 1.368 . S
C612 C611 1.523 . S
H613 C588 0.950 . S
H614 C590 0.950 . S
H615 C591 0.949 . S
H616 C593 0.950 . S
H617 C595 0.950 . S
C618 C619 1.349 . S
C618 C620 1.327 . S
C618 H643 0.950 . S
C619 C618 1.349 . S
C619 C635 1.349 . S
C620 C618 1.327 . S
C620 C639 1.429 . S
C620 H644 0.950 . S
C621 C638 1.574 . S
C621 C640 1.368 . S
C621 H645 0.949 . S
H622 C626 0.949 . S
C623 C624 1.349 . S
C623 C625 1.327 . S
C623 H646 0.950 . S
C624 C623 1.349 . S
C624 C636 1.349 . S
C625 C623 1.327 . S
C625 C641 1.429 . S
C625 H647 0.950 . S
C626 H622 0.949 . S
C626 C634 1.574 . S
C626 C642 1.368 . S
H627 C635 0.950 . S
H628 C633 0.950 . S
H629 C634 0.949 . S
H630 C636 0.950 . S
H631 C637 0.950 . S
H632 C638 0.949 . S
C633 H628 0.950 . S
C633 C635 1.327 . S
C633 C639 1.429 . S
C634 C626 1.574 . S
C634 H629 0.949 . S
C634 C640 1.368 . S
C635 C619 1.349 . S
C635 H627 0.950 . S
C635 C633 1.327 . S
C636 C624 1.349 . S
C636 H630 0.950 . S
C636 C637 1.327 . S
C637 H631 0.950 . S
C637 C636 1.327 . S
C637 C641 1.429 . S
C638 C621 1.574 . S
C638 H632 0.949 . S
C638 C642 1.368 . S
C639 C620 1.429 . S
C639 C633 1.429 . S
C639 C640 1.523 . S
C640 C621 1.368 . S
C640 C634 1.368 . S
C640 C639 1.523 . S
C641 C625 1.429 . S
C641 C637 1.429 . S
C641 C642 1.523 . S
C642 C626 1.368 . S
C642 C638 1.368 . S
C642 C641 1.523 . S
H643 C618 0.950 . S
H644 C620 0.950 . S
H645 C621 0.949 . S
H646 C623 0.950 . S
H647 C625 0.950 . S
C648 C649 1.349 . S
C648 C650 1.327 . S
C648 H673 0.950 . S
C649 C648 1.349 . S
C649 C665 1.349 . S
C650 C648 1.327 . S
C650 C669 1.429 . S
C650 H674 0.950 . S
C651 C668 1.574 . S
C651 C670 1.368 . S
C651 H675 0.949 . S
H652 C656 0.949 . S
C653 C654 1.349 . S
C653 C655 1.327 . S
C653 H676 0.950 . S
C654 C653 1.349 . S
C654 C666 1.349 . S
C655 C653 1.327 . S
C655 C671 1.429 . S
C655 H677 0.950 . S
C656 H652 0.949 . S
C656 C664 1.574 . S
C656 C672 1.368 . S
H657 C665 0.950 . S
H658 C663 0.950 . S
H659 C664 0.949 . S
H660 C666 0.950 . S
H661 C667 0.950 . S
H662 C668 0.949 . S
C663 H658 0.950 . S
C663 C665 1.327 . S
C663 C669 1.429 . S
C664 C656 1.574 . S
C664 H659 0.949 . S
C664 C670 1.368 . S
C665 C649 1.349 . S
C665 H657 0.950 . S
C665 C663 1.327 . S
C666 C654 1.349 . S
C666 H660 0.950 . S
C666 C667 1.327 . S
C667 H661 0.950 . S
C667 C666 1.327 . S
C667 C671 1.429 . S
C668 C651 1.574 . S
C668 H662 0.949 . S
C668 C672 1.368 . S
C669 C650 1.429 . S
C669 C663 1.429 . S
C669 C670 1.523 . S
C670 C651 1.368 . S
C670 C664 1.368 . S
C670 C669 1.523 . S
C671 C655 1.429 . S
C671 C667 1.429 . S
C671 C672 1.523 . S
C672 C656 1.368 . S
C672 C668 1.368 . S
C672 C671 1.523 . S
H673 C648 0.950 . S
H674 C650 0.950 . S
H675 C651 0.949 . S
H676 C653 0.950 . S
H677 C655 0.950 . S
C678 C679 1.349 . S
C678 C680 1.327 . S
C678 H703 0.950 . S
C679 C678 1.349 . S
C679 C695 1.349 . S
C680 C678 1.327 . S
C680 C699 1.429 . S
C680 H704 0.950 . S
C681 C698 1.574 . S
C681 C700 1.368 . S
C681 H705 0.949 . S
H682 C686 0.949 . S
C683 C684 1.349 . S
C683 C685 1.327 . S
C683 H706 0.950 . S
C684 C683 1.349 . S
C684 C696 1.349 . S
C685 C683 1.327 . S
C685 C701 1.429 . S
C685 H707 0.950 . S
C686 H682 0.949 . S
C686 C694 1.574 . S
C686 C702 1.368 . S
H687 C695 0.950 . S
H688 C693 0.950 . S
H689 C694 0.949 . S
H690 C696 0.950 . S
H691 C697 0.950 . S
H692 C698 0.949 . S
C693 H688 0.950 . S
C693 C695 1.327 . S
C693 C699 1.429 . S
C694 C686 1.574 . S
C694 H689 0.949 . S
C694 C700 1.368 . S
C695 C679 1.349 . S
C695 H687 0.950 . S
C695 C693 1.327 . S
C696 C684 1.349 . S
C696 H690 0.950 . S
C696 C697 1.327 . S
C697 H691 0.950 . S
C697 C696 1.327 . S
C697 C701 1.429 . S
C698 C681 1.574 . S
C698 H692 0.949 . S
C698 C702 1.368 . S
C699 C680 1.429 . S
C699 C693 1.429 . S
C699 C700 1.523 . S
C700 C681 1.368 . S
C700 C694 1.368 . S
C700 C699 1.523 . S
C701 C685 1.429 . S
C701 C697 1.429 . S
C701 C702 1.523 . S
C702 C686 1.368 . S
C702 C698 1.368 . S
C702 C701 1.523 . S
H703 C678 0.950 . S
H704 C680 0.950 . S
H705 C681 0.949 . S
H706 C683 0.950 . S
H707 C685 0.950 . S
C708 C709 1.349 . S
C708 C710 1.327 . S
C708 H733 0.950 . S
C709 C708 1.349 . S
C709 C725 1.349 . S
C710 C708 1.327 . S
C710 C729 1.429 . S
C710 H734 0.950 . S
C711 C728 1.574 . S
C711 C730 1.368 . S
C711 H735 0.949 . S
H712 C716 0.949 . S
C713 C714 1.349 . S
C713 C715 1.327 . S
C713 H736 0.950 . S
C714 C713 1.349 . S
C714 C726 1.349 . S
C715 C713 1.327 . S
C715 C731 1.429 . S
C715 H737 0.950 . S
C716 H712 0.949 . S
C716 C724 1.574 . S
C716 C732 1.368 . S
H717 C725 0.950 . S
H718 C723 0.950 . S
H719 C724 0.949 . S
H720 C726 0.950 . S
H721 C727 0.950 . S
H722 C728 0.949 . S
C723 H718 0.950 . S
C723 C725 1.327 . S
C723 C729 1.429 . S
C724 C716 1.574 . S
C724 H719 0.949 . S
C724 C730 1.368 . S
C725 C709 1.349 . S
C725 H717 0.950 . S
C725 C723 1.327 . S
C726 C714 1.349 . S
C726 H720 0.950 . S
C726 C727 1.327 . S
C727 H721 0.950 . S
C727 C726 1.327 . S
C727 C731 1.429 . S
C728 C711 1.574 . S
C728 H722 0.949 . S
C728 C732 1.368 . S
C729 C710 1.429 . S
C729 C723 1.429 . S
C729 C730 1.523 . S
C730 C711 1.368 . S
C730 C724 1.368 . S
C730 C729 1.523 . S
C731 C715 1.429 . S
C731 C727 1.429 . S
C731 C732 1.523 . S
C732 C716 1.368 . S
C732 C728 1.368 . S
C732 C731 1.523 . S
H733 C708 0.950 . S
H734 C710 0.950 . S
H735 C711 0.949 . S
H736 C713 0.950 . S
H737 C715 0.950 . S
C738 C739 1.349 . S
C738 C740 1.327 . S
C738 H763 0.950 . S
C739 C738 1.349 . S
C739 C755 1.349 . S
C740 C738 1.327 . S
C740 C759 1.429 . S
C740 H764 0.950 . S
C741 C758 1.574 . S
C741 C760 1.368 . S
C741 H765 0.949 . S
H742 C746 0.949 . S
C743 C744 1.349 . S
C743 C745 1.327 . S
C743 H766 0.950 . S
C744 C743 1.349 . S
C744 C756 1.349 . S
C745 C743 1.327 . S
C745 C761 1.429 . S
C745 H767 0.950 . S
C746 H742 0.949 . S
C746 C754 1.574 . S
C746 C762 1.368 . S
H747 C755 0.950 . S
H748 C753 0.950 . S
H749 C754 0.949 . S
H750 C756 0.950 . S
H751 C757 0.950 . S
H752 C758 0.949 . S
C753 H748 0.950 . S
C753 C755 1.327 . S
C753 C759 1.429 . S
C754 C746 1.574 . S
C754 H749 0.949 . S
C754 C760 1.368 . S
C755 C739 1.349 . S
C755 H747 0.950 . S
C755 C753 1.327 . S
C756 C744 1.349 . S
C756 H750 0.950 . S
C756 C757 1.327 . S
C757 H751 0.950 . S
C757 C756 1.327 . S
C757 C761 1.429 . S
C758 C741 1.574 . S
C758 H752 0.949 . S
C758 C762 1.368 . S
C759 C740 1.429 . S
C759 C753 1.429 . S
C759 C760 1.523 . S
C760 C741 1.368 . S
C760 C754 1.368 . S
C760 C759 1.523 . S
C761 C745 1.429 . S
C761 C757 1.429 . S
C761 C762 1.523 . S
C762 C746 1.368 . S
C762 C758 1.368 . S
C762 C761 1.523 . S
H763 C738 0.950 . S
H764 C740 0.950 . S
H765 C741 0.949 . S
H766 C743 0.950 . S
H767 C745 0.950 . S
C768 C769 1.349 . S
C768 C770 1.327 . S
C768 H793 0.950 . S
C769 C768 1.349 . S
C769 C785 1.349 . S
C770 C768 1.327 . S
C770 C789 1.429 . S
C770 H794 0.950 . S
C771 C788 1.574 1_554 S
C771 C790 1.368 . S
C771 H795 0.949 . S
H772 C776 0.949 . S
C773 C774 1.349 . S
C773 C775 1.327 . S
C773 H796 0.950 . S
C774 C773 1.349 . S
C774 C786 1.349 . S
C775 C773 1.327 . S
C775 C791 1.429 . S
C775 H797 0.950 . S
C776 H772 0.949 . S
C776 C784 1.574 1_556 S
C776 C792 1.368 . S
H777 C785 0.950 . S
H778 C783 0.950 . S
H779 C784 0.949 . S
H780 C786 0.950 . S
H781 C787 0.950 . S
H782 C788 0.949 . S
C783 H778 0.950 . S
C783 C785 1.327 . S
C783 C789 1.429 . S
C784 C776 1.574 1_554 S
C784 H779 0.949 . S
C784 C790 1.368 . S
C785 C769 1.349 . S
C785 H777 0.950 . S
C785 C783 1.327 . S
C786 C774 1.349 . S
C786 H780 0.950 . S
C786 C787 1.327 . S
C787 H781 0.950 . S
C787 C786 1.327 . S
C787 C791 1.429 . S
C788 C771 1.574 1_556 S
C788 H782 0.949 . S
C788 C792 1.368 . S
C789 C770 1.429 . S
C789 C783 1.429 . S
C789 C790 1.523 . S
C790 C771 1.368 . S
C790 C784 1.368 . S
C790 C789 1.523 . S
C791 C775 1.429 . S
C791 C787 1.429 . S
C791 C792 1.523 . S
C792 C776 1.368 . S
C792 C788 1.368 . S
C792 C791 1.523 . S
H793 C768 0.950 . S
H794 C770 0.950 . S
H795 C771 0.949 . S
H796 C773 0.950 . S
H797 C775 0.950 . S
C798 C799 1.349 . S
C798 C800 1.327 . S
C798 H823 0.950 . S
C799 C798 1.349 . S
C799 C815 1.349 . S
C800 C798 1.327 . S
C800 C819 1.429 . S
C800 H824 0.950 . S
C801 C818 1.574 . S
C801 C820 1.368 . S
C801 H825 0.949 . S
H802 C806 0.949 . S
C803 C804 1.349 . S
C803 C805 1.327 . S
C803 H826 0.950 . S
C804 C803 1.349 . S
C804 C816 1.349 . S
C805 C803 1.327 . S
C805 C821 1.429 . S
C805 H827 0.950 . S
C806 H802 0.949 . S
C806 C814 1.574 . S
C806 C822 1.368 . S
H807 C815 0.950 . S
H808 C813 0.950 . S
H809 C814 0.949 . S
H810 C816 0.950 . S
H811 C817 0.950 . S
H812 C818 0.949 . S
C813 H808 0.950 . S
C813 C815 1.327 . S
C813 C819 1.429 . S
C814 C806 1.574 . S
C814 H809 0.949 . S
C814 C820 1.368 . S
C815 C799 1.349 . S
C815 H807 0.950 . S
C815 C813 1.327 . S
C816 C804 1.349 . S
C816 H810 0.950 . S
C816 C817 1.327 . S
C817 H811 0.950 . S
C817 C816 1.327 . S
C817 C821 1.429 . S
C818 C801 1.574 . S
C818 H812 0.949 . S
C818 C822 1.368 . S
C819 C800 1.429 . S
C819 C813 1.429 . S
C819 C820 1.523 . S
C820 C801 1.368 . S
C820 C814 1.368 . S
C820 C819 1.523 . S
C821 C805 1.429 . S
C821 C817 1.429 . S
C821 C822 1.523 . S
C822 C806 1.368 . S
C822 C818 1.368 . S
C822 C821 1.523 . S
H823 C798 0.950 . S
H824 C800 0.950 . S
H825 C801 0.949 . S
H826 C803 0.950 . S
H827 C805 0.950 . S
C828 C829 1.349 . S
C828 C830 1.327 . S
C828 H853 0.950 . S
C829 C828 1.349 . S
C829 C845 1.349 . S
C830 C828 1.327 . S
C830 C849 1.429 . S
C830 H854 0.950 . S
C831 C848 1.574 1_556 S
C831 C850 1.368 . S
C831 H855 0.949 . S
H832 C836 0.949 . S
C833 C834 1.349 . S
C833 C835 1.327 . S
C833 H856 0.950 . S
C834 C833 1.349 . S
C834 C846 1.349 . S
C835 C833 1.327 . S
C835 C851 1.429 . S
C835 H857 0.950 . S
C836 H832 0.949 . S
C836 C844 1.574 1_554 S
C836 C852 1.368 . S
H837 C845 0.950 . S
H838 C843 0.950 . S
H839 C844 0.949 . S
H840 C846 0.950 . S
H841 C847 0.950 . S
H842 C848 0.949 . S
C843 H838 0.950 . S
C843 C845 1.327 . S
C843 C849 1.429 . S
C844 C836 1.574 1_556 S
C844 H839 0.949 . S
C844 C850 1.368 . S
C845 C829 1.349 . S
C845 H837 0.950 . S
C845 C843 1.327 . S
C846 C834 1.349 . S
C846 H840 0.950 . S
C846 C847 1.327 . S
C847 H841 0.950 . S
C847 C846 1.327 . S
C847 C851 1.429 . S
C848 C831 1.574 1_554 S
C848 H842 0.949 . S
C848 C852 1.368 . S
C849 C830 1.429 . S
C849 C843 1.429 . S
C849 C850 1.523 . S
C850 C831 1.368 . S
C850 C844 1.368 . S
C850 C849 1.523 . S
C851 C835 1.429 . S
C851 C847 1.429 . S
C851 C852 1.523 . S
C852 C836 1.368 . S
C852 C848 1.368 . S
C852 C851 1.523 . S
H853 C828 0.950 . S
H854 C830 0.950 . S
H855 C831 0.949 . S
H856 C833 0.950 . S
H857 C835 0.950 . S
C858 C859 1.349 . S
C858 C860 1.327 . S
C858 H883 0.950 . S
C859 C858 1.349 . S
C859 C875 1.349 . S
C860 C858 1.327 . S
C860 C879 1.429 . S
C860 H884 0.950 . S
C861 C878 1.574 . S
C861 C880 1.368 . S
C861 H885 0.949 . S
H862 C866 0.949 . S
C863 C864 1.349 . S
C863 C865 1.327 . S
C863 H886 0.950 . S
C864 C863 1.349 . S
C864 C876 1.349 . S
C865 C863 1.327 . S
C865 C881 1.429 . S
C865 H887 0.950 . S
C866 H862 0.949 . S
C866 C874 1.574 . S
C866 C882 1.368 . S
H867 C875 0.950 . S
H868 C873 0.950 . S
H869 C874 0.949 . S
H870 C876 0.950 . S
H871 C877 0.950 . S
H872 C878 0.949 . S
C873 H868 0.950 . S
C873 C875 1.327 . S
C873 C879 1.429 . S
C874 C866 1.574 . S
C874 H869 0.949 . S
C874 C880 1.368 . S
C875 C859 1.349 . S
C875 H867 0.950 . S
C875 C873 1.327 . S
C876 C864 1.349 . S
C876 H870 0.950 . S
C876 C877 1.327 . S
C877 H871 0.950 . S
C877 C876 1.327 . S
C877 C881 1.429 . S
C878 C861 1.574 . S
C878 H872 0.949 . S
C878 C882 1.368 . S
C879 C860 1.429 . S
C879 C873 1.429 . S
C879 C880 1.523 . S
C880 C861 1.368 . S
C880 C874 1.368 . S
C880 C879 1.523 . S
C881 C865 1.429 . S
C881 C877 1.429 . S
C881 C882 1.523 . S
C882 C866 1.368 . S
C882 C878 1.368 . S
C882 C881 1.523 . S
H883 C858 0.950 . S
H884 C860 0.950 . S
H885 C861 0.949 . S
H886 C863 0.950 . S
H887 C865 0.950 . S
C888 C889 1.349 . S
C888 C890 1.327 . S
C888 H913 0.950 . S
C889 C888 1.349 . S
C889 C905 1.349 . S
C890 C888 1.327 . S
C890 C909 1.429 . S
C890 H914 0.950 . S
C891 C908 1.574 1_554 S
C891 C910 1.368 . S
C891 H915 0.949 . S
H892 C896 0.949 . S
C893 C894 1.349 . S
C893 C895 1.327 . S
C893 H916 0.950 . S
C894 C893 1.349 . S
C894 C906 1.349 . S
C895 C893 1.327 . S
C895 C911 1.429 . S
C895 H917 0.950 . S
C896 H892 0.949 . S
C896 C904 1.574 1_556 S
C896 C912 1.368 . S
H897 C905 0.950 . S
H898 C903 0.950 . S
H899 C904 0.949 . S
H900 C906 0.950 . S
H901 C907 0.950 . S
H902 C908 0.949 . S
C903 H898 0.950 . S
C903 C905 1.327 . S
C903 C909 1.429 . S
C904 C896 1.574 1_554 S
C904 H899 0.949 . S
C904 C910 1.368 . S
C905 C889 1.349 . S
C905 H897 0.950 . S
C905 C903 1.327 . S
C906 C894 1.349 . S
C906 H900 0.950 . S
C906 C907 1.327 . S
C907 H901 0.950 . S
C907 C906 1.327 . S
C907 C911 1.429 . S
C908 C891 1.574 1_556 S
C908 H902 0.949 . S
C908 C912 1.368 . S
C909 C890 1.429 . S
C909 C903 1.429 . S
C909 C910 1.523 . S
C910 C891 1.368 . S
C910 C904 1.368 . S
C910 C909 1.523 . S
C911 C895 1.429 . S
C911 C907 1.429 . S
C911 C912 1.523 . S
C912 C896 1.368 . S
C912 C908 1.368 . S
C912 C911 1.523 . S
H913 C888 0.950 . S
H914 C890 0.950 . S
H915 C891 0.949 . S
H916 C893 0.950 . S
H917 C895 0.950 . S
C918 C919 1.349 . S
C918 C920 1.327 . S
C918 H943 0.950 . S
C919 C918 1.349 . S
C919 C935 1.349 . S
C920 C918 1.327 . S
C920 C939 1.429 . S
C920 H944 0.950 . S
C921 C938 1.574 . S
C921 C940 1.368 . S
C921 H945 0.949 . S
H922 C926 0.949 . S
C923 C924 1.349 . S
C923 C925 1.327 . S
C923 H946 0.950 . S
C924 C923 1.349 . S
C924 C936 1.349 . S
C925 C923 1.327 . S
C925 C941 1.429 . S
C925 H947 0.950 . S
C926 H922 0.949 . S
C926 C934 1.574 . S
C926 C942 1.368 . S
H927 C935 0.950 . S
H928 C933 0.950 . S
H929 C934 0.949 . S
H930 C936 0.950 . S
H931 C937 0.950 . S
H932 C938 0.949 . S
C933 H928 0.950 . S
C933 C935 1.327 . S
C933 C939 1.429 . S
C934 C926 1.574 . S
C934 H929 0.949 . S
C934 C940 1.368 . S
C935 C919 1.349 . S
C935 H927 0.950 . S
C935 C933 1.327 . S
C936 C924 1.349 . S
C936 H930 0.950 . S
C936 C937 1.327 . S
C937 H931 0.950 . S
C937 C936 1.327 . S
C937 C941 1.429 . S
C938 C921 1.574 . S
C938 H932 0.949 . S
C938 C942 1.368 . S
C939 C920 1.429 . S
C939 C933 1.429 . S
C939 C940 1.523 . S
C940 C921 1.368 . S
C940 C934 1.368 . S
C940 C939 1.523 . S
C941 C925 1.429 . S
C941 C937 1.429 . S
C941 C942 1.523 . S
C942 C926 1.368 . S
C942 C938 1.368 . S
C942 C941 1.523 . S
H943 C918 0.950 . S
H944 C920 0.950 . S
H945 C921 0.949 . S
H946 C923 0.950 . S
H947 C925 0.950 . S
C948 C949 1.349 . S
C948 C950 1.327 . S
C948 H973 0.950 . S
C949 C948 1.349 . S
C949 C965 1.349 . S
C950 C948 1.327 . S
C950 C969 1.429 . S
C950 H974 0.950 . S
C951 C968 1.574 1_554 S
C951 C970 1.368 . S
C951 H975 0.949 . S
H952 C956 0.949 . S
C953 C954 1.349 . S
C953 C955 1.327 . S
C953 H976 0.950 . S
C954 C953 1.349 . S
C954 C966 1.349 . S
C955 C953 1.327 . S
C955 C971 1.429 . S
C955 H977 0.950 . S
C956 H952 0.949 . S
C956 C964 1.574 1_556 S
C956 C972 1.368 . S
H957 C965 0.950 . S
H958 C963 0.950 . S
H959 C964 0.949 . S
H960 C966 0.950 . S
H961 C967 0.950 . S
H962 C968 0.949 . S
C963 H958 0.950 . S
C963 C965 1.327 . S
C963 C969 1.429 . S
C964 C956 1.574 1_554 S
C964 H959 0.949 . S
C964 C970 1.368 . S
C965 C949 1.349 . S
C965 H957 0.950 . S
C965 C963 1.327 . S
C966 C954 1.349 . S
C966 H960 0.950 . S
C966 C967 1.327 . S
C967 H961 0.950 . S
C967 C966 1.327 . S
C967 C971 1.429 . S
C968 C951 1.574 1_556 S
C968 H962 0.949 . S
C968 C972 1.368 . S
C969 C950 1.429 . S
C969 C963 1.429 . S
C969 C970 1.523 . S
C970 C951 1.368 . S
C970 C964 1.368 . S
C970 C969 1.523 . S
C971 C955 1.429 . S
C971 C967 1.429 . S
C971 C972 1.523 . S
C972 C956 1.368 . S
C972 C968 1.368 . S
C972 C971 1.523 . S
H973 C948 0.950 . S
H974 C950 0.950 . S
H975 C951 0.949 . S
H976 C953 0.950 . S
H977 C955 0.950 . S
C978 C979 1.349 . S
C978 C980 1.327 . S
C978 H1003 0.950 . S
C979 C978 1.349 . S
C979 C995 1.349 . S
C980 C978 1.327 . S
C980 C999 1.429 . S
C980 H1004 0.950 . S
C981 C998 1.574 . S
C981 C1000 1.368 . S
C981 H1005 0.949 . S
H982 C986 0.949 . S
C983 C984 1.349 . S
C983 C985 1.327 . S
C983 H1006 0.950 . S
C984 C983 1.349 . S
C984 C996 1.349 . S
C985 C983 1.327 . S
C985 C1001 1.429 . S
C985 H1007 0.950 . S
C986 H982 0.949 . S
C986 C994 1.574 . S
C986 C1002 1.368 . S
H987 C995 0.950 . S
H988 C993 0.950 . S
H989 C994 0.949 . S
H990 C996 0.950 . S
H991 C997 0.950 . S
H992 C998 0.949 . S
C993 H988 0.950 . S
C993 C995 1.327 . S
C993 C999 1.429 . S
C994 C986 1.574 . S
C994 H989 0.949 . S
C994 C1000 1.368 . S
C995 C979 1.349 . S
C995 H987 0.950 . S
C995 C993 1.327 . S
C996 C984 1.349 . S
C996 H990 0.950 . S
C996 C997 1.327 . S
C997 H991 0.950 . S
C997 C996 1.327 . S
C997 C1001 1.429 . S
C998 C981 1.574 . S
C998 H992 0.949 . S
C998 C1002 1.368 . S
C999 C980 1.429 . S
C999 C993 1.429 . S
C999 C1000 1.523 . S
C1000 C981 1.368 . S
C1000 C994 1.368 . S
C1000 C999 1.523 . S
C1001 C985 1.429 . S
C1001 C997 1.429 . S
C1001 C1002 1.523 . S
C1002 C986 1.368 . S
C1002 C998 1.368 . S
C1002 C1001 1.523 . S
H1003 C978 0.950 . S
H1004 C980 0.950 . S
H1005 C981 0.949 . S
H1006 C983 0.950 . S
H1007 C985 0.950 . S
C1008 C1009 1.349 . S
C1008 C1010 1.327 . S
C1008 H1033 0.950 . S
C1009 C1008 1.349 . S
C1009 C1025 1.349 . S
C1010 C1008 1.327 . S
C1010 C1029 1.429 . S
C1010 H1034 0.950 . S
C1011 C1028 1.574 . S
C1011 C1030 1.368 1_655 S
C1011 H1035 0.949 . S
H1012 C1016 0.949 . S
C1013 C1014 1.349 . S
C1013 C1015 1.327 . S
C1013 H1036 0.950 . S
C1014 C1013 1.349 . S
C1014 C1026 1.349 . S
C1015 C1013 1.327 . S
C1015 C1031 1.429 . S
C1015 H1037 0.950 . S
C1016 H1012 0.949 . S
C1016 C1024 1.574 . S
C1016 C1032 1.368 1_455 S
H1017 C1025 0.950 . S
H1018 C1023 0.950 . S
H1019 C1024 0.949 . S
H1020 C1026 0.950 . S
H1021 C1027 0.950 . S
H1022 C1028 0.949 . S
C1023 H1018 0.950 . S
C1023 C1025 1.327 . S
C1023 C1029 1.429 . S
C1024 C1016 1.574 . S
C1024 H1019 0.949 . S
C1024 C1030 1.368 . S
C1025 C1009 1.349 . S
C1025 H1017 0.950 . S
C1025 C1023 1.327 . S
C1026 C1014 1.349 . S
C1026 H1020 0.950 . S
C1026 C1027 1.327 . S
C1027 H1021 0.950 . S
C1027 C1026 1.327 . S
C1027 C1031 1.429 . S
C1028 C1011 1.574 . S
C1028 H1022 0.949 . S
C1028 C1032 1.368 . S
C1029 C1010 1.429 . S
C1029 C1023 1.429 . S
C1029 C1030 1.523 . S
C1030 C1011 1.368 1_455 S
C1030 C1024 1.368 . S
C1030 C1029 1.523 . S
C1031 C1015 1.429 . S
C1031 C1027 1.429 . S
C1031 C1032 1.523 . S
C1032 C1016 1.368 1_655 S
C1032 C1028 1.368 . S
C1032 C1031 1.523 . S
H1033 C1008 0.950 . S
H1034 C1010 0.950 . S
H1035 C1011 0.949 . S
H1036 C1013 0.950 . S
H1037 C1015 0.950 . S
C1038 C1039 1.349 . S
C1038 C1040 1.327 . S
C1038 H1063 0.950 . S
C1039 C1038 1.349 . S
C1039 C1055 1.349 . S
C1040 C1038 1.327 . S
C1040 C1059 1.429 . S
C1040 H1064 0.950 . S
C1041 C1058 1.574 . S
C1041 C1060 1.368 1_545 S
C1041 H1065 0.949 . S
H1042 C1046 0.949 . S
C1043 C1044 1.349 . S
C1043 C1045 1.327 . S
C1043 H1066 0.950 . S
C1044 C1043 1.349 . S
C1044 C1056 1.349 . S
C1045 C1043 1.327 . S
C1045 C1061 1.429 . S
C1045 H1067 0.950 . S
C1046 H1042 0.949 . S
C1046 C1054 1.574 . S
C1046 C1062 1.368 1_565 S
H1047 C1055 0.950 . S
H1048 C1053 0.950 . S
H1049 C1054 0.949 . S
H1050 C1056 0.950 . S
H1051 C1057 0.950 . S
H1052 C1058 0.949 . S
C1053 H1048 0.950 . S
C1053 C1055 1.327 . S
C1053 C1059 1.429 . S
C1054 C1046 1.574 . S
C1054 H1049 0.949 . S
C1054 C1060 1.368 . S
C1055 C1039 1.349 . S
C1055 H1047 0.950 . S
C1055 C1053 1.327 . S
C1056 C1044 1.349 . S
C1056 H1050 0.950 . S
C1056 C1057 1.327 . S
C1057 H1051 0.950 . S
C1057 C1056 1.327 . S
C1057 C1061 1.429 . S
C1058 C1041 1.574 . S
C1058 H1052 0.949 . S
C1058 C1062 1.368 . S
C1059 C1040 1.429 . S
C1059 C1053 1.429 . S
C1059 C1060 1.523 . S
C1060 C1041 1.368 1_565 S
C1060 C1054 1.368 . S
C1060 C1059 1.523 . S
C1061 C1045 1.429 . S
C1061 C1057 1.429 . S
C1061 C1062 1.523 . S
C1062 C1046 1.368 1_545 S
C1062 C1058 1.368 . S
C1062 C1061 1.523 . S
H1063 C1038 0.950 . S
H1064 C1040 0.950 . S
H1065 C1041 0.949 . S
H1066 C1043 0.950 . S
H1067 C1045 0.950 . S
C1068 C1069 1.349 . S
C1068 C1070 1.327 . S
C1068 H1093 0.950 . S
C1069 C1068 1.349 . S
C1069 C1085 1.349 . S
C1070 C1068 1.327 . S
C1070 C1089 1.429 . S
C1070 H1094 0.950 . S
C1071 C1088 1.574 1_565 S
C1071 C1090 1.368 . S
C1071 H1095 0.949 . S
H1072 C1076 0.949 . S
C1073 C1074 1.349 . S
C1073 C1075 1.327 . S
C1073 H1096 0.950 . S
C1074 C1073 1.349 . S
C1074 C1086 1.349 . S
C1075 C1073 1.327 . S
C1075 C1091 1.429 . S
C1075 H1097 0.950 . S
C1076 H1072 0.949 . S
C1076 C1084 1.574 1_545 S
C1076 C1092 1.368 . S
H1077 C1085 0.950 . S
H1078 C1083 0.950 . S
H1079 C1084 0.949 . S
H1080 C1086 0.950 . S
H1081 C1087 0.950 . S
H1082 C1088 0.949 . S
C1083 H1078 0.950 . S
C1083 C1085 1.327 . S
C1083 C1089 1.429 . S
C1084 C1076 1.574 1_565 S
C1084 H1079 0.949 . S
C1084 C1090 1.368 . S
C1085 C1069 1.349 . S
C1085 H1077 0.950 . S
C1085 C1083 1.327 . S
C1086 C1074 1.349 . S
C1086 H1080 0.950 . S
C1086 C1087 1.327 . S
C1087 H1081 0.950 . S
C1087 C1086 1.327 . S
C1087 C1091 1.429 . S
C1088 C1071 1.574 1_545 S
C1088 H1082 0.949 . S
C1088 C1092 1.368 . S
C1089 C1070 1.429 . S
C1089 C1083 1.429 . S
C1089 C1090 1.523 . S
C1090 C1071 1.368 . S
C1090 C1084 1.368 . S
C1090 C1089 1.523 . S
C1091 C1075 1.429 . S
C1091 C1087 1.429 . S
C1091 C1092 1.523 . S
C1092 C1076 1.368 . S
C1092 C1088 1.368 . S
C1092 C1091 1.523 . S
H1093 C1068 0.950 . S
H1094 C1070 0.950 . S
H1095 C1071 0.949 . S
H1096 C1073 0.950 . S
H1097 C1075 0.950 . S
C1098 C1099 1.349 . S
C1098 C1100 1.327 . S
C1098 H1123 0.950 . S
C1099 C1098 1.349 . S
C1099 C1115 1.349 . S
C1100 C1098 1.327 . S
C1100 C1119 1.429 . S
C1100 H1124 0.950 . S
C1101 C1118 1.574 1_455 S
C1101 C1120 1.368 . S
C1101 H1125 0.949 . S
H1102 C1106 0.949 . S
C1103 C1104 1.349 . S
C1103 C1105 1.327 . S
C1103 H1126 0.950 . S
C1104 C1103 1.349 . S
C1104 C1116 1.349 . S
C1105 C1103 1.327 . S
C1105 C1121 1.429 . S
C1105 H1127 0.950 . S
C1106 H1102 0.949 . S
C1106 C1114 1.574 1_655 S
C1106 C1122 1.368 . S
H1107 C1115 0.950 . S
H1108 C1113 0.950 . S
H1109 C1114 0.949 . S
H1110 C1116 0.950 . S
H1111 C1117 0.950 . S
H1112 C1118 0.949 . S
C1113 H1108 0.950 . S
C1113 C1115 1.327 . S
C1113 C1119 1.429 . S
C1114 C1106 1.574 1_455 S
C1114 H1109 0.949 . S
C1114 C1120 1.368 . S
C1115 C1099 1.349 . S
C1115 H1107 0.950 . S
C1115 C1113 1.327 . S
C1116 C1104 1.349 . S
C1116 H1110 0.950 . S
C1116 C1117 1.327 . S
C1117 H1111 0.950 . S
C1117 C1116 1.327 . S
C1117 C1121 1.429 . S
C1118 C1101 1.574 1_655 S
C1118 H1112 0.949 . S
C1118 C1122 1.368 . S
C1119 C1100 1.429 . S
C1119 C1113 1.429 . S
C1119 C1120 1.523 . S
C1120 C1101 1.368 . S
C1120 C1114 1.368 . S
C1120 C1119 1.523 . S
C1121 C1105 1.429 . S
C1121 C1117 1.429 . S
C1121 C1122 1.523 . S
C1122 C1106 1.368 . S
C1122 C1118 1.368 . S
C1122 C1121 1.523 . S
H1123 C1098 0.950 . S
H1124 C1100 0.950 . S
H1125 C1101 0.949 . S
H1126 C1103 0.950 . S
H1127 C1105 0.950 . S
C1128 C1129 1.349 . S
C1128 C1130 1.327 . S
C1128 H1153 0.950 . S
C1129 C1128 1.349 . S
C1129 C1145 1.349 . S
C1130 C1128 1.327 . S
C1130 C1149 1.429 . S
C1130 H1154 0.950 . S
C1131 C1148 1.574 . S
C1131 C1150 1.368 . S
C1131 H1155 0.949 . S
H1132 C1136 0.949 . S
C1133 C1134 1.349 . S
C1133 C1135 1.327 . S
C1133 H1156 0.950 . S
C1134 C1133 1.349 . S
C1134 C1146 1.349 . S
C1135 C1133 1.327 . S
C1135 C1151 1.429 . S
C1135 H1157 0.950 . S
C1136 H1132 0.949 . S
C1136 C1144 1.574 . S
C1136 C1152 1.368 . S
H1137 C1145 0.950 . S
H1138 C1143 0.950 . S
H1139 C1144 0.949 . S
H1140 C1146 0.950 . S
H1141 C1147 0.950 . S
H1142 C1148 0.949 . S
C1143 H1138 0.950 . S
C1143 C1145 1.327 . S
C1143 C1149 1.429 . S
C1144 C1136 1.574 . S
C1144 H1139 0.949 . S
C1144 C1150 1.368 1_455 S
C1145 C1129 1.349 . S
C1145 H1137 0.950 . S
C1145 C1143 1.327 . S
C1146 C1134 1.349 . S
C1146 H1140 0.950 . S
C1146 C1147 1.327 . S
C1147 H1141 0.950 . S
C1147 C1146 1.327 . S
C1147 C1151 1.429 . S
C1148 C1131 1.574 . S
C1148 H1142 0.949 . S
C1148 C1152 1.368 1_655 S
C1149 C1130 1.429 . S
C1149 C1143 1.429 . S
C1149 C1150 1.523 . S
C1150 C1131 1.368 . S
C1150 C1144 1.368 1_655 S
C1150 C1149 1.523 . S
C1151 C1135 1.429 . S
C1151 C1147 1.429 . S
C1151 C1152 1.523 . S
C1152 C1136 1.368 . S
C1152 C1148 1.368 1_455 S
C1152 C1151 1.523 . S
H1153 C1128 0.950 . S
H1154 C1130 0.950 . S
H1155 C1131 0.949 . S
H1156 C1133 0.950 . S
H1157 C1135 0.950 . S
C1158 C1159 1.349 . S
C1158 C1160 1.327 . S
C1158 H1183 0.950 . S
C1159 C1158 1.349 . S
C1159 C1175 1.349 . S
C1160 C1158 1.327 . S
C1160 C1179 1.429 . S
C1160 H1184 0.950 . S
C1161 C1178 1.574 . S
C1161 C1180 1.368 1_565 S
C1161 H1185 0.949 . S
H1162 C1166 0.949 . S
C1163 C1164 1.349 . S
C1163 C1165 1.327 . S
C1163 H1186 0.950 . S
C1164 C1163 1.349 . S
C1164 C1176 1.349 . S
C1165 C1163 1.327 . S
C1165 C1181 1.429 . S
C1165 H1187 0.950 . S
C1166 H1162 0.949 . S
C1166 C1174 1.574 . S
C1166 C1182 1.368 1_545 S
H1167 C1175 0.950 . S
H1168 C1173 0.950 . S
H1169 C1174 0.949 . S
H1170 C1176 0.950 . S
H1171 C1177 0.950 . S
H1172 C1178 0.949 . S
C1173 H1168 0.950 . S
C1173 C1175 1.327 . S
C1173 C1179 1.429 . S
C1174 C1166 1.574 . S
C1174 H1169 0.949 . S
C1174 C1180 1.368 . S
C1175 C1159 1.349 . S
C1175 H1167 0.950 . S
C1175 C1173 1.327 . S
C1176 C1164 1.349 . S
C1176 H1170 0.950 . S
C1176 C1177 1.327 . S
C1177 H1171 0.950 . S
C1177 C1176 1.327 . S
C1177 C1181 1.429 . S
C1178 C1161 1.574 . S
C1178 H1172 0.949 . S
C1178 C1182 1.368 . S
C1179 C1160 1.429 . S
C1179 C1173 1.429 . S
C1179 C1180 1.523 . S
C1180 C1161 1.368 1_545 S
C1180 C1174 1.368 . S
C1180 C1179 1.523 . S
C1181 C1165 1.429 . S
C1181 C1177 1.429 . S
C1181 C1182 1.523 . S
C1182 C1166 1.368 1_565 S
C1182 C1178 1.368 . S
C1182 C1181 1.523 . S
H1183 C1158 0.950 . S
H1184 C1160 0.950 . S
H1185 C1161 0.949 . S
H1186 C1163 0.950 . S
H1187 C1165 0.950 . S
C1188 C1189 1.349 . S
C1188 C1190 1.327 . S
C1188 H1213 0.950 . S
C1189 C1188 1.349 . S
C1189 C1205 1.349 . S
C1190 C1188 1.327 . S
C1190 C1209 1.429 . S
C1190 H1214 0.950 . S
C1191 C1208 1.574 1_565 S
C1191 C1210 1.368 . S
C1191 H1215 0.949 . S
H1192 C1196 0.949 . S
C1193 C1194 1.349 . S
C1193 C1195 1.327 . S
C1193 H1216 0.950 . S
C1194 C1193 1.349 . S
C1194 C1206 1.349 . S
C1195 C1193 1.327 . S
C1195 C1211 1.429 . S
C1195 H1217 0.950 . S
C1196 H1192 0.949 . S
C1196 C1204 1.574 1_545 S
C1196 C1212 1.368 . S
H1197 C1205 0.950 . S
H1198 C1203 0.950 . S
H1199 C1204 0.949 . S
H1200 C1206 0.950 . S
H1201 C1207 0.950 . S
H1202 C1208 0.949 . S
C1203 H1198 0.950 . S
C1203 C1205 1.327 . S
C1203 C1209 1.429 . S
C1204 C1196 1.574 1_565 S
C1204 H1199 0.949 . S
C1204 C1210 1.368 . S
C1205 C1189 1.349 . S
C1205 H1197 0.950 . S
C1205 C1203 1.327 . S
C1206 C1194 1.349 . S
C1206 H1200 0.950 . S
C1206 C1207 1.327 . S
C1207 H1201 0.950 . S
C1207 C1206 1.327 . S
C1207 C1211 1.429 . S
C1208 C1191 1.574 1_545 S
C1208 H1202 0.949 . S
C1208 C1212 1.368 . S
C1209 C1190 1.429 . S
C1209 C1203 1.429 . S
C1209 C1210 1.523 . S
C1210 C1191 1.368 . S
C1210 C1204 1.368 . S
C1210 C1209 1.523 . S
C1211 C1195 1.429 . S
C1211 C1207 1.429 . S
C1211 C1212 1.523 . S
C1212 C1196 1.368 . S
C1212 C1208 1.368 . S
C1212 C1211 1.523 . S
H1213 C1188 0.950 . S
H1214 C1190 0.950 . S
H1215 C1191 0.949 . S
H1216 C1193 0.950 . S
H1217 C1195 0.950 . S
C1218 C1219 1.349 . S
C1218 C1220 1.327 . S
C1218 H1243 0.950 . S
C1219 C1218 1.349 . S
C1219 C1235 1.349 . S
C1220 C1218 1.327 . S
C1220 C1239 1.429 . S
C1220 H1244 0.950 . S
C1221 C1238 1.574 1_455 S
C1221 C1240 1.368 . S
C1221 H1245 0.949 . S
H1222 C1226 0.949 . S
C1223 C1224 1.349 . S
C1223 C1225 1.327 . S
C1223 H1246 0.950 . S
C1224 C1223 1.349 . S
C1224 C1236 1.349 . S
C1225 C1223 1.327 . S
C1225 C1241 1.429 . S
C1225 H1247 0.950 . S
C1226 H1222 0.949 . S
C1226 C1234 1.574 1_655 S
C1226 C1242 1.368 . S
H1227 C1235 0.950 . S
H1228 C1233 0.950 . S
H1229 C1234 0.949 . S
H1230 C1236 0.950 . S
H1231 C1237 0.950 . S
H1232 C1238 0.949 . S
C1233 H1228 0.950 . S
C1233 C1235 1.327 . S
C1233 C1239 1.429 . S
C1234 C1226 1.574 1_455 S
C1234 H1229 0.949 . S
C1234 C1240 1.368 . S
C1235 C1219 1.349 . S
C1235 H1227 0.950 . S
C1235 C1233 1.327 . S
C1236 C1224 1.349 . S
C1236 H1230 0.950 . S
C1236 C1237 1.327 . S
C1237 H1231 0.950 . S
C1237 C1236 1.327 . S
C1237 C1241 1.429 . S
C1238 C1221 1.574 1_655 S
C1238 H1232 0.949 . S
C1238 C1242 1.368 . S
C1239 C1220 1.429 . S
C1239 C1233 1.429 . S
C1239 C1240 1.523 . S
C1240 C1221 1.368 . S
C1240 C1234 1.368 . S
C1240 C1239 1.523 . S
C1241 C1225 1.429 . S
C1241 C1237 1.429 . S
C1241 C1242 1.523 . S
C1242 C1226 1.368 . S
C1242 C1238 1.368 . S
C1242 C1241 1.523 . S
H1243 C1218 0.950 . S
H1244 C1220 0.950 . S
H1245 C1221 0.949 . S
H1246 C1223 0.950 . S
H1247 C1225 0.950 . S
C1248 C1249 1.349 . S
C1248 C1250 1.327 . S
C1248 H1273 0.950 . S
C1249 C1248 1.349 . S
C1249 C1265 1.349 . S
C1250 C1248 1.327 . S
C1250 C1269 1.429 . S
C1250 H1274 0.950 . S
C1251 C1268 1.574 . S
C1251 C1270 1.368 . S
C1251 H1275 0.949 . S
H1252 C1256 0.949 . S
C1253 C1254 1.349 . S
C1253 C1255 1.327 . S
C1253 H1276 0.950 . S
C1254 C1253 1.349 . S
C1254 C1266 1.349 . S
C1255 C1253 1.327 . S
C1255 C1271 1.429 . S
C1255 H1277 0.950 . S
C1256 H1252 0.949 . S
C1256 C1264 1.574 . S
C1256 C1272 1.368 . S
H1257 C1265 0.950 . S
H1258 C1263 0.950 . S
H1259 C1264 0.949 . S
H1260 C1266 0.950 . S
H1261 C1267 0.950 . S
H1262 C1268 0.949 . S
C1263 H1258 0.950 . S
C1263 C1265 1.327 . S
C1263 C1269 1.429 . S
C1264 C1256 1.574 . S
C1264 H1259 0.949 . S
C1264 C1270 1.368 . S
C1265 C1249 1.349 . S
C1265 H1257 0.950 . S
C1265 C1263 1.327 . S
C1266 C1254 1.349 . S
C1266 H1260 0.950 . S
C1266 C1267 1.327 . S
C1267 H1261 0.950 . S
C1267 C1266 1.327 . S
C1267 C1271 1.429 . S
C1268 C1251 1.574 . S
C1268 H1262 0.949 . S
C1268 C1272 1.368 . S
C1269 C1250 1.429 . S
C1269 C1263 1.429 . S
C1269 C1270 1.523 . S
C1270 C1251 1.368 . S
C1270 C1264 1.368 . S
C1270 C1269 1.523 . S
C1271 C1255 1.429 . S
C1271 C1267 1.429 . S
C1271 C1272 1.523 . S
C1272 C1256 1.368 . S
C1272 C1268 1.368 . S
C1272 C1271 1.523 . S
H1273 C1248 0.950 . S
H1274 C1250 0.950 . S
H1275 C1251 0.949 . S
H1276 C1253 0.950 . S
H1277 C1255 0.950 . S
C1278 C1279 1.349 . S
C1278 C1280 1.327 . S
C1278 H1303 0.950 . S
C1279 C1278 1.349 . S
C1279 C1295 1.349 . S
C1280 C1278 1.327 . S
C1280 C1299 1.429 . S
C1280 H1304 0.950 . S
C1281 C1298 1.574 . S
C1281 C1300 1.368 . S
C1281 H1305 0.949 . S
H1282 C1286 0.949 . S
C1283 C1284 1.349 . S
C1283 C1285 1.327 . S
C1283 H1306 0.950 . S
C1284 C1283 1.349 . S
C1284 C1296 1.349 . S
C1285 C1283 1.327 . S
C1285 C1301 1.429 . S
C1285 H1307 0.950 . S
C1286 H1282 0.949 . S
C1286 C1294 1.574 . S
C1286 C1302 1.368 . S
H1287 C1295 0.950 . S
H1288 C1293 0.950 . S
H1289 C1294 0.949 . S
H1290 C1296 0.950 . S
H1291 C1297 0.950 . S
H1292 C1298 0.949 . S
C1293 H1288 0.950 . S
C1293 C1295 1.327 . S
C1293 C1299 1.429 . S
C1294 C1286 1.574 . S
C1294 H1289 0.949 . S
C1294 C1300 1.368 . S
C1295 C1279 1.349 . S
C1295 H1287 0.950 . S
C1295 C1293 1.327 . S
C1296 C1284 1.349 . S
C1296 H1290 0.950 . S
C1296 C1297 1.327 . S
C1297 H1291 0.950 . S
C1297 C1296 1.327 . S
C1297 C1301 1.429 . S
C1298 C1281 1.574 . S
C1298 H1292 0.949 . S
C1298 C1302 1.368 . S
C1299 C1280 1.429 . S
C1299 C1293 1.429 . S
C1299 C1300 1.523 . S
C1300 C1281 1.368 . S
C1300 C1294 1.368 . S
C1300 C1299 1.523 . S
C1301 C1285 1.429 . S
C1301 C1297 1.429 . S
C1301 C1302 1.523 . S
C1302 C1286 1.368 . S
C1302 C1298 1.368 . S
C1302 C1301 1.523 . S
H1303 C1278 0.950 . S
H1304 C1280 0.950 . S
H1305 C1281 0.949 . S
H1306 C1283 0.950 . S
H1307 C1285 0.950 . S
C1308 C1309 1.349 . S
C1308 C1310 1.327 . S
C1308 H1333 0.950 . S
C1309 C1308 1.349 . S
C1309 C1325 1.349 . S
C1310 C1308 1.327 . S
C1310 C1329 1.429 . S
C1310 H1334 0.950 . S
C1311 C1328 1.574 . S
C1311 C1330 1.368 . S
C1311 H1335 0.949 . S
H1312 C1316 0.949 . S
C1313 C1314 1.349 . S
C1313 C1315 1.327 . S
C1313 H1336 0.950 . S
C1314 C1313 1.349 . S
C1314 C1326 1.349 . S
C1315 C1313 1.327 . S
C1315 C1331 1.429 . S
C1315 H1337 0.950 . S
C1316 H1312 0.949 . S
C1316 C1324 1.574 . S
C1316 C1332 1.368 . S
H1317 C1325 0.950 . S
H1318 C1323 0.950 . S
H1319 C1324 0.949 . S
H1320 C1326 0.950 . S
H1321 C1327 0.950 . S
H1322 C1328 0.949 . S
C1323 H1318 0.950 . S
C1323 C1325 1.327 . S
C1323 C1329 1.429 . S
C1324 C1316 1.574 . S
C1324 H1319 0.949 . S
C1324 C1330 1.368 . S
C1325 C1309 1.349 . S
C1325 H1317 0.950 . S
C1325 C1323 1.327 . S
C1326 C1314 1.349 . S
C1326 H1320 0.950 . S
C1326 C1327 1.327 . S
C1327 H1321 0.950 . S
C1327 C1326 1.327 . S
C1327 C1331 1.429 . S
C1328 C1311 1.574 . S
C1328 H1322 0.949 . S
C1328 C1332 1.368 . S
C1329 C1310 1.429 . S
C1329 C1323 1.429 . S
C1329 C1330 1.523 . S
C1330 C1311 1.368 . S
C1330 C1324 1.368 . S
C1330 C1329 1.523 . S
C1331 C1315 1.429 . S
C1331 C1327 1.429 . S
C1331 C1332 1.523 . S
C1332 C1316 1.368 . S
C1332 C1328 1.368 . S
C1332 C1331 1.523 . S
H1333 C1308 0.950 . S
H1334 C1310 0.950 . S
H1335 C1311 0.949 . S
H1336 C1313 0.950 . S
H1337 C1315 0.950 . S
C1338 C1339 1.349 . S
C1338 C1340 1.327 . S
C1338 H1363 0.950 . S
C1339 C1338 1.349 . S
C1339 C1355 1.349 . S
C1340 C1338 1.327 . S
C1340 C1359 1.429 . S
C1340 H1364 0.950 . S
C1341 C1358 1.574 . S
C1341 C1360 1.368 . S
C1341 H1365 0.949 . S
H1342 C1346 0.949 . S
C1343 C1344 1.349 . S
C1343 C1345 1.327 . S
C1343 H1366 0.950 . S
C1344 C1343 1.349 . S
C1344 C1356 1.349 . S
C1345 C1343 1.327 . S
C1345 C1361 1.429 . S
C1345 H1367 0.950 . S
C1346 H1342 0.949 . S
C1346 C1354 1.574 . S
C1346 C1362 1.368 . S
H1347 C1355 0.950 . S
H1348 C1353 0.950 . S
H1349 C1354 0.949 . S
H1350 C1356 0.950 . S
H1351 C1357 0.950 . S
H1352 C1358 0.949 . S
C1353 H1348 0.950 . S
C1353 C1355 1.327 . S
C1353 C1359 1.429 . S
C1354 C1346 1.574 . S
C1354 H1349 0.949 . S
C1354 C1360 1.368 . S
C1355 C1339 1.349 . S
C1355 H1347 0.950 . S
C1355 C1353 1.327 . S
C1356 C1344 1.349 . S
C1356 H1350 0.950 . S
C1356 C1357 1.327 . S
C1357 H1351 0.950 . S
C1357 C1356 1.327 . S
C1357 C1361 1.429 . S
C1358 C1341 1.574 . S
C1358 H1352 0.949 . S
C1358 C1362 1.368 . S
C1359 C1340 1.429 . S
C1359 C1353 1.429 . S
C1359 C1360 1.523 . S
C1360 C1341 1.368 . S
C1360 C1354 1.368 . S
C1360 C1359 1.523 . S
C1361 C1345 1.429 . S
C1361 C1357 1.429 . S
C1361 C1362 1.523 . S
C1362 C1346 1.368 . S
C1362 C1358 1.368 . S
C1362 C1361 1.523 . S
H1363 C1338 0.950 . S
H1364 C1340 0.950 . S
H1365 C1341 0.949 . S
H1366 C1343 0.950 . S
H1367 C1345 0.950 . S
C1368 C1369 1.349 . S
C1368 C1370 1.327 . S
C1368 H1393 0.950 . S
C1369 C1368 1.349 . S
C1369 C1385 1.349 . S
C1370 C1368 1.327 . S
C1370 C1389 1.429 . S
C1370 H1394 0.950 . S
C1371 C1388 1.574 . S
C1371 C1390 1.368 . S
C1371 H1395 0.949 . S
H1372 C1376 0.949 . S
C1373 C1374 1.349 . S
C1373 C1375 1.327 . S
C1373 H1396 0.950 . S
C1374 C1373 1.349 . S
C1374 C1386 1.349 . S
C1375 C1373 1.327 . S
C1375 C1391 1.429 . S
C1375 H1397 0.950 . S
C1376 H1372 0.949 . S
C1376 C1384 1.574 . S
C1376 C1392 1.368 . S
H1377 C1385 0.950 . S
H1378 C1383 0.950 . S
H1379 C1384 0.949 . S
H1380 C1386 0.950 . S
H1381 C1387 0.950 . S
H1382 C1388 0.949 . S
C1383 H1378 0.950 . S
C1383 C1385 1.327 . S
C1383 C1389 1.429 . S
C1384 C1376 1.574 . S
C1384 H1379 0.949 . S
C1384 C1390 1.368 . S
C1385 C1369 1.349 . S
C1385 H1377 0.950 . S
C1385 C1383 1.327 . S
C1386 C1374 1.349 . S
C1386 H1380 0.950 . S
C1386 C1387 1.327 . S
C1387 H1381 0.950 . S
C1387 C1386 1.327 . S
C1387 C1391 1.429 . S
C1388 C1371 1.574 . S
C1388 H1382 0.949 . S
C1388 C1392 1.368 . S
C1389 C1370 1.429 . S
C1389 C1383 1.429 . S
C1389 C1390 1.523 . S
C1390 C1371 1.368 . S
C1390 C1384 1.368 . S
C1390 C1389 1.523 . S
C1391 C1375 1.429 . S
C1391 C1387 1.429 . S
C1391 C1392 1.523 . S
C1392 C1376 1.368 . S
C1392 C1388 1.368 . S
C1392 C1391 1.523 . S
H1393 C1368 0.950 . S
H1394 C1370 0.950 . S
H1395 C1371 0.949 . S
H1396 C1373 0.950 . S
H1397 C1375 0.950 . S
C1398 C1399 1.349 . S
C1398 C1400 1.327 . S
C1398 H1423 0.950 . S
C1399 C1398 1.349 . S
C1399 C1415 1.349 . S
C1400 C1398 1.327 . S
C1400 C1419 1.429 . S
C1400 H1424 0.950 . S
C1401 C1418 1.574 . S
C1401 C1420 1.368 . S
C1401 H1425 0.949 . S
H1402 C1406 0.949 . S
C1403 C1404 1.349 . S
C1403 C1405 1.327 . S
C1403 H1426 0.950 . S
C1404 C1403 1.349 . S
C1404 C1416 1.349 . S
C1405 C1403 1.327 . S
C1405 C1421 1.429 . S
C1405 H1427 0.950 . S
C1406 H1402 0.949 . S
C1406 C1414 1.574 . S
C1406 C1422 1.368 . S
H1407 C1415 0.950 . S
H1408 C1413 0.950 . S
H1409 C1414 0.949 . S
H1410 C1416 0.950 . S
H1411 C1417 0.950 . S
H1412 C1418 0.949 . S
C1413 H1408 0.950 . S
C1413 C1415 1.327 . S
C1413 C1419 1.429 . S
C1414 C1406 1.574 . S
C1414 H1409 0.949 . S
C1414 C1420 1.368 . S
C1415 C1399 1.349 . S
C1415 H1407 0.950 . S
C1415 C1413 1.327 . S
C1416 C1404 1.349 . S
C1416 H1410 0.950 . S
C1416 C1417 1.327 . S
C1417 H1411 0.950 . S
C1417 C1416 1.327 . S
C1417 C1421 1.429 . S
C1418 C1401 1.574 . S
C1418 H1412 0.949 . S
C1418 C1422 1.368 . S
C1419 C1400 1.429 . S
C1419 C1413 1.429 . S
C1419 C1420 1.523 . S
C1420 C1401 1.368 . S
C1420 C1414 1.368 . S
C1420 C1419 1.523 . S
C1421 C1405 1.429 . S
C1421 C1417 1.429 . S
C1421 C1422 1.523 . S
C1422 C1406 1.368 . S
C1422 C1418 1.368 . S
C1422 C1421 1.523 . S
H1423 C1398 0.950 . S
H1424 C1400 0.950 . S
H1425 C1401 0.949 . S
H1426 C1403 0.950 . S
H1427 C1405 0.950 . S
C1428 C1429 1.349 . S
C1428 C1430 1.327 . S
C1428 H1453 0.950 . S
C1429 C1428 1.349 . S
C1429 C1445 1.349 . S
C1430 C1428 1.327 . S
C1430 C1449 1.429 . S
C1430 H1454 0.950 . S
C1431 C1448 1.574 . S
C1431 C1450 1.368 . S
C1431 H1455 0.949 . S
H1432 C1436 0.949 . S
C1433 C1434 1.349 . S
C1433 C1435 1.327 . S
C1433 H1456 0.950 . S
C1434 C1433 1.349 . S
C1434 C1446 1.349 . S
C1435 C1433 1.327 . S
C1435 C1451 1.429 . S
C1435 H1457 0.950 . S
C1436 H1432 0.949 . S
C1436 C1444 1.574 . S
C1436 C1452 1.368 . S
H1437 C1445 0.950 . S
H1438 C1443 0.950 . S
H1439 C1444 0.949 . S
H1440 C1446 0.950 . S
H1441 C1447 0.950 . S
H1442 C1448 0.949 . S
C1443 H1438 0.950 . S
C1443 C1445 1.327 . S
C1443 C1449 1.429 . S
C1444 C1436 1.574 . S
C1444 H1439 0.949 . S
C1444 C1450 1.368 . S
C1445 C1429 1.349 . S
C1445 H1437 0.950 . S
C1445 C1443 1.327 . S
C1446 C1434 1.349 . S
C1446 H1440 0.950 . S
C1446 C1447 1.327 . S
C1447 H1441 0.950 . S
C1447 C1446 1.327 . S
C1447 C1451 1.429 . S
C1448 C1431 1.574 . S
C1448 H1442 0.949 . S
C1448 C1452 1.368 . S
C1449 C1430 1.429 . S
C1449 C1443 1.429 . S
C1449 C1450 1.523 . S
C1450 C1431 1.368 . S
C1450 C1444 1.368 . S
C1450 C1449 1.523 . S
C1451 C1435 1.429 . S
C1451 C1447 1.429 . S
C1451 C1452 1.523 . S
C1452 C1436 1.368 . S
C1452 C1448 1.368 . S
C1452 C1451 1.523 . S
H1453 C1428 0.950 . S
H1454 C1430 0.950 . S
H1455 C1431 0.949 . S
H1456 C1433 0.950 . S
H1457 C1435 0.950 . S
C1458 C1459 1.349 . S
C1458 C1460 1.327 . S
C1458 H1483 0.950 . S
C1459 C1458 1.349 . S
C1459 C1475 1.349 . S
C1460 C1458 1.327 . S
C1460 C1479 1.429 . S
C1460 H1484 0.950 . S
C1461 C1478 1.574 . S
C1461 C1480 1.368 . S
C1461 H1485 0.949 . S
H1462 C1466 0.949 . S
C1463 C1464 1.349 . S
C1463 C1465 1.327 . S
C1463 H1486 0.950 . S
C1464 C1463 1.349 . S
C1464 C1476 1.349 . S
C1465 C1463 1.327 . S
C1465 C1481 1.429 . S
C1465 H1487 0.950 . S
C1466 H1462 0.949 . S
C1466 C1474 1.574 . S
C1466 C1482 1.368 . S
H1467 C1475 0.950 . S
H1468 C1473 0.950 . S
H1469 C1474 0.949 . S
H1470 C1476 0.950 . S
H1471 C1477 0.950 . S
H1472 C1478 0.949 . S
C1473 H1468 0.950 . S
C1473 C1475 1.327 . S
C1473 C1479 1.429 . S
C1474 C1466 1.574 . S
C1474 H1469 0.949 . S
C1474 C1480 1.368 . S
C1475 C1459 1.349 . S
C1475 H1467 0.950 . S
C1475 C1473 1.327 . S
C1476 C1464 1.349 . S
C1476 H1470 0.950 . S
C1476 C1477 1.327 . S
C1477 H1471 0.950 . S
C1477 C1476 1.327 . S
C1477 C1481 1.429 . S
C1478 C1461 1.574 . S
C1478 H1472 0.949 . S
C1478 C1482 1.368 . S
C1479 C1460 1.429 . S
C1479 C1473 1.429 . S
C1479 C1480 1.523 . S
C1480 C1461 1.368 . S
C1480 C1474 1.368 . S
C1480 C1479 1.523 . S
C1481 C1465 1.429 . S
C1481 C1477 1.429 . S
C1481 C1482 1.523 . S
C1482 C1466 1.368 . S
C1482 C1478 1.368 . S
C1482 C1481 1.523 . S
H1483 C1458 0.950 . S
H1484 C1460 0.950 . S
H1485 C1461 0.949 . S
H1486 C1463 0.950 . S
H1487 C1465 0.950 . S
C1488 C1489 1.349 . S
C1488 C1490 1.327 . S
C1488 H1513 0.950 . S
C1489 C1488 1.349 . S
C1489 C1505 1.349 . S
C1490 C1488 1.327 . S
C1490 C1509 1.429 . S
C1490 H1514 0.950 . S
C1491 C1508 1.574 . S
C1491 C1510 1.368 . S
C1491 H1515 0.949 . S
H1492 C1496 0.949 . S
C1493 C1494 1.349 . S
C1493 C1495 1.327 . S
C1493 H1516 0.950 . S
C1494 C1493 1.349 . S
C1494 C1506 1.349 . S
C1495 C1493 1.327 . S
C1495 C1511 1.429 . S
C1495 H1517 0.950 . S
C1496 H1492 0.949 . S
C1496 C1504 1.574 . S
C1496 C1512 1.368 . S
H1497 C1505 0.950 . S
H1498 C1503 0.950 . S
H1499 C1504 0.949 . S
H1500 C1506 0.950 . S
H1501 C1507 0.950 . S
H1502 C1508 0.949 . S
C1503 H1498 0.950 . S
C1503 C1505 1.327 . S
C1503 C1509 1.429 . S
C1504 C1496 1.574 . S
C1504 H1499 0.949 . S
C1504 C1510 1.368 . S
C1505 C1489 1.349 . S
C1505 H1497 0.950 . S
C1505 C1503 1.327 . S
C1506 C1494 1.349 . S
C1506 H1500 0.950 . S
C1506 C1507 1.327 . S
C1507 H1501 0.950 . S
C1507 C1506 1.327 . S
C1507 C1511 1.429 . S
C1508 C1491 1.574 . S
C1508 H1502 0.949 . S
C1508 C1512 1.368 . S
C1509 C1490 1.429 . S
C1509 C1503 1.429 . S
C1509 C1510 1.523 . S
C1510 C1491 1.368 . S
C1510 C1504 1.368 . S
C1510 C1509 1.523 . S
C1511 C1495 1.429 . S
C1511 C1507 1.429 . S
C1511 C1512 1.523 . S
C1512 C1496 1.368 . S
C1512 C1508 1.368 . S
C1512 C1511 1.523 . S
H1513 C1488 0.950 . S
H1514 C1490 0.950 . S
H1515 C1491 0.949 . S
H1516 C1493 0.950 . S
H1517 C1495 0.950 . S
C1518 C1519 1.349 . S
C1518 C1520 1.327 . S
C1518 H1543 0.950 . S
C1519 C1518 1.349 . S
C1519 C1535 1.349 . S
C1520 C1518 1.327 . S
C1520 C1539 1.429 . S
C1520 H1544 0.950 . S
C1521 C1538 1.574 . S
C1521 C1540 1.368 . S
C1521 H1545 0.949 . S
H1522 C1526 0.949 . S
C1523 C1524 1.349 . S
C1523 C1525 1.327 . S
C1523 H1546 0.950 . S
C1524 C1523 1.349 . S
C1524 C1536 1.349 . S
C1525 C1523 1.327 . S
C1525 C1541 1.429 . S
C1525 H1547 0.950 . S
C1526 H1522 0.949 . S
C1526 C1534 1.574 . S
C1526 C1542 1.368 . S
H1527 C1535 0.950 . S
H1528 C1533 0.950 . S
H1529 C1534 0.949 . S
H1530 C1536 0.950 . S
H1531 C1537 0.950 . S
H1532 C1538 0.949 . S
C1533 H1528 0.950 . S
C1533 C1535 1.327 . S
C1533 C1539 1.429 . S
C1534 C1526 1.574 . S
C1534 H1529 0.949 . S
C1534 C1540 1.368 . S
C1535 C1519 1.349 . S
C1535 H1527 0.950 . S
C1535 C1533 1.327 . S
C1536 C1524 1.349 . S
C1536 H1530 0.950 . S
C1536 C1537 1.327 . S
C1537 H1531 0.950 . S
C1537 C1536 1.327 . S
C1537 C1541 1.429 . S
C1538 C1521 1.574 . S
C1538 H1532 0.949 . S
C1538 C1542 1.368 . S
C1539 C1520 1.429 . S
C1539 C1533 1.429 . S
C1539 C1540 1.523 . S
C1540 C1521 1.368 . S
C1540 C1534 1.368 . S
C1540 C1539 1.523 . S
C1541 C1525 1.429 . S
C1541 C1537 1.429 . S
C1541 C1542 1.523 . S
C1542 C1526 1.368 . S
C1542 C1538 1.368 . S
C1542 C1541 1.523 . S
H1543 C1518 0.950 . S
H1544 C1520 0.950 . S
H1545 C1521 0.949 . S
H1546 C1523 0.950 . S
H1547 C1525 0.950 . S
C1548 C1549 1.349 . S
C1548 C1550 1.327 . S
C1548 H1573 0.950 . S
C1549 C1548 1.349 . S
C1549 C1565 1.349 . S
C1550 C1548 1.327 . S
C1550 C1569 1.429 . S
C1550 H1574 0.950 . S
C1551 C1568 1.574 . S
C1551 C1570 1.368 . S
C1551 H1575 0.949 . S
H1552 C1556 0.949 . S
C1553 C1554 1.349 . S
C1553 C1555 1.327 . S
C1553 H1576 0.950 . S
C1554 C1553 1.349 . S
C1554 C1566 1.349 . S
C1555 C1553 1.327 . S
C1555 C1571 1.429 . S
C1555 H1577 0.950 . S
C1556 H1552 0.949 . S
C1556 C1564 1.574 . S
C1556 C1572 1.368 . S
H1557 C1565 0.950 . S
H1558 C1563 0.950 . S
H1559 C1564 0.949 . S
H1560 C1566 0.950 . S
H1561 C1567 0.950 . S
H1562 C1568 0.949 . S
C1563 H1558 0.950 . S
C1563 C1565 1.327 . S
C1563 C1569 1.429 . S
C1564 C1556 1.574 . S
C1564 H1559 0.949 . S
C1564 C1570 1.368 . S
C1565 C1549 1.349 . S
C1565 H1557 0.950 . S
C1565 C1563 1.327 . S
C1566 C1554 1.349 . S
C1566 H1560 0.950 . S
C1566 C1567 1.327 . S
C1567 H1561 0.950 . S
C1567 C1566 1.327 . S
C1567 C1571 1.429 . S
C1568 C1551 1.574 . S
C1568 H1562 0.949 . S
C1568 C1572 1.368 . S
C1569 C1550 1.429 . S
C1569 C1563 1.429 . S
C1569 C1570 1.523 . S
C1570 C1551 1.368 . S
C1570 C1564 1.368 . S
C1570 C1569 1.523 . S
C1571 C1555 1.429 . S
C1571 C1567 1.429 . S
C1571 C1572 1.523 . S
C1572 C1556 1.368 . S
C1572 C1568 1.368 . S
C1572 C1571 1.523 . S
H1573 C1548 0.950 . S
H1574 C1550 0.950 . S
H1575 C1551 0.949 . S
H1576 C1553 0.950 . S
H1577 C1555 0.950 . S
C1578 C1579 1.349 . S
C1578 C1580 1.327 . S
C1578 H1603 0.950 . S
C1579 C1578 1.349 . S
C1579 C1595 1.349 . S
C1580 C1578 1.327 . S
C1580 C1599 1.429 . S
C1580 H1604 0.950 . S
C1581 C1598 1.574 . S
C1581 C1600 1.368 . S
C1581 H1605 0.949 . S
H1582 C1586 0.949 . S
C1583 C1584 1.349 . S
C1583 C1585 1.327 . S
C1583 H1606 0.950 . S
C1584 C1583 1.349 . S
C1584 C1596 1.349 . S
C1585 C1583 1.327 . S
C1585 C1601 1.429 . S
C1585 H1607 0.950 . S
C1586 H1582 0.949 . S
C1586 C1594 1.574 . S
C1586 C1602 1.368 . S
H1587 C1595 0.950 . S
H1588 C1593 0.950 . S
H1589 C1594 0.949 . S
H1590 C1596 0.950 . S
H1591 C1597 0.950 . S
H1592 C1598 0.949 . S
C1593 H1588 0.950 . S
C1593 C1595 1.327 . S
C1593 C1599 1.429 . S
C1594 C1586 1.574 . S
C1594 H1589 0.949 . S
C1594 C1600 1.368 . S
C1595 C1579 1.349 . S
C1595 H1587 0.950 . S
C1595 C1593 1.327 . S
C1596 C1584 1.349 . S
C1596 H1590 0.950 . S
C1596 C1597 1.327 . S
C1597 H1591 0.950 . S
C1597 C1596 1.327 . S
C1597 C1601 1.429 . S
C1598 C1581 1.574 . S
C1598 H1592 0.949 . S
C1598 C1602 1.368 . S
C1599 C1580 1.429 . S
C1599 C1593 1.429 . S
C1599 C1600 1.523 . S
C1600 C1581 1.368 . S
C1600 C1594 1.368 . S
C1600 C1599 1.523 . S
C1601 C1585 1.429 . S
C1601 C1597 1.429 . S
C1601 C1602 1.523 . S
C1602 C1586 1.368 . S
C1602 C1598 1.368 . S
C1602 C1601 1.523 . S
H1603 C1578 0.950 . S
H1604 C1580 0.950 . S
H1605 C1581 0.949 . S
H1606 C1583 0.950 . S
H1607 C1585 0.950 . S
C1608 C1609 1.349 . S
C1608 C1610 1.327 . S
C1608 H1633 0.950 . S
C1609 C1608 1.349 . S
C1609 C1625 1.349 . S
C1610 C1608 1.327 . S
C1610 C1629 1.429 . S
C1610 H1634 0.950 . S
C1611 C1628 1.574 . S
C1611 C1630 1.368 . S
C1611 H1635 0.949 . S
H1612 C1616 0.949 . S
C1613 C1614 1.349 . S
C1613 C1615 1.327 . S
C1613 H1636 0.950 . S
C1614 C1613 1.349 . S
C1614 C1626 1.349 . S
C1615 C1613 1.327 . S
C1615 C1631 1.429 . S
C1615 H1637 0.950 . S
C1616 H1612 0.949 . S
C1616 C1624 1.574 . S
C1616 C1632 1.368 . S
H1617 C1625 0.950 . S
H1618 C1623 0.950 . S
H1619 C1624 0.949 . S
H1620 C1626 0.950 . S
H1621 C1627 0.950 . S
H1622 C1628 0.949 . S
C1623 H1618 0.950 . S
C1623 C1625 1.327 . S
C1623 C1629 1.429 . S
C1624 C1616 1.574 . S
C1624 H1619 0.949 . S
C1624 C1630 1.368 . S
C1625 C1609 1.349 . S
C1625 H1617 0.950 . S
C1625 C1623 1.327 . S
C1626 C1614 1.349 . S
C1626 H1620 0.950 . S
C1626 C1627 1.327 . S
C1627 H1621 0.950 . S
C1627 C1626 1.327 . S
C1627 C1631 1.429 . S
C1628 C1611 1.574 . S
C1628 H1622 0.949 . S
C1628 C1632 1.368 . S
C1629 C1610 1.429 . S
C1629 C1623 1.429 . S
C1629 C1630 1.523 . S
C1630 C1611 1.368 . S
C1630 C1624 1.368 . S
C1630 C1629 1.523 . S
C1631 C1615 1.429 . S
C1631 C1627 1.429 . S
C1631 C1632 1.523 . S
C1632 C1616 1.368 . S
C1632 C1628 1.368 . S
C1632 C1631 1.523 . S
H1633 C1608 0.950 . S
H1634 C1610 0.950 . S
H1635 C1611 0.949 . S
H1636 C1613 0.950 . S
H1637 C1615 0.950 . S
C1638 C1639 1.349 . S
C1638 C1640 1.327 . S
C1638 H1663 0.950 . S
C1639 C1638 1.349 . S
C1639 C1655 1.349 . S
C1640 C1638 1.327 . S
C1640 C1659 1.429 . S
C1640 H1664 0.950 . S
C1641 C1658 1.574 . S
C1641 C1660 1.368 . S
C1641 H1665 0.949 . S
H1642 C1646 0.949 . S
C1643 C1644 1.349 . S
C1643 C1645 1.327 . S
C1643 H1666 0.950 . S
C1644 C1643 1.349 . S
C1644 C1656 1.349 . S
C1645 C1643 1.327 . S
C1645 C1661 1.429 . S
C1645 H1667 0.950 . S
C1646 H1642 0.949 . S
C1646 C1654 1.574 . S
C1646 C1662 1.368 . S
H1647 C1655 0.950 . S
H1648 C1653 0.950 . S
H1649 C1654 0.949 . S
H1650 C1656 0.950 . S
H1651 C1657 0.950 . S
H1652 C1658 0.949 . S
C1653 H1648 0.950 . S
C1653 C1655 1.327 . S
C1653 C1659 1.429 . S
C1654 C1646 1.574 . S
C1654 H1649 0.949 . S
C1654 C1660 1.368 . S
C1655 C1639 1.349 . S
C1655 H1647 0.950 . S
C1655 C1653 1.327 . S
C1656 C1644 1.349 . S
C1656 H1650 0.950 . S
C1656 C1657 1.327 . S
C1657 H1651 0.950 . S
C1657 C1656 1.327 . S
C1657 C1661 1.429 . S
C1658 C1641 1.574 . S
C1658 H1652 0.949 . S
C1658 C1662 1.368 . S
C1659 C1640 1.429 . S
C1659 C1653 1.429 . S
C1659 C1660 1.523 . S
C1660 C1641 1.368 . S
C1660 C1654 1.368 . S
C1660 C1659 1.523 . S
C1661 C1645 1.429 . S
C1661 C1657 1.429 . S
C1661 C1662 1.523 . S
C1662 C1646 1.368 . S
C1662 C1658 1.368 . S
C1662 C1661 1.523 . S
H1663 C1638 0.950 . S
H1664 C1640 0.950 . S
H1665 C1641 0.949 . S
H1666 C1643 0.950 . S
H1667 C1645 0.950 . S
C1668 C1669 1.349 . S
C1668 C1670 1.327 . S
C1668 H1693 0.950 . S
C1669 C1668 1.349 . S
C1669 C1685 1.349 . S
C1670 C1668 1.327 . S
C1670 C1689 1.429 . S
C1670 H1694 0.950 . S
C1671 C1688 1.574 . S
C1671 C1690 1.368 . S
C1671 H1695 0.949 . S
H1672 C1676 0.949 . S
C1673 C1674 1.349 . S
C1673 C1675 1.327 . S
C1673 H1696 0.950 . S
C1674 C1673 1.349 . S
C1674 C1686 1.349 . S
C1675 C1673 1.327 . S
C1675 C1691 1.429 . S
C1675 H1697 0.950 . S
C1676 H1672 0.949 . S
C1676 C1684 1.574 . S
C1676 C1692 1.368 . S
H1677 C1685 0.950 . S
H1678 C1683 0.950 . S
H1679 C1684 0.949 . S
H1680 C1686 0.950 . S
H1681 C1687 0.950 . S
H1682 C1688 0.949 . S
C1683 H1678 0.950 . S
C1683 C1685 1.327 . S
C1683 C1689 1.429 . S
C1684 C1676 1.574 . S
C1684 H1679 0.949 . S
C1684 C1690 1.368 . S
C1685 C1669 1.349 . S
C1685 H1677 0.950 . S
C1685 C1683 1.327 . S
C1686 C1674 1.349 . S
C1686 H1680 0.950 . S
C1686 C1687 1.327 . S
C1687 H1681 0.950 . S
C1687 C1686 1.327 . S
C1687 C1691 1.429 . S
C1688 C1671 1.574 . S
C1688 H1682 0.949 . S
C1688 C1692 1.368 . S
C1689 C1670 1.429 . S
C1689 C1683 1.429 . S
C1689 C1690 1.523 . S
C1690 C1671 1.368 . S
C1690 C1684 1.368 . S
C1690 C1689 1.523 . S
C1691 C1675 1.429 . S
C1691 C1687 1.429 . S
C1691 C1692 1.523 . S
C1692 C1676 1.368 . S
C1692 C1688 1.368 . S
C1692 C1691 1.523 . S
H1693 C1668 0.950 . S
H1694 C1670 0.950 . S
H1695 C1671 0.949 . S
H1696 C1673 0.950 . S
H1697 C1675 0.950 . S
C1698 C1699 1.349 . S
C1698 C1700 1.327 . S
C1698 H1723 0.950 . S
C1699 C1698 1.349 . S
C1699 C1715 1.349 . S
C1700 C1698 1.327 . S
C1700 C1719 1.429 . S
C1700 H1724 0.950 . S
C1701 C1718 1.574 . S
C1701 C1720 1.368 . S
C1701 H1725 0.949 . S
H1702 C1706 0.949 . S
C1703 C1704 1.349 . S
C1703 C1705 1.327 . S
C1703 H1726 0.950 . S
C1704 C1703 1.349 . S
C1704 C1716 1.349 . S
C1705 C1703 1.327 . S
C1705 C1721 1.429 . S
C1705 H1727 0.950 . S
C1706 H1702 0.949 . S
C1706 C1714 1.574 . S
C1706 C1722 1.368 . S
H1707 C1715 0.950 . S
H1708 C1713 0.950 . S
H1709 C1714 0.949 . S
H1710 C1716 0.950 . S
H1711 C1717 0.950 . S
H1712 C1718 0.949 . S
C1713 H1708 0.950 . S
C1713 C1715 1.327 . S
C1713 C1719 1.429 . S
C1714 C1706 1.574 . S
C1714 H1709 0.949 . S
C1714 C1720 1.368 . S
C1715 C1699 1.349 . S
C1715 H1707 0.950 . S
C1715 C1713 1.327 . S
C1716 C1704 1.349 . S
C1716 H1710 0.950 . S
C1716 C1717 1.327 . S
C1717 H1711 0.950 . S
C1717 C1716 1.327 . S
C1717 C1721 1.429 . S
C1718 C1701 1.574 . S
C1718 H1712 0.949 . S
C1718 C1722 1.368 . S
C1719 C1700 1.429 . S
C1719 C1713 1.429 . S
C1719 C1720 1.523 . S
C1720 C1701 1.368 . S
C1720 C1714 1.368 . S
C1720 C1719 1.523 . S
C1721 C1705 1.429 . S
C1721 C1717 1.429 . S
C1721 C1722 1.523 . S
C1722 C1706 1.368 . S
C1722 C1718 1.368 . S
C1722 C1721 1.523 . S
H1723 C1698 0.950 . S
H1724 C1700 0.950 . S
H1725 C1701 0.949 . S
H1726 C1703 0.950 . S
H1727 C1705 0.950 . S
C529 N5 1.800 . S
C534 N236 1.800 . S
C559 N137 1.800 . S
C564 N38 1.800 . S
C589 N170 1.800 . S
C594 N71 1.800 . S
C619 N203 1.800 . S
C624 N104 1.800 . S
C649 N269 1.800 . S
C654 N500 1.800 . S
C679 N302 1.800 . S
C684 N401 1.800 . S
C709 N434 1.800 . S
C714 N335 1.800 . S
C739 N368 1.800 . S
C744 N467 1.800 . S
C769 N14 1.633 . S
C774 N344 1.633 . S
C799 N377 1.633 . S
C804 N47 1.633 . S
C829 N278 1.633 . S
C834 N80 1.633 . S
C859 N311 1.633 . S
C864 N113 1.633 . S
C889 N476 1.633 . S
C894 N146 1.633 . S
C919 N509 1.633 . S
C924 N179 1.633 . S
C949 N410 1.633 . S
C954 N212 1.633 . S
C979 N443 1.633 . S
C984 N245 1.633 . S
C1009 C17 1.293 . S
C1014 C83 1.293 . S
C1039 C116 1.293 . S
C1044 C50 1.293 . S
C1069 C215 1.292 . S
C1074 C149 1.292 . S
C1099 C248 1.292 . S
C1104 C182 1.292 . S
C1129 C281 1.293 . S
C1134 C347 1.293 . S
C1159 C380 1.293 . S
C1164 C314 1.293 . S
C1189 C413 1.292 . S
C1194 C479 1.292 . S
C1219 C446 1.292 . S
C1224 C512 1.292 . S
C1249 C470 1.620 . S
C1254 C28 1.710 . S
C1279 C61 1.710 . S
C1284 C503 1.620 . S
C1309 C404 1.620 . S
C1314 C94 1.710 . S
C1339 C437 1.620 . S
C1344 C127 1.710 . S
C1369 C338 1.620 1_655 S
C1374 C160 1.710 . S
C1399 C193 1.710 . S
C1404 C371 1.620 1_565 S
C1429 C272 1.620 1_455 S
C1434 C226 1.710 . S
C1459 C259 1.710 . S
C1464 C305 1.620 1_545 S
C1489 C206 1.620 . S
C1494 C292 1.710 . S
C1519 C239 1.620 . S
C1524 C325 1.710 . S
C1549 C140 1.620 . S
C1554 C358 1.710 . S
C1579 C391 1.710 . S
C1584 C173 1.620 . S
C1609 C74 1.620 1_455 S
C1614 C424 1.710 . S
C1639 C457 1.710 . S
C1644 C107 1.620 1_545 S
C1669 C490 1.710 . S
C1674 C8 1.620 1_655 S
C1699 C41 1.620 1_565 S
C1704 C523 1.710 . S
