# Generated by pormake.
# Topology smc, (6)-cn, num edge types: 1
# Building blocks:
#     Node 0, Type 0, BuildingBlock: PAMTOO_clean_sbu_0, # of connection points: 6
#     Node 1, Type 0, BuildingBlock: PAMTOO_clean_sbu_0, # of connection points: 6
#     Node 2, Type 0, BuildingBlock: PAMTOO_clean_sbu_0, # of connection points: 6
#     Node 3, Type 0, BuildingBlock: PAMTOO_clean_sbu_0, # of connection points: 6
#     Node 4, Type 0, BuildingBlock: PAMTOO_clean_sbu_0, # of connection points: 6
#     Node 5, Type 0, BuildingBlock: PAMTOO_clean_sbu_0, # of connection points: 6
#     Node 6, Type 0, BuildingBlock: PAMTOO_clean_sbu_0, # of connection points: 6
#     Node 7, Type 0, BuildingBlock: PAMTOO_clean_sbu_0, # of connection points: 6
#     Node 8, Type 0, BuildingBlock: PAMTOO_clean_sbu_0, # of connection points: 6
#     Edge 9, Type (0, 0), BuildingBlock: EYOCIG_clean_linker_4, # of connection points: 2
#     Edge 10, Type (0, 0), BuildingBlock: EYOCIG_clean_linker_4, # of connection points: 2
#     Edge 11, Type (0, 0), BuildingBlock: EYOCIG_clean_linker_4, # of connection points: 2
#     Edge 12, Type (0, 0), BuildingBlock: EYOCIG_clean_linker_4, # of connection points: 2
#     Edge 13, Type (0, 0), BuildingBlock: EYOCIG_clean_linker_4, # of connection points: 2
#     Edge 14, Type (0, 0), BuildingBlock: EYOCIG_clean_linker_4, # of connection points: 2
#     Edge 15, Type (0, 0), BuildingBlock: EYOCIG_clean_linker_4, # of connection points: 2
#     Edge 16, Type (0, 0), BuildingBlock: EYOCIG_clean_linker_4, # of connection points: 2
#     Edge 17, Type (0, 0), BuildingBlock: EYOCIG_clean_linker_4, # of connection points: 2
#     Edge 18, Type (0, 0), BuildingBlock: EYOCIG_clean_linker_4, # of connection points: 2
#     Edge 19, Type (0, 0), BuildingBlock: EYOCIG_clean_linker_4, # of connection points: 2
#     Edge 20, Type (0, 0), BuildingBlock: EYOCIG_clean_linker_4, # of connection points: 2
#     Edge 21, Type (0, 0), BuildingBlock: EYOCIG_clean_linker_4, # of connection points: 2
#     Edge 22, Type (0, 0), BuildingBlock: EYOCIG_clean_linker_4, # of connection points: 2
#     Edge 23, Type (0, 0), BuildingBlock: EYOCIG_clean_linker_4, # of connection points: 2
#     Edge 24, Type (0, 0), BuildingBlock: EYOCIG_clean_linker_4, # of connection points: 2
#     Edge 25, Type (0, 0), BuildingBlock: EYOCIG_clean_linker_4, # of connection points: 2
#     Edge 26, Type (0, 0), BuildingBlock: EYOCIG_clean_linker_4, # of connection points: 2
#     Edge 27, Type (0, 0), BuildingBlock: EYOCIG_clean_linker_4, # of connection points: 2
#     Edge 28, Type (0, 0), BuildingBlock: EYOCIG_clean_linker_4, # of connection points: 2
#     Edge 29, Type (0, 0), BuildingBlock: EYOCIG_clean_linker_4, # of connection points: 2
#     Edge 30, Type (0, 0), BuildingBlock: EYOCIG_clean_linker_4, # of connection points: 2
#     Edge 31, Type (0, 0), BuildingBlock: EYOCIG_clean_linker_4, # of connection points: 2
#     Edge 32, Type (0, 0), BuildingBlock: EYOCIG_clean_linker_4, # of connection points: 2
#     Edge 33, Type (0, 0), BuildingBlock: EYOCIG_clean_linker_4, # of connection points: 2
#     Edge 34, Type (0, 0), BuildingBlock: EYOCIG_clean_linker_4, # of connection points: 2
#     Edge 35, Type (0, 0), BuildingBlock: EYOCIG_clean_linker_4, # of connection points: 2
# Relax obj value: 0.378
# Max RMSD: 0.375
# Mean RMSD: 0.330
data_MOF--net-smc--node1-PAMTOO_clean_sbu_0--edge1-EYOCIG_clean_linker_4
_symmetry_space_group_name_H-M    P1
_symmetry_Int_Tables_number       1
_symmetry_cell_setting            triclinic
loop_
_symmetry_equiv_pos_as_xyz
'x, y, z'
_cell_length_a     35.990399
_cell_length_b     25.314932
_cell_length_c     30.518375
_cell_angle_alpha  90.088375
_cell_angle_beta   89.111342
_cell_angle_gamma 116.31849
loop_
_atom_site_label
_atom_site_type_symbol
_atom_site_fract_x
_atom_site_fract_y
_atom_site_fract_z
_atom_type_partial_charge
Dy0 Dy 0.07942 0.42394 0.02078 0.0
Dy1 Dy 1.04503 0.51931 0.04576 0.0
C2 C 0.09647 0.4847 0.11327 0.0
O3 O 1.01035 0.3724 0.02131 0.0
O4 O 1.0029 0.43116 0.07293 0.0
O5 O 0.09195 0.35194 0.04202 0.0
O6 O 0.11115 0.39016 0.97718 0.0
O7 O 1.01413 0.47815 0.98132 0.0
O8 O 1.05536 0.43614 0.95637 0.0
O9 O 0.10537 0.57751 1.01474 0.0
O10 O 0.13457 0.51329 0.0212 0.0
O11 O 1.02362 0.58525 0.03301 0.0
O12 O 1.01846 0.54898 0.09859 0.0
C13 C 0.9867 0.38471 0.0482 0.0
O14 O 0.08033 0.43359 0.09368 0.0
O15 O 0.09261 0.52971 0.09652 0.0
C16 C 0.16036 0.3771 0.01736 0.0
C17 C 0.24517 0.45156 0.01925 0.0
C18 C 0.2201 0.44899 0.05523 0.0
C19 C 0.17782 0.41226 0.05429 0.0
C20 C 0.18653 0.37489 0.98351 0.0
C21 C 0.22905 0.41232 0.98436 0.0
C22 C 0.1165 0.35897 1.00819 0.0
C23 C 1.02518 0.45097 0.95048 0.0
C24 C 0.13755 0.56634 1.01449 0.0
C25 C 0.95833 0.54284 0.06819 0.0
C26 C 0.87246 0.47445 0.06413 0.0
C27 C 0.89818 0.47154 0.03055 0.0
C28 C 0.94053 0.50627 0.03211 0.0
C29 C 0.93313 0.54075 0.10424 0.0
C30 C 0.89021 0.50665 0.10215 0.0
C31 C 1.00355 0.57318 0.07068 0.0
H32 H 0.23251 0.47931 0.08231 0.0
H33 H 0.15848 0.41599 0.08049 0.0
H34 H 0.17356 0.3489 0.95448 0.0
H35 H 0.24842 0.41407 0.95631 0.0
H36 H 0.88516 0.44865 1.00032 0.0
H37 H 0.95906 0.50567 1.00416 0.0
H38 H 0.94644 0.56666 0.1332 0.0
H39 H 0.87067 0.51071 0.12803 0.0
Dy40 Dy 0.67107 0.65452 0.03309 0.0
Dy41 Dy 0.59125 0.61237 0.99265 0.0
C42 C 0.67607 0.6421 0.93311 0.0
O43 O 0.65086 0.73503 0.03364 0.0
O44 O 0.59343 0.70146 0.99225 0.0
O45 O 0.72926 0.73244 0.02945 0.0
O46 O 0.7205 0.66405 0.0767 0.0
O47 O 0.5898 0.64313 0.06559 0.0
O48 O 0.63714 0.6192 0.09358 0.0
O49 O 0.58861 0.52168 0.99914 0.0
O50 O 0.6486 0.55052 0.03604 0.0
O51 O 0.52683 0.55209 1.00073 0.0
O52 O 0.54925 0.60469 0.9408 0.0
C53 C 0.62022 0.74444 1.01499 0.0
O54 O 0.68869 0.62972 0.96929 0.0
O55 O 0.63974 0.64407 0.93436 0.0
C56 C 0.78528 0.7117 0.04144 0.0
C57 C 0.84506 0.67539 0.01782 0.0
C58 C 0.81782 0.67669 0.98634 0.0
C59 C 0.7878 0.69453 0.99817 0.0
C60 C 0.817 0.71986 0.07062 0.0
C61 C 0.84779 0.70317 0.05826 0.0
C62 C 0.74699 0.71237 0.05736 0.0
C63 C 0.60972 0.63767 0.10042 0.0
C64 C 0.61404 0.5067 0.01992 0.0
C65 C 0.49038 0.60195 0.97533 0.0
C66 C 0.4313 0.63969 0.9982 0.0
C67 C 0.4645 0.6522 0.02608 0.0
C68 C 0.49401 0.63283 1.01475 0.0
C69 C 0.46078 0.59779 0.94489 0.0
C70 C 0.4314 0.6172 0.95622 0.0
C71 C 0.51743 0.57422 0.96632 0.0
H72 H 0.81545 0.65536 0.95495 0.0
H73 H 0.76448 0.68967 0.97461 0.0
H74 H 0.81579 0.73375 0.10399 0.0
H75 H 0.86878 0.70221 0.08302 0.0
H76 H 0.46459 0.66918 0.05874 0.0
H77 H 0.51771 0.63812 0.03813 0.0
H78 H 0.45863 0.57595 0.91382 0.0
H79 H 0.40576 0.60769 0.93438 0.0
Dy80 Dy 0.49412 1.04476 0.02079 0.0
Dy81 Dy 0.58169 0.10838 0.04726 0.0
C82 C 0.5019 1.05264 0.1183 0.0
O83 O 0.51115 0.14883 1.01658 0.0
O84 O 0.57064 0.18791 0.05596 0.0
O85 O 0.42992 1.00665 0.04049 0.0
O86 O 0.44611 0.99813 0.97338 0.0
O87 O 0.57413 0.14369 0.97844 0.0
O88 O 0.52238 1.06019 0.95533 0.0
O89 O 0.58521 1.02546 0.0248 0.0
O90 O 0.51646 0.96961 0.03351 0.0
O91 O 0.64454 0.129 0.03001 0.0
O92 O 0.63094 0.16022 0.09203 0.0
C93 C 0.54233 0.19649 0.03516 0.0
O94 O 0.48492 0.06881 0.08774 0.0
O95 O 0.53922 1.05542 0.10835 0.0
C96 C 0.38603 0.91947 1.00421 0.0
C97 C 0.31946 0.80636 1.01017 0.0
C98 C 0.34755 0.82773 0.04456 0.0
C99 C 0.38085 0.88405 0.04157 0.0
C100 C 0.35891 0.89651 0.96915 0.0
C101 C 0.32583 0.84025 0.97211 0.0
C102 C 0.41662 0.98195 1.00291 0.0
C103 C 0.5484 0.11381 0.9468 0.0
C104 C 0.55461 0.97258 0.028 0.0
C105 C 0.69821 0.21602 0.05862 0.0
C106 C 0.78256 0.29112 0.04481 0.0
C107 C 0.7552 0.27764 1.00973 0.0
C108 C 0.71298 0.24001 1.01658 0.0
C109 C 0.7249 0.23652 0.09423 0.0
C110 C 0.76687 0.27391 0.08736 0.0
C111 C 0.65959 0.16105 0.06476 0.0
H112 H 0.34302 0.80185 0.07417 0.0
H113 H 0.40155 0.90058 0.06903 0.0
H114 H 0.36241 0.92297 0.9401 0.0
H115 H 0.30436 0.82405 0.94526 0.0
H116 H 0.7669 0.29151 0.97667 0.0
H117 H 0.69286 0.22568 0.98853 0.0
H118 H 0.7142 0.21904 0.12685 0.0
H119 H 0.78765 0.28472 0.11483 0.0
Dy120 Dy 0.76751 0.77922 0.35302 0.0
Dy121 Dy 0.70488 0.84816 0.3823 0.0
C122 C 0.76359 0.81904 0.44958 0.0
O123 O 0.69714 0.7069 0.35866 0.0
O124 O 0.67199 0.75619 0.40519 0.0
O125 O 0.83063 0.81546 0.37628 0.0
O126 O 0.81254 0.7458 0.32796 0.0
O127 O 0.68905 0.80828 0.31253 0.0
O128 O 0.73292 0.76611 0.29034 0.0
O129 O 0.76943 0.91796 0.37808 0.0
O130 O 0.78064 0.86624 0.32447 0.0
O131 O 0.68133 0.91016 0.36337 0.0
O132 O 0.66026 0.86141 0.42452 0.0
C133 C 0.66507 0.71143 0.37971 0.0
O134 O 0.75469 0.77257 0.4251 0.0
O135 O 0.75037 0.85857 0.4382 0.0
C136 C 0.89134 0.8046 0.34606 0.0
C137 C 0.98287 0.84188 0.34037 0.0
C138 C 0.96378 0.85806 0.37556 0.0
C139 C 0.91985 0.84029 0.37821 0.0
C140 C 0.91034 0.78812 0.31081 0.0
C141 C 0.95457 0.80648 0.30793 0.0
C142 C 0.84306 0.78303 0.3525 0.0
C143 C 0.70147 0.77914 0.28361 0.0
C144 C 0.79405 0.91292 0.34868 0.0
C145 C 0.61492 0.89809 0.39226 0.0
C146 C 0.54025 0.91047 0.38195 0.0
C147 C 0.55536 0.88692 0.34805 0.0
C148 C 0.59237 0.88095 0.35307 0.0
C149 C 0.59886 0.91988 0.42634 0.0
C150 C 0.56213 0.92595 0.42129 0.0
C151 C 0.65671 0.89913 0.39769 0.0
H152 H 0.98296 0.88467 0.40176 0.0
H153 H 0.908 0.8541 0.40657 0.0
H154 H 0.89095 0.76066 0.28509 0.0
H155 H 0.96662 0.79228 0.27997 0.0
H156 H 0.53906 0.87429 0.31735 0.0
H157 H 0.60375 0.86411 0.32605 0.0
H158 H 0.61545 0.93387 0.45678 0.0
H159 H 0.5513 0.94406 0.44799 0.0
Dy160 Dy 0.30488 1.00855 0.3263 0.0
Dy161 Dy 0.27225 0.8787 0.3497 0.0
C162 C 0.29136 0.97643 0.4284 0.0
O163 O 0.36249 0.99511 0.34372 0.0
O164 O 0.3345 0.90476 0.37652 0.0
O165 O 0.35864 0.09166 0.32588 0.0
O166 O 0.30306 0.0828 0.29338 0.0
O167 O 0.3219 0.89964 0.29301 0.0
O168 O 0.31559 0.97506 0.26185 0.0
O169 O 0.20983 0.8787 0.33588 0.0
O170 O 0.23245 0.97789 0.33132 0.0
O171 O 0.24882 0.79126 0.32275 0.0
O172 O 0.25307 0.80414 0.39355 0.0
C173 C 0.36685 0.95276 0.3651 0.0
O174 O 0.30226 1.01758 0.39849 0.0
O175 O 0.2768 0.92011 0.41762 0.0
C176 C 0.34481 0.17159 0.3275 0.0
C177 C 0.33517 0.26533 0.36178 0.0
C178 C 0.32654 0.21623 0.38835 0.0
C179 C 0.33004 0.16827 0.3706 0.0
C180 C 0.36146 0.22509 0.30462 0.0
C181 C 0.35769 0.27311 0.32254 0.0
C182 C 0.34043 0.1186 0.30578 0.0
C183 C 0.33345 0.94014 0.2615 0.0
C184 C 0.20076 0.92365 0.33347 0.0
C185 C 0.28458 0.74971 0.36296 0.0
C186 C 0.33382 0.6926 0.35599 0.0
C187 C 0.34491 0.74376 0.33119 0.0
C188 C 0.31726 0.76886 0.33156 0.0
C189 C 0.28573 0.71512 0.39833 0.0
C190 C 0.31397 0.6908 0.3965 0.0
C191 C 0.25277 0.77074 0.3609 0.0
H192 H 0.30949 0.21022 0.41905 0.0
H193 H 0.31785 0.12734 0.38895 0.0
H194 H 0.37387 0.22812 0.27164 0.0
H195 H 0.36479 0.31132 0.3019 0.0
H196 H 0.36633 0.75317 0.30367 0.0
H197 H 0.32 0.79982 0.30594 0.0
H198 H 0.26384 0.70455 0.42552 0.0
H199 H 0.31135 0.65841 0.42104 0.0
Dy200 Dy 0.12529 0.37474 0.35974 0.0
Dy201 Dy 0.23235 0.45645 0.38344 0.0
C202 C 0.15633 0.38743 0.45392 0.0
O203 O 0.13911 0.47047 0.35998 0.0
O204 O 0.19308 0.49899 0.40557 0.0
O205 O 1.06296 0.33491 0.38622 0.0
O206 O 0.07447 0.33156 0.31606 0.0
O207 O 0.21792 0.47312 0.31336 0.0
O208 O 0.15822 0.39073 0.29644 0.0
O209 O 0.21943 0.36417 0.37143 0.0
O210 O 0.15008 0.30978 0.35114 0.0
O211 O 0.29103 0.52368 0.3585 0.0
O212 O 0.29079 0.48334 0.42084 0.0
C213 C 0.17192 0.51278 0.37724 0.0
O214 O 0.14216 0.34948 0.42263 0.0
O215 O 0.19174 0.43623 0.44729 0.0
C216 C 1.02584 0.24514 0.34891 0.0
C217 C 0.97967 0.12309 0.34948 0.0
C218 C 1.00721 0.15019 0.3834 0.0
C219 C 1.03045 0.21131 0.3831 0.0
C220 C 1.00111 0.21689 0.31312 0.0
C221 C 0.97803 0.15598 0.31344 0.0
C222 C 1.04829 0.30951 0.34873 0.0
C223 C 0.1883 0.4416 0.28574 0.0
C224 C 0.18743 0.31584 0.3589 0.0
C225 C 0.36106 0.5498 0.38664 0.0
C226 C 0.45162 0.60122 0.37919 0.0
C227 C 0.42683 0.59914 0.34301 0.0
C228 C 0.38263 0.57415 0.34664 0.0
C229 C 0.38626 0.55568 0.42322 0.0
C230 C 0.43032 0.58057 0.41958 0.0
C231 C 0.31333 0.52286 0.39146 0.0
H232 H 1.00853 0.12489 0.41145 0.0
H233 H 1.05073 0.23208 0.41026 0.0
H234 H 0.99852 0.24214 0.2857 0.0
H235 H 0.95687 0.13505 0.28693 0.0
H236 H 0.44154 0.61582 0.31144 0.0
H237 H 0.36532 0.57335 0.31773 0.0
H238 H 0.37177 0.54021 0.45502 0.0
H239 H 0.44779 0.5825 0.44861 0.0
Dy240 Dy 0.41697 0.08678 0.69254 0.0
Dy241 Dy 0.3834 0.18152 0.71542 0.0
C242 C 0.438 0.1504 0.78442 0.0
O243 O 0.34732 1.0362 0.69292 0.0
O244 O 0.3404 0.09517 0.74438 0.0
O245 O 0.4289 1.01381 0.71261 0.0
O246 O 0.44647 1.05134 0.64744 0.0
O247 O 0.35201 0.13575 0.65153 0.0
O248 O 0.40038 0.10733 0.62696 0.0
O249 O 0.44307 0.2386 0.68265 0.0
O250 O 0.47282 0.176 0.69327 0.0
O251 O 0.36281 0.24723 0.69867 0.0
O252 O 0.35588 0.21416 0.76544 0.0
C253 C 0.32369 1.04863 0.71988 0.0
O254 O 0.42233 0.09887 0.76535 0.0
O255 O 0.43156 0.19372 0.76763 0.0
C256 C 0.49693 1.0402 0.68634 0.0
C257 C 0.58076 0.11967 0.68597 0.0
C258 C 0.55619 0.11514 0.72283 0.0
C259 C 0.51441 0.07585 0.72304 0.0
C260 C 0.52291 1.04009 0.65152 0.0
C261 C 0.56496 0.08003 0.65126 0.0
C262 C 0.45279 1.0208 0.67821 0.0
C263 C 0.36695 0.11388 0.62024 0.0
C264 C 0.47564 0.22853 0.68423 0.0
C265 C 0.29681 0.20872 0.73233 0.0
C266 C 0.21072 0.14307 0.7271 0.0
C267 C 0.23642 0.13924 0.69389 0.0
C268 C 0.27895 0.17243 0.69609 0.0
C269 C 0.27137 0.20824 0.7677 0.0
C270 C 0.22837 0.17561 0.76501 0.0
C271 C 0.34204 0.2376 0.73578 0.0
H272 H 0.56833 0.14584 0.74973 0.0
H273 H 0.4952 0.07818 0.74992 0.0
H274 H 0.50986 1.01393 0.62258 0.0
H275 H 0.58397 0.08337 0.62252 0.0
H276 H 0.22341 0.11625 0.66368 0.0
H277 H 0.29764 0.17068 0.66861 0.0
H278 H 0.28463 0.23419 0.79666 0.0
H279 H 0.20883 0.18064 0.79044 0.0
Dy280 Dy 1.00051 0.32256 0.70389 0.0
Dy281 Dy 0.91599 0.27366 0.66457 0.0
C282 C 0.99945 0.30842 0.60162 0.0
O283 O 0.98002 0.40147 0.70564 0.0
O284 O 0.9254 0.36731 0.65961 0.0
O285 O 1.05945 0.39903 0.71047 0.0
O286 O 1.04779 0.31881 0.74493 0.0
O287 O 0.91541 0.31 0.73484 0.0
O288 O 0.96279 0.28616 0.76266 0.0
O289 O 0.91173 0.18634 0.68554 0.0
O290 O 0.98115 0.21978 0.69265 0.0
O291 O 0.85117 0.21525 0.67241 0.0
O292 O 0.87496 0.26575 0.61182 0.0
C293 C 0.95088 0.41048 0.68373 0.0
O294 O 1.02091 0.33274 0.63558 0.0
O295 O 0.95851 0.27872 0.60494 0.0
C296 C 0.11371 0.37228 0.71368 0.0
C297 C 0.17417 0.33948 0.6857 0.0
C298 C 0.14426 0.33727 0.65639 0.0
C299 C 0.11362 0.35259 0.67064 0.0
C300 C 0.14809 0.38466 0.74003 0.0
C301 C 0.17915 0.36959 0.72544 0.0
C302 C 0.07562 0.37078 0.7326 0.0
C303 C 0.93566 0.30539 0.76937 0.0
C304 C 0.94293 0.17404 0.69052 0.0
C305 C 0.81744 0.26757 0.64496 0.0
C306 C 0.76251 0.31375 0.66475 0.0
C307 C 0.79497 0.32422 0.69326 0.0
C308 C 0.82238 0.30062 0.68346 0.0
C309 C 0.78919 0.26556 0.61359 0.0
C310 C 0.76197 0.28935 0.62333 0.0
C311 C 0.84277 0.23714 0.63726 0.0
H312 H 0.1402 0.31414 0.62553 0.0
H313 H 0.08797 0.34318 0.64941 0.0
H314 H 0.1489 0.40042 0.77319 0.0
H315 H 0.20237 0.37153 0.74845 0.0
H316 H 0.7956 0.34267 0.72549 0.0
H317 H 0.84538 0.30457 0.70733 0.0
H318 H 0.78639 0.24235 0.58303 0.0
H319 H 0.73697 0.28146 0.60095 0.0
Dy320 Dy 0.82709 0.7108 0.68101 0.0
Dy321 Dy 0.91462 0.78169 0.7096 0.0
C322 C 0.83476 0.71647 0.77928 0.0
O323 O 0.84255 0.81567 0.68545 0.0
O324 O 0.90735 0.86271 0.71487 0.0
O325 O 0.76259 0.68643 0.69599 0.0
O326 O 0.78001 0.65964 0.6347 0.0
O327 O 0.90438 0.81367 0.64034 0.0
O328 O 0.85704 0.72732 0.61652 0.0
O329 O 0.91446 0.69115 0.70865 0.0
O330 O 0.85136 0.63781 0.67911 0.0
O331 O 0.97673 0.80695 0.68651 0.0
O332 O 0.96589 0.82843 0.75348 0.0
C333 C 0.87506 0.86626 0.69967 0.0
O334 O 0.82144 0.6776 0.74859 0.0
O335 O 0.87009 0.76471 0.77113 0.0
C336 C 0.71681 0.59297 0.66729 0.0
C337 C 0.65195 0.47847 0.67715 0.0
C338 C 0.68037 0.50358 0.71099 0.0
C339 C 0.7128 0.5606 0.70605 0.0
C340 C 0.68902 0.56676 0.63321 0.0
C341 C 0.65682 0.50998 0.63812 0.0
C342 C 0.74969 0.65366 0.66118 0.0
C343 C 0.87962 0.78235 0.6085 0.0
C344 C 0.88741 0.64068 0.69273 0.0
C345 C 1.03322 0.8868 0.72023 0.0
C346 C 0.11895 0.95868 0.7117 0.0
C347 C 0.09344 0.94917 0.67531 0.0
C348 C 1.05062 0.91324 0.67953 0.0
C349 C 1.05828 0.90303 0.75733 0.0
C350 C 0.10088 0.93877 0.75308 0.0
C351 C 0.99329 0.83302 0.72313 0.0
H352 H 0.67714 0.47959 0.74131 0.0
H353 H 0.73435 0.57953 0.73255 0.0
H354 H 0.69195 0.59057 0.60287 0.0
H355 H 0.63528 0.49102 0.6116 0.0
H356 H 0.10688 0.96509 0.64313 0.0
H357 H 1.03194 0.90218 0.65036 0.0
H358 H 1.04567 0.88352 0.78901 0.0
H359 H 0.12013 0.94644 0.78161 0.0
C360 C 0.35514 0.5946 0.02053 0.0
C361 C 0.39168 0.6244 0.01741 0.0
C362 C 0.31687 0.54495 0.01821 0.0
C363 C 0.28486 0.50112 1.01593 0.0
C364 C 0.57954 0.88136 0.0255 0.0
C365 C 0.56543 0.91958 0.02697 0.0
C366 C 0.59754 0.83698 0.02382 0.0
C367 C 0.61094 0.79804 0.02212 0.0
C368 C 0.2506 0.70682 1.01464 0.0
C369 C 0.28247 0.75167 1.01449 0.0
C370 C 0.21178 0.65683 1.01356 0.0
C371 C 0.17799 0.61531 1.014 0.0
C372 C 0.56609 0.31729 0.02741 0.0
C373 C 0.55169 0.26151 0.02857 0.0
C374 C 0.58569 0.38414 0.0263 0.0
C375 C 0.6011 0.44007 0.02509 0.0
C376 C 0.86327 0.32757 0.03636 0.0
C377 C 0.82634 0.31156 0.03716 0.0
C378 C 0.90596 0.34272 0.03874 0.0
C379 C 0.94286 0.35956 0.04135 0.0
C380 C 0.82896 0.51292 0.03034 0.0
C381 C 0.83642 0.47731 0.04882 0.0
C382 C 0.84081 0.5713 0.018 0.0
C383 C 0.84954 0.62262 0.01929 0.0
C384 C 1.0692 0.8773 0.33661 0.0
C385 C 1.03026 0.86112 0.33801 0.0
C386 C 0.11572 0.89645 0.33511 0.0
C387 C 0.15451 0.91128 0.33424 0.0
C388 C 0.22457 0.25585 0.35698 0.0
C389 C 0.19615 0.26738 0.35437 0.0
C390 C 0.26637 0.27077 0.36083 0.0
C391 C 0.30169 0.27968 0.35928 0.0
C392 C 0.91545 1.02073 0.35422 0.0
C393 C 0.94656 0.06579 0.35585 0.0
C394 C 0.87397 0.9794 0.35204 0.0
C395 C 0.8374 0.9491 0.3506 0.0
C396 C 0.27201 0.61339 0.32102 0.0
C397 C 0.30759 0.64382 0.32973 0.0
C398 C 0.22921 0.58842 0.32924 0.0
C399 C 0.19681 0.55716 0.34668 0.0
C400 C 0.53603 0.6371 0.37279 0.0
C401 C 0.49783 0.62108 0.3749 0.0
C402 C 0.58124 0.65496 0.37122 0.0
C403 C 0.61979 0.67441 0.37131 0.0
C404 C 0.43824 0.94411 0.37136 0.0
C405 C 0.40712 0.95163 0.36745 0.0
C406 C 0.47344 0.93137 0.37403 0.0
C407 C 0.50362 0.92125 0.37644 0.0
C408 C 0.68675 0.26883 0.68647 0.0
C409 C 0.72308 0.30017 0.68366 0.0
C410 C 0.64981 0.2171 0.68386 0.0
C411 C 0.6191 0.17142 0.68175 0.0
C412 C 0.92931 0.50422 0.68944 0.0
C413 C 0.94162 0.46422 0.689 0.0
C414 C 0.91268 0.54997 0.68977 0.0
C415 C 0.89938 0.58898 0.6902 0.0
C416 C 0.58609 0.37483 0.68305 0.0
C417 C 0.61665 0.42164 0.6824 0.0
C418 C 0.54869 0.32206 0.68245 0.0
C419 C 0.51579 0.27856 0.68339 0.0
C420 C 0.89601 0.98554 0.69348 0.0
C421 C 0.88134 0.92984 0.6941 0.0
C422 C 0.91646 1.05223 0.69296 0.0
C423 C 0.93227 0.10809 0.69231 0.0
C424 C 0.2001 0.99444 0.70657 0.0
C425 C 0.16312 0.97883 0.70627 0.0
C426 C 0.24284 1.00899 0.70956 0.0
C427 C 0.27972 1.02478 0.71258 0.0
C428 C 0.1654 0.17977 0.69451 0.0
C429 C 0.17437 0.14486 0.71171 0.0
C430 C 0.17449 0.2378 0.68397 0.0
C431 C 0.17972 0.28757 0.68721 0.0
C432 C 0.16644 0.48186 0.21581 0.0
C433 C 0.18077 0.46932 0.24768 0.0
C434 C 0.14356 0.49013 0.18094 0.0
C435 C 0.1227 0.49176 0.15054 0.0
C436 C 0.6555 0.73136 0.21187 0.0
C437 C 0.67582 0.75363 0.24473 0.0
C438 C 0.63216 0.70093 0.17372 0.0
C439 C 0.61702 0.67429 0.1398 0.0
C440 C 0.44349 1.00024 0.18309 0.0
C441 C 0.47383 1.02231 0.15699 0.0
C442 C 0.40498 0.97523 0.21076 0.0
C443 C 0.37285 0.9573 0.2344 0.0
C444 C 0.51691 0.15332 0.88255 0.0
C445 C 0.53551 0.14245 0.91206 0.0
C446 C 0.4902 0.15927 0.84963 0.0
C447 C 0.46703 0.15971 0.82054 0.0
C448 C 0.97931 0.40346 0.87932 0.0
C449 C 0.99887 0.42642 0.91226 0.0
C450 C 0.95733 0.37134 0.84133 0.0
C451 C 0.94319 0.34325 0.80784 0.0
C452 C 0.77417 0.69545 0.84133 0.0
C453 C 0.80429 0.71003 0.81548 0.0
C454 C 0.7367 0.67668 0.86959 0.0
C455 C 0.70655 0.66183 0.89543 0.0
C456 C 0.81543 0.82598 0.51515 0.0
C457 C 0.79186 0.82746 0.48667 0.0
C458 C 0.84303 0.8195 0.54708 0.0
C459 C 0.86295 0.80886 0.57547 0.0
C460 C 0.31048 1.0227 0.50899 0.0
C461 C 0.30021 0.99652 0.474 0.0
C462 C 0.32669 1.05719 0.54817 0.0
C463 C 0.34255 0.08435 0.58162 0.0
C464 C 1.05533 0.3349 0.53698 0.0
C465 C 1.02455 0.31748 0.56133 0.0
C466 C 0.0945 0.35956 0.5127 0.0
C467 C 0.12613 0.37893 0.48957 0.0
loop_
_geom_bond_atom_site_label_1
_geom_bond_atom_site_label_2
_geom_bond_distance
_geom_bond_site_symmetry_2
_ccdc_geom_bond_type
Dy0 O3 2.307 1_455 S
Dy0 O5 2.395 . S
Dy0 O6 2.379 1_554 S
Dy0 O8 2.339 1_554 S
Dy0 O10 2.298 1_554 S
Dy0 O14 2.275 . S
Dy0 C22 2.738 . S
Dy1 O4 2.298 . S
Dy1 O7 2.275 1_554 S
Dy1 O9 2.307 1_655 S
Dy1 O11 2.395 1_554 S
Dy1 O12 2.379 . S
Dy1 O15 2.337 1_655 S
Dy1 C31 2.738 . S
C2 O14 1.254 . S
C2 O15 1.260 . S
O3 Dy0 2.307 1_655 S
O3 C13 1.266 . S
O4 Dy1 2.298 . S
O4 C13 1.236 . S
O5 Dy0 2.395 . S
O5 C22 1.263 . S
O6 Dy0 2.379 1_556 S
O6 C22 1.242 1_556 S
O7 Dy1 2.275 1_556 S
O7 C23 1.254 . S
O8 Dy0 2.339 1_556 S
O8 C23 1.257 1_455 S
O9 Dy1 2.307 1_455 S
O9 C24 1.266 . S
O10 Dy0 2.298 1_556 S
O10 C24 1.236 1_556 S
O11 Dy1 2.395 1_556 S
O11 C31 1.255 1_556 S
O12 Dy1 2.379 . S
O12 C31 1.249 . S
C13 O3 1.266 . S
C13 O4 1.236 . S
O14 Dy0 2.275 . S
O14 C2 1.254 . S
O15 Dy1 2.337 1_455 S
O15 C2 1.260 . S
C16 C19 1.344 . S
C16 C20 1.327 1_554 S
C16 C22 1.515 . S
C17 C18 1.304 . S
C17 C21 1.323 1_554 S
C18 C17 1.304 . S
C18 C19 1.371 . S
C18 H32 0.930 . S
C19 C16 1.344 . S
C19 C18 1.371 . S
C19 H33 0.931 . S
C20 C16 1.327 1_556 S
C20 C21 1.433 . S
C20 H34 0.931 . S
C21 C17 1.323 1_556 S
C21 C20 1.433 . S
C21 H35 0.933 . S
C22 Dy0 2.738 . S
C22 O5 1.263 . S
C22 O6 1.242 1_554 S
C22 C16 1.515 . S
C23 O7 1.254 . S
C23 O8 1.257 1_655 S
C24 O9 1.266 . S
C24 O10 1.236 1_554 S
C25 C28 1.344 1_554 S
C25 C29 1.328 . S
C25 C31 1.516 . S
C26 C27 1.304 1_554 S
C26 C30 1.323 . S
C27 C26 1.304 1_556 S
C27 C28 1.371 . S
C27 H36 0.930 . S
C28 C25 1.344 1_556 S
C28 C27 1.371 . S
C28 H37 0.931 . S
C29 C25 1.328 . S
C29 C30 1.433 . S
C29 H38 0.931 . S
C30 C26 1.323 . S
C30 C29 1.433 . S
C30 H39 0.933 . S
C31 Dy1 2.738 . S
C31 O11 1.255 1_554 S
C31 O12 1.249 . S
C31 C25 1.516 . S
H32 C18 0.930 . S
H33 C19 0.931 . S
H34 C20 0.931 . S
H35 C21 0.933 . S
H36 C27 0.930 . S
H37 C28 0.931 . S
H38 C29 0.931 . S
H39 C30 0.933 . S
Dy40 O43 2.307 . S
Dy40 O45 2.395 1_554 S
Dy40 O46 2.379 . S
Dy40 O48 2.339 . S
Dy40 O50 2.298 . S
Dy40 O54 2.275 1_554 S
Dy40 C62 2.738 . S
Dy41 O44 2.298 . S
Dy41 O47 2.275 1_556 S
Dy41 O49 2.307 . S
Dy41 O51 2.395 1_556 S
Dy41 O52 2.379 . S
Dy41 O55 2.339 . S
Dy41 C71 2.738 . S
C42 O54 1.254 . S
C42 O55 1.257 . S
O43 Dy40 2.307 . S
O43 C53 1.266 1_554 S
O44 Dy41 2.298 . S
O44 C53 1.236 . S
O45 Dy40 2.395 1_556 S
O45 C62 1.255 1_556 S
O46 Dy40 2.379 . S
O46 C62 1.249 . S
O47 Dy41 2.275 1_554 S
O47 C63 1.254 . S
O48 Dy40 2.339 . S
O48 C63 1.257 . S
O49 Dy41 2.307 . S
O49 C64 1.266 1_556 S
O50 Dy40 2.298 . S
O50 C64 1.236 . S
O51 Dy41 2.395 1_554 S
O51 C71 1.255 1_554 S
O52 Dy41 2.379 . S
O52 C71 1.249 . S
C53 O43 1.266 1_556 S
C53 O44 1.236 . S
O54 Dy40 2.275 1_556 S
O54 C42 1.254 . S
O55 Dy41 2.339 . S
O55 C42 1.257 . S
C56 C59 1.344 1_554 S
C56 C60 1.328 . S
C56 C62 1.516 . S
C57 C58 1.304 1_554 S
C57 C61 1.323 . S
C58 C57 1.304 1_556 S
C58 C59 1.371 . S
C58 H72 0.930 . S
C59 C56 1.344 1_556 S
C59 C58 1.371 . S
C59 H73 0.931 . S
C60 C56 1.328 . S
C60 C61 1.433 . S
C60 H74 0.931 . S
C61 C57 1.323 . S
C61 C60 1.433 . S
C61 H75 0.933 . S
C62 Dy40 2.738 . S
C62 O45 1.255 1_554 S
C62 O46 1.249 . S
C62 C56 1.516 . S
C63 O47 1.254 . S
C63 O48 1.257 . S
C64 O49 1.266 1_554 S
C64 O50 1.236 . S
C65 C68 1.344 1_556 S
C65 C69 1.328 . S
C65 C71 1.516 . S
C66 C67 1.304 1_556 S
C66 C70 1.323 . S
C67 C66 1.304 1_554 S
C67 C68 1.371 . S
C67 H76 0.930 . S
C68 C65 1.344 1_554 S
C68 C67 1.371 . S
C68 H77 0.931 . S
C69 C65 1.328 . S
C69 C70 1.433 . S
C69 H78 0.931 . S
C70 C66 1.323 . S
C70 C69 1.433 . S
C70 H79 0.933 . S
C71 Dy41 2.738 . S
C71 O51 1.255 1_556 S
C71 O52 1.249 . S
C71 C65 1.516 . S
H72 C58 0.930 . S
H73 C59 0.931 . S
H74 C60 0.931 . S
H75 C61 0.933 . S
H76 C67 0.930 . S
H77 C68 0.931 . S
H78 C69 0.931 . S
H79 C70 0.933 . S
Dy80 O83 2.307 1_566 S
Dy80 O85 2.392 1_556 S
Dy80 O86 2.381 . S
Dy80 O88 2.344 . S
Dy80 O90 2.298 . S
Dy80 O94 2.271 1_556 S
Dy80 C102 2.739 . S
Dy81 O84 2.298 . S
Dy81 O87 2.275 1_554 S
Dy81 O89 2.307 1_545 S
Dy81 O91 2.395 1_554 S
Dy81 O92 2.379 . S
Dy81 O95 2.339 . S
Dy81 C111 2.738 . S
C82 O94 1.254 . S
C82 O95 1.257 1_565 S
O83 Dy80 2.307 1_544 S
O83 C93 1.266 . S
O84 Dy81 2.298 . S
O84 C93 1.236 . S
O85 Dy80 2.392 1_554 S
O85 C102 1.232 1_554 S
O86 Dy80 2.381 . S
O86 C102 1.274 . S
O87 Dy81 2.275 1_556 S
O87 C103 1.254 . S
O88 Dy80 2.344 . S
O88 C103 1.257 1_565 S
O89 Dy81 2.307 1_565 S
O89 C104 1.266 . S
O90 Dy80 2.298 . S
O90 C104 1.236 1_556 S
O91 Dy81 2.395 1_556 S
O91 C111 1.255 1_556 S
O92 Dy81 2.379 . S
O92 C111 1.249 . S
C93 O83 1.266 . S
C93 O84 1.236 . S
O94 Dy80 2.271 1_554 S
O94 C82 1.254 . S
O95 Dy81 2.339 . S
O95 C82 1.257 1_545 S
C96 C99 1.325 1_556 S
C96 C100 1.345 . S
C96 C102 1.515 . S
C97 C98 1.304 . S
C97 C101 1.323 1_554 S
C98 C97 1.304 . S
C98 C99 1.371 . S
C98 H112 0.930 . S
C99 C96 1.325 1_554 S
C99 C98 1.371 . S
C99 H113 0.931 . S
C100 C96 1.345 . S
C100 C101 1.433 . S
C100 H114 0.931 . S
C101 C97 1.323 1_556 S
C101 C100 1.433 . S
C101 H115 0.933 . S
C102 Dy80 2.739 . S
C102 O85 1.232 1_556 S
C102 O86 1.274 . S
C102 C96 1.515 . S
C103 O87 1.254 . S
C103 O88 1.257 1_545 S
C104 O89 1.266 . S
C104 O90 1.236 1_554 S
C105 C108 1.344 1_554 S
C105 C109 1.328 . S
C105 C111 1.516 . S
C106 C107 1.304 1_554 S
C106 C110 1.323 . S
C107 C106 1.304 1_556 S
C107 C108 1.371 . S
C107 H116 0.930 . S
C108 C105 1.344 1_556 S
C108 C107 1.371 . S
C108 H117 0.931 . S
C109 C105 1.328 . S
C109 C110 1.433 . S
C109 H118 0.931 . S
C110 C106 1.323 . S
C110 C109 1.433 . S
C110 H119 0.933 . S
C111 Dy81 2.738 . S
C111 O91 1.255 1_554 S
C111 O92 1.249 . S
C111 C105 1.516 . S
H112 C98 0.930 . S
H113 C99 0.931 . S
H114 C100 0.931 . S
H115 C101 0.933 . S
H116 C107 0.930 . S
H117 C108 0.931 . S
H118 C109 0.931 . S
H119 C110 0.933 . S
Dy120 O123 2.307 . S
Dy120 O125 2.395 . S
Dy120 O126 2.379 . S
Dy120 O128 2.339 . S
Dy120 O130 2.298 . S
Dy120 O134 2.275 . S
Dy120 C142 2.738 . S
Dy121 O124 2.298 . S
Dy121 O127 2.275 . S
Dy121 O129 2.307 . S
Dy121 O131 2.395 . S
Dy121 O132 2.379 . S
Dy121 O135 2.339 . S
Dy121 C151 2.738 . S
C122 O134 1.254 . S
C122 O135 1.257 . S
O123 Dy120 2.307 . S
O123 C133 1.266 . S
O124 Dy121 2.298 . S
O124 C133 1.236 . S
O125 Dy120 2.395 . S
O125 C142 1.255 . S
O126 Dy120 2.379 . S
O126 C142 1.249 . S
O127 Dy121 2.275 . S
O127 C143 1.254 . S
O128 Dy120 2.339 . S
O128 C143 1.257 . S
O129 Dy121 2.307 . S
O129 C144 1.266 . S
O130 Dy120 2.298 . S
O130 C144 1.236 . S
O131 Dy121 2.395 . S
O131 C151 1.255 . S
O132 Dy121 2.379 . S
O132 C151 1.249 . S
C133 O123 1.266 . S
C133 O124 1.236 . S
O134 Dy120 2.275 . S
O134 C122 1.254 . S
O135 Dy121 2.339 . S
O135 C122 1.257 . S
C136 C139 1.344 . S
C136 C140 1.328 . S
C136 C142 1.516 . S
C137 C138 1.304 . S
C137 C141 1.323 . S
C138 C137 1.304 . S
C138 C139 1.371 . S
C138 H152 0.930 . S
C139 C136 1.344 . S
C139 C138 1.371 . S
C139 H153 0.931 . S
C140 C136 1.328 . S
C140 C141 1.433 . S
C140 H154 0.931 . S
C141 C137 1.323 . S
C141 C140 1.433 . S
C141 H155 0.933 . S
C142 Dy120 2.738 . S
C142 O125 1.255 . S
C142 O126 1.249 . S
C142 C136 1.516 . S
C143 O127 1.254 . S
C143 O128 1.257 . S
C144 O129 1.266 . S
C144 O130 1.236 . S
C145 C148 1.344 . S
C145 C149 1.328 . S
C145 C151 1.516 . S
C146 C147 1.304 . S
C146 C150 1.323 . S
C147 C146 1.304 . S
C147 C148 1.371 . S
C147 H156 0.930 . S
C148 C145 1.344 . S
C148 C147 1.371 . S
C148 H157 0.931 . S
C149 C145 1.328 . S
C149 C150 1.433 . S
C149 H158 0.931 . S
C150 C146 1.323 . S
C150 C149 1.433 . S
C150 H159 0.933 . S
C151 Dy121 2.738 . S
C151 O131 1.255 . S
C151 O132 1.249 . S
C151 C145 1.516 . S
H152 C138 0.930 . S
H153 C139 0.931 . S
H154 C140 0.931 . S
H155 C141 0.933 . S
H156 C147 0.930 . S
H157 C148 0.931 . S
H158 C149 0.931 . S
H159 C150 0.933 . S
Dy160 O163 2.307 . S
Dy160 O165 2.395 1_565 S
Dy160 O166 2.379 1_565 S
Dy160 O168 2.339 . S
Dy160 O170 2.298 . S
Dy160 O174 2.275 . S
Dy160 C182 2.738 1_565 S
Dy161 O164 2.298 . S
Dy161 O167 2.275 . S
Dy161 O169 2.307 . S
Dy161 O171 2.395 . S
Dy161 O172 2.379 . S
Dy161 O175 2.339 . S
Dy161 C191 2.738 . S
C162 O174 1.254 . S
C162 O175 1.257 . S
O163 Dy160 2.307 . S
O163 C173 1.266 . S
O164 Dy161 2.298 . S
O164 C173 1.236 . S
O165 Dy160 2.395 1_545 S
O165 C182 1.255 . S
O166 Dy160 2.379 1_545 S
O166 C182 1.249 . S
O167 Dy161 2.275 . S
O167 C183 1.254 . S
O168 Dy160 2.339 . S
O168 C183 1.257 . S
O169 Dy161 2.307 . S
O169 C184 1.266 . S
O170 Dy160 2.298 . S
O170 C184 1.236 . S
O171 Dy161 2.395 . S
O171 C191 1.255 . S
O172 Dy161 2.379 . S
O172 C191 1.249 . S
C173 O163 1.266 . S
C173 O164 1.236 . S
O174 Dy160 2.275 . S
O174 C162 1.254 . S
O175 Dy161 2.339 . S
O175 C162 1.257 . S
C176 C179 1.344 . S
C176 C180 1.328 . S
C176 C182 1.516 . S
C177 C178 1.304 . S
C177 C181 1.323 . S
C178 C177 1.304 . S
C178 C179 1.371 . S
C178 H192 0.930 . S
C179 C176 1.344 . S
C179 C178 1.371 . S
C179 H193 0.931 . S
C180 C176 1.328 . S
C180 C181 1.433 . S
C180 H194 0.931 . S
C181 C177 1.323 . S
C181 C180 1.433 . S
C181 H195 0.933 . S
C182 Dy160 2.738 1_545 S
C182 O165 1.255 . S
C182 O166 1.249 . S
C182 C176 1.516 . S
C183 O167 1.254 . S
C183 O168 1.257 . S
C184 O169 1.266 . S
C184 O170 1.236 . S
C185 C188 1.344 . S
C185 C189 1.328 . S
C185 C191 1.516 . S
C186 C187 1.304 . S
C186 C190 1.323 . S
C187 C186 1.304 . S
C187 C188 1.371 . S
C187 H196 0.930 . S
C188 C185 1.344 . S
C188 C187 1.371 . S
C188 H197 0.931 . S
C189 C185 1.328 . S
C189 C190 1.433 . S
C189 H198 0.931 . S
C190 C186 1.323 . S
C190 C189 1.433 . S
C190 H199 0.933 . S
C191 Dy161 2.738 . S
C191 O171 1.255 . S
C191 O172 1.249 . S
C191 C185 1.516 . S
H192 C178 0.930 . S
H193 C179 0.931 . S
H194 C180 0.931 . S
H195 C181 0.933 . S
H196 C187 0.930 . S
H197 C188 0.931 . S
H198 C189 0.931 . S
H199 C190 0.933 . S
Dy200 O203 2.307 . S
Dy200 O205 2.395 . S
Dy200 O206 2.379 . S
Dy200 O208 2.339 . S
Dy200 O210 2.298 . S
Dy200 O214 2.275 . S
Dy200 C222 2.748 . S
Dy201 O204 2.298 . S
Dy201 O207 2.275 . S
Dy201 O209 2.307 . S
Dy201 O211 2.395 . S
Dy201 O212 2.379 . S
Dy201 O215 2.339 . S
Dy201 C231 2.738 . S
C202 O214 1.254 . S
C202 O215 1.257 . S
O203 Dy200 2.307 . S
O203 C213 1.266 . S
O204 Dy201 2.298 . S
O204 C213 1.236 . S
O205 Dy200 2.395 . S
O205 C222 1.264 . S
O206 Dy200 2.379 . S
O206 C222 1.251 . S
O207 Dy201 2.275 . S
O207 C223 1.254 . S
O208 Dy200 2.339 . S
O208 C223 1.257 . S
O209 Dy201 2.307 . S
O209 C224 1.266 . S
O210 Dy200 2.298 . S
O210 C224 1.236 . S
O211 Dy201 2.395 . S
O211 C231 1.255 . S
O212 Dy201 2.379 . S
O212 C231 1.249 . S
C213 O203 1.266 . S
C213 O204 1.236 . S
O214 Dy200 2.275 . S
O214 C202 1.254 . S
O215 Dy201 2.339 . S
O215 C202 1.257 . S
C216 C219 1.344 . S
C216 C220 1.328 . S
C216 C222 1.505 1_655 S
C217 C218 1.304 . S
C217 C221 1.323 . S
C218 C217 1.304 . S
C218 C219 1.371 . S
C218 H232 0.930 . S
C219 C216 1.344 . S
C219 C218 1.371 . S
C219 H233 0.931 . S
C220 C216 1.328 . S
C220 C221 1.433 . S
C220 H234 0.931 . S
C221 C217 1.323 . S
C221 C220 1.433 . S
C221 H235 0.933 . S
C222 Dy200 2.748 . S
C222 O205 1.264 . S
C222 O206 1.251 . S
C222 C216 1.505 1_455 S
C223 O207 1.254 . S
C223 O208 1.257 . S
C224 O209 1.266 . S
C224 O210 1.236 . S
C225 C228 1.344 . S
C225 C229 1.328 . S
C225 C231 1.516 . S
C226 C227 1.304 . S
C226 C230 1.323 . S
C227 C226 1.304 . S
C227 C228 1.371 . S
C227 H236 0.930 . S
C228 C225 1.344 . S
C228 C227 1.371 . S
C228 H237 0.931 . S
C229 C225 1.328 . S
C229 C230 1.433 . S
C229 H238 0.931 . S
C230 C226 1.323 . S
C230 C229 1.433 . S
C230 H239 0.933 . S
C231 Dy201 2.738 . S
C231 O211 1.255 . S
C231 O212 1.249 . S
C231 C225 1.516 . S
H232 C218 0.930 . S
H233 C219 0.931 . S
H234 C220 0.931 . S
H235 C221 0.933 . S
H236 C227 0.930 . S
H237 C228 0.931 . S
H238 C229 0.931 . S
H239 C230 0.933 . S
Dy240 O243 2.307 . S
Dy240 O245 2.395 . S
Dy240 O246 2.379 . S
Dy240 O248 2.339 . S
Dy240 O250 2.298 . S
Dy240 O254 2.275 . S
Dy240 C262 2.738 . S
Dy241 O244 2.298 . S
Dy241 O247 2.275 . S
Dy241 O249 2.307 . S
Dy241 O251 2.395 . S
Dy241 O252 2.379 . S
Dy241 O255 2.339 . S
Dy241 C271 2.738 . S
C242 O254 1.254 . S
C242 O255 1.257 . S
O243 Dy240 2.307 . S
O243 C253 1.266 . S
O244 Dy241 2.298 . S
O244 C253 1.236 . S
O245 Dy240 2.395 . S
O245 C262 1.255 . S
O246 Dy240 2.379 . S
O246 C262 1.249 . S
O247 Dy241 2.275 . S
O247 C263 1.254 . S
O248 Dy240 2.339 . S
O248 C263 1.257 . S
O249 Dy241 2.307 . S
O249 C264 1.266 . S
O250 Dy240 2.298 . S
O250 C264 1.236 . S
O251 Dy241 2.395 . S
O251 C271 1.255 . S
O252 Dy241 2.379 . S
O252 C271 1.249 . S
C253 O243 1.266 . S
C253 O244 1.236 . S
O254 Dy240 2.275 . S
O254 C242 1.254 . S
O255 Dy241 2.339 . S
O255 C242 1.257 . S
C256 C259 1.344 . S
C256 C260 1.328 . S
C256 C262 1.516 . S
C257 C258 1.304 . S
C257 C261 1.323 . S
C258 C257 1.304 . S
C258 C259 1.371 . S
C258 H272 0.930 . S
C259 C256 1.344 . S
C259 C258 1.371 . S
C259 H273 0.931 . S
C260 C256 1.328 . S
C260 C261 1.433 . S
C260 H274 0.931 . S
C261 C257 1.323 . S
C261 C260 1.433 . S
C261 H275 0.933 . S
C262 Dy240 2.738 . S
C262 O245 1.255 . S
C262 O246 1.249 . S
C262 C256 1.516 . S
C263 O247 1.254 . S
C263 O248 1.257 . S
C264 O249 1.266 . S
C264 O250 1.236 . S
C265 C268 1.344 . S
C265 C269 1.328 . S
C265 C271 1.516 . S
C266 C267 1.304 . S
C266 C270 1.323 . S
C267 C266 1.304 . S
C267 C268 1.371 . S
C267 H276 0.930 . S
C268 C265 1.344 . S
C268 C267 1.371 . S
C268 H277 0.931 . S
C269 C265 1.328 . S
C269 C270 1.433 . S
C269 H278 0.931 . S
C270 C266 1.323 . S
C270 C269 1.433 . S
C270 H279 0.933 . S
C271 Dy241 2.738 . S
C271 O251 1.255 . S
C271 O252 1.249 . S
C271 C265 1.516 . S
H272 C258 0.930 . S
H273 C259 0.931 . S
H274 C260 0.931 . S
H275 C261 0.933 . S
H276 C267 0.930 . S
H277 C268 0.931 . S
H278 C269 0.931 . S
H279 C270 0.933 . S
Dy280 O283 2.307 . S
Dy280 O285 2.395 . S
Dy280 O286 2.409 . S
Dy280 O288 2.339 . S
Dy280 O290 2.298 . S
Dy280 O294 2.275 . S
Dy280 C302 2.738 1_655 S
Dy281 O284 2.298 . S
Dy281 O287 2.275 . S
Dy281 O289 2.307 . S
Dy281 O291 2.395 . S
Dy281 O292 2.379 . S
Dy281 O295 2.339 . S
Dy281 C311 2.738 . S
C282 O294 1.254 . S
C282 O295 1.257 . S
O283 Dy280 2.307 . S
O283 C293 1.266 . S
O284 Dy281 2.298 . S
O284 C293 1.236 . S
O285 Dy280 2.395 . S
O285 C302 1.255 1_655 S
O286 Dy280 2.409 . S
O286 C302 1.233 1_655 S
O287 Dy281 2.275 . S
O287 C303 1.254 . S
O288 Dy280 2.339 . S
O288 C303 1.257 . S
O289 Dy281 2.307 . S
O289 C304 1.266 . S
O290 Dy280 2.298 . S
O290 C304 1.236 . S
O291 Dy281 2.395 . S
O291 C311 1.255 . S
O292 Dy281 2.379 . S
O292 C311 1.249 . S
C293 O283 1.266 . S
C293 O284 1.236 . S
O294 Dy280 2.275 . S
O294 C282 1.254 . S
O295 Dy281 2.339 . S
O295 C282 1.257 . S
C296 C299 1.344 . S
C296 C300 1.328 . S
C296 C302 1.516 . S
C297 C298 1.304 . S
C297 C301 1.323 . S
C298 C297 1.304 . S
C298 C299 1.371 . S
C298 H312 0.930 . S
C299 C296 1.344 . S
C299 C298 1.371 . S
C299 H313 0.931 . S
C300 C296 1.328 . S
C300 C301 1.433 . S
C300 H314 0.931 . S
C301 C297 1.323 . S
C301 C300 1.433 . S
C301 H315 0.933 . S
C302 Dy280 2.738 1_455 S
C302 O285 1.255 1_455 S
C302 O286 1.233 1_455 S
C302 C296 1.516 . S
C303 O287 1.254 . S
C303 O288 1.257 . S
C304 O289 1.266 . S
C304 O290 1.236 . S
C305 C308 1.344 . S
C305 C309 1.328 . S
C305 C311 1.516 . S
C306 C307 1.304 . S
C306 C310 1.323 . S
C307 C306 1.304 . S
C307 C308 1.371 . S
C307 H316 0.930 . S
C308 C305 1.344 . S
C308 C307 1.371 . S
C308 H317 0.931 . S
C309 C305 1.328 . S
C309 C310 1.433 . S
C309 H318 0.931 . S
C310 C306 1.323 . S
C310 C309 1.433 . S
C310 H319 0.933 . S
C311 Dy281 2.738 . S
C311 O291 1.255 . S
C311 O292 1.249 . S
C311 C305 1.516 . S
H312 C298 0.930 . S
H313 C299 0.931 . S
H314 C300 0.931 . S
H315 C301 0.933 . S
H316 C307 0.930 . S
H317 C308 0.931 . S
H318 C309 0.931 . S
H319 C310 0.933 . S
Dy320 O323 2.307 . S
Dy320 O325 2.395 . S
Dy320 O326 2.379 . S
Dy320 O328 2.339 . S
Dy320 O330 2.298 . S
Dy320 O334 2.275 . S
Dy320 C342 2.738 . S
Dy321 O324 2.298 . S
Dy321 O327 2.275 . S
Dy321 O329 2.307 . S
Dy321 O331 2.395 . S
Dy321 O332 2.379 . S
Dy321 O335 2.339 . S
Dy321 C351 2.738 . S
C322 O334 1.254 . S
C322 O335 1.257 . S
O323 Dy320 2.307 . S
O323 C333 1.266 . S
O324 Dy321 2.298 . S
O324 C333 1.236 . S
O325 Dy320 2.395 . S
O325 C342 1.255 . S
O326 Dy320 2.379 . S
O326 C342 1.249 . S
O327 Dy321 2.275 . S
O327 C343 1.254 . S
O328 Dy320 2.339 . S
O328 C343 1.257 . S
O329 Dy321 2.307 . S
O329 C344 1.266 . S
O330 Dy320 2.298 . S
O330 C344 1.236 . S
O331 Dy321 2.395 . S
O331 C351 1.255 . S
O332 Dy321 2.379 . S
O332 C351 1.249 . S
C333 O323 1.266 . S
C333 O324 1.236 . S
O334 Dy320 2.275 . S
O334 C322 1.254 . S
O335 Dy321 2.339 . S
O335 C322 1.257 . S
C336 C339 1.344 . S
C336 C340 1.328 . S
C336 C342 1.516 . S
C337 C338 1.304 . S
C337 C341 1.323 . S
C338 C337 1.304 . S
C338 C339 1.371 . S
C338 H352 0.930 . S
C339 C336 1.344 . S
C339 C338 1.371 . S
C339 H353 0.931 . S
C340 C336 1.328 . S
C340 C341 1.433 . S
C340 H354 0.931 . S
C341 C337 1.323 . S
C341 C340 1.433 . S
C341 H355 0.933 . S
C342 Dy320 2.738 . S
C342 O325 1.255 . S
C342 O326 1.249 . S
C342 C336 1.516 . S
C343 O327 1.254 . S
C343 O328 1.257 . S
C344 O329 1.266 . S
C344 O330 1.236 . S
C345 C348 1.344 . S
C345 C349 1.328 . S
C345 C351 1.516 . S
C346 C347 1.304 . S
C346 C350 1.323 . S
C347 C346 1.304 . S
C347 C348 1.371 1_455 S
C347 H356 0.930 . S
C348 C345 1.344 . S
C348 C347 1.371 1_655 S
C348 H357 0.931 . S
C349 C345 1.328 . S
C349 C350 1.433 1_655 S
C349 H358 0.931 . S
C350 C346 1.323 . S
C350 C349 1.433 1_455 S
C350 H359 0.933 . S
C351 Dy321 2.738 . S
C351 O331 1.255 . S
C351 O332 1.249 . S
C351 C345 1.516 . S
H352 C338 0.930 . S
H353 C339 0.931 . S
H354 C340 0.931 . S
H355 C341 0.933 . S
H356 C347 0.930 . S
H357 C348 0.931 . S
H358 C349 0.931 . S
H359 C350 0.933 . S
C360 C361 1.170 . S
C360 C362 1.380 . S
C361 C360 1.170 . S
C362 C360 1.380 . S
C362 C363 1.170 . S
C363 C362 1.170 . S
C364 C365 1.172 . S
C364 C366 1.380 1_554 S
C365 C364 1.172 . S
C366 C364 1.380 1_556 S
C366 C367 1.171 . S
C367 C366 1.171 . S
C368 C369 1.170 . S
C368 C370 1.380 . S
C369 C368 1.170 . S
C370 C368 1.380 . S
C370 C371 1.170 . S
C371 C370 1.170 . S
C372 C373 1.170 . S
C372 C374 1.380 . S
C373 C372 1.170 . S
C374 C372 1.380 . S
C374 C375 1.170 . S
C375 C374 1.170 . S
C376 C377 1.170 . S
C376 C378 1.380 . S
C377 C376 1.170 . S
C378 C376 1.380 . S
C378 C379 1.170 . S
C379 C378 1.170 . S
C380 C381 1.170 . S
C380 C382 1.380 . S
C381 C380 1.170 . S
C382 C380 1.380 . S
C382 C383 1.170 . S
C383 C382 1.170 . S
C384 C385 1.170 . S
C384 C386 1.380 1_655 S
C385 C384 1.170 . S
C386 C384 1.380 1_455 S
C386 C387 1.170 . S
C387 C386 1.170 . S
C388 C389 1.170 . S
C388 C390 1.380 . S
C389 C388 1.170 . S
C390 C388 1.380 . S
C390 C391 1.170 . S
C391 C390 1.170 . S
C392 C393 1.170 1_565 S
C392 C394 1.380 . S
C393 C392 1.170 1_545 S
C394 C392 1.380 . S
C394 C395 1.170 . S
C395 C394 1.170 . S
C396 C397 1.170 . S
C396 C398 1.380 . S
C397 C396 1.170 . S
C398 C396 1.380 . S
C398 C399 1.170 . S
C399 C398 1.170 . S
C400 C401 1.170 . S
C400 C402 1.380 . S
C401 C400 1.170 . S
C402 C400 1.380 . S
C402 C403 1.170 . S
C403 C402 1.170 . S
C404 C405 1.170 . S
C404 C406 1.380 . S
C405 C404 1.170 . S
C406 C404 1.380 . S
C406 C407 1.170 . S
C407 C406 1.170 . S
C408 C409 1.170 . S
C408 C410 1.380 . S
C409 C408 1.170 . S
C410 C408 1.380 . S
C410 C411 1.170 . S
C411 C410 1.170 . S
C412 C413 1.170 . S
C412 C414 1.380 . S
C413 C412 1.170 . S
C414 C412 1.380 . S
C414 C415 1.170 . S
C415 C414 1.170 . S
C416 C417 1.170 . S
C416 C418 1.380 . S
C417 C416 1.170 . S
C418 C416 1.380 . S
C418 C419 1.170 . S
C419 C418 1.170 . S
C420 C421 1.170 . S
C420 C422 1.380 . S
C421 C420 1.170 . S
C422 C420 1.380 . S
C422 C423 1.170 1_565 S
C423 C422 1.170 1_545 S
C424 C425 1.170 . S
C424 C426 1.380 . S
C425 C424 1.170 . S
C426 C424 1.380 . S
C426 C427 1.170 . S
C427 C426 1.170 . S
C428 C429 1.170 . S
C428 C430 1.380 . S
C429 C428 1.170 . S
C430 C428 1.380 . S
C430 C431 1.170 . S
C431 C430 1.170 . S
C432 C433 1.170 . S
C432 C434 1.380 . S
C433 C432 1.170 . S
C434 C432 1.380 . S
C434 C435 1.170 . S
C435 C434 1.170 . S
C436 C437 1.170 . S
C436 C438 1.380 . S
C437 C436 1.170 . S
C438 C436 1.380 . S
C438 C439 1.170 . S
C439 C438 1.170 . S
C440 C441 1.170 . S
C440 C442 1.380 . S
C441 C440 1.170 . S
C442 C440 1.380 . S
C442 C443 1.170 . S
C443 C442 1.170 . S
C444 C445 1.170 . S
C444 C446 1.380 . S
C445 C444 1.170 . S
C446 C444 1.380 . S
C446 C447 1.170 . S
C447 C446 1.170 . S
C448 C449 1.170 . S
C448 C450 1.380 . S
C449 C448 1.170 . S
C450 C448 1.380 . S
C450 C451 1.170 . S
C451 C450 1.170 . S
C452 C453 1.170 . S
C452 C454 1.380 . S
C453 C452 1.170 . S
C454 C452 1.380 . S
C454 C455 1.170 . S
C455 C454 1.170 . S
C456 C457 1.170 . S
C456 C458 1.380 . S
C457 C456 1.170 . S
C458 C456 1.380 . S
C458 C459 1.170 . S
C459 C458 1.170 . S
C460 C461 1.170 . S
C460 C462 1.380 1_565 S
C461 C460 1.170 . S
C462 C460 1.380 1_545 S
C462 C463 1.170 . S
C463 C462 1.170 . S
C464 C465 1.170 . S
C464 C466 1.380 1_655 S
C465 C464 1.170 . S
C466 C464 1.380 1_455 S
C466 C467 1.170 . S
C467 C466 1.170 . S
C361 C66 0.814 . S
C363 C17 0.872 1_556 S
C365 C104 3.448 . S
C367 C53 3.503 . S
C369 C97 1.031 . S
C371 C24 1.056 . S
C373 C93 3.087 . S
C375 C64 3.069 . S
C377 C106 2.214 . S
C379 C13 2.229 . S
C381 C26 0.774 . S
C383 C57 0.790 . S
C385 C137 2.900 . S
C387 C184 2.969 . S
C389 C224 1.108 . S
C391 C177 1.137 . S
C393 C217 0.894 . S
C395 C144 0.869 . S
C397 C186 0.614 . S
C399 C213 0.583 . S
C401 C226 2.289 . S
C403 C133 2.287 . S
C405 C173 2.364 . S
C407 C146 2.374 . S
C409 C306 0.904 . S
C411 C257 0.743 . S
C413 C293 3.528 . S
C415 C344 3.498 . S
C417 C337 1.046 . S
C419 C264 1.080 . S
C421 C333 3.024 . S
C423 C304 2.994 . S
C425 C346 2.223 . S
C427 C253 2.251 1_565 S
C429 C266 0.766 . S
C431 C297 0.772 . S
C433 C223 2.351 . S
C435 C2 2.700 . S
C437 C143 1.994 . S
C439 C63 1.941 . S
C441 C82 3.120 . S
C443 C183 2.882 . S
C445 C103 2.364 . S
C447 C242 2.689 . S
C449 C23 1.992 . S
C451 C303 1.910 . S
C453 C322 3.093 . S
C455 C42 3.110 . S
C457 C122 2.763 . S
C459 C343 2.406 . S
C461 C162 2.159 . S
C463 C263 1.987 . S
C465 C282 3.074 . S
C467 C202 3.052 . S
