# Generated by pormake.
# Topology mdf, (4)-cn, num edge types: 1
# Building blocks:
#     Node 0, Type 0, BuildingBlock: NAHDIM_clean_sbu_0, # of connection points: 4
#     Node 1, Type 0, BuildingBlock: NAHDIM_clean_sbu_0, # of connection points: 4
#     Node 2, Type 0, BuildingBlock: NAHDIM_clean_sbu_0, # of connection points: 4
#     Node 3, Type 0, BuildingBlock: NAHDIM_clean_sbu_0, # of connection points: 4
#     Node 4, Type 0, BuildingBlock: NAHDIM_clean_sbu_0, # of connection points: 4
#     Node 5, Type 0, BuildingBlock: NAHDIM_clean_sbu_0, # of connection points: 4
#     Node 6, Type 0, BuildingBlock: NAHDIM_clean_sbu_0, # of connection points: 4
#     Node 7, Type 0, BuildingBlock: NAHDIM_clean_sbu_0, # of connection points: 4
#     Edge 8, Type (0, 0), BuildingBlock: TEMPAE_clean_linker_10, # of connection points: 2
#     Edge 9, Type (0, 0), BuildingBlock: TEMPAE_clean_linker_10, # of connection points: 2
#     Edge 10, Type (0, 0), BuildingBlock: TEMPAE_clean_linker_10, # of connection points: 2
#     Edge 11, Type (0, 0), BuildingBlock: TEMPAE_clean_linker_10, # of connection points: 2
#     Edge 12, Type (0, 0), BuildingBlock: TEMPAE_clean_linker_10, # of connection points: 2
#     Edge 13, Type (0, 0), BuildingBlock: TEMPAE_clean_linker_10, # of connection points: 2
#     Edge 14, Type (0, 0), BuildingBlock: TEMPAE_clean_linker_10, # of connection points: 2
#     Edge 15, Type (0, 0), BuildingBlock: TEMPAE_clean_linker_10, # of connection points: 2
#     Edge 16, Type (0, 0), BuildingBlock: TEMPAE_clean_linker_10, # of connection points: 2
#     Edge 17, Type (0, 0), BuildingBlock: TEMPAE_clean_linker_10, # of connection points: 2
#     Edge 18, Type (0, 0), BuildingBlock: TEMPAE_clean_linker_10, # of connection points: 2
#     Edge 19, Type (0, 0), BuildingBlock: TEMPAE_clean_linker_10, # of connection points: 2
#     Edge 20, Type (0, 0), BuildingBlock: TEMPAE_clean_linker_10, # of connection points: 2
#     Edge 21, Type (0, 0), BuildingBlock: TEMPAE_clean_linker_10, # of connection points: 2
#     Edge 22, Type (0, 0), BuildingBlock: TEMPAE_clean_linker_10, # of connection points: 2
#     Edge 23, Type (0, 0), BuildingBlock: TEMPAE_clean_linker_10, # of connection points: 2
# Relax obj value: 0.050
# Max RMSD: 0.056
# Mean RMSD: 0.056
data_MOF--net-mdf--node1-NAHDIM_clean_sbu_0--edge1-TEMPAE_clean_linker_10
_symmetry_space_group_name_H-M    P1
_symmetry_Int_Tables_number       1
_symmetry_cell_setting            triclinic
loop_
_symmetry_equiv_pos_as_xyz
'x, y, z'
_cell_length_a     35.550449
_cell_length_b     35.547319
_cell_length_c     14.996139
_cell_angle_alpha  89.998254
_cell_angle_beta   89.987741
_cell_angle_gamma 95.570233
loop_
_atom_site_label
_atom_site_type_symbol
_atom_site_fract_x
_atom_site_fract_y
_atom_site_fract_z
_atom_type_partial_charge
C0 C 0.19966 0.55544 0.51653 0.0
O1 O 0.17444 0.53337 0.47215 0.0
O2 O 0.2724 0.55983 0.2999 0.0
Zn3 Zn 0.25248 0.52396 0.3959 0.0
O4 O 0.21015 0.48867 0.3434 0.0
C5 C 0.32462 0.4925 0.39268 0.0
O6 O 0.32819 0.51135 0.31732 0.0
O7 O 0.23441 0.55534 0.49674 0.0
C8 C 0.20408 0.45441 0.36813 0.0
O9 O 0.22525 0.44187 0.43126 0.0
C10 C 0.25229 0.58266 0.2615 0.0
O11 O 0.21674 0.58319 0.28495 0.0
O12 O 0.29463 0.49374 0.43849 0.0
C13 C 0.3787 0.78261 0.52033 0.0
O14 O 0.36961 0.78941 0.60329 0.0
O15 O 0.39199 0.71852 0.70216 0.0
Zn16 Zn 0.42969 0.73825 0.60878 0.0
O17 O 0.46614 0.78038 0.65489 0.0
C18 C 0.46434 0.66807 0.61761 0.0
O19 O 0.44535 0.66428 0.69276 0.0
O20 O 0.40324 0.75968 0.50503 0.0
C21 C 0.49152 0.77527 0.712 0.0
O22 O 0.49255 0.74165 0.7478 0.0
C23 C 0.38556 0.73609 0.77352 0.0
O24 O 0.40367 0.76951 0.78816 0.0
O25 O 0.46093 0.69684 0.56889 0.0
C26 C 0.30103 0.94817 0.02138 0.0
O27 O 0.31457 0.98387 0.01808 0.0
O28 O 0.24983 0.92643 0.75463 0.0
Zn29 Zn 0.2691 0.96363 0.84857 0.0
O30 O 0.31531 0.99578 0.80431 0.0
C31 C 0.19426 0.98325 0.89127 0.0
O32 O 0.18591 0.94651 0.88547 0.0
O33 O 0.28123 0.93408 0.95695 0.0
C34 C 0.32027 0.03039 0.82682 0.0
O35 O 0.29555 0.04411 0.87986 0.0
C36 C 0.24408 0.93695 0.67532 0.0
O37 O 0.25192 0.97274 0.65427 0.0
O38 O 0.22815 0.99696 0.87825 0.0
C39 C 0.09829 0.71616 0.99593 0.0
O40 O 0.10085 0.70613 0.07989 0.0
O41 O 0.08509 0.77889 0.17416 0.0
Zn42 Zn 0.04791 0.76274 0.07669 0.0
O43 O 0.00971 0.72135 0.12213 0.0
C44 C 0.01915 0.8369 0.08109 0.0
O45 O 0.03839 0.84037 0.15581 0.0
O46 O 0.0767 0.74138 0.97581 0.0
C47 C 0.97849 0.72876 0.15609 0.0
O48 O 0.97108 0.76415 0.16235 0.0
C49 C 0.07546 0.78068 0.25555 0.0
O50 O 0.04004 0.7717 0.27813 0.0
O51 O 0.02014 0.80696 0.03485 0.0
C52 C 0.75737 0.10353 0.00219 0.0
O53 O 0.79321 0.10887 0.97973 0.0
O54 O 0.77624 0.06334 0.77334 0.0
Zn55 Zn 0.75349 0.03785 0.8828 0.0
O56 O 0.7082 0.00218 0.85195 0.0
C57 C 0.82742 0.018 0.9262 0.0
O58 O 0.83721 0.0498 0.88385 0.0
O59 O 0.7367 0.07581 0.96932 0.0
C60 C 0.71093 0.97347 0.80288 0.0
O61 O 0.74394 0.96795 0.76843 0.0
C62 C 0.76394 0.09107 0.73306 0.0
O63 O 0.73287 0.1044 0.76132 0.0
O64 O 0.79254 0.00752 0.9374 0.0
C65 C 0.87795 0.23089 0.95077 0.0
O66 O 0.86177 0.21357 0.02023 0.0
O67 O 0.91584 0.19365 0.14453 0.0
Zn68 Zn 0.94758 0.21565 0.04172 0.0
O69 O 0.98291 0.25941 0.08789 0.0
C70 C 0.99885 0.15989 0.0544 0.0
O71 O 0.99629 0.17014 0.13822 0.0
O72 O 0.91387 0.23426 0.94502 0.0
C73 C 0.01552 0.26847 0.05515 0.0
O74 O 0.02653 0.24978 0.9858 0.0
C75 C 0.915 0.21052 0.21919 0.0
O76 O 0.93488 0.24334 0.22962 0.0
O77 O 0.97943 0.1755 0.99627 0.0
C78 C 0.74044 0.39606 0.54422 0.0
O79 O 0.71537 0.38417 0.48364 0.0
O80 O 0.71859 0.4421 0.34335 0.0
Zn81 Zn 0.73659 0.46856 0.45622 0.0
O82 O 0.78066 0.50616 0.42427 0.0
C83 C 0.66097 0.49032 0.47539 0.0
O84 O 0.65329 0.46205 0.41984 0.0
O85 O 0.7527 0.4309 0.54647 0.0
C86 C 0.77861 0.52454 0.35196 0.0
O87 O 0.74819 0.51829 0.30232 0.0
C88 C 0.738 0.42095 0.29768 0.0
O89 O 0.77188 0.41459 0.3253 0.0
O90 O 0.69467 0.49756 0.50345 0.0
C91 C 0.63423 0.23528 0.49976 0.0
O92 O 0.63133 0.21775 0.57697 0.0
O93 O 0.61494 0.30134 0.68826 0.0
Zn94 Zn 0.58261 0.27841 0.58751 0.0
O95 O 0.55108 0.23164 0.62951 0.0
C96 C 0.53646 0.34178 0.59091 0.0
O97 O 0.55292 0.34885 0.66833 0.0
O98 O 0.61587 0.26378 0.48748 0.0
C99 C 0.5247 0.21715 0.57948 0.0
O100 O 0.51985 0.23238 0.50097 0.0
C101 C 0.60727 0.29187 0.76846 0.0
O102 O 0.5782 0.26707 0.78448 0.0
O103 O 0.54586 0.31436 0.54413 0.0
C104 C 0.33958 0.6827 0.82443 0.0
C105 C 0.3602 0.71758 0.84225 0.0
C106 C 0.31851 0.66288 0.89149 0.0
C107 C 0.31817 0.67824 0.97852 0.0
C108 C 0.33736 0.71426 0.99589 0.0
C109 C 0.35809 0.73358 0.9274 0.0
C110 C 0.29843 0.62452 0.8703 0.0
C111 C 0.33764 0.73152 0.08791 0.0
C112 C 0.24705 0.63266 0.14518 0.0
C113 C 0.26897 0.60798 0.19045 0.0
C114 C 0.26275 0.65624 0.07679 0.0
C115 C 0.30114 0.65488 0.05305 0.0
C116 C 0.32344 0.63034 0.09917 0.0
C117 C 0.3071 0.60723 0.16721 0.0
C118 C 0.2382 0.6822 0.02922 0.0
C119 C 0.36457 0.6282 0.07612 0.0
H120 H 0.34072 0.67028 0.75858 0.0
H121 H 0.37376 0.76061 0.94162 0.0
H122 H 0.31404 0.60226 0.901 0.0
H123 H 0.26952 0.6217 0.8988 0.0
H124 H 0.29649 0.61922 0.79736 0.0
H125 H 0.3509 0.76109 0.08831 0.0
H126 H 0.30844 0.7311 0.11421 0.0
H127 H 0.35362 0.71464 0.1342 0.0
H128 H 0.21756 0.63343 0.16274 0.0
H129 H 0.3243 0.58835 0.20193 0.0
H130 H 0.2352 0.67378 0.95823 0.0
H131 H 0.25164 0.71169 0.03066 0.0
H132 H 0.20959 0.68157 0.05926 0.0
H133 H 0.36713 0.61889 0.00596 0.0
H134 H 0.37822 0.6083 0.11993 0.0
H135 H 0.38036 0.65658 0.08202 0.0
C136 C 0.33493 0.82797 0.46279 0.0
C137 C 0.36371 0.80449 0.4467 0.0
C138 C 0.32255 0.85121 0.39541 0.0
C139 C 0.33977 0.85129 0.31021 0.0
C140 C 0.36836 0.82715 0.29313 0.0
C141 C 0.37983 0.80387 0.36142 0.0
C142 C 0.29207 0.87653 0.41737 0.0
C143 C 0.38813 0.82718 0.20397 0.0
C144 C 0.2921 0.88712 0.1049 0.0
C145 C 0.30963 0.92409 0.09776 0.0
C146 C 0.3009 0.86337 0.1749 0.0
C147 C 0.3283 0.87678 0.23883 0.0
C148 C 0.34582 0.9142 0.23259 0.0
C149 C 0.33606 0.93752 0.16245 0.0
C150 C 0.28183 0.82351 0.17702 0.0
C151 C 0.3756 0.92928 0.29866 0.0
H152 H 0.32234 0.82866 0.52856 0.0
H153 H 0.40231 0.78605 0.34862 0.0
H154 H 0.30545 0.90425 0.44082 0.0
H155 H 0.27434 0.88166 0.35862 0.0
H156 H 0.27351 0.86435 0.47179 0.0
H157 H 0.40668 0.80387 0.19814 0.0
H158 H 0.36731 0.82463 0.14878 0.0
H159 H 0.40571 0.85447 0.19508 0.0
H160 H 0.27162 0.87643 0.05522 0.0
H161 H 0.34978 0.96603 0.1573 0.0
H162 H 0.28104 0.81107 0.24485 0.0
H163 H 0.29757 0.80549 0.13292 0.0
H164 H 0.25247 0.82256 0.15116 0.0
H165 H 0.36339 0.9289 0.36673 0.0
H166 H 0.38734 0.95863 0.28291 0.0
H167 H 0.3991 0.91088 0.29949 0.0
C168 C 0.14175 0.79666 0.30754 0.0
C169 C 0.10287 0.79733 0.32177 0.0
C170 C 0.16815 0.81519 0.36613 0.0
C171 C 0.15529 0.83594 0.43871 0.0
C172 C 0.116 0.83567 0.45489 0.0
C173 C 0.09025 0.81595 0.39674 0.0
C174 C 0.20965 0.81376 0.34759 0.0
C175 C 0.1011 0.85765 0.53123 0.0
C176 C 0.21703 0.87169 0.63299 0.0
C177 C 0.22534 0.90993 0.61032 0.0
C178 C 0.19586 0.84664 0.57558 0.0
C179 C 0.18241 0.86029 0.49414 0.0
C180 C 0.19235 0.89835 0.46889 0.0
C181 C 0.2138 0.92268 0.52718 0.0
C182 C 0.18685 0.80591 0.60329 0.0
C183 C 0.17901 0.91377 0.38185 0.0
H184 H 0.15157 0.78195 0.24997 0.0
H185 H 0.06018 0.8166 0.40778 0.0
H186 H 0.2204 0.83964 0.31085 0.0
H187 H 0.22608 0.81255 0.4102 0.0
H188 H 0.21474 0.78894 0.30582 0.0
H189 H 0.06981 0.85326 0.53676 0.0
H190 H 0.11358 0.84925 0.59513 0.0
H191 H 0.1095 0.88828 0.5217 0.0
H192 H 0.22632 0.86144 0.69659 0.0
H193 H 0.22045 0.95205 0.50868 0.0
H194 H 0.19387 0.78675 0.54861 0.0
H195 H 0.15613 0.80024 0.61662 0.0
H196 H 0.20251 0.79886 0.6642 0.0
H197 H 0.18806 0.89664 0.32537 0.0
H198 H 0.19012 0.94372 0.37091 0.0
H199 H 0.14766 0.91184 0.38091 0.0
C200 C 0.11725 0.70804 0.83644 0.0
C201 C 0.11828 0.69648 0.92579 0.0
C202 C 0.13365 0.68767 0.76882 0.0
C203 C 0.1512 0.65482 0.79112 0.0
C204 C 0.15379 0.64402 0.8816 0.0
C205 C 0.13732 0.66497 0.94776 0.0
C206 C 0.13096 0.70053 0.67325 0.0
C207 C 0.1724 0.60929 0.9084 0.0
C208 C 0.15028 0.57671 0.61839 0.0
C209 C 0.18759 0.5809 0.58704 0.0
C210 C 0.13816 0.6007 0.68452 0.0
C211 C 0.16387 0.62989 0.71964 0.0
C212 C 0.20155 0.63451 0.68789 0.0
C213 C 0.21303 0.60981 0.62226 0.0
C214 C 0.09783 0.59465 0.71717 0.0
C215 C 0.22961 0.66564 0.72279 0.0
H216 H 0.10297 0.73261 0.81899 0.0
H217 H 0.13847 0.65591 0.01664 0.0
H218 H 0.11238 0.6794 0.63511 0.0
H219 H 0.11939 0.72838 0.66784 0.0
H220 H 0.15921 0.70262 0.64123 0.0
H221 H 0.17735 0.60813 0.98147 0.0
H222 H 0.15401 0.58365 0.88858 0.0
H223 H 0.19982 0.60839 0.87363 0.0
H224 H 0.13048 0.55443 0.59169 0.0
H225 H 0.24186 0.61343 0.59789 0.0
H226 H 0.0835 0.62066 0.70661 0.0
H227 H 0.09743 0.5888 0.78986 0.0
H228 H 0.08133 0.5708 0.68266 0.0
H229 H 0.22002 0.69354 0.7058 0.0
H230 H 0.25837 0.6642 0.69477 0.0
H231 H 0.23127 0.66416 0.79647 0.0
C232 C 0.82152 0.09794 0.63671 0.0
C233 C 0.78553 0.10874 0.65696 0.0
C234 C 0.84276 0.11455 0.56572 0.0
C235 C 0.82754 0.14239 0.51315 0.0
C236 C 0.7913 0.15347 0.53315 0.0
C237 C 0.77069 0.13657 0.60498 0.0
C238 C 0.88157 0.10243 0.5473 0.0
C239 C 0.77408 0.18264 0.47747 0.0
C240 C 0.89472 0.20989 0.3789 0.0
C241 C 0.89237 0.19319 0.29405 0.0
C242 C 0.87381 0.19362 0.45084 0.0
C243 C 0.84965 0.16006 0.43735 0.0
C244 C 0.84684 0.14325 0.35172 0.0
C245 C 0.86852 0.15982 0.28125 0.0
C246 C 0.8779 0.21211 0.54152 0.0
C247 C 0.82074 0.10793 0.33426 0.0
H248 H 0.83335 0.07664 0.67686 0.0
H249 H 0.74287 0.14499 0.61992 0.0
H250 H 0.88257 0.09061 0.47898 0.0
H251 H 0.90299 0.12727 0.55051 0.0
H252 H 0.88958 0.08084 0.59546 0.0
H253 H 0.74682 0.19008 0.50516 0.0
H254 H 0.7938 0.20864 0.47135 0.0
H255 H 0.76923 0.17146 0.40921 0.0
H256 H 0.91322 0.23557 0.38949 0.0
H257 H 0.86638 0.14685 0.2158 0.0
H258 H 0.88991 0.19265 0.58929 0.0
H259 H 0.84985 0.21787 0.56763 0.0
H260 H 0.89652 0.23907 0.53994 0.0
H261 H 0.83075 0.08387 0.37159 0.0
H262 H 0.81916 0.10049 0.2623 0.0
H263 H 0.79184 0.11164 0.35835 0.0
C264 C 0.87167 0.26676 0.80845 0.0
C265 C 0.85475 0.24921 0.88421 0.0
C266 C 0.85077 0.2873 0.74948 0.0
C267 C 0.81212 0.29075 0.76715 0.0
C268 C 0.79437 0.27144 0.84076 0.0
C269 C 0.81587 0.25082 0.89833 0.0
C270 C 0.87038 0.30629 0.66976 0.0
C271 C 0.75289 0.27333 0.85993 0.0
C272 C 0.77687 0.38139 0.68057 0.0
C273 C 0.75641 0.36874 0.60466 0.0
C274 C 0.79387 0.356 0.73574 0.0
C275 C 0.7913 0.31714 0.71306 0.0
C276 C 0.77014 0.30411 0.63735 0.0
C277 C 0.75264 0.33001 0.58452 0.0
C278 C 0.81522 0.37091 0.81745 0.0
C279 C 0.76754 0.26322 0.60935 0.0
H280 H 0.90151 0.26516 0.79609 0.0
H281 H 0.80238 0.2369 0.95595 0.0
H282 H 0.85393 0.29911 0.60818 0.0
H283 H 0.87211 0.33743 0.67799 0.0
H284 H 0.89946 0.29795 0.6607 0.0
H285 H 0.7439 0.25862 0.92285 0.0
H286 H 0.74644 0.30319 0.86385 0.0
H287 H 0.73566 0.26003 0.80472 0.0
H288 H 0.77961 0.41123 0.69702 0.0
H289 H 0.73708 0.32004 0.52556 0.0
H290 H 0.84587 0.36865 0.80806 0.0
H291 H 0.80606 0.35372 0.87678 0.0
H292 H 0.81102 0.40092 0.83122 0.0
H293 H 0.79577 0.2564 0.58675 0.0
H294 H 0.74699 0.25704 0.55423 0.0
H295 H 0.75928 0.24427 0.66618 0.0
C296 C 0.68982 0.41627 0.17624 0.0
C297 C 0.72182 0.40304 0.21552 0.0
C298 C 0.67325 0.39894 0.09998 0.0
C299 C 0.68855 0.36709 0.06312 0.0
C300 C 0.7212 0.3539 0.10191 0.0
C301 C 0.73771 0.37237 0.17701 0.0
C302 C 0.63894 0.41435 0.05984 0.0
C303 C 0.73901 0.32039 0.06491 0.0
C304 C 0.61839 0.30159 0.93149 0.0
C305 C 0.62943 0.30985 0.84336 0.0
C306 C 0.63762 0.31958 0.00363 0.0
C307 C 0.66894 0.34653 0.98737 0.0
C308 C 0.6804 0.35487 0.89851 0.0
C309 C 0.6607 0.33622 0.82751 0.0
C310 C 0.62257 0.31052 0.0962 0.0
C311 C 0.71263 0.38446 0.87837 0.0
H312 H 0.67761 0.44026 0.20516 0.0
H313 H 0.76258 0.36214 0.20678 0.0
H314 H 0.64253 0.41796 0.9867 0.0
H315 H 0.61371 0.39398 0.07106 0.0
H316 H 0.63344 0.44193 0.08946 0.0
H317 H 0.75917 0.33029 0.01154 0.0
H318 H 0.75526 0.30662 0.11683 0.0
H319 H 0.71759 0.299 0.03635 0.0
H320 H 0.59409 0.28149 0.94463 0.0
H321 H 0.66943 0.3428 0.75956 0.0
H322 H 0.59604 0.32413 0.10567 0.0
H323 H 0.64243 0.32039 0.15006 0.0
H324 H 0.61523 0.27959 0.1035 0.0
H325 H 0.70772 0.41153 0.91125 0.0
H326 H 0.71622 0.38959 0.80571 0.0
H327 H 0.73928 0.37543 0.90563 0.0
C328 C 0.70204 0.12467 0.08385 0.0
C329 C 0.74112 0.12834 0.0682 0.0
C330 C 0.68614 0.14594 0.15008 0.0
C331 C 0.70993 0.17098 0.2034 0.0
C332 C 0.74918 0.17654 0.18442 0.0
C333 C 0.76431 0.15503 0.11711 0.0
C334 C 0.64382 0.14128 0.16351 0.0
C335 C 0.77584 0.20499 0.23361 0.0
C336 C 0.66335 0.24106 0.34761 0.0
C337 C 0.65626 0.22028 0.42635 0.0
C338 C 0.68215 0.22594 0.27559 0.0
C339 C 0.69368 0.18905 0.28206 0.0
C340 C 0.68743 0.16833 0.3623 0.0
C341 C 0.6689 0.18426 0.43345 0.0
C342 C 0.68818 0.24889 0.19139 0.0
C343 C 0.69883 0.12869 0.37283 0.0
H344 H 0.68373 0.1048 0.04486 0.0
H345 H 0.79447 0.15868 0.10428 0.0
H346 H 0.63697 0.12616 0.22701 0.0
H347 H 0.63271 0.16934 0.16807 0.0
H348 H 0.62893 0.12501 0.10856 0.0
H349 H 0.78935 0.22575 0.1852 0.0
H350 H 0.76212 0.22062 0.28645 0.0
H351 H 0.79882 0.19048 0.26402 0.0
H352 H 0.65375 0.26899 0.34164 0.0
H353 H 0.6635 0.16792 0.49394 0.0
H354 H 0.7164 0.24599 0.16227 0.0
H355 H 0.6857 0.27931 0.20377 0.0
H356 H 0.66673 0.23837 0.14129 0.0
H357 H 0.67535 0.10816 0.34991 0.0
H358 H 0.70452 0.12227 0.44381 0.0
H359 H 0.72427 0.12413 0.33295 0.0
C360 C 0.34937 0.44443 0.49409 0.0
C361 C 0.35523 0.47006 0.42313 0.0
C362 C 0.37814 0.42264 0.52209 0.0
C363 C 0.41377 0.42706 0.47907 0.0
C364 C 0.41986 0.45302 0.40773 0.0
C365 C 0.39045 0.47393 0.38021 0.0
C366 C 0.37027 0.39458 0.59696 0.0
C367 C 0.45711 0.45832 0.35875 0.0
C368 C 0.49959 0.39807 0.60326 0.0
C369 C 0.50548 0.36388 0.56128 0.0
C370 C 0.4697 0.41877 0.57753 0.0
C371 C 0.44482 0.40473 0.50888 0.0
C372 C 0.45046 0.3701 0.46669 0.0
C373 C 0.48089 0.35024 0.4929 0.0
C374 C 0.46507 0.45596 0.62279 0.0
C375 C 0.42429 0.35398 0.39399 0.0
H376 H 0.32213 0.44103 0.52711 0.0
H377 H 0.39523 0.49353 0.32506 0.0
H378 H 0.37518 0.36582 0.57368 0.0
H379 H 0.38998 0.40167 0.65314 0.0
H380 H 0.34083 0.39395 0.62218 0.0
H381 H 0.4608 0.48592 0.32347 0.0
H382 H 0.4813 0.45647 0.40466 0.0
H383 H 0.45799 0.43563 0.30826 0.0
H384 H 0.51856 0.40886 0.65592 0.0
H385 H 0.48505 0.32367 0.46063 0.0
H386 H 0.43637 0.45564 0.65193 0.0
H387 H 0.46807 0.47909 0.57287 0.0
H388 H 0.48615 0.46238 0.67666 0.0
H389 H 0.39453 0.35212 0.41729 0.0
H390 H 0.43087 0.32544 0.37249 0.0
H391 H 0.42652 0.37301 0.33524 0.0
C392 C 0.64416 0.94869 0.83659 0.0
C393 C 0.67774 0.94555 0.7891 0.0
C394 C 0.61294 0.92169 0.82697 0.0
C395 C 0.61524 0.89096 0.76791 0.0
C396 C 0.64887 0.88783 0.71898 0.0
C397 C 0.67978 0.9151 0.73042 0.0
C398 C 0.5776 0.92584 0.88057 0.0
C399 C 0.65221 0.85562 0.6547 0.0
C400 C 0.54891 0.80138 0.79668 0.0
C401 C 0.52172 0.80591 0.73083 0.0
C402 C 0.57915 0.82919 0.81065 0.0
C403 C 0.58241 0.86211 0.75694 0.0
C404 C 0.5547 0.86715 0.69145 0.0
C405 C 0.52459 0.83909 0.67951 0.0
C406 C 0.60795 0.82308 0.88188 0.0
C407 C 0.55733 0.90178 0.63255 0.0
H408 H 0.64236 0.97206 0.88232 0.0
H409 H 0.70558 0.9125 0.69337 0.0
H410 H 0.5532 0.92769 0.83523 0.0
H411 H 0.571 0.90055 0.92321 0.0
H412 H 0.58042 0.95133 0.92383 0.0
H413 H 0.68014 0.85755 0.62087 0.0
H414 H 0.64803 0.82827 0.69068 0.0
H415 H 0.62979 0.85538 0.60319 0.0
H416 H 0.54682 0.77589 0.83678 0.0
H417 H 0.50376 0.8428 0.62828 0.0
H418 H 0.61051 0.84732 0.92884 0.0
H419 H 0.63611 0.82157 0.85092 0.0
H420 H 0.60051 0.79671 0.92038 0.0
H421 H 0.55858 0.92772 0.67398 0.0
H422 H 0.533 0.90179 0.58608 0.0
H423 H 0.58376 0.90326 0.59277 0.0
C424 C 0.0462 0.11502 0.09425 0.0
C425 C 0.02536 0.13198 0.02856 0.0
C426 C 0.07274 0.08988 0.07141 0.0
C427 C 0.07871 0.08145 0.98057 0.0
C428 C 0.05723 0.09784 0.91393 0.0
C429 C 0.03079 0.1229 0.93871 0.0
C430 C 0.09475 0.0727 0.14453 0.0
C431 C 0.06266 0.0894 0.81637 0.0
C432 C 0.17361 0.04767 0.91912 0.0
C433 C 0.16466 0.00841 0.91302 0.0
C434 C 0.14584 0.07176 0.94018 0.0
C435 C 0.10819 0.05627 0.95558 0.0
C436 C 0.09904 0.0167 0.94944 0.0
C437 C 0.1273 0.99327 0.92798 0.0
C438 C 0.15686 0.11378 0.94669 0.0
C439 C 0.05926 0.99909 0.96421 0.0
H440 H 0.0421 0.12166 0.1639 0.0
H441 H 0.01476 0.13578 0.88752 0.0
H442 H 0.09059 0.0414 0.14048 0.0
H443 H 0.1254 0.08116 0.13587 0.0
H444 H 0.08619 0.08151 0.21204 0.0
H445 H 0.04318 0.10377 0.77291 0.0
H446 H 0.09217 0.0986 0.79636 0.0
H447 H 0.05794 0.0585 0.8045 0.0
H448 H 0.20242 0.05965 0.90766 0.0
H449 H 0.12006 0.96302 0.92306 0.0
H450 H 0.15111 0.12381 0.01497 0.0
H451 H 0.13956 0.12911 0.89998 0.0
H452 H 0.1872 0.12141 0.93122 0.0
H453 H 0.04797 0.00886 0.02826 0.0
H454 H 0.05726 0.9677 0.96451 0.0
H455 H 0.04112 0.00831 0.90993 0.0
C456 C 0.95661 0.65997 0.17339 0.0
C457 C 0.9507 0.69795 0.188 0.0
C458 C 0.92991 0.63062 0.20131 0.0
C459 C 0.89665 0.63948 0.24532 0.0
C460 C 0.89083 0.67771 0.26153 0.0
C461 C 0.91786 0.70647 0.23244 0.0
C462 C 0.93698 0.59018 0.18241 0.0
C463 C 0.8558 0.68826 0.30868 0.0
C464 C 0.80895 0.56959 0.23939 0.0
C465 C 0.80959 0.55301 0.3242 0.0
C466 C 0.83748 0.59726 0.21238 0.0
C467 C 0.86726 0.60888 0.27186 0.0
C468 C 0.86833 0.59202 0.35725 0.0
C469 C 0.83954 0.56415 0.38231 0.0
C470 C 0.83552 0.61436 0.12048 0.0
C471 C 0.89955 0.60386 0.42262 0.0
H472 H 0.9819 0.65313 0.13909 0.0
H473 H 0.91313 0.73571 0.24439 0.0
H474 H 0.93604 0.57371 0.24533 0.0
H475 H 0.91439 0.57683 0.13845 0.0
H476 H 0.96474 0.58801 0.14973 0.0
H477 H 0.85619 0.71925 0.31901 0.0
H478 H 0.83034 0.67843 0.26919 0.0
H479 H 0.853 0.67403 0.37452 0.0
H480 H 0.78604 0.561 0.19384 0.0
H481 H 0.84022 0.55149 0.44798 0.0
H482 H 0.86194 0.61097 0.08321 0.0
H483 H 0.83296 0.64513 0.12608 0.0
H484 H 0.8112 0.60127 0.08114 0.0
H485 H 0.92745 0.60026 0.39234 0.0
H486 H 0.89681 0.58734 0.48556 0.0
H487 H 0.89924 0.63427 0.43891 0.0
C488 C 0.35529 0.09431 0.80927 0.0
C489 C 0.35267 0.05539 0.7918 0.0
C490 C 0.38493 0.11878 0.77425 0.0
C491 C 0.41285 0.10397 0.72091 0.0
C492 C 0.41082 0.06463 0.70426 0.0
C493 C 0.38064 0.04078 0.73966 0.0
C494 C 0.38599 0.16062 0.79315 0.0
C495 C 0.44027 0.04781 0.64828 0.0
C496 C 0.46519 0.17413 0.56302 0.0
C497 C 0.49788 0.18567 0.61206 0.0
C498 C 0.43783 0.14664 0.59647 0.0
C499 C 0.44343 0.13008 0.68067 0.0
C500 C 0.47706 0.14047 0.7289 0.0
C501 C 0.50384 0.16828 0.69418 0.0
C502 C 0.40224 0.13642 0.54323 0.0
C503 C 0.48419 0.12314 0.81851 0.0
H504 H 0.33382 0.10587 0.84942 0.0
H505 H 0.3789 0.01071 0.72613 0.0
H506 H 0.41313 0.17088 0.82544 0.0
H507 H 0.38427 0.17639 0.72966 0.0
H508 H 0.36245 0.16751 0.8371 0.0
H509 H 0.4355 0.0165 0.64468 0.0
H510 H 0.43999 0.05934 0.57956 0.0
H511 H 0.46885 0.05578 0.67608 0.0
H512 H 0.46037 0.18736 0.49947 0.0
H513 H 0.52915 0.17687 0.73223 0.0
H514 H 0.37752 0.14524 0.58023 0.0
H515 H 0.39756 0.10536 0.53397 0.0
H516 H 0.40323 0.15015 0.47661 0.0
H517 H 0.46338 0.1318 0.86773 0.0
H518 H 0.51308 0.13188 0.84392 0.0
H519 H 0.48035 0.09185 0.8141 0.0
C520 C 0.84641 0.95884 0.99709 0.0
C521 C 0.85655 0.99322 0.95335 0.0
C522 C 0.87371 0.93426 0.01847 0.0
C523 C 0.91198 0.94419 0.99499 0.0
C524 C 0.92233 0.97901 0.9516 0.0
C525 C 0.89459 0.00321 0.93196 0.0
C526 C 0.86156 0.8975 0.06544 0.0
C527 C 0.96276 0.9911 0.92675 0.0
C528 C 0.98714 0.89478 0.11614 0.0
C529 C 0.99366 0.86581 0.05611 0.0
C530 C 0.96092 0.92072 0.09678 0.0
C531 C 0.94102 0.9179 0.015 0.0
C532 C 0.94835 0.8895 0.95286 0.0
C533 C 0.97443 0.86365 0.97435 0.0
C534 C 0.95394 0.95063 0.1647 0.0
C535 C 0.92841 0.88628 0.86392 0.0
H536 H 0.81707 0.95092 0.014 0.0
H537 H 0.90275 0.0298 0.89857 0.0
H538 H 0.86797 0.87336 0.02304 0.0
H539 H 0.87767 0.89569 0.12843 0.0
H540 H 0.83089 0.89442 0.08122 0.0
H541 H 0.96517 0.01526 0.87939 0.0
H542 H 0.97855 1e-05 0.9881 0.0
H543 H 0.97642 0.96737 0.89662 0.0
H544 H 0.00187 0.89672 0.17948 0.0
H545 H 0.97949 0.84154 0.92732 0.0
H546 H 0.92374 0.94771 0.1847 0.0
H547 H 0.96009 0.97914 0.13504 0.0
H548 H 0.97158 0.94885 0.22541 0.0
H549 H 0.89747 0.88064 0.87433 0.0
H550 H 0.93809 0.86335 0.8219 0.0
H551 H 0.93337 0.91339 0.82709 0.0
C552 C 0.0785 0.30654 0.06558 0.0
C553 C 0.04165 0.29814 0.09824 0.0
C554 C 0.1042 0.33307 0.10852 0.0
C555 C 0.09281 0.35174 0.18597 0.0
C556 C 0.05544 0.34397 0.21828 0.0
C557 C 0.03033 0.31726 0.17411 0.0
C558 C 0.14381 0.34059 0.07197 0.0
C559 C 0.04219 0.36337 0.3005 0.0
C560 C 0.16992 0.39007 0.34652 0.0
C561 C 0.1746 0.42852 0.32374 0.0
C562 C 0.14316 0.36489 0.30279 0.0
C563 C 0.12041 0.37846 0.23472 0.0
C564 C 0.12457 0.41733 0.21227 0.0
C565 C 0.15164 0.44189 0.25695 0.0
C566 C 0.1396 0.32363 0.32864 0.0
C567 C 0.10072 0.4329 0.14034 0.0
H568 H 0.08752 0.29196 0.00702 0.0
H569 H 0.00191 0.31102 0.19984 0.0
H570 H 0.15035 0.3712 0.05836 0.0
H571 H 0.1645 0.33254 0.12219 0.0
H572 H 0.14786 0.32466 0.00953 0.0
H573 H 0.01184 0.3553 0.31501 0.0
H574 H 0.05908 0.35599 0.35904 0.0
H575 H 0.04664 0.3945 0.29223 0.0
H576 H 0.1875 0.37945 0.39799 0.0
H577 H 0.15497 0.47156 0.239 0.0
H578 H 0.14607 0.30616 0.27032 0.0
H579 H 0.11015 0.31452 0.34923 0.0
H580 H 0.1589 0.31772 0.38407 0.0
H581 H 0.10601 0.41921 0.07565 0.0
H582 H 0.10671 0.46398 0.13248 0.0
H583 H 0.07029 0.42634 0.15601 0.0
C584 C 0.49323 0.60758 0.64358 0.0
C585 C 0.4917 0.64082 0.59385 0.0
C586 C 0.52024 0.5824 0.62483 0.0
C587 C 0.54673 0.59093 0.55553 0.0
C588 C 0.54517 0.62427 0.50456 0.0
C589 C 0.51754 0.64872 0.52401 0.0
C590 C 0.52095 0.54721 0.68094 0.0
C591 C 0.57299 0.63434 0.43019 0.0
C592 C 0.63865 0.5445 0.5611 0.0
C593 C 0.6314 0.51524 0.49884 0.0
C594 C 0.61131 0.56932 0.58045 0.0
C595 C 0.57602 0.56489 0.53604 0.0
C596 C 0.56855 0.53542 0.47326 0.0
C597 C 0.59618 0.51077 0.45595 0.0
C598 C 0.62029 0.60046 0.64779 0.0
C599 C 0.53131 0.52986 0.42444 0.0
H600 H 0.47343 0.60126 0.69776 0.0
H601 H 0.51669 0.67442 0.4855 0.0
H602 H 0.52607 0.52248 0.63916 0.0
H603 H 0.54443 0.55143 0.72974 0.0
H604 H 0.49415 0.54061 0.7184 0.0
H605 H 0.56785 0.66122 0.39658 0.0
H606 H 0.60221 0.6371 0.45702 0.0
H607 H 0.57129 0.61145 0.37967 0.0
H608 H 0.66579 0.54817 0.59452 0.0
H609 H 0.5903 0.4883 0.40761 0.0
H610 H 0.5997 0.5973 0.70352 0.0
H611 H 0.61762 0.62834 0.61641 0.0
H612 H 0.64925 0.60042 0.6756 0.0
H613 H 0.50833 0.52152 0.47263 0.0
H614 H 0.53135 0.50787 0.37188 0.0
H615 H 0.52471 0.55665 0.39283 0.0
loop_
_geom_bond_atom_site_label_1
_geom_bond_atom_site_label_2
_geom_bond_distance
_geom_bond_site_symmetry_2
_ccdc_geom_bond_type
C0 O1 1.160 . S
C0 O7 1.185 . S
O1 C0 1.160 . S
O2 Zn3 1.899 . S
O2 C10 1.284 . S
Zn3 O2 1.899 . S
Zn3 O4 2.032 . S
Zn3 O7 2.086 . S
Zn3 O12 1.977 . S
O4 Zn3 2.032 . S
O4 C8 1.278 . S
C5 O6 1.203 . S
C5 O12 1.267 . S
O6 C5 1.203 . S
O7 C0 1.185 . S
O7 Zn3 2.086 . S
C8 O4 1.278 . S
C8 O9 1.211 . S
O9 C8 1.211 . S
C10 O2 1.284 . S
C10 O11 1.273 . S
O11 C10 1.273 . S
O12 Zn3 1.977 . S
O12 C5 1.267 . S
C13 O14 1.160 . S
C13 O20 1.185 . S
O14 C13 1.160 . S
O15 Zn16 1.899 . S
O15 C23 1.284 . S
Zn16 O15 1.899 . S
Zn16 O17 2.032 . S
Zn16 O20 2.086 . S
Zn16 O25 1.977 . S
O17 Zn16 2.032 . S
O17 C21 1.278 . S
C18 O19 1.203 . S
C18 O25 1.267 . S
O19 C18 1.203 . S
O20 C13 1.185 . S
O20 Zn16 2.086 . S
C21 O17 1.278 . S
C21 O22 1.211 . S
O22 C21 1.211 . S
C23 O15 1.284 . S
C23 O24 1.273 . S
O24 C23 1.273 . S
O25 Zn16 1.977 . S
O25 C18 1.267 . S
C26 O27 1.160 1_554 S
C26 O33 1.185 . S
O27 C26 1.160 1_556 S
O28 Zn29 1.899 . S
O28 C36 1.284 . S
Zn29 O28 1.899 . S
Zn29 O30 2.032 . S
Zn29 O33 2.086 1_556 S
Zn29 O38 1.977 . S
O30 Zn29 2.032 . S
O30 C34 1.278 1_565 S
C31 O32 1.201 1_545 S
C31 O38 1.259 1_545 S
O32 C31 1.201 1_565 S
O33 C26 1.185 . S
O33 Zn29 2.086 1_554 S
C34 O30 1.278 1_545 S
C34 O35 1.211 . S
O35 C34 1.211 . S
C36 O28 1.284 . S
C36 O37 1.273 . S
O37 C36 1.273 . S
O38 Zn29 1.977 . S
O38 C31 1.259 1_565 S
C39 O40 1.160 1_556 S
C39 O46 1.185 . S
O40 C39 1.160 1_554 S
O41 Zn42 1.899 . S
O41 C49 1.284 . S
Zn42 O41 1.899 . S
Zn42 O43 2.032 . S
Zn42 O46 2.086 1_554 S
Zn42 O51 1.977 . S
O43 Zn42 2.032 . S
O43 C47 1.278 1_455 S
C44 O45 1.201 1_655 S
C44 O51 1.259 1_655 S
O45 C44 1.201 1_455 S
O46 C39 1.185 . S
O46 Zn42 2.086 1_556 S
C47 O43 1.278 1_655 S
C47 O48 1.211 . S
O48 C47 1.211 . S
C49 O41 1.284 . S
C49 O50 1.273 . S
O50 C49 1.273 . S
O51 Zn42 1.977 . S
O51 C44 1.259 1_455 S
C52 O53 1.160 1_554 S
C52 O59 1.185 . S
O53 C52 1.160 1_556 S
O54 Zn55 1.899 . S
O54 C62 1.284 . S
Zn55 O54 1.899 . S
Zn55 O56 2.032 . S
Zn55 O59 2.086 1_556 S
Zn55 O64 1.977 . S
O56 Zn55 2.032 . S
O56 C60 1.278 1_545 S
C57 O58 1.201 1_565 S
C57 O64 1.259 1_565 S
O58 C57 1.201 1_545 S
O59 C52 1.185 . S
O59 Zn55 2.086 1_554 S
C60 O56 1.278 1_565 S
C60 O61 1.211 . S
O61 C60 1.211 . S
C62 O54 1.284 . S
C62 O63 1.273 . S
O63 C62 1.273 . S
O64 Zn55 1.977 . S
O64 C57 1.259 1_545 S
C65 O66 1.160 1_556 S
C65 O72 1.185 . S
O66 C65 1.160 1_554 S
O67 Zn68 1.899 . S
O67 C75 1.284 . S
Zn68 O67 1.899 . S
Zn68 O69 2.032 . S
Zn68 O72 2.086 1_554 S
Zn68 O77 1.977 . S
O69 Zn68 2.032 . S
O69 C73 1.278 1_655 S
C70 O71 1.201 1_455 S
C70 O77 1.259 1_455 S
O71 C70 1.201 1_655 S
O72 C65 1.185 . S
O72 Zn68 2.086 1_556 S
C73 O69 1.278 1_455 S
C73 O74 1.211 . S
O74 C73 1.211 . S
C75 O67 1.284 . S
C75 O76 1.273 . S
O76 C75 1.273 . S
O77 Zn68 1.977 . S
O77 C70 1.259 1_655 S
C78 O79 1.160 . S
C78 O85 1.185 . S
O79 C78 1.160 . S
O80 Zn81 1.899 . S
O80 C88 1.284 . S
Zn81 O80 1.899 . S
Zn81 O82 2.032 . S
Zn81 O85 2.086 . S
Zn81 O90 1.977 . S
O82 Zn81 2.032 . S
O82 C86 1.278 . S
C83 O84 1.203 . S
C83 O90 1.267 . S
O84 C83 1.203 . S
O85 C78 1.185 . S
O85 Zn81 2.086 . S
C86 O82 1.278 . S
C86 O87 1.211 . S
O87 C86 1.211 . S
C88 O80 1.284 . S
C88 O89 1.273 . S
O89 C88 1.273 . S
O90 Zn81 1.977 . S
O90 C83 1.267 . S
C91 O92 1.160 . S
C91 O98 1.185 . S
O92 C91 1.160 . S
O93 Zn94 1.899 . S
O93 C101 1.284 . S
Zn94 O93 1.899 . S
Zn94 O95 2.032 . S
Zn94 O98 2.086 . S
Zn94 O103 1.977 . S
O95 Zn94 2.032 . S
O95 C99 1.278 . S
C96 O97 1.203 . S
C96 O103 1.267 . S
O97 C96 1.203 . S
O98 C91 1.185 . S
O98 Zn94 2.086 . S
C99 O95 1.278 . S
C99 O100 1.211 . S
O100 C99 1.211 . S
C101 O93 1.284 . S
C101 O102 1.273 . S
O102 C101 1.273 . S
O103 Zn94 1.977 . S
O103 C96 1.267 . S
C104 C105 1.391 . S
C104 C106 1.394 . S
C104 H120 0.931 . S
C105 C104 1.391 . S
C105 C109 1.376 . S
C106 C104 1.394 . S
C106 C107 1.369 . S
C106 C110 1.531 . S
C107 C106 1.369 . S
C107 C108 1.410 . S
C107 C115 1.503 1_556 S
C108 C107 1.410 . S
C108 C109 1.392 . S
C108 C111 1.511 1_556 S
C109 C105 1.376 . S
C109 C108 1.392 . S
C109 H121 0.929 . S
C110 C106 1.531 . S
C110 H122 0.960 . S
C110 H123 0.962 . S
C110 H124 0.960 . S
C111 C108 1.511 1_554 S
C111 H125 0.961 . S
C111 H126 0.961 . S
C111 H127 0.961 . S
C112 C113 1.370 . S
C112 C114 1.363 . S
C112 H128 0.931 . S
C113 C112 1.370 . S
C113 C117 1.408 . S
C114 C112 1.363 . S
C114 C115 1.370 . S
C114 C118 1.524 . S
C115 C107 1.503 1_554 S
C115 C114 1.370 . S
C115 C116 1.403 . S
C116 C115 1.403 . S
C116 C117 1.404 . S
C116 C119 1.539 . S
C117 C113 1.408 . S
C117 C116 1.404 . S
C117 H129 0.930 . S
C118 C114 1.524 . S
C118 H130 0.956 1_554 S
C118 H131 0.961 . S
C118 H132 0.961 . S
C119 C116 1.539 . S
C119 H133 0.958 . S
C119 H134 0.961 . S
C119 H135 0.960 . S
H120 C104 0.931 . S
H121 C109 0.929 . S
H122 C110 0.960 . S
H123 C110 0.962 . S
H124 C110 0.960 . S
H125 C111 0.961 . S
H126 C111 0.961 . S
H127 C111 0.961 . S
H128 C112 0.931 . S
H129 C117 0.930 . S
H130 C118 0.956 1_556 S
H131 C118 0.961 . S
H132 C118 0.961 . S
H133 C119 0.958 . S
H134 C119 0.961 . S
H135 C119 0.960 . S
C136 C137 1.391 . S
C136 C138 1.394 . S
C136 H152 0.931 . S
C137 C136 1.391 . S
C137 C141 1.376 . S
C138 C136 1.394 . S
C138 C139 1.369 . S
C138 C142 1.531 . S
C139 C138 1.369 . S
C139 C140 1.410 . S
C139 C147 1.503 . S
C140 C139 1.410 . S
C140 C141 1.392 . S
C140 C143 1.511 . S
C141 C137 1.376 . S
C141 C140 1.392 . S
C141 H153 0.929 . S
C142 C138 1.531 . S
C142 H154 0.960 . S
C142 H155 0.962 . S
C142 H156 0.960 . S
C143 C140 1.511 . S
C143 H157 0.961 . S
C143 H158 0.961 . S
C143 H159 0.961 . S
C144 C145 1.370 . S
C144 C146 1.363 . S
C144 H160 0.931 . S
C145 C144 1.370 . S
C145 C149 1.408 . S
C146 C144 1.363 . S
C146 C147 1.370 . S
C146 C150 1.524 . S
C147 C139 1.503 . S
C147 C146 1.370 . S
C147 C148 1.403 . S
C148 C147 1.403 . S
C148 C149 1.404 . S
C148 C151 1.539 . S
C149 C145 1.408 . S
C149 C148 1.404 . S
C149 H161 0.930 . S
C150 C146 1.524 . S
C150 H162 0.956 . S
C150 H163 0.961 . S
C150 H164 0.961 . S
C151 C148 1.539 . S
C151 H165 0.958 . S
C151 H166 0.961 . S
C151 H167 0.960 . S
H152 C136 0.931 . S
H153 C141 0.929 . S
H154 C142 0.960 . S
H155 C142 0.962 . S
H156 C142 0.960 . S
H157 C143 0.961 . S
H158 C143 0.961 . S
H159 C143 0.961 . S
H160 C144 0.931 . S
H161 C149 0.930 . S
H162 C150 0.956 . S
H163 C150 0.961 . S
H164 C150 0.961 . S
H165 C151 0.958 . S
H166 C151 0.961 . S
H167 C151 0.960 . S
C168 C169 1.391 . S
C168 C170 1.394 . S
C168 H184 0.931 . S
C169 C168 1.391 . S
C169 C173 1.376 . S
C170 C168 1.394 . S
C170 C171 1.369 . S
C170 C174 1.531 . S
C171 C170 1.369 . S
C171 C172 1.410 . S
C171 C179 1.503 . S
C172 C171 1.410 . S
C172 C173 1.392 . S
C172 C175 1.511 . S
C173 C169 1.376 . S
C173 C172 1.392 . S
C173 H185 0.929 . S
C174 C170 1.531 . S
C174 H186 0.960 . S
C174 H187 0.962 . S
C174 H188 0.960 . S
C175 C172 1.511 . S
C175 H189 0.961 . S
C175 H190 0.961 . S
C175 H191 0.961 . S
C176 C177 1.370 . S
C176 C178 1.363 . S
C176 H192 0.931 . S
C177 C176 1.370 . S
C177 C181 1.408 . S
C178 C176 1.363 . S
C178 C179 1.370 . S
C178 C182 1.524 . S
C179 C171 1.503 . S
C179 C178 1.370 . S
C179 C180 1.403 . S
C180 C179 1.403 . S
C180 C181 1.404 . S
C180 C183 1.539 . S
C181 C177 1.408 . S
C181 C180 1.404 . S
C181 H193 0.930 . S
C182 C178 1.524 . S
C182 H194 0.956 . S
C182 H195 0.961 . S
C182 H196 0.961 . S
C183 C180 1.539 . S
C183 H197 0.958 . S
C183 H198 0.961 . S
C183 H199 0.960 . S
H184 C168 0.931 . S
H185 C173 0.929 . S
H186 C174 0.960 . S
H187 C174 0.962 . S
H188 C174 0.960 . S
H189 C175 0.961 . S
H190 C175 0.961 . S
H191 C175 0.961 . S
H192 C176 0.931 . S
H193 C181 0.930 . S
H194 C182 0.956 . S
H195 C182 0.961 . S
H196 C182 0.961 . S
H197 C183 0.958 . S
H198 C183 0.961 . S
H199 C183 0.960 . S
C200 C201 1.391 . S
C200 C202 1.394 . S
C200 H216 0.931 . S
C201 C200 1.391 . S
C201 C205 1.376 . S
C202 C200 1.394 . S
C202 C203 1.369 . S
C202 C206 1.531 . S
C203 C202 1.369 . S
C203 C204 1.410 . S
C203 C211 1.503 . S
C204 C203 1.410 . S
C204 C205 1.392 . S
C204 C207 1.511 . S
C205 C201 1.376 . S
C205 C204 1.392 . S
C205 H217 0.929 . S
C206 C202 1.531 . S
C206 H218 0.960 . S
C206 H219 0.962 . S
C206 H220 0.960 . S
C207 C204 1.511 . S
C207 H221 0.961 . S
C207 H222 0.961 . S
C207 H223 0.961 . S
C208 C209 1.370 . S
C208 C210 1.363 . S
C208 H224 0.931 . S
C209 C208 1.370 . S
C209 C213 1.408 . S
C210 C208 1.363 . S
C210 C211 1.370 . S
C210 C214 1.524 . S
C211 C203 1.503 . S
C211 C210 1.370 . S
C211 C212 1.403 . S
C212 C211 1.403 . S
C212 C213 1.404 . S
C212 C215 1.539 . S
C213 C209 1.408 . S
C213 C212 1.404 . S
C213 H225 0.930 . S
C214 C210 1.524 . S
C214 H226 0.956 . S
C214 H227 0.961 . S
C214 H228 0.961 . S
C215 C212 1.539 . S
C215 H229 0.958 . S
C215 H230 0.961 . S
C215 H231 0.960 . S
H216 C200 0.931 . S
H217 C205 0.929 . S
H218 C206 0.960 . S
H219 C206 0.962 . S
H220 C206 0.960 . S
H221 C207 0.961 . S
H222 C207 0.961 . S
H223 C207 0.961 . S
H224 C208 0.931 . S
H225 C213 0.930 . S
H226 C214 0.956 . S
H227 C214 0.961 . S
H228 C214 0.961 . S
H229 C215 0.958 . S
H230 C215 0.961 . S
H231 C215 0.960 . S
C232 C233 1.391 . S
C232 C234 1.394 . S
C232 H248 0.931 . S
C233 C232 1.391 . S
C233 C237 1.376 . S
C234 C232 1.394 . S
C234 C235 1.369 . S
C234 C238 1.531 . S
C235 C234 1.369 . S
C235 C236 1.410 . S
C235 C243 1.503 . S
C236 C235 1.410 . S
C236 C237 1.392 . S
C236 C239 1.511 . S
C237 C233 1.376 . S
C237 C236 1.392 . S
C237 H249 0.929 . S
C238 C234 1.531 . S
C238 H250 0.960 . S
C238 H251 0.962 . S
C238 H252 0.960 . S
C239 C236 1.511 . S
C239 H253 0.961 . S
C239 H254 0.961 . S
C239 H255 0.961 . S
C240 C241 1.370 . S
C240 C242 1.363 . S
C240 H256 0.931 . S
C241 C240 1.370 . S
C241 C245 1.408 . S
C242 C240 1.363 . S
C242 C243 1.370 . S
C242 C246 1.524 . S
C243 C235 1.503 . S
C243 C242 1.370 . S
C243 C244 1.403 . S
C244 C243 1.403 . S
C244 C245 1.404 . S
C244 C247 1.539 . S
C245 C241 1.408 . S
C245 C244 1.404 . S
C245 H257 0.930 . S
C246 C242 1.524 . S
C246 H258 0.956 . S
C246 H259 0.961 . S
C246 H260 0.961 . S
C247 C244 1.539 . S
C247 H261 0.958 . S
C247 H262 0.961 . S
C247 H263 0.960 . S
H248 C232 0.931 . S
H249 C237 0.929 . S
H250 C238 0.960 . S
H251 C238 0.962 . S
H252 C238 0.960 . S
H253 C239 0.961 . S
H254 C239 0.961 . S
H255 C239 0.961 . S
H256 C240 0.931 . S
H257 C245 0.930 . S
H258 C246 0.956 . S
H259 C246 0.961 . S
H260 C246 0.961 . S
H261 C247 0.958 . S
H262 C247 0.961 . S
H263 C247 0.960 . S
C264 C265 1.391 . S
C264 C266 1.394 . S
C264 H280 0.931 . S
C265 C264 1.391 . S
C265 C269 1.376 . S
C266 C264 1.394 . S
C266 C267 1.369 . S
C266 C270 1.531 . S
C267 C266 1.369 . S
C267 C268 1.410 . S
C267 C275 1.503 . S
C268 C267 1.410 . S
C268 C269 1.392 . S
C268 C271 1.511 . S
C269 C265 1.376 . S
C269 C268 1.392 . S
C269 H281 0.929 . S
C270 C266 1.531 . S
C270 H282 0.960 . S
C270 H283 0.962 . S
C270 H284 0.960 . S
C271 C268 1.511 . S
C271 H285 0.961 . S
C271 H286 0.961 . S
C271 H287 0.961 . S
C272 C273 1.370 . S
C272 C274 1.363 . S
C272 H288 0.931 . S
C273 C272 1.370 . S
C273 C277 1.408 . S
C274 C272 1.363 . S
C274 C275 1.370 . S
C274 C278 1.524 . S
C275 C267 1.503 . S
C275 C274 1.370 . S
C275 C276 1.403 . S
C276 C275 1.403 . S
C276 C277 1.404 . S
C276 C279 1.539 . S
C277 C273 1.408 . S
C277 C276 1.404 . S
C277 H289 0.930 . S
C278 C274 1.524 . S
C278 H290 0.956 . S
C278 H291 0.961 . S
C278 H292 0.961 . S
C279 C276 1.539 . S
C279 H293 0.958 . S
C279 H294 0.961 . S
C279 H295 0.960 . S
H280 C264 0.931 . S
H281 C269 0.929 . S
H282 C270 0.960 . S
H283 C270 0.962 . S
H284 C270 0.960 . S
H285 C271 0.961 . S
H286 C271 0.961 . S
H287 C271 0.961 . S
H288 C272 0.931 . S
H289 C277 0.930 . S
H290 C278 0.956 . S
H291 C278 0.961 . S
H292 C278 0.961 . S
H293 C279 0.958 . S
H294 C279 0.961 . S
H295 C279 0.960 . S
C296 C297 1.391 . S
C296 C298 1.394 . S
C296 H312 0.931 . S
C297 C296 1.391 . S
C297 C301 1.376 . S
C298 C296 1.394 . S
C298 C299 1.369 . S
C298 C302 1.531 . S
C299 C298 1.369 . S
C299 C300 1.410 . S
C299 C307 1.503 1_554 S
C300 C299 1.410 . S
C300 C301 1.392 . S
C300 C303 1.511 . S
C301 C297 1.376 . S
C301 C300 1.392 . S
C301 H313 0.929 . S
C302 C298 1.531 . S
C302 H314 0.960 1_554 S
C302 H315 0.962 . S
C302 H316 0.960 . S
C303 C300 1.511 . S
C303 H317 0.961 . S
C303 H318 0.961 . S
C303 H319 0.961 1_554 S
C304 C305 1.370 . S
C304 C306 1.363 . S
C304 H320 0.931 . S
C305 C304 1.370 . S
C305 C309 1.408 . S
C306 C304 1.363 . S
C306 C307 1.370 . S
C306 C310 1.524 1_556 S
C307 C299 1.503 1_556 S
C307 C306 1.370 . S
C307 C308 1.403 . S
C308 C307 1.403 . S
C308 C309 1.404 . S
C308 C311 1.539 . S
C309 C305 1.408 . S
C309 C308 1.404 . S
C309 H321 0.930 . S
C310 C306 1.524 1_554 S
C310 H322 0.956 . S
C310 H323 0.961 . S
C310 H324 0.961 . S
C311 C308 1.539 . S
C311 H325 0.958 . S
C311 H326 0.961 . S
C311 H327 0.960 . S
H312 C296 0.931 . S
H313 C301 0.929 . S
H314 C302 0.960 1_556 S
H315 C302 0.962 . S
H316 C302 0.960 . S
H317 C303 0.961 . S
H318 C303 0.961 . S
H319 C303 0.961 1_556 S
H320 C304 0.931 . S
H321 C309 0.930 . S
H322 C310 0.956 . S
H323 C310 0.961 . S
H324 C310 0.961 . S
H325 C311 0.958 . S
H326 C311 0.961 . S
H327 C311 0.960 . S
C328 C329 1.391 . S
C328 C330 1.394 . S
C328 H344 0.931 . S
C329 C328 1.391 . S
C329 C333 1.376 . S
C330 C328 1.394 . S
C330 C331 1.369 . S
C330 C334 1.531 . S
C331 C330 1.369 . S
C331 C332 1.410 . S
C331 C339 1.503 . S
C332 C331 1.410 . S
C332 C333 1.392 . S
C332 C335 1.511 . S
C333 C329 1.376 . S
C333 C332 1.392 . S
C333 H345 0.929 . S
C334 C330 1.531 . S
C334 H346 0.960 . S
C334 H347 0.962 . S
C334 H348 0.960 . S
C335 C332 1.511 . S
C335 H349 0.961 . S
C335 H350 0.961 . S
C335 H351 0.961 . S
C336 C337 1.370 . S
C336 C338 1.363 . S
C336 H352 0.931 . S
C337 C336 1.370 . S
C337 C341 1.408 . S
C338 C336 1.363 . S
C338 C339 1.370 . S
C338 C342 1.524 . S
C339 C331 1.503 . S
C339 C338 1.370 . S
C339 C340 1.403 . S
C340 C339 1.403 . S
C340 C341 1.404 . S
C340 C343 1.539 . S
C341 C337 1.408 . S
C341 C340 1.404 . S
C341 H353 0.930 . S
C342 C338 1.524 . S
C342 H354 0.956 . S
C342 H355 0.961 . S
C342 H356 0.961 . S
C343 C340 1.539 . S
C343 H357 0.958 . S
C343 H358 0.961 . S
C343 H359 0.960 . S
H344 C328 0.931 . S
H345 C333 0.929 . S
H346 C334 0.960 . S
H347 C334 0.962 . S
H348 C334 0.960 . S
H349 C335 0.961 . S
H350 C335 0.961 . S
H351 C335 0.961 . S
H352 C336 0.931 . S
H353 C341 0.930 . S
H354 C342 0.956 . S
H355 C342 0.961 . S
H356 C342 0.961 . S
H357 C343 0.958 . S
H358 C343 0.961 . S
H359 C343 0.960 . S
C360 C361 1.391 . S
C360 C362 1.394 . S
C360 H376 0.931 . S
C361 C360 1.391 . S
C361 C365 1.376 . S
C362 C360 1.394 . S
C362 C363 1.369 . S
C362 C366 1.531 . S
C363 C362 1.369 . S
C363 C364 1.410 . S
C363 C371 1.503 . S
C364 C363 1.410 . S
C364 C365 1.392 . S
C364 C367 1.511 . S
C365 C361 1.376 . S
C365 C364 1.392 . S
C365 H377 0.929 . S
C366 C362 1.531 . S
C366 H378 0.960 . S
C366 H379 0.962 . S
C366 H380 0.960 . S
C367 C364 1.511 . S
C367 H381 0.961 . S
C367 H382 0.961 . S
C367 H383 0.961 . S
C368 C369 1.370 . S
C368 C370 1.363 . S
C368 H384 0.931 . S
C369 C368 1.370 . S
C369 C373 1.408 . S
C370 C368 1.363 . S
C370 C371 1.370 . S
C370 C374 1.524 . S
C371 C363 1.503 . S
C371 C370 1.370 . S
C371 C372 1.403 . S
C372 C371 1.403 . S
C372 C373 1.404 . S
C372 C375 1.539 . S
C373 C369 1.408 . S
C373 C372 1.404 . S
C373 H385 0.930 . S
C374 C370 1.524 . S
C374 H386 0.956 . S
C374 H387 0.961 . S
C374 H388 0.961 . S
C375 C372 1.539 . S
C375 H389 0.958 . S
C375 H390 0.961 . S
C375 H391 0.960 . S
H376 C360 0.931 . S
H377 C365 0.929 . S
H378 C366 0.960 . S
H379 C366 0.962 . S
H380 C366 0.960 . S
H381 C367 0.961 . S
H382 C367 0.961 . S
H383 C367 0.961 . S
H384 C368 0.931 . S
H385 C373 0.930 . S
H386 C374 0.956 . S
H387 C374 0.961 . S
H388 C374 0.961 . S
H389 C375 0.958 . S
H390 C375 0.961 . S
H391 C375 0.960 . S
C392 C393 1.391 . S
C392 C394 1.394 . S
C392 H408 0.931 1_565 S
C393 C392 1.391 . S
C393 C397 1.376 . S
C394 C392 1.394 . S
C394 C395 1.369 . S
C394 C398 1.531 . S
C395 C394 1.369 . S
C395 C396 1.410 . S
C395 C403 1.503 . S
C396 C395 1.410 . S
C396 C397 1.392 . S
C396 C399 1.511 . S
C397 C393 1.376 . S
C397 C396 1.392 . S
C397 H409 0.929 . S
C398 C394 1.531 . S
C398 H410 0.960 . S
C398 H411 0.962 . S
C398 H412 0.960 . S
C399 C396 1.511 . S
C399 H413 0.961 . S
C399 H414 0.961 . S
C399 H415 0.961 . S
C400 C401 1.370 . S
C400 C402 1.363 . S
C400 H416 0.931 . S
C401 C400 1.370 . S
C401 C405 1.408 . S
C402 C400 1.363 . S
C402 C403 1.370 . S
C402 C406 1.524 . S
C403 C395 1.503 . S
C403 C402 1.370 . S
C403 C404 1.403 . S
C404 C403 1.403 . S
C404 C405 1.404 . S
C404 C407 1.539 . S
C405 C401 1.408 . S
C405 C404 1.404 . S
C405 H417 0.930 . S
C406 C402 1.524 . S
C406 H418 0.956 . S
C406 H419 0.961 . S
C406 H420 0.961 . S
C407 C404 1.539 . S
C407 H421 0.958 . S
C407 H422 0.961 . S
C407 H423 0.960 . S
H408 C392 0.931 1_545 S
H409 C397 0.929 . S
H410 C398 0.960 . S
H411 C398 0.962 . S
H412 C398 0.960 . S
H413 C399 0.961 . S
H414 C399 0.961 . S
H415 C399 0.961 . S
H416 C400 0.931 . S
H417 C405 0.930 . S
H418 C406 0.956 . S
H419 C406 0.961 . S
H420 C406 0.961 . S
H421 C407 0.958 . S
H422 C407 0.961 . S
H423 C407 0.960 . S
C424 C425 1.391 . S
C424 C426 1.394 . S
C424 H440 0.931 . S
C425 C424 1.391 . S
C425 C429 1.376 1_554 S
C426 C424 1.394 . S
C426 C427 1.369 . S
C426 C430 1.531 . S
C427 C426 1.369 . S
C427 C428 1.410 1_554 S
C427 C435 1.503 1_554 S
C428 C427 1.410 1_556 S
C428 C429 1.392 . S
C428 C431 1.511 . S
C429 C425 1.376 1_556 S
C429 C428 1.392 . S
C429 H441 0.929 . S
C430 C426 1.531 . S
C430 H442 0.960 . S
C430 H443 0.962 . S
C430 H444 0.960 . S
C431 C428 1.511 . S
C431 H445 0.961 . S
C431 H446 0.961 . S
C431 H447 0.961 . S
C432 C433 1.370 . S
C432 C434 1.363 1_556 S
C432 H448 0.931 1_556 S
C433 C432 1.370 . S
C433 C437 1.408 . S
C434 C432 1.363 1_554 S
C434 C435 1.370 1_554 S
C434 C438 1.524 . S
C435 C427 1.503 1_556 S
C435 C434 1.370 1_556 S
C435 C436 1.403 . S
C436 C435 1.403 . S
C436 C437 1.404 . S
C436 C439 1.539 . S
C437 C433 1.408 . S
C437 C436 1.404 . S
C437 H449 0.930 1_545 S
C438 C434 1.524 . S
C438 H450 0.956 . S
C438 H451 0.961 . S
C438 H452 0.961 . S
C439 C436 1.539 . S
C439 H453 0.958 . S
C439 H454 0.961 . S
C439 H455 0.960 . S
H440 C424 0.931 . S
H441 C429 0.929 . S
H442 C430 0.960 . S
H443 C430 0.962 . S
H444 C430 0.960 . S
H445 C431 0.961 . S
H446 C431 0.961 . S
H447 C431 0.961 . S
H448 C432 0.931 1_554 S
H449 C437 0.930 1_565 S
H450 C438 0.956 . S
H451 C438 0.961 . S
H452 C438 0.961 . S
H453 C439 0.958 . S
H454 C439 0.961 . S
H455 C439 0.960 . S
C456 C457 1.391 . S
C456 C458 1.394 . S
C456 H472 0.931 1_655 S
C457 C456 1.391 . S
C457 C461 1.376 . S
C458 C456 1.394 . S
C458 C459 1.369 . S
C458 C462 1.531 . S
C459 C458 1.369 . S
C459 C460 1.410 . S
C459 C467 1.503 . S
C460 C459 1.410 . S
C460 C461 1.392 . S
C460 C463 1.511 . S
C461 C457 1.376 . S
C461 C460 1.392 . S
C461 H473 0.929 . S
C462 C458 1.531 . S
C462 H474 0.960 . S
C462 H475 0.962 . S
C462 H476 0.960 . S
C463 C460 1.511 . S
C463 H477 0.961 . S
C463 H478 0.961 . S
C463 H479 0.961 . S
C464 C465 1.370 . S
C464 C466 1.363 . S
C464 H480 0.931 . S
C465 C464 1.370 . S
C465 C469 1.408 . S
C466 C464 1.363 . S
C466 C467 1.370 . S
C466 C470 1.524 . S
C467 C459 1.503 . S
C467 C466 1.370 . S
C467 C468 1.403 . S
C468 C467 1.403 . S
C468 C469 1.404 . S
C468 C471 1.539 . S
C469 C465 1.408 . S
C469 C468 1.404 . S
C469 H481 0.930 . S
C470 C466 1.524 . S
C470 H482 0.956 . S
C470 H483 0.961 . S
C470 H484 0.961 . S
C471 C468 1.539 . S
C471 H485 0.958 . S
C471 H486 0.961 . S
C471 H487 0.960 . S
H472 C456 0.931 1_455 S
H473 C461 0.929 . S
H474 C462 0.960 . S
H475 C462 0.962 . S
H476 C462 0.960 . S
H477 C463 0.961 . S
H478 C463 0.961 . S
H479 C463 0.961 . S
H480 C464 0.931 . S
H481 C469 0.930 . S
H482 C470 0.956 . S
H483 C470 0.961 . S
H484 C470 0.961 . S
H485 C471 0.958 . S
H486 C471 0.961 . S
H487 C471 0.960 . S
C488 C489 1.391 . S
C488 C490 1.394 . S
C488 H504 0.931 . S
C489 C488 1.391 . S
C489 C493 1.376 . S
C490 C488 1.394 . S
C490 C491 1.369 . S
C490 C494 1.531 . S
C491 C490 1.369 . S
C491 C492 1.410 . S
C491 C499 1.503 . S
C492 C491 1.410 . S
C492 C493 1.392 . S
C492 C495 1.511 . S
C493 C489 1.376 . S
C493 C492 1.392 . S
C493 H505 0.929 1_545 S
C494 C490 1.531 . S
C494 H506 0.960 . S
C494 H507 0.962 . S
C494 H508 0.960 . S
C495 C492 1.511 . S
C495 H509 0.961 . S
C495 H510 0.961 . S
C495 H511 0.961 . S
C496 C497 1.370 . S
C496 C498 1.363 . S
C496 H512 0.931 . S
C497 C496 1.370 . S
C497 C501 1.408 . S
C498 C496 1.363 . S
C498 C499 1.370 . S
C498 C502 1.524 . S
C499 C491 1.503 . S
C499 C498 1.370 . S
C499 C500 1.403 . S
C500 C499 1.403 . S
C500 C501 1.404 . S
C500 C503 1.539 . S
C501 C497 1.408 . S
C501 C500 1.404 . S
C501 H513 0.930 . S
C502 C498 1.524 . S
C502 H514 0.956 . S
C502 H515 0.961 . S
C502 H516 0.961 . S
C503 C500 1.539 . S
C503 H517 0.958 . S
C503 H518 0.961 . S
C503 H519 0.960 . S
H504 C488 0.931 . S
H505 C493 0.929 1_565 S
H506 C494 0.960 . S
H507 C494 0.962 . S
H508 C494 0.960 . S
H509 C495 0.961 . S
H510 C495 0.961 . S
H511 C495 0.961 . S
H512 C496 0.931 . S
H513 C501 0.930 . S
H514 C502 0.956 . S
H515 C502 0.961 . S
H516 C502 0.961 . S
H517 C503 0.958 . S
H518 C503 0.961 . S
H519 C503 0.960 . S
C520 C521 1.391 . S
C520 C522 1.394 . S
C520 H536 0.931 . S
C521 C520 1.391 . S
C521 C525 1.376 . S
C522 C520 1.394 . S
C522 C523 1.369 . S
C522 C526 1.531 . S
C523 C522 1.369 . S
C523 C524 1.410 . S
C523 C531 1.503 . S
C524 C523 1.410 . S
C524 C525 1.392 . S
C524 C527 1.511 . S
C525 C521 1.376 . S
C525 C524 1.392 . S
C525 H537 0.929 1_565 S
C526 C522 1.531 . S
C526 H538 0.960 . S
C526 H539 0.962 1_556 S
C526 H540 0.960 . S
C527 C524 1.511 . S
C527 H541 0.956 1_566 S
C527 H542 0.961 1_556 S
C527 H543 0.961 . S
C528 C529 1.370 . S
C528 C530 1.363 . S
C528 H544 0.931 . S
C529 C528 1.370 . S
C529 C533 1.408 1_554 S
C530 C528 1.363 . S
C530 C531 1.370 1_554 S
C530 C534 1.524 . S
C531 C523 1.503 . S
C531 C530 1.370 1_556 S
C531 C532 1.403 . S
C532 C531 1.403 . S
C532 C533 1.404 . S
C532 C535 1.539 . S
C533 C529 1.408 1_556 S
C533 C532 1.404 . S
C533 H545 0.930 . S
C534 C530 1.524 . S
C534 H546 0.956 . S
C534 H547 0.961 . S
C534 H548 0.961 . S
C535 C532 1.539 . S
C535 H549 0.958 . S
C535 H550 0.961 . S
C535 H551 0.960 . S
H536 C520 0.931 . S
H537 C525 0.929 1_545 S
H538 C526 0.960 . S
H539 C526 0.962 1_554 S
H540 C526 0.960 . S
H541 C527 0.956 1_544 S
H542 C527 0.961 1_554 S
H543 C527 0.961 . S
H544 C528 0.931 . S
H545 C533 0.930 . S
H546 C534 0.956 . S
H547 C534 0.961 . S
H548 C534 0.961 . S
H549 C535 0.958 . S
H550 C535 0.961 . S
H551 C535 0.960 . S
C552 C553 1.391 . S
C552 C554 1.394 . S
C552 H568 0.931 . S
C553 C552 1.391 . S
C553 C557 1.376 . S
C554 C552 1.394 . S
C554 C555 1.369 . S
C554 C558 1.531 . S
C555 C554 1.369 . S
C555 C556 1.410 . S
C555 C563 1.503 . S
C556 C555 1.410 . S
C556 C557 1.392 . S
C556 C559 1.511 . S
C557 C553 1.376 . S
C557 C556 1.392 . S
C557 H569 0.929 . S
C558 C554 1.531 . S
C558 H570 0.960 . S
C558 H571 0.962 . S
C558 H572 0.960 . S
C559 C556 1.511 . S
C559 H573 0.961 . S
C559 H574 0.961 . S
C559 H575 0.961 . S
C560 C561 1.370 . S
C560 C562 1.363 . S
C560 H576 0.931 . S
C561 C560 1.370 . S
C561 C565 1.408 . S
C562 C560 1.363 . S
C562 C563 1.370 . S
C562 C566 1.524 . S
C563 C555 1.503 . S
C563 C562 1.370 . S
C563 C564 1.403 . S
C564 C563 1.403 . S
C564 C565 1.404 . S
C564 C567 1.539 . S
C565 C561 1.408 . S
C565 C564 1.404 . S
C565 H577 0.930 . S
C566 C562 1.524 . S
C566 H578 0.956 . S
C566 H579 0.961 . S
C566 H580 0.961 . S
C567 C564 1.539 . S
C567 H581 0.958 . S
C567 H582 0.961 . S
C567 H583 0.960 . S
H568 C552 0.931 . S
H569 C557 0.929 . S
H570 C558 0.960 . S
H571 C558 0.962 . S
H572 C558 0.960 . S
H573 C559 0.961 . S
H574 C559 0.961 . S
H575 C559 0.961 . S
H576 C560 0.931 . S
H577 C565 0.930 . S
H578 C566 0.956 . S
H579 C566 0.961 . S
H580 C566 0.961 . S
H581 C567 0.958 . S
H582 C567 0.961 . S
H583 C567 0.960 . S
C584 C585 1.391 . S
C584 C586 1.394 . S
C584 H600 0.931 . S
C585 C584 1.391 . S
C585 C589 1.376 . S
C586 C584 1.394 . S
C586 C587 1.369 . S
C586 C590 1.531 . S
C587 C586 1.369 . S
C587 C588 1.410 . S
C587 C595 1.503 . S
C588 C587 1.410 . S
C588 C589 1.392 . S
C588 C591 1.511 . S
C589 C585 1.376 . S
C589 C588 1.392 . S
C589 H601 0.929 . S
C590 C586 1.531 . S
C590 H602 0.960 . S
C590 H603 0.962 . S
C590 H604 0.960 . S
C591 C588 1.511 . S
C591 H605 0.961 . S
C591 H606 0.961 . S
C591 H607 0.961 . S
C592 C593 1.370 . S
C592 C594 1.363 . S
C592 H608 0.931 . S
C593 C592 1.370 . S
C593 C597 1.408 . S
C594 C592 1.363 . S
C594 C595 1.370 . S
C594 C598 1.524 . S
C595 C587 1.503 . S
C595 C594 1.370 . S
C595 C596 1.403 . S
C596 C595 1.403 . S
C596 C597 1.404 . S
C596 C599 1.539 . S
C597 C593 1.408 . S
C597 C596 1.404 . S
C597 H609 0.930 . S
C598 C594 1.524 . S
C598 H610 0.956 . S
C598 H611 0.961 . S
C598 H612 0.961 . S
C599 C596 1.539 . S
C599 H613 0.958 . S
C599 H614 0.961 . S
C599 H615 0.960 . S
H600 C584 0.931 . S
H601 C589 0.929 . S
H602 C590 0.960 . S
H603 C590 0.962 . S
H604 C590 0.960 . S
H605 C591 0.961 . S
H606 C591 0.961 . S
H607 C591 0.961 . S
H608 C592 0.931 . S
H609 C597 0.930 . S
H610 C598 0.956 . S
H611 C598 0.961 . S
H612 C598 0.961 . S
H613 C599 0.958 . S
H614 C599 0.961 . S
H615 C599 0.960 . S
C105 C23 1.367 . S
C113 C10 1.382 . S
C137 C13 1.403 . S
C145 C26 1.399 . S
C169 C49 1.395 . S
C177 C36 1.372 . S
C201 C39 1.376 . S
C209 C0 1.394 . S
C233 C62 1.357 . S
C241 C75 1.387 . S
C265 C65 1.395 . S
C273 C78 1.388 . S
C297 C88 1.357 . S
C305 C101 1.389 . S
C329 C52 1.403 . S
C337 C91 1.389 . S
C361 C5 1.407 . S
C369 C96 1.439 . S
C393 C60 1.428 . S
C401 C21 1.423 . S
C425 C70 1.446 . S
C433 C31 1.435 . S
C457 C47 1.438 . S
C465 C86 1.427 . S
C489 C34 1.440 . S
C497 C99 1.444 . S
C521 C57 1.408 . S
C529 C44 1.452 . S
C553 C73 1.448 . S
C561 C8 1.445 . S
C585 C18 1.446 . S
C593 C83 1.421 . S
