# Generated by pormake.
# Topology sxc, (6)-cn, num edge types: 1
# Building blocks:
#     Node 0, Type 0, BuildingBlock: PAMTUU_clean_sbu_0, # of connection points: 6
#     Node 1, Type 0, BuildingBlock: PAMTUU_clean_sbu_0, # of connection points: 6
#     Node 2, Type 0, BuildingBlock: PAMTUU_clean_sbu_0, # of connection points: 6
#     Edge 3, Type (0, 0), BuildingBlock: UVAHIK_clean_linker_0, # of connection points: 2
#     Edge 4, Type (0, 0), BuildingBlock: UVAHIK_clean_linker_0, # of connection points: 2
#     Edge 5, Type (0, 0), BuildingBlock: UVAHIK_clean_linker_0, # of connection points: 2
#     Edge 6, Type (0, 0), BuildingBlock: UVAHIK_clean_linker_0, # of connection points: 2
#     Edge 7, Type (0, 0), BuildingBlock: UVAHIK_clean_linker_0, # of connection points: 2
#     Edge 8, Type (0, 0), BuildingBlock: UVAHIK_clean_linker_0, # of connection points: 2
#     Edge 9, Type (0, 0), BuildingBlock: UVAHIK_clean_linker_0, # of connection points: 2
#     Edge 10, Type (0, 0), BuildingBlock: UVAHIK_clean_linker_0, # of connection points: 2
#     Edge 11, Type (0, 0), BuildingBlock: UVAHIK_clean_linker_0, # of connection points: 2
# Relax obj value: 0.227
# Max RMSD: 0.108
# Mean RMSD: 0.086
data_MOF--net-sxc--node1-PAMTUU_clean_sbu_0--edge1-UVAHIK_clean_linker_0
_symmetry_space_group_name_H-M    P1
_symmetry_Int_Tables_number       1
_symmetry_cell_setting            triclinic
loop_
_symmetry_equiv_pos_as_xyz
'x, y, z'
_cell_length_a     27.750164
_cell_length_b     20.34694
_cell_length_c     59.416117
_cell_angle_alpha  86.553038
_cell_angle_beta   98.31951
_cell_angle_gamma 126.76172
loop_
_atom_site_label
_atom_site_type_symbol
_atom_site_fract_x
_atom_site_fract_y
_atom_site_fract_z
_atom_type_partial_charge
Tb0 Tb 1.01515 1.02336 0.9689 0.0
Tb1 Tb 0.16067 0.13976 0.98056 0.0
C2 C 0.09978 0.08738 0.93025 0.0
C3 C 0.86267 0.95336 0.97313 0.0
C4 C 0.79911 0.97462 0.00118 0.0
C5 C 0.8444 1.04163 -0.01004 0.0
C6 C 0.87622 1.03123 0.97615 0.0
C7 C 0.81583 0.88593 -0.01636 0.0
C8 C 0.78438 0.89644 -0.00244 0.0
C9 C 0.90174 0.94384 0.96154 0.0
O10 O 1.03921 0.94031 0.96354 0.0
O11 O 0.13453 1.01384 -0.01587 0.0
O12 O 0.12635 0.14012 0.01116 0.0
O13 O 1.03289 1.01731 0.00555 0.0
O14 O 0.24667 0.24074 0.97347 0.0
O15 O 0.23694 0.17104 0.00355 0.0
O16 O 0.13582 0.22336 0.97056 0.0
O17 O 1.03927 0.14296 0.9794 0.0
O18 O 1.0502 1.0704 0.93665 0.0
O19 O 0.145 0.10145 0.94521 0.0
C20 C 0.08671 0.9447 0.9738 0.0
O21 O 0.93842 1.00479 0.94931 0.0
O22 O 0.92905 0.9175 0.97418 0.0
C23 C 0.0778 1.07794 0.0191 0.0
C24 C 0.30243 0.31383 0.00778 0.0
C25 C 0.35751 0.45919 0.0338 0.0
C26 C 0.39293 0.43821 0.02639 0.0
C27 C 0.36551 0.3659 0.01349 0.0
C28 C 0.26692 0.33361 0.01552 0.0
C29 C 0.29411 0.40539 0.02846 0.0
C30 C 0.2726 0.23946 -0.00653 0.0
C31 C 0.08749 0.21573 0.97495 0.0
H32 H 0.85647 0.10239 -0.00758 0.0
H33 H 0.91255 0.08467 0.96841 0.0
H34 H 0.80484 0.82557 0.98165 0.0
H35 H 0.74866 0.84333 0.00564 0.0
H36 H 0.44202 0.4791 0.02983 0.0
H37 H 0.39353 0.35157 0.00762 0.0
H38 H 0.21805 0.29419 0.01122 0.0
H39 H 0.26554 0.41931 0.034 0.0
Tb40 Tb 0.1208 0.16743 0.30915 0.0
Tb41 Tb 0.97476 1.04538 0.30107 0.0
C42 C 1.04697 0.11424 0.34963 0.0
C43 C 0.27757 0.23517 0.31848 0.0
C44 C 0.34954 0.17922 0.32672 0.0
C45 C 0.3683 0.2527 0.3372 0.0
C46 C 0.33247 0.28037 0.33311 0.0
C47 C 0.25969 0.16351 0.30733 0.0
C48 C 0.29557 0.136 0.31131 0.0
C49 C 0.2349 0.25527 0.31786 0.0
O50 O 0.0963 1.04283 0.31533 0.0
O51 O 1.00209 0.96753 0.2944 0.0
O52 O 0.99997 1.07858 0.26692 0.0
O53 O 0.09912 0.12406 0.27402 0.0
O54 O 0.89487 0.93371 0.30844 0.0
O55 O 0.89134 1.01756 0.28559 0.0
O56 O 0.99802 0.16763 0.30842 0.0
O57 O 0.09464 0.24922 0.29895 0.0
O58 O 0.09077 0.17675 0.33973 0.0
O59 O 1.00192 1.04862 0.33759 0.0
C60 C 1.04971 0.97309 0.30487 0.0
O61 O 0.20599 0.25106 0.29798 0.0
O62 O 0.1985 0.21904 0.33322 0.0
C63 C 1.05016 0.10023 0.2598 0.0
C64 C 0.81641 0.94554 0.30951 0.0
C65 C 0.73355 0.94753 0.33099 0.0
C66 C 0.7135 0.8974 0.31141 0.0
C67 C 0.75476 0.89656 0.30072 0.0
C68 C 0.83636 0.99304 0.32956 0.0
C69 C 0.79518 0.99387 0.34026 0.0
C70 C 0.8603 0.95105 0.297 0.0
C71 C 1.04573 0.24042 0.30331 0.0
H72 H 0.40924 0.28689 0.34935 0.0
H73 H 0.34623 0.33498 0.34216 0.0
H74 H 0.21684 0.12712 0.29623 0.0
H75 H 0.28038 1.07994 0.30269 0.0
H76 H 0.66649 0.86197 0.30368 0.0
H77 H 0.73886 0.8598 0.28521 0.0
H78 H 0.88402 1.0312 0.33654 0.0
H79 H 0.81181 1.03245 0.35544 0.0
Tb80 Tb 0.10234 0.21116 0.64122 0.0
Tb81 Tb 0.12813 0.08467 0.64266 0.0
C82 C 0.10798 0.14882 0.59559 0.0
C83 C 1.03841 0.31852 0.65118 0.0
C84 C 0.93328 0.29491 0.6612 0.0
C85 C 0.96857 0.35428 0.64568 0.0
C86 C 1.0208 0.36589 0.6407 0.0
C87 C 1.00509 0.26225 0.66753 0.0
C88 C 0.95315 0.25091 0.6726 0.0
C89 C 0.08644 0.3203 0.643 0.0
O90 O 1.00225 0.09412 0.64115 0.0
O91 O 1.0215 0.9998 0.64243 0.0
O92 O 0.15287 0.13196 0.67752 0.0
O93 O 0.08545 0.16021 0.67481 0.0
O94 O 0.12118 0.99019 0.62619 0.0
O95 O 0.15348 1.0175 0.66197 0.0
O96 O 0.22795 0.20111 0.64196 0.0
O97 O 0.209 0.29542 0.64148 0.0
O98 O 0.08374 0.1759 0.60555 0.0
O99 O 0.13663 0.12302 0.60761 0.0
C100 C 0.97906 1.01372 0.64176 0.0
O101 O 0.12149 0.31315 0.6584 0.0
O102 O 0.06856 0.27323 0.62511 0.0
C103 C 0.12017 0.1451 0.68734 0.0
C104 C 0.20423 0.98971 0.64099 0.0
C105 C 0.32112 1.03184 0.64178 0.0
C106 C 0.27944 0.9666 0.65464 0.0
C107 C 0.22137 0.94584 0.65427 0.0
C108 C 0.24468 1.05211 0.62727 0.0
C109 C 0.30253 1.07274 0.62759 0.0
C110 C 0.14859 0.97923 0.64405 0.0
C111 C 0.2513 0.28149 0.6417 0.0
H112 H 0.95404 0.38845 0.63644 0.0
H113 H 1.04577 0.40898 0.62788 0.0
H114 H 1.01776 0.22462 0.67571 0.0
H115 H 0.92734 0.20558 0.68486 0.0
H116 H 0.29271 0.93449 0.66588 0.0
H117 H 0.19095 0.89829 0.66518 0.0
H118 H 0.23257 0.08734 0.61704 0.0
H119 H 0.33336 0.12242 0.61725 0.0
C120 C 1.03836 0.28572 0.98132 0.0
C121 C 0.08757 0.29061 0.97504 0.0
C122 C 1.03832 0.35531 0.9813 0.0
C123 C 0.14163 0.58928 0.9784 0.0
H124 H 0.98904 0.56059 0.96789 0.0
C125 C 0.1335 0.86947 -0.01334 0.0
C126 C 0.08665 0.86974 0.97379 0.0
C127 C 0.13346 0.79981 -0.01313 0.0
C128 C 1.03247 0.57082 0.97063 0.0
H129 H 0.17575 0.37552 0.96381 0.0
H130 H 0.17532 0.4951 0.96326 0.0
H131 H 0.98938 0.44154 0.96754 0.0
H132 H 1.00288 0.79406 0.9508 0.0
H133 H 1.00337 0.67455 0.95065 0.0
H134 H 0.18484 0.71873 0.9807 0.0
C135 C 0.13672 0.43781 0.96867 0.0
C136 C 1.03265 0.50132 0.9708 0.0
C137 C 0.13685 0.36828 0.96881 0.0
C138 C 1.03982 0.79717 0.96106 0.0
C139 C 1.03995 0.7276 0.96113 0.0
C140 C 0.14146 0.6588 0.97812 0.0
C141 C 0.08743 0.43324 0.9749 0.0
C142 C 0.08722 0.5086 0.97471 0.0
C143 C 0.08675 0.72696 0.97407 0.0
C144 C 0.08689 0.65153 0.97426 0.0
H145 H 0.99959 0.22783 -0.01356 0.0
H146 H 0.99969 0.34771 -0.01332 0.0
H147 H 0.18497 0.59935 0.98181 0.0
H148 H 0.1704 0.92327 -0.00314 0.0
H149 H 0.17005 0.80316 -0.00252 0.0
C150 C 0.35455 1.0612 0.33548 0.0
C151 C 0.38466 0.1459 0.3326 0.0
C152 C 0.38751 1.02965 0.34099 0.0
C153 C 0.53902 0.08756 0.36431 0.0
H154 H 0.49625 0.90903 0.3253 0.0
C155 C 0.7107 1.03755 0.34536 0.0
C156 C 0.69166 0.95827 0.34009 0.0
C157 C 0.66929 1.05009 0.35048 0.0
C158 C 0.50805 0.95742 0.33678 0.0
H159 H 0.47296 0.26382 0.33338 0.0
H160 H 0.53047 0.2087 0.34316 0.0
H161 H 0.43014 0.95128 0.32243 0.0
H162 H 0.61538 0.82924 0.33773 0.0
H163 H 0.54271 0.85114 0.34684 0.0
H164 H 0.61785 0.09526 0.37823 0.0
C165 C 0.48136 0.16696 0.34139 0.0
C166 C 0.47023 0.98183 0.33505 0.0
C167 C 0.44843 0.19847 0.33573 0.0
C168 C 0.63106 0.89116 0.34139 0.0
C169 C 0.58955 0.9037 0.3466 0.0
C170 C 0.57667 1.0628 0.36616 0.0
C171 C 0.4512 0.08223 0.34393 0.0
C172 C 0.48641 1.04882 0.34827 0.0
C173 C 0.60788 0.98361 0.3505 0.0
C174 C 0.56264 0.9993 0.35186 0.0
H175 H 0.30545 1.01924 0.33367 0.0
H176 H 0.36321 0.96416 0.34301 0.0
H177 H 0.55191 0.13849 0.37498 0.0
H178 H 0.75686 0.09066 0.34419 0.0
H179 H 0.68482 0.11257 0.35303 0.0
C180 C 0.8752 0.85033 0.6421 0.0
C181 C 0.90404 0.93794 0.64178 0.0
C182 C 0.80908 0.78384 0.6421 0.0
C183 C 0.63923 0.73017 0.64156 0.0
H184 H 0.57723 0.50255 0.64212 0.0
C185 C 0.35532 0.44487 0.64155 0.0
C186 C 0.32635 0.35721 0.64168 0.0
C187 C 0.42145 0.51131 0.64157 0.0
C188 C 0.59123 0.56488 0.64196 0.0
H189 H 0.8711 1.01158 0.64126 0.0
H190 H 0.76183 0.90178 0.64126 0.0
H191 H 0.68629 0.61217 0.64215 0.0
H192 H 0.35913 0.28344 0.64192 0.0
H193 H 0.46843 0.39317 0.64196 0.0
H194 H 0.54417 0.68289 0.64138 0.0
C195 C 0.79081 0.88264 0.6415 0.0
C196 C 0.65735 0.63134 0.64198 0.0
C197 C 0.8569 0.9491 0.64149 0.0
C198 C 0.37341 0.34596 0.64182 0.0
C199 C 0.43952 0.41239 0.64184 0.0
C200 C 0.57311 0.66372 0.64155 0.0
C201 C 0.76179 0.79486 0.64179 0.0
C202 C 0.68646 0.71913 0.64178 0.0
C203 C 0.46866 0.50021 0.64172 0.0
C204 C 0.54399 0.57593 0.64174 0.0
H205 H 0.90443 0.83156 0.64236 0.0
H206 H 0.79514 0.72153 0.64235 0.0
H207 H 0.65322 0.79251 0.6414 0.0
H208 H 0.32617 0.46372 0.64144 0.0
H209 H 0.43548 0.57366 0.64146 0.0
C210 C 0.82293 0.18978 0.66366 0.0
C211 C 0.87292 0.27284 0.66364 0.0
C212 C 0.7648 0.1677 0.66375 0.0
C213 C 0.67479 0.24351 0.64674 0.0
H214 H 0.5574 1.05937 0.6805 0.0
C215 C 0.43232 0.14601 0.6465 0.0
C216 C 0.38507 1.06135 0.64445 0.0
C217 C 0.49274 0.17443 0.64996 0.0
C218 C 0.5896 0.11046 0.67084 0.0
H219 H 0.90157 0.398 0.66452 0.0
H220 H 0.79947 0.35922 0.66468 0.0
H221 H 0.66255 0.10654 0.68602 0.0
H222 H 0.36399 0.94017 0.64408 0.0
H223 H 0.46989 0.98995 0.65007 0.0
H224 H 0.6017 0.24682 0.63136 0.0
C225 C 0.80544 0.31134 0.66437 0.0
C226 C 0.64975 0.13759 0.67405 0.0
C227 C 0.86377 0.3335 0.66431 0.0
C228 C 0.39948 1.00568 0.64582 0.0
C229 C 0.46001 1.03417 0.6493 0.0
C230 C 0.61464 0.21642 0.64355 0.0
C231 C 0.7553 0.22815 0.66377 0.0
C232 C 0.69279 0.2038 0.66184 0.0
C233 C 0.50719 0.11882 0.65149 0.0
C234 C 0.57134 0.14909 0.65539 0.0
H235 H 0.82825 0.1415 0.66267 0.0
H236 H 0.72697 0.10309 0.66288 0.0
H237 H 0.70673 0.29384 0.63683 0.0
H238 H 0.42263 0.1904 0.64598 0.0
H239 H 0.52814 0.23995 0.65189 0.0
C240 C 0.75555 0.94584 0.03743 0.0
C241 C 0.76636 0.98475 0.01653 0.0
C242 C 0.71371 0.9389 0.04971 0.0
C243 C 0.57081 0.90365 0.03233 0.0
H244 H 0.55024 0.8131 0.0924 0.0
C245 C 0.36642 0.58793 0.03853 0.0
C246 C 0.38713 0.54029 0.04515 0.0
C247 C 0.40189 0.67084 0.0452 0.0
C248 C 0.55484 0.83918 0.07572 0.0
H249 H 0.74874 1.05711 -0.00641 0.0
H250 H 0.67537 1.04536 0.01514 0.0
H251 H 0.65004 0.93225 0.08481 0.0
H252 H 0.45659 0.53884 0.06659 0.0
H253 H 0.51961 0.68343 0.07738 0.0
H254 H 0.47766 0.80689 0.02249 0.0
C255 C 0.69837 1.01878 0.02186 0.0
C256 C 0.61207 0.90749 0.07135 0.0
C257 C 0.74038 1.02558 0.00951 0.0
C258 C 0.44035 0.57464 0.06068 0.0
C259 C 0.47594 0.65752 0.06723 0.0
C260 C 0.51373 0.8359 0.03671 0.0
C261 C 0.6815 0.97053 0.04128 0.0
C262 C 0.62176 0.93425 0.04894 0.0
C263 C 0.45903 0.70783 0.05837 0.0
C264 C 0.5068 0.79776 0.05776 0.0
H265 H 0.77642 0.91586 0.04354 0.0
H266 H 0.70234 0.90124 0.06453 0.0
H267 H 0.57583 0.92332 0.01494 0.0
H268 H 0.32533 0.56327 0.02668 0.0
H269 H 0.38705 0.70753 0.03841 0.0
C270 C 0.0938 0.39214 0.29623 0.0
C271 C 1.04553 0.31518 0.30329 0.0
C272 C 0.09431 0.46212 0.29646 0.0
C273 C 0.9935 0.5288 0.30174 0.0
H274 H 0.14706 0.74544 0.30922 0.0
C275 C 1.0022 0.82522 0.29277 0.0
C276 C 1.05038 0.89875 0.3048 0.0
C277 C 1.00204 0.75556 0.29268 0.0
C278 C 0.10338 0.68578 0.30733 0.0
H279 H 0.95974 0.25406 0.31634 0.0
H280 H 0.96104 0.3749 0.31725 0.0
H281 H 0.14571 0.62487 0.30957 0.0
H282 H 0.13672 0.95429 0.32625 0.0
H283 H 0.13606 0.83359 0.32658 0.0
H284 H 0.95116 0.58948 0.3003 0.0
C285 C 0.9984 0.38155 0.31098 0.0
C286 C 0.1026 0.61552 0.30717 0.0
C287 C 0.99775 0.3114 0.31061 0.0
C288 C 0.09861 0.89952 0.31672 0.0
C289 C 0.09834 0.82958 0.31674 0.0
C290 C 0.99428 0.59901 0.30201 0.0
C291 C 1.04675 0.45889 0.30392 0.0
C292 C 1.04761 0.53506 0.3043 0.0
C293 C 1.04995 0.7556 0.30474 0.0
C294 C 1.04925 0.67949 0.30473 0.0
H295 H 0.13154 0.39856 0.29035 0.0
H296 H 0.13212 0.51877 0.29041 0.0
H297 H 0.94979 0.46929 0.29919 0.0
H298 H 0.96419 0.82127 0.2832 0.0
H299 H 0.96424 0.7018 0.28275 0.0
C300 C 0.10697 0.13624 0.22636 0.0
C301 C 1.05143 0.09674 0.23498 0.0
C302 C 0.10837 0.13371 0.20298 0.0
C303 C 1.01719 1.01401 0.14992 0.0
H304 H 0.13084 0.21506 0.12054 0.0
C305 C 1.01716 1.02508 0.05201 0.0
C306 C 0.07322 1.07813 0.04371 0.0
C307 C 1.01315 1.0269 0.0752 0.0
C308 C 0.09942 0.15794 0.12845 0.0
H309 H 0.95369 1.02261 0.22565 0.0
H310 H 0.95625 1.01727 0.18486 0.0
H311 H 0.12698 0.21843 0.1611 0.0
H312 H 0.16926 0.17368 0.05341 0.0
H313 H 0.1628 0.17489 0.09371 0.0
H314 H 0.99059 0.95287 0.11751 0.0
C315 C 0.99868 1.05046 0.19625 0.0
C316 C 0.09708 0.16009 0.15175 0.0
C317 C 0.99729 1.05395 0.21962 0.0
C318 C 0.12522 0.13237 0.05917 0.0
C319 C 0.12138 0.13347 0.08235 0.0
C320 C 1.02004 1.01159 0.12665 0.0
C321 C 1.05427 0.09068 0.18765 0.0
C322 C 1.05604 0.08818 0.16278 0.0
C323 C 0.06524 0.08117 0.09074 0.0
C324 C 0.06133 0.08354 0.11554 0.0
H325 H 0.14956 0.16983 0.23766 0.0
H326 H 0.1519 0.1647 0.19691 0.0
H327 H 0.98546 0.95739 0.15799 0.0
H328 H 0.9761 0.98296 0.04054 0.0
H329 H 0.96893 0.98656 0.08083 0.0
C330 C 0.10092 0.18582 0.38773 0.0
C331 C 1.04998 0.11772 0.37477 0.0
C332 C 0.10579 0.18825 0.41147 0.0
C333 C 1.01682 0.09811 0.45981 0.0
H334 H 0.17365 0.18238 0.49461 0.0
C335 C 0.0674 0.16777 0.55705 0.0
C336 C 0.10189 0.14598 0.57031 0.0
C337 C 0.06025 0.16308 0.53324 0.0
C338 C 0.12941 0.15812 0.48519 0.0
H339 H 0.96354 0.99932 0.37676 0.0
H340 H 0.97212 1.00354 0.41829 0.0
H341 H 0.16168 0.175 0.45318 0.0
H342 H 0.15612 0.10241 0.56874 0.0
H343 H 0.14362 0.09424 0.52727 0.0
H344 H 0.98446 1.08043 0.49189 0.0
C345 C 1.00823 1.05529 0.41 0.0
C346 C 0.12269 0.15473 0.46139 0.0
C347 C 1.00343 1.05269 0.38619 0.0
C348 C 0.12938 0.1199 0.55912 0.0
C349 C 0.12242 0.11555 0.5353 0.0
C350 C 1.02363 0.10186 0.48364 0.0
C351 C 1.05982 0.12278 0.42297 0.0
C352 C 0.06637 0.12494 0.44836 0.0
C353 C 0.08759 0.13681 0.52204 0.0
C354 C 0.08006 0.13205 0.49665 0.0
H355 H 0.13763 0.23724 0.37958 0.0
H356 H 0.14565 0.24183 0.42084 0.0
H357 H 0.97292 1.07535 0.45034 0.0
H358 H 1.04557 0.18818 0.56504 0.0
H359 H 1.03381 0.181 0.52361 0.0
C360 C 0.07967 0.14337 0.7227 0.0
C361 C 0.12113 0.14075 0.71245 0.0
C362 C 0.07921 0.13691 0.74627 0.0
C363 C 0.17272 0.16332 0.80081 0.0
H364 H 1.01724 1.02076 0.82323 0.0
C365 C 0.15243 0.09969 0.8972 0.0
C366 C 0.10455 0.09258 0.90548 0.0
C367 C 0.15592 0.1042 0.87375 0.0
C368 C 0.06111 1.06177 0.81735 0.0
H369 H 0.19535 0.13059 0.7191 0.0
H370 H 0.19481 0.12001 0.7603 0.0
H371 H 1.02097 1.03306 0.78242 0.0
H372 H 1.02341 0.08619 0.89546 0.0
H373 H 1.03025 0.09597 0.85503 0.0
H374 H 0.21286 0.1933 0.83575 0.0
C375 C 0.16266 0.12707 0.75005 0.0
C376 C 0.06318 1.06862 0.79388 0.0
C377 C 0.16275 0.13274 0.72642 0.0
C378 C 0.06066 0.09079 0.88977 0.0
C379 C 0.06437 0.09587 0.86644 0.0
C380 C 0.17065 0.15703 0.82434 0.0
C381 C 0.12053 0.12838 0.76025 0.0
C382 C 0.11893 0.11989 0.78529 0.0
C383 C 0.11178 0.10214 0.85802 0.0
C384 C 0.11471 0.10664 0.83296 0.0
H385 H 1.04704 0.14964 0.71251 0.0
H386 H 1.04667 0.13919 0.7536 0.0
H387 H 0.21641 0.20384 0.79475 0.0
H388 H 0.18695 0.10105 0.90879 0.0
H389 H 0.19276 0.1081 0.86794 0.0
loop_
_geom_bond_atom_site_label_1
_geom_bond_atom_site_label_2
_geom_bond_distance
_geom_bond_site_symmetry_2
_ccdc_geom_bond_type
Tb0 C9 2.764 . S
Tb0 O10 2.325 . S
Tb0 O13 2.303 1_666 S
Tb0 O17 2.322 1_565 S
Tb0 O18 2.349 1_565 S
Tb0 O21 2.415 1_556 S
Tb0 O22 2.399 . S
Tb1 O11 2.322 1_545 S
Tb1 O12 2.349 . S
Tb1 O14 2.415 1_554 S
Tb1 O15 2.399 . S
Tb1 O16 2.325 . S
Tb1 O19 2.303 1_554 S
Tb1 C30 2.764 . S
C2 O18 1.261 1_455 S
C2 O19 1.257 . S
C3 C6 1.358 . S
C3 C7 1.332 1_556 S
C3 C9 1.504 . S
C4 C5 1.361 1_554 S
C4 C8 1.317 . S
C5 C4 1.361 1_556 S
C5 C6 1.429 . S
C5 H32 0.932 . S
C6 C3 1.358 . S
C6 C5 1.429 . S
C6 H33 0.930 . S
C7 C3 1.332 1_554 S
C7 C8 1.394 . S
C7 H34 0.932 . S
C8 C4 1.317 . S
C8 C7 1.394 . S
C8 H35 0.929 . S
C9 Tb0 2.764 . S
C9 C3 1.504 . S
C9 O21 1.239 1_556 S
C9 O22 1.263 . S
O10 Tb0 2.325 . S
O10 C20 1.236 1_656 S
O11 Tb1 2.322 1_565 S
O11 C20 1.257 . S
O12 Tb1 2.349 . S
O12 C23 1.261 . S
O13 Tb0 2.303 1_444 S
O13 C23 1.257 . S
O14 Tb1 2.415 1_556 S
O14 C30 1.239 1_556 S
O15 Tb1 2.399 . S
O15 C30 1.263 . S
O16 Tb1 2.325 . S
O16 C31 1.236 . S
O17 Tb0 2.322 1_545 S
O17 C31 1.257 1_656 S
O18 Tb0 2.349 1_545 S
O18 C2 1.261 1_655 S
O19 Tb1 2.303 1_556 S
O19 C2 1.257 . S
C20 O10 1.236 1_454 S
C20 O11 1.257 . S
O21 Tb0 2.415 1_554 S
O21 C9 1.239 1_554 S
O22 Tb0 2.399 . S
O22 C9 1.263 . S
C23 O12 1.261 . S
C23 O13 1.257 . S
C24 C27 1.358 . S
C24 C28 1.332 1_554 S
C24 C30 1.504 . S
C25 C26 1.373 . S
C25 C29 1.308 1_554 S
C26 C25 1.373 . S
C26 C27 1.429 . S
C26 H36 0.932 . S
C27 C24 1.358 . S
C27 C26 1.429 . S
C27 H37 0.930 . S
C28 C24 1.332 1_556 S
C28 C29 1.394 . S
C28 H38 0.932 . S
C29 C25 1.308 1_556 S
C29 C28 1.394 . S
C29 H39 0.929 . S
C30 Tb1 2.764 . S
C30 O14 1.239 1_554 S
C30 O15 1.263 . S
C30 C24 1.504 . S
C31 O16 1.236 . S
C31 O17 1.257 1_454 S
H32 C5 0.932 . S
H33 C6 0.930 . S
H34 C7 0.932 . S
H35 C8 0.929 . S
H36 C26 0.932 . S
H37 C27 0.930 . S
H38 C28 0.932 . S
H39 C29 0.929 . S
Tb40 C49 2.764 . S
Tb40 O50 2.325 1_545 S
Tb40 O53 2.303 . S
Tb40 O57 2.322 . S
Tb40 O58 2.349 . S
Tb40 O61 2.415 . S
Tb40 O62 2.399 . S
Tb41 O51 2.322 . S
Tb41 O52 2.349 . S
Tb41 O54 2.415 . S
Tb41 O55 2.399 . S
Tb41 O56 2.325 1_565 S
Tb41 O59 2.303 . S
Tb41 C70 2.764 . S
C42 O58 1.261 . S
C42 O59 1.257 1_445 S
C43 C46 1.358 . S
C43 C47 1.332 1_545 S
C43 C49 1.504 . S
C44 C45 1.373 . S
C44 C48 1.308 1_545 S
C45 C44 1.373 . S
C45 C46 1.429 . S
C45 H72 0.932 . S
C46 C43 1.358 . S
C46 C45 1.429 . S
C46 H73 0.930 . S
C47 C43 1.332 1_565 S
C47 C48 1.394 . S
C47 H74 0.932 . S
C48 C44 1.308 1_565 S
C48 C47 1.394 . S
C48 H75 0.929 . S
C49 Tb40 2.764 . S
C49 C43 1.504 . S
C49 O61 1.239 . S
C49 O62 1.263 . S
O50 Tb40 2.325 1_565 S
O50 C60 1.236 . S
O51 Tb41 2.322 . S
O51 C60 1.257 1_655 S
O52 Tb41 2.349 . S
O52 C63 1.261 . S
O53 Tb40 2.303 . S
O53 C63 1.257 1_445 S
O54 Tb41 2.415 . S
O54 C70 1.239 . S
O55 Tb41 2.399 . S
O55 C70 1.263 . S
O56 Tb41 2.325 1_545 S
O56 C71 1.236 1_655 S
O57 Tb40 2.322 . S
O57 C71 1.257 . S
O58 Tb40 2.349 . S
O58 C42 1.261 . S
O59 Tb41 2.303 . S
O59 C42 1.257 1_665 S
C60 O50 1.236 . S
C60 O51 1.257 1_455 S
O61 Tb40 2.415 . S
O61 C49 1.239 . S
O62 Tb40 2.399 . S
O62 C49 1.263 . S
C63 O52 1.261 . S
C63 O53 1.257 1_665 S
C64 C67 1.358 . S
C64 C68 1.332 1_565 S
C64 C70 1.504 . S
C65 C66 1.373 . S
C65 C69 1.308 1_565 S
C66 C65 1.373 . S
C66 C67 1.429 . S
C66 H76 0.932 . S
C67 C64 1.358 . S
C67 C66 1.429 . S
C67 H77 0.930 . S
C68 C64 1.332 1_545 S
C68 C69 1.394 . S
C68 H78 0.932 . S
C69 C65 1.308 1_545 S
C69 C68 1.394 . S
C69 H79 0.929 . S
C70 Tb41 2.764 . S
C70 O54 1.239 . S
C70 O55 1.263 . S
C70 C64 1.504 . S
C71 O56 1.236 1_455 S
C71 O57 1.257 . S
H72 C45 0.932 . S
H73 C46 0.930 . S
H74 C47 0.932 . S
H75 C48 0.929 . S
H76 C66 0.932 . S
H77 C67 0.930 . S
H78 C68 0.932 . S
H79 C69 0.929 . S
Tb80 C89 2.764 . S
Tb80 O90 2.325 . S
Tb80 O93 2.303 1_655 S
Tb80 O97 2.322 1_655 S
Tb80 O98 2.349 . S
Tb80 O101 2.415 . S
Tb80 O102 2.399 . S
Tb81 O91 2.322 1_445 S
Tb81 O92 2.349 . S
Tb81 O94 2.415 . S
Tb81 O95 2.399 . S
Tb81 O96 2.325 . S
Tb81 O99 2.303 . S
Tb81 C110 2.764 . S
C82 O98 1.261 1_455 S
C82 O99 1.257 . S
C83 C86 1.358 . S
C83 C87 1.332 . S
C83 C89 1.504 . S
C84 C85 1.373 . S
C84 C88 1.308 . S
C85 C84 1.373 . S
C85 C86 1.429 . S
C85 H112 0.932 . S
C86 C83 1.358 . S
C86 C85 1.429 . S
C86 H113 0.930 . S
C87 C83 1.332 . S
C87 C88 1.394 . S
C87 H114 0.932 . S
C88 C84 1.308 . S
C88 C87 1.394 . S
C88 H115 0.929 . S
C89 Tb80 2.764 . S
C89 C83 1.504 . S
C89 O101 1.239 . S
C89 O102 1.263 . S
O90 Tb80 2.325 . S
O90 C100 1.236 1_545 S
O91 Tb81 2.322 1_665 S
O91 C100 1.257 . S
O92 Tb81 2.349 . S
O92 C103 1.261 . S
O93 Tb80 2.303 1_455 S
O93 C103 1.257 . S
O94 Tb81 2.415 . S
O94 C110 1.239 . S
O95 Tb81 2.399 . S
O95 C110 1.263 . S
O96 Tb81 2.325 . S
O96 C111 1.236 . S
O97 Tb80 2.322 1_455 S
O97 C111 1.257 . S
O98 Tb80 2.349 . S
O98 C82 1.261 1_655 S
O99 Tb81 2.303 . S
O99 C82 1.257 . S
C100 O90 1.236 1_565 S
C100 O91 1.257 . S
O101 Tb80 2.415 . S
O101 C89 1.239 . S
O102 Tb80 2.399 . S
O102 C89 1.263 . S
C103 O92 1.261 . S
C103 O93 1.257 . S
C104 C107 1.358 . S
C104 C108 1.332 . S
C104 C110 1.504 . S
C105 C106 1.373 . S
C105 C109 1.308 . S
C106 C105 1.373 . S
C106 C107 1.429 . S
C106 H116 0.932 . S
C107 C104 1.358 . S
C107 C106 1.429 . S
C107 H117 0.930 . S
C108 C104 1.332 . S
C108 C109 1.394 . S
C108 H118 0.932 . S
C109 C105 1.308 . S
C109 C108 1.394 . S
C109 H119 0.929 . S
C110 Tb81 2.764 . S
C110 O94 1.239 . S
C110 O95 1.263 . S
C110 C104 1.504 . S
C111 O96 1.236 . S
C111 O97 1.257 . S
H112 C85 0.932 . S
H113 C86 0.930 . S
H114 C87 0.932 . S
H115 C88 0.929 . S
H116 C106 0.932 . S
H117 C107 0.930 . S
H118 C108 0.932 . S
H119 C109 0.929 . S
C120 C121 1.327 1_556 S
C120 C122 1.327 . S
C120 H145 0.950 1_455 S
C121 C120 1.327 1_554 S
C121 C137 1.374 . S
C122 C120 1.327 . S
C122 C141 1.429 1_556 S
C122 H146 0.950 1_455 S
C123 C140 1.574 . S
C123 C142 1.368 . S
C123 H147 0.949 . S
H124 C128 0.949 . S
C125 C126 1.349 . S
C125 C127 1.327 . S
C125 H148 0.950 . S
C126 C125 1.349 . S
C126 C138 1.349 1_454 S
C127 C125 1.327 . S
C127 C143 1.429 . S
C127 H149 0.950 . S
C128 H124 0.949 . S
C128 C136 1.574 . S
C128 C144 1.368 1_656 S
H129 C137 0.950 . S
H130 C135 0.950 . S
H131 C136 0.949 . S
H132 C138 0.950 . S
H133 C139 0.950 . S
H134 C140 0.949 . S
C135 H130 0.950 . S
C135 C137 1.327 . S
C135 C141 1.429 . S
C136 C128 1.574 . S
C136 H131 0.949 . S
C136 C142 1.368 1_656 S
C137 C121 1.374 . S
C137 H129 0.950 . S
C137 C135 1.327 . S
C138 C126 1.349 1_656 S
C138 H132 0.950 . S
C138 C139 1.327 . S
C139 H133 0.950 . S
C139 C138 1.327 . S
C139 C143 1.429 1_656 S
C140 C123 1.574 . S
C140 H134 0.949 . S
C140 C144 1.368 . S
C141 C122 1.429 1_554 S
C141 C135 1.429 . S
C141 C142 1.523 . S
C142 C123 1.368 . S
C142 C136 1.368 1_454 S
C142 C141 1.523 . S
C143 C127 1.429 . S
C143 C139 1.429 1_454 S
C143 C144 1.523 . S
C144 C128 1.368 1_454 S
C144 C140 1.368 . S
C144 C143 1.523 . S
H145 C120 0.950 1_655 S
H146 C122 0.950 1_655 S
H147 C123 0.949 . S
H148 C125 0.950 . S
H149 C127 0.950 . S
C150 C151 1.349 1_565 S
C150 C152 1.327 . S
C150 H175 0.950 . S
C151 C150 1.349 1_545 S
C151 C167 1.349 . S
C152 C150 1.327 . S
C152 C171 1.429 1_565 S
C152 H176 0.950 . S
C153 C170 1.574 . S
C153 C172 1.368 . S
C153 H177 0.949 . S
H154 C158 0.949 . S
C155 C156 1.349 1_545 S
C155 C157 1.327 . S
C155 H178 0.950 . S
C156 C155 1.349 1_565 S
C156 C168 1.349 . S
C157 C155 1.327 . S
C157 C173 1.424 1_545 S
C157 H179 0.950 . S
C158 H154 0.949 . S
C158 C166 1.574 . S
C158 C174 1.368 1_565 S
H159 C167 0.950 . S
H160 C165 0.950 . S
H161 C166 0.949 . S
H162 C168 0.950 . S
H163 C169 0.950 . S
H164 C170 0.949 . S
C165 H160 0.950 . S
C165 C167 1.327 . S
C165 C171 1.429 . S
C166 C158 1.574 . S
C166 H161 0.949 . S
C166 C172 1.368 1_565 S
C167 C151 1.349 . S
C167 H159 0.950 . S
C167 C165 1.327 . S
C168 C156 1.349 . S
C168 H162 0.950 . S
C168 C169 1.327 . S
C169 H163 0.950 . S
C169 C168 1.327 . S
C169 C173 1.444 . S
C170 C153 1.574 . S
C170 H164 0.949 . S
C170 C174 1.368 . S
C171 C152 1.429 1_545 S
C171 C165 1.429 . S
C171 C172 1.523 . S
C172 C153 1.368 . S
C172 C166 1.368 1_545 S
C172 C171 1.523 . S
C173 C157 1.424 1_565 S
C173 C169 1.444 . S
C173 C174 1.513 1_565 S
C174 C158 1.368 1_545 S
C174 C170 1.368 . S
C174 C173 1.513 1_545 S
H175 C150 0.950 . S
H176 C152 0.950 . S
H177 C153 0.949 . S
H178 C155 0.950 . S
H179 C157 0.950 . S
C180 C181 1.349 . S
C180 C182 1.327 . S
C180 H205 0.950 . S
C181 C180 1.349 . S
C181 C197 1.349 . S
C182 C180 1.327 . S
C182 C201 1.429 . S
C182 H206 0.950 . S
C183 C200 1.574 . S
C183 C202 1.368 . S
C183 H207 0.949 . S
H184 C188 0.949 . S
C185 C186 1.349 . S
C185 C187 1.327 . S
C185 H208 0.950 . S
C186 C185 1.349 . S
C186 C198 1.349 . S
C187 C185 1.327 . S
C187 C203 1.429 . S
C187 H209 0.950 . S
C188 H184 0.949 . S
C188 C196 1.574 . S
C188 C204 1.368 . S
H189 C197 0.950 . S
H190 C195 0.950 . S
H191 C196 0.949 . S
H192 C198 0.950 . S
H193 C199 0.950 . S
H194 C200 0.949 . S
C195 H190 0.950 . S
C195 C197 1.327 . S
C195 C201 1.429 . S
C196 C188 1.574 . S
C196 H191 0.949 . S
C196 C202 1.368 . S
C197 C181 1.349 . S
C197 H189 0.950 . S
C197 C195 1.327 . S
C198 C186 1.349 . S
C198 H192 0.950 . S
C198 C199 1.327 . S
C199 H193 0.950 . S
C199 C198 1.327 . S
C199 C203 1.429 . S
C200 C183 1.574 . S
C200 H194 0.949 . S
C200 C204 1.368 . S
C201 C182 1.429 . S
C201 C195 1.429 . S
C201 C202 1.523 . S
C202 C183 1.368 . S
C202 C196 1.368 . S
C202 C201 1.523 . S
C203 C187 1.429 . S
C203 C199 1.429 . S
C203 C204 1.523 . S
C204 C188 1.368 . S
C204 C200 1.368 . S
C204 C203 1.523 . S
H205 C180 0.950 . S
H206 C182 0.950 . S
H207 C183 0.949 . S
H208 C185 0.950 . S
H209 C187 0.950 . S
C210 C211 1.349 . S
C210 C212 1.327 . S
C210 H235 0.950 . S
C211 C210 1.349 . S
C211 C227 1.349 . S
C212 C210 1.327 . S
C212 C231 1.429 . S
C212 H236 0.950 . S
C213 C230 1.574 . S
C213 C232 1.368 . S
C213 H237 0.949 . S
H214 C218 0.949 1_565 S
C215 C216 1.349 . S
C215 C217 1.327 . S
C215 H238 0.950 . S
C216 C215 1.349 . S
C216 C228 1.349 1_545 S
C217 C215 1.327 . S
C217 C233 1.429 . S
C217 H239 0.950 . S
C218 H214 0.949 1_545 S
C218 C226 1.574 . S
C218 C234 1.368 . S
H219 C227 0.950 . S
H220 C225 0.950 . S
H221 C226 0.949 . S
H222 C228 0.950 . S
H223 C229 0.949 1_565 S
H224 C230 0.949 . S
C225 H220 0.950 . S
C225 C227 1.327 . S
C225 C231 1.429 . S
C226 C218 1.574 . S
C226 H221 0.949 . S
C226 C232 1.368 . S
C227 C211 1.349 . S
C227 H219 0.950 . S
C227 C225 1.327 . S
C228 C216 1.349 1_565 S
C228 H222 0.950 . S
C228 C229 1.327 1_565 S
C229 H223 0.949 1_545 S
C229 C228 1.327 1_545 S
C229 C233 1.429 . S
C230 C213 1.574 . S
C230 H224 0.949 . S
C230 C234 1.368 . S
C231 C212 1.429 . S
C231 C225 1.429 . S
C231 C232 1.523 . S
C232 C213 1.368 . S
C232 C226 1.368 . S
C232 C231 1.523 . S
C233 C217 1.429 . S
C233 C229 1.429 . S
C233 C234 1.523 . S
C234 C218 1.368 . S
C234 C230 1.368 . S
C234 C233 1.523 . S
H235 C210 0.950 . S
H236 C212 0.950 . S
H237 C213 0.949 . S
H238 C215 0.950 . S
H239 C217 0.950 . S
C240 C241 1.349 1_554 S
C240 C242 1.327 . S
C240 H265 0.950 . S
C241 C240 1.349 1_556 S
C241 C257 1.349 . S
C242 C240 1.327 . S
C242 C261 1.438 . S
C242 H266 0.950 . S
C243 C260 1.574 . S
C243 C262 1.368 1_556 S
C243 H267 0.949 . S
H244 C248 0.949 . S
C245 C246 1.349 1_556 S
C245 C247 1.327 . S
C245 H268 0.950 . S
C246 C245 1.349 1_554 S
C246 C258 1.349 . S
C247 C245 1.327 . S
C247 C263 1.429 1_556 S
C247 H269 0.950 . S
C248 H244 0.949 . S
C248 C256 1.574 . S
C248 C264 1.368 . S
H249 C257 0.950 . S
H250 C255 0.950 . S
H251 C256 0.949 . S
H252 C258 0.950 . S
H253 C259 0.950 . S
H254 C260 0.949 . S
C255 H250 0.950 . S
C255 C257 1.327 . S
C255 C261 1.415 1_556 S
C256 C248 1.574 . S
C256 H251 0.949 . S
C256 C262 1.368 . S
C257 C241 1.349 . S
C257 H249 0.950 . S
C257 C255 1.327 . S
C258 C246 1.349 . S
C258 H252 0.950 . S
C258 C259 1.327 . S
C259 H253 0.950 . S
C259 C258 1.327 . S
C259 C263 1.429 . S
C260 C243 1.574 . S
C260 H254 0.949 . S
C260 C264 1.368 1_556 S
C261 C242 1.438 . S
C261 C255 1.415 1_554 S
C261 C262 1.527 . S
C262 C243 1.368 1_554 S
C262 C256 1.368 . S
C262 C261 1.527 . S
C263 C247 1.429 1_554 S
C263 C259 1.429 . S
C263 C264 1.523 . S
C264 C248 1.368 . S
C264 C260 1.368 1_554 S
C264 C263 1.523 . S
H265 C240 0.950 . S
H266 C242 0.950 . S
H267 C243 0.949 . S
H268 C245 0.950 . S
H269 C247 0.950 . S
C270 C271 1.349 . S
C270 C272 1.327 . S
C270 H295 0.950 . S
C271 C270 1.349 . S
C271 C287 1.349 1_455 S
C272 C270 1.327 . S
C272 C291 1.429 . S
C272 H296 0.950 . S
C273 C290 1.574 . S
C273 C292 1.368 1_655 S
C273 H297 0.949 . S
H274 C278 0.949 . S
C275 C276 1.349 1_655 S
C275 C277 1.327 . S
C275 H298 0.950 . S
C276 C275 1.349 1_455 S
C276 C288 1.349 . S
C277 C275 1.327 . S
C277 C293 1.429 1_655 S
C277 H299 0.950 . S
C278 H274 0.949 . S
C278 C286 1.574 . S
C278 C294 1.368 . S
H279 C287 0.950 . S
H280 C285 0.950 . S
H281 C286 0.949 . S
H282 C288 0.950 . S
H283 C289 0.950 . S
H284 C290 0.949 . S
C285 H280 0.950 . S
C285 C287 1.327 . S
C285 C291 1.429 1_655 S
C286 C278 1.574 . S
C286 H281 0.949 . S
C286 C292 1.368 . S
C287 C271 1.349 1_655 S
C287 H279 0.950 . S
C287 C285 1.327 . S
C288 C276 1.349 . S
C288 H282 0.950 . S
C288 C289 1.327 . S
C289 H283 0.950 . S
C289 C288 1.327 . S
C289 C293 1.429 . S
C290 C273 1.574 . S
C290 H284 0.949 . S
C290 C294 1.368 1_655 S
C291 C272 1.429 . S
C291 C285 1.429 1_455 S
C291 C292 1.523 . S
C292 C273 1.368 1_455 S
C292 C286 1.368 . S
C292 C291 1.523 . S
C293 C277 1.429 1_455 S
C293 C289 1.429 . S
C293 C294 1.523 . S
C294 C278 1.368 . S
C294 C290 1.368 1_455 S
C294 C293 1.523 . S
H295 C270 0.950 . S
H296 C272 0.950 . S
H297 C273 0.949 . S
H298 C275 0.950 . S
H299 C277 0.950 . S
C300 C301 1.349 1_545 S
C300 C302 1.327 . S
C300 H325 0.950 . S
C301 C300 1.349 1_565 S
C301 C317 1.349 1_455 S
C302 C300 1.327 . S
C302 C321 1.429 . S
C302 H326 0.950 . S
C303 C320 1.574 . S
C303 C322 1.368 1_665 S
C303 H327 0.949 . S
H304 C308 0.949 . S
C305 C306 1.349 1_665 S
C305 C307 1.327 . S
C305 H328 0.950 . S
C306 C305 1.349 1_445 S
C306 C318 1.349 . S
C307 C305 1.327 . S
C307 C323 1.429 1_665 S
C307 H329 0.950 . S
C308 H304 0.949 . S
C308 C316 1.574 . S
C308 C324 1.368 . S
H309 C317 0.950 . S
H310 C315 0.950 . S
H311 C316 0.949 . S
H312 C318 0.950 . S
H313 C319 0.950 . S
H314 C320 0.949 . S
C315 H310 0.950 . S
C315 C317 1.327 . S
C315 C321 1.429 1_665 S
C316 C308 1.574 . S
C316 H311 0.949 . S
C316 C322 1.368 . S
C317 C301 1.349 1_655 S
C317 H309 0.950 . S
C317 C315 1.327 . S
C318 C306 1.349 . S
C318 H312 0.950 . S
C318 C319 1.327 . S
C319 H313 0.950 . S
C319 C318 1.327 . S
C319 C323 1.429 . S
C320 C303 1.574 . S
C320 H314 0.949 . S
C320 C324 1.368 1_665 S
C321 C302 1.429 . S
C321 C315 1.429 1_445 S
C321 C322 1.523 . S
C322 C303 1.368 1_445 S
C322 C316 1.368 . S
C322 C321 1.523 . S
C323 C307 1.429 1_445 S
C323 C319 1.429 . S
C323 C324 1.523 . S
C324 C308 1.368 . S
C324 C320 1.368 1_445 S
C324 C323 1.523 . S
H325 C300 0.950 . S
H326 C302 0.950 . S
H327 C303 0.949 . S
H328 C305 0.950 . S
H329 C307 0.950 . S
C330 C331 1.349 1_565 S
C330 C332 1.327 . S
C330 H355 0.950 . S
C331 C330 1.349 1_545 S
C331 C347 1.349 . S
C332 C330 1.327 . S
C332 C351 1.429 1_565 S
C332 H356 0.950 . S
C333 C350 1.574 . S
C333 C352 1.368 . S
C333 H357 0.949 . S
H334 C338 0.949 1_565 S
C335 C336 1.349 . S
C335 C337 1.327 . S
C335 H358 0.950 . S
C336 C335 1.349 . S
C336 C348 1.349 . S
C337 C335 1.327 . S
C337 C353 1.429 . S
C337 H359 0.950 . S
C338 H334 0.949 1_545 S
C338 C346 1.573 1_545 S
C338 C354 1.368 . S
H339 C347 0.950 1_655 S
H340 C345 0.950 . S
H341 C346 0.955 . S
H342 C348 0.950 . S
H343 C349 0.950 1_565 S
H344 C350 0.949 . S
C345 H340 0.950 . S
C345 C347 1.327 . S
C345 C351 1.429 . S
C346 C338 1.573 1_565 S
C346 H341 0.955 . S
C346 C352 1.363 1_565 S
C347 C331 1.349 . S
C347 H339 0.950 1_455 S
C347 C345 1.327 . S
C348 C336 1.349 . S
C348 H342 0.950 . S
C348 C349 1.327 . S
C349 H343 0.950 1_545 S
C349 C348 1.327 . S
C349 C353 1.429 . S
C350 C333 1.574 . S
C350 H344 0.949 . S
C350 C354 1.368 . S
C351 C332 1.429 1_545 S
C351 C345 1.429 . S
C351 C352 1.523 . S
C352 C333 1.368 . S
C352 C346 1.363 1_545 S
C352 C351 1.523 . S
C353 C337 1.429 . S
C353 C349 1.429 . S
C353 C354 1.523 . S
C354 C338 1.368 . S
C354 C350 1.368 . S
C354 C353 1.523 . S
H355 C330 0.950 . S
H356 C332 0.950 . S
H357 C333 0.949 . S
H358 C335 0.950 . S
H359 C337 0.950 . S
C360 C361 1.349 . S
C360 C362 1.327 . S
C360 H385 0.950 . S
C361 C360 1.349 . S
C361 C377 1.349 . S
C362 C360 1.327 . S
C362 C381 1.429 . S
C362 H386 0.950 . S
C363 C380 1.574 . S
C363 C382 1.368 . S
C363 H387 0.949 1_545 S
H364 C368 0.949 . S
C365 C366 1.349 . S
C365 C367 1.327 . S
C365 H388 0.950 1_545 S
C366 C365 1.349 . S
C366 C378 1.349 . S
C367 C365 1.327 . S
C367 C383 1.429 . S
C367 H389 0.950 1_545 S
C368 H364 0.949 . S
C368 C376 1.574 . S
C368 C384 1.368 . S
H369 C377 0.950 . S
H370 C375 0.950 1_565 S
H371 C376 0.949 . S
H372 C378 0.950 . S
H373 C379 0.950 . S
H374 C380 0.949 1_565 S
C375 H370 0.950 1_545 S
C375 C377 1.327 . S
C375 C381 1.429 . S
C376 C368 1.574 . S
C376 H371 0.949 . S
C376 C382 1.368 . S
C377 C361 1.349 . S
C377 H369 0.950 . S
C377 C375 1.327 . S
C378 C366 1.349 . S
C378 H372 0.950 . S
C378 C379 1.327 . S
C379 H373 0.950 . S
C379 C378 1.327 . S
C379 C383 1.429 . S
C380 C363 1.574 . S
C380 H374 0.949 1_545 S
C380 C384 1.368 . S
C381 C362 1.429 . S
C381 C375 1.429 . S
C381 C382 1.523 . S
C382 C363 1.368 . S
C382 C376 1.368 . S
C382 C381 1.523 . S
C383 C367 1.429 . S
C383 C379 1.429 . S
C383 C384 1.523 . S
C384 C368 1.368 . S
C384 C380 1.368 . S
C384 C383 1.523 . S
H385 C360 0.950 . S
H386 C362 0.950 . S
H387 C363 0.949 1_565 S
H388 C365 0.950 1_565 S
H389 C367 0.950 1_565 S
C121 C31 2.860 . S
C126 C20 2.859 . S
C151 C44 0.405 . S
C156 C65 0.405 . S
C181 C100 4.778 . S
C186 C111 4.778 . S
C211 C84 0.594 . S
C216 C105 0.594 . S
C241 C4 1.126 1_556 S
C246 C25 1.130 . S
C271 C71 2.833 . S
C276 C60 2.833 . S
C301 C63 1.491 1_455 S
C306 C23 1.493 . S
C331 C42 1.489 . S
C336 C82 1.499 . S
C361 C103 1.470 . S
C366 C2 1.485 . S
