# Generated by pormake.
# Topology cbo, (4)-cn, num edge types: 1
# Building blocks:
#     Node 0, Type 0, BuildingBlock: QUQFOY_clean_sbu_1, # of connection points: 4
#     Node 1, Type 0, BuildingBlock: QUQFOY_clean_sbu_1, # of connection points: 4
#     Node 2, Type 0, BuildingBlock: QUQFOY_clean_sbu_1, # of connection points: 4
#     Node 3, Type 0, BuildingBlock: QUQFOY_clean_sbu_1, # of connection points: 4
#     Node 4, Type 0, BuildingBlock: QUQFOY_clean_sbu_1, # of connection points: 4
#     Node 5, Type 0, BuildingBlock: QUQFOY_clean_sbu_1, # of connection points: 4
#     Node 6, Type 0, BuildingBlock: QUQFOY_clean_sbu_1, # of connection points: 4
#     Node 7, Type 0, BuildingBlock: QUQFOY_clean_sbu_1, # of connection points: 4
#     Node 8, Type 0, BuildingBlock: QUQFOY_clean_sbu_1, # of connection points: 4
#     Node 9, Type 0, BuildingBlock: QUQFOY_clean_sbu_1, # of connection points: 4
#     Node 10, Type 0, BuildingBlock: QUQFOY_clean_sbu_1, # of connection points: 4
#     Node 11, Type 0, BuildingBlock: QUQFOY_clean_sbu_1, # of connection points: 4
#     Node 12, Type 0, BuildingBlock: QUQFOY_clean_sbu_1, # of connection points: 4
#     Node 13, Type 0, BuildingBlock: QUQFOY_clean_sbu_1, # of connection points: 4
#     Node 14, Type 0, BuildingBlock: QUQFOY_clean_sbu_1, # of connection points: 4
#     Node 15, Type 0, BuildingBlock: QUQFOY_clean_sbu_1, # of connection points: 4
#     Node 16, Type 0, BuildingBlock: QUQFOY_clean_sbu_1, # of connection points: 4
#     Node 17, Type 0, BuildingBlock: QUQFOY_clean_sbu_1, # of connection points: 4
#     Node 18, Type 0, BuildingBlock: QUQFOY_clean_sbu_1, # of connection points: 4
#     Node 19, Type 0, BuildingBlock: QUQFOY_clean_sbu_1, # of connection points: 4
#     Node 20, Type 0, BuildingBlock: QUQFOY_clean_sbu_1, # of connection points: 4
#     Node 21, Type 0, BuildingBlock: QUQFOY_clean_sbu_1, # of connection points: 4
#     Node 22, Type 0, BuildingBlock: QUQFOY_clean_sbu_1, # of connection points: 4
#     Node 23, Type 0, BuildingBlock: QUQFOY_clean_sbu_1, # of connection points: 4
#     Edge 24, Type (0, 0), BuildingBlock: XUDNAN_clean_linker_2, # of connection points: 2
#     Edge 25, Type (0, 0), BuildingBlock: XUDNAN_clean_linker_2, # of connection points: 2
#     Edge 26, Type (0, 0), BuildingBlock: XUDNAN_clean_linker_2, # of connection points: 2
#     Edge 27, Type (0, 0), BuildingBlock: XUDNAN_clean_linker_2, # of connection points: 2
#     Edge 28, Type (0, 0), BuildingBlock: XUDNAN_clean_linker_2, # of connection points: 2
#     Edge 29, Type (0, 0), BuildingBlock: XUDNAN_clean_linker_2, # of connection points: 2
#     Edge 30, Type (0, 0), BuildingBlock: XUDNAN_clean_linker_2, # of connection points: 2
#     Edge 31, Type (0, 0), BuildingBlock: XUDNAN_clean_linker_2, # of connection points: 2
#     Edge 32, Type (0, 0), BuildingBlock: XUDNAN_clean_linker_2, # of connection points: 2
#     Edge 33, Type (0, 0), BuildingBlock: XUDNAN_clean_linker_2, # of connection points: 2
#     Edge 34, Type (0, 0), BuildingBlock: XUDNAN_clean_linker_2, # of connection points: 2
#     Edge 35, Type (0, 0), BuildingBlock: XUDNAN_clean_linker_2, # of connection points: 2
#     Edge 36, Type (0, 0), BuildingBlock: XUDNAN_clean_linker_2, # of connection points: 2
#     Edge 37, Type (0, 0), BuildingBlock: XUDNAN_clean_linker_2, # of connection points: 2
#     Edge 38, Type (0, 0), BuildingBlock: XUDNAN_clean_linker_2, # of connection points: 2
#     Edge 39, Type (0, 0), BuildingBlock: XUDNAN_clean_linker_2, # of connection points: 2
#     Edge 40, Type (0, 0), BuildingBlock: XUDNAN_clean_linker_2, # of connection points: 2
#     Edge 41, Type (0, 0), BuildingBlock: XUDNAN_clean_linker_2, # of connection points: 2
#     Edge 42, Type (0, 0), BuildingBlock: XUDNAN_clean_linker_2, # of connection points: 2
#     Edge 43, Type (0, 0), BuildingBlock: XUDNAN_clean_linker_2, # of connection points: 2
#     Edge 44, Type (0, 0), BuildingBlock: XUDNAN_clean_linker_2, # of connection points: 2
#     Edge 45, Type (0, 0), BuildingBlock: XUDNAN_clean_linker_2, # of connection points: 2
#     Edge 46, Type (0, 0), BuildingBlock: XUDNAN_clean_linker_2, # of connection points: 2
#     Edge 47, Type (0, 0), BuildingBlock: XUDNAN_clean_linker_2, # of connection points: 2
#     Edge 48, Type (0, 0), BuildingBlock: XUDNAN_clean_linker_2, # of connection points: 2
#     Edge 49, Type (0, 0), BuildingBlock: XUDNAN_clean_linker_2, # of connection points: 2
#     Edge 50, Type (0, 0), BuildingBlock: XUDNAN_clean_linker_2, # of connection points: 2
#     Edge 51, Type (0, 0), BuildingBlock: XUDNAN_clean_linker_2, # of connection points: 2
#     Edge 52, Type (0, 0), BuildingBlock: XUDNAN_clean_linker_2, # of connection points: 2
#     Edge 53, Type (0, 0), BuildingBlock: XUDNAN_clean_linker_2, # of connection points: 2
#     Edge 54, Type (0, 0), BuildingBlock: XUDNAN_clean_linker_2, # of connection points: 2
#     Edge 55, Type (0, 0), BuildingBlock: XUDNAN_clean_linker_2, # of connection points: 2
#     Edge 56, Type (0, 0), BuildingBlock: XUDNAN_clean_linker_2, # of connection points: 2
#     Edge 57, Type (0, 0), BuildingBlock: XUDNAN_clean_linker_2, # of connection points: 2
#     Edge 58, Type (0, 0), BuildingBlock: XUDNAN_clean_linker_2, # of connection points: 2
#     Edge 59, Type (0, 0), BuildingBlock: XUDNAN_clean_linker_2, # of connection points: 2
#     Edge 60, Type (0, 0), BuildingBlock: XUDNAN_clean_linker_2, # of connection points: 2
#     Edge 61, Type (0, 0), BuildingBlock: XUDNAN_clean_linker_2, # of connection points: 2
#     Edge 62, Type (0, 0), BuildingBlock: XUDNAN_clean_linker_2, # of connection points: 2
#     Edge 63, Type (0, 0), BuildingBlock: XUDNAN_clean_linker_2, # of connection points: 2
#     Edge 64, Type (0, 0), BuildingBlock: XUDNAN_clean_linker_2, # of connection points: 2
#     Edge 65, Type (0, 0), BuildingBlock: XUDNAN_clean_linker_2, # of connection points: 2
#     Edge 66, Type (0, 0), BuildingBlock: XUDNAN_clean_linker_2, # of connection points: 2
#     Edge 67, Type (0, 0), BuildingBlock: XUDNAN_clean_linker_2, # of connection points: 2
#     Edge 68, Type (0, 0), BuildingBlock: XUDNAN_clean_linker_2, # of connection points: 2
#     Edge 69, Type (0, 0), BuildingBlock: XUDNAN_clean_linker_2, # of connection points: 2
#     Edge 70, Type (0, 0), BuildingBlock: XUDNAN_clean_linker_2, # of connection points: 2
#     Edge 71, Type (0, 0), BuildingBlock: XUDNAN_clean_linker_2, # of connection points: 2
# Relax obj value: 0.095
# Max RMSD: 0.124
# Mean RMSD: 0.124
data_MOF--net-cbo--node1-QUQFOY_clean_sbu_1--edge1-XUDNAN_clean_linker_2
_symmetry_space_group_name_H-M    P1
_symmetry_Int_Tables_number       1
_symmetry_cell_setting            triclinic
loop_
_symmetry_equiv_pos_as_xyz
'x, y, z'
_cell_length_a     53.767075
_cell_length_b     53.871712
_cell_length_c     53.802116
_cell_angle_alpha  89.995411
_cell_angle_beta   90.023821
_cell_angle_gamma 89.987034
loop_
_atom_site_label
_atom_site_type_symbol
_atom_site_fract_x
_atom_site_fract_y
_atom_site_fract_z
_atom_type_partial_charge
O0 O 0.09618 0.19221 0.29572 0.0
Cd1 Cd 0.09971 0.15912 0.31487 0.0
Cd2 Cd 0.13072 0.18796 0.34182 0.0
O3 O 0.11946 0.2167 0.3189 0.0
O4 O 0.07146 0.13937 0.30084 0.0
O5 O 0.0742 0.14932 0.34058 0.0
C6 C 0.06181 0.13916 0.32275 0.0
C7 C 0.12261 0.18595 0.38429 0.0
C8 C 0.1054 0.21347 0.30017 0.0
C9 C 0.15424 0.14559 0.31479 0.0
O10 O 0.15795 0.1652 0.32742 0.0
O11 O 0.1322 0.13901 0.30905 0.0
O12 O 0.14 0.20014 0.37573 0.0
O13 O 0.10936 0.17353 0.36858 0.0
O14 O 0.40724 0.81768 0.7939 0.0
Cd15 Cd 0.4068 0.8512 0.8122 0.0
Cd16 Cd 0.38252 0.82489 0.84684 0.0
O17 O 0.38966 0.79528 0.82329 0.0
O18 O 0.43571 0.87001 0.79849 0.0
O19 O 0.4325 0.85912 0.83809 0.0
C20 C 0.4453 0.86922 0.82047 0.0
C21 C 0.39089 0.82078 0.88915 0.0
C22 C 0.39937 0.79691 0.8018 0.0
C23 C 0.35406 0.8657 0.82039 0.0
O24 O 0.35382 0.84823 0.83631 0.0
O25 O 0.37404 0.87106 0.80888 0.0
O26 O 0.37193 0.81008 0.87918 0.0
O27 O 0.40538 0.83378 0.87518 0.0
O28 O 0.59748 0.31502 0.71302 0.0
Cd29 Cd 0.60028 0.34781 0.69336 0.0
Cd30 Cd 0.63232 0.31949 0.66749 0.0
O31 O 0.6218 0.29083 0.69066 0.0
O32 O 0.57158 0.36685 0.70724 0.0
O33 O 0.57451 0.35663 0.66756 0.0
C34 C 0.56188 0.36656 0.68535 0.0
C35 C 0.62437 0.32013 0.62509 0.0
C36 C 0.60735 0.29395 0.70908 0.0
C37 C 0.65423 0.36315 0.69366 0.0
O38 O 0.6587 0.34342 0.68146 0.0
O39 O 0.63195 0.36904 0.69915 0.0
O40 O 0.64227 0.30685 0.63407 0.0
O41 O 0.61057 0.33247 0.64037 0.0
O42 O 0.9101 0.68966 0.21147 0.0
Cd43 Cd 0.90854 0.65565 0.1937 0.0
Cd44 Cd 0.87582 0.68163 0.1662 0.0
O45 O 0.88353 0.71147 0.1891 0.0
O46 O 0.93791 0.63824 0.20831 0.0
O47 O 0.93428 0.64598 0.16813 0.0
C48 C 0.94729 0.63728 0.18631 0.0
C49 C 0.8831 0.68216 0.12362 0.0
C50 C 0.8986 0.70986 0.20726 0.0
C51 C 0.85563 0.63791 0.19428 0.0
O52 O 0.85091 0.65628 0.18023 0.0
O53 O 0.87785 0.63357 0.2012 0.0
O54 O 0.86328 0.69205 0.13289 0.0
O55 O 0.89916 0.67249 0.13865 0.0
O56 O 0.29221 0.0952 0.19298 0.0
Cd57 Cd 0.31117 0.0983 0.15973 0.0
Cd58 Cd 0.33807 0.12997 0.1877 0.0
O59 O 0.31513 0.1195 0.21671 0.0
O60 O 0.29743 0.0697 0.14039 0.0
O61 O 0.33722 0.07315 0.15004 0.0
C62 C 0.31952 0.06046 0.14005 0.0
C63 C 0.38055 0.12183 0.18618 0.0
C64 C 0.29656 0.10515 0.21396 0.0
C65 C 0.31055 0.1523 0.14494 0.0
O66 O 0.32362 0.15651 0.1642 0.0
O67 O 0.30464 0.13016 0.13908 0.0
O68 O 0.37192 0.13963 0.19979 0.0
O69 O 0.36491 0.10825 0.17405 0.0
O70 O 0.21769 0.90655 0.69764 0.0
Cd71 Cd 0.19834 0.9081 0.66446 0.0
Cd72 Cd 0.16658 0.88087 0.69112 0.0
O73 O 0.18831 0.8907 0.72129 0.0
O74 O 0.21817 0.93287 0.64542 0.0
O75 O 0.17901 0.93924 0.65586 0.0
C76 C 0.19917 0.94741 0.64571 0.0
C77 C 0.12412 0.88921 0.68889 0.0
C78 C 0.21001 0.89978 0.71893 0.0
C79 C 0.19215 0.85498 0.64932 0.0
O80 O 0.17995 0.85217 0.66936 0.0
O81 O 0.19921 0.87651 0.64262 0.0
O82 O 0.13267 0.87184 0.70307 0.0
O83 O 0.13987 0.90247 0.67649 0.0
O84 O 0.79048 0.41491 0.8155 0.0
Cd85 Cd 0.81132 0.412 0.84743 0.0
Cd86 Cd 0.8421 0.38743 0.81597 0.0
O87 O 0.81597 0.39662 0.78917 0.0
O88 O 0.79322 0.43505 0.86997 0.0
O89 O 0.8318 0.44179 0.85769 0.0
C90 C 0.81234 0.44943 0.86951 0.0
C91 C 0.88401 0.39652 0.81043 0.0
C92 C 0.79558 0.40769 0.79364 0.0
C93 C 0.82015 0.35775 0.85768 0.0
O94 O 0.83347 0.35752 0.83816 0.0
O95 O 0.81042 0.37791 0.8653 0.0
O96 O 0.87326 0.37929 0.79774 0.0
O97 O 0.87089 0.40909 0.82613 0.0
O98 O 0.71532 0.5913 0.3161 0.0
Cd99 Cd 0.69279 0.59482 0.34687 0.0
Cd100 Cd 0.66809 0.62485 0.31588 0.0
O101 O 0.6936 0.61346 0.28945 0.0
O102 O 0.70543 0.567 0.3677 0.0
O103 O 0.6667 0.56887 0.35389 0.0
C104 C 0.68388 0.5568 0.36552 0.0
C105 C 0.62561 0.61962 0.30982 0.0
C106 C 0.71235 0.59997 0.29437 0.0
C107 C 0.69112 0.64886 0.36043 0.0
O108 O 0.68004 0.65226 0.33981 0.0
O109 O 0.69662 0.627 0.36757 0.0
O110 O 0.63787 0.63634 0.29781 0.0
O111 O 0.6375 0.60554 0.32523 0.0
O112 O 0.18638 0.29099 0.09861 0.0
Cd113 Cd 0.15512 0.31288 0.10274 0.0
Cd114 Cd 0.18596 0.3381 0.13288 0.0
O115 O 0.21237 0.31265 0.12163 0.0
O116 O 0.134 0.30125 0.07451 0.0
O117 O 0.14769 0.33983 0.07771 0.0
C118 C 0.1359 0.32316 0.0651 0.0
C119 C 0.19341 0.38036 0.12812 0.0
C120 C 0.20794 0.29411 0.10774 0.0
C121 C 0.14203 0.31417 0.15722 0.0
O122 O 0.1622 0.32609 0.16043 0.0
O123 O 0.13499 0.30823 0.13539 0.0
O124 O 0.20477 0.36759 0.14493 0.0
O125 O 0.17764 0.3692 0.11387 0.0
O126 O 0.69932 0.22247 0.90568 0.0
Cd127 Cd 0.66607 0.20321 0.90585 0.0
Cd128 Cd 0.69165 0.17182 0.87707 0.0
O129 O 0.72137 0.19457 0.88548 0.0
O130 O 0.64791 0.21619 0.93546 0.0
O131 O 0.65908 0.17682 0.9313 0.0
C132 C 0.64886 0.19404 0.94451 0.0
C133 C 0.69563 0.1293 0.88309 0.0
C134 C 0.71994 0.21529 0.89666 0.0
C135 C 0.64875 0.19841 0.85325 0.0
O136 O 0.66755 0.18446 0.84997 0.0
O137 O 0.64379 0.20694 0.87474 0.0
O138 O 0.70667 0.14029 0.8649 0.0
O139 O 0.68217 0.14238 0.89802 0.0
O140 O 0.81235 0.78773 0.40765 0.0
Cd141 Cd 0.84434 0.80862 0.4038 0.0
Cd142 Cd 0.81422 0.83481 0.37374 0.0
O143 O 0.78699 0.81013 0.38462 0.0
O144 O 0.86499 0.7955 0.4317 0.0
O145 O 0.85282 0.83465 0.42942 0.0
C146 C 0.86395 0.81724 0.4416 0.0
C147 C 0.80903 0.87715 0.37993 0.0
C148 C 0.7909 0.79147 0.3985 0.0
C149 C 0.85762 0.81027 0.34933 0.0
O150 O 0.83763 0.82248 0.34609 0.0
O151 O 0.86447 0.80404 0.37114 0.0
O152 O 0.79694 0.8656 0.36274 0.0
O153 O 0.82418 0.86468 0.39378 0.0
O154 O 0.31257 0.71854 0.60088 0.0
Cd155 Cd 0.346 0.70035 0.6056 0.0
Cd156 Cd 0.3165 0.66956 0.63192 0.0
O157 O 0.28796 0.6933 0.62179 0.0
O158 O 0.36717 0.71411 0.5783 0.0
O159 O 0.35687 0.67444 0.58095 0.0
C160 C 0.36768 0.69211 0.56889 0.0
C161 C 0.31665 0.62727 0.62323 0.0
C162 C 0.29111 0.71289 0.609 0.0
C163 C 0.357 0.69574 0.66013 0.0
O164 O 0.33852 0.68104 0.66099 0.0
O165 O 0.36377 0.70529 0.63955 0.0
O166 O 0.30256 0.63628 0.64043 0.0
O167 O 0.3299 0.6425 0.61026 0.0
O168 O 0.91139 0.81049 0.71299 0.0
Cd169 Cd 0.90707 0.84424 0.69547 0.0
Cd170 Cd 0.88075 0.81558 0.66383 0.0
O171 O 0.891 0.78641 0.68683 0.0
O172 O 0.93437 0.86464 0.7103 0.0
O173 O 0.93241 0.8554 0.67027 0.0
C174 C 0.94431 0.86548 0.68851 0.0
C175 C 0.88893 0.81713 0.62132 0.0
C176 C 0.9035 0.78917 0.70671 0.0
C177 C 0.85249 0.85531 0.69109 0.0
O178 O 0.85161 0.83705 0.67614 0.0
O179 O 0.87313 0.86207 0.70058 0.0
O180 O 0.87203 0.80257 0.63014 0.0
O181 O 0.90198 0.83002 0.63682 0.0
O182 O 0.59551 0.18898 0.21542 0.0
Cd183 Cd 0.59935 0.15604 0.19656 0.0
Cd184 Cd 0.62587 0.18556 0.16612 0.0
O185 O 0.61542 0.21403 0.18985 0.0
O186 O 0.57146 0.13585 0.21037 0.0
O187 O 0.57395 0.14668 0.17075 0.0
C188 C 0.56159 0.13636 0.18853 0.0
C189 C 0.61897 0.18616 0.12341 0.0
C190 C 0.60316 0.21054 0.20974 0.0
C191 C 0.65366 0.14463 0.1923 0.0
O192 O 0.65471 0.16348 0.1781 0.0
O193 O 0.63293 0.13754 0.20131 0.0
O194 O 0.63575 0.20006 0.13345 0.0
O195 O 0.60532 0.17268 0.13784 0.0
O196 O 0.40679 0.69505 0.29477 0.0
Cd197 Cd 0.40714 0.66104 0.31223 0.0
Cd198 Cd 0.38414 0.68756 0.34774 0.0
O199 O 0.39282 0.71788 0.3257 0.0
O200 O 0.43054 0.64174 0.29103 0.0
O201 O 0.43828 0.65025 0.33042 0.0
C202 C 0.44561 0.64077 0.30962 0.0
C203 C 0.39347 0.68662 0.39006 0.0
C204 C 0.40089 0.71612 0.30356 0.0
C205 C 0.35384 0.64842 0.32185 0.0
O206 O 0.35379 0.66684 0.33664 0.0
O207 O 0.37391 0.6417 0.31128 0.0
O208 O 0.37617 0.70076 0.38139 0.0
O209 O 0.40619 0.67345 0.3745 0.0
O210 O 0.10017 0.31908 0.78931 0.0
Cd211 Cd 0.10087 0.35263 0.80768 0.0
Cd212 Cd 0.12184 0.32498 0.84307 0.0
O213 O 0.11164 0.29534 0.8206 0.0
O214 O 0.07751 0.37371 0.78814 0.0
O215 O 0.07065 0.36327 0.82726 0.0
C216 C 0.06307 0.37418 0.80725 0.0
C217 C 0.1124 0.32699 0.88537 0.0
C218 C 0.10455 0.29766 0.79815 0.0
C219 C 0.15438 0.36281 0.81807 0.0
O220 O 0.15339 0.34405 0.83238 0.0
O221 O 0.13475 0.37078 0.80752 0.0
O222 O 0.12869 0.31155 0.87696 0.0
O223 O 0.10058 0.34068 0.86956 0.0
O224 O 0.71917 0.90726 0.81372 0.0
Cd225 Cd 0.70046 0.90988 0.84712 0.0
Cd226 Cd 0.66845 0.88106 0.82271 0.0
O227 O 0.68955 0.88954 0.79173 0.0
O228 O 0.72019 0.9355 0.86503 0.0
O229 O 0.68072 0.94087 0.85515 0.0
C230 C 0.70087 0.9496 0.86485 0.0
C231 C 0.62587 0.88885 0.82469 0.0
C232 C 0.71113 0.89909 0.79307 0.0
C233 C 0.69587 0.85744 0.86473 0.0
O234 O 0.6827 0.85358 0.84546 0.0
O235 O 0.70289 0.87933 0.8701 0.0
O236 O 0.63463 0.87091 0.81141 0.0
O237 O 0.64144 0.90288 0.83645 0.0
O238 O 0.78782 0.09946 0.31587 0.0
Cd239 Cd 0.80728 0.09724 0.34891 0.0
Cd240 Cd 0.83965 0.12329 0.32234 0.0
O241 O 0.81799 0.11357 0.29215 0.0
O242 O 0.78732 0.07247 0.36776 0.0
O243 O 0.82626 0.06572 0.35671 0.0
C244 C 0.80607 0.05762 0.36685 0.0
C245 C 0.8821 0.11499 0.32442 0.0
C246 C 0.7959 0.10552 0.29453 0.0
C247 C 0.81444 0.15008 0.3638 0.0
O248 O 0.82657 0.15239 0.34366 0.0
O249 O 0.80715 0.12875 0.37088 0.0
O250 O 0.87346 0.13221 0.31013 0.0
O251 O 0.86645 0.10183 0.33703 0.0
O252 O 0.22217 0.60038 0.19851 0.0
Cd253 Cd 0.2048 0.59931 0.16441 0.0
Cd254 Cd 0.16928 0.62269 0.18961 0.0
O255 O 0.19078 0.61461 0.22057 0.0
O256 O 0.22449 0.57418 0.14574 0.0
O257 O 0.18482 0.56895 0.15505 0.0
C258 C 0.20506 0.56018 0.14555 0.0
C259 C 0.12703 0.61335 0.18749 0.0
C260 C 0.21302 0.60665 0.21935 0.0
C261 C 0.19573 0.65204 0.15019 0.0
O262 O 0.18072 0.65253 0.16843 0.0
O263 O 0.20639 0.63185 0.14407 0.0
O264 O 0.13524 0.63081 0.20171 0.0
O265 O 0.14301 0.60042 0.17508 0.0
O266 O 0.28987 0.40822 0.69763 0.0
Cd267 Cd 0.30727 0.40862 0.66341 0.0
Cd268 Cd 0.33888 0.37904 0.6875 0.0
O269 O 0.31866 0.38826 0.7188 0.0
O270 O 0.29233 0.438 0.64634 0.0
O271 O 0.33249 0.43476 0.65479 0.0
C272 C 0.31428 0.44761 0.64591 0.0
C273 C 0.38147 0.38607 0.68458 0.0
C274 C 0.29786 0.39945 0.71806 0.0
C275 C 0.3095 0.35585 0.64634 0.0
O276 O 0.32363 0.35204 0.66492 0.0
O277 O 0.30209 0.37771 0.64123 0.0
O278 O 0.37278 0.36827 0.69809 0.0
O279 O 0.36586 0.40029 0.67315 0.0
O280 O 0.8226 0.72093 0.90685 0.0
Cd281 Cd 0.85217 0.69665 0.9042 0.0
Cd282 Cd 0.82008 0.67102 0.8764 0.0
O283 O 0.79473 0.69725 0.88833 0.0
O284 O 0.87602 0.70671 0.93095 0.0
O285 O 0.85461 0.67161 0.93179 0.0
C286 C 0.86988 0.68668 0.94251 0.0
C287 C 0.81471 0.62902 0.88444 0.0
C288 C 0.80035 0.71708 0.89982 0.0
C289 C 0.86387 0.69125 0.84958 0.0
O290 O 0.84249 0.68147 0.84721 0.0
O291 O 0.87215 0.69674 0.87109 0.0
O292 O 0.80145 0.64017 0.86784 0.0
O293 O 0.83091 0.64174 0.89673 0.0
O294 O 0.31824 0.78545 0.10555 0.0
Cd295 Cd 0.35135 0.80464 0.1064 0.0
Cd296 Cd 0.32342 0.83923 0.12775 0.0
O297 O 0.29418 0.8162 0.11782 0.0
O298 O 0.37324 0.7883 0.08131 0.0
O299 O 0.35955 0.82685 0.07752 0.0
C300 C 0.37182 0.80839 0.06833 0.0
C301 C 0.32428 0.8813 0.1177 0.0
C302 C 0.29671 0.79395 0.11033 0.0
C303 C 0.3621 0.81497 0.15982 0.0
O304 O 0.34318 0.8291 0.15906 0.0
O305 O 0.36986 0.80444 0.14011 0.0
O306 O 0.30932 0.87282 0.13441 0.0
O307 O 0.33819 0.86567 0.10595 0.0
O308 O 0.18698 0.21875 0.59915 0.0
Cd309 Cd 0.15504 0.19828 0.60326 0.0
Cd310 Cd 0.18558 0.16926 0.6303 0.0
O311 O 0.21264 0.19474 0.62015 0.0
O312 O 0.13426 0.21063 0.57514 0.0
O313 O 0.14724 0.17171 0.57812 0.0
C314 C 0.13608 0.1888 0.56547 0.0
C315 C 0.1924 0.12698 0.62447 0.0
C316 C 0.20862 0.21417 0.60738 0.0
C317 C 0.14318 0.19367 0.65754 0.0
O318 O 0.16228 0.17977 0.65884 0.0
O319 O 0.13626 0.20265 0.63674 0.0
O320 O 0.20413 0.1392 0.6414 0.0
O321 O 0.17682 0.13874 0.6105 0.0
O322 O 0.69492 0.28864 0.40963 0.0
Cd323 Cd 0.66148 0.3073 0.40659 0.0
Cd324 Cd 0.68967 0.33447 0.37533 0.0
O325 O 0.71895 0.3122 0.38627 0.0
O326 O 0.64238 0.29318 0.4352 0.0
O327 O 0.65204 0.33295 0.43215 0.0
C328 C 0.64228 0.3151 0.44477 0.0
C329 C 0.68679 0.37668 0.38342 0.0
C330 C 0.7161 0.29348 0.40035 0.0
C331 C 0.64698 0.30765 0.35238 0.0
O332 O 0.66669 0.32007 0.34842 0.0
O333 O 0.64073 0.30179 0.37446 0.0
O334 O 0.70112 0.36847 0.36597 0.0
O335 O 0.67485 0.36076 0.39682 0.0
H336 H 0.15835 0.31151 0.20539 0.0
H337 H 0.09522 0.29395 0.1583 0.0
H338 H 0.07537 0.27196 0.19332 0.0
H339 H 0.16276 0.25476 0.23248 0.0
H340 H 0.17168 0.26536 0.26298 0.0
H341 H 0.17849 0.28408 0.23621 0.0
H342 H 0.15482 0.32111 0.25584 0.0
H343 H 0.14798 0.30246 0.28282 0.0
H344 H 0.12307 0.31708 0.26581 0.0
H345 H 0.06578 0.24621 0.23058 0.0
H346 H 0.06738 0.21834 0.26692 0.0
H347 H 0.13662 0.25245 0.2902 0.0
C348 C 0.13994 0.30383 0.20267 0.0
C349 C 0.12823 0.30468 0.17912 0.0
C350 C 0.10448 0.29371 0.17618 0.0
C351 C 0.09301 0.28125 0.19602 0.0
C352 C 0.10546 0.28001 0.21874 0.0
C353 C 0.12834 0.29117 0.22222 0.0
C354 C 0.13922 0.28454 0.24739 0.0
C355 C 0.16451 0.2714 0.24458 0.0
C356 C 0.14139 0.30768 0.26394 0.0
C357 C 0.11943 0.26699 0.25704 0.0
C358 C 0.09989 0.26501 0.24042 0.0
C359 C 0.08067 0.24803 0.24399 0.0
C360 C 0.08176 0.23223 0.26468 0.0
C361 C 0.10196 0.23344 0.28155 0.0
C362 C 0.12061 0.25158 0.27802 0.0
H363 H 0.41017 0.79657 0.75212 0.0
H364 H 0.38634 0.74876 0.81253 0.0
H365 H 0.3792 0.71479 0.78256 0.0
H366 H 0.36488 0.7796 0.71151 0.0
H367 H 0.38363 0.78091 0.68377 0.0
H368 H 0.3917 0.79964 0.71018 0.0
H369 H 0.4358 0.78023 0.71092 0.0
H370 H 0.4279 0.76146 0.68432 0.0
H371 H 0.43918 0.74697 0.71234 0.0
H372 H 0.36828 0.68864 0.74574 0.0
H373 H 0.35444 0.67239 0.70518 0.0
H374 H 0.3853 0.73722 0.66862 0.0
C375 C 0.40425 0.77871 0.75922 0.0
C376 C 0.39898 0.7753 0.78474 0.0
C377 C 0.39066 0.75179 0.79311 0.0
C378 C 0.38662 0.73235 0.77621 0.0
C379 C 0.39116 0.73664 0.75105 0.0
C380 C 0.39999 0.7592 0.7426 0.0
C381 C 0.40062 0.76009 0.71446 0.0
C382 C 0.38422 0.7813 0.70441 0.0
C383 C 0.42748 0.76231 0.70495 0.0
C384 C 0.38972 0.73492 0.70834 0.0
C385 C 0.38478 0.72151 0.7297 0.0
C386 C 0.37255 0.69873 0.72888 0.0
C387 C 0.36467 0.68969 0.70574 0.0
C388 C 0.36896 0.70344 0.68369 0.0
C389 C 0.38224 0.72602 0.68505 0.0
H390 H 0.63859 0.25496 0.71875 0.0
H391 H 0.57001 0.28965 0.74313 0.0
H392 H 0.56947 0.26267 0.78011 0.0
H393 H 0.62564 0.19068 0.74566 0.0
H394 H 0.65779 0.18711 0.75445 0.0
H395 H 0.64974 0.20472 0.7271 0.0
H396 H 0.67417 0.24239 0.7444 0.0
H397 H 0.68208 0.22508 0.7718 0.0
H398 H 0.66636 0.2545 0.77465 0.0
H399 H 0.58061 0.23878 0.81795 0.0
H400 H 0.60202 0.21863 0.85319 0.0
H401 H 0.66319 0.19879 0.80454 0.0
C402 C 0.62289 0.25607 0.73131 0.0
C403 C 0.60423 0.27423 0.72796 0.0
C404 C 0.58443 0.27576 0.74526 0.0
C405 C 0.58392 0.26044 0.7663 0.0
C406 C 0.60324 0.24355 0.76972 0.0
C407 C 0.62222 0.24102 0.75254 0.0
C408 C 0.64242 0.22391 0.7622 0.0
C409 C 0.64398 0.20019 0.74641 0.0
C410 C 0.66773 0.23728 0.76334 0.0
C411 C 0.6325 0.21836 0.78796 0.0
C412 C 0.60966 0.2295 0.79177 0.0
C413 C 0.59815 0.22939 0.815 0.0
C414 C 0.6105 0.21801 0.83495 0.0
C415 C 0.63412 0.2069 0.83155 0.0
C416 C 0.64486 0.20656 0.80757 0.0
H417 H 0.86487 0.74676 0.21725 0.0
H418 H 0.93676 0.71788 0.23969 0.0
H419 H 0.93695 0.74617 0.2757 0.0
H420 H 0.87452 0.8126 0.24072 0.0
H421 H 0.84266 0.81456 0.25095 0.0
H422 H 0.85053 0.79611 0.22412 0.0
H423 H 0.82958 0.75788 0.24446 0.0
H424 H 0.82186 0.77606 0.27135 0.0
H425 H 0.83963 0.7479 0.27484 0.0
H426 H 0.92609 0.77131 0.31295 0.0
H427 H 0.90537 0.79248 0.34799 0.0
H428 H 0.84069 0.80567 0.30157 0.0
C429 C 0.88111 0.74716 0.22916 0.0
C430 C 0.9009 0.73029 0.22553 0.0
C431 C 0.92145 0.73075 0.24203 0.0
C432 C 0.92177 0.74682 0.26251 0.0
C433 C 0.90147 0.76245 0.26622 0.0
C434 C 0.88162 0.763 0.24985 0.0
C435 C 0.86082 0.77927 0.25969 0.0
C436 C 0.85691 0.80199 0.24286 0.0
C437 C 0.83656 0.76438 0.26277 0.0
C438 C 0.87159 0.78677 0.28463 0.0
C439 C 0.89521 0.7772 0.28787 0.0
C440 C 0.90786 0.77944 0.3104 0.0
C441 C 0.89591 0.79141 0.33025 0.0
C442 C 0.87154 0.80099 0.32746 0.0
C443 C 0.85956 0.7991 0.30412 0.0
H444 H 0.2871 0.13713 0.25244 0.0
H445 H 0.26272 0.06781 0.21949 0.0
H446 H 0.22619 0.06746 0.24718 0.0
H447 H 0.26209 0.12519 0.31734 0.0
H448 H 0.25291 0.1572 0.32066 0.0
H449 H 0.27981 0.14929 0.30228 0.0
H450 H 0.26087 0.17273 0.26473 0.0
H451 H 0.23389 0.18048 0.28283 0.0
H452 H 0.23034 0.16425 0.25374 0.0
H453 H 0.18893 0.07827 0.27249 0.0
H454 H 0.15432 0.09894 0.2944 0.0
H455 H 0.20258 0.16129 0.3112 0.0
C456 C 0.27464 0.12135 0.25182 0.0
C457 C 0.2779 0.10235 0.234 0.0
C458 C 0.26069 0.08247 0.23312 0.0
C459 C 0.23989 0.08208 0.24883 0.0
C460 C 0.23659 0.10166 0.26542 0.0
C461 C 0.25363 0.12081 0.26724 0.0
C462 C 0.24419 0.1411 0.28435 0.0
C463 C 0.26074 0.14331 0.30754 0.0
C464 C 0.2422 0.1661 0.27058 0.0
C465 C 0.21876 0.1309 0.29091 0.0
C466 C 0.21489 0.10795 0.28013 0.0
C467 C 0.19194 0.09596 0.28152 0.0
C468 C 0.17234 0.1079 0.29392 0.0
C469 C 0.17577 0.13163 0.30473 0.0
C470 C 0.19949 0.14292 0.30362 0.0
H471 H 0.34429 0.89228 0.77807 0.0
H472 H 0.30945 0.86367 0.84491 0.0
H473 H 0.26825 0.87529 0.82839 0.0
H474 H 0.2984 0.94402 0.76592 0.0
H475 H 0.3 0.93888 0.73285 0.0
H476 H 0.32688 0.93308 0.75204 0.0
H477 H 0.32922 0.88817 0.73494 0.0
H478 H 0.30231 0.89372 0.71594 0.0
H479 H 0.30244 0.86821 0.73762 0.0
H480 H 0.23069 0.88337 0.8018 0.0
H481 H 0.20021 0.88806 0.76773 0.0
H482 H 0.25955 0.91142 0.71831 0.0
C483 C 0.3281 0.88936 0.78968 0.0
C484 C 0.33016 0.87725 0.81289 0.0
C485 C 0.30839 0.87307 0.82714 0.0
C486 C 0.28487 0.87965 0.81792 0.0
C487 C 0.2834 0.89057 0.79448 0.0
C488 C 0.30448 0.89566 0.78067 0.0
C489 C 0.29776 0.90483 0.75491 0.0
C490 C 0.30626 0.93181 0.75122 0.0
C491 C 0.30857 0.8877 0.73468 0.0
C492 C 0.26968 0.90306 0.75601 0.0
C493 C 0.26169 0.89517 0.77911 0.0
C494 C 0.23669 0.89007 0.78381 0.0
C495 C 0.21949 0.89272 0.76431 0.0
C496 C 0.2274 0.90027 0.74036 0.0
C497 C 0.25277 0.90601 0.73648 0.0
H498 H 0.78749 0.37694 0.75396 0.0
H499 H 0.75923 0.44279 0.79067 0.0
H500 H 0.72243 0.44235 0.76329 0.0
H501 H 0.76078 0.39023 0.68995 0.0
H502 H 0.75347 0.35791 0.6853 0.0
H503 H 0.78014 0.36658 0.70367 0.0
H504 H 0.76326 0.34042 0.74038 0.0
H505 H 0.73653 0.33185 0.72228 0.0
H506 H 0.73245 0.34654 0.7521 0.0
H507 H 0.68582 0.43085 0.73758 0.0
H508 H 0.65209 0.40909 0.71544 0.0
H509 H 0.70352 0.35024 0.69554 0.0
C510 C 0.77406 0.39185 0.75547 0.0
C511 C 0.77633 0.4101 0.77418 0.0
C512 C 0.75792 0.42877 0.7763 0.0
C513 C 0.737 0.42872 0.76077 0.0
C514 C 0.73474 0.40987 0.74318 0.0
C515 C 0.75287 0.39186 0.74029 0.0
C516 C 0.7444 0.37182 0.72241 0.0
C517 C 0.76066 0.37163 0.69893 0.0
C518 C 0.74414 0.34616 0.73506 0.0
C519 C 0.7183 0.38077 0.71665 0.0
C520 C 0.71328 0.40301 0.72842 0.0
C521 C 0.68969 0.41372 0.72782 0.0
C522 C 0.6706 0.40116 0.71526 0.0
C523 C 0.67516 0.37804 0.7036 0.0
C524 C 0.69952 0.36812 0.70384 0.0
H525 H 0.80622 0.64987 0.19372 0.0
H526 H 0.85805 0.59397 0.22003 0.0
H527 H 0.82406 0.57371 0.24328 0.0
H528 H 0.77693 0.65844 0.24886 0.0
H529 H 0.74615 0.66328 0.23649 0.0
H530 H 0.77289 0.67023 0.21776 0.0
H531 H 0.75672 0.6408 0.18326 0.0
H532 H 0.72975 0.63381 0.2019 0.0
H533 H 0.74934 0.60903 0.19079 0.0
H534 H 0.78667 0.56368 0.26878 0.0
H535 H 0.74916 0.56502 0.29508 0.0
H536 H 0.72154 0.6277 0.2526 0.0
C537 C 0.81027 0.63286 0.20364 0.0
C538 C 0.83478 0.62337 0.20486 0.0
C539 C 0.83941 0.60148 0.21867 0.0
C540 C 0.82019 0.58979 0.23186 0.0
C541 C 0.79642 0.60014 0.23097 0.0
C542 C 0.79136 0.62112 0.21707 0.0
C543 C 0.76515 0.6304 0.22169 0.0
C544 C 0.76531 0.65716 0.23181 0.0
C545 C 0.7493 0.62838 0.198 0.0
C546 C 0.75661 0.61205 0.24122 0.0
C547 C 0.77475 0.59445 0.24594 0.0
C548 C 0.77214 0.57702 0.26488 0.0
C549 C 0.75078 0.57799 0.27978 0.0
C550 C 0.73233 0.59635 0.27578 0.0
C551 C 0.73503 0.6131 0.25576 0.0
H552 H 0.30912 0.20123 0.15873 0.0
H553 H 0.28661 0.15084 0.09994 0.0
H554 H 0.26299 0.18469 0.08001 0.0
H555 H 0.25282 0.2288 0.16609 0.0
H556 H 0.26415 0.25967 0.17231 0.0
H557 H 0.28337 0.23327 0.17918 0.0
H558 H 0.31848 0.25121 0.15152 0.0
H559 H 0.29935 0.27784 0.14462 0.0
H560 H 0.31191 0.25935 0.11968 0.0
H561 H 0.23644 0.22142 0.07041 0.0
H562 H 0.20908 0.25817 0.07188 0.0
H563 H 0.24883 0.28497 0.13673 0.0
C564 C 0.29995 0.19751 0.1412 0.0
C565 C 0.29988 0.17339 0.13081 0.0
C566 C 0.28706 0.16917 0.10819 0.0
C567 C 0.27366 0.18833 0.09667 0.0
C568 C 0.27338 0.21166 0.10789 0.0
C569 C 0.28637 0.21639 0.12955 0.0
C570 C 0.28068 0.24212 0.13942 0.0
C571 C 0.26959 0.24087 0.16579 0.0
C572 C 0.304 0.2586 0.13876 0.0
C573 C 0.26159 0.25069 0.12058 0.0
C574 C 0.25796 0.23302 0.10229 0.0
C575 C 0.23951 0.23564 0.08429 0.0
C576 C 0.224 0.25654 0.08532 0.0
C577 C 0.22697 0.27455 0.10427 0.0
C578 C 0.24648 0.27184 0.12167 0.0
H579 H 0.78019 0.34835 0.88766 0.0
H580 H 0.84385 0.313 0.85304 0.0
H581 H 0.828 0.272 0.866 0.0
H582 H 0.77161 0.30212 0.94003 0.0
H583 H 0.73824 0.3042 0.93749 0.0
H584 H 0.75728 0.33086 0.93052 0.0
H585 H 0.73676 0.334 0.88705 0.0
H586 H 0.71787 0.30735 0.89376 0.0
H587 H 0.73749 0.30749 0.8666 0.0
H588 H 0.80194 0.23497 0.87603 0.0
H589 H 0.7678 0.20501 0.88227 0.0
H590 H 0.7208 0.26436 0.91004 0.0
C591 C 0.79132 0.33208 0.88369 0.0
C592 C 0.81339 0.3339 0.86956 0.0
C593 C 0.82698 0.31206 0.86401 0.0
C594 C 0.81816 0.28869 0.87137 0.0
C595 C 0.79577 0.28744 0.88436 0.0
C596 C 0.78263 0.3086 0.89068 0.0
C597 C 0.75755 0.30212 0.90176 0.0
C598 C 0.7561 0.31031 0.92908 0.0
C599 C 0.73618 0.3134 0.88636 0.0
C600 C 0.75814 0.2741 0.89958 0.0
C601 C 0.78053 0.26596 0.88997 0.0
C602 C 0.78453 0.24107 0.88408 0.0
C603 C 0.76499 0.22418 0.88762 0.0
C604 C 0.74164 0.23227 0.89679 0.0
C605 C 0.73854 0.25746 0.90343 0.0
H606 H 0.75123 0.78192 0.36815 0.0
H607 H 0.78767 0.75699 0.4356 0.0
H608 H 0.75988 0.72058 0.43708 0.0
H609 H 0.68693 0.75673 0.38276 0.0
H610 H 0.68225 0.74781 0.35081 0.0
H611 H 0.70087 0.77467 0.35814 0.0
H612 H 0.73751 0.75614 0.33296 0.0
H613 H 0.71915 0.72926 0.3257 0.0
H614 H 0.74892 0.72562 0.34068 0.0
H615 H 0.73376 0.68369 0.42741 0.0
H616 H 0.7118 0.64902 0.40703 0.0
H617 H 0.69249 0.69746 0.34551 0.0
C618 C 0.75265 0.76934 0.38378 0.0
C619 C 0.7714 0.77241 0.40192 0.0
C620 C 0.77331 0.75507 0.4216 0.0
C621 C 0.75752 0.73438 0.42266 0.0
C622 C 0.73988 0.73132 0.40393 0.0
C623 C 0.73722 0.74842 0.38492 0.0
C624 C 0.71929 0.73914 0.36528 0.0
C625 C 0.69595 0.75557 0.3642 0.0
C626 C 0.73199 0.73743 0.33966 0.0
C627 C 0.71327 0.71366 0.37556 0.0
C628 C 0.72489 0.70972 0.39814 0.0
C629 C 0.7241 0.68674 0.41002 0.0
C630 C 0.71164 0.66711 0.39825 0.0
C631 C 0.70028 0.67052 0.37474 0.0
C632 C 0.70055 0.69434 0.3637 0.0
H633 H 0.19453 0.80671 0.66525 0.0
H634 H 0.2103 0.85388 0.60183 0.0
H635 H 0.23104 0.81882 0.58091 0.0
H636 H 0.25095 0.77914 0.66748 0.0
H637 H 0.2405 0.74864 0.67646 0.0
H638 H 0.22207 0.77537 0.68407 0.0
H639 H 0.18418 0.75608 0.66142 0.0
H640 H 0.20256 0.72914 0.65377 0.0
H641 H 0.18718 0.74636 0.6295 0.0
H642 H 0.25653 0.78194 0.57041 0.0
H643 H 0.28495 0.74598 0.5712 0.0
H644 H 0.25265 0.72199 0.64099 0.0
C645 C 0.20149 0.80939 0.64656 0.0
C646 C 0.2006 0.83299 0.63508 0.0
C647 C 0.21064 0.83595 0.61094 0.0
C648 C 0.22236 0.81609 0.59884 0.0
C649 C 0.22378 0.79331 0.61105 0.0
C650 C 0.21343 0.78977 0.63431 0.0
C651 C 0.22034 0.76454 0.64476 0.0
C652 C 0.2343 0.76709 0.66965 0.0
C653 C 0.19718 0.74805 0.64752 0.0
C654 C 0.23725 0.755 0.62435 0.0
C655 C 0.23857 0.77169 0.60485 0.0
C656 C 0.25515 0.76841 0.58522 0.0
C657 C 0.27127 0.74797 0.58585 0.0
C658 C 0.27071 0.73103 0.60595 0.0
C659 C 0.25292 0.7342 0.62501 0.0
H660 H 0.84673 0.69436 0.80169 0.0
H661 H 0.91218 0.70732 0.84708 0.0
H662 H 0.93282 0.72738 0.81142 0.0
H663 H 0.88035 0.68588 0.74023 0.0
H664 H 0.85614 0.7022 0.72378 0.0
H665 H 0.84863 0.68405 0.75093 0.0
H666 H 0.82802 0.72261 0.77103 0.0
H667 H 0.83551 0.74082 0.74411 0.0
H668 H 0.84582 0.75077 0.77439 0.0
H669 H 0.94304 0.75281 0.77432 0.0
H670 H 0.94211 0.78145 0.73852 0.0
H671 H 0.87056 0.75175 0.71639 0.0
C672 C 0.86577 0.70055 0.80387 0.0
C673 C 0.87791 0.69907 0.82717 0.0
C674 C 0.90255 0.70808 0.82941 0.0
C675 C 0.91447 0.71943 0.8092 0.0
C676 C 0.90162 0.72148 0.78678 0.0
C677 C 0.87787 0.71206 0.7839 0.0
C678 C 0.86692 0.71945 0.75899 0.0
C679 C 0.86277 0.69653 0.7425 0.0
C680 C 0.84265 0.7343 0.76235 0.0
C681 C 0.88766 0.73559 0.74886 0.0
C682 C 0.9077 0.73612 0.76499 0.0
C683 C 0.9278 0.75201 0.7612 0.0
C684 C 0.9271 0.76825 0.74085 0.0
C685 C 0.90649 0.76846 0.72448 0.0
C686 C 0.88692 0.75136 0.72813 0.0
H687 H 0.63464 0.24947 0.21834 0.0
H688 H 0.56633 0.21539 0.2441 0.0
H689 H 0.56657 0.24257 0.28096 0.0
H690 H 0.66331 0.24964 0.27376 0.0
H691 H 0.67934 0.27887 0.27069 0.0
H692 H 0.6708 0.26168 0.24339 0.0
H693 H 0.64653 0.29962 0.22645 0.0
H694 H 0.65527 0.31714 0.25365 0.0
H695 H 0.62293 0.31399 0.24541 0.0
H696 H 0.57837 0.26676 0.31841 0.0
H697 H 0.60028 0.28724 0.35312 0.0
H698 H 0.66116 0.30576 0.30353 0.0
C699 C 0.61913 0.24861 0.23115 0.0
C700 C 0.60029 0.23059 0.22824 0.0
C701 C 0.58081 0.22925 0.24589 0.0
C702 C 0.58077 0.24466 0.26687 0.0
C703 C 0.60029 0.26138 0.2699 0.0
C704 C 0.61899 0.2637 0.25237 0.0
C705 C 0.63956 0.28054 0.26169 0.0
C706 C 0.66472 0.26685 0.26243 0.0
C707 C 0.64116 0.30423 0.24586 0.0
C708 C 0.63014 0.28623 0.28761 0.0
C709 C 0.60724 0.27538 0.29181 0.0
C710 C 0.59601 0.27587 0.31517 0.0
C711 C 0.60865 0.28744 0.33482 0.0
C712 C 0.63234 0.29828 0.33102 0.0
C713 C 0.64286 0.2981 0.30693 0.0
H714 H 0.41552 0.71784 0.25495 0.0
H715 H 0.3848 0.76353 0.31386 0.0
H716 H 0.37779 0.79736 0.28367 0.0
H717 H 0.44425 0.76965 0.21768 0.0
H718 H 0.43596 0.75468 0.18888 0.0
H719 H 0.44318 0.73625 0.21591 0.0
H720 H 0.40062 0.71401 0.21195 0.0
H721 H 0.39322 0.7324 0.18511 0.0
H722 H 0.3725 0.73226 0.21145 0.0
H723 H 0.36735 0.82299 0.24604 0.0
H724 H 0.35501 0.83829 0.20458 0.0
H725 H 0.39292 0.77594 0.17037 0.0
C726 C 0.40807 0.73523 0.26174 0.0
C727 C 0.4008 0.73802 0.28684 0.0
C728 C 0.3907 0.76098 0.29479 0.0
C729 C 0.38668 0.78034 0.27775 0.0
C730 C 0.39314 0.77656 0.25292 0.0
C731 C 0.40391 0.75465 0.24501 0.0
C732 C 0.40658 0.75403 0.217 0.0
C733 C 0.43413 0.75364 0.20942 0.0
C734 C 0.39237 0.73188 0.20574 0.0
C735 C 0.39452 0.77849 0.21023 0.0
C736 C 0.38725 0.79143 0.2312 0.0
C737 C 0.37348 0.8133 0.22952 0.0
C738 C 0.36648 0.82182 0.20586 0.0
C739 C 0.37318 0.80844 0.18419 0.0
C740 C 0.38798 0.7869 0.18651 0.0
H741 H 0.11603 0.23592 0.66552 0.0
H742 H 0.14448 0.17037 0.7027 0.0
H743 H 0.13118 0.18749 0.74312 0.0
H744 H 0.13851 0.27735 0.70742 0.0
H745 H 0.11282 0.29882 0.70618 0.0
H746 H 0.11944 0.27935 0.6799 0.0
H747 H 0.07449 0.26205 0.68102 0.0
H748 H 0.06763 0.28167 0.70729 0.0
H749 H 0.06263 0.24865 0.70934 0.0
H750 H 0.12101 0.21441 0.77979 0.0
H751 H 0.11526 0.24898 0.8094 0.0
H752 H 0.09396 0.29722 0.74835 0.0
C753 C 0.11854 0.22472 0.68205 0.0
C754 C 0.13101 0.20167 0.68091 0.0
C755 C 0.13478 0.18799 0.7031 0.0
C756 C 0.12722 0.19754 0.72616 0.0
C757 C 0.11586 0.22079 0.72676 0.0
C758 C 0.11136 0.23413 0.70525 0.0
C759 C 0.10179 0.25992 0.71114 0.0
C760 C 0.11918 0.28003 0.70054 0.0
C761 C 0.07504 0.26326 0.70164 0.0
C762 C 0.1026 0.25936 0.73928 0.0
C763 C 0.1103 0.23649 0.74798 0.0
C764 C 0.11448 0.23225 0.77322 0.0
C765 C 0.11119 0.25203 0.78993 0.0
C766 C 0.10404 0.27583 0.78129 0.0
C767 C 0.0991 0.2792 0.75568 0.0
H768 H 0.76096 0.90938 0.79238 0.0
H769 H 0.70014 0.88521 0.74515 0.0
H770 H 0.72994 0.87727 0.71114 0.0
H771 H 0.80057 0.93735 0.74223 0.0
H772 H 0.82867 0.9262 0.75672 0.0
H773 H 0.80218 0.93436 0.77557 0.0
H774 H 0.80292 0.89057 0.7955 0.0
H775 H 0.82922 0.88224 0.77668 0.0
H776 H 0.80141 0.86358 0.77574 0.0
H777 H 0.76664 0.86603 0.68481 0.0
H778 H 0.80714 0.85231 0.66826 0.0
H779 H 0.84419 0.88364 0.73269 0.0
C780 C 0.75374 0.90319 0.77463 0.0
C781 C 0.72813 0.8981 0.77139 0.0
C782 C 0.71961 0.88941 0.74804 0.0
C783 C 0.73642 0.88491 0.72859 0.0
C784 C 0.76165 0.88932 0.73271 0.0
C785 C 0.77026 0.89846 0.75511 0.0
C786 C 0.79844 0.89903 0.75583 0.0
C787 C 0.80802 0.92583 0.75769 0.0
C788 C 0.80857 0.88289 0.77719 0.0
C789 C 0.80439 0.88784 0.73071 0.0
C790 C 0.78292 0.88274 0.7175 0.0
C791 C 0.78358 0.87039 0.69477 0.0
C792 C 0.80669 0.86259 0.68555 0.0
C793 C 0.82888 0.86706 0.69908 0.0
C794 C 0.82766 0.88041 0.72165 0.0
H795 H 0.6622 0.11773 0.23466 0.0
H796 H 0.69857 0.14622 0.16862 0.0
H797 H 0.73924 0.13309 0.1853 0.0
H798 H 0.70469 0.14006 0.27581 0.0
H799 H 0.70377 0.11431 0.29718 0.0
H800 H 0.67721 0.12101 0.27807 0.0
H801 H 0.67814 0.07623 0.2605 0.0
H802 H 0.7047 0.06929 0.27976 0.0
H803 H 0.7063 0.06448 0.24665 0.0
H804 H 0.77621 0.12307 0.21174 0.0
H805 H 0.80634 0.11703 0.24586 0.0
H806 H 0.74601 0.09535 0.29487 0.0
C807 C 0.67862 0.12032 0.2233 0.0
C808 C 0.67719 0.13275 0.20023 0.0
C809 C 0.69921 0.13658 0.18628 0.0
C810 C 0.7224 0.12911 0.19557 0.0
C811 C 0.7233 0.11775 0.21882 0.0
C812 C 0.70196 0.11319 0.23243 0.0
C813 C 0.70821 0.1035 0.25812 0.0
C814 C 0.69787 0.12076 0.27848 0.0
C815 C 0.69878 0.07678 0.26144 0.0
C816 C 0.73635 0.10433 0.25718 0.0
C817 C 0.74473 0.11218 0.23422 0.0
C818 C 0.7699 0.11642 0.22964 0.0
C819 C 0.7869 0.113 0.24916 0.0
C820 C 0.77862 0.10558 0.27303 0.0
C821 C 0.75305 0.10066 0.27677 0.0
H822 H 0.34493 0.61801 0.28209 0.0
H823 H 0.30837 0.65392 0.34432 0.0
H824 H 0.26756 0.64084 0.32785 0.0
H825 H 0.30462 0.63805 0.23803 0.0
H826 H 0.30504 0.61041 0.21916 0.0
H827 H 0.33133 0.61781 0.23837 0.0
H828 H 0.32806 0.57492 0.25996 0.0
H829 H 0.30175 0.56728 0.24064 0.0
H830 H 0.29908 0.56564 0.27399 0.0
H831 H 0.23073 0.62985 0.30121 0.0
H832 H 0.2014 0.62223 0.26667 0.0
H833 H 0.26215 0.59375 0.22186 0.0
C834 C 0.32843 0.62234 0.29277 0.0
C835 C 0.3299 0.63682 0.31462 0.0
C836 C 0.30775 0.64271 0.32763 0.0
C837 C 0.28446 0.63528 0.31845 0.0
C838 C 0.28361 0.62185 0.29632 0.0
C839 C 0.30506 0.61525 0.28377 0.0
C840 C 0.2991 0.60347 0.25892 0.0
C841 C 0.3107 0.61833 0.23737 0.0
C842 C 0.30749 0.57621 0.25835 0.0
C843 C 0.27103 0.60549 0.25894 0.0
C844 C 0.26236 0.6157 0.28084 0.0
C845 C 0.23725 0.62137 0.28418 0.0
C846 C 0.22071 0.617 0.26443 0.0
C847 C 0.22939 0.60729 0.24154 0.0
C848 C 0.25479 0.60088 0.23918 0.0
H849 H 0.24968 0.41552 0.72056 0.0
H850 H 0.30823 0.38235 0.76509 0.0
H851 H 0.27829 0.37572 0.79923 0.0
H852 H 0.21359 0.44426 0.77339 0.0
H853 H 0.18443 0.43693 0.75858 0.0
H854 H 0.21143 0.44381 0.73996 0.0
H855 H 0.20624 0.40184 0.717 0.0
H856 H 0.17943 0.39476 0.73558 0.0
H857 H 0.2053 0.37348 0.73479 0.0
H858 H 0.24082 0.3661 0.82522 0.0
H859 H 0.19926 0.35447 0.84083 0.0
H860 H 0.16516 0.39396 0.77932 0.0
C861 C 0.25647 0.40766 0.73781 0.0
C862 C 0.28139 0.39959 0.74016 0.0
C863 C 0.28931 0.38885 0.76287 0.0
C864 C 0.27242 0.38506 0.78241 0.0
C865 C 0.24774 0.39232 0.77905 0.0
C866 C 0.23985 0.40364 0.75738 0.0
C867 C 0.21188 0.40697 0.75711 0.0
C868 C 0.20493 0.43464 0.75728 0.0
C869 C 0.20004 0.39345 0.73481 0.0
C870 C 0.20509 0.39466 0.78147 0.0
C871 C 0.22605 0.38674 0.79409 0.0
C872 C 0.22431 0.37271 0.81579 0.0
C873 C 0.2006 0.36613 0.82448 0.0
C874 C 0.17891 0.37346 0.81141 0.0
C875 C 0.18131 0.38851 0.79004 0.0
H876 H 0.75867 0.72554 0.87192 0.0
H877 H 0.80032 0.75368 0.93494 0.0
H878 H 0.77213 0.78977 0.93736 0.0
H879 H 0.75283 0.78119 0.84262 0.0
H880 H 0.72201 0.77625 0.8304 0.0
H881 H 0.74171 0.75013 0.83694 0.0
H882 H 0.70782 0.73162 0.86572 0.0
H883 H 0.68792 0.75778 0.85922 0.0
H884 H 0.6956 0.75002 0.8909 0.0
H885 H 0.74404 0.82545 0.92912 0.0
H886 H 0.71963 0.85896 0.90968 0.0
H887 H 0.69649 0.80833 0.85135 0.0
C888 C 0.76127 0.73885 0.88678 0.0
C889 C 0.78147 0.7367 0.90344 0.0
C890 C 0.78486 0.75492 0.92209 0.0
C891 C 0.76884 0.7754 0.9237 0.0
C892 C 0.74954 0.7774 0.90651 0.0
C893 C 0.74565 0.75959 0.88841 0.0
C894 C 0.72583 0.76779 0.87012 0.0
C895 C 0.73623 0.76892 0.84346 0.0
C896 C 0.70293 0.75079 0.87159 0.0
C897 C 0.72003 0.79345 0.88008 0.0
C898 C 0.73348 0.79838 0.90142 0.0
C899 C 0.73304 0.82166 0.91271 0.0
C900 C 0.71915 0.84061 0.90148 0.0
C901 C 0.70603 0.83626 0.87905 0.0
C902 C 0.70589 0.81212 0.86875 0.0
H903 H 0.23711 0.66091 0.12201 0.0
H904 H 0.17166 0.69683 0.15246 0.0
H905 H 0.18776 0.73751 0.13879 0.0
H906 H 0.27856 0.70307 0.1434 0.0
H907 H 0.2993 0.70228 0.1171 0.0
H908 H 0.28036 0.67574 0.12413 0.0
H909 H 0.26168 0.67691 0.07973 0.0
H910 H 0.28076 0.70346 0.07247 0.0
H911 H 0.24751 0.70508 0.06846 0.0
H912 H 0.21392 0.77455 0.12813 0.0
H913 H 0.24807 0.80455 0.12197 0.0
H914 H 0.29663 0.74443 0.09892 0.0
C915 C 0.2257 0.6772 0.12495 0.0
C916 C 0.20301 0.67565 0.13809 0.0
C917 C 0.18902 0.69754 0.14228 0.0
C918 C 0.19798 0.72074 0.1345 0.0
C919 C 0.22091 0.72175 0.12245 0.0
C920 C 0.23449 0.7005 0.11753 0.0
C921 C 0.25994 0.70678 0.10725 0.0
C922 C 0.28075 0.69636 0.12398 0.0
C923 C 0.26262 0.69751 0.08038 0.0
C924 C 0.259 0.73484 0.10825 0.0
C925 C 0.23616 0.74317 0.11658 0.0
C926 C 0.23171 0.76827 0.1211 0.0
C927 C 0.25125 0.78521 0.11759 0.0
C928 C 0.27504 0.77692 0.10987 0.0
C929 C 0.2786 0.75148 0.10451 0.0
H930 H 0.30818 0.30709 0.66055 0.0
H931 H 0.28716 0.35675 0.60062 0.0
H932 H 0.26489 0.32242 0.57999 0.0
H933 H 0.31292 0.24842 0.62211 0.0
H934 H 0.29955 0.23012 0.64677 0.0
H935 H 0.31829 0.25691 0.65408 0.0
H936 H 0.28212 0.27495 0.68027 0.0
H937 H 0.26332 0.24838 0.673 0.0
H938 H 0.25203 0.27912 0.66606 0.0
H939 H 0.23925 0.28557 0.56973 0.0
H940 H 0.21157 0.24911 0.57087 0.0
H941 H 0.24887 0.22291 0.63738 0.0
C942 C 0.29968 0.31051 0.64263 0.0
C943 C 0.2996 0.33455 0.63206 0.0
C944 C 0.28758 0.33846 0.60898 0.0
C945 C 0.27498 0.31903 0.59706 0.0
C946 C 0.27466 0.29576 0.6084 0.0
C947 C 0.28682 0.29136 0.63061 0.0
C948 C 0.28091 0.26569 0.64054 0.0
C949 C 0.30431 0.24931 0.64089 0.0
C950 C 0.26888 0.26714 0.66649 0.0
C951 C 0.26255 0.25683 0.62111 0.0
C952 C 0.25962 0.27427 0.60246 0.0
C953 C 0.24179 0.27151 0.58387 0.0
C954 C 0.2261 0.25078 0.58473 0.0
C955 C 0.22826 0.23308 0.60407 0.0
C956 C 0.24724 0.2358 0.62201 0.0
H957 H 0.75443 0.2833 0.36849 0.0
H958 H 0.72238 0.26153 0.43913 0.0
H959 H 0.75069 0.22556 0.4409 0.0
H960 H 0.75573 0.22597 0.34384 0.0
H961 H 0.78456 0.22883 0.32699 0.0
H962 H 0.76661 0.25606 0.33397 0.0
H963 H 0.80459 0.27577 0.35607 0.0
H964 H 0.82282 0.24858 0.34896 0.0
H965 H 0.82002 0.25904 0.38066 0.0
H966 H 0.77591 0.18821 0.43136 0.0
H967 H 0.7964 0.15246 0.41132 0.0
H968 H 0.81235 0.19789 0.34668 0.0
C969 C 0.7542 0.27158 0.38485 0.0
C970 C 0.73646 0.27535 0.40383 0.0
C971 C 0.73599 0.25907 0.42449 0.0
C972 C 0.75207 0.23864 0.42569 0.0
C973 C 0.76859 0.23474 0.40613 0.0
C974 C 0.76997 0.25089 0.38617 0.0
C975 C 0.78673 0.24063 0.36598 0.0
C976 C 0.77255 0.23769 0.34126 0.0
C977 C 0.80992 0.25698 0.36273 0.0
C978 C 0.79345 0.21566 0.37711 0.0
C979 C 0.78321 0.21285 0.4005 0.0
C980 C 0.78455 0.1904 0.41333 0.0
C981 C 0.79615 0.17015 0.40176 0.0
C982 C 0.80619 0.17243 0.37754 0.0
C983 C 0.8054 0.19572 0.36544 0.0
H984 H 0.13918 0.22128 0.52712 0.0
H985 H 0.11694 0.14612 0.54522 0.0
H986 H 0.1072 0.13843 0.50077 0.0
H987 H 0.09539 0.23306 0.47615 0.0
H988 H 0.11825 0.24945 0.45796 0.0
H989 H 0.11999 0.24996 0.4914 0.0
H990 H 0.16514 0.23324 0.48938 0.0
H991 H 0.16354 0.23261 0.45599 0.0
H992 H 0.17138 0.20479 0.47288 0.0
H993 H 0.101 0.13898 0.45395 0.0
H994 H 0.1034 0.14576 0.40852 0.0
H995 H 0.13398 0.21917 0.42114 0.0
C996 C 0.13163 0.20342 0.52179 0.0
C997 C 0.12819 0.18444 0.53956 0.0
C998 C 0.11931 0.16097 0.53184 0.0
C999 C 0.1137 0.1565 0.5067 0.0
C1000 C 0.1176 0.17556 0.48954 0.0
C1001 C 0.12667 0.19846 0.49677 0.0
C1002 C 0.13188 0.21491 0.47453 0.0
C1003 C 0.11539 0.23822 0.47505 0.0
C1004 C 0.15963 0.22178 0.47312 0.0
C1005 C 0.12448 0.19768 0.45359 0.0
C1006 C 0.11577 0.17527 0.46261 0.0
C1007 C 0.10781 0.15644 0.44671 0.0
C1008 C 0.10917 0.16048 0.42095 0.0
C1009 C 0.11895 0.18294 0.41137 0.0
C1010 C 0.1265 0.20179 0.42796 0.0
H1011 H 0.36268 0.84304 0.03206 0.0
H1012 H 0.40374 0.77526 0.04683 0.0
H1013 H 0.417 0.77375 1.00295 0.0
H1014 H 0.33879 0.82482 0.97531 0.0
H1015 H 0.34087 0.85477 0.96051 0.0
H1016 H 0.33771 0.85276 0.99372 0.0
H1017 H 0.3778 0.87882 0.9994 0.0
H1018 H 0.38104 0.88104 0.96612 0.0
H1019 H 0.40622 0.86891 0.98463 0.0
H1020 H 0.42189 0.77688 0.95676 0.0
H1021 H 0.41785 0.78461 0.91149 0.0
H1022 H 0.37332 0.84987 0.92649 0.0
C1023 C 0.37503 0.82827 0.02622 0.0
C1024 C 0.38234 0.80937 0.04292 0.0
C1025 C 0.39801 0.79001 0.03441 0.0
C1026 C 0.40569 0.78903 0.00952 0.0
C1027 C 0.39762 0.80758 0.99337 0.0
C1028 C 0.38274 0.82692 1.00139 0.0
C1029 C 0.37488 0.84329 0.97985 0.0
C1030 C 0.34638 0.84392 0.9772 0.0
C1031 C 0.38563 0.86957 0.98267 0.0
C1032 C 0.38694 0.82964 0.95838 0.0
C1033 C 0.40031 0.8093 0.96662 0.0
C1034 C 0.41187 0.79299 0.95012 0.0
C1035 C 0.40951 0.79748 0.92453 0.0
C1036 C 0.39567 0.81799 0.91584 0.0
C1037 C 0.38444 0.83436 0.9329 0.0
H1038 H 0.64626 0.28322 0.48362 0.0
H1039 H 0.61971 0.35654 0.46373 0.0
H1040 H 0.60805 0.36415 0.50766 0.0
H1041 H 0.60159 0.26942 0.53357 0.0
H1042 H 0.62492 0.25479 0.55267 0.0
H1043 H 0.62759 0.25383 0.51929 0.0
H1044 H 0.67156 0.27332 0.52222 0.0
H1045 H 0.66902 0.2744 0.55554 0.0
H1046 H 0.67558 0.30237 0.53837 0.0
H1047 H 0.60082 0.36408 0.55414 0.0
H1048 H 0.60292 0.35848 0.59973 0.0
H1049 H 0.63809 0.28677 0.58928 0.0
C1050 C 0.63737 0.30061 0.48844 0.0
C1051 C 0.63332 0.31913 0.47033 0.0
C1052 C 0.62261 0.34205 0.47738 0.0
C1053 C 0.61588 0.34646 0.50222 0.0
C1054 C 0.62044 0.32791 0.51975 0.0
C1055 C 0.63122 0.30554 0.51319 0.0
C1056 C 0.63683 0.28981 0.53583 0.0
C1057 C 0.62183 0.26553 0.5353 0.0
C1058 C 0.66491 0.28469 0.53812 0.0
C1059 C 0.6278 0.30691 0.55623 0.0
C1060 C 0.61788 0.32854 0.54657 0.0
C1061 C 0.60852 0.3472 0.56189 0.0
C1062 C 0.60973 0.34383 0.58773 0.0
C1063 C 0.62074 0.32224 0.59796 0.0
C1064 C 0.62963 0.30349 0.58194 0.0
H1065 H 0.84763 0.67679 0.08786 0.0
H1066 H 0.92709 0.68549 0.09833 0.0
H1067 H 0.93306 0.68544 0.05262 0.0
H1068 H 0.85274 0.63421 0.03526 0.0
H1069 H 0.82562 0.64659 0.01995 0.0
H1070 H 0.82779 0.64736 0.05336 0.0
H1071 H 0.82072 0.69495 0.05287 0.0
H1072 H 0.81842 0.6943 0.01951 0.0
H1073 H 0.8408 0.71433 0.03435 0.0
H1074 H 0.92936 0.6889 0.00565 0.0
H1075 H 0.91684 0.69126 0.9613 0.0
H1076 H 0.84069 0.67507 0.98186 0.0
C1077 C 0.86628 0.67867 0.08048 0.0
C1078 C 0.8869 0.68145 0.09647 0.0
C1079 C 0.91108 0.68342 0.08628 0.0
C1080 C 0.91461 0.68341 0.0604 0.0
C1081 C 0.89383 0.68073 0.04509 0.0
C1082 C 0.87019 0.67794 0.05479 0.0
C1083 C 0.85101 0.67488 0.03441 0.0
C1084 C 0.83856 0.64923 0.03584 0.0
C1085 C 0.8316 0.69587 0.03535 0.0
C1086 C 0.86742 0.67703 0.01166 0.0
C1087 C 0.89205 0.68064 0.01817 0.0
C1088 C 0.91026 0.68545 1.00033 0.0
C1089 C 0.90304 0.68675 0.97525 0.0
C1090 C 0.87801 0.68264 0.96831 0.0
C1091 C 0.86011 0.6774 0.98671 0.0
H1092 H 0.41727 0.13475 0.21903 0.0
H1093 H 0.40495 0.10072 0.14702 0.0
H1094 H 0.45042 0.09801 0.14055 0.0
H1095 H 0.46848 0.17141 0.20294 0.0
H1096 H 0.48507 0.16684 0.2317 0.0
H1097 H 0.45168 0.16476 0.23117 0.0
H1098 H 0.45398 0.12059 0.25014 0.0
H1099 H 0.48744 0.12257 0.25078 0.0
H1100 H 0.47246 0.09711 0.23501 0.0
H1101 H 0.49715 0.10428 0.13981 0.0
H1102 H 0.54151 0.11479 0.14696 0.0
H1103 H 0.52327 0.1406 0.22103 0.0
C1104 C 0.42417 0.12643 0.20205 0.0
C1105 C 0.40765 0.11802 0.18348 0.0
C1106 C 0.41732 0.10717 0.16154 0.0
C1107 C 0.44311 0.1056 0.15768 0.0
C1108 C 0.45894 0.11443 0.1762 0.0
C1109 C 0.44983 0.12417 0.19817 0.0
C1110 C 0.47074 0.13257 0.21504 0.0
C1111 C 0.46887 0.16055 0.22052 0.0
C1112 C 0.47118 0.11729 0.23917 0.0
C1113 C 0.49301 0.12672 0.19884 0.0
C1114 C 0.48585 0.11643 0.17642 0.0
C1115 C 0.50303 0.11172 0.15754 0.0
C1116 C 0.52813 0.11776 0.16171 0.0
C1117 C 0.53578 0.12789 0.18472 0.0
C1118 C 0.518 0.1321 0.20356 0.0
H1119 H 0.98221 0.86435 0.72188 0.0
H1120 H 0.96387 0.88762 0.64697 0.0
H1121 H 0.00759 0.90082 0.6405 0.0
H1122 H 0.02992 0.91143 0.73588 0.0
H1123 H 0.04934 0.8894 0.75199 0.0
H1124 H 0.01605 0.88549 0.75188 0.0
H1125 H 0.02129 0.84112 0.73402 0.0
H1126 H 0.05452 0.84489 0.73403 0.0
H1127 H 0.03862 0.83675 0.70568 0.0
H1128 H 0.05399 0.90965 0.64186 0.0
H1129 H 0.09949 0.90902 0.64902 0.0
H1130 H 0.08752 0.87628 0.72167 0.0
C1131 C 0.98726 0.87287 0.70436 0.0
C1132 C 0.96964 0.87552 0.68508 0.0
C1133 C 0.9771 0.88578 0.66205 0.0
C1134 C 1.00183 0.89338 0.65827 0.0
C1135 C 0.01889 0.89017 0.67759 0.0
C1136 C 0.01193 0.8799 0.70009 0.0
C1137 C 0.03421 0.87571 0.71679 0.0
C1138 C 0.03226 0.89145 0.74054 0.0
C1139 C 0.03734 0.84797 0.72298 0.0
C1140 C 0.05489 0.88491 0.7001 0.0
C1141 C 0.04567 0.89372 0.67779 0.0
C1142 C 0.06138 0.90286 0.6593 0.0
C1143 C 0.08717 0.9025 0.66355 0.0
C1144 C 0.09698 0.89257 0.68587 0.0
C1145 C 0.08054 0.88398 0.70443 0.0
H1146 H 0.0262 0.37529 0.84286 0.0
H1147 H 0.04249 0.39684 0.76683 0.0
H1148 H 0.99892 0.4096 0.76108 0.0
H1149 H 0.96892 0.34884 0.8313 0.0
H1150 H 0.95388 0.3595 0.85927 0.0
H1151 H 0.98705 0.35522 0.85877 0.0
H1152 H 0.99342 0.40079 0.87274 0.0
H1153 H 0.96018 0.4052 0.87342 0.0
H1154 H 0.97941 0.42556 0.85506 0.0
H1155 H 0.95284 0.41344 0.76115 0.0
H1156 H 0.90742 0.41109 0.76836 0.0
H1157 H 0.92058 0.38986 0.84487 0.0
C1158 C 0.02075 0.38332 0.82523 0.0
C1159 C 0.03783 0.38509 0.80532 0.0
C1160 C 0.02984 0.39535 0.78241 0.0
C1161 C 0.00509 0.4027 0.77895 0.0
C1162 C 0.98855 0.40005 0.79867 0.0
C1163 C 0.99607 0.39097 0.82151 0.0
C1164 C 0.97414 0.38848 0.83908 0.0
C1165 C 0.97081 0.3614 0.84759 0.0
C1166 C 0.97696 0.40606 0.86139 0.0
C1167 C 0.95305 0.39666 0.82222 0.0
C1168 C 0.96183 0.40334 0.79901 0.0
C1169 C 0.94577 0.40899 0.77944 0.0
C1170 C 0.92007 0.40758 0.78365 0.0
C1171 C 0.91077 0.401 0.80728 0.0
C1172 C 0.92741 0.39582 0.8269 0.0
H1173 H 0.4828 0.6359 0.34476 0.0
H1174 H 0.46664 0.62471 0.26646 0.0
H1175 H 0.51053 0.6143 0.25889 0.0
H1176 H 0.53985 0.66493 0.3372 0.0
H1177 H 0.55513 0.6505 0.3633 0.0
H1178 H 0.52189 0.65435 0.36344 0.0
H1179 H 0.51616 0.60715 0.37057 0.0
H1180 H 0.54946 0.60315 0.37063 0.0
H1181 H 0.53047 0.58543 0.34946 0.0
H1182 H 0.55665 0.61172 0.25833 0.0
H1183 H 0.60205 0.61276 0.26591 0.0
H1184 H 0.58882 0.62211 0.34477 0.0
C1185 C 0.48839 0.63066 0.32615 0.0
C1186 C 0.47121 0.63112 0.30622 0.0
C1187 C 0.47936 0.62442 0.28208 0.0
C1188 C 0.50429 0.61848 0.27755 0.0
C1189 C 0.52087 0.61887 0.29741 0.0
C1190 C 0.51325 0.62433 0.32133 0.0
C1191 C 0.5352 0.62451 0.33909 0.0
C1192 C 0.53819 0.65009 0.35147 0.0
C1193 C 0.53267 0.60382 0.35859 0.0
C1194 C 0.55638 0.61919 0.32123 0.0
C1195 C 0.54764 0.61604 0.29726 0.0
C1196 C 0.56371 0.61345 0.27709 0.0
C1197 C 0.58939 0.61414 0.28152 0.0
C1198 C 0.59869 0.61693 0.30591 0.0
C1199 C 0.58201 0.61918 0.32605 0.0
H1200 H 0.16078 0.4193 0.13041 0.0
H1201 H 0.23862 0.40095 0.12075 0.0
H1202 H 0.24907 0.44563 0.11893 0.0
H1203 H 0.15957 0.47701 0.09263 0.0
H1204 H 0.13945 0.4929 0.11419 0.0
H1205 H 0.13743 0.45966 0.11082 0.0
H1206 H 0.1446 0.45437 0.15815 0.0
H1207 H 0.14663 0.48752 0.16164 0.0
H1208 H 0.17174 0.46806 0.1723 0.0
H1209 H 0.25149 0.49162 0.12059 0.0
H1210 H 0.24677 0.53606 0.12995 0.0
H1211 H 0.16763 0.52523 0.14193 0.0
C1212 C 0.17988 0.42484 0.12727 0.0
C1213 C 0.19892 0.40692 0.12517 0.0
C1214 C 0.22385 0.41457 0.12205 0.0
C1215 C 0.2299 0.43984 0.1209 0.0
C1216 C 0.2108 0.45718 0.12334 0.0
C1217 C 0.18632 0.45008 0.12674 0.0
C1218 C 0.1699 0.47244 0.1318 0.0
C1219 C 0.15043 0.47569 0.11112 0.0
C1220 C 0.1575 0.47047 0.1575 0.0
C1221 C 0.18906 0.49311 0.13115 0.0
C1222 C 0.2124 0.48388 0.12568 0.0
C1223 C 0.23328 0.49911 0.12475 0.0
C1224 C 0.23038 0.52438 0.13009 0.0
C1225 C 0.20682 0.53419 0.13668 0.0
C1226 C 0.18584 0.51834 0.13679 0.0
H1227 H 0.66516 0.98636 0.86306 0.0
H1228 H 0.74089 0.97144 0.88688 0.0
H1229 H 0.74613 0.01542 0.89799 0.0
H1230 H 0.6771 0.04303 0.83467 0.0
H1231 H 0.64874 0.05811 0.84424 0.0
H1232 H 0.64962 0.02489 0.84089 0.0
H1233 H 0.63457 0.01968 0.88633 0.0
H1234 H 0.63352 0.05295 0.8898 0.0
H1235 H 0.65155 0.03447 0.91115 0.0
H1236 H 0.74541 0.06133 0.90118 0.0
H1237 H 0.73759 0.10655 0.8985 0.0
H1238 H 0.66199 0.09232 0.87465 0.0
C1239 C 0.68263 0.99225 0.87115 0.0
C1240 C 0.70259 0.97541 0.87412 0.0
C1241 C 0.72529 0.98394 0.88445 0.0
C1242 C 0.72846 0.00891 0.89088 0.0
C1243 C 0.70868 0.02514 0.88716 0.0
C1244 C 0.68609 0.01719 0.87782 0.0
C1245 C 0.6684 0.03885 0.87429 0.0
C1246 C 0.66052 0.04136 0.8469 0.0
C1247 C 0.64566 0.03633 0.89142 0.0
C1248 C 0.68489 0.06024 0.8823 0.0
C1249 C 0.70802 0.05185 0.88977 0.0
C1250 C 0.7272 0.06813 0.89597 0.0
C1251 C 0.72266 0.09369 0.89437 0.0
C1252 C 0.69912 0.1026 0.88692 0.0
C1253 C 0.67991 0.08575 0.88106 0.0
H1254 H 0.84173 0.0207 0.36757 0.0
H1255 H 0.7641 0.03537 0.38435 0.0
H1256 H 0.75754 0.99105 0.39306 0.0
H1257 H 0.8328 0.96501 0.3363 0.0
H1258 H 0.85989 0.94942 0.34838 0.0
H1259 H 0.85951 0.98273 0.34605 0.0
H1260 H 0.86958 0.9864 0.39299 0.0
H1261 H 0.87017 0.95302 0.39545 0.0
H1262 H 0.85 0.97091 0.41533 0.0
H1263 H 0.75756 0.94499 0.39371 0.0
H1264 H 0.76547 0.89985 0.39037 0.0
H1265 H 0.84349 0.91432 0.37647 0.0
C1266 C 0.82352 0.01465 0.37365 0.0
C1267 C 0.80344 0.03156 0.37527 0.0
C1268 C 0.77981 0.02286 0.38303 0.0
C1269 C 0.77587 0.99767 0.38803 0.0
C1270 C 0.79581 0.98139 0.38561 0.0
C1271 C 0.81929 0.98951 0.37904 0.0
C1272 C 0.8372 0.96784 0.37674 0.0
C1273 C 0.84797 0.96616 0.3503 0.0
C1274 C 0.85797 0.96966 0.3963 0.0
C1275 C 0.81987 0.94629 0.3822 0.0
C1276 C 0.79607 0.95459 0.38724 0.0
C1277 C 0.77624 0.93824 0.39046 0.0
C1278 C 0.78084 0.91272 0.38846 0.0
C1279 C 0.8051 0.90386 0.38373 0.0
C1280 C 0.82492 0.92078 0.38084 0.0
H1281 H 0.2818 0.48617 0.64909 0.0
H1282 H 0.35576 0.46679 0.62357 0.0
H1283 H 0.36268 0.51041 0.61062 0.0
H1284 H 0.26736 0.53397 0.60261 0.0
H1285 H 0.25213 0.55368 0.625 0.0
H1286 H 0.25184 0.52047 0.62905 0.0
H1287 H 0.27103 0.52552 0.67296 0.0
H1288 H 0.27135 0.55868 0.66907 0.0
H1289 H 0.29972 0.54247 0.67652 0.0
H1290 H 0.36181 0.5565 0.60181 0.0
H1291 H 0.35544 0.60196 0.60242 0.0
H1292 H 0.28341 0.59139 0.63715 0.0
C1293 C 0.29923 0.49103 0.64026 0.0
C1294 C 0.31811 0.47315 0.63686 0.0
C1295 C 0.34101 0.48027 0.62607 0.0
C1296 C 0.34503 0.50492 0.61858 0.0
C1297 C 0.32609 0.52221 0.6224 0.0
C1298 C 0.30376 0.51561 0.63329 0.0
C1299 C 0.28748 0.53809 0.63784 0.0
C1300 C 0.26327 0.53645 0.62272 0.0
C1301 C 0.28209 0.54138 0.66575 0.0
C1302 C 0.30423 0.55845 0.62811 0.0
C1303 C 0.32618 0.54888 0.61876 0.0
C1304 C 0.34468 0.56418 0.60904 0.0
C1305 C 0.34086 0.58996 0.60938 0.0
C1306 C 0.31896 0.60015 0.61987 0.0
C1307 C 0.30033 0.58411 0.62902 0.0
H1308 H 0.86381 0.78402 0.4795 0.0
H1309 H 0.88367 0.85986 0.46143 0.0
H1310 H 0.89669 0.86674 0.50516 0.0
H1311 H 0.83576 0.79878 0.53644 0.0
H1312 H 0.8453 0.77068 0.55195 0.0
H1313 H 0.84109 0.77084 0.51878 0.0
H1314 H 0.88618 0.75486 0.51289 0.0
H1315 H 0.89055 0.75468 0.54611 0.0
H1316 H 0.91166 0.77182 0.52655 0.0
H1317 H 0.90634 0.86533 0.55138 0.0
H1318 H 0.90683 0.85777 0.59675 0.0
H1319 H 0.87673 0.78406 0.58469 0.0
C1320 C 0.87147 0.8019 0.48463 0.0
C1321 C 0.87329 0.82129 0.46708 0.0
C1322 C 0.88246 0.84472 0.47462 0.0
C1323 C 0.88996 0.84872 0.49934 0.0
C1324 C 0.88771 0.82922 0.5163 0.0
C1325 C 0.87836 0.80637 0.50928 0.0
C1326 C 0.87516 0.78934 0.53144 0.0
C1327 C 0.8477 0.78199 0.53485 0.0
C1328 C 0.89189 0.76631 0.5291 0.0
C1329 C 0.88393 0.80622 0.55214 0.0
C1330 C 0.89165 0.82894 0.543 0.0
C1331 C 0.90036 0.8476 0.5587 0.0
C1332 C 0.90067 0.84311 0.58442 0.0
C1333 C 0.89179 0.82035 0.59418 0.0
C1334 C 0.88363 0.80163 0.57774 0.0
H1335 H 0.64955 0.22534 0.98416 0.0
H1336 H 0.62825 0.15098 0.96197 0.0
H1337 H 0.61407 0.1423 0.00495 0.0
H1338 H 0.67556 0.20718 0.04149 0.0
H1339 H 0.66613 0.23478 0.05792 0.0
H1340 H 0.67151 0.236 0.02495 0.0
H1341 H 0.62705 0.25337 0.01825 0.0
H1342 H 0.62149 0.25211 0.05126 0.0
H1343 H 0.60071 0.23642 0.03017 0.0
H1344 H 0.60299 0.14174 0.05071 0.0
H1345 H 0.60101 0.14718 0.09633 0.0
H1346 H 0.63317 0.22064 0.08889 0.0
C1347 C 0.64145 0.20739 0.98828 0.0
C1348 C 0.63954 0.18893 0.96977 0.0
C1349 C 0.62964 0.16539 0.97593 0.0
C1350 C 0.62145 0.16038 1.00022 0.0
C1351 C 0.62371 0.17898 0.01813 0.0
C1352 C 0.63381 0.2019 0.0125 0.0
C1353 C 0.6366 0.2178 0.03553 0.0
C1354 C 0.66408 0.22431 0.04025 0.0
C1355 C 0.6205 0.24131 0.03368 0.0
C1356 C 0.6267 0.2002 0.05509 0.0
C1357 C 0.61882 0.17812 0.04463 0.0
C1358 C 0.6091 0.15896 0.05909 0.0
C1359 C 0.60794 0.16226 0.08495 0.0
C1360 C 0.61697 0.18431 0.09608 0.0
C1361 C 0.62614 0.20359 0.08086 0.0
H1362 H 0.38225 0.72109 0.42546 0.0
H1363 H 0.41224 0.647 0.41585 0.0
H1364 H 0.41251 0.64126 0.46152 0.0
H1365 H 0.41757 0.73567 0.48324 0.0
H1366 H 0.39195 0.75306 0.49605 0.0
H1367 H 0.39652 0.75197 0.46288 0.0
H1368 H 0.35148 0.73575 0.45727 0.0
H1369 H 0.34684 0.73663 0.49034 0.0
H1370 H 0.34186 0.70811 0.47354 0.0
H1371 H 0.40297 0.6415 0.50773 0.0
H1372 H 0.3889 0.64946 0.55089 0.0
H1373 H 0.3688 0.72461 0.53032 0.0
C1374 C 0.38939 0.70386 0.43301 0.0
C1375 C 0.39722 0.68447 0.41719 0.0
C1376 C 0.40635 0.66216 0.42769 0.0
C1377 C 0.4065 0.65872 0.45359 0.0
C1378 C 0.39802 0.67801 0.46867 0.0
C1379 C 0.39016 0.70036 0.45875 0.0
C1380 C 0.38115 0.71786 0.47883 0.0
C1381 C 0.3978 0.74101 0.48034 0.0
C1382 C 0.35371 0.72499 0.47474 0.0
C1383 C 0.38428 0.70159 0.50153 0.0
C1384 C 0.39396 0.67862 0.49535 0.0
C1385 C 0.39604 0.65964 0.5129 0.0
C1386 C 0.38795 0.66427 0.53731 0.0
C1387 C 0.37831 0.68779 0.54397 0.0
C1388 C 0.37684 0.70671 0.52589 0.0
H1389 H 0.13353 0.29046 0.02682 0.0
H1390 H 0.11918 0.36732 0.04576 0.0
H1391 H 0.10673 0.37563 1.00211 0.0
H1392 H 0.16267 0.30374 0.97024 0.0
H1393 H 0.15117 0.2766 0.95437 0.0
H1394 H 0.15522 0.27607 0.98755 0.0
H1395 H 0.10905 0.26339 0.99307 0.0
H1396 H 0.10484 0.26392 0.95984 0.0
H1397 H 0.08495 0.28233 0.97951 0.0
H1398 H 0.09733 0.37551 0.95569 0.0
H1399 H 0.0969 0.36855 0.91019 0.0
H1400 H 0.12122 0.29268 0.9217 0.0
C1401 C 0.12716 0.3089 0.02191 0.0
C1402 C 0.12677 0.32816 0.03969 0.0
C1403 C 0.11929 0.35227 0.03241 0.0
C1404 C 0.11212 0.3571 0.00772 0.0
C1405 C 0.11296 0.33768 0.99054 0.0
C1406 C 0.12061 0.31413 0.99731 0.0
C1407 C 0.12266 0.29718 0.97497 0.0
C1408 C 0.14952 0.28786 0.97159 0.0
C1409 C 0.10427 0.27542 0.97697 0.0
C1410 C 0.11524 0.31489 0.95444 0.0
C1411 C 0.10914 0.33801 0.9638 0.0
C1412 C 0.10202 0.35746 0.94821 0.0
C1413 C 0.10172 0.35332 0.92241 0.0
C1414 C 0.10904 0.33009 0.91248 0.0
C1415 C 0.11551 0.31061 0.92879 0.0
H1416 H 0.58984 0.87593 0.79131 0.0
H1417 H 0.60067 0.90875 0.8641 0.0
H1418 H 0.55504 0.90978 0.87034 0.0
H1419 H 0.53336 0.91193 0.77579 0.0
H1420 H 0.51951 0.88626 0.75934 0.0
H1421 H 0.55285 0.88955 0.76026 0.0
H1422 H 0.55676 0.84507 0.77822 0.0
H1423 H 0.52348 0.8417 0.77748 0.0
H1424 H 0.54013 0.83713 0.80621 0.0
H1425 H 0.50845 0.90177 0.87059 0.0
H1426 H 0.46452 0.89004 0.86278 0.0
H1427 H 0.4842 0.86639 0.78835 0.0
C1428 C 0.58257 0.88369 0.80841 0.0
C1429 C 0.59871 0.8922 0.82727 0.0
C1430 C 0.58857 0.90227 0.84936 0.0
C1431 C 0.56271 0.90285 0.85309 0.0
C1432 C 0.54728 0.89385 0.83428 0.0
C1433 C 0.55685 0.88495 0.81215 0.0
C1434 C 0.53638 0.87612 0.79497 0.0
C1435 C 0.53547 0.89191 0.77119 0.0
C1436 C 0.53937 0.84836 0.78888 0.0
C1437 C 0.51382 0.88072 0.81115 0.0
C1438 C 0.52045 0.89078 0.83384 0.0
C1439 C 0.50297 0.89448 0.85266 0.0
C1440 C 0.47813 0.88772 0.84813 0.0
C1441 C 0.47099 0.87785 0.82482 0.0
C1442 C 0.48906 0.87459 0.80609 0.0
H1443 H 0.91834 0.12719 0.29105 0.0
H1444 H 0.90706 0.09618 0.36456 0.0
H1445 H 0.95261 0.09601 0.37143 0.0
H1446 H 0.9761 0.0921 0.2773 0.0
H1447 H 0.98949 0.11777 0.2605 0.0
H1448 H 0.95625 0.11352 0.26088 0.0
H1449 H 0.95073 0.15829 0.27765 0.0
H1450 H 0.9839 0.16262 0.27748 0.0
H1451 H 0.96658 0.16736 0.30576 0.0
H1452 H 0.99896 0.10516 0.37226 0.0
H1453 H 0.04259 0.11831 0.36509 0.0
H1454 H 0.02354 0.13968 0.28978 0.0
C1455 C 0.9255 0.11994 0.30842 0.0
C1456 C 0.90924 0.11172 0.3273 0.0
C1457 C 0.91925 0.10238 0.34978 0.0
C1458 C 0.94506 0.10229 0.35387 0.0
C1459 C 0.96059 0.11108 0.33505 0.0
C1460 C 0.95118 0.11922 0.31256 0.0
C1461 C 0.97169 0.12825 0.29555 0.0
C1462 C 0.97349 0.11193 0.27218 0.0
C1463 C 0.968 0.15576 0.28873 0.0
C1464 C 0.99405 0.12469 0.31225 0.0
C1465 C 0.98732 0.11489 0.33503 0.0
C1466 C 0.00454 0.11223 0.35428 0.0
C1467 C 0.02921 0.1198 0.3501 0.0
C1468 C 0.03645 0.12949 0.32675 0.0
C1469 C 0.01866 0.13164 0.30758 0.0
H1470 H 0.09029 0.62554 0.22024 0.0
H1471 H 0.10277 0.59395 0.14718 0.0
H1472 H 0.05735 0.59386 0.13952 0.0
H1473 H 0.03204 0.59088 0.23324 0.0
H1474 H 0.01857 0.61681 0.24958 0.0
H1475 H 0.05178 0.61226 0.24984 0.0
H1476 H 0.05793 0.65686 0.23284 0.0
H1477 H 0.0248 0.66147 0.23231 0.0
H1478 H 0.04272 0.66583 0.20434 0.0
H1479 H 0.01099 0.60318 0.13783 0.0
H1480 H 0.96725 0.6164 0.14425 0.0
H1481 H 0.98526 0.63854 0.21959 0.0
C1482 C 0.08342 0.61813 0.20283 0.0
C1483 C 0.09997 0.60976 0.18428 0.0
C1484 C 0.09035 0.60025 0.16171 0.0
C1485 C 0.0646 0.60023 0.15717 0.0
C1486 C 0.04878 0.60924 0.17563 0.0
C1487 C 0.05783 0.61749 0.19823 0.0
C1488 C 0.0371 0.62684 0.21478 0.0
C1489 C 0.03473 0.61073 0.23825 0.0
C1490 C 0.04087 0.65438 0.22144 0.0
C1491 C 0.01503 0.62333 0.19769 0.0
C1492 C 0.02208 0.61327 0.17513 0.0
C1493 C 0.00516 0.61048 0.15564 0.0
C1494 C 0.98043 0.61812 0.15938 0.0
C1495 C 0.97287 0.62804 0.18253 0.0
C1496 C 0.99039 0.6304 0.20192 0.0
H1497 H 0.41811 0.37294 0.71716 0.0
H1498 H 0.40581 0.40582 0.64462 0.0
H1499 H 0.4513 0.40696 0.63749 0.0
H1500 H 0.47464 0.40909 0.73164 0.0
H1501 H 0.48893 0.38347 0.74779 0.0
H1502 H 0.45556 0.3866 0.7475 0.0
H1503 H 0.45153 0.34212 0.72956 0.0
H1504 H 0.48483 0.3389 0.7297 0.0
H1505 H 0.4677 0.33429 0.70127 0.0
H1506 H 0.49786 0.39913 0.63636 0.0
H1507 H 0.54197 0.38749 0.64335 0.0
H1508 H 0.52368 0.36372 0.7181 0.0
C1509 C 0.42503 0.38069 0.69992 0.0
C1510 C 0.40855 0.38921 0.68139 0.0
C1511 C 0.41821 0.39932 0.6591 0.0
C1512 C 0.44398 0.39997 0.65487 0.0
C1513 C 0.45977 0.39101 0.67338 0.0
C1514 C 0.45066 0.38204 0.69568 0.0
C1515 C 0.47146 0.37329 0.71247 0.0
C1516 C 0.47272 0.38906 0.73626 0.0
C1517 C 0.46871 0.34551 0.71859 0.0
C1518 C 0.49366 0.37802 0.69588 0.0
C1519 C 0.48659 0.38808 0.67332 0.0
C1520 C 0.5037 0.39185 0.65418 0.0
C1521 C 0.52864 0.38514 0.65825 0.0
C1522 C 0.53619 0.37525 0.68141 0.0
C1523 C 0.5185 0.37195 0.70047 0.0
H1524 H 0.84912 0.5924 0.87823 0.0
H1525 H 0.77254 0.60583 0.89918 0.0
H1526 H 0.76574 0.56059 0.90369 0.0
H1527 H 0.83557 0.54219 0.83954 0.0
H1528 H 0.86332 0.52474 0.8465 0.0
H1529 H 0.86347 0.55801 0.84925 0.0
H1530 H 0.87805 0.55424 0.89501 0.0
H1531 H 0.87787 0.52087 0.89239 0.0
H1532 H 0.86017 0.53585 0.91656 0.0
H1533 H 0.76635 0.51447 0.90299 0.0
H1534 H 0.7724 0.47044 0.89252 0.0
H1535 H 0.84791 0.48634 0.86876 0.0
C1536 C 0.83118 0.58569 0.88443 0.0
C1537 C 0.81143 0.60234 0.88894 0.0
C1538 C 0.78788 0.59318 0.89603 0.0
C1539 C 0.78393 0.5676 0.89873 0.0
C1540 C 0.80367 0.55151 0.89387 0.0
C1541 C 0.82677 0.56013 0.88658 0.0
C1542 C 0.84377 0.53884 0.87936 0.0
C1543 C 0.852 0.54108 0.85204 0.0
C1544 C 0.8663 0.53737 0.89688 0.0
C1545 C 0.82644 0.51696 0.88316 0.0
C1546 C 0.80363 0.5247 0.89213 0.0
C1547 C 0.78418 0.50815 0.89614 0.0
C1548 C 0.78784 0.48313 0.89013 0.0
C1549 C 0.81065 0.47488 0.87981 0.0
C1550 C 0.83037 0.492 0.87685 0.0
H1551 H 0.28979 0.91705 0.12803 0.0
H1552 H 0.36433 0.90652 0.09913 0.0
H1553 H 0.37038 0.95205 0.09825 0.0
H1554 H 0.27601 0.97431 0.09173 0.0
H1555 H 0.25839 0.98762 0.11692 0.0
H1556 H 0.2593 0.95442 0.11288 0.0
H1557 H 0.275 0.94941 0.15816 0.0
H1558 H 0.27432 0.98253 0.16228 0.0
H1559 H 0.30271 0.9656 0.16785 0.0
H1560 H 0.37034 0.99829 0.10692 0.0
H1561 H 0.36245 0.04174 0.11995 0.0
H1562 H 0.28685 0.02201 0.13971 0.0
C1563 C 0.30719 0.92435 0.12101 0.0
C1564 C 0.32661 0.90833 0.11366 0.0
C1565 C 0.34915 0.91852 0.10466 0.0
C1566 C 0.35277 0.94434 0.10417 0.0
C1567 C 0.33345 0.95965 0.11218 0.0
C1568 C 0.3109 0.95003 0.11992 0.0
C1569 C 0.29341 0.97034 0.1284 0.0
C1570 C 0.27042 0.97175 0.11147 0.0
C1571 C 0.28594 0.96675 0.1558 0.0
C1572 C 0.30992 0.99283 0.12511 0.0
C1573 C 0.33299 0.98634 0.11581 0.0
C1574 C 0.35213 0.00369 0.11358 0.0
C1575 C 0.34755 0.02826 0.12109 0.0
C1576 C 0.32393 0.03523 0.13033 0.0
C1577 C 0.30486 0.01732 0.13202 0.0
H1578 H 0.16277 0.98354 0.64309 0.0
H1579 H 0.2409 0.96985 0.62788 0.0
H1580 H 0.24655 0.01383 0.61701 0.0
H1581 H 0.15385 0.03056 0.59285 0.0
H1582 H 0.13309 0.049 0.61158 0.0
H1583 H 0.13441 0.01583 0.61582 0.0
H1584 H 0.14397 0.02217 0.66258 0.0
H1585 H 0.1428 0.05529 0.65848 0.0
H1586 H 0.17016 0.04104 0.6716 0.0
H1587 H 0.24545 0.05978 0.61384 0.0
H1588 H 0.2365 0.10484 0.61497 0.0
H1589 H 0.15872 0.08927 0.62895 0.0
C1590 C 0.18092 0.9897 0.63695 0.0
C1591 C 0.20138 0.97319 0.63634 0.0
C1592 C 0.2249 0.98206 0.62844 0.0
C1593 C 0.22833 0.00705 0.6222 0.0
C1594 C 0.20798 0.02295 0.62355 0.0
C1595 C 0.18463 0.01464 0.63033 0.0
C1596 C 0.16621 0.03597 0.63132 0.0
C1597 C 0.14568 0.03264 0.61172 0.0
C1598 C 0.15515 0.03877 0.65755 0.0
C1599 C 0.18308 0.05761 0.62487 0.0
C1600 C 0.20712 0.04962 0.62047 0.0
C1601 C 0.22659 0.06625 0.61657 0.0
C1602 C 0.2214 0.09173 0.61729 0.0
C1603 C 0.19691 0.10026 0.62144 0.0
C1604 C 0.17745 0.08303 0.62496 0.0
H1605 H 0.71923 0.4142 0.37255 0.0
H1606 H 0.64535 0.39974 0.4014 0.0
H1607 H 0.63692 0.44489 0.40254 0.0
H1608 H 0.73011 0.47073 0.41008 0.0
H1609 H 0.74726 0.48565 0.38548 0.0
H1610 H 0.74775 0.45232 0.38835 0.0
H1611 H 0.73245 0.4482 0.34284 0.0
H1612 H 0.73179 0.48145 0.33987 0.0
H1613 H 0.70416 0.4636 0.33354 0.0
H1614 H 0.6348 0.49135 0.39479 0.0
H1615 H 0.64116 0.53566 0.38378 0.0
H1616 H 0.71771 0.51963 0.36433 0.0
C1617 C 0.70143 0.42059 0.37947 0.0
C1618 C 0.6829 0.40358 0.38682 0.0
C1619 C 0.65984 0.41255 0.39582 0.0
C1620 C 0.65486 0.43813 0.39646 0.0
C1621 C 0.67338 0.45445 0.38863 0.0
C1622 C 0.69641 0.44603 0.38083 0.0
C1623 C 0.71306 0.46732 0.37318 0.0
C1624 C 0.73589 0.46911 0.3903 0.0
C1625 C 0.7208 0.465 0.34573 0.0
C1626 C 0.69558 0.48897 0.37713 0.0
C1627 C 0.67269 0.48122 0.38586 0.0
C1628 C 0.65284 0.49773 0.38859 0.0
C1629 C 0.65655 0.52277 0.38225 0.0
C1630 C 0.68004 0.53102 0.3738 0.0
C1631 C 0.69978 0.51391 0.3715 0.0
loop_
_geom_bond_atom_site_label_1
_geom_bond_atom_site_label_2
_geom_bond_distance
_geom_bond_site_symmetry_2
_ccdc_geom_bond_type
O0 Cd1 2.223 . S
O0 C8 1.315 . S
Cd1 O0 2.223 . S
Cd1 O4 2.297 . S
Cd1 O5 2.439 . S
Cd1 O11 2.240 . S
Cd2 O3 2.240 . S
Cd2 O10 2.223 . S
Cd2 O12 2.297 . S
Cd2 O13 2.439 . S
O3 Cd2 2.240 . S
O3 C8 1.279 . S
O4 Cd1 2.297 . S
O4 C6 1.247 . S
O5 Cd1 2.439 . S
O5 C6 1.208 . S
C6 O4 1.247 . S
C6 O5 1.208 . S
C7 O12 1.247 . S
C7 O13 1.208 . S
C8 O0 1.315 . S
C8 O3 1.279 . S
C9 O10 1.315 . S
C9 O11 1.279 . S
O10 Cd2 2.223 . S
O10 C9 1.315 . S
O11 Cd1 2.240 . S
O11 C9 1.279 . S
O12 Cd2 2.297 . S
O12 C7 1.247 . S
O13 Cd2 2.439 . S
O13 C7 1.208 . S
O14 Cd15 2.223 . S
O14 C22 1.315 . S
Cd15 O14 2.223 . S
Cd15 O18 2.297 . S
Cd15 O19 2.439 . S
Cd15 O25 2.240 . S
Cd16 O17 2.240 . S
Cd16 O24 2.223 . S
Cd16 O26 2.297 . S
Cd16 O27 2.439 . S
O17 Cd16 2.240 . S
O17 C22 1.279 . S
O18 Cd15 2.297 . S
O18 C20 1.247 . S
O19 Cd15 2.439 . S
O19 C20 1.208 . S
C20 O18 1.247 . S
C20 O19 1.208 . S
C21 O26 1.247 . S
C21 O27 1.208 . S
C22 O14 1.315 . S
C22 O17 1.279 . S
C23 O24 1.315 . S
C23 O25 1.279 . S
O24 Cd16 2.223 . S
O24 C23 1.315 . S
O25 Cd15 2.240 . S
O25 C23 1.279 . S
O26 Cd16 2.297 . S
O26 C21 1.247 . S
O27 Cd16 2.439 . S
O27 C21 1.208 . S
O28 Cd29 2.223 . S
O28 C36 1.315 . S
Cd29 O28 2.223 . S
Cd29 O32 2.297 . S
Cd29 O33 2.439 . S
Cd29 O39 2.240 . S
Cd30 O31 2.240 . S
Cd30 O38 2.223 . S
Cd30 O40 2.297 . S
Cd30 O41 2.439 . S
O31 Cd30 2.240 . S
O31 C36 1.279 . S
O32 Cd29 2.297 . S
O32 C34 1.247 . S
O33 Cd29 2.439 . S
O33 C34 1.208 . S
C34 O32 1.247 . S
C34 O33 1.208 . S
C35 O40 1.247 . S
C35 O41 1.208 . S
C36 O28 1.315 . S
C36 O31 1.279 . S
C37 O38 1.315 . S
C37 O39 1.279 . S
O38 Cd30 2.223 . S
O38 C37 1.315 . S
O39 Cd29 2.240 . S
O39 C37 1.279 . S
O40 Cd30 2.297 . S
O40 C35 1.247 . S
O41 Cd30 2.439 . S
O41 C35 1.208 . S
O42 Cd43 2.223 . S
O42 C50 1.315 . S
Cd43 O42 2.223 . S
Cd43 O46 2.297 . S
Cd43 O47 2.439 . S
Cd43 O53 2.240 . S
Cd44 O45 2.240 . S
Cd44 O52 2.223 . S
Cd44 O54 2.297 . S
Cd44 O55 2.439 . S
O45 Cd44 2.240 . S
O45 C50 1.279 . S
O46 Cd43 2.297 . S
O46 C48 1.247 . S
O47 Cd43 2.439 . S
O47 C48 1.208 . S
C48 O46 1.247 . S
C48 O47 1.208 . S
C49 O54 1.247 . S
C49 O55 1.208 . S
C50 O42 1.315 . S
C50 O45 1.279 . S
C51 O52 1.315 . S
C51 O53 1.279 . S
O52 Cd44 2.223 . S
O52 C51 1.315 . S
O53 Cd43 2.240 . S
O53 C51 1.279 . S
O54 Cd44 2.297 . S
O54 C49 1.247 . S
O55 Cd44 2.439 . S
O55 C49 1.208 . S
O56 Cd57 2.223 . S
O56 C64 1.315 . S
Cd57 O56 2.223 . S
Cd57 O60 2.297 . S
Cd57 O61 2.439 . S
Cd57 O67 2.240 . S
Cd58 O59 2.240 . S
Cd58 O66 2.223 . S
Cd58 O68 2.297 . S
Cd58 O69 2.439 . S
O59 Cd58 2.240 . S
O59 C64 1.279 . S
O60 Cd57 2.297 . S
O60 C62 1.247 . S
O61 Cd57 2.439 . S
O61 C62 1.208 . S
C62 O60 1.247 . S
C62 O61 1.208 . S
C63 O68 1.247 . S
C63 O69 1.208 . S
C64 O56 1.315 . S
C64 O59 1.279 . S
C65 O66 1.315 . S
C65 O67 1.279 . S
O66 Cd58 2.223 . S
O66 C65 1.315 . S
O67 Cd57 2.240 . S
O67 C65 1.279 . S
O68 Cd58 2.297 . S
O68 C63 1.247 . S
O69 Cd58 2.439 . S
O69 C63 1.208 . S
O70 Cd71 2.223 . S
O70 C78 1.315 . S
Cd71 O70 2.223 . S
Cd71 O74 2.297 . S
Cd71 O75 2.439 . S
Cd71 O81 2.240 . S
Cd72 O73 2.240 . S
Cd72 O80 2.223 . S
Cd72 O82 2.297 . S
Cd72 O83 2.439 . S
O73 Cd72 2.240 . S
O73 C78 1.279 . S
O74 Cd71 2.297 . S
O74 C76 1.247 . S
O75 Cd71 2.439 . S
O75 C76 1.208 . S
C76 O74 1.247 . S
C76 O75 1.208 . S
C77 O82 1.247 . S
C77 O83 1.208 . S
C78 O70 1.315 . S
C78 O73 1.279 . S
C79 O80 1.315 . S
C79 O81 1.279 . S
O80 Cd72 2.223 . S
O80 C79 1.315 . S
O81 Cd71 2.240 . S
O81 C79 1.279 . S
O82 Cd72 2.297 . S
O82 C77 1.247 . S
O83 Cd72 2.439 . S
O83 C77 1.208 . S
O84 Cd85 2.223 . S
O84 C92 1.315 . S
Cd85 O84 2.223 . S
Cd85 O88 2.297 . S
Cd85 O89 2.439 . S
Cd85 O95 2.240 . S
Cd86 O87 2.240 . S
Cd86 O94 2.223 . S
Cd86 O96 2.297 . S
Cd86 O97 2.439 . S
O87 Cd86 2.240 . S
O87 C92 1.279 . S
O88 Cd85 2.297 . S
O88 C90 1.247 . S
O89 Cd85 2.439 . S
O89 C90 1.208 . S
C90 O88 1.247 . S
C90 O89 1.208 . S
C91 O96 1.247 . S
C91 O97 1.208 . S
C92 O84 1.315 . S
C92 O87 1.279 . S
C93 O94 1.315 . S
C93 O95 1.279 . S
O94 Cd86 2.223 . S
O94 C93 1.315 . S
O95 Cd85 2.240 . S
O95 C93 1.279 . S
O96 Cd86 2.297 . S
O96 C91 1.247 . S
O97 Cd86 2.439 . S
O97 C91 1.208 . S
O98 Cd99 2.223 . S
O98 C106 1.315 . S
Cd99 O98 2.223 . S
Cd99 O102 2.297 . S
Cd99 O103 2.439 . S
Cd99 O109 2.240 . S
Cd100 O101 2.240 . S
Cd100 O108 2.223 . S
Cd100 O110 2.297 . S
Cd100 O111 2.439 . S
O101 Cd100 2.240 . S
O101 C106 1.279 . S
O102 Cd99 2.297 . S
O102 C104 1.247 . S
O103 Cd99 2.439 . S
O103 C104 1.208 . S
C104 O102 1.247 . S
C104 O103 1.208 . S
C105 O110 1.247 . S
C105 O111 1.208 . S
C106 O98 1.315 . S
C106 O101 1.279 . S
C107 O108 1.315 . S
C107 O109 1.279 . S
O108 Cd100 2.223 . S
O108 C107 1.315 . S
O109 Cd99 2.240 . S
O109 C107 1.279 . S
O110 Cd100 2.297 . S
O110 C105 1.247 . S
O111 Cd100 2.439 . S
O111 C105 1.208 . S
O112 Cd113 2.223 . S
O112 C120 1.315 . S
Cd113 O112 2.223 . S
Cd113 O116 2.297 . S
Cd113 O117 2.439 . S
Cd113 O123 2.240 . S
Cd114 O115 2.240 . S
Cd114 O122 2.223 . S
Cd114 O124 2.297 . S
Cd114 O125 2.439 . S
O115 Cd114 2.240 . S
O115 C120 1.279 . S
O116 Cd113 2.297 . S
O116 C118 1.247 . S
O117 Cd113 2.439 . S
O117 C118 1.208 . S
C118 O116 1.247 . S
C118 O117 1.208 . S
C119 O124 1.247 . S
C119 O125 1.208 . S
C120 O112 1.315 . S
C120 O115 1.279 . S
C121 O122 1.315 . S
C121 O123 1.279 . S
O122 Cd114 2.223 . S
O122 C121 1.315 . S
O123 Cd113 2.240 . S
O123 C121 1.279 . S
O124 Cd114 2.297 . S
O124 C119 1.247 . S
O125 Cd114 2.439 . S
O125 C119 1.208 . S
O126 Cd127 2.223 . S
O126 C134 1.315 . S
Cd127 O126 2.223 . S
Cd127 O130 2.297 . S
Cd127 O131 2.439 . S
Cd127 O137 2.240 . S
Cd128 O129 2.240 . S
Cd128 O136 2.223 . S
Cd128 O138 2.297 . S
Cd128 O139 2.439 . S
O129 Cd128 2.240 . S
O129 C134 1.279 . S
O130 Cd127 2.297 . S
O130 C132 1.247 . S
O131 Cd127 2.439 . S
O131 C132 1.208 . S
C132 O130 1.247 . S
C132 O131 1.208 . S
C133 O138 1.247 . S
C133 O139 1.208 . S
C134 O126 1.315 . S
C134 O129 1.279 . S
C135 O136 1.315 . S
C135 O137 1.279 . S
O136 Cd128 2.223 . S
O136 C135 1.315 . S
O137 Cd127 2.240 . S
O137 C135 1.279 . S
O138 Cd128 2.297 . S
O138 C133 1.247 . S
O139 Cd128 2.439 . S
O139 C133 1.208 . S
O140 Cd141 2.223 . S
O140 C148 1.315 . S
Cd141 O140 2.223 . S
Cd141 O144 2.297 . S
Cd141 O145 2.439 . S
Cd141 O151 2.240 . S
Cd142 O143 2.240 . S
Cd142 O150 2.223 . S
Cd142 O152 2.297 . S
Cd142 O153 2.439 . S
O143 Cd142 2.240 . S
O143 C148 1.279 . S
O144 Cd141 2.297 . S
O144 C146 1.247 . S
O145 Cd141 2.439 . S
O145 C146 1.208 . S
C146 O144 1.247 . S
C146 O145 1.208 . S
C147 O152 1.247 . S
C147 O153 1.208 . S
C148 O140 1.315 . S
C148 O143 1.279 . S
C149 O150 1.315 . S
C149 O151 1.279 . S
O150 Cd142 2.223 . S
O150 C149 1.315 . S
O151 Cd141 2.240 . S
O151 C149 1.279 . S
O152 Cd142 2.297 . S
O152 C147 1.247 . S
O153 Cd142 2.439 . S
O153 C147 1.208 . S
O154 Cd155 2.223 . S
O154 C162 1.315 . S
Cd155 O154 2.223 . S
Cd155 O158 2.297 . S
Cd155 O159 2.439 . S
Cd155 O165 2.240 . S
Cd156 O157 2.240 . S
Cd156 O164 2.223 . S
Cd156 O166 2.297 . S
Cd156 O167 2.439 . S
O157 Cd156 2.240 . S
O157 C162 1.279 . S
O158 Cd155 2.297 . S
O158 C160 1.247 . S
O159 Cd155 2.439 . S
O159 C160 1.208 . S
C160 O158 1.247 . S
C160 O159 1.208 . S
C161 O166 1.247 . S
C161 O167 1.208 . S
C162 O154 1.315 . S
C162 O157 1.279 . S
C163 O164 1.315 . S
C163 O165 1.279 . S
O164 Cd156 2.223 . S
O164 C163 1.315 . S
O165 Cd155 2.240 . S
O165 C163 1.279 . S
O166 Cd156 2.297 . S
O166 C161 1.247 . S
O167 Cd156 2.439 . S
O167 C161 1.208 . S
O168 Cd169 2.223 . S
O168 C176 1.315 . S
Cd169 O168 2.223 . S
Cd169 O172 2.297 . S
Cd169 O173 2.439 . S
Cd169 O179 2.240 . S
Cd170 O171 2.240 . S
Cd170 O178 2.223 . S
Cd170 O180 2.297 . S
Cd170 O181 2.439 . S
O171 Cd170 2.240 . S
O171 C176 1.279 . S
O172 Cd169 2.297 . S
O172 C174 1.247 . S
O173 Cd169 2.439 . S
O173 C174 1.208 . S
C174 O172 1.247 . S
C174 O173 1.208 . S
C175 O180 1.247 . S
C175 O181 1.208 . S
C176 O168 1.315 . S
C176 O171 1.279 . S
C177 O178 1.315 . S
C177 O179 1.279 . S
O178 Cd170 2.223 . S
O178 C177 1.315 . S
O179 Cd169 2.240 . S
O179 C177 1.279 . S
O180 Cd170 2.297 . S
O180 C175 1.247 . S
O181 Cd170 2.439 . S
O181 C175 1.208 . S
O182 Cd183 2.223 . S
O182 C190 1.315 . S
Cd183 O182 2.223 . S
Cd183 O186 2.297 . S
Cd183 O187 2.439 . S
Cd183 O193 2.240 . S
Cd184 O185 2.240 . S
Cd184 O192 2.223 . S
Cd184 O194 2.297 . S
Cd184 O195 2.439 . S
O185 Cd184 2.240 . S
O185 C190 1.279 . S
O186 Cd183 2.297 . S
O186 C188 1.247 . S
O187 Cd183 2.439 . S
O187 C188 1.208 . S
C188 O186 1.247 . S
C188 O187 1.208 . S
C189 O194 1.247 . S
C189 O195 1.208 . S
C190 O182 1.315 . S
C190 O185 1.279 . S
C191 O192 1.315 . S
C191 O193 1.279 . S
O192 Cd184 2.223 . S
O192 C191 1.315 . S
O193 Cd183 2.240 . S
O193 C191 1.279 . S
O194 Cd184 2.297 . S
O194 C189 1.247 . S
O195 Cd184 2.439 . S
O195 C189 1.208 . S
O196 Cd197 2.223 . S
O196 C204 1.315 . S
Cd197 O196 2.223 . S
Cd197 O200 2.297 . S
Cd197 O201 2.439 . S
Cd197 O207 2.240 . S
Cd198 O199 2.240 . S
Cd198 O206 2.223 . S
Cd198 O208 2.297 . S
Cd198 O209 2.439 . S
O199 Cd198 2.240 . S
O199 C204 1.279 . S
O200 Cd197 2.297 . S
O200 C202 1.247 . S
O201 Cd197 2.439 . S
O201 C202 1.208 . S
C202 O200 1.247 . S
C202 O201 1.208 . S
C203 O208 1.247 . S
C203 O209 1.208 . S
C204 O196 1.315 . S
C204 O199 1.279 . S
C205 O206 1.315 . S
C205 O207 1.279 . S
O206 Cd198 2.223 . S
O206 C205 1.315 . S
O207 Cd197 2.240 . S
O207 C205 1.279 . S
O208 Cd198 2.297 . S
O208 C203 1.247 . S
O209 Cd198 2.439 . S
O209 C203 1.208 . S
O210 Cd211 2.223 . S
O210 C218 1.315 . S
Cd211 O210 2.223 . S
Cd211 O214 2.297 . S
Cd211 O215 2.439 . S
Cd211 O221 2.240 . S
Cd212 O213 2.240 . S
Cd212 O220 2.223 . S
Cd212 O222 2.297 . S
Cd212 O223 2.439 . S
O213 Cd212 2.240 . S
O213 C218 1.279 . S
O214 Cd211 2.297 . S
O214 C216 1.247 . S
O215 Cd211 2.439 . S
O215 C216 1.208 . S
C216 O214 1.247 . S
C216 O215 1.208 . S
C217 O222 1.247 . S
C217 O223 1.208 . S
C218 O210 1.315 . S
C218 O213 1.279 . S
C219 O220 1.315 . S
C219 O221 1.279 . S
O220 Cd212 2.223 . S
O220 C219 1.315 . S
O221 Cd211 2.240 . S
O221 C219 1.279 . S
O222 Cd212 2.297 . S
O222 C217 1.247 . S
O223 Cd212 2.439 . S
O223 C217 1.208 . S
O224 Cd225 2.223 . S
O224 C232 1.315 . S
Cd225 O224 2.223 . S
Cd225 O228 2.297 . S
Cd225 O229 2.439 . S
Cd225 O235 2.240 . S
Cd226 O227 2.240 . S
Cd226 O234 2.223 . S
Cd226 O236 2.297 . S
Cd226 O237 2.439 . S
O227 Cd226 2.240 . S
O227 C232 1.279 . S
O228 Cd225 2.297 . S
O228 C230 1.247 . S
O229 Cd225 2.439 . S
O229 C230 1.208 . S
C230 O228 1.247 . S
C230 O229 1.208 . S
C231 O236 1.247 . S
C231 O237 1.208 . S
C232 O224 1.315 . S
C232 O227 1.279 . S
C233 O234 1.315 . S
C233 O235 1.279 . S
O234 Cd226 2.223 . S
O234 C233 1.315 . S
O235 Cd225 2.240 . S
O235 C233 1.279 . S
O236 Cd226 2.297 . S
O236 C231 1.247 . S
O237 Cd226 2.439 . S
O237 C231 1.208 . S
O238 Cd239 2.223 . S
O238 C246 1.315 . S
Cd239 O238 2.223 . S
Cd239 O242 2.297 . S
Cd239 O243 2.439 . S
Cd239 O249 2.240 . S
Cd240 O241 2.240 . S
Cd240 O248 2.223 . S
Cd240 O250 2.297 . S
Cd240 O251 2.439 . S
O241 Cd240 2.240 . S
O241 C246 1.279 . S
O242 Cd239 2.297 . S
O242 C244 1.247 . S
O243 Cd239 2.439 . S
O243 C244 1.208 . S
C244 O242 1.247 . S
C244 O243 1.208 . S
C245 O250 1.247 . S
C245 O251 1.208 . S
C246 O238 1.315 . S
C246 O241 1.279 . S
C247 O248 1.315 . S
C247 O249 1.279 . S
O248 Cd240 2.223 . S
O248 C247 1.315 . S
O249 Cd239 2.240 . S
O249 C247 1.279 . S
O250 Cd240 2.297 . S
O250 C245 1.247 . S
O251 Cd240 2.439 . S
O251 C245 1.208 . S
O252 Cd253 2.223 . S
O252 C260 1.315 . S
Cd253 O252 2.223 . S
Cd253 O256 2.297 . S
Cd253 O257 2.439 . S
Cd253 O263 2.240 . S
Cd254 O255 2.240 . S
Cd254 O262 2.223 . S
Cd254 O264 2.297 . S
Cd254 O265 2.439 . S
O255 Cd254 2.240 . S
O255 C260 1.279 . S
O256 Cd253 2.297 . S
O256 C258 1.247 . S
O257 Cd253 2.439 . S
O257 C258 1.208 . S
C258 O256 1.247 . S
C258 O257 1.208 . S
C259 O264 1.247 . S
C259 O265 1.208 . S
C260 O252 1.315 . S
C260 O255 1.279 . S
C261 O262 1.315 . S
C261 O263 1.279 . S
O262 Cd254 2.223 . S
O262 C261 1.315 . S
O263 Cd253 2.240 . S
O263 C261 1.279 . S
O264 Cd254 2.297 . S
O264 C259 1.247 . S
O265 Cd254 2.439 . S
O265 C259 1.208 . S
O266 Cd267 2.223 . S
O266 C274 1.315 . S
Cd267 O266 2.223 . S
Cd267 O270 2.297 . S
Cd267 O271 2.439 . S
Cd267 O277 2.240 . S
Cd268 O269 2.240 . S
Cd268 O276 2.223 . S
Cd268 O278 2.297 . S
Cd268 O279 2.439 . S
O269 Cd268 2.240 . S
O269 C274 1.279 . S
O270 Cd267 2.297 . S
O270 C272 1.247 . S
O271 Cd267 2.439 . S
O271 C272 1.208 . S
C272 O270 1.247 . S
C272 O271 1.208 . S
C273 O278 1.247 . S
C273 O279 1.208 . S
C274 O266 1.315 . S
C274 O269 1.279 . S
C275 O276 1.315 . S
C275 O277 1.279 . S
O276 Cd268 2.223 . S
O276 C275 1.315 . S
O277 Cd267 2.240 . S
O277 C275 1.279 . S
O278 Cd268 2.297 . S
O278 C273 1.247 . S
O279 Cd268 2.439 . S
O279 C273 1.208 . S
O280 Cd281 2.223 . S
O280 C288 1.315 . S
Cd281 O280 2.223 . S
Cd281 O284 2.297 . S
Cd281 O285 2.439 . S
Cd281 O291 2.240 . S
Cd282 O283 2.240 . S
Cd282 O290 2.223 . S
Cd282 O292 2.297 . S
Cd282 O293 2.439 . S
O283 Cd282 2.240 . S
O283 C288 1.279 . S
O284 Cd281 2.297 . S
O284 C286 1.247 . S
O285 Cd281 2.439 . S
O285 C286 1.208 . S
C286 O284 1.247 . S
C286 O285 1.208 . S
C287 O292 1.247 . S
C287 O293 1.208 . S
C288 O280 1.315 . S
C288 O283 1.279 . S
C289 O290 1.315 . S
C289 O291 1.279 . S
O290 Cd282 2.223 . S
O290 C289 1.315 . S
O291 Cd281 2.240 . S
O291 C289 1.279 . S
O292 Cd282 2.297 . S
O292 C287 1.247 . S
O293 Cd282 2.439 . S
O293 C287 1.208 . S
O294 Cd295 2.223 . S
O294 C302 1.315 . S
Cd295 O294 2.223 . S
Cd295 O298 2.297 . S
Cd295 O299 2.439 . S
Cd295 O305 2.240 . S
Cd296 O297 2.240 . S
Cd296 O304 2.223 . S
Cd296 O306 2.297 . S
Cd296 O307 2.439 . S
O297 Cd296 2.240 . S
O297 C302 1.279 . S
O298 Cd295 2.297 . S
O298 C300 1.247 . S
O299 Cd295 2.439 . S
O299 C300 1.208 . S
C300 O298 1.247 . S
C300 O299 1.208 . S
C301 O306 1.247 . S
C301 O307 1.208 . S
C302 O294 1.315 . S
C302 O297 1.279 . S
C303 O304 1.315 . S
C303 O305 1.279 . S
O304 Cd296 2.223 . S
O304 C303 1.315 . S
O305 Cd295 2.240 . S
O305 C303 1.279 . S
O306 Cd296 2.297 . S
O306 C301 1.247 . S
O307 Cd296 2.439 . S
O307 C301 1.208 . S
O308 Cd309 2.223 . S
O308 C316 1.315 . S
Cd309 O308 2.223 . S
Cd309 O312 2.297 . S
Cd309 O313 2.439 . S
Cd309 O319 2.240 . S
Cd310 O311 2.240 . S
Cd310 O318 2.223 . S
Cd310 O320 2.297 . S
Cd310 O321 2.439 . S
O311 Cd310 2.240 . S
O311 C316 1.279 . S
O312 Cd309 2.297 . S
O312 C314 1.247 . S
O313 Cd309 2.439 . S
O313 C314 1.208 . S
C314 O312 1.247 . S
C314 O313 1.208 . S
C315 O320 1.247 . S
C315 O321 1.208 . S
C316 O308 1.315 . S
C316 O311 1.279 . S
C317 O318 1.315 . S
C317 O319 1.279 . S
O318 Cd310 2.223 . S
O318 C317 1.315 . S
O319 Cd309 2.240 . S
O319 C317 1.279 . S
O320 Cd310 2.297 . S
O320 C315 1.247 . S
O321 Cd310 2.439 . S
O321 C315 1.208 . S
O322 Cd323 2.223 . S
O322 C330 1.315 . S
Cd323 O322 2.223 . S
Cd323 O326 2.297 . S
Cd323 O327 2.439 . S
Cd323 O333 2.240 . S
Cd324 O325 2.240 . S
Cd324 O332 2.223 . S
Cd324 O334 2.297 . S
Cd324 O335 2.439 . S
O325 Cd324 2.240 . S
O325 C330 1.279 . S
O326 Cd323 2.297 . S
O326 C328 1.247 . S
O327 Cd323 2.439 . S
O327 C328 1.208 . S
C328 O326 1.247 . S
C328 O327 1.208 . S
C329 O334 1.247 . S
C329 O335 1.208 . S
C330 O322 1.315 . S
C330 O325 1.279 . S
C331 O332 1.315 . S
C331 O333 1.279 . S
O332 Cd324 2.223 . S
O332 C331 1.315 . S
O333 Cd323 2.240 . S
O333 C331 1.279 . S
O334 Cd324 2.297 . S
O334 C329 1.247 . S
O335 Cd324 2.439 . S
O335 C329 1.208 . S
H336 C348 0.930 . S
H337 C350 0.930 . S
H338 C351 0.930 . S
H339 C355 0.959 . S
H340 C355 0.959 . S
H341 C355 0.961 . S
H342 C356 0.960 . S
H343 C356 0.961 . S
H344 C356 0.959 . S
H345 C359 0.929 . S
H346 C360 0.931 . S
H347 C362 0.930 . S
C348 H336 0.930 . S
C348 C349 1.399 . S
C348 C353 1.399 . S
C349 C348 1.399 . S
C349 C350 1.376 . S
C350 H337 0.930 . S
C350 C349 1.376 . S
C350 C351 1.388 . S
C351 H338 0.930 . S
C351 C350 1.388 . S
C351 C352 1.390 . S
C352 C351 1.390 . S
C352 C353 1.394 . S
C352 C358 1.465 . S
C353 C348 1.399 . S
C353 C352 1.394 . S
C353 C354 1.516 . S
C354 C353 1.516 . S
C354 C355 1.502 . S
C354 C356 1.561 . S
C354 C357 1.526 . S
C355 H339 0.959 . S
C355 H340 0.959 . S
C355 H341 0.961 . S
C355 C354 1.502 . S
C356 H342 0.960 . S
C356 H343 0.961 . S
C356 H344 0.959 . S
C356 C354 1.561 . S
C357 C354 1.526 . S
C357 C358 1.396 . S
C357 C362 1.390 . S
C358 C352 1.465 . S
C358 C357 1.396 . S
C358 C359 1.399 . S
C359 H345 0.929 . S
C359 C358 1.399 . S
C359 C360 1.385 . S
C360 H346 0.931 . S
C360 C359 1.385 . S
C360 C361 1.389 . S
C361 C360 1.389 . S
C361 C362 1.387 . S
C362 H347 0.930 . S
C362 C357 1.390 . S
C362 C361 1.387 . S
H363 C375 0.930 . S
H364 C377 0.930 . S
H365 C378 0.930 . S
H366 C382 0.959 . S
H367 C382 0.959 . S
H368 C382 0.961 . S
H369 C383 0.960 . S
H370 C383 0.961 . S
H371 C383 0.959 . S
H372 C386 0.929 . S
H373 C387 0.931 . S
H374 C389 0.930 . S
C375 H363 0.930 . S
C375 C376 1.399 . S
C375 C380 1.399 . S
C376 C375 1.399 . S
C376 C377 1.376 . S
C377 H364 0.930 . S
C377 C376 1.376 . S
C377 C378 1.388 . S
C378 H365 0.930 . S
C378 C377 1.388 . S
C378 C379 1.390 . S
C379 C378 1.390 . S
C379 C380 1.394 . S
C379 C385 1.465 . S
C380 C375 1.399 . S
C380 C379 1.394 . S
C380 C381 1.516 . S
C381 C380 1.516 . S
C381 C382 1.502 . S
C381 C383 1.561 . S
C381 C384 1.526 . S
C382 H366 0.959 . S
C382 H367 0.959 . S
C382 H368 0.961 . S
C382 C381 1.502 . S
C383 H369 0.960 . S
C383 H370 0.961 . S
C383 H371 0.959 . S
C383 C381 1.561 . S
C384 C381 1.526 . S
C384 C385 1.396 . S
C384 C389 1.390 . S
C385 C379 1.465 . S
C385 C384 1.396 . S
C385 C386 1.399 . S
C386 H372 0.929 . S
C386 C385 1.399 . S
C386 C387 1.385 . S
C387 H373 0.931 . S
C387 C386 1.385 . S
C387 C388 1.389 . S
C388 C387 1.389 . S
C388 C389 1.387 . S
C389 H374 0.930 . S
C389 C384 1.390 . S
C389 C388 1.387 . S
H390 C402 0.930 . S
H391 C404 0.930 . S
H392 C405 0.930 . S
H393 C409 0.959 . S
H394 C409 0.959 . S
H395 C409 0.961 . S
H396 C410 0.960 . S
H397 C410 0.961 . S
H398 C410 0.959 . S
H399 C413 0.929 . S
H400 C414 0.931 . S
H401 C416 0.930 . S
C402 H390 0.930 . S
C402 C403 1.399 . S
C402 C407 1.399 . S
C403 C402 1.399 . S
C403 C404 1.376 . S
C404 H391 0.930 . S
C404 C403 1.376 . S
C404 C405 1.388 . S
C405 H392 0.930 . S
C405 C404 1.388 . S
C405 C406 1.390 . S
C406 C405 1.390 . S
C406 C407 1.394 . S
C406 C412 1.465 . S
C407 C402 1.399 . S
C407 C406 1.394 . S
C407 C408 1.516 . S
C408 C407 1.516 . S
C408 C409 1.502 . S
C408 C410 1.561 . S
C408 C411 1.526 . S
C409 H393 0.959 . S
C409 H394 0.959 . S
C409 H395 0.961 . S
C409 C408 1.502 . S
C410 H396 0.960 . S
C410 H397 0.961 . S
C410 H398 0.959 . S
C410 C408 1.561 . S
C411 C408 1.526 . S
C411 C412 1.396 . S
C411 C416 1.390 . S
C412 C406 1.465 . S
C412 C411 1.396 . S
C412 C413 1.399 . S
C413 H399 0.929 . S
C413 C412 1.399 . S
C413 C414 1.385 . S
C414 H400 0.931 . S
C414 C413 1.385 . S
C414 C415 1.389 . S
C415 C414 1.389 . S
C415 C416 1.387 . S
C416 H401 0.930 . S
C416 C411 1.390 . S
C416 C415 1.387 . S
H417 C429 0.930 . S
H418 C431 0.930 . S
H419 C432 0.930 . S
H420 C436 0.959 . S
H421 C436 0.959 . S
H422 C436 0.961 . S
H423 C437 0.960 . S
H424 C437 0.961 . S
H425 C437 0.959 . S
H426 C440 0.929 . S
H427 C441 0.931 . S
H428 C443 0.930 . S
C429 H417 0.930 . S
C429 C430 1.399 . S
C429 C434 1.399 . S
C430 C429 1.399 . S
C430 C431 1.376 . S
C431 H418 0.930 . S
C431 C430 1.376 . S
C431 C432 1.388 . S
C432 H419 0.930 . S
C432 C431 1.388 . S
C432 C433 1.390 . S
C433 C432 1.390 . S
C433 C434 1.394 . S
C433 C439 1.465 . S
C434 C429 1.399 . S
C434 C433 1.394 . S
C434 C435 1.516 . S
C435 C434 1.516 . S
C435 C436 1.502 . S
C435 C437 1.561 . S
C435 C438 1.526 . S
C436 H420 0.959 . S
C436 H421 0.959 . S
C436 H422 0.961 . S
C436 C435 1.502 . S
C437 H423 0.960 . S
C437 H424 0.961 . S
C437 H425 0.959 . S
C437 C435 1.561 . S
C438 C435 1.526 . S
C438 C439 1.396 . S
C438 C443 1.390 . S
C439 C433 1.465 . S
C439 C438 1.396 . S
C439 C440 1.399 . S
C440 H426 0.929 . S
C440 C439 1.399 . S
C440 C441 1.385 . S
C441 H427 0.931 . S
C441 C440 1.385 . S
C441 C442 1.389 . S
C442 C441 1.389 . S
C442 C443 1.387 . S
C443 H428 0.930 . S
C443 C438 1.390 . S
C443 C442 1.387 . S
H444 C456 0.930 . S
H445 C458 0.930 . S
H446 C459 0.930 . S
H447 C463 0.959 . S
H448 C463 0.959 . S
H449 C463 0.961 . S
H450 C464 0.960 . S
H451 C464 0.961 . S
H452 C464 0.959 . S
H453 C467 0.929 . S
H454 C468 0.931 . S
H455 C470 0.930 . S
C456 H444 0.930 . S
C456 C457 1.399 . S
C456 C461 1.399 . S
C457 C456 1.399 . S
C457 C458 1.376 . S
C458 H445 0.930 . S
C458 C457 1.376 . S
C458 C459 1.388 . S
C459 H446 0.930 . S
C459 C458 1.388 . S
C459 C460 1.390 . S
C460 C459 1.390 . S
C460 C461 1.394 . S
C460 C466 1.465 . S
C461 C456 1.399 . S
C461 C460 1.394 . S
C461 C462 1.516 . S
C462 C461 1.516 . S
C462 C463 1.502 . S
C462 C464 1.561 . S
C462 C465 1.526 . S
C463 H447 0.959 . S
C463 H448 0.959 . S
C463 H449 0.961 . S
C463 C462 1.502 . S
C464 H450 0.960 . S
C464 H451 0.961 . S
C464 H452 0.959 . S
C464 C462 1.561 . S
C465 C462 1.526 . S
C465 C466 1.396 . S
C465 C470 1.390 . S
C466 C460 1.465 . S
C466 C465 1.396 . S
C466 C467 1.399 . S
C467 H453 0.929 . S
C467 C466 1.399 . S
C467 C468 1.385 . S
C468 H454 0.931 . S
C468 C467 1.385 . S
C468 C469 1.389 . S
C469 C468 1.389 . S
C469 C470 1.387 . S
C470 H455 0.930 . S
C470 C465 1.390 . S
C470 C469 1.387 . S
H471 C483 0.930 . S
H472 C485 0.930 . S
H473 C486 0.930 . S
H474 C490 0.959 . S
H475 C490 0.959 . S
H476 C490 0.961 . S
H477 C491 0.960 . S
H478 C491 0.961 . S
H479 C491 0.959 . S
H480 C494 0.929 . S
H481 C495 0.931 . S
H482 C497 0.930 . S
C483 H471 0.930 . S
C483 C484 1.399 . S
C483 C488 1.399 . S
C484 C483 1.399 . S
C484 C485 1.376 . S
C485 H472 0.930 . S
C485 C484 1.376 . S
C485 C486 1.388 . S
C486 H473 0.930 . S
C486 C485 1.388 . S
C486 C487 1.390 . S
C487 C486 1.390 . S
C487 C488 1.394 . S
C487 C493 1.465 . S
C488 C483 1.399 . S
C488 C487 1.394 . S
C488 C489 1.516 . S
C489 C488 1.516 . S
C489 C490 1.502 . S
C489 C491 1.561 . S
C489 C492 1.526 . S
C490 H474 0.959 . S
C490 H475 0.959 . S
C490 H476 0.961 . S
C490 C489 1.502 . S
C491 H477 0.960 . S
C491 H478 0.961 . S
C491 H479 0.959 . S
C491 C489 1.561 . S
C492 C489 1.526 . S
C492 C493 1.396 . S
C492 C497 1.390 . S
C493 C487 1.465 . S
C493 C492 1.396 . S
C493 C494 1.399 . S
C494 H480 0.929 . S
C494 C493 1.399 . S
C494 C495 1.385 . S
C495 H481 0.931 . S
C495 C494 1.385 . S
C495 C496 1.389 . S
C496 C495 1.389 . S
C496 C497 1.387 . S
C497 H482 0.930 . S
C497 C492 1.390 . S
C497 C496 1.387 . S
H498 C510 0.930 . S
H499 C512 0.930 . S
H500 C513 0.930 . S
H501 C517 0.959 . S
H502 C517 0.959 . S
H503 C517 0.961 . S
H504 C518 0.960 . S
H505 C518 0.961 . S
H506 C518 0.959 . S
H507 C521 0.929 . S
H508 C522 0.931 . S
H509 C524 0.930 . S
C510 H498 0.930 . S
C510 C511 1.399 . S
C510 C515 1.399 . S
C511 C510 1.399 . S
C511 C512 1.376 . S
C512 H499 0.930 . S
C512 C511 1.376 . S
C512 C513 1.388 . S
C513 H500 0.930 . S
C513 C512 1.388 . S
C513 C514 1.390 . S
C514 C513 1.390 . S
C514 C515 1.394 . S
C514 C520 1.465 . S
C515 C510 1.399 . S
C515 C514 1.394 . S
C515 C516 1.516 . S
C516 C515 1.516 . S
C516 C517 1.502 . S
C516 C518 1.561 . S
C516 C519 1.526 . S
C517 H501 0.959 . S
C517 H502 0.959 . S
C517 H503 0.961 . S
C517 C516 1.502 . S
C518 H504 0.960 . S
C518 H505 0.961 . S
C518 H506 0.959 . S
C518 C516 1.561 . S
C519 C516 1.526 . S
C519 C520 1.396 . S
C519 C524 1.390 . S
C520 C514 1.465 . S
C520 C519 1.396 . S
C520 C521 1.399 . S
C521 H507 0.929 . S
C521 C520 1.399 . S
C521 C522 1.385 . S
C522 H508 0.931 . S
C522 C521 1.385 . S
C522 C523 1.389 . S
C523 C522 1.389 . S
C523 C524 1.387 . S
C524 H509 0.930 . S
C524 C519 1.390 . S
C524 C523 1.387 . S
H525 C537 0.930 . S
H526 C539 0.930 . S
H527 C540 0.930 . S
H528 C544 0.959 . S
H529 C544 0.959 . S
H530 C544 0.961 . S
H531 C545 0.960 . S
H532 C545 0.961 . S
H533 C545 0.959 . S
H534 C548 0.929 . S
H535 C549 0.931 . S
H536 C551 0.930 . S
C537 H525 0.930 . S
C537 C538 1.399 . S
C537 C542 1.399 . S
C538 C537 1.399 . S
C538 C539 1.376 . S
C539 H526 0.930 . S
C539 C538 1.376 . S
C539 C540 1.388 . S
C540 H527 0.930 . S
C540 C539 1.388 . S
C540 C541 1.390 . S
C541 C540 1.390 . S
C541 C542 1.394 . S
C541 C547 1.465 . S
C542 C537 1.399 . S
C542 C541 1.394 . S
C542 C543 1.516 . S
C543 C542 1.516 . S
C543 C544 1.502 . S
C543 C545 1.561 . S
C543 C546 1.526 . S
C544 H528 0.959 . S
C544 H529 0.959 . S
C544 H530 0.961 . S
C544 C543 1.502 . S
C545 H531 0.960 . S
C545 H532 0.961 . S
C545 H533 0.959 . S
C545 C543 1.561 . S
C546 C543 1.526 . S
C546 C547 1.396 . S
C546 C551 1.390 . S
C547 C541 1.465 . S
C547 C546 1.396 . S
C547 C548 1.399 . S
C548 H534 0.929 . S
C548 C547 1.399 . S
C548 C549 1.385 . S
C549 H535 0.931 . S
C549 C548 1.385 . S
C549 C550 1.389 . S
C550 C549 1.389 . S
C550 C551 1.387 . S
C551 H536 0.930 . S
C551 C546 1.390 . S
C551 C550 1.387 . S
H552 C564 0.930 . S
H553 C566 0.930 . S
H554 C567 0.930 . S
H555 C571 0.959 . S
H556 C571 0.959 . S
H557 C571 0.961 . S
H558 C572 0.960 . S
H559 C572 0.961 . S
H560 C572 0.959 . S
H561 C575 0.929 . S
H562 C576 0.931 . S
H563 C578 0.930 . S
C564 H552 0.930 . S
C564 C565 1.399 . S
C564 C569 1.399 . S
C565 C564 1.399 . S
C565 C566 1.376 . S
C566 H553 0.930 . S
C566 C565 1.376 . S
C566 C567 1.388 . S
C567 H554 0.930 . S
C567 C566 1.388 . S
C567 C568 1.390 . S
C568 C567 1.390 . S
C568 C569 1.394 . S
C568 C574 1.465 . S
C569 C564 1.399 . S
C569 C568 1.394 . S
C569 C570 1.516 . S
C570 C569 1.516 . S
C570 C571 1.502 . S
C570 C572 1.561 . S
C570 C573 1.526 . S
C571 H555 0.959 . S
C571 H556 0.959 . S
C571 H557 0.961 . S
C571 C570 1.502 . S
C572 H558 0.960 . S
C572 H559 0.961 . S
C572 H560 0.959 . S
C572 C570 1.561 . S
C573 C570 1.526 . S
C573 C574 1.396 . S
C573 C578 1.390 . S
C574 C568 1.465 . S
C574 C573 1.396 . S
C574 C575 1.399 . S
C575 H561 0.929 . S
C575 C574 1.399 . S
C575 C576 1.385 . S
C576 H562 0.931 . S
C576 C575 1.385 . S
C576 C577 1.389 . S
C577 C576 1.389 . S
C577 C578 1.387 . S
C578 H563 0.930 . S
C578 C573 1.390 . S
C578 C577 1.387 . S
H579 C591 0.930 . S
H580 C593 0.930 . S
H581 C594 0.930 . S
H582 C598 0.959 . S
H583 C598 0.959 . S
H584 C598 0.961 . S
H585 C599 0.960 . S
H586 C599 0.961 . S
H587 C599 0.959 . S
H588 C602 0.929 . S
H589 C603 0.931 . S
H590 C605 0.930 . S
C591 H579 0.930 . S
C591 C592 1.399 . S
C591 C596 1.399 . S
C592 C591 1.399 . S
C592 C593 1.376 . S
C593 H580 0.930 . S
C593 C592 1.376 . S
C593 C594 1.388 . S
C594 H581 0.930 . S
C594 C593 1.388 . S
C594 C595 1.390 . S
C595 C594 1.390 . S
C595 C596 1.394 . S
C595 C601 1.465 . S
C596 C591 1.399 . S
C596 C595 1.394 . S
C596 C597 1.516 . S
C597 C596 1.516 . S
C597 C598 1.502 . S
C597 C599 1.561 . S
C597 C600 1.526 . S
C598 H582 0.959 . S
C598 H583 0.959 . S
C598 H584 0.961 . S
C598 C597 1.502 . S
C599 H585 0.960 . S
C599 H586 0.961 . S
C599 H587 0.959 . S
C599 C597 1.561 . S
C600 C597 1.526 . S
C600 C601 1.396 . S
C600 C605 1.390 . S
C601 C595 1.465 . S
C601 C600 1.396 . S
C601 C602 1.399 . S
C602 H588 0.929 . S
C602 C601 1.399 . S
C602 C603 1.385 . S
C603 H589 0.931 . S
C603 C602 1.385 . S
C603 C604 1.389 . S
C604 C603 1.389 . S
C604 C605 1.387 . S
C605 H590 0.930 . S
C605 C600 1.390 . S
C605 C604 1.387 . S
H606 C618 0.930 . S
H607 C620 0.930 . S
H608 C621 0.930 . S
H609 C625 0.959 . S
H610 C625 0.959 . S
H611 C625 0.961 . S
H612 C626 0.960 . S
H613 C626 0.961 . S
H614 C626 0.959 . S
H615 C629 0.929 . S
H616 C630 0.931 . S
H617 C632 0.930 . S
C618 H606 0.930 . S
C618 C619 1.399 . S
C618 C623 1.399 . S
C619 C618 1.399 . S
C619 C620 1.376 . S
C620 H607 0.930 . S
C620 C619 1.376 . S
C620 C621 1.388 . S
C621 H608 0.930 . S
C621 C620 1.388 . S
C621 C622 1.390 . S
C622 C621 1.390 . S
C622 C623 1.394 . S
C622 C628 1.465 . S
C623 C618 1.399 . S
C623 C622 1.394 . S
C623 C624 1.516 . S
C624 C623 1.516 . S
C624 C625 1.502 . S
C624 C626 1.561 . S
C624 C627 1.526 . S
C625 H609 0.959 . S
C625 H610 0.959 . S
C625 H611 0.961 . S
C625 C624 1.502 . S
C626 H612 0.960 . S
C626 H613 0.961 . S
C626 H614 0.959 . S
C626 C624 1.561 . S
C627 C624 1.526 . S
C627 C628 1.396 . S
C627 C632 1.390 . S
C628 C622 1.465 . S
C628 C627 1.396 . S
C628 C629 1.399 . S
C629 H615 0.929 . S
C629 C628 1.399 . S
C629 C630 1.385 . S
C630 H616 0.931 . S
C630 C629 1.385 . S
C630 C631 1.389 . S
C631 C630 1.389 . S
C631 C632 1.387 . S
C632 H617 0.930 . S
C632 C627 1.390 . S
C632 C631 1.387 . S
H633 C645 0.930 . S
H634 C647 0.930 . S
H635 C648 0.930 . S
H636 C652 0.959 . S
H637 C652 0.959 . S
H638 C652 0.961 . S
H639 C653 0.960 . S
H640 C653 0.961 . S
H641 C653 0.959 . S
H642 C656 0.929 . S
H643 C657 0.931 . S
H644 C659 0.930 . S
C645 H633 0.930 . S
C645 C646 1.399 . S
C645 C650 1.399 . S
C646 C645 1.399 . S
C646 C647 1.376 . S
C647 H634 0.930 . S
C647 C646 1.376 . S
C647 C648 1.388 . S
C648 H635 0.930 . S
C648 C647 1.388 . S
C648 C649 1.390 . S
C649 C648 1.390 . S
C649 C650 1.394 . S
C649 C655 1.465 . S
C650 C645 1.399 . S
C650 C649 1.394 . S
C650 C651 1.516 . S
C651 C650 1.516 . S
C651 C652 1.502 . S
C651 C653 1.561 . S
C651 C654 1.526 . S
C652 H636 0.959 . S
C652 H637 0.959 . S
C652 H638 0.961 . S
C652 C651 1.502 . S
C653 H639 0.960 . S
C653 H640 0.961 . S
C653 H641 0.959 . S
C653 C651 1.561 . S
C654 C651 1.526 . S
C654 C655 1.396 . S
C654 C659 1.390 . S
C655 C649 1.465 . S
C655 C654 1.396 . S
C655 C656 1.399 . S
C656 H642 0.929 . S
C656 C655 1.399 . S
C656 C657 1.385 . S
C657 H643 0.931 . S
C657 C656 1.385 . S
C657 C658 1.389 . S
C658 C657 1.389 . S
C658 C659 1.387 . S
C659 H644 0.930 . S
C659 C654 1.390 . S
C659 C658 1.387 . S
H660 C672 0.930 . S
H661 C674 0.930 . S
H662 C675 0.930 . S
H663 C679 0.959 . S
H664 C679 0.959 . S
H665 C679 0.961 . S
H666 C680 0.960 . S
H667 C680 0.961 . S
H668 C680 0.959 . S
H669 C683 0.929 . S
H670 C684 0.931 . S
H671 C686 0.930 . S
C672 H660 0.930 . S
C672 C673 1.399 . S
C672 C677 1.399 . S
C673 C672 1.399 . S
C673 C674 1.376 . S
C674 H661 0.930 . S
C674 C673 1.376 . S
C674 C675 1.388 . S
C675 H662 0.930 . S
C675 C674 1.388 . S
C675 C676 1.390 . S
C676 C675 1.390 . S
C676 C677 1.394 . S
C676 C682 1.465 . S
C677 C672 1.399 . S
C677 C676 1.394 . S
C677 C678 1.516 . S
C678 C677 1.516 . S
C678 C679 1.502 . S
C678 C680 1.561 . S
C678 C681 1.526 . S
C679 H663 0.959 . S
C679 H664 0.959 . S
C679 H665 0.961 . S
C679 C678 1.502 . S
C680 H666 0.960 . S
C680 H667 0.961 . S
C680 H668 0.959 . S
C680 C678 1.561 . S
C681 C678 1.526 . S
C681 C682 1.396 . S
C681 C686 1.390 . S
C682 C676 1.465 . S
C682 C681 1.396 . S
C682 C683 1.399 . S
C683 H669 0.929 . S
C683 C682 1.399 . S
C683 C684 1.385 . S
C684 H670 0.931 . S
C684 C683 1.385 . S
C684 C685 1.389 . S
C685 C684 1.389 . S
C685 C686 1.387 . S
C686 H671 0.930 . S
C686 C681 1.390 . S
C686 C685 1.387 . S
H687 C699 0.930 . S
H688 C701 0.930 . S
H689 C702 0.930 . S
H690 C706 0.959 . S
H691 C706 0.959 . S
H692 C706 0.961 . S
H693 C707 0.960 . S
H694 C707 0.961 . S
H695 C707 0.959 . S
H696 C710 0.929 . S
H697 C711 0.931 . S
H698 C713 0.930 . S
C699 H687 0.930 . S
C699 C700 1.399 . S
C699 C704 1.399 . S
C700 C699 1.399 . S
C700 C701 1.376 . S
C701 H688 0.930 . S
C701 C700 1.376 . S
C701 C702 1.388 . S
C702 H689 0.930 . S
C702 C701 1.388 . S
C702 C703 1.390 . S
C703 C702 1.390 . S
C703 C704 1.394 . S
C703 C709 1.465 . S
C704 C699 1.399 . S
C704 C703 1.394 . S
C704 C705 1.516 . S
C705 C704 1.516 . S
C705 C706 1.502 . S
C705 C707 1.561 . S
C705 C708 1.526 . S
C706 H690 0.959 . S
C706 H691 0.959 . S
C706 H692 0.961 . S
C706 C705 1.502 . S
C707 H693 0.960 . S
C707 H694 0.961 . S
C707 H695 0.959 . S
C707 C705 1.561 . S
C708 C705 1.526 . S
C708 C709 1.396 . S
C708 C713 1.390 . S
C709 C703 1.465 . S
C709 C708 1.396 . S
C709 C710 1.399 . S
C710 H696 0.929 . S
C710 C709 1.399 . S
C710 C711 1.385 . S
C711 H697 0.931 . S
C711 C710 1.385 . S
C711 C712 1.389 . S
C712 C711 1.389 . S
C712 C713 1.387 . S
C713 H698 0.930 . S
C713 C708 1.390 . S
C713 C712 1.387 . S
H714 C726 0.930 . S
H715 C728 0.930 . S
H716 C729 0.930 . S
H717 C733 0.959 . S
H718 C733 0.959 . S
H719 C733 0.961 . S
H720 C734 0.960 . S
H721 C734 0.961 . S
H722 C734 0.959 . S
H723 C737 0.929 . S
H724 C738 0.931 . S
H725 C740 0.930 . S
C726 H714 0.930 . S
C726 C727 1.399 . S
C726 C731 1.399 . S
C727 C726 1.399 . S
C727 C728 1.376 . S
C728 H715 0.930 . S
C728 C727 1.376 . S
C728 C729 1.388 . S
C729 H716 0.930 . S
C729 C728 1.388 . S
C729 C730 1.390 . S
C730 C729 1.390 . S
C730 C731 1.394 . S
C730 C736 1.465 . S
C731 C726 1.399 . S
C731 C730 1.394 . S
C731 C732 1.516 . S
C732 C731 1.516 . S
C732 C733 1.502 . S
C732 C734 1.561 . S
C732 C735 1.526 . S
C733 H717 0.959 . S
C733 H718 0.959 . S
C733 H719 0.961 . S
C733 C732 1.502 . S
C734 H720 0.960 . S
C734 H721 0.961 . S
C734 H722 0.959 . S
C734 C732 1.561 . S
C735 C732 1.526 . S
C735 C736 1.396 . S
C735 C740 1.390 . S
C736 C730 1.465 . S
C736 C735 1.396 . S
C736 C737 1.399 . S
C737 H723 0.929 . S
C737 C736 1.399 . S
C737 C738 1.385 . S
C738 H724 0.931 . S
C738 C737 1.385 . S
C738 C739 1.389 . S
C739 C738 1.389 . S
C739 C740 1.387 . S
C740 H725 0.930 . S
C740 C735 1.390 . S
C740 C739 1.387 . S
H741 C753 0.930 . S
H742 C755 0.930 . S
H743 C756 0.930 . S
H744 C760 0.959 . S
H745 C760 0.959 . S
H746 C760 0.961 . S
H747 C761 0.960 . S
H748 C761 0.961 . S
H749 C761 0.959 . S
H750 C764 0.929 . S
H751 C765 0.931 . S
H752 C767 0.930 . S
C753 H741 0.930 . S
C753 C754 1.399 . S
C753 C758 1.399 . S
C754 C753 1.399 . S
C754 C755 1.376 . S
C755 H742 0.930 . S
C755 C754 1.376 . S
C755 C756 1.388 . S
C756 H743 0.930 . S
C756 C755 1.388 . S
C756 C757 1.390 . S
C757 C756 1.390 . S
C757 C758 1.394 . S
C757 C763 1.465 . S
C758 C753 1.399 . S
C758 C757 1.394 . S
C758 C759 1.516 . S
C759 C758 1.516 . S
C759 C760 1.502 . S
C759 C761 1.561 . S
C759 C762 1.526 . S
C760 H744 0.959 . S
C760 H745 0.959 . S
C760 H746 0.961 . S
C760 C759 1.502 . S
C761 H747 0.960 . S
C761 H748 0.961 . S
C761 H749 0.959 . S
C761 C759 1.561 . S
C762 C759 1.526 . S
C762 C763 1.396 . S
C762 C767 1.390 . S
C763 C757 1.465 . S
C763 C762 1.396 . S
C763 C764 1.399 . S
C764 H750 0.929 . S
C764 C763 1.399 . S
C764 C765 1.385 . S
C765 H751 0.931 . S
C765 C764 1.385 . S
C765 C766 1.389 . S
C766 C765 1.389 . S
C766 C767 1.387 . S
C767 H752 0.930 . S
C767 C762 1.390 . S
C767 C766 1.387 . S
H768 C780 0.930 . S
H769 C782 0.930 . S
H770 C783 0.930 . S
H771 C787 0.959 . S
H772 C787 0.959 . S
H773 C787 0.961 . S
H774 C788 0.960 . S
H775 C788 0.961 . S
H776 C788 0.959 . S
H777 C791 0.929 . S
H778 C792 0.931 . S
H779 C794 0.930 . S
C780 H768 0.930 . S
C780 C781 1.399 . S
C780 C785 1.399 . S
C781 C780 1.399 . S
C781 C782 1.376 . S
C782 H769 0.930 . S
C782 C781 1.376 . S
C782 C783 1.388 . S
C783 H770 0.930 . S
C783 C782 1.388 . S
C783 C784 1.390 . S
C784 C783 1.390 . S
C784 C785 1.394 . S
C784 C790 1.465 . S
C785 C780 1.399 . S
C785 C784 1.394 . S
C785 C786 1.516 . S
C786 C785 1.516 . S
C786 C787 1.502 . S
C786 C788 1.561 . S
C786 C789 1.526 . S
C787 H771 0.959 . S
C787 H772 0.959 . S
C787 H773 0.961 . S
C787 C786 1.502 . S
C788 H774 0.960 . S
C788 H775 0.961 . S
C788 H776 0.959 . S
C788 C786 1.561 . S
C789 C786 1.526 . S
C789 C790 1.396 . S
C789 C794 1.390 . S
C790 C784 1.465 . S
C790 C789 1.396 . S
C790 C791 1.399 . S
C791 H777 0.929 . S
C791 C790 1.399 . S
C791 C792 1.385 . S
C792 H778 0.931 . S
C792 C791 1.385 . S
C792 C793 1.389 . S
C793 C792 1.389 . S
C793 C794 1.387 . S
C794 H779 0.930 . S
C794 C789 1.390 . S
C794 C793 1.387 . S
H795 C807 0.930 . S
H796 C809 0.930 . S
H797 C810 0.930 . S
H798 C814 0.959 . S
H799 C814 0.959 . S
H800 C814 0.961 . S
H801 C815 0.960 . S
H802 C815 0.961 . S
H803 C815 0.959 . S
H804 C818 0.929 . S
H805 C819 0.931 . S
H806 C821 0.930 . S
C807 H795 0.930 . S
C807 C808 1.399 . S
C807 C812 1.399 . S
C808 C807 1.399 . S
C808 C809 1.376 . S
C809 H796 0.930 . S
C809 C808 1.376 . S
C809 C810 1.388 . S
C810 H797 0.930 . S
C810 C809 1.388 . S
C810 C811 1.390 . S
C811 C810 1.390 . S
C811 C812 1.394 . S
C811 C817 1.465 . S
C812 C807 1.399 . S
C812 C811 1.394 . S
C812 C813 1.516 . S
C813 C812 1.516 . S
C813 C814 1.502 . S
C813 C815 1.561 . S
C813 C816 1.526 . S
C814 H798 0.959 . S
C814 H799 0.959 . S
C814 H800 0.961 . S
C814 C813 1.502 . S
C815 H801 0.960 . S
C815 H802 0.961 . S
C815 H803 0.959 . S
C815 C813 1.561 . S
C816 C813 1.526 . S
C816 C817 1.396 . S
C816 C821 1.390 . S
C817 C811 1.465 . S
C817 C816 1.396 . S
C817 C818 1.399 . S
C818 H804 0.929 . S
C818 C817 1.399 . S
C818 C819 1.385 . S
C819 H805 0.931 . S
C819 C818 1.385 . S
C819 C820 1.389 . S
C820 C819 1.389 . S
C820 C821 1.387 . S
C821 H806 0.930 . S
C821 C816 1.390 . S
C821 C820 1.387 . S
H822 C834 0.930 . S
H823 C836 0.930 . S
H824 C837 0.930 . S
H825 C841 0.959 . S
H826 C841 0.959 . S
H827 C841 0.961 . S
H828 C842 0.960 . S
H829 C842 0.961 . S
H830 C842 0.959 . S
H831 C845 0.929 . S
H832 C846 0.931 . S
H833 C848 0.930 . S
C834 H822 0.930 . S
C834 C835 1.399 . S
C834 C839 1.399 . S
C835 C834 1.399 . S
C835 C836 1.376 . S
C836 H823 0.930 . S
C836 C835 1.376 . S
C836 C837 1.388 . S
C837 H824 0.930 . S
C837 C836 1.388 . S
C837 C838 1.390 . S
C838 C837 1.390 . S
C838 C839 1.394 . S
C838 C844 1.465 . S
C839 C834 1.399 . S
C839 C838 1.394 . S
C839 C840 1.516 . S
C840 C839 1.516 . S
C840 C841 1.502 . S
C840 C842 1.561 . S
C840 C843 1.526 . S
C841 H825 0.959 . S
C841 H826 0.959 . S
C841 H827 0.961 . S
C841 C840 1.502 . S
C842 H828 0.960 . S
C842 H829 0.961 . S
C842 H830 0.959 . S
C842 C840 1.561 . S
C843 C840 1.526 . S
C843 C844 1.396 . S
C843 C848 1.390 . S
C844 C838 1.465 . S
C844 C843 1.396 . S
C844 C845 1.399 . S
C845 H831 0.929 . S
C845 C844 1.399 . S
C845 C846 1.385 . S
C846 H832 0.931 . S
C846 C845 1.385 . S
C846 C847 1.389 . S
C847 C846 1.389 . S
C847 C848 1.387 . S
C848 H833 0.930 . S
C848 C843 1.390 . S
C848 C847 1.387 . S
H849 C861 0.930 . S
H850 C863 0.930 . S
H851 C864 0.930 . S
H852 C868 0.959 . S
H853 C868 0.959 . S
H854 C868 0.961 . S
H855 C869 0.960 . S
H856 C869 0.961 . S
H857 C869 0.959 . S
H858 C872 0.929 . S
H859 C873 0.931 . S
H860 C875 0.930 . S
C861 H849 0.930 . S
C861 C862 1.399 . S
C861 C866 1.399 . S
C862 C861 1.399 . S
C862 C863 1.376 . S
C863 H850 0.930 . S
C863 C862 1.376 . S
C863 C864 1.388 . S
C864 H851 0.930 . S
C864 C863 1.388 . S
C864 C865 1.390 . S
C865 C864 1.390 . S
C865 C866 1.394 . S
C865 C871 1.465 . S
C866 C861 1.399 . S
C866 C865 1.394 . S
C866 C867 1.516 . S
C867 C866 1.516 . S
C867 C868 1.502 . S
C867 C869 1.561 . S
C867 C870 1.526 . S
C868 H852 0.959 . S
C868 H853 0.959 . S
C868 H854 0.961 . S
C868 C867 1.502 . S
C869 H855 0.960 . S
C869 H856 0.961 . S
C869 H857 0.959 . S
C869 C867 1.561 . S
C870 C867 1.526 . S
C870 C871 1.396 . S
C870 C875 1.390 . S
C871 C865 1.465 . S
C871 C870 1.396 . S
C871 C872 1.399 . S
C872 H858 0.929 . S
C872 C871 1.399 . S
C872 C873 1.385 . S
C873 H859 0.931 . S
C873 C872 1.385 . S
C873 C874 1.389 . S
C874 C873 1.389 . S
C874 C875 1.387 . S
C875 H860 0.930 . S
C875 C870 1.390 . S
C875 C874 1.387 . S
H876 C888 0.930 . S
H877 C890 0.930 . S
H878 C891 0.930 . S
H879 C895 0.959 . S
H880 C895 0.959 . S
H881 C895 0.961 . S
H882 C896 0.960 . S
H883 C896 0.961 . S
H884 C896 0.959 . S
H885 C899 0.929 . S
H886 C900 0.931 . S
H887 C902 0.930 . S
C888 H876 0.930 . S
C888 C889 1.399 . S
C888 C893 1.399 . S
C889 C888 1.399 . S
C889 C890 1.376 . S
C890 H877 0.930 . S
C890 C889 1.376 . S
C890 C891 1.388 . S
C891 H878 0.930 . S
C891 C890 1.388 . S
C891 C892 1.390 . S
C892 C891 1.390 . S
C892 C893 1.394 . S
C892 C898 1.465 . S
C893 C888 1.399 . S
C893 C892 1.394 . S
C893 C894 1.516 . S
C894 C893 1.516 . S
C894 C895 1.502 . S
C894 C896 1.561 . S
C894 C897 1.526 . S
C895 H879 0.959 . S
C895 H880 0.959 . S
C895 H881 0.961 . S
C895 C894 1.502 . S
C896 H882 0.960 . S
C896 H883 0.961 . S
C896 H884 0.959 . S
C896 C894 1.561 . S
C897 C894 1.526 . S
C897 C898 1.396 . S
C897 C902 1.390 . S
C898 C892 1.465 . S
C898 C897 1.396 . S
C898 C899 1.399 . S
C899 H885 0.929 . S
C899 C898 1.399 . S
C899 C900 1.385 . S
C900 H886 0.931 . S
C900 C899 1.385 . S
C900 C901 1.389 . S
C901 C900 1.389 . S
C901 C902 1.387 . S
C902 H887 0.930 . S
C902 C897 1.390 . S
C902 C901 1.387 . S
H903 C915 0.930 . S
H904 C917 0.930 . S
H905 C918 0.930 . S
H906 C922 0.959 . S
H907 C922 0.959 . S
H908 C922 0.961 . S
H909 C923 0.960 . S
H910 C923 0.961 . S
H911 C923 0.959 . S
H912 C926 0.929 . S
H913 C927 0.931 . S
H914 C929 0.930 . S
C915 H903 0.930 . S
C915 C916 1.399 . S
C915 C920 1.399 . S
C916 C915 1.399 . S
C916 C917 1.376 . S
C917 H904 0.930 . S
C917 C916 1.376 . S
C917 C918 1.388 . S
C918 H905 0.930 . S
C918 C917 1.388 . S
C918 C919 1.390 . S
C919 C918 1.390 . S
C919 C920 1.394 . S
C919 C925 1.465 . S
C920 C915 1.399 . S
C920 C919 1.394 . S
C920 C921 1.516 . S
C921 C920 1.516 . S
C921 C922 1.502 . S
C921 C923 1.561 . S
C921 C924 1.526 . S
C922 H906 0.959 . S
C922 H907 0.959 . S
C922 H908 0.961 . S
C922 C921 1.502 . S
C923 H909 0.960 . S
C923 H910 0.961 . S
C923 H911 0.959 . S
C923 C921 1.561 . S
C924 C921 1.526 . S
C924 C925 1.396 . S
C924 C929 1.390 . S
C925 C919 1.465 . S
C925 C924 1.396 . S
C925 C926 1.399 . S
C926 H912 0.929 . S
C926 C925 1.399 . S
C926 C927 1.385 . S
C927 H913 0.931 . S
C927 C926 1.385 . S
C927 C928 1.389 . S
C928 C927 1.389 . S
C928 C929 1.387 . S
C929 H914 0.930 . S
C929 C924 1.390 . S
C929 C928 1.387 . S
H930 C942 0.930 . S
H931 C944 0.930 . S
H932 C945 0.930 . S
H933 C949 0.959 . S
H934 C949 0.959 . S
H935 C949 0.961 . S
H936 C950 0.960 . S
H937 C950 0.961 . S
H938 C950 0.959 . S
H939 C953 0.929 . S
H940 C954 0.931 . S
H941 C956 0.930 . S
C942 H930 0.930 . S
C942 C943 1.399 . S
C942 C947 1.399 . S
C943 C942 1.399 . S
C943 C944 1.376 . S
C944 H931 0.930 . S
C944 C943 1.376 . S
C944 C945 1.388 . S
C945 H932 0.930 . S
C945 C944 1.388 . S
C945 C946 1.390 . S
C946 C945 1.390 . S
C946 C947 1.394 . S
C946 C952 1.465 . S
C947 C942 1.399 . S
C947 C946 1.394 . S
C947 C948 1.516 . S
C948 C947 1.516 . S
C948 C949 1.502 . S
C948 C950 1.561 . S
C948 C951 1.526 . S
C949 H933 0.959 . S
C949 H934 0.959 . S
C949 H935 0.961 . S
C949 C948 1.502 . S
C950 H936 0.960 . S
C950 H937 0.961 . S
C950 H938 0.959 . S
C950 C948 1.561 . S
C951 C948 1.526 . S
C951 C952 1.396 . S
C951 C956 1.390 . S
C952 C946 1.465 . S
C952 C951 1.396 . S
C952 C953 1.399 . S
C953 H939 0.929 . S
C953 C952 1.399 . S
C953 C954 1.385 . S
C954 H940 0.931 . S
C954 C953 1.385 . S
C954 C955 1.389 . S
C955 C954 1.389 . S
C955 C956 1.387 . S
C956 H941 0.930 . S
C956 C951 1.390 . S
C956 C955 1.387 . S
H957 C969 0.930 . S
H958 C971 0.930 . S
H959 C972 0.930 . S
H960 C976 0.959 . S
H961 C976 0.959 . S
H962 C976 0.961 . S
H963 C977 0.960 . S
H964 C977 0.961 . S
H965 C977 0.959 . S
H966 C980 0.929 . S
H967 C981 0.931 . S
H968 C983 0.930 . S
C969 H957 0.930 . S
C969 C970 1.399 . S
C969 C974 1.399 . S
C970 C969 1.399 . S
C970 C971 1.376 . S
C971 H958 0.930 . S
C971 C970 1.376 . S
C971 C972 1.388 . S
C972 H959 0.930 . S
C972 C971 1.388 . S
C972 C973 1.390 . S
C973 C972 1.390 . S
C973 C974 1.394 . S
C973 C979 1.465 . S
C974 C969 1.399 . S
C974 C973 1.394 . S
C974 C975 1.516 . S
C975 C974 1.516 . S
C975 C976 1.502 . S
C975 C977 1.561 . S
C975 C978 1.526 . S
C976 H960 0.959 . S
C976 H961 0.959 . S
C976 H962 0.961 . S
C976 C975 1.502 . S
C977 H963 0.960 . S
C977 H964 0.961 . S
C977 H965 0.959 . S
C977 C975 1.561 . S
C978 C975 1.526 . S
C978 C979 1.396 . S
C978 C983 1.390 . S
C979 C973 1.465 . S
C979 C978 1.396 . S
C979 C980 1.399 . S
C980 H966 0.929 . S
C980 C979 1.399 . S
C980 C981 1.385 . S
C981 H967 0.931 . S
C981 C980 1.385 . S
C981 C982 1.389 . S
C982 C981 1.389 . S
C982 C983 1.387 . S
C983 H968 0.930 . S
C983 C978 1.390 . S
C983 C982 1.387 . S
H984 C996 0.930 . S
H985 C998 0.930 . S
H986 C999 0.930 . S
H987 C1003 0.959 . S
H988 C1003 0.959 . S
H989 C1003 0.961 . S
H990 C1004 0.960 . S
H991 C1004 0.961 . S
H992 C1004 0.959 . S
H993 C1007 0.929 . S
H994 C1008 0.931 . S
H995 C1010 0.930 . S
C996 H984 0.930 . S
C996 C997 1.399 . S
C996 C1001 1.399 . S
C997 C996 1.399 . S
C997 C998 1.376 . S
C998 H985 0.930 . S
C998 C997 1.376 . S
C998 C999 1.388 . S
C999 H986 0.930 . S
C999 C998 1.388 . S
C999 C1000 1.390 . S
C1000 C999 1.390 . S
C1000 C1001 1.394 . S
C1000 C1006 1.465 . S
C1001 C996 1.399 . S
C1001 C1000 1.394 . S
C1001 C1002 1.516 . S
C1002 C1001 1.516 . S
C1002 C1003 1.502 . S
C1002 C1004 1.561 . S
C1002 C1005 1.526 . S
C1003 H987 0.959 . S
C1003 H988 0.959 . S
C1003 H989 0.961 . S
C1003 C1002 1.502 . S
C1004 H990 0.960 . S
C1004 H991 0.961 . S
C1004 H992 0.959 . S
C1004 C1002 1.561 . S
C1005 C1002 1.526 . S
C1005 C1006 1.396 . S
C1005 C1010 1.390 . S
C1006 C1000 1.465 . S
C1006 C1005 1.396 . S
C1006 C1007 1.399 . S
C1007 H993 0.929 . S
C1007 C1006 1.399 . S
C1007 C1008 1.385 . S
C1008 H994 0.931 . S
C1008 C1007 1.385 . S
C1008 C1009 1.389 . S
C1009 C1008 1.389 . S
C1009 C1010 1.387 . S
C1010 H995 0.930 . S
C1010 C1005 1.390 . S
C1010 C1009 1.387 . S
H1011 C1023 0.930 . S
H1012 C1025 0.930 . S
H1013 C1026 0.930 . S
H1014 C1030 0.959 . S
H1015 C1030 0.959 . S
H1016 C1030 0.961 . S
H1017 C1031 0.960 . S
H1018 C1031 0.961 . S
H1019 C1031 0.959 . S
H1020 C1034 0.929 . S
H1021 C1035 0.931 . S
H1022 C1037 0.930 . S
C1023 H1011 0.930 . S
C1023 C1024 1.399 . S
C1023 C1028 1.399 . S
C1024 C1023 1.399 . S
C1024 C1025 1.376 . S
C1025 H1012 0.930 . S
C1025 C1024 1.376 . S
C1025 C1026 1.388 . S
C1026 H1013 0.930 . S
C1026 C1025 1.388 . S
C1026 C1027 1.390 . S
C1027 C1026 1.390 . S
C1027 C1028 1.394 . S
C1027 C1033 1.465 1_554 S
C1028 C1023 1.399 . S
C1028 C1027 1.394 . S
C1028 C1029 1.516 1_554 S
C1029 C1028 1.516 1_556 S
C1029 C1030 1.502 . S
C1029 C1031 1.561 . S
C1029 C1032 1.526 . S
C1030 H1014 0.959 . S
C1030 H1015 0.959 . S
C1030 H1016 0.961 . S
C1030 C1029 1.502 . S
C1031 H1017 0.960 . S
C1031 H1018 0.961 . S
C1031 H1019 0.959 . S
C1031 C1029 1.561 . S
C1032 C1029 1.526 . S
C1032 C1033 1.396 . S
C1032 C1037 1.390 . S
C1033 C1027 1.465 1_556 S
C1033 C1032 1.396 . S
C1033 C1034 1.399 . S
C1034 H1020 0.929 . S
C1034 C1033 1.399 . S
C1034 C1035 1.385 . S
C1035 H1021 0.931 . S
C1035 C1034 1.385 . S
C1035 C1036 1.389 . S
C1036 C1035 1.389 . S
C1036 C1037 1.387 . S
C1037 H1022 0.930 . S
C1037 C1032 1.390 . S
C1037 C1036 1.387 . S
H1038 C1050 0.930 . S
H1039 C1052 0.930 . S
H1040 C1053 0.930 . S
H1041 C1057 0.959 . S
H1042 C1057 0.959 . S
H1043 C1057 0.961 . S
H1044 C1058 0.960 . S
H1045 C1058 0.961 . S
H1046 C1058 0.959 . S
H1047 C1061 0.929 . S
H1048 C1062 0.931 . S
H1049 C1064 0.930 . S
C1050 H1038 0.930 . S
C1050 C1051 1.399 . S
C1050 C1055 1.399 . S
C1051 C1050 1.399 . S
C1051 C1052 1.376 . S
C1052 H1039 0.930 . S
C1052 C1051 1.376 . S
C1052 C1053 1.388 . S
C1053 H1040 0.930 . S
C1053 C1052 1.388 . S
C1053 C1054 1.390 . S
C1054 C1053 1.390 . S
C1054 C1055 1.394 . S
C1054 C1060 1.465 . S
C1055 C1050 1.399 . S
C1055 C1054 1.394 . S
C1055 C1056 1.516 . S
C1056 C1055 1.516 . S
C1056 C1057 1.502 . S
C1056 C1058 1.561 . S
C1056 C1059 1.526 . S
C1057 H1041 0.959 . S
C1057 H1042 0.959 . S
C1057 H1043 0.961 . S
C1057 C1056 1.502 . S
C1058 H1044 0.960 . S
C1058 H1045 0.961 . S
C1058 H1046 0.959 . S
C1058 C1056 1.561 . S
C1059 C1056 1.526 . S
C1059 C1060 1.396 . S
C1059 C1064 1.390 . S
C1060 C1054 1.465 . S
C1060 C1059 1.396 . S
C1060 C1061 1.399 . S
C1061 H1047 0.929 . S
C1061 C1060 1.399 . S
C1061 C1062 1.385 . S
C1062 H1048 0.931 . S
C1062 C1061 1.385 . S
C1062 C1063 1.389 . S
C1063 C1062 1.389 . S
C1063 C1064 1.387 . S
C1064 H1049 0.930 . S
C1064 C1059 1.390 . S
C1064 C1063 1.387 . S
H1065 C1077 0.930 . S
H1066 C1079 0.930 . S
H1067 C1080 0.930 . S
H1068 C1084 0.959 . S
H1069 C1084 0.959 . S
H1070 C1084 0.961 . S
H1071 C1085 0.960 . S
H1072 C1085 0.961 . S
H1073 C1085 0.959 . S
H1074 C1088 0.929 . S
H1075 C1089 0.931 . S
H1076 C1091 0.930 . S
C1077 H1065 0.930 . S
C1077 C1078 1.399 . S
C1077 C1082 1.399 . S
C1078 C1077 1.399 . S
C1078 C1079 1.376 . S
C1079 H1066 0.930 . S
C1079 C1078 1.376 . S
C1079 C1080 1.388 . S
C1080 H1067 0.930 . S
C1080 C1079 1.388 . S
C1080 C1081 1.390 . S
C1081 C1080 1.390 . S
C1081 C1082 1.394 . S
C1081 C1087 1.465 1_554 S
C1082 C1077 1.399 . S
C1082 C1081 1.394 . S
C1082 C1083 1.516 . S
C1083 C1082 1.516 . S
C1083 C1084 1.502 . S
C1083 C1085 1.561 . S
C1083 C1086 1.526 1_554 S
C1084 H1068 0.959 . S
C1084 H1069 0.959 . S
C1084 H1070 0.961 . S
C1084 C1083 1.502 . S
C1085 H1071 0.960 . S
C1085 H1072 0.961 . S
C1085 H1073 0.959 . S
C1085 C1083 1.561 . S
C1086 C1083 1.526 1_556 S
C1086 C1087 1.396 . S
C1086 C1091 1.390 . S
C1087 C1081 1.465 1_556 S
C1087 C1086 1.396 . S
C1087 C1088 1.399 . S
C1088 H1074 0.929 . S
C1088 C1087 1.399 . S
C1088 C1089 1.385 . S
C1089 H1075 0.931 . S
C1089 C1088 1.385 . S
C1089 C1090 1.389 . S
C1090 C1089 1.389 . S
C1090 C1091 1.387 . S
C1091 H1076 0.930 . S
C1091 C1086 1.390 . S
C1091 C1090 1.387 . S
H1092 C1104 0.930 . S
H1093 C1106 0.930 . S
H1094 C1107 0.930 . S
H1095 C1111 0.959 . S
H1096 C1111 0.959 . S
H1097 C1111 0.961 . S
H1098 C1112 0.960 . S
H1099 C1112 0.961 . S
H1100 C1112 0.959 . S
H1101 C1115 0.929 . S
H1102 C1116 0.931 . S
H1103 C1118 0.930 . S
C1104 H1092 0.930 . S
C1104 C1105 1.399 . S
C1104 C1109 1.399 . S
C1105 C1104 1.399 . S
C1105 C1106 1.376 . S
C1106 H1093 0.930 . S
C1106 C1105 1.376 . S
C1106 C1107 1.388 . S
C1107 H1094 0.930 . S
C1107 C1106 1.388 . S
C1107 C1108 1.390 . S
C1108 C1107 1.390 . S
C1108 C1109 1.394 . S
C1108 C1114 1.465 . S
C1109 C1104 1.399 . S
C1109 C1108 1.394 . S
C1109 C1110 1.516 . S
C1110 C1109 1.516 . S
C1110 C1111 1.502 . S
C1110 C1112 1.561 . S
C1110 C1113 1.526 . S
C1111 H1095 0.959 . S
C1111 H1096 0.959 . S
C1111 H1097 0.961 . S
C1111 C1110 1.502 . S
C1112 H1098 0.960 . S
C1112 H1099 0.961 . S
C1112 H1100 0.959 . S
C1112 C1110 1.561 . S
C1113 C1110 1.526 . S
C1113 C1114 1.396 . S
C1113 C1118 1.390 . S
C1114 C1108 1.465 . S
C1114 C1113 1.396 . S
C1114 C1115 1.399 . S
C1115 H1101 0.929 . S
C1115 C1114 1.399 . S
C1115 C1116 1.385 . S
C1116 H1102 0.931 . S
C1116 C1115 1.385 . S
C1116 C1117 1.389 . S
C1117 C1116 1.389 . S
C1117 C1118 1.387 . S
C1118 H1103 0.930 . S
C1118 C1113 1.390 . S
C1118 C1117 1.387 . S
H1119 C1131 0.930 . S
H1120 C1133 0.930 . S
H1121 C1134 0.930 . S
H1122 C1138 0.959 . S
H1123 C1138 0.959 . S
H1124 C1138 0.961 . S
H1125 C1139 0.960 . S
H1126 C1139 0.961 . S
H1127 C1139 0.959 . S
H1128 C1142 0.929 . S
H1129 C1143 0.931 . S
H1130 C1145 0.930 . S
C1131 H1119 0.930 . S
C1131 C1132 1.399 . S
C1131 C1136 1.399 . S
C1132 C1131 1.399 . S
C1132 C1133 1.376 . S
C1133 H1120 0.930 . S
C1133 C1132 1.376 . S
C1133 C1134 1.388 . S
C1134 H1121 0.930 . S
C1134 C1133 1.388 . S
C1134 C1135 1.390 . S
C1135 C1134 1.390 . S
C1135 C1136 1.394 . S
C1135 C1141 1.465 1_655 S
C1136 C1131 1.399 . S
C1136 C1135 1.394 . S
C1136 C1137 1.516 1_655 S
C1137 C1136 1.516 1_455 S
C1137 C1138 1.502 . S
C1137 C1139 1.561 . S
C1137 C1140 1.526 . S
C1138 H1122 0.959 . S
C1138 H1123 0.959 . S
C1138 H1124 0.961 . S
C1138 C1137 1.502 . S
C1139 H1125 0.960 . S
C1139 H1126 0.961 . S
C1139 H1127 0.959 . S
C1139 C1137 1.561 . S
C1140 C1137 1.526 . S
C1140 C1141 1.396 . S
C1140 C1145 1.390 . S
C1141 C1135 1.465 1_455 S
C1141 C1140 1.396 . S
C1141 C1142 1.399 . S
C1142 H1128 0.929 . S
C1142 C1141 1.399 . S
C1142 C1143 1.385 . S
C1143 H1129 0.931 . S
C1143 C1142 1.385 . S
C1143 C1144 1.389 . S
C1144 C1143 1.389 . S
C1144 C1145 1.387 . S
C1145 H1130 0.930 . S
C1145 C1140 1.390 . S
C1145 C1144 1.387 . S
H1146 C1158 0.930 . S
H1147 C1160 0.930 . S
H1148 C1161 0.930 . S
H1149 C1165 0.957 1_655 S
H1150 C1165 0.957 1_655 S
H1151 C1165 0.964 . S
H1152 C1166 0.960 . S
H1153 C1166 0.961 . S
H1154 C1166 0.959 . S
H1155 C1169 0.929 . S
H1156 C1170 0.931 . S
H1157 C1172 0.930 . S
C1158 H1146 0.930 . S
C1158 C1159 1.399 . S
C1158 C1163 1.399 . S
C1159 C1158 1.399 . S
C1159 C1160 1.376 . S
C1160 H1147 0.930 . S
C1160 C1159 1.376 . S
C1160 C1161 1.388 . S
C1161 H1148 0.930 . S
C1161 C1160 1.388 . S
C1161 C1162 1.390 . S
C1162 C1161 1.390 . S
C1162 C1163 1.394 . S
C1162 C1168 1.465 1_455 S
C1163 C1158 1.399 . S
C1163 C1162 1.394 . S
C1163 C1164 1.516 . S
C1164 C1163 1.516 . S
C1164 C1165 1.502 . S
C1164 C1166 1.561 . S
C1164 C1167 1.526 1_455 S
C1165 H1149 0.957 1_455 S
C1165 H1150 0.957 1_455 S
C1165 H1151 0.964 . S
C1165 C1164 1.502 . S
C1166 H1152 0.960 . S
C1166 H1153 0.961 . S
C1166 H1154 0.959 . S
C1166 C1164 1.561 . S
C1167 C1164 1.526 1_655 S
C1167 C1168 1.396 . S
C1167 C1172 1.390 . S
C1168 C1162 1.465 1_655 S
C1168 C1167 1.396 . S
C1168 C1169 1.399 . S
C1169 H1155 0.929 . S
C1169 C1168 1.399 . S
C1169 C1170 1.385 . S
C1170 H1156 0.931 . S
C1170 C1169 1.385 . S
C1170 C1171 1.389 . S
C1171 C1170 1.389 . S
C1171 C1172 1.387 . S
C1172 H1157 0.930 . S
C1172 C1167 1.390 . S
C1172 C1171 1.387 . S
H1173 C1185 0.930 . S
H1174 C1187 0.930 . S
H1175 C1188 0.930 . S
H1176 C1192 0.959 . S
H1177 C1192 0.959 . S
H1178 C1192 0.961 . S
H1179 C1193 0.960 . S
H1180 C1193 0.961 . S
H1181 C1193 0.959 . S
H1182 C1196 0.929 . S
H1183 C1197 0.931 . S
H1184 C1199 0.930 . S
C1185 H1173 0.930 . S
C1185 C1186 1.399 . S
C1185 C1190 1.399 . S
C1186 C1185 1.399 . S
C1186 C1187 1.376 . S
C1187 H1174 0.930 . S
C1187 C1186 1.376 . S
C1187 C1188 1.388 . S
C1188 H1175 0.930 . S
C1188 C1187 1.388 . S
C1188 C1189 1.390 . S
C1189 C1188 1.390 . S
C1189 C1190 1.394 . S
C1189 C1195 1.465 . S
C1190 C1185 1.399 . S
C1190 C1189 1.394 . S
C1190 C1191 1.516 . S
C1191 C1190 1.516 . S
C1191 C1192 1.502 . S
C1191 C1193 1.561 . S
C1191 C1194 1.526 . S
C1192 H1176 0.959 . S
C1192 H1177 0.959 . S
C1192 H1178 0.961 . S
C1192 C1191 1.502 . S
C1193 H1179 0.960 . S
C1193 H1180 0.961 . S
C1193 H1181 0.959 . S
C1193 C1191 1.561 . S
C1194 C1191 1.526 . S
C1194 C1195 1.396 . S
C1194 C1199 1.390 . S
C1195 C1189 1.465 . S
C1195 C1194 1.396 . S
C1195 C1196 1.399 . S
C1196 H1182 0.929 . S
C1196 C1195 1.399 . S
C1196 C1197 1.385 . S
C1197 H1183 0.931 . S
C1197 C1196 1.385 . S
C1197 C1198 1.389 . S
C1198 C1197 1.389 . S
C1198 C1199 1.387 . S
C1199 H1184 0.930 . S
C1199 C1194 1.390 . S
C1199 C1198 1.387 . S
H1200 C1212 0.930 . S
H1201 C1214 0.930 . S
H1202 C1215 0.930 . S
H1203 C1219 0.959 . S
H1204 C1219 0.959 . S
H1205 C1219 0.961 . S
H1206 C1220 0.960 . S
H1207 C1220 0.961 . S
H1208 C1220 0.959 . S
H1209 C1223 0.929 . S
H1210 C1224 0.931 . S
H1211 C1226 0.930 . S
C1212 H1200 0.930 . S
C1212 C1213 1.399 . S
C1212 C1217 1.399 . S
C1213 C1212 1.399 . S
C1213 C1214 1.376 . S
C1214 H1201 0.930 . S
C1214 C1213 1.376 . S
C1214 C1215 1.388 . S
C1215 H1202 0.930 . S
C1215 C1214 1.388 . S
C1215 C1216 1.390 . S
C1216 C1215 1.390 . S
C1216 C1217 1.394 . S
C1216 C1222 1.465 . S
C1217 C1212 1.399 . S
C1217 C1216 1.394 . S
C1217 C1218 1.516 . S
C1218 C1217 1.516 . S
C1218 C1219 1.502 . S
C1218 C1220 1.561 . S
C1218 C1221 1.526 . S
C1219 H1203 0.959 . S
C1219 H1204 0.959 . S
C1219 H1205 0.961 . S
C1219 C1218 1.502 . S
C1220 H1206 0.960 . S
C1220 H1207 0.961 . S
C1220 H1208 0.959 . S
C1220 C1218 1.561 . S
C1221 C1218 1.526 . S
C1221 C1222 1.396 . S
C1221 C1226 1.390 . S
C1222 C1216 1.465 . S
C1222 C1221 1.396 . S
C1222 C1223 1.399 . S
C1223 H1209 0.929 . S
C1223 C1222 1.399 . S
C1223 C1224 1.385 . S
C1224 H1210 0.931 . S
C1224 C1223 1.385 . S
C1224 C1225 1.389 . S
C1225 C1224 1.389 . S
C1225 C1226 1.387 . S
C1226 H1211 0.930 . S
C1226 C1221 1.390 . S
C1226 C1225 1.387 . S
H1227 C1239 0.930 . S
H1228 C1241 0.930 . S
H1229 C1242 0.930 . S
H1230 C1246 0.959 1_545 S
H1231 C1246 0.959 1_545 S
H1232 C1246 0.961 . S
H1233 C1247 0.960 . S
H1234 C1247 0.961 . S
H1235 C1247 0.959 . S
H1236 C1250 0.929 . S
H1237 C1251 0.931 . S
H1238 C1253 0.930 . S
C1239 H1227 0.930 . S
C1239 C1240 1.399 . S
C1239 C1244 1.399 . S
C1240 C1239 1.399 . S
C1240 C1241 1.376 . S
C1241 H1228 0.930 . S
C1241 C1240 1.376 . S
C1241 C1242 1.388 . S
C1242 H1229 0.930 . S
C1242 C1241 1.388 . S
C1242 C1243 1.390 . S
C1243 C1242 1.390 . S
C1243 C1244 1.394 . S
C1243 C1249 1.465 1_565 S
C1244 C1239 1.399 . S
C1244 C1243 1.394 . S
C1244 C1245 1.516 . S
C1245 C1244 1.516 . S
C1245 C1246 1.502 . S
C1245 C1247 1.561 . S
C1245 C1248 1.526 1_565 S
C1246 H1230 0.959 1_565 S
C1246 H1231 0.959 1_565 S
C1246 H1232 0.961 . S
C1246 C1245 1.502 . S
C1247 H1233 0.960 . S
C1247 H1234 0.961 . S
C1247 H1235 0.959 . S
C1247 C1245 1.561 . S
C1248 C1245 1.526 1_545 S
C1248 C1249 1.396 . S
C1248 C1253 1.390 . S
C1249 C1243 1.465 1_545 S
C1249 C1248 1.396 . S
C1249 C1250 1.399 . S
C1250 H1236 0.929 . S
C1250 C1249 1.399 . S
C1250 C1251 1.385 . S
C1251 H1237 0.931 . S
C1251 C1250 1.385 . S
C1251 C1252 1.389 . S
C1252 C1251 1.389 . S
C1252 C1253 1.387 . S
C1253 H1238 0.930 . S
C1253 C1248 1.390 . S
C1253 C1252 1.387 . S
H1254 C1266 0.930 . S
H1255 C1268 0.930 . S
H1256 C1269 0.930 . S
H1257 C1273 0.959 1_565 S
H1258 C1273 0.959 1_565 S
H1259 C1273 0.961 . S
H1260 C1274 0.960 . S
H1261 C1274 0.961 . S
H1262 C1274 0.959 . S
H1263 C1277 0.929 . S
H1264 C1278 0.931 . S
H1265 C1280 0.930 . S
C1266 H1254 0.930 . S
C1266 C1267 1.399 . S
C1266 C1271 1.399 . S
C1267 C1266 1.399 . S
C1267 C1268 1.376 . S
C1268 H1255 0.930 . S
C1268 C1267 1.376 . S
C1268 C1269 1.388 . S
C1269 H1256 0.930 . S
C1269 C1268 1.388 . S
C1269 C1270 1.390 . S
C1270 C1269 1.390 . S
C1270 C1271 1.394 . S
C1270 C1276 1.465 1_545 S
C1271 C1266 1.399 . S
C1271 C1270 1.394 . S
C1271 C1272 1.516 . S
C1272 C1271 1.516 . S
C1272 C1273 1.502 . S
C1272 C1274 1.561 . S
C1272 C1275 1.526 1_545 S
C1273 H1257 0.959 1_545 S
C1273 H1258 0.959 1_545 S
C1273 H1259 0.961 . S
C1273 C1272 1.502 . S
C1274 H1260 0.960 . S
C1274 H1261 0.961 . S
C1274 H1262 0.959 . S
C1274 C1272 1.561 . S
C1275 C1272 1.526 1_565 S
C1275 C1276 1.396 . S
C1275 C1280 1.390 . S
C1276 C1270 1.465 1_565 S
C1276 C1275 1.396 . S
C1276 C1277 1.399 . S
C1277 H1263 0.929 . S
C1277 C1276 1.399 . S
C1277 C1278 1.385 . S
C1278 H1264 0.931 . S
C1278 C1277 1.385 . S
C1278 C1279 1.389 . S
C1279 C1278 1.389 . S
C1279 C1280 1.387 . S
C1280 H1265 0.930 . S
C1280 C1275 1.390 . S
C1280 C1279 1.387 . S
H1281 C1293 0.930 . S
H1282 C1295 0.930 . S
H1283 C1296 0.930 . S
H1284 C1300 0.959 . S
H1285 C1300 0.959 . S
H1286 C1300 0.961 . S
H1287 C1301 0.960 . S
H1288 C1301 0.961 . S
H1289 C1301 0.959 . S
H1290 C1304 0.929 . S
H1291 C1305 0.931 . S
H1292 C1307 0.930 . S
C1293 H1281 0.930 . S
C1293 C1294 1.399 . S
C1293 C1298 1.399 . S
C1294 C1293 1.399 . S
C1294 C1295 1.376 . S
C1295 H1282 0.930 . S
C1295 C1294 1.376 . S
C1295 C1296 1.388 . S
C1296 H1283 0.930 . S
C1296 C1295 1.388 . S
C1296 C1297 1.390 . S
C1297 C1296 1.390 . S
C1297 C1298 1.394 . S
C1297 C1303 1.465 . S
C1298 C1293 1.399 . S
C1298 C1297 1.394 . S
C1298 C1299 1.516 . S
C1299 C1298 1.516 . S
C1299 C1300 1.502 . S
C1299 C1301 1.561 . S
C1299 C1302 1.526 . S
C1300 H1284 0.959 . S
C1300 H1285 0.959 . S
C1300 H1286 0.961 . S
C1300 C1299 1.502 . S
C1301 H1287 0.960 . S
C1301 H1288 0.961 . S
C1301 H1289 0.959 . S
C1301 C1299 1.561 . S
C1302 C1299 1.526 . S
C1302 C1303 1.396 . S
C1302 C1307 1.390 . S
C1303 C1297 1.465 . S
C1303 C1302 1.396 . S
C1303 C1304 1.399 . S
C1304 H1290 0.929 . S
C1304 C1303 1.399 . S
C1304 C1305 1.385 . S
C1305 H1291 0.931 . S
C1305 C1304 1.385 . S
C1305 C1306 1.389 . S
C1306 C1305 1.389 . S
C1306 C1307 1.387 . S
C1307 H1292 0.930 . S
C1307 C1302 1.390 . S
C1307 C1306 1.387 . S
H1308 C1320 0.930 . S
H1309 C1322 0.930 . S
H1310 C1323 0.930 . S
H1311 C1327 0.959 . S
H1312 C1327 0.959 . S
H1313 C1327 0.961 . S
H1314 C1328 0.960 . S
H1315 C1328 0.961 . S
H1316 C1328 0.959 . S
H1317 C1331 0.929 . S
H1318 C1332 0.931 . S
H1319 C1334 0.930 . S
C1320 H1308 0.930 . S
C1320 C1321 1.399 . S
C1320 C1325 1.399 . S
C1321 C1320 1.399 . S
C1321 C1322 1.376 . S
C1322 H1309 0.930 . S
C1322 C1321 1.376 . S
C1322 C1323 1.388 . S
C1323 H1310 0.930 . S
C1323 C1322 1.388 . S
C1323 C1324 1.390 . S
C1324 C1323 1.390 . S
C1324 C1325 1.394 . S
C1324 C1330 1.465 . S
C1325 C1320 1.399 . S
C1325 C1324 1.394 . S
C1325 C1326 1.516 . S
C1326 C1325 1.516 . S
C1326 C1327 1.502 . S
C1326 C1328 1.561 . S
C1326 C1329 1.526 . S
C1327 H1311 0.959 . S
C1327 H1312 0.959 . S
C1327 H1313 0.961 . S
C1327 C1326 1.502 . S
C1328 H1314 0.960 . S
C1328 H1315 0.961 . S
C1328 H1316 0.959 . S
C1328 C1326 1.561 . S
C1329 C1326 1.526 . S
C1329 C1330 1.396 . S
C1329 C1334 1.390 . S
C1330 C1324 1.465 . S
C1330 C1329 1.396 . S
C1330 C1331 1.399 . S
C1331 H1317 0.929 . S
C1331 C1330 1.399 . S
C1331 C1332 1.385 . S
C1332 H1318 0.931 . S
C1332 C1331 1.385 . S
C1332 C1333 1.389 . S
C1333 C1332 1.389 . S
C1333 C1334 1.387 . S
C1334 H1319 0.930 . S
C1334 C1329 1.390 . S
C1334 C1333 1.387 . S
H1335 C1347 0.930 . S
H1336 C1349 0.930 . S
H1337 C1350 0.930 1_554 S
H1338 C1354 0.959 . S
H1339 C1354 0.959 . S
H1340 C1354 0.961 . S
H1341 C1355 0.960 . S
H1342 C1355 0.961 . S
H1343 C1355 0.959 . S
H1344 C1358 0.929 . S
H1345 C1359 0.931 . S
H1346 C1361 0.930 . S
C1347 H1335 0.930 . S
C1347 C1348 1.399 . S
C1347 C1352 1.399 . S
C1348 C1347 1.399 . S
C1348 C1349 1.376 . S
C1349 H1336 0.930 . S
C1349 C1348 1.376 . S
C1349 C1350 1.388 . S
C1350 H1337 0.930 1_556 S
C1350 C1349 1.388 . S
C1350 C1351 1.390 . S
C1351 C1350 1.390 . S
C1351 C1352 1.394 . S
C1351 C1357 1.465 1_556 S
C1352 C1347 1.399 . S
C1352 C1351 1.394 . S
C1352 C1353 1.516 . S
C1353 C1352 1.516 . S
C1353 C1354 1.502 . S
C1353 C1355 1.561 . S
C1353 C1356 1.526 1_556 S
C1354 H1338 0.959 . S
C1354 H1339 0.959 . S
C1354 H1340 0.961 . S
C1354 C1353 1.502 . S
C1355 H1341 0.960 . S
C1355 H1342 0.961 . S
C1355 H1343 0.959 . S
C1355 C1353 1.561 . S
C1356 C1353 1.526 1_554 S
C1356 C1357 1.396 . S
C1356 C1361 1.390 . S
C1357 C1351 1.465 1_554 S
C1357 C1356 1.396 . S
C1357 C1358 1.399 . S
C1358 H1344 0.929 . S
C1358 C1357 1.399 . S
C1358 C1359 1.385 . S
C1359 H1345 0.931 . S
C1359 C1358 1.385 . S
C1359 C1360 1.389 . S
C1360 C1359 1.389 . S
C1360 C1361 1.387 . S
C1361 H1346 0.930 . S
C1361 C1356 1.390 . S
C1361 C1360 1.387 . S
H1362 C1374 0.930 . S
H1363 C1376 0.930 . S
H1364 C1377 0.930 . S
H1365 C1381 0.959 . S
H1366 C1381 0.959 . S
H1367 C1381 0.961 . S
H1368 C1382 0.960 . S
H1369 C1382 0.961 . S
H1370 C1382 0.959 . S
H1371 C1385 0.929 . S
H1372 C1386 0.931 . S
H1373 C1388 0.930 . S
C1374 H1362 0.930 . S
C1374 C1375 1.399 . S
C1374 C1379 1.399 . S
C1375 C1374 1.399 . S
C1375 C1376 1.376 . S
C1376 H1363 0.930 . S
C1376 C1375 1.376 . S
C1376 C1377 1.388 . S
C1377 H1364 0.930 . S
C1377 C1376 1.388 . S
C1377 C1378 1.390 . S
C1378 C1377 1.390 . S
C1378 C1379 1.394 . S
C1378 C1384 1.465 . S
C1379 C1374 1.399 . S
C1379 C1378 1.394 . S
C1379 C1380 1.516 . S
C1380 C1379 1.516 . S
C1380 C1381 1.502 . S
C1380 C1382 1.561 . S
C1380 C1383 1.526 . S
C1381 H1365 0.959 . S
C1381 H1366 0.959 . S
C1381 H1367 0.961 . S
C1381 C1380 1.502 . S
C1382 H1368 0.960 . S
C1382 H1369 0.961 . S
C1382 H1370 0.959 . S
C1382 C1380 1.561 . S
C1383 C1380 1.526 . S
C1383 C1384 1.396 . S
C1383 C1388 1.390 . S
C1384 C1378 1.465 . S
C1384 C1383 1.396 . S
C1384 C1385 1.399 . S
C1385 H1371 0.929 . S
C1385 C1384 1.399 . S
C1385 C1386 1.385 . S
C1386 H1372 0.931 . S
C1386 C1385 1.385 . S
C1386 C1387 1.389 . S
C1387 C1386 1.389 . S
C1387 C1388 1.387 . S
C1388 H1373 0.930 . S
C1388 C1383 1.390 . S
C1388 C1387 1.387 . S
H1389 C1401 0.930 . S
H1390 C1403 0.930 . S
H1391 C1404 0.930 . S
H1392 C1408 0.959 . S
H1393 C1408 0.959 . S
H1394 C1408 0.961 1_554 S
H1395 C1409 0.960 . S
H1396 C1409 0.961 . S
H1397 C1409 0.959 . S
H1398 C1412 0.929 . S
H1399 C1413 0.931 . S
H1400 C1415 0.930 . S
C1401 H1389 0.930 . S
C1401 C1402 1.399 . S
C1401 C1406 1.399 . S
C1402 C1401 1.399 . S
C1402 C1403 1.376 . S
C1403 H1390 0.930 . S
C1403 C1402 1.376 . S
C1403 C1404 1.388 . S
C1404 H1391 0.930 . S
C1404 C1403 1.388 . S
C1404 C1405 1.390 . S
C1405 C1404 1.390 . S
C1405 C1406 1.394 . S
C1405 C1411 1.465 1_554 S
C1406 C1401 1.399 . S
C1406 C1405 1.394 . S
C1406 C1407 1.516 . S
C1407 C1406 1.516 . S
C1407 C1408 1.502 1_554 S
C1407 C1409 1.561 . S
C1407 C1410 1.526 1_554 S
C1408 H1392 0.959 . S
C1408 H1393 0.959 . S
C1408 H1394 0.961 1_556 S
C1408 C1407 1.502 1_556 S
C1409 H1395 0.960 . S
C1409 H1396 0.961 . S
C1409 H1397 0.959 . S
C1409 C1407 1.561 . S
C1410 C1407 1.526 1_556 S
C1410 C1411 1.396 . S
C1410 C1415 1.390 . S
C1411 C1405 1.465 1_556 S
C1411 C1410 1.396 . S
C1411 C1412 1.399 . S
C1412 H1398 0.929 . S
C1412 C1411 1.399 . S
C1412 C1413 1.385 . S
C1413 H1399 0.931 . S
C1413 C1412 1.385 . S
C1413 C1414 1.389 . S
C1414 C1413 1.389 . S
C1414 C1415 1.387 . S
C1415 H1400 0.930 . S
C1415 C1410 1.390 . S
C1415 C1414 1.387 . S
H1416 C1428 0.930 . S
H1417 C1430 0.930 . S
H1418 C1431 0.930 . S
H1419 C1435 0.959 . S
H1420 C1435 0.959 . S
H1421 C1435 0.961 . S
H1422 C1436 0.960 . S
H1423 C1436 0.961 . S
H1424 C1436 0.959 . S
H1425 C1439 0.929 . S
H1426 C1440 0.931 . S
H1427 C1442 0.930 . S
C1428 H1416 0.930 . S
C1428 C1429 1.399 . S
C1428 C1433 1.399 . S
C1429 C1428 1.399 . S
C1429 C1430 1.376 . S
C1430 H1417 0.930 . S
C1430 C1429 1.376 . S
C1430 C1431 1.388 . S
C1431 H1418 0.930 . S
C1431 C1430 1.388 . S
C1431 C1432 1.390 . S
C1432 C1431 1.390 . S
C1432 C1433 1.394 . S
C1432 C1438 1.465 . S
C1433 C1428 1.399 . S
C1433 C1432 1.394 . S
C1433 C1434 1.516 . S
C1434 C1433 1.516 . S
C1434 C1435 1.502 . S
C1434 C1436 1.561 . S
C1434 C1437 1.526 . S
C1435 H1419 0.959 . S
C1435 H1420 0.959 . S
C1435 H1421 0.961 . S
C1435 C1434 1.502 . S
C1436 H1422 0.960 . S
C1436 H1423 0.961 . S
C1436 H1424 0.959 . S
C1436 C1434 1.561 . S
C1437 C1434 1.526 . S
C1437 C1438 1.396 . S
C1437 C1442 1.390 . S
C1438 C1432 1.465 . S
C1438 C1437 1.396 . S
C1438 C1439 1.399 . S
C1439 H1425 0.929 . S
C1439 C1438 1.399 . S
C1439 C1440 1.385 . S
C1440 H1426 0.931 . S
C1440 C1439 1.385 . S
C1440 C1441 1.389 . S
C1441 C1440 1.389 . S
C1441 C1442 1.387 . S
C1442 H1427 0.930 . S
C1442 C1437 1.390 . S
C1442 C1441 1.387 . S
H1443 C1455 0.930 . S
H1444 C1457 0.930 . S
H1445 C1458 0.930 . S
H1446 C1462 0.959 . S
H1447 C1462 0.959 . S
H1448 C1462 0.961 . S
H1449 C1463 0.960 . S
H1450 C1463 0.961 . S
H1451 C1463 0.959 . S
H1452 C1466 0.945 . S
H1453 C1467 0.931 . S
H1454 C1469 0.930 . S
C1455 H1443 0.930 . S
C1455 C1456 1.399 . S
C1455 C1460 1.399 . S
C1456 C1455 1.399 . S
C1456 C1457 1.376 . S
C1457 H1444 0.930 . S
C1457 C1456 1.376 . S
C1457 C1458 1.388 . S
C1458 H1445 0.930 . S
C1458 C1457 1.388 . S
C1458 C1459 1.390 . S
C1459 C1458 1.390 . S
C1459 C1460 1.394 . S
C1459 C1465 1.465 1_655 S
C1460 C1455 1.399 . S
C1460 C1459 1.394 . S
C1460 C1461 1.516 1_655 S
C1461 C1460 1.516 1_455 S
C1461 C1462 1.502 . S
C1461 C1463 1.561 . S
C1461 C1464 1.526 . S
C1462 H1446 0.959 . S
C1462 H1447 0.959 . S
C1462 H1448 0.961 . S
C1462 C1461 1.502 . S
C1463 H1449 0.960 . S
C1463 H1450 0.961 . S
C1463 H1451 0.959 . S
C1463 C1461 1.561 . S
C1464 C1461 1.526 . S
C1464 C1465 1.396 . S
C1464 C1469 1.390 . S
C1465 C1459 1.465 1_455 S
C1465 C1464 1.396 . S
C1465 C1466 1.399 . S
C1466 H1452 0.945 . S
C1466 C1465 1.399 . S
C1466 C1467 1.385 . S
C1467 H1453 0.931 . S
C1467 C1466 1.385 . S
C1467 C1468 1.389 . S
C1468 C1467 1.389 . S
C1468 C1469 1.387 . S
C1469 H1454 0.930 . S
C1469 C1464 1.390 . S
C1469 C1468 1.387 . S
H1470 C1482 0.930 . S
H1471 C1484 0.930 . S
H1472 C1485 0.930 . S
H1473 C1489 0.959 . S
H1474 C1489 0.959 . S
H1475 C1489 0.961 . S
H1476 C1490 0.960 . S
H1477 C1490 0.961 . S
H1478 C1490 0.959 . S
H1479 C1493 0.929 . S
H1480 C1494 0.931 . S
H1481 C1496 0.930 . S
C1482 H1470 0.930 . S
C1482 C1483 1.399 . S
C1482 C1487 1.399 . S
C1483 C1482 1.399 . S
C1483 C1484 1.376 . S
C1484 H1471 0.930 . S
C1484 C1483 1.376 . S
C1484 C1485 1.388 . S
C1485 H1472 0.930 . S
C1485 C1484 1.388 . S
C1485 C1486 1.390 . S
C1486 C1485 1.390 . S
C1486 C1487 1.394 . S
C1486 C1492 1.465 1_455 S
C1487 C1482 1.399 . S
C1487 C1486 1.394 . S
C1487 C1488 1.516 . S
C1488 C1487 1.516 . S
C1488 C1489 1.502 . S
C1488 C1490 1.561 . S
C1488 C1491 1.526 1_455 S
C1489 H1473 0.959 . S
C1489 H1474 0.959 . S
C1489 H1475 0.961 . S
C1489 C1488 1.502 . S
C1490 H1476 0.960 . S
C1490 H1477 0.961 . S
C1490 H1478 0.959 . S
C1490 C1488 1.561 . S
C1491 C1488 1.526 1_655 S
C1491 C1492 1.396 . S
C1491 C1496 1.390 . S
C1492 C1486 1.465 1_655 S
C1492 C1491 1.396 . S
C1492 C1493 1.399 . S
C1493 H1479 0.929 . S
C1493 C1492 1.399 . S
C1493 C1494 1.385 . S
C1494 H1480 0.931 . S
C1494 C1493 1.385 . S
C1494 C1495 1.389 . S
C1495 C1494 1.389 . S
C1495 C1496 1.387 . S
C1496 H1481 0.930 . S
C1496 C1491 1.390 . S
C1496 C1495 1.387 . S
H1497 C1509 0.930 . S
H1498 C1511 0.930 . S
H1499 C1512 0.930 . S
H1500 C1516 0.959 . S
H1501 C1516 0.959 . S
H1502 C1516 0.961 . S
H1503 C1517 0.960 . S
H1504 C1517 0.961 . S
H1505 C1517 0.959 . S
H1506 C1520 0.929 . S
H1507 C1521 0.931 . S
H1508 C1523 0.930 . S
C1509 H1497 0.930 . S
C1509 C1510 1.399 . S
C1509 C1514 1.399 . S
C1510 C1509 1.399 . S
C1510 C1511 1.376 . S
C1511 H1498 0.930 . S
C1511 C1510 1.376 . S
C1511 C1512 1.388 . S
C1512 H1499 0.930 . S
C1512 C1511 1.388 . S
C1512 C1513 1.390 . S
C1513 C1512 1.390 . S
C1513 C1514 1.394 . S
C1513 C1519 1.465 . S
C1514 C1509 1.399 . S
C1514 C1513 1.394 . S
C1514 C1515 1.516 . S
C1515 C1514 1.516 . S
C1515 C1516 1.502 . S
C1515 C1517 1.561 . S
C1515 C1518 1.526 . S
C1516 H1500 0.959 . S
C1516 H1501 0.959 . S
C1516 H1502 0.961 . S
C1516 C1515 1.502 . S
C1517 H1503 0.960 . S
C1517 H1504 0.961 . S
C1517 H1505 0.959 . S
C1517 C1515 1.561 . S
C1518 C1515 1.526 . S
C1518 C1519 1.396 . S
C1518 C1523 1.390 . S
C1519 C1513 1.465 . S
C1519 C1518 1.396 . S
C1519 C1520 1.399 . S
C1520 H1506 0.929 . S
C1520 C1519 1.399 . S
C1520 C1521 1.385 . S
C1521 H1507 0.931 . S
C1521 C1520 1.385 . S
C1521 C1522 1.389 . S
C1522 C1521 1.389 . S
C1522 C1523 1.387 . S
C1523 H1508 0.930 . S
C1523 C1518 1.390 . S
C1523 C1522 1.387 . S
H1524 C1536 0.930 . S
H1525 C1538 0.930 . S
H1526 C1539 0.930 . S
H1527 C1543 0.959 . S
H1528 C1543 0.959 . S
H1529 C1543 0.961 . S
H1530 C1544 0.960 . S
H1531 C1544 0.961 . S
H1532 C1544 0.959 . S
H1533 C1547 0.929 . S
H1534 C1548 0.931 . S
H1535 C1550 0.930 . S
C1536 H1524 0.930 . S
C1536 C1537 1.399 . S
C1536 C1541 1.399 . S
C1537 C1536 1.399 . S
C1537 C1538 1.376 . S
C1538 H1525 0.930 . S
C1538 C1537 1.376 . S
C1538 C1539 1.388 . S
C1539 H1526 0.930 . S
C1539 C1538 1.388 . S
C1539 C1540 1.390 . S
C1540 C1539 1.390 . S
C1540 C1541 1.394 . S
C1540 C1546 1.465 . S
C1541 C1536 1.399 . S
C1541 C1540 1.394 . S
C1541 C1542 1.516 . S
C1542 C1541 1.516 . S
C1542 C1543 1.502 . S
C1542 C1544 1.561 . S
C1542 C1545 1.526 . S
C1543 H1527 0.959 . S
C1543 H1528 0.959 . S
C1543 H1529 0.961 . S
C1543 C1542 1.502 . S
C1544 H1530 0.960 . S
C1544 H1531 0.961 . S
C1544 H1532 0.959 . S
C1544 C1542 1.561 . S
C1545 C1542 1.526 . S
C1545 C1546 1.396 . S
C1545 C1550 1.390 . S
C1546 C1540 1.465 . S
C1546 C1545 1.396 . S
C1546 C1547 1.399 . S
C1547 H1533 0.929 . S
C1547 C1546 1.399 . S
C1547 C1548 1.385 . S
C1548 H1534 0.931 . S
C1548 C1547 1.385 . S
C1548 C1549 1.389 . S
C1549 C1548 1.389 . S
C1549 C1550 1.387 . S
C1550 H1535 0.930 . S
C1550 C1545 1.390 . S
C1550 C1549 1.387 . S
H1551 C1563 0.930 . S
H1552 C1565 0.930 . S
H1553 C1566 0.930 . S
H1554 C1570 0.970 . S
H1555 C1570 0.981 . S
H1556 C1570 0.961 . S
H1557 C1571 0.960 . S
H1558 C1571 0.961 . S
H1559 C1571 0.959 . S
H1560 C1574 0.929 . S
H1561 C1575 0.931 . S
H1562 C1577 0.930 . S
C1563 H1551 0.930 . S
C1563 C1564 1.399 . S
C1563 C1568 1.399 . S
C1564 C1563 1.399 . S
C1564 C1565 1.376 . S
C1565 H1552 0.930 . S
C1565 C1564 1.376 . S
C1565 C1566 1.388 . S
C1566 H1553 0.930 . S
C1566 C1565 1.388 . S
C1566 C1567 1.390 . S
C1567 C1566 1.390 . S
C1567 C1568 1.394 . S
C1567 C1573 1.465 1_565 S
C1568 C1563 1.399 . S
C1568 C1567 1.394 . S
C1568 C1569 1.516 . S
C1569 C1568 1.516 . S
C1569 C1570 1.502 . S
C1569 C1571 1.561 . S
C1569 C1572 1.526 1_565 S
C1570 H1554 0.970 . S
C1570 H1555 0.981 . S
C1570 H1556 0.961 . S
C1570 C1569 1.502 . S
C1571 H1557 0.960 . S
C1571 H1558 0.961 . S
C1571 H1559 0.959 . S
C1571 C1569 1.561 . S
C1572 C1569 1.526 1_545 S
C1572 C1573 1.396 . S
C1572 C1577 1.390 . S
C1573 C1567 1.465 1_545 S
C1573 C1572 1.396 . S
C1573 C1574 1.399 . S
C1574 H1560 0.929 . S
C1574 C1573 1.399 . S
C1574 C1575 1.385 . S
C1575 H1561 0.931 . S
C1575 C1574 1.385 . S
C1575 C1576 1.389 . S
C1576 C1575 1.389 . S
C1576 C1577 1.387 . S
C1577 H1562 0.930 . S
C1577 C1572 1.390 . S
C1577 C1576 1.387 . S
H1578 C1590 0.930 . S
H1579 C1592 0.930 . S
H1580 C1593 0.930 . S
H1581 C1597 0.959 . S
H1582 C1597 0.959 . S
H1583 C1597 0.961 . S
H1584 C1598 0.960 1_565 S
H1585 C1598 0.961 . S
H1586 C1598 0.959 . S
H1587 C1601 0.929 . S
H1588 C1602 0.931 . S
H1589 C1604 0.930 . S
C1590 H1578 0.930 . S
C1590 C1591 1.399 . S
C1590 C1595 1.399 . S
C1591 C1590 1.399 . S
C1591 C1592 1.376 . S
C1592 H1579 0.930 . S
C1592 C1591 1.376 . S
C1592 C1593 1.388 . S
C1593 H1580 0.930 . S
C1593 C1592 1.388 . S
C1593 C1594 1.390 . S
C1594 C1593 1.390 . S
C1594 C1595 1.394 . S
C1594 C1600 1.465 1_565 S
C1595 C1590 1.399 . S
C1595 C1594 1.394 . S
C1595 C1596 1.516 . S
C1596 C1595 1.516 . S
C1596 C1597 1.502 . S
C1596 C1598 1.561 1_565 S
C1596 C1599 1.526 1_565 S
C1597 H1581 0.959 . S
C1597 H1582 0.959 . S
C1597 H1583 0.961 . S
C1597 C1596 1.502 . S
C1598 H1584 0.960 1_545 S
C1598 H1585 0.961 . S
C1598 H1586 0.959 . S
C1598 C1596 1.561 1_545 S
C1599 C1596 1.526 1_545 S
C1599 C1600 1.396 . S
C1599 C1604 1.390 . S
C1600 C1594 1.465 1_545 S
C1600 C1599 1.396 . S
C1600 C1601 1.399 . S
C1601 H1587 0.929 . S
C1601 C1600 1.399 . S
C1601 C1602 1.385 . S
C1602 H1588 0.931 . S
C1602 C1601 1.385 . S
C1602 C1603 1.389 . S
C1603 C1602 1.389 . S
C1603 C1604 1.387 . S
C1604 H1589 0.930 . S
C1604 C1599 1.390 . S
C1604 C1603 1.387 . S
H1605 C1617 0.930 . S
H1606 C1619 0.930 . S
H1607 C1620 0.930 . S
H1608 C1624 0.959 . S
H1609 C1624 0.959 . S
H1610 C1624 0.961 . S
H1611 C1625 0.960 . S
H1612 C1625 0.961 . S
H1613 C1625 0.959 . S
H1614 C1628 0.929 . S
H1615 C1629 0.931 . S
H1616 C1631 0.930 . S
C1617 H1605 0.930 . S
C1617 C1618 1.399 . S
C1617 C1622 1.399 . S
C1618 C1617 1.399 . S
C1618 C1619 1.376 . S
C1619 H1606 0.930 . S
C1619 C1618 1.376 . S
C1619 C1620 1.388 . S
C1620 H1607 0.930 . S
C1620 C1619 1.388 . S
C1620 C1621 1.390 . S
C1621 C1620 1.390 . S
C1621 C1622 1.394 . S
C1621 C1627 1.465 . S
C1622 C1617 1.399 . S
C1622 C1621 1.394 . S
C1622 C1623 1.516 . S
C1623 C1622 1.516 . S
C1623 C1624 1.502 . S
C1623 C1625 1.561 . S
C1623 C1626 1.526 . S
C1624 H1608 0.959 . S
C1624 H1609 0.959 . S
C1624 H1610 0.961 . S
C1624 C1623 1.502 . S
C1625 H1611 0.960 . S
C1625 H1612 0.961 . S
C1625 H1613 0.959 . S
C1625 C1623 1.561 . S
C1626 C1623 1.526 . S
C1626 C1627 1.396 . S
C1626 C1631 1.390 . S
C1627 C1621 1.465 . S
C1627 C1626 1.396 . S
C1627 C1628 1.399 . S
C1628 H1614 0.929 . S
C1628 C1627 1.399 . S
C1628 C1629 1.385 . S
C1629 H1615 0.931 . S
C1629 C1628 1.385 . S
C1629 C1630 1.389 . S
C1630 C1629 1.389 . S
C1630 C1631 1.387 . S
C1631 H1616 0.930 . S
C1631 C1626 1.390 . S
C1631 C1630 1.387 . S
C349 C121 1.275 . S
C361 C8 1.172 . S
C376 C22 1.257 . S
C388 C163 1.241 . S
C403 C36 1.173 . S
C415 C135 1.259 . S
C430 C50 1.228 . S
C442 C149 1.259 . S
C457 C64 1.197 . S
C469 C9 1.270 . S
C484 C23 1.230 . S
C496 C78 1.246 . S
C511 C92 1.225 . S
C523 C37 1.260 . S
C538 C51 1.252 . S
C550 C106 1.240 . S
C565 C65 1.272 . S
C577 C120 1.194 . S
C592 C93 1.237 . S
C604 C134 1.260 . S
C619 C148 1.166 . S
C631 C107 1.274 . S
C646 C79 1.250 . S
C658 C162 1.244 . S
C673 C289 1.268 . S
C685 C176 1.168 . S
C700 C190 1.169 . S
C712 C331 1.269 . S
C727 C204 1.244 . S
C739 C303 1.231 . S
C754 C317 1.259 . S
C766 C218 1.252 . S
C781 C232 1.164 . S
C793 C177 1.255 . S
C808 C191 1.231 . S
C820 C246 1.210 . S
C835 C205 1.231 . S
C847 C260 1.212 . S
C862 C274 1.177 . S
C874 C219 1.244 . S
C889 C288 1.172 . S
C901 C233 1.271 . S
C916 C261 1.229 . S
C928 C302 1.222 . S
C943 C275 1.275 . S
C955 C316 1.199 . S
C970 C330 1.230 . S
C982 C247 1.270 . S
C997 C314 1.538 . S
C1009 C7 1.536 . S
C1024 C300 1.461 . S
C1036 C21 1.556 . S
C1051 C328 1.538 . S
C1063 C35 1.550 . S
C1078 C49 1.544 . S
C1090 C286 1.458 . S
C1105 C63 1.568 . S
C1117 C188 1.488 . S
C1132 C174 1.493 . S
C1144 C77 1.568 . S
C1159 C216 1.494 . S
C1171 C91 1.520 . S
C1186 C202 1.457 . S
C1198 C105 1.540 . S
C1213 C119 1.519 . S
C1225 C258 1.504 . S
C1240 C230 1.496 . S
C1252 C133 1.519 . S
C1267 C244 1.500 . S
C1279 C147 1.519 . S
C1294 C272 1.508 . S
C1306 C161 1.567 . S
C1321 C146 1.531 . S
C1333 C175 1.520 . S
C1348 C132 1.540 . S
C1360 C189 1.531 . S
C1375 C203 1.529 . S
C1387 C160 1.539 . S
C1402 C118 1.506 . S
C1414 C217 1.560 . S
C1429 C231 1.527 . S
C1441 C20 1.539 . S
C1456 C245 1.519 . S
C1468 C6 1.527 . S
C1483 C259 1.568 . S
C1495 C48 1.481 . S
C1510 C273 1.553 . S
C1522 C34 1.520 . S
C1537 C287 1.522 . S
C1549 C90 1.505 . S
C1564 C301 1.567 . S
C1576 C62 1.486 . S
C1591 C76 1.531 . S
C1603 C315 1.520 . S
C1618 C329 1.519 . S
C1630 C104 1.523 . S
