# Generated by pormake.
# Topology fee, (5)-cn, num edge types: 1
# Building blocks:
#     Node 0, Type 0, BuildingBlock: BEQFEK_clean_sbu_0, # of connection points: 5
#     Node 1, Type 0, BuildingBlock: BEQFEK_clean_sbu_0, # of connection points: 5
#     Node 2, Type 0, BuildingBlock: BEQFEK_clean_sbu_0, # of connection points: 5
#     Node 3, Type 0, BuildingBlock: BEQFEK_clean_sbu_0, # of connection points: 5
#     Edge 4, Type (0, 0), BuildingBlock: XUDNAN_clean_linker_2, # of connection points: 2
#     Edge 5, Type (0, 0), BuildingBlock: XUDNAN_clean_linker_2, # of connection points: 2
#     Edge 6, Type (0, 0), BuildingBlock: XUDNAN_clean_linker_2, # of connection points: 2
#     Edge 7, Type (0, 0), BuildingBlock: XUDNAN_clean_linker_2, # of connection points: 2
#     Edge 8, Type (0, 0), BuildingBlock: XUDNAN_clean_linker_2, # of connection points: 2
#     Edge 9, Type (0, 0), BuildingBlock: XUDNAN_clean_linker_2, # of connection points: 2
#     Edge 10, Type (0, 0), BuildingBlock: XUDNAN_clean_linker_2, # of connection points: 2
#     Edge 11, Type (0, 0), BuildingBlock: XUDNAN_clean_linker_2, # of connection points: 2
#     Edge 12, Type (0, 0), BuildingBlock: XUDNAN_clean_linker_2, # of connection points: 2
#     Edge 13, Type (0, 0), BuildingBlock: XUDNAN_clean_linker_2, # of connection points: 2
# Relax obj value: 0.038
# Max RMSD: 0.131
# Mean RMSD: 0.102
data_MOF--net-fee--node1-BEQFEK_clean_sbu_0--edge1-XUDNAN_clean_linker_2
_symmetry_space_group_name_H-M    P1
_symmetry_Int_Tables_number       1
_symmetry_cell_setting            triclinic
loop_
_symmetry_equiv_pos_as_xyz
'x, y, z'
_cell_length_a     38.130964
_cell_length_b     38.009129
_cell_length_c     19.527984
_cell_angle_alpha  89.795574
_cell_angle_beta   88.074986
_cell_angle_gamma 95.82979
loop_
_atom_site_label
_atom_site_type_symbol
_atom_site_fract_x
_atom_site_fract_y
_atom_site_fract_z
_atom_type_partial_charge
Co0 Co 0.23385 0.49217 0.15572 0.0
Co1 Co 0.22253 0.49499 0.99786 0.0
C2 C 0.2684 0.55148 0.0646 0.0
O3 O 0.26294 0.53602 0.12256 0.0
O4 O 0.25389 0.53876 0.01107 0.0
C5 C 0.22279 0.51677 0.29347 0.0
O6 O 0.2053 0.54073 0.26514 0.0
C7 C 0.22175 0.50971 0.84968 0.0
C8 C 0.18552 0.46493 0.81426 0.0
C9 C 0.20706 0.49442 0.79162 0.0
N10 N 0.2091 0.49043 0.90457 0.0
N11 N 0.18758 0.4636 0.8829 0.0
C12 C 0.24781 0.54176 0.85298 0.0
H13 H 0.23679 0.56136 0.88731 0.0
H14 H 0.25382 0.55401 0.80173 0.0
H15 H 0.27248 0.53439 0.87519 0.0
C16 C 0.1544 0.48503 0.15642 0.0
N17 N 0.18657 0.48999 0.12455 0.0
N18 N 0.18239 0.49406 0.05833 0.0
C19 C 0.14772 0.49364 0.04679 0.0
C20 C 0.12895 0.48756 0.10811 0.0
C21 C 0.14778 0.47498 0.23018 0.0
H22 H 0.17026 0.46213 0.24998 0.0
H23 H 0.14422 0.49909 0.26039 0.0
H24 H 0.12319 0.4568 0.23674 0.0
O25 O 0.2568 0.45023 0.12524 0.0
O26 O 0.24888 0.4535 0.01367 0.0
H27 H 0.12557 0.47376 0.95381 0.0
H28 H 0.10755 0.51247 0.98549 0.0
C29 C 0.13231 0.49961 0.97876 0.0
H30 H 0.15123 0.51651 0.94544 0.0
H31 H 0.17526 0.44363 0.91477 0.0
O32 O 0.23574 0.49352 0.2566 0.0
C33 C 0.26079 0.43838 0.06495 0.0
Co34 Co 0.47387 0.22399 0.15519 0.0
Co35 Co 0.48752 0.2229 0.99385 0.0
C36 C 0.42766 0.25846 0.06012 0.0
O37 O 0.43562 0.25051 0.12073 0.0
O38 O 0.44539 0.24914 0.00795 0.0
C39 C 0.4405 0.22347 0.29172 0.0
O40 O 0.41372 0.23417 0.25964 0.0
C41 C 0.46934 0.21131 0.84947 0.0
C42 C 0.5216 0.21746 0.79636 0.0
C43 C 0.48577 0.21248 0.78437 0.0
N44 N 0.49424 0.21604 0.89677 0.0
N45 N 0.52544 0.21939 0.86462 0.0
C46 C 0.43085 0.20418 0.86762 0.0
H47 H 0.42691 0.19347 0.92059 0.0
H48 H 0.41775 0.18521 0.83109 0.0
H49 H 0.41848 0.22927 0.86528 0.0
C50 C 0.47206 0.14692 0.13542 0.0
N51 N 0.47499 0.18007 0.11003 0.0
N52 N 0.48133 0.1792 0.04333 0.0
C53 C 0.48269 0.14527 0.02423 0.0
C54 C 0.47672 0.12367 0.08199 0.0
C55 C 0.4676 0.1383 0.2103 0.0
H56 H 0.48827 0.15431 0.23859 0.0
H57 H 0.44158 0.14556 0.22944 0.0
H58 H 0.46955 0.10993 0.22105 0.0
O59 O 0.51944 0.25264 0.13873 0.0
O60 O 0.5297 0.25303 0.02599 0.0
H61 H 0.51465 0.14674 0.93201 0.0
H62 H 0.4883 0.10485 0.94748 0.0
C63 C 0.48883 0.13397 0.95186 0.0
H64 H 0.46811 0.14305 0.91958 0.0
H65 H 0.54936 0.22396 0.88917 0.0
O66 O 0.46801 0.21718 0.25709 0.0
C67 C 0.53866 0.26235 0.0861 0.0
Co68 Co 0.77911 0.50534 0.01509 0.0
Co69 Co 0.77454 0.50971 0.17495 0.0
C70 C 0.74929 0.56614 0.09192 0.0
O71 O 0.75773 0.54928 0.03858 0.0
O72 O 0.75416 0.55455 0.15196 0.0
C73 C 0.77587 0.52432 0.873 0.0
O74 O 0.74877 0.54079 0.89349 0.0
C75 C 0.78387 0.52324 0.3241 0.0
C76 C 0.78448 0.46789 0.35922 0.0
C77 C 0.78833 0.50252 0.38111 0.0
N78 N 0.77803 0.50159 0.27041 0.0
N79 N 0.77787 0.4686 0.29222 0.0
C80 C 0.78813 0.5627 0.31953 0.0
H81 H 0.79413 0.57152 0.26579 0.0
H82 H 0.80936 0.57375 0.35319 0.0
H83 H 0.76315 0.57284 0.33743 0.0
C84 C 0.85375 0.49775 0.04353 0.0
N85 N 0.82074 0.50324 0.0643 0.0
N86 N 0.81951 0.50698 0.13124 0.0
C87 C 0.85196 0.50431 0.15519 0.0
C88 C 0.87466 0.49817 0.1004 0.0
C89 C 0.86485 0.49244 0.97037 0.0
H90 H 0.86007 0.5161 0.93999 0.0
H91 H 0.89317 0.48831 0.96471 0.0
H92 H 0.8485 0.4694 0.94942 0.0
O93 O 0.74479 0.4631 0.03419 0.0
O94 O 0.74208 0.46901 0.14691 0.0
H95 H 0.88906 0.50546 0.2373 0.0
H96 H 0.85011 0.52776 0.25449 0.0
C97 C 0.86034 0.50456 0.22952 0.0
H98 H 0.84725 0.48023 0.25444 0.0
H99 H 0.77465 0.44653 0.26057 0.0
O100 O 0.79177 0.50723 0.91627 0.0
C101 C 0.73255 0.45257 0.09299 0.0
Co102 Co 0.52452 0.77068 0.15581 0.0
Co103 Co 0.52725 0.7801 0.99511 0.0
C104 C 0.58145 0.74313 0.06464 0.0
O105 O 0.56636 0.74732 0.12277 0.0
O106 O 0.5695 0.75498 0.00993 0.0
C107 C 0.54054 0.74992 0.29029 0.0
O108 O 0.55139 0.72301 0.25649 0.0
C109 C 0.5453 0.78576 0.84664 0.0
C110 C 0.49444 0.79775 0.80604 0.0
C111 C 0.528 0.79008 0.78592 0.0
N112 N 0.52277 0.79013 0.89972 0.0
N113 N 0.49253 0.79758 0.87495 0.0
C114 C 0.58263 0.77807 0.85474 0.0
H115 H 0.59358 0.79182 0.90053 0.0
H116 H 0.59925 0.78673 0.8088 0.0
H117 H 0.58325 0.7492 0.86242 0.0
C118 C 0.52039 0.84814 0.14615 0.0
N119 N 0.5252 0.8169 0.11687 0.0
N120 N 0.52765 0.82118 0.04985 0.0
C121 C 0.52499 0.85539 0.03447 0.0
C122 C 0.51996 0.87362 0.09501 0.0
C123 C 0.51471 0.85293 0.22161 0.0
H124 H 0.53706 0.84349 0.2489 0.0
H125 H 0.51264 0.88103 0.23484 0.0
H126 H 0.49031 0.83654 0.23929 0.0
O127 O 0.4804 0.74111 0.1322 0.0
O128 O 0.48427 0.74862 0.01937 0.0
H129 H 0.49582 0.86175 0.9447 0.0
H130 H 0.52802 0.89838 0.9605 0.0
C131 C 0.52275 0.8692 0.96303 0.0
H132 H 0.54194 0.85731 0.92854 0.0
H133 H 0.47007 0.8011 0.90514 0.0
O134 O 0.52696 0.77382 0.25748 0.0
C135 C 0.46816 0.73529 0.07293 0.0
H136 H 0.16394 0.50913 0.68891 0.0
H137 H 0.2726 0.49639 0.73271 0.0
H138 H 0.28918 0.50396 0.60954 0.0
H139 H 0.15993 0.46309 0.53377 0.0
H140 H 0.1334 0.49246 0.49092 0.0
H141 H 0.1304 0.48824 0.58281 0.0
H142 H 0.14545 0.55592 0.59464 0.0
H143 H 0.14829 0.56041 0.50266 0.0
H144 H 0.18501 0.57713 0.55306 0.0
H145 H 0.29229 0.50548 0.48177 0.0
H146 H 0.28324 0.50752 0.35704 0.0
H147 H 0.17375 0.52483 0.39597 0.0
C148 C 0.19127 0.50859 0.67232 0.0
C149 C 0.21718 0.50256 0.71961 0.0
C150 C 0.25263 0.50155 0.69684 0.0
C151 C 0.2622 0.50569 0.62719 0.0
C152 C 0.23602 0.51135 0.5815 0.0
C153 C 0.2014 0.51347 0.60312 0.0
C154 C 0.1784 0.51939 0.54319 0.0
C155 C 0.14879 0.48897 0.53735 0.0
C156 C 0.16341 0.55536 0.54873 0.0
C157 C 0.20529 0.51914 0.48437 0.0
C158 C 0.23831 0.51424 0.50767 0.0
C159 C 0.26679 0.51011 0.46289 0.0
C160 C 0.26139 0.51113 0.39237 0.0
C161 C 0.22801 0.51686 0.36759 0.0
C162 C 0.19971 0.52126 0.41405 0.0
H163 H 0.51564 0.19253 0.66284 0.0
H164 H 0.4221 0.23504 0.74725 0.0
H165 H 0.39879 0.23763 0.63212 0.0
H166 H 0.52501 0.24864 0.51742 0.0
H167 H 0.54041 0.21607 0.45998 0.0
H168 H 0.5482 0.21347 0.55018 0.0
H169 H 0.5173 0.14952 0.55452 0.0
H170 H 0.50951 0.15189 0.46418 0.0
H171 H 0.47311 0.14091 0.52432 0.0
H172 H 0.38677 0.23904 0.50671 0.0
H173 H 0.38792 0.2407 0.3804 0.0
H174 H 0.4904 0.20011 0.37534 0.0
C175 C 0.48995 0.20181 0.65734 0.0
C176 C 0.4702 0.21218 0.71526 0.0
C177 C 0.43712 0.22506 0.70515 0.0
C178 C 0.42376 0.22715 0.63933 0.0
C179 C 0.44389 0.21667 0.58364 0.0
C180 C 0.47634 0.20435 0.59184 0.0
C181 C 0.49369 0.19694 0.52301 0.0
C182 C 0.5289 0.22017 0.51202 0.0
C183 C 0.49869 0.15747 0.51612 0.0
C184 C 0.46614 0.20758 0.47485 0.0
C185 C 0.43748 0.21855 0.51097 0.0
C186 C 0.409 0.23034 0.47788 0.0
C187 C 0.40992 0.23118 0.40599 0.0
C188 C 0.43923 0.22056 0.36769 0.0
C189 C 0.46756 0.20836 0.40295 0.0
H190 H 0.74342 0.55116 0.76371 0.0
H191 H 0.83473 0.49858 0.81751 0.0
H192 H 0.85281 0.4964 0.69558 0.0
H193 H 0.7223 0.50054 0.62197 0.0
H194 H 0.70849 0.53577 0.5705 0.0
H195 H 0.70558 0.53833 0.66237 0.0
H196 H 0.74365 0.59885 0.65748 0.0
H197 H 0.74679 0.59637 0.56531 0.0
H198 H 0.7863 0.60248 0.61387 0.0
H199 H 0.85668 0.49215 0.5698 0.0
H200 H 0.84519 0.48498 0.44672 0.0
H201 H 0.75251 0.5414 0.47182 0.0
C202 C 0.76762 0.53988 0.74992 0.0
C203 C 0.78772 0.52514 0.80016 0.0
C204 C 0.81891 0.51009 0.77999 0.0
C205 C 0.82956 0.50894 0.71085 0.0
C206 C 0.8089 0.52319 0.66251 0.0
C207 C 0.77863 0.53848 0.68097 0.0
C208 C 0.75938 0.54867 0.61836 0.0
C209 C 0.72173 0.52968 0.61832 0.0
C210 C 0.75902 0.58899 0.61348 0.0
C211 C 0.78269 0.5352 0.56199 0.0
C212 C 0.81146 0.52117 0.58874 0.0
C213 C 0.83482 0.50382 0.54796 0.0
C214 C 0.8281 0.49983 0.47833 0.0
C215 C 0.79845 0.5133 0.45033 0.0
C216 C 0.77599 0.532 0.49208 0.0
H217 H 0.50926 0.82211 0.66919 0.0
H218 H 0.56892 0.73866 0.74063 0.0
H219 H 0.58178 0.7223 0.62138 0.0
H220 H 0.46827 0.77315 0.53692 0.0
H221 H 0.4694 0.80954 0.47718 0.0
H222 H 0.46829 0.81778 0.56789 0.0
H223 H 0.52529 0.86089 0.5543 0.0
H224 H 0.52642 0.85301 0.46333 0.0
H225 H 0.56407 0.84593 0.51314 0.0
H226 H 0.58379 0.71137 0.49532 0.0
H227 H 0.57643 0.70784 0.37054 0.0
H228 H 0.51466 0.79774 0.37963 0.0
C229 C 0.52571 0.80092 0.65961 0.0
C230 C 0.53913 0.78254 0.71444 0.0
C231 C 0.55972 0.75432 0.69987 0.0
C232 C 0.5668 0.74447 0.63208 0.0
C233 C 0.55295 0.76296 0.57934 0.0
C234 C 0.53299 0.79073 0.5922 0.0
C235 C 0.51955 0.80489 0.52637 0.0
C236 C 0.47897 0.8011 0.52717 0.0
C237 C 0.53475 0.84347 0.51354 0.0
C238 C 0.53452 0.78029 0.47468 0.0
C239 C 0.5538 0.7564 0.50637 0.0
C240 C 0.56905 0.73015 0.46982 0.0
C241 C 0.56458 0.72828 0.39894 0.0
C242 C 0.545 0.75253 0.3652 0.0
C243 C 0.52995 0.77896 0.4038 0.0
H244 H 0.93215 0.53838 0.14851 0.0
H245 H 0.8991 0.43702 0.05797 0.0
H246 H 0.96038 0.42101 0.06031 0.0
H247 H 0.01385 0.55366 0.05664 0.0
H248 H 0.03756 0.57414 0.12681 0.0
H249 H 0.9908 0.57646 0.12223 0.0
H250 H 0.98147 0.54867 0.24372 0.0
H251 H 0.02827 0.54609 0.24847 0.0
H252 H 0.99795 0.50685 0.26107 0.0
H253 H 0.02523 0.41771 0.06517 0.0
H254 H 0.09028 0.42799 0.06947 0.0
H255 H 0.08165 0.53082 0.15946 0.0
C256 C 0.93792 0.51269 0.13005 0.0
C257 C 0.91121 0.48879 0.10317 0.0
C258 C 0.91946 0.45559 0.0785 0.0
C259 C 0.95404 0.44625 0.08004 0.0
C260 C 0.97992 0.47039 0.10678 0.0
C261 C 0.97234 0.50294 0.13134 0.0
C262 C 0.00539 0.52468 0.15415 0.0
C263 C 0.0123 0.55927 0.11245 0.0
C264 C 0.00312 0.532 0.23146 0.0
C265 C 0.03283 0.49958 0.13722 0.0
C266 C 0.01746 0.46828 0.1105 0.0
C267 C 0.03752 0.44182 0.08705 0.0
C268 C 0.0743 0.44778 0.08983 0.0
C269 C 0.09046 0.47976 0.1161 0.0
C270 C 0.06957 0.50577 0.14097 0.0
H271 H 0.55477 0.93676 0.05159 0.0
H272 H 0.45802 0.89028 0.15253 0.0
H273 H 0.43598 0.94926 0.15887 0.0
H274 H 0.56237 0.01856 0.14656 0.0
H275 H 0.57895 0.04518 0.07367 0.0
H276 H 0.58724 0.99944 0.07859 0.0
H277 H 0.55908 0.98813 0.96069 0.0
H278 H 0.55046 0.03379 0.95564 0.0
H279 H 0.51484 0.99917 0.94831 0.0
H280 H 0.42408 0.01282 0.15207 0.0
H281 H 0.42406 0.0775 0.13662 0.0
H282 H 0.52836 0.08282 0.03957 0.0
C283 C 0.52899 0.93918 0.07507 0.0
C284 C 0.50801 0.90924 0.10178 0.0
C285 C 0.47451 0.91313 0.13245 0.0
C286 C 0.46175 0.94641 0.13589 0.0
C287 C 0.48286 0.97543 0.10831 0.0
C288 C 0.51584 0.97222 0.07876 0.0
C289 C 0.53316 0.00763 0.05283 0.0
C290 C 0.56746 0.01833 0.09016 0.0
C291 C 0.53977 0.00714 0.97473 0.0
C292 C 0.5048 0.03124 0.07249 0.0
C293 C 0.47597 0.0121 0.10426 0.0
C294 C 0.44651 0.0281 0.12735 0.0
C295 C 0.4467 0.06472 0.11841 0.0
C296 C 0.47612 0.08483 0.08684 0.0
C297 C 0.5054 0.06784 0.0632 0.0
H298 H 0.3937 0.29699 0.1562 0.0
H299 H 0.39572 0.2704 0.94017 0.0
H300 H 0.34978 0.30994 0.92039 0.0
H301 H 0.29841 0.30608 0.17394 0.0
H302 H 0.30484 0.34325 0.23084 0.0
H303 H 0.33533 0.30997 0.22968 0.0
H304 H 0.38719 0.35836 0.20524 0.0
H305 H 0.35691 0.39173 0.20607 0.0
H306 H 0.38585 0.3874 0.13236 0.0
H307 H 0.30699 0.35514 0.92187 0.0
H308 H 0.27063 0.40408 0.94403 0.0
H309 H 0.2967 0.4027 0.15889 0.0
C310 C 0.384 0.29895 0.10497 0.0
C311 C 0.39819 0.28029 0.04977 0.0
C312 C 0.38523 0.2842 0.98331 0.0
C313 C 0.35903 0.30658 0.97156 0.0
C314 C 0.34604 0.32498 0.02677 0.0
C315 C 0.35801 0.32145 0.0922 0.0
C316 C 0.34131 0.34612 0.14153 0.0
C317 C 0.31862 0.32509 0.19729 0.0
C318 C 0.3695 0.37246 0.17313 0.0
C319 C 0.31865 0.36452 0.09323 0.0
C320 C 0.32153 0.35161 0.02746 0.0
C321 C 0.30425 0.36529 0.97327 0.0
C322 C 0.2837 0.39318 0.98643 0.0
C323 C 0.2807 0.4073 0.05325 0.0
C324 C 0.29818 0.39238 0.10738 0.0
H325 H 0.69091 0.41819 0.995 0.0
H326 H 0.71707 0.41419 0.20958 0.0
H327 H 0.67378 0.3624 0.22731 0.0
H328 H 0.59903 0.39686 0.02222 0.0
H329 H 0.5929 0.36998 0.94686 0.0
H330 H 0.62838 0.40501 0.94827 0.0
H331 H 0.67331 0.36028 0.91784 0.0
H332 H 0.63791 0.32507 0.91635 0.0
H333 H 0.67466 0.32152 0.97079 0.0
H334 H 0.62569 0.31437 0.22555 0.0
H335 H 0.57392 0.27231 0.20436 0.0
H336 H 0.57728 0.30582 0.99107 0.0
C337 C 0.68785 0.40604 0.04536 0.0
C338 C 0.70747 0.4203 0.10083 0.0
C339 C 0.70233 0.40394 0.16627 0.0
C340 C 0.6779 0.37432 0.17691 0.0
C341 C 0.65868 0.36122 0.12169 0.0
C342 C 0.66323 0.37638 0.05715 0.0
C343 C 0.6374 0.35801 0.00799 0.0
C344 C 0.61298 0.38402 0.97969 0.0
C345 C 0.657 0.34016 0.94979 0.0
C346 C 0.6173 0.33078 0.05557 0.0
C347 C 0.63037 0.33303 0.12069 0.0
C348 C 0.61537 0.31204 0.17464 0.0
C349 C 0.58587 0.2883 0.16208 0.0
C350 C 0.57156 0.28568 0.09605 0.0
C351 C 0.58789 0.30689 0.04186 0.0
H352 H 0.60509 0.70042 0.16342 0.0
H353 H 0.62813 0.73947 0.95584 0.0
H354 H 0.67778 0.70281 0.94587 0.0
H355 H 0.69736 0.69351 0.21037 0.0
H356 H 0.68586 0.65323 0.25859 0.0
H357 H 0.65447 0.68543 0.2525 0.0
H358 H 0.6086 0.63748 0.20521 0.0
H359 H 0.63975 0.60518 0.21115 0.0
H360 H 0.62007 0.61281 0.13048 0.0
H361 H 0.72111 0.65861 0.95415 0.0
H362 H 0.75478 0.6084 0.97872 0.0
H363 H 0.70429 0.59733 0.18134 0.0
C364 C 0.62099 0.70182 0.11631 0.0
C365 C 0.61274 0.72298 0.06043 0.0
C366 C 0.63384 0.72349 0.99928 0.0
C367 C 0.66224 0.70289 0.99326 0.0
C368 C 0.6693 0.68197 0.04889 0.0
C369 C 0.64936 0.68127 0.10931 0.0
C370 C 0.66092 0.65445 0.1594 0.0
C371 C 0.67553 0.67276 0.22404 0.0
C372 C 0.63053 0.62579 0.17759 0.0
C373 C 0.68991 0.63954 0.11696 0.0
C374 C 0.6945 0.65616 0.0537 0.0
C375 C 0.71809 0.64569 0.00377 0.0
C376 C 0.73701 0.61704 0.01821 0.0
C377 C 0.73228 0.59902 0.08207 0.0
C378 C 0.70892 0.61097 0.13258 0.0
H379 H 0.43393 0.686 0.16328 0.0
H380 H 0.42638 0.7339 0.96269 0.0
H381 H 0.37202 0.69516 0.94348 0.0
H382 H 0.40686 0.59863 0.11272 0.0
H383 H 0.38194 0.58619 0.19066 0.0
H384 H 0.41859 0.61995 0.19226 0.0
H385 H 0.37786 0.66364 0.24636 0.0
H386 H 0.34104 0.62995 0.24495 0.0
H387 H 0.33823 0.67211 0.20402 0.0
H388 H 0.32126 0.64933 0.9416 0.0
H389 H 0.27701 0.5979 0.95674 0.0
H390 H 0.31659 0.57839 0.15792 0.0
C391 C 0.42048 0.68869 0.11587 0.0
C392 C 0.43441 0.71305 0.06457 0.0
C393 C 0.41634 0.71538 0.00269 0.0
C394 C 0.38531 0.69361 0.99134 0.0
C395 C 0.37256 0.66955 0.04229 0.0
C396 C 0.38944 0.66687 0.10336 0.0
C397 C 0.37111 0.63714 0.14758 0.0
C398 C 0.39612 0.6088 0.16159 0.0
C399 C 0.35617 0.65158 0.21471 0.0
C400 C 0.34179 0.62325 0.10114 0.0
C401 C 0.34302 0.64261 0.04099 0.0
C402 C 0.31979 0.63409 0.98871 0.0
C403 C 0.2948 0.60469 0.99771 0.0
C404 C 0.29324 0.58402 0.05845 0.0
C405 C 0.31682 0.59384 0.11118 0.0
loop_
_geom_bond_atom_site_label_1
_geom_bond_atom_site_label_2
_geom_bond_distance
_geom_bond_site_symmetry_2
_ccdc_geom_bond_type
Co0 O3 1.970 . S
Co0 N17 1.989 . S
Co0 O25 1.967 . S
Co0 O32 1.920 . S
Co1 O4 1.966 . S
Co1 N10 2.022 1_554 S
Co1 N18 1.993 . S
Co1 O26 1.941 . S
C2 O3 1.258 . S
C2 O4 1.263 . S
O3 Co0 1.970 . S
O3 C2 1.258 . S
O4 Co1 1.966 . S
O4 C2 1.263 . S
C5 O6 1.235 . S
C5 O32 1.289 . S
O6 C5 1.235 . S
C7 C9 1.400 . S
C7 N10 1.351 . S
C7 C12 1.501 . S
C8 C9 1.387 . S
C8 N11 1.341 . S
C9 C7 1.400 . S
C9 C8 1.387 . S
N10 Co1 2.022 1_556 S
N10 C7 1.351 . S
N10 N11 1.365 . S
N11 C8 1.341 . S
N11 N10 1.365 . S
N11 H31 0.862 . S
C12 C7 1.501 . S
C12 H13 0.961 . S
C12 H14 0.961 . S
C12 H15 0.960 . S
H13 C12 0.961 . S
H14 C12 0.961 . S
H15 C12 0.960 . S
C16 N17 1.342 . S
C16 C20 1.401 . S
C16 C21 1.499 . S
N17 Co0 1.989 . S
N17 C16 1.342 . S
N17 N18 1.388 . S
N18 Co1 1.993 . S
N18 N17 1.388 . S
N18 C19 1.346 . S
C19 N18 1.346 . S
C19 C20 1.396 . S
C19 C29 1.510 1_554 S
C20 C16 1.401 . S
C20 C19 1.396 . S
C21 C16 1.499 . S
C21 H22 0.959 . S
C21 H23 0.960 . S
C21 H24 0.961 . S
H22 C21 0.959 . S
H23 C21 0.960 . S
H24 C21 0.961 . S
O25 Co0 1.967 . S
O25 C33 1.258 . S
O26 Co1 1.941 . S
O26 C33 1.266 . S
H27 C29 0.959 . S
H28 C29 0.961 . S
C29 C19 1.510 1_556 S
C29 H27 0.959 . S
C29 H28 0.961 . S
C29 H30 0.960 . S
H30 C29 0.960 . S
H31 N11 0.862 . S
O32 Co0 1.920 . S
O32 C5 1.289 . S
C33 O25 1.258 . S
C33 O26 1.266 . S
Co34 O37 1.970 . S
Co34 N51 1.989 . S
Co34 O59 1.967 . S
Co34 O66 1.920 . S
Co35 O38 1.966 1_556 S
Co35 N44 2.022 . S
Co35 N52 1.993 1_556 S
Co35 O60 1.941 1_556 S
C36 O37 1.258 . S
C36 O38 1.263 . S
O37 Co34 1.970 . S
O37 C36 1.258 . S
O38 Co35 1.966 1_554 S
O38 C36 1.263 . S
C39 O40 1.235 . S
C39 O66 1.289 . S
O40 C39 1.235 . S
C41 C43 1.400 . S
C41 N44 1.351 . S
C41 C46 1.501 . S
C42 C43 1.387 . S
C42 N45 1.341 . S
C43 C41 1.400 . S
C43 C42 1.387 . S
N44 Co35 2.022 . S
N44 C41 1.351 . S
N44 N45 1.365 . S
N45 C42 1.341 . S
N45 N44 1.365 . S
N45 H65 0.862 . S
C46 C41 1.501 . S
C46 H47 0.961 . S
C46 H48 0.961 . S
C46 H49 0.960 . S
H47 C46 0.961 . S
H48 C46 0.961 . S
H49 C46 0.960 . S
C50 N51 1.342 . S
C50 C54 1.401 . S
C50 C55 1.499 . S
N51 Co34 1.989 . S
N51 C50 1.342 . S
N51 N52 1.388 . S
N52 Co35 1.993 1_554 S
N52 N51 1.388 . S
N52 C53 1.346 . S
C53 N52 1.346 . S
C53 C54 1.396 . S
C53 C63 1.510 1_554 S
C54 C50 1.401 . S
C54 C53 1.396 . S
C55 C50 1.499 . S
C55 H56 0.959 . S
C55 H57 0.960 . S
C55 H58 0.961 . S
H56 C55 0.959 . S
H57 C55 0.960 . S
H58 C55 0.961 . S
O59 Co34 1.967 . S
O59 C67 1.258 . S
O60 Co35 1.941 1_554 S
O60 C67 1.266 . S
H61 C63 0.959 . S
H62 C63 0.961 . S
C63 C53 1.510 1_556 S
C63 H61 0.959 . S
C63 H62 0.961 . S
C63 H64 0.960 . S
H64 C63 0.960 . S
H65 N45 0.862 . S
O66 Co34 1.920 . S
O66 C39 1.289 . S
C67 O59 1.258 . S
C67 O60 1.266 . S
Co68 O71 1.970 . S
Co68 N85 1.989 . S
Co68 O93 1.967 . S
Co68 O100 1.920 1_554 S
Co69 O72 1.966 . S
Co69 N78 2.022 . S
Co69 N86 1.993 . S
Co69 O94 1.941 . S
C70 O71 1.258 . S
C70 O72 1.263 . S
O71 Co68 1.970 . S
O71 C70 1.258 . S
O72 Co69 1.966 . S
O72 C70 1.263 . S
C73 O74 1.235 . S
C73 O100 1.289 . S
O74 C73 1.235 . S
C75 C77 1.400 . S
C75 N78 1.351 . S
C75 C80 1.501 . S
C76 C77 1.387 . S
C76 N79 1.341 . S
C77 C75 1.400 . S
C77 C76 1.387 . S
N78 Co69 2.022 . S
N78 C75 1.351 . S
N78 N79 1.365 . S
N79 C76 1.341 . S
N79 N78 1.365 . S
N79 H99 0.862 . S
C80 C75 1.501 . S
C80 H81 0.961 . S
C80 H82 0.961 . S
C80 H83 0.960 . S
H81 C80 0.961 . S
H82 C80 0.961 . S
H83 C80 0.960 . S
C84 N85 1.342 . S
C84 C88 1.401 . S
C84 C89 1.499 1_554 S
N85 Co68 1.989 . S
N85 C84 1.342 . S
N85 N86 1.388 . S
N86 Co69 1.993 . S
N86 N85 1.388 . S
N86 C87 1.346 . S
C87 N86 1.346 . S
C87 C88 1.396 . S
C87 C97 1.510 . S
C88 C84 1.401 . S
C88 C87 1.396 . S
C89 C84 1.499 1_556 S
C89 H90 0.959 . S
C89 H91 0.960 . S
C89 H92 0.961 . S
H90 C89 0.959 . S
H91 C89 0.960 . S
H92 C89 0.961 . S
O93 Co68 1.967 . S
O93 C101 1.258 . S
O94 Co69 1.941 . S
O94 C101 1.266 . S
H95 C97 0.959 . S
H96 C97 0.961 . S
C97 C87 1.510 . S
C97 H95 0.959 . S
C97 H96 0.961 . S
C97 H98 0.960 . S
H98 C97 0.960 . S
H99 N79 0.862 . S
O100 Co68 1.920 1_556 S
O100 C73 1.289 . S
C101 O93 1.258 . S
C101 O94 1.266 . S
Co102 O105 1.970 . S
Co102 N119 1.989 . S
Co102 O127 1.967 . S
Co102 O134 1.920 . S
Co103 O106 1.966 1_556 S
Co103 N112 2.022 . S
Co103 N120 1.993 1_556 S
Co103 O128 1.941 1_556 S
C104 O105 1.258 . S
C104 O106 1.263 . S
O105 Co102 1.970 . S
O105 C104 1.258 . S
O106 Co103 1.966 1_554 S
O106 C104 1.263 . S
C107 O108 1.235 . S
C107 O134 1.289 . S
O108 C107 1.235 . S
C109 C111 1.400 . S
C109 N112 1.351 . S
C109 C114 1.501 . S
C110 C111 1.387 . S
C110 N113 1.341 . S
C111 C109 1.400 . S
C111 C110 1.387 . S
N112 Co103 2.022 . S
N112 C109 1.351 . S
N112 N113 1.365 . S
N113 C110 1.341 . S
N113 N112 1.365 . S
N113 H133 0.862 . S
C114 C109 1.501 . S
C114 H115 0.961 . S
C114 H116 0.961 . S
C114 H117 0.960 . S
H115 C114 0.961 . S
H116 C114 0.961 . S
H117 C114 0.960 . S
C118 N119 1.342 . S
C118 C122 1.401 . S
C118 C123 1.499 . S
N119 Co102 1.989 . S
N119 C118 1.342 . S
N119 N120 1.388 . S
N120 Co103 1.993 1_554 S
N120 N119 1.388 . S
N120 C121 1.346 . S
C121 N120 1.346 . S
C121 C122 1.396 . S
C121 C131 1.510 1_554 S
C122 C118 1.401 . S
C122 C121 1.396 . S
C123 C118 1.499 . S
C123 H124 0.959 . S
C123 H125 0.960 . S
C123 H126 0.961 . S
H124 C123 0.959 . S
H125 C123 0.960 . S
H126 C123 0.961 . S
O127 Co102 1.967 . S
O127 C135 1.258 . S
O128 Co103 1.941 1_554 S
O128 C135 1.266 . S
H129 C131 0.959 . S
H130 C131 0.961 . S
C131 C121 1.510 1_556 S
C131 H129 0.959 . S
C131 H130 0.961 . S
C131 H132 0.960 . S
H132 C131 0.960 . S
H133 N113 0.862 . S
O134 Co102 1.920 . S
O134 C107 1.289 . S
C135 O127 1.258 . S
C135 O128 1.266 . S
H136 C148 0.930 . S
H137 C150 0.930 . S
H138 C151 0.930 . S
H139 C155 0.959 . S
H140 C155 0.959 . S
H141 C155 0.961 . S
H142 C156 0.960 . S
H143 C156 0.961 . S
H144 C156 0.959 . S
H145 C159 0.929 . S
H146 C160 0.931 . S
H147 C162 0.930 . S
C148 H136 0.930 . S
C148 C149 1.399 . S
C148 C153 1.399 . S
C149 C148 1.399 . S
C149 C150 1.376 . S
C150 H137 0.930 . S
C150 C149 1.376 . S
C150 C151 1.388 . S
C151 H138 0.930 . S
C151 C150 1.388 . S
C151 C152 1.390 . S
C152 C151 1.390 . S
C152 C153 1.394 . S
C152 C158 1.465 . S
C153 C148 1.399 . S
C153 C152 1.394 . S
C153 C154 1.516 . S
C154 C153 1.516 . S
C154 C155 1.502 . S
C154 C156 1.561 . S
C154 C157 1.526 . S
C155 H139 0.959 . S
C155 H140 0.959 . S
C155 H141 0.961 . S
C155 C154 1.502 . S
C156 H142 0.960 . S
C156 H143 0.961 . S
C156 H144 0.959 . S
C156 C154 1.561 . S
C157 C154 1.526 . S
C157 C158 1.396 . S
C157 C162 1.390 . S
C158 C152 1.465 . S
C158 C157 1.396 . S
C158 C159 1.399 . S
C159 H145 0.929 . S
C159 C158 1.399 . S
C159 C160 1.385 . S
C160 H146 0.931 . S
C160 C159 1.385 . S
C160 C161 1.389 . S
C161 C160 1.389 . S
C161 C162 1.387 . S
C162 H147 0.930 . S
C162 C157 1.390 . S
C162 C161 1.387 . S
H163 C175 0.930 . S
H164 C177 0.930 . S
H165 C178 0.930 . S
H166 C182 0.959 . S
H167 C182 0.959 . S
H168 C182 0.961 . S
H169 C183 0.960 . S
H170 C183 0.961 . S
H171 C183 0.959 . S
H172 C186 0.929 . S
H173 C187 0.931 . S
H174 C189 0.930 . S
C175 H163 0.930 . S
C175 C176 1.399 . S
C175 C180 1.399 . S
C176 C175 1.399 . S
C176 C177 1.376 . S
C177 H164 0.930 . S
C177 C176 1.376 . S
C177 C178 1.388 . S
C178 H165 0.930 . S
C178 C177 1.388 . S
C178 C179 1.390 . S
C179 C178 1.390 . S
C179 C180 1.394 . S
C179 C185 1.465 . S
C180 C175 1.399 . S
C180 C179 1.394 . S
C180 C181 1.516 . S
C181 C180 1.516 . S
C181 C182 1.502 . S
C181 C183 1.561 . S
C181 C184 1.526 . S
C182 H166 0.959 . S
C182 H167 0.959 . S
C182 H168 0.961 . S
C182 C181 1.502 . S
C183 H169 0.960 . S
C183 H170 0.961 . S
C183 H171 0.959 . S
C183 C181 1.561 . S
C184 C181 1.526 . S
C184 C185 1.396 . S
C184 C189 1.390 . S
C185 C179 1.465 . S
C185 C184 1.396 . S
C185 C186 1.399 . S
C186 H172 0.929 . S
C186 C185 1.399 . S
C186 C187 1.385 . S
C187 H173 0.931 . S
C187 C186 1.385 . S
C187 C188 1.389 . S
C188 C187 1.389 . S
C188 C189 1.387 . S
C189 H174 0.930 . S
C189 C184 1.390 . S
C189 C188 1.387 . S
H190 C202 0.930 . S
H191 C204 0.930 . S
H192 C205 0.930 . S
H193 C209 0.959 . S
H194 C209 0.959 . S
H195 C209 0.961 . S
H196 C210 0.960 . S
H197 C210 0.961 . S
H198 C210 0.959 . S
H199 C213 0.929 . S
H200 C214 0.931 . S
H201 C216 0.930 . S
C202 H190 0.930 . S
C202 C203 1.399 . S
C202 C207 1.399 . S
C203 C202 1.399 . S
C203 C204 1.376 . S
C204 H191 0.930 . S
C204 C203 1.376 . S
C204 C205 1.388 . S
C205 H192 0.930 . S
C205 C204 1.388 . S
C205 C206 1.390 . S
C206 C205 1.390 . S
C206 C207 1.394 . S
C206 C212 1.465 . S
C207 C202 1.399 . S
C207 C206 1.394 . S
C207 C208 1.516 . S
C208 C207 1.516 . S
C208 C209 1.502 . S
C208 C210 1.561 . S
C208 C211 1.526 . S
C209 H193 0.959 . S
C209 H194 0.959 . S
C209 H195 0.961 . S
C209 C208 1.502 . S
C210 H196 0.960 . S
C210 H197 0.961 . S
C210 H198 0.959 . S
C210 C208 1.561 . S
C211 C208 1.526 . S
C211 C212 1.396 . S
C211 C216 1.390 . S
C212 C206 1.465 . S
C212 C211 1.396 . S
C212 C213 1.399 . S
C213 H199 0.929 . S
C213 C212 1.399 . S
C213 C214 1.385 . S
C214 H200 0.931 . S
C214 C213 1.385 . S
C214 C215 1.389 . S
C215 C214 1.389 . S
C215 C216 1.387 . S
C216 H201 0.930 . S
C216 C211 1.390 . S
C216 C215 1.387 . S
H217 C229 0.930 . S
H218 C231 0.930 . S
H219 C232 0.930 . S
H220 C236 0.959 . S
H221 C236 0.959 . S
H222 C236 0.961 . S
H223 C237 0.960 . S
H224 C237 0.961 . S
H225 C237 0.959 . S
H226 C240 0.929 . S
H227 C241 0.931 . S
H228 C243 0.930 . S
C229 H217 0.930 . S
C229 C230 1.399 . S
C229 C234 1.399 . S
C230 C229 1.399 . S
C230 C231 1.376 . S
C231 H218 0.930 . S
C231 C230 1.376 . S
C231 C232 1.388 . S
C232 H219 0.930 . S
C232 C231 1.388 . S
C232 C233 1.390 . S
C233 C232 1.390 . S
C233 C234 1.394 . S
C233 C239 1.465 . S
C234 C229 1.399 . S
C234 C233 1.394 . S
C234 C235 1.516 . S
C235 C234 1.516 . S
C235 C236 1.502 . S
C235 C237 1.561 . S
C235 C238 1.526 . S
C236 H220 0.959 . S
C236 H221 0.959 . S
C236 H222 0.961 . S
C236 C235 1.502 . S
C237 H223 0.960 . S
C237 H224 0.961 . S
C237 H225 0.959 . S
C237 C235 1.561 . S
C238 C235 1.526 . S
C238 C239 1.396 . S
C238 C243 1.390 . S
C239 C233 1.465 . S
C239 C238 1.396 . S
C239 C240 1.399 . S
C240 H226 0.929 . S
C240 C239 1.399 . S
C240 C241 1.385 . S
C241 H227 0.931 . S
C241 C240 1.385 . S
C241 C242 1.389 . S
C242 C241 1.389 . S
C242 C243 1.387 . S
C243 H228 0.930 . S
C243 C238 1.390 . S
C243 C242 1.387 . S
H244 C256 0.930 . S
H245 C258 0.930 1_556 S
H246 C259 0.930 1_556 S
H247 C263 0.959 . S
H248 C263 0.959 . S
H249 C263 0.961 1_655 S
H250 C264 0.960 . S
H251 C264 0.961 1_455 S
H252 C264 0.959 . S
H253 C267 0.929 1_556 S
H254 C268 0.931 1_556 S
H255 C270 0.930 . S
C256 H244 0.930 . S
C256 C257 1.399 . S
C256 C261 1.399 . S
C257 C256 1.399 . S
C257 C258 1.376 . S
C258 H245 0.930 1_554 S
C258 C257 1.376 . S
C258 C259 1.388 . S
C259 H246 0.930 1_554 S
C259 C258 1.388 . S
C259 C260 1.390 . S
C260 C259 1.390 . S
C260 C261 1.394 . S
C260 C266 1.465 1_655 S
C261 C256 1.399 . S
C261 C260 1.394 . S
C261 C262 1.516 . S
C262 C261 1.516 . S
C262 C263 1.502 1_655 S
C262 C264 1.561 . S
C262 C265 1.526 1_655 S
C263 H247 0.959 . S
C263 H248 0.959 . S
C263 H249 0.961 1_455 S
C263 C262 1.502 1_455 S
C264 H250 0.960 . S
C264 H251 0.961 1_655 S
C264 H252 0.959 . S
C264 C262 1.561 . S
C265 C262 1.526 1_455 S
C265 C266 1.396 . S
C265 C270 1.390 . S
C266 C260 1.465 1_455 S
C266 C265 1.396 . S
C266 C267 1.399 . S
C267 H253 0.929 1_554 S
C267 C266 1.399 . S
C267 C268 1.385 . S
C268 H254 0.931 1_554 S
C268 C267 1.385 . S
C268 C269 1.389 . S
C269 C268 1.389 . S
C269 C270 1.387 . S
C270 H255 0.930 . S
C270 C265 1.390 . S
C270 C269 1.387 . S
H271 C283 0.930 1_556 S
H272 C285 0.930 . S
H273 C286 0.930 . S
H274 C290 0.959 . S
H275 C290 0.959 . S
H276 C290 0.961 1_565 S
H277 C291 0.960 . S
H278 C291 0.961 1_545 S
H279 C291 0.959 . S
H280 C294 0.929 . S
H281 C295 0.931 . S
H282 C297 0.930 1_556 S
C283 H271 0.930 1_554 S
C283 C284 1.399 . S
C283 C288 1.399 . S
C284 C283 1.399 . S
C284 C285 1.376 . S
C285 H272 0.930 . S
C285 C284 1.376 . S
C285 C286 1.388 . S
C286 H273 0.930 . S
C286 C285 1.388 . S
C286 C287 1.390 . S
C287 C286 1.390 . S
C287 C288 1.394 . S
C287 C293 1.465 1_565 S
C288 C283 1.399 . S
C288 C287 1.394 . S
C288 C289 1.493 1_564 S
C289 C288 1.493 1_546 S
C289 C290 1.507 . S
C289 C291 1.559 1_545 S
C289 C292 1.547 1_556 S
C290 H274 0.959 . S
C290 H275 0.959 . S
C290 H276 0.961 1_545 S
C290 C289 1.507 . S
C291 H277 0.960 . S
C291 H278 0.961 1_565 S
C291 H279 0.959 . S
C291 C289 1.559 1_565 S
C292 C289 1.547 1_554 S
C292 C293 1.396 . S
C292 C297 1.390 . S
C293 C287 1.465 1_545 S
C293 C292 1.396 . S
C293 C294 1.399 . S
C294 H280 0.929 . S
C294 C293 1.399 . S
C294 C295 1.385 . S
C295 H281 0.931 . S
C295 C294 1.385 . S
C295 C296 1.389 . S
C296 C295 1.389 . S
C296 C297 1.387 . S
C297 H282 0.930 1_554 S
C297 C292 1.390 . S
C297 C296 1.387 . S
H298 C310 0.930 . S
H299 C312 0.930 1_556 S
H300 C313 0.930 . S
H301 C317 0.959 . S
H302 C317 0.959 . S
H303 C317 0.961 . S
H304 C318 0.960 . S
H305 C318 0.961 . S
H306 C318 0.959 . S
H307 C321 0.943 . S
H308 C322 0.931 1_556 S
H309 C324 0.930 . S
C310 H298 0.930 . S
C310 C311 1.399 . S
C310 C315 1.399 . S
C311 C310 1.399 . S
C311 C312 1.376 . S
C312 H299 0.930 1_554 S
C312 C311 1.376 . S
C312 C313 1.388 1_554 S
C313 H300 0.930 . S
C313 C312 1.388 1_556 S
C313 C314 1.390 1_556 S
C314 C313 1.390 1_554 S
C314 C315 1.394 . S
C314 C320 1.465 . S
C315 C310 1.399 . S
C315 C314 1.394 . S
C315 C316 1.516 . S
C316 C315 1.516 . S
C316 C317 1.502 . S
C316 C318 1.561 . S
C316 C319 1.526 . S
C317 H301 0.959 . S
C317 H302 0.959 . S
C317 H303 0.961 . S
C317 C316 1.502 . S
C318 H304 0.960 . S
C318 H305 0.961 . S
C318 H306 0.959 . S
C318 C316 1.561 . S
C319 C316 1.526 . S
C319 C320 1.396 . S
C319 C324 1.390 . S
C320 C314 1.465 . S
C320 C319 1.396 . S
C320 C321 1.388 1_554 S
C321 H307 0.943 . S
C321 C320 1.388 1_556 S
C321 C322 1.382 1_556 S
C322 H308 0.931 1_554 S
C322 C321 1.382 1_554 S
C322 C323 1.389 . S
C323 C322 1.389 . S
C323 C324 1.387 . S
C324 H309 0.930 . S
C324 C319 1.390 . S
C324 C323 1.387 . S
H325 C337 0.930 . S
H326 C339 0.930 . S
H327 C340 0.930 . S
H328 C344 0.959 . S
H329 C344 0.959 . S
H330 C344 0.961 . S
H331 C345 0.960 . S
H332 C345 0.961 . S
H333 C345 0.959 1_554 S
H334 C348 0.929 . S
H335 C349 0.931 . S
H336 C351 0.930 1_556 S
C337 H325 0.930 . S
C337 C338 1.399 . S
C337 C342 1.399 . S
C338 C337 1.399 . S
C338 C339 1.376 . S
C339 H326 0.930 . S
C339 C338 1.376 . S
C339 C340 1.388 . S
C340 H327 0.930 . S
C340 C339 1.388 . S
C340 C341 1.390 . S
C341 C340 1.390 . S
C341 C342 1.394 . S
C341 C347 1.465 . S
C342 C337 1.399 . S
C342 C341 1.394 . S
C342 C343 1.516 . S
C343 C342 1.516 . S
C343 C344 1.502 1_554 S
C343 C345 1.561 1_554 S
C343 C346 1.526 . S
C344 H328 0.959 . S
C344 H329 0.959 . S
C344 H330 0.961 . S
C344 C343 1.502 1_556 S
C345 H331 0.960 . S
C345 H332 0.961 . S
C345 H333 0.959 1_556 S
C345 C343 1.561 1_556 S
C346 C343 1.526 . S
C346 C347 1.396 . S
C346 C351 1.390 . S
C347 C341 1.465 . S
C347 C346 1.396 . S
C347 C348 1.399 . S
C348 H334 0.929 . S
C348 C347 1.399 . S
C348 C349 1.385 . S
C349 H335 0.931 . S
C349 C348 1.385 . S
C349 C350 1.389 . S
C350 C349 1.389 . S
C350 C351 1.387 . S
C351 H336 0.930 1_554 S
C351 C346 1.390 . S
C351 C350 1.387 . S
H352 C364 0.930 . S
H353 C366 0.930 1_556 S
H354 C367 0.930 1_556 S
H355 C371 0.959 . S
H356 C371 0.959 . S
H357 C371 0.961 . S
H358 C372 0.960 . S
H359 C372 0.961 . S
H360 C372 0.959 . S
H361 C375 0.929 1_556 S
H362 C376 0.931 . S
H363 C378 0.930 . S
C364 H352 0.930 . S
C364 C365 1.399 . S
C364 C369 1.399 . S
C365 C364 1.399 . S
C365 C366 1.376 . S
C366 H353 0.930 1_554 S
C366 C365 1.376 . S
C366 C367 1.388 . S
C367 H354 0.930 1_554 S
C367 C366 1.388 . S
C367 C368 1.390 . S
C368 C367 1.390 . S
C368 C369 1.394 . S
C368 C374 1.465 . S
C369 C364 1.399 . S
C369 C368 1.394 . S
C369 C370 1.516 . S
C370 C369 1.516 . S
C370 C371 1.502 . S
C370 C372 1.561 . S
C370 C373 1.526 . S
C371 H355 0.959 . S
C371 H356 0.959 . S
C371 H357 0.961 . S
C371 C370 1.502 . S
C372 H358 0.960 . S
C372 H359 0.961 . S
C372 H360 0.959 . S
C372 C370 1.561 . S
C373 C370 1.526 . S
C373 C374 1.396 . S
C373 C378 1.390 . S
C374 C368 1.465 . S
C374 C373 1.396 . S
C374 C375 1.399 . S
C375 H361 0.929 1_554 S
C375 C374 1.399 . S
C375 C376 1.385 . S
C376 H362 0.931 . S
C376 C375 1.385 . S
C376 C377 1.389 . S
C377 C376 1.389 . S
C377 C378 1.387 . S
C378 H363 0.930 . S
C378 C373 1.390 . S
C378 C377 1.387 . S
H379 C391 0.930 . S
H380 C393 0.930 1_556 S
H381 C394 0.930 . S
H382 C398 0.959 . S
H383 C398 0.959 . S
H384 C398 0.961 . S
H385 C399 0.960 . S
H386 C399 0.961 . S
H387 C399 0.959 . S
H388 C402 0.929 . S
H389 C403 0.931 1_556 S
H390 C405 0.930 . S
C391 H379 0.930 . S
C391 C392 1.399 . S
C391 C396 1.399 . S
C392 C391 1.399 . S
C392 C393 1.376 . S
C393 H380 0.930 1_554 S
C393 C392 1.376 . S
C393 C394 1.388 1_554 S
C394 H381 0.930 . S
C394 C393 1.388 1_556 S
C394 C395 1.390 1_556 S
C395 C394 1.390 1_554 S
C395 C396 1.394 . S
C395 C401 1.465 . S
C396 C391 1.399 . S
C396 C395 1.394 . S
C396 C397 1.516 . S
C397 C396 1.516 . S
C397 C398 1.502 . S
C397 C399 1.561 . S
C397 C400 1.526 . S
C398 H382 0.959 . S
C398 H383 0.959 . S
C398 H384 0.961 . S
C398 C397 1.502 . S
C399 H385 0.960 . S
C399 H386 0.961 . S
C399 H387 0.959 . S
C399 C397 1.561 . S
C400 C397 1.526 . S
C400 C401 1.396 . S
C400 C405 1.390 . S
C401 C395 1.465 . S
C401 C400 1.396 . S
C401 C402 1.399 1_554 S
C402 H388 0.929 . S
C402 C401 1.399 1_556 S
C402 C403 1.385 1_556 S
C403 H389 0.931 1_554 S
C403 C402 1.385 1_554 S
C403 C404 1.389 . S
C404 C403 1.389 . S
C404 C405 1.387 . S
C405 H390 0.930 . S
C405 C400 1.390 . S
C405 C404 1.387 . S
C149 C9 1.378 . S
C161 C5 1.503 . S
C176 C43 1.433 . S
C188 C39 1.480 . S
C203 C73 1.493 . S
C215 C77 1.349 . S
C230 C111 1.415 . S
C242 C107 1.491 . S
C257 C88 1.472 . S
C269 C20 1.475 . S
C284 C122 1.457 . S
C296 C54 1.454 . S
C311 C36 1.446 . S
C323 C33 1.420 . S
C338 C101 1.447 . S
C350 C67 1.462 . S
C365 C104 1.477 . S
C377 C70 1.475 . S
C392 C135 1.491 . S
C404 C2 1.505 . S
