# Generated by pormake.
# Topology uki, (4)-cn, num edge types: 1
# Building blocks:
#     Node 0, Type 0, BuildingBlock: QUQFOY_clean_sbu_3, # of connection points: 4
#     Node 1, Type 0, BuildingBlock: QUQFOY_clean_sbu_3, # of connection points: 4
#     Node 2, Type 0, BuildingBlock: QUQFOY_clean_sbu_3, # of connection points: 4
#     Node 3, Type 0, BuildingBlock: QUQFOY_clean_sbu_3, # of connection points: 4
#     Node 4, Type 0, BuildingBlock: QUQFOY_clean_sbu_3, # of connection points: 4
#     Node 5, Type 0, BuildingBlock: QUQFOY_clean_sbu_3, # of connection points: 4
#     Node 6, Type 0, BuildingBlock: QUQFOY_clean_sbu_3, # of connection points: 4
#     Node 7, Type 0, BuildingBlock: QUQFOY_clean_sbu_3, # of connection points: 4
#     Node 8, Type 0, BuildingBlock: QUQFOY_clean_sbu_3, # of connection points: 4
#     Node 9, Type 0, BuildingBlock: QUQFOY_clean_sbu_3, # of connection points: 4
#     Node 10, Type 0, BuildingBlock: QUQFOY_clean_sbu_3, # of connection points: 4
#     Node 11, Type 0, BuildingBlock: QUQFOY_clean_sbu_3, # of connection points: 4
#     Node 12, Type 0, BuildingBlock: QUQFOY_clean_sbu_3, # of connection points: 4
#     Node 13, Type 0, BuildingBlock: QUQFOY_clean_sbu_3, # of connection points: 4
#     Node 14, Type 0, BuildingBlock: QUQFOY_clean_sbu_3, # of connection points: 4
#     Node 15, Type 0, BuildingBlock: QUQFOY_clean_sbu_3, # of connection points: 4
#     Edge 16, Type (0, 0), BuildingBlock: XUDNAN_clean_linker_2, # of connection points: 2
#     Edge 17, Type (0, 0), BuildingBlock: XUDNAN_clean_linker_2, # of connection points: 2
#     Edge 18, Type (0, 0), BuildingBlock: XUDNAN_clean_linker_2, # of connection points: 2
#     Edge 19, Type (0, 0), BuildingBlock: XUDNAN_clean_linker_2, # of connection points: 2
#     Edge 20, Type (0, 0), BuildingBlock: XUDNAN_clean_linker_2, # of connection points: 2
#     Edge 21, Type (0, 0), BuildingBlock: XUDNAN_clean_linker_2, # of connection points: 2
#     Edge 22, Type (0, 0), BuildingBlock: XUDNAN_clean_linker_2, # of connection points: 2
#     Edge 23, Type (0, 0), BuildingBlock: XUDNAN_clean_linker_2, # of connection points: 2
#     Edge 24, Type (0, 0), BuildingBlock: XUDNAN_clean_linker_2, # of connection points: 2
#     Edge 25, Type (0, 0), BuildingBlock: XUDNAN_clean_linker_2, # of connection points: 2
#     Edge 26, Type (0, 0), BuildingBlock: XUDNAN_clean_linker_2, # of connection points: 2
#     Edge 27, Type (0, 0), BuildingBlock: XUDNAN_clean_linker_2, # of connection points: 2
#     Edge 28, Type (0, 0), BuildingBlock: XUDNAN_clean_linker_2, # of connection points: 2
#     Edge 29, Type (0, 0), BuildingBlock: XUDNAN_clean_linker_2, # of connection points: 2
#     Edge 30, Type (0, 0), BuildingBlock: XUDNAN_clean_linker_2, # of connection points: 2
#     Edge 31, Type (0, 0), BuildingBlock: XUDNAN_clean_linker_2, # of connection points: 2
#     Edge 32, Type (0, 0), BuildingBlock: XUDNAN_clean_linker_2, # of connection points: 2
#     Edge 33, Type (0, 0), BuildingBlock: XUDNAN_clean_linker_2, # of connection points: 2
#     Edge 34, Type (0, 0), BuildingBlock: XUDNAN_clean_linker_2, # of connection points: 2
#     Edge 35, Type (0, 0), BuildingBlock: XUDNAN_clean_linker_2, # of connection points: 2
#     Edge 36, Type (0, 0), BuildingBlock: XUDNAN_clean_linker_2, # of connection points: 2
#     Edge 37, Type (0, 0), BuildingBlock: XUDNAN_clean_linker_2, # of connection points: 2
#     Edge 38, Type (0, 0), BuildingBlock: XUDNAN_clean_linker_2, # of connection points: 2
#     Edge 39, Type (0, 0), BuildingBlock: XUDNAN_clean_linker_2, # of connection points: 2
#     Edge 40, Type (0, 0), BuildingBlock: XUDNAN_clean_linker_2, # of connection points: 2
#     Edge 41, Type (0, 0), BuildingBlock: XUDNAN_clean_linker_2, # of connection points: 2
#     Edge 42, Type (0, 0), BuildingBlock: XUDNAN_clean_linker_2, # of connection points: 2
#     Edge 43, Type (0, 0), BuildingBlock: XUDNAN_clean_linker_2, # of connection points: 2
#     Edge 44, Type (0, 0), BuildingBlock: XUDNAN_clean_linker_2, # of connection points: 2
#     Edge 45, Type (0, 0), BuildingBlock: XUDNAN_clean_linker_2, # of connection points: 2
#     Edge 46, Type (0, 0), BuildingBlock: XUDNAN_clean_linker_2, # of connection points: 2
#     Edge 47, Type (0, 0), BuildingBlock: XUDNAN_clean_linker_2, # of connection points: 2
# Relax obj value: 0.096
# Max RMSD: 0.200
# Mean RMSD: 0.199
data_MOF--net-uki--node1-QUQFOY_clean_sbu_3--edge1-XUDNAN_clean_linker_2
_symmetry_space_group_name_H-M    P1
_symmetry_Int_Tables_number       1
_symmetry_cell_setting            triclinic
loop_
_symmetry_equiv_pos_as_xyz
'x, y, z'
_cell_length_a     31.256295
_cell_length_b     31.062105
_cell_length_c     74.526886
_cell_angle_alpha  90.111856
_cell_angle_beta   89.94053
_cell_angle_gamma 90.066832
loop_
_atom_site_label
_atom_site_type_symbol
_atom_site_fract_x
_atom_site_fract_y
_atom_site_fract_z
_atom_type_partial_charge
C0 C 0.09028 0.12078 0.24149 0.0
O1 O 0.0974 0.14532 0.22821 0.0
Cd2 Cd 0.10645 0.22067 0.23185 0.0
O3 O 0.09588 0.1342 0.25752 0.0
Cd4 Cd 0.12243 0.1992 0.27378 0.0
C5 C 0.02374 0.23117 0.2632 0.0
O6 O 0.1666 0.23203 0.25044 0.0
O7 O 0.14382 0.27381 0.27158 0.0
O8 O 0.17412 0.15629 0.29083 0.0
C9 C 0.16692 0.2689 0.25775 0.0
O10 O 0.03941 0.23572 0.24752 0.0
C11 C 0.16772 0.1761 0.30553 0.0
O12 O 0.04673 0.2177 0.27613 0.0
O13 O 0.13856 0.20452 0.30567 0.0
C14 C 0.23433 0.81561 0.75176 0.0
O15 O 0.20524 0.83104 0.76183 0.0
Cd16 Cd 0.15172 0.88228 0.75267 0.0
O17 O 0.23555 0.82455 0.73506 0.0
Cd18 Cd 0.19811 0.86459 0.71113 0.0
C19 C 0.22027 0.95787 0.73396 0.0
O20 O 0.12775 0.85986 0.72406 0.0
O21 O 0.13186 0.89501 0.69935 0.0
O22 O 0.20981 0.80602 0.68973 0.0
C23 C 0.10962 0.88452 0.71287 0.0
O24 O 0.19473 0.94582 0.74634 0.0
C25 C 0.22706 0.82985 0.67787 0.0
O26 O 0.22777 0.93441 0.72024 0.0
O27 O 0.23167 0.86946 0.68174 0.0
C28 C 0.90505 0.86716 0.24338 0.0
O29 O 0.89947 0.84059 0.23063 0.0
Cd30 Cd 0.88932 0.76548 0.2351 0.0
O31 O 0.8989 0.85586 0.25964 0.0
Cd32 Cd 0.87496 0.79197 0.27703 0.0
C33 C 0.97223 0.75411 0.26595 0.0
O34 O 0.83114 0.75602 0.25488 0.0
O35 O 0.85335 0.71645 0.27677 0.0
O36 O 0.81493 0.82351 0.29325 0.0
C37 C 0.8308 0.71986 0.2627 0.0
O38 O 0.95617 0.749 0.25037 0.0
C39 C 0.8312 0.81862 0.30871 0.0
O40 O 0.95006 0.76968 0.27877 0.0
O41 O 0.86895 0.80356 0.30945 0.0
C42 C 0.77331 0.18451 0.75893 0.0
O43 O 0.80469 0.17515 0.76903 0.0
Cd44 Cd 0.85275 0.11824 0.75924 0.0
O45 O 0.77004 0.16764 0.74343 0.0
Cd46 Cd 0.79557 0.1224 0.71899 0.0
C47 C 0.76999 0.04543 0.74916 0.0
O48 O 0.86868 0.12689 0.7282 0.0
O49 O 0.85615 0.0858 0.70547 0.0
O50 O 0.77622 0.18581 0.70218 0.0
C51 C 0.88237 0.09851 0.71732 0.0
O52 O 0.79979 0.06085 0.75892 0.0
C53 C 0.76008 0.16563 0.68898 0.0
O54 O 0.76082 0.06102 0.73379 0.0
O55 O 0.76034 0.12468 0.68959 0.0
C56 C 0.0953 0.36492 0.99139 0.0
O57 O 0.10491 0.33679 0.00303 0.0
Cd58 Cd 0.10523 0.26353 0.99349 0.0
O59 O 0.09654 0.35571 0.97472 0.0
Cd60 Cd 0.11705 0.29831 0.95328 0.0
C61 C 0.01791 0.27217 0.96383 0.0
O62 O 0.15862 0.2497 0.97165 0.0
O63 O 0.12219 0.22074 0.9501 0.0
O64 O 0.17767 0.33785 0.94148 0.0
C65 C 0.14908 0.21629 0.96269 0.0
O66 O 0.03532 0.26131 0.97863 0.0
C67 C 0.16717 0.33461 0.92508 0.0
O68 O 0.04 0.28806 0.95107 0.0
O69 O 0.13191 0.31577 0.92168 0.0
C70 C 0.26706 0.80128 0.98741 0.0
O71 O 0.29321 0.81959 0.97679 0.0
Cd72 Cd 0.34476 0.87456 0.98564 0.0
O73 O 0.26702 0.8103 0.00409 0.0
Cd74 Cd 0.30105 0.856 0.02661 0.0
C75 C 0.26888 0.9436 0.00263 0.0
O76 O 0.37302 0.85896 0.01439 0.0
O77 O 0.35922 0.90067 0.03677 0.0
O78 O 0.29916 0.80034 0.04978 0.0
C79 C 0.38533 0.88916 0.02469 0.0
O80 O 0.29883 0.936 0.99145 0.0
C81 C 0.27878 0.82345 0.06103 0.0
O82 O 0.26042 0.91805 0.01556 0.0
O83 O 0.26771 0.86083 0.05592 0.0
C84 C 0.90766 0.61373 0.00402 0.0
O85 O 0.90288 0.63915 0.01724 0.0
Cd86 Cd 0.89519 0.71436 0.01121 0.0
O87 O 0.89953 0.6263 0.98812 0.0
Cd88 Cd 0.87196 0.68677 0.97015 0.0
C89 C 0.97306 0.71666 0.97732 0.0
O90 O 0.83399 0.72734 0.99314 0.0
O91 O 0.85319 0.76224 0.96932 0.0
O92 O 0.81207 0.64569 0.95803 0.0
C93 C 0.83386 0.76224 0.9843 0.0
O94 O 0.96009 0.72324 0.99332 0.0
C95 C 0.82114 0.65274 0.94167 0.0
O96 O 0.9476 0.7032 0.96519 0.0
O97 O 0.85498 0.67424 0.93853 0.0
C98 C 0.72499 0.18271 0.98319 0.0
O99 O 0.69883 0.16407 0.97267 0.0
Cd100 Cd 0.64463 0.11364 0.98254 0.0
O101 O 0.72218 0.17775 0.00013 0.0
Cd102 Cd 0.68145 0.14393 0.02463 0.0
C103 C 0.7113 0.04648 0.00734 0.0
O104 O 0.61419 0.14261 0.00901 0.0
O105 O 0.61324 0.11726 0.03577 0.0
O106 O 0.69164 0.21057 0.04137 0.0
C107 C 0.59406 0.12165 0.02093 0.0
O108 O 0.68819 0.05459 0.99366 0.0
C109 C 0.70339 0.19212 0.05576 0.0
O110 O 0.71523 0.07334 0.02022 0.0
O111 O 0.70552 0.15125 0.05556 0.0
C112 C 0.60684 0.62765 0.76269 0.0
O113 O 0.61729 0.65601 0.75124 0.0
Cd114 Cd 0.61777 0.7304 0.76016 0.0
O115 O 0.60461 0.63725 0.77928 0.0
Cd116 Cd 0.61535 0.69469 0.80143 0.0
C117 C 0.5214 0.72474 0.7839 0.0
O118 O 0.66181 0.7443 0.7855 0.0
O119 O 0.62338 0.7704 0.80715 0.0
O120 O 0.67077 0.65971 0.819 0.0
C121 C 0.65126 0.77659 0.79504 0.0
O122 O 0.54378 0.7356 0.77032 0.0
C123 C 0.64916 0.65815 0.83343 0.0
O124 O 0.53868 0.70787 0.7977 0.0
O125 O 0.61094 0.67209 0.83283 0.0
C126 C 0.72289 0.30243 0.24947 0.0
O127 O 0.69632 0.31837 0.26061 0.0
Cd128 Cd 0.63809 0.36741 0.25357 0.0
O129 O 0.71947 0.30978 0.23271 0.0
Cd130 Cd 0.67711 0.34796 0.21012 0.0
C131 C 0.70076 0.44302 0.23209 0.0
O132 O 0.6096 0.34626 0.22553 0.0
O133 O 0.60856 0.37331 0.19913 0.0
O134 O 0.68677 0.29279 0.18693 0.0
C135 C 0.58972 0.36878 0.21405 0.0
O136 O 0.67821 0.43137 0.24551 0.0
C137 C 0.70356 0.31878 0.17574 0.0
O138 O 0.70564 0.41895 0.21834 0.0
O139 O 0.70899 0.35744 0.18089 0.0
C140 C 0.41427 0.38276 0.75173 0.0
O141 O 0.40717 0.35851 0.73831 0.0
Cd142 Cd 0.39472 0.28317 0.74253 0.0
O143 O 0.4074 0.3694 0.76765 0.0
Cd144 Cd 0.38106 0.30798 0.78552 0.0
C145 C 0.478 0.27076 0.7734 0.0
O146 O 0.33752 0.27364 0.76305 0.0
O147 O 0.35583 0.23352 0.78539 0.0
O148 O 0.3253 0.34468 0.80283 0.0
C149 C 0.33566 0.23729 0.77071 0.0
O150 O 0.46195 0.26665 0.75775 0.0
C151 C 0.34346 0.33908 0.81789 0.0
O152 O 0.45574 0.28504 0.78645 0.0
O153 O 0.37948 0.32017 0.81782 0.0
C154 C 0.27318 0.67796 0.25169 0.0
O155 O 0.30057 0.6629 0.26261 0.0
Cd156 Cd 0.35923 0.61681 0.25316 0.0
O157 O 0.2777 0.67266 0.23484 0.0
Cd158 Cd 0.32151 0.64385 0.21032 0.0
C159 C 0.2964 0.54583 0.228 0.0
O160 O 0.38821 0.64426 0.22622 0.0
O161 O 0.39069 0.62085 0.19917 0.0
O162 O 0.30783 0.71052 0.19424 0.0
C163 C 0.40866 0.62323 0.21437 0.0
O164 O 0.31862 0.55611 0.2417 0.0
C165 C 0.29669 0.69202 0.17972 0.0
O166 O 0.29141 0.57149 0.21478 0.0
O167 O 0.2968 0.65107 0.17953 0.0
C168 C 0.53361 0.83048 0.46376 0.0
O169 O 0.53873 0.81383 0.47917 0.0
Cd170 Cd 0.56315 0.74076 0.48231 0.0
O171 O 0.54674 0.81134 0.4497 0.0
Cd172 Cd 0.58483 0.74899 0.43782 0.0
C173 C 0.49319 0.69926 0.44962 0.0
O174 O 0.62436 0.73169 0.46439 0.0
O175 O 0.62176 0.68174 0.4442 0.0
O176 O 0.63738 0.79768 0.42579 0.0
C177 C 0.63433 0.69384 0.45961 0.0
O178 O 0.50718 0.70419 0.46557 0.0
C179 C 0.63577 0.78424 0.40971 0.0
O180 O 0.51328 0.71458 0.4361 0.0
O181 O 0.60856 0.75478 0.40623 0.0
C182 C 0.77032 0.31049 0.5035 0.0
O183 O 0.80369 0.32602 0.49621 0.0
Cd184 Cd 0.84668 0.3804 0.51127 0.0
O185 O 0.76082 0.32011 0.51962 0.0
Cd186 Cd 0.7839 0.36081 0.54603 0.0
C187 C 0.76201 0.44831 0.52096 0.0
O188 O 0.86175 0.36518 0.54212 0.0
O189 O 0.83148 0.40706 0.56171 0.0
O190 O 0.77532 0.2989 0.5657 0.0
C191 C 0.86527 0.39506 0.55378 0.0
O192 O 0.79543 0.43869 0.51201 0.0
C193 C 0.74888 0.31719 0.5762 0.0
O194 O 0.74894 0.425 0.53394 0.0
O195 O 0.73763 0.35535 0.57225 0.0
C196 C 0.40212 0.11431 0.46965 0.0
O197 O 0.39816 0.1284 0.48556 0.0
Cd198 Cd 0.39626 0.20458 0.48967 0.0
O199 O 0.40118 0.13992 0.45635 0.0
Cd200 Cd 0.39142 0.21357 0.44534 0.0
C201 C 0.48791 0.2282 0.46389 0.0
O202 O 0.34361 0.23141 0.46954 0.0
O203 O 0.3678 0.28563 0.45462 0.0
O204 O 0.34837 0.17085 0.42503 0.0
C205 C 0.34418 0.27175 0.4672 0.0
O206 O 0.4675 0.22312 0.47857 0.0
C207 C 0.35196 0.19538 0.41156 0.0
O208 O 0.46873 0.22592 0.4488 0.0
O209 O 0.37447 0.22923 0.4135 0.0
C210 C 0.21552 0.62673 0.49383 0.0
O211 O 0.17945 0.61415 0.48796 0.0
Cd212 Cd 0.1302 0.57621 0.5078 0.0
O213 O 0.22354 0.62665 0.51057 0.0
Cd214 Cd 0.19309 0.61265 0.54029 0.0
C215 C 0.2082 0.51096 0.52647 0.0
O216 O 0.11584 0.61351 0.53498 0.0
O217 O 0.13931 0.58155 0.55885 0.0
O218 O 0.21023 0.68446 0.55157 0.0
C219 C 0.10782 0.59198 0.54912 0.0
O220 O 0.17469 0.5158 0.51696 0.0
C221 C 0.22879 0.67089 0.56565 0.0
O222 O 0.22455 0.54184 0.53545 0.0
O223 O 0.23256 0.63036 0.56739 0.0
H224 H 0.19314 0.34172 0.27443 0.0
H225 H 0.18808 0.27971 0.22229 0.0
H226 H 0.21924 0.34508 0.20834 0.0
H227 H 0.16625 0.4474 0.26044 0.0
H228 H 0.20277 0.47342 0.27572 0.0
H229 H 0.1801 0.42188 0.28135 0.0
H230 H 0.2562 0.39013 0.28545 0.0
H231 H 0.27909 0.44169 0.28 0.0
H232 H 0.2945 0.39454 0.26744 0.0
H233 H 0.24763 0.41983 0.20018 0.0
H234 H 0.27835 0.4936 0.19911 0.0
H235 H 0.26748 0.50266 0.25701 0.0
C236 C 0.19869 0.34187 0.26007 0.0
C237 C 0.1881 0.30604 0.24938 0.0
C238 C 0.1962 0.30702 0.23069 0.0
C239 C 0.21362 0.344 0.22266 0.0
C240 C 0.22318 0.37917 0.23361 0.0
C241 C 0.21659 0.37799 0.25196 0.0
C242 C 0.2306 0.41921 0.26093 0.0
C243 C 0.19266 0.4418 0.27015 0.0
C244 C 0.26728 0.41088 0.27424 0.0
C245 C 0.24584 0.44405 0.24478 0.0
C246 C 0.24095 0.42084 0.22907 0.0
C247 C 0.25195 0.43814 0.21242 0.0
C248 C 0.26909 0.47999 0.21191 0.0
C249 C 0.27551 0.5034 0.22799 0.0
C250 C 0.26339 0.4852 0.24453 0.0
H251 H 0.47408 0.7385 0.75392 0.0
H252 H 0.46288 0.72424 0.81165 0.0
H253 H 0.38488 0.7378 0.80945 0.0
H254 H 0.4043 0.82414 0.74928 0.0
H255 H 0.38237 0.80625 0.72818 0.0
H256 H 0.43582 0.79113 0.73437 0.0
H257 H 0.41599 0.71059 0.73028 0.0
H258 H 0.36228 0.72552 0.72414 0.0
H259 H 0.37107 0.68857 0.74238 0.0
H260 H 0.3094 0.76063 0.80088 0.0
H261 H 0.24423 0.79079 0.78697 0.0
H262 H 0.30647 0.78719 0.73488 0.0
C263 C 0.4553 0.73782 0.76614 0.0
C264 C 0.47455 0.7306 0.78298 0.0
C265 C 0.44871 0.7297 0.7986 0.0
C266 C 0.40443 0.73723 0.79746 0.0
C267 C 0.38663 0.74482 0.78059 0.0
C268 C 0.41136 0.74477 0.76521 0.0
C269 C 0.38545 0.75602 0.74879 0.0
C270 C 0.40303 0.79681 0.73963 0.0
C271 C 0.38359 0.71789 0.73562 0.0
C272 C 0.34242 0.76405 0.75735 0.0
C273 C 0.34343 0.757 0.77566 0.0
C274 C 0.30808 0.76556 0.78652 0.0
C275 C 0.27121 0.78269 0.77849 0.0
C276 C 0.27013 0.79122 0.75981 0.0
C277 C 0.30593 0.78059 0.74914 0.0
H278 H 0.72747 0.48628 0.26176 0.0
H279 H 0.7206 0.49537 0.20375 0.0
H280 H 0.75213 0.56853 0.2052 0.0
H281 H 0.70195 0.59532 0.27197 0.0
H282 H 0.73926 0.5992 0.29033 0.0
H283 H 0.71583 0.54798 0.28464 0.0
H284 H 0.79145 0.51479 0.28106 0.0
H285 H 0.81513 0.56583 0.28685 0.0
H286 H 0.82938 0.53969 0.26607 0.0
H287 H 0.78084 0.64209 0.21338 0.0
H288 H 0.81194 0.70742 0.22728 0.0
H289 H 0.80396 0.64719 0.27965 0.0
C290 C 0.73258 0.50369 0.24936 0.0
C291 C 0.72141 0.48555 0.23265 0.0
C292 C 0.72911 0.50888 0.21668 0.0
C293 C 0.74675 0.5504 0.21739 0.0
C294 C 0.75703 0.56755 0.23414 0.0
C295 C 0.75081 0.54463 0.2498 0.0
C296 C 0.76579 0.56959 0.26605 0.0
C297 C 0.72847 0.57855 0.27901 0.0
C298 C 0.80263 0.54607 0.27556 0.0
C299 C 0.78112 0.61038 0.25712 0.0
C300 C 0.77535 0.60886 0.23874 0.0
C301 C 0.78588 0.6435 0.22773 0.0
C302 C 0.80328 0.68045 0.23574 0.0
C303 C 0.81048 0.68199 0.25448 0.0
C304 C 0.79914 0.64657 0.26526 0.0
H305 H 0.5377 0.26325 0.74707 0.0
H306 H 0.523 0.2605 0.80497 0.0
H307 H 0.60096 0.24771 0.80814 0.0
H308 H 0.61183 0.18015 0.74341 0.0
H309 H 0.6414 0.20502 0.72541 0.0
H310 H 0.58557 0.21686 0.7283 0.0
H311 H 0.60362 0.29837 0.72999 0.0
H312 H 0.65971 0.28652 0.72738 0.0
H313 H 0.64151 0.31736 0.74643 0.0
H314 H 0.68024 0.22867 0.80437 0.0
H315 H 0.75081 0.202 0.794 0.0
H316 H 0.7117 0.22191 0.73882 0.0
C317 C 0.5507 0.26007 0.76047 0.0
C318 C 0.52422 0.2625 0.77577 0.0
C319 C 0.54274 0.2586 0.79304 0.0
C320 C 0.58697 0.25161 0.79497 0.0
C321 C 0.61215 0.24944 0.77951 0.0
C322 C 0.59449 0.25375 0.76261 0.0
C323 C 0.6275 0.24823 0.74801 0.0
C324 C 0.61588 0.21031 0.73557 0.0
C325 C 0.63343 0.29012 0.73733 0.0
C326 C 0.6664 0.23849 0.75925 0.0
C327 C 0.65734 0.2398 0.7774 0.0
C328 C 0.68784 0.22827 0.7902 0.0
C329 C 0.72793 0.21343 0.78421 0.0
C330 C 0.73674 0.21002 0.76562 0.0
C331 C 0.70608 0.22443 0.75313 0.0
H332 H 0.29751 0.02325 0.99388 0.0
H333 H 0.18213 0.95048 0.00506 0.0
H334 H 0.1382 0.01375 -0.0033 0.0
H335 H 0.25653 0.12662 0.01156 0.0
H336 H 0.28474 0.15748 0.99484 0.0
H337 H 0.30649 0.10714 0.00259 0.0
H338 H 0.30962 0.07958 0.96977 0.0
H339 H 0.28737 0.12951 0.96193 0.0
H340 H 0.26154 0.0793 0.95642 0.0
H341 H 0.10776 0.08137 0.9833 0.0
H342 H 0.09223 0.15298 0.97029 0.0
H343 H 0.22746 0.18386 0.97086 0.0
C344 C 0.26298 0.021 0.99482 0.0
C345 C 0.2429 0.98232 -1e-05 0.0
C346 C 0.19783 0.98017 0.0012 0.0
C347 C 0.17277 0.01576 -0.00359 0.0
C348 C 0.19355 0.05327 0.99094 0.0
C349 C 0.23765 0.05648 0.99058 0.0
C350 C 0.25213 0.1004 0.98427 0.0
C351 C 0.27639 0.12433 -0.00079 0.0
C352 C 0.27926 0.09696 0.96708 0.0
C353 C 0.20929 0.12104 0.98058 0.0
C354 C 0.1759 0.09317 0.98434 0.0
C355 C 0.13353 0.10379 0.98066 0.0
C356 C 0.12505 0.14421 0.97317 0.0
C357 C 0.15875 0.1735 0.96977 0.0
C358 C 0.20127 0.16196 0.97361 0.0
H359 H 0.21174 0.75222 0.00665 0.0
H360 H 0.23963 0.79399 0.95239 0.0
H361 H 0.16911 0.76668 0.94251 0.0
H362 H 0.14255 0.65621 0.99476 0.0
H363 H 0.10766 0.66758 0.01345 0.0
H364 H 0.16392 0.67991 0.01496 0.0
H365 H 0.14508 0.75882 0.02307 0.0
H366 H 0.08902 0.74718 0.0212 0.0
H367 H 0.11224 0.78976 0.00797 0.0
H368 H 0.09013 0.74662 0.93994 0.0
H369 H 0.0125 0.73427 0.94497 0.0
H370 H 0.03764 0.71006 0.00126 0.0
C371 C 0.20382 0.75417 0.99253 0.0
C372 C 0.23122 0.77517 0.9803 0.0
C373 C 0.21936 0.77757 0.96198 0.0
C374 C 0.17926 0.76225 0.95626 0.0
C375 C 0.1518 0.74422 0.96898 0.0
C376 C 0.16402 0.73952 0.98671 0.0
C377 C 0.12728 0.72464 -0.00168 0.0
C378 C 0.13587 0.67939 0.00581 0.0
C379 C 0.11787 0.75705 0.01352 0.0
C380 C 0.09184 0.72388 0.98461 0.0
C381 C 0.10649 0.73417 0.96765 0.0
C382 C 0.07852 0.73784 0.95312 0.0
C383 C 0.03454 0.731 0.95609 0.0
C384 C 0.01915 0.72169 0.97353 0.0
C385 C 0.04841 0.71752 0.9878 0.0
H386 H 0.80842 0.8327 0.96564 0.0
H387 H 0.81876 0.78185 0.01962 0.0
H388 H 0.79144 0.85082 0.03185 0.0
H389 H 0.83911 0.94137 0.97537 0.0
H390 H 0.80102 0.96453 0.96004 0.0
H391 H 0.82253 0.91175 0.95574 0.0
H392 H 0.74575 0.88018 0.95432 0.0
H393 H 0.72401 0.9329 0.95846 0.0
H394 H 0.70973 0.88865 0.9729 0.0
H395 H 0.76485 0.92691 0.03797 0.0
H396 H 0.73372 0.0003 0.03726 0.0
H397 H 0.73775 -0.00196 0.97908 0.0
C398 C 0.80503 0.83612 0.98004 0.0
C399 C 0.81588 0.80226 0.99173 0.0
C400 C 0.81048 0.80756 0.01047 0.0
C401 C 0.79526 0.84662 0.01752 0.0
C402 C 0.78517 0.87961 0.00559 0.0
C403 C 0.7893 0.87443 0.98724 0.0
C404 C 0.77455 0.91388 0.97719 0.0
C405 C 0.81151 0.93407 0.96646 0.0
C406 C 0.73623 0.90325 0.965 0.0
C407 C 0.76149 0.94219 0.99274 0.0
C408 C 0.76835 0.92225 0.00904 0.0
C409 C 0.75914 0.94273 0.02527 0.0
C410 C 0.74172 0.98439 0.02476 0.0
C411 C 0.73316 0.00454 0.00812 0.0
C412 C 0.74361 0.98321 0.99199 0.0
H413 H 0.78864 0.22158 0.00217 0.0
H414 H 0.74663 0.19573 0.94771 0.0
H415 H 0.81503 0.22484 0.93618 0.0
H416 H 0.85287 0.32014 0.99245 0.0
H417 H 0.89294 0.30475 0.00858 0.0
H418 H 0.83782 0.28981 0.01208 0.0
H419 H 0.8604 0.20979 0.01474 0.0
H420 H 0.91534 0.22429 0.01106 0.0
H421 H 0.89003 0.18509 -0.00331 0.0
H422 H 0.89227 0.24847 0.93101 0.0
H423 H 0.97025 0.26303 0.93294 0.0
H424 H 0.96015 0.26981 0.99092 0.0
C425 C 0.79311 0.22311 0.98778 0.0
C426 C 0.76216 0.20649 0.97585 0.0
C427 C 0.76976 0.20855 0.95712 0.0
C428 C 0.80851 0.22508 0.95044 0.0
C429 C 0.83908 0.23962 0.96267 0.0
C430 C 0.8315 0.23905 0.98095 0.0
C431 C 0.87075 0.25187 0.99149 0.0
C432 C 0.86313 0.29416 0.00175 0.0
C433 C 0.88495 0.21559 0.00423 0.0
C434 C 0.90221 0.25809 0.97635 0.0
C435 C 0.88338 0.25185 0.95977 0.0
C436 C 0.90717 0.25394 0.94392 0.0
C437 C 0.95136 0.26215 0.94512 0.0
C438 C 0.97115 0.2672 0.96208 0.0
C439 C 0.94595 0.26581 0.97777 0.0
H440 H 0.6922 0.80435 0.7645 0.0
H441 H 0.64181 0.84814 0.81571 0.0
H442 H 0.66219 0.9226 0.80822 0.0
H443 H 0.78266 0.87501 0.76318 0.0
H444 H 0.77938 0.88448 0.73936 0.0
H445 H 0.76011 0.83456 0.74859 0.0
H446 H 0.68612 0.84792 0.73397 0.0
H447 H 0.70506 0.89814 0.72485 0.0
H448 H 0.65784 0.89718 0.73874 0.0
H449 H 0.69058 0.99079 0.79623 0.0
H450 H 0.72707 0.05 0.78029 0.0
H451 H 0.75638 0.964 0.7361 0.0
C452 C 0.68564 0.82963 0.77414 0.0
C453 C 0.66552 0.82056 0.7907 0.0
C454 C 0.65716 0.85444 0.80294 0.0
C455 C 0.66846 0.89682 0.79879 0.0
C456 C 0.68775 0.90479 0.7823 0.0
C457 C 0.69635 0.8723 0.77014 0.0
C458 C 0.71808 0.88981 0.75348 0.0
C459 C 0.7627 0.86978 0.75102 0.0
C460 C 0.69009 0.88285 0.73677 0.0
C461 C 0.72099 0.9371 0.75836 0.0
C462 C 0.70311 0.94487 0.77504 0.0
C463 C 0.70414 0.98534 0.78306 0.0
C464 C 0.72481 0.01866 0.77394 0.0
C465 C 0.74362 0.01134 0.75696 0.0
C466 C 0.74112 0.97035 0.74888 0.0
H467 H 0.96349 0.23577 0.23706 0.0
H468 H 0.97885 0.24112 0.29488 0.0
H469 H 0.90057 0.25177 0.29824 0.0
H470 H 0.8863 0.31635 0.23319 0.0
H471 H 0.85733 0.28969 0.21546 0.0
H472 H 0.91362 0.28004 0.21816 0.0
H473 H 0.89879 0.198 0.22039 0.0
H474 H 0.84225 0.20753 0.21791 0.0
H475 H 0.86189 0.17826 0.23706 0.0
H476 H 0.8207 0.26778 0.29462 0.0
H477 H 0.74855 0.28958 0.28448 0.0
H478 H 0.78753 0.26939 0.22918 0.0
C479 C 0.95058 0.23913 0.25048 0.0
C480 C 0.97731 0.23802 0.26571 0.0
C481 C 0.95891 0.24203 0.28302 0.0
C482 C 0.91452 0.24786 0.28504 0.0
C483 C 0.88912 0.24879 0.26964 0.0
C484 C 0.90666 0.24431 0.25272 0.0
C485 C 0.87324 0.24794 0.2382 0.0
C486 C 0.88322 0.28575 0.22552 0.0
C487 C 0.86879 0.20539 0.22778 0.0
C488 C 0.83412 0.25666 0.24951 0.0
C489 C 0.84359 0.25666 0.26763 0.0
C490 C 0.81284 0.26721 0.28049 0.0
C491 C 0.77188 0.27942 0.2746 0.0
C492 C 0.76224 0.2811 0.25602 0.0
C493 C 0.79354 0.26808 0.24348 0.0
H494 H 0.24028 0.00046 0.76477 0.0
H495 H 0.24547 0.01144 0.70678 0.0
H496 H 0.27429 0.08544 0.70978 0.0
H497 H 0.20898 0.10781 0.7745 0.0
H498 H 0.24205 0.11257 0.79421 0.0
H499 H 0.22202 0.06065 0.78745 0.0
H500 H 0.29935 0.03058 0.78654 0.0
H501 H 0.31959 0.08229 0.79347 0.0
H502 H 0.3393 0.05757 0.77319 0.0
H503 H 0.29816 0.15984 0.71937 0.0
H504 H 0.32383 0.22573 0.73468 0.0
H505 H 0.3071 0.16337 0.78626 0.0
C506 C 0.24761 0.0184 0.7527 0.0
C507 C 0.24048 0.00054 0.73554 0.0
C508 C 0.25091 0.02465 0.72005 0.0
C509 C 0.26701 0.06669 0.72162 0.0
C510 C 0.27306 0.0836 0.73878 0.0
C511 C 0.26438 0.0599 0.75403 0.0
C512 C 0.27482 0.08488 0.7709 0.0
C513 C 0.23456 0.09189 0.78244 0.0
C514 C 0.31039 0.0625 0.78165 0.0
C515 C 0.29034 0.1266 0.76279 0.0
C516 C 0.28862 0.12549 0.74426 0.0
C517 C 0.30005 0.16093 0.73386 0.0
C518 C 0.31433 0.19822 0.74266 0.0
C519 C 0.31758 0.19935 0.76161 0.0
C520 C 0.30522 0.16315 0.77174 0.0
H521 H 0.0317 0.74443 0.23971 0.0
H522 H 0.01714 0.74433 0.29762 0.0
H523 H 0.09495 0.7303 0.30083 0.0
H524 H 0.10667 0.66035 0.23655 0.0
H525 H 0.13597 0.68493 0.21841 0.0
H526 H 0.07991 0.69607 0.22119 0.0
H527 H 0.09654 0.7779 0.22236 0.0
H528 H 0.15279 0.76692 0.21978 0.0
H529 H 0.13417 0.7981 0.23865 0.0
H530 H 0.17471 0.71173 0.29706 0.0
H531 H 0.24703 0.69012 0.2868 0.0
H532 H 0.2068 0.70704 0.23152 0.0
C533 C 0.04464 0.74139 0.25312 0.0
C534 C 0.01829 0.74507 0.26842 0.0
C535 C 0.03679 0.74145 0.2857 0.0
C536 C 0.08091 0.73364 0.28764 0.0
C537 C 0.10595 0.73027 0.27217 0.0
C538 C 0.08829 0.73428 0.25527 0.0
C539 C 0.12133 0.7288 0.24068 0.0
C540 C 0.11031 0.69024 0.2285 0.0
C541 C 0.1265 0.77042 0.22973 0.0
C542 C 0.16042 0.72006 0.25193 0.0
C543 C 0.15126 0.72112 0.27007 0.0
C544 C 0.18228 0.71136 0.28289 0.0
C545 C 0.2233 0.69923 0.27694 0.0
C546 C 0.23275 0.69705 0.25835 0.0
C547 C 0.20098 0.70872 0.24583 0.0
H548 H 0.75247 0.47852 0.48724 0.0
H549 H 0.71792 0.50463 0.54257 0.0
H550 H 0.68279 0.57256 0.53308 0.0
H551 H 0.77539 0.58551 0.47394 0.0
H552 H 0.75234 0.57958 0.45191 0.0
H553 H 0.77452 0.5335 0.46317 0.0
H554 H 0.70244 0.49283 0.4598 0.0
H555 H 0.68018 0.53859 0.44835 0.0
H556 H 0.65397 0.5174 0.468 0.0
H557 H 0.65564 0.63983 0.5173 0.0
H558 H 0.63018 0.69592 0.4963 0.0
H559 H 0.67915 0.62165 0.45144 0.0
C560 C 0.73743 0.49851 0.49737 0.0
C561 C 0.73806 0.48685 0.51562 0.0
C562 C 0.71756 0.51325 0.52849 0.0
C563 C 0.69785 0.55185 0.52324 0.0
C564 C 0.69847 0.5628 0.50509 0.0
C565 C 0.71706 0.53641 0.49234 0.0
C566 C 0.71232 0.55437 0.47364 0.0
C567 C 0.75626 0.5638 0.46518 0.0
C568 C 0.68563 0.52399 0.46176 0.0
C569 C 0.68847 0.59537 0.4778 0.0
C570 C 0.6812 0.60007 0.49601 0.0
C571 C 0.66078 0.63626 0.50302 0.0
C572 C 0.6467 0.668 0.49102 0.0
C573 C 0.65258 0.66277 0.4723 0.0
C574 C 0.67398 0.62618 0.46569 0.0
H575 H 0.70481 0.2616 0.51605 0.0
H576 H 0.76152 0.30877 0.46674 0.0
H577 H 0.69742 0.28491 0.44995 0.0
H578 H 0.64452 0.16833 0.49591 0.0
H579 H 0.60033 0.17719 0.51102 0.0
H580 H 0.65411 0.18948 0.51809 0.0
H581 H 0.63034 0.26725 0.52583 0.0
H582 H 0.57687 0.25564 0.51847 0.0
H583 H 0.60595 0.29993 0.50869 0.0
H584 H 0.62135 0.26684 0.43965 0.0
H585 H 0.54348 0.25271 0.43681 0.0
H586 H 0.53848 0.21947 0.49331 0.0
C587 C 0.7045 0.26555 0.50162 0.0
C588 C 0.7382 0.2869 0.4927 0.0
C589 C 0.7363 0.29196 0.47382 0.0
C590 C 0.69989 0.27868 0.46419 0.0
C591 C 0.66609 0.2599 0.47362 0.0
C592 C 0.66859 0.25264 0.4919 0.0
C593 C 0.62675 0.23617 0.49937 0.0
C594 C 0.63174 0.19005 0.50651 0.0
C595 C 0.60896 0.26657 0.51393 0.0
C596 C 0.59961 0.23708 0.48264 0.0
C597 C 0.62274 0.25015 0.46781 0.0
C598 C 0.60318 0.25585 0.45113 0.0
C599 C 0.55893 0.24795 0.44965 0.0
C600 C 0.53479 0.23513 0.46484 0.0
C601 C 0.55582 0.22927 0.48141 0.0
H602 H 0.28248 0.49854 0.50901 0.0
H603 H 0.18212 0.43254 0.53809 0.0
H604 H 0.2123 0.36224 0.52879 0.0
H605 H 0.27605 0.4356 0.472 0.0
H606 H 0.33219 0.43512 0.46645 0.0
H607 H 0.31012 0.47952 0.47886 0.0
H608 H 0.36491 0.46771 0.50435 0.0
H609 H 0.38796 0.42367 0.49189 0.0
H610 H 0.36965 0.41536 0.51456 0.0
H611 H 0.24711 0.30056 0.51318 0.0
H612 H 0.28338 0.25131 0.49204 0.0
H613 H 0.35755 0.35834 0.47117 0.0
C614 C 0.26835 0.46911 0.5141 0.0
C615 C 0.23114 0.47031 0.52473 0.0
C616 C 0.21151 0.43169 0.53037 0.0
C617 C 0.22836 0.39183 0.52512 0.0
C618 C 0.26434 0.39154 0.51404 0.0
C619 C 0.28421 0.42919 0.50862 0.0
C620 C 0.3183 0.42047 0.49464 0.0
C621 C 0.30854 0.44407 0.47695 0.0
C622 C 0.36285 0.4325 0.5018 0.0
C623 C 0.31348 0.37225 0.49259 0.0
C624 C 0.28287 0.35609 0.50418 0.0
C625 C 0.27153 0.31271 0.50421 0.0
C626 C 0.29212 0.28506 0.49212 0.0
C627 C 0.32308 0.30111 0.47997 0.0
C628 C 0.33393 0.34522 0.48029 0.0
H629 H 0.45985 0.63699 0.47046 0.0
H630 H 0.4293 0.72021 0.42575 0.0
H631 H 0.3524 0.70228 0.42937 0.0
H632 H 0.36971 0.55573 0.4639 0.0
H633 H 0.36329 0.55131 0.48786 0.0
H634 H 0.41549 0.56132 0.47842 0.0
H635 H 0.42267 0.62895 0.49865 0.0
H636 H 0.37032 0.61991 0.50778 0.0
H637 H 0.38273 0.67068 0.49731 0.0
H638 H 0.27751 0.68505 0.44183 0.0
H639 H 0.21446 0.66923 0.4612 0.0
H640 H 0.29698 0.60182 0.49838 0.0
C641 C 0.43716 0.64995 0.46092 0.0
C642 C 0.45036 0.67966 0.44776 0.0
C643 C 0.41983 0.6967 0.43571 0.0
C644 C 0.37608 0.68684 0.43775 0.0
C645 C 0.36378 0.65949 0.45172 0.0
C646 C 0.39378 0.64065 0.46287 0.0
C647 C 0.37297 0.6173 0.47836 0.0
C648 C 0.38083 0.56853 0.47704 0.0
C649 C 0.38806 0.63533 0.49658 0.0
C650 C 0.3267 0.62799 0.47486 0.0
C651 C 0.32152 0.65127 0.45922 0.0
C652 C 0.28128 0.66633 0.45396 0.0
C653 C 0.24574 0.65745 0.46503 0.0
C654 C 0.25122 0.63496 0.48135 0.0
C655 C 0.29206 0.61965 0.48607 0.0
H656 H 0.30705 0.24991 0.38981 0.0
H657 H 0.34505 0.11665 0.39604 0.0
H658 H 0.30291 0.09687 0.36915 0.0
H659 H 0.19925 0.22602 0.3781 0.0
H660 H 0.19398 0.26972 0.36238 0.0
H661 H 0.23059 0.27433 0.38093 0.0
H662 H 0.29289 0.29008 0.35892 0.0
H663 H 0.25637 0.28597 0.34031 0.0
H664 H 0.3037 0.25291 0.34087 0.0
H665 H 0.25712 0.09196 0.34135 0.0
H666 H 0.20704 0.10154 0.3159 0.0
H667 H 0.19276 0.23629 0.32994 0.0
C668 C 0.30711 0.21679 0.38524 0.0
C669 C 0.3298 0.18484 0.39468 0.0
C670 C 0.32813 0.14154 0.38878 0.0
C671 C 0.30433 0.13005 0.37356 0.0
C672 C 0.28165 0.16214 0.36466 0.0
C673 C 0.28248 0.20456 0.37037 0.0
C674 C 0.25279 0.23218 0.35922 0.0
C675 C 0.21704 0.2517 0.37086 0.0
C676 C 0.27795 0.26736 0.34924 0.0
C677 C 0.23529 0.19874 0.34635 0.0
C678 C 0.2528 0.15866 0.34953 0.0
C679 C 0.24285 0.12309 0.33885 0.0
C680 C 0.2144 0.12875 0.32447 0.0
C681 C 0.19558 0.16938 0.32123 0.0
C682 C 0.20598 0.20463 0.33241 0.0
H683 H 0.2347 0.65233 0.60123 0.0
H684 H 0.24752 0.75678 0.56309 0.0
H685 H 0.25813 0.80805 0.58816 0.0
H686 H 0.17105 0.70816 0.63082 0.0
H687 H 0.19261 0.68469 0.65097 0.0
H688 H 0.19448 0.65516 0.63022 0.0
H689 H 0.27667 0.6471 0.63325 0.0
H690 H 0.27505 0.67644 0.65414 0.0
H691 H 0.30938 0.69443 0.6362 0.0
H692 H 0.26008 0.84864 0.61732 0.0
H693 H 0.24888 0.87614 0.64806 0.0
H694 H 0.23015 0.74548 0.66706 0.0
C695 C 0.24121 0.68576 0.59814 0.0
C696 C 0.24108 0.70059 0.58025 0.0
C697 C 0.24802 0.74479 0.57673 0.0
C698 C 0.25419 0.77406 0.59087 0.0
C699 C 0.25296 0.75858 0.60842 0.0
C700 C 0.24654 0.71544 0.6121 0.0
C701 C 0.24121 0.70778 0.63204 0.0
C702 C 0.19723 0.68779 0.63625 0.0
C703 C 0.27777 0.67978 0.63934 0.0
C704 C 0.24437 0.75348 0.63898 0.0
C705 C 0.25212 0.78219 0.6252 0.0
C706 C 0.25446 0.82641 0.62823 0.0
C707 C 0.24804 0.84172 0.64575 0.0
C708 C 0.23863 0.81294 0.65995 0.0
C709 C 0.23747 0.76823 0.6565 0.0
H710 H 0.63339 0.77437 0.37292 0.0
H711 H 0.70893 0.8291 0.41619 0.0
H712 H 0.76494 0.84962 0.39457 0.0
H713 H 0.71778 0.72973 0.34852 0.0
H714 H 0.6968 0.74249 0.32665 0.0
H715 H 0.66088 0.73509 0.34527 0.0
H716 H 0.62864 0.81075 0.33976 0.0
H717 H 0.66447 0.81834 0.32106 0.0
H718 H 0.66346 0.85703 0.33912 0.0
H719 H 0.81705 0.85474 0.36918 0.0
H720 H 0.85859 0.85047 0.34089 0.0
H721 H 0.74728 0.79913 0.31357 0.0
C722 C 0.66139 0.79132 0.37777 0.0
C723 C 0.66679 0.80008 0.39624 0.0
C724 C 0.70395 0.82221 0.40209 0.0
C725 C 0.73603 0.834 0.38992 0.0
C726 C 0.73015 0.82426 0.37186 0.0
C727 C 0.69345 0.80413 0.36572 0.0
C728 C 0.69574 0.79642 0.34567 0.0
C729 C 0.69263 0.74807 0.34128 0.0
C730 C 0.66101 0.82218 0.33582 0.0
C731 C 0.73998 0.81398 0.34165 0.0
C732 C 0.75937 0.82976 0.35696 0.0
C733 C 0.80186 0.84359 0.35698 0.0
C734 C 0.82522 0.841 0.34092 0.0
C735 C 0.80571 0.82551 0.32508 0.0
C736 C 0.76242 0.81246 0.32541 0.0
H737 H 0.76913 0.14432 0.65367 0.0
H738 H 0.71676 0.24134 0.68927 0.0
H739 H 0.69714 0.28595 0.66311 0.0
H740 H 0.82017 0.21614 0.62607 0.0
H741 H 0.81198 0.18694 0.60543 0.0
H742 H 0.81334 0.15849 0.62639 0.0
H743 H 0.73857 0.126 0.61979 0.0
H744 H 0.73703 0.15436 0.59871 0.0
H745 H 0.69443 0.16128 0.61477 0.0
H746 H 0.69091 0.32344 0.63374 0.0
H747 H 0.70376 0.35389 0.60368 0.0
H748 H 0.76445 0.23455 0.5872 0.0
C749 C 0.75215 0.17426 0.65584 0.0
C750 C 0.74365 0.18924 0.67336 0.0
C751 C 0.72305 0.22931 0.67587 0.0
C752 C 0.71161 0.25467 0.66111 0.0
C753 C 0.72144 0.23963 0.64397 0.0
C754 C 0.74144 0.20043 0.64125 0.0
C755 C 0.75405 0.1946 0.62176 0.0
C756 C 0.80276 0.18873 0.61981 0.0
C757 C 0.72955 0.15681 0.61326 0.0
C758 C 0.73944 0.23724 0.6141 0.0
C759 C 0.71968 0.26224 0.62703 0.0
C760 C 0.70581 0.30396 0.62344 0.0
C761 C 0.71327 0.32099 0.60631 0.0
C762 C 0.73508 0.29658 0.5931 0.0
C763 C 0.74738 0.25384 0.59698 0.0
H764 H 0.15424 0.33208 0.88857 0.0
H765 H 0.24768 0.36722 0.92911 0.0
H766 H 0.30114 0.38052 0.90546 0.0
H767 H 0.22224 0.27486 0.86125 0.0
H768 H 0.19999 0.29238 0.84019 0.0
H769 H 0.16707 0.29148 0.85998 0.0
H770 H 0.14931 0.37227 0.85571 0.0
H771 H 0.18205 0.37337 0.83578 0.0
H772 H 0.19223 0.41082 0.85379 0.0
H773 H 0.34747 0.37794 0.87827 0.0
H774 H 0.38189 0.3655 0.84881 0.0
H775 H 0.25809 0.33698 0.82546 0.0
C776 C 0.1856 0.34369 0.89243 0.0
C777 C 0.19674 0.34863 0.9107 0.0
C778 C 0.23829 0.36336 0.91522 0.0
C779 C 0.26893 0.37106 0.90187 0.0
C780 C 0.25736 0.36462 0.88403 0.0
C781 C 0.2165 0.352 0.87924 0.0
C782 C 0.21322 0.34474 0.85917 0.0
C783 C 0.19986 0.2981 0.85491 0.0
C784 C 0.18237 0.37725 0.85061 0.0
C785 C 0.25904 0.35342 0.85357 0.0
C786 C 0.28394 0.36501 0.86812 0.0
C787 C 0.32814 0.37009 0.86667 0.0
C788 C 0.34744 0.36281 0.84995 0.0
C789 C 0.32248 0.35114 0.83489 0.0
C790 C 0.27767 0.34718 0.83667 0.0
H791 H 0.30195 0.66618 0.14472 0.0
H792 H 0.26736 0.77471 0.17844 0.0
H793 H 0.25188 0.81792 0.15138 0.0
H794 H 0.35783 0.7271 0.11274 0.0
H795 H 0.34172 0.69498 0.09373 0.0
H796 H 0.3448 0.67098 0.11564 0.0
H797 H 0.26579 0.64635 0.11304 0.0
H798 H 0.26246 0.67035 0.09109 0.0
H799 H 0.22484 0.68554 0.10831 0.0
H800 H 0.24363 0.85022 0.12082 0.0
H801 H 0.24878 0.87155 0.08903 0.0
H802 H 0.29257 0.74309 0.07521 0.0
C803 C 0.2903 0.69877 0.14639 0.0
C804 C 0.28535 0.71707 0.16362 0.0
C805 C 0.27117 0.76013 0.16532 0.0
C806 C 0.2621 0.78479 0.15005 0.0
C807 C 0.26777 0.76597 0.13322 0.0
C808 C 0.28185 0.72405 0.13129 0.0
C809 C 0.2891 0.71279 0.11173 0.0
C810 C 0.33615 0.70078 0.10827 0.0
C811 C 0.25873 0.67661 0.10569 0.0
C812 C 0.27763 0.75518 0.10298 0.0
C813 C 0.26465 0.78515 0.11559 0.0
C814 C 0.25352 0.82698 0.11081 0.0
C815 C 0.2565 0.83875 0.09271 0.0
C816 C 0.27109 0.80899 0.07964 0.0
C817 C 0.28117 0.7665 0.08487 0.0
H818 H 0.83484 0.65804 0.9054 0.0
H819 H 0.74015 0.62031 0.945 0.0
H820 H 0.68718 0.60926 0.92089 0.0
H821 H 0.76818 0.71806 0.8788 0.0
H822 H 0.79119 0.70224 0.85761 0.0
H823 H 0.82331 0.70125 0.8776 0.0
H824 H 0.84083 0.62077 0.8721 0.0
H825 H 0.80889 0.62155 0.85198 0.0
H826 H 0.7978 0.58265 0.86929 0.0
H827 H 0.64169 0.6139 0.8932 0.0
H828 H 0.60877 0.62877 0.86366 0.0
H829 H 0.73388 0.65928 0.8419 0.0
C830 C 0.80329 0.64638 0.90896 0.0
C831 C 0.79164 0.63999 0.92707 0.0
C832 C 0.74989 0.62517 0.9312 0.0
C833 C 0.71956 0.61879 0.91759 0.0
C834 C 0.73169 0.62663 0.8999 0.0
C835 C 0.77279 0.63939 0.89552 0.0
C836 C 0.77693 0.64834 0.87563 0.0
C837 C 0.79069 0.69525 0.87223 0.0
C838 C 0.80795 0.61641 0.86673 0.0
C839 C 0.73133 0.64041 0.86964 0.0
C840 C 0.70573 0.6277 0.88381 0.0
C841 C 0.6616 0.62274 0.8819 0.0
C842 C 0.64315 0.63139 0.86512 0.0
C843 C 0.6689 0.64445 0.85048 0.0
C844 C 0.71359 0.64819 0.85274 0.0
H845 H 0.69906 0.16393 0.09043 0.0
H846 H 0.72645 0.27673 0.05815 0.0
H847 H 0.73694 0.31966 0.08577 0.0
H848 H 0.6367 0.21794 0.12231 0.0
H849 H 0.65432 0.18651 0.14122 0.0
H850 H 0.65468 0.16334 0.11908 0.0
H851 H 0.73532 0.14572 0.12237 0.0
H852 H 0.7352 0.16886 0.14457 0.0
H853 H 0.77243 0.18816 0.12793 0.0
H854 H 0.74011 0.35111 0.11662 0.0
H855 H 0.73085 0.37053 0.14847 0.0
H856 H 0.69784 0.23798 0.16075 0.0
C857 C 0.70819 0.19744 0.08921 0.0
C858 C 0.71246 0.217 0.0722 0.0
C859 C 0.72325 0.26117 0.07108 0.0
C860 C 0.72946 0.2857 0.08668 0.0
C861 C 0.72442 0.26561 0.10325 0.0
C862 C 0.71379 0.22254 0.10463 0.0
C863 C 0.70631 0.20976 0.124 0.0
C864 C 0.66027 0.19345 0.12681 0.0
C865 C 0.73929 0.17613 0.13007 0.0
C866 C 0.71355 0.25258 0.13326 0.0
C867 C 0.72472 0.28415 0.12107 0.0
C868 C 0.73167 0.32662 0.12632 0.0
C869 C 0.72634 0.33731 0.14445 0.0
C870 C 0.71362 0.30577 0.1571 0.0
C871 C 0.70779 0.26274 0.15142 0.0
H872 H 0.93799 0.9252 0.26752 0.0
H873 H 0.92244 0.9017 0.2104 0.0
H874 H 0.97084 0.96234 0.20383 0.0
H875 H 0.94406 0.04337 0.2645 0.0
H876 H 0.98332 0.04672 0.28215 0.0
H877 H 0.94464 0.0037 0.28213 0.0
H878 H 0.00658 0.94836 0.28348 0.0
H879 H 0.04547 0.99115 0.28298 0.0
H880 H 0.0473 0.94902 0.26633 0.0
H881 H 0.02524 0.0213 0.20346 0.0
H882 H 0.07411 0.08209 0.20916 0.0
H883 H 0.05439 0.06699 0.26654 0.0
C884 C 0.94382 0.93342 0.25361 0.0
C885 C 0.92638 0.90861 0.23948 0.0
C886 C 0.93534 0.92023 0.22147 0.0
C887 C 0.96302 0.95446 0.21759 0.0
C888 C 0.98127 0.97685 0.23186 0.0
C889 C 0.97142 0.96743 0.24949 0.0
C890 C -0.00406 -0.00388 0.26232 0.0
C891 C 0.96516 0.02415 0.27342 0.0
C892 C 0.02557 0.96956 0.27449 0.0
C893 C 0.02138 0.02286 0.24913 0.0
C894 C 0.01261 0.01104 0.23163 0.0
C895 C 0.03216 0.03111 0.21709 0.0
C896 C 0.06011 0.06542 0.22049 0.0
C897 C 0.06812 0.0794 0.2383 0.0
C898 C 0.04927 0.05695 0.25278 0.0
H899 H 0.93106 0.05837 0.6924 0.0
H900 H 0.91906 0.07879 0.74974 0.0
H901 H 0.97363 0.02256 0.75513 0.0
H902 H 0.94239 0.94669 0.69306 0.0
H903 H 0.98177 0.94413 0.6754 0.0
H904 H 0.94383 0.98768 0.67597 0.0
H905 H 0.00545 0.04366 0.67599 0.0
H906 H 0.04356 0.00032 0.67486 0.0
H907 H 0.04718 0.0397 0.69259 0.0
H908 H 0.02403 0.9582 0.75399 0.0
H909 H 0.07697 0.9019 0.74642 0.0
H910 H 0.05794 0.92741 0.68979 0.0
C911 C 0.94067 0.05167 0.70608 0.0
C912 C 0.92101 0.07278 0.72066 0.0
C913 C 0.93412 0.06322 0.73838 0.0
C914 C 0.96471 0.03102 0.74156 0.0
C915 C 0.98217 0.00945 0.72685 0.0
C916 C 0.97148 0.02029 0.70944 0.0
C917 C -0.00488 -0.0071 0.69592 0.0
C918 C 0.9639 0.96628 0.68442 0.0
C919 C 0.02459 0.02081 0.68416 0.0
C920 C 0.02047 0.96448 0.7084 0.0
C921 C 0.01218 0.97397 0.72619 0.0
C922 C 0.03124 0.95097 0.7401 0.0
C923 C 0.06102 0.91882 0.73568 0.0
C924 C 0.07187 0.91069 0.71753 0.0
C925 C 0.0504 0.93309 0.70379 0.0
H926 H 0.05458 0.42325 0.97017 0.0
H927 H 0.08643 0.39644 0.02574 0.0
H928 H 0.03907 0.45584 0.03544 0.0
H929 H 0.04607 0.54003 0.97431 0.0
H930 H 0.00186 0.54225 0.95884 0.0
H931 H 0.0415 0.50056 0.95665 0.0
H932 H 0.9812 0.44319 0.95821 0.0
H933 H 0.94152 0.48465 0.96096 0.0
H934 H 0.94586 0.44228 0.97734 0.0
H935 H 0.98478 0.5162 0.03893 0.0
H936 H 0.9339 0.57663 0.03569 0.0
H937 H 0.93593 0.55935 0.97785 0.0
C938 C 0.05258 0.43041 0.98437 0.0
C939 C 0.07443 0.40529 -0.00281 0.0
C940 C 0.07021 0.41544 0.01566 0.0
C941 C 0.04316 0.44891 0.02131 0.0
C942 C 0.02055 0.47167 0.00831 0.0
C943 C 0.02545 0.46313 0.99022 0.0
C944 C -0.00338 0.49103 0.97891 0.0
C945 C 0.02309 0.5202 0.96645 0.0
C946 C 0.9644 0.46364 0.96823 0.0
C947 C 0.97459 0.51666 0.99345 0.0
C948 C 0.9887 0.50516 0.01033 0.0
C949 C 0.9735 0.52546 0.02577 0.0
C950 C 0.94436 0.55951 0.02381 0.0
C951 C 0.93073 0.57267 0.00653 0.0
C952 C 0.94524 0.54994 0.99127 0.0
H953 H 0.42642 0.94272 0.04749 0.0
H954 H 0.42343 0.90229 0.99179 0.0
H955 H 0.47335 0.96153 0.98398 0.0
H956 H 0.42679 0.05424 0.0399 0.0
H957 H 0.46279 0.06663 0.05808 0.0
H958 H 0.42885 0.01987 0.05935 0.0
H959 H 0.49487 0.97071 0.06421 0.0
H960 H 0.52887 0.01747 0.06351 0.0
H961 H 0.53874 0.97297 0.04852 0.0
H962 H 0.52021 0.0293 0.98237 0.0
H963 H 0.56876 0.09102 0.98783 0.0
H964 H 0.53998 0.08466 0.0447 0.0
C965 C 0.43684 0.94583 0.03368 0.0
C966 C 0.42116 0.91808 0.02023 0.0
C967 C 0.43543 0.92308 0.00232 0.0
C968 C 0.46336 0.95689 -0.00225 0.0
C969 C 0.47679 0.98489 0.0113 0.0
C970 C 0.46463 0.979 0.02896 0.0
C971 C 0.48358 0.01286 0.04114 0.0
C972 C 0.44839 0.03999 0.05014 0.0
C973 C 0.51329 -0.00773 0.05516 0.0
C974 C 0.50837 0.03897 0.02762 0.0
C975 C 0.50381 0.02285 0.01043 0.0
C976 C 0.52419 0.04197 -0.0042 0.0
C977 C 0.55142 0.07723 -0.001 0.0
C978 C 0.55827 0.09238 0.01671 0.0
C979 C 0.53534 0.07375 0.03102 0.0
H980 H 0.45154 0.43157 0.77777 0.0
H981 H 0.43512 0.42321 0.72002 0.0
H982 H 0.48788 0.48194 0.71607 0.0
H983 H 0.46546 0.54681 0.78074 0.0
H984 H 0.50483 0.54227 0.79829 0.0
H985 H 0.4638 0.50195 0.79604 0.0
H986 H 0.52265 0.44322 0.79414 0.0
H987 H 0.56388 0.48357 0.79578 0.0
H988 H 0.56324 0.44692 0.777 0.0
H989 H 0.54429 0.54098 0.71877 0.0
H990 H 0.59291 0.59984 0.72802 0.0
H991 H 0.57442 0.56405 0.7838 0.0
C992 C 0.45819 0.44255 0.76427 0.0
C993 C 0.43895 0.42292 0.74921 0.0
C994 C 0.44923 0.43799 0.73178 0.0
C995 C 0.47943 0.47104 0.7294 0.0
C996 C 0.49918 0.48829 0.74457 0.0
C997 C 0.48855 0.47479 0.76166 0.0
C998 C 0.51458 0.49772 0.77579 0.0
C999 C 0.48544 0.52374 0.78845 0.0
C1000 C 0.54275 0.46595 0.78629 0.0
C1001 C 0.54132 0.52671 0.76404 0.0
C1002 C 0.53226 0.52082 0.74606 0.0
C1003 C 0.55176 0.54572 0.73281 0.0
C1004 C 0.57964 0.57883 0.73819 0.0
C1005 C 0.58759 0.58659 0.75665 0.0
C1006 C 0.56942 0.55889 0.76958 0.0
H1007 H 0.54266 0.41606 0.19107 0.0
H1008 H 0.56322 0.39473 0.2479 0.0
H1009 H 0.52069 0.46012 0.25479 0.0
H1010 H 0.55749 0.52638 0.19198 0.0
H1011 H 0.51753 0.53816 0.17528 0.0
H1012 H 0.54449 0.48702 0.17502 0.0
H1013 H 0.47189 0.44659 0.17668 0.0
H1014 H 0.44461 0.49758 0.1763 0.0
H1015 H 0.43438 0.46002 0.1942 0.0
H1016 H 0.47949 0.53257 0.25477 0.0
H1017 H 0.43789 0.59855 0.24793 0.0
H1018 H 0.45072 0.57156 0.19104 0.0
C1019 C 0.53744 0.42441 0.20502 0.0
C1020 C 0.55635 0.40039 0.21894 0.0
C1021 C 0.54886 0.41257 0.237 0.0
C1022 C 0.52505 0.44987 0.24103 0.0
C1023 C 0.50902 0.47428 0.22682 0.0
C1024 C 0.51447 0.46144 0.2092 0.0
C1025 C 0.49607 0.49355 0.19619 0.0
C1026 C 0.53099 0.51237 0.1839 0.0
C1027 C 0.45956 0.47323 0.1852 0.0
C1028 C 0.47953 0.52689 0.20916 0.0
C1029 C 0.48698 0.5155 0.22679 0.0
C1030 C 0.47342 0.54159 0.24099 0.0
C1031 C 0.45013 0.5792 0.23699 0.0
C1032 C 0.44087 0.59016 0.21895 0.0
C1033 C 0.45721 0.56425 0.20498 0.0
H1034 H 0.43095 0.05423 0.49371 0.0
H1035 H 0.39568 0.07173 0.43783 0.0
H1036 H 0.4216 -0.00118 0.43089 0.0
H1037 H 0.5267 0.00228 0.48569 0.0
H1038 H 0.52314 0.96472 0.50404 0.0
H1039 H 0.49633 0.01584 0.50549 0.0
H1040 H 0.42408 0.97741 0.51141 0.0
H1041 H 0.45078 0.92607 0.51028 0.0
H1042 H 0.40559 0.93674 0.49596 0.0
H1043 H 0.45896 0.92938 0.42908 0.0
H1044 H 0.50094 0.86321 0.43285 0.0
H1045 H 0.51188 0.88914 0.49 0.0
C1046 C 0.42753 0.0422 0.48014 0.0
C1047 C 0.41128 0.06853 0.46631 0.0
C1048 C 0.40809 0.05207 0.44862 0.0
C1049 C 0.42265 0.0107 0.44455 0.0
C1050 C 0.44 0.98618 0.45832 0.0
C1051 C 0.44204 0.00091 0.47581 0.0
C1052 C 0.46492 0.96902 0.48778 0.0
C1053 C 0.50515 0.98919 0.49624 0.0
C1054 C 0.43452 0.95125 0.50221 0.0
C1055 C 0.47648 0.93476 0.47415 0.0
C1056 C 0.46157 0.94536 0.45728 0.0
C1057 C 0.47024 0.92027 0.44225 0.0
C1058 C 0.49444 0.88293 0.44454 0.0
C1059 C 0.50962 0.87098 0.46174 0.0
C1060 C 0.5004 0.89727 0.47673 0.0
H1061 H 0.9224 0.42294 0.52827 0.0
H1062 H 0.89423 0.42615 0.58524 0.0
H1063 H 0.95116 0.48009 0.5898 0.0
H1064 H 0.03922 0.43876 0.53214 0.0
H1065 H 0.04169 0.47275 0.51259 0.0
H1066 H 0.00139 0.43142 0.51414 0.0
H1067 H 0.94286 0.48903 0.50885 0.0
H1068 H 0.98292 0.53069 0.50777 0.0
H1069 H 0.93962 0.53486 0.52367 0.0
H1070 H 0.00841 0.53466 0.58828 0.0
H1071 H 0.06824 0.58359 0.58103 0.0
H1072 H 0.05754 0.54929 0.52479 0.0
C1073 C 0.9293 0.4341 0.54174 0.0
C1074 C 0.90463 0.42006 0.55649 0.0
C1075 C 0.9133 0.4363 0.57386 0.0
C1076 C 0.9453 0.46708 0.57655 0.0
C1077 C 0.96798 0.48162 0.56168 0.0
C1078 C 0.96087 0.46548 0.54463 0.0
C1079 C 0.98903 0.48799 0.53096 0.0
C1080 C 0.01966 0.45582 0.52193 0.0
C1081 C 0.96197 0.51207 0.51699 0.0
C1082 C 0.01295 0.51917 0.54302 0.0
C1083 C 0.00015 0.51482 0.56068 0.0
C1084 C 0.01858 0.53864 0.5745 0.0
C1085 C 0.05221 0.56654 0.57026 0.0
C1086 C 0.0666 0.57076 0.55236 0.0
C1087 C 0.0461 0.54759 0.53849 0.0
loop_
_geom_bond_atom_site_label_1
_geom_bond_atom_site_label_2
_geom_bond_distance
_geom_bond_site_symmetry_2
_ccdc_geom_bond_type
C0 O1 1.306 . S
C0 O3 1.160 . S
O1 C0 1.306 . S
O1 Cd2 2.228 . S
Cd2 O1 2.228 . S
Cd2 O6 2.273 . S
Cd2 O10 2.277 . S
O3 C0 1.160 . S
O3 Cd4 2.203 . S
Cd4 O3 2.203 . S
Cd4 O6 2.411 . S
Cd4 O7 2.333 . S
Cd4 O8 2.352 . S
Cd4 O12 2.277 . S
Cd4 O13 2.356 . S
C5 O10 1.209 . S
C5 O12 1.226 . S
O6 Cd2 2.273 . S
O6 Cd4 2.411 . S
O6 C9 1.320 . S
O7 Cd4 2.333 . S
O7 C9 1.214 . S
O8 Cd4 2.352 . S
O8 C11 1.258 . S
C9 O6 1.320 . S
C9 O7 1.214 . S
O10 Cd2 2.277 . S
O10 C5 1.209 . S
C11 O8 1.258 . S
C11 O13 1.282 . S
O12 Cd4 2.277 . S
O12 C5 1.226 . S
O13 Cd4 2.356 . S
O13 C11 1.282 . S
C14 O15 1.306 . S
C14 O17 1.160 . S
O15 C14 1.306 . S
O15 Cd16 2.228 . S
Cd16 O15 2.228 . S
Cd16 O20 2.273 . S
Cd16 O24 2.277 . S
O17 C14 1.160 . S
O17 Cd18 2.203 . S
Cd18 O17 2.203 . S
Cd18 O20 2.411 . S
Cd18 O21 2.333 . S
Cd18 O22 2.352 . S
Cd18 O26 2.277 . S
Cd18 O27 2.356 . S
C19 O24 1.209 . S
C19 O26 1.226 . S
O20 Cd16 2.273 . S
O20 Cd18 2.411 . S
O20 C23 1.320 . S
O21 Cd18 2.333 . S
O21 C23 1.214 . S
O22 Cd18 2.352 . S
O22 C25 1.258 . S
C23 O20 1.320 . S
C23 O21 1.214 . S
O24 Cd16 2.277 . S
O24 C19 1.209 . S
C25 O22 1.258 . S
C25 O27 1.282 . S
O26 Cd18 2.277 . S
O26 C19 1.226 . S
O27 Cd18 2.356 . S
O27 C25 1.282 . S
C28 O29 1.306 . S
C28 O31 1.160 . S
O29 C28 1.306 . S
O29 Cd30 2.228 . S
Cd30 O29 2.228 . S
Cd30 O34 2.273 . S
Cd30 O38 2.277 . S
O31 C28 1.160 . S
O31 Cd32 2.203 . S
Cd32 O31 2.203 . S
Cd32 O34 2.411 . S
Cd32 O35 2.333 . S
Cd32 O36 2.352 . S
Cd32 O40 2.277 . S
Cd32 O41 2.356 . S
C33 O38 1.209 . S
C33 O40 1.226 . S
O34 Cd30 2.273 . S
O34 Cd32 2.411 . S
O34 C37 1.320 . S
O35 Cd32 2.333 . S
O35 C37 1.214 . S
O36 Cd32 2.352 . S
O36 C39 1.258 . S
C37 O34 1.320 . S
C37 O35 1.214 . S
O38 Cd30 2.277 . S
O38 C33 1.209 . S
C39 O36 1.258 . S
C39 O41 1.282 . S
O40 Cd32 2.277 . S
O40 C33 1.226 . S
O41 Cd32 2.356 . S
O41 C39 1.282 . S
C42 O43 1.306 . S
C42 O45 1.160 . S
O43 C42 1.306 . S
O43 Cd44 2.228 . S
Cd44 O43 2.228 . S
Cd44 O48 2.273 . S
Cd44 O52 2.277 . S
O45 C42 1.160 . S
O45 Cd46 2.203 . S
Cd46 O45 2.203 . S
Cd46 O48 2.411 . S
Cd46 O49 2.333 . S
Cd46 O50 2.352 . S
Cd46 O54 2.277 . S
Cd46 O55 2.356 . S
C47 O52 1.209 . S
C47 O54 1.226 . S
O48 Cd44 2.273 . S
O48 Cd46 2.411 . S
O48 C51 1.320 . S
O49 Cd46 2.333 . S
O49 C51 1.214 . S
O50 Cd46 2.352 . S
O50 C53 1.258 . S
C51 O48 1.320 . S
C51 O49 1.214 . S
O52 Cd44 2.277 . S
O52 C47 1.209 . S
C53 O50 1.258 . S
C53 O55 1.282 . S
O54 Cd46 2.277 . S
O54 C47 1.226 . S
O55 Cd46 2.356 . S
O55 C53 1.282 . S
C56 O57 1.306 . S
C56 O59 1.160 . S
O57 C56 1.306 . S
O57 Cd58 2.228 1_556 S
Cd58 O57 2.228 1_554 S
Cd58 O62 2.273 1_554 S
Cd58 O66 2.277 1_554 S
O59 C56 1.160 . S
O59 Cd60 2.203 . S
Cd60 O59 2.203 . S
Cd60 O62 2.411 . S
Cd60 O63 2.333 . S
Cd60 O64 2.352 . S
Cd60 O68 2.277 . S
Cd60 O69 2.356 . S
C61 O66 1.209 . S
C61 O68 1.226 . S
O62 Cd58 2.273 1_556 S
O62 Cd60 2.411 . S
O62 C65 1.320 . S
O63 Cd60 2.333 . S
O63 C65 1.214 . S
O64 Cd60 2.352 . S
O64 C67 1.258 . S
C65 O62 1.320 . S
C65 O63 1.214 . S
O66 Cd58 2.277 1_556 S
O66 C61 1.209 . S
C67 O64 1.258 . S
C67 O69 1.282 . S
O68 Cd60 2.277 . S
O68 C61 1.226 . S
O69 Cd60 2.356 . S
O69 C67 1.282 . S
C70 O71 1.306 . S
C70 O73 1.160 . S
O71 C70 1.306 . S
O71 Cd72 2.228 1_554 S
Cd72 O71 2.228 1_556 S
Cd72 O76 2.273 1_556 S
Cd72 O80 2.277 1_556 S
O73 C70 1.160 . S
O73 Cd74 2.203 . S
Cd74 O73 2.203 . S
Cd74 O76 2.411 . S
Cd74 O77 2.333 . S
Cd74 O78 2.352 . S
Cd74 O82 2.277 . S
Cd74 O83 2.356 . S
C75 O80 1.209 . S
C75 O82 1.226 . S
O76 Cd72 2.273 1_554 S
O76 Cd74 2.411 . S
O76 C79 1.320 . S
O77 Cd74 2.333 . S
O77 C79 1.214 . S
O78 Cd74 2.352 . S
O78 C81 1.258 . S
C79 O76 1.320 . S
C79 O77 1.214 . S
O80 Cd72 2.277 1_554 S
O80 C75 1.209 . S
C81 O78 1.258 . S
C81 O83 1.282 . S
O82 Cd74 2.277 . S
O82 C75 1.226 . S
O83 Cd74 2.356 . S
O83 C81 1.282 . S
C84 O85 1.306 . S
C84 O87 1.160 . S
O85 C84 1.306 . S
O85 Cd86 2.228 1_556 S
Cd86 O85 2.228 1_554 S
Cd86 O90 2.273 1_554 S
Cd86 O94 2.277 1_554 S
O87 C84 1.160 . S
O87 Cd88 2.203 . S
Cd88 O87 2.203 . S
Cd88 O90 2.411 . S
Cd88 O91 2.333 . S
Cd88 O92 2.352 . S
Cd88 O96 2.277 . S
Cd88 O97 2.356 . S
C89 O94 1.209 . S
C89 O96 1.226 . S
O90 Cd86 2.273 1_556 S
O90 Cd88 2.411 . S
O90 C93 1.320 . S
O91 Cd88 2.333 . S
O91 C93 1.214 . S
O92 Cd88 2.352 . S
O92 C95 1.258 . S
C93 O90 1.320 . S
C93 O91 1.214 . S
O94 Cd86 2.277 1_556 S
O94 C89 1.209 . S
C95 O92 1.258 . S
C95 O97 1.282 . S
O96 Cd88 2.277 . S
O96 C89 1.226 . S
O97 Cd88 2.356 . S
O97 C95 1.282 . S
C98 O99 1.306 . S
C98 O101 1.160 . S
O99 C98 1.306 . S
O99 Cd100 2.228 1_554 S
Cd100 O99 2.228 1_556 S
Cd100 O104 2.273 1_556 S
Cd100 O108 2.277 1_556 S
O101 C98 1.160 . S
O101 Cd102 2.203 . S
Cd102 O101 2.203 . S
Cd102 O104 2.411 . S
Cd102 O105 2.333 . S
Cd102 O106 2.352 . S
Cd102 O110 2.277 . S
Cd102 O111 2.356 . S
C103 O108 1.209 . S
C103 O110 1.226 . S
O104 Cd100 2.273 1_554 S
O104 Cd102 2.411 . S
O104 C107 1.320 . S
O105 Cd102 2.333 . S
O105 C107 1.214 . S
O106 Cd102 2.352 . S
O106 C109 1.258 . S
C107 O104 1.320 . S
C107 O105 1.214 . S
O108 Cd100 2.277 1_554 S
O108 C103 1.209 . S
C109 O106 1.258 . S
C109 O111 1.282 . S
O110 Cd102 2.277 . S
O110 C103 1.226 . S
O111 Cd102 2.356 . S
O111 C109 1.282 . S
C112 O113 1.306 . S
C112 O115 1.160 . S
O113 C112 1.306 . S
O113 Cd114 2.228 . S
Cd114 O113 2.228 . S
Cd114 O118 2.273 . S
Cd114 O122 2.277 . S
O115 C112 1.160 . S
O115 Cd116 2.203 . S
Cd116 O115 2.203 . S
Cd116 O118 2.411 . S
Cd116 O119 2.333 . S
Cd116 O120 2.352 . S
Cd116 O124 2.277 . S
Cd116 O125 2.356 . S
C117 O122 1.209 . S
C117 O124 1.226 . S
O118 Cd114 2.273 . S
O118 Cd116 2.411 . S
O118 C121 1.320 . S
O119 Cd116 2.333 . S
O119 C121 1.214 . S
O120 Cd116 2.352 . S
O120 C123 1.258 . S
C121 O118 1.320 . S
C121 O119 1.214 . S
O122 Cd114 2.277 . S
O122 C117 1.209 . S
C123 O120 1.258 . S
C123 O125 1.282 . S
O124 Cd116 2.277 . S
O124 C117 1.226 . S
O125 Cd116 2.356 . S
O125 C123 1.282 . S
C126 O127 1.306 . S
C126 O129 1.160 . S
O127 C126 1.306 . S
O127 Cd128 2.228 . S
Cd128 O127 2.228 . S
Cd128 O132 2.273 . S
Cd128 O136 2.277 . S
O129 C126 1.160 . S
O129 Cd130 2.203 . S
Cd130 O129 2.203 . S
Cd130 O132 2.411 . S
Cd130 O133 2.333 . S
Cd130 O134 2.352 . S
Cd130 O138 2.277 . S
Cd130 O139 2.356 . S
C131 O136 1.209 . S
C131 O138 1.226 . S
O132 Cd128 2.273 . S
O132 Cd130 2.411 . S
O132 C135 1.320 . S
O133 Cd130 2.333 . S
O133 C135 1.214 . S
O134 Cd130 2.352 . S
O134 C137 1.258 . S
C135 O132 1.320 . S
C135 O133 1.214 . S
O136 Cd128 2.277 . S
O136 C131 1.209 . S
C137 O134 1.258 . S
C137 O139 1.282 . S
O138 Cd130 2.277 . S
O138 C131 1.226 . S
O139 Cd130 2.356 . S
O139 C137 1.282 . S
C140 O141 1.306 . S
C140 O143 1.160 . S
O141 C140 1.306 . S
O141 Cd142 2.228 . S
Cd142 O141 2.228 . S
Cd142 O146 2.273 . S
Cd142 O150 2.277 . S
O143 C140 1.160 . S
O143 Cd144 2.203 . S
Cd144 O143 2.203 . S
Cd144 O146 2.411 . S
Cd144 O147 2.333 . S
Cd144 O148 2.352 . S
Cd144 O152 2.277 . S
Cd144 O153 2.356 . S
C145 O150 1.209 . S
C145 O152 1.226 . S
O146 Cd142 2.273 . S
O146 Cd144 2.411 . S
O146 C149 1.320 . S
O147 Cd144 2.333 . S
O147 C149 1.214 . S
O148 Cd144 2.352 . S
O148 C151 1.258 . S
C149 O146 1.320 . S
C149 O147 1.214 . S
O150 Cd142 2.277 . S
O150 C145 1.209 . S
C151 O148 1.258 . S
C151 O153 1.282 . S
O152 Cd144 2.277 . S
O152 C145 1.226 . S
O153 Cd144 2.356 . S
O153 C151 1.282 . S
C154 O155 1.306 . S
C154 O157 1.160 . S
O155 C154 1.306 . S
O155 Cd156 2.228 . S
Cd156 O155 2.228 . S
Cd156 O160 2.273 . S
Cd156 O164 2.277 . S
O157 C154 1.160 . S
O157 Cd158 2.203 . S
Cd158 O157 2.203 . S
Cd158 O160 2.411 . S
Cd158 O161 2.333 . S
Cd158 O162 2.352 . S
Cd158 O166 2.277 . S
Cd158 O167 2.356 . S
C159 O164 1.209 . S
C159 O166 1.226 . S
O160 Cd156 2.273 . S
O160 Cd158 2.411 . S
O160 C163 1.320 . S
O161 Cd158 2.333 . S
O161 C163 1.214 . S
O162 Cd158 2.352 . S
O162 C165 1.258 . S
C163 O160 1.320 . S
C163 O161 1.214 . S
O164 Cd156 2.277 . S
O164 C159 1.209 . S
C165 O162 1.258 . S
C165 O167 1.282 . S
O166 Cd158 2.277 . S
O166 C159 1.226 . S
O167 Cd158 2.356 . S
O167 C165 1.282 . S
C168 O169 1.306 . S
C168 O171 1.160 . S
O169 C168 1.306 . S
O169 Cd170 2.228 . S
Cd170 O169 2.228 . S
Cd170 O174 2.273 . S
Cd170 O178 2.277 . S
O171 C168 1.160 . S
O171 Cd172 2.203 . S
Cd172 O171 2.203 . S
Cd172 O174 2.411 . S
Cd172 O175 2.333 . S
Cd172 O176 2.352 . S
Cd172 O180 2.277 . S
Cd172 O181 2.356 . S
C173 O178 1.209 . S
C173 O180 1.226 . S
O174 Cd170 2.273 . S
O174 Cd172 2.411 . S
O174 C177 1.320 . S
O175 Cd172 2.333 . S
O175 C177 1.214 . S
O176 Cd172 2.352 . S
O176 C179 1.258 . S
C177 O174 1.320 . S
C177 O175 1.214 . S
O178 Cd170 2.277 . S
O178 C173 1.209 . S
C179 O176 1.258 . S
C179 O181 1.282 . S
O180 Cd172 2.277 . S
O180 C173 1.226 . S
O181 Cd172 2.356 . S
O181 C179 1.282 . S
C182 O183 1.306 . S
C182 O185 1.160 . S
O183 C182 1.306 . S
O183 Cd184 2.228 . S
Cd184 O183 2.228 . S
Cd184 O188 2.273 . S
Cd184 O192 2.277 . S
O185 C182 1.160 . S
O185 Cd186 2.203 . S
Cd186 O185 2.203 . S
Cd186 O188 2.411 . S
Cd186 O189 2.333 . S
Cd186 O190 2.352 . S
Cd186 O194 2.277 . S
Cd186 O195 2.356 . S
C187 O192 1.209 . S
C187 O194 1.226 . S
O188 Cd184 2.273 . S
O188 Cd186 2.411 . S
O188 C191 1.320 . S
O189 Cd186 2.333 . S
O189 C191 1.214 . S
O190 Cd186 2.352 . S
O190 C193 1.258 . S
C191 O188 1.320 . S
C191 O189 1.214 . S
O192 Cd184 2.277 . S
O192 C187 1.209 . S
C193 O190 1.258 . S
C193 O195 1.282 . S
O194 Cd186 2.277 . S
O194 C187 1.226 . S
O195 Cd186 2.356 . S
O195 C193 1.282 . S
C196 O197 1.306 . S
C196 O199 1.160 . S
O197 C196 1.306 . S
O197 Cd198 2.228 . S
Cd198 O197 2.228 . S
Cd198 O202 2.273 . S
Cd198 O206 2.277 . S
O199 C196 1.160 . S
O199 Cd200 2.203 . S
Cd200 O199 2.203 . S
Cd200 O202 2.411 . S
Cd200 O203 2.333 . S
Cd200 O204 2.352 . S
Cd200 O208 2.277 . S
Cd200 O209 2.356 . S
C201 O206 1.209 . S
C201 O208 1.226 . S
O202 Cd198 2.273 . S
O202 Cd200 2.411 . S
O202 C205 1.320 . S
O203 Cd200 2.333 . S
O203 C205 1.214 . S
O204 Cd200 2.352 . S
O204 C207 1.258 . S
C205 O202 1.320 . S
C205 O203 1.214 . S
O206 Cd198 2.277 . S
O206 C201 1.209 . S
C207 O204 1.258 . S
C207 O209 1.282 . S
O208 Cd200 2.277 . S
O208 C201 1.226 . S
O209 Cd200 2.356 . S
O209 C207 1.282 . S
C210 O211 1.306 . S
C210 O213 1.160 . S
O211 C210 1.306 . S
O211 Cd212 2.228 . S
Cd212 O211 2.228 . S
Cd212 O216 2.273 . S
Cd212 O220 2.277 . S
O213 C210 1.160 . S
O213 Cd214 2.203 . S
Cd214 O213 2.203 . S
Cd214 O216 2.411 . S
Cd214 O217 2.333 . S
Cd214 O218 2.352 . S
Cd214 O222 2.277 . S
Cd214 O223 2.356 . S
C215 O220 1.209 . S
C215 O222 1.226 . S
O216 Cd212 2.273 . S
O216 Cd214 2.411 . S
O216 C219 1.320 . S
O217 Cd214 2.333 . S
O217 C219 1.214 . S
O218 Cd214 2.352 . S
O218 C221 1.258 . S
C219 O216 1.320 . S
C219 O217 1.214 . S
O220 Cd212 2.277 . S
O220 C215 1.209 . S
C221 O218 1.258 . S
C221 O223 1.282 . S
O222 Cd214 2.277 . S
O222 C215 1.226 . S
O223 Cd214 2.356 . S
O223 C221 1.282 . S
H224 C236 0.930 . S
H225 C238 0.930 . S
H226 C239 0.930 . S
H227 C243 0.959 . S
H228 C243 0.959 . S
H229 C243 0.961 . S
H230 C244 0.960 . S
H231 C244 0.961 . S
H232 C244 0.959 . S
H233 C247 0.929 . S
H234 C248 0.931 . S
H235 C250 0.930 . S
C236 H224 0.930 . S
C236 C237 1.399 . S
C236 C241 1.399 . S
C237 C236 1.399 . S
C237 C238 1.376 . S
C238 H225 0.930 . S
C238 C237 1.376 . S
C238 C239 1.388 . S
C239 H226 0.930 . S
C239 C238 1.388 . S
C239 C240 1.390 . S
C240 C239 1.390 . S
C240 C241 1.394 . S
C240 C246 1.465 . S
C241 C236 1.399 . S
C241 C240 1.394 . S
C241 C242 1.516 . S
C242 C241 1.516 . S
C242 C243 1.502 . S
C242 C244 1.561 . S
C242 C245 1.526 . S
C243 H227 0.959 . S
C243 H228 0.959 . S
C243 H229 0.961 . S
C243 C242 1.502 . S
C244 H230 0.960 . S
C244 H231 0.961 . S
C244 H232 0.959 . S
C244 C242 1.561 . S
C245 C242 1.526 . S
C245 C246 1.396 . S
C245 C250 1.390 . S
C246 C240 1.465 . S
C246 C245 1.396 . S
C246 C247 1.399 . S
C247 H233 0.929 . S
C247 C246 1.399 . S
C247 C248 1.385 . S
C248 H234 0.931 . S
C248 C247 1.385 . S
C248 C249 1.389 . S
C249 C248 1.389 . S
C249 C250 1.387 . S
C250 H235 0.930 . S
C250 C245 1.390 . S
C250 C249 1.387 . S
H251 C263 0.930 . S
H252 C265 0.930 . S
H253 C266 0.930 . S
H254 C270 0.959 . S
H255 C270 0.959 . S
H256 C270 0.961 . S
H257 C271 0.960 . S
H258 C271 0.961 . S
H259 C271 0.959 . S
H260 C274 0.929 . S
H261 C275 0.931 . S
H262 C277 0.930 . S
C263 H251 0.930 . S
C263 C264 1.399 . S
C263 C268 1.399 . S
C264 C263 1.399 . S
C264 C265 1.376 . S
C265 H252 0.930 . S
C265 C264 1.376 . S
C265 C266 1.388 . S
C266 H253 0.930 . S
C266 C265 1.388 . S
C266 C267 1.390 . S
C267 C266 1.390 . S
C267 C268 1.394 . S
C267 C273 1.465 . S
C268 C263 1.399 . S
C268 C267 1.394 . S
C268 C269 1.516 . S
C269 C268 1.516 . S
C269 C270 1.502 . S
C269 C271 1.561 . S
C269 C272 1.526 . S
C270 H254 0.959 . S
C270 H255 0.959 . S
C270 H256 0.961 . S
C270 C269 1.502 . S
C271 H257 0.960 . S
C271 H258 0.961 . S
C271 H259 0.959 . S
C271 C269 1.561 . S
C272 C269 1.526 . S
C272 C273 1.396 . S
C272 C277 1.390 . S
C273 C267 1.465 . S
C273 C272 1.396 . S
C273 C274 1.399 . S
C274 H260 0.929 . S
C274 C273 1.399 . S
C274 C275 1.385 . S
C275 H261 0.931 . S
C275 C274 1.385 . S
C275 C276 1.389 . S
C276 C275 1.389 . S
C276 C277 1.387 . S
C277 H262 0.930 . S
C277 C272 1.390 . S
C277 C276 1.387 . S
H278 C290 0.930 . S
H279 C292 0.930 . S
H280 C293 0.930 . S
H281 C297 0.959 . S
H282 C297 0.959 . S
H283 C297 0.961 . S
H284 C298 0.960 . S
H285 C298 0.961 . S
H286 C298 0.959 . S
H287 C301 0.929 . S
H288 C302 0.931 . S
H289 C304 0.930 . S
C290 H278 0.930 . S
C290 C291 1.399 . S
C290 C295 1.399 . S
C291 C290 1.399 . S
C291 C292 1.376 . S
C292 H279 0.930 . S
C292 C291 1.376 . S
C292 C293 1.388 . S
C293 H280 0.930 . S
C293 C292 1.388 . S
C293 C294 1.390 . S
C294 C293 1.390 . S
C294 C295 1.394 . S
C294 C300 1.465 . S
C295 C290 1.399 . S
C295 C294 1.394 . S
C295 C296 1.516 . S
C296 C295 1.516 . S
C296 C297 1.502 . S
C296 C298 1.561 . S
C296 C299 1.526 . S
C297 H281 0.959 . S
C297 H282 0.959 . S
C297 H283 0.961 . S
C297 C296 1.502 . S
C298 H284 0.960 . S
C298 H285 0.961 . S
C298 H286 0.959 . S
C298 C296 1.561 . S
C299 C296 1.526 . S
C299 C300 1.396 . S
C299 C304 1.390 . S
C300 C294 1.465 . S
C300 C299 1.396 . S
C300 C301 1.399 . S
C301 H287 0.929 . S
C301 C300 1.399 . S
C301 C302 1.385 . S
C302 H288 0.931 . S
C302 C301 1.385 . S
C302 C303 1.389 . S
C303 C302 1.389 . S
C303 C304 1.387 . S
C304 H289 0.930 . S
C304 C299 1.390 . S
C304 C303 1.387 . S
H305 C317 0.930 . S
H306 C319 0.930 . S
H307 C320 0.930 . S
H308 C324 0.959 . S
H309 C324 0.959 . S
H310 C324 0.961 . S
H311 C325 0.960 . S
H312 C325 0.961 . S
H313 C325 0.959 . S
H314 C328 0.929 . S
H315 C329 0.931 . S
H316 C331 0.930 . S
C317 H305 0.930 . S
C317 C318 1.399 . S
C317 C322 1.399 . S
C318 C317 1.399 . S
C318 C319 1.376 . S
C319 H306 0.930 . S
C319 C318 1.376 . S
C319 C320 1.388 . S
C320 H307 0.930 . S
C320 C319 1.388 . S
C320 C321 1.390 . S
C321 C320 1.390 . S
C321 C322 1.394 . S
C321 C327 1.465 . S
C322 C317 1.399 . S
C322 C321 1.394 . S
C322 C323 1.516 . S
C323 C322 1.516 . S
C323 C324 1.502 . S
C323 C325 1.561 . S
C323 C326 1.526 . S
C324 H308 0.959 . S
C324 H309 0.959 . S
C324 H310 0.961 . S
C324 C323 1.502 . S
C325 H311 0.960 . S
C325 H312 0.961 . S
C325 H313 0.959 . S
C325 C323 1.561 . S
C326 C323 1.526 . S
C326 C327 1.396 . S
C326 C331 1.390 . S
C327 C321 1.465 . S
C327 C326 1.396 . S
C327 C328 1.399 . S
C328 H314 0.929 . S
C328 C327 1.399 . S
C328 C329 1.385 . S
C329 H315 0.931 . S
C329 C328 1.385 . S
C329 C330 1.389 . S
C330 C329 1.389 . S
C330 C331 1.387 . S
C331 H316 0.930 . S
C331 C326 1.390 . S
C331 C330 1.387 . S
H332 C344 0.930 . S
H333 C346 0.930 1_566 S
H334 C347 0.930 . S
H335 C351 0.959 . S
H336 C351 0.959 . S
H337 C351 0.961 . S
H338 C352 0.960 . S
H339 C352 0.961 . S
H340 C352 0.959 . S
H341 C355 0.929 . S
H342 C356 0.931 . S
H343 C358 0.930 . S
C344 H332 0.930 . S
C344 C345 1.399 . S
C344 C349 1.399 . S
C345 C344 1.399 . S
C345 C346 1.376 . S
C346 H333 0.930 1_544 S
C346 C345 1.376 . S
C346 C347 1.388 1_554 S
C347 H334 0.930 . S
C347 C346 1.388 1_556 S
C347 C348 1.375 1_556 S
C348 C347 1.375 1_554 S
C348 C349 1.430 . S
C348 C354 1.451 1_554 S
C349 C344 1.399 . S
C349 C348 1.430 . S
C349 C350 1.516 . S
C350 C349 1.516 . S
C350 C351 1.502 . S
C350 C352 1.561 . S
C350 C353 1.526 . S
C351 H335 0.959 . S
C351 H336 0.959 . S
C351 H337 0.961 . S
C351 C350 1.502 . S
C352 H338 0.960 . S
C352 H339 0.961 . S
C352 H340 0.959 . S
C352 C350 1.561 . S
C353 C350 1.526 . S
C353 C354 1.396 1_554 S
C353 C358 1.390 . S
C354 C348 1.451 1_556 S
C354 C353 1.396 1_556 S
C354 C355 1.399 . S
C355 H341 0.929 . S
C355 C354 1.399 . S
C355 C356 1.385 . S
C356 H342 0.931 . S
C356 C355 1.385 . S
C356 C357 1.389 . S
C357 C356 1.389 . S
C357 C358 1.387 1_556 S
C358 H343 0.930 . S
C358 C353 1.390 . S
C358 C357 1.387 1_554 S
H359 C371 0.930 . S
H360 C373 0.930 . S
H361 C374 0.930 . S
H362 C378 0.959 . S
H363 C378 0.959 . S
H364 C378 0.961 . S
H365 C379 0.960 . S
H366 C379 0.961 . S
H367 C379 0.959 . S
H368 C382 0.929 . S
H369 C383 0.931 1_655 S
H370 C385 0.930 . S
C371 H359 0.930 . S
C371 C372 1.399 . S
C371 C376 1.409 . S
C372 C371 1.399 . S
C372 C373 1.376 . S
C373 H360 0.930 . S
C373 C372 1.376 . S
C373 C374 1.388 1_554 S
C374 H361 0.930 . S
C374 C373 1.388 1_556 S
C374 C375 1.390 . S
C375 C374 1.390 . S
C375 C376 1.387 1_556 S
C375 C381 1.465 . S
C376 C371 1.409 . S
C376 C375 1.387 1_554 S
C376 C377 1.513 1_554 S
C377 C376 1.513 1_556 S
C377 C378 1.502 . S
C377 C379 1.561 1_556 S
C377 C380 1.526 . S
C378 H362 0.959 . S
C378 H363 0.959 . S
C378 H364 0.961 . S
C378 C377 1.502 . S
C379 H365 0.960 . S
C379 H366 0.961 . S
C379 H367 0.959 . S
C379 C377 1.561 1_554 S
C380 C377 1.526 . S
C380 C381 1.396 . S
C380 C385 1.390 . S
C381 C375 1.465 . S
C381 C380 1.396 . S
C381 C382 1.399 . S
C382 H368 0.929 . S
C382 C381 1.399 . S
C382 C383 1.385 . S
C383 H369 0.931 1_455 S
C383 C382 1.385 . S
C383 C384 1.389 . S
C384 C383 1.389 . S
C384 C385 1.387 . S
C385 H370 0.930 . S
C385 C380 1.390 . S
C385 C384 1.387 . S
H386 C398 0.930 . S
H387 C400 0.930 . S
H388 C401 0.930 . S
H389 C405 0.959 . S
H390 C405 0.959 . S
H391 C405 0.961 . S
H392 C406 0.960 . S
H393 C406 0.961 . S
H394 C406 0.959 . S
H395 C409 0.929 . S
H396 C410 0.931 . S
H397 C412 0.930 1_556 S
C398 H386 0.930 . S
C398 C399 1.399 . S
C398 C403 1.399 . S
C399 C398 1.399 . S
C399 C400 1.376 1_556 S
C400 H387 0.930 . S
C400 C399 1.376 1_554 S
C400 C401 1.388 . S
C401 H388 0.930 . S
C401 C400 1.388 . S
C401 C402 1.390 . S
C402 C401 1.390 . S
C402 C403 1.394 1_554 S
C402 C408 1.465 . S
C403 C398 1.399 . S
C403 C402 1.394 1_556 S
C403 C404 1.516 . S
C404 C403 1.516 . S
C404 C405 1.502 . S
C404 C406 1.561 . S
C404 C407 1.526 1_556 S
C405 H389 0.959 . S
C405 H390 0.959 . S
C405 H391 0.961 . S
C405 C404 1.502 . S
C406 H392 0.960 . S
C406 H393 0.961 . S
C406 H394 0.959 . S
C406 C404 1.561 . S
C407 C404 1.526 1_554 S
C407 C408 1.396 . S
C407 C412 1.390 . S
C408 C402 1.465 . S
C408 C407 1.396 . S
C408 C409 1.399 . S
C409 H395 0.929 . S
C409 C408 1.399 . S
C409 C410 1.385 . S
C410 H396 0.931 . S
C410 C409 1.385 . S
C410 C411 1.389 . S
C411 C410 1.389 . S
C411 C412 1.387 . S
C412 H397 0.930 1_554 S
C412 C407 1.390 . S
C412 C411 1.387 . S
H413 C425 0.930 . S
H414 C427 0.930 . S
H415 C428 0.930 . S
H416 C432 0.959 . S
H417 C432 0.959 . S
H418 C432 0.961 . S
H419 C433 0.960 . S
H420 C433 0.961 . S
H421 C433 0.959 . S
H422 C436 0.929 . S
H423 C437 0.931 . S
H424 C439 0.930 . S
C425 H413 0.930 . S
C425 C426 1.399 . S
C425 C430 1.398 . S
C426 C425 1.399 . S
C426 C427 1.376 1_554 S
C427 H414 0.930 . S
C427 C426 1.376 1_556 S
C427 C428 1.388 . S
C428 H415 0.930 . S
C428 C427 1.388 . S
C428 C429 1.390 . S
C429 C428 1.390 . S
C429 C430 1.395 1_556 S
C429 C435 1.465 . S
C430 C425 1.398 . S
C430 C429 1.395 1_554 S
C430 C431 1.515 1_554 S
C431 C430 1.515 1_556 S
C431 C432 1.460 1_556 S
C431 C433 1.588 . S
C431 C434 1.550 . S
C432 H416 0.959 . S
C432 H417 0.959 . S
C432 H418 0.961 . S
C432 C431 1.460 1_554 S
C433 H419 0.960 . S
C433 H420 0.961 . S
C433 H421 0.959 . S
C433 C431 1.588 . S
C434 C431 1.550 . S
C434 C435 1.396 . S
C434 C439 1.390 . S
C435 C429 1.465 . S
C435 C434 1.396 . S
C435 C436 1.399 . S
C436 H422 0.929 . S
C436 C435 1.399 . S
C436 C437 1.385 . S
C437 H423 0.931 . S
C437 C436 1.385 . S
C437 C438 1.389 . S
C438 C437 1.389 . S
C438 C439 1.387 . S
C439 H424 0.930 . S
C439 C434 1.390 . S
C439 C438 1.387 . S
H440 C452 0.930 . S
H441 C454 0.930 . S
H442 C455 0.930 . S
H443 C459 0.959 . S
H444 C459 0.959 . S
H445 C459 0.961 . S
H446 C460 0.960 . S
H447 C460 0.961 . S
H448 C460 0.959 . S
H449 C463 0.929 . S
H450 C464 0.931 1_545 S
H451 C466 0.930 . S
C452 H440 0.930 . S
C452 C453 1.399 . S
C452 C457 1.399 . S
C453 C452 1.399 . S
C453 C454 1.376 . S
C454 H441 0.930 . S
C454 C453 1.376 . S
C454 C455 1.388 . S
C455 H442 0.930 . S
C455 C454 1.388 . S
C455 C456 1.390 . S
C456 C455 1.390 . S
C456 C457 1.394 . S
C456 C462 1.465 . S
C457 C452 1.399 . S
C457 C456 1.394 . S
C457 C458 1.516 . S
C458 C457 1.516 . S
C458 C459 1.502 . S
C458 C460 1.561 . S
C458 C461 1.526 . S
C459 H443 0.959 . S
C459 H444 0.959 . S
C459 H445 0.961 . S
C459 C458 1.502 . S
C460 H446 0.960 . S
C460 H447 0.961 . S
C460 H448 0.959 . S
C460 C458 1.561 . S
C461 C458 1.526 . S
C461 C462 1.396 . S
C461 C466 1.390 . S
C462 C456 1.465 . S
C462 C461 1.396 . S
C462 C463 1.399 . S
C463 H449 0.929 . S
C463 C462 1.399 . S
C463 C464 1.385 . S
C464 H450 0.931 1_565 S
C464 C463 1.385 . S
C464 C465 1.389 . S
C465 C464 1.389 . S
C465 C466 1.387 . S
C466 H451 0.930 . S
C466 C461 1.390 . S
C466 C465 1.387 . S
H467 C479 0.930 . S
H468 C481 0.930 . S
H469 C482 0.930 . S
H470 C486 0.959 . S
H471 C486 0.959 . S
H472 C486 0.961 . S
H473 C487 0.960 . S
H474 C487 0.961 . S
H475 C487 0.959 . S
H476 C490 0.929 . S
H477 C491 0.931 . S
H478 C493 0.930 . S
C479 H467 0.930 . S
C479 C480 1.399 . S
C479 C484 1.399 . S
C480 C479 1.399 . S
C480 C481 1.376 . S
C481 H468 0.930 . S
C481 C480 1.376 . S
C481 C482 1.388 . S
C482 H469 0.930 . S
C482 C481 1.388 . S
C482 C483 1.390 . S
C483 C482 1.390 . S
C483 C484 1.394 . S
C483 C489 1.465 . S
C484 C479 1.399 . S
C484 C483 1.394 . S
C484 C485 1.516 . S
C485 C484 1.516 . S
C485 C486 1.502 . S
C485 C487 1.561 . S
C485 C488 1.526 . S
C486 H470 0.959 . S
C486 H471 0.959 . S
C486 H472 0.961 . S
C486 C485 1.502 . S
C487 H473 0.960 . S
C487 H474 0.961 . S
C487 H475 0.959 . S
C487 C485 1.561 . S
C488 C485 1.526 . S
C488 C489 1.396 . S
C488 C493 1.390 . S
C489 C483 1.465 . S
C489 C488 1.396 . S
C489 C490 1.399 . S
C490 H476 0.929 . S
C490 C489 1.399 . S
C490 C491 1.385 . S
C491 H477 0.931 . S
C491 C490 1.385 . S
C491 C492 1.389 . S
C492 C491 1.389 . S
C492 C493 1.387 . S
C493 H478 0.930 . S
C493 C488 1.390 . S
C493 C492 1.387 . S
H494 C506 0.930 . S
H495 C508 0.930 . S
H496 C509 0.930 . S
H497 C513 0.959 . S
H498 C513 0.959 . S
H499 C513 0.961 . S
H500 C514 0.960 . S
H501 C514 0.961 . S
H502 C514 0.959 . S
H503 C517 0.929 . S
H504 C518 0.931 . S
H505 C520 0.930 . S
C506 H494 0.930 . S
C506 C507 1.399 . S
C506 C511 1.399 . S
C507 C506 1.399 . S
C507 C508 1.376 . S
C508 H495 0.930 . S
C508 C507 1.376 . S
C508 C509 1.388 . S
C509 H496 0.930 . S
C509 C508 1.388 . S
C509 C510 1.390 . S
C510 C509 1.390 . S
C510 C511 1.394 . S
C510 C516 1.465 . S
C511 C506 1.399 . S
C511 C510 1.394 . S
C511 C512 1.516 . S
C512 C511 1.516 . S
C512 C513 1.502 . S
C512 C514 1.561 . S
C512 C515 1.526 . S
C513 H497 0.959 . S
C513 H498 0.959 . S
C513 H499 0.961 . S
C513 C512 1.502 . S
C514 H500 0.960 . S
C514 H501 0.961 . S
C514 H502 0.959 . S
C514 C512 1.561 . S
C515 C512 1.526 . S
C515 C516 1.396 . S
C515 C520 1.390 . S
C516 C510 1.465 . S
C516 C515 1.396 . S
C516 C517 1.399 . S
C517 H503 0.929 . S
C517 C516 1.399 . S
C517 C518 1.385 . S
C518 H504 0.931 . S
C518 C517 1.385 . S
C518 C519 1.389 . S
C519 C518 1.389 . S
C519 C520 1.387 . S
C520 H505 0.930 . S
C520 C515 1.390 . S
C520 C519 1.387 . S
H521 C533 0.930 . S
H522 C535 0.930 . S
H523 C536 0.930 . S
H524 C540 0.959 . S
H525 C540 0.959 . S
H526 C540 0.961 . S
H527 C541 0.960 . S
H528 C541 0.961 . S
H529 C541 0.959 . S
H530 C544 0.929 . S
H531 C545 0.931 . S
H532 C547 0.930 . S
C533 H521 0.930 . S
C533 C534 1.399 . S
C533 C538 1.399 . S
C534 C533 1.399 . S
C534 C535 1.376 . S
C535 H522 0.930 . S
C535 C534 1.376 . S
C535 C536 1.388 . S
C536 H523 0.930 . S
C536 C535 1.388 . S
C536 C537 1.390 . S
C537 C536 1.390 . S
C537 C538 1.394 . S
C537 C543 1.465 . S
C538 C533 1.399 . S
C538 C537 1.394 . S
C538 C539 1.516 . S
C539 C538 1.516 . S
C539 C540 1.502 . S
C539 C541 1.561 . S
C539 C542 1.526 . S
C540 H524 0.959 . S
C540 H525 0.959 . S
C540 H526 0.961 . S
C540 C539 1.502 . S
C541 H527 0.960 . S
C541 H528 0.961 . S
C541 H529 0.959 . S
C541 C539 1.561 . S
C542 C539 1.526 . S
C542 C543 1.396 . S
C542 C547 1.390 . S
C543 C537 1.465 . S
C543 C542 1.396 . S
C543 C544 1.399 . S
C544 H530 0.929 . S
C544 C543 1.399 . S
C544 C545 1.385 . S
C545 H531 0.931 . S
C545 C544 1.385 . S
C545 C546 1.389 . S
C546 C545 1.389 . S
C546 C547 1.387 . S
C547 H532 0.930 . S
C547 C542 1.390 . S
C547 C546 1.387 . S
H548 C560 0.930 . S
H549 C562 0.930 . S
H550 C563 0.930 . S
H551 C567 0.959 . S
H552 C567 0.959 . S
H553 C567 0.961 . S
H554 C568 0.960 . S
H555 C568 0.961 . S
H556 C568 0.959 . S
H557 C571 0.929 . S
H558 C572 0.931 . S
H559 C574 0.930 . S
C560 H548 0.930 . S
C560 C561 1.399 . S
C560 C565 1.399 . S
C561 C560 1.399 . S
C561 C562 1.376 . S
C562 H549 0.930 . S
C562 C561 1.376 . S
C562 C563 1.388 . S
C563 H550 0.930 . S
C563 C562 1.388 . S
C563 C564 1.390 . S
C564 C563 1.390 . S
C564 C565 1.394 . S
C564 C570 1.465 . S
C565 C560 1.399 . S
C565 C564 1.394 . S
C565 C566 1.516 . S
C566 C565 1.516 . S
C566 C567 1.502 . S
C566 C568 1.561 . S
C566 C569 1.526 . S
C567 H551 0.959 . S
C567 H552 0.959 . S
C567 H553 0.961 . S
C567 C566 1.502 . S
C568 H554 0.960 . S
C568 H555 0.961 . S
C568 H556 0.959 . S
C568 C566 1.561 . S
C569 C566 1.526 . S
C569 C570 1.396 . S
C569 C574 1.390 . S
C570 C564 1.465 . S
C570 C569 1.396 . S
C570 C571 1.399 . S
C571 H557 0.929 . S
C571 C570 1.399 . S
C571 C572 1.385 . S
C572 H558 0.931 . S
C572 C571 1.385 . S
C572 C573 1.389 . S
C573 C572 1.389 . S
C573 C574 1.387 . S
C574 H559 0.930 . S
C574 C569 1.390 . S
C574 C573 1.387 . S
H575 C587 0.930 . S
H576 C589 0.930 . S
H577 C590 0.930 . S
H578 C594 0.959 . S
H579 C594 0.959 . S
H580 C594 0.961 . S
H581 C595 0.960 . S
H582 C595 0.961 . S
H583 C595 0.959 . S
H584 C598 0.929 . S
H585 C599 0.931 . S
H586 C601 0.930 . S
C587 H575 0.930 . S
C587 C588 1.399 . S
C587 C592 1.399 . S
C588 C587 1.399 . S
C588 C589 1.376 . S
C589 H576 0.930 . S
C589 C588 1.376 . S
C589 C590 1.388 . S
C590 H577 0.930 . S
C590 C589 1.388 . S
C590 C591 1.390 . S
C591 C590 1.390 . S
C591 C592 1.394 . S
C591 C597 1.465 . S
C592 C587 1.399 . S
C592 C591 1.394 . S
C592 C593 1.516 . S
C593 C592 1.516 . S
C593 C594 1.502 . S
C593 C595 1.561 . S
C593 C596 1.526 . S
C594 H578 0.959 . S
C594 H579 0.959 . S
C594 H580 0.961 . S
C594 C593 1.502 . S
C595 H581 0.960 . S
C595 H582 0.961 . S
C595 H583 0.959 . S
C595 C593 1.561 . S
C596 C593 1.526 . S
C596 C597 1.396 . S
C596 C601 1.390 . S
C597 C591 1.465 . S
C597 C596 1.396 . S
C597 C598 1.399 . S
C598 H584 0.929 . S
C598 C597 1.399 . S
C598 C599 1.385 . S
C599 H585 0.931 . S
C599 C598 1.385 . S
C599 C600 1.389 . S
C600 C599 1.389 . S
C600 C601 1.387 . S
C601 H586 0.930 . S
C601 C596 1.390 . S
C601 C600 1.387 . S
H602 C614 0.930 . S
H603 C616 0.930 . S
H604 C617 0.930 . S
H605 C621 0.959 . S
H606 C621 0.959 . S
H607 C621 0.961 . S
H608 C622 0.960 . S
H609 C622 0.961 . S
H610 C622 0.959 . S
H611 C625 0.929 . S
H612 C626 0.931 . S
H613 C628 0.930 . S
C614 H602 0.930 . S
C614 C615 1.399 . S
C614 C619 1.399 . S
C615 C614 1.399 . S
C615 C616 1.376 . S
C616 H603 0.930 . S
C616 C615 1.376 . S
C616 C617 1.388 . S
C617 H604 0.930 . S
C617 C616 1.388 . S
C617 C618 1.390 . S
C618 C617 1.390 . S
C618 C619 1.394 . S
C618 C624 1.465 . S
C619 C614 1.399 . S
C619 C618 1.394 . S
C619 C620 1.516 . S
C620 C619 1.516 . S
C620 C621 1.502 . S
C620 C622 1.561 . S
C620 C623 1.526 . S
C621 H605 0.959 . S
C621 H606 0.959 . S
C621 H607 0.961 . S
C621 C620 1.502 . S
C622 H608 0.960 . S
C622 H609 0.961 . S
C622 H610 0.959 . S
C622 C620 1.561 . S
C623 C620 1.526 . S
C623 C624 1.396 . S
C623 C628 1.390 . S
C624 C618 1.465 . S
C624 C623 1.396 . S
C624 C625 1.399 . S
C625 H611 0.929 . S
C625 C624 1.399 . S
C625 C626 1.385 . S
C626 H612 0.931 . S
C626 C625 1.385 . S
C626 C627 1.389 . S
C627 C626 1.389 . S
C627 C628 1.387 . S
C628 H613 0.930 . S
C628 C623 1.390 . S
C628 C627 1.387 . S
H629 C641 0.930 . S
H630 C643 0.930 . S
H631 C644 0.930 . S
H632 C648 0.959 . S
H633 C648 0.959 . S
H634 C648 0.961 . S
H635 C649 0.960 . S
H636 C649 0.961 . S
H637 C649 0.959 . S
H638 C652 0.929 . S
H639 C653 0.931 . S
H640 C655 0.930 . S
C641 H629 0.930 . S
C641 C642 1.399 . S
C641 C646 1.399 . S
C642 C641 1.399 . S
C642 C643 1.376 . S
C643 H630 0.930 . S
C643 C642 1.376 . S
C643 C644 1.388 . S
C644 H631 0.930 . S
C644 C643 1.388 . S
C644 C645 1.390 . S
C645 C644 1.390 . S
C645 C646 1.394 . S
C645 C651 1.465 . S
C646 C641 1.399 . S
C646 C645 1.394 . S
C646 C647 1.516 . S
C647 C646 1.516 . S
C647 C648 1.502 . S
C647 C649 1.561 . S
C647 C650 1.526 . S
C648 H632 0.959 . S
C648 H633 0.959 . S
C648 H634 0.961 . S
C648 C647 1.502 . S
C649 H635 0.960 . S
C649 H636 0.961 . S
C649 H637 0.959 . S
C649 C647 1.561 . S
C650 C647 1.526 . S
C650 C651 1.396 . S
C650 C655 1.390 . S
C651 C645 1.465 . S
C651 C650 1.396 . S
C651 C652 1.399 . S
C652 H638 0.929 . S
C652 C651 1.399 . S
C652 C653 1.385 . S
C653 H639 0.931 . S
C653 C652 1.385 . S
C653 C654 1.389 . S
C654 C653 1.389 . S
C654 C655 1.387 . S
C655 H640 0.930 . S
C655 C650 1.390 . S
C655 C654 1.387 . S
H656 C668 0.930 . S
H657 C670 0.930 . S
H658 C671 0.930 . S
H659 C675 0.959 . S
H660 C675 0.959 . S
H661 C675 0.961 . S
H662 C676 0.960 . S
H663 C676 0.961 . S
H664 C676 0.959 . S
H665 C679 0.929 . S
H666 C680 0.931 . S
H667 C682 0.930 . S
C668 H656 0.930 . S
C668 C669 1.399 . S
C668 C673 1.399 . S
C669 C668 1.399 . S
C669 C670 1.376 . S
C670 H657 0.930 . S
C670 C669 1.376 . S
C670 C671 1.388 . S
C671 H658 0.930 . S
C671 C670 1.388 . S
C671 C672 1.390 . S
C672 C671 1.390 . S
C672 C673 1.394 . S
C672 C678 1.465 . S
C673 C668 1.399 . S
C673 C672 1.394 . S
C673 C674 1.516 . S
C674 C673 1.516 . S
C674 C675 1.502 . S
C674 C676 1.561 . S
C674 C677 1.526 . S
C675 H659 0.959 . S
C675 H660 0.959 . S
C675 H661 0.961 . S
C675 C674 1.502 . S
C676 H662 0.960 . S
C676 H663 0.961 . S
C676 H664 0.959 . S
C676 C674 1.561 . S
C677 C674 1.526 . S
C677 C678 1.396 . S
C677 C682 1.390 . S
C678 C672 1.465 . S
C678 C677 1.396 . S
C678 C679 1.399 . S
C679 H665 0.929 . S
C679 C678 1.399 . S
C679 C680 1.385 . S
C680 H666 0.931 . S
C680 C679 1.385 . S
C680 C681 1.389 . S
C681 C680 1.389 . S
C681 C682 1.387 . S
C682 H667 0.930 . S
C682 C677 1.390 . S
C682 C681 1.387 . S
H683 C695 0.930 . S
H684 C697 0.930 . S
H685 C698 0.930 . S
H686 C702 0.959 . S
H687 C702 0.959 . S
H688 C702 0.961 . S
H689 C703 0.960 . S
H690 C703 0.961 . S
H691 C703 0.959 . S
H692 C706 0.929 . S
H693 C707 0.931 . S
H694 C709 0.930 . S
C695 H683 0.930 . S
C695 C696 1.399 . S
C695 C700 1.399 . S
C696 C695 1.399 . S
C696 C697 1.376 . S
C697 H684 0.930 . S
C697 C696 1.376 . S
C697 C698 1.388 . S
C698 H685 0.930 . S
C698 C697 1.388 . S
C698 C699 1.390 . S
C699 C698 1.390 . S
C699 C700 1.394 . S
C699 C705 1.465 . S
C700 C695 1.399 . S
C700 C699 1.394 . S
C700 C701 1.516 . S
C701 C700 1.516 . S
C701 C702 1.502 . S
C701 C703 1.561 . S
C701 C704 1.526 . S
C702 H686 0.959 . S
C702 H687 0.959 . S
C702 H688 0.961 . S
C702 C701 1.502 . S
C703 H689 0.960 . S
C703 H690 0.961 . S
C703 H691 0.959 . S
C703 C701 1.561 . S
C704 C701 1.526 . S
C704 C705 1.396 . S
C704 C709 1.390 . S
C705 C699 1.465 . S
C705 C704 1.396 . S
C705 C706 1.399 . S
C706 H692 0.929 . S
C706 C705 1.399 . S
C706 C707 1.385 . S
C707 H693 0.931 . S
C707 C706 1.385 . S
C707 C708 1.389 . S
C708 C707 1.389 . S
C708 C709 1.387 . S
C709 H694 0.930 . S
C709 C704 1.390 . S
C709 C708 1.387 . S
H710 C722 0.930 . S
H711 C724 0.930 . S
H712 C725 0.930 . S
H713 C729 0.959 . S
H714 C729 0.959 . S
H715 C729 0.961 . S
H716 C730 0.960 . S
H717 C730 0.961 . S
H718 C730 0.959 . S
H719 C733 0.929 . S
H720 C734 0.931 . S
H721 C736 0.930 . S
C722 H710 0.930 . S
C722 C723 1.399 . S
C722 C727 1.399 . S
C723 C722 1.399 . S
C723 C724 1.376 . S
C724 H711 0.930 . S
C724 C723 1.376 . S
C724 C725 1.388 . S
C725 H712 0.930 . S
C725 C724 1.388 . S
C725 C726 1.390 . S
C726 C725 1.390 . S
C726 C727 1.394 . S
C726 C732 1.465 . S
C727 C722 1.399 . S
C727 C726 1.394 . S
C727 C728 1.516 . S
C728 C727 1.516 . S
C728 C729 1.502 . S
C728 C730 1.561 . S
C728 C731 1.526 . S
C729 H713 0.959 . S
C729 H714 0.959 . S
C729 H715 0.961 . S
C729 C728 1.502 . S
C730 H716 0.960 . S
C730 H717 0.961 . S
C730 H718 0.959 . S
C730 C728 1.561 . S
C731 C728 1.526 . S
C731 C732 1.396 . S
C731 C736 1.390 . S
C732 C726 1.465 . S
C732 C731 1.396 . S
C732 C733 1.399 . S
C733 H719 0.929 . S
C733 C732 1.399 . S
C733 C734 1.385 . S
C734 H720 0.931 . S
C734 C733 1.385 . S
C734 C735 1.389 . S
C735 C734 1.389 . S
C735 C736 1.387 . S
C736 H721 0.930 . S
C736 C731 1.390 . S
C736 C735 1.387 . S
H737 C749 0.930 . S
H738 C751 0.930 . S
H739 C752 0.930 . S
H740 C756 0.959 . S
H741 C756 0.959 . S
H742 C756 0.961 . S
H743 C757 0.960 . S
H744 C757 0.961 . S
H745 C757 0.959 . S
H746 C760 0.929 . S
H747 C761 0.931 . S
H748 C763 0.930 . S
C749 H737 0.930 . S
C749 C750 1.399 . S
C749 C754 1.399 . S
C750 C749 1.399 . S
C750 C751 1.376 . S
C751 H738 0.930 . S
C751 C750 1.376 . S
C751 C752 1.388 . S
C752 H739 0.930 . S
C752 C751 1.388 . S
C752 C753 1.390 . S
C753 C752 1.390 . S
C753 C754 1.394 . S
C753 C759 1.465 . S
C754 C749 1.399 . S
C754 C753 1.394 . S
C754 C755 1.516 . S
C755 C754 1.516 . S
C755 C756 1.502 . S
C755 C757 1.561 . S
C755 C758 1.526 . S
C756 H740 0.959 . S
C756 H741 0.959 . S
C756 H742 0.961 . S
C756 C755 1.502 . S
C757 H743 0.960 . S
C757 H744 0.961 . S
C757 H745 0.959 . S
C757 C755 1.561 . S
C758 C755 1.526 . S
C758 C759 1.396 . S
C758 C763 1.390 . S
C759 C753 1.465 . S
C759 C758 1.396 . S
C759 C760 1.399 . S
C760 H746 0.929 . S
C760 C759 1.399 . S
C760 C761 1.385 . S
C761 H747 0.931 . S
C761 C760 1.385 . S
C761 C762 1.389 . S
C762 C761 1.389 . S
C762 C763 1.387 . S
C763 H748 0.930 . S
C763 C758 1.390 . S
C763 C762 1.387 . S
H764 C776 0.930 . S
H765 C778 0.930 . S
H766 C779 0.930 . S
H767 C783 0.959 . S
H768 C783 0.959 . S
H769 C783 0.961 . S
H770 C784 0.960 . S
H771 C784 0.961 . S
H772 C784 0.959 . S
H773 C787 0.929 . S
H774 C788 0.931 . S
H775 C790 0.930 . S
C776 H764 0.930 . S
C776 C777 1.399 . S
C776 C781 1.399 . S
C777 C776 1.399 . S
C777 C778 1.376 . S
C778 H765 0.930 . S
C778 C777 1.376 . S
C778 C779 1.388 . S
C779 H766 0.930 . S
C779 C778 1.388 . S
C779 C780 1.390 . S
C780 C779 1.390 . S
C780 C781 1.394 . S
C780 C786 1.465 . S
C781 C776 1.399 . S
C781 C780 1.394 . S
C781 C782 1.516 . S
C782 C781 1.516 . S
C782 C783 1.502 . S
C782 C784 1.561 . S
C782 C785 1.526 . S
C783 H767 0.959 . S
C783 H768 0.959 . S
C783 H769 0.961 . S
C783 C782 1.502 . S
C784 H770 0.960 . S
C784 H771 0.961 . S
C784 H772 0.959 . S
C784 C782 1.561 . S
C785 C782 1.526 . S
C785 C786 1.396 . S
C785 C790 1.390 . S
C786 C780 1.465 . S
C786 C785 1.396 . S
C786 C787 1.399 . S
C787 H773 0.929 . S
C787 C786 1.399 . S
C787 C788 1.385 . S
C788 H774 0.931 . S
C788 C787 1.385 . S
C788 C789 1.389 . S
C789 C788 1.389 . S
C789 C790 1.387 . S
C790 H775 0.930 . S
C790 C785 1.390 . S
C790 C789 1.387 . S
H791 C803 0.930 . S
H792 C805 0.930 . S
H793 C806 0.930 . S
H794 C810 0.959 . S
H795 C810 0.959 . S
H796 C810 0.961 . S
H797 C811 0.960 . S
H798 C811 0.961 . S
H799 C811 0.959 . S
H800 C814 0.929 . S
H801 C815 0.931 . S
H802 C817 0.930 . S
C803 H791 0.930 . S
C803 C804 1.399 . S
C803 C808 1.399 . S
C804 C803 1.399 . S
C804 C805 1.376 . S
C805 H792 0.930 . S
C805 C804 1.376 . S
C805 C806 1.388 . S
C806 H793 0.930 . S
C806 C805 1.388 . S
C806 C807 1.390 . S
C807 C806 1.390 . S
C807 C808 1.394 . S
C807 C813 1.465 . S
C808 C803 1.399 . S
C808 C807 1.394 . S
C808 C809 1.516 . S
C809 C808 1.516 . S
C809 C810 1.502 . S
C809 C811 1.561 . S
C809 C812 1.526 . S
C810 H794 0.959 . S
C810 H795 0.959 . S
C810 H796 0.961 . S
C810 C809 1.502 . S
C811 H797 0.960 . S
C811 H798 0.961 . S
C811 H799 0.959 . S
C811 C809 1.561 . S
C812 C809 1.526 . S
C812 C813 1.396 . S
C812 C817 1.390 . S
C813 C807 1.465 . S
C813 C812 1.396 . S
C813 C814 1.399 . S
C814 H800 0.929 . S
C814 C813 1.399 . S
C814 C815 1.385 . S
C815 H801 0.931 . S
C815 C814 1.385 . S
C815 C816 1.389 . S
C816 C815 1.389 . S
C816 C817 1.387 . S
C817 H802 0.930 . S
C817 C812 1.390 . S
C817 C816 1.387 . S
H818 C830 0.930 . S
H819 C832 0.930 . S
H820 C833 0.930 . S
H821 C837 0.959 . S
H822 C837 0.959 . S
H823 C837 0.961 . S
H824 C838 0.960 . S
H825 C838 0.961 . S
H826 C838 0.959 . S
H827 C841 0.929 . S
H828 C842 0.931 . S
H829 C844 0.930 . S
C830 H818 0.930 . S
C830 C831 1.399 . S
C830 C835 1.399 . S
C831 C830 1.399 . S
C831 C832 1.376 . S
C832 H819 0.930 . S
C832 C831 1.376 . S
C832 C833 1.388 . S
C833 H820 0.930 . S
C833 C832 1.388 . S
C833 C834 1.390 . S
C834 C833 1.390 . S
C834 C835 1.394 . S
C834 C840 1.465 . S
C835 C830 1.399 . S
C835 C834 1.394 . S
C835 C836 1.516 . S
C836 C835 1.516 . S
C836 C837 1.502 . S
C836 C838 1.561 . S
C836 C839 1.526 . S
C837 H821 0.959 . S
C837 H822 0.959 . S
C837 H823 0.961 . S
C837 C836 1.502 . S
C838 H824 0.960 . S
C838 H825 0.961 . S
C838 H826 0.959 . S
C838 C836 1.561 . S
C839 C836 1.526 . S
C839 C840 1.396 . S
C839 C844 1.390 . S
C840 C834 1.465 . S
C840 C839 1.396 . S
C840 C841 1.399 . S
C841 H827 0.929 . S
C841 C840 1.399 . S
C841 C842 1.385 . S
C842 H828 0.931 . S
C842 C841 1.385 . S
C842 C843 1.389 . S
C843 C842 1.389 . S
C843 C844 1.387 . S
C844 H829 0.930 . S
C844 C839 1.390 . S
C844 C843 1.387 . S
H845 C857 0.930 . S
H846 C859 0.930 . S
H847 C860 0.930 . S
H848 C864 0.959 . S
H849 C864 0.959 . S
H850 C864 0.961 . S
H851 C865 0.960 . S
H852 C865 0.961 . S
H853 C865 0.959 . S
H854 C868 0.929 . S
H855 C869 0.931 . S
H856 C871 0.930 . S
C857 H845 0.930 . S
C857 C858 1.399 . S
C857 C862 1.399 . S
C858 C857 1.399 . S
C858 C859 1.376 . S
C859 H846 0.930 . S
C859 C858 1.376 . S
C859 C860 1.388 . S
C860 H847 0.930 . S
C860 C859 1.388 . S
C860 C861 1.390 . S
C861 C860 1.390 . S
C861 C862 1.394 . S
C861 C867 1.465 . S
C862 C857 1.399 . S
C862 C861 1.394 . S
C862 C863 1.516 . S
C863 C862 1.516 . S
C863 C864 1.502 . S
C863 C865 1.561 . S
C863 C866 1.526 . S
C864 H848 0.959 . S
C864 H849 0.959 . S
C864 H850 0.961 . S
C864 C863 1.502 . S
C865 H851 0.960 . S
C865 H852 0.961 . S
C865 H853 0.959 . S
C865 C863 1.561 . S
C866 C863 1.526 . S
C866 C867 1.396 . S
C866 C871 1.390 . S
C867 C861 1.465 . S
C867 C866 1.396 . S
C867 C868 1.399 . S
C868 H854 0.929 . S
C868 C867 1.399 . S
C868 C869 1.385 . S
C869 H855 0.931 . S
C869 C868 1.385 . S
C869 C870 1.389 . S
C870 C869 1.389 . S
C870 C871 1.387 . S
C871 H856 0.930 . S
C871 C866 1.390 . S
C871 C870 1.387 . S
H872 C884 0.930 . S
H873 C886 0.930 . S
H874 C887 0.930 1_455 S
H875 C891 0.959 . S
H876 C891 0.959 . S
H877 C891 0.961 . S
H878 C892 0.960 1_655 S
H879 C892 0.961 1_545 S
H880 C892 0.959 . S
H881 C895 0.929 . S
H882 C896 0.931 . S
H883 C898 0.930 . S
C884 H872 0.930 . S
C884 C885 1.399 . S
C884 C889 1.399 . S
C885 C884 1.399 . S
C885 C886 1.376 . S
C886 H873 0.930 . S
C886 C885 1.376 . S
C886 C887 1.388 . S
C887 H874 0.930 1_655 S
C887 C886 1.388 . S
C887 C888 1.390 . S
C888 C887 1.390 . S
C888 C889 1.394 . S
C888 C894 1.465 1_665 S
C889 C884 1.399 . S
C889 C888 1.394 . S
C889 C890 1.516 1_565 S
C890 C889 1.516 1_545 S
C890 C891 1.502 . S
C890 C892 1.561 1_645 S
C890 C893 1.526 1_655 S
C891 H875 0.959 . S
C891 H876 0.959 . S
C891 H877 0.961 . S
C891 C890 1.502 . S
C892 H878 0.960 1_455 S
C892 H879 0.961 1_565 S
C892 H880 0.959 . S
C892 C890 1.561 1_465 S
C893 C890 1.526 1_455 S
C893 C894 1.396 . S
C893 C898 1.390 . S
C894 C888 1.465 1_445 S
C894 C893 1.396 . S
C894 C895 1.399 . S
C895 H881 0.929 . S
C895 C894 1.399 . S
C895 C896 1.385 . S
C896 H882 0.931 . S
C896 C895 1.385 . S
C896 C897 1.389 . S
C897 C896 1.389 . S
C897 C898 1.387 . S
C898 H883 0.930 . S
C898 C893 1.390 . S
C898 C897 1.387 . S
H899 C911 0.930 . S
H900 C913 0.930 . S
H901 C914 0.930 . S
H902 C918 0.959 . S
H903 C918 0.959 . S
H904 C918 0.961 . S
H905 C919 0.960 . S
H906 C919 0.961 . S
H907 C919 0.959 . S
H908 C922 0.929 1_655 S
H909 C923 0.931 . S
H910 C925 0.930 . S
C911 H899 0.930 . S
C911 C912 1.399 . S
C911 C916 1.399 . S
C912 C911 1.399 . S
C912 C913 1.376 . S
C913 H900 0.930 . S
C913 C912 1.376 . S
C913 C914 1.388 1_545 S
C914 H901 0.930 . S
C914 C913 1.388 1_565 S
C914 C915 1.391 . S
C915 C914 1.391 . S
C915 C916 1.387 1_565 S
C915 C921 1.470 1_655 S
C916 C911 1.399 . S
C916 C915 1.387 1_545 S
C916 C917 1.516 1_655 S
C917 C916 1.516 1_455 S
C917 C918 1.502 . S
C917 C919 1.561 . S
C917 C920 1.526 1_545 S
C918 H902 0.959 . S
C918 H903 0.959 . S
C918 H904 0.961 . S
C918 C917 1.502 . S
C919 H905 0.960 . S
C919 H906 0.961 . S
C919 H907 0.959 . S
C919 C917 1.561 . S
C920 C917 1.526 1_565 S
C920 C921 1.396 . S
C920 C925 1.390 . S
C921 C915 1.470 1_455 S
C921 C920 1.396 . S
C921 C922 1.399 . S
C922 H908 0.929 1_455 S
C922 C921 1.399 . S
C922 C923 1.385 . S
C923 H909 0.931 . S
C923 C922 1.385 . S
C923 C924 1.389 . S
C924 C923 1.389 . S
C924 C925 1.387 . S
C925 H910 0.930 . S
C925 C920 1.390 . S
C925 C924 1.387 . S
H926 C938 0.930 . S
H927 C940 0.930 . S
H928 C941 0.930 1_554 S
H929 C945 0.958 1_455 S
H930 C945 0.961 . S
H931 C945 0.960 1_455 S
H932 C946 0.960 . S
H933 C946 0.961 . S
H934 C946 0.959 . S
H935 C949 0.929 1_554 S
H936 C950 0.931 . S
H937 C952 0.930 . S
C938 H926 0.930 . S
C938 C939 1.399 . S
C938 C943 1.399 . S
C939 C938 1.399 . S
C939 C940 1.376 . S
C940 H927 0.930 . S
C940 C939 1.376 . S
C940 C941 1.388 . S
C941 H928 0.930 1_556 S
C941 C940 1.388 . S
C941 C942 1.390 . S
C942 C941 1.390 . S
C942 C943 1.394 . S
C942 C948 1.465 1_455 S
C943 C938 1.399 . S
C943 C942 1.394 . S
C943 C944 1.516 1_455 S
C944 C943 1.516 1_655 S
C944 C945 1.503 . S
C944 C946 1.561 . S
C944 C947 1.526 . S
C945 H929 0.958 1_655 S
C945 H930 0.961 . S
C945 H931 0.960 1_655 S
C945 C944 1.503 . S
C946 H932 0.960 . S
C946 H933 0.961 . S
C946 H934 0.959 . S
C946 C944 1.561 . S
C947 C944 1.526 . S
C947 C948 1.396 . S
C947 C952 1.390 . S
C948 C942 1.465 1_655 S
C948 C947 1.396 . S
C948 C949 1.399 . S
C949 H935 0.929 1_556 S
C949 C948 1.399 . S
C949 C950 1.385 . S
C950 H936 0.931 . S
C950 C949 1.385 . S
C950 C951 1.389 . S
C951 C950 1.389 . S
C951 C952 1.387 . S
C952 H937 0.930 . S
C952 C947 1.390 . S
C952 C951 1.387 . S
H953 C965 0.930 . S
H954 C967 0.930 . S
H955 C968 0.930 . S
H956 C972 0.959 . S
H957 C972 0.959 . S
H958 C972 0.961 . S
H959 C973 0.960 . S
H960 C973 0.961 . S
H961 C973 0.955 1_565 S
H962 C976 0.929 . S
H963 C977 0.931 . S
H964 C979 0.930 . S
C965 H953 0.930 . S
C965 C966 1.399 . S
C965 C970 1.399 . S
C966 C965 1.399 . S
C966 C967 1.376 . S
C967 H954 0.930 . S
C967 C966 1.376 . S
C967 C968 1.388 . S
C968 H955 0.930 . S
C968 C967 1.388 . S
C968 C969 1.390 . S
C969 C968 1.390 . S
C969 C970 1.394 . S
C969 C975 1.465 . S
C970 C965 1.399 . S
C970 C969 1.394 . S
C970 C971 1.516 1_565 S
C971 C970 1.516 1_545 S
C971 C972 1.502 . S
C971 C973 1.561 . S
C971 C974 1.526 . S
C972 H956 0.959 . S
C972 H957 0.959 . S
C972 H958 0.961 . S
C972 C971 1.502 . S
C973 H959 0.960 . S
C973 H960 0.961 . S
C973 H961 0.955 1_545 S
C973 C971 1.561 . S
C974 C971 1.526 . S
C974 C975 1.396 1_545 S
C974 C979 1.390 . S
C975 C969 1.465 . S
C975 C974 1.396 1_565 S
C975 C976 1.399 . S
C976 H962 0.929 . S
C976 C975 1.399 . S
C976 C977 1.385 1_565 S
C977 H963 0.931 . S
C977 C976 1.385 1_545 S
C977 C978 1.389 . S
C978 C977 1.389 . S
C978 C979 1.387 . S
C979 H964 0.930 . S
C979 C974 1.390 . S
C979 C978 1.387 . S
H980 C992 0.930 . S
H981 C994 0.930 . S
H982 C995 0.930 . S
H983 C999 0.959 . S
H984 C999 0.959 . S
H985 C999 0.961 . S
H986 C1000 0.960 . S
H987 C1000 0.961 . S
H988 C1000 0.959 . S
H989 C1003 0.929 . S
H990 C1004 0.931 . S
H991 C1006 0.930 . S
C992 H980 0.930 . S
C992 C993 1.399 . S
C992 C997 1.399 . S
C993 C992 1.399 . S
C993 C994 1.376 . S
C994 H981 0.930 . S
C994 C993 1.376 . S
C994 C995 1.388 . S
C995 H982 0.930 . S
C995 C994 1.388 . S
C995 C996 1.390 . S
C996 C995 1.390 . S
C996 C997 1.394 . S
C996 C1002 1.465 . S
C997 C992 1.399 . S
C997 C996 1.394 . S
C997 C998 1.516 . S
C998 C997 1.516 . S
C998 C999 1.502 . S
C998 C1000 1.561 . S
C998 C1001 1.526 . S
C999 H983 0.959 . S
C999 H984 0.959 . S
C999 H985 0.961 . S
C999 C998 1.502 . S
C1000 H986 0.960 . S
C1000 H987 0.961 . S
C1000 H988 0.959 . S
C1000 C998 1.561 . S
C1001 C998 1.526 . S
C1001 C1002 1.396 . S
C1001 C1006 1.390 . S
C1002 C996 1.465 . S
C1002 C1001 1.396 . S
C1002 C1003 1.399 . S
C1003 H989 0.929 . S
C1003 C1002 1.399 . S
C1003 C1004 1.385 . S
C1004 H990 0.931 . S
C1004 C1003 1.385 . S
C1004 C1005 1.389 . S
C1005 C1004 1.389 . S
C1005 C1006 1.387 . S
C1006 H991 0.930 . S
C1006 C1001 1.390 . S
C1006 C1005 1.387 . S
H1007 C1019 0.930 . S
H1008 C1021 0.930 . S
H1009 C1022 0.930 . S
H1010 C1026 0.959 . S
H1011 C1026 0.959 . S
H1012 C1026 0.961 . S
H1013 C1027 0.960 . S
H1014 C1027 0.961 . S
H1015 C1027 0.959 . S
H1016 C1030 0.929 . S
H1017 C1031 0.931 . S
H1018 C1033 0.930 . S
C1019 H1007 0.930 . S
C1019 C1020 1.399 . S
C1019 C1024 1.399 . S
C1020 C1019 1.399 . S
C1020 C1021 1.376 . S
C1021 H1008 0.930 . S
C1021 C1020 1.376 . S
C1021 C1022 1.388 . S
C1022 H1009 0.930 . S
C1022 C1021 1.388 . S
C1022 C1023 1.390 . S
C1023 C1022 1.390 . S
C1023 C1024 1.394 . S
C1023 C1029 1.465 . S
C1024 C1019 1.399 . S
C1024 C1023 1.394 . S
C1024 C1025 1.516 . S
C1025 C1024 1.516 . S
C1025 C1026 1.502 . S
C1025 C1027 1.561 . S
C1025 C1028 1.526 . S
C1026 H1010 0.959 . S
C1026 H1011 0.959 . S
C1026 H1012 0.961 . S
C1026 C1025 1.502 . S
C1027 H1013 0.960 . S
C1027 H1014 0.961 . S
C1027 H1015 0.959 . S
C1027 C1025 1.561 . S
C1028 C1025 1.526 . S
C1028 C1029 1.396 . S
C1028 C1033 1.390 . S
C1029 C1023 1.465 . S
C1029 C1028 1.396 . S
C1029 C1030 1.399 . S
C1030 H1016 0.929 . S
C1030 C1029 1.399 . S
C1030 C1031 1.385 . S
C1031 H1017 0.931 . S
C1031 C1030 1.385 . S
C1031 C1032 1.389 . S
C1032 C1031 1.389 . S
C1032 C1033 1.387 . S
C1033 H1018 0.930 . S
C1033 C1028 1.390 . S
C1033 C1032 1.387 . S
H1034 C1046 0.930 . S
H1035 C1048 0.930 . S
H1036 C1049 0.930 . S
H1037 C1053 0.959 . S
H1038 C1053 0.959 . S
H1039 C1053 0.961 . S
H1040 C1054 0.950 1_545 S
H1041 C1054 0.961 . S
H1042 C1054 0.959 . S
H1043 C1057 0.929 . S
H1044 C1058 0.931 . S
H1045 C1060 0.930 . S
C1046 H1034 0.930 . S
C1046 C1047 1.399 . S
C1046 C1051 1.399 . S
C1047 C1046 1.399 . S
C1047 C1048 1.376 . S
C1048 H1035 0.930 . S
C1048 C1047 1.376 . S
C1048 C1049 1.388 . S
C1049 H1036 0.930 . S
C1049 C1048 1.388 . S
C1049 C1050 1.390 . S
C1050 C1049 1.390 . S
C1050 C1051 1.394 . S
C1050 C1056 1.465 1_545 S
C1051 C1046 1.399 . S
C1051 C1050 1.394 . S
C1051 C1052 1.516 . S
C1052 C1051 1.516 . S
C1052 C1053 1.502 . S
C1052 C1054 1.561 1_545 S
C1052 C1055 1.526 1_545 S
C1053 H1037 0.959 . S
C1053 H1038 0.959 . S
C1053 H1039 0.961 . S
C1053 C1052 1.502 . S
C1054 H1040 0.950 1_565 S
C1054 H1041 0.961 . S
C1054 H1042 0.959 . S
C1054 C1052 1.561 1_565 S
C1055 C1052 1.526 1_565 S
C1055 C1056 1.396 . S
C1055 C1060 1.390 . S
C1056 C1050 1.465 1_565 S
C1056 C1055 1.396 . S
C1056 C1057 1.399 . S
C1057 H1043 0.929 . S
C1057 C1056 1.399 . S
C1057 C1058 1.385 . S
C1058 H1044 0.931 . S
C1058 C1057 1.385 . S
C1058 C1059 1.389 . S
C1059 C1058 1.389 . S
C1059 C1060 1.387 . S
C1060 H1045 0.930 . S
C1060 C1055 1.390 . S
C1060 C1059 1.387 . S
H1061 C1073 0.930 . S
H1062 C1075 0.930 . S
H1063 C1076 0.930 . S
H1064 C1080 0.959 . S
H1065 C1080 0.959 . S
H1066 C1080 0.961 . S
H1067 C1081 0.960 . S
H1068 C1081 0.961 . S
H1069 C1081 0.959 . S
H1070 C1084 0.929 . S
H1071 C1085 0.931 . S
H1072 C1087 0.930 . S
C1073 H1061 0.930 . S
C1073 C1074 1.399 . S
C1073 C1078 1.399 . S
C1074 C1073 1.399 . S
C1074 C1075 1.376 . S
C1075 H1062 0.930 . S
C1075 C1074 1.376 . S
C1075 C1076 1.388 . S
C1076 H1063 0.930 . S
C1076 C1075 1.388 . S
C1076 C1077 1.390 . S
C1077 C1076 1.390 . S
C1077 C1078 1.394 . S
C1077 C1083 1.465 1_655 S
C1078 C1073 1.399 . S
C1078 C1077 1.394 . S
C1078 C1079 1.516 1_655 S
C1079 C1078 1.516 1_455 S
C1079 C1080 1.502 . S
C1079 C1081 1.561 1_455 S
C1079 C1082 1.526 . S
C1080 H1064 0.959 . S
C1080 H1065 0.959 . S
C1080 H1066 0.961 . S
C1080 C1079 1.502 . S
C1081 H1067 0.960 . S
C1081 H1068 0.961 . S
C1081 H1069 0.959 . S
C1081 C1079 1.561 1_655 S
C1082 C1079 1.526 . S
C1082 C1083 1.396 . S
C1082 C1087 1.390 . S
C1083 C1077 1.465 1_455 S
C1083 C1082 1.396 . S
C1083 C1084 1.399 . S
C1084 H1070 0.929 . S
C1084 C1083 1.399 . S
C1084 C1085 1.385 . S
C1085 H1071 0.931 . S
C1085 C1084 1.385 . S
C1085 C1086 1.389 . S
C1086 C1085 1.389 . S
C1086 C1087 1.387 . S
C1087 H1072 0.930 . S
C1087 C1082 1.390 . S
C1087 C1086 1.387 . S
C237 C9 1.218 . S
C249 C159 1.216 . S
C264 C117 1.208 . S
C276 C14 1.233 . S
C291 C131 1.216 . S
C303 C37 1.182 . S
C318 C145 1.207 . S
C330 C42 1.229 . S
C345 C75 1.191 1_545 S
C357 C65 1.131 . S
C372 C70 1.158 . S
C384 C89 1.227 1_455 S
C399 C93 1.212 . S
C411 C103 1.220 1_565 S
C426 C98 1.226 . S
C438 C61 1.223 1_655 S
C453 C121 1.129 . S
C465 C47 1.193 1_565 S
C480 C5 1.235 1_655 S
C492 C126 1.179 . S
C507 C19 1.219 1_545 S
C519 C149 1.197 . S
C534 C33 1.235 1_455 S
C546 C154 1.185 . S
C561 C187 1.220 . S
C573 C177 1.203 . S
C588 C182 1.207 . S
C600 C201 1.231 . S
C615 C215 1.217 . S
C627 C205 1.218 . S
C642 C173 1.206 . S
C654 C210 1.226 . S
C669 C207 1.557 . S
C681 C11 1.554 . S
C696 C221 1.583 . S
C708 C25 1.591 . S
C723 C179 1.534 . S
C735 C39 1.544 . S
C750 C53 1.582 . S
C762 C193 1.592 . S
C777 C67 1.534 . S
C789 C151 1.545 . S
C804 C165 1.583 . S
C816 C81 1.590 . S
C831 C95 1.550 . S
C843 C123 1.558 . S
C858 C109 1.583 . S
C870 C137 1.591 . S
C885 C28 1.189 . S
C897 C0 1.247 . S
C912 C51 1.244 . S
C924 C23 1.294 . S
C939 C56 1.218 . S
C951 C84 1.216 . S
C966 C79 1.291 . S
C978 C107 1.233 . S
C993 C140 1.193 . S
C1005 C112 1.242 . S
C1020 C135 1.261 . S
C1032 C163 1.293 . S
C1047 C196 1.249 . S
C1059 C168 1.211 . S
C1074 C191 1.206 . S
C1086 C219 1.236 . S
