# Generated by pormake.
# Topology uou, (4)-cn, num edge types: 1
# Building blocks:
#     Node 0, Type 0, BuildingBlock: QUQFOY_clean_sbu_1, # of connection points: 4
#     Node 1, Type 0, BuildingBlock: QUQFOY_clean_sbu_1, # of connection points: 4
#     Node 2, Type 0, BuildingBlock: QUQFOY_clean_sbu_1, # of connection points: 4
#     Node 3, Type 0, BuildingBlock: QUQFOY_clean_sbu_1, # of connection points: 4
#     Node 4, Type 0, BuildingBlock: QUQFOY_clean_sbu_1, # of connection points: 4
#     Node 5, Type 0, BuildingBlock: QUQFOY_clean_sbu_1, # of connection points: 4
#     Node 6, Type 0, BuildingBlock: QUQFOY_clean_sbu_1, # of connection points: 4
#     Node 7, Type 0, BuildingBlock: QUQFOY_clean_sbu_1, # of connection points: 4
#     Node 8, Type 0, BuildingBlock: QUQFOY_clean_sbu_1, # of connection points: 4
#     Node 9, Type 0, BuildingBlock: QUQFOY_clean_sbu_1, # of connection points: 4
#     Node 10, Type 0, BuildingBlock: QUQFOY_clean_sbu_1, # of connection points: 4
#     Node 11, Type 0, BuildingBlock: QUQFOY_clean_sbu_1, # of connection points: 4
#     Node 12, Type 0, BuildingBlock: QUQFOY_clean_sbu_1, # of connection points: 4
#     Node 13, Type 0, BuildingBlock: QUQFOY_clean_sbu_1, # of connection points: 4
#     Node 14, Type 0, BuildingBlock: QUQFOY_clean_sbu_1, # of connection points: 4
#     Node 15, Type 0, BuildingBlock: QUQFOY_clean_sbu_1, # of connection points: 4
#     Edge 16, Type (0, 0), BuildingBlock: XUDNAN_clean_linker_2, # of connection points: 2
#     Edge 17, Type (0, 0), BuildingBlock: XUDNAN_clean_linker_2, # of connection points: 2
#     Edge 18, Type (0, 0), BuildingBlock: XUDNAN_clean_linker_2, # of connection points: 2
#     Edge 19, Type (0, 0), BuildingBlock: XUDNAN_clean_linker_2, # of connection points: 2
#     Edge 20, Type (0, 0), BuildingBlock: XUDNAN_clean_linker_2, # of connection points: 2
#     Edge 21, Type (0, 0), BuildingBlock: XUDNAN_clean_linker_2, # of connection points: 2
#     Edge 22, Type (0, 0), BuildingBlock: XUDNAN_clean_linker_2, # of connection points: 2
#     Edge 23, Type (0, 0), BuildingBlock: XUDNAN_clean_linker_2, # of connection points: 2
#     Edge 24, Type (0, 0), BuildingBlock: XUDNAN_clean_linker_2, # of connection points: 2
#     Edge 25, Type (0, 0), BuildingBlock: XUDNAN_clean_linker_2, # of connection points: 2
#     Edge 26, Type (0, 0), BuildingBlock: XUDNAN_clean_linker_2, # of connection points: 2
#     Edge 27, Type (0, 0), BuildingBlock: XUDNAN_clean_linker_2, # of connection points: 2
#     Edge 28, Type (0, 0), BuildingBlock: XUDNAN_clean_linker_2, # of connection points: 2
#     Edge 29, Type (0, 0), BuildingBlock: XUDNAN_clean_linker_2, # of connection points: 2
#     Edge 30, Type (0, 0), BuildingBlock: XUDNAN_clean_linker_2, # of connection points: 2
#     Edge 31, Type (0, 0), BuildingBlock: XUDNAN_clean_linker_2, # of connection points: 2
#     Edge 32, Type (0, 0), BuildingBlock: XUDNAN_clean_linker_2, # of connection points: 2
#     Edge 33, Type (0, 0), BuildingBlock: XUDNAN_clean_linker_2, # of connection points: 2
#     Edge 34, Type (0, 0), BuildingBlock: XUDNAN_clean_linker_2, # of connection points: 2
#     Edge 35, Type (0, 0), BuildingBlock: XUDNAN_clean_linker_2, # of connection points: 2
#     Edge 36, Type (0, 0), BuildingBlock: XUDNAN_clean_linker_2, # of connection points: 2
#     Edge 37, Type (0, 0), BuildingBlock: XUDNAN_clean_linker_2, # of connection points: 2
#     Edge 38, Type (0, 0), BuildingBlock: XUDNAN_clean_linker_2, # of connection points: 2
#     Edge 39, Type (0, 0), BuildingBlock: XUDNAN_clean_linker_2, # of connection points: 2
#     Edge 40, Type (0, 0), BuildingBlock: XUDNAN_clean_linker_2, # of connection points: 2
#     Edge 41, Type (0, 0), BuildingBlock: XUDNAN_clean_linker_2, # of connection points: 2
#     Edge 42, Type (0, 0), BuildingBlock: XUDNAN_clean_linker_2, # of connection points: 2
#     Edge 43, Type (0, 0), BuildingBlock: XUDNAN_clean_linker_2, # of connection points: 2
#     Edge 44, Type (0, 0), BuildingBlock: XUDNAN_clean_linker_2, # of connection points: 2
#     Edge 45, Type (0, 0), BuildingBlock: XUDNAN_clean_linker_2, # of connection points: 2
#     Edge 46, Type (0, 0), BuildingBlock: XUDNAN_clean_linker_2, # of connection points: 2
#     Edge 47, Type (0, 0), BuildingBlock: XUDNAN_clean_linker_2, # of connection points: 2
# Relax obj value: 0.062
# Max RMSD: 0.100
# Mean RMSD: 0.100
data_MOF--net-uou--node1-QUQFOY_clean_sbu_1--edge1-XUDNAN_clean_linker_2
_symmetry_space_group_name_H-M    P1
_symmetry_Int_Tables_number       1
_symmetry_cell_setting            triclinic
loop_
_symmetry_equiv_pos_as_xyz
'x, y, z'
_cell_length_a     41.105325
_cell_length_b     37.312971
_cell_length_c     56.110407
_cell_angle_alpha  89.946132
_cell_angle_beta   90.039983
_cell_angle_gamma 90.040038
loop_
_atom_site_label
_atom_site_type_symbol
_atom_site_fract_x
_atom_site_fract_y
_atom_site_fract_z
_atom_type_partial_charge
O0 O 0.03466 0.0822 0.14917 0.0
Cd1 Cd 0.05048 0.02997 0.14924 0.0
Cd2 Cd 0.10599 0.06242 0.13718 0.0
O3 O 0.08186 0.10984 0.14556 0.0
O4 O 1.0179 0.0037 0.16894 0.0
O5 O 0.06923 0.0108 0.17984 0.0
C6 C 0.04027 0.99955 0.18483 0.0
C7 C 0.15797 0.04732 0.15086 0.0
C8 C 0.05111 0.11103 0.14836 0.0
C9 C 0.07174 0.01677 0.09999 0.0
O10 O 0.0936 0.03973 0.10488 0.0
O11 O 0.05242 0.00591 0.11614 0.0
O12 O 0.1539 0.07042 0.13401 0.0
O13 O 0.13242 0.03413 0.16101 0.0
O14 O 0.50181 0.91257 0.15182 0.0
Cd15 Cd 0.48688 0.96504 0.15002 0.0
Cd16 Cd 0.43117 0.93264 0.13763 0.0
O17 O 0.45454 0.88534 0.14737 0.0
O18 O 0.51981 0.99158 0.16925 0.0
O19 O 0.46832 0.98598 0.18011 0.0
C20 C 0.49748 0.99667 0.18503 0.0
C21 C 0.37949 0.94933 0.15099 0.0
C22 C 0.48505 0.88395 0.15129 0.0
C23 C 0.4666 0.9764 0.10008 0.0
O24 O 0.44433 0.95396 0.10506 0.0
O25 O 0.48578 0.98745 0.11629 0.0
O26 O 0.38313 0.92554 0.13454 0.0
O27 O 0.40528 0.96244 0.16087 0.0
O28 O 0.54643 0.89671 0.38463 0.0
Cd29 Cd 0.55222 0.95131 0.38752 0.0
Cd30 Cd 0.61396 0.93402 0.39884 0.0
O31 O 0.59891 0.88462 0.38557 0.0
O32 O 0.52079 0.97384 0.36492 0.0
O33 O 0.57437 0.97714 0.36083 0.0
C34 C 0.54566 0.98393 0.35253 0.0
C35 C 0.66581 0.95573 0.38852 0.0
C36 C 0.56958 0.87437 0.38286 0.0
C37 C 0.56982 0.9644 0.43756 0.0
O38 O 0.59617 0.9484 0.43212 0.0
O39 O 0.549 0.97181 0.42151 0.0
O40 O 0.6623 0.92889 0.40272 0.0
O41 O 0.63996 0.9704 0.37983 0.0
O42 O 1.00699 0.09472 0.38475 0.0
Cd43 Cd 0.99176 0.04247 0.38772 0.0
Cd44 Cd 0.93681 0.07706 0.40129 0.0
O45 O 0.96051 0.12332 0.38965 0.0
O46 O 0.02157 0.01511 0.36609 0.0
O47 O 0.96848 0.01957 0.3603 0.0
C48 C 0.9965 0.00868 0.35291 0.0
C49 C 0.88598 0.05648 0.38791 0.0
C50 C 0.99096 0.12382 0.38535 0.0
C51 C 0.97475 0.03493 0.4386 0.0
O52 O 0.95247 0.05754 0.43383 0.0
O53 O 0.99239 0.02214 0.42202 0.0
O54 O 0.88803 0.08276 0.40281 0.0
O55 O 0.91281 0.04328 0.3798 0.0
O56 O 0.96372 0.94468 0.9407 0.0
Cd57 Cd 0.93392 0.92517 0.91371 0.0
Cd58 Cd 0.99275 0.94051 0.88749 0.0
O59 O 1.0057 0.96311 0.91946 0.0
O60 O 0.89117 0.922 0.9306 0.0
O61 O 0.89844 0.95645 0.89908 0.0
C62 C 0.87959 0.94526 0.91592 0.0
C63 C 1.01147 0.9682 0.85251 0.0
C64 C 0.99141 0.95979 0.9394 0.0
C65 C 0.97029 0.86317 0.89174 0.0
O66 O 0.99247 0.88537 0.88614 0.0
O67 O 0.94392 0.8738 0.90133 0.0
O68 O 0.03101 0.95281 0.86721 0.0
O69 O 0.98092 0.96871 0.85784 0.0
O70 O 0.57534 0.05149 0.94174 0.0
Cd71 Cd 0.60554 0.07228 0.91537 0.0
Cd72 Cd 0.54947 0.05783 0.88903 0.0
O73 O 0.53359 0.034 0.91991 0.0
O74 O 0.64826 0.07419 0.93241 0.0
O75 O 0.64083 0.04158 0.90008 0.0
C76 C 0.65973 0.05171 0.91719 0.0
C77 C 0.54359 0.02884 0.85238 0.0
C78 C 0.54758 0.03657 0.94004 0.0
C79 C 0.56947 0.13514 0.89441 0.0
O80 O 0.54763 0.11293 0.8882 0.0
O81 O 0.5958 0.12431 0.90401 0.0
O82 O 0.51899 0.04252 0.8633 0.0
O83 O 0.57168 0.03065 0.86269 0.0
O84 O 0.45723 0.04158 0.59436 0.0
Cd85 Cd 0.43262 0.0636 0.62306 0.0
Cd86 Cd 0.48221 0.03499 0.64851 0.0
O87 O 0.4908 0.00956 0.61649 0.0
O88 O 0.38439 0.06294 0.61761 0.0
O89 O 0.40939 0.02867 0.64421 0.0
C90 C 0.38277 0.03797 0.63355 0.0
C91 C 0.49431 0.00667 0.6848 0.0
C92 C 0.47992 0.01853 0.5961 0.0
C93 C 0.47758 0.1161 0.64474 0.0
O94 O 0.49405 0.08839 0.64989 0.0
O95 O 0.44965 0.11291 0.63515 0.0
O96 O 0.51659 0.01426 0.66953 0.0
O97 O 0.46451 0.01309 0.67891 0.0
O98 O 0.08488 0.94736 0.59419 0.0
Cd99 Cd 0.10814 0.9221 0.62245 0.0
Cd100 Cd 0.06174 0.95419 0.64817 0.0
O101 O 0.05286 0.98071 0.61665 0.0
O102 O 0.15515 0.91332 0.61499 0.0
O103 O 0.13851 0.95225 0.64223 0.0
C104 C 0.16212 0.93721 0.63083 0.0
C105 C 0.06133 0.9826 0.68524 0.0
C106 C 0.06326 0.97161 0.59616 0.0
C107 C 0.05909 0.87369 0.64456 0.0
O108 O 0.04475 0.9026 0.65009 0.0
O109 O 0.08692 0.87474 0.63465 0.0
O110 O 0.03501 0.97834 0.67309 0.0
O111 O 0.08843 0.97294 0.67554 0.0
O112 O 0.5478 0.61714 0.13644 0.0
Cd113 Cd 0.55197 0.56258 0.13194 0.0
Cd114 Cd 0.61336 0.58186 0.11827 0.0
O115 O 0.60015 0.6299 0.13419 0.0
O116 O 0.52065 0.54068 0.15477 0.0
O117 O 0.57417 0.53463 0.1577 0.0
C118 C 0.54553 0.52906 0.16652 0.0
C119 C 0.66805 0.56296 0.11857 0.0
C120 C 0.57097 0.63953 0.13829 0.0
C121 C 0.56455 0.55307 0.08128 0.0
O122 O 0.59076 0.56957 0.08628 0.0
O123 O 0.54527 0.54354 0.09781 0.0
O124 O 0.65845 0.59002 0.10622 0.0
O125 O 0.64698 0.54741 0.13213 0.0
O126 O 0.99336 0.38023 0.1406 0.0
Cd127 Cd 0.99281 0.4354 0.14016 0.0
Cd128 Cd 0.93557 0.42163 0.11448 0.0
O129 O 0.94432 0.36963 0.12604 0.0
O130 O 0.02946 0.44834 0.16174 0.0
O131 O 0.97828 0.46162 0.16983 0.0
C132 C 1.00852 0.46214 0.17608 0.0
C133 C 0.88277 0.44555 0.1147 0.0
C134 C 0.97085 0.3584 0.1351 0.0
C135 C 0.99218 0.45677 0.08879 0.0
O136 O 0.96481 0.44107 0.0872 0.0
O137 O 1.00617 0.45988 0.10886 0.0
O138 O 0.89176 0.42224 0.09912 0.0
O139 O 0.90331 0.45441 0.1311 0.0
O140 O 0.05572 0.39155 0.385 0.0
Cd141 Cd 0.05927 0.44643 0.38297 0.0
Cd142 Cd 0.11449 0.43443 0.40808 0.0
O143 O 0.10399 0.38094 0.40077 0.0
O144 O 0.02966 0.46015 0.35631 0.0
O145 O 0.08292 0.46858 0.35538 0.0
C146 C 0.05509 0.47053 0.34475 0.0
C147 C 0.16522 0.45872 0.39768 0.0
C148 C 0.07725 0.3696 0.39208 0.0
C149 C 0.05986 0.47454 0.43258 0.0
O150 O 0.08738 0.45923 0.43471 0.0
O151 O 0.04524 0.47467 0.41261 0.0
O152 O 0.16158 0.44017 0.41692 0.0
O153 O 0.14008 0.46329 0.38418 0.0
O154 O 0.5029 0.59855 0.37172 0.0
Cd155 Cd 0.49001 0.54521 0.37146 0.0
Cd156 Cd 0.44074 0.57401 0.39825 0.0
O157 O 0.46032 0.62356 0.38887 0.0
O158 O 0.52343 0.52476 0.34959 0.0
O159 O 0.4711 0.52499 0.34089 0.0
C160 C 0.50059 0.51776 0.33463 0.0
C161 C 0.38732 0.55677 0.38964 0.0
C162 C 0.4879 0.62641 0.37869 0.0
C163 C 0.48686 0.52345 0.4229 0.0
O164 O 0.46432 0.54649 0.42527 0.0
O165 O 0.49858 0.51683 0.40241 0.0
O166 O 0.39387 0.57698 0.40769 0.0
O167 O 0.41105 0.54736 0.37587 0.0
O168 O 0.4619 0.46042 0.92514 0.0
Cd169 Cd 0.43767 0.43363 0.89814 0.0
Cd170 Cd 0.48705 0.46252 0.87243 0.0
O171 O 0.49315 0.49386 0.90231 0.0
O172 O 0.39303 0.42822 0.91151 0.0
O173 O 0.40341 0.46058 0.8793 0.0
C174 C 0.38289 0.45007 0.8953 0.0
C175 C 0.49786 0.48708 0.83472 0.0
C176 C 0.4825 0.48557 0.92284 0.0
C177 C 0.48656 0.3819 0.88151 0.0
O178 O 0.50205 0.41005 0.87565 0.0
O179 O 0.45733 0.38414 0.8889 0.0
O180 O 0.52043 0.48244 0.8503 0.0
O181 O 0.46845 0.47901 0.84079 0.0
O182 O 0.0926 0.54836 0.92551 0.0
Cd183 Cd 0.1089 0.57028 0.89393 0.0
Cd184 Cd 0.054 0.53594 0.87987 0.0
O185 O 0.0548 0.51112 0.91281 0.0
O186 O 0.1533 0.58533 0.90415 0.0
O187 O 0.14536 0.54384 0.87676 0.0
C188 C 0.16525 0.56095 0.89049 0.0
C189 C 0.04501 0.50635 0.84384 0.0
C190 C 0.07194 0.52381 0.92967 0.0
C191 C 0.05367 0.61698 0.87999 0.0
O192 O 0.03751 0.58792 0.87991 0.0
O193 O 0.08445 0.61632 0.88279 0.0
O194 O 0.02226 0.50968 0.8595 0.0
O195 O 0.07374 0.51785 0.84931 0.0
O196 O 0.94688 0.55486 0.59555 0.0
Cd197 Cd 0.9285 0.56897 0.62864 0.0
Cd198 Cd 0.99001 0.55124 0.64065 0.0
O199 O 0.99352 0.53066 0.60663 0.0
O200 O 0.87976 0.56899 0.62533 0.0
O201 O 0.90649 0.53038 0.64789 0.0
C202 C 0.87915 0.54147 0.63925 0.0
C203 C 0.99791 0.51905 0.67575 0.0
C204 C 0.97305 0.53835 0.59039 0.0
C205 C 0.97181 0.62853 0.64492 0.0
O206 O 0.9948 0.60592 0.64343 0.0
O207 O 0.94241 0.61862 0.64203 0.0
O208 O 0.02236 0.52986 0.66319 0.0
O209 O 0.96897 0.52485 0.66759 0.0
O210 O 0.5913 0.43397 0.58733 0.0
Cd211 Cd 0.60751 0.41955 0.62114 0.0
Cd212 Cd 0.5461 0.43953 0.63119 0.0
O213 O 0.54506 0.46014 0.59719 0.0
O214 O 0.65535 0.41027 0.61806 0.0
O215 O 0.63554 0.45498 0.63937 0.0
C216 C 0.66047 0.43758 0.63156 0.0
C217 C 0.54118 0.47235 0.66607 0.0
C218 C 0.56594 0.45155 0.58148 0.0
C219 C 0.56035 0.36263 0.6376 0.0
O220 O 0.53788 0.38542 0.6344 0.0
O221 O 0.59003 0.37189 0.63554 0.0
O222 O 0.51582 0.46401 0.65362 0.0
O223 O 0.56952 0.46382 0.65784 0.0
H224 H 0.33199 0.96687 0.11957 0.0
H225 H 0.354 0.9646 0.19506 0.0
H226 H 0.29898 0.98883 0.20388 0.0
H227 H 0.29042 0.05149 0.12137 0.0
H228 H 0.2615 0.03932 0.09862 0.0
H229 H 0.30145 0.01956 0.09868 0.0
H230 H 0.27578 0.9561 0.09935 0.0
H231 H 0.23575 0.97566 0.09922 0.0
H232 H 0.24711 0.94469 0.12244 0.0
H233 H 0.23942 0.01023 0.2039 0.0
H234 H 0.18417 0.03387 0.19503 0.0
H235 H 0.20519 0.02915 0.11947 0.0
C236 C 0.32504 0.97113 0.13798 0.0
C237 C 0.3468 0.96328 0.15672 0.0
C238 C 0.3374 0.97017 0.18052 0.0
C239 C 0.30625 0.98385 0.18565 0.0
C240 C 0.28528 0.99138 0.16669 0.0
C241 C 0.29461 0.98584 0.14331 0.0
C242 C 0.26865 0.99823 0.12603 0.0
C243 C 0.28126 0.02898 0.11025 0.0
C244 C 0.25608 0.96679 0.11087 0.0
C245 C 0.24297 0.01123 0.14327 0.0
C246 C 0.25264 0.00652 0.16668 0.0
C247 C 0.23189 0.01459 0.18564 0.0
C248 C 0.20061 0.02793 0.18049 0.0
C249 C 0.19086 0.03396 0.15664 0.0
C250 C 0.21241 0.02561 0.1379 0.0
H251 H 0.6952 0.01809 0.40253 0.0
H252 H 0.71064 0.92112 0.36176 0.0
H253 H 0.76754 0.93958 0.35383 0.0
H254 H 0.74859 0.07813 0.36749 0.0
H255 H 0.76367 0.10093 0.39357 0.0
H256 H 0.72316 0.08239 0.39349 0.0
H257 H 0.73678 0.04568 0.43141 0.0
H258 H 0.77727 0.06405 0.43159 0.0
H259 H 0.77148 0.01616 0.43129 0.0
H260 H 0.82333 0.96678 0.35228 0.0
H261 H 0.87515 0.9984 0.35929 0.0
H262 H 0.82472 0.07663 0.40296 0.0
C263 C 0.71047 0.00131 0.39146 0.0
C264 C 0.69862 0.9686 0.38226 0.0
C265 C 0.71935 0.94653 0.36859 0.0
C266 C 0.7516 0.95684 0.364 0.0
C267 C 0.76282 0.9891 0.37351 0.0
C268 C 0.74297 0.01094 0.38709 0.0
C269 C 0.76193 0.04252 0.39703 0.0
C270 C 0.74853 0.0781 0.38731 0.0
C271 C 0.76186 0.04205 0.42445 0.0
C272 C 0.79559 0.03478 0.38717 0.0
C273 C 0.79541 0.00413 0.37337 0.0
C274 C 0.82372 0.99093 0.36294 0.0
C275 C 0.85309 0.00914 0.36702 0.0
C276 C 0.85412 0.04009 0.38164 0.0
C277 C 0.82478 0.05324 0.39155 0.0
H278 H 0.83494 0.96972 0.88245 0.0
H279 H 0.84999 0.95492 0.95838 0.0
H280 H 0.79625 0.98139 0.96646 0.0
H281 H 0.79057 0.05316 0.88539 0.0
H282 H 0.76203 0.04164 0.86223 0.0
H283 H 0.80232 0.02264 0.86205 0.0
H284 H 0.77768 0.95878 0.86114 0.0
H285 H 0.73732 0.97758 0.86126 0.0
H286 H 0.74899 0.94563 0.88381 0.0
H287 H 0.7429 0.01209 0.96684 0.0
H288 H 0.68921 0.03916 0.9594 0.0
H289 H 0.7044 0.02936 0.88316 0.0
C290 C 0.82682 0.97217 0.90073 0.0
C291 C 0.84671 0.96045 0.91984 0.0
C292 C 0.83514 0.9636 0.9435 0.0
C293 C 0.8047 0.97876 0.94828 0.0
C294 C 0.78568 0.99006 0.92918 0.0
C295 C 0.79588 0.98644 0.90584 0.0
C296 C 0.76963 0.99933 0.88871 0.0
C297 C 0.78188 0.03108 0.87371 0.0
C298 C 0.7577 0.96849 0.87279 0.0
C299 C 0.74337 0.01103 0.90614 0.0
C300 C 0.75353 0.00587 0.92937 0.0
C301 C 0.73448 0.01592 0.94874 0.0
C302 C 0.70407 0.03142 0.94432 0.0
C303 C 0.69255 0.03616 0.92075 0.0
C304 C 0.71246 0.02568 0.90137 0.0
H305 H 0.19087 0.00248 0.62414 0.0
H306 H 0.21026 0.89367 0.64697 0.0
H307 H 0.26826 0.90921 0.65343 0.0
H308 H 0.26366 0.01111 0.59033 0.0
H309 H 0.2697 0.05787 0.59705 0.0
H310 H 0.22925 0.03935 0.59691 0.0
H311 H 0.22046 0.06168 0.64014 0.0
H312 H 0.26095 0.08023 0.64042 0.0
H313 H 0.24881 0.04872 0.6631 0.0
H314 H 0.32417 0.93665 0.65703 0.0
H315 H 0.37507 0.97139 0.65299 0.0
H316 H 0.32041 0.06093 0.62415 0.0
C317 C 0.20735 0.98223 0.6309 0.0
C318 C 0.19626 0.94709 0.63555 0.0
C319 C 0.21844 0.92082 0.64361 0.0
C320 C 0.25131 0.92946 0.64738 0.0
C321 C 0.26167 0.96433 0.64252 0.0
C322 C 0.24044 0.99018 0.63412 0.0
C323 C 0.25837 0.02462 0.62817 0.0
C324 C 0.25505 0.03376 0.60154 0.0
C325 C 0.24643 0.05565 0.6439 0.0
C326 C 0.29298 0.01407 0.63443 0.0
C327 C 0.29423 0.97943 0.64313 0.0
C328 C 0.32348 0.96377 0.6502 0.0
C329 C 0.35226 0.98378 0.64793 0.0
C330 C 0.35175 0.01883 0.63821 0.0
C331 C 0.32159 0.03417 0.63159 0.0
H332 H 0.83673 0.46232 0.14908 0.0
H333 H 0.85807 0.47067 0.07358 0.0
H334 H 0.80669 0.50335 0.06719 0.0
H335 H 0.75044 0.44513 0.14054 0.0
H336 H 0.73786 0.46975 0.16657 0.0
H337 H 0.77734 0.44886 0.16581 0.0
H338 H 0.80442 0.50992 0.17518 0.0
H339 H 0.76501 0.53102 0.1759 0.0
H340 H 0.79616 0.54793 0.15627 0.0
H341 H 0.75523 0.53722 0.06891 0.0
H342 H 0.70174 0.56386 0.0774 0.0
H343 H 0.70875 0.52857 0.15096 0.0
C344 C 0.83048 0.47124 0.13128 0.0
C345 C 0.85139 0.46432 0.11179 0.0
C346 C 0.84232 0.47574 0.08868 0.0
C347 C 0.8133 0.49445 0.08491 0.0
C348 C 0.79315 0.50089 0.10436 0.0
C349 C 0.80088 0.48911 0.12703 0.0
C350 C 0.77355 0.49779 0.14438 0.0
C351 C 0.75893 0.46333 0.15495 0.0
C352 C 0.78551 0.52318 0.1641 0.0
C353 C 0.74954 0.51647 0.12789 0.0
C354 C 0.76183 0.51844 0.10501 0.0
C355 C 0.74515 0.53557 0.08668 0.0
C356 C 0.71484 0.55078 0.09173 0.0
C357 C 0.70106 0.54817 0.11478 0.0
C358 C 0.71863 0.53069 0.13313 0.0
H359 H 0.34147 0.54101 0.42324 0.0
H360 H 0.35799 0.54154 0.34696 0.0
H361 H 0.3021 0.51842 0.34044 0.0
H362 H 0.29799 0.45776 0.42392 0.0
H363 H 0.27069 0.47108 0.44742 0.0
H364 H 0.31091 0.49009 0.44584 0.0
H365 H 0.28621 0.55395 0.4452 0.0
H366 H 0.2459 0.53514 0.44679 0.0
H367 H 0.25636 0.56528 0.42287 0.0
H368 H 0.24333 0.49685 0.34254 0.0
H369 H 0.18911 0.47247 0.35308 0.0
H370 H 0.21348 0.48043 0.42808 0.0
C371 C 0.33315 0.53664 0.40515 0.0
C372 C 0.35379 0.54356 0.38555 0.0
C373 C 0.34243 0.53661 0.36218 0.0
C374 C 0.31073 0.52359 0.35834 0.0
C375 C 0.29098 0.51694 0.37809 0.0
C376 C 0.30196 0.52275 0.40106 0.0
C377 C 0.27681 0.51127 0.41929 0.0
C378 C 0.28989 0.48073 0.43504 0.0
C379 C 0.26566 0.54332 0.43442 0.0
C380 C 0.24984 0.49826 0.40303 0.0
C381 C 0.25822 0.50229 0.37932 0.0
C382 C 0.23667 0.49328 0.36105 0.0
C383 C 0.20592 0.47955 0.36719 0.0
C384 C 0.19727 0.47423 0.39136 0.0
C385 C 0.21961 0.48375 0.40944 0.0
H386 H 0.20666 0.52741 0.85807 0.0
H387 H 0.201 0.56754 0.93057 0.0
H388 H 0.25513 0.54281 0.93908 0.0
H389 H 0.24896 0.44628 0.87024 0.0
H390 H 0.27552 0.4483 0.84472 0.0
H391 H 0.23612 0.46936 0.8436 0.0
H392 H 0.26291 0.52992 0.8325 0.0
H393 H 0.30238 0.50895 0.83332 0.0
H394 H 0.29448 0.54799 0.8513 0.0
H395 H 0.30624 0.50866 0.94154 0.0
H396 H 0.35764 0.4759 0.93585 0.0
H397 H 0.33578 0.46327 0.86066 0.0
C398 C 0.2171 0.53134 0.87559 0.0
C399 C 0.19953 0.54944 0.89367 0.0
C400 C 0.21401 0.55411 0.91637 0.0
C401 C 0.24471 0.53991 0.92147 0.0
C402 C 0.26116 0.52177 0.90352 0.0
C403 C 0.24846 0.51822 0.88083 0.0
C404 C 0.27231 0.49849 0.86475 0.0
C405 C 0.25732 0.46353 0.85527 0.0
C406 C 0.2837 0.52279 0.84425 0.0
C407 C 0.29988 0.49091 0.88217 0.0
C408 C 0.29244 0.50415 0.9045 0.0
C409 C 0.31268 0.49873 0.92406 0.0
C410 C 0.3417 0.47986 0.92068 0.0
C411 C 0.35069 0.46728 0.89785 0.0
C412 C 0.32955 0.47295 0.87826 0.0
H413 H 0.68771 0.50464 0.62934 0.0
H414 H 0.70908 0.39388 0.64645 0.0
H415 H 0.7665 0.40997 0.65435 0.0
H416 H 0.75992 0.51859 0.59661 0.0
H417 H 0.76547 0.56453 0.60565 0.0
H418 H 0.72525 0.54551 0.60471 0.0
H419 H 0.7165 0.56264 0.64898 0.0
H420 H 0.75676 0.58174 0.65005 0.0
H421 H 0.7452 0.54755 0.67113 0.0
H422 H 0.82184 0.43758 0.65904 0.0
H423 H 0.8724 0.47303 0.65587 0.0
H424 H 0.81641 0.56496 0.63213 0.0
C425 C 0.70442 0.48406 0.6353 0.0
C426 C 0.69403 0.44816 0.63778 0.0
C427 C 0.71665 0.42158 0.64473 0.0
C428 C 0.74922 0.43051 0.64933 0.0
C429 C 0.75892 0.46606 0.64645 0.0
C430 C 0.7373 0.49237 0.6393 0.0
C431 C 0.75477 0.52765 0.63505 0.0
C432 C 0.75114 0.53976 0.60896 0.0
C433 C 0.74258 0.5566 0.65234 0.0
C434 C 0.78955 0.51695 0.64065 0.0
C435 C 0.79127 0.48151 0.6477 0.0
C436 C 0.82079 0.46538 0.65358 0.0
C437 C 0.84939 0.48577 0.65179 0.0
C438 C 0.8484 0.52174 0.64372 0.0
C439 C 0.81796 0.53754 0.63836 0.0
H440 H 0.05095 0.00843 0.32506 0.0
H441 H 0.94957 0.9763 0.32588 0.0
H442 H 0.95324 0.95995 0.28331 0.0
H443 H 0.04726 0.05244 0.27213 0.0
H444 H 0.08729 0.04058 0.26168 0.0
H445 H 0.07912 0.04193 0.29311 0.0
H446 H 0.09853 0.97617 0.29736 0.0
H447 H 0.10692 0.97467 0.26583 0.0
H448 H 0.08034 0.94182 0.27911 0.0
H449 H 0.96516 0.95622 0.23986 0.0
H450 H 0.98358 0.96751 0.19873 0.0
H451 H 0.07701 0.00363 0.22559 0.0
C452 C 0.02991 0.99658 0.31651 0.0
C453 C 1.00011 0.99304 0.32884 0.0
C454 C 0.97273 0.97882 0.31682 0.0
C455 C 0.97463 0.96934 0.29267 0.0
C456 C 1.00408 0.97432 0.28077 0.0
C457 C 0.0313 0.98752 0.29231 0.0
C458 C 0.05858 0.99508 0.27482 0.0
C459 C 0.06862 0.03486 0.27548 0.0
C460 C 0.08782 0.97046 0.27957 0.0
C461 C 0.04199 0.98558 0.25153 0.0
C462 C 1.01082 0.9729 0.25542 0.0
C463 C 0.98974 0.96543 0.23661 0.0
C464 C 1.00042 0.972 0.21329 0.0
C465 C 0.03183 0.98621 0.20892 0.0
C466 C 0.05313 0.99205 0.22832 0.0
H467 H 0.46183 0.99105 0.22609 0.0
H468 H 0.55388 0.02982 0.19845 0.0
H469 H 0.57329 0.0401 0.23948 0.0
H470 H 0.45904 0.0505 0.28089 0.0
H471 H 0.44187 0.0148 0.29854 0.0
H472 H 0.43268 0.01784 0.26717 0.0
H473 H 0.45302 0.95275 0.26134 0.0
H474 H 0.46255 0.94959 0.29251 0.0
H475 H 0.49367 0.94106 0.27062 0.0
H476 H 0.5864 0.03545 0.28284 0.0
H477 H 0.5914 0.01801 0.32517 0.0
H478 H 0.49077 0.98292 0.32498 0.0
C479 C 0.48554 0.00311 0.22865 0.0
C480 C 0.50622 0.00996 0.20906 0.0
C481 C 0.53752 0.02463 0.21318 0.0
C482 C 0.54874 0.03063 0.23645 0.0
C483 C 0.52832 0.02208 0.25544 0.0
C484 C 0.49719 0.00906 0.2518 0.0
C485 C 0.48158 0.99796 0.27514 0.0
C486 C 0.45204 0.0217 0.28077 0.0
C487 C 0.47218 0.95798 0.27487 0.0
C488 C 0.50931 0.00516 0.2923 0.0
C489 C 0.53589 0.01959 0.28064 0.0
C490 C 0.56549 0.02503 0.29228 0.0
C491 C 0.56815 0.01493 0.31631 0.0
C492 C 0.54138 0.99953 0.32846 0.0
C493 C 0.51143 0.99545 0.31636 0.0
H494 H 1.00698 0.99041 0.7127 0.0
H495 H 0.11227 0.99761 0.71522 0.0
H496 H 0.10978 0.00473 0.75894 0.0
H497 H 0.98951 0.05218 0.76446 0.0
H498 H 0.95622 0.02433 0.77421 0.0
H499 H 0.96581 0.02759 0.74293 0.0
H500 H 0.97101 0.95849 0.74075 0.0
H501 H 0.96178 0.95499 0.77195 0.0
H502 H 0.99886 0.93584 0.76051 0.0
H503 H 0.09671 0.0003 0.80221 0.0
H504 H 0.07417 0.9855 0.84173 0.0
H505 H 0.97719 0.98097 0.81139 0.0
C506 C 0.02946 0.99486 0.72232 0.0
C507 C 0.05983 0.99381 0.71051 0.0
C508 C 0.08873 0.99866 0.72385 0.0
C509 C 0.08753 0.0028 0.7487 0.0
C510 C 0.05724 0.00223 0.7599 0.0
C511 C 0.02867 0.99874 0.74711 0.0
C512 C 0.99963 0.9945 0.76352 0.0
C513 C 0.97642 0.02657 0.76114 0.0
C514 C 0.9818 0.95884 0.7589 0.0
C515 C 1.01647 0.99446 0.78754 0.0
C516 C 0.04964 0.99957 0.78506 0.0
C517 C 0.07072 0.9971 0.80443 0.0
C518 C 0.05769 0.98853 0.8268 0.0
C519 C 0.02389 0.98242 0.82965 0.0
C520 C 1.00299 0.98632 0.80984 0.0
H521 H 0.45914 0.01505 0.72581 0.0
H522 H 0.55119 0.97555 0.69884 0.0
H523 H 0.57135 0.9687 0.74002 0.0
H524 H 0.49157 0.06897 0.76831 0.0
H525 H 0.46084 0.0619 0.79074 0.0
H526 H 0.45084 0.05635 0.75978 0.0
H527 H 0.43088 0.99164 0.76797 0.0
H528 H 0.44047 0.99711 0.79912 0.0
H529 H 0.45757 0.96024 0.78262 0.0
H530 H 0.58475 0.97572 0.78327 0.0
H531 H 0.58972 0.99471 0.8253 0.0
H532 H 0.48921 0.03019 0.82424 0.0
C533 C 0.48301 0.00351 0.72863 0.0
C534 C 0.50346 0.99537 0.70916 0.0
C535 C 0.53501 0.98163 0.71352 0.0
C536 C 0.54667 0.9776 0.73686 0.0
C537 C 0.52645 0.98736 0.75568 0.0
C538 C 0.49513 -0.00031 0.75185 0.0
C539 C 0.4798 0.01242 0.77489 0.0
C540 C 0.47022 0.05226 0.77332 0.0
C541 C 0.45044 0.98894 0.78154 0.0
C542 C 0.5078 0.00671 0.79204 0.0
C543 C 0.53433 0.99172 0.78072 0.0
C544 C 0.56392 0.98676 0.79246 0.0
C545 C 0.56656 0.99775 0.81631 0.0
C546 C 0.53982 0.0137 0.82813 0.0
C547 C 0.50996 0.01756 0.81586 0.0
H548 H 0.49116 0.53088 0.19451 0.0
H549 H 0.59125 0.49412 0.19346 0.0
H550 H 0.58691 0.47738 0.23593 0.0
H551 H 0.49583 0.57345 0.24789 0.0
H552 H 0.45539 0.56273 0.25808 0.0
H553 H 0.46382 0.56463 0.22669 0.0
H554 H 0.44248 0.49973 0.22165 0.0
H555 H 0.43379 0.49767 0.25312 0.0
H556 H 0.45947 0.46426 0.23958 0.0
H557 H 0.57491 0.47404 0.27937 0.0
H558 H 0.55655 0.48499 0.32055 0.0
H559 H 0.46416 0.52424 0.29385 0.0
C560 C 0.51179 0.51807 0.20297 0.0
C561 C 0.54145 0.51341 0.19059 0.0
C562 C 0.56821 0.49764 0.20252 0.0
C563 C 0.56593 0.48794 0.22663 0.0
C564 C 0.53668 0.49405 0.23855 0.0
C565 C 0.50998 0.50856 0.22708 0.0
C566 C 0.4828 0.5166 0.24454 0.0
C567 C 0.47397 0.55672 0.24428 0.0
C568 C 0.45286 0.49316 0.23941 0.0
C569 C 0.4989 0.5059 0.26778 0.0
C570 C 0.52974 0.49232 0.26386 0.0
C571 C 0.55056 0.48387 0.28263 0.0
C572 C 0.53994 0.49028 0.30597 0.0
C573 C 0.50881 0.50511 0.31039 0.0
C574 C 0.48774 0.51204 0.29103 0.0
H575 H 1.0007 0.47012 0.31658 0.0
H576 H 0.1041 0.4937 0.31544 0.0
H577 H 0.10127 0.50308 0.27193 0.0
H578 H 0.99945 0.41882 0.26624 0.0
H579 H 0.96046 0.4337 0.25536 0.0
H580 H 0.96918 0.43525 0.28673 0.0
H581 H 0.95582 0.50309 0.28745 0.0
H582 H 0.94687 0.50173 0.256 0.0
H583 H 0.97656 0.53299 0.26728 0.0
H584 H 0.08925 0.50024 0.22843 0.0
H585 H 0.06874 0.48655 0.18811 0.0
H586 H 0.97282 0.466 0.21721 0.0
C587 C 0.02257 0.47833 0.30731 0.0
C588 C 0.05261 0.48138 0.31944 0.0
C589 C 0.08079 0.49143 0.30656 0.0
C590 C 0.07939 0.49691 0.28184 0.0
C591 C 0.04958 0.49258 0.27031 0.0
C592 C 0.02159 0.48386 0.28265 0.0
C593 C 0.99336 0.47726 0.26581 0.0
C594 C 0.97985 0.43899 0.26871 0.0
C595 C 0.96657 0.50546 0.26935 0.0
C596 C 1.01018 0.48206 0.24201 0.0
C597 C 0.04251 0.49137 0.24503 0.0
C598 C 0.06382 0.49379 0.22581 0.0
C599 C 0.05198 0.48585 0.20299 0.0
C600 C 1.01912 0.47567 0.19956 0.0
C601 C 0.99782 0.47464 0.21926 0.0
H602 H 0.48713 0.4716 0.6944 0.0
H603 H 0.588 0.50569 0.69274 0.0
H604 H 0.58452 0.52258 0.73521 0.0
H605 H 0.4573 0.53884 0.73944 0.0
H606 H 0.43113 0.5061 0.75328 0.0
H607 H 0.43945 0.5036 0.72177 0.0
H608 H 0.45961 0.4383 0.72701 0.0
H609 H 0.45155 0.44063 0.75844 0.0
H610 H 0.49166 0.42895 0.74807 0.0
H611 H 0.57285 0.52719 0.77861 0.0
H612 H 0.55449 0.51786 0.81995 0.0
H613 H 0.46126 0.47969 0.794 0.0
C614 C 0.50812 0.48387 0.70274 0.0
C615 C 0.53773 0.48782 0.6902 0.0
C616 C 0.56501 0.50276 0.70196 0.0
C617 C 0.56321 0.51254 0.72606 0.0
C618 C 0.53395 0.50722 0.73814 0.0
C619 C 0.50682 0.49335 0.72687 0.0
C620 C 0.47968 0.48604 0.74453 0.0
C621 C 0.45014 0.51009 0.73945 0.0
C622 C 0.47009 0.44612 0.74451 0.0
C623 C 0.49623 0.49657 0.76762 0.0
C624 C 0.5273 0.50937 0.76346 0.0
C625 C 0.54837 0.51787 0.78206 0.0
C626 C 0.53773 0.51237 0.8055 0.0
C627 C 0.50635 0.49831 0.8102 0.0
C628 C 0.4851 0.49121 0.79098 0.0
H629 H 0.08054 0.51589 0.80295 0.0
H630 H 0.99048 0.47042 0.8296 0.0
H631 H 0.97202 0.46003 0.78837 0.0
H632 H 0.04641 0.5647 0.7584 0.0
H633 H 0.07822 0.55857 0.73669 0.0
H634 H 0.08749 0.5556 0.76793 0.0
H635 H 0.11146 0.49209 0.76182 0.0
H636 H 0.1025 0.49496 0.73042 0.0
H637 H 0.08711 0.45794 0.74773 0.0
H638 H 0.95918 0.46452 0.74501 0.0
H639 H 0.9538 0.48192 0.70271 0.0
H640 H 0.0523 0.52367 0.70372 0.0
C641 C 0.05752 0.50243 0.8001 0.0
C642 C 0.03709 0.49364 0.81951 0.0
C643 C 1.00665 0.47714 0.81503 0.0
C644 C 0.99596 0.47105 0.79164 0.0
C645 C 1.01607 0.48138 0.77287 0.0
C646 C 0.0464 0.49634 0.77681 0.0
C647 C 0.06165 0.50879 0.75363 0.0
C648 C 0.06884 0.54931 0.75421 0.0
C649 C 0.09251 0.48714 0.74807 0.0
C650 C 0.03458 0.50001 0.73623 0.0
C651 C 1.00868 0.48374 0.74763 0.0
C652 C 0.9796 0.47642 0.73576 0.0
C653 C 0.97672 0.4865 0.71175 0.0
C654 C 1.00276 0.5037 0.69983 0.0
C655 C 0.03227 0.50973 0.71217 0.0
H656 H 0.07665 0.17972 0.14799 0.0
H657 H 0.98538 0.12097 0.1501 0.0
H658 H 0.95513 0.17768 0.14821 0.0
H659 H 0.04879 0.2554 0.18444 0.0
H660 H 0.07139 0.28792 0.16739 0.0
H661 H 0.08618 0.24264 0.16998 0.0
H662 H 0.08786 0.23743 0.12395 0.0
H663 H 0.07294 0.2826 0.12122 0.0
H664 H 0.0515 0.24633 0.10695 0.0
H665 H 0.9344 0.2402 0.14296 0.0
H666 H 0.92495 0.30514 0.13748 0.0
H667 H 0.02914 0.32378 0.14048 0.0
C668 C 0.05032 0.1788 0.14834 0.0
C669 C 0.03351 0.14575 0.14917 0.0
C670 C 0.99897 0.14583 0.14951 0.0
C671 C 0.98146 0.17795 0.14842 0.0
C672 C 0.99871 0.20996 0.14723 0.0
C673 C 0.03235 0.21075 0.14747 0.0
C674 C 0.04482 0.2489 0.1457 0.0
C675 C 0.06392 0.25932 0.16822 0.0
C676 C 0.06549 0.2541 0.12311 0.0
C677 C 1.01296 0.26922 0.14405 0.0
C678 C 0.98666 0.24624 0.1449 0.0
C679 C 0.95478 0.25856 0.14258 0.0
C680 C 0.94964 0.29544 0.13938 0.0
C681 C 0.97623 0.31955 0.13876 0.0
C682 C 1.00825 0.30611 0.14124 0.0
H683 H 0.46083 0.81556 0.1443 0.0
H684 H 0.54834 0.87364 0.16421 0.0
H685 H 0.57889 0.81706 0.16543 0.0
H686 H 0.47748 0.73506 0.1808 0.0
H687 H 0.46131 0.70501 0.15862 0.0
H688 H 0.4454 0.74984 0.1612 0.0
H689 H 0.45802 0.76115 0.11658 0.0
H690 H 0.47408 0.71649 0.1139 0.0
H691 H 0.49884 0.75444 0.10573 0.0
H692 H 0.60141 0.75533 0.16099 0.0
H693 H 0.61359 0.69169 0.1528 0.0
H694 H 0.51161 0.673 0.13677 0.0
C695 C 0.48625 0.81629 0.14934 0.0
C696 C 0.50209 0.84916 0.15416 0.0
C697 C 0.53556 0.84891 0.1604 0.0
C698 C 0.5532 0.81686 0.1612 0.0
C699 C 0.53708 0.78508 0.15587 0.0
C700 C 0.50431 0.78441 0.15027 0.0
C701 C 0.49331 0.74669 0.14428 0.0
C702 C 0.46787 0.73337 0.16231 0.0
C703 C 0.4803 0.74459 0.1186 0.0
C704 C 0.52515 0.72654 0.14692 0.0
C705 C 0.55006 0.74919 0.15368 0.0
C706 C 0.58203 0.73719 0.15601 0.0
C707 C 0.58874 0.70103 0.15124 0.0
C708 C 0.56357 0.67729 0.14433 0.0
C709 C 0.53134 0.69032 0.14237 0.0
H710 H 0.46404 0.69411 0.38939 0.0
H711 H 0.54875 0.63887 0.36126 0.0
H712 H 0.57769 0.69622 0.35793 0.0
H713 H 0.47226 0.77402 0.35171 0.0
H714 H 0.45929 0.80424 0.37488 0.0
H715 H 0.44435 0.75883 0.37434 0.0
H716 H 0.4651 0.74928 0.41749 0.0
H717 H 0.48014 0.7946 0.41814 0.0
H718 H 0.50726 0.7578 0.42434 0.0
H719 H 0.59925 0.75851 0.36009 0.0
H720 H 0.61079 0.82291 0.36579 0.0
H721 H 0.51196 0.839 0.39083 0.0
C722 C 0.48855 0.69413 0.38233 0.0
C723 C 0.50401 0.66179 0.37562 0.0
C724 C 0.5362 0.66312 0.36652 0.0
C725 C 0.55297 0.69563 0.36454 0.0
C726 C 0.53723 0.72686 0.37151 0.0
C727 C 0.50567 0.72656 0.38002 0.0
C728 C 0.49474 0.76412 0.38656 0.0
C729 C 0.46595 0.776 0.37094 0.0
C730 C 0.48633 0.76658 0.41321 0.0
C731 C 0.52526 0.78531 0.38072 0.0
C732 C 0.54948 0.76323 0.37211 0.0
C733 C 0.58037 0.77621 0.36655 0.0
C734 C 0.58673 0.81279 0.3699 0.0
C735 C 0.56224 0.83604 0.37854 0.0
C736 C 0.53105 0.82202 0.38383 0.0
H737 H 1.01793 0.33636 0.38959 0.0
H738 H 0.1217 0.31494 0.39041 0.0
H739 H 0.11049 0.25009 0.38626 0.0
H740 H 0.99549 0.26028 0.42495 0.0
H741 H 0.95808 0.25215 0.40906 0.0
H742 H 0.97434 0.29689 0.4108 0.0
H743 H 0.97372 0.30126 0.36471 0.0
H744 H 0.95764 0.25641 0.36282 0.0
H745 H 0.99465 0.26782 0.34735 0.0
H746 H 0.08812 0.18814 0.38162 0.0
H747 H 0.05661 0.13222 0.38098 0.0
H748 H 0.96678 0.19322 0.38529 0.0
C749 C 0.03832 0.31804 0.38873 0.0
C750 C 0.07075 0.33068 0.39011 0.0
C751 C 0.09672 0.30583 0.38937 0.0
C752 C 0.09057 0.26901 0.38689 0.0
C753 C 0.05833 0.25749 0.38546 0.0
C754 C 0.03261 0.28119 0.38665 0.0
C755 C 1.00023 0.26163 0.38601 0.0
C756 C 0.98091 0.26812 0.40908 0.0
C757 C 0.9804 0.27243 0.36391 0.0
C758 C 1.01175 0.22314 0.38431 0.0
C759 C 0.04535 0.22151 0.3837 0.0
C760 C 0.06182 0.18908 0.38216 0.0
C761 C 0.04357 0.1574 0.38174 0.0
C762 C 1.00908 0.15814 0.38314 0.0
C763 C 0.99304 0.19164 0.38415 0.0
H764 H 0.07835 0.68609 0.87981 0.0
H765 H 0.98787 0.62594 0.87725 0.0
H766 H 0.95689 0.68221 0.87838 0.0
H767 H 0.05186 0.75255 0.92012 0.0
H768 H 0.07302 0.78907 0.90588 0.0
H769 H 0.08854 0.74412 0.90343 0.0
H770 H 0.08737 0.74905 0.85737 0.0
H771 H 0.07199 0.79413 0.85968 0.0
H772 H 0.05001 0.76117 0.84258 0.0
H773 H 0.9353 0.7445 0.88333 0.0
H774 H 0.92501 0.80928 0.88885 0.0
H775 H 0.02898 0.82945 0.88638 0.0
C776 C 0.05205 0.68477 0.87914 0.0
C777 C 0.03567 0.65143 0.87846 0.0
C778 C 1.00114 0.65101 0.87775 0.0
C779 C 0.98321 0.68289 0.8784 0.0
C780 C 1.00004 0.71518 0.87951 0.0
C781 C 0.03366 0.71646 0.87958 0.0
C782 C 0.04563 0.75481 0.88131 0.0
C783 C 0.06596 0.76045 0.90404 0.0
C784 C 0.06488 0.76541 0.8589 0.0
C785 C 1.0135 0.77467 0.88263 0.0
C786 C 0.98749 0.7513 0.88163 0.0
C787 C 0.95545 0.76316 0.88379 0.0
C788 C 0.94983 0.79995 0.88701 0.0
C789 C 0.97611 0.82445 0.88781 0.0
C790 C 1.00831 0.81148 0.88545 0.0
H791 H 0.46138 0.31306 0.88501 0.0
H792 H 0.55197 0.37213 0.87785 0.0
H793 H 0.5827 0.31576 0.87976 0.0
H794 H 0.49028 0.24707 0.92591 0.0
H795 H 0.46798 0.21045 0.9128 0.0
H796 H 0.45259 0.25548 0.91045 0.0
H797 H 0.45059 0.24956 0.86446 0.0
H798 H 0.46589 0.20444 0.86669 0.0
H799 H 0.48685 0.23691 0.8485 0.0
H800 H 0.60426 0.25366 0.88515 0.0
H801 H 0.61463 0.18882 0.89034 0.0
H802 H 0.51056 0.16913 0.89153 0.0
C803 C 0.48765 0.31407 0.88369 0.0
C804 C 0.50416 0.34715 0.88129 0.0
C805 C 0.53862 0.34723 0.87957 0.0
C806 C 0.55641 0.31531 0.88071 0.0
C807 C 0.53949 0.28327 0.88327 0.0
C808 C 0.50589 0.28225 0.88443 0.0
C809 C 0.49387 0.244 0.88696 0.0
C810 C 0.47508 0.23897 0.91043 0.0
C811 C 0.47307 0.23309 0.86536 0.0
C812 C 0.52596 0.22393 0.88737 0.0
C813 C 0.55198 0.24713 0.88539 0.0
C814 C 0.58408 0.23512 0.88642 0.0
C815 C 0.58976 0.1983 0.88944 0.0
C816 C 0.56346 0.17393 0.89108 0.0
C817 C 0.53118 0.18705 0.88994 0.0
H818 H 0.45412 0.18316 0.63207 0.0
H819 H 0.5355 0.1298 0.66654 0.0
H820 H 0.5638 0.18744 0.67036 0.0
H821 H 0.50048 0.2438 0.59816 0.0
H822 H 0.47323 0.28128 0.60151 0.0
H823 H 0.45767 0.23624 0.60304 0.0
H824 H 0.43294 0.24939 0.64458 0.0
H825 H 0.4483 0.2946 0.64311 0.0
H826 H 0.45873 0.26629 0.66802 0.0
H827 H 0.58601 0.24909 0.66703 0.0
H828 H 0.59904 0.31255 0.65897 0.0
H829 H 0.50303 0.32747 0.62827 0.0
C830 C 0.47762 0.18372 0.64079 0.0
C831 C 0.4925 0.15179 0.64894 0.0
C832 C 0.52348 0.15373 0.66007 0.0
C833 C 0.53984 0.18641 0.66239 0.0
C834 C 0.52489 0.21718 0.65372 0.0
C835 C 0.49434 0.21632 0.6434 0.0
C836 C 0.48442 0.25335 0.63488 0.0
C837 C 0.47862 0.25366 0.60779 0.0
C838 C 0.45431 0.26669 0.64847 0.0
C839 C 0.51448 0.27476 0.64154 0.0
C840 C 0.53749 0.25331 0.6524 0.0
C841 C 0.56801 0.26636 0.65888 0.0
C842 C 0.57525 0.30237 0.65414 0.0
C843 C 0.55199 0.325 0.64321 0.0
C844 C 0.52112 0.31097 0.63702 0.0
H845 H 0.08146 0.80486 0.63634 0.0
H846 H 0.99765 0.86436 0.66192 0.0
H847 H 0.96718 0.80807 0.66648 0.0
H848 H 0.03768 0.74104 0.60249 0.0
H849 H 0.06369 0.70377 0.60985 0.0
H850 H 0.07986 0.74861 0.60974 0.0
H851 H 0.09926 0.74059 0.65338 0.0
H852 H 0.08321 0.69564 0.65359 0.0
H853 H 0.07041 0.72734 0.67592 0.0
H854 H 0.94402 0.74607 0.66534 0.0
H855 H 0.93109 0.68173 0.66054 0.0
H856 H 0.03022 0.66197 0.63741 0.0
C857 C 0.05685 0.80602 0.64315 0.0
C858 C 0.04205 0.83917 0.64873 0.0
C859 C 1.00967 0.83941 0.65753 0.0
C860 C 0.99206 0.80753 0.6602 0.0
C861 C 1.00716 0.77543 0.65425 0.0
C862 C 0.03891 0.77432 0.64614 0.0
C863 C 0.04907 0.7362 0.64056 0.0
C864 C 0.0581 0.73219 0.61409 0.0
C865 C 0.07715 0.72424 0.65684 0.0
C866 C 1.01791 0.71629 0.64641 0.0
C867 C 0.99402 0.73943 0.65424 0.0
C868 C 0.96265 0.72757 0.65953 0.0
C869 C 0.95549 0.69103 0.65669 0.0
C870 C 0.97968 0.66679 0.64884 0.0
C871 C 1.01133 0.67971 0.64384 0.0
H872 H 0.97009 0.95432 0.98587 0.0
H873 H 0.05163 0.99068 0.94291 0.0
H874 H 0.0819 0.00574 0.97944 0.0
H875 H 0.97705 0.02262 0.03112 0.0
H876 H 0.966 0.9929 0.05514 0.0
H877 H 0.95074 0.98487 0.02553 0.0
H878 H 0.9746 0.92063 0.02682 0.0
H879 H 0.99032 0.92864 0.05632 0.0
H880 H 1.01733 0.9145 0.03286 0.0
H881 H 0.10361 0.0166 0.02029 0.0
H882 H 0.11388 0.02681 0.06301 0.0
H883 H 1.01854 0.98344 0.07986 0.0
C884 C 0.99423 0.96564 0.98411 0.0
C885 C 1.00843 0.97127 0.96143 0.0
C886 C 0.04014 0.98611 0.96001 0.0
C887 C 0.05764 0.99463 0.98068 0.0
C888 C 0.04316 0.98819 1.00269 0.0
C889 C 1.0121 0.97434 1.00459 0.0
C890 C 1.00204 0.97069 0.03048 0.0
C891 C 0.97219 0.99418 0.03588 0.0
C892 C 0.9957 0.93126 0.03699 0.0
C893 C 0.03227 0.98481 0.0428 0.0
C894 C 0.05574 0.99452 0.02639 0.0
C895 C 0.08546 0.00906 0.03333 0.0
C896 C 0.09108 0.01468 0.05766 0.0
C897 C 0.06708 0.00584 0.07483 0.0
C898 C 0.03754 0.99007 0.06724 0.0
H899 H 0.56847 0.04114 0.9866 0.0
H900 H 0.48758 0.00483 0.94295 0.0
H901 H 0.45736 0.98822 0.97925 0.0
H902 H 0.56223 0.9717 0.03123 0.0
H903 H 0.57278 0.0011 0.05551 0.0
H904 H 0.58809 0.00996 0.02603 0.0
H905 H 0.56342 0.07379 0.02769 0.0
H906 H 0.5477 0.06498 0.05708 0.0
H907 H 0.5206 0.07916 0.03363 0.0
H908 H 0.43567 0.97593 0.02007 0.0
H909 H 0.42516 0.96534 0.06273 0.0
H910 H 0.51988 0.00989 0.08015 0.0
C911 C 0.54448 0.0295 0.98462 0.0
C912 C 0.53044 0.02431 0.96184 0.0
C913 C 0.49893 0.00905 0.96014 0.0
C914 C 0.48149 0.99964 0.98068 0.0
C915 C 0.49583 0.00563 1.00282 0.0
C916 C 0.52669 0.01995 1.00495 0.0
C917 C 0.5366 0.02325 0.0309 0.0
C918 C 0.5667 0.00011 0.03623 0.0
C919 C 0.54242 0.06264 0.03772 0.0
C920 C 0.5065 0.00844 0.04301 0.0
C921 C 0.48326 0.99859 0.02645 0.0
C922 C 0.45366 0.98357 0.03322 0.0
C923 C 0.44791 0.97773 0.05752 0.0
C924 C 0.47163 0.98687 0.07485 0.0
C925 C 0.5011 0.00297 0.06741 0.0
H926 H 0.46364 0.03049 0.54895 0.0
H927 H 0.53363 0.97554 0.59409 0.0
H928 H 0.56448 0.95735 0.55856 0.0
H929 H 0.46482 0.96452 0.50084 0.0
H930 H 0.46097 0.99789 0.47776 0.0
H931 H 0.44377 0.00593 0.50679 0.0
H932 H 0.47663 0.06502 0.50982 0.0
H933 H 0.49426 0.05693 0.48094 0.0
H934 H 0.52023 0.06393 0.50641 0.0
H935 H 0.58962 0.94793 0.51872 0.0
H936 H 0.60447 0.94215 0.47641 0.0
H937 H 0.51763 0.00137 0.45643 0.0
C938 C 0.48524 0.01429 0.55136 0.0
C939 C 0.49616 0.00453 0.5744 0.0
C940 C 0.52463 0.98334 0.5767 0.0
C941 C 0.54246 0.97297 0.55661 0.0
C942 C 0.53146 0.9837 0.53426 0.0
C943 C 0.50328 0.00341 0.53142 0.0
C944 C 0.49682 0.01111 0.50528 0.0
C945 C 0.46469 0.99382 0.49719 0.0
C946 C 0.497 0.05166 0.50033 0.0
C947 C 0.52592 0.99286 0.49395 0.0
C948 C 0.54567 0.97749 0.51105 0.0
C949 C 0.57424 0.95962 0.50512 0.0
C950 C 0.58255 0.95665 0.481 0.0
C951 C 0.56223 0.97123 0.463 0.0
C952 C 0.53369 0.9899 0.4697 0.0
H953 H 0.07736 0.95791 0.54888 0.0
H954 H 1.01301 0.01945 0.59463 0.0
H955 H 0.98274 0.0402 0.55941 0.0
H956 H 0.07999 0.02334 0.50049 0.0
H957 H 0.08064 0.98961 0.47752 0.0
H958 H 0.09788 0.98012 0.50637 0.0
H959 H 0.06059 0.92438 0.51005 0.0
H960 H 0.04291 0.934 0.48136 0.0
H961 H 1.01716 0.9296 0.50719 0.0
H962 H 0.95767 0.05208 0.51992 0.0
H963 H 0.94261 0.05975 0.47782 0.0
H964 H 0.02359 0.99192 0.45687 0.0
C965 C 0.05714 0.97608 0.55148 0.0
C966 C 0.04761 0.98696 0.57462 0.0
C967 C 1.02091 0.01071 0.57717 0.0
C968 C 1.00341 0.02256 0.55726 0.0
C969 C 1.01295 0.01067 0.53484 0.0
C970 C 0.03943 0.9884 0.53173 0.0
C971 C 0.04459 0.97999 0.50554 0.0
C972 C 0.07774 0.99412 0.49698 0.0
C973 C 0.0411 0.93959 0.50077 0.0
C974 C 1.01674 0.00089 0.49449 0.0
C975 C 0.99872 0.01813 0.5118 0.0
C976 C 0.97169 0.03891 0.50617 0.0
C977 C 0.96327 0.04297 0.48215 0.0
C978 C 0.98191 0.02652 0.46392 0.0
C979 C 1.00876 0.00477 0.47032 0.0
H980 H 0.51465 0.51203 0.06246 0.0
H981 H 0.59532 0.58111 0.04248 0.0
H982 H 0.58093 0.574 1.00023 0.0
H983 H 0.52389 0.45042 0.01366 0.0
H984 H 0.48081 0.44353 1.00973 0.0
H985 H 0.49667 0.45496 0.03866 0.0
H986 H 0.45763 0.50938 0.04054 0.0
H987 H 0.44184 0.49827 1.01151 0.0
H988 H 0.4584 0.54224 0.01698 0.0
H989 H 0.55826 0.55994 0.96022 0.0
H990 H 0.53115 0.53563 0.92454 0.0
H991 H 0.4658 0.47437 0.96981 0.0
C992 C 0.52925 0.52568 0.0492 0.0
C993 C 0.55609 0.5472 0.05588 0.0
C994 C 0.57469 0.56441 0.03791 0.0
C995 C 0.56663 0.56071 0.0138 0.0
C996 C 0.53998 0.53957 1.00783 0.0
C997 C 0.52171 0.52204 0.02492 0.0
C998 C 0.49502 0.49985 0.01347 0.0
C999 C 0.49937 0.45982 0.01922 0.0
C1000 C 0.46122 0.51325 0.02108 0.0
C1001 C 0.50135 0.50756 0.98733 0.0
C1002 C 0.52719 0.53084 0.98454 0.0
C1003 C 0.53796 0.54168 0.96214 0.0
C1004 C 0.52232 0.52778 0.94196 0.0
C1005 C 0.49632 0.50306 0.9443 0.0
C1006 C 0.48551 0.49329 0.96737 0.0
H1007 H 0.97133 0.45216 0.04212 0.0
H1008 H 0.05133 0.49009 0.08607 0.0
H1009 H 0.08107 0.50835 0.04997 0.0
H1010 H 1.02029 0.41693 0.99444 0.0
H1011 H 0.99281 0.43094 0.97118 0.0
H1012 H 0.97734 0.42071 1.00044 0.0
H1013 H 0.95095 0.48363 1.00294 0.0
H1014 H 0.96604 0.49391 0.97359 0.0
H1015 H 0.97577 0.52287 0.99829 0.0
H1016 H 0.10232 0.52243 1.00962 0.0
H1017 H 0.11267 0.53487 0.96722 0.0
H1018 H 1.01929 0.48785 0.9488 0.0
C1019 C 0.99504 0.46445 0.04418 0.0
C1020 C 1.00896 0.46964 0.06701 0.0
C1021 C 0.04008 0.48581 0.06885 0.0
C1022 C 0.05726 0.49618 0.04843 0.0
C1023 C 0.04305 0.49024 0.02626 0.0
C1024 C 1.01259 0.475 0.02394 0.0
C1025 C 1.00278 0.47219 0.99793 0.0
C1026 C 0.99803 0.43285 0.99057 0.0
C1027 C 0.97207 0.49449 0.9929 0.0
C1028 C 0.03249 0.48836 0.98603 0.0
C1029 C 0.05542 0.4984 1.00276 0.0
C1030 C 0.08459 0.51466 0.99633 0.0
C1031 C 0.09023 0.52158 0.97217 0.0
C1032 C 0.06683 0.51228 0.95465 0.0
C1033 C 0.0378 0.49489 0.96171 0.0
H1034 H 0.0279 0.50623 0.5717 0.0
H1035 H 0.93498 0.55282 0.55158 0.0
H1036 H 0.9482 0.54356 0.50925 0.0
H1037 H 0.07444 0.54382 0.52373 0.0
H1038 H 0.0993 0.50457 0.51952 0.0
H1039 H 0.08267 0.51434 0.54849 0.0
H1040 H 0.05553 0.45167 0.54982 0.0
H1041 H 0.07236 0.44157 0.52097 0.0
H1042 H 0.02912 0.4381 0.52579 0.0
H1043 H 0.97148 0.53043 0.46917 0.0
H1044 H 1.00192 0.51052 0.4338 0.0
H1045 H 0.07981 0.47202 0.47951 0.0
C1046 C 1.01022 0.51428 0.55842 0.0
C1047 C 0.98037 0.5303 0.56506 0.0
C1048 C 0.95799 0.54048 0.54704 0.0
C1049 C 0.96531 0.53545 0.52289 0.0
C1050 C 0.99508 0.52013 0.51697 0.0
C1051 C 1.0171 0.5094 0.53416 0.0
C1052 C 0.04723 0.49325 0.52288 0.0
C1053 C 0.07771 0.51532 0.52902 0.0
C1054 C 0.05128 0.45381 0.53031 0.0
C1055 C 0.03864 0.49658 0.49669 0.0
C1056 C 1.00851 0.51233 0.49372 0.0
C1057 C 0.9951 0.51802 0.47125 0.0
C1058 C 1.01266 0.50667 0.45124 0.0
C1059 C 0.04332 0.4897 0.45379 0.0
C1060 C 0.05656 0.48508 0.47689 0.0
H1061 H 0.51616 0.49175 0.56228 0.0
H1062 H 0.60135 0.42943 0.5429 0.0
H1063 H 0.58909 0.43925 0.50039 0.0
H1064 H 0.46436 0.46106 0.51519 0.0
H1065 H 0.44534 0.50398 0.51039 0.0
H1066 H 0.46076 0.49244 0.53946 0.0
H1067 H 0.49651 0.54967 0.53964 0.0
H1068 H 0.48094 0.56157 0.51069 0.0
H1069 H 0.5242 0.55769 0.5153 0.0
H1070 H 0.56695 0.45431 0.46001 0.0
H1071 H 0.53898 0.47782 0.42442 0.0
H1072 H 0.46864 0.53134 0.46986 0.0
C1073 C 0.53236 0.48032 0.54912 0.0
C1074 C 0.55972 0.45975 0.55601 0.0
C1075 C 0.58029 0.44534 0.53815 0.0
C1076 C 0.57346 0.45063 0.51392 0.0
C1077 C 0.54607 0.47054 0.50777 0.0
C1078 C 0.52602 0.48549 0.52483 0.0
C1079 C 0.49842 0.50627 0.51339 0.0
C1080 C 0.46526 0.48995 0.52 0.0
C1081 C 0.50014 0.54616 0.52015 0.0
C1082 C 0.5061 0.5006 0.48725 0.0
C1083 C 0.53354 0.47969 0.48443 0.0
C1084 C 0.54547 0.47079 0.46198 0.0
C1085 C 0.5293 0.4842 0.44186 0.0
C1086 C 0.50157 0.50648 0.44427 0.0
C1087 C 0.4897 0.51434 0.46735 0.0
loop_
_geom_bond_atom_site_label_1
_geom_bond_atom_site_label_2
_geom_bond_distance
_geom_bond_site_symmetry_2
_ccdc_geom_bond_type
O0 Cd1 2.223 . S
O0 C8 1.315 . S
Cd1 O0 2.223 . S
Cd1 O4 2.297 . S
Cd1 O5 2.439 . S
Cd1 O11 2.240 . S
Cd2 O3 2.240 . S
Cd2 O10 2.223 . S
Cd2 O12 2.297 . S
Cd2 O13 2.439 . S
O3 Cd2 2.240 . S
O3 C8 1.279 . S
O4 Cd1 2.297 . S
O4 C6 1.247 . S
O5 Cd1 2.439 . S
O5 C6 1.208 . S
C6 O4 1.247 . S
C6 O5 1.208 . S
C7 O12 1.247 . S
C7 O13 1.208 . S
C8 O0 1.315 . S
C8 O3 1.279 . S
C9 O10 1.315 . S
C9 O11 1.279 . S
O10 Cd2 2.223 . S
O10 C9 1.315 . S
O11 Cd1 2.240 . S
O11 C9 1.279 . S
O12 Cd2 2.297 . S
O12 C7 1.247 . S
O13 Cd2 2.439 . S
O13 C7 1.208 . S
O14 Cd15 2.223 . S
O14 C22 1.315 . S
Cd15 O14 2.223 . S
Cd15 O18 2.297 . S
Cd15 O19 2.439 . S
Cd15 O25 2.240 . S
Cd16 O17 2.240 . S
Cd16 O24 2.223 . S
Cd16 O26 2.297 . S
Cd16 O27 2.439 . S
O17 Cd16 2.240 . S
O17 C22 1.279 . S
O18 Cd15 2.297 . S
O18 C20 1.247 . S
O19 Cd15 2.439 . S
O19 C20 1.208 . S
C20 O18 1.247 . S
C20 O19 1.208 . S
C21 O26 1.247 . S
C21 O27 1.208 . S
C22 O14 1.315 . S
C22 O17 1.279 . S
C23 O24 1.315 . S
C23 O25 1.279 . S
O24 Cd16 2.223 . S
O24 C23 1.315 . S
O25 Cd15 2.240 . S
O25 C23 1.279 . S
O26 Cd16 2.297 . S
O26 C21 1.247 . S
O27 Cd16 2.439 . S
O27 C21 1.208 . S
O28 Cd29 2.223 . S
O28 C36 1.315 . S
Cd29 O28 2.223 . S
Cd29 O32 2.297 . S
Cd29 O33 2.439 . S
Cd29 O39 2.240 . S
Cd30 O31 2.240 . S
Cd30 O38 2.223 . S
Cd30 O40 2.297 . S
Cd30 O41 2.439 . S
O31 Cd30 2.240 . S
O31 C36 1.279 . S
O32 Cd29 2.297 . S
O32 C34 1.247 . S
O33 Cd29 2.439 . S
O33 C34 1.208 . S
C34 O32 1.247 . S
C34 O33 1.208 . S
C35 O40 1.247 . S
C35 O41 1.208 . S
C36 O28 1.315 . S
C36 O31 1.279 . S
C37 O38 1.315 . S
C37 O39 1.279 . S
O38 Cd30 2.223 . S
O38 C37 1.315 . S
O39 Cd29 2.240 . S
O39 C37 1.279 . S
O40 Cd30 2.297 . S
O40 C35 1.247 . S
O41 Cd30 2.439 . S
O41 C35 1.208 . S
O42 Cd43 2.223 . S
O42 C50 1.315 . S
Cd43 O42 2.223 . S
Cd43 O46 2.297 . S
Cd43 O47 2.439 . S
Cd43 O53 2.240 . S
Cd44 O45 2.240 . S
Cd44 O52 2.223 . S
Cd44 O54 2.297 . S
Cd44 O55 2.439 . S
O45 Cd44 2.240 . S
O45 C50 1.279 . S
O46 Cd43 2.297 . S
O46 C48 1.247 . S
O47 Cd43 2.439 . S
O47 C48 1.208 . S
C48 O46 1.247 . S
C48 O47 1.208 . S
C49 O54 1.247 . S
C49 O55 1.208 . S
C50 O42 1.315 . S
C50 O45 1.279 . S
C51 O52 1.315 . S
C51 O53 1.279 . S
O52 Cd44 2.223 . S
O52 C51 1.315 . S
O53 Cd43 2.240 . S
O53 C51 1.279 . S
O54 Cd44 2.297 . S
O54 C49 1.247 . S
O55 Cd44 2.439 . S
O55 C49 1.208 . S
O56 Cd57 2.223 . S
O56 C64 1.315 . S
Cd57 O56 2.223 . S
Cd57 O60 2.297 . S
Cd57 O61 2.439 . S
Cd57 O67 2.240 . S
Cd58 O59 2.240 . S
Cd58 O66 2.223 . S
Cd58 O68 2.297 . S
Cd58 O69 2.439 . S
O59 Cd58 2.240 . S
O59 C64 1.279 . S
O60 Cd57 2.297 . S
O60 C62 1.247 . S
O61 Cd57 2.439 . S
O61 C62 1.208 . S
C62 O60 1.247 . S
C62 O61 1.208 . S
C63 O68 1.247 . S
C63 O69 1.208 . S
C64 O56 1.315 . S
C64 O59 1.279 . S
C65 O66 1.315 . S
C65 O67 1.279 . S
O66 Cd58 2.223 . S
O66 C65 1.315 . S
O67 Cd57 2.240 . S
O67 C65 1.279 . S
O68 Cd58 2.297 . S
O68 C63 1.247 . S
O69 Cd58 2.439 . S
O69 C63 1.208 . S
O70 Cd71 2.223 . S
O70 C78 1.315 . S
Cd71 O70 2.223 . S
Cd71 O74 2.297 . S
Cd71 O75 2.439 . S
Cd71 O81 2.240 . S
Cd72 O73 2.240 . S
Cd72 O80 2.223 . S
Cd72 O82 2.297 . S
Cd72 O83 2.439 . S
O73 Cd72 2.240 . S
O73 C78 1.279 . S
O74 Cd71 2.297 . S
O74 C76 1.247 . S
O75 Cd71 2.439 . S
O75 C76 1.208 . S
C76 O74 1.247 . S
C76 O75 1.208 . S
C77 O82 1.247 . S
C77 O83 1.208 . S
C78 O70 1.315 . S
C78 O73 1.279 . S
C79 O80 1.315 . S
C79 O81 1.279 . S
O80 Cd72 2.223 . S
O80 C79 1.315 . S
O81 Cd71 2.240 . S
O81 C79 1.279 . S
O82 Cd72 2.297 . S
O82 C77 1.247 . S
O83 Cd72 2.439 . S
O83 C77 1.208 . S
O84 Cd85 2.223 . S
O84 C92 1.315 . S
Cd85 O84 2.223 . S
Cd85 O88 2.297 . S
Cd85 O89 2.439 . S
Cd85 O95 2.240 . S
Cd86 O87 2.240 . S
Cd86 O94 2.223 . S
Cd86 O96 2.297 . S
Cd86 O97 2.439 . S
O87 Cd86 2.240 . S
O87 C92 1.279 . S
O88 Cd85 2.297 . S
O88 C90 1.247 . S
O89 Cd85 2.439 . S
O89 C90 1.208 . S
C90 O88 1.247 . S
C90 O89 1.208 . S
C91 O96 1.247 . S
C91 O97 1.208 . S
C92 O84 1.315 . S
C92 O87 1.279 . S
C93 O94 1.315 . S
C93 O95 1.279 . S
O94 Cd86 2.223 . S
O94 C93 1.315 . S
O95 Cd85 2.240 . S
O95 C93 1.279 . S
O96 Cd86 2.297 . S
O96 C91 1.247 . S
O97 Cd86 2.439 . S
O97 C91 1.208 . S
O98 Cd99 2.223 . S
O98 C106 1.315 . S
Cd99 O98 2.223 . S
Cd99 O102 2.297 . S
Cd99 O103 2.439 . S
Cd99 O109 2.240 . S
Cd100 O101 2.240 . S
Cd100 O108 2.223 . S
Cd100 O110 2.297 . S
Cd100 O111 2.439 . S
O101 Cd100 2.240 . S
O101 C106 1.279 . S
O102 Cd99 2.297 . S
O102 C104 1.247 . S
O103 Cd99 2.439 . S
O103 C104 1.208 . S
C104 O102 1.247 . S
C104 O103 1.208 . S
C105 O110 1.247 . S
C105 O111 1.208 . S
C106 O98 1.315 . S
C106 O101 1.279 . S
C107 O108 1.315 . S
C107 O109 1.279 . S
O108 Cd100 2.223 . S
O108 C107 1.315 . S
O109 Cd99 2.240 . S
O109 C107 1.279 . S
O110 Cd100 2.297 . S
O110 C105 1.247 . S
O111 Cd100 2.439 . S
O111 C105 1.208 . S
O112 Cd113 2.223 . S
O112 C120 1.315 . S
Cd113 O112 2.223 . S
Cd113 O116 2.297 . S
Cd113 O117 2.439 . S
Cd113 O123 2.240 . S
Cd114 O115 2.240 . S
Cd114 O122 2.223 . S
Cd114 O124 2.297 . S
Cd114 O125 2.439 . S
O115 Cd114 2.240 . S
O115 C120 1.279 . S
O116 Cd113 2.297 . S
O116 C118 1.247 . S
O117 Cd113 2.439 . S
O117 C118 1.208 . S
C118 O116 1.247 . S
C118 O117 1.208 . S
C119 O124 1.247 . S
C119 O125 1.208 . S
C120 O112 1.315 . S
C120 O115 1.279 . S
C121 O122 1.315 . S
C121 O123 1.279 . S
O122 Cd114 2.223 . S
O122 C121 1.315 . S
O123 Cd113 2.240 . S
O123 C121 1.279 . S
O124 Cd114 2.297 . S
O124 C119 1.247 . S
O125 Cd114 2.439 . S
O125 C119 1.208 . S
O126 Cd127 2.223 . S
O126 C134 1.315 . S
Cd127 O126 2.223 . S
Cd127 O130 2.297 . S
Cd127 O131 2.439 . S
Cd127 O137 2.240 . S
Cd128 O129 2.240 . S
Cd128 O136 2.223 . S
Cd128 O138 2.297 . S
Cd128 O139 2.439 . S
O129 Cd128 2.240 . S
O129 C134 1.279 . S
O130 Cd127 2.297 . S
O130 C132 1.247 . S
O131 Cd127 2.439 . S
O131 C132 1.208 . S
C132 O130 1.247 . S
C132 O131 1.208 . S
C133 O138 1.247 . S
C133 O139 1.208 . S
C134 O126 1.315 . S
C134 O129 1.279 . S
C135 O136 1.315 . S
C135 O137 1.279 . S
O136 Cd128 2.223 . S
O136 C135 1.315 . S
O137 Cd127 2.240 . S
O137 C135 1.279 . S
O138 Cd128 2.297 . S
O138 C133 1.247 . S
O139 Cd128 2.439 . S
O139 C133 1.208 . S
O140 Cd141 2.223 . S
O140 C148 1.315 . S
Cd141 O140 2.223 . S
Cd141 O144 2.297 . S
Cd141 O145 2.439 . S
Cd141 O151 2.240 . S
Cd142 O143 2.240 . S
Cd142 O150 2.223 . S
Cd142 O152 2.297 . S
Cd142 O153 2.439 . S
O143 Cd142 2.240 . S
O143 C148 1.279 . S
O144 Cd141 2.297 . S
O144 C146 1.247 . S
O145 Cd141 2.439 . S
O145 C146 1.208 . S
C146 O144 1.247 . S
C146 O145 1.208 . S
C147 O152 1.247 . S
C147 O153 1.208 . S
C148 O140 1.315 . S
C148 O143 1.279 . S
C149 O150 1.315 . S
C149 O151 1.279 . S
O150 Cd142 2.223 . S
O150 C149 1.315 . S
O151 Cd141 2.240 . S
O151 C149 1.279 . S
O152 Cd142 2.297 . S
O152 C147 1.247 . S
O153 Cd142 2.439 . S
O153 C147 1.208 . S
O154 Cd155 2.223 . S
O154 C162 1.315 . S
Cd155 O154 2.223 . S
Cd155 O158 2.297 . S
Cd155 O159 2.439 . S
Cd155 O165 2.240 . S
Cd156 O157 2.240 . S
Cd156 O164 2.223 . S
Cd156 O166 2.297 . S
Cd156 O167 2.439 . S
O157 Cd156 2.240 . S
O157 C162 1.279 . S
O158 Cd155 2.297 . S
O158 C160 1.247 . S
O159 Cd155 2.439 . S
O159 C160 1.208 . S
C160 O158 1.247 . S
C160 O159 1.208 . S
C161 O166 1.247 . S
C161 O167 1.208 . S
C162 O154 1.315 . S
C162 O157 1.279 . S
C163 O164 1.315 . S
C163 O165 1.279 . S
O164 Cd156 2.223 . S
O164 C163 1.315 . S
O165 Cd155 2.240 . S
O165 C163 1.279 . S
O166 Cd156 2.297 . S
O166 C161 1.247 . S
O167 Cd156 2.439 . S
O167 C161 1.208 . S
O168 Cd169 2.223 . S
O168 C176 1.315 . S
Cd169 O168 2.223 . S
Cd169 O172 2.297 . S
Cd169 O173 2.439 . S
Cd169 O179 2.240 . S
Cd170 O171 2.240 . S
Cd170 O178 2.223 . S
Cd170 O180 2.297 . S
Cd170 O181 2.439 . S
O171 Cd170 2.240 . S
O171 C176 1.279 . S
O172 Cd169 2.297 . S
O172 C174 1.247 . S
O173 Cd169 2.439 . S
O173 C174 1.208 . S
C174 O172 1.247 . S
C174 O173 1.208 . S
C175 O180 1.247 . S
C175 O181 1.208 . S
C176 O168 1.315 . S
C176 O171 1.279 . S
C177 O178 1.315 . S
C177 O179 1.279 . S
O178 Cd170 2.223 . S
O178 C177 1.315 . S
O179 Cd169 2.240 . S
O179 C177 1.279 . S
O180 Cd170 2.297 . S
O180 C175 1.247 . S
O181 Cd170 2.439 . S
O181 C175 1.208 . S
O182 Cd183 2.223 . S
O182 C190 1.315 . S
Cd183 O182 2.223 . S
Cd183 O186 2.297 . S
Cd183 O187 2.439 . S
Cd183 O193 2.240 . S
Cd184 O185 2.240 . S
Cd184 O192 2.223 . S
Cd184 O194 2.297 . S
Cd184 O195 2.439 . S
O185 Cd184 2.240 . S
O185 C190 1.279 . S
O186 Cd183 2.297 . S
O186 C188 1.247 . S
O187 Cd183 2.439 . S
O187 C188 1.208 . S
C188 O186 1.247 . S
C188 O187 1.208 . S
C189 O194 1.247 . S
C189 O195 1.208 . S
C190 O182 1.315 . S
C190 O185 1.279 . S
C191 O192 1.315 . S
C191 O193 1.279 . S
O192 Cd184 2.223 . S
O192 C191 1.315 . S
O193 Cd183 2.240 . S
O193 C191 1.279 . S
O194 Cd184 2.297 . S
O194 C189 1.247 . S
O195 Cd184 2.439 . S
O195 C189 1.208 . S
O196 Cd197 2.223 . S
O196 C204 1.315 . S
Cd197 O196 2.223 . S
Cd197 O200 2.297 . S
Cd197 O201 2.439 . S
Cd197 O207 2.240 . S
Cd198 O199 2.240 . S
Cd198 O206 2.223 . S
Cd198 O208 2.297 . S
Cd198 O209 2.439 . S
O199 Cd198 2.240 . S
O199 C204 1.279 . S
O200 Cd197 2.297 . S
O200 C202 1.247 . S
O201 Cd197 2.439 . S
O201 C202 1.208 . S
C202 O200 1.247 . S
C202 O201 1.208 . S
C203 O208 1.247 . S
C203 O209 1.208 . S
C204 O196 1.315 . S
C204 O199 1.279 . S
C205 O206 1.315 . S
C205 O207 1.279 . S
O206 Cd198 2.223 . S
O206 C205 1.315 . S
O207 Cd197 2.240 . S
O207 C205 1.279 . S
O208 Cd198 2.297 . S
O208 C203 1.247 . S
O209 Cd198 2.439 . S
O209 C203 1.208 . S
O210 Cd211 2.223 . S
O210 C218 1.315 . S
Cd211 O210 2.223 . S
Cd211 O214 2.297 . S
Cd211 O215 2.439 . S
Cd211 O221 2.240 . S
Cd212 O213 2.240 . S
Cd212 O220 2.223 . S
Cd212 O222 2.297 . S
Cd212 O223 2.439 . S
O213 Cd212 2.240 . S
O213 C218 1.279 . S
O214 Cd211 2.297 . S
O214 C216 1.247 . S
O215 Cd211 2.439 . S
O215 C216 1.208 . S
C216 O214 1.247 . S
C216 O215 1.208 . S
C217 O222 1.247 . S
C217 O223 1.208 . S
C218 O210 1.315 . S
C218 O213 1.279 . S
C219 O220 1.315 . S
C219 O221 1.279 . S
O220 Cd212 2.223 . S
O220 C219 1.315 . S
O221 Cd211 2.240 . S
O221 C219 1.279 . S
O222 Cd212 2.297 . S
O222 C217 1.247 . S
O223 Cd212 2.439 . S
O223 C217 1.208 . S
H224 C236 0.930 . S
H225 C238 0.930 . S
H226 C239 0.930 . S
H227 C243 0.959 . S
H228 C243 0.959 . S
H229 C243 0.961 . S
H230 C244 0.960 . S
H231 C244 0.961 . S
H232 C244 0.959 . S
H233 C247 0.929 . S
H234 C248 0.931 . S
H235 C250 0.930 . S
C236 H224 0.930 . S
C236 C237 1.399 . S
C236 C241 1.399 . S
C237 C236 1.399 . S
C237 C238 1.376 . S
C238 H225 0.930 . S
C238 C237 1.376 . S
C238 C239 1.388 . S
C239 H226 0.930 . S
C239 C238 1.388 . S
C239 C240 1.390 . S
C240 C239 1.390 . S
C240 C241 1.394 . S
C240 C246 1.465 . S
C241 C236 1.399 . S
C241 C240 1.394 . S
C241 C242 1.516 1_565 S
C242 C241 1.516 1_545 S
C242 C243 1.502 . S
C242 C244 1.561 1_545 S
C242 C245 1.526 . S
C243 H227 0.959 . S
C243 H228 0.959 . S
C243 H229 0.961 . S
C243 C242 1.502 . S
C244 H230 0.960 . S
C244 H231 0.961 . S
C244 H232 0.959 . S
C244 C242 1.561 1_565 S
C245 C242 1.526 . S
C245 C246 1.396 1_545 S
C245 C250 1.390 . S
C246 C240 1.465 . S
C246 C245 1.396 1_565 S
C246 C247 1.399 . S
C247 H233 0.929 . S
C247 C246 1.399 . S
C247 C248 1.385 1_565 S
C248 H234 0.931 . S
C248 C247 1.385 1_545 S
C248 C249 1.389 . S
C249 C248 1.389 . S
C249 C250 1.387 . S
C250 H235 0.930 . S
C250 C245 1.390 . S
C250 C249 1.387 . S
H251 C263 0.930 . S
H252 C265 0.930 . S
H253 C266 0.930 . S
H254 C270 0.959 . S
H255 C270 0.959 . S
H256 C270 0.961 . S
H257 C271 0.960 . S
H258 C271 0.961 . S
H259 C271 0.959 . S
H260 C274 0.929 . S
H261 C275 0.931 . S
H262 C277 0.930 . S
C263 H251 0.930 . S
C263 C264 1.399 1_545 S
C263 C268 1.399 . S
C264 C263 1.399 1_565 S
C264 C265 1.376 . S
C265 H252 0.930 . S
C265 C264 1.376 . S
C265 C266 1.388 . S
C266 H253 0.930 . S
C266 C265 1.388 . S
C266 C267 1.390 . S
C267 C266 1.390 . S
C267 C268 1.394 1_565 S
C267 C273 1.465 . S
C268 C263 1.399 . S
C268 C267 1.394 1_545 S
C268 C269 1.516 . S
C269 C268 1.516 . S
C269 C270 1.502 . S
C269 C271 1.561 . S
C269 C272 1.526 . S
C270 H254 0.959 . S
C270 H255 0.959 . S
C270 H256 0.961 . S
C270 C269 1.502 . S
C271 H257 0.960 . S
C271 H258 0.961 . S
C271 H259 0.959 . S
C271 C269 1.561 . S
C272 C269 1.526 . S
C272 C273 1.396 1_545 S
C272 C277 1.390 . S
C273 C267 1.465 . S
C273 C272 1.396 1_565 S
C273 C274 1.399 . S
C274 H260 0.929 . S
C274 C273 1.399 . S
C274 C275 1.385 . S
C275 H261 0.931 . S
C275 C274 1.385 . S
C275 C276 1.389 1_565 S
C276 C275 1.389 1_545 S
C276 C277 1.387 . S
C277 H262 0.930 . S
C277 C272 1.390 . S
C277 C276 1.387 . S
H278 C290 0.922 1_545 S
H279 C292 0.930 . S
H280 C293 0.930 . S
H281 C297 0.959 . S
H282 C297 0.959 . S
H283 C297 0.961 . S
H284 C298 0.960 . S
H285 C298 0.961 . S
H286 C298 0.959 . S
H287 C301 0.929 . S
H288 C302 0.930 1_565 S
H289 C304 0.930 . S
C290 H278 0.922 1_565 S
C290 C291 1.399 . S
C290 C295 1.399 . S
C291 C290 1.399 . S
C291 C292 1.376 . S
C292 H279 0.930 . S
C292 C291 1.376 . S
C292 C293 1.388 . S
C293 H280 0.930 . S
C293 C292 1.388 . S
C293 C294 1.390 . S
C294 C293 1.390 . S
C294 C295 1.394 . S
C294 C300 1.465 . S
C295 C290 1.399 . S
C295 C294 1.394 . S
C295 C296 1.516 1_565 S
C296 C295 1.516 1_545 S
C296 C297 1.502 . S
C296 C298 1.561 1_545 S
C296 C299 1.526 . S
C297 H281 0.959 . S
C297 H282 0.959 . S
C297 H283 0.961 . S
C297 C296 1.502 . S
C298 H284 0.960 . S
C298 H285 0.961 . S
C298 H286 0.959 . S
C298 C296 1.561 1_565 S
C299 C296 1.526 . S
C299 C300 1.396 1_545 S
C299 C304 1.390 . S
C300 C294 1.465 . S
C300 C299 1.396 1_565 S
C300 C301 1.399 . S
C301 H287 0.929 . S
C301 C300 1.399 . S
C301 C302 1.385 1_565 S
C302 H288 0.930 1_545 S
C302 C301 1.385 1_545 S
C302 C303 1.389 . S
C303 C302 1.389 . S
C303 C304 1.387 . S
C304 H289 0.930 . S
C304 C299 1.390 . S
C304 C303 1.387 . S
H305 C317 0.930 . S
H306 C319 0.930 . S
H307 C320 0.930 . S
H308 C324 0.959 . S
H309 C324 0.959 . S
H310 C324 0.961 . S
H311 C325 0.960 . S
H312 C325 0.961 . S
H313 C325 0.959 . S
H314 C328 0.929 . S
H315 C329 0.931 . S
H316 C331 0.930 . S
C317 H305 0.930 . S
C317 C318 1.399 1_545 S
C317 C322 1.399 . S
C318 C317 1.399 1_565 S
C318 C319 1.376 . S
C319 H306 0.930 . S
C319 C318 1.376 . S
C319 C320 1.388 . S
C320 H307 0.930 . S
C320 C319 1.388 . S
C320 C321 1.390 . S
C321 C320 1.390 . S
C321 C322 1.394 1_565 S
C321 C327 1.465 . S
C322 C317 1.399 . S
C322 C321 1.394 1_545 S
C322 C323 1.516 . S
C323 C322 1.516 . S
C323 C324 1.502 . S
C323 C325 1.561 . S
C323 C326 1.526 . S
C324 H308 0.959 . S
C324 H309 0.959 . S
C324 H310 0.961 . S
C324 C323 1.502 . S
C325 H311 0.960 . S
C325 H312 0.961 . S
C325 H313 0.959 . S
C325 C323 1.561 . S
C326 C323 1.526 . S
C326 C327 1.396 1_545 S
C326 C331 1.390 . S
C327 C321 1.465 . S
C327 C326 1.396 1_565 S
C327 C328 1.399 . S
C328 H314 0.929 . S
C328 C327 1.399 . S
C328 C329 1.385 . S
C329 H315 0.931 . S
C329 C328 1.385 . S
C329 C330 1.389 1_565 S
C330 C329 1.389 1_545 S
C330 C331 1.387 . S
C331 H316 0.930 . S
C331 C326 1.390 . S
C331 C330 1.387 . S
H332 C344 0.930 . S
H333 C346 0.930 . S
H334 C347 0.930 . S
H335 C351 0.959 . S
H336 C351 0.959 . S
H337 C351 0.961 . S
H338 C352 0.960 . S
H339 C352 0.961 . S
H340 C352 0.959 . S
H341 C355 0.929 . S
H342 C356 0.931 . S
H343 C358 0.930 . S
C344 H332 0.930 . S
C344 C345 1.399 . S
C344 C349 1.399 . S
C345 C344 1.399 . S
C345 C346 1.376 . S
C346 H333 0.930 . S
C346 C345 1.376 . S
C346 C347 1.388 . S
C347 H334 0.930 . S
C347 C346 1.388 . S
C347 C348 1.390 . S
C348 C347 1.390 . S
C348 C349 1.394 . S
C348 C354 1.465 . S
C349 C344 1.399 . S
C349 C348 1.394 . S
C349 C350 1.516 . S
C350 C349 1.516 . S
C350 C351 1.502 . S
C350 C352 1.561 . S
C350 C353 1.526 . S
C351 H335 0.959 . S
C351 H336 0.959 . S
C351 H337 0.961 . S
C351 C350 1.502 . S
C352 H338 0.960 . S
C352 H339 0.961 . S
C352 H340 0.959 . S
C352 C350 1.561 . S
C353 C350 1.526 . S
C353 C354 1.396 . S
C353 C358 1.390 . S
C354 C348 1.465 . S
C354 C353 1.396 . S
C354 C355 1.399 . S
C355 H341 0.929 . S
C355 C354 1.399 . S
C355 C356 1.385 . S
C356 H342 0.931 . S
C356 C355 1.385 . S
C356 C357 1.389 . S
C357 C356 1.389 . S
C357 C358 1.387 . S
C358 H343 0.930 . S
C358 C353 1.390 . S
C358 C357 1.387 . S
H359 C371 0.930 . S
H360 C373 0.930 . S
H361 C374 0.930 . S
H362 C378 0.959 . S
H363 C378 0.959 . S
H364 C378 0.961 . S
H365 C379 0.960 . S
H366 C379 0.961 . S
H367 C379 0.959 . S
H368 C382 0.929 . S
H369 C383 0.931 . S
H370 C385 0.930 . S
C371 H359 0.930 . S
C371 C372 1.399 . S
C371 C376 1.399 . S
C372 C371 1.399 . S
C372 C373 1.376 . S
C373 H360 0.930 . S
C373 C372 1.376 . S
C373 C374 1.388 . S
C374 H361 0.930 . S
C374 C373 1.388 . S
C374 C375 1.390 . S
C375 C374 1.390 . S
C375 C376 1.394 . S
C375 C381 1.465 . S
C376 C371 1.399 . S
C376 C375 1.394 . S
C376 C377 1.516 . S
C377 C376 1.516 . S
C377 C378 1.502 . S
C377 C379 1.561 . S
C377 C380 1.526 . S
C378 H362 0.959 . S
C378 H363 0.959 . S
C378 H364 0.961 . S
C378 C377 1.502 . S
C379 H365 0.960 . S
C379 H366 0.961 . S
C379 H367 0.959 . S
C379 C377 1.561 . S
C380 C377 1.526 . S
C380 C381 1.396 . S
C380 C385 1.390 . S
C381 C375 1.465 . S
C381 C380 1.396 . S
C381 C382 1.399 . S
C382 H368 0.929 . S
C382 C381 1.399 . S
C382 C383 1.385 . S
C383 H369 0.931 . S
C383 C382 1.385 . S
C383 C384 1.389 . S
C384 C383 1.389 . S
C384 C385 1.387 . S
C385 H370 0.930 . S
C385 C380 1.390 . S
C385 C384 1.387 . S
H386 C398 0.930 . S
H387 C400 0.930 . S
H388 C401 0.930 . S
H389 C405 0.959 . S
H390 C405 0.959 . S
H391 C405 0.961 . S
H392 C406 0.960 . S
H393 C406 0.961 . S
H394 C406 0.959 . S
H395 C409 0.929 . S
H396 C410 0.931 . S
H397 C412 0.930 . S
C398 H386 0.930 . S
C398 C399 1.399 . S
C398 C403 1.399 . S
C399 C398 1.399 . S
C399 C400 1.376 . S
C400 H387 0.930 . S
C400 C399 1.376 . S
C400 C401 1.388 . S
C401 H388 0.930 . S
C401 C400 1.388 . S
C401 C402 1.390 . S
C402 C401 1.390 . S
C402 C403 1.394 . S
C402 C408 1.465 . S
C403 C398 1.399 . S
C403 C402 1.394 . S
C403 C404 1.516 . S
C404 C403 1.516 . S
C404 C405 1.502 . S
C404 C406 1.561 . S
C404 C407 1.526 . S
C405 H389 0.959 . S
C405 H390 0.959 . S
C405 H391 0.961 . S
C405 C404 1.502 . S
C406 H392 0.960 . S
C406 H393 0.961 . S
C406 H394 0.959 . S
C406 C404 1.561 . S
C407 C404 1.526 . S
C407 C408 1.396 . S
C407 C412 1.390 . S
C408 C402 1.465 . S
C408 C407 1.396 . S
C408 C409 1.399 . S
C409 H395 0.929 . S
C409 C408 1.399 . S
C409 C410 1.385 . S
C410 H396 0.931 . S
C410 C409 1.385 . S
C410 C411 1.389 . S
C411 C410 1.389 . S
C411 C412 1.387 . S
C412 H397 0.930 . S
C412 C407 1.390 . S
C412 C411 1.387 . S
H413 C425 0.930 . S
H414 C427 0.930 . S
H415 C428 0.930 . S
H416 C432 0.959 . S
H417 C432 0.959 . S
H418 C432 0.961 . S
H419 C433 0.960 . S
H420 C433 0.961 . S
H421 C433 0.959 . S
H422 C436 0.929 . S
H423 C437 0.931 . S
H424 C439 0.930 . S
C425 H413 0.930 . S
C425 C426 1.399 . S
C425 C430 1.399 . S
C426 C425 1.399 . S
C426 C427 1.376 . S
C427 H414 0.930 . S
C427 C426 1.376 . S
C427 C428 1.388 . S
C428 H415 0.930 . S
C428 C427 1.388 . S
C428 C429 1.390 . S
C429 C428 1.390 . S
C429 C430 1.394 . S
C429 C435 1.465 . S
C430 C425 1.399 . S
C430 C429 1.394 . S
C430 C431 1.516 . S
C431 C430 1.516 . S
C431 C432 1.502 . S
C431 C433 1.561 . S
C431 C434 1.526 . S
C432 H416 0.959 . S
C432 H417 0.959 . S
C432 H418 0.961 . S
C432 C431 1.502 . S
C433 H419 0.960 . S
C433 H420 0.961 . S
C433 H421 0.959 . S
C433 C431 1.561 . S
C434 C431 1.526 . S
C434 C435 1.396 . S
C434 C439 1.390 . S
C435 C429 1.465 . S
C435 C434 1.396 . S
C435 C436 1.399 . S
C436 H422 0.929 . S
C436 C435 1.399 . S
C436 C437 1.385 . S
C437 H423 0.931 . S
C437 C436 1.385 . S
C437 C438 1.389 . S
C438 C437 1.389 . S
C438 C439 1.387 . S
C439 H424 0.930 . S
C439 C434 1.390 . S
C439 C438 1.387 . S
H440 C452 0.930 . S
H441 C454 0.930 . S
H442 C455 0.930 . S
H443 C459 0.959 . S
H444 C459 0.959 1_565 S
H445 C459 0.961 1_565 S
H446 C460 0.960 . S
H447 C460 0.961 . S
H448 C460 0.969 . S
H449 C463 0.929 . S
H450 C464 0.931 . S
H451 C466 0.930 . S
C452 H440 0.930 . S
C452 C453 1.399 . S
C452 C457 1.399 . S
C453 C452 1.399 . S
C453 C454 1.376 . S
C454 H441 0.930 . S
C454 C453 1.376 . S
C454 C455 1.388 . S
C455 H442 0.930 . S
C455 C454 1.388 . S
C455 C456 1.390 . S
C456 C455 1.390 . S
C456 C457 1.394 . S
C456 C462 1.465 . S
C457 C452 1.399 . S
C457 C456 1.394 . S
C457 C458 1.516 1_655 S
C458 C457 1.516 1_455 S
C458 C459 1.502 . S
C458 C460 1.561 1_445 S
C458 C461 1.526 . S
C459 H443 0.959 . S
C459 H444 0.959 1_545 S
C459 H445 0.961 1_545 S
C459 C458 1.502 . S
C460 H446 0.960 . S
C460 H447 0.961 . S
C460 H448 0.969 . S
C460 C458 1.561 1_665 S
C461 C458 1.526 . S
C461 C462 1.396 1_455 S
C461 C466 1.390 . S
C462 C456 1.465 . S
C462 C461 1.396 1_655 S
C462 C463 1.399 . S
C463 H449 0.929 . S
C463 C462 1.399 . S
C463 C464 1.385 1_655 S
C464 H450 0.931 . S
C464 C463 1.385 1_455 S
C464 C465 1.389 . S
C465 C464 1.389 . S
C465 C466 1.387 . S
C466 H451 0.930 . S
C466 C461 1.390 . S
C466 C465 1.387 . S
H467 C479 0.930 . S
H468 C481 0.930 . S
H469 C482 0.910 1_545 S
H470 C486 0.959 . S
H471 C486 0.959 . S
H472 C486 0.961 . S
H473 C487 0.960 . S
H474 C487 0.961 . S
H475 C487 0.959 . S
H476 C490 0.929 1_545 S
H477 C491 0.931 . S
H478 C493 0.930 . S
C479 H467 0.930 . S
C479 C480 1.399 . S
C479 C484 1.399 . S
C480 C479 1.399 . S
C480 C481 1.376 . S
C481 H468 0.930 . S
C481 C480 1.376 . S
C481 C482 1.388 . S
C482 H469 0.910 1_565 S
C482 C481 1.388 . S
C482 C483 1.390 . S
C483 C482 1.390 . S
C483 C484 1.394 . S
C483 C489 1.465 . S
C484 C479 1.399 . S
C484 C483 1.394 . S
C484 C485 1.516 . S
C485 C484 1.516 . S
C485 C486 1.502 . S
C485 C487 1.561 . S
C485 C488 1.526 . S
C486 H470 0.959 . S
C486 H471 0.959 . S
C486 H472 0.961 . S
C486 C485 1.502 . S
C487 H473 0.960 . S
C487 H474 0.961 . S
C487 H475 0.959 . S
C487 C485 1.561 . S
C488 C485 1.526 . S
C488 C489 1.396 . S
C488 C493 1.390 . S
C489 C483 1.465 . S
C489 C488 1.396 . S
C489 C490 1.399 . S
C490 H476 0.929 1_565 S
C490 C489 1.399 . S
C490 C491 1.385 . S
C491 H477 0.931 . S
C491 C490 1.385 . S
C491 C492 1.389 . S
C492 C491 1.389 . S
C492 C493 1.387 . S
C493 H478 0.930 . S
C493 C488 1.390 . S
C493 C492 1.387 . S
H494 C506 0.930 . S
H495 C508 0.930 . S
H496 C509 0.930 1_545 S
H497 C513 0.959 . S
H498 C513 0.959 . S
H499 C513 0.961 . S
H500 C514 0.960 . S
H501 C514 0.961 . S
H502 C514 0.959 . S
H503 C517 0.929 1_545 S
H504 C518 0.931 . S
H505 C520 0.930 . S
C506 H494 0.930 . S
C506 C507 1.399 . S
C506 C511 1.399 . S
C507 C506 1.399 . S
C507 C508 1.376 . S
C508 H495 0.930 . S
C508 C507 1.376 . S
C508 C509 1.388 . S
C509 H496 0.930 1_565 S
C509 C508 1.388 . S
C509 C510 1.390 . S
C510 C509 1.390 . S
C510 C511 1.394 . S
C510 C516 1.465 . S
C511 C506 1.399 . S
C511 C510 1.394 . S
C511 C512 1.516 1_455 S
C512 C511 1.516 1_655 S
C512 C513 1.502 . S
C512 C514 1.561 1_655 S
C512 C515 1.526 . S
C513 H497 0.959 . S
C513 H498 0.959 . S
C513 H499 0.961 . S
C513 C512 1.502 . S
C514 H500 0.960 . S
C514 H501 0.961 . S
C514 H502 0.959 . S
C514 C512 1.561 1_455 S
C515 C512 1.526 . S
C515 C516 1.396 1_655 S
C515 C520 1.390 . S
C516 C510 1.465 . S
C516 C515 1.396 1_455 S
C516 C517 1.399 . S
C517 H503 0.929 1_565 S
C517 C516 1.399 . S
C517 C518 1.385 1_455 S
C518 H504 0.931 . S
C518 C517 1.385 1_655 S
C518 C519 1.389 . S
C519 C518 1.389 . S
C519 C520 1.387 . S
C520 H505 0.930 . S
C520 C515 1.390 . S
C520 C519 1.387 . S
H521 C533 0.930 . S
H522 C535 0.930 . S
H523 C536 0.930 1_565 S
H524 C540 0.959 . S
H525 C540 0.959 . S
H526 C540 0.961 . S
H527 C541 0.960 . S
H528 C541 0.961 . S
H529 C541 0.959 . S
H530 C544 0.929 1_565 S
H531 C545 0.931 . S
H532 C547 0.930 . S
C533 H521 0.930 . S
C533 C534 1.399 . S
C533 C538 1.399 . S
C534 C533 1.399 . S
C534 C535 1.376 . S
C535 H522 0.930 . S
C535 C534 1.376 . S
C535 C536 1.388 . S
C536 H523 0.930 1_545 S
C536 C535 1.388 . S
C536 C537 1.390 . S
C537 C536 1.390 . S
C537 C538 1.394 . S
C537 C543 1.465 . S
C538 C533 1.399 . S
C538 C537 1.394 . S
C538 C539 1.516 . S
C539 C538 1.516 . S
C539 C540 1.502 . S
C539 C541 1.561 . S
C539 C542 1.526 . S
C540 H524 0.959 . S
C540 H525 0.959 . S
C540 H526 0.961 . S
C540 C539 1.502 . S
C541 H527 0.960 . S
C541 H528 0.961 . S
C541 H529 0.959 . S
C541 C539 1.561 . S
C542 C539 1.526 . S
C542 C543 1.396 . S
C542 C547 1.390 . S
C543 C537 1.465 . S
C543 C542 1.396 . S
C543 C544 1.399 . S
C544 H530 0.929 1_545 S
C544 C543 1.399 . S
C544 C545 1.385 . S
C545 H531 0.931 . S
C545 C544 1.385 . S
C545 C546 1.389 . S
C546 C545 1.389 . S
C546 C547 1.387 . S
C547 H532 0.930 . S
C547 C542 1.390 . S
C547 C546 1.387 . S
H548 C560 0.930 . S
H549 C562 0.930 . S
H550 C563 0.930 . S
H551 C567 0.959 . S
H552 C567 0.959 . S
H553 C567 0.961 . S
H554 C568 0.960 . S
H555 C568 0.961 . S
H556 C568 0.959 . S
H557 C571 0.929 . S
H558 C572 0.931 . S
H559 C574 0.930 . S
C560 H548 0.930 . S
C560 C561 1.399 . S
C560 C565 1.399 . S
C561 C560 1.399 . S
C561 C562 1.376 . S
C562 H549 0.930 . S
C562 C561 1.376 . S
C562 C563 1.388 . S
C563 H550 0.930 . S
C563 C562 1.388 . S
C563 C564 1.390 . S
C564 C563 1.390 . S
C564 C565 1.394 . S
C564 C570 1.465 . S
C565 C560 1.399 . S
C565 C564 1.394 . S
C565 C566 1.516 . S
C566 C565 1.516 . S
C566 C567 1.502 . S
C566 C568 1.561 . S
C566 C569 1.526 . S
C567 H551 0.959 . S
C567 H552 0.959 . S
C567 H553 0.961 . S
C567 C566 1.502 . S
C568 H554 0.960 . S
C568 H555 0.961 . S
C568 H556 0.959 . S
C568 C566 1.561 . S
C569 C566 1.526 . S
C569 C570 1.396 . S
C569 C574 1.390 . S
C570 C564 1.465 . S
C570 C569 1.396 . S
C570 C571 1.399 . S
C571 H557 0.929 . S
C571 C570 1.399 . S
C571 C572 1.385 . S
C572 H558 0.931 . S
C572 C571 1.385 . S
C572 C573 1.389 . S
C573 C572 1.389 . S
C573 C574 1.387 . S
C574 H559 0.930 . S
C574 C569 1.390 . S
C574 C573 1.387 . S
H575 C587 0.930 . S
H576 C589 0.930 . S
H577 C590 0.930 . S
H578 C594 0.959 1_455 S
H579 C594 0.959 . S
H580 C594 0.961 . S
H581 C595 0.960 . S
H582 C595 0.961 . S
H583 C595 0.959 . S
H584 C598 0.929 . S
H585 C599 0.931 . S
H586 C601 0.930 . S
C587 H575 0.930 . S
C587 C588 1.399 . S
C587 C592 1.397 1_455 S
C588 C587 1.399 . S
C588 C589 1.376 . S
C589 H576 0.930 . S
C589 C588 1.376 . S
C589 C590 1.388 . S
C590 H577 0.930 . S
C590 C589 1.388 . S
C590 C591 1.390 . S
C591 C590 1.390 . S
C591 C592 1.391 1_455 S
C591 C597 1.460 1_455 S
C592 C587 1.397 1_655 S
C592 C591 1.391 1_655 S
C592 C593 1.522 . S
C593 C592 1.522 . S
C593 C594 1.502 . S
C593 C595 1.561 . S
C593 C596 1.526 . S
C594 H578 0.959 1_655 S
C594 H579 0.959 . S
C594 H580 0.961 . S
C594 C593 1.502 . S
C595 H581 0.960 . S
C595 H582 0.961 . S
C595 H583 0.959 . S
C595 C593 1.561 . S
C596 C593 1.526 . S
C596 C597 1.406 . S
C596 C601 1.390 . S
C597 C591 1.460 1_655 S
C597 C596 1.406 . S
C597 C598 1.396 1_655 S
C598 H584 0.929 . S
C598 C597 1.396 1_455 S
C598 C599 1.385 1_455 S
C599 H585 0.931 . S
C599 C598 1.385 1_655 S
C599 C600 1.389 . S
C600 C599 1.389 . S
C600 C601 1.387 . S
C601 H586 0.930 . S
C601 C596 1.390 . S
C601 C600 1.387 . S
H602 C614 0.930 . S
H603 C616 0.930 . S
H604 C617 0.930 . S
H605 C621 0.959 . S
H606 C621 0.959 . S
H607 C621 0.961 . S
H608 C622 0.960 . S
H609 C622 0.961 . S
H610 C622 0.959 . S
H611 C625 0.929 . S
H612 C626 0.931 . S
H613 C628 0.930 . S
C614 H602 0.930 . S
C614 C615 1.399 . S
C614 C619 1.399 . S
C615 C614 1.399 . S
C615 C616 1.376 . S
C616 H603 0.930 . S
C616 C615 1.376 . S
C616 C617 1.388 . S
C617 H604 0.930 . S
C617 C616 1.388 . S
C617 C618 1.390 . S
C618 C617 1.390 . S
C618 C619 1.394 . S
C618 C624 1.465 . S
C619 C614 1.399 . S
C619 C618 1.394 . S
C619 C620 1.516 . S
C620 C619 1.516 . S
C620 C621 1.502 . S
C620 C622 1.561 . S
C620 C623 1.526 . S
C621 H605 0.959 . S
C621 H606 0.959 . S
C621 H607 0.961 . S
C621 C620 1.502 . S
C622 H608 0.960 . S
C622 H609 0.961 . S
C622 H610 0.959 . S
C622 C620 1.561 . S
C623 C620 1.526 . S
C623 C624 1.396 . S
C623 C628 1.390 . S
C624 C618 1.465 . S
C624 C623 1.396 . S
C624 C625 1.399 . S
C625 H611 0.929 . S
C625 C624 1.399 . S
C625 C626 1.385 . S
C626 H612 0.931 . S
C626 C625 1.385 . S
C626 C627 1.389 . S
C627 C626 1.389 . S
C627 C628 1.387 . S
C628 H613 0.930 . S
C628 C623 1.390 . S
C628 C627 1.387 . S
H629 C641 0.930 . S
H630 C643 0.930 . S
H631 C644 0.921 1_655 S
H632 C648 0.959 . S
H633 C648 0.959 . S
H634 C648 0.961 . S
H635 C649 0.960 . S
H636 C649 0.961 . S
H637 C649 0.959 . S
H638 C652 0.929 . S
H639 C653 0.931 . S
H640 C655 0.930 . S
C641 H629 0.930 . S
C641 C642 1.399 . S
C641 C646 1.399 . S
C642 C641 1.399 . S
C642 C643 1.376 . S
C643 H630 0.930 . S
C643 C642 1.376 . S
C643 C644 1.399 . S
C644 H631 0.921 1_455 S
C644 C643 1.399 . S
C644 C645 1.388 1_455 S
C645 C644 1.388 1_655 S
C645 C646 1.383 1_655 S
C645 C651 1.477 . S
C646 C641 1.399 . S
C646 C645 1.383 1_455 S
C646 C647 1.516 . S
C647 C646 1.516 . S
C647 C648 1.502 . S
C647 C649 1.561 1_455 S
C647 C650 1.526 1_455 S
C648 H632 0.959 . S
C648 H633 0.959 . S
C648 H634 0.961 . S
C648 C647 1.502 . S
C649 H635 0.960 . S
C649 H636 0.961 . S
C649 H637 0.959 . S
C649 C647 1.561 1_655 S
C650 C647 1.526 1_655 S
C650 C651 1.396 . S
C650 C655 1.390 . S
C651 C645 1.477 . S
C651 C650 1.396 . S
C651 C652 1.399 . S
C652 H638 0.929 . S
C652 C651 1.399 . S
C652 C653 1.385 . S
C653 H639 0.931 . S
C653 C652 1.385 . S
C653 C654 1.389 . S
C654 C653 1.389 . S
C654 C655 1.387 . S
C655 H640 0.930 . S
C655 C650 1.390 . S
C655 C654 1.387 . S
H656 C668 0.930 . S
H657 C670 0.930 . S
H658 C671 0.920 1_655 S
H659 C675 0.959 . S
H660 C675 0.959 . S
H661 C675 0.961 1_455 S
H662 C676 0.960 . S
H663 C676 0.961 . S
H664 C676 0.959 . S
H665 C679 0.929 . S
H666 C680 0.931 . S
H667 C682 0.930 . S
C668 H656 0.930 . S
C668 C669 1.399 . S
C668 C673 1.399 . S
C669 C668 1.399 . S
C669 C670 1.376 . S
C670 H657 0.930 . S
C670 C669 1.376 . S
C670 C671 1.388 . S
C671 H658 0.920 1_455 S
C671 C670 1.388 . S
C671 C672 1.390 . S
C672 C671 1.390 . S
C672 C673 1.394 . S
C672 C678 1.465 1_455 S
C673 C668 1.399 . S
C673 C672 1.394 . S
C673 C674 1.516 . S
C674 C673 1.516 . S
C674 C675 1.502 1_455 S
C674 C676 1.561 . S
C674 C677 1.526 1_455 S
C675 H659 0.959 . S
C675 H660 0.959 . S
C675 H661 0.961 1_655 S
C675 C674 1.502 1_655 S
C676 H662 0.960 . S
C676 H663 0.961 . S
C676 H664 0.959 . S
C676 C674 1.561 . S
C677 C674 1.526 1_655 S
C677 C678 1.396 . S
C677 C682 1.390 . S
C678 C672 1.465 1_655 S
C678 C677 1.396 . S
C678 C679 1.399 . S
C679 H665 0.929 . S
C679 C678 1.399 . S
C679 C680 1.385 . S
C680 H666 0.931 . S
C680 C679 1.385 . S
C680 C681 1.389 . S
C681 C680 1.389 . S
C681 C682 1.387 . S
C682 H667 0.930 . S
C682 C677 1.390 . S
C682 C681 1.387 . S
H683 C695 0.930 . S
H684 C697 0.930 . S
H685 C698 0.930 . S
H686 C702 0.959 . S
H687 C702 0.959 . S
H688 C702 0.961 . S
H689 C703 0.960 . S
H690 C703 0.961 . S
H691 C703 0.959 . S
H692 C706 0.929 . S
H693 C707 0.931 . S
H694 C709 0.930 . S
C695 H683 0.930 . S
C695 C696 1.399 . S
C695 C700 1.399 . S
C696 C695 1.399 . S
C696 C697 1.376 . S
C697 H684 0.930 . S
C697 C696 1.376 . S
C697 C698 1.388 . S
C698 H685 0.930 . S
C698 C697 1.388 . S
C698 C699 1.390 . S
C699 C698 1.390 . S
C699 C700 1.394 . S
C699 C705 1.465 . S
C700 C695 1.399 . S
C700 C699 1.394 . S
C700 C701 1.516 . S
C701 C700 1.516 . S
C701 C702 1.502 . S
C701 C703 1.561 . S
C701 C704 1.526 . S
C702 H686 0.959 . S
C702 H687 0.959 . S
C702 H688 0.961 . S
C702 C701 1.502 . S
C703 H689 0.960 . S
C703 H690 0.961 . S
C703 H691 0.959 . S
C703 C701 1.561 . S
C704 C701 1.526 . S
C704 C705 1.396 . S
C704 C709 1.390 . S
C705 C699 1.465 . S
C705 C704 1.396 . S
C705 C706 1.399 . S
C706 H692 0.929 . S
C706 C705 1.399 . S
C706 C707 1.385 . S
C707 H693 0.931 . S
C707 C706 1.385 . S
C707 C708 1.389 . S
C708 C707 1.389 . S
C708 C709 1.387 . S
C709 H694 0.930 . S
C709 C704 1.390 . S
C709 C708 1.387 . S
H710 C722 0.930 . S
H711 C724 0.930 . S
H712 C725 0.930 . S
H713 C729 0.959 . S
H714 C729 0.959 . S
H715 C729 0.961 . S
H716 C730 0.960 . S
H717 C730 0.961 . S
H718 C730 0.959 . S
H719 C733 0.929 . S
H720 C734 0.931 . S
H721 C736 0.930 . S
C722 H710 0.930 . S
C722 C723 1.399 . S
C722 C727 1.399 . S
C723 C722 1.399 . S
C723 C724 1.376 . S
C724 H711 0.930 . S
C724 C723 1.376 . S
C724 C725 1.388 . S
C725 H712 0.930 . S
C725 C724 1.388 . S
C725 C726 1.390 . S
C726 C725 1.390 . S
C726 C727 1.394 . S
C726 C732 1.465 . S
C727 C722 1.399 . S
C727 C726 1.394 . S
C727 C728 1.516 . S
C728 C727 1.516 . S
C728 C729 1.502 . S
C728 C730 1.561 . S
C728 C731 1.526 . S
C729 H713 0.959 . S
C729 H714 0.959 . S
C729 H715 0.961 . S
C729 C728 1.502 . S
C730 H716 0.960 . S
C730 H717 0.961 . S
C730 H718 0.959 . S
C730 C728 1.561 . S
C731 C728 1.526 . S
C731 C732 1.396 . S
C731 C736 1.390 . S
C732 C726 1.465 . S
C732 C731 1.396 . S
C732 C733 1.399 . S
C733 H719 0.929 . S
C733 C732 1.399 . S
C733 C734 1.385 . S
C734 H720 0.931 . S
C734 C733 1.385 . S
C734 C735 1.389 . S
C735 C734 1.389 . S
C735 C736 1.387 . S
C736 H721 0.930 . S
C736 C731 1.390 . S
C736 C735 1.387 . S
H737 C749 0.930 . S
H738 C751 0.930 . S
H739 C752 0.930 . S
H740 C756 0.959 . S
H741 C756 0.959 . S
H742 C756 0.961 . S
H743 C757 0.960 . S
H744 C757 0.961 . S
H745 C757 0.959 . S
H746 C760 0.929 . S
H747 C761 0.931 . S
H748 C763 0.930 . S
C749 H737 0.930 . S
C749 C750 1.399 . S
C749 C754 1.399 . S
C750 C749 1.399 . S
C750 C751 1.376 . S
C751 H738 0.930 . S
C751 C750 1.376 . S
C751 C752 1.388 . S
C752 H739 0.930 . S
C752 C751 1.388 . S
C752 C753 1.390 . S
C753 C752 1.390 . S
C753 C754 1.394 . S
C753 C759 1.465 . S
C754 C749 1.399 . S
C754 C753 1.394 . S
C754 C755 1.516 1_455 S
C755 C754 1.516 1_655 S
C755 C756 1.502 . S
C755 C757 1.561 1_655 S
C755 C758 1.526 . S
C756 H740 0.959 . S
C756 H741 0.959 . S
C756 H742 0.961 . S
C756 C755 1.502 . S
C757 H743 0.960 . S
C757 H744 0.961 . S
C757 H745 0.959 . S
C757 C755 1.561 1_455 S
C758 C755 1.526 . S
C758 C759 1.396 1_655 S
C758 C763 1.390 . S
C759 C753 1.465 . S
C759 C758 1.396 1_455 S
C759 C760 1.399 . S
C760 H746 0.929 . S
C760 C759 1.399 . S
C760 C761 1.386 1_455 S
C761 H747 0.931 . S
C761 C760 1.386 1_655 S
C761 C762 1.389 . S
C762 C761 1.389 . S
C762 C763 1.387 . S
C763 H748 0.930 . S
C763 C758 1.390 . S
C763 C762 1.387 . S
H764 C776 0.930 . S
H765 C778 0.930 . S
H766 C779 0.930 . S
H767 C783 0.959 . S
H768 C783 0.959 . S
H769 C783 0.961 . S
H770 C784 0.960 . S
H771 C784 0.961 . S
H772 C784 0.959 . S
H773 C787 0.929 . S
H774 C788 0.931 . S
H775 C790 0.930 . S
C776 H764 0.930 . S
C776 C777 1.399 . S
C776 C781 1.399 . S
C777 C776 1.399 . S
C777 C778 1.376 . S
C778 H765 0.930 . S
C778 C777 1.376 . S
C778 C779 1.388 1_455 S
C779 H766 0.930 . S
C779 C778 1.388 1_655 S
C779 C780 1.390 . S
C780 C779 1.390 . S
C780 C781 1.394 1_655 S
C780 C786 1.465 . S
C781 C776 1.399 . S
C781 C780 1.394 1_455 S
C781 C782 1.516 . S
C782 C781 1.516 . S
C782 C783 1.502 . S
C782 C784 1.561 1_455 S
C782 C785 1.526 1_455 S
C783 H767 0.959 . S
C783 H768 0.959 . S
C783 H769 0.961 . S
C783 C782 1.502 . S
C784 H770 0.960 . S
C784 H771 0.961 . S
C784 H772 0.959 . S
C784 C782 1.561 1_655 S
C785 C782 1.526 1_655 S
C785 C786 1.396 . S
C785 C790 1.390 . S
C786 C780 1.465 . S
C786 C785 1.396 . S
C786 C787 1.399 . S
C787 H773 0.929 . S
C787 C786 1.399 . S
C787 C788 1.385 . S
C788 H774 0.931 . S
C788 C787 1.385 . S
C788 C789 1.389 . S
C789 C788 1.389 . S
C789 C790 1.387 . S
C790 H775 0.930 . S
C790 C785 1.390 . S
C790 C789 1.387 . S
H791 C803 0.930 . S
H792 C805 0.930 . S
H793 C806 0.930 . S
H794 C810 0.959 . S
H795 C810 0.959 . S
H796 C810 0.961 . S
H797 C811 0.960 . S
H798 C811 0.961 . S
H799 C811 0.959 . S
H800 C814 0.929 . S
H801 C815 0.931 . S
H802 C817 0.930 . S
C803 H791 0.930 . S
C803 C804 1.399 . S
C803 C808 1.399 . S
C804 C803 1.399 . S
C804 C805 1.376 . S
C805 H792 0.930 . S
C805 C804 1.376 . S
C805 C806 1.388 . S
C806 H793 0.930 . S
C806 C805 1.388 . S
C806 C807 1.390 . S
C807 C806 1.390 . S
C807 C808 1.394 . S
C807 C813 1.465 . S
C808 C803 1.399 . S
C808 C807 1.394 . S
C808 C809 1.516 . S
C809 C808 1.516 . S
C809 C810 1.502 . S
C809 C811 1.561 . S
C809 C812 1.526 . S
C810 H794 0.959 . S
C810 H795 0.959 . S
C810 H796 0.961 . S
C810 C809 1.502 . S
C811 H797 0.960 . S
C811 H798 0.961 . S
C811 H799 0.959 . S
C811 C809 1.561 . S
C812 C809 1.526 . S
C812 C813 1.396 . S
C812 C817 1.390 . S
C813 C807 1.465 . S
C813 C812 1.396 . S
C813 C814 1.399 . S
C814 H800 0.929 . S
C814 C813 1.399 . S
C814 C815 1.385 . S
C815 H801 0.931 . S
C815 C814 1.385 . S
C815 C816 1.389 . S
C816 C815 1.389 . S
C816 C817 1.387 . S
C817 H802 0.930 . S
C817 C812 1.390 . S
C817 C816 1.387 . S
H818 C830 0.930 . S
H819 C832 0.930 . S
H820 C833 0.930 . S
H821 C837 0.959 . S
H822 C837 0.959 . S
H823 C837 0.961 . S
H824 C838 0.960 . S
H825 C838 0.961 . S
H826 C838 0.959 . S
H827 C841 0.929 . S
H828 C842 0.931 . S
H829 C844 0.930 . S
C830 H818 0.930 . S
C830 C831 1.399 . S
C830 C835 1.399 . S
C831 C830 1.399 . S
C831 C832 1.376 . S
C832 H819 0.930 . S
C832 C831 1.376 . S
C832 C833 1.388 . S
C833 H820 0.930 . S
C833 C832 1.388 . S
C833 C834 1.390 . S
C834 C833 1.390 . S
C834 C835 1.394 . S
C834 C840 1.465 . S
C835 C830 1.399 . S
C835 C834 1.394 . S
C835 C836 1.516 . S
C836 C835 1.516 . S
C836 C837 1.502 . S
C836 C838 1.561 . S
C836 C839 1.526 . S
C837 H821 0.959 . S
C837 H822 0.959 . S
C837 H823 0.961 . S
C837 C836 1.502 . S
C838 H824 0.960 . S
C838 H825 0.961 . S
C838 H826 0.959 . S
C838 C836 1.561 . S
C839 C836 1.526 . S
C839 C840 1.396 . S
C839 C844 1.390 . S
C840 C834 1.465 . S
C840 C839 1.396 . S
C840 C841 1.399 . S
C841 H827 0.929 . S
C841 C840 1.399 . S
C841 C842 1.385 . S
C842 H828 0.931 . S
C842 C841 1.385 . S
C842 C843 1.389 . S
C843 C842 1.389 . S
C843 C844 1.387 . S
C844 H829 0.930 . S
C844 C839 1.390 . S
C844 C843 1.387 . S
H845 C857 0.930 . S
H846 C859 0.930 . S
H847 C860 0.930 . S
H848 C864 0.959 . S
H849 C864 0.959 . S
H850 C864 0.961 . S
H851 C865 0.960 . S
H852 C865 0.961 . S
H853 C865 0.959 . S
H854 C868 0.929 . S
H855 C869 0.931 . S
H856 C871 0.930 . S
C857 H845 0.930 . S
C857 C858 1.399 . S
C857 C862 1.399 . S
C858 C857 1.399 . S
C858 C859 1.376 . S
C859 H846 0.930 . S
C859 C858 1.376 . S
C859 C860 1.388 1_455 S
C860 H847 0.930 . S
C860 C859 1.388 1_655 S
C860 C861 1.390 . S
C861 C860 1.390 . S
C861 C862 1.394 1_655 S
C861 C867 1.465 . S
C862 C857 1.399 . S
C862 C861 1.394 1_455 S
C862 C863 1.516 . S
C863 C862 1.516 . S
C863 C864 1.502 . S
C863 C865 1.561 1_455 S
C863 C866 1.526 1_455 S
C864 H848 0.959 . S
C864 H849 0.959 . S
C864 H850 0.961 . S
C864 C863 1.502 . S
C865 H851 0.960 . S
C865 H852 0.961 . S
C865 H853 0.959 . S
C865 C863 1.561 1_655 S
C866 C863 1.526 1_655 S
C866 C867 1.396 . S
C866 C871 1.390 . S
C867 C861 1.465 . S
C867 C866 1.396 . S
C867 C868 1.399 . S
C868 H854 0.929 . S
C868 C867 1.399 . S
C868 C869 1.385 . S
C869 H855 0.931 . S
C869 C868 1.385 . S
C869 C870 1.389 . S
C870 C869 1.389 . S
C870 C871 1.387 . S
C871 H856 0.930 . S
C871 C866 1.390 . S
C871 C870 1.387 . S
H872 C884 0.930 1_545 S
H873 C886 0.930 . S
H874 C887 0.917 1_455 S
H875 C891 0.959 1_455 S
H876 C891 0.959 . S
H877 C891 0.961 . S
H878 C892 0.960 1_556 S
H879 C892 0.961 . S
H880 C892 0.959 . S
H881 C895 0.929 . S
H882 C896 0.931 . S
H883 C898 0.930 . S
C884 H872 0.930 1_565 S
C884 C885 1.399 . S
C884 C889 1.399 1_565 S
C885 C884 1.399 . S
C885 C886 1.376 . S
C886 H873 0.930 . S
C886 C885 1.376 . S
C886 C887 1.401 . S
C887 H874 0.917 1_655 S
C887 C886 1.401 . S
C887 C888 1.392 . S
C888 C887 1.392 . S
C888 C889 1.394 1_565 S
C888 C894 1.465 1_656 S
C889 C884 1.399 1_545 S
C889 C888 1.394 1_545 S
C889 C890 1.516 . S
C890 C889 1.516 . S
C890 C891 1.502 . S
C890 C892 1.561 1_556 S
C890 C893 1.526 1_656 S
C891 H875 0.959 1_655 S
C891 H876 0.959 . S
C891 H877 0.961 . S
C891 C890 1.502 . S
C892 H878 0.960 1_554 S
C892 H879 0.961 . S
C892 H880 0.959 . S
C892 C890 1.561 1_554 S
C893 C890 1.526 1_454 S
C893 C894 1.396 1_545 S
C893 C898 1.390 . S
C894 C888 1.465 1_454 S
C894 C893 1.396 1_565 S
C894 C895 1.399 . S
C895 H881 0.929 . S
C895 C894 1.399 . S
C895 C896 1.385 . S
C896 H882 0.931 . S
C896 C895 1.385 . S
C896 C897 1.389 1_565 S
C897 C896 1.389 1_545 S
C897 C898 1.387 . S
C898 H883 0.930 . S
C898 C893 1.390 . S
C898 C897 1.387 . S
H899 C911 0.930 . S
H900 C913 0.935 . S
H901 C914 0.930 . S
H902 C918 0.959 . S
H903 C918 0.959 . S
H904 C918 0.961 . S
H905 C919 0.960 . S
H906 C919 0.961 . S
H907 C919 0.959 . S
H908 C922 0.929 1_556 S
H909 C923 0.931 . S
H910 C925 0.930 1_545 S
C911 H899 0.930 . S
C911 C912 1.399 . S
C911 C916 1.399 . S
C912 C911 1.399 . S
C912 C913 1.376 . S
C913 H900 0.935 . S
C913 C912 1.376 . S
C913 C914 1.388 1_545 S
C914 H901 0.930 . S
C914 C913 1.388 1_565 S
C914 C915 1.390 . S
C915 C914 1.390 . S
C915 C916 1.394 1_565 S
C915 C921 1.465 1_556 S
C916 C911 1.399 . S
C916 C915 1.394 1_545 S
C916 C917 1.516 1_556 S
C917 C916 1.516 1_554 S
C917 C918 1.502 . S
C917 C919 1.561 . S
C917 C920 1.526 . S
C918 H902 0.959 . S
C918 H903 0.959 . S
C918 H904 0.961 . S
C918 C917 1.502 . S
C919 H905 0.960 . S
C919 H906 0.961 . S
C919 H907 0.959 . S
C919 C917 1.561 . S
C920 C917 1.526 . S
C920 C921 1.396 1_545 S
C920 C925 1.390 1_545 S
C921 C915 1.465 1_554 S
C921 C920 1.396 1_565 S
C921 C922 1.399 . S
C922 H908 0.929 1_554 S
C922 C921 1.399 . S
C922 C923 1.385 . S
C923 H909 0.931 . S
C923 C922 1.385 . S
C923 C924 1.389 . S
C924 C923 1.389 . S
C924 C925 1.387 . S
C925 H910 0.930 1_565 S
C925 C920 1.390 1_565 S
C925 C924 1.387 . S
H926 C938 0.930 . S
H927 C940 0.930 1_565 S
H928 C941 0.930 . S
H929 C945 0.959 . S
H930 C945 0.959 . S
H931 C945 0.961 . S
H932 C946 0.960 . S
H933 C946 0.961 . S
H934 C946 0.959 . S
H935 C949 0.929 . S
H936 C950 0.931 . S
H937 C952 0.930 1_545 S
C938 H926 0.930 . S
C938 C939 1.399 . S
C938 C943 1.399 . S
C939 C938 1.399 . S
C939 C940 1.376 . S
C940 H927 0.930 1_545 S
C940 C939 1.376 . S
C940 C941 1.388 1_545 S
C941 H928 0.930 . S
C941 C940 1.388 1_565 S
C941 C942 1.390 . S
C942 C941 1.390 . S
C942 C943 1.394 1_565 S
C942 C948 1.465 . S
C943 C938 1.399 . S
C943 C942 1.394 1_545 S
C943 C944 1.516 . S
C944 C943 1.516 . S
C944 C945 1.502 . S
C944 C946 1.561 . S
C944 C947 1.526 . S
C945 H929 0.959 . S
C945 H930 0.959 . S
C945 H931 0.961 . S
C945 C944 1.502 . S
C946 H932 0.960 . S
C946 H933 0.961 . S
C946 H934 0.959 . S
C946 C944 1.561 . S
C947 C944 1.526 . S
C947 C948 1.396 1_545 S
C947 C952 1.390 1_545 S
C948 C942 1.465 . S
C948 C947 1.396 1_565 S
C948 C949 1.399 . S
C949 H935 0.929 . S
C949 C948 1.399 . S
C949 C950 1.385 . S
C950 H936 0.931 . S
C950 C949 1.385 . S
C950 C951 1.389 . S
C951 C950 1.389 . S
C951 C952 1.387 . S
C952 H937 0.930 1_565 S
C952 C947 1.390 1_565 S
C952 C951 1.387 . S
H953 C965 0.930 . S
H954 C967 0.930 . S
H955 C968 0.930 . S
H956 C972 0.959 . S
H957 C972 0.959 . S
H958 C972 0.961 . S
H959 C973 0.960 . S
H960 C973 0.961 . S
H961 C973 0.959 . S
H962 C976 0.929 . S
H963 C977 0.931 . S
H964 C979 0.930 1_565 S
C965 H953 0.930 . S
C965 C966 1.399 . S
C965 C970 1.399 . S
C966 C965 1.399 . S
C966 C967 1.376 1_565 S
C967 H954 0.930 . S
C967 C966 1.376 1_545 S
C967 C968 1.388 . S
C968 H955 0.930 . S
C968 C967 1.388 . S
C968 C969 1.390 . S
C969 C968 1.390 . S
C969 C970 1.394 1_545 S
C969 C975 1.465 1_455 S
C970 C965 1.399 . S
C970 C969 1.394 1_565 S
C970 C971 1.516 1_455 S
C971 C970 1.516 1_655 S
C971 C972 1.502 1_655 S
C971 C973 1.561 . S
C971 C974 1.526 . S
C972 H956 0.959 . S
C972 H957 0.959 . S
C972 H958 0.961 . S
C972 C971 1.502 1_455 S
C973 H959 0.960 . S
C973 H960 0.961 . S
C973 H961 0.959 . S
C973 C971 1.561 . S
C974 C971 1.526 . S
C974 C975 1.396 1_565 S
C974 C979 1.390 1_565 S
C975 C969 1.465 1_655 S
C975 C974 1.396 1_545 S
C975 C976 1.399 . S
C976 H962 0.929 . S
C976 C975 1.399 . S
C976 C977 1.385 . S
C977 H963 0.931 . S
C977 C976 1.385 . S
C977 C978 1.389 . S
C978 C977 1.389 . S
C978 C979 1.387 . S
C979 H964 0.930 1_545 S
C979 C974 1.390 1_545 S
C979 C978 1.387 . S
H980 C992 0.930 . S
H981 C994 0.930 . S
H982 C995 0.930 . S
H983 C999 0.959 1_556 S
H984 C999 0.939 1_556 S
H985 C999 0.961 . S
H986 C1000 0.960 . S
H987 C1000 0.961 . S
H988 C1000 0.959 . S
H989 C1003 0.929 . S
H990 C1004 0.931 . S
H991 C1006 0.930 . S
C992 H980 0.930 . S
C992 C993 1.399 . S
C992 C997 1.399 . S
C993 C992 1.399 . S
C993 C994 1.376 . S
C994 H981 0.930 . S
C994 C993 1.376 . S
C994 C995 1.388 . S
C995 H982 0.930 . S
C995 C994 1.388 . S
C995 C996 1.390 . S
C996 C995 1.390 . S
C996 C997 1.394 . S
C996 C1002 1.465 1_554 S
C997 C992 1.399 . S
C997 C996 1.394 . S
C997 C998 1.516 . S
C998 C997 1.516 . S
C998 C999 1.502 . S
C998 C1000 1.561 . S
C998 C1001 1.526 1_554 S
C999 H983 0.959 1_554 S
C999 H984 0.939 1_554 S
C999 H985 0.961 . S
C999 C998 1.502 . S
C1000 H986 0.960 . S
C1000 H987 0.961 . S
C1000 H988 0.959 . S
C1000 C998 1.561 . S
C1001 C998 1.526 1_556 S
C1001 C1002 1.396 . S
C1001 C1006 1.390 . S
C1002 C996 1.465 1_556 S
C1002 C1001 1.396 . S
C1002 C1003 1.399 . S
C1003 H989 0.929 . S
C1003 C1002 1.399 . S
C1003 C1004 1.385 . S
C1004 H990 0.931 . S
C1004 C1003 1.385 . S
C1004 C1005 1.389 . S
C1005 C1004 1.389 . S
C1005 C1006 1.387 . S
C1006 H991 0.930 . S
C1006 C1001 1.390 . S
C1006 C1005 1.387 . S
H1007 C1019 0.930 . S
H1008 C1021 0.930 . S
H1009 C1022 0.930 . S
H1010 C1026 0.959 . S
H1011 C1026 0.959 . S
H1012 C1026 0.961 1_554 S
H1013 C1027 0.960 . S
H1014 C1027 0.961 . S
H1015 C1027 0.959 1_455 S
H1016 C1030 0.929 . S
H1017 C1031 0.931 . S
H1018 C1033 0.930 . S
C1019 H1007 0.930 . S
C1019 C1020 1.399 . S
C1019 C1024 1.399 . S
C1020 C1019 1.399 . S
C1020 C1021 1.376 . S
C1021 H1008 0.930 . S
C1021 C1020 1.376 . S
C1021 C1022 1.388 1_655 S
C1022 H1009 0.930 . S
C1022 C1021 1.388 1_455 S
C1022 C1023 1.390 . S
C1023 C1022 1.390 . S
C1023 C1024 1.394 1_455 S
C1023 C1029 1.465 1_554 S
C1024 C1019 1.399 . S
C1024 C1023 1.394 1_655 S
C1024 C1025 1.516 . S
C1025 C1024 1.516 . S
C1025 C1026 1.502 1_554 S
C1025 C1027 1.561 . S
C1025 C1028 1.526 1_654 S
C1026 H1010 0.959 . S
C1026 H1011 0.959 . S
C1026 H1012 0.961 1_556 S
C1026 C1025 1.502 1_556 S
C1027 H1013 0.960 . S
C1027 H1014 0.961 . S
C1027 H1015 0.959 1_655 S
C1027 C1025 1.561 . S
C1028 C1025 1.526 1_456 S
C1028 C1029 1.396 . S
C1028 C1033 1.390 . S
C1029 C1023 1.465 1_556 S
C1029 C1028 1.396 . S
C1029 C1030 1.399 . S
C1030 H1016 0.929 . S
C1030 C1029 1.399 . S
C1030 C1031 1.385 . S
C1031 H1017 0.931 . S
C1031 C1030 1.385 . S
C1031 C1032 1.389 . S
C1032 C1031 1.389 . S
C1032 C1033 1.387 . S
C1033 H1018 0.930 . S
C1033 C1028 1.390 . S
C1033 C1032 1.387 . S
H1034 C1046 0.930 . S
H1035 C1048 0.930 . S
H1036 C1049 0.930 . S
H1037 C1053 0.959 . S
H1038 C1053 0.959 . S
H1039 C1053 0.961 1_655 S
H1040 C1054 0.960 . S
H1041 C1054 0.961 . S
H1042 C1054 0.959 . S
H1043 C1057 0.929 . S
H1044 C1058 0.931 . S
H1045 C1060 0.930 . S
C1046 H1034 0.930 . S
C1046 C1047 1.399 . S
C1046 C1051 1.399 . S
C1047 C1046 1.399 . S
C1047 C1048 1.376 . S
C1048 H1035 0.930 . S
C1048 C1047 1.376 . S
C1048 C1049 1.388 . S
C1049 H1036 0.930 . S
C1049 C1048 1.388 . S
C1049 C1050 1.390 . S
C1050 C1049 1.390 . S
C1050 C1051 1.394 . S
C1050 C1056 1.465 1_655 S
C1051 C1046 1.399 . S
C1051 C1050 1.394 . S
C1051 C1052 1.516 . S
C1052 C1051 1.516 . S
C1052 C1053 1.502 1_655 S
C1052 C1054 1.561 . S
C1052 C1055 1.526 1_655 S
C1053 H1037 0.959 . S
C1053 H1038 0.959 . S
C1053 H1039 0.961 1_455 S
C1053 C1052 1.502 1_455 S
C1054 H1040 0.960 . S
C1054 H1041 0.961 . S
C1054 H1042 0.959 . S
C1054 C1052 1.561 . S
C1055 C1052 1.526 1_455 S
C1055 C1056 1.396 . S
C1055 C1060 1.390 . S
C1056 C1050 1.465 1_455 S
C1056 C1055 1.396 . S
C1056 C1057 1.399 . S
C1057 H1043 0.929 . S
C1057 C1056 1.399 . S
C1057 C1058 1.385 . S
C1058 H1044 0.931 . S
C1058 C1057 1.385 . S
C1058 C1059 1.389 . S
C1059 C1058 1.389 . S
C1059 C1060 1.387 . S
C1060 H1045 0.930 . S
C1060 C1055 1.390 . S
C1060 C1059 1.387 . S
H1061 C1073 0.930 . S
H1062 C1075 0.930 . S
H1063 C1076 0.930 . S
H1064 C1080 0.959 . S
H1065 C1080 0.959 . S
H1066 C1080 0.961 . S
H1067 C1081 0.960 . S
H1068 C1081 0.961 . S
H1069 C1081 0.959 . S
H1070 C1084 0.929 . S
H1071 C1085 0.931 . S
H1072 C1087 0.930 . S
C1073 H1061 0.930 . S
C1073 C1074 1.399 . S
C1073 C1078 1.399 . S
C1074 C1073 1.399 . S
C1074 C1075 1.376 . S
C1075 H1062 0.930 . S
C1075 C1074 1.376 . S
C1075 C1076 1.388 . S
C1076 H1063 0.930 . S
C1076 C1075 1.388 . S
C1076 C1077 1.390 . S
C1077 C1076 1.390 . S
C1077 C1078 1.394 . S
C1077 C1083 1.465 . S
C1078 C1073 1.399 . S
C1078 C1077 1.394 . S
C1078 C1079 1.516 . S
C1079 C1078 1.516 . S
C1079 C1080 1.502 . S
C1079 C1081 1.561 . S
C1079 C1082 1.526 . S
C1080 H1064 0.959 . S
C1080 H1065 0.959 . S
C1080 H1066 0.961 . S
C1080 C1079 1.502 . S
C1081 H1067 0.960 . S
C1081 H1068 0.961 . S
C1081 H1069 0.959 . S
C1081 C1079 1.561 . S
C1082 C1079 1.526 . S
C1082 C1083 1.396 . S
C1082 C1087 1.390 . S
C1083 C1077 1.465 . S
C1083 C1082 1.396 . S
C1083 C1084 1.399 . S
C1084 H1070 0.929 . S
C1084 C1083 1.399 . S
C1084 C1085 1.385 . S
C1085 H1071 0.931 . S
C1085 C1084 1.385 . S
C1085 C1086 1.389 . S
C1086 C1085 1.389 . S
C1086 C1087 1.387 . S
C1087 H1072 0.930 . S
C1087 C1082 1.390 . S
C1087 C1086 1.387 . S
C237 C21 1.503 . S
C249 C7 1.538 . S
C264 C35 1.482 . S
C276 C49 1.550 . S
C291 C62 1.485 . S
C303 C76 1.523 . S
C318 C104 1.482 . S
C330 C90 1.540 . S
C345 C133 1.527 . S
C357 C119 1.497 . S
C372 C161 1.502 . S
C384 C147 1.539 . S
C399 C188 1.493 . S
C411 C174 1.511 . S
C426 C216 1.482 . S
C438 C202 1.536 . S
C453 C48 1.528 . S
C465 C6 1.498 . S
C480 C20 1.488 . S
C492 C34 1.521 . S
C507 C105 1.527 . S
C519 C63 1.496 . S
C534 C91 1.517 . S
C546 C77 1.507 . S
C561 C118 1.531 . S
C573 C160 1.495 . S
C588 C146 1.510 . S
C600 C132 1.498 . S
C615 C217 1.528 . S
C627 C175 1.495 . S
C642 C189 1.493 . S
C654 C203 1.519 . S
C669 C8 1.478 . S
C681 C134 1.477 . S
C696 C22 1.479 . S
C708 C120 1.475 . S
C723 C162 1.424 . S
C735 C36 1.436 . S
C750 C148 1.479 . S
C762 C50 1.469 . S
C777 C191 1.459 . S
C789 C65 1.479 . S
C804 C177 1.456 . S
C816 C79 1.479 . S
C831 C93 1.463 . S
C843 C219 1.479 . S
C858 C107 1.457 . S
C870 C205 1.479 . S
C885 C64 1.560 . S
C897 C9 1.560 . S
C912 C78 1.578 . S
C924 C23 1.549 . S
C939 C92 1.577 . S
C951 C37 1.552 . S
C966 C106 1.572 . S
C978 C51 1.557 . S
C993 C121 1.571 . S
C1005 C176 1.559 . S
C1020 C135 1.576 . S
C1032 C190 1.552 . S
C1047 C204 1.554 . S
C1059 C149 1.565 . S
C1074 C218 1.547 . S
C1086 C163 1.574 . S
