# Generated by pormake.
# Topology wje, (4)-cn, num edge types: 1
# Building blocks:
#     Node 0, Type 0, BuildingBlock: QUQFOY_clean_sbu_1, # of connection points: 4
#     Node 1, Type 0, BuildingBlock: QUQFOY_clean_sbu_1, # of connection points: 4
#     Node 2, Type 0, BuildingBlock: QUQFOY_clean_sbu_1, # of connection points: 4
#     Node 3, Type 0, BuildingBlock: QUQFOY_clean_sbu_1, # of connection points: 4
#     Node 4, Type 0, BuildingBlock: QUQFOY_clean_sbu_1, # of connection points: 4
#     Node 5, Type 0, BuildingBlock: QUQFOY_clean_sbu_1, # of connection points: 4
#     Node 6, Type 0, BuildingBlock: QUQFOY_clean_sbu_1, # of connection points: 4
#     Node 7, Type 0, BuildingBlock: QUQFOY_clean_sbu_1, # of connection points: 4
#     Node 8, Type 0, BuildingBlock: QUQFOY_clean_sbu_1, # of connection points: 4
#     Node 9, Type 0, BuildingBlock: QUQFOY_clean_sbu_1, # of connection points: 4
#     Node 10, Type 0, BuildingBlock: QUQFOY_clean_sbu_1, # of connection points: 4
#     Node 11, Type 0, BuildingBlock: QUQFOY_clean_sbu_1, # of connection points: 4
#     Edge 12, Type (0, 0), BuildingBlock: AJUNOK_clean_linker_0, # of connection points: 2
#     Edge 13, Type (0, 0), BuildingBlock: AJUNOK_clean_linker_0, # of connection points: 2
#     Edge 14, Type (0, 0), BuildingBlock: AJUNOK_clean_linker_0, # of connection points: 2
#     Edge 15, Type (0, 0), BuildingBlock: AJUNOK_clean_linker_0, # of connection points: 2
#     Edge 16, Type (0, 0), BuildingBlock: AJUNOK_clean_linker_0, # of connection points: 2
#     Edge 17, Type (0, 0), BuildingBlock: AJUNOK_clean_linker_0, # of connection points: 2
#     Edge 18, Type (0, 0), BuildingBlock: AJUNOK_clean_linker_0, # of connection points: 2
#     Edge 19, Type (0, 0), BuildingBlock: AJUNOK_clean_linker_0, # of connection points: 2
#     Edge 20, Type (0, 0), BuildingBlock: AJUNOK_clean_linker_0, # of connection points: 2
#     Edge 21, Type (0, 0), BuildingBlock: AJUNOK_clean_linker_0, # of connection points: 2
#     Edge 22, Type (0, 0), BuildingBlock: AJUNOK_clean_linker_0, # of connection points: 2
#     Edge 23, Type (0, 0), BuildingBlock: AJUNOK_clean_linker_0, # of connection points: 2
#     Edge 24, Type (0, 0), BuildingBlock: AJUNOK_clean_linker_0, # of connection points: 2
#     Edge 25, Type (0, 0), BuildingBlock: AJUNOK_clean_linker_0, # of connection points: 2
#     Edge 26, Type (0, 0), BuildingBlock: AJUNOK_clean_linker_0, # of connection points: 2
#     Edge 27, Type (0, 0), BuildingBlock: AJUNOK_clean_linker_0, # of connection points: 2
#     Edge 28, Type (0, 0), BuildingBlock: AJUNOK_clean_linker_0, # of connection points: 2
#     Edge 29, Type (0, 0), BuildingBlock: AJUNOK_clean_linker_0, # of connection points: 2
#     Edge 30, Type (0, 0), BuildingBlock: AJUNOK_clean_linker_0, # of connection points: 2
#     Edge 31, Type (0, 0), BuildingBlock: AJUNOK_clean_linker_0, # of connection points: 2
#     Edge 32, Type (0, 0), BuildingBlock: AJUNOK_clean_linker_0, # of connection points: 2
#     Edge 33, Type (0, 0), BuildingBlock: AJUNOK_clean_linker_0, # of connection points: 2
#     Edge 34, Type (0, 0), BuildingBlock: AJUNOK_clean_linker_0, # of connection points: 2
#     Edge 35, Type (0, 0), BuildingBlock: AJUNOK_clean_linker_0, # of connection points: 2
# Relax obj value: 0.088
# Max RMSD: 0.081
# Mean RMSD: 0.081
data_MOF--net-wje--node1-QUQFOY_clean_sbu_1--edge1-AJUNOK_clean_linker_0
_symmetry_space_group_name_H-M    P1
_symmetry_Int_Tables_number       1
_symmetry_cell_setting            triclinic
loop_
_symmetry_equiv_pos_as_xyz
'x, y, z'
_cell_length_a     32.014052
_cell_length_b     32.034582
_cell_length_c     27.802859
_cell_angle_alpha  89.778781
_cell_angle_beta   90.149349
_cell_angle_gamma 119.95235
loop_
_atom_site_label
_atom_site_type_symbol
_atom_site_fract_x
_atom_site_fract_y
_atom_site_fract_z
_atom_type_partial_charge
O0 O 0.23458 0.97488 0.34112 0.0
Cd1 Cd 0.29762 0.03967 0.34429 0.0
Cd2 Cd 0.33704 0.98506 0.33726 0.0
O3 O 0.26854 0.93279 0.31919 0.0
O4 O 0.28728 0.09315 0.3203 0.0
O5 O 0.33362 0.07052 0.28282 0.0
C6 C 0.31445 0.09776 0.28402 0.0
C7 C 0.40561 0.98988 0.30159 0.0
C8 C 0.23115 0.93463 0.33099 0.0
C9 C 0.33417 0.02226 0.43535 0.0
O10 O 0.34264 0.99432 0.4103 0.0
O11 O 0.3216 0.0501 0.41513 0.0
O12 O 0.37556 0.95267 0.32587 0.0
O13 O 0.39538 0.02369 0.29507 0.0
O14 O 0.25489 0.23645 0.67854 0.0
Cd15 Cd 0.25711 0.30148 0.67948 0.0
Cd16 Cd 0.35033 0.33532 0.6699 0.0
O17 O 0.32967 0.26517 0.65377 0.0
O18 O 0.19359 0.29311 0.65698 0.0
O19 O 0.26159 0.33494 0.61636 0.0
C20 C 0.2155 0.31769 0.61904 0.0
C21 C 0.41467 0.40149 0.63194 0.0
C22 C 0.28957 0.22982 0.66731 0.0
C23 C 0.31443 0.33902 0.7684 0.0
O24 O 0.34915 0.34361 0.74273 0.0
O25 O 0.2741 0.32836 0.74913 0.0
O26 O 0.42088 0.37075 0.65622 0.0
O27 O 0.37109 0.39314 0.6266 0.0
O28 O 0.02002 0.2545 1.00609 0.0
Cd29 Cd 0.95529 0.25264 1.01094 0.0
Cd30 Cd 0.01183 0.34753 1.00453 0.0
O31 O 0.06482 0.33154 0.9886 0.0
O32 O 0.90635 0.18731 0.98646 0.0
O33 O 0.91866 0.25506 0.95234 0.0
C34 C 0.89689 0.2085 0.95203 0.0
C35 C 0.00969 0.41279 0.96867 0.0
C36 C 0.06105 0.29087 0.9977 0.0
C37 C 0.97178 0.30555 0.10227 0.0
O38 O -0.00073 0.34224 0.0771 0.0
O39 O 0.9453 0.26474 0.08239 0.0
O40 O 0.04554 0.41867 0.99457 0.0
O41 O 0.97557 0.36923 0.96091 0.0
O42 O 0.76294 0.02217 0.34355 0.0
Cd43 Cd 0.70134 0.9563 0.34731 0.0
Cd44 Cd 0.65962 0.0098 0.3379 0.0
O45 O 0.72818 0.06392 0.32262 0.0
O46 O 0.71928 0.90845 0.32306 0.0
O47 O 0.66396 0.92038 0.28791 0.0
C48 C 0.68948 0.89931 0.28792 0.0
C49 C 0.59268 0.00863 0.30166 0.0
C50 C 0.76577 0.06228 0.33412 0.0
C51 C 0.66119 0.97091 0.43682 0.0
O52 O 0.65148 0.99742 0.41054 0.0
O53 O 0.67747 0.9455 0.41823 0.0
O54 O 0.62246 0.04391 0.32799 0.0
O55 O 0.60187 0.97435 0.29381 0.0
O56 O 0.73426 0.75858 0.67591 0.0
Cd57 Cd 0.73804 0.69679 0.68008 0.0
Cd58 Cd 0.64355 0.65731 0.6735 0.0
O59 O 0.65729 0.72562 0.65797 0.0
O60 O 0.80418 0.71551 0.65586 0.0
O61 O 0.73748 0.65925 0.62123 0.0
C62 C 0.784 0.68521 0.62117 0.0
C63 C 0.58086 0.58921 0.63628 0.0
C64 C 0.69747 0.76269 0.66784 0.0
C65 C 0.68551 0.65997 0.77149 0.0
O66 O 0.64864 0.65004 0.74621 0.0
O67 O 0.72641 0.67452 0.75158 0.0
O68 O 0.57278 0.61754 0.66229 0.0
O69 O 0.62519 0.60081 0.62916 0.0
O70 O 0.97019 0.73232 1.005 0.0
Cd71 Cd 0.03585 0.73636 1.0104 0.0
Cd72 Cd 0.981 0.64184 1.00625 0.0
O73 O 0.92632 0.65497 0.98912 0.0
O74 O 0.08294 0.8021 0.98508 0.0
O75 O 0.07351 0.73505 0.95241 0.0
C76 C 0.09362 0.78149 0.9513 0.0
C77 C 0.98724 0.57883 0.97113 0.0
C78 C 0.92937 0.69538 0.99746 0.0
C79 C 0.02002 0.68621 0.10338 0.0
O80 O 0.99316 0.6488 0.07895 0.0
O81 O 0.04645 0.72656 0.08243 0.0
O82 O 0.95064 0.57093 0.9968 0.0
O83 O 0.01972 0.62308 0.9632 0.0
O84 O 0.02462 0.76292 0.40241 0.0
Cd85 Cd 0.95788 0.70243 0.39817 0.0
Cd86 Cd 0.00916 0.65821 0.40267 0.0
O87 O 0.06558 0.72576 0.41677 0.0
O88 O 0.91139 0.72115 0.42497 0.0
O89 O 0.92095 0.66281 0.45627 0.0
C90 C 0.90083 0.68915 0.45823 0.0
C91 C 0.00575 0.58969 0.43753 0.0
C92 C 0.06459 0.76424 0.40819 0.0
C93 C 0.96958 0.66408 0.30586 0.0
O94 O 0.99476 0.65129 0.33044 0.0
O95 O 0.94602 0.68144 0.32642 0.0
O96 O 0.04087 0.61853 0.41035 0.0
O97 O 0.97316 0.60087 0.44719 0.0
O98 O 0.25365 0.01969 0.7329 0.0
Cd99 Cd 0.2514 0.9548 0.72852 0.0
Cd100 Cd 0.34576 0.01036 0.73548 0.0
O101 O 0.33059 0.06394 0.75103 0.0
O102 O 0.18609 0.90606 0.75335 0.0
O103 O 0.25399 0.91857 0.78735 0.0
C104 C 0.2074 0.89681 0.78783 0.0
C105 C 0.40889 0.00528 0.77249 0.0
C106 C 0.29015 0.06054 0.74145 0.0
C107 C 0.30472 0.97083 0.63757 0.0
O108 O 0.34128 -0.00183 0.66289 0.0
O109 O 0.26372 0.94448 0.65729 0.0
O110 O 0.41658 0.04196 0.74686 0.0
O111 O 0.36467 0.97231 0.77967 0.0
O112 O 0.23574 0.25304 0.0596 0.0
Cd113 Cd 0.30048 0.25449 0.05903 0.0
Cd114 Cd 0.33519 0.34748 0.06885 0.0
O115 O 0.2651 0.32776 0.08452 0.0
O116 O 0.29238 0.19171 0.08375 0.0
O117 O 0.33422 0.26094 0.12222 0.0
C118 C 0.31683 0.21479 0.12128 0.0
C119 C 0.40203 0.4101 0.10752 0.0
C120 C 0.22952 0.28794 0.07083 0.0
C121 C 0.33935 0.31195 0.97036 0.0
O122 O 0.34413 0.34666 0.99608 0.0
O123 O 0.32805 0.27142 0.98955 0.0
O124 O 0.37219 0.41778 0.08332 0.0
O125 O 0.39211 0.36602 0.11267 0.0
O126 O 0.97657 0.2336 0.39745 0.0
Cd127 Cd 0.04126 0.29677 0.39474 0.0
Cd128 Cd 0.98634 0.33598 0.40293 0.0
O129 O 0.93486 0.2673 0.42152 0.0
O130 O 0.09498 0.28767 0.42049 0.0
O131 O 0.07015 0.33305 0.45628 0.0
C132 C 0.09789 0.3144 0.45653 0.0
C133 C 0.98818 0.40322 0.43846 0.0
C134 C 0.93648 0.23012 0.40856 0.0
C135 C 0.02355 0.33377 0.30436 0.0
O136 O 0.99536 0.34163 0.32977 0.0
O137 O 0.05184 0.32154 0.32417 0.0
O138 O 0.95171 0.37242 0.41395 0.0
O139 O 0.0233 0.39489 0.44484 0.0
O140 O 0.73167 0.97097 0.73594 0.0
Cd141 Cd 0.73494 0.03625 0.73085 0.0
Cd142 Cd 0.6398 0.9807 0.73662 0.0
O143 O 0.65428 0.92652 0.75189 0.0
O144 O 0.80086 0.08392 0.75535 0.0
O145 O 0.73384 0.07357 0.7892 0.0
C146 C 0.78036 0.09419 0.7896 0.0
C147 C 0.57502 0.9832 0.77282 0.0
C148 C 0.69487 0.93 0.74336 0.0
C149 C 0.68264 0.02107 0.63907 0.0
O150 O 0.64565 0.99418 0.66413 0.0
O151 O 0.72364 0.04659 0.65911 0.0
O152 O 0.56866 0.94776 0.74623 0.0
O153 O 0.61876 0.01685 0.78082 0.0
O154 O 0.75742 0.73306 0.06754 0.0
Cd155 Cd 0.69544 0.73662 0.06492 0.0
Cd156 Cd 0.65641 0.64179 0.07064 0.0
O157 O 0.72509 0.65616 0.08544 0.0
O158 O 0.71503 0.80294 0.08887 0.0
O159 O 0.65939 0.73674 0.12488 0.0
C160 C 0.68577 0.78318 0.12448 0.0
C161 C 0.58937 0.57686 0.10713 0.0
C162 C 0.76189 0.69643 0.0752 0.0
C163 C 0.65833 0.68495 0.97336 0.0
O164 O 0.64895 0.64793 0.99815 0.0
O165 O 0.67249 0.72551 0.99372 0.0
O166 O 0.61845 0.57068 0.0803 0.0
O167 O 0.59925 0.62051 0.11513 0.0
C168 C 0.32228 0.11721 0.1957 0.0
C169 C 0.32044 0.13082 0.24342 0.0
C170 C 0.32211 0.14501 0.1564 0.0
C171 C 0.32167 0.18835 0.16324 0.0
H172 H 0.32176 0.08373 0.18857 0.0
H173 H 0.32178 0.13217 0.12034 0.0
S174 S 0.32012 0.24164 0.2811 0.0
N175 N 0.31975 0.19133 0.29525 0.0
N176 N 0.32144 0.24444 0.22175 0.0
C177 C 0.32196 0.20339 0.21083 0.0
C178 C 0.32078 0.17441 0.25078 0.0
C179 C 0.20178 0.32129 0.53047 0.0
C180 C 0.18784 0.32245 0.57824 0.0
C181 C 0.17304 0.31968 0.49128 0.0
C182 C 0.12998 0.32069 0.49817 0.0
H183 H 0.2341 0.31951 0.52332 0.0
H184 H 0.1844 0.31706 0.45529 0.0
S185 S 0.07906 0.32694 0.61596 0.0
N186 N 0.1288 0.32611 0.63007 0.0
N187 N 0.07597 0.32507 0.55663 0.0
C188 C 0.11675 0.32397 0.54568 0.0
C189 C 0.14532 0.32429 0.58561 0.0
C190 C 0.84496 0.11671 0.85117 0.0
C191 C 0.80937 0.12471 0.83056 0.0
C192 C 0.87203 0.14327 0.89109 0.0
C193 C 0.86583 0.1801 0.91107 0.0
H194 H 0.85133 0.08895 0.83687 0.0
H195 H 0.89877 0.13549 0.90587 0.0
S196 S 0.77814 0.21622 0.8699 0.0
N197 N 0.76894 0.17173 0.83348 0.0
N198 N 0.82186 0.22364 0.90685 0.0
C199 C 0.83096 0.18912 0.89037 0.0
C200 C 0.80214 0.16086 0.85062 0.0
C201 C 0.64329 0.80612 0.18665 0.0
C202 C 0.68629 0.81281 0.16581 0.0
C203 C 0.64422 0.83452 0.22585 0.0
C204 C 0.68813 0.86908 0.24675 0.0
H205 H 0.6088 0.77938 0.17207 0.0
H206 H 0.61041 0.82889 0.24035 0.0
S207 S 0.81049 0.89937 0.20637 0.0
N208 N 0.77376 0.8567 0.16906 0.0
N209 N 0.77546 0.90803 0.24364 0.0
C210 C 0.73116 0.87535 0.22667 0.0
C211 C 0.73025 0.84775 0.18599 0.0
C212 C 0.87783 0.72888 0.52169 0.0
C213 C 0.87003 0.68615 0.49955 0.0
C214 C 0.85062 0.72786 0.56172 0.0
C215 C 0.81333 0.68414 0.58027 0.0
H216 H 0.90583 0.76349 0.50847 0.0
H217 H 0.8582 0.76176 0.57763 0.0
S218 S 0.77762 0.56212 0.53481 0.0
N219 N 0.82276 0.59875 0.49952 0.0
N220 N 0.76971 0.59694 0.57309 0.0
C221 C 0.8046 0.64111 0.55807 0.0
C222 C 0.83349 0.64209 0.51822 0.0
C223 C 0.14228 0.87231 0.84896 0.0
C224 C 0.17911 0.86602 0.82903 0.0
C225 C 0.11586 0.84554 0.88915 0.0
C226 C 0.12402 0.81018 0.91009 0.0
H227 H 0.13441 0.89889 0.83394 0.0
H228 H 0.0881 0.85197 0.90339 0.0
S229 S 0.21558 0.77884 0.87098 0.0
N230 N 0.22282 0.82223 0.83362 0.0
N231 N 0.17116 0.76986 0.90752 0.0
C232 C 0.16016 0.80286 0.89007 0.0
C233 C 0.18828 0.83138 0.85004 0.0
C234 C 0.45852 0.95466 0.28667 0.0
C235 C 0.45288 0.99554 0.28794 0.0
C236 C 0.5044 0.95917 0.28614 0.0
C237 C 0.54624 0.00473 0.28771 0.0
H238 H 0.42731 0.91885 0.289 0.0
H239 H 0.50693 0.92674 0.28852 0.0
S240 S 0.55134 0.12295 0.28295 0.0
N241 N 0.49316 0.08301 0.28388 0.0
N242 N 0.57935 0.09144 0.28383 0.0
C243 C 0.54115 0.04581 0.2846 0.0
C244 C 0.49443 0.04123 0.2844 0.0
C245 C 0.49319 0.53594 0.61981 0.0
C246 C 0.53996 0.54221 0.62107 0.0
C247 C 0.45232 0.48987 0.6181 0.0
C248 C 0.45678 0.44838 0.61845 0.0
H249 H 0.48797 0.56672 0.62317 0.0
H250 H 0.41714 0.48681 0.62066 0.0
S251 S 0.57102 0.44535 0.61259 0.0
N252 N 0.58834 0.50325 0.61529 0.0
N253 N 0.51149 0.41658 0.613 0.0
C254 C 0.50328 0.45427 0.61505 0.0
C255 C 0.54494 0.50125 0.61607 0.0
C256 C 0.95342 0.49114 0.95555 0.0
C257 C 0.99377 0.53793 0.95699 0.0
C258 C 0.95885 0.45035 0.95431 0.0
C259 C 0.00485 0.45494 0.95538 0.0
H260 H 0.91733 0.48585 0.95824 0.0
H261 H 0.9268 0.41512 0.95653 0.0
S262 S 0.12192 0.56925 0.95098 0.0
N263 N 0.08116 0.58644 0.95263 0.0
N264 N 0.09136 0.50975 0.95133 0.0
C265 C 0.04539 0.50146 0.95249 0.0
C266 C 0.03985 0.54301 0.95298 0.0
C267 C 0.0419 0.53742 0.45116 0.0
C268 C 0.00082 0.54276 0.45137 0.0
C269 C 0.03769 0.49171 0.4519 0.0
C270 C 0.99219 0.44972 0.45193 0.0
H271 H 0.07753 0.56871 0.44758 0.0
H272 H 0.07017 0.48938 0.44846 0.0
S273 S 0.87383 0.44406 0.46065 0.0
N274 N 0.91351 0.50225 0.45836 0.0
N275 N 0.90554 0.41629 0.45873 0.0
C276 C 0.95105 0.45459 0.45641 0.0
C277 C 0.95538 0.50118 0.45645 0.0
C278 C 0.5377 0.03399 0.78817 0.0
C279 C 0.53314 0.98805 0.78694 0.0
C280 C 0.49682 0.03933 0.78762 0.0
C281 C 0.45 -0.00105 0.78672 0.0
H282 H 0.5729 0.06603 0.78544 0.0
H283 H 0.50201 0.07537 0.78488 0.0
S284 S 0.41901 0.87095 0.79296 0.0
N285 N 0.47852 0.90159 0.79169 0.0
N286 N 0.40167 0.91161 0.7917 0.0
C287 C 0.44507 0.95294 0.79075 0.0
C288 C 0.4867 0.9475 0.79052 0.0
C289 C 0.45525 0.49801 0.12296 0.0
C290 C 0.44924 0.45135 0.12189 0.0
C291 C 0.50129 0.53907 0.12324 0.0
C292 C 0.54289 0.53485 0.12165 0.0
H293 H 0.42422 0.50296 0.12044 0.0
H294 H 0.50411 0.57414 0.12055 0.0
S295 S 0.54709 0.42131 0.12759 0.0
N296 N 0.489 0.40358 0.12665 0.0
N297 N 0.57546 0.48077 0.1262 0.0
C298 C 0.53746 0.48859 0.12525 0.0
C299 C 0.4906 0.44678 0.1257 0.0
C300 C 0.11027 0.85231 0.38943 0.0
C301 C 0.10902 0.80786 0.3919 0.0
C302 C 0.14846 0.8924 0.36697 0.0
C303 C 0.18688 0.88964 0.34554 0.0
H304 H 0.08126 0.85615 0.40472 0.0
H305 H 0.14823 0.92608 0.36738 0.0
S306 S 0.19891 0.78023 0.33876 0.0
N307 N 0.14848 0.76272 0.36885 0.0
N308 N 0.21982 0.83766 0.32626 0.0
C309 C 0.18541 0.84495 0.34665 0.0
C310 C 0.14683 0.80431 0.37012 0.0
C311 C 0.33111 0.18479 0.69132 0.0
C312 C 0.28764 0.18446 0.68241 0.0
C313 C 0.33156 0.14581 0.71356 0.0
C314 C 0.28853 0.10435 0.72731 0.0
H315 H 0.36546 0.21596 0.68221 0.0
H316 H 0.36609 0.14782 0.71863 0.0
S317 S 0.16479 0.08493 0.71208 0.0
N318 N 0.20022 0.13911 0.68941 0.0
N319 N 0.20102 0.06533 0.73057 0.0
C320 C 0.24468 0.10338 0.71863 0.0
C321 C 0.24424 0.14339 0.69624 0.0
C322 C 0.18505 0.3303 0.04762 0.0
C323 C 0.18438 0.28658 0.05583 0.0
C324 C 0.14627 0.33137 1.02565 0.0
C325 C 0.10467 0.28871 1.0115 0.0
H326 H 0.21633 0.36438 0.05711 0.0
H327 H 0.14853 0.36605 1.02115 0.0
S328 S 0.08437 0.16454 1.02477 0.0
N329 N 0.13856 0.19933 0.04767 0.0
N330 N 0.06516 0.2013 1.00703 0.0
C331 C 0.10336 0.24463 1.01944 0.0
C332 C 0.14316 0.24356 0.04155 0.0
C333 C 0.89289 0.1451 0.37883 0.0
C334 C 0.89131 0.1862 0.394 0.0
C335 C 0.85295 0.10621 0.35706 0.0
C336 C 0.80991 0.10696 0.34894 0.0
H337 H 0.92548 0.14312 0.3832 0.0
H338 H 0.8557 0.07503 0.34697 0.0
S339 S 0.78654 0.20573 0.38228 0.0
N340 N 0.84246 0.22485 0.39977 0.0
N341 N 0.76791 0.15222 0.35844 0.0
C342 C 0.80782 0.14788 0.36377 0.0
C343 C 0.84822 0.18717 0.38662 0.0
C344 C 0.65479 0.80654 0.69209 0.0
C345 C 0.69852 0.80759 0.68284 0.0
C346 C 0.65391 0.84499 0.7148 0.0
C347 C 0.69674 0.8865 0.72886 0.0
H348 H 0.62063 0.77523 0.68284 0.0
H349 H 0.61923 0.84252 0.72005 0.0
S350 S 0.82102 0.90769 0.7131 0.0
N351 N 0.78603 0.85393 0.68969 0.0
N352 N 0.78428 0.92623 0.73225 0.0
C353 C 0.7408 0.88813 0.71993 0.0
C354 C 0.74173 0.84888 0.6968 0.0
C355 C 0.80586 0.65429 0.04949 0.0
C356 C 0.80677 0.69782 0.05932 0.0
C357 C 0.84429 0.65379 1.02621 0.0
C358 C 0.88564 0.69681 1.01212 0.0
H359 H 0.7747 0.62002 0.05879 0.0
H360 H 0.842 0.61925 1.0206 0.0
S361 S 0.90628 0.82067 1.02904 0.0
N362 N 0.85269 0.78532 0.05283 0.0
N363 N 0.92495 0.7843 1.00914 0.0
C364 C 0.88705 0.74067 1.02149 0.0
C365 C 0.84782 0.74119 0.04523 0.0
C366 C 0.3601 0.00259 0.51305 0.0
C367 C 0.32843 0.01334 0.48783 0.0
C368 C 0.35115 0.9867 0.56106 0.0
C369 C 0.30913 0.9789 0.58496 0.0
H370 H 0.39206 0.00653 0.49549 0.0
H371 H 0.37741 0.98063 0.57974 0.0
S372 S 0.2139 9e-05 0.53447 0.0
N373 N 0.25311 0.0145 0.49021 0.0
N374 N 0.23566 0.98334 0.57984 0.0
C375 C 0.27677 0.98869 0.55988 0.0
C376 C 0.2866 0.00626 0.51152 0.0
C377 C 0.36828 0.35882 0.89362 0.0
C378 C 0.3353 0.31636 0.91784 0.0
C379 C 0.36054 0.36707 0.84555 0.0
C380 C 0.31838 0.33431 0.82087 0.0
H381 H 0.40024 0.38584 0.91201 0.0
H382 H 0.38769 0.39929 0.82754 0.0
S383 S 0.22018 0.2184 0.86862 0.0
N384 N 0.25886 0.24135 0.9136 0.0
N385 N 0.24354 0.25764 0.82407 0.0
C386 C 0.28483 0.29212 0.84497 0.0
C387 C 0.29348 0.28296 0.89323 0.0
C388 C 0.00345 0.36 0.22706 0.0
C389 C 0.01448 0.32834 0.2519 0.0
C390 C 0.98747 0.35133 0.17909 0.0
C391 C 0.97985 0.30958 0.15488 0.0
H392 H 0.00727 0.39174 0.24487 0.0
H393 H 0.98123 0.3776 0.1607 0.0
S394 S 0.00173 0.21446 0.20434 0.0
N395 N 0.01605 0.25331 0.24882 0.0
N396 N 0.98471 0.23636 0.1593 0.0
C397 C 0.98988 0.27721 0.17959 0.0
C398 C 0.00755 0.28677 0.22789 0.0
C399 C 0.70486 0.9876 0.51514 0.0
C400 C 0.66341 0.979 0.48938 0.0
C401 C 0.71253 0.0047 0.56267 0.0
C402 C 0.67867 0.01311 0.58645 0.0
H403 H 0.73235 0.98256 0.49794 0.0
H404 H 0.74447 0.00985 0.58143 0.0
S405 S 0.56408 0.99581 0.53511 0.0
N406 N 0.58849 0.98085 0.49098 0.0
N407 N 0.60187 0.01091 0.58088 0.0
C408 C 0.6369 0.00421 0.56124 0.0
C409 C 0.62956 0.98774 0.51261 0.0
C410 C 0.63038 0.63981 0.89595 0.0
C411 C 0.66336 0.6817 0.92079 0.0
C412 C 0.63879 0.63189 0.84817 0.0
C413 C 0.68144 0.66456 0.82404 0.0
H414 H 0.59791 0.61283 0.91371 0.0
H415 H 0.61162 0.59998 0.82988 0.0
S416 S 0.78003 0.7791 0.87354 0.0
N417 N 0.74057 0.75602 0.91783 0.0
N418 N 0.7569 0.74059 0.82857 0.0
C419 C 0.71503 0.70625 0.84871 0.0
C420 C 0.70583 0.71498 0.89687 0.0
C421 C 0.98313 0.63314 0.2286 0.0
C422 C 0.97754 0.66833 0.25321 0.0
C423 C -0.00097 0.64012 0.18069 0.0
C424 C 0.0117 0.68331 0.15602 0.0
H425 H 0.97539 0.60001 0.24667 0.0
H426 H 0.00128 0.61135 0.16271 0.0
S427 S 0.00517 0.78756 0.20487 0.0
N428 N 0.98667 0.74829 0.24961 0.0
N429 N 0.01747 0.76184 0.15996 0.0
C430 C 0.00697 0.71911 0.18047 0.0
C431 C 0.98958 0.71148 0.22887 0.0
loop_
_geom_bond_atom_site_label_1
_geom_bond_atom_site_label_2
_geom_bond_distance
_geom_bond_site_symmetry_2
_ccdc_geom_bond_type
O0 Cd1 2.223 1_565 S
O0 C8 1.315 . S
Cd1 O0 2.223 1_545 S
Cd1 O4 2.297 . S
Cd1 O5 2.439 . S
Cd1 O11 2.240 . S
Cd2 O3 2.240 . S
Cd2 O10 2.223 . S
Cd2 O12 2.297 . S
Cd2 O13 2.439 1_565 S
O3 Cd2 2.240 . S
O3 C8 1.279 . S
O4 Cd1 2.297 . S
O4 C6 1.247 . S
O5 Cd1 2.439 . S
O5 C6 1.208 . S
C6 O4 1.247 . S
C6 O5 1.208 . S
C7 O12 1.247 1_545 S
C7 O13 1.208 . S
C8 O0 1.315 . S
C8 O3 1.279 . S
C9 O10 1.315 1_545 S
C9 O11 1.279 . S
O10 Cd2 2.223 . S
O10 C9 1.315 1_565 S
O11 Cd1 2.240 . S
O11 C9 1.279 . S
O12 Cd2 2.297 . S
O12 C7 1.247 1_565 S
O13 Cd2 2.439 1_545 S
O13 C7 1.208 . S
O14 Cd15 2.223 . S
O14 C22 1.315 . S
Cd15 O14 2.223 . S
Cd15 O18 2.297 . S
Cd15 O19 2.439 . S
Cd15 O25 2.240 . S
Cd16 O17 2.240 . S
Cd16 O24 2.223 . S
Cd16 O26 2.297 . S
Cd16 O27 2.439 . S
O17 Cd16 2.240 . S
O17 C22 1.279 . S
O18 Cd15 2.297 . S
O18 C20 1.247 . S
O19 Cd15 2.439 . S
O19 C20 1.208 . S
C20 O18 1.247 . S
C20 O19 1.208 . S
C21 O26 1.247 . S
C21 O27 1.208 . S
C22 O14 1.315 . S
C22 O17 1.279 . S
C23 O24 1.315 . S
C23 O25 1.279 . S
O24 Cd16 2.223 . S
O24 C23 1.315 . S
O25 Cd15 2.240 . S
O25 C23 1.279 . S
O26 Cd16 2.297 . S
O26 C21 1.247 . S
O27 Cd16 2.439 . S
O27 C21 1.208 . S
O28 Cd29 2.223 1_455 S
O28 C36 1.315 1_554 S
Cd29 O28 2.223 1_655 S
Cd29 O32 2.297 1_554 S
Cd29 O33 2.439 1_554 S
Cd29 O39 2.240 . S
Cd30 O31 2.240 1_554 S
Cd30 O38 2.223 . S
Cd30 O40 2.297 . S
Cd30 O41 2.439 1_454 S
O31 Cd30 2.240 1_556 S
O31 C36 1.279 . S
O32 Cd29 2.297 1_556 S
O32 C34 1.247 . S
O33 Cd29 2.439 1_556 S
O33 C34 1.208 . S
C34 O32 1.247 . S
C34 O33 1.208 . S
C35 O40 1.247 1_656 S
C35 O41 1.208 . S
C36 O28 1.315 1_556 S
C36 O31 1.279 . S
C37 O38 1.315 1_655 S
C37 O39 1.279 . S
O38 Cd30 2.223 . S
O38 C37 1.315 1_455 S
O39 Cd29 2.240 . S
O39 C37 1.279 . S
O40 Cd30 2.297 . S
O40 C35 1.247 1_454 S
O41 Cd30 2.439 1_656 S
O41 C35 1.208 . S
O42 Cd43 2.223 1_545 S
O42 C50 1.315 . S
Cd43 O42 2.223 1_565 S
Cd43 O46 2.297 . S
Cd43 O47 2.439 . S
Cd43 O53 2.240 . S
Cd44 O45 2.240 . S
Cd44 O52 2.223 . S
Cd44 O54 2.297 . S
Cd44 O55 2.439 1_545 S
O45 Cd44 2.240 . S
O45 C50 1.279 . S
O46 Cd43 2.297 . S
O46 C48 1.247 . S
O47 Cd43 2.439 . S
O47 C48 1.208 . S
C48 O46 1.247 . S
C48 O47 1.208 . S
C49 O54 1.247 1_565 S
C49 O55 1.208 . S
C50 O42 1.315 . S
C50 O45 1.279 . S
C51 O52 1.315 1_565 S
C51 O53 1.279 . S
O52 Cd44 2.223 . S
O52 C51 1.315 1_545 S
O53 Cd43 2.240 . S
O53 C51 1.279 . S
O54 Cd44 2.297 . S
O54 C49 1.247 1_545 S
O55 Cd44 2.439 1_565 S
O55 C49 1.208 . S
O56 Cd57 2.223 . S
O56 C64 1.315 . S
Cd57 O56 2.223 . S
Cd57 O60 2.297 . S
Cd57 O61 2.439 . S
Cd57 O67 2.240 . S
Cd58 O59 2.240 . S
Cd58 O66 2.223 . S
Cd58 O68 2.297 . S
Cd58 O69 2.439 . S
O59 Cd58 2.240 . S
O59 C64 1.279 . S
O60 Cd57 2.297 . S
O60 C62 1.247 . S
O61 Cd57 2.439 . S
O61 C62 1.208 . S
C62 O60 1.247 . S
C62 O61 1.208 . S
C63 O68 1.247 . S
C63 O69 1.208 . S
C64 O56 1.315 . S
C64 O59 1.279 . S
C65 O66 1.315 . S
C65 O67 1.279 . S
O66 Cd58 2.223 . S
O66 C65 1.315 . S
O67 Cd57 2.240 . S
O67 C65 1.279 . S
O68 Cd58 2.297 . S
O68 C63 1.247 . S
O69 Cd58 2.439 . S
O69 C63 1.208 . S
O70 Cd71 2.223 1_655 S
O70 C78 1.315 1_554 S
Cd71 O70 2.223 1_455 S
Cd71 O74 2.297 1_554 S
Cd71 O75 2.439 1_554 S
Cd71 O81 2.240 . S
Cd72 O73 2.240 1_554 S
Cd72 O80 2.223 . S
Cd72 O82 2.297 . S
Cd72 O83 2.439 1_654 S
O73 Cd72 2.240 1_556 S
O73 C78 1.279 . S
O74 Cd71 2.297 1_556 S
O74 C76 1.247 . S
O75 Cd71 2.439 1_556 S
O75 C76 1.208 . S
C76 O74 1.247 . S
C76 O75 1.208 . S
C77 O82 1.247 1_456 S
C77 O83 1.208 . S
C78 O70 1.315 1_556 S
C78 O73 1.279 . S
C79 O80 1.315 1_455 S
C79 O81 1.279 . S
O80 Cd72 2.223 . S
O80 C79 1.315 1_655 S
O81 Cd71 2.240 . S
O81 C79 1.279 . S
O82 Cd72 2.297 . S
O82 C77 1.247 1_654 S
O83 Cd72 2.439 1_456 S
O83 C77 1.208 . S
O84 Cd85 2.223 1_455 S
O84 C92 1.315 . S
Cd85 O84 2.223 1_655 S
Cd85 O88 2.297 . S
Cd85 O89 2.439 . S
Cd85 O95 2.240 . S
Cd86 O87 2.240 . S
Cd86 O94 2.223 . S
Cd86 O96 2.297 . S
Cd86 O97 2.439 1_455 S
O87 Cd86 2.240 . S
O87 C92 1.279 . S
O88 Cd85 2.297 . S
O88 C90 1.247 . S
O89 Cd85 2.439 . S
O89 C90 1.208 . S
C90 O88 1.247 . S
C90 O89 1.208 . S
C91 O96 1.247 1_655 S
C91 O97 1.208 . S
C92 O84 1.315 . S
C92 O87 1.279 . S
C93 O94 1.315 1_655 S
C93 O95 1.279 . S
O94 Cd86 2.223 . S
O94 C93 1.315 1_455 S
O95 Cd85 2.240 . S
O95 C93 1.279 . S
O96 Cd86 2.297 . S
O96 C91 1.247 1_455 S
O97 Cd86 2.439 1_655 S
O97 C91 1.208 . S
O98 Cd99 2.223 1_545 S
O98 C106 1.315 . S
Cd99 O98 2.223 1_565 S
Cd99 O102 2.297 . S
Cd99 O103 2.439 . S
Cd99 O109 2.240 . S
Cd100 O101 2.240 . S
Cd100 O108 2.223 . S
Cd100 O110 2.297 . S
Cd100 O111 2.439 1_545 S
O101 Cd100 2.240 . S
O101 C106 1.279 . S
O102 Cd99 2.297 . S
O102 C104 1.247 . S
O103 Cd99 2.439 . S
O103 C104 1.208 . S
C104 O102 1.247 . S
C104 O103 1.208 . S
C105 O110 1.247 1_565 S
C105 O111 1.208 . S
C106 O98 1.315 . S
C106 O101 1.279 . S
C107 O108 1.315 1_565 S
C107 O109 1.279 . S
O108 Cd100 2.223 . S
O108 C107 1.315 1_545 S
O109 Cd99 2.240 . S
O109 C107 1.279 . S
O110 Cd100 2.297 . S
O110 C105 1.247 1_545 S
O111 Cd100 2.439 1_565 S
O111 C105 1.208 . S
O112 Cd113 2.223 . S
O112 C120 1.315 1_556 S
Cd113 O112 2.223 . S
Cd113 O116 2.297 1_556 S
Cd113 O117 2.439 1_556 S
Cd113 O123 2.240 . S
Cd114 O115 2.240 1_556 S
Cd114 O122 2.223 . S
Cd114 O124 2.297 . S
Cd114 O125 2.439 1_556 S
O115 Cd114 2.240 1_554 S
O115 C120 1.279 . S
O116 Cd113 2.297 1_554 S
O116 C118 1.247 . S
O117 Cd113 2.439 1_554 S
O117 C118 1.208 . S
C118 O116 1.247 . S
C118 O117 1.208 . S
C119 O124 1.247 . S
C119 O125 1.208 1_556 S
C120 O112 1.315 1_554 S
C120 O115 1.279 . S
C121 O122 1.315 . S
C121 O123 1.279 . S
O122 Cd114 2.223 . S
O122 C121 1.315 . S
O123 Cd113 2.240 . S
O123 C121 1.279 . S
O124 Cd114 2.297 . S
O124 C119 1.247 . S
O125 Cd114 2.439 1_554 S
O125 C119 1.208 1_554 S
O126 Cd127 2.223 1_655 S
O126 C134 1.315 . S
Cd127 O126 2.223 1_455 S
Cd127 O130 2.297 . S
Cd127 O131 2.439 . S
Cd127 O137 2.240 . S
Cd128 O129 2.240 . S
Cd128 O136 2.223 . S
Cd128 O138 2.297 . S
Cd128 O139 2.439 1_655 S
O129 Cd128 2.240 . S
O129 C134 1.279 . S
O130 Cd127 2.297 . S
O130 C132 1.247 . S
O131 Cd127 2.439 . S
O131 C132 1.208 . S
C132 O130 1.247 . S
C132 O131 1.208 . S
C133 O138 1.247 1_455 S
C133 O139 1.208 . S
C134 O126 1.315 . S
C134 O129 1.279 . S
C135 O136 1.315 1_455 S
C135 O137 1.279 . S
O136 Cd128 2.223 . S
O136 C135 1.315 1_655 S
O137 Cd127 2.240 . S
O137 C135 1.279 . S
O138 Cd128 2.297 . S
O138 C133 1.247 1_655 S
O139 Cd128 2.439 1_455 S
O139 C133 1.208 . S
O140 Cd141 2.223 1_565 S
O140 C148 1.315 . S
Cd141 O140 2.223 1_545 S
Cd141 O144 2.297 . S
Cd141 O145 2.439 . S
Cd141 O151 2.240 . S
Cd142 O143 2.240 . S
Cd142 O150 2.223 . S
Cd142 O152 2.297 . S
Cd142 O153 2.439 1_565 S
O143 Cd142 2.240 . S
O143 C148 1.279 . S
O144 Cd141 2.297 . S
O144 C146 1.247 . S
O145 Cd141 2.439 . S
O145 C146 1.208 . S
C146 O144 1.247 . S
C146 O145 1.208 . S
C147 O152 1.247 1_545 S
C147 O153 1.208 . S
C148 O140 1.315 . S
C148 O143 1.279 . S
C149 O150 1.315 1_545 S
C149 O151 1.279 . S
O150 Cd142 2.223 . S
O150 C149 1.315 1_565 S
O151 Cd141 2.240 . S
O151 C149 1.279 . S
O152 Cd142 2.297 . S
O152 C147 1.247 1_565 S
O153 Cd142 2.439 1_545 S
O153 C147 1.208 . S
O154 Cd155 2.223 . S
O154 C162 1.315 1_556 S
Cd155 O154 2.223 . S
Cd155 O158 2.297 1_556 S
Cd155 O159 2.439 1_556 S
Cd155 O165 2.240 . S
Cd156 O157 2.240 1_556 S
Cd156 O164 2.223 . S
Cd156 O166 2.297 . S
Cd156 O167 2.439 1_556 S
O157 Cd156 2.240 1_554 S
O157 C162 1.279 . S
O158 Cd155 2.297 1_554 S
O158 C160 1.247 . S
O159 Cd155 2.439 1_554 S
O159 C160 1.208 . S
C160 O158 1.247 . S
C160 O159 1.208 . S
C161 O166 1.247 . S
C161 O167 1.208 1_556 S
C162 O154 1.315 1_554 S
C162 O157 1.279 . S
C163 O164 1.315 . S
C163 O165 1.279 . S
O164 Cd156 2.223 . S
O164 C163 1.315 . S
O165 Cd155 2.240 . S
O165 C163 1.279 . S
O166 Cd156 2.297 . S
O166 C161 1.247 . S
O167 Cd156 2.439 1_554 S
O167 C161 1.208 1_554 S
C168 C169 1.369 . S
C168 C170 1.419 . S
C168 H172 0.930 . S
C169 C168 1.369 . S
C169 C178 1.429 . S
C170 C168 1.419 . S
C170 C171 1.363 . S
C170 H173 0.929 . S
C171 C170 1.363 . S
C171 C177 1.428 . S
H172 C168 0.930 . S
H173 C170 0.929 . S
S174 N175 1.613 . S
S174 N176 1.610 . S
N175 S174 1.613 . S
N175 C178 1.350 . S
N176 S174 1.610 . S
N176 C177 1.351 . S
C177 C171 1.428 . S
C177 N176 1.351 . S
C177 C178 1.434 . S
C178 C169 1.429 . S
C178 N175 1.350 . S
C178 C177 1.434 . S
C179 C180 1.369 . S
C179 C181 1.419 . S
C179 H183 0.930 . S
C180 C179 1.369 . S
C180 C189 1.429 . S
C181 C179 1.419 . S
C181 C182 1.363 . S
C181 H184 0.929 . S
C182 C181 1.363 . S
C182 C188 1.428 . S
H183 C179 0.930 . S
H184 C181 0.929 . S
S185 N186 1.613 . S
S185 N187 1.610 . S
N186 S185 1.613 . S
N186 C189 1.350 . S
N187 S185 1.610 . S
N187 C188 1.351 . S
C188 C182 1.428 . S
C188 N187 1.351 . S
C188 C189 1.434 . S
C189 C180 1.429 . S
C189 N186 1.350 . S
C189 C188 1.434 . S
C190 C191 1.369 . S
C190 C192 1.419 . S
C190 H194 0.930 . S
C191 C190 1.369 . S
C191 C200 1.429 . S
C192 C190 1.419 . S
C192 C193 1.363 . S
C192 H195 0.929 . S
C193 C192 1.363 . S
C193 C199 1.428 . S
H194 C190 0.930 . S
H195 C192 0.929 . S
S196 N197 1.613 . S
S196 N198 1.610 . S
N197 S196 1.613 . S
N197 C200 1.350 . S
N198 S196 1.610 . S
N198 C199 1.351 . S
C199 C193 1.428 . S
C199 N198 1.351 . S
C199 C200 1.434 . S
C200 C191 1.429 . S
C200 N197 1.350 . S
C200 C199 1.434 . S
C201 C202 1.369 . S
C201 C203 1.419 . S
C201 H205 0.930 . S
C202 C201 1.369 . S
C202 C211 1.429 . S
C203 C201 1.419 . S
C203 C204 1.363 . S
C203 H206 0.929 . S
C204 C203 1.363 . S
C204 C210 1.428 . S
H205 C201 0.930 . S
H206 C203 0.929 . S
S207 N208 1.613 . S
S207 N209 1.610 . S
N208 S207 1.613 . S
N208 C211 1.350 . S
N209 S207 1.610 . S
N209 C210 1.351 . S
C210 C204 1.428 . S
C210 N209 1.351 . S
C210 C211 1.434 . S
C211 C202 1.429 . S
C211 N208 1.350 . S
C211 C210 1.434 . S
C212 C213 1.369 . S
C212 C214 1.419 . S
C212 H216 0.930 . S
C213 C212 1.369 . S
C213 C222 1.429 . S
C214 C212 1.419 . S
C214 C215 1.363 . S
C214 H217 0.929 . S
C215 C214 1.363 . S
C215 C221 1.428 . S
H216 C212 0.930 . S
H217 C214 0.929 . S
S218 N219 1.613 . S
S218 N220 1.610 . S
N219 S218 1.613 . S
N219 C222 1.350 . S
N220 S218 1.610 . S
N220 C221 1.351 . S
C221 C215 1.428 . S
C221 N220 1.351 . S
C221 C222 1.434 . S
C222 C213 1.429 . S
C222 N219 1.350 . S
C222 C221 1.434 . S
C223 C224 1.369 . S
C223 C225 1.419 . S
C223 H227 0.930 . S
C224 C223 1.369 . S
C224 C233 1.429 . S
C225 C223 1.419 . S
C225 C226 1.363 . S
C225 H228 0.929 . S
C226 C225 1.363 . S
C226 C232 1.428 . S
H227 C223 0.930 . S
H228 C225 0.929 . S
S229 N230 1.613 . S
S229 N231 1.610 . S
N230 S229 1.613 . S
N230 C233 1.350 . S
N231 S229 1.610 . S
N231 C232 1.351 . S
C232 C226 1.428 . S
C232 N231 1.351 . S
C232 C233 1.434 . S
C233 C224 1.429 . S
C233 N230 1.350 . S
C233 C232 1.434 . S
C234 C235 1.369 1_565 S
C234 C236 1.419 . S
C234 H238 0.930 . S
C235 C234 1.369 1_545 S
C235 C244 1.429 . S
C236 C234 1.419 . S
C236 C237 1.363 . S
C236 H239 0.929 . S
C237 C236 1.363 . S
C237 C243 1.428 1_565 S
H238 C234 0.930 . S
H239 C236 0.929 . S
S240 N241 1.613 . S
S240 N242 1.610 . S
N241 S240 1.613 . S
N241 C244 1.350 . S
N242 S240 1.610 . S
N242 C243 1.351 . S
C243 C237 1.428 1_545 S
C243 N242 1.351 . S
C243 C244 1.434 . S
C244 C235 1.429 . S
C244 N241 1.350 . S
C244 C243 1.434 . S
C245 C246 1.369 . S
C245 C247 1.419 . S
C245 H249 0.930 . S
C246 C245 1.369 . S
C246 C255 1.429 . S
C247 C245 1.419 . S
C247 C248 1.363 . S
C247 H250 0.929 . S
C248 C247 1.363 . S
C248 C254 1.428 . S
H249 C245 0.930 . S
H250 C247 0.929 . S
S251 N252 1.613 . S
S251 N253 1.610 . S
N252 S251 1.613 . S
N252 C255 1.350 . S
N253 S251 1.610 . S
N253 C254 1.351 . S
C254 C248 1.428 . S
C254 N253 1.351 . S
C254 C255 1.434 . S
C255 C246 1.429 . S
C255 N252 1.350 . S
C255 C254 1.434 . S
C256 C257 1.369 1_654 S
C256 C258 1.419 . S
C256 H260 0.930 . S
C257 C256 1.369 1_456 S
C257 C266 1.429 . S
C258 C256 1.419 . S
C258 C259 1.363 1_554 S
C258 H261 0.929 . S
C259 C258 1.363 1_556 S
C259 C265 1.428 1_655 S
H260 C256 0.930 . S
H261 C258 0.929 . S
S262 N263 1.613 . S
S262 N264 1.610 . S
N263 S262 1.613 . S
N263 C266 1.350 . S
N264 S262 1.610 . S
N264 C265 1.351 . S
C265 C259 1.428 1_455 S
C265 N264 1.351 . S
C265 C266 1.434 . S
C266 C257 1.429 . S
C266 N263 1.350 . S
C266 C265 1.434 . S
C267 C268 1.369 1_455 S
C267 C269 1.419 . S
C267 H271 0.930 . S
C268 C267 1.369 1_655 S
C268 C277 1.429 . S
C269 C267 1.419 . S
C269 C270 1.363 . S
C269 H272 0.929 . S
C270 C269 1.363 . S
C270 C276 1.428 1_455 S
H271 C267 0.930 . S
H272 C269 0.929 . S
S273 N274 1.613 . S
S273 N275 1.610 . S
N274 S273 1.613 . S
N274 C277 1.350 . S
N275 S273 1.610 . S
N275 C276 1.351 . S
C276 C270 1.428 1_655 S
C276 N275 1.351 . S
C276 C277 1.434 . S
C277 C268 1.429 . S
C277 N274 1.350 . S
C277 C276 1.434 . S
C278 C279 1.369 . S
C278 C280 1.419 . S
C278 H282 0.930 . S
C279 C278 1.369 . S
C279 C288 1.429 1_545 S
C280 C278 1.419 . S
C280 C281 1.363 1_545 S
C280 H283 0.929 . S
C281 C280 1.363 1_565 S
C281 C287 1.428 . S
H282 C278 0.930 . S
H283 C280 0.929 . S
S284 N285 1.613 . S
S284 N286 1.610 . S
N285 S284 1.613 . S
N285 C288 1.350 . S
N286 S284 1.610 . S
N286 C287 1.351 . S
C287 C281 1.428 . S
C287 N286 1.351 . S
C287 C288 1.434 . S
C288 C279 1.429 1_565 S
C288 N285 1.350 . S
C288 C287 1.434 . S
C289 C290 1.368 1_556 S
C289 C291 1.419 . S
C289 H293 0.930 . S
C290 C289 1.368 1_554 S
C290 C299 1.430 . S
C291 C289 1.419 . S
C291 C292 1.363 1_556 S
C291 H294 0.929 . S
C292 C291 1.363 1_554 S
C292 C298 1.429 . S
H293 C289 0.930 . S
H294 C291 0.929 . S
S295 N296 1.613 . S
S295 N297 1.610 . S
N296 S295 1.613 . S
N296 C299 1.350 . S
N297 S295 1.610 . S
N297 C298 1.351 . S
C298 C292 1.429 . S
C298 N297 1.351 . S
C298 C299 1.434 . S
C299 C290 1.430 . S
C299 N296 1.350 . S
C299 C298 1.434 . S
C300 C301 1.369 . S
C300 C302 1.419 . S
C300 H304 0.930 . S
C301 C300 1.369 . S
C301 C310 1.429 . S
C302 C300 1.419 . S
C302 C303 1.363 . S
C302 H305 0.929 . S
C303 C302 1.363 . S
C303 C309 1.428 . S
H304 C300 0.930 . S
H305 C302 0.929 . S
S306 N307 1.613 . S
S306 N308 1.610 . S
N307 S306 1.613 . S
N307 C310 1.350 . S
N308 S306 1.610 . S
N308 C309 1.351 . S
C309 C303 1.428 . S
C309 N308 1.351 . S
C309 C310 1.434 . S
C310 C301 1.429 . S
C310 N307 1.350 . S
C310 C309 1.434 . S
C311 C312 1.369 . S
C311 C313 1.419 . S
C311 H315 0.930 . S
C312 C311 1.369 . S
C312 C321 1.429 . S
C313 C311 1.419 . S
C313 C314 1.363 . S
C313 H316 0.929 . S
C314 C313 1.363 . S
C314 C320 1.428 . S
H315 C311 0.930 . S
H316 C313 0.929 . S
S317 N318 1.613 . S
S317 N319 1.610 . S
N318 S317 1.613 . S
N318 C321 1.350 . S
N319 S317 1.610 . S
N319 C320 1.351 . S
C320 C314 1.428 . S
C320 N319 1.351 . S
C320 C321 1.434 . S
C321 C312 1.429 . S
C321 N318 1.350 . S
C321 C320 1.434 . S
C322 C323 1.369 1_556 S
C322 C324 1.419 . S
C322 H326 0.930 . S
C323 C322 1.369 1_554 S
C323 C332 1.429 . S
C324 C322 1.419 . S
C324 C325 1.363 . S
C324 H327 0.929 . S
C325 C324 1.363 . S
C325 C331 1.428 1_556 S
H326 C322 0.930 . S
H327 C324 0.929 . S
S328 N329 1.613 . S
S328 N330 1.610 . S
N329 S328 1.613 . S
N329 C332 1.350 . S
N330 S328 1.610 . S
N330 C331 1.351 . S
C331 C325 1.428 1_554 S
C331 N330 1.351 . S
C331 C332 1.434 . S
C332 C323 1.429 . S
C332 N329 1.350 . S
C332 C331 1.434 . S
C333 C334 1.369 . S
C333 C335 1.419 . S
C333 H337 0.930 . S
C334 C333 1.369 . S
C334 C343 1.429 . S
C335 C333 1.419 . S
C335 C336 1.363 . S
C335 H338 0.929 . S
C336 C335 1.363 . S
C336 C342 1.428 . S
H337 C333 0.930 . S
H338 C335 0.929 . S
S339 N340 1.613 . S
S339 N341 1.610 . S
N340 S339 1.613 . S
N340 C343 1.350 . S
N341 S339 1.610 . S
N341 C342 1.351 . S
C342 C336 1.428 . S
C342 N341 1.351 . S
C342 C343 1.434 . S
C343 C334 1.429 . S
C343 N340 1.350 . S
C343 C342 1.434 . S
C344 C345 1.369 . S
C344 C346 1.419 . S
C344 H348 0.930 . S
C345 C344 1.369 . S
C345 C354 1.429 . S
C346 C344 1.419 . S
C346 C347 1.363 . S
C346 H349 0.929 . S
C347 C346 1.363 . S
C347 C353 1.428 . S
H348 C344 0.930 . S
H349 C346 0.929 . S
S350 N351 1.613 . S
S350 N352 1.610 . S
N351 S350 1.613 . S
N351 C354 1.350 . S
N352 S350 1.610 . S
N352 C353 1.351 . S
C353 C347 1.428 . S
C353 N352 1.351 . S
C353 C354 1.434 . S
C354 C345 1.429 . S
C354 N351 1.350 . S
C354 C353 1.434 . S
C355 C356 1.369 . S
C355 C357 1.419 . S
C355 H359 0.930 . S
C356 C355 1.369 . S
C356 C365 1.429 1_554 S
C357 C355 1.419 . S
C357 C358 1.363 1_554 S
C357 H360 0.929 . S
C358 C357 1.363 1_556 S
C358 C364 1.428 . S
H359 C355 0.930 . S
H360 C357 0.929 . S
S361 N362 1.613 . S
S361 N363 1.610 . S
N362 S361 1.613 . S
N362 C365 1.350 . S
N363 S361 1.610 . S
N363 C364 1.351 . S
C364 C358 1.428 . S
C364 N363 1.351 . S
C364 C365 1.434 . S
C365 C356 1.429 1_556 S
C365 N362 1.350 . S
C365 C364 1.434 . S
C366 C367 1.369 . S
C366 C368 1.419 . S
C366 H370 0.930 . S
C367 C366 1.369 . S
C367 C376 1.429 1_545 S
C368 C366 1.419 . S
C368 C369 1.363 1_545 S
C368 H371 0.929 . S
C369 C368 1.363 1_565 S
C369 C375 1.428 . S
H370 C366 0.930 . S
H371 C368 0.929 . S
S372 N373 1.613 . S
S372 N374 1.610 . S
N373 S372 1.613 . S
N373 C376 1.350 . S
N374 S372 1.610 . S
N374 C375 1.351 . S
C375 C369 1.428 . S
C375 N374 1.351 . S
C375 C376 1.434 . S
C376 C367 1.429 1_565 S
C376 N373 1.350 . S
C376 C375 1.434 . S
C377 C378 1.369 . S
C377 C379 1.419 . S
C377 H381 0.930 . S
C378 C377 1.369 . S
C378 C387 1.429 . S
C379 C377 1.419 . S
C379 C380 1.363 . S
C379 H382 0.929 . S
C380 C379 1.363 . S
C380 C386 1.428 . S
H381 C377 0.930 . S
H382 C379 0.929 . S
S383 N384 1.613 . S
S383 N385 1.610 . S
N384 S383 1.613 . S
N384 C387 1.350 . S
N385 S383 1.610 . S
N385 C386 1.351 . S
C386 C380 1.428 . S
C386 N385 1.351 . S
C386 C387 1.434 . S
C387 C378 1.429 . S
C387 N384 1.350 . S
C387 C386 1.434 . S
C388 C389 1.369 . S
C388 C390 1.419 . S
C388 H392 0.930 . S
C389 C388 1.369 . S
C389 C398 1.429 1_455 S
C390 C388 1.419 . S
C390 C391 1.363 1_455 S
C390 H393 0.929 . S
C391 C390 1.363 1_655 S
C391 C397 1.428 . S
H392 C388 0.930 . S
H393 C390 0.929 . S
S394 N395 1.613 . S
S394 N396 1.610 . S
N395 S394 1.613 . S
N395 C398 1.350 . S
N396 S394 1.610 . S
N396 C397 1.351 . S
C397 C391 1.428 . S
C397 N396 1.351 . S
C397 C398 1.434 . S
C398 C389 1.429 1_655 S
C398 N395 1.350 . S
C398 C397 1.434 . S
C399 C400 1.369 . S
C399 C401 1.419 . S
C399 H403 0.930 . S
C400 C399 1.369 . S
C400 C409 1.429 1_565 S
C401 C399 1.419 . S
C401 C402 1.363 1_565 S
C401 H404 0.929 . S
C402 C401 1.363 1_545 S
C402 C408 1.428 . S
H403 C399 0.930 . S
H404 C401 0.929 . S
S405 N406 1.613 . S
S405 N407 1.610 . S
N406 S405 1.613 . S
N406 C409 1.350 . S
N407 S405 1.610 . S
N407 C408 1.351 . S
C408 C402 1.428 . S
C408 N407 1.351 . S
C408 C409 1.434 . S
C409 C400 1.429 1_545 S
C409 N406 1.350 . S
C409 C408 1.434 . S
C410 C411 1.369 . S
C410 C412 1.419 . S
C410 H414 0.930 . S
C411 C410 1.369 . S
C411 C420 1.429 . S
C412 C410 1.419 . S
C412 C413 1.363 . S
C412 H415 0.929 . S
C413 C412 1.363 . S
C413 C419 1.428 . S
H414 C410 0.930 . S
H415 C412 0.929 . S
S416 N417 1.613 . S
S416 N418 1.610 . S
N417 S416 1.613 . S
N417 C420 1.350 . S
N418 S416 1.610 . S
N418 C419 1.351 . S
C419 C413 1.428 . S
C419 N418 1.351 . S
C419 C420 1.434 . S
C420 C411 1.429 . S
C420 N417 1.350 . S
C420 C419 1.434 . S
C421 C422 1.369 . S
C421 C423 1.419 . S
C421 H425 0.930 . S
C422 C421 1.369 . S
C422 C431 1.429 1_655 S
C423 C421 1.419 . S
C423 C424 1.363 1_655 S
C423 H426 0.929 . S
C424 C423 1.363 1_455 S
C424 C430 1.428 . S
H425 C421 0.930 . S
H426 C423 0.929 . S
S427 N428 1.613 . S
S427 N429 1.610 . S
N428 S427 1.613 . S
N428 C431 1.350 . S
N429 S427 1.610 . S
N429 C430 1.351 . S
C430 C424 1.428 . S
C430 N429 1.351 . S
C430 C431 1.434 . S
C431 C422 1.429 1_455 S
C431 N428 1.350 . S
C431 C430 1.434 . S
C169 C6 1.610 . S
C171 C118 1.614 . S
C180 C20 1.610 . S
C182 C132 1.614 . S
C191 C146 1.612 . S
C193 C34 1.614 . S
C202 C160 1.614 . S
C204 C48 1.611 . S
C213 C90 1.611 . S
C215 C62 1.615 . S
C224 C104 1.612 . S
C226 C76 1.614 . S
C235 C7 1.655 . S
C237 C49 1.646 . S
C246 C63 1.653 . S
C248 C21 1.649 . S
C257 C77 1.655 . S
C259 C35 1.647 . S
C268 C91 1.652 . S
C270 C133 1.650 . S
C279 C147 1.645 . S
C281 C105 1.654 . S
C290 C119 1.654 1_554 S
C292 C161 1.647 1_554 S
C301 C92 1.373 . S
C303 C8 1.374 . S
C312 C22 1.373 . S
C314 C106 1.372 . S
C323 C120 1.372 . S
C325 C36 1.372 . S
C334 C134 1.374 . S
C336 C50 1.374 . S
C345 C64 1.372 . S
C347 C148 1.374 . S
C356 C162 1.372 . S
C358 C78 1.373 . S
C367 C9 1.183 . S
C369 C107 1.184 . S
C378 C121 1.186 . S
C380 C23 1.180 . S
C389 C135 1.183 . S
C391 C37 1.184 . S
C400 C51 1.175 . S
C402 C149 1.180 . S
C411 C163 1.186 . S
C413 C65 1.182 . S
C422 C93 1.180 . S
C424 C79 1.185 . S
