# Generated by pormake.
# Topology uol, (4)-cn, num edge types: 1
# Building blocks:
#     Node 0, Type 0, BuildingBlock: GALJAG_clean_sbu_0, # of connection points: 4
#     Node 1, Type 0, BuildingBlock: GALJAG_clean_sbu_0, # of connection points: 4
#     Node 2, Type 0, BuildingBlock: GALJAG_clean_sbu_0, # of connection points: 4
#     Node 3, Type 0, BuildingBlock: GALJAG_clean_sbu_0, # of connection points: 4
#     Node 4, Type 0, BuildingBlock: GALJAG_clean_sbu_0, # of connection points: 4
#     Node 5, Type 0, BuildingBlock: GALJAG_clean_sbu_0, # of connection points: 4
#     Node 6, Type 0, BuildingBlock: GALJAG_clean_sbu_0, # of connection points: 4
#     Node 7, Type 0, BuildingBlock: GALJAG_clean_sbu_0, # of connection points: 4
#     Node 8, Type 0, BuildingBlock: GALJAG_clean_sbu_0, # of connection points: 4
#     Node 9, Type 0, BuildingBlock: GALJAG_clean_sbu_0, # of connection points: 4
#     Node 10, Type 0, BuildingBlock: GALJAG_clean_sbu_0, # of connection points: 4
#     Node 11, Type 0, BuildingBlock: GALJAG_clean_sbu_0, # of connection points: 4
#     Edge 12, Type (0, 0), BuildingBlock: XUDNAN_clean_linker_2, # of connection points: 2
#     Edge 13, Type (0, 0), BuildingBlock: XUDNAN_clean_linker_2, # of connection points: 2
#     Edge 14, Type (0, 0), BuildingBlock: XUDNAN_clean_linker_2, # of connection points: 2
#     Edge 15, Type (0, 0), BuildingBlock: XUDNAN_clean_linker_2, # of connection points: 2
#     Edge 16, Type (0, 0), BuildingBlock: XUDNAN_clean_linker_2, # of connection points: 2
#     Edge 17, Type (0, 0), BuildingBlock: XUDNAN_clean_linker_2, # of connection points: 2
#     Edge 18, Type (0, 0), BuildingBlock: XUDNAN_clean_linker_2, # of connection points: 2
#     Edge 19, Type (0, 0), BuildingBlock: XUDNAN_clean_linker_2, # of connection points: 2
#     Edge 20, Type (0, 0), BuildingBlock: XUDNAN_clean_linker_2, # of connection points: 2
#     Edge 21, Type (0, 0), BuildingBlock: XUDNAN_clean_linker_2, # of connection points: 2
#     Edge 22, Type (0, 0), BuildingBlock: XUDNAN_clean_linker_2, # of connection points: 2
#     Edge 23, Type (0, 0), BuildingBlock: XUDNAN_clean_linker_2, # of connection points: 2
#     Edge 24, Type (0, 0), BuildingBlock: XUDNAN_clean_linker_2, # of connection points: 2
#     Edge 25, Type (0, 0), BuildingBlock: XUDNAN_clean_linker_2, # of connection points: 2
#     Edge 26, Type (0, 0), BuildingBlock: XUDNAN_clean_linker_2, # of connection points: 2
#     Edge 27, Type (0, 0), BuildingBlock: XUDNAN_clean_linker_2, # of connection points: 2
#     Edge 28, Type (0, 0), BuildingBlock: XUDNAN_clean_linker_2, # of connection points: 2
#     Edge 29, Type (0, 0), BuildingBlock: XUDNAN_clean_linker_2, # of connection points: 2
#     Edge 30, Type (0, 0), BuildingBlock: XUDNAN_clean_linker_2, # of connection points: 2
#     Edge 31, Type (0, 0), BuildingBlock: XUDNAN_clean_linker_2, # of connection points: 2
#     Edge 32, Type (0, 0), BuildingBlock: XUDNAN_clean_linker_2, # of connection points: 2
#     Edge 33, Type (0, 0), BuildingBlock: XUDNAN_clean_linker_2, # of connection points: 2
#     Edge 34, Type (0, 0), BuildingBlock: XUDNAN_clean_linker_2, # of connection points: 2
#     Edge 35, Type (0, 0), BuildingBlock: XUDNAN_clean_linker_2, # of connection points: 2
# Relax obj value: 0.121
# Max RMSD: 0.117
# Mean RMSD: 0.117
data_MOF--net-uol--node1-GALJAG_clean_sbu_0--edge1-XUDNAN_clean_linker_2
_symmetry_space_group_name_H-M    P1
_symmetry_Int_Tables_number       1
_symmetry_cell_setting            triclinic
loop_
_symmetry_equiv_pos_as_xyz
'x, y, z'
_cell_length_a     34.505875
_cell_length_b     34.502341
_cell_length_c     59.84309
_cell_angle_alpha  89.998216
_cell_angle_beta   89.99803
_cell_angle_gamma 120.00317
loop_
_atom_site_label
_atom_site_type_symbol
_atom_site_fract_x
_atom_site_fract_y
_atom_site_fract_z
_atom_type_partial_charge
In0 In 0.17229 0.36864 0.08792 0.0
O1 O 0.10448 0.3048 0.0916 0.0
O2 O 0.12351 0.35548 0.11636 0.0
C3 C 0.19411 0.35131 0.04712 0.0
C4 C 0.16728 0.44386 0.08281 0.0
C5 C 0.22527 0.35451 0.11607 0.0
O6 O 0.15431 0.33318 0.054 0.0
O7 O 0.2227 0.37903 0.06052 0.0
O8 O 0.23301 0.39346 0.11136 0.0
O9 O 0.19118 0.32341 0.10668 0.0
C10 C 0.0942 0.31741 0.10935 0.0
O11 O 0.20069 0.44462 0.0919 0.0
O12 O 0.13799 0.40604 0.0757 0.0
In13 In 0.80373 0.16463 0.25462 0.0
O14 O 0.79051 0.09279 0.25684 0.0
O15 O 0.78679 0.12447 0.28668 0.0
C16 C 0.84342 0.18421 0.21395 0.0
C17 C 0.7228 0.15956 0.25171 0.0
C18 C 0.87146 0.2203 0.28156 0.0
O19 O 0.82227 0.1448 0.22141 0.0
O20 O 0.84263 0.21313 0.22647 0.0
O21 O 0.83656 0.22319 0.27928 0.0
O22 O 0.87201 0.18977 0.27022 0.0
C23 C 0.78367 0.08991 0.27769 0.0
O24 O 0.7584 0.19628 0.25471 0.0
O25 O 0.7284 0.12646 0.2494 0.0
In26 In 0.64034 0.80533 0.42719 0.0
O27 O 0.65451 0.74714 0.42718 0.0
O28 O 0.69986 0.80646 0.44437 0.0
C29 C 0.68234 0.8547 0.3905 0.0
C30 C 0.5527 0.74313 0.4234 0.0
C31 C 0.63914 0.86117 0.45845 0.0
O32 O 0.68362 0.87131 0.40936 0.0
O33 O 0.66054 0.81253 0.39001 0.0
O34 O 0.61861 0.85398 0.44011 0.0
O35 O 0.6582 0.83851 0.46141 0.0
C36 C 0.68922 0.76702 0.43908 0.0
O37 O 0.57601 0.7447 0.43999 0.0
O38 O 0.57336 0.77325 0.409 0.0
In39 In 0.83215 0.63314 0.58666 0.0
O40 O 0.80913 0.5691 0.60662 0.0
O41 O 0.84055 0.57445 0.57531 0.0
C42 C 0.77274 0.6505 0.60703 0.0
C43 C 0.91287 0.68255 0.6063 0.0
C44 C 0.81764 0.65138 0.54459 0.0
O45 O 0.76206 0.61167 0.60039 0.0
O46 O 0.81271 0.67993 0.60317 0.0
O47 O 0.84686 0.68073 0.55721 0.0
O48 O 0.79697 0.61263 0.55288 0.0
C49 C 0.82256 0.55122 0.59255 0.0
O50 O 0.90935 0.67346 0.58568 0.0
O51 O 0.87622 0.66646 0.61658 0.0
In52 In 0.19837 0.84391 0.7548 0.0
O53 O 0.20106 0.912 0.756 0.0
O54 O 0.25314 0.90614 0.77151 0.0
C55 C 0.15304 0.8295 0.71593 0.0
C56 C 0.25814 0.81589 0.74981 0.0
C57 C 0.14617 0.80121 0.79048 0.0
O58 O 0.13636 0.82866 0.73477 0.0
O59 O 0.19345 0.83918 0.71649 0.0
O60 O 0.18158 0.83852 0.79177 0.0
O61 O 0.13756 0.78418 0.77119 0.0
C62 C 0.23652 0.93062 0.76747 0.0
O63 O 0.21912 0.79042 0.75714 0.0
O64 O 0.26625 0.85461 0.74451 0.0
In65 In 0.36995 0.2015 0.92197 0.0
O66 O 0.36459 0.25203 0.9444 0.0
O67 O 0.30918 0.21142 0.92349 0.0
C68 C 0.34288 0.15964 0.88221 0.0
C69 C 0.45459 0.26912 0.91523 0.0
C70 C 0.35337 0.13411 0.95073 0.0
O71 O 0.33367 0.18913 0.88841 0.0
O72 O 0.36575 0.15168 0.89598 0.0
O73 O 0.39063 0.15688 0.94115 0.0
O74 O 0.32505 0.14568 0.94605 0.0
C75 C 0.32558 0.24152 0.93826 0.0
O76 O 0.43894 0.25525 0.93448 0.0
O77 O 0.42773 0.2491 0.89946 0.0
In78 In 0.617 0.814 0.73917 0.0
O79 O 0.54096 0.76751 0.74016 0.0
O80 O 0.56665 0.8363 0.74731 0.0
C81 C 0.63345 0.77063 0.70633 0.0
C82 C 0.6656 0.89683 0.72182 0.0
C83 C 0.64062 0.79229 0.77841 0.0
O84 O 0.59414 0.75974 0.71218 0.0
O85 O 0.66394 0.80324 0.7169 0.0
O86 O 0.64018 0.82836 0.77592 0.0
O87 O 0.62863 0.76753 0.76143 0.0
C88 C 0.5326 0.79814 0.74499 0.0
O89 O 0.67805 0.88449 0.73894 0.0
O90 O 0.62857 0.86761 0.71375 0.0
In91 In 0.8058 0.63639 0.90974 0.0
O92 O 0.77768 0.68446 0.90941 0.0
O93 O 0.77305 0.64859 0.87981 0.0
C94 C 0.84069 0.65009 0.9511 0.0
C95 C 0.74117 0.54939 0.90975 0.0
C96 C 0.88493 0.67407 0.88815 0.0
O97 O 0.81573 0.66525 0.945 0.0
O98 O 0.84578 0.62615 0.93676 0.0
O99 O 0.85507 0.63388 0.88484 0.0
O100 O 0.87439 0.69509 0.90178 0.0
C101 C 0.76518 0.67649 0.8893 0.0
O102 O 0.77413 0.56503 0.8966 0.0
O103 O 0.74132 0.57739 0.92338 0.0
In104 In 0.16735 0.80609 0.07848 0.0
O105 O 0.09759 0.7975 0.0748 0.0
O106 O 0.1194 0.76822 0.0501 0.0
C107 C 0.18947 0.84975 0.11808 0.0
C108 C 0.16509 0.72766 0.08583 0.0
C109 C 0.21886 0.87219 0.0496 0.0
O110 O 0.14954 0.82672 0.11153 0.0
O111 O 0.21805 0.84961 0.10503 0.0
O112 O 0.22793 0.84222 0.05507 0.0
O113 O 0.18401 0.86836 0.05851 0.0
C114 C 0.08851 0.7746 0.0571 0.0
O115 O 0.19656 0.75911 0.07504 0.0
O116 O 0.13651 0.73666 0.0935 0.0
In117 In 0.36872 0.17504 0.2466 0.0
O118 O 0.4438 0.19993 0.24146 0.0
O119 O 0.40735 0.1471 0.26446 0.0
C120 C 0.35588 0.22708 0.21722 0.0
C121 C 0.32096 0.09578 0.2256 0.0
C122 C 0.34511 0.19715 0.28568 0.0
O123 O 0.39381 0.23936 0.22576 0.0
O124 O 0.32532 0.18904 0.22339 0.0
O125 O 0.32801 0.15729 0.27897 0.0
O126 O 0.3748 0.22571 0.27298 0.0
C127 C 0.44413 0.17177 0.25483 0.0
O128 O 0.30658 0.10611 0.24271 0.0
O129 O 0.35929 0.12549 0.2191 0.0
In130 In 0.1976 0.37805 0.41106 0.0
O131 O 0.23638 0.44918 0.39779 0.0
O132 O 0.26062 0.43507 0.42748 0.0
C133 C 0.12906 0.35837 0.38273 0.0
C134 C 0.23402 0.33145 0.3933 0.0
C135 C 0.15617 0.35478 0.45133 0.0
O136 O 0.14831 0.39431 0.39374 0.0
O137 O 0.14455 0.33258 0.38586 0.0
O138 O 0.18695 0.34679 0.44616 0.0
O139 O 0.14753 0.3753 0.43656 0.0
C140 C 0.26562 0.46374 0.41295 0.0
O141 O 0.24524 0.37074 0.38729 0.0
O142 O 0.20491 0.31583 0.40859 0.0
In143 In 0.8319 0.19556 0.57981 0.0
O144 O 0.81291 0.24808 0.57032 0.0
O145 O 0.83622 0.2497 0.60334 0.0
C146 C 0.77869 0.12828 0.55185 0.0
C147 C 0.91412 0.23256 0.56085 0.0
C148 C 0.80802 0.14848 0.61815 0.0
O149 O 0.77082 0.15923 0.55682 0.0
O150 O 0.81368 0.13198 0.56052 0.0
O151 O 0.84858 0.17457 0.61308 0.0
O152 O 0.78 0.1473 0.60421 0.0
C153 C 0.82236 0.26696 0.58916 0.0
O154 O 0.8836 0.23941 0.55395 0.0
O155 O 0.90356 0.20713 0.57764 0.0
H156 H 0.2286 0.70129 0.08304 0.0
H157 H 0.08626 0.65099 0.09107 0.0
H158 H 0.07215 0.57365 0.09041 0.0
H159 H 0.22093 0.61537 0.04667 0.0
H160 H 0.2661 0.61139 0.05947 0.0
H161 H 0.2658 0.66343 0.06036 0.0
H162 H 0.27158 0.66453 0.10354 0.0
H163 H 0.27224 0.61265 0.10277 0.0
H164 H 0.23097 0.617 0.11936 0.0
H165 H 0.07219 0.50252 0.08613 0.0
H166 H 0.0872 0.43996 0.08379 0.0
H167 H 0.23001 0.53416 0.08218 0.0
C168 C 0.19459 0.67389 0.08479 0.0
C169 C 0.15846 0.68201 0.08705 0.0
C170 C 0.11441 0.64548 0.08945 0.0
C171 C 0.10601 0.60143 0.08897 0.0
C172 C 0.14212 0.59442 0.08651 0.0
C173 C 0.18564 0.62945 0.08492 0.0
C174 C 0.21827 0.6121 0.08327 0.0
C175 C 0.2443 0.62643 0.06112 0.0
C176 C 0.25014 0.62748 0.10344 0.0
C177 C 0.1861 0.56195 0.08387 0.0
C178 C 0.14233 0.55274 0.08541 0.0
C179 C 0.10631 0.5092 0.08521 0.0
C180 C 0.11518 0.47393 0.08373 0.0
C181 C 0.15971 0.48231 0.0829 0.0
C182 C 0.19568 0.52692 0.08299 0.0
H183 H 0.69717 0.22218 0.24286 0.0
H184 H 0.64676 0.08482 0.26396 0.0
H185 H 0.57138 0.07492 0.26851 0.0
H186 H 0.62857 0.24722 0.27883 0.0
H187 H 0.61837 0.27904 0.25813 0.0
H188 H 0.66927 0.27654 0.2572 0.0
H189 H 0.65171 0.24721 0.2165 0.0
H190 H 0.60093 0.24992 0.21726 0.0
H191 H 0.59881 0.19808 0.21026 0.0
H192 H 0.50287 0.08023 0.27242 0.0
H193 H 0.44154 0.09708 0.2708 0.0
H194 H 0.53298 0.22897 0.24412 0.0
C195 C 0.67015 0.19011 0.24842 0.0
C196 C 0.67771 0.15428 0.25317 0.0
C197 C 0.64159 0.11261 0.26017 0.0
C198 C 0.59873 0.10673 0.26293 0.0
C199 C 0.59231 0.14263 0.25826 0.0
C200 C 0.62666 0.18327 0.25077 0.0
C201 C 0.60969 0.21541 0.24585 0.0
C202 C 0.63286 0.25702 0.2609 0.0
C203 C 0.61563 0.22841 0.22099 0.0
C204 C 0.56059 0.18645 0.25189 0.0
C205 C 0.55168 0.14489 0.25935 0.0
C206 C 0.50927 0.11252 0.26646 0.0
C207 C 0.47471 0.12252 0.26557 0.0
C208 C 0.48249 0.16426 0.25729 0.0
C209 C 0.5261 0.19674 0.25045 0.0
H210 H 0.50591 0.66561 0.44754 0.0
H211 H 0.49382 0.73986 0.39204 0.0
H212 H 0.41692 0.67821 0.38508 0.0
H213 H 0.45005 0.55995 0.42154 0.0
H214 H 0.42248 0.52919 0.44648 0.0
H215 H 0.47494 0.5808 0.44856 0.0
H216 H 0.43884 0.61275 0.47537 0.0
H217 H 0.38623 0.56112 0.47344 0.0
H218 H 0.38912 0.61345 0.46678 0.0
H219 H 0.34377 0.60713 0.38254 0.0
H220 H 0.27888 0.53064 0.38433 0.0
H221 H 0.3382 0.50156 0.44123 0.0
C222 C 0.48675 0.66918 0.43418 0.0
C223 C 0.50564 0.70759 0.4204 0.0
C224 C 0.47989 0.71076 0.40284 0.0
C225 C 0.43618 0.67598 0.39879 0.0
C226 C 0.41875 0.63826 0.41245 0.0
C227 C 0.44312 0.6346 0.42982 0.0
C228 C 0.41741 0.58934 0.44114 0.0
C229 C 0.44273 0.5633 0.43931 0.0
C230 C 0.4073 0.59449 0.46564 0.0
C231 C 0.37511 0.5679 0.42719 0.0
C232 C 0.37649 0.59689 0.41085 0.0
C233 C 0.3421 0.58425 0.39538 0.0
C234 C 0.30543 0.54071 0.39651 0.0
C235 C 0.30345 0.51024 0.41296 0.0
C236 C 0.33863 0.52425 0.4286 0.0
H237 H 0.82831 0.49601 0.56146 0.0
H238 H 0.80811 0.50721 0.6322 0.0
H239 H 0.80444 0.43479 0.63901 0.0
H240 H 0.75192 0.37589 0.55793 0.0
H241 H 0.78602 0.36721 0.538 0.0
H242 H 0.78695 0.41987 0.53872 0.0
H243 H 0.87305 0.46167 0.54389 0.0
H244 H 0.87238 0.40916 0.54322 0.0
H245 H 0.89687 0.44635 0.56669 0.0
H246 H 0.80806 0.36384 0.63842 0.0
H247 H 0.8126 0.29599 0.63002 0.0
H248 H 0.82497 0.32829 0.55939 0.0
C249 C 0.82299 0.48309 0.57836 0.0
C250 C 0.81869 0.50717 0.59634 0.0
C251 C 0.8114 0.48916 0.6182 0.0
C252 C 0.80937 0.44815 0.62223 0.0
C253 C 0.81398 0.42531 0.60417 0.0
C254 C 0.82006 0.44182 0.58262 0.0
C255 C 0.82345 0.41034 0.56613 0.0
C256 C 0.78477 0.39226 0.5492 0.0
C257 C 0.86916 0.43326 0.55429 0.0
C258 C 0.81898 0.37388 0.58182 0.0
C259 C 0.81389 0.38333 0.60371 0.0
C260 C 0.81142 0.35575 0.62132 0.0
C261 C 0.81415 0.31743 0.61641 0.0
C262 C 0.81862 0.30682 0.59407 0.0
C263 C 0.82078 0.3353 0.57659 0.0
H264 H 0.50753 0.86143 0.74467 0.0
H265 H 0.45427 0.71804 0.74851 0.0
H266 H 0.37731 0.70618 0.75015 0.0
H267 H 0.42841 0.86747 0.78149 0.0
H268 H 0.42543 0.90979 0.76515 0.0
H269 H 0.47587 0.90647 0.7651 0.0
H270 H 0.4722 0.89999 0.72189 0.0
H271 H 0.42163 0.90307 0.72182 0.0
H272 H 0.42238 0.85636 0.70877 0.0
H273 H 0.30604 0.7108 0.75203 0.0
H274 H 0.24671 0.73138 0.75255 0.0
H275 H 0.34784 0.87127 0.7453 0.0
C276 C 0.47971 0.82754 0.74604 0.0
C277 C 0.48671 0.79063 0.74666 0.0
C278 C 0.44948 0.74675 0.7481 0.0
C279 C 0.40575 0.73973 0.74904 0.0
C280 C 0.39999 0.77693 0.74826 0.0
C281 C 0.43601 0.81995 0.74666 0.0
C282 C 0.42102 0.85423 0.74542 0.0
C283 C 0.43873 0.88637 0.76549 0.0
C284 C 0.43514 0.87991 0.72315 0.0
C285 C 0.37089 0.82389 0.74666 0.0
C286 C 0.35928 0.77943 0.74845 0.0
C287 C 0.31476 0.74549 0.75048 0.0
C288 C 0.28134 0.75743 0.75076 0.0
C289 C 0.29275 0.8028 0.74875 0.0
C290 C 0.33808 0.83624 0.74657 0.0
H291 H 0.50614 0.33867 0.94332 0.0
H292 H 0.50571 0.28347 0.87816 0.0
H293 H 0.58201 0.3465 0.87103 0.0
H294 H 0.55906 0.45156 0.9251 0.0
H295 H 0.59079 0.47447 0.95039 0.0
H296 H 0.53823 0.42276 0.95132 0.0
H297 H 0.57736 0.3834 0.96975 0.0
H298 H 0.63012 0.43503 0.96883 0.0
H299 H 0.62487 0.38524 0.95614 0.0
H300 H 0.65741 0.4159 0.87072 0.0
H301 H 0.72389 0.49081 0.87555 0.0
H302 H 0.67321 0.5037 0.93984 0.0
C303 C 0.52249 0.33961 0.92772 0.0
C304 C 0.5005 0.30611 0.91137 0.0
C305 C 0.52225 0.30884 0.8909 0.0
C306 C 0.56558 0.34433 0.88676 0.0
C307 C 0.58634 0.37706 0.90316 0.0
C308 C 0.56536 0.37534 0.92313 0.0
C309 C 0.59355 0.41668 0.93713 0.0
C310 C 0.56894 0.44291 0.94121 0.0
C311 C 0.60729 0.40433 0.95927 0.0
C312 C 0.63347 0.44206 0.92185 0.0
C313 C 0.62896 0.41822 0.90252 0.0
C314 C 0.66136 0.43487 0.88579 0.0
C315 C 0.69903 0.47738 0.88871 0.0
C316 C 0.70361 0.50298 0.90804 0.0
C317 C 0.67057 0.48481 0.92489 0.0
H318 H 0.28233 0.19974 0.19112 0.0
H319 H 0.40861 0.31705 0.20845 0.0
H320 H 0.38982 0.36349 0.18404 0.0
H321 H 0.28148 0.22941 0.13307 0.0
H322 H 0.22169 0.20638 0.13269 0.0
H323 H 0.24614 0.1831 0.15106 0.0
H324 H 0.20718 0.19621 0.18491 0.0
H325 H 0.18285 0.21979 0.16668 0.0
H326 H 0.21629 0.25161 0.19018 0.0
H327 H 0.35414 0.39735 0.15895 0.0
H328 H 0.30738 0.41441 0.13385 0.0
H329 H 0.20648 0.27359 0.1327 0.0
C330 C 0.30621 0.23518 0.1897 0.0
C331 C 0.34685 0.25492 0.20169 0.0
C332 C 0.37732 0.30131 0.19932 0.0
C333 C 0.36686 0.3279 0.18556 0.0
C334 C 0.32608 0.30736 0.17417 0.0
C335 C 0.29654 0.26191 0.17595 0.0
C336 C 0.25497 0.24762 0.16206 0.0
C337 C 0.25085 0.21469 0.14363 0.0
C338 C 0.21285 0.22765 0.17685 0.0
C339 C 0.26527 0.2922 0.15237 0.0
C340 C 0.30633 0.3264 0.15953 0.0
C341 C 0.32213 0.37072 0.15312 0.0
C342 C 0.29534 0.38013 0.13894 0.0
C343 C 0.25347 0.34531 0.13127 0.0
C344 C 0.23849 0.30091 0.13815 0.0
H345 H 0.9414 0.20954 0.294 0.0
H346 H 0.88438 0.29541 0.30382 0.0
H347 H 0.94601 0.3423 0.32994 0.0
H348 H 0.97381 0.21073 0.35048 0.0
H349 H 0.02442 0.21036 0.34345 0.0
H350 H 0.97724 0.18535 0.32477 0.0
H351 H 0.02714 0.23588 0.29254 0.0
H352 H 0.07451 0.26107 0.31113 0.0
H353 H 0.05783 0.29576 0.29622 0.0
H354 H 0.01402 0.37925 0.35526 0.0
H355 H 0.08059 0.40114 0.37899 0.0
H356 H 0.09058 0.28896 0.35316 0.0
C357 C 0.94203 0.23843 0.30149 0.0
C358 C 0.90836 0.2491 0.29682 0.0
C359 C 0.91 0.28679 0.30717 0.0
C360 C 0.94487 0.31361 0.32196 0.0
C361 C 0.97752 0.30201 0.32626 0.0
C362 C 0.97621 0.26517 0.31638 0.0
C363 C 0.0142 0.25873 0.32438 0.0
C364 C 0.99633 0.21363 0.33649 0.0
C365 C 0.04526 0.26314 0.3049 0.0
C366 C 0.03709 0.29761 0.34041 0.0
C367 C 0.01575 0.32246 0.34114 0.0
C368 C 0.03098 0.36002 0.35481 0.0
C369 C 0.0688 0.37223 0.36818 0.0
C370 C 0.09058 0.34667 0.36791 0.0
C371 C 0.07452 0.30906 0.35375 0.0
H372 H 0.78024 0.05068 0.54668 0.0
H373 H 0.70938 0.11859 0.52543 0.0
H374 H 0.66017 0.05368 0.50152 0.0
H375 H 0.78056 0.00279 0.49508 0.0
H376 H 0.77222 0.95103 0.5068 0.0
H377 H 0.79945 0.00162 0.52304 0.0
H378 H 0.74095 0.96294 0.55459 0.0
H379 H 0.71331 0.91224 0.53833 0.0
H380 H 0.6822 0.93801 0.54825 0.0
H381 H 0.6229 0.98343 0.47771 0.0
H382 H 0.60137 0.9146 0.45592 0.0
H383 H 0.69503 0.89229 0.49436 0.0
C384 C 0.75422 0.05184 0.53708 0.0
C385 C 0.74866 0.08965 0.53778 0.0
C386 C 0.71413 0.08985 0.52509 0.0
C387 C 0.68599 0.05312 0.51155 0.0
C388 C 0.69248 0.01633 0.51121 0.0
C389 C 0.72562 0.01539 0.52377 0.0
C390 C 0.72679 0.97266 0.52 0.0
C391 C 0.77245 0.98264 0.51067 0.0
C392 C 0.71511 0.94482 0.54158 0.0
C393 C 0.6901 0.95021 0.50277 0.0
C394 C 0.67037 0.97564 0.49803 0.0
C395 C 0.63765 0.96293 0.48154 0.0
C396 C 0.62557 0.92378 0.46929 0.0
C397 C 0.64622 0.89793 0.47361 0.0
C398 C 0.67809 0.91092 0.49093 0.0
H399 H 0.79453 0.72779 0.62881 0.0
H400 H 0.68212 0.59666 0.61338 0.0
H401 H 0.6322 0.61465 0.63538 0.0
H402 H 0.76471 0.73049 0.6848 0.0
H403 H 0.784 0.78964 0.6848 0.0
H404 H 0.80941 0.76747 0.66641 0.0
H405 H 0.79158 0.80249 0.63239 0.0
H406 H 0.76607 0.82479 0.6507 0.0
H407 H 0.73477 0.78954 0.62757 0.0
H408 H 0.59542 0.64714 0.66027 0.0
H409 H 0.57603 0.68935 0.68724 0.0
H410 H 0.71405 0.79732 0.68679 0.0
C411 C 0.75929 0.703 0.62979 0.0
C412 C 0.74201 0.66097 0.61929 0.0
C413 C 0.6959 0.62916 0.62127 0.0
C414 C 0.66736 0.63914 0.63366 0.0
C415 C 0.68565 0.68093 0.64397 0.0
C416 C 0.73064 0.71221 0.64219 0.0
C417 C 0.74282 0.75363 0.65582 0.0
C418 C 0.77725 0.76069 0.67404 0.0
C419 C 0.7598 0.79505 0.64071 0.0
C420 C 0.69776 0.74071 0.66579 0.0
C421 C 0.66499 0.69893 0.6586 0.0
C422 C 0.62081 0.67993 0.66594 0.0
C423 C 0.6101 0.70411 0.6812 0.0
C424 C 0.64359 0.74646 0.68909 0.0
C425 C 0.68776 0.76497 0.68107 0.0
H426 H 0.90849 0.65191 0.84834 0.0
H427 H 0.96157 0.74346 0.90445 0.0
H428 H 0.03653 0.78016 0.88716 0.0
H429 H 0.00869 0.6428 0.837 0.0
H430 H 0.00224 0.64288 0.80711 0.0
H431 H 0.95367 0.62019 0.82496 0.0
H432 H 0.93013 0.67389 0.80729 0.0
H433 H 0.97842 0.69652 0.78934 0.0
H434 H 0.9692 0.73326 0.80717 0.0
H435 H 0.1041 0.80943 0.86333 0.0
H436 H 0.15926 0.83419 0.83279 0.0
H437 H 0.06253 0.72613 0.791 0.0
C438 C 0.93614 0.67923 0.85708 0.0
C439 C 0.92954 0.69478 0.87776 0.0
C440 C 0.96609 0.73117 0.88856 0.0
C441 C 0.00879 0.75198 0.87897 0.0
C442 C 0.01425 0.7362 0.85848 0.0
C443 C 0.97895 0.70096 0.84751 0.0
C444 C 0.99319 0.6934 0.82471 0.0
C445 C 0.98921 0.64706 0.82338 0.0
C446 C 0.96613 0.69966 0.80603 0.0
C447 C 0.04173 0.73043 0.82445 0.0
C448 C 0.05329 0.75412 0.84428 0.0
C449 C 0.09562 0.79098 0.84778 0.0
C450 C 0.12672 0.80476 0.83033 0.0
C451 C 0.11519 0.782 0.80957 0.0
C452 C 0.07241 0.74382 0.80678 0.0
H453 H 0.20029 0.93479 0.03323 0.0
H454 H 0.3005 0.89395 0.0315 0.0
H455 H 0.34743 0.95795 0.00657 0.0
H456 H 0.21058 0.96842 0.97595 0.0
H457 H 0.20203 0.01487 0.98174 0.0
H458 H 0.17728 0.9664 0.99961 0.0
H459 H 0.21616 0.01693 0.03395 0.0
H460 H 0.24121 0.06555 0.01617 0.0
H461 H 0.27604 0.05326 0.03381 0.0
H462 H 0.38355 0.02761 0.98197 0.0
H463 H 0.40385 0.09427 0.9585 0.0
H464 H 0.2786 0.08723 0.97626 0.0
C465 C 0.23212 0.93924 0.02763 0.0
C466 C 0.24687 0.90951 0.03431 0.0
C467 C 0.28861 0.91638 0.02654 0.0
C468 C 0.31549 0.95267 0.01245 0.0
C469 C 0.29998 0.98152 0.00627 0.0
C470 C 0.25911 0.97497 0.01354 0.0
C471 C 0.24952 0.0101 0.00428 0.0
C472 C 0.20737 0.98866 0.98952 0.0
C473 C 0.24551 0.03812 0.02318 0.0
C474 C 0.29131 0.0375 0.99055 0.0
C475 C 0.32023 0.02079 0.99199 0.0
C476 C 0.3611 0.0409 0.98072 0.0
C477 C 0.37239 0.07876 0.96748 0.0
C478 C 0.34277 0.09581 0.96556 0.0
C479 C 0.3019 0.07492 0.97737 0.0
H480 H 0.27774 0.371 0.03397 0.0
H481 H 0.13857 0.29986 0.01341 0.0
H482 H 0.15884 0.27062 0.98038 0.0
H483 H 0.32817 0.39741 0.97719 0.0
H484 H 0.373 0.38799 0.98553 0.0
H485 H 0.34851 0.40853 0.00554 0.0
H486 H 0.33168 0.34228 0.03189 0.0
H487 H 0.35588 0.32149 0.01197 0.0
H488 H 0.29935 0.28578 0.02157 0.0
H489 H 0.19317 0.24319 0.95182 0.0
H490 H 0.23829 0.21813 0.9307 0.0
H491 H 0.35455 0.30594 0.97062 0.0
C492 C 0.25171 0.35025 0.02219 0.0
C493 C 0.20666 0.33802 0.02608 0.0
C494 C 0.17336 0.30987 0.01062 0.0
C495 C 0.18457 0.29322 0.9918 0.0
C496 C 0.22922 0.30508 0.98872 0.0
C497 C 0.26228 0.33305 0.00348 0.0
C498 C 0.30694 0.33731 0.99762 0.0
C499 C 0.34117 0.38569 0.99108 0.0
C500 C 0.32446 0.32071 0.0169 0.0
C501 C 0.29362 0.30636 0.97765 0.0
C502 C 0.24883 0.28863 0.97254 0.0
C503 C 0.2284 0.25731 0.95548 0.0
C504 C 0.25427 0.24326 0.94359 0.0
C505 C 0.29991 0.26021 0.94898 0.0
C506 C 0.31984 0.2927 0.96598 0.0
H507 H 0.91045 0.26719 0.20237 0.0
H508 H 0.84214 0.12858 0.18088 0.0
H509 H 0.89629 0.14851 0.1498 0.0
H510 H 0.94351 0.31946 0.14674 0.0
H511 H 0.99706 0.36295 0.15672 0.0
H512 H 0.94952 0.33857 0.17525 0.0
H513 H 0.99433 0.31896 0.20333 0.0
H514 H 0.04179 0.34284 0.18483 0.0
H515 H 0.01829 0.28573 0.1941 0.0
H516 H 0.96123 0.18323 0.12258 0.0
H517 H 0.03219 0.22926 0.10209 0.0
H518 H 0.05931 0.34388 0.14304 0.0
C519 C 0.90614 0.24122 0.19077 0.0
C520 C 0.87179 0.19645 0.19378 0.0
C521 C 0.86801 0.16317 0.17868 0.0
C522 C 0.89859 0.17419 0.16101 0.0
C523 C 0.93281 0.21855 0.15884 0.0
C524 C 0.93668 0.25152 0.17333 0.0
C525 C 0.97843 0.29583 0.16862 0.0
C526 C 0.9664 0.33129 0.1614 0.0
C527 C 0.01007 0.31174 0.18893 0.0
C528 C 0.99788 0.2826 0.14942 0.0
C529 C 0.97086 0.23806 0.1438 0.0
C530 C 0.9825 0.21818 0.12677 0.0
C531 C 0.02284 0.24453 0.11526 0.0
C532 C 0.05122 0.29002 0.12105 0.0
C533 C 0.03834 0.30915 0.13829 0.0
H534 H 0.78029 0.08176 0.32295 0.0
H535 H 0.76072 0.00638 0.2619 0.0
H536 H 0.73747 0.9377 0.28425 0.0
H537 H 0.8235 0.02295 0.35654 0.0
H538 H 0.79579 0.02581 0.38149 0.0
H539 H 0.81358 0.06904 0.36061 0.0
H540 H 0.73264 0.05529 0.35792 0.0
H541 H 0.71464 0.01211 0.37875 0.0
H542 H 0.68727 0.99976 0.35192 0.0
H543 H 0.71053 0.8761 0.31366 0.0
H544 H 0.68368 0.82786 0.34735 0.0
H545 H 0.72358 0.94541 0.38848 0.0
C546 C 0.77154 0.05091 0.31426 0.0
C547 C 0.77218 0.04924 0.29073 0.0
C548 C 0.76053 0.00829 0.27996 0.0
C549 C 0.74734 0.9692 0.29251 0.0
C550 C 0.74659 0.97192 0.31575 0.0
C551 C 0.75875 0.0119 0.32648 0.0
C552 C 0.75376 0.00597 0.35152 0.0
C553 C 0.79938 0.03251 0.36322 0.0
C554 C 0.72007 0.01904 0.36054 0.0
C555 C 0.73571 0.95616 0.35325 0.0
C556 C 0.732 0.93698 0.33251 0.0
C557 C 0.71385 0.89088 0.33 0.0
C558 C 0.6987 0.86376 0.34919 0.0
C559 C 0.70183 0.88295 0.3705 0.0
C560 C 0.72118 0.92977 0.37246 0.0
H561 H 0.83592 0.73371 0.53002 0.0
H562 H 0.76735 0.59346 0.51148 0.0
H563 H 0.73542 0.61042 0.47845 0.0
H564 H 0.74795 0.74996 0.51914 0.0
H565 H 0.78044 0.80631 0.50867 0.0
H566 H 0.8051 0.78507 0.52804 0.0
H567 H 0.86946 0.80355 0.5001 0.0
H568 H 0.84508 0.82519 0.48063 0.0
H569 H 0.8564 0.78175 0.47204 0.0
H570 H 0.70266 0.64059 0.45079 0.0
H571 H 0.67058 0.68121 0.43125 0.0
H572 H 0.75927 0.80148 0.46837 0.0
C573 C 0.81551 0.70687 0.51855 0.0
C574 C 0.80455 0.66239 0.52308 0.0
C575 C 0.77647 0.62784 0.50815 0.0
C576 C 0.7583 0.63719 0.48932 0.0
C577 C 0.76856 0.68124 0.48571 0.0
C578 C 0.79668 0.71558 0.49987 0.0
C579 C 0.79799 0.75888 0.49393 0.0
C580 C 0.7819 0.77602 0.51361 0.0
C581 C 0.84504 0.79444 0.48621 0.0
C582 C 0.76503 0.74321 0.47473 0.0
C583 C 0.749 0.69853 0.46997 0.0
C584 C 0.71558 0.67579 0.45408 0.0
C585 C 0.69751 0.69909 0.44309 0.0
C586 C 0.71266 0.74452 0.44819 0.0
C587 C 0.74751 0.76695 0.46386 0.0
H588 H 0.06398 0.80005 0.71239 0.0
H589 H 0.18038 0.8267 0.6731 0.0
H590 H 0.13234 0.79616 0.63954 0.0
H591 H 0.9911 0.69657 0.6886 0.0
H592 H 0.9427 0.70351 0.68945 0.0
H593 H 0.98694 0.73198 0.70949 0.0
H594 H 0.99541 0.80813 0.69765 0.0
H595 H 0.95088 0.77984 0.67766 0.0
H596 H 0.00468 0.82449 0.66866 0.0
H597 H 0.06948 0.75726 0.61082 0.0
H598 H 0.99818 0.71398 0.58998 0.0
H599 H 0.92463 0.71241 0.64909 0.0
C600 C 0.0796 0.80034 0.69665 0.0
C601 C 0.12592 0.816 0.69528 0.0
C602 C 0.14494 0.81512 0.67444 0.0
C603 C 0.11793 0.79783 0.65532 0.0
C604 C 0.07208 0.7817 0.65738 0.0
C605 C 0.05321 0.78307 0.67755 0.0
C606 C 0.00292 0.76127 0.67587 0.0
C607 C 0.97957 0.72095 0.69179 0.0
C608 C 0.98758 0.79548 0.68021 0.0
C609 C 0.99618 0.74661 0.65172 0.0
C610 C 0.03633 0.75897 0.64118 0.0
C611 C 0.0379 0.74774 0.6189 0.0
C612 C 0.99733 0.72315 0.60721 0.0
C613 C 0.95597 0.70982 0.61794 0.0
C614 C 0.95571 0.72209 0.64041 0.0
H615 H 0.3662 0.10165 0.86432 0.0
H616 H 0.28359 0.16155 0.85223 0.0
H617 H 0.25322 0.1153 0.81812 0.0
H618 H 0.38992 0.09085 0.80505 0.0
H619 H 0.38737 0.0381 0.81005 0.0
H620 H 0.40598 0.0796 0.83188 0.0
H621 H 0.3451 0.0217 0.85841 0.0
H622 H 0.32645 0.98014 0.83674 0.0
H623 H 0.28735 0.99345 0.84968 0.0
H624 H 0.22567 0.05567 0.7878 0.0
H625 H 0.20375 0.98858 0.76439 0.0
H626 H 0.30665 0.9706 0.79618 0.0
C627 C 0.3423 0.10566 0.85429 0.0
C628 C 0.32724 0.13515 0.86086 0.0
C629 C 0.2957 0.13922 0.8474 0.0
C630 C 0.27837 0.11319 0.828 0.0
C631 C 0.29344 0.08379 0.82218 0.0
C632 C 0.32501 0.08027 0.83489 0.0
C633 C 0.33363 0.04424 0.82605 0.0
C634 C 0.38211 0.06442 0.81776 0.0
C635 C 0.32244 0.00774 0.84377 0.0
C636 C 0.30088 0.02687 0.80682 0.0
C637 C 0.27825 0.05029 0.80463 0.0
C638 C 0.24379 0.03767 0.7891 0.0
C639 C 0.23159 0.99959 0.77586 0.0
C640 C 0.25376 0.97467 0.77834 0.0
C641 C 0.28953 0.98936 0.79362 0.0
H642 H 0.65271 0.72103 0.78438 0.0
H643 H 0.66434 0.83724 0.81857 0.0
H644 H 0.69385 0.81817 0.85206 0.0
H645 H 0.6204 0.64689 0.83246 0.0
H646 H 0.6527 0.62183 0.82339 0.0
H647 H 0.62954 0.64314 0.80307 0.0
H648 H 0.70861 0.69347 0.78633 0.0
H649 H 0.73201 0.67242 0.80659 0.0
H650 H 0.75345 0.73181 0.80428 0.0
H651 H 0.72502 0.78692 0.88137 0.0
H652 H 0.75699 0.74817 0.90301 0.0
H653 H 0.72592 0.65454 0.84838 0.0
C654 C 0.66088 0.74222 0.79899 0.0
C655 C 0.65601 0.78045 0.79898 0.0
C656 C 0.66767 0.80765 0.81832 0.0
C657 C 0.68437 0.79703 0.83739 0.0
C658 C 0.68919 0.75921 0.83673 0.0
C659 C 0.67777 0.73233 0.81797 0.0
C660 C 0.68812 0.69494 0.82087 0.0
C661 C 0.64513 0.64899 0.8199 0.0
C662 C 0.7226 0.6984 0.80349 0.0
C663 C 0.70771 0.70516 0.84412 0.0
C664 C 0.70772 0.74202 0.85318 0.0
C665 C 0.72499 0.75793 0.87444 0.0
C666 C 0.74301 0.73575 0.88661 0.0
C667 C 0.74395 0.69847 0.87733 0.0
C668 C 0.72572 0.68298 0.85591 0.0
H669 H 0.91166 0.63983 0.96175 0.0
H670 H 0.83171 0.69559 0.98649 0.0
H671 H 0.88391 0.72939 0.01833 0.0
H672 H 0.94711 0.61823 0.01642 0.0
H673 H 0.00237 0.6347 0.0062 0.0
H674 H 0.95523 0.60988 0.98743 0.0
H675 H 0.99573 0.67854 0.96119 0.0
H676 H 0.04269 0.70382 0.97996 0.0
H677 H 0.01443 0.7338 0.97214 0.0
H678 H 0.94875 0.76235 0.04562 0.0
H679 H 0.02053 0.79169 0.06594 0.0
H680 H 0.05871 0.71648 0.02194 0.0
C681 C 0.90435 0.65803 0.97421 0.0
C682 C 0.86735 0.66464 0.97185 0.0
C683 C 0.85964 0.68976 0.98815 0.0
C684 C 0.88911 0.70908 0.00625 0.0
C685 C 0.92609 0.70302 0.0077 0.0
C686 C 0.93363 0.67793 0.99213 0.0
C687 C 0.97768 0.67957 0.99626 0.0
C688 C 0.97013 0.63281 0.00192 0.0
C689 C 0.00949 0.70016 0.9762 0.0
C690 C 0.99423 0.71016 0.01636 0.0
C691 C 0.96385 0.72296 0.02291 0.0
C692 C 0.97258 0.75223 0.04074 0.0
C693 C 0.01343 0.76879 0.05214 0.0
C694 C 0.04512 0.75639 0.04547 0.0
C695 C 0.03513 0.72656 0.02742 0.0
H696 H 0.27228 0.91845 0.12911 0.0
H697 H 0.13468 0.84596 0.15209 0.0
H698 H 0.15466 0.89817 0.184 0.0
H699 H 0.32631 0.9487 0.18439 0.0
H700 H 0.36874 0.00335 0.17507 0.0
H701 H 0.3446 0.95721 0.15568 0.0
H702 H 0.32276 0.00294 0.12941 0.0
H703 H 0.34654 0.04905 0.14874 0.0
H704 H 0.28903 0.02523 0.14011 0.0
H705 H 0.18881 0.96129 0.21195 0.0
H706 H 0.23394 0.0313 0.23322 0.0
H707 H 0.34833 0.0637 0.1909 0.0
C708 C 0.24658 0.91294 0.14114 0.0
C709 C 0.20204 0.87793 0.13832 0.0
C710 C 0.16907 0.87244 0.15408 0.0
C711 C 0.18013 0.90187 0.17224 0.0
C712 C 0.22422 0.93665 0.1743 0.0
C713 C 0.25692 0.94229 0.15917 0.0
C714 C 0.30095 0.98423 0.16412 0.0
C715 C 0.33729 0.97267 0.17018 0.0
C716 C 0.31565 0.0173 0.14443 0.0
C717 C 0.28777 0.00174 0.18419 0.0
C718 C 0.24354 0.97357 0.18999 0.0
C719 C 0.22356 0.98343 0.20766 0.0
C720 C 0.24941 0.02325 0.21962 0.0
C721 C 0.29456 0.05287 0.21369 0.0
C722 C 0.3139 0.04167 0.19584 0.0
H723 H 0.36342 0.28086 0.29809 0.0
H724 H 0.28994 0.14158 0.31842 0.0
H725 H 0.25858 0.162 0.35052 0.0
H726 H 0.38711 0.33049 0.35453 0.0
H727 H 0.37894 0.376 0.34598 0.0
H728 H 0.39952 0.35109 0.32624 0.0
H729 H 0.33452 0.3355 0.29928 0.0
H730 H 0.31371 0.36021 0.31891 0.0
H731 H 0.2776 0.30391 0.30911 0.0
H732 H 0.23111 0.19699 0.37879 0.0
H733 H 0.20777 0.24323 0.40016 0.0
H734 H 0.29782 0.35916 0.3606 0.0
C735 C 0.34149 0.25479 0.30957 0.0
C736 C 0.32939 0.20969 0.30593 0.0
C737 C 0.29982 0.17638 0.32102 0.0
C738 C 0.28195 0.18768 0.33931 0.0
C739 C 0.29396 0.23241 0.34223 0.0
C740 C 0.32306 0.26544 0.32776 0.0
C741 C 0.32792 0.31039 0.33355 0.0
C742 C 0.37625 0.34397 0.3405 0.0
C743 C 0.3125 0.32854 0.31406 0.0
C744 C 0.29629 0.29736 0.35324 0.0
C745 C 0.27748 0.25237 0.35819 0.0
C746 C 0.24595 0.23233 0.37519 0.0
C747 C 0.2329 0.25885 0.38724 0.0
C748 C 0.25107 0.30477 0.38207 0.0
C749 C 0.28357 0.32422 0.36503 0.0
H750 H 0.08602 0.36518 0.46365 0.0
H751 H 0.16502 0.30621 0.4854 0.0
H752 H 0.11487 0.27295 0.51806 0.0
H753 H 0.05817 0.38885 0.51951 0.0
H754 H 0.00253 0.37476 0.51098 0.0
H755 H 0.04762 0.39768 0.49099 0.0
H756 H 0.00212 0.32927 0.46514 0.0
H757 H 0.95707 0.30607 0.48506 0.0
H758 H 0.982 0.27365 0.47596 0.0
H759 H 0.05175 0.24129 0.54679 0.0
H760 H 0.98157 0.21373 0.56844 0.0
H761 H 0.94461 0.29312 0.52686 0.0
C762 C 0.09338 0.34601 0.4755 0.0
C763 C 0.12956 0.33847 0.47209 0.0
C764 C 0.13764 0.31264 0.48781 0.0
C765 C 0.10935 0.29366 0.50639 0.0
C766 C 0.07335 0.30105 0.509 0.0
C767 C 0.06553 0.32682 0.49398 0.0
C768 C 0.02311 0.32746 0.49955 0.0
C769 C 0.0335 0.37502 0.50562 0.0
C770 C 0.98908 0.30794 0.48029 0.0
C771 C 0.00753 0.29711 0.51975 0.0
C772 C 0.03711 0.28256 0.52517 0.0
C773 C 0.02864 0.25285 0.54279 0.0
C774 C 0.98874 0.23738 0.55499 0.0
C775 C 0.95775 0.25135 0.54933 0.0
C776 C 0.96772 0.28196 0.53165 0.0
H777 H 0.64187 0.93205 0.68719 0.0
H778 H 0.75168 0.96079 0.73214 0.0
H779 H 0.7994 0.03191 0.7121 0.0
H780 H 0.70539 0.97118 0.63834 0.0
H781 H 0.67351 0.99459 0.62656 0.0
H782 H 0.64726 0.94817 0.64562 0.0
H783 H 0.62387 0.99373 0.67113 0.0
H784 H 0.64998 0.04034 0.65208 0.0
H785 H 0.6659 0.04798 0.68114 0.0
H786 H 0.83695 0.09647 0.68473 0.0
H787 H 0.86014 0.15007 0.6532 0.0
H788 H 0.7246 0.07933 0.62729 0.0
C789 C 0.67576 0.9536 0.69304 0.0
C790 C 0.69313 0.94102 0.71121 0.0
C791 C 0.73769 0.96996 0.71829 0.0
C792 C 0.765 0.01038 0.70702 0.0
C793 C 0.74702 0.02146 0.68889 0.0
C794 C 0.70326 0.99404 0.6821 0.0
C795 C 0.69237 0.0125 0.66163 0.0
C796 C 0.67886 0.97966 0.64188 0.0
C797 C 0.65587 0.02435 0.66682 0.0
C798 C 0.73713 0.05408 0.65761 0.0
C799 C 0.76826 0.05886 0.67352 0.0
C800 C 0.81266 0.09342 0.67238 0.0
C801 C 0.82556 0.12363 0.65443 0.0
C802 C 0.79408 0.11905 0.63796 0.0
C803 C 0.74927 0.08412 0.63982 0.0
loop_
_geom_bond_atom_site_label_1
_geom_bond_atom_site_label_2
_geom_bond_distance
_geom_bond_site_symmetry_2
_ccdc_geom_bond_type
In0 O1 2.294 . S
In0 O2 2.326 . S
In0 O6 2.266 . S
In0 O7 2.326 . S
In0 O8 2.266 . S
In0 O9 2.326 . S
In0 O11 2.294 . S
In0 O12 2.326 . S
O1 In0 2.294 . S
O1 C10 1.240 . S
O2 In0 2.326 . S
O2 C10 1.252 . S
C3 O6 1.252 . S
C3 O7 1.260 . S
C4 O11 1.240 . S
C4 O12 1.252 . S
C5 O8 1.252 . S
C5 O9 1.260 . S
O6 In0 2.266 . S
O6 C3 1.252 . S
O7 In0 2.326 . S
O7 C3 1.260 . S
O8 In0 2.266 . S
O8 C5 1.252 . S
O9 In0 2.326 . S
O9 C5 1.260 . S
C10 O1 1.240 . S
C10 O2 1.252 . S
O11 In0 2.294 . S
O11 C4 1.240 . S
O12 In0 2.326 . S
O12 C4 1.252 . S
In13 O14 2.294 . S
In13 O15 2.326 . S
In13 O19 2.266 . S
In13 O20 2.326 . S
In13 O21 2.266 . S
In13 O22 2.326 . S
In13 O24 2.294 . S
In13 O25 2.326 . S
O14 In13 2.294 . S
O14 C23 1.240 . S
O15 In13 2.326 . S
O15 C23 1.252 . S
C16 O19 1.252 . S
C16 O20 1.260 . S
C17 O24 1.240 . S
C17 O25 1.252 . S
C18 O21 1.252 . S
C18 O22 1.260 . S
O19 In13 2.266 . S
O19 C16 1.252 . S
O20 In13 2.326 . S
O20 C16 1.260 . S
O21 In13 2.266 . S
O21 C18 1.252 . S
O22 In13 2.326 . S
O22 C18 1.260 . S
C23 O14 1.240 . S
C23 O15 1.252 . S
O24 In13 2.294 . S
O24 C17 1.240 . S
O25 In13 2.326 . S
O25 C17 1.252 . S
In26 O27 2.294 . S
In26 O28 2.326 . S
In26 O32 2.266 . S
In26 O33 2.326 . S
In26 O34 2.266 . S
In26 O35 2.326 . S
In26 O37 2.294 . S
In26 O38 2.326 . S
O27 In26 2.294 . S
O27 C36 1.240 . S
O28 In26 2.326 . S
O28 C36 1.252 . S
C29 O32 1.252 . S
C29 O33 1.260 . S
C30 O37 1.240 . S
C30 O38 1.252 . S
C31 O34 1.252 . S
C31 O35 1.260 . S
O32 In26 2.266 . S
O32 C29 1.252 . S
O33 In26 2.326 . S
O33 C29 1.260 . S
O34 In26 2.266 . S
O34 C31 1.252 . S
O35 In26 2.326 . S
O35 C31 1.260 . S
C36 O27 1.240 . S
C36 O28 1.252 . S
O37 In26 2.294 . S
O37 C30 1.240 . S
O38 In26 2.326 . S
O38 C30 1.252 . S
In39 O40 2.294 . S
In39 O41 2.326 . S
In39 O45 2.266 . S
In39 O46 2.326 . S
In39 O47 2.266 . S
In39 O48 2.326 . S
In39 O50 2.294 . S
In39 O51 2.326 . S
O40 In39 2.294 . S
O40 C49 1.240 . S
O41 In39 2.326 . S
O41 C49 1.252 . S
C42 O45 1.252 . S
C42 O46 1.260 . S
C43 O50 1.240 . S
C43 O51 1.252 . S
C44 O47 1.252 . S
C44 O48 1.260 . S
O45 In39 2.266 . S
O45 C42 1.252 . S
O46 In39 2.326 . S
O46 C42 1.260 . S
O47 In39 2.266 . S
O47 C44 1.252 . S
O48 In39 2.326 . S
O48 C44 1.260 . S
C49 O40 1.240 . S
C49 O41 1.252 . S
O50 In39 2.294 . S
O50 C43 1.240 . S
O51 In39 2.326 . S
O51 C43 1.252 . S
In52 O53 2.294 . S
In52 O54 2.326 . S
In52 O58 2.266 . S
In52 O59 2.326 . S
In52 O60 2.266 . S
In52 O61 2.326 . S
In52 O63 2.294 . S
In52 O64 2.326 . S
O53 In52 2.294 . S
O53 C62 1.240 . S
O54 In52 2.326 . S
O54 C62 1.252 . S
C55 O58 1.252 . S
C55 O59 1.260 . S
C56 O63 1.240 . S
C56 O64 1.252 . S
C57 O60 1.252 . S
C57 O61 1.260 . S
O58 In52 2.266 . S
O58 C55 1.252 . S
O59 In52 2.326 . S
O59 C55 1.260 . S
O60 In52 2.266 . S
O60 C57 1.252 . S
O61 In52 2.326 . S
O61 C57 1.260 . S
C62 O53 1.240 . S
C62 O54 1.252 . S
O63 In52 2.294 . S
O63 C56 1.240 . S
O64 In52 2.326 . S
O64 C56 1.252 . S
In65 O66 2.294 . S
In65 O67 2.326 . S
In65 O71 2.266 . S
In65 O72 2.326 . S
In65 O73 2.266 . S
In65 O74 2.326 . S
In65 O76 2.294 . S
In65 O77 2.326 . S
O66 In65 2.294 . S
O66 C75 1.240 . S
O67 In65 2.326 . S
O67 C75 1.252 . S
C68 O71 1.252 . S
C68 O72 1.260 . S
C69 O76 1.240 . S
C69 O77 1.252 . S
C70 O73 1.252 . S
C70 O74 1.260 . S
O71 In65 2.266 . S
O71 C68 1.252 . S
O72 In65 2.326 . S
O72 C68 1.260 . S
O73 In65 2.266 . S
O73 C70 1.252 . S
O74 In65 2.326 . S
O74 C70 1.260 . S
C75 O66 1.240 . S
C75 O67 1.252 . S
O76 In65 2.294 . S
O76 C69 1.240 . S
O77 In65 2.326 . S
O77 C69 1.252 . S
In78 O79 2.294 . S
In78 O80 2.326 . S
In78 O84 2.266 . S
In78 O85 2.326 . S
In78 O86 2.266 . S
In78 O87 2.326 . S
In78 O89 2.294 . S
In78 O90 2.326 . S
O79 In78 2.294 . S
O79 C88 1.240 . S
O80 In78 2.326 . S
O80 C88 1.252 . S
C81 O84 1.252 . S
C81 O85 1.260 . S
C82 O89 1.240 . S
C82 O90 1.252 . S
C83 O86 1.252 . S
C83 O87 1.260 . S
O84 In78 2.266 . S
O84 C81 1.252 . S
O85 In78 2.326 . S
O85 C81 1.260 . S
O86 In78 2.266 . S
O86 C83 1.252 . S
O87 In78 2.326 . S
O87 C83 1.260 . S
C88 O79 1.240 . S
C88 O80 1.252 . S
O89 In78 2.294 . S
O89 C82 1.240 . S
O90 In78 2.326 . S
O90 C82 1.252 . S
In91 O92 2.294 . S
In91 O93 2.326 . S
In91 O97 2.266 . S
In91 O98 2.326 . S
In91 O99 2.266 . S
In91 O100 2.326 . S
In91 O102 2.294 . S
In91 O103 2.326 . S
O92 In91 2.294 . S
O92 C101 1.240 . S
O93 In91 2.326 . S
O93 C101 1.252 . S
C94 O97 1.252 . S
C94 O98 1.260 . S
C95 O102 1.240 . S
C95 O103 1.252 . S
C96 O99 1.252 . S
C96 O100 1.260 . S
O97 In91 2.266 . S
O97 C94 1.252 . S
O98 In91 2.326 . S
O98 C94 1.260 . S
O99 In91 2.266 . S
O99 C96 1.252 . S
O100 In91 2.326 . S
O100 C96 1.260 . S
C101 O92 1.240 . S
C101 O93 1.252 . S
O102 In91 2.294 . S
O102 C95 1.240 . S
O103 In91 2.326 . S
O103 C95 1.252 . S
In104 O105 2.294 . S
In104 O106 2.326 . S
In104 O110 2.266 . S
In104 O111 2.326 . S
In104 O112 2.266 . S
In104 O113 2.326 . S
In104 O115 2.294 . S
In104 O116 2.326 . S
O105 In104 2.294 . S
O105 C114 1.240 . S
O106 In104 2.326 . S
O106 C114 1.252 . S
C107 O110 1.252 . S
C107 O111 1.260 . S
C108 O115 1.240 . S
C108 O116 1.252 . S
C109 O112 1.252 . S
C109 O113 1.260 . S
O110 In104 2.266 . S
O110 C107 1.252 . S
O111 In104 2.326 . S
O111 C107 1.260 . S
O112 In104 2.266 . S
O112 C109 1.252 . S
O113 In104 2.326 . S
O113 C109 1.260 . S
C114 O105 1.240 . S
C114 O106 1.252 . S
O115 In104 2.294 . S
O115 C108 1.240 . S
O116 In104 2.326 . S
O116 C108 1.252 . S
In117 O118 2.294 . S
In117 O119 2.326 . S
In117 O123 2.266 . S
In117 O124 2.326 . S
In117 O125 2.266 . S
In117 O126 2.326 . S
In117 O128 2.294 . S
In117 O129 2.326 . S
O118 In117 2.294 . S
O118 C127 1.240 . S
O119 In117 2.326 . S
O119 C127 1.252 . S
C120 O123 1.252 . S
C120 O124 1.260 . S
C121 O128 1.240 . S
C121 O129 1.252 . S
C122 O125 1.252 . S
C122 O126 1.260 . S
O123 In117 2.266 . S
O123 C120 1.252 . S
O124 In117 2.326 . S
O124 C120 1.260 . S
O125 In117 2.266 . S
O125 C122 1.252 . S
O126 In117 2.326 . S
O126 C122 1.260 . S
C127 O118 1.240 . S
C127 O119 1.252 . S
O128 In117 2.294 . S
O128 C121 1.240 . S
O129 In117 2.326 . S
O129 C121 1.252 . S
In130 O131 2.294 . S
In130 O132 2.326 . S
In130 O136 2.266 . S
In130 O137 2.326 . S
In130 O138 2.266 . S
In130 O139 2.326 . S
In130 O141 2.294 . S
In130 O142 2.326 . S
O131 In130 2.294 . S
O131 C140 1.240 . S
O132 In130 2.326 . S
O132 C140 1.252 . S
C133 O136 1.252 . S
C133 O137 1.260 . S
C134 O141 1.240 . S
C134 O142 1.252 . S
C135 O138 1.252 . S
C135 O139 1.260 . S
O136 In130 2.266 . S
O136 C133 1.252 . S
O137 In130 2.326 . S
O137 C133 1.260 . S
O138 In130 2.266 . S
O138 C135 1.252 . S
O139 In130 2.326 . S
O139 C135 1.260 . S
C140 O131 1.240 . S
C140 O132 1.252 . S
O141 In130 2.294 . S
O141 C134 1.240 . S
O142 In130 2.326 . S
O142 C134 1.252 . S
In143 O144 2.294 . S
In143 O145 2.326 . S
In143 O149 2.266 . S
In143 O150 2.326 . S
In143 O151 2.266 . S
In143 O152 2.326 . S
In143 O154 2.294 . S
In143 O155 2.326 . S
O144 In143 2.294 . S
O144 C153 1.240 . S
O145 In143 2.326 . S
O145 C153 1.252 . S
C146 O149 1.252 . S
C146 O150 1.260 . S
C147 O154 1.240 . S
C147 O155 1.252 . S
C148 O151 1.252 . S
C148 O152 1.260 . S
O149 In143 2.266 . S
O149 C146 1.252 . S
O150 In143 2.326 . S
O150 C146 1.260 . S
O151 In143 2.266 . S
O151 C148 1.252 . S
O152 In143 2.326 . S
O152 C148 1.260 . S
C153 O144 1.240 . S
C153 O145 1.252 . S
O154 In143 2.294 . S
O154 C147 1.240 . S
O155 In143 2.326 . S
O155 C147 1.252 . S
H156 C168 0.930 . S
H157 C170 0.930 . S
H158 C171 0.930 . S
H159 C175 0.959 . S
H160 C175 0.959 . S
H161 C175 0.961 . S
H162 C176 0.960 . S
H163 C176 0.961 . S
H164 C176 0.959 . S
H165 C179 0.929 . S
H166 C180 0.931 . S
H167 C182 0.930 . S
C168 H156 0.930 . S
C168 C169 1.399 . S
C168 C173 1.399 . S
C169 C168 1.399 . S
C169 C170 1.376 . S
C170 H157 0.930 . S
C170 C169 1.376 . S
C170 C171 1.388 . S
C171 H158 0.930 . S
C171 C170 1.388 . S
C171 C172 1.390 . S
C172 C171 1.390 . S
C172 C173 1.394 . S
C172 C178 1.465 . S
C173 C168 1.399 . S
C173 C172 1.394 . S
C173 C174 1.516 . S
C174 C173 1.516 . S
C174 C175 1.502 . S
C174 C176 1.561 . S
C174 C177 1.526 . S
C175 H159 0.959 . S
C175 H160 0.959 . S
C175 H161 0.961 . S
C175 C174 1.502 . S
C176 H162 0.960 . S
C176 H163 0.961 . S
C176 H164 0.959 . S
C176 C174 1.561 . S
C177 C174 1.526 . S
C177 C178 1.396 . S
C177 C182 1.390 . S
C178 C172 1.465 . S
C178 C177 1.396 . S
C178 C179 1.399 . S
C179 H165 0.929 . S
C179 C178 1.399 . S
C179 C180 1.385 . S
C180 H166 0.931 . S
C180 C179 1.385 . S
C180 C181 1.389 . S
C181 C180 1.389 . S
C181 C182 1.387 . S
C182 H167 0.930 . S
C182 C177 1.390 . S
C182 C181 1.387 . S
H183 C195 0.930 . S
H184 C197 0.930 . S
H185 C198 0.930 . S
H186 C202 0.959 . S
H187 C202 0.959 . S
H188 C202 0.961 . S
H189 C203 0.960 . S
H190 C203 0.961 . S
H191 C203 0.959 . S
H192 C206 0.929 . S
H193 C207 0.931 . S
H194 C209 0.930 . S
C195 H183 0.930 . S
C195 C196 1.399 . S
C195 C200 1.399 . S
C196 C195 1.399 . S
C196 C197 1.376 . S
C197 H184 0.930 . S
C197 C196 1.376 . S
C197 C198 1.388 . S
C198 H185 0.930 . S
C198 C197 1.388 . S
C198 C199 1.390 . S
C199 C198 1.390 . S
C199 C200 1.394 . S
C199 C205 1.465 . S
C200 C195 1.399 . S
C200 C199 1.394 . S
C200 C201 1.516 . S
C201 C200 1.516 . S
C201 C202 1.502 . S
C201 C203 1.561 . S
C201 C204 1.526 . S
C202 H186 0.959 . S
C202 H187 0.959 . S
C202 H188 0.961 . S
C202 C201 1.502 . S
C203 H189 0.960 . S
C203 H190 0.961 . S
C203 H191 0.959 . S
C203 C201 1.561 . S
C204 C201 1.526 . S
C204 C205 1.396 . S
C204 C209 1.390 . S
C205 C199 1.465 . S
C205 C204 1.396 . S
C205 C206 1.399 . S
C206 H192 0.929 . S
C206 C205 1.399 . S
C206 C207 1.385 . S
C207 H193 0.931 . S
C207 C206 1.385 . S
C207 C208 1.389 . S
C208 C207 1.389 . S
C208 C209 1.387 . S
C209 H194 0.930 . S
C209 C204 1.390 . S
C209 C208 1.387 . S
H210 C222 0.930 . S
H211 C224 0.930 . S
H212 C225 0.930 . S
H213 C229 0.959 . S
H214 C229 0.959 . S
H215 C229 0.961 . S
H216 C230 0.960 . S
H217 C230 0.961 . S
H218 C230 0.959 . S
H219 C233 0.929 . S
H220 C234 0.931 . S
H221 C236 0.930 . S
C222 H210 0.930 . S
C222 C223 1.399 . S
C222 C227 1.399 . S
C223 C222 1.399 . S
C223 C224 1.376 . S
C224 H211 0.930 . S
C224 C223 1.376 . S
C224 C225 1.388 . S
C225 H212 0.930 . S
C225 C224 1.388 . S
C225 C226 1.390 . S
C226 C225 1.390 . S
C226 C227 1.394 . S
C226 C232 1.465 . S
C227 C222 1.399 . S
C227 C226 1.394 . S
C227 C228 1.516 . S
C228 C227 1.516 . S
C228 C229 1.502 . S
C228 C230 1.561 . S
C228 C231 1.526 . S
C229 H213 0.959 . S
C229 H214 0.959 . S
C229 H215 0.961 . S
C229 C228 1.502 . S
C230 H216 0.960 . S
C230 H217 0.961 . S
C230 H218 0.959 . S
C230 C228 1.561 . S
C231 C228 1.526 . S
C231 C232 1.396 . S
C231 C236 1.390 . S
C232 C226 1.465 . S
C232 C231 1.396 . S
C232 C233 1.399 . S
C233 H219 0.929 . S
C233 C232 1.399 . S
C233 C234 1.385 . S
C234 H220 0.931 . S
C234 C233 1.385 . S
C234 C235 1.389 . S
C235 C234 1.389 . S
C235 C236 1.387 . S
C236 H221 0.930 . S
C236 C231 1.390 . S
C236 C235 1.387 . S
H237 C249 0.930 . S
H238 C251 0.930 . S
H239 C252 0.930 . S
H240 C256 0.959 . S
H241 C256 0.959 . S
H242 C256 0.961 . S
H243 C257 0.960 . S
H244 C257 0.961 . S
H245 C257 0.959 . S
H246 C260 0.929 . S
H247 C261 0.931 . S
H248 C263 0.930 . S
C249 H237 0.930 . S
C249 C250 1.399 . S
C249 C254 1.399 . S
C250 C249 1.399 . S
C250 C251 1.376 . S
C251 H238 0.930 . S
C251 C250 1.376 . S
C251 C252 1.388 . S
C252 H239 0.930 . S
C252 C251 1.388 . S
C252 C253 1.390 . S
C253 C252 1.390 . S
C253 C254 1.394 . S
C253 C259 1.465 . S
C254 C249 1.399 . S
C254 C253 1.394 . S
C254 C255 1.516 . S
C255 C254 1.516 . S
C255 C256 1.502 . S
C255 C257 1.561 . S
C255 C258 1.526 . S
C256 H240 0.959 . S
C256 H241 0.959 . S
C256 H242 0.961 . S
C256 C255 1.502 . S
C257 H243 0.960 . S
C257 H244 0.961 . S
C257 H245 0.959 . S
C257 C255 1.561 . S
C258 C255 1.526 . S
C258 C259 1.396 . S
C258 C263 1.390 . S
C259 C253 1.465 . S
C259 C258 1.396 . S
C259 C260 1.399 . S
C260 H246 0.929 . S
C260 C259 1.399 . S
C260 C261 1.385 . S
C261 H247 0.931 . S
C261 C260 1.385 . S
C261 C262 1.389 . S
C262 C261 1.389 . S
C262 C263 1.387 . S
C263 H248 0.930 . S
C263 C258 1.390 . S
C263 C262 1.387 . S
H264 C276 0.930 . S
H265 C278 0.930 . S
H266 C279 0.930 . S
H267 C283 0.959 . S
H268 C283 0.959 . S
H269 C283 0.961 . S
H270 C284 0.960 . S
H271 C284 0.961 . S
H272 C284 0.959 . S
H273 C287 0.929 . S
H274 C288 0.931 . S
H275 C290 0.930 . S
C276 H264 0.930 . S
C276 C277 1.399 . S
C276 C281 1.399 . S
C277 C276 1.399 . S
C277 C278 1.376 . S
C278 H265 0.930 . S
C278 C277 1.376 . S
C278 C279 1.388 . S
C279 H266 0.930 . S
C279 C278 1.388 . S
C279 C280 1.390 . S
C280 C279 1.390 . S
C280 C281 1.394 . S
C280 C286 1.465 . S
C281 C276 1.399 . S
C281 C280 1.394 . S
C281 C282 1.516 . S
C282 C281 1.516 . S
C282 C283 1.502 . S
C282 C284 1.561 . S
C282 C285 1.526 . S
C283 H267 0.959 . S
C283 H268 0.959 . S
C283 H269 0.961 . S
C283 C282 1.502 . S
C284 H270 0.960 . S
C284 H271 0.961 . S
C284 H272 0.959 . S
C284 C282 1.561 . S
C285 C282 1.526 . S
C285 C286 1.396 . S
C285 C290 1.390 . S
C286 C280 1.465 . S
C286 C285 1.396 . S
C286 C287 1.399 . S
C287 H273 0.929 . S
C287 C286 1.399 . S
C287 C288 1.385 . S
C288 H274 0.931 . S
C288 C287 1.385 . S
C288 C289 1.389 . S
C289 C288 1.389 . S
C289 C290 1.387 . S
C290 H275 0.930 . S
C290 C285 1.390 . S
C290 C289 1.387 . S
H291 C303 0.930 . S
H292 C305 0.930 . S
H293 C306 0.930 . S
H294 C310 0.959 . S
H295 C310 0.959 . S
H296 C310 0.961 . S
H297 C311 0.960 . S
H298 C311 0.961 . S
H299 C311 0.959 . S
H300 C314 0.929 . S
H301 C315 0.931 . S
H302 C317 0.930 . S
C303 H291 0.930 . S
C303 C304 1.399 . S
C303 C308 1.399 . S
C304 C303 1.399 . S
C304 C305 1.376 . S
C305 H292 0.930 . S
C305 C304 1.376 . S
C305 C306 1.388 . S
C306 H293 0.930 . S
C306 C305 1.388 . S
C306 C307 1.390 . S
C307 C306 1.390 . S
C307 C308 1.394 . S
C307 C313 1.465 . S
C308 C303 1.399 . S
C308 C307 1.394 . S
C308 C309 1.516 . S
C309 C308 1.516 . S
C309 C310 1.502 . S
C309 C311 1.561 . S
C309 C312 1.526 . S
C310 H294 0.959 . S
C310 H295 0.959 . S
C310 H296 0.961 . S
C310 C309 1.502 . S
C311 H297 0.960 . S
C311 H298 0.961 . S
C311 H299 0.959 . S
C311 C309 1.561 . S
C312 C309 1.526 . S
C312 C313 1.396 . S
C312 C317 1.390 . S
C313 C307 1.465 . S
C313 C312 1.396 . S
C313 C314 1.399 . S
C314 H300 0.929 . S
C314 C313 1.399 . S
C314 C315 1.385 . S
C315 H301 0.931 . S
C315 C314 1.385 . S
C315 C316 1.389 . S
C316 C315 1.389 . S
C316 C317 1.387 . S
C317 H302 0.930 . S
C317 C312 1.390 . S
C317 C316 1.387 . S
H318 C330 0.930 . S
H319 C332 0.930 . S
H320 C333 0.930 . S
H321 C337 0.959 . S
H322 C337 0.959 . S
H323 C337 0.961 . S
H324 C338 0.960 . S
H325 C338 0.961 . S
H326 C338 0.959 . S
H327 C341 0.929 . S
H328 C342 0.931 . S
H329 C344 0.930 . S
C330 H318 0.930 . S
C330 C331 1.399 . S
C330 C335 1.399 . S
C331 C330 1.399 . S
C331 C332 1.376 . S
C332 H319 0.930 . S
C332 C331 1.376 . S
C332 C333 1.388 . S
C333 H320 0.930 . S
C333 C332 1.388 . S
C333 C334 1.390 . S
C334 C333 1.390 . S
C334 C335 1.394 . S
C334 C340 1.465 . S
C335 C330 1.399 . S
C335 C334 1.394 . S
C335 C336 1.516 . S
C336 C335 1.516 . S
C336 C337 1.502 . S
C336 C338 1.561 . S
C336 C339 1.526 . S
C337 H321 0.959 . S
C337 H322 0.959 . S
C337 H323 0.961 . S
C337 C336 1.502 . S
C338 H324 0.960 . S
C338 H325 0.961 . S
C338 H326 0.959 . S
C338 C336 1.561 . S
C339 C336 1.526 . S
C339 C340 1.396 . S
C339 C344 1.390 . S
C340 C334 1.465 . S
C340 C339 1.396 . S
C340 C341 1.399 . S
C341 H327 0.929 . S
C341 C340 1.399 . S
C341 C342 1.385 . S
C342 H328 0.931 . S
C342 C341 1.385 . S
C342 C343 1.389 . S
C343 C342 1.389 . S
C343 C344 1.387 . S
C344 H329 0.930 . S
C344 C339 1.390 . S
C344 C343 1.387 . S
H345 C357 0.930 . S
H346 C359 0.930 . S
H347 C360 0.930 . S
H348 C364 0.959 . S
H349 C364 0.959 1_455 S
H350 C364 0.961 . S
H351 C365 0.960 . S
H352 C365 0.961 . S
H353 C365 0.959 . S
H354 C368 0.929 . S
H355 C369 0.931 . S
H356 C371 0.930 . S
C357 H345 0.930 . S
C357 C358 1.399 . S
C357 C362 1.399 . S
C358 C357 1.399 . S
C358 C359 1.376 . S
C359 H346 0.930 . S
C359 C358 1.376 . S
C359 C360 1.388 . S
C360 H347 0.930 . S
C360 C359 1.388 . S
C360 C361 1.390 . S
C361 C360 1.390 . S
C361 C362 1.394 . S
C361 C367 1.465 1_655 S
C362 C357 1.399 . S
C362 C361 1.394 . S
C362 C363 1.516 1_655 S
C363 C362 1.516 1_455 S
C363 C364 1.502 1_455 S
C363 C365 1.561 . S
C363 C366 1.526 . S
C364 H348 0.959 . S
C364 H349 0.959 1_655 S
C364 H350 0.961 . S
C364 C363 1.502 1_655 S
C365 H351 0.960 . S
C365 H352 0.961 . S
C365 H353 0.959 . S
C365 C363 1.561 . S
C366 C363 1.526 . S
C366 C367 1.396 . S
C366 C371 1.390 . S
C367 C361 1.465 1_455 S
C367 C366 1.396 . S
C367 C368 1.399 . S
C368 H354 0.929 . S
C368 C367 1.399 . S
C368 C369 1.385 . S
C369 H355 0.931 . S
C369 C368 1.385 . S
C369 C370 1.389 . S
C370 C369 1.389 . S
C370 C371 1.387 . S
C371 H356 0.930 . S
C371 C366 1.390 . S
C371 C370 1.387 . S
H372 C384 0.930 . S
H373 C386 0.930 . S
H374 C387 0.930 . S
H375 C391 0.959 . S
H376 C391 0.959 . S
H377 C391 0.961 . S
H378 C392 0.960 . S
H379 C392 0.961 . S
H380 C392 0.959 . S
H381 C395 0.929 1_545 S
H382 C396 0.931 . S
H383 C398 0.930 . S
C384 H372 0.930 . S
C384 C385 1.399 . S
C384 C389 1.399 . S
C385 C384 1.399 . S
C385 C386 1.376 . S
C386 H373 0.930 . S
C386 C385 1.376 . S
C386 C387 1.388 . S
C387 H374 0.930 . S
C387 C386 1.388 . S
C387 C388 1.390 . S
C388 C387 1.390 . S
C388 C389 1.394 . S
C388 C394 1.465 1_545 S
C389 C384 1.399 . S
C389 C388 1.394 . S
C389 C390 1.516 1_545 S
C390 C389 1.516 1_565 S
C390 C391 1.502 . S
C390 C392 1.561 . S
C390 C393 1.526 . S
C391 H375 0.959 . S
C391 H376 0.959 . S
C391 H377 0.961 . S
C391 C390 1.502 . S
C392 H378 0.960 . S
C392 H379 0.961 . S
C392 H380 0.959 . S
C392 C390 1.561 . S
C393 C390 1.526 . S
C393 C394 1.396 . S
C393 C398 1.390 . S
C394 C388 1.465 1_565 S
C394 C393 1.396 . S
C394 C395 1.399 . S
C395 H381 0.929 1_565 S
C395 C394 1.399 . S
C395 C396 1.385 . S
C396 H382 0.931 . S
C396 C395 1.385 . S
C396 C397 1.389 . S
C397 C396 1.389 . S
C397 C398 1.387 . S
C398 H383 0.930 . S
C398 C393 1.390 . S
C398 C397 1.387 . S
H399 C411 0.930 . S
H400 C413 0.930 . S
H401 C414 0.930 . S
H402 C418 0.959 . S
H403 C418 0.959 . S
H404 C418 0.961 . S
H405 C419 0.960 . S
H406 C419 0.961 . S
H407 C419 0.959 . S
H408 C422 0.929 . S
H409 C423 0.931 . S
H410 C425 0.930 . S
C411 H399 0.930 . S
C411 C412 1.399 . S
C411 C416 1.399 . S
C412 C411 1.399 . S
C412 C413 1.376 . S
C413 H400 0.930 . S
C413 C412 1.376 . S
C413 C414 1.388 . S
C414 H401 0.930 . S
C414 C413 1.388 . S
C414 C415 1.390 . S
C415 C414 1.390 . S
C415 C416 1.394 . S
C415 C421 1.465 . S
C416 C411 1.399 . S
C416 C415 1.394 . S
C416 C417 1.516 . S
C417 C416 1.516 . S
C417 C418 1.502 . S
C417 C419 1.561 . S
C417 C420 1.526 . S
C418 H402 0.959 . S
C418 H403 0.959 . S
C418 H404 0.961 . S
C418 C417 1.502 . S
C419 H405 0.960 . S
C419 H406 0.961 . S
C419 H407 0.959 . S
C419 C417 1.561 . S
C420 C417 1.526 . S
C420 C421 1.396 . S
C420 C425 1.390 . S
C421 C415 1.465 . S
C421 C420 1.396 . S
C421 C422 1.399 . S
C422 H408 0.929 . S
C422 C421 1.399 . S
C422 C423 1.385 . S
C423 H409 0.931 . S
C423 C422 1.385 . S
C423 C424 1.389 . S
C424 C423 1.389 . S
C424 C425 1.387 . S
C425 H410 0.930 . S
C425 C420 1.390 . S
C425 C424 1.387 . S
H426 C438 0.930 . S
H427 C440 0.930 . S
H428 C441 0.930 . S
H429 C445 0.959 1_455 S
H430 C445 0.959 1_455 S
H431 C445 0.961 . S
H432 C446 0.960 . S
H433 C446 0.961 . S
H434 C446 0.959 . S
H435 C449 0.929 . S
H436 C450 0.931 . S
H437 C452 0.930 . S
C438 H426 0.930 . S
C438 C439 1.399 . S
C438 C443 1.399 . S
C439 C438 1.399 . S
C439 C440 1.376 . S
C440 H427 0.930 . S
C440 C439 1.376 . S
C440 C441 1.388 . S
C441 H428 0.930 . S
C441 C440 1.388 . S
C441 C442 1.390 . S
C442 C441 1.390 . S
C442 C443 1.394 . S
C442 C448 1.465 1_655 S
C443 C438 1.399 . S
C443 C442 1.394 . S
C443 C444 1.516 . S
C444 C443 1.516 . S
C444 C445 1.502 . S
C444 C446 1.561 . S
C444 C447 1.526 1_655 S
C445 H429 0.959 1_655 S
C445 H430 0.959 1_655 S
C445 H431 0.961 . S
C445 C444 1.502 . S
C446 H432 0.960 . S
C446 H433 0.961 . S
C446 H434 0.959 . S
C446 C444 1.561 . S
C447 C444 1.526 1_455 S
C447 C448 1.396 . S
C447 C452 1.390 . S
C448 C442 1.465 1_455 S
C448 C447 1.396 . S
C448 C449 1.399 . S
C449 H435 0.929 . S
C449 C448 1.399 . S
C449 C450 1.385 . S
C450 H436 0.931 . S
C450 C449 1.385 . S
C450 C451 1.389 . S
C451 C450 1.389 . S
C451 C452 1.387 . S
C452 H437 0.930 . S
C452 C447 1.390 . S
C452 C451 1.387 . S
H453 C465 0.930 . S
H454 C467 0.930 . S
H455 C468 0.930 . S
H456 C472 0.959 . S
H457 C472 0.959 . S
H458 C472 0.961 . S
H459 C473 0.960 . S
H460 C473 0.961 . S
H461 C473 0.959 . S
H462 C476 0.929 1_565 S
H463 C477 0.931 . S
H464 C479 0.930 . S
C465 H453 0.930 . S
C465 C466 1.399 . S
C465 C470 1.399 . S
C466 C465 1.399 . S
C466 C467 1.376 . S
C467 H454 0.930 . S
C467 C466 1.376 . S
C467 C468 1.388 1_554 S
C468 H455 0.930 . S
C468 C467 1.388 1_556 S
C468 C469 1.390 . S
C469 C468 1.390 . S
C469 C470 1.394 1_556 S
C469 C475 1.465 1_565 S
C470 C465 1.399 . S
C470 C469 1.394 1_554 S
C470 C471 1.516 1_565 S
C471 C470 1.516 1_545 S
C471 C472 1.502 . S
C471 C473 1.561 . S
C471 C474 1.526 1_554 S
C472 H456 0.959 . S
C472 H457 0.959 . S
C472 H458 0.961 . S
C472 C471 1.502 . S
C473 H459 0.960 . S
C473 H460 0.961 . S
C473 H461 0.959 . S
C473 C471 1.561 . S
C474 C471 1.526 1_556 S
C474 C475 1.396 . S
C474 C479 1.390 . S
C475 C469 1.465 1_545 S
C475 C474 1.396 . S
C475 C476 1.399 . S
C476 H462 0.929 1_545 S
C476 C475 1.399 . S
C476 C477 1.385 . S
C477 H463 0.931 . S
C477 C476 1.385 . S
C477 C478 1.389 . S
C478 C477 1.389 . S
C478 C479 1.387 . S
C479 H464 0.930 . S
C479 C474 1.390 . S
C479 C478 1.387 . S
H480 C492 0.930 . S
H481 C494 0.930 . S
H482 C495 0.930 . S
H483 C499 0.959 . S
H484 C499 0.959 . S
H485 C499 0.961 . S
H486 C500 0.959 1_554 S
H487 C500 0.961 . S
H488 C500 0.959 1_554 S
H489 C503 0.929 . S
H490 C504 0.931 . S
H491 C506 0.930 . S
C492 H480 0.930 . S
C492 C493 1.399 . S
C492 C497 1.399 . S
C493 C492 1.399 . S
C493 C494 1.376 . S
C494 H481 0.930 . S
C494 C493 1.376 . S
C494 C495 1.388 . S
C495 H482 0.930 . S
C495 C494 1.388 . S
C495 C496 1.390 . S
C496 C495 1.390 . S
C496 C497 1.394 . S
C496 C502 1.465 . S
C497 C492 1.399 . S
C497 C496 1.394 . S
C497 C498 1.516 1_554 S
C498 C497 1.516 1_556 S
C498 C499 1.502 . S
C498 C500 1.561 . S
C498 C501 1.526 . S
C499 H483 0.959 . S
C499 H484 0.959 . S
C499 H485 0.961 . S
C499 C498 1.502 . S
C500 H486 0.959 1_556 S
C500 H487 0.961 . S
C500 H488 0.959 1_556 S
C500 C498 1.561 . S
C501 C498 1.526 . S
C501 C502 1.396 1_556 S
C501 C506 1.390 . S
C502 C496 1.465 . S
C502 C501 1.396 1_554 S
C502 C503 1.399 . S
C503 H489 0.929 . S
C503 C502 1.399 . S
C503 C504 1.385 1_554 S
C504 H490 0.931 . S
C504 C503 1.385 1_556 S
C504 C505 1.389 . S
C505 C504 1.389 . S
C505 C506 1.387 . S
C506 H491 0.930 . S
C506 C501 1.390 . S
C506 C505 1.387 . S
H507 C519 0.930 . S
H508 C521 0.930 . S
H509 C522 0.930 . S
H510 C526 0.959 . S
H511 C526 0.959 . S
H512 C526 0.961 . S
H513 C527 0.960 . S
H514 C527 0.961 . S
H515 C527 0.959 . S
H516 C530 0.929 . S
H517 C531 0.931 . S
H518 C533 0.930 . S
C519 H507 0.930 . S
C519 C520 1.399 . S
C519 C524 1.399 . S
C520 C519 1.399 . S
C520 C521 1.376 . S
C521 H508 0.930 . S
C521 C520 1.376 . S
C521 C522 1.388 . S
C522 H509 0.930 . S
C522 C521 1.388 . S
C522 C523 1.390 . S
C523 C522 1.390 . S
C523 C524 1.394 . S
C523 C529 1.465 1_655 S
C524 C519 1.399 . S
C524 C523 1.394 . S
C524 C525 1.516 . S
C525 C524 1.516 . S
C525 C526 1.502 . S
C525 C527 1.561 . S
C525 C528 1.551 . S
C526 H510 0.959 . S
C526 H511 0.959 . S
C526 H512 0.961 . S
C526 C525 1.502 . S
C527 H513 0.960 . S
C527 H514 0.961 . S
C527 H515 0.959 . S
C527 C525 1.561 . S
C528 C525 1.551 . S
C528 C529 1.382 1_655 S
C528 C533 1.378 1_655 S
C529 C523 1.465 1_455 S
C529 C528 1.382 1_455 S
C529 C530 1.399 . S
C530 H516 0.929 . S
C530 C529 1.399 . S
C530 C531 1.385 . S
C531 H517 0.931 . S
C531 C530 1.385 . S
C531 C532 1.389 . S
C532 C531 1.389 . S
C532 C533 1.387 . S
C533 H518 0.930 . S
C533 C528 1.378 1_455 S
C533 C532 1.387 . S
H534 C546 0.930 . S
H535 C548 0.930 . S
H536 C549 0.930 . S
H537 C553 0.959 . S
H538 C553 0.959 . S
H539 C553 0.961 . S
H540 C554 0.960 . S
H541 C554 0.961 . S
H542 C554 0.959 . S
H543 C557 0.929 . S
H544 C558 0.931 . S
H545 C560 0.930 . S
C546 H534 0.930 . S
C546 C547 1.399 . S
C546 C551 1.399 . S
C547 C546 1.399 . S
C547 C548 1.376 . S
C548 H535 0.930 . S
C548 C547 1.376 . S
C548 C549 1.388 1_545 S
C549 H536 0.930 . S
C549 C548 1.388 1_565 S
C549 C550 1.390 . S
C550 C549 1.390 . S
C550 C551 1.394 1_565 S
C550 C556 1.465 . S
C551 C546 1.399 . S
C551 C550 1.394 1_545 S
C551 C552 1.516 . S
C552 C551 1.516 . S
C552 C553 1.502 . S
C552 C554 1.561 . S
C552 C555 1.526 1_545 S
C553 H537 0.959 . S
C553 H538 0.959 . S
C553 H539 0.961 . S
C553 C552 1.502 . S
C554 H540 0.960 . S
C554 H541 0.961 . S
C554 H542 0.959 . S
C554 C552 1.561 . S
C555 C552 1.526 1_565 S
C555 C556 1.396 . S
C555 C560 1.390 . S
C556 C550 1.465 . S
C556 C555 1.396 . S
C556 C557 1.399 . S
C557 H543 0.929 . S
C557 C556 1.399 . S
C557 C558 1.385 . S
C558 H544 0.931 . S
C558 C557 1.385 . S
C558 C559 1.389 . S
C559 C558 1.389 . S
C559 C560 1.387 . S
C560 H545 0.930 . S
C560 C555 1.390 . S
C560 C559 1.387 . S
H561 C573 0.930 . S
H562 C575 0.930 . S
H563 C576 0.930 . S
H564 C580 0.959 . S
H565 C580 0.959 . S
H566 C580 0.961 . S
H567 C581 0.960 . S
H568 C581 0.961 . S
H569 C581 0.959 . S
H570 C584 0.929 . S
H571 C585 0.931 . S
H572 C587 0.930 . S
C573 H561 0.930 . S
C573 C574 1.399 . S
C573 C578 1.399 . S
C574 C573 1.399 . S
C574 C575 1.376 . S
C575 H562 0.930 . S
C575 C574 1.376 . S
C575 C576 1.388 . S
C576 H563 0.930 . S
C576 C575 1.388 . S
C576 C577 1.390 . S
C577 C576 1.390 . S
C577 C578 1.394 . S
C577 C583 1.465 . S
C578 C573 1.399 . S
C578 C577 1.394 . S
C578 C579 1.516 . S
C579 C578 1.516 . S
C579 C580 1.502 . S
C579 C581 1.561 . S
C579 C582 1.526 . S
C580 H564 0.959 . S
C580 H565 0.959 . S
C580 H566 0.961 . S
C580 C579 1.502 . S
C581 H567 0.960 . S
C581 H568 0.961 . S
C581 H569 0.959 . S
C581 C579 1.561 . S
C582 C579 1.526 . S
C582 C583 1.396 . S
C582 C587 1.390 . S
C583 C577 1.465 . S
C583 C582 1.396 . S
C583 C584 1.399 . S
C584 H570 0.929 . S
C584 C583 1.399 . S
C584 C585 1.385 . S
C585 H571 0.931 . S
C585 C584 1.385 . S
C585 C586 1.389 . S
C586 C585 1.389 . S
C586 C587 1.387 . S
C587 H572 0.930 . S
C587 C582 1.390 . S
C587 C586 1.387 . S
H588 C600 0.930 . S
H589 C602 0.930 . S
H590 C603 0.930 . S
H591 C607 0.959 . S
H592 C607 0.959 . S
H593 C607 0.961 . S
H594 C608 0.960 . S
H595 C608 0.961 1_655 S
H596 C608 0.959 . S
H597 C611 0.929 . S
H598 C612 0.931 . S
H599 C614 0.930 . S
C600 H588 0.930 . S
C600 C601 1.399 . S
C600 C605 1.399 . S
C601 C600 1.399 . S
C601 C602 1.376 . S
C602 H589 0.930 . S
C602 C601 1.376 . S
C602 C603 1.388 . S
C603 H590 0.930 . S
C603 C602 1.388 . S
C603 C604 1.390 . S
C604 C603 1.390 . S
C604 C605 1.394 . S
C604 C610 1.465 . S
C605 C600 1.399 . S
C605 C604 1.394 . S
C605 C606 1.516 . S
C606 C605 1.516 . S
C606 C607 1.502 1_455 S
C606 C608 1.561 . S
C606 C609 1.526 1_455 S
C607 H591 0.959 . S
C607 H592 0.959 . S
C607 H593 0.961 . S
C607 C606 1.502 1_655 S
C608 H594 0.960 . S
C608 H595 0.961 1_455 S
C608 H596 0.959 . S
C608 C606 1.561 . S
C609 C606 1.526 1_655 S
C609 C610 1.396 1_655 S
C609 C614 1.390 . S
C610 C604 1.465 . S
C610 C609 1.396 1_455 S
C610 C611 1.399 . S
C611 H597 0.929 . S
C611 C610 1.399 . S
C611 C612 1.385 1_455 S
C612 H598 0.931 . S
C612 C611 1.385 1_655 S
C612 C613 1.389 . S
C613 C612 1.389 . S
C613 C614 1.387 . S
C614 H599 0.930 . S
C614 C609 1.390 . S
C614 C613 1.387 . S
H615 C627 0.930 . S
H616 C629 0.930 . S
H617 C630 0.930 . S
H618 C634 0.959 . S
H619 C634 0.959 . S
H620 C634 0.961 . S
H621 C635 0.960 . S
H622 C635 0.961 . S
H623 C635 0.959 1_565 S
H624 C638 0.929 . S
H625 C639 0.931 . S
H626 C641 0.930 . S
C627 H615 0.930 . S
C627 C628 1.399 . S
C627 C632 1.399 . S
C628 C627 1.399 . S
C628 C629 1.376 . S
C629 H616 0.930 . S
C629 C628 1.376 . S
C629 C630 1.388 . S
C630 H617 0.930 . S
C630 C629 1.388 . S
C630 C631 1.390 . S
C631 C630 1.390 . S
C631 C632 1.394 . S
C631 C637 1.465 1_545 S
C632 C627 1.399 . S
C632 C631 1.394 . S
C632 C633 1.516 . S
C633 C632 1.516 . S
C633 C634 1.502 . S
C633 C635 1.561 . S
C633 C636 1.522 1_545 S
C634 H618 0.959 . S
C634 H619 0.959 . S
C634 H620 0.961 . S
C634 C633 1.502 . S
C635 H621 0.960 . S
C635 H622 0.961 . S
C635 H623 0.959 1_545 S
C635 C633 1.561 . S
C636 C633 1.522 1_565 S
C636 C637 1.393 . S
C636 C641 1.396 . S
C637 C631 1.465 1_565 S
C637 C636 1.393 . S
C637 C638 1.399 . S
C638 H624 0.929 . S
C638 C637 1.399 . S
C638 C639 1.385 . S
C639 H625 0.931 . S
C639 C638 1.385 . S
C639 C640 1.389 . S
C640 C639 1.389 . S
C640 C641 1.387 . S
C641 H626 0.930 . S
C641 C636 1.396 . S
C641 C640 1.387 . S
H642 C654 0.930 . S
H643 C656 0.930 . S
H644 C657 0.930 . S
H645 C661 0.959 . S
H646 C661 0.959 . S
H647 C661 0.961 . S
H648 C662 0.960 . S
H649 C662 0.961 . S
H650 C662 0.959 . S
H651 C665 0.929 . S
H652 C666 0.931 . S
H653 C668 0.930 . S
C654 H642 0.930 . S
C654 C655 1.399 . S
C654 C659 1.399 . S
C655 C654 1.399 . S
C655 C656 1.376 . S
C656 H643 0.930 . S
C656 C655 1.376 . S
C656 C657 1.388 . S
C657 H644 0.930 . S
C657 C656 1.388 . S
C657 C658 1.390 . S
C658 C657 1.390 . S
C658 C659 1.394 . S
C658 C664 1.465 . S
C659 C654 1.399 . S
C659 C658 1.394 . S
C659 C660 1.516 . S
C660 C659 1.516 . S
C660 C661 1.502 . S
C660 C662 1.561 . S
C660 C663 1.526 . S
C661 H645 0.959 . S
C661 H646 0.959 . S
C661 H647 0.961 . S
C661 C660 1.502 . S
C662 H648 0.960 . S
C662 H649 0.961 . S
C662 H650 0.959 . S
C662 C660 1.561 . S
C663 C660 1.526 . S
C663 C664 1.396 . S
C663 C668 1.390 . S
C664 C658 1.465 . S
C664 C663 1.396 . S
C664 C665 1.399 . S
C665 H651 0.929 . S
C665 C664 1.399 . S
C665 C666 1.385 . S
C666 H652 0.931 . S
C666 C665 1.385 . S
C666 C667 1.389 . S
C667 C666 1.389 . S
C667 C668 1.387 . S
C668 H653 0.930 . S
C668 C663 1.390 . S
C668 C667 1.387 . S
H669 C681 0.930 . S
H670 C683 0.930 . S
H671 C684 0.930 . S
H672 C688 0.959 . S
H673 C688 0.959 . S
H674 C688 0.961 . S
H675 C689 0.960 . S
H676 C689 0.961 . S
H677 C689 0.959 1_455 S
H678 C692 0.929 . S
H679 C693 0.931 . S
H680 C695 0.930 . S
C681 H669 0.930 . S
C681 C682 1.399 . S
C681 C686 1.399 . S
C682 C681 1.399 . S
C682 C683 1.376 . S
C683 H670 0.930 . S
C683 C682 1.376 . S
C683 C684 1.388 . S
C684 H671 0.930 . S
C684 C683 1.388 . S
C684 C685 1.390 . S
C685 C684 1.390 . S
C685 C686 1.394 . S
C685 C691 1.465 1_655 S
C686 C681 1.399 . S
C686 C685 1.394 . S
C686 C687 1.516 . S
C687 C686 1.516 . S
C687 C688 1.502 1_556 S
C687 C689 1.561 . S
C687 C690 1.519 1_656 S
C688 H672 0.959 . S
C688 H673 0.959 . S
C688 H674 0.961 . S
C688 C687 1.502 1_554 S
C689 H675 0.960 . S
C689 H676 0.961 . S
C689 H677 0.959 1_655 S
C689 C687 1.561 . S
C690 C687 1.519 1_454 S
C690 C691 1.390 1_554 S
C690 C695 1.401 . S
C691 C685 1.465 1_455 S
C691 C690 1.390 1_556 S
C691 C692 1.399 . S
C692 H678 0.929 . S
C692 C691 1.399 . S
C692 C693 1.385 1_556 S
C693 H679 0.931 . S
C693 C692 1.385 1_554 S
C693 C694 1.389 . S
C694 C693 1.389 . S
C694 C695 1.387 . S
C695 H680 0.930 . S
C695 C690 1.401 . S
C695 C694 1.387 . S
H696 C708 0.930 . S
H697 C710 0.930 . S
H698 C711 0.930 . S
H699 C715 0.959 . S
H700 C715 0.959 . S
H701 C715 0.961 . S
H702 C716 0.960 . S
H703 C716 0.961 . S
H704 C716 0.959 . S
H705 C719 0.929 . S
H706 C720 0.931 . S
H707 C722 0.930 . S
C708 H696 0.930 . S
C708 C709 1.399 . S
C708 C713 1.399 . S
C709 C708 1.399 . S
C709 C710 1.376 . S
C710 H697 0.930 . S
C710 C709 1.376 . S
C710 C711 1.388 . S
C711 H698 0.930 . S
C711 C710 1.388 . S
C711 C712 1.390 . S
C712 C711 1.390 . S
C712 C713 1.394 . S
C712 C718 1.465 . S
C713 C708 1.399 . S
C713 C712 1.394 . S
C713 C714 1.516 1_565 S
C714 C713 1.516 1_545 S
C714 C715 1.502 . S
C714 C716 1.561 . S
C714 C717 1.526 . S
C715 H699 0.959 . S
C715 H700 0.959 . S
C715 H701 0.961 . S
C715 C714 1.502 . S
C716 H702 0.960 . S
C716 H703 0.961 . S
C716 H704 0.959 . S
C716 C714 1.561 . S
C717 C714 1.526 . S
C717 C718 1.396 1_545 S
C717 C722 1.390 . S
C718 C712 1.465 . S
C718 C717 1.396 1_565 S
C718 C719 1.399 . S
C719 H705 0.929 . S
C719 C718 1.399 . S
C719 C720 1.385 1_565 S
C720 H706 0.931 . S
C720 C719 1.385 1_545 S
C720 C721 1.389 . S
C721 C720 1.389 . S
C721 C722 1.387 . S
C722 H707 0.930 . S
C722 C717 1.390 . S
C722 C721 1.387 . S
H723 C735 0.930 . S
H724 C737 0.930 . S
H725 C738 0.930 . S
H726 C742 0.959 . S
H727 C742 0.959 . S
H728 C742 0.961 . S
H729 C743 0.960 . S
H730 C743 0.961 . S
H731 C743 0.959 . S
H732 C746 0.929 . S
H733 C747 0.931 . S
H734 C749 0.930 . S
C735 H723 0.930 . S
C735 C736 1.399 . S
C735 C740 1.399 . S
C736 C735 1.399 . S
C736 C737 1.376 . S
C737 H724 0.930 . S
C737 C736 1.376 . S
C737 C738 1.388 . S
C738 H725 0.930 . S
C738 C737 1.388 . S
C738 C739 1.390 . S
C739 C738 1.390 . S
C739 C740 1.394 . S
C739 C745 1.465 . S
C740 C735 1.399 . S
C740 C739 1.394 . S
C740 C741 1.516 . S
C741 C740 1.516 . S
C741 C742 1.502 . S
C741 C743 1.561 . S
C741 C744 1.526 . S
C742 H726 0.959 . S
C742 H727 0.959 . S
C742 H728 0.961 . S
C742 C741 1.502 . S
C743 H729 0.960 . S
C743 H730 0.961 . S
C743 H731 0.959 . S
C743 C741 1.561 . S
C744 C741 1.526 . S
C744 C745 1.396 . S
C744 C749 1.390 . S
C745 C739 1.465 . S
C745 C744 1.396 . S
C745 C746 1.399 . S
C746 H732 0.929 . S
C746 C745 1.399 . S
C746 C747 1.385 . S
C747 H733 0.931 . S
C747 C746 1.385 . S
C747 C748 1.389 . S
C748 C747 1.389 . S
C748 C749 1.387 . S
C749 H734 0.930 . S
C749 C744 1.390 . S
C749 C748 1.387 . S
H750 C762 0.930 . S
H751 C764 0.930 . S
H752 C765 0.930 . S
H753 C769 0.959 . S
H754 C769 0.959 . S
H755 C769 0.961 . S
H756 C770 0.960 . S
H757 C770 0.961 . S
H758 C770 0.959 . S
H759 C773 0.929 . S
H760 C774 0.931 . S
H761 C776 0.930 . S
C762 H750 0.930 . S
C762 C763 1.399 . S
C762 C767 1.399 . S
C763 C762 1.399 . S
C763 C764 1.376 . S
C764 H751 0.930 . S
C764 C763 1.376 . S
C764 C765 1.388 . S
C765 H752 0.930 . S
C765 C764 1.388 . S
C765 C766 1.390 . S
C766 C765 1.390 . S
C766 C767 1.394 . S
C766 C772 1.465 1_455 S
C767 C762 1.399 . S
C767 C766 1.394 . S
C767 C768 1.516 . S
C768 C767 1.516 . S
C768 C769 1.502 . S
C768 C770 1.561 . S
C768 C771 1.526 . S
C769 H753 0.959 . S
C769 H754 0.959 . S
C769 H755 0.961 . S
C769 C768 1.502 . S
C770 H756 0.960 . S
C770 H757 0.961 . S
C770 H758 0.959 . S
C770 C768 1.561 . S
C771 C768 1.526 . S
C771 C772 1.396 1_455 S
C771 C776 1.390 1_455 S
C772 C766 1.465 1_655 S
C772 C771 1.396 1_655 S
C772 C773 1.399 . S
C773 H759 0.929 . S
C773 C772 1.399 . S
C773 C774 1.385 . S
C774 H760 0.931 . S
C774 C773 1.385 . S
C774 C775 1.389 . S
C775 C774 1.389 . S
C775 C776 1.387 . S
C776 H761 0.930 . S
C776 C771 1.390 1_655 S
C776 C775 1.387 . S
H777 C789 0.930 . S
H778 C791 0.930 . S
H779 C792 0.930 . S
H780 C796 0.959 . S
H781 C796 0.959 . S
H782 C796 0.961 . S
H783 C797 0.960 . S
H784 C797 0.961 . S
H785 C797 0.959 . S
H786 C800 0.929 . S
H787 C801 0.931 . S
H788 C803 0.930 . S
C789 H777 0.930 . S
C789 C790 1.399 . S
C789 C794 1.399 1_565 S
C790 C789 1.399 . S
C790 C791 1.376 . S
C791 H778 0.930 . S
C791 C790 1.376 . S
C791 C792 1.388 . S
C792 H779 0.930 . S
C792 C791 1.388 . S
C792 C793 1.390 . S
C793 C792 1.390 . S
C793 C794 1.394 1_565 S
C793 C799 1.465 1_565 S
C794 C789 1.399 1_545 S
C794 C793 1.394 1_545 S
C794 C795 1.516 . S
C795 C794 1.516 . S
C795 C796 1.502 . S
C795 C797 1.561 . S
C795 C798 1.526 . S
C796 H780 0.959 . S
C796 H781 0.959 . S
C796 H782 0.961 . S
C796 C795 1.502 . S
C797 H783 0.960 . S
C797 H784 0.961 . S
C797 H785 0.959 . S
C797 C795 1.561 . S
C798 C795 1.526 . S
C798 C799 1.396 . S
C798 C803 1.390 . S
C799 C793 1.465 1_545 S
C799 C798 1.396 . S
C799 C800 1.399 . S
C800 H786 0.929 . S
C800 C799 1.399 . S
C800 C801 1.385 . S
C801 H787 0.931 . S
C801 C800 1.385 . S
C801 C802 1.389 . S
C802 C801 1.389 . S
C802 C803 1.387 . S
C803 H788 0.930 . S
C803 C798 1.390 . S
C803 C802 1.387 . S
C169 C108 1.230 . S
C181 C4 1.233 . S
C196 C17 1.236 . S
C208 C127 1.227 . S
C223 C30 1.245 . S
C235 C140 1.226 . S
C250 C49 1.225 . S
C262 C153 1.241 . S
C277 C88 1.234 . S
C289 C56 1.244 . S
C304 C69 1.245 . S
C316 C95 1.231 . S
C331 C120 1.002 . S
C343 C5 1.016 . S
C358 C18 1.020 . S
C370 C133 1.024 . S
C385 C146 1.020 . S
C397 C31 1.008 . S
C412 C42 1.024 . S
C424 C81 1.016 . S
C439 C96 0.980 . S
C451 C57 0.984 . S
C466 C109 1.021 . S
C478 C70 1.009 . S
C493 C3 1.558 . S
C505 C75 1.569 . S
C520 C16 1.566 . S
C532 C10 1.567 . S
C547 C23 1.601 . S
C559 C29 1.588 . S
C574 C44 1.596 . S
C586 C36 1.599 . S
C601 C55 1.589 . S
C613 C43 1.601 . S
C628 C68 1.568 . S
C640 C62 1.568 . S
C655 C83 1.588 . S
C667 C101 1.578 . S
C682 C94 1.568 . S
C694 C114 1.568 . S
C709 C107 1.598 . S
C721 C121 1.595 . S
C736 C122 1.565 . S
C748 C134 1.567 . S
C763 C135 1.562 . S
C775 C147 1.567 . S
C790 C82 1.567 . S
C802 C148 1.564 . S
