# Generated by pormake.
# Topology uoq, (4)-cn, num edge types: 1
# Building blocks:
#     Node 0, Type 0, BuildingBlock: CEKHIL_clean_sbu_0, # of connection points: 4
#     Node 1, Type 0, BuildingBlock: CEKHIL_clean_sbu_0, # of connection points: 4
#     Node 2, Type 0, BuildingBlock: CEKHIL_clean_sbu_0, # of connection points: 4
#     Node 3, Type 0, BuildingBlock: CEKHIL_clean_sbu_0, # of connection points: 4
#     Node 4, Type 0, BuildingBlock: CEKHIL_clean_sbu_0, # of connection points: 4
#     Node 5, Type 0, BuildingBlock: CEKHIL_clean_sbu_0, # of connection points: 4
#     Node 6, Type 0, BuildingBlock: CEKHIL_clean_sbu_0, # of connection points: 4
#     Node 7, Type 0, BuildingBlock: CEKHIL_clean_sbu_0, # of connection points: 4
#     Node 8, Type 0, BuildingBlock: CEKHIL_clean_sbu_0, # of connection points: 4
#     Node 9, Type 0, BuildingBlock: CEKHIL_clean_sbu_0, # of connection points: 4
#     Node 10, Type 0, BuildingBlock: CEKHIL_clean_sbu_0, # of connection points: 4
#     Node 11, Type 0, BuildingBlock: CEKHIL_clean_sbu_0, # of connection points: 4
#     Edge 12, Type (0, 0), BuildingBlock: CIFDUS_clean_linker_0, # of connection points: 2
#     Edge 13, Type (0, 0), BuildingBlock: CIFDUS_clean_linker_0, # of connection points: 2
#     Edge 14, Type (0, 0), BuildingBlock: CIFDUS_clean_linker_0, # of connection points: 2
#     Edge 15, Type (0, 0), BuildingBlock: CIFDUS_clean_linker_0, # of connection points: 2
#     Edge 16, Type (0, 0), BuildingBlock: CIFDUS_clean_linker_0, # of connection points: 2
#     Edge 17, Type (0, 0), BuildingBlock: CIFDUS_clean_linker_0, # of connection points: 2
#     Edge 18, Type (0, 0), BuildingBlock: CIFDUS_clean_linker_0, # of connection points: 2
#     Edge 19, Type (0, 0), BuildingBlock: CIFDUS_clean_linker_0, # of connection points: 2
#     Edge 20, Type (0, 0), BuildingBlock: CIFDUS_clean_linker_0, # of connection points: 2
#     Edge 21, Type (0, 0), BuildingBlock: CIFDUS_clean_linker_0, # of connection points: 2
#     Edge 22, Type (0, 0), BuildingBlock: CIFDUS_clean_linker_0, # of connection points: 2
#     Edge 23, Type (0, 0), BuildingBlock: CIFDUS_clean_linker_0, # of connection points: 2
#     Edge 24, Type (0, 0), BuildingBlock: CIFDUS_clean_linker_0, # of connection points: 2
#     Edge 25, Type (0, 0), BuildingBlock: CIFDUS_clean_linker_0, # of connection points: 2
#     Edge 26, Type (0, 0), BuildingBlock: CIFDUS_clean_linker_0, # of connection points: 2
#     Edge 27, Type (0, 0), BuildingBlock: CIFDUS_clean_linker_0, # of connection points: 2
#     Edge 28, Type (0, 0), BuildingBlock: CIFDUS_clean_linker_0, # of connection points: 2
#     Edge 29, Type (0, 0), BuildingBlock: CIFDUS_clean_linker_0, # of connection points: 2
#     Edge 30, Type (0, 0), BuildingBlock: CIFDUS_clean_linker_0, # of connection points: 2
#     Edge 31, Type (0, 0), BuildingBlock: CIFDUS_clean_linker_0, # of connection points: 2
#     Edge 32, Type (0, 0), BuildingBlock: CIFDUS_clean_linker_0, # of connection points: 2
#     Edge 33, Type (0, 0), BuildingBlock: CIFDUS_clean_linker_0, # of connection points: 2
#     Edge 34, Type (0, 0), BuildingBlock: CIFDUS_clean_linker_0, # of connection points: 2
#     Edge 35, Type (0, 0), BuildingBlock: CIFDUS_clean_linker_0, # of connection points: 2
# Relax obj value: 0.170
# Max RMSD: 0.159
# Mean RMSD: 0.159
data_MOF--net-uoq--node1-CEKHIL_clean_sbu_0--edge1-CIFDUS_clean_linker_0
_symmetry_space_group_name_H-M    P1
_symmetry_Int_Tables_number       1
_symmetry_cell_setting            triclinic
loop_
_symmetry_equiv_pos_as_xyz
'x, y, z'
_cell_length_a     51.290102
_cell_length_b     51.381047
_cell_length_c     18.517478
_cell_angle_alpha  90.028818
_cell_angle_beta   89.723729
_cell_angle_gamma 120.27397
loop_
_atom_site_label
_atom_site_type_symbol
_atom_site_fract_x
_atom_site_fract_y
_atom_site_fract_z
_atom_type_partial_charge
Co0 Co 0.30981 0.43785 0.26494 0.0
O1 O 0.27025 0.41204 0.22282 0.0
O2 O 0.30331 0.4574 0.18262 0.0
C3 C 0.3235 0.40249 0.2797 0.0
O4 O 0.35274 0.47076 0.29065 0.0
Co5 Co 0.32681 0.42729 0.42044 0.0
O6 O 0.36761 0.46051 0.39595 0.0
C7 C 0.29051 0.45674 0.4014 0.0
C8 C 0.27677 0.4335 0.17649 0.0
C9 C 0.37266 0.47683 0.34007 0.0
O10 O 0.29267 0.45652 0.33206 0.0
O11 O 0.30068 0.44443 0.44407 0.0
O12 O 0.32609 0.41484 0.21664 0.0
O13 O 0.31003 0.40946 0.3281 0.0
Co14 Co 0.87666 0.31135 0.5993 0.0
O15 O 0.85973 0.2719 0.55314 0.0
O16 O 0.85051 0.30775 0.52035 0.0
C17 C 0.92518 0.32217 0.61 0.0
O18 O 0.88966 0.35464 0.62803 0.0
Co19 Co 0.90606 0.32685 0.75248 0.0
O20 O 0.91601 0.36851 0.7316 0.0
C21 C 0.83976 0.29162 0.73803 0.0
C22 C 0.84542 0.28056 0.51052 0.0
C23 C 0.9049 0.37434 0.67688 0.0
O24 O 0.84139 0.29505 0.66888 0.0
O25 O 0.86283 0.30071 0.77857 0.0
O26 O 0.9154 0.32602 0.54836 0.0
O27 O 0.90489 0.30924 0.65932 0.0
Co28 Co 0.5587 0.86947 0.92815 0.0
O29 O 0.58068 0.8538 0.87469 0.0
O30 O 0.53435 0.84329 0.85009 0.0
C31 C 0.59664 0.91816 0.93702 0.0
O32 O 0.52869 0.88131 0.96832 0.0
Co33 Co 0.57858 0.89786 0.08256 0.0
O34 O 0.545 0.9059 0.07426 0.0
C35 C 0.54459 0.83173 0.06443 0.0
C36 C 0.55675 0.83907 0.83505 0.0
C37 C 0.52585 0.89518 1.02335 0.0
O38 O 0.54174 0.83385 0.99598 0.0
O39 O 0.56002 0.85435 0.10555 0.0
O40 O 0.58105 0.9086 0.87774 0.0
O41 O 0.59093 0.89765 0.98427 0.0
Co42 Co 0.70641 0.57265 0.28071 0.0
O43 O 0.74637 0.59808 0.23806 0.0
O44 O 0.71549 0.55092 0.20744 0.0
C45 C 0.69147 0.60763 0.27771 0.0
O46 O 0.66347 0.53923 0.30686 0.0
Co47 Co 0.68257 0.58832 0.42168 0.0
O48 O 0.64388 0.55145 0.40125 0.0
C49 C 0.72478 0.56487 0.43059 0.0
C50 C 0.7412 0.57547 0.19687 0.0
C51 C 0.64179 0.53337 0.35159 0.0
O52 O 0.72338 0.55895 0.36215 0.0
O53 O 0.71321 0.57939 0.45917 0.0
O54 O 0.68962 0.59247 0.2196 0.0
O55 O 0.70383 0.60262 0.33157 0.0
Co56 Co 0.13746 0.70075 0.59712 0.0
O57 O 0.154 0.74136 0.55796 0.0
O58 O 0.16522 0.70805 0.51657 0.0
C59 C 0.0885 0.6896 0.60652 0.0
O60 O 0.12489 0.65676 0.61883 0.0
Co61 Co 0.10337 0.67947 0.7463 0.0
O62 O 0.09455 0.63907 0.71668 0.0
C63 C 0.17036 0.71324 0.74033 0.0
C64 C 0.16885 0.7349 0.51112 0.0
C65 C 0.10821 0.63543 0.66355 0.0
O66 O 0.17124 0.71489 0.67051 0.0
O67 O 0.14601 0.70181 0.77755 0.0
O68 O 0.09922 0.68724 0.54448 0.0
O69 O 0.10794 0.70069 0.65738 0.0
Co70 Co 0.44971 0.13822 0.94588 0.0
O71 O 0.42718 0.15516 0.89999 0.0
O72 O 0.47227 0.16424 0.866 0.0
C73 C 0.41173 0.08974 0.95831 0.0
O74 O 0.48014 0.12541 0.9737 0.0
Co75 Co 0.43628 0.10941 0.10026 0.0
O76 O 0.46876 0.10048 0.0796 0.0
C77 C 0.46742 0.17544 0.08345 0.0
C78 C 0.45024 0.16943 0.85667 0.0
C79 C 0.48523 0.11102 1.02347 0.0
O80 O 0.46916 0.17358 1.01436 0.0
O81 O 0.45332 0.15255 0.12489 0.0
O82 O 0.42513 0.09949 0.89604 0.0
O83 O 0.4194 0.10997 1.00746 0.0
Co84 Co 0.56496 0.69677 0.45245 0.0
O85 O 0.59041 0.73689 0.49203 0.0
O86 O 0.54582 0.70351 0.53593 0.0
C87 C 0.60144 0.68464 0.43581 0.0
O88 O 0.53255 0.65325 0.42956 0.0
Co89 Co 0.57471 0.67892 0.29644 0.0
O90 O 0.54283 0.63806 0.32438 0.0
C91 C 0.54428 0.71429 0.31697 0.0
C92 C 0.56935 0.73039 0.53987 0.0
C93 C 0.52674 0.63305 0.38091 0.0
O94 O 0.54479 0.71237 0.38625 0.0
O95 O 0.55678 0.70435 0.27383 0.0
O96 O 0.58965 0.68228 0.49964 0.0
O97 O 0.59315 0.69682 0.38737 0.0
Co98 Co 0.87421 0.56232 0.78922 0.0
O99 O 0.85615 0.58422 0.83445 0.0
O100 O 0.84833 0.53999 0.87011 0.0
C101 C 0.92222 0.60172 0.77633 0.0
O102 O 0.88836 0.53257 0.76368 0.0
Co103 Co 0.90523 0.57544 0.63703 0.0
O104 O 0.91703 0.54571 0.66316 0.0
C105 C 0.83865 0.54078 0.64937 0.0
C106 C 0.84273 0.56173 0.87945 0.0
C107 C 0.90497 0.52862 0.71756 0.0
O108 O 0.83932 0.54173 0.71916 0.0
O109 O 0.86212 0.55377 0.60914 0.0
O110 O 0.91281 0.58837 0.83873 0.0
O111 O 0.90199 0.59268 0.72705 0.0
Co112 Co 0.31261 0.87221 0.10432 0.0
O113 O 0.27392 0.85408 0.1559 0.0
O114 O 0.30898 0.84219 0.17437 0.0
C115 C 0.32404 0.92118 0.11101 0.0
O116 O 0.35529 0.88577 0.06644 0.0
Co117 Co 0.32666 0.91088 0.9624 0.0
O118 O 0.36801 0.91805 0.97288 0.0
C119 C 0.29433 0.84406 0.95529 0.0
C120 C 0.28253 0.83799 0.19169 0.0
C121 C 0.37419 0.90322 1.01787 0.0
O122 O 0.29534 0.8409 1.0244 0.0
O123 O 0.3036 0.86941 0.92398 0.0
O124 O 0.32896 0.9085 0.1661 0.0
O125 O 0.3101 0.90338 0.05843 0.0
Co126 Co 0.44716 0.31335 0.47171 0.0
O127 O 0.42037 0.27368 0.51282 0.0
O128 O 0.46545 0.30591 0.55527 0.0
C129 C 0.41186 0.32708 0.45519 0.0
O130 O 0.48097 0.35632 0.44723 0.0
Co131 Co 0.43844 0.33162 0.31576 0.0
O132 O 0.47228 0.3718 0.34079 0.0
C133 C 0.46583 0.29346 0.33613 0.0
C134 C 0.44117 0.27957 0.5604 0.0
C135 C 0.48801 0.3764 0.39736 0.0
O136 O 0.46593 0.296 0.40542 0.0
O137 O 0.45395 0.30403 0.29331 0.0
O138 O 0.42374 0.32959 0.51867 0.0
O139 O 0.41958 0.31418 0.40717 0.0
Co140 Co 0.13898 0.44801 0.79224 0.0
O141 O 0.15539 0.42527 0.83888 0.0
O142 O 0.16469 0.47034 0.87245 0.0
C143 C 0.09057 0.40987 0.77986 0.0
O144 O 0.12636 0.47848 0.76245 0.0
Co145 Co 0.11051 0.43406 0.63783 0.0
O146 O 0.10114 0.46619 0.65717 0.0
C147 C 0.17674 0.46554 0.65513 0.0
C148 C 0.16953 0.4481 0.88225 0.0
C149 C 0.11185 0.48314 0.71214 0.0
O150 O 0.17472 0.46725 0.72417 0.0
O151 O 0.15392 0.45148 0.61378 0.0
O152 O 0.09986 0.42353 0.84171 0.0
O153 O 0.11115 0.41763 0.73123 0.0
Co154 Co 0.70226 0.13193 0.12764 0.0
O155 O 0.74201 0.14512 0.16773 0.0
O156 O 0.7097 0.15764 0.21117 0.0
C157 C 0.68778 0.08271 0.11056 0.0
O158 O 0.65929 0.12241 0.10494 0.0
Co159 Co 0.68359 0.10524 0.97183 0.0
O160 O 0.64301 0.09689 1.00039 0.0
C161 C 0.72187 0.17092 0.99229 0.0
C162 C 0.73608 0.15997 0.21558 0.0
C163 C 0.63869 0.10829 0.05703 0.0
O164 O 0.71963 0.16824 0.06161 0.0
O165 O 0.71098 0.14852 0.94904 0.0
O166 O 0.68583 0.09224 0.17446 0.0
O167 O 0.70101 0.1034 0.06243 0.0
H168 H 0.3324 0.38795 0.41488 0.0
H169 H 0.35088 0.38072 0.19039 0.0
H170 H 0.37883 0.35566 0.22558 0.0
H171 H 0.39848 0.33687 0.31989 0.0
H172 H 0.38438 0.34874 0.54462 0.0
H173 H 0.35419 0.37144 0.50934 0.0
C174 C 0.34266 0.38117 0.37337 0.0
C175 C 0.33962 0.38638 0.29986 0.0
C176 C 0.3595 0.36777 0.39416 0.0
C177 C 0.35289 0.37704 0.24718 0.0
C178 C 0.3689 0.36277 0.26736 0.0
C179 C 0.38904 0.34454 0.36145 0.0
C180 C 0.39378 0.34114 0.43503 0.0
C181 C 0.37248 0.35823 0.34069 0.0
C182 C 0.38116 0.35117 0.48778 0.0
C183 C 0.36388 0.36408 0.46754 0.0
H184 H 0.9494 0.33004 0.74407 0.0
H185 H 0.97419 0.34796 0.51883 0.0
H186 H 0.02768 0.37482 0.55224 0.0
H187 H 0.0667 0.39433 0.64531 0.0
H188 H 0.04162 0.38239 0.87084 0.0
H189 H 0.9883 0.35189 0.83726 0.0
C190 C 0.96632 0.33999 0.70197 0.0
C191 C 0.95767 0.33716 0.6288 0.0
C192 C 0.99682 0.35647 0.7218 0.0
C193 C 0.98018 0.34987 0.57538 0.0
C194 C 0.01072 0.36525 0.59455 0.0
C195 C 0.04973 0.38537 0.68745 0.0
C196 C 0.05824 0.39086 0.76075 0.0
C197 C 0.01923 0.36895 0.66763 0.0
C198 C 0.03571 0.37863 0.8142 0.0
C199 C 1.00527 0.3612 0.79493 0.0
H200 H 0.61764 0.94171 0.06983 0.0
H201 H 0.61814 0.96746 0.84777 0.0
H202 H 0.64805 0.02071 0.882 0.0
H203 H 0.67284 0.0593 0.97521 0.0
H204 H 0.6666 0.03342 0.19911 0.0
H205 H 0.63967 0.98021 0.16377 0.0
C206 C 0.62391 0.95879 1.02866 0.0
C207 C 0.61541 0.95049 0.95614 0.0
C208 C 0.63997 0.98918 0.04924 0.0
C209 C 0.62428 0.97319 0.90384 0.0
C210 C 0.64134 1.0036 0.92348 0.0
C211 C 0.66548 0.04219 1.01664 0.0
C212 C 0.6717 0.05044 0.08998 0.0
C213 C 0.6491 0.01179 0.99611 0.0
C214 C 0.66205 0.02771 0.14248 0.0
C215 C 0.64668 0.99733 0.12221 0.0
H216 H 0.68968 0.63398 0.40194 0.0
H217 H 0.65568 0.61806 0.18385 0.0
H218 H 0.62562 0.6418 0.21358 0.0
H219 H 0.60794 0.66511 0.30345 0.0
H220 H 0.63745 0.67433 0.52465 0.0
H221 H 0.67002 0.65402 0.49204 0.0
C222 C 0.67546 0.63521 0.36059 0.0
C223 C 0.67472 0.62385 0.29067 0.0
C224 C 0.6573 0.64736 0.37908 0.0
C225 C 0.65669 0.62656 0.23791 0.0
C226 C 0.63941 0.63996 0.25514 0.0
C227 C 0.62137 0.66264 0.34471 0.0
C228 C 0.62033 0.67136 0.41661 0.0
C229 C 0.63931 0.6501 0.32587 0.0
C230 C 0.63779 0.66774 0.46923 0.0
C231 C 0.65646 0.65625 0.45046 0.0
H232 H 0.94665 0.61713 0.64132 0.0
H233 H 0.97082 0.63076 0.86684 0.0
H234 H 0.02418 0.6617 0.83271 0.0
H235 H 0.06337 0.68317 0.7394 0.0
H236 H 0.03982 0.66286 0.51465 0.0
H237 H 0.98611 0.63605 0.54808 0.0
C238 C 0.96342 0.62642 0.68343 0.0
C239 C 0.9546 0.62125 0.75691 0.0
C240 C 0.994 0.64294 0.66334 0.0
C241 C 0.97692 0.6342 0.81013 0.0
C242 C 0.00739 0.65186 0.79052 0.0
C243 C 0.0467 0.67259 0.69736 0.0
C244 C 0.05578 0.67474 0.62436 0.0
C245 C 0.01614 0.65606 0.71734 0.0
C246 C 0.03354 0.66149 0.57104 0.0
C247 C 1.00287 0.64611 0.59028 0.0
H248 H 0.32285 0.94991 0.98949 0.0
H249 H 0.36085 0.96714 0.20365 0.0
H250 H 0.39023 0.0212 0.1756 0.0
H251 H 0.40659 0.06258 0.08818 0.0
H252 H 0.37399 0.04388 0.8692 0.0
H253 H 0.3414 0.99054 0.90058 0.0
C254 C 0.33782 0.96524 1.03013 0.0
C255 C 0.3399 0.95427 0.09854 0.0
C256 C 0.35575 0.99583 1.01226 0.0
C257 C 0.35881 0.97488 0.15073 0.0
C258 C 0.37572 0.00574 0.13445 0.0
C259 C 0.39247 0.04701 0.04708 0.0
C260 C 0.39266 0.05731 0.97628 0.0
C261 C 0.37466 0.01634 0.06503 0.0
C262 C 0.37431 0.03652 0.92383 0.0
C263 C 0.35563 0.0061 0.94193 0.0
H264 H 0.17342 0.40173 0.94566 0.0
H265 H 0.21528 0.49857 0.94309 0.0
H266 H 0.25262 0.50277 1.03069 0.0
H267 H 0.2737 0.47913 0.10897 0.0
H268 H 0.22978 0.38227 0.11959 0.0
H269 H 0.19325 0.37789 1.02867 0.0
C270 C 0.19071 0.42373 0.96435 0.0
C271 C 0.19149 0.4498 0.93742 0.0
C272 C 0.2119 0.426 1.01639 0.0
C273 C 0.21396 0.47811 0.96289 0.0
C274 C 0.23546 0.48056 1.01297 0.0
C275 C 0.25622 0.45706 0.09113 0.0
C276 C 0.25472 0.43107 0.12072 0.0
C277 C 0.23472 0.4547 0.04014 0.0
C278 C 0.23155 0.40266 0.09776 0.0
C279 C 0.21062 0.40014 0.04563 0.0
H280 H 0.84115 0.2306 0.44375 0.0
H281 H 0.79892 0.28489 0.45486 0.0
H282 H 0.76096 0.25204 0.36784 0.0
H283 H 0.73955 0.20796 0.28735 0.0
H284 H 0.7836 0.15566 0.26779 0.0
H285 H 0.82075 0.18736 0.35853 0.0
C286 C 0.82362 0.23519 0.42708 0.0
C287 C 0.82294 0.26023 0.45617 0.0
C288 C 0.80206 0.21646 0.37524 0.0
C289 C 0.80017 0.26594 0.43332 0.0
C290 C 0.77833 0.24707 0.38356 0.0
C291 C 0.7572 0.20341 0.30317 0.0
C292 C 0.75857 0.17925 0.27112 0.0
C293 C 0.77901 0.22227 0.35405 0.0
C294 C 0.78194 0.17404 0.29155 0.0
C295 C 0.80322 0.19219 0.34357 0.0
H296 H 0.60245 0.83529 0.76721 0.0
H297 H 0.50546 0.79308 0.77635 0.0
H298 H 0.50062 0.75525 0.68889 0.0
H299 H 0.52386 0.73364 0.60956 0.0
H300 H 0.62083 0.77802 0.59335 0.0
H301 H 0.62573 0.81517 0.6832 0.0
C302 C 0.58026 0.81787 0.74989 0.0
C303 C 0.55435 0.8171 0.77873 0.0
C304 C 0.57762 0.79637 0.69821 0.0
C305 C 0.52581 0.79441 0.75506 0.0
C306 C 0.523 0.77262 0.7051 0.0
C307 C 0.54606 0.75138 0.62593 0.0
C308 C 0.57195 0.7528 0.59507 0.0
C309 C 0.54872 0.77327 0.67639 0.0
C310 C 0.60052 0.77629 0.61615 0.0
C311 C 0.60335 0.79759 0.66766 0.0
H312 H 0.74365 0.53 0.1248 0.0
H313 H 0.78768 0.62682 0.13712 0.0
H314 H 0.82196 0.63153 0.03897 0.0
H315 H 0.8398 0.60806 0.94825 0.0
H316 H 0.79769 0.51124 0.94284 0.0
H317 H 0.76267 0.50672 0.03834 0.0
C318 C 0.76077 0.55215 0.10616 0.0
C319 C 0.76287 0.578 0.13867 0.0
C320 C 0.78091 0.55473 0.05023 0.0
C321 C 0.78547 0.60648 0.1137 0.0
C322 C 0.8051 0.60921 0.05717 0.0
C323 C 0.82289 0.58599 0.96783 0.0
C324 C 0.82143 0.56001 0.93764 0.0
C325 C 0.80307 0.5835 1.02472 0.0
C326 C 0.79951 0.53165 0.96471 0.0
C327 C 0.77937 0.52901 1.01954 0.0
H328 H 0.21372 0.73497 0.42835 0.0
H329 H 0.16733 0.78437 0.46306 0.0
H330 H 0.19712 0.81964 0.36686 0.0
H331 H 0.23662 0.83687 0.27172 0.0
H332 H 0.28556 0.7897 0.24286 0.0
H333 H 0.2548 0.75353 0.3368 0.0
C334 C 0.21012 0.75345 0.41491 0.0
C335 C 0.18805 0.75676 0.45318 0.0
C336 C 0.2279 0.77421 0.36002 0.0
C337 C 0.18407 0.78114 0.43505 0.0
C338 C 0.20112 0.80137 0.37967 0.0
C339 C 0.2405 0.81862 0.28581 0.0
C340 C 0.26337 0.81603 0.24945 0.0
C341 C 0.2231 0.79818 0.34156 0.0
C342 C 0.26822 0.79238 0.26953 0.0
C343 C 0.25055 0.7716 0.32343 0.0
H344 H 0.40476 0.17417 0.78987 0.0
H345 H 0.50165 0.21587 0.8008 0.0
H346 H 0.5075 0.25402 0.71359 0.0
H347 H 0.48543 0.27578 0.63272 0.0
H348 H 0.38872 0.23226 0.61325 0.0
H349 H 0.38251 0.19496 0.70435 0.0
C350 C 0.42712 0.19163 0.77314 0.0
C351 C 0.45272 0.19208 0.80229 0.0
C352 C 0.4304 0.21333 0.72111 0.0
C353 C 0.48152 0.21478 0.77928 0.0
C354 C 0.48493 0.23675 0.72938 0.0
C355 C 0.46298 0.25822 0.64866 0.0
C356 C 0.43758 0.25707 0.61646 0.0
C357 C 0.45959 0.23629 0.69978 0.0
C358 C 0.40868 0.23379 0.63708 0.0
C359 C 0.40511 0.2124 0.68933 0.0
H360 H 0.19033 0.48017 0.51479 0.0
H361 H 0.22987 0.47724 0.71777 0.0
H362 H 0.27345 0.48117 0.65344 0.0
H363 H 0.29361 0.47366 0.54063 0.0
H364 H 0.25058 0.47031 0.33808 0.0
H365 H 0.21511 0.48106 0.40123 0.0
C366 C 0.20879 0.481 0.5451 0.0
C367 C 0.20652 0.47737 0.62064 0.0
C368 C 0.23277 0.48158 0.50774 0.0
C369 C 0.23095 0.47956 0.65951 0.0
C370 C 0.25569 0.4815 0.62269 0.0
C371 C 0.27673 0.47569 0.51003 0.0
C372 C 0.27395 0.47013 0.43518 0.0
C373 C 0.25578 0.48058 0.54689 0.0
C374 C 0.25278 0.47395 0.39591 0.0
C375 C 0.23245 0.47996 0.43202 0.0
H376 H 0.82744 0.29215 0.8797 0.0
H377 H 0.78553 0.25163 0.6766 0.0
H378 H 0.74091 0.21332 0.74116 0.0
H379 H 0.71947 0.18594 0.85381 0.0
H380 H 0.7643 0.22344 0.05624 0.0
H381 H 0.80203 0.26885 0.99331 0.0
C382 C 0.80833 0.27523 0.84939 0.0
C383 C 0.81011 0.27404 0.77364 0.0
C384 C 0.78354 0.25261 0.8868 0.0
C385 C 0.78485 0.25272 0.73497 0.0
C386 C 0.75947 0.23071 0.77189 0.0
C387 C 0.73723 0.20424 0.88445 0.0
C388 C 0.73976 0.20099 0.95919 0.0
C389 C 0.75944 0.22952 0.84766 0.0
C390 C 0.76219 0.22524 0.99852 0.0
C391 C 0.78384 0.25109 0.9625 0.0
H392 H 0.52916 0.81878 0.20434 0.0
H393 H 0.53021 0.7779 1.0014 0.0
H394 H 0.52211 0.73277 0.06543 0.0
H395 H 0.52681 0.71107 0.17847 0.0
H396 H 0.53234 0.75527 0.38103 0.0
H397 H 0.52498 0.79276 0.31776 0.0
C398 C 0.52707 0.79974 0.17399 0.0
C399 C 0.53135 0.80192 0.09866 0.0
C400 C 0.52394 0.77472 0.21122 0.0
C401 C 0.52748 0.77684 0.05957 0.0
C402 C 0.52307 0.75118 0.0962 0.0
C403 C 0.52586 0.7286 0.20902 0.0
C404 C 0.53123 0.73116 0.28387 0.0
C405 C 0.52319 0.75079 0.17204 0.0
C406 C 0.5288 0.7532 0.3232 0.0
C407 C 0.52481 0.77473 0.28698 0.0
H408 H 0.75521 0.53417 0.40433 0.0
H409 H 0.72626 0.57109 0.57638 0.0
H410 H 0.75286 0.55881 0.66377 0.0
H411 H 0.79116 0.54587 0.68984 0.0
H412 H 0.8232 0.51142 0.52051 0.0
H413 H 0.78765 0.51291 0.43554 0.0
C414 C 0.75451 0.53922 0.46092 0.0
C415 C 0.73946 0.55441 0.48254 0.0
C416 C 0.7702 0.53219 0.51234 0.0
C417 C 0.73828 0.56016 0.55682 0.0
C418 C 0.75333 0.55292 0.60771 0.0
C419 C 0.78938 0.53741 0.63525 0.0
C420 C 0.80993 0.52907 0.61098 0.0
C421 C 0.77023 0.53996 0.58587 0.0
C422 C 0.80759 0.51825 0.54001 0.0
C423 C 0.78763 0.51953 0.49111 0.0
H424 H 0.22575 0.75938 0.70078 0.0
H425 H 0.17749 0.69902 0.87722 0.0
H426 H 0.21564 0.73279 0.962 0.0
H427 H 0.25565 0.78471 0.98878 0.0
H428 H 0.3044 0.84437 0.81133 0.0
H429 H 0.27366 0.80555 0.72501 0.0
C430 C 0.2242 0.75311 0.75724 0.0
C431 C 0.1983 0.72756 0.78315 0.0
C432 C 0.24597 0.77287 0.80624 0.0
C433 C 0.19685 0.7193 0.85634 0.0
C434 C 0.21859 0.73861 0.90511 0.0
C435 C 0.26006 0.78887 0.93136 0.0
C436 C 0.28116 0.81776 0.90666 0.0
C437 C 0.24214 0.76642 0.88132 0.0
C438 C 0.28726 0.82262 0.83194 0.0
C439 C 0.2698 0.8004 0.78218 0.0
H440 H 0.48123 0.18832 0.22418 0.0
H441 H 0.48111 0.22916 1.02047 0.0
H442 H 0.48764 0.27375 0.08407 0.0
H443 H 0.48233 0.29541 0.1967 0.0
H444 H 0.47646 0.25158 0.4001 0.0
H445 H 0.48393 0.21396 0.33731 0.0
C446 C 0.48316 0.20721 0.19351 0.0
C447 C 0.47971 0.20514 0.11797 0.0
C448 C 0.48543 0.23195 0.23046 0.0
C449 C 0.48328 0.23009 0.07873 0.0
C450 C 0.48677 0.25545 0.11511 0.0
C451 C 0.48313 0.27789 0.22756 0.0
C452 C 0.47784 0.27561 0.30262 0.0
C453 C 0.48609 0.25575 0.19093 0.0
C454 C 0.48 0.2535 0.34216 0.0
C455 C 0.48409 0.23191 0.30623 0.0
H456 H 0.40762 0.51041 0.45097 0.0
H457 H 0.40324 0.50692 0.21823 0.0
H458 H 0.45145 0.55438 0.21107 0.0
H459 H 0.49394 0.59713 0.27091 0.0
H460 H 0.49658 0.60276 0.50353 0.0
H461 H 0.44969 0.55393 0.51098 0.0
C462 C 0.41736 0.51991 0.39864 0.0
C463 C 0.40209 0.50507 0.33509 0.0
C464 C 0.4446 0.54751 0.39507 0.0
C465 C 0.41462 0.51793 0.26777 0.0
C466 C 0.44215 0.545 0.26372 0.0
C467 C 0.48443 0.58756 0.32335 0.0
C468 C 0.49886 0.60334 0.38671 0.0
C469 C 0.45722 0.56 0.32701 0.0
C470 C 0.48591 0.59098 0.45411 0.0
C471 C 0.45916 0.5631 0.4583 0.0
H472 H 0.91049 0.49711 0.60776 0.0
H473 H 0.90472 0.49875 0.84004 0.0
H474 H 0.90653 0.45207 0.84784 0.0
H475 H 0.90739 0.40974 0.78803 0.0
H476 H 0.90831 0.4059 0.55535 0.0
H477 H 0.91087 0.4547 0.54808 0.0
C478 C 0.91001 0.48745 0.66017 0.0
C479 C 0.90777 0.50146 0.72335 0.0
C480 C 0.91003 0.46021 0.66397 0.0
C481 C 0.9065 0.48837 0.79076 0.0
C482 C 0.90752 0.46172 0.79516 0.0
C483 C 0.90849 0.41978 0.73575 0.0
C484 C 0.9079 0.40442 0.67224 0.0
C485 C 0.90897 0.4473 0.73207 0.0
C486 C 0.90874 0.41734 0.60488 0.0
C487 C 0.91021 0.4452 0.60076 0.0
H488 H 0.49315 0.90427 0.92061 0.0
H489 H 0.4959 0.88876 0.14854 0.0
H490 H 0.44926 0.88961 0.16779 0.0
H491 H 0.40715 0.89429 0.11987 0.0
H492 H 0.40633 0.91361 0.89347 0.0
H493 H 0.45253 0.91199 0.87386 0.0
C494 C 0.48345 0.90109 0.97432 0.0
C495 C 0.49785 0.89639 0.03292 0.0
C496 C 0.45696 0.9024 0.98547 0.0
C497 C 0.48529 0.89261 0.10253 0.0
C498 C 0.45857 0.89301 0.11366 0.0
C499 C 0.41718 0.89826 0.06639 0.0
C500 C 0.40328 0.90403 1.00839 0.0
C501 C 0.44415 0.89787 0.05556 0.0
C502 C 0.41669 0.90935 0.93936 0.0
C503 C 0.44306 0.90827 0.92788 0.0
H504 H 0.60593 0.50067 0.4634 0.0
H505 H 0.61485 0.49958 0.23181 0.0
H506 H 0.56766 0.4511 0.22605 0.0
H507 H 0.52386 0.40946 0.2867 0.0
H508 H 0.51662 0.40838 0.51898 0.0
H509 H 0.5634 0.45739 0.5249 0.0
C510 C 0.59744 0.48984 0.41165 0.0
C511 C 0.61359 0.50383 0.34791 0.0
C512 C 0.57073 0.46168 0.40904 0.0
C513 C 0.60275 0.48929 0.28145 0.0
C514 C 0.57578 0.46163 0.27819 0.0
C515 C 0.53244 0.42002 0.33868 0.0
C516 C 0.5166 0.40557 0.40235 0.0
C517 C 0.55957 0.44771 0.34159 0.0
C518 C 0.52836 0.41913 0.46931 0.0
C519 C 0.55504 0.44714 0.47261 0.0
H520 H 0.10347 0.59931 0.77448 0.0
H521 H 0.11188 0.60669 0.54245 0.0
H522 H 0.112 0.55903 0.53715 0.0
H523 H 0.11111 0.51619 0.59921 0.0
H524 H 0.10725 0.51156 0.83195 0.0
H525 H 0.10388 0.55741 0.83645 0.0
C526 C 0.105 0.59033 0.7226 0.0
C527 C 0.10727 0.60624 0.65875 0.0
C528 C 0.10599 0.56357 0.72032 0.0
C529 C 0.10999 0.59474 0.59218 0.0
C530 C 0.11006 0.56755 0.58923 0.0
C531 C 0.10926 0.5251 0.65089 0.0
C532 C 0.10912 0.5104 0.71524 0.0
C533 C 0.10824 0.55189 0.65302 0.0
C534 C 0.10736 0.52248 0.78183 0.0
C535 C 0.10541 0.54864 0.78435 0.0
H536 H 0.60182 0.10465 0.94897 0.0
H537 H 0.61018 0.10994 0.18102 0.0
H538 H 0.56221 0.10935 0.19104 0.0
H539 H 0.51883 0.10886 0.13324 0.0
H540 H 0.51295 0.10763 0.90076 0.0
H541 H 0.55913 0.10495 0.89137 0.0
C542 C 0.59302 0.10537 1.00187 0.0
C543 C 0.60937 0.10706 0.06429 0.0
C544 C 0.56598 0.10582 1.00697 0.0
C545 C 0.59798 0.10861 0.13226 0.0
C546 C 0.57058 0.10824 0.13794 0.0
C547 C 0.52752 0.1077 0.08055 0.0
C548 C 0.51242 0.10819 1.01771 0.0
C549 C 0.5545 0.10704 0.0756 0.0
C550 C 0.5242 0.10727 0.9498 0.0
C551 C 0.55056 0.10573 0.94446 0.0
loop_
_geom_bond_atom_site_label_1
_geom_bond_atom_site_label_2
_geom_bond_distance
_geom_bond_site_symmetry_2
_ccdc_geom_bond_type
Co0 O1 2.216 . S
Co0 O2 2.091 . S
Co0 O4 2.004 . S
Co0 O10 2.021 . S
Co0 O12 2.137 . S
Co0 O13 2.244 . S
O1 Co0 2.216 . S
O1 C8 1.247 . S
O2 Co0 2.091 . S
O2 C8 1.261 . S
C3 O12 1.247 . S
C3 O13 1.272 . S
O4 Co0 2.004 . S
O4 C9 1.259 . S
Co5 O6 2.061 . S
Co5 O11 2.052 . S
Co5 O13 2.135 . S
O6 Co5 2.061 . S
O6 C9 1.235 . S
C7 O10 1.238 . S
C7 O11 1.241 . S
C8 O1 1.247 . S
C8 O2 1.261 . S
C9 O4 1.259 . S
C9 O6 1.235 . S
O10 Co0 2.021 . S
O10 C7 1.238 . S
O11 Co5 2.052 . S
O11 C7 1.241 . S
O12 Co0 2.137 . S
O12 C3 1.247 . S
O13 Co0 2.244 . S
O13 C3 1.272 . S
O13 Co5 2.135 . S
Co14 O15 2.216 . S
Co14 O16 2.091 . S
Co14 O18 2.004 . S
Co14 O24 2.021 . S
Co14 O26 2.137 . S
Co14 O27 2.244 . S
O15 Co14 2.216 . S
O15 C22 1.247 . S
O16 Co14 2.091 . S
O16 C22 1.261 . S
C17 O26 1.247 . S
C17 O27 1.272 . S
O18 Co14 2.004 . S
O18 C23 1.259 . S
Co19 O20 2.061 . S
Co19 O25 2.052 . S
Co19 O27 2.135 . S
O20 Co19 2.061 . S
O20 C23 1.235 . S
C21 O24 1.238 . S
C21 O25 1.241 . S
C22 O15 1.247 . S
C22 O16 1.261 . S
C23 O18 1.259 . S
C23 O20 1.235 . S
O24 Co14 2.021 . S
O24 C21 1.238 . S
O25 Co19 2.052 . S
O25 C21 1.241 . S
O26 Co14 2.137 . S
O26 C17 1.247 . S
O27 Co14 2.244 . S
O27 C17 1.272 . S
O27 Co19 2.135 . S
Co28 O29 2.216 . S
Co28 O30 2.091 . S
Co28 O32 2.004 . S
Co28 O38 2.021 . S
Co28 O40 2.137 . S
Co28 O41 2.244 . S
O29 Co28 2.216 . S
O29 C36 1.247 . S
O30 Co28 2.091 . S
O30 C36 1.261 . S
C31 O40 1.247 . S
C31 O41 1.272 . S
O32 Co28 2.004 . S
O32 C37 1.259 . S
Co33 O34 2.061 . S
Co33 O39 2.052 . S
Co33 O41 2.135 1_554 S
O34 Co33 2.061 . S
O34 C37 1.235 1_554 S
C35 O38 1.238 1_554 S
C35 O39 1.241 . S
C36 O29 1.247 . S
C36 O30 1.261 . S
C37 O32 1.259 . S
C37 O34 1.235 1_556 S
O38 Co28 2.021 . S
O38 C35 1.238 1_556 S
O39 Co33 2.052 . S
O39 C35 1.241 . S
O40 Co28 2.137 . S
O40 C31 1.247 . S
O41 Co28 2.244 . S
O41 C31 1.272 . S
O41 Co33 2.135 1_556 S
Co42 O43 2.216 . S
Co42 O44 2.091 . S
Co42 O46 2.004 . S
Co42 O52 2.021 . S
Co42 O54 2.137 . S
Co42 O55 2.244 . S
O43 Co42 2.216 . S
O43 C50 1.247 . S
O44 Co42 2.091 . S
O44 C50 1.261 . S
C45 O54 1.247 . S
C45 O55 1.272 . S
O46 Co42 2.004 . S
O46 C51 1.259 . S
Co47 O48 2.061 . S
Co47 O53 2.052 . S
Co47 O55 2.135 . S
O48 Co47 2.061 . S
O48 C51 1.235 . S
C49 O52 1.238 . S
C49 O53 1.241 . S
C50 O43 1.247 . S
C50 O44 1.261 . S
C51 O46 1.259 . S
C51 O48 1.235 . S
O52 Co42 2.021 . S
O52 C49 1.238 . S
O53 Co47 2.052 . S
O53 C49 1.241 . S
O54 Co42 2.137 . S
O54 C45 1.247 . S
O55 Co42 2.244 . S
O55 C45 1.272 . S
O55 Co47 2.135 . S
Co56 O57 2.216 . S
Co56 O58 2.091 . S
Co56 O60 2.004 . S
Co56 O66 2.021 . S
Co56 O68 2.137 . S
Co56 O69 2.244 . S
O57 Co56 2.216 . S
O57 C64 1.247 . S
O58 Co56 2.091 . S
O58 C64 1.261 . S
C59 O68 1.247 . S
C59 O69 1.272 . S
O60 Co56 2.004 . S
O60 C65 1.259 . S
Co61 O62 2.061 . S
Co61 O67 2.052 . S
Co61 O69 2.135 . S
O62 Co61 2.061 . S
O62 C65 1.235 . S
C63 O66 1.238 . S
C63 O67 1.241 . S
C64 O57 1.247 . S
C64 O58 1.261 . S
C65 O60 1.259 . S
C65 O62 1.235 . S
O66 Co56 2.021 . S
O66 C63 1.238 . S
O67 Co61 2.052 . S
O67 C63 1.241 . S
O68 Co56 2.137 . S
O68 C59 1.247 . S
O69 Co56 2.244 . S
O69 C59 1.272 . S
O69 Co61 2.135 . S
Co70 O71 2.216 . S
Co70 O72 2.091 . S
Co70 O74 2.004 . S
Co70 O80 2.021 . S
Co70 O82 2.137 . S
Co70 O83 2.244 . S
O71 Co70 2.216 . S
O71 C78 1.247 . S
O72 Co70 2.091 . S
O72 C78 1.261 . S
C73 O82 1.247 . S
C73 O83 1.272 . S
O74 Co70 2.004 . S
O74 C79 1.259 . S
Co75 O76 2.061 . S
Co75 O81 2.052 . S
Co75 O83 2.135 1_554 S
O76 Co75 2.061 . S
O76 C79 1.235 1_554 S
C77 O80 1.238 1_554 S
C77 O81 1.241 . S
C78 O71 1.247 . S
C78 O72 1.261 . S
C79 O74 1.259 . S
C79 O76 1.235 1_556 S
O80 Co70 2.021 . S
O80 C77 1.238 1_556 S
O81 Co75 2.052 . S
O81 C77 1.241 . S
O82 Co70 2.137 . S
O82 C73 1.247 . S
O83 Co70 2.244 . S
O83 C73 1.272 . S
O83 Co75 2.135 1_556 S
Co84 O85 2.216 . S
Co84 O86 2.091 . S
Co84 O88 2.004 . S
Co84 O94 2.021 . S
Co84 O96 2.137 . S
Co84 O97 2.244 . S
O85 Co84 2.216 . S
O85 C92 1.247 . S
O86 Co84 2.091 . S
O86 C92 1.261 . S
C87 O96 1.247 . S
C87 O97 1.272 . S
O88 Co84 2.004 . S
O88 C93 1.259 . S
Co89 O90 2.061 . S
Co89 O95 2.052 . S
Co89 O97 2.135 . S
O90 Co89 2.061 . S
O90 C93 1.235 . S
C91 O94 1.238 . S
C91 O95 1.241 . S
C92 O85 1.247 . S
C92 O86 1.261 . S
C93 O88 1.259 . S
C93 O90 1.235 . S
O94 Co84 2.021 . S
O94 C91 1.238 . S
O95 Co89 2.052 . S
O95 C91 1.241 . S
O96 Co84 2.137 . S
O96 C87 1.247 . S
O97 Co84 2.244 . S
O97 C87 1.272 . S
O97 Co89 2.135 . S
Co98 O99 2.216 . S
Co98 O100 2.091 . S
Co98 O102 2.004 . S
Co98 O108 2.021 . S
Co98 O110 2.137 . S
Co98 O111 2.244 . S
O99 Co98 2.216 . S
O99 C106 1.247 . S
O100 Co98 2.091 . S
O100 C106 1.261 . S
C101 O110 1.247 . S
C101 O111 1.272 . S
O102 Co98 2.004 . S
O102 C107 1.259 . S
Co103 O104 2.061 . S
Co103 O109 2.052 . S
Co103 O111 2.135 . S
O104 Co103 2.061 . S
O104 C107 1.235 . S
C105 O108 1.238 . S
C105 O109 1.241 . S
C106 O99 1.247 . S
C106 O100 1.261 . S
C107 O102 1.259 . S
C107 O104 1.235 . S
O108 Co98 2.021 . S
O108 C105 1.238 . S
O109 Co103 2.052 . S
O109 C105 1.241 . S
O110 Co98 2.137 . S
O110 C101 1.247 . S
O111 Co98 2.244 . S
O111 C101 1.272 . S
O111 Co103 2.135 . S
Co112 O113 2.216 . S
Co112 O114 2.091 . S
Co112 O116 2.004 . S
Co112 O122 2.021 . S
Co112 O124 2.137 . S
Co112 O125 2.244 . S
O113 Co112 2.216 . S
O113 C120 1.247 . S
O114 Co112 2.091 . S
O114 C120 1.261 . S
C115 O124 1.247 . S
C115 O125 1.272 . S
O116 Co112 2.004 . S
O116 C121 1.259 . S
Co117 O118 2.061 . S
Co117 O123 2.052 . S
Co117 O125 2.135 1_556 S
O118 Co117 2.061 . S
O118 C121 1.235 1_556 S
C119 O122 1.238 1_556 S
C119 O123 1.241 . S
C120 O113 1.247 . S
C120 O114 1.261 . S
C121 O116 1.259 . S
C121 O118 1.235 1_554 S
O122 Co112 2.021 . S
O122 C119 1.238 1_554 S
O123 Co117 2.052 . S
O123 C119 1.241 . S
O124 Co112 2.137 . S
O124 C115 1.247 . S
O125 Co112 2.244 . S
O125 C115 1.272 . S
O125 Co117 2.135 1_554 S
Co126 O127 2.216 . S
Co126 O128 2.091 . S
Co126 O130 2.004 . S
Co126 O136 2.021 . S
Co126 O138 2.137 . S
Co126 O139 2.244 . S
O127 Co126 2.216 . S
O127 C134 1.247 . S
O128 Co126 2.091 . S
O128 C134 1.261 . S
C129 O138 1.247 . S
C129 O139 1.272 . S
O130 Co126 2.004 . S
O130 C135 1.259 . S
Co131 O132 2.061 . S
Co131 O137 2.052 . S
Co131 O139 2.135 . S
O132 Co131 2.061 . S
O132 C135 1.235 . S
C133 O136 1.238 . S
C133 O137 1.241 . S
C134 O127 1.247 . S
C134 O128 1.261 . S
C135 O130 1.259 . S
C135 O132 1.235 . S
O136 Co126 2.021 . S
O136 C133 1.238 . S
O137 Co131 2.052 . S
O137 C133 1.241 . S
O138 Co126 2.137 . S
O138 C129 1.247 . S
O139 Co126 2.244 . S
O139 C129 1.272 . S
O139 Co131 2.135 . S
Co140 O141 2.216 . S
Co140 O142 2.091 . S
Co140 O144 2.004 . S
Co140 O150 2.021 . S
Co140 O152 2.137 . S
Co140 O153 2.244 . S
O141 Co140 2.216 . S
O141 C148 1.247 . S
O142 Co140 2.091 . S
O142 C148 1.261 . S
C143 O152 1.247 . S
C143 O153 1.272 . S
O144 Co140 2.004 . S
O144 C149 1.259 . S
Co145 O146 2.061 . S
Co145 O151 2.052 . S
Co145 O153 2.135 . S
O146 Co145 2.061 . S
O146 C149 1.235 . S
C147 O150 1.238 . S
C147 O151 1.241 . S
C148 O141 1.247 . S
C148 O142 1.261 . S
C149 O144 1.259 . S
C149 O146 1.235 . S
O150 Co140 2.021 . S
O150 C147 1.238 . S
O151 Co145 2.052 . S
O151 C147 1.241 . S
O152 Co140 2.137 . S
O152 C143 1.247 . S
O153 Co140 2.244 . S
O153 C143 1.272 . S
O153 Co145 2.135 . S
Co154 O155 2.216 . S
Co154 O156 2.091 . S
Co154 O158 2.004 . S
Co154 O164 2.021 . S
Co154 O166 2.137 . S
Co154 O167 2.244 . S
O155 Co154 2.216 . S
O155 C162 1.247 . S
O156 Co154 2.091 . S
O156 C162 1.261 . S
C157 O166 1.247 . S
C157 O167 1.272 . S
O158 Co154 2.004 . S
O158 C163 1.259 . S
Co159 O160 2.061 . S
Co159 O165 2.052 . S
Co159 O167 2.135 1_556 S
O160 Co159 2.061 . S
O160 C163 1.235 1_556 S
C161 O164 1.238 1_556 S
C161 O165 1.241 . S
C162 O155 1.247 . S
C162 O156 1.261 . S
C163 O158 1.259 . S
C163 O160 1.235 1_554 S
O164 Co154 2.021 . S
O164 C161 1.238 1_554 S
O165 Co159 2.052 . S
O165 C161 1.241 . S
O166 Co154 2.137 . S
O166 C157 1.247 . S
O167 Co154 2.244 . S
O167 C157 1.272 . S
O167 Co159 2.135 1_554 S
H168 C174 0.930 . S
H169 C177 0.930 . S
H170 C178 0.930 . S
H171 C179 0.930 . S
H172 C182 0.930 . S
H173 C183 0.930 . S
C174 H168 0.930 . S
C174 C175 1.355 . S
C174 C176 1.415 . S
C175 C174 1.355 . S
C175 C177 1.419 . S
C176 C174 1.415 . S
C176 C181 1.425 . S
C176 C183 1.409 . S
C177 H169 0.930 . S
C177 C175 1.419 . S
C177 C178 1.362 . S
C178 H170 0.930 . S
C178 C177 1.362 . S
C178 C181 1.409 . S
C179 H171 0.930 . S
C179 C180 1.355 . S
C179 C181 1.415 . S
C180 C179 1.355 . S
C180 C182 1.419 . S
C181 C176 1.425 . S
C181 C178 1.409 . S
C181 C179 1.415 . S
C182 H172 0.930 . S
C182 C180 1.419 . S
C182 C183 1.362 . S
C183 H173 0.930 . S
C183 C176 1.409 . S
C183 C182 1.362 . S
H184 C190 0.930 . S
H185 C193 0.930 . S
H186 C194 0.930 . S
H187 C195 0.930 . S
H188 C198 0.930 . S
H189 C199 0.930 . S
C190 H184 0.930 . S
C190 C191 1.355 . S
C190 C192 1.415 . S
C191 C190 1.355 . S
C191 C193 1.419 . S
C192 C190 1.415 . S
C192 C197 1.425 1_655 S
C192 C199 1.409 1_655 S
C193 H185 0.930 . S
C193 C191 1.419 . S
C193 C194 1.362 . S
C194 H186 0.930 . S
C194 C193 1.362 . S
C194 C197 1.409 1_655 S
C195 H187 0.930 . S
C195 C196 1.355 . S
C195 C197 1.415 . S
C196 C195 1.355 . S
C196 C198 1.419 . S
C197 C192 1.425 1_455 S
C197 C194 1.409 1_455 S
C197 C195 1.415 . S
C198 H188 0.930 . S
C198 C196 1.419 . S
C198 C199 1.362 . S
C199 H189 0.930 . S
C199 C192 1.409 1_455 S
C199 C198 1.362 . S
H200 C206 0.930 . S
H201 C209 0.930 . S
H202 C210 0.930 . S
H203 C211 0.930 . S
H204 C214 0.930 . S
H205 C215 0.930 . S
C206 H200 0.930 . S
C206 C207 1.355 . S
C206 C208 1.411 . S
C207 C206 1.355 . S
C207 C209 1.419 1_556 S
C208 C206 1.411 . S
C208 C213 1.425 1_556 S
C208 C215 1.412 1_565 S
C209 H201 0.930 . S
C209 C207 1.419 1_554 S
C209 C210 1.362 . S
C210 H202 0.930 . S
C210 C209 1.362 . S
C210 C213 1.406 . S
C211 H203 0.930 . S
C211 C212 1.355 . S
C211 C213 1.419 1_545 S
C212 C211 1.355 . S
C212 C214 1.419 1_554 S
C213 C208 1.425 1_554 S
C213 C210 1.406 . S
C213 C211 1.419 1_565 S
C214 H204 0.930 . S
C214 C212 1.419 1_556 S
C214 C215 1.362 . S
C215 H205 0.930 . S
C215 C208 1.412 1_545 S
C215 C214 1.362 . S
H216 C222 0.930 . S
H217 C225 0.930 . S
H218 C226 0.930 . S
H219 C227 0.930 . S
H220 C230 0.930 . S
H221 C231 0.930 . S
C222 H216 0.930 . S
C222 C223 1.355 . S
C222 C224 1.415 . S
C223 C222 1.355 . S
C223 C225 1.419 . S
C224 C222 1.415 . S
C224 C229 1.425 . S
C224 C231 1.409 . S
C225 H217 0.930 . S
C225 C223 1.419 . S
C225 C226 1.362 . S
C226 H218 0.930 . S
C226 C225 1.362 . S
C226 C229 1.409 . S
C227 H219 0.930 . S
C227 C228 1.355 . S
C227 C229 1.415 . S
C228 C227 1.355 . S
C228 C230 1.419 . S
C229 C224 1.425 . S
C229 C226 1.409 . S
C229 C227 1.415 . S
C230 H220 0.930 . S
C230 C228 1.419 . S
C230 C231 1.362 . S
C231 H221 0.930 . S
C231 C224 1.409 . S
C231 C230 1.362 . S
H232 C238 0.930 . S
H233 C241 0.930 . S
H234 C242 0.930 . S
H235 C243 0.930 . S
H236 C246 0.930 . S
H237 C247 0.930 . S
C238 H232 0.930 . S
C238 C239 1.355 . S
C238 C240 1.399 1_655 S
C239 C238 1.355 . S
C239 C241 1.419 . S
C240 C238 1.399 1_455 S
C240 C245 1.420 1_455 S
C240 C247 1.428 . S
C241 H233 0.930 . S
C241 C239 1.419 . S
C241 C242 1.362 . S
C242 H234 0.930 . S
C242 C241 1.362 . S
C242 C245 1.428 . S
C243 H235 0.930 . S
C243 C244 1.355 . S
C243 C245 1.398 1_455 S
C244 C243 1.355 . S
C244 C246 1.419 . S
C245 C240 1.420 1_655 S
C245 C242 1.428 . S
C245 C243 1.398 1_655 S
C246 H236 0.930 . S
C246 C244 1.419 . S
C246 C247 1.362 . S
C247 H237 0.930 . S
C247 C240 1.428 . S
C247 C246 1.362 . S
H248 C254 0.930 . S
H249 C257 0.930 . S
H250 C258 0.930 . S
H251 C259 0.930 . S
H252 C262 0.930 . S
H253 C263 0.930 . S
C254 H248 0.930 . S
C254 C255 1.355 . S
C254 C256 1.414 . S
C255 C254 1.355 . S
C255 C257 1.419 1_554 S
C256 C254 1.414 . S
C256 C261 1.425 1_564 S
C256 C263 1.410 1_565 S
C257 H249 0.930 . S
C257 C255 1.419 1_556 S
C257 C258 1.362 . S
C258 H250 0.930 . S
C258 C257 1.362 . S
C258 C261 1.409 1_565 S
C259 H251 0.930 . S
C259 C260 1.355 . S
C259 C261 1.415 . S
C260 C259 1.355 . S
C260 C262 1.419 1_556 S
C261 C256 1.425 1_546 S
C261 C258 1.409 1_545 S
C261 C259 1.415 . S
C262 H252 0.930 . S
C262 C260 1.419 1_554 S
C262 C263 1.362 . S
C263 H253 0.930 . S
C263 C256 1.410 1_545 S
C263 C262 1.362 . S
H264 C270 0.930 . S
H265 C273 0.930 . S
H266 C274 0.930 . S
H267 C275 0.930 . S
H268 C278 0.930 . S
H269 C279 0.930 . S
C270 H264 0.930 . S
C270 C271 1.355 . S
C270 C272 1.415 . S
C271 C270 1.355 . S
C271 C273 1.419 . S
C272 C270 1.415 . S
C272 C277 1.425 1_556 S
C272 C279 1.409 . S
C273 H265 0.930 . S
C273 C271 1.419 . S
C273 C274 1.362 1_556 S
C274 H266 0.930 . S
C274 C273 1.362 1_554 S
C274 C277 1.409 . S
C275 H267 0.930 . S
C275 C276 1.355 . S
C275 C277 1.415 . S
C276 C275 1.355 . S
C276 C278 1.419 . S
C277 C272 1.425 1_554 S
C277 C274 1.409 . S
C277 C275 1.415 . S
C278 H268 0.930 . S
C278 C276 1.419 . S
C278 C279 1.362 1_554 S
C279 H269 0.930 . S
C279 C272 1.409 . S
C279 C278 1.362 1_556 S
H280 C286 0.930 . S
H281 C289 0.930 . S
H282 C290 0.930 . S
H283 C291 0.930 . S
H284 C294 0.930 . S
H285 C295 0.930 . S
C286 H280 0.930 . S
C286 C287 1.355 . S
C286 C288 1.415 . S
C287 C286 1.355 . S
C287 C289 1.419 . S
C288 C286 1.415 . S
C288 C293 1.425 . S
C288 C295 1.409 . S
C289 H281 0.930 . S
C289 C287 1.419 . S
C289 C290 1.362 . S
C290 H282 0.930 . S
C290 C289 1.362 . S
C290 C293 1.409 . S
C291 H283 0.930 . S
C291 C292 1.355 . S
C291 C293 1.415 . S
C292 C291 1.355 . S
C292 C294 1.419 . S
C293 C288 1.425 . S
C293 C290 1.409 . S
C293 C291 1.415 . S
C294 H284 0.930 . S
C294 C292 1.419 . S
C294 C295 1.362 . S
C295 H285 0.930 . S
C295 C288 1.409 . S
C295 C294 1.362 . S
H296 C302 0.930 . S
H297 C305 0.930 . S
H298 C306 0.930 . S
H299 C307 0.930 . S
H300 C310 0.930 . S
H301 C311 0.930 . S
C302 H296 0.930 . S
C302 C303 1.355 . S
C302 C304 1.415 . S
C303 C302 1.355 . S
C303 C305 1.419 . S
C304 C302 1.415 . S
C304 C309 1.425 . S
C304 C311 1.409 . S
C305 H297 0.930 . S
C305 C303 1.419 . S
C305 C306 1.362 . S
C306 H298 0.930 . S
C306 C305 1.362 . S
C306 C309 1.409 . S
C307 H299 0.930 . S
C307 C308 1.355 . S
C307 C309 1.415 . S
C308 C307 1.355 . S
C308 C310 1.419 . S
C309 C304 1.425 . S
C309 C306 1.409 . S
C309 C307 1.415 . S
C310 H300 0.930 . S
C310 C308 1.419 . S
C310 C311 1.362 . S
C311 H301 0.930 . S
C311 C304 1.409 . S
C311 C310 1.362 . S
H312 C318 0.930 . S
H313 C321 0.930 . S
H314 C322 0.930 . S
H315 C323 0.930 . S
H316 C326 0.930 . S
H317 C327 0.930 . S
C318 H312 0.930 . S
C318 C319 1.355 . S
C318 C320 1.415 1_554 S
C319 C318 1.355 . S
C319 C321 1.419 . S
C320 C318 1.415 1_556 S
C320 C325 1.425 1_556 S
C320 C327 1.409 . S
C321 H313 0.930 . S
C321 C319 1.419 . S
C321 C322 1.362 . S
C322 H314 0.930 . S
C322 C321 1.362 . S
C322 C325 1.409 . S
C323 H315 0.930 . S
C323 C324 1.355 . S
C323 C325 1.415 1_556 S
C324 C323 1.355 . S
C324 C326 1.419 . S
C325 C320 1.425 1_554 S
C325 C322 1.409 . S
C325 C323 1.415 1_554 S
C326 H316 0.930 . S
C326 C324 1.419 . S
C326 C327 1.362 . S
C327 H317 0.930 . S
C327 C320 1.409 . S
C327 C326 1.362 . S
H328 C334 0.930 . S
H329 C337 0.930 . S
H330 C338 0.930 . S
H331 C339 0.930 . S
H332 C342 0.930 . S
H333 C343 0.930 . S
C334 H328 0.930 . S
C334 C335 1.355 . S
C334 C336 1.415 . S
C335 C334 1.355 . S
C335 C337 1.419 . S
C336 C334 1.415 . S
C336 C341 1.425 . S
C336 C343 1.409 . S
C337 H329 0.930 . S
C337 C335 1.419 . S
C337 C338 1.362 . S
C338 H330 0.930 . S
C338 C337 1.362 . S
C338 C341 1.409 . S
C339 H331 0.930 . S
C339 C340 1.355 . S
C339 C341 1.415 . S
C340 C339 1.355 . S
C340 C342 1.419 . S
C341 C336 1.425 . S
C341 C338 1.409 . S
C341 C339 1.415 . S
C342 H332 0.930 . S
C342 C340 1.419 . S
C342 C343 1.362 . S
C343 H333 0.930 . S
C343 C336 1.409 . S
C343 C342 1.362 . S
H344 C350 0.930 . S
H345 C353 0.930 . S
H346 C354 0.930 . S
H347 C355 0.930 . S
H348 C358 0.930 . S
H349 C359 0.930 . S
C350 H344 0.930 . S
C350 C351 1.355 . S
C350 C352 1.415 . S
C351 C350 1.355 . S
C351 C353 1.419 . S
C352 C350 1.415 . S
C352 C357 1.425 . S
C352 C359 1.409 . S
C353 H345 0.930 . S
C353 C351 1.419 . S
C353 C354 1.362 . S
C354 H346 0.930 . S
C354 C353 1.362 . S
C354 C357 1.409 . S
C355 H347 0.930 . S
C355 C356 1.355 . S
C355 C357 1.415 . S
C356 C355 1.355 . S
C356 C358 1.419 . S
C357 C352 1.425 . S
C357 C354 1.409 . S
C357 C355 1.415 . S
C358 H348 0.930 . S
C358 C356 1.419 . S
C358 C359 1.362 . S
C359 H349 0.930 . S
C359 C352 1.409 . S
C359 C358 1.362 . S
H360 C366 0.930 . S
H361 C369 0.930 . S
H362 C370 0.930 . S
H363 C371 0.930 . S
H364 C374 0.930 . S
H365 C375 0.930 . S
C366 H360 0.930 . S
C366 C367 1.355 . S
C366 C368 1.415 . S
C367 C366 1.355 . S
C367 C369 1.419 . S
C368 C366 1.415 . S
C368 C373 1.425 . S
C368 C375 1.409 . S
C369 H361 0.930 . S
C369 C367 1.419 . S
C369 C370 1.362 . S
C370 H362 0.930 . S
C370 C369 1.362 . S
C370 C373 1.409 . S
C371 H363 0.930 . S
C371 C372 1.355 . S
C371 C373 1.415 . S
C372 C371 1.355 . S
C372 C374 1.419 . S
C373 C368 1.425 . S
C373 C370 1.409 . S
C373 C371 1.415 . S
C374 H364 0.930 . S
C374 C372 1.419 . S
C374 C375 1.362 . S
C375 H365 0.930 . S
C375 C368 1.409 . S
C375 C374 1.362 . S
H376 C382 0.930 . S
H377 C385 0.930 . S
H378 C386 0.930 . S
H379 C387 0.930 . S
H380 C390 0.930 . S
H381 C391 0.930 . S
C382 H376 0.930 . S
C382 C383 1.355 . S
C382 C384 1.415 . S
C383 C382 1.355 . S
C383 C385 1.419 . S
C384 C382 1.415 . S
C384 C389 1.425 . S
C384 C391 1.409 . S
C385 H377 0.930 . S
C385 C383 1.419 . S
C385 C386 1.362 . S
C386 H378 0.930 . S
C386 C385 1.362 . S
C386 C389 1.409 . S
C387 H379 0.930 . S
C387 C388 1.355 . S
C387 C389 1.415 . S
C388 C387 1.355 . S
C388 C390 1.419 . S
C389 C384 1.425 . S
C389 C386 1.409 . S
C389 C387 1.415 . S
C390 H380 0.930 . S
C390 C388 1.419 . S
C390 C391 1.362 . S
C391 H381 0.930 . S
C391 C384 1.409 . S
C391 C390 1.362 . S
H392 C398 0.930 . S
H393 C401 0.930 . S
H394 C402 0.930 . S
H395 C403 0.930 . S
H396 C406 0.930 . S
H397 C407 0.930 . S
C398 H392 0.930 . S
C398 C399 1.355 . S
C398 C400 1.415 . S
C399 C398 1.355 . S
C399 C401 1.419 . S
C400 C398 1.415 . S
C400 C405 1.425 . S
C400 C407 1.409 . S
C401 H393 0.930 . S
C401 C399 1.419 . S
C401 C402 1.362 . S
C402 H394 0.930 . S
C402 C401 1.362 . S
C402 C405 1.409 . S
C403 H395 0.930 . S
C403 C404 1.355 . S
C403 C405 1.415 . S
C404 C403 1.355 . S
C404 C406 1.419 . S
C405 C400 1.425 . S
C405 C402 1.409 . S
C405 C403 1.415 . S
C406 H396 0.930 . S
C406 C404 1.419 . S
C406 C407 1.362 . S
C407 H397 0.930 . S
C407 C400 1.409 . S
C407 C406 1.362 . S
H408 C414 0.930 . S
H409 C417 0.930 . S
H410 C418 0.930 . S
H411 C419 0.930 . S
H412 C422 0.930 . S
H413 C423 0.930 . S
C414 H408 0.930 . S
C414 C415 1.355 . S
C414 C416 1.415 . S
C415 C414 1.355 . S
C415 C417 1.419 . S
C416 C414 1.415 . S
C416 C421 1.425 . S
C416 C423 1.409 . S
C417 H409 0.930 . S
C417 C415 1.419 . S
C417 C418 1.362 . S
C418 H410 0.930 . S
C418 C417 1.362 . S
C418 C421 1.409 . S
C419 H411 0.930 . S
C419 C420 1.355 . S
C419 C421 1.415 . S
C420 C419 1.355 . S
C420 C422 1.419 . S
C421 C416 1.425 . S
C421 C418 1.409 . S
C421 C419 1.415 . S
C422 H412 0.930 . S
C422 C420 1.419 . S
C422 C423 1.362 . S
C423 H413 0.930 . S
C423 C416 1.409 . S
C423 C422 1.362 . S
H424 C430 0.930 . S
H425 C433 0.930 . S
H426 C434 0.930 . S
H427 C435 0.930 . S
H428 C438 0.930 . S
H429 C439 0.930 . S
C430 H424 0.930 . S
C430 C431 1.355 . S
C430 C432 1.415 . S
C431 C430 1.355 . S
C431 C433 1.419 . S
C432 C430 1.415 . S
C432 C437 1.425 . S
C432 C439 1.409 . S
C433 H425 0.930 . S
C433 C431 1.419 . S
C433 C434 1.362 . S
C434 H426 0.930 . S
C434 C433 1.362 . S
C434 C437 1.409 . S
C435 H427 0.930 . S
C435 C436 1.355 . S
C435 C437 1.415 . S
C436 C435 1.355 . S
C436 C438 1.419 . S
C437 C432 1.425 . S
C437 C434 1.409 . S
C437 C435 1.415 . S
C438 H428 0.930 . S
C438 C436 1.419 . S
C438 C439 1.362 . S
C439 H429 0.930 . S
C439 C432 1.409 . S
C439 C438 1.362 . S
H440 C446 0.930 . S
H441 C449 0.930 1_556 S
H442 C450 0.930 . S
H443 C451 0.930 . S
H444 C454 0.930 . S
H445 C455 0.930 . S
C446 H440 0.930 . S
C446 C447 1.355 . S
C446 C448 1.415 . S
C447 C446 1.355 . S
C447 C449 1.419 . S
C448 C446 1.415 . S
C448 C453 1.425 . S
C448 C455 1.409 . S
C449 H441 0.930 1_554 S
C449 C447 1.419 . S
C449 C450 1.362 . S
C450 H442 0.930 . S
C450 C449 1.362 . S
C450 C453 1.409 . S
C451 H443 0.930 . S
C451 C452 1.355 . S
C451 C453 1.415 . S
C452 C451 1.355 . S
C452 C454 1.419 . S
C453 C448 1.425 . S
C453 C450 1.409 . S
C453 C451 1.415 . S
C454 H444 0.930 . S
C454 C452 1.419 . S
C454 C455 1.362 . S
C455 H445 0.930 . S
C455 C448 1.409 . S
C455 C454 1.362 . S
H456 C462 0.930 . S
H457 C465 0.930 . S
H458 C466 0.930 . S
H459 C467 0.930 . S
H460 C470 0.930 . S
H461 C471 0.930 . S
C462 H456 0.930 . S
C462 C463 1.355 . S
C462 C464 1.415 . S
C463 C462 1.355 . S
C463 C465 1.419 . S
C464 C462 1.415 . S
C464 C469 1.425 . S
C464 C471 1.409 . S
C465 H457 0.930 . S
C465 C463 1.419 . S
C465 C466 1.362 . S
C466 H458 0.930 . S
C466 C465 1.362 . S
C466 C469 1.409 . S
C467 H459 0.930 . S
C467 C468 1.355 . S
C467 C469 1.415 . S
C468 C467 1.355 . S
C468 C470 1.419 . S
C469 C464 1.425 . S
C469 C466 1.409 . S
C469 C467 1.415 . S
C470 H460 0.930 . S
C470 C468 1.419 . S
C470 C471 1.362 . S
C471 H461 0.930 . S
C471 C464 1.409 . S
C471 C470 1.362 . S
H472 C478 0.930 . S
H473 C481 0.930 . S
H474 C482 0.930 . S
H475 C483 0.930 . S
H476 C486 0.930 . S
H477 C487 0.930 . S
C478 H472 0.930 . S
C478 C479 1.355 . S
C478 C480 1.415 . S
C479 C478 1.355 . S
C479 C481 1.419 . S
C480 C478 1.415 . S
C480 C485 1.425 . S
C480 C487 1.409 . S
C481 H473 0.930 . S
C481 C479 1.419 . S
C481 C482 1.362 . S
C482 H474 0.930 . S
C482 C481 1.362 . S
C482 C485 1.409 . S
C483 H475 0.930 . S
C483 C484 1.355 . S
C483 C485 1.415 . S
C484 C483 1.355 . S
C484 C486 1.419 . S
C485 C480 1.425 . S
C485 C482 1.409 . S
C485 C483 1.415 . S
C486 H476 0.930 . S
C486 C484 1.419 . S
C486 C487 1.362 . S
C487 H477 0.930 . S
C487 C480 1.409 . S
C487 C486 1.362 . S
H488 C494 0.930 . S
H489 C497 0.930 . S
H490 C498 0.930 . S
H491 C499 0.930 . S
H492 C502 0.930 . S
H493 C503 0.930 . S
C494 H488 0.930 . S
C494 C495 1.355 1_556 S
C494 C496 1.415 . S
C495 C494 1.355 1_554 S
C495 C497 1.419 . S
C496 C494 1.415 . S
C496 C501 1.425 1_556 S
C496 C503 1.409 . S
C497 H489 0.930 . S
C497 C495 1.419 . S
C497 C498 1.362 . S
C498 H490 0.930 . S
C498 C497 1.362 . S
C498 C501 1.409 . S
C499 H491 0.930 . S
C499 C500 1.355 1_554 S
C499 C501 1.415 . S
C500 C499 1.355 1_556 S
C500 C502 1.419 . S
C501 C496 1.425 1_554 S
C501 C498 1.409 . S
C501 C499 1.415 . S
C502 H492 0.930 . S
C502 C500 1.419 . S
C502 C503 1.362 . S
C503 H493 0.930 . S
C503 C496 1.409 . S
C503 C502 1.362 . S
H504 C510 0.930 . S
H505 C513 0.930 . S
H506 C514 0.930 . S
H507 C515 0.930 . S
H508 C518 0.930 . S
H509 C519 0.930 . S
C510 H504 0.930 . S
C510 C511 1.355 . S
C510 C512 1.415 . S
C511 C510 1.355 . S
C511 C513 1.419 . S
C512 C510 1.415 . S
C512 C517 1.425 . S
C512 C519 1.409 . S
C513 H505 0.930 . S
C513 C511 1.419 . S
C513 C514 1.362 . S
C514 H506 0.930 . S
C514 C513 1.362 . S
C514 C517 1.409 . S
C515 H507 0.930 . S
C515 C516 1.355 . S
C515 C517 1.415 . S
C516 C515 1.355 . S
C516 C518 1.419 . S
C517 C512 1.425 . S
C517 C514 1.409 . S
C517 C515 1.415 . S
C518 H508 0.930 . S
C518 C516 1.419 . S
C518 C519 1.362 . S
C519 H509 0.930 . S
C519 C512 1.409 . S
C519 C518 1.362 . S
H520 C526 0.930 . S
H521 C529 0.930 . S
H522 C530 0.930 . S
H523 C531 0.930 . S
H524 C534 0.930 . S
H525 C535 0.930 . S
C526 H520 0.930 . S
C526 C527 1.355 . S
C526 C528 1.415 . S
C527 C526 1.355 . S
C527 C529 1.419 . S
C528 C526 1.415 . S
C528 C533 1.425 . S
C528 C535 1.409 . S
C529 H521 0.930 . S
C529 C527 1.419 . S
C529 C530 1.362 . S
C530 H522 0.930 . S
C530 C529 1.362 . S
C530 C533 1.409 . S
C531 H523 0.930 . S
C531 C532 1.355 . S
C531 C533 1.415 . S
C532 C531 1.355 . S
C532 C534 1.419 . S
C533 C528 1.425 . S
C533 C530 1.409 . S
C533 C531 1.415 . S
C534 H524 0.930 . S
C534 C532 1.419 . S
C534 C535 1.362 . S
C535 H525 0.930 . S
C535 C528 1.409 . S
C535 C534 1.362 . S
H536 C542 0.930 . S
H537 C545 0.930 . S
H538 C546 0.930 . S
H539 C547 0.928 1_554 S
H540 C550 0.930 . S
H541 C551 0.930 . S
C542 H536 0.930 . S
C542 C543 1.355 1_556 S
C542 C544 1.415 . S
C543 C542 1.355 1_554 S
C543 C545 1.419 . S
C544 C542 1.415 . S
C544 C549 1.425 1_556 S
C544 C551 1.409 . S
C545 H537 0.930 . S
C545 C543 1.419 . S
C545 C546 1.362 . S
C546 H538 0.930 . S
C546 C545 1.362 . S
C546 C549 1.409 . S
C547 H539 0.928 1_556 S
C547 C548 1.357 . S
C547 C549 1.414 1_556 S
C548 C547 1.357 . S
C548 C550 1.419 . S
C549 C544 1.425 1_554 S
C549 C546 1.409 . S
C549 C547 1.414 1_554 S
C550 H540 0.930 . S
C550 C548 1.419 . S
C550 C551 1.362 . S
C551 H541 0.930 . S
C551 C544 1.409 . S
C551 C550 1.362 . S
C175 C3 1.437 . S
C180 C129 1.432 . S
C191 C17 1.395 . S
C196 C143 1.420 . S
C207 C31 1.388 . S
C212 C157 1.392 . S
C223 C45 1.429 . S
C228 C87 1.438 . S
C239 C101 1.400 . S
C244 C59 1.386 . S
C255 C115 1.387 . S
C260 C73 1.392 . S
C271 C148 1.762 . S
C276 C8 1.758 . S
C287 C22 1.755 . S
C292 C162 1.765 . S
C303 C36 1.745 . S
C308 C92 1.766 . S
C319 C50 1.751 . S
C324 C106 1.758 . S
C335 C64 1.773 . S
C340 C120 1.741 . S
C351 C78 1.741 . S
C356 C134 1.774 . S
C367 C147 1.027 . S
C372 C7 1.030 . S
C383 C21 1.041 . S
C388 C161 1.039 . S
C399 C35 0.982 . S
C404 C91 0.984 . S
C415 C49 0.962 . S
C420 C105 0.961 . S
C431 C63 0.960 . S
C436 C119 0.959 . S
C447 C77 1.050 . S
C452 C133 1.051 . S
C463 C9 1.635 . S
C468 C93 1.651 . S
C479 C107 1.639 . S
C484 C23 1.647 . S
C495 C37 1.648 1_554 S
C500 C121 1.637 1_556 S
C511 C51 1.652 . S
C516 C135 1.633 . S
C527 C65 1.634 . S
C532 C149 1.651 . S
C543 C163 1.634 . S
C548 C79 1.651 . S
