# Generated by pormake.
# Topology lvt, (4)-cn, num edge types: 1
# Building blocks:
#     Node 0, Type 0, BuildingBlock: NAWXER_clean_sbu_0, # of connection points: 4
#     Node 1, Type 0, BuildingBlock: NAWXER_clean_sbu_0, # of connection points: 4
#     Node 2, Type 0, BuildingBlock: NAWXER_clean_sbu_0, # of connection points: 4
#     Node 3, Type 0, BuildingBlock: NAWXER_clean_sbu_0, # of connection points: 4
#     Node 4, Type 0, BuildingBlock: NAWXER_clean_sbu_0, # of connection points: 4
#     Node 5, Type 0, BuildingBlock: NAWXER_clean_sbu_0, # of connection points: 4
#     Node 6, Type 0, BuildingBlock: NAWXER_clean_sbu_0, # of connection points: 4
#     Node 7, Type 0, BuildingBlock: NAWXER_clean_sbu_0, # of connection points: 4
#     Edge 8, Type (0, 0), BuildingBlock: OJICUG_clean_linker_0, # of connection points: 2
#     Edge 9, Type (0, 0), BuildingBlock: OJICUG_clean_linker_0, # of connection points: 2
#     Edge 10, Type (0, 0), BuildingBlock: OJICUG_clean_linker_0, # of connection points: 2
#     Edge 11, Type (0, 0), BuildingBlock: OJICUG_clean_linker_0, # of connection points: 2
#     Edge 12, Type (0, 0), BuildingBlock: OJICUG_clean_linker_0, # of connection points: 2
#     Edge 13, Type (0, 0), BuildingBlock: OJICUG_clean_linker_0, # of connection points: 2
#     Edge 14, Type (0, 0), BuildingBlock: OJICUG_clean_linker_0, # of connection points: 2
#     Edge 15, Type (0, 0), BuildingBlock: OJICUG_clean_linker_0, # of connection points: 2
#     Edge 16, Type (0, 0), BuildingBlock: OJICUG_clean_linker_0, # of connection points: 2
#     Edge 17, Type (0, 0), BuildingBlock: OJICUG_clean_linker_0, # of connection points: 2
#     Edge 18, Type (0, 0), BuildingBlock: OJICUG_clean_linker_0, # of connection points: 2
#     Edge 19, Type (0, 0), BuildingBlock: OJICUG_clean_linker_0, # of connection points: 2
#     Edge 20, Type (0, 0), BuildingBlock: OJICUG_clean_linker_0, # of connection points: 2
#     Edge 21, Type (0, 0), BuildingBlock: OJICUG_clean_linker_0, # of connection points: 2
#     Edge 22, Type (0, 0), BuildingBlock: OJICUG_clean_linker_0, # of connection points: 2
#     Edge 23, Type (0, 0), BuildingBlock: OJICUG_clean_linker_0, # of connection points: 2
# Relax obj value: 0.000
# Max RMSD: 0.000
# Mean RMSD: 0.000
data_MOF--net-lvt--node1-NAWXER_clean_sbu_0--edge1-OJICUG_clean_linker_0
_symmetry_space_group_name_H-M    P1
_symmetry_Int_Tables_number       1
_symmetry_cell_setting            triclinic
loop_
_symmetry_equiv_pos_as_xyz
'x, y, z'
_cell_length_a     27.813252
_cell_length_b     27.299693
_cell_length_c     15.517229
_cell_angle_alpha  90.00294
_cell_angle_beta   90.008647
_cell_angle_gamma 90.000394
loop_
_atom_site_label
_atom_site_type_symbol
_atom_site_fract_x
_atom_site_fract_y
_atom_site_fract_z
_atom_type_partial_charge
C0 C 0.96898 0.95774 0.59785 0.0
C1 C 0.10114 0.06234 0.49842 0.0
O2 O 0.991 0.95341 0.52628 0.0
Zn3 Zn 0.03225 1.01096 0.53895 0.0
O4 O 0.97766 0.99456 0.64638 0.0
Zn5 Zn 0.02284 0.05703 0.65169 0.0
O6 O 0.97715 0.11215 0.64045 0.0
O7 O 0.98438 0.06996 0.52023 0.0
O8 O 0.08176 0.07658 0.56915 0.0
O9 O 0.08328 0.02617 0.45761 0.0
O10 O 0.07254 0.99087 0.64993 0.0
O11 O 0.05687 0.0408 0.75906 0.0
C12 C 0.96589 0.1058 0.56169 0.0
C13 C 0.0788 1.00363 0.72845 0.0
C14 C 0.1903 0.84069 0.8236 0.0
C15 C 0.28216 0.68993 0.87146 0.0
O16 O 0.21892 0.82959 0.7619 0.0
Zn17 Zn 0.26707 0.77213 0.7256 0.0
O18 O 0.18445 0.81082 0.88565 0.0
Zn19 Zn 0.2315 0.76232 0.8461 0.0
O20 O 0.29686 0.80447 0.8506 0.0
O21 O 0.32598 0.80946 0.71841 0.0
O22 O 0.24937 0.70778 0.91927 0.0
O23 O 0.29115 0.70992 0.79844 0.0
O24 O 0.23836 0.74475 0.62143 0.0
O25 O 0.1964 0.72833 0.73827 0.0
C26 C 0.32916 0.81984 0.79827 0.0
C27 C 0.20216 0.72452 0.65646 0.0
C28 C 0.46897 0.95771 0.92775 0.0
C29 C 0.60112 0.06231 0.02721 0.0
O30 O 0.47764 0.99454 0.87922 0.0
Zn31 Zn 0.5228 0.05701 0.87393 0.0
O32 O 0.49099 0.95338 0.99933 0.0
Zn33 Zn 0.53223 1.01094 0.98667 0.0
O34 O 0.48435 0.06993 1.00538 0.0
O35 O 0.47711 0.11212 0.88517 0.0
O36 O 0.58326 0.02616 0.06802 0.0
O37 O 0.58173 0.07655 0.95648 0.0
O38 O 0.55683 0.04077 0.76656 0.0
O39 O 0.57251 0.99085 0.87569 0.0
C40 C 0.46585 0.10577 0.96392 0.0
C41 C 0.57876 1.00361 0.79718 0.0
C42 C 0.32983 0.2245 0.1565 0.0
C43 C 0.20286 0.31986 0.29823 0.0
O44 O 0.29364 0.24472 0.12146 0.0
Zn45 Zn 0.26493 0.27213 0.22561 0.0
O46 O 0.3356 0.22833 0.23831 0.0
Zn47 Zn 0.30053 0.26235 0.34612 0.0
O48 O 0.28265 0.20783 0.41933 0.0
O49 O 0.24087 0.20994 0.29849 0.0
O50 O 0.23516 0.3045 0.35058 0.0
O51 O 0.20603 0.30947 0.21839 0.0
O52 O 0.31311 0.3296 0.26185 0.0
O53 O 0.34758 0.31086 0.38563 0.0
C54 C 0.24986 0.18997 0.37152 0.0
C55 C 0.34173 0.34071 0.32355 0.0
C56 C 0.70289 0.31984 0.22722 0.0
C57 C 0.82989 0.22454 0.36903 0.0
O58 O 0.73518 0.30447 0.17489 0.0
Zn59 Zn 0.80055 0.26232 0.17939 0.0
O60 O 0.70607 0.30947 0.30707 0.0
Zn61 Zn 0.76498 0.27214 0.29989 0.0
O62 O 0.81313 0.3296 0.26357 0.0
O63 O 0.84759 0.31081 0.13982 0.0
O64 O 0.7937 0.24477 0.40406 0.0
O65 O 0.83564 0.22834 0.28722 0.0
O66 O 0.78267 0.20777 0.10622 0.0
O67 O 0.7409 0.20993 0.22706 0.0
C68 C 0.84174 0.34069 0.20186 0.0
C69 C 0.74989 0.18993 0.15404 0.0
C70 C 0.78217 0.68997 0.65396 0.0
C71 C 0.6903 0.84071 0.70192 0.0
O72 O 0.74937 0.70782 0.60616 0.0
Zn73 Zn 0.7315 0.76235 0.67937 0.0
O74 O 0.79116 0.70994 0.727 0.0
Zn75 Zn 0.76709 0.77214 0.79988 0.0
O76 O 0.73839 0.74474 0.90403 0.0
O77 O 0.69643 0.72833 0.78718 0.0
O78 O 0.71892 0.8296 0.76362 0.0
O79 O 0.68444 0.81085 0.63985 0.0
O80 O 0.79686 0.8045 0.6749 0.0
O81 O 0.826 0.80948 0.80709 0.0
C82 C 0.70219 0.72451 0.86899 0.0
C83 C 0.82916 0.81987 0.72725 0.0
C84 C 0.43092 0.56231 0.99829 0.0
C85 C 0.56308 0.45771 0.09774 0.0
O86 O 0.45031 0.57655 0.06902 0.0
Zn87 Zn 0.50924 0.55701 0.15157 0.0
O88 O 0.44878 0.52615 0.95748 0.0
Zn89 Zn 0.49982 0.51094 0.03883 0.0
O90 O 0.45953 0.49085 0.1498 0.0
O91 O 0.47521 0.54078 0.25893 0.0
O92 O 0.54106 0.45338 0.02617 0.0
O93 O 0.5544 0.49454 0.14627 0.0
O94 O 0.55494 0.61213 0.14033 0.0
O95 O 0.54769 0.56993 0.02012 0.0
C96 C 0.45327 0.50361 0.22831 0.0
C97 C 0.56619 0.60577 0.06158 0.0
C98 C 0.95323 0.50363 0.29702 0.0
C99 C 0.06615 0.60579 0.4638 0.0
O100 O 0.97516 0.5408 0.26642 0.0
Zn101 Zn 1.0092 0.55703 0.37379 0.0
O102 O 0.9595 0.49087 0.37553 0.0
Zn103 Zn 0.99978 0.51096 0.48652 0.0
O104 O 0.94875 0.52618 0.56786 0.0
O105 O 0.95027 0.57658 0.45633 0.0
O106 O 0.04765 0.56996 0.50525 0.0
O107 O 0.05489 0.61215 0.38505 0.0
O108 O 0.05437 0.49456 0.3791 0.0
O109 O 0.04102 0.45341 0.4992 0.0
C110 C 0.93089 0.56234 0.52706 0.0
C111 C 0.06304 0.45774 0.42763 0.0
C112 C 0.17381 0.11424 0.52297 0.0
C113 C 0.14354 0.08915 0.46529 0.0
H114 H 0.23217 0.16464 0.5386 0.0
C115 C 0.15236 0.09297 0.37649 0.0
H116 H 0.16815 0.11158 0.5919 0.0
C117 C 0.18869 0.12398 0.34587 0.0
C118 C 0.21757 0.15083 0.40358 0.0
H119 H 0.12963 0.07402 0.33061 0.0
H120 H 0.19314 0.12819 0.27691 0.0
C121 C 0.21075 0.14434 0.49249 0.0
C122 C 0.15874 0.96832 0.75178 0.0
C123 C 0.1111 0.97278 0.7799 0.0
H124 H 0.22117 0.92306 0.74453 0.0
C125 C 0.0919 0.93679 0.83481 0.0
H126 H 0.17389 0.9951 0.70791 0.0
C127 C 0.1189 0.89485 0.85535 0.0
C128 C 0.16498 0.88835 0.81989 0.0
H129 H 0.05467 0.93882 0.85504 0.0
H130 H 0.10233 0.86595 0.89282 0.0
C131 C 0.18543 0.92663 0.77162 0.0
C132 C 0.42676 0.91594 0.80675 0.0
C133 C 0.43536 0.91987 0.89593 0.0
H134 H 0.38727 0.88073 0.70588 0.0
C135 C 0.4111 0.88829 0.95237 0.0
H136 H 0.44546 0.93932 0.76137 0.0
C137 C 0.37731 0.85489 0.92032 0.0
C138 C 0.36789 0.85189 0.83119 0.0
H139 H 0.41719 0.89037 0.02122 0.0
H140 H 0.35809 0.83183 0.96549 0.0
C141 C 0.39369 0.8821 0.7747 0.0
C142 C 0.36498 0.1964 0.01401 0.0
C143 C 0.36509 0.19586 0.10488 0.0
H144 H 0.39726 0.16894 0.89736 0.0
C145 C 0.39956 0.16708 0.14744 0.0
H146 H 0.33903 0.21838 0.9792 0.0
C147 C 0.43229 0.13882 0.101 0.0
C148 C 0.43207 0.13872 1.01035 0.0
H149 H 0.40093 0.1657 0.21717 0.0
H150 H 0.45785 0.11676 0.13664 0.0
C151 C 0.39843 0.16833 0.96712 0.0
C152 C 0.91111 0.88833 0.57319 0.0
C153 C 0.93536 0.91991 0.62965 0.0
H154 H 0.85809 0.83187 0.56003 0.0
C155 C 0.92676 0.91597 0.71882 0.0
H156 H 0.9172 0.89041 0.50434 0.0
C157 C 0.89369 0.88214 0.75085 0.0
C158 C 0.86789 0.85193 0.69434 0.0
H159 H 0.94547 0.93936 0.76421 0.0
H160 H 0.88727 0.88077 0.81966 0.0
C161 C 0.87731 0.85493 0.60522 0.0
C162 C 0.93234 0.13886 0.4246 0.0
C163 C 0.93212 0.13875 0.51524 0.0
H164 H 0.90099 0.16574 0.30841 0.0
C165 C 0.89848 0.16837 0.55846 0.0
H166 H 0.95791 0.1168 0.38897 0.0
C167 C 0.86503 0.19645 0.51154 0.0
C168 C 0.86515 0.1959 0.42067 0.0
H169 H 0.8973 0.16898 0.62821 0.0
H170 H 0.83908 0.21843 0.54634 0.0
C171 C 0.89961 0.16712 0.37813 0.0
C172 C 0.68871 0.12396 0.17974 0.0
C173 C 0.71759 0.15079 0.12201 0.0
H174 H 0.62963 0.07403 0.19502 0.0
C175 C 0.71076 0.14428 0.0331 0.0
H176 H 0.69317 0.12819 0.24869 0.0
C177 C 0.67381 0.11418 1.00264 0.0
C178 C 0.64354 0.08911 0.06033 0.0
H179 H 0.73218 0.16455 0.98698 0.0
H180 H 0.66814 0.11149 0.93371 0.0
C181 C 0.65236 0.09295 0.14913 0.0
C182 C 0.59187 0.93678 0.69081 0.0
C183 C 0.61107 0.97277 0.74574 0.0
H184 H 0.6023 0.86595 0.63275 0.0
C185 C 0.65872 0.96832 0.77383 0.0
H186 H 0.55463 0.93881 0.6706 0.0
C187 C 0.68541 0.92663 0.75396 0.0
C188 C 0.66497 0.88836 0.70567 0.0
H189 H 0.67388 0.9951 0.81772 0.0
H190 H 0.72116 0.92307 0.78102 0.0
C191 C 0.61887 0.89485 0.67023 0.0
C192 C 0.6336 0.66834 0.05838 0.0
C193 C 0.59997 0.63872 0.01514 0.0
H194 H 0.693 0.7184 0.04629 0.0
C195 C 0.59975 0.63881 0.9245 0.0
H196 H 0.63478 0.66896 0.12813 0.0
C197 C 0.63248 0.66708 0.87805 0.0
C198 C 0.66694 0.69586 0.92061 0.0
H199 H 0.57419 0.61675 0.88885 0.0
H200 H 0.6311 0.66569 0.80833 0.0
C201 C 0.66705 0.69642 1.01148 0.0
C202 C 0.63836 0.38211 0.25079 0.0
C203 C 0.66416 0.3519 0.19429 0.0
H204 H 0.58659 0.43933 0.26412 0.0
C205 C 0.65474 0.35489 0.10517 0.0
H206 H 0.64478 0.38075 0.31961 0.0
C207 C 0.62094 0.38829 0.07312 0.0
C208 C 0.59669 0.41987 0.12956 0.0
H209 H 0.67395 0.33182 0.05999 0.0
H210 H 0.61485 0.39037 1.00427 0.0
C211 C 0.60529 0.41594 0.21874 0.0
C212 C 0.8466 0.42665 0.25376 0.0
C213 C 0.86706 0.38836 0.20555 0.0
H214 H 0.85811 0.49513 0.31744 0.0
C215 C 0.91316 0.39483 0.17015 0.0
H216 H 0.81084 0.42308 0.28079 0.0
C217 C 0.94015 0.43677 0.1907 0.0
C218 C 0.92094 0.47278 0.24556 0.0
H219 H 0.92974 0.36592 0.13273 0.0
H220 H 0.97739 0.43879 0.17053 0.0
C221 C 0.87328 0.46835 0.2736 0.0
C222 C 0.82128 0.64434 0.53299 0.0
C223 C 0.81446 0.65083 0.62191 0.0
H224 H 0.86388 0.61157 0.43358 0.0
C225 C 0.84333 0.62398 0.67962 0.0
H226 H 0.79986 0.66464 0.48689 0.0
C227 C 0.87967 0.59297 0.649 0.0
C228 C 0.88849 0.58915 0.56019 0.0
H229 H 0.83888 0.62819 0.74857 0.0
H230 H 0.9024 0.57403 0.69487 0.0
C231 C 0.85822 0.61424 0.50251 0.0
C232 C 0.37333 0.46831 0.25158 0.0
C233 C 0.42097 0.47277 0.27975 0.0
H234 H 0.3109 0.42305 0.24433 0.0
C235 C 0.44015 0.43679 0.33472 0.0
H236 H 0.35819 0.49507 0.20766 0.0
C237 C 0.41314 0.39487 0.35529 0.0
C238 C 0.36706 0.38837 0.31979 0.0
H239 H 0.47738 0.43884 0.35499 0.0
H240 H 0.4297 0.36598 0.39281 0.0
C241 C 0.34663 0.42662 0.27144 0.0
C242 C 0.34333 0.62396 0.84577 0.0
C243 C 0.31446 0.65079 0.90349 0.0
H244 H 0.4024 0.57402 0.83048 0.0
C245 C 0.32129 0.64429 0.9924 0.0
H246 H 0.33887 0.62818 0.77681 0.0
C247 C 0.35824 0.61419 0.02286 0.0
C248 C 0.38851 0.58912 0.96517 0.0
H249 H 0.29987 0.66457 0.03852 0.0
H250 H 0.36391 0.61151 0.09179 0.0
C251 C 0.37968 0.59295 0.87637 0.0
C252 C 0.13243 0.66711 0.64736 0.0
C253 C 0.1669 0.69588 0.60482 0.0
H254 H 0.07413 0.61679 0.63652 0.0
C255 C 0.16702 0.69643 0.51395 0.0
H256 H 0.13105 0.66573 0.71708 0.0
C257 C 0.13356 0.66836 0.46703 0.0
C258 C 0.09992 0.63874 0.51025 0.0
H259 H 0.19297 0.71841 0.47915 0.0
H260 H 0.13474 0.66897 0.39728 0.0
C261 C 0.0997 0.63885 0.60089 0.0
C262 C 0.15472 0.35493 0.42026 0.0
C263 C 0.16413 0.35193 0.33114 0.0
H264 H 0.11483 0.39041 0.52113 0.0
C265 C 0.13833 0.38213 0.27462 0.0
H266 H 0.17393 0.33187 0.46544 0.0
C267 C 0.10526 0.41597 0.30665 0.0
C268 C 0.09666 0.4199 0.39583 0.0
H269 H 0.14475 0.38076 0.20581 0.0
H270 H 0.08655 0.43935 0.26126 0.0
C271 C 0.12092 0.38833 0.45228 0.0
loop_
_geom_bond_atom_site_label_1
_geom_bond_atom_site_label_2
_geom_bond_distance
_geom_bond_site_symmetry_2
_ccdc_geom_bond_type
C0 O2 1.247 . S
C0 O4 1.258 . S
C1 O8 1.247 . S
C1 O9 1.258 . S
O2 C0 1.247 . S
O2 Zn3 2.026 . S
Zn3 O2 2.026 . S
Zn3 O7 2.034 1_565 S
Zn3 O9 2.037 1_665 S
Zn3 O10 2.029 1_655 S
O4 C0 1.258 . S
O4 Zn5 2.033 1_665 S
Zn5 O4 2.033 1_445 S
Zn5 O6 2.026 1_455 S
Zn5 O8 2.030 . S
Zn5 O11 2.038 1_545 S
O6 Zn5 2.026 1_655 S
O6 C12 1.247 . S
O7 Zn3 2.034 1_545 S
O7 C12 1.258 . S
O8 C1 1.247 . S
O8 Zn5 2.030 . S
O9 C1 1.258 . S
O9 Zn3 2.037 1_445 S
O10 Zn3 2.029 1_455 S
O10 C13 1.247 . S
O11 Zn5 2.038 1_565 S
O11 C13 1.258 . S
C12 O6 1.247 . S
C12 O7 1.258 . S
C13 O10 1.247 . S
C13 O11 1.258 . S
C14 O16 1.247 . S
C14 O18 1.258 . S
C15 O22 1.247 . S
C15 O23 1.258 . S
O16 C14 1.247 . S
O16 Zn17 2.028 . S
Zn17 O16 2.028 . S
Zn17 O21 2.035 . S
Zn17 O23 2.035 . S
Zn17 O24 2.028 . S
O18 C14 1.258 . S
O18 Zn19 2.035 . S
Zn19 O18 2.035 . S
Zn19 O20 2.028 . S
Zn19 O22 2.028 . S
Zn19 O25 2.035 . S
O20 Zn19 2.028 . S
O20 C26 1.247 . S
O21 Zn17 2.035 . S
O21 C26 1.258 . S
O22 C15 1.247 . S
O22 Zn19 2.028 . S
O23 C15 1.258 . S
O23 Zn17 2.035 . S
O24 Zn17 2.028 . S
O24 C27 1.247 . S
O25 Zn19 2.035 . S
O25 C27 1.258 . S
C26 O20 1.247 . S
C26 O21 1.258 . S
C27 O24 1.247 . S
C27 O25 1.258 . S
C28 O30 1.247 . S
C28 O32 1.258 1_556 S
C29 O36 1.247 . S
C29 O37 1.258 1_554 S
O30 C28 1.247 . S
O30 Zn31 2.028 1_565 S
Zn31 O30 2.028 1_545 S
Zn31 O35 2.035 . S
Zn31 O37 2.035 . S
Zn31 O38 2.028 1_545 S
O32 C28 1.258 1_554 S
O32 Zn33 2.035 . S
Zn33 O32 2.035 . S
Zn33 O34 2.028 1_565 S
Zn33 O36 2.028 1_565 S
Zn33 O39 2.035 . S
O34 Zn33 2.028 1_545 S
O34 C40 1.247 . S
O35 Zn31 2.035 . S
O35 C40 1.258 1_556 S
O36 C29 1.247 . S
O36 Zn33 2.028 1_545 S
O37 C29 1.258 1_556 S
O37 Zn31 2.035 . S
O38 Zn31 2.028 1_565 S
O38 C41 1.247 . S
O39 Zn33 2.035 . S
O39 C41 1.258 1_554 S
C40 O34 1.247 . S
C40 O35 1.258 1_554 S
C41 O38 1.247 . S
C41 O39 1.258 1_556 S
C42 O44 1.247 . S
C42 O46 1.258 . S
C43 O50 1.247 . S
C43 O51 1.258 . S
O44 C42 1.247 . S
O44 Zn45 2.028 . S
Zn45 O44 2.028 . S
Zn45 O49 2.035 . S
Zn45 O51 2.035 . S
Zn45 O52 2.028 . S
O46 C42 1.258 . S
O46 Zn47 2.035 . S
Zn47 O46 2.035 . S
Zn47 O48 2.028 . S
Zn47 O50 2.028 . S
Zn47 O53 2.035 . S
O48 Zn47 2.028 . S
O48 C54 1.247 . S
O49 Zn45 2.035 . S
O49 C54 1.258 . S
O50 C43 1.247 . S
O50 Zn47 2.028 . S
O51 C43 1.258 . S
O51 Zn45 2.035 . S
O52 Zn45 2.028 . S
O52 C55 1.247 . S
O53 Zn47 2.035 . S
O53 C55 1.258 . S
C54 O48 1.247 . S
C54 O49 1.258 . S
C55 O52 1.247 . S
C55 O53 1.258 . S
C56 O58 1.247 . S
C56 O60 1.258 . S
C57 O64 1.247 . S
C57 O65 1.258 . S
O58 C56 1.247 . S
O58 Zn59 2.028 . S
Zn59 O58 2.028 . S
Zn59 O63 2.035 . S
Zn59 O65 2.035 . S
Zn59 O66 2.028 . S
O60 C56 1.258 . S
O60 Zn61 2.035 . S
Zn61 O60 2.035 . S
Zn61 O62 2.028 . S
Zn61 O64 2.028 . S
Zn61 O67 2.035 . S
O62 Zn61 2.028 . S
O62 C68 1.247 . S
O63 Zn59 2.035 . S
O63 C68 1.258 . S
O64 C57 1.247 . S
O64 Zn61 2.028 . S
O65 C57 1.258 . S
O65 Zn59 2.035 . S
O66 Zn59 2.028 . S
O66 C69 1.247 . S
O67 Zn61 2.035 . S
O67 C69 1.258 . S
C68 O62 1.247 . S
C68 O63 1.258 . S
C69 O66 1.247 . S
C69 O67 1.258 . S
C70 O72 1.247 . S
C70 O74 1.258 . S
C71 O78 1.247 . S
C71 O79 1.258 . S
O72 C70 1.247 . S
O72 Zn73 2.028 . S
Zn73 O72 2.028 . S
Zn73 O77 2.035 . S
Zn73 O79 2.035 . S
Zn73 O80 2.028 . S
O74 C70 1.258 . S
O74 Zn75 2.035 . S
Zn75 O74 2.035 . S
Zn75 O76 2.028 . S
Zn75 O78 2.028 . S
Zn75 O81 2.035 . S
O76 Zn75 2.028 . S
O76 C82 1.247 . S
O77 Zn73 2.035 . S
O77 C82 1.258 . S
O78 C71 1.247 . S
O78 Zn75 2.028 . S
O79 C71 1.258 . S
O79 Zn73 2.035 . S
O80 Zn73 2.028 . S
O80 C83 1.247 . S
O81 Zn75 2.035 . S
O81 C83 1.258 . S
C82 O76 1.247 . S
C82 O77 1.258 . S
C83 O80 1.247 . S
C83 O81 1.258 . S
C84 O86 1.247 1_556 S
C84 O88 1.258 . S
C85 O92 1.247 1_554 S
C85 O93 1.258 . S
O86 C84 1.247 1_554 S
O86 Zn87 2.028 . S
Zn87 O86 2.028 . S
Zn87 O91 2.035 . S
Zn87 O93 2.035 . S
Zn87 O94 2.028 . S
O88 C84 1.258 . S
O88 Zn89 2.035 . S
Zn89 O88 2.035 . S
Zn89 O90 2.028 . S
Zn89 O92 2.028 . S
Zn89 O95 2.035 . S
O90 Zn89 2.028 . S
O90 C96 1.247 1_556 S
O91 Zn87 2.035 . S
O91 C96 1.258 . S
O92 C85 1.247 1_556 S
O92 Zn89 2.028 . S
O93 C85 1.258 . S
O93 Zn87 2.035 . S
O94 Zn87 2.028 . S
O94 C97 1.247 1_554 S
O95 Zn89 2.035 . S
O95 C97 1.258 . S
C96 O90 1.247 1_554 S
C96 O91 1.258 . S
C97 O94 1.247 1_556 S
C97 O95 1.258 . S
C98 O100 1.247 . S
C98 O102 1.258 . S
C99 O106 1.247 . S
C99 O107 1.258 . S
O100 C98 1.247 . S
O100 Zn101 2.026 . S
Zn101 O100 2.026 . S
Zn101 O105 2.034 . S
Zn101 O107 2.037 1_655 S
Zn101 O108 2.029 1_655 S
O102 C98 1.258 . S
O102 Zn103 2.033 1_655 S
Zn103 O102 2.033 1_455 S
Zn103 O104 2.026 1_455 S
Zn103 O106 2.030 . S
Zn103 O109 2.038 . S
O104 Zn103 2.026 1_655 S
O104 C110 1.247 . S
O105 Zn101 2.034 . S
O105 C110 1.258 . S
O106 C99 1.247 . S
O106 Zn103 2.030 . S
O107 C99 1.258 . S
O107 Zn101 2.037 1_455 S
O108 Zn101 2.029 1_455 S
O108 C111 1.247 . S
O109 Zn103 2.038 . S
O109 C111 1.258 . S
C110 O104 1.247 . S
C110 O105 1.258 . S
C111 O108 1.247 . S
C111 O109 1.258 . S
C112 C113 1.387 . S
C112 H116 0.950 . S
C112 C121 1.390 . S
C113 C112 1.387 . S
C113 C115 1.387 . S
H114 C121 0.950 . S
C115 C113 1.387 . S
C115 C117 1.390 . S
C115 H119 0.950 . S
H116 C112 0.950 . S
C117 C115 1.390 . S
C117 C118 1.387 . S
C117 H120 0.950 . S
C118 C117 1.387 . S
C118 C121 1.387 . S
H119 C115 0.950 . S
H120 C117 0.950 . S
C121 C112 1.390 . S
C121 H114 0.950 . S
C121 C118 1.387 . S
C122 C123 1.387 . S
C122 H126 0.950 . S
C122 C131 1.390 . S
C123 C122 1.387 . S
C123 C125 1.387 . S
H124 C131 0.950 . S
C125 C123 1.387 . S
C125 C127 1.390 . S
C125 H129 0.950 . S
H126 C122 0.950 . S
C127 C125 1.390 . S
C127 C128 1.387 . S
C127 H130 0.950 . S
C128 C127 1.387 . S
C128 C131 1.387 . S
H129 C125 0.950 . S
H130 C127 0.950 . S
C131 C122 1.390 . S
C131 H124 0.950 . S
C131 C128 1.387 . S
C132 C133 1.387 . S
C132 H136 0.950 . S
C132 C141 1.390 . S
C133 C132 1.387 . S
C133 C135 1.387 . S
H134 C141 0.950 . S
C135 C133 1.387 . S
C135 C137 1.390 . S
C135 H139 0.950 1_556 S
H136 C132 0.950 . S
C137 C135 1.390 . S
C137 C138 1.387 . S
C137 H140 0.950 . S
C138 C137 1.387 . S
C138 C141 1.387 . S
H139 C135 0.950 1_554 S
H140 C137 0.950 . S
C141 C132 1.390 . S
C141 H134 0.950 . S
C141 C138 1.387 . S
C142 C143 1.387 . S
C142 H146 0.950 . S
C142 C151 1.390 . S
C143 C142 1.387 . S
C143 C145 1.387 . S
H144 C151 0.950 1_556 S
C145 C143 1.387 . S
C145 C147 1.390 . S
C145 H149 0.950 . S
H146 C142 0.950 . S
C147 C145 1.390 . S
C147 C148 1.387 . S
C147 H150 0.950 . S
C148 C147 1.387 . S
C148 C151 1.387 . S
H149 C145 0.950 . S
H150 C147 0.950 . S
C151 C142 1.390 . S
C151 H144 0.950 1_554 S
C151 C148 1.387 . S
C152 C153 1.387 . S
C152 H156 0.950 . S
C152 C161 1.390 . S
C153 C152 1.387 . S
C153 C155 1.387 . S
H154 C161 0.950 . S
C155 C153 1.387 . S
C155 C157 1.390 . S
C155 H159 0.950 . S
H156 C152 0.950 . S
C157 C155 1.390 . S
C157 C158 1.387 . S
C157 H160 0.950 . S
C158 C157 1.387 . S
C158 C161 1.387 . S
H159 C155 0.950 . S
H160 C157 0.950 . S
C161 C152 1.390 . S
C161 H154 0.950 . S
C161 C158 1.387 . S
C162 C163 1.387 . S
C162 H166 0.950 . S
C162 C171 1.390 . S
C163 C162 1.387 . S
C163 C165 1.387 . S
H164 C171 0.950 . S
C165 C163 1.387 . S
C165 C167 1.390 . S
C165 H169 0.950 . S
H166 C162 0.950 . S
C167 C165 1.390 . S
C167 C168 1.387 . S
C167 H170 0.950 . S
C168 C167 1.387 . S
C168 C171 1.387 . S
H169 C165 0.950 . S
H170 C167 0.950 . S
C171 C162 1.390 . S
C171 H164 0.950 . S
C171 C168 1.387 . S
C172 C173 1.387 . S
C172 H176 0.950 . S
C172 C181 1.390 . S
C173 C172 1.387 . S
C173 C175 1.387 . S
H174 C181 0.950 . S
C175 C173 1.387 . S
C175 C177 1.390 . S
C175 H179 0.950 . S
H176 C172 0.950 . S
C177 C175 1.390 . S
C177 C178 1.387 . S
C177 H180 0.950 1_554 S
C178 C177 1.387 . S
C178 C181 1.387 . S
H179 C175 0.950 . S
H180 C177 0.950 1_556 S
C181 C172 1.390 . S
C181 H174 0.950 . S
C181 C178 1.387 . S
C182 C183 1.387 . S
C182 H186 0.950 . S
C182 C191 1.390 . S
C183 C182 1.387 . S
C183 C185 1.387 . S
H184 C191 0.950 . S
C185 C183 1.387 . S
C185 C187 1.390 . S
C185 H189 0.950 1_556 S
H186 C182 0.950 . S
C187 C185 1.390 . S
C187 C188 1.387 . S
C187 H190 0.950 . S
C188 C187 1.387 . S
C188 C191 1.387 . S
H189 C185 0.950 1_554 S
H190 C187 0.950 . S
C191 C182 1.390 . S
C191 H184 0.950 . S
C191 C188 1.387 . S
C192 C193 1.387 . S
C192 H196 0.950 1_556 S
C192 C201 1.390 . S
C193 C192 1.387 . S
C193 C195 1.387 . S
H194 C201 0.950 . S
C195 C193 1.387 . S
C195 C197 1.390 . S
C195 H199 0.950 . S
H196 C192 0.950 1_554 S
C197 C195 1.390 . S
C197 C198 1.387 . S
C197 H200 0.950 . S
C198 C197 1.387 . S
C198 C201 1.387 . S
H199 C195 0.950 . S
H200 C197 0.950 . S
C201 C192 1.390 . S
C201 H194 0.950 . S
C201 C198 1.387 . S
C202 C203 1.387 . S
C202 H206 0.950 . S
C202 C211 1.390 . S
C203 C202 1.387 . S
C203 C205 1.387 . S
H204 C211 0.950 . S
C205 C203 1.387 . S
C205 C207 1.390 . S
C205 H209 0.950 . S
H206 C202 0.950 . S
C207 C205 1.390 . S
C207 C208 1.387 . S
C207 H210 0.950 1_554 S
C208 C207 1.387 . S
C208 C211 1.387 . S
H209 C205 0.950 . S
H210 C207 0.950 1_556 S
C211 C202 1.390 . S
C211 H204 0.950 . S
C211 C208 1.387 . S
C212 C213 1.387 . S
C212 H216 0.950 . S
C212 C221 1.390 . S
C213 C212 1.387 . S
C213 C215 1.387 . S
H214 C221 0.950 . S
C215 C213 1.387 . S
C215 C217 1.390 . S
C215 H219 0.950 . S
H216 C212 0.950 . S
C217 C215 1.390 . S
C217 C218 1.387 . S
C217 H220 0.950 . S
C218 C217 1.387 . S
C218 C221 1.387 . S
H219 C215 0.950 . S
H220 C217 0.950 . S
C221 C212 1.390 . S
C221 H214 0.950 . S
C221 C218 1.387 . S
C222 C223 1.387 . S
C222 H226 0.950 . S
C222 C231 1.390 . S
C223 C222 1.387 . S
C223 C225 1.387 . S
H224 C231 0.950 . S
C225 C223 1.387 . S
C225 C227 1.390 . S
C225 H229 0.950 . S
H226 C222 0.950 . S
C227 C225 1.390 . S
C227 C228 1.387 . S
C227 H230 0.950 . S
C228 C227 1.387 . S
C228 C231 1.387 . S
H229 C225 0.950 . S
H230 C227 0.950 . S
C231 C222 1.390 . S
C231 H224 0.950 . S
C231 C228 1.387 . S
C232 C233 1.387 . S
C232 H236 0.950 1_554 S
C232 C241 1.390 . S
C233 C232 1.387 . S
C233 C235 1.387 . S
H234 C241 0.950 . S
C235 C233 1.387 . S
C235 C237 1.390 . S
C235 H239 0.950 . S
H236 C232 0.950 1_556 S
C237 C235 1.390 . S
C237 C238 1.387 . S
C237 H240 0.950 . S
C238 C237 1.387 . S
C238 C241 1.387 . S
H239 C235 0.950 . S
H240 C237 0.950 . S
C241 C232 1.390 . S
C241 H234 0.950 . S
C241 C238 1.387 . S
C242 C243 1.387 . S
C242 H246 0.950 . S
C242 C251 1.390 . S
C243 C242 1.387 . S
C243 C245 1.387 . S
H244 C251 0.950 . S
C245 C243 1.387 . S
C245 C247 1.390 . S
C245 H249 0.950 . S
H246 C242 0.950 . S
C247 C245 1.390 . S
C247 C248 1.387 . S
C247 H250 0.950 1_556 S
C248 C247 1.387 . S
C248 C251 1.387 . S
H249 C245 0.950 . S
H250 C247 0.950 1_554 S
C251 C242 1.390 . S
C251 H244 0.950 . S
C251 C248 1.387 . S
C252 C253 1.387 . S
C252 H256 0.950 . S
C252 C261 1.390 . S
C253 C252 1.387 . S
C253 C255 1.387 . S
H254 C261 0.950 . S
C255 C253 1.387 . S
C255 C257 1.390 . S
C255 H259 0.950 . S
H256 C252 0.950 . S
C257 C255 1.390 . S
C257 C258 1.387 . S
C257 H260 0.950 . S
C258 C257 1.387 . S
C258 C261 1.387 . S
H259 C255 0.950 . S
H260 C257 0.950 . S
C261 C252 1.390 . S
C261 H254 0.950 . S
C261 C258 1.387 . S
C262 C263 1.387 . S
C262 H266 0.950 . S
C262 C271 1.390 . S
C263 C262 1.387 . S
C263 C265 1.387 . S
H264 C271 0.950 . S
C265 C263 1.387 . S
C265 C267 1.390 . S
C265 H269 0.950 . S
H266 C262 0.950 . S
C267 C265 1.390 . S
C267 C268 1.387 . S
C267 H270 0.950 . S
C268 C267 1.387 . S
C268 C271 1.387 . S
H269 C265 0.950 . S
H270 C267 0.950 . S
C271 C262 1.390 . S
C271 H264 0.950 . S
C271 C268 1.387 . S
C113 C1 1.499 . S
C118 C54 1.494 . S
C123 C13 1.499 . S
C128 C14 1.498 . S
C133 C28 1.498 . S
C138 C26 1.501 . S
C143 C42 1.498 . S
C148 C40 1.496 . S
C153 C0 1.498 . S
C158 C83 1.502 . S
C163 C12 1.499 . S
C168 C57 1.498 . S
C173 C69 1.498 . S
C178 C29 1.496 . S
C183 C41 1.499 . S
C188 C71 1.500 . S
C193 C97 1.499 . S
C198 C82 1.499 . S
C203 C56 1.499 . S
C208 C85 1.497 . S
C213 C68 1.498 . S
C218 C98 1.500 . S
C223 C70 1.498 . S
C228 C110 1.501 . S
C233 C96 1.498 . S
C238 C55 1.498 . S
C243 C15 1.498 . S
C248 C84 1.499 . S
C253 C27 1.498 . S
C258 C99 1.497 . S
C263 C43 1.499 . S
C268 C111 1.496 . S
