# Generated by pormake.
# Topology smu, (6)-cn, num edge types: 1
# Building blocks:
#     Node 0, Type 0, BuildingBlock: PAMTUU_clean_sbu_0, # of connection points: 6
#     Node 1, Type 0, BuildingBlock: PAMTUU_clean_sbu_0, # of connection points: 6
#     Node 2, Type 0, BuildingBlock: PAMTUU_clean_sbu_0, # of connection points: 6
#     Node 3, Type 0, BuildingBlock: PAMTUU_clean_sbu_0, # of connection points: 6
#     Node 4, Type 0, BuildingBlock: PAMTUU_clean_sbu_0, # of connection points: 6
#     Node 5, Type 0, BuildingBlock: PAMTUU_clean_sbu_0, # of connection points: 6
#     Edge 6, Type (0, 0), BuildingBlock: TEMPAE_clean_linker_10, # of connection points: 2
#     Edge 7, Type (0, 0), BuildingBlock: TEMPAE_clean_linker_10, # of connection points: 2
#     Edge 8, Type (0, 0), BuildingBlock: TEMPAE_clean_linker_10, # of connection points: 2
#     Edge 9, Type (0, 0), BuildingBlock: TEMPAE_clean_linker_10, # of connection points: 2
#     Edge 10, Type (0, 0), BuildingBlock: TEMPAE_clean_linker_10, # of connection points: 2
#     Edge 11, Type (0, 0), BuildingBlock: TEMPAE_clean_linker_10, # of connection points: 2
#     Edge 12, Type (0, 0), BuildingBlock: TEMPAE_clean_linker_10, # of connection points: 2
#     Edge 13, Type (0, 0), BuildingBlock: TEMPAE_clean_linker_10, # of connection points: 2
#     Edge 14, Type (0, 0), BuildingBlock: TEMPAE_clean_linker_10, # of connection points: 2
#     Edge 15, Type (0, 0), BuildingBlock: TEMPAE_clean_linker_10, # of connection points: 2
#     Edge 16, Type (0, 0), BuildingBlock: TEMPAE_clean_linker_10, # of connection points: 2
#     Edge 17, Type (0, 0), BuildingBlock: TEMPAE_clean_linker_10, # of connection points: 2
#     Edge 18, Type (0, 0), BuildingBlock: TEMPAE_clean_linker_10, # of connection points: 2
#     Edge 19, Type (0, 0), BuildingBlock: TEMPAE_clean_linker_10, # of connection points: 2
#     Edge 20, Type (0, 0), BuildingBlock: TEMPAE_clean_linker_10, # of connection points: 2
#     Edge 21, Type (0, 0), BuildingBlock: TEMPAE_clean_linker_10, # of connection points: 2
#     Edge 22, Type (0, 0), BuildingBlock: TEMPAE_clean_linker_10, # of connection points: 2
#     Edge 23, Type (0, 0), BuildingBlock: TEMPAE_clean_linker_10, # of connection points: 2
# Relax obj value: 0.216
# Max RMSD: 0.311
# Mean RMSD: 0.311
data_MOF--net-smu--node1-PAMTUU_clean_sbu_0--edge1-TEMPAE_clean_linker_10
_symmetry_space_group_name_H-M    P1
_symmetry_Int_Tables_number       1
_symmetry_cell_setting            triclinic
loop_
_symmetry_equiv_pos_as_xyz
'x, y, z'
_cell_length_a     39.762093
_cell_length_b     39.786223
_cell_length_c     28.293636
_cell_angle_alpha  89.94975
_cell_angle_beta   90.088087
_cell_angle_gamma 119.96863
loop_
_atom_site_label
_atom_site_type_symbol
_atom_site_fract_x
_atom_site_fract_y
_atom_site_fract_z
_atom_type_partial_charge
Tb0 Tb 0.31309 0.10979 0.25485 0.0
Tb1 Tb 0.37867 0.08329 0.25785 0.0
C2 C 0.33366 0.0766 0.1633 0.0
C3 C 0.24211 0.15302 0.25092 0.0
C4 C 0.19344 0.18567 0.24987 0.0
C5 C 0.22356 0.19739 0.2167 0.0
C6 C 0.24774 0.18133 0.21735 0.0
C7 C 0.21169 0.14076 0.28361 0.0
C8 C 0.18765 0.157 0.28319 0.0
C9 C 0.26838 0.13699 0.2524 0.0
O10 O 0.28038 0.0494 0.23761 0.0
O11 O 0.32248 0.02838 0.26311 0.0
O12 O 0.36582 0.08952 0.33137 0.0
O13 O 0.30442 0.08006 0.32215 0.0
O14 O 0.41816 0.07247 0.22117 0.0
O15 O 0.41686 0.07165 0.29709 0.0
O16 O 0.40642 0.14468 0.23916 0.0
O17 O 0.36661 0.1566 0.28363 0.0
O18 O 0.32265 0.1006 0.18022 0.0
O19 O 0.35224 0.06393 0.18944 0.0
C20 C 0.2879 0.02176 0.24857 0.0
O21 O 0.26236 0.10809 0.27969 0.0
O22 O 0.29957 0.1505 0.22639 0.0
C23 C 0.33095 0.07838 0.34802 0.0
C24 C 0.47855 0.09359 0.2598 0.0
C25 C 0.56093 0.13031 0.26042 0.0
C26 C 0.54018 0.12631 0.30237 0.0
C27 C 0.49954 0.1082 0.30207 0.0
C28 C 0.49929 0.09839 0.21773 0.0
C29 C 0.53986 0.11668 0.21797 0.0
C30 C 0.43536 0.07084 0.25951 0.0
C31 C 0.39969 0.16931 0.26194 0.0
H32 H 0.22839 0.21889 0.19004 0.0
H33 H 0.27089 0.19117 0.19159 0.0
H34 H 0.20679 0.11902 0.30999 0.0
H35 H 0.16503 0.14765 0.3096 0.0
H36 H 0.55518 0.13599 0.33587 0.0
H37 H 0.48458 0.10483 0.3352 0.0
H38 H 0.48408 0.08736 0.18454 0.0
H39 H 0.55467 0.11985 0.18477 0.0
Tb40 Tb 0.81485 0.70688 0.26088 0.0
Tb41 Tb 0.72255 0.64225 0.25969 0.0
C42 C 0.76218 0.69078 0.16777 0.0
C43 C 0.9275 0.77803 0.25319 0.0
C44 C 1.00857 0.82833 0.24574 0.0
C45 C 0.98834 0.79955 0.21137 0.0
C46 C 0.94824 0.77449 0.21521 0.0
C47 C 0.94739 0.80787 0.28626 0.0
C48 C 0.9874 0.83264 0.28268 0.0
C49 C 0.88778 0.74684 0.2645 0.0
O50 O 0.78886 0.74197 0.24755 0.0
O51 O 0.72423 0.69832 0.26656 0.0
O52 O 0.73806 0.65609 0.33405 0.0
O53 O 0.79446 0.71482 0.32906 0.0
O54 O 0.67118 0.60435 0.22307 0.0
O55 O 0.67385 0.60246 0.29879 0.0
O56 O 0.75633 0.61498 0.23975 0.0
O57 O 0.80439 0.65193 0.28974 0.0
O58 O 0.7972 0.70199 0.18546 0.0
O59 O 0.73047 0.6705 0.1926 0.0
C60 C 0.7531 0.73365 0.25658 0.0
O61 O 0.86474 0.75482 0.28864 0.0
O62 O 0.86913 0.71714 0.23625 0.0
C63 C 0.76357 0.68968 0.35255 0.0
C64 C 0.63313 0.54236 0.25958 0.0
C65 C 0.58732 0.46004 0.25757 0.0
C66 C 0.60221 0.47999 0.30047 0.0
C67 C 0.62477 0.52054 0.30146 0.0
C68 C 0.61904 0.52247 0.21656 0.0
C69 C 0.59663 0.48188 0.21553 0.0
C70 C 0.65348 0.58553 0.2612 0.0
C71 C 0.78593 0.6202 0.26516 0.0
H72 H 1.0036 0.7958 0.18202 0.0
H73 H 0.93385 0.75141 0.18955 0.0
H74 H 0.93237 0.81074 0.31656 0.0
H75 H 1.00193 0.85395 0.31027 0.0
H76 H 0.59536 0.46443 0.33369 0.0
H77 H 0.63479 0.53482 0.33532 0.0
H78 H 0.6247 0.5383 0.18363 0.0
H79 H 0.58636 0.46768 0.18169 0.0
Tb80 Tb 0.91154 0.20804 0.2615 0.0
Tb81 Tb 0.93813 0.30022 0.26503 0.0
C82 C 0.94604 0.26265 0.17057 0.0
C83 C 0.86808 0.09384 0.25601 0.0
C84 C 0.83608 0.01263 0.25419 0.0
C85 C 0.8193 0.03033 0.22751 0.0
C86 C 0.8351 0.07052 0.2285 0.0
C87 C 0.88521 0.07634 0.28223 0.0
C88 C 0.86935 0.03613 0.28139 0.0
C89 C 0.88413 0.13615 0.25799 0.0
O90 O 0.97217 0.2357 0.2458 0.0
O91 O 0.99281 0.29876 0.27094 0.0
O92 O 0.93199 0.28113 0.33871 0.0
O93 O 0.93997 0.2282 0.32986 0.0
O94 O 0.94683 0.34966 0.22812 0.0
O95 O 0.952 0.35085 0.30387 0.0
O96 O 0.87666 0.26674 0.24655 0.0
O97 O 0.8647 0.21465 0.2904 0.0
O98 O 0.92173 0.22756 0.18704 0.0
O99 O 0.95861 0.29366 0.19707 0.0
C100 C 0.99956 0.2708 0.2572 0.0
O101 O 0.91363 0.15883 0.28465 0.0
O102 O 0.87009 0.15402 0.23318 0.0
C103 C 0.94235 0.25678 0.35563 0.0
C104 C 0.93094 0.39163 0.26889 0.0
C105 C 0.89484 0.43761 0.26717 0.0
C106 C 0.93385 0.45349 0.28118 0.0
C107 C 0.95163 0.43079 0.2819 0.0
C108 C 0.89168 0.37513 0.25588 0.0
C109 C 0.87376 0.39793 0.2551 0.0
C110 C 0.95192 0.36977 0.26634 0.0
C111 C 0.85204 0.23525 0.26908 0.0
H112 H 0.79404 0.01314 0.20562 0.0
H113 H 0.82134 0.08328 0.20787 0.0
H114 H 0.91067 0.09365 0.3038 0.0
H115 H 0.88273 0.02342 0.30279 0.0
H116 H 0.95081 0.48363 0.29162 0.0
H117 H 0.98192 0.44409 0.29198 0.0
H118 H 0.87515 0.34492 0.24548 0.0
H119 H 0.84376 0.38473 0.24388 0.0
Tb120 Tb 0.08842 0.37461 0.75961 0.0
Tb121 Tb 0.11726 0.31115 0.76487 0.0
C122 C 0.08089 0.32966 0.85244 0.0
C123 C 0.09752 0.47364 0.7566 0.0
C124 C 0.13441 0.55595 0.75628 0.0
C125 C 0.12465 0.53514 0.79907 0.0
C126 C 0.1063 0.4946 0.79923 0.0
C127 C 0.1082 0.4944 0.71382 0.0
C128 C 0.12644 0.53501 0.71366 0.0
C129 C 0.07489 0.43045 0.75706 0.0
O130 O 0.14903 0.40414 0.78316 0.0
O131 O 0.16422 0.36607 0.74045 0.0
O132 O 0.08686 0.29946 0.69724 0.0
O133 O 0.09625 0.36082 0.6869 0.0
O134 O 0.12531 0.26983 0.80251 0.0
O135 O 0.15548 0.2946 0.73673 0.0
O136 O 0.05534 0.27421 0.7652 0.0
O137 O 0.0335 0.31855 0.75534 0.0
O138 O 0.06469 0.34359 0.82439 0.0
O139 O 0.11097 0.3268 0.83802 0.0
C140 C 0.17516 0.3986 0.76233 0.0
O141 O 0.07598 0.4119 0.71962 0.0
O142 O 0.07655 0.41352 0.79565 0.0
C143 C 0.08501 0.3257 0.67066 0.0
C144 C 0.15562 0.23757 0.76389 0.0
C145 C 0.18429 0.18549 0.76037 0.0
C146 C 0.19072 0.21094 0.72261 0.0
C147 C 0.17657 0.23673 0.72435 0.0
C148 C 0.14734 0.21063 0.80045 0.0
C149 C 0.16142 0.18473 0.79863 0.0
C150 C 0.15058 0.27147 0.77191 0.0
C151 C 0.02751 0.28279 0.76084 0.0
H152 H 0.13093 0.55015 0.83265 0.0
H153 H 0.09838 0.47965 0.8329 0.0
H154 H 0.10165 0.47923 0.68033 0.0
H155 H 0.1331 0.54987 0.67996 0.0
H156 H 0.20772 0.21172 0.6923 0.0
H157 H 0.18397 0.25746 0.69587 0.0
H158 H 0.13198 0.21109 0.8318 0.0
H159 H 0.15617 0.16558 0.82839 0.0
Tb160 Tb 0.30258 0.93237 0.75385 0.0
Tb161 Tb 0.21029 0.90445 0.75432 0.0
C162 C 0.26333 0.94204 0.84553 0.0
C163 C 0.39249 0.92326 0.75486 0.0
C164 C 0.43603 0.88447 0.75574 0.0
C165 C 0.4418 0.91207 0.79061 0.0
C166 C 0.4203 0.93116 0.79014 0.0
C167 C 0.38588 0.89506 0.72051 0.0
C168 C 0.40747 0.87592 0.72092 0.0
C169 C 0.37197 0.94578 0.7542 0.0
O170 O 0.26959 0.87139 0.77423 0.0
O171 O 0.2202 0.85963 0.72604 0.0
O172 O 0.23069 0.93168 0.68569 0.0
O173 O 0.28497 0.92571 0.67962 0.0
O174 O 0.15628 0.86031 0.77907 0.0
O175 O 0.16021 0.90251 0.72724 0.0
O176 O 0.236 0.96575 0.76586 0.0
O177 O 0.30024 0.98639 0.74516 0.0
O178 O 0.29468 0.95445 0.81972 0.0
O179 O 0.22849 0.91647 0.82929 0.0
C180 C 0.23925 0.84668 0.75009 0.0
O181 O 0.35302 0.94464 0.71606 0.0
O182 O 0.3526 0.9438 0.7921 0.0
C183 C 0.26002 0.93461 0.66112 0.0
C184 C 0.09869 0.86469 0.76558 0.0
C185 C 0.01831 0.83597 0.77645 0.0
C186 C 0.03926 0.86277 0.74053 0.0
C187 C 0.07898 0.877 0.73524 0.0
C188 C 0.07824 0.83931 0.80286 0.0
C189 C 0.03847 0.82527 0.8084 0.0
C190 C 0.13732 0.87156 0.75158 0.0
C191 C 0.2715 0.99306 0.75536 0.0
H192 H 0.46377 0.91984 0.81764 0.0
H193 H 0.42592 0.95271 0.81704 0.0
H194 H 0.36434 0.88803 0.69307 0.0
H195 H 0.40176 0.85442 0.69395 0.0
H196 H 0.02467 0.87125 0.71483 0.0
H197 H 0.09374 0.89581 0.70551 0.0
H198 H 0.09248 0.82881 0.82638 0.0
H199 H 0.02333 0.80516 0.83692 0.0
Tb200 Tb 0.64754 0.71833 0.76335 0.0
Tb201 Tb 0.71163 0.81133 0.75557 0.0
C202 C 0.69665 0.76627 0.85276 0.0
C203 C 0.54855 0.62878 0.76821 0.0
C204 C 0.46615 0.58395 0.7699 0.0
C205 C 0.48838 0.5861 0.80982 0.0
C206 C 0.52897 0.60798 0.80884 0.0
C207 C 0.52648 0.62777 0.72872 0.0
C208 C 0.48584 0.60558 0.72952 0.0
C209 C 0.59169 0.64911 0.76672 0.0
O210 O 0.61738 0.7493 0.74181 0.0
O211 O 0.65749 0.80551 0.77918 0.0
O212 O 0.69397 0.78684 0.68386 0.0
O213 O 0.67972 0.72493 0.69963 0.0
O214 O 0.72355 0.86763 0.77087 0.0
O215 O 0.75977 0.85808 0.72193 0.0
O216 O 0.74786 0.78578 0.76429 0.0
O217 O 0.70316 0.7194 0.77019 0.0
O218 O 0.66326 0.73848 0.83606 0.0
O219 O 0.7209 0.79662 0.82725 0.0
C220 C 0.62417 0.78249 0.75954 0.0
O221 O 0.60848 0.6672 0.7278 0.0
O222 O 0.61036 0.66912 0.8039 0.0
C223 C 0.69214 0.75419 0.6705 0.0
C224 C 0.78591 0.92242 0.75438 0.0
C225 C 0.83736 1.00309 0.7626 0.0
C226 C 0.84044 0.98211 0.72451 0.0
C227 C 0.81497 0.94223 0.72047 0.0
C228 C 0.78423 0.9429 0.79397 0.0
C229 C 0.80977 0.98283 0.79805 0.0
C230 C 0.75324 0.88359 0.74249 0.0
C231 C 0.73901 0.74937 0.76919 0.0
H232 H 0.47447 0.57068 0.84198 0.0
H233 H 0.54513 0.60815 0.83979 0.0
H234 H 0.54053 0.6434 0.6967 0.0
H235 H 0.47001 0.60448 0.69785 0.0
H236 H 0.86111 0.99683 0.69636 0.0
H237 H 0.81647 0.92735 0.68919 0.0
H238 H 0.76195 0.92858 0.82057 0.0
H239 H 0.80713 0.99805 0.82826 0.0
C240 C 0.30235 0.99767 0.8997 0.0
C241 C 0.26847 0.96173 0.89203 0.0
C242 C 0.30961 0.01732 0.94288 0.0
C243 C 0.28266 1.0006 0.98022 0.0
C244 C 0.24786 0.96481 0.97265 0.0
C245 C 0.24094 0.94595 0.9284 0.0
C246 C 0.34696 0.05546 0.94896 0.0
C247 C 0.21866 0.94584 0.01185 0.0
C248 C 0.3291 0.02951 0.10165 0.0
C249 C 0.32057 0.05835 0.11573 0.0
C250 C 0.31569 0.00969 0.05868 0.0
C251 C 0.29326 0.01889 0.02816 0.0
C252 C 0.28416 0.04773 0.04197 0.0
C253 C 0.29769 0.06696 0.08576 0.0
C254 C 0.32633 0.97934 0.04559 0.0
C255 C 0.26074 0.05869 1.01006 0.0
H256 H 0.32365 0.01075 0.87175 0.0
H257 H 0.21463 0.91843 0.92278 0.0
H258 H 0.34083 0.0779 0.96292 0.0
H259 H 0.36587 0.05198 0.97504 0.0
H260 H 0.36327 0.06618 0.9153 0.0
H261 H 0.19204 0.91935 0.9997 0.0
H262 H 0.23187 0.93773 0.0411 0.0
H263 H 0.21035 0.96651 0.02653 0.0
H264 H 0.3463 0.022 0.12441 0.0
H265 H 0.2904 0.08869 0.09641 0.0
H266 H 0.34543 0.98901 0.01404 0.0
H267 H 0.29987 0.95167 0.03627 0.0
H268 H 0.34167 0.97367 0.07464 0.0
H269 H 0.27652 0.0706 0.97635 0.0
H270 H 0.25488 0.08061 0.02645 0.0
H271 H 0.23265 0.03257 1.00114 0.0
C272 C 0.70476 0.76959 0.58307 0.0
C273 C 0.70595 0.74961 0.62329 0.0
C274 C 0.71532 0.76212 0.53822 0.0
C275 C 0.72864 0.7351 0.53387 0.0
C276 C 0.73155 0.71634 0.57488 0.0
C277 C 0.71957 0.72327 0.6186 0.0
C278 C 0.71096 0.7821 0.49525 0.0
C279 C 0.74662 0.68822 0.57255 0.0
C280 C 0.71793 0.68021 0.41917 0.0
C281 C 0.75537 0.7008 0.39974 0.0
C282 C 0.70865 0.6918 0.46188 0.0
C283 C 0.73759 0.72455 0.4865 0.0
C284 C 0.7755 0.74545 0.46723 0.0
C285 C 0.78381 0.73363 0.4239 0.0
C286 C 0.66777 0.6688 0.48075 0.0
C287 C 0.80748 0.77995 0.49277 0.0
H288 H 0.69422 0.78988 0.58634 0.0
H289 H 0.72079 0.70773 0.64942 0.0
H290 H 0.73898 0.79797 0.47618 0.0
H291 H 0.68966 0.7601 0.4705 0.0
H292 H 0.701 0.80285 0.50449 0.0
H293 H 0.7506 0.67896 0.60819 0.0
H294 H 0.726 0.66204 0.55236 0.0
H295 H 0.77484 0.7016 0.55371 0.0
H296 H 0.69545 0.65527 0.40053 0.0
H297 H 0.81272 0.75004 0.4091 0.0
H298 H 0.65596 0.68837 0.48773 0.0
H299 H 0.66787 0.65505 0.51483 0.0
H300 H 0.64798 0.6457 0.45592 0.0
H301 H 0.79926 0.80256 0.49763 0.0
H302 H 0.83551 0.79288 0.47345 0.0
H303 H 0.81171 0.77111 0.5285 0.0
C304 C 0.98936 0.30618 0.10661 0.0
C305 C 0.96432 0.26825 0.1229 0.0
C306 C 1.0096 0.31331 0.06383 0.0
C307 C 1.00485 0.28181 0.03576 0.0
C308 C 0.97977 0.24335 0.05177 0.0
C309 C 0.95994 0.23699 0.09525 0.0
C310 C 0.03566 0.35481 0.04829 0.0
C311 C 0.97365 0.20897 0.02269 0.0
C312 C 0.02349 0.3071 0.90546 0.0
C313 C 0.0618 0.31472 0.89925 0.0
C314 C 1.00421 0.29462 0.94887 0.0
C315 C 0.02354 0.28969 0.98793 0.0
C316 C 0.06176 0.29602 0.98182 0.0
C317 C 0.08037 0.30814 0.93739 0.0
C318 C 0.96347 0.28807 0.95328 0.0
C319 C 0.08343 0.29126 0.02269 0.0
H320 H 0.99341 0.33076 0.12748 0.0
H321 H 0.9413 0.2076 0.10767 0.0
H322 H 0.06516 0.35994 0.0403 0.0
H323 H 0.02406 0.36046 0.0154 0.0
H324 H 0.03814 0.37605 0.07551 0.0
H325 H 0.95342 0.18092 0.03992 0.0
H326 H 0.96185 0.20985 0.98744 0.0
H327 H 1.00185 0.21027 0.01676 0.0
H328 H 1.00825 0.31109 0.87613 0.0
H329 H 0.10972 0.31352 0.93294 0.0
H330 H 0.96347 0.30996 0.97754 0.0
H331 H 0.94388 0.25906 0.96867 0.0
H332 H 0.95136 0.29019 0.91872 0.0
H333 H 0.08828 0.31285 0.05055 0.0
H334 H 0.11198 0.29513 0.01182 0.0
H335 H 0.06588 0.26208 0.03868 0.0
C336 C 0.28314 0.02486 0.39947 0.0
C337 C 0.3195 0.05847 0.39449 0.0
C338 C 0.27277 1.00292 0.44135 0.0
C339 C 0.29841 0.0162 0.48069 0.0
C340 C 0.33461 0.05116 0.47633 0.0
C341 C 0.34521 0.07108 0.43281 0.0
C342 C 0.23455 0.96523 0.44193 0.0
C343 C 0.36254 0.06789 0.51727 0.0
C344 C 0.25 0.97419 0.59942 0.0
C345 C 0.26743 0.95247 0.61316 0.0
C346 C 0.26031 0.9955 0.557 0.0
C347 C 0.2874 0.99371 0.52611 0.0
C348 C 0.30344 0.97005 0.53857 0.0
C349 C 0.2941 0.95064 0.5824 0.0
C350 C 0.24275 0.02059 0.54576 0.0
C351 C 0.33066 0.96504 0.50604 0.0
H352 H 0.26319 0.01469 0.3698 0.0
H353 H 0.37339 0.09699 0.42907 0.0
H354 H 0.22988 0.94744 0.47402 0.0
H355 H 0.21037 0.97145 0.43856 0.0
H356 H 0.23296 0.94763 0.41076 0.0
H357 H 0.38117 0.09986 0.51384 0.0
H358 H 0.34719 0.06138 0.55169 0.0
H359 H 0.38193 0.05533 0.5175 0.0
H360 H 0.22909 0.97562 0.62258 0.0
H361 H 0.30764 0.93386 0.59244 0.0
H362 H 0.2253 0.01034 0.51292 0.0
H363 H 0.26615 0.05099 0.53973 0.0
H364 H 0.22347 0.02012 0.57437 0.0
H365 H 0.32388 0.96653 0.46829 0.0
H366 H 0.32938 0.93686 0.51236 0.0
H367 H 0.36086 0.98837 0.51302 0.0
C368 C 0.72258 0.78554 0.93586 0.0
C369 C 0.71011 0.75885 0.89857 0.0
C370 C 0.73424 0.77719 0.97946 0.0
C371 C 0.73527 0.74221 0.98503 0.0
C372 C 0.72448 0.71616 0.94643 0.0
C373 C 0.71122 0.72436 0.90424 0.0
C374 C 0.74392 0.80502 0.02017 0.0
C375 C 0.72611 0.67912 0.95001 0.0
C376 C 0.78801 0.72778 0.0904 0.0
C377 C 0.7568 0.70404 0.12017 0.0
C378 C 0.7817 0.74092 0.04651 0.0
C379 C 0.74342 0.73059 0.03234 0.0
C380 C 0.71204 0.70718 0.06261 0.0
C381 C 0.71905 0.69414 0.10557 0.0
C382 C 0.81588 0.7653 0.0149 0.0
C383 C 0.67074 0.69553 0.04953 0.0
H384 H 0.72187 0.81225 0.93147 0.0
H385 H 0.70233 0.70398 0.8751 0.0
H386 H 0.72281 0.79048 0.04924 0.0
H387 H 0.77314 0.81362 0.03437 0.0
H388 H 0.74318 0.83157 1.00979 0.0
H389 H 0.72116 0.66427 0.91534 0.0
H390 H 0.75474 0.68528 0.96396 0.0
H391 H 0.70367 0.65894 0.97512 0.0
H392 H 0.81727 0.73603 0.10127 0.0
H393 H 0.69443 0.67618 0.128 0.0
H394 H 0.8171 0.79314 1.00658 0.0
H395 H 0.81235 0.74998 0.98092 0.0
H396 H 0.84387 0.77164 0.03121 0.0
H397 H 0.66861 0.72162 0.04101 0.0
H398 H 0.64986 0.67929 0.07829 0.0
H399 H 0.66184 0.67695 0.01753 0.0
C400 C 0.99087 0.25525 0.41104 0.0
C401 C 0.96137 0.26424 0.40295 0.0
C402 C 1.01194 0.26523 0.45376 0.0
C403 C 1.00237 0.28331 0.49036 0.0
C404 C 0.97179 0.29139 0.48287 0.0
C405 C 0.95231 0.28259 0.43896 0.0
C406 C 0.04521 0.2574 0.45915 0.0
C407 C 0.95951 0.30926 0.52131 0.0
C408 C 0.03529 0.27647 0.6155 0.0
C409 C 0.06594 0.31438 0.62337 0.0
C410 C 0.01401 0.26617 0.57289 0.0
C411 C 0.02453 0.29397 0.53621 0.0
C412 C 0.05633 0.33195 0.54344 0.0
C413 C 0.07598 0.34192 0.58722 0.0
C414 C 0.97947 0.22585 0.56775 0.0
C415 C 0.06974 0.36213 0.50485 0.0
H416 H 0.99852 0.2416 0.38319 0.0
H417 H 0.92965 0.28971 0.43297 0.0
H418 H 0.04065 0.23888 0.49051 0.0
H419 H 0.04876 0.24286 0.42761 0.0
H420 H 0.07262 0.28516 0.46499 0.0
H421 H 0.93327 0.31079 0.51138 0.0
H422 H 0.95339 0.29214 0.55437 0.0
H423 H 0.98337 0.33905 0.52906 0.0
H424 H 0.02694 0.25513 0.64345 0.0
H425 H 0.09952 0.37127 0.59305 0.0
H426 H 0.98248 0.21154 0.53571 0.0
H427 H 0.9527 0.22769 0.56333 0.0
H428 H 0.9758 0.20726 0.59884 0.0
H429 H 0.07503 0.35047 0.47182 0.0
H430 H 0.09675 0.38921 0.51462 0.0
H431 H 0.04681 0.36947 0.49714 0.0
C432 C 0.62194 0.1322 0.23188 0.0
C433 C 0.60413 0.14735 0.26109 0.0
C434 C 0.66236 0.14739 0.23254 0.0
C435 C 0.68578 0.17822 0.26366 0.0
C436 C 0.66812 0.19367 0.29328 0.0
C437 C 0.62766 0.17826 0.29144 0.0
C438 C 0.67995 0.13016 0.20016 0.0
C439 C 0.69197 0.22628 0.3273 0.0
C440 C 0.78416 0.19055 0.29754 0.0
C441 C 0.80972 0.22175 0.26884 0.0
C442 C 0.74393 0.17652 0.29667 0.0
C443 C 0.72864 0.19369 0.26591 0.0
C444 C 0.75426 0.22523 0.23691 0.0
C445 C 0.79446 0.23902 0.23893 0.0
C446 C 0.71775 0.14313 0.32855 0.0
C447 C 0.73914 0.24401 0.20315 0.0
H448 H 0.60421 0.10786 0.20894 0.0
H449 H 0.6145 0.19066 0.3137 0.0
H450 H 0.70269 0.15323 0.17781 0.0
H451 H 0.69418 0.1173 0.22138 0.0
H452 H 0.65798 0.10731 0.17674 0.0
H453 H 0.67391 0.2351 0.34797 0.0
H454 H 0.70752 0.21724 0.35228 0.0
H455 H 0.71429 0.25191 0.30772 0.0
H456 H 0.79557 0.17698 0.32082 0.0
H457 H 0.81388 0.26296 0.21642 0.0
H458 H 0.6969 0.118 0.30699 0.0
H459 H 0.7005 0.15155 0.35139 0.0
H460 H 0.73425 0.13373 0.35147 0.0
H461 H 0.71898 0.22219 0.17739 0.0
H462 H 0.76283 0.2685 0.18336 0.0
H463 H 0.72243 0.25498 0.22274 0.0
C464 C 0.56704 0.39291 0.28829 0.0
C465 C 0.56108 0.41688 0.25696 0.0
C466 C 0.54161 0.35254 0.2894 0.0
C467 C 0.50957 0.33539 0.25801 0.0
C468 C 0.50367 0.35923 0.22579 0.0
C469 C 0.52925 0.39957 0.22586 0.0
C470 C 0.5488 0.32825 0.32458 0.0
C471 C 0.47002 0.34218 0.19154 0.0
C472 C 0.46172 0.22674 0.23323 0.0
C473 C 0.42846 0.21164 0.26177 0.0
C474 C 0.48832 0.26687 0.23163 0.0
C475 C 0.48177 0.29263 0.25952 0.0
C476 C 0.44844 0.27753 0.28872 0.0
C477 C 0.42217 0.23735 0.28932 0.0
C478 C 0.52325 0.28179 0.19967 0.0
C479 C 0.44047 0.30386 0.31932 0.0
H480 H 0.59176 0.40567 0.312 0.0
H481 H 0.52374 0.41764 0.20208 0.0
H482 H 0.52336 0.31292 0.34832 0.0
H483 H 0.55239 0.30578 0.30583 0.0
H484 H 0.57503 0.34593 0.34654 0.0
H485 H 0.47028 0.36441 0.1675 0.0
H486 H 0.47077 0.31934 0.16986 0.0
H487 H 0.44221 0.3282 0.21128 0.0
H488 H 0.46678 0.20722 0.21161 0.0
H489 H 0.3966 0.2261 0.31149 0.0
H490 H 0.55029 0.29801 0.22065 0.0
H491 H 0.52276 0.30231 0.17348 0.0
H492 H 0.52433 0.25804 0.18038 0.0
H493 H 0.4653 0.3207 0.34353 0.0
H494 H 0.41368 0.28753 0.34076 0.0
H495 H 0.43736 0.32504 0.29691 0.0
C496 C 0.89838 0.50102 0.24762 0.0
C497 C 0.87684 0.46283 0.26466 0.0
C498 C 0.88279 0.52588 0.2468 0.0
C499 C 0.84454 0.51238 0.26333 0.0
C500 C 0.82232 0.47367 0.27981 0.0
C501 C 0.83866 0.44936 0.28017 0.0
C502 C 0.90743 0.56676 0.22851 0.0
C503 C 0.78155 0.45822 0.29804 0.0
C504 C 0.82097 0.58973 0.30359 0.0
C505 C 0.79944 0.59149 0.2653 0.0
C506 C 0.83492 0.56347 0.3039 0.0
C507 C 0.82823 0.5391 0.26432 0.0
C508 C 0.80679 0.54101 0.22535 0.0
C509 C 0.79219 0.56678 0.22659 0.0
C510 C 0.85698 0.56194 0.34657 0.0
C511 C 0.79997 0.51641 0.18191 0.0
H512 H 0.92759 0.51156 0.23463 0.0
H513 H 0.82184 0.42007 0.29375 0.0
H514 H 0.89211 0.57227 0.19936 0.0
H515 H 0.91235 0.58787 0.257 0.0
H516 H 0.93611 0.57238 0.21538 0.0
H517 H 0.76781 0.4273 0.30888 0.0
H518 H 0.78198 0.47565 0.32887 0.0
H519 H 0.76323 0.46099 0.27046 0.0
H520 H 0.82665 0.60873 0.33365 0.0
H521 H 0.77602 0.56837 0.19663 0.0
H522 H 0.88719 0.57065 0.33644 0.0
H523 H 0.84334 0.53181 0.36027 0.0
H524 H 0.85794 0.58128 0.37547 0.0
H525 H 0.82823 0.52304 0.16632 0.0
H526 H 0.78278 0.5213 0.15457 0.0
H527 H 0.78446 0.48523 0.19161 0.0
C528 C 0.13886 0.61702 0.78875 0.0
C529 C 0.15154 0.59909 0.75615 0.0
C530 C 0.15406 0.65741 0.78864 0.0
C531 C 0.18243 0.68065 0.75478 0.0
C532 C 0.19545 0.66287 0.72181 0.0
C533 C 0.18002 0.62242 0.72302 0.0
C534 C 0.13936 0.67515 0.82443 0.0
C535 C 0.22544 0.68656 0.68493 0.0
C536 C 0.19251 0.77856 0.72456 0.0
C537 C 0.22556 0.80438 0.7506 0.0
C538 C 0.17839 0.73838 0.72537 0.0
C539 C 0.19764 0.72342 0.75302 0.0
C540 C 0.23105 0.74928 0.77931 0.0
C541 C 0.24463 0.78943 0.77775 0.0
C542 C 0.14272 0.7119 0.69674 0.0
C543 C 0.25225 0.73449 0.80948 0.0
H544 H 0.11639 0.5994 0.81395 0.0
H545 H 0.19047 0.60911 0.69806 0.0
H546 H 0.16402 0.69803 0.84485 0.0
H547 H 0.12496 0.68922 0.80603 0.0
H548 H 0.11834 0.65331 0.84956 0.0
H549 H 0.23288 0.66847 0.66217 0.0
H550 H 0.21449 0.70173 0.66212 0.0
H551 H 0.25234 0.70916 0.70224 0.0
H552 H 0.1774 0.78971 0.70356 0.0
H553 H 0.27006 0.80906 0.79812 0.0
H554 H 0.11939 0.69105 0.72044 0.0
H555 H 0.14947 0.69469 0.67162 0.0
H556 H 0.13148 0.72814 0.67644 0.0
H557 H 0.23239 0.71445 0.83685 0.0
H558 H 0.27806 0.75836 0.82728 0.0
H559 H 0.26182 0.71777 0.78745 0.0
C560 C 0.47466 0.85971 0.71229 0.0
C561 C 0.46062 0.86574 0.75512 0.0
C562 C 0.49967 0.84423 0.71144 0.0
C563 C 0.51113 0.83457 0.75444 0.0
C564 C 0.49654 0.83992 0.79771 0.0
C565 C 0.47145 0.85528 0.79752 0.0
C566 C 0.51477 0.83928 0.66456 0.0
C567 C 0.50807 0.83015 0.84438 0.0
C568 C 0.55521 0.76842 0.75199 0.0
C569 C 0.59489 0.79524 0.75681 0.0
C570 C 0.52755 0.78072 0.75127 0.0
C571 C 0.53994 0.82084 0.75441 0.0
C572 C 0.58008 0.84806 0.75824 0.0
C573 C 0.60694 0.83493 0.75982 0.0
C574 C 0.48501 0.75076 0.74784 0.0
C575 C 0.5947 0.89112 0.76093 0.0
H576 H 0.46704 0.86817 0.67936 0.0
H577 H 0.46036 0.8592 0.83077 0.0
H578 H 0.54672 0.85857 0.66308 0.0
H579 H 0.50881 0.80904 0.66071 0.0
H580 H 0.50154 0.84618 0.63417 0.0
H581 H 0.49285 0.83431 0.87475 0.0
H582 H 0.50159 0.7996 0.84421 0.0
H583 H 0.53982 0.84879 0.8498 0.0
H584 H 0.5457 0.73774 0.74985 0.0
H585 H 0.63761 0.85596 0.76305 0.0
H586 H 0.47203 0.75648 0.71629 0.0
H587 H 0.46943 0.75276 0.77925 0.0
H588 H 0.48008 0.72075 0.7455 0.0
H589 H 0.58448 0.90049 0.72977 0.0
H590 H 0.6269 0.90857 0.76233 0.0
H591 H 0.58282 0.89769 0.79281 0.0
C592 C 0.23264 0.45755 0.79743 0.0
C593 C 0.21716 0.42824 0.76308 0.0
C594 C 0.27289 0.48393 0.79971 0.0
C595 C 0.29812 0.48142 0.7663 0.0
C596 C 0.28245 0.45238 0.73097 0.0
C597 C 0.24235 0.426 0.7301 0.0
C598 C 0.28854 0.51396 0.8385 0.0
C599 C 0.30808 0.44895 0.69419 0.0
C600 C 0.39878 0.56894 0.74555 0.0
C601 C 0.42286 0.55829 0.76996 0.0
C602 C 0.35821 0.5444 0.7443 0.0
C603 C 0.34101 0.50852 0.7687 0.0
C604 C 0.365 0.4978 0.79394 0.0
C605 C 0.40548 0.52252 0.79387 0.0
C606 C 0.33377 0.5566 0.71623 0.0
C607 C 0.34794 0.4599 0.82062 0.0
H608 H 0.21346 0.45922 0.82329 0.0
H609 H 0.23069 0.40352 0.70331 0.0
H610 H 0.30924 0.50985 0.86072 0.0
H611 H 0.3048 0.54348 0.82303 0.0
H612 H 0.26517 0.51236 0.86151 0.0
H613 H 0.29117 0.42588 0.66782 0.0
H614 H 0.3251 0.47694 0.67529 0.0
H615 H 0.32914 0.44232 0.71152 0.0
H616 H 0.41157 0.59661 0.72745 0.0
H617 H 0.42356 0.51334 0.81197 0.0
H618 H 0.3119 0.55767 0.7395 0.0
H619 H 0.31767 0.5349 0.68821 0.0
H620 H 0.35148 0.58547 0.69937 0.0
H621 H 0.32543 0.4576 0.84565 0.0
H622 H 0.37028 0.45684 0.84075 0.0
H623 H 0.33357 0.43525 0.79558 0.0
C624 C 0.18482 0.24368 0.2422 0.0
C625 C 0.16856 0.2037 0.25016 0.0
C626 C 0.16173 0.26115 0.24254 0.0
C627 C 0.12154 0.23821 0.25158 0.0
C628 C 0.10489 0.19787 0.25982 0.0
C629 C 0.12859 0.18108 0.25877 0.0
C630 C 0.18025 0.30413 0.23317 0.0
C631 C 0.062 0.17235 0.26938 0.0
C632 C 0.05981 0.28013 0.29422 0.0
C633 C 0.0389 0.27711 0.25318 0.0
C634 C 0.08869 0.26964 0.29374 0.0
C635 C 0.0965 0.25603 0.25116 0.0
C636 C 0.07763 0.25621 0.20882 0.0
C637 C 0.04903 0.26684 0.21041 0.0
C638 C 0.10814 0.26968 0.3396 0.0
C639 C 0.08489 0.24173 0.16274 0.0
H640 H 0.21577 0.26148 0.23624 0.0
H641 H 0.11569 0.15009 0.26415 0.0
H642 H 0.16649 0.30922 0.20191 0.0
H643 H 0.17541 0.31866 0.26372 0.0
H644 H 0.21197 0.31793 0.22671 0.0
H645 H 0.05384 0.14168 0.27605 0.0
H646 H 0.05352 0.18334 0.30054 0.0
H647 H 0.04496 0.1732 0.23878 0.0
H648 H 0.05118 0.28716 0.32742 0.0
H649 H 0.03208 0.26377 0.17893 0.0
H650 H 0.13974 0.28162 0.3344 0.0
H651 H 0.09577 0.23941 0.35241 0.0
H652 H 0.10378 0.28684 0.36739 0.0
H653 H 0.11648 0.25505 0.15606 0.0
H654 H 0.07129 0.24806 0.13224 0.0
H655 H 0.07268 0.20986 0.16478 0.0
C656 C 0.07473 0.83673 0.23093 0.0
C657 C 0.05169 0.85275 0.24441 0.0
C658 C 0.11541 0.8593 0.23046 0.0
C659 C 0.13352 0.89865 0.24434 0.0
C660 C 0.11056 0.91488 0.25865 0.0
C661 C 0.06998 0.89185 0.25812 0.0
C662 C 0.13911 0.84114 0.21521 0.0
C663 C 0.12883 0.9567 0.2742 0.0
C664 C 0.23899 0.95827 0.28231 0.0
C665 C 0.25481 0.9824 0.24297 0.0
C666 C 0.19982 0.92868 0.28227 0.0
C667 C 0.17644 0.92358 0.24198 0.0
C668 C 0.19357 0.94552 0.20065 0.0
C669 C 0.23263 0.97454 0.20164 0.0
C670 C 0.18292 0.90567 0.32694 0.0
C671 C 0.16989 0.94103 0.15686 0.0
H672 H 0.06101 0.80636 0.22131 0.0
H673 H 0.05255 0.90469 0.26805 0.0
H674 H 0.15718 0.8569 0.18417 0.0
H675 H 0.15922 0.84369 0.24404 0.0
H676 H 0.12068 0.81004 0.20579 0.0
H677 H 0.1069 0.9645 0.28572 0.0
H678 H 0.14921 0.96223 0.30391 0.0
H679 H 0.1459 0.97618 0.24473 0.0
H680 H 0.25604 0.96462 0.31439 0.0
H681 H 0.24497 0.99355 0.17131 0.0
H682 H 0.15803 0.87633 0.31967 0.0
H683 H 0.17252 0.92131 0.34973 0.0
H684 H 0.20522 0.90247 0.3469 0.0
H685 H 0.15156 0.90997 0.14743 0.0
H686 H 0.18846 0.95679 0.12608 0.0
H687 H 0.15017 0.95268 0.16386 0.0
C688 C 0.77815 0.94557 0.25524 0.0
C689 C 0.81863 0.96978 0.25418 0.0
C690 C 0.76124 0.90507 0.25559 0.0
C691 C 0.78537 0.88839 0.25535 0.0
C692 C 0.82625 0.91259 0.25439 0.0
C693 C 0.84237 0.95299 0.25358 0.0
C694 C 0.71758 0.88009 0.25636 0.0
C695 C 0.85301 0.89585 0.25421 0.0
C696 C 0.75108 0.78632 0.29907 0.0
C697 C 0.74715 0.76696 0.25644 0.0
C698 C 0.76156 0.82562 0.29932 0.0
C699 C 0.76802 0.84559 0.2558 0.0
C700 C 0.76115 0.82517 0.21262 0.0
C701 C 0.751 0.78602 0.21352 0.0
C702 C 0.76914 0.8465 0.34605 0.0
C703 C 0.76778 0.84539 0.16551 0.0
H704 H 0.7596 0.95829 0.25646 0.0
H705 H 0.87364 0.97146 0.25202 0.0
H706 H 0.70761 0.86047 0.22527 0.0
H707 H 0.70836 0.86153 0.2884 0.0
H708 H 0.70286 0.89759 0.25603 0.0
H709 H 0.88414 0.91871 0.25406 0.0
H710 H 0.84749 0.87726 0.2858 0.0
H711 H 0.8472 0.87721 0.22264 0.0
H712 H 0.74945 0.77174 0.33214 0.0
H713 H 0.74911 0.77111 0.18066 0.0
H714 H 0.75522 0.86468 0.34695 0.0
H715 H 0.80085 0.86615 0.35057 0.0
H716 H 0.75834 0.82604 0.3764 0.0
H717 H 0.75336 0.86312 0.16455 0.0
H718 H 0.75682 0.82453 0.13557 0.0
H719 H 0.79933 0.86538 0.16031 0.0
C720 C 0.18195 0.12225 0.7748 0.0
C721 C 0.20296 0.1612 0.76083 0.0
C722 C 0.19915 0.0989 0.77471 0.0
C723 C 0.23843 0.11504 0.76067 0.0
C724 C 0.26005 0.15455 0.74754 0.0
C725 C 0.24203 0.17717 0.74767 0.0
C726 C 0.17495 0.05668 0.78838 0.0
C727 C 0.302 0.17267 0.73263 0.0
C728 C 0.28278 0.05327 0.79423 0.0
C729 C 0.27691 0.0321 0.7526 0.0
C730 C 0.27292 0.08255 0.7966 0.0
C731 C 0.25589 0.08977 0.75668 0.0
C732 C 0.25229 0.07004 0.71374 0.0
C733 C 0.2632 0.04161 0.71219 0.0
C734 C 0.27779 0.10342 0.84281 0.0
C735 C 0.23344 0.07617 0.67074 0.0
H736 H 0.15172 0.10978 0.78476 0.0
H737 H 0.25863 0.20749 0.73772 0.0
H738 H 0.17268 0.03805 0.75797 0.0
H739 H 0.1891 0.04985 0.8177 0.0
H740 H 0.14517 0.04895 0.7996 0.0
H741 H 0.31539 0.20428 0.72581 0.0
H742 H 0.31903 0.16807 0.76041 0.0
H743 H 0.30417 0.15844 0.69999 0.0
H744 H 0.2923 0.045 0.82584 0.0
H745 H 0.25772 0.02438 0.68054 0.0
H746 H 0.24898 0.09251 0.8596 0.0
H747 H 0.29031 0.13501 0.83676 0.0
H748 H 0.29673 0.0989 0.86785 0.0
H749 H 0.20188 0.06353 0.67728 0.0
H750 H 0.23727 0.06231 0.63881 0.0
H751 H 0.24565 0.10753 0.6635 0.0
C752 C 0.95745 0.83969 0.76877 0.0
C753 C 0.97536 0.81777 0.77873 0.0
C754 C 0.91693 0.82251 0.76829 0.0
C755 C 0.89371 0.78249 0.77872 0.0
C756 C 0.91146 0.76024 0.78938 0.0
C757 C 0.95209 0.77807 0.78894 0.0
C758 C 0.89901 0.84724 0.75656 0.0
C759 C 0.88747 0.7176 0.801 0.0
C760 C 0.79277 0.75593 0.81805 0.0
C761 C 0.77232 0.74382 0.77543 0.0
C762 C 0.83185 0.766 0.82052 0.0
C763 C 0.85083 0.76434 0.77906 0.0
C764 C 0.82943 0.74939 0.73668 0.0
C765 C 0.79023 0.73932 0.7354 0.0
C766 C 0.8536 0.78194 0.86633 0.0
C767 C 0.84872 0.74754 0.69161 0.0
H768 H 0.97514 0.87044 0.76146 0.0
H769 H 0.96559 0.76068 0.79575 0.0
H770 H 0.8794 0.83496 0.72562 0.0
H771 H 0.88119 0.84725 0.78668 0.0
H772 H 0.92121 0.87774 0.74843 0.0
H773 H 0.90573 0.70447 0.80935 0.0
H774 H 0.86842 0.71338 0.83171 0.0
H775 H 0.86829 0.70175 0.77073 0.0
H776 H 0.77921 0.76081 0.84842 0.0
H777 H 0.77468 0.73127 0.70212 0.0
H778 H 0.87307 0.81376 0.86298 0.0
H779 H 0.87203 0.769 0.87439 0.0
H780 H 0.83364 0.77641 0.8965 0.0
H781 H 0.86813 0.7774 0.67836 0.0
H782 H 0.82721 0.73082 0.66353 0.0
H783 H 0.86693 0.73412 0.69821 0.0
C784 C 0.98009 0.22762 0.80697 0.0
C785 C 0.98836 0.2495 0.76544 0.0
C786 C 0.95153 0.18841 0.80772 0.0
C787 C 0.93067 0.17084 0.76583 0.0
C788 C 0.93644 0.19381 0.72498 0.0
C789 C 0.96548 0.23314 0.72524 0.0
C790 C 0.94667 0.16508 0.85194 0.0
C791 C 0.91451 0.17615 0.6798 0.0
C792 C 0.90052 0.06475 0.75051 0.0
C793 C 0.86134 0.04613 0.7638 0.0
C794 C 0.92318 0.10534 0.75019 0.0
C795 C 0.90625 0.12792 0.76355 0.0
C796 C 0.86674 0.10941 0.77683 0.0
C797 C 0.84471 0.06872 0.77673 0.0
C798 C 0.96541 0.12404 0.73619 0.0
C799 C 0.84788 0.13264 0.79134 0.0
H800 H 0.99851 0.24031 0.83771 0.0
H801 H 0.97248 0.25001 0.69297 0.0
H802 H 0.9155 0.14594 0.86028 0.0
H803 H 0.95947 0.14621 0.84614 0.0
H804 H 0.96123 0.18394 0.88299 0.0
H805 H 0.91752 0.19867 0.65418 0.0
H806 H 0.92593 0.15863 0.66314 0.0
H807 H 0.88323 0.15642 0.68708 0.0
H808 H 0.91365 0.04752 0.74089 0.0
H809 H 0.81425 0.0546 0.78617 0.0
H810 H 0.98409 0.14126 0.76617 0.0
H811 H 0.97147 0.14433 0.70629 0.0
H812 H 0.97382 0.10236 0.72562 0.0
H813 H 0.86275 0.15037 0.82298 0.0
H814 H 0.81656 0.1139 0.79959 0.0
H815 H 0.85095 0.15304 0.76268 0.0
loop_
_geom_bond_atom_site_label_1
_geom_bond_atom_site_label_2
_geom_bond_distance
_geom_bond_site_symmetry_2
_ccdc_geom_bond_type
Tb0 C9 2.764 . S
Tb0 O10 2.325 . S
Tb0 O13 2.303 . S
Tb0 O17 2.322 . S
Tb0 O18 2.349 . S
Tb0 O21 2.415 . S
Tb0 O22 2.399 . S
Tb1 O11 2.322 . S
Tb1 O12 2.349 . S
Tb1 O14 2.415 . S
Tb1 O15 2.399 . S
Tb1 O16 2.325 . S
Tb1 O19 2.303 . S
Tb1 C30 2.764 . S
C2 O18 1.261 . S
C2 O19 1.257 . S
C3 C6 1.358 . S
C3 C7 1.332 . S
C3 C9 1.504 . S
C4 C5 1.373 . S
C4 C8 1.308 . S
C5 C4 1.373 . S
C5 C6 1.429 . S
C5 H32 0.932 . S
C6 C3 1.358 . S
C6 C5 1.429 . S
C6 H33 0.930 . S
C7 C3 1.332 . S
C7 C8 1.394 . S
C7 H34 0.932 . S
C8 C4 1.308 . S
C8 C7 1.394 . S
C8 H35 0.929 . S
C9 Tb0 2.764 . S
C9 C3 1.504 . S
C9 O21 1.239 . S
C9 O22 1.263 . S
O10 Tb0 2.325 . S
O10 C20 1.236 . S
O11 Tb1 2.322 . S
O11 C20 1.257 . S
O12 Tb1 2.349 . S
O12 C23 1.261 . S
O13 Tb0 2.303 . S
O13 C23 1.257 . S
O14 Tb1 2.415 . S
O14 C30 1.239 . S
O15 Tb1 2.399 . S
O15 C30 1.263 . S
O16 Tb1 2.325 . S
O16 C31 1.236 . S
O17 Tb0 2.322 . S
O17 C31 1.257 . S
O18 Tb0 2.349 . S
O18 C2 1.261 . S
O19 Tb1 2.303 . S
O19 C2 1.257 . S
C20 O10 1.236 . S
C20 O11 1.257 . S
O21 Tb0 2.415 . S
O21 C9 1.239 . S
O22 Tb0 2.399 . S
O22 C9 1.263 . S
C23 O12 1.261 . S
C23 O13 1.257 . S
C24 C27 1.358 . S
C24 C28 1.332 . S
C24 C30 1.504 . S
C25 C26 1.373 . S
C25 C29 1.308 . S
C26 C25 1.373 . S
C26 C27 1.429 . S
C26 H36 0.932 . S
C27 C24 1.358 . S
C27 C26 1.429 . S
C27 H37 0.930 . S
C28 C24 1.332 . S
C28 C29 1.394 . S
C28 H38 0.932 . S
C29 C25 1.308 . S
C29 C28 1.394 . S
C29 H39 0.929 . S
C30 Tb1 2.764 . S
C30 O14 1.239 . S
C30 O15 1.263 . S
C30 C24 1.504 . S
C31 O16 1.236 . S
C31 O17 1.257 . S
H32 C5 0.932 . S
H33 C6 0.930 . S
H34 C7 0.932 . S
H35 C8 0.929 . S
H36 C26 0.932 . S
H37 C27 0.930 . S
H38 C28 0.932 . S
H39 C29 0.929 . S
Tb40 C49 2.764 . S
Tb40 O50 2.325 . S
Tb40 O53 2.303 . S
Tb40 O57 2.322 . S
Tb40 O58 2.349 . S
Tb40 O61 2.415 . S
Tb40 O62 2.399 . S
Tb41 O51 2.322 . S
Tb41 O52 2.349 . S
Tb41 O54 2.415 . S
Tb41 O55 2.399 . S
Tb41 O56 2.325 . S
Tb41 O59 2.303 . S
Tb41 C70 2.764 . S
C42 O58 1.261 . S
C42 O59 1.257 . S
C43 C46 1.358 . S
C43 C47 1.332 . S
C43 C49 1.504 . S
C44 C45 1.373 . S
C44 C48 1.308 . S
C45 C44 1.373 . S
C45 C46 1.429 . S
C45 H72 0.932 1_655 S
C46 C43 1.358 . S
C46 C45 1.429 . S
C46 H73 0.930 . S
C47 C43 1.332 . S
C47 C48 1.394 . S
C47 H74 0.932 . S
C48 C44 1.308 . S
C48 C47 1.394 . S
C48 H75 0.929 . S
C49 Tb40 2.764 . S
C49 C43 1.504 . S
C49 O61 1.239 . S
C49 O62 1.263 . S
O50 Tb40 2.325 . S
O50 C60 1.236 . S
O51 Tb41 2.322 . S
O51 C60 1.257 . S
O52 Tb41 2.349 . S
O52 C63 1.261 . S
O53 Tb40 2.303 . S
O53 C63 1.257 . S
O54 Tb41 2.415 . S
O54 C70 1.239 . S
O55 Tb41 2.399 . S
O55 C70 1.263 . S
O56 Tb41 2.325 . S
O56 C71 1.236 . S
O57 Tb40 2.322 . S
O57 C71 1.257 . S
O58 Tb40 2.349 . S
O58 C42 1.261 . S
O59 Tb41 2.303 . S
O59 C42 1.257 . S
C60 O50 1.236 . S
C60 O51 1.257 . S
O61 Tb40 2.415 . S
O61 C49 1.239 . S
O62 Tb40 2.399 . S
O62 C49 1.263 . S
C63 O52 1.261 . S
C63 O53 1.257 . S
C64 C67 1.358 . S
C64 C68 1.332 . S
C64 C70 1.504 . S
C65 C66 1.373 . S
C65 C69 1.308 . S
C66 C65 1.373 . S
C66 C67 1.429 . S
C66 H76 0.932 . S
C67 C64 1.358 . S
C67 C66 1.429 . S
C67 H77 0.930 . S
C68 C64 1.332 . S
C68 C69 1.394 . S
C68 H78 0.932 . S
C69 C65 1.308 . S
C69 C68 1.394 . S
C69 H79 0.929 . S
C70 Tb41 2.764 . S
C70 O54 1.239 . S
C70 O55 1.263 . S
C70 C64 1.504 . S
C71 O56 1.236 . S
C71 O57 1.257 . S
H72 C45 0.932 1_455 S
H73 C46 0.930 . S
H74 C47 0.932 . S
H75 C48 0.929 . S
H76 C66 0.932 . S
H77 C67 0.930 . S
H78 C68 0.932 . S
H79 C69 0.929 . S
Tb80 C89 2.764 . S
Tb80 O90 2.325 . S
Tb80 O93 2.303 . S
Tb80 O97 2.322 . S
Tb80 O98 2.349 . S
Tb80 O101 2.415 . S
Tb80 O102 2.399 . S
Tb81 O91 2.322 . S
Tb81 O92 2.349 . S
Tb81 O94 2.415 . S
Tb81 O95 2.399 . S
Tb81 O96 2.325 . S
Tb81 O99 2.303 . S
Tb81 C110 2.764 . S
C82 O98 1.261 . S
C82 O99 1.257 . S
C83 C86 1.358 . S
C83 C87 1.332 . S
C83 C89 1.504 . S
C84 C85 1.373 . S
C84 C88 1.308 . S
C85 C84 1.373 . S
C85 C86 1.429 . S
C85 H112 0.932 1_545 S
C86 C83 1.358 . S
C86 C85 1.429 . S
C86 H113 0.930 . S
C87 C83 1.332 . S
C87 C88 1.394 . S
C87 H114 0.932 . S
C88 C84 1.308 . S
C88 C87 1.394 . S
C88 H115 0.929 . S
C89 Tb80 2.764 . S
C89 C83 1.504 . S
C89 O101 1.239 . S
C89 O102 1.263 . S
O90 Tb80 2.325 . S
O90 C100 1.236 . S
O91 Tb81 2.322 . S
O91 C100 1.257 . S
O92 Tb81 2.349 . S
O92 C103 1.261 . S
O93 Tb80 2.303 . S
O93 C103 1.257 . S
O94 Tb81 2.415 . S
O94 C110 1.239 . S
O95 Tb81 2.399 . S
O95 C110 1.263 . S
O96 Tb81 2.325 . S
O96 C111 1.236 . S
O97 Tb80 2.322 . S
O97 C111 1.257 . S
O98 Tb80 2.349 . S
O98 C82 1.261 . S
O99 Tb81 2.303 . S
O99 C82 1.257 . S
C100 O90 1.236 . S
C100 O91 1.257 . S
O101 Tb80 2.415 . S
O101 C89 1.239 . S
O102 Tb80 2.399 . S
O102 C89 1.263 . S
C103 O92 1.261 . S
C103 O93 1.257 . S
C104 C107 1.358 . S
C104 C108 1.332 . S
C104 C110 1.504 . S
C105 C106 1.373 . S
C105 C109 1.308 . S
C106 C105 1.373 . S
C106 C107 1.429 . S
C106 H116 0.932 . S
C107 C104 1.358 . S
C107 C106 1.429 . S
C107 H117 0.930 . S
C108 C104 1.332 . S
C108 C109 1.394 . S
C108 H118 0.932 . S
C109 C105 1.308 . S
C109 C108 1.394 . S
C109 H119 0.929 . S
C110 Tb81 2.764 . S
C110 O94 1.239 . S
C110 O95 1.263 . S
C110 C104 1.504 . S
C111 O96 1.236 . S
C111 O97 1.257 . S
H112 C85 0.932 1_565 S
H113 C86 0.930 . S
H114 C87 0.932 . S
H115 C88 0.929 . S
H116 C106 0.932 . S
H117 C107 0.930 . S
H118 C108 0.932 . S
H119 C109 0.929 . S
Tb120 C129 2.764 . S
Tb120 O130 2.325 . S
Tb120 O133 2.303 . S
Tb120 O137 2.322 . S
Tb120 O138 2.349 . S
Tb120 O141 2.415 . S
Tb120 O142 2.399 . S
Tb121 O131 2.322 . S
Tb121 O132 2.349 . S
Tb121 O134 2.415 . S
Tb121 O135 2.399 . S
Tb121 O136 2.325 . S
Tb121 O139 2.303 . S
Tb121 C150 2.764 . S
C122 O138 1.261 . S
C122 O139 1.257 . S
C123 C126 1.358 . S
C123 C127 1.332 . S
C123 C129 1.504 . S
C124 C125 1.373 . S
C124 C128 1.308 . S
C125 C124 1.373 . S
C125 C126 1.429 . S
C125 H152 0.932 . S
C126 C123 1.358 . S
C126 C125 1.429 . S
C126 H153 0.930 . S
C127 C123 1.332 . S
C127 C128 1.394 . S
C127 H154 0.932 . S
C128 C124 1.308 . S
C128 C127 1.394 . S
C128 H155 0.929 . S
C129 Tb120 2.764 . S
C129 C123 1.504 . S
C129 O141 1.239 . S
C129 O142 1.263 . S
O130 Tb120 2.325 . S
O130 C140 1.236 . S
O131 Tb121 2.322 . S
O131 C140 1.257 . S
O132 Tb121 2.349 . S
O132 C143 1.261 . S
O133 Tb120 2.303 . S
O133 C143 1.257 . S
O134 Tb121 2.415 . S
O134 C150 1.239 . S
O135 Tb121 2.399 . S
O135 C150 1.263 . S
O136 Tb121 2.325 . S
O136 C151 1.236 . S
O137 Tb120 2.322 . S
O137 C151 1.257 . S
O138 Tb120 2.349 . S
O138 C122 1.261 . S
O139 Tb121 2.303 . S
O139 C122 1.257 . S
C140 O130 1.236 . S
C140 O131 1.257 . S
O141 Tb120 2.415 . S
O141 C129 1.239 . S
O142 Tb120 2.399 . S
O142 C129 1.263 . S
C143 O132 1.261 . S
C143 O133 1.257 . S
C144 C147 1.358 . S
C144 C148 1.332 . S
C144 C150 1.504 . S
C145 C146 1.373 . S
C145 C149 1.308 . S
C146 C145 1.373 . S
C146 C147 1.429 . S
C146 H156 0.932 . S
C147 C144 1.358 . S
C147 C146 1.429 . S
C147 H157 0.930 . S
C148 C144 1.332 . S
C148 C149 1.394 . S
C148 H158 0.932 . S
C149 C145 1.308 . S
C149 C148 1.394 . S
C149 H159 0.929 . S
C150 Tb121 2.764 . S
C150 O134 1.239 . S
C150 O135 1.263 . S
C150 C144 1.504 . S
C151 O136 1.236 . S
C151 O137 1.257 . S
H152 C125 0.932 . S
H153 C126 0.930 . S
H154 C127 0.932 . S
H155 C128 0.929 . S
H156 C146 0.932 . S
H157 C147 0.930 . S
H158 C148 0.932 . S
H159 C149 0.929 . S
Tb160 C169 2.764 . S
Tb160 O170 2.325 . S
Tb160 O173 2.303 . S
Tb160 O177 2.322 . S
Tb160 O178 2.349 . S
Tb160 O181 2.415 . S
Tb160 O182 2.399 . S
Tb161 O171 2.322 . S
Tb161 O172 2.349 . S
Tb161 O174 2.415 . S
Tb161 O175 2.399 . S
Tb161 O176 2.325 . S
Tb161 O179 2.303 . S
Tb161 C190 2.764 . S
C162 O178 1.261 . S
C162 O179 1.257 . S
C163 C166 1.358 . S
C163 C167 1.332 . S
C163 C169 1.504 . S
C164 C165 1.373 . S
C164 C168 1.308 . S
C165 C164 1.373 . S
C165 C166 1.429 . S
C165 H192 0.932 . S
C166 C163 1.358 . S
C166 C165 1.429 . S
C166 H193 0.930 . S
C167 C163 1.332 . S
C167 C168 1.394 . S
C167 H194 0.932 . S
C168 C164 1.308 . S
C168 C167 1.394 . S
C168 H195 0.929 . S
C169 Tb160 2.764 . S
C169 C163 1.504 . S
C169 O181 1.239 . S
C169 O182 1.263 . S
O170 Tb160 2.325 . S
O170 C180 1.236 . S
O171 Tb161 2.322 . S
O171 C180 1.257 . S
O172 Tb161 2.349 . S
O172 C183 1.261 . S
O173 Tb160 2.303 . S
O173 C183 1.257 . S
O174 Tb161 2.415 . S
O174 C190 1.239 . S
O175 Tb161 2.399 . S
O175 C190 1.263 . S
O176 Tb161 2.325 . S
O176 C191 1.236 . S
O177 Tb160 2.322 . S
O177 C191 1.257 . S
O178 Tb160 2.349 . S
O178 C162 1.261 . S
O179 Tb161 2.303 . S
O179 C162 1.257 . S
C180 O170 1.236 . S
C180 O171 1.257 . S
O181 Tb160 2.415 . S
O181 C169 1.239 . S
O182 Tb160 2.399 . S
O182 C169 1.263 . S
C183 O172 1.261 . S
C183 O173 1.257 . S
C184 C187 1.358 . S
C184 C188 1.332 . S
C184 C190 1.504 . S
C185 C186 1.373 . S
C185 C189 1.308 . S
C186 C185 1.373 . S
C186 C187 1.429 . S
C186 H196 0.932 1_455 S
C187 C184 1.358 . S
C187 C186 1.429 . S
C187 H197 0.930 . S
C188 C184 1.332 . S
C188 C189 1.394 . S
C188 H198 0.932 . S
C189 C185 1.308 . S
C189 C188 1.394 . S
C189 H199 0.929 . S
C190 Tb161 2.764 . S
C190 O174 1.239 . S
C190 O175 1.263 . S
C190 C184 1.504 . S
C191 O176 1.236 . S
C191 O177 1.257 . S
H192 C165 0.932 . S
H193 C166 0.930 . S
H194 C167 0.932 . S
H195 C168 0.929 . S
H196 C186 0.932 1_655 S
H197 C187 0.930 . S
H198 C188 0.932 . S
H199 C189 0.929 . S
Tb200 C209 2.764 . S
Tb200 O210 2.325 . S
Tb200 O213 2.303 . S
Tb200 O217 2.322 . S
Tb200 O218 2.349 . S
Tb200 O221 2.415 . S
Tb200 O222 2.399 . S
Tb201 O211 2.322 . S
Tb201 O212 2.349 . S
Tb201 O214 2.415 . S
Tb201 O215 2.399 . S
Tb201 O216 2.325 . S
Tb201 O219 2.303 . S
Tb201 C230 2.764 . S
C202 O218 1.261 . S
C202 O219 1.257 . S
C203 C206 1.358 . S
C203 C207 1.332 . S
C203 C209 1.504 . S
C204 C205 1.373 . S
C204 C208 1.308 . S
C205 C204 1.373 . S
C205 C206 1.429 . S
C205 H232 0.932 . S
C206 C203 1.358 . S
C206 C205 1.429 . S
C206 H233 0.930 . S
C207 C203 1.332 . S
C207 C208 1.394 . S
C207 H234 0.932 . S
C208 C204 1.308 . S
C208 C207 1.394 . S
C208 H235 0.929 . S
C209 Tb200 2.764 . S
C209 C203 1.504 . S
C209 O221 1.239 . S
C209 O222 1.263 . S
O210 Tb200 2.325 . S
O210 C220 1.236 . S
O211 Tb201 2.322 . S
O211 C220 1.257 . S
O212 Tb201 2.349 . S
O212 C223 1.261 . S
O213 Tb200 2.303 . S
O213 C223 1.257 . S
O214 Tb201 2.415 . S
O214 C230 1.239 . S
O215 Tb201 2.399 . S
O215 C230 1.263 . S
O216 Tb201 2.325 . S
O216 C231 1.236 . S
O217 Tb200 2.322 . S
O217 C231 1.257 . S
O218 Tb200 2.349 . S
O218 C202 1.261 . S
O219 Tb201 2.303 . S
O219 C202 1.257 . S
C220 O210 1.236 . S
C220 O211 1.257 . S
O221 Tb200 2.415 . S
O221 C209 1.239 . S
O222 Tb200 2.399 . S
O222 C209 1.263 . S
C223 O212 1.261 . S
C223 O213 1.257 . S
C224 C227 1.358 . S
C224 C228 1.332 . S
C224 C230 1.504 . S
C225 C226 1.373 . S
C225 C229 1.308 . S
C226 C225 1.373 . S
C226 C227 1.429 . S
C226 H236 0.932 1_565 S
C227 C224 1.358 . S
C227 C226 1.429 . S
C227 H237 0.930 . S
C228 C224 1.332 . S
C228 C229 1.394 . S
C228 H238 0.932 . S
C229 C225 1.308 . S
C229 C228 1.394 . S
C229 H239 0.929 . S
C230 Tb201 2.764 . S
C230 O214 1.239 . S
C230 O215 1.263 . S
C230 C224 1.504 . S
C231 O216 1.236 . S
C231 O217 1.257 . S
H232 C205 0.932 . S
H233 C206 0.930 . S
H234 C207 0.932 . S
H235 C208 0.929 . S
H236 C226 0.932 1_545 S
H237 C227 0.930 . S
H238 C228 0.932 . S
H239 C229 0.929 . S
C240 C241 1.391 . S
C240 C242 1.383 1_565 S
C240 H256 0.931 . S
C241 C240 1.391 . S
C241 C245 1.376 . S
C242 C240 1.383 1_545 S
C242 C243 1.370 1_545 S
C242 C246 1.540 . S
C243 C242 1.370 1_565 S
C243 C244 1.410 . S
C243 C251 1.503 1_566 S
C244 C243 1.410 . S
C244 C245 1.392 . S
C244 C247 1.511 1_556 S
C245 C241 1.376 . S
C245 C244 1.392 . S
C245 H257 0.929 . S
C246 C242 1.540 . S
C246 H258 0.960 . S
C246 H259 0.962 . S
C246 H260 0.960 . S
C247 C244 1.511 1_554 S
C247 H261 0.961 . S
C247 H262 0.961 . S
C247 H263 0.961 . S
C248 C249 1.370 . S
C248 C250 1.363 . S
C248 H264 0.931 . S
C249 C248 1.370 . S
C249 C253 1.408 . S
C250 C248 1.363 . S
C250 C251 1.370 . S
C250 C254 1.524 1_545 S
C251 C243 1.503 1_544 S
C251 C250 1.370 . S
C251 C252 1.403 . S
C252 C251 1.403 . S
C252 C253 1.404 . S
C252 C255 1.539 1_554 S
C253 C249 1.408 . S
C253 C252 1.404 . S
C253 H265 0.930 . S
C254 C250 1.524 1_565 S
C254 H266 0.956 . S
C254 H267 0.961 . S
C254 H268 0.961 . S
C255 C252 1.539 1_556 S
C255 H269 0.958 . S
C255 H270 0.961 1_556 S
C255 H271 0.960 . S
H256 C240 0.931 . S
H257 C245 0.929 . S
H258 C246 0.960 . S
H259 C246 0.962 . S
H260 C246 0.960 . S
H261 C247 0.961 . S
H262 C247 0.961 . S
H263 C247 0.961 . S
H264 C248 0.931 . S
H265 C253 0.930 . S
H266 C254 0.956 . S
H267 C254 0.961 . S
H268 C254 0.961 . S
H269 C255 0.958 . S
H270 C255 0.961 1_554 S
H271 C255 0.960 . S
C272 C273 1.391 . S
C272 C274 1.394 . S
C272 H288 0.931 . S
C273 C272 1.391 . S
C273 C277 1.376 . S
C274 C272 1.394 . S
C274 C275 1.369 . S
C274 C278 1.531 . S
C275 C274 1.369 . S
C275 C276 1.410 . S
C275 C283 1.503 . S
C276 C275 1.410 . S
C276 C277 1.392 . S
C276 C279 1.511 . S
C277 C273 1.376 . S
C277 C276 1.392 . S
C277 H289 0.929 . S
C278 C274 1.531 . S
C278 H290 0.960 . S
C278 H291 0.962 . S
C278 H292 0.960 . S
C279 C276 1.511 . S
C279 H293 0.961 . S
C279 H294 0.961 . S
C279 H295 0.961 . S
C280 C281 1.370 . S
C280 C282 1.363 . S
C280 H296 0.931 . S
C281 C280 1.370 . S
C281 C285 1.408 . S
C282 C280 1.363 . S
C282 C283 1.370 . S
C282 C286 1.524 . S
C283 C275 1.503 . S
C283 C282 1.370 . S
C283 C284 1.403 . S
C284 C283 1.403 . S
C284 C285 1.404 . S
C284 C287 1.539 . S
C285 C281 1.408 . S
C285 C284 1.404 . S
C285 H297 0.930 . S
C286 C282 1.524 . S
C286 H298 0.956 . S
C286 H299 0.961 . S
C286 H300 0.961 . S
C287 C284 1.539 . S
C287 H301 0.958 . S
C287 H302 0.961 . S
C287 H303 0.960 . S
H288 C272 0.931 . S
H289 C277 0.929 . S
H290 C278 0.960 . S
H291 C278 0.962 . S
H292 C278 0.960 . S
H293 C279 0.961 . S
H294 C279 0.961 . S
H295 C279 0.961 . S
H296 C280 0.931 . S
H297 C285 0.930 . S
H298 C286 0.956 . S
H299 C286 0.961 . S
H300 C286 0.961 . S
H301 C287 0.958 . S
H302 C287 0.961 . S
H303 C287 0.960 . S
C304 C305 1.391 . S
C304 C306 1.394 . S
C304 H320 0.931 . S
C305 C304 1.391 . S
C305 C309 1.376 . S
C306 C304 1.394 . S
C306 C307 1.369 . S
C306 C310 1.531 1_655 S
C307 C306 1.369 . S
C307 C308 1.410 . S
C307 C315 1.503 1_654 S
C308 C307 1.410 . S
C308 C309 1.392 . S
C308 C311 1.511 . S
C309 C305 1.376 . S
C309 C308 1.392 . S
C309 H321 0.929 . S
C310 C306 1.531 1_455 S
C310 H322 0.960 . S
C310 H323 0.962 1_455 S
C310 H324 0.960 . S
C311 C308 1.511 . S
C311 H325 0.961 . S
C311 H326 0.961 1_554 S
C311 H327 0.961 . S
C312 C313 1.370 . S
C312 C314 1.363 . S
C312 H328 0.931 . S
C313 C312 1.370 . S
C313 C317 1.408 . S
C314 C312 1.363 . S
C314 C315 1.370 . S
C314 C318 1.524 1_455 S
C315 C307 1.503 1_456 S
C315 C314 1.370 . S
C315 C316 1.403 . S
C316 C315 1.403 . S
C316 C317 1.404 . S
C316 C319 1.539 1_556 S
C317 C313 1.408 . S
C317 C316 1.404 . S
C317 H329 0.930 . S
C318 C314 1.524 1_655 S
C318 H330 0.956 . S
C318 H331 0.961 . S
C318 H332 0.961 . S
C319 C316 1.539 1_554 S
C319 H333 0.958 . S
C319 H334 0.961 . S
C319 H335 0.960 . S
H320 C304 0.931 . S
H321 C309 0.929 . S
H322 C310 0.960 . S
H323 C310 0.962 1_655 S
H324 C310 0.960 . S
H325 C311 0.961 . S
H326 C311 0.961 1_556 S
H327 C311 0.961 . S
H328 C312 0.931 . S
H329 C317 0.930 . S
H330 C318 0.956 . S
H331 C318 0.961 . S
H332 C318 0.961 . S
H333 C319 0.958 . S
H334 C319 0.961 . S
H335 C319 0.960 . S
C336 C337 1.391 . S
C336 C338 1.375 1_545 S
C336 H352 0.931 . S
C337 C336 1.391 . S
C337 C341 1.376 . S
C338 C336 1.375 1_565 S
C338 C339 1.373 1_565 S
C338 C342 1.547 . S
C339 C338 1.373 1_545 S
C339 C340 1.410 . S
C339 C347 1.503 1_545 S
C340 C339 1.410 . S
C340 C341 1.392 . S
C340 C343 1.511 . S
C341 C337 1.376 . S
C341 C340 1.392 . S
C341 H353 0.929 . S
C342 C338 1.547 . S
C342 H354 0.960 . S
C342 H355 0.962 . S
C342 H356 0.960 . S
C343 C340 1.511 . S
C343 H357 0.961 . S
C343 H358 0.961 . S
C343 H359 0.961 . S
C344 C345 1.370 . S
C344 C346 1.363 . S
C344 H360 0.931 . S
C345 C344 1.370 . S
C345 C349 1.408 . S
C346 C344 1.363 . S
C346 C347 1.370 . S
C346 C350 1.524 1_565 S
C347 C339 1.503 1_565 S
C347 C346 1.370 . S
C347 C348 1.403 . S
C348 C347 1.403 . S
C348 C349 1.404 . S
C348 C351 1.539 . S
C349 C345 1.408 . S
C349 C348 1.404 . S
C349 H361 0.930 . S
C350 C346 1.524 1_545 S
C350 H362 0.956 . S
C350 H363 0.961 . S
C350 H364 0.961 . S
C351 C348 1.539 . S
C351 H365 0.958 . S
C351 H366 0.961 . S
C351 H367 0.960 . S
H352 C336 0.931 . S
H353 C341 0.929 . S
H354 C342 0.960 . S
H355 C342 0.962 . S
H356 C342 0.960 . S
H357 C343 0.961 . S
H358 C343 0.961 . S
H359 C343 0.961 . S
H360 C344 0.931 . S
H361 C349 0.930 . S
H362 C350 0.956 . S
H363 C350 0.961 . S
H364 C350 0.961 . S
H365 C351 0.958 . S
H366 C351 0.961 . S
H367 C351 0.960 . S
C368 C369 1.391 . S
C368 C370 1.394 . S
C368 H384 0.931 . S
C369 C368 1.391 . S
C369 C373 1.376 . S
C370 C368 1.394 . S
C370 C371 1.369 . S
C370 C374 1.531 1_556 S
C371 C370 1.369 . S
C371 C372 1.410 . S
C371 C379 1.503 1_556 S
C372 C371 1.410 . S
C372 C373 1.392 . S
C372 C375 1.511 . S
C373 C369 1.376 . S
C373 C372 1.392 . S
C373 H385 0.929 . S
C374 C370 1.531 1_554 S
C374 H386 0.960 . S
C374 H387 0.962 . S
C374 H388 0.960 . S
C375 C372 1.511 . S
C375 H389 0.961 . S
C375 H390 0.961 . S
C375 H391 0.961 . S
C376 C377 1.370 . S
C376 C378 1.363 . S
C376 H392 0.931 . S
C377 C376 1.370 . S
C377 C381 1.408 . S
C378 C376 1.363 . S
C378 C379 1.370 . S
C378 C382 1.524 . S
C379 C371 1.503 1_554 S
C379 C378 1.370 . S
C379 C380 1.403 . S
C380 C379 1.403 . S
C380 C381 1.404 . S
C380 C383 1.539 . S
C381 C377 1.408 . S
C381 C380 1.404 . S
C381 H393 0.930 . S
C382 C378 1.524 . S
C382 H394 0.956 . S
C382 H395 0.961 1_554 S
C382 H396 0.961 . S
C383 C380 1.539 . S
C383 H397 0.958 . S
C383 H398 0.961 . S
C383 H399 0.960 1_554 S
H384 C368 0.931 . S
H385 C373 0.929 . S
H386 C374 0.960 . S
H387 C374 0.962 . S
H388 C374 0.960 . S
H389 C375 0.961 . S
H390 C375 0.961 . S
H391 C375 0.961 . S
H392 C376 0.931 . S
H393 C381 0.930 . S
H394 C382 0.956 . S
H395 C382 0.961 1_556 S
H396 C382 0.961 . S
H397 C383 0.958 . S
H398 C383 0.961 . S
H399 C383 0.960 1_556 S
C400 C401 1.391 . S
C400 C402 1.408 . S
C400 H416 0.931 . S
C401 C400 1.391 . S
C401 C405 1.376 . S
C402 C400 1.408 . S
C402 C403 1.381 . S
C402 C406 1.504 1_655 S
C403 C402 1.381 . S
C403 C404 1.410 . S
C403 C411 1.503 1_655 S
C404 C403 1.410 . S
C404 C405 1.392 . S
C404 C407 1.511 . S
C405 C401 1.376 . S
C405 C404 1.392 . S
C405 H417 0.929 . S
C406 C402 1.504 1_455 S
C406 H418 0.960 . S
C406 H419 0.962 . S
C406 H420 0.960 . S
C407 C404 1.511 . S
C407 H421 0.961 . S
C407 H422 0.961 . S
C407 H423 0.961 . S
C408 C409 1.370 . S
C408 C410 1.363 . S
C408 H424 0.931 . S
C409 C408 1.370 . S
C409 C413 1.408 . S
C410 C408 1.363 . S
C410 C411 1.370 . S
C410 C414 1.524 1_455 S
C411 C403 1.503 1_455 S
C411 C410 1.370 . S
C411 C412 1.403 . S
C412 C411 1.403 . S
C412 C413 1.404 . S
C412 C415 1.539 . S
C413 C409 1.408 . S
C413 C412 1.404 . S
C413 H425 0.930 . S
C414 C410 1.524 1_655 S
C414 H426 0.956 . S
C414 H427 0.961 . S
C414 H428 0.961 . S
C415 C412 1.539 . S
C415 H429 0.958 . S
C415 H430 0.961 . S
C415 H431 0.960 . S
H416 C400 0.931 . S
H417 C405 0.929 . S
H418 C406 0.960 . S
H419 C406 0.962 . S
H420 C406 0.960 . S
H421 C407 0.961 . S
H422 C407 0.961 . S
H423 C407 0.961 . S
H424 C408 0.931 . S
H425 C413 0.930 . S
H426 C414 0.956 . S
H427 C414 0.961 . S
H428 C414 0.961 . S
H429 C415 0.958 . S
H430 C415 0.961 . S
H431 C415 0.960 . S
C432 C433 1.391 . S
C432 C434 1.394 . S
C432 H448 0.931 . S
C433 C432 1.391 . S
C433 C437 1.376 . S
C434 C432 1.394 . S
C434 C435 1.369 . S
C434 C438 1.531 . S
C435 C434 1.369 . S
C435 C436 1.410 . S
C435 C443 1.503 . S
C436 C435 1.410 . S
C436 C437 1.392 . S
C436 C439 1.511 . S
C437 C433 1.376 . S
C437 C436 1.392 . S
C437 H449 0.929 . S
C438 C434 1.531 . S
C438 H450 0.960 . S
C438 H451 0.962 . S
C438 H452 0.960 . S
C439 C436 1.511 . S
C439 H453 0.961 . S
C439 H454 0.961 . S
C439 H455 0.961 . S
C440 C441 1.370 . S
C440 C442 1.363 . S
C440 H456 0.931 . S
C441 C440 1.370 . S
C441 C445 1.408 . S
C442 C440 1.363 . S
C442 C443 1.370 . S
C442 C446 1.524 . S
C443 C435 1.503 . S
C443 C442 1.370 . S
C443 C444 1.403 . S
C444 C443 1.403 . S
C444 C445 1.404 . S
C444 C447 1.539 . S
C445 C441 1.408 . S
C445 C444 1.404 . S
C445 H457 0.930 . S
C446 C442 1.524 . S
C446 H458 0.956 . S
C446 H459 0.961 . S
C446 H460 0.961 . S
C447 C444 1.539 . S
C447 H461 0.958 . S
C447 H462 0.961 . S
C447 H463 0.960 . S
H448 C432 0.931 . S
H449 C437 0.929 . S
H450 C438 0.960 . S
H451 C438 0.962 . S
H452 C438 0.960 . S
H453 C439 0.961 . S
H454 C439 0.961 . S
H455 C439 0.961 . S
H456 C440 0.931 . S
H457 C445 0.930 . S
H458 C446 0.956 . S
H459 C446 0.961 . S
H460 C446 0.961 . S
H461 C447 0.958 . S
H462 C447 0.961 . S
H463 C447 0.960 . S
C464 C465 1.391 . S
C464 C466 1.394 . S
C464 H480 0.931 . S
C465 C464 1.391 . S
C465 C469 1.376 . S
C466 C464 1.394 . S
C466 C467 1.369 . S
C466 C470 1.531 . S
C467 C466 1.369 . S
C467 C468 1.410 . S
C467 C475 1.503 . S
C468 C467 1.410 . S
C468 C469 1.392 . S
C468 C471 1.511 . S
C469 C465 1.376 . S
C469 C468 1.392 . S
C469 H481 0.929 . S
C470 C466 1.531 . S
C470 H482 0.960 . S
C470 H483 0.962 . S
C470 H484 0.960 . S
C471 C468 1.511 . S
C471 H485 0.961 . S
C471 H486 0.961 . S
C471 H487 0.961 . S
C472 C473 1.370 . S
C472 C474 1.363 . S
C472 H488 0.931 . S
C473 C472 1.370 . S
C473 C477 1.408 . S
C474 C472 1.363 . S
C474 C475 1.370 . S
C474 C478 1.524 . S
C475 C467 1.503 . S
C475 C474 1.370 . S
C475 C476 1.403 . S
C476 C475 1.403 . S
C476 C477 1.404 . S
C476 C479 1.539 . S
C477 C473 1.408 . S
C477 C476 1.404 . S
C477 H489 0.930 . S
C478 C474 1.524 . S
C478 H490 0.956 . S
C478 H491 0.961 . S
C478 H492 0.961 . S
C479 C476 1.539 . S
C479 H493 0.958 . S
C479 H494 0.961 . S
C479 H495 0.960 . S
H480 C464 0.931 . S
H481 C469 0.929 . S
H482 C470 0.960 . S
H483 C470 0.962 . S
H484 C470 0.960 . S
H485 C471 0.961 . S
H486 C471 0.961 . S
H487 C471 0.961 . S
H488 C472 0.931 . S
H489 C477 0.930 . S
H490 C478 0.956 . S
H491 C478 0.961 . S
H492 C478 0.961 . S
H493 C479 0.958 . S
H494 C479 0.961 . S
H495 C479 0.960 . S
C496 C497 1.391 . S
C496 C498 1.394 . S
C496 H512 0.931 . S
C497 C496 1.391 . S
C497 C501 1.376 . S
C498 C496 1.394 . S
C498 C499 1.369 . S
C498 C502 1.531 . S
C499 C498 1.369 . S
C499 C500 1.410 . S
C499 C507 1.503 . S
C500 C499 1.410 . S
C500 C501 1.392 . S
C500 C503 1.511 . S
C501 C497 1.376 . S
C501 C500 1.392 . S
C501 H513 0.929 . S
C502 C498 1.531 . S
C502 H514 0.960 . S
C502 H515 0.962 . S
C502 H516 0.960 . S
C503 C500 1.511 . S
C503 H517 0.961 . S
C503 H518 0.961 . S
C503 H519 0.961 . S
C504 C505 1.370 . S
C504 C506 1.363 . S
C504 H520 0.931 . S
C505 C504 1.370 . S
C505 C509 1.408 . S
C506 C504 1.363 . S
C506 C507 1.370 . S
C506 C510 1.524 . S
C507 C499 1.503 . S
C507 C506 1.370 . S
C507 C508 1.403 . S
C508 C507 1.403 . S
C508 C509 1.404 . S
C508 C511 1.539 . S
C509 C505 1.408 . S
C509 C508 1.404 . S
C509 H521 0.930 . S
C510 C506 1.524 . S
C510 H522 0.956 . S
C510 H523 0.961 . S
C510 H524 0.961 . S
C511 C508 1.539 . S
C511 H525 0.958 . S
C511 H526 0.961 . S
C511 H527 0.960 . S
H512 C496 0.931 . S
H513 C501 0.929 . S
H514 C502 0.960 . S
H515 C502 0.962 . S
H516 C502 0.960 . S
H517 C503 0.961 . S
H518 C503 0.961 . S
H519 C503 0.961 . S
H520 C504 0.931 . S
H521 C509 0.930 . S
H522 C510 0.956 . S
H523 C510 0.961 . S
H524 C510 0.961 . S
H525 C511 0.958 . S
H526 C511 0.961 . S
H527 C511 0.960 . S
C528 C529 1.391 . S
C528 C530 1.394 . S
C528 H544 0.931 . S
C529 C528 1.391 . S
C529 C533 1.376 . S
C530 C528 1.394 . S
C530 C531 1.369 . S
C530 C534 1.531 . S
C531 C530 1.369 . S
C531 C532 1.410 . S
C531 C539 1.503 . S
C532 C531 1.410 . S
C532 C533 1.392 . S
C532 C535 1.511 . S
C533 C529 1.376 . S
C533 C532 1.392 . S
C533 H545 0.929 . S
C534 C530 1.531 . S
C534 H546 0.960 . S
C534 H547 0.962 . S
C534 H548 0.960 . S
C535 C532 1.511 . S
C535 H549 0.961 . S
C535 H550 0.961 . S
C535 H551 0.961 . S
C536 C537 1.370 . S
C536 C538 1.363 . S
C536 H552 0.931 . S
C537 C536 1.370 . S
C537 C541 1.408 . S
C538 C536 1.363 . S
C538 C539 1.370 . S
C538 C542 1.524 . S
C539 C531 1.503 . S
C539 C538 1.370 . S
C539 C540 1.403 . S
C540 C539 1.403 . S
C540 C541 1.404 . S
C540 C543 1.539 . S
C541 C537 1.408 . S
C541 C540 1.404 . S
C541 H553 0.930 . S
C542 C538 1.524 . S
C542 H554 0.956 . S
C542 H555 0.961 . S
C542 H556 0.961 . S
C543 C540 1.539 . S
C543 H557 0.958 . S
C543 H558 0.961 . S
C543 H559 0.960 . S
H544 C528 0.931 . S
H545 C533 0.929 . S
H546 C534 0.960 . S
H547 C534 0.962 . S
H548 C534 0.960 . S
H549 C535 0.961 . S
H550 C535 0.961 . S
H551 C535 0.961 . S
H552 C536 0.931 . S
H553 C541 0.930 . S
H554 C542 0.956 . S
H555 C542 0.961 . S
H556 C542 0.961 . S
H557 C543 0.958 . S
H558 C543 0.961 . S
H559 C543 0.960 . S
C560 C561 1.391 . S
C560 C562 1.394 . S
C560 H576 0.931 . S
C561 C560 1.391 . S
C561 C565 1.376 . S
C562 C560 1.394 . S
C562 C563 1.369 . S
C562 C566 1.531 . S
C563 C562 1.369 . S
C563 C564 1.410 . S
C563 C571 1.503 . S
C564 C563 1.410 . S
C564 C565 1.392 . S
C564 C567 1.511 . S
C565 C561 1.376 . S
C565 C564 1.392 . S
C565 H577 0.929 . S
C566 C562 1.531 . S
C566 H578 0.960 . S
C566 H579 0.962 . S
C566 H580 0.960 . S
C567 C564 1.511 . S
C567 H581 0.961 . S
C567 H582 0.961 . S
C567 H583 0.961 . S
C568 C569 1.370 . S
C568 C570 1.363 . S
C568 H584 0.931 . S
C569 C568 1.370 . S
C569 C573 1.408 . S
C570 C568 1.363 . S
C570 C571 1.370 . S
C570 C574 1.524 . S
C571 C563 1.503 . S
C571 C570 1.370 . S
C571 C572 1.403 . S
C572 C571 1.403 . S
C572 C573 1.404 . S
C572 C575 1.539 . S
C573 C569 1.408 . S
C573 C572 1.404 . S
C573 H585 0.930 . S
C574 C570 1.524 . S
C574 H586 0.956 . S
C574 H587 0.961 . S
C574 H588 0.961 . S
C575 C572 1.539 . S
C575 H589 0.958 . S
C575 H590 0.961 . S
C575 H591 0.960 . S
H576 C560 0.931 . S
H577 C565 0.929 . S
H578 C566 0.960 . S
H579 C566 0.962 . S
H580 C566 0.960 . S
H581 C567 0.961 . S
H582 C567 0.961 . S
H583 C567 0.961 . S
H584 C568 0.931 . S
H585 C573 0.930 . S
H586 C574 0.956 . S
H587 C574 0.961 . S
H588 C574 0.961 . S
H589 C575 0.958 . S
H590 C575 0.961 . S
H591 C575 0.960 . S
C592 C593 1.391 . S
C592 C594 1.394 . S
C592 H608 0.931 . S
C593 C592 1.391 . S
C593 C597 1.376 . S
C594 C592 1.394 . S
C594 C595 1.369 . S
C594 C598 1.531 . S
C595 C594 1.369 . S
C595 C596 1.410 . S
C595 C603 1.503 . S
C596 C595 1.410 . S
C596 C597 1.392 . S
C596 C599 1.511 . S
C597 C593 1.376 . S
C597 C596 1.392 . S
C597 H609 0.929 . S
C598 C594 1.531 . S
C598 H610 0.960 . S
C598 H611 0.962 . S
C598 H612 0.960 . S
C599 C596 1.511 . S
C599 H613 0.961 . S
C599 H614 0.961 . S
C599 H615 0.961 . S
C600 C601 1.370 . S
C600 C602 1.363 . S
C600 H616 0.931 . S
C601 C600 1.370 . S
C601 C605 1.408 . S
C602 C600 1.363 . S
C602 C603 1.370 . S
C602 C606 1.524 . S
C603 C595 1.503 . S
C603 C602 1.370 . S
C603 C604 1.403 . S
C604 C603 1.403 . S
C604 C605 1.404 . S
C604 C607 1.539 . S
C605 C601 1.408 . S
C605 C604 1.404 . S
C605 H617 0.930 . S
C606 C602 1.524 . S
C606 H618 0.956 . S
C606 H619 0.961 . S
C606 H620 0.961 . S
C607 C604 1.539 . S
C607 H621 0.958 . S
C607 H622 0.961 . S
C607 H623 0.960 . S
H608 C592 0.931 . S
H609 C597 0.929 . S
H610 C598 0.960 . S
H611 C598 0.962 . S
H612 C598 0.960 . S
H613 C599 0.961 . S
H614 C599 0.961 . S
H615 C599 0.961 . S
H616 C600 0.931 . S
H617 C605 0.930 . S
H618 C606 0.956 . S
H619 C606 0.961 . S
H620 C606 0.961 . S
H621 C607 0.958 . S
H622 C607 0.961 . S
H623 C607 0.960 . S
C624 C625 1.391 . S
C624 C626 1.394 . S
C624 H640 0.931 . S
C625 C624 1.391 . S
C625 C629 1.376 . S
C626 C624 1.394 . S
C626 C627 1.369 . S
C626 C630 1.531 . S
C627 C626 1.369 . S
C627 C628 1.410 . S
C627 C635 1.503 . S
C628 C627 1.410 . S
C628 C629 1.392 . S
C628 C631 1.511 1_455 S
C629 C625 1.376 . S
C629 C628 1.392 . S
C629 H641 0.929 . S
C630 C626 1.531 . S
C630 H642 0.960 . S
C630 H643 0.962 . S
C630 H644 0.960 . S
C631 C628 1.511 1_655 S
C631 H645 0.961 . S
C631 H646 0.961 . S
C631 H647 0.961 . S
C632 C633 1.370 1_455 S
C632 C634 1.363 . S
C632 H648 0.931 . S
C633 C632 1.370 1_655 S
C633 C637 1.408 . S
C634 C632 1.363 . S
C634 C635 1.370 . S
C634 C638 1.524 . S
C635 C627 1.503 . S
C635 C634 1.370 . S
C635 C636 1.403 . S
C636 C635 1.403 . S
C636 C637 1.404 1_455 S
C636 C639 1.539 1_455 S
C637 C633 1.408 . S
C637 C636 1.404 1_655 S
C637 H649 0.930 . S
C638 C634 1.524 . S
C638 H650 0.956 . S
C638 H651 0.961 . S
C638 H652 0.961 . S
C639 C636 1.539 1_655 S
C639 H653 0.958 1_655 S
C639 H654 0.961 . S
C639 H655 0.959 . S
H640 C624 0.931 . S
H641 C629 0.929 . S
H642 C630 0.960 . S
H643 C630 0.962 . S
H644 C630 0.960 . S
H645 C631 0.961 . S
H646 C631 0.961 . S
H647 C631 0.961 . S
H648 C632 0.931 . S
H649 C637 0.930 . S
H650 C638 0.956 . S
H651 C638 0.961 . S
H652 C638 0.961 . S
H653 C639 0.958 1_455 S
H654 C639 0.961 . S
H655 C639 0.959 . S
C656 C657 1.391 . S
C656 C658 1.394 . S
C656 H672 0.931 . S
C657 C656 1.391 . S
C657 C661 1.376 . S
C658 C656 1.394 . S
C658 C659 1.369 . S
C658 C662 1.531 . S
C659 C658 1.369 . S
C659 C660 1.410 . S
C659 C667 1.503 . S
C660 C659 1.410 . S
C660 C661 1.392 . S
C660 C663 1.511 1_565 S
C661 C657 1.376 . S
C661 C660 1.392 . S
C661 H673 0.929 . S
C662 C658 1.531 . S
C662 H674 0.960 . S
C662 H675 0.962 . S
C662 H676 0.960 . S
C663 C660 1.511 1_545 S
C663 H677 0.961 . S
C663 H678 0.961 . S
C663 H679 0.961 . S
C664 C665 1.370 1_565 S
C664 C666 1.363 . S
C664 H680 0.931 . S
C665 C664 1.370 1_545 S
C665 C669 1.408 . S
C666 C664 1.363 . S
C666 C667 1.370 . S
C666 C670 1.524 . S
C667 C659 1.503 . S
C667 C666 1.370 . S
C667 C668 1.403 1_565 S
C668 C667 1.403 1_545 S
C668 C669 1.404 . S
C668 C671 1.539 . S
C669 C665 1.408 . S
C669 C668 1.404 . S
C669 H681 0.930 . S
C670 C666 1.524 . S
C670 H682 0.956 . S
C670 H683 0.961 . S
C670 H684 0.961 . S
C671 C668 1.539 . S
C671 H685 0.959 . S
C671 H686 0.961 . S
C671 H687 0.960 . S
H672 C656 0.931 . S
H673 C661 0.929 . S
H674 C662 0.960 . S
H675 C662 0.962 . S
H676 C662 0.960 . S
H677 C663 0.961 . S
H678 C663 0.961 . S
H679 C663 0.961 . S
H680 C664 0.931 . S
H681 C669 0.930 . S
H682 C670 0.956 . S
H683 C670 0.961 . S
H684 C670 0.961 . S
H685 C671 0.959 . S
H686 C671 0.961 . S
H687 C671 0.960 . S
C688 C689 1.391 . S
C688 C690 1.394 . S
C688 H704 0.931 . S
C689 C688 1.391 . S
C689 C693 1.376 . S
C690 C688 1.394 . S
C690 C691 1.369 . S
C690 C694 1.531 . S
C691 C690 1.369 . S
C691 C692 1.410 . S
C691 C699 1.503 . S
C692 C691 1.410 . S
C692 C693 1.392 . S
C692 C695 1.511 . S
C693 C689 1.376 . S
C693 C692 1.392 . S
C693 H705 0.929 . S
C694 C690 1.531 . S
C694 H706 0.960 . S
C694 H707 0.962 . S
C694 H708 0.960 . S
C695 C692 1.511 . S
C695 H709 0.961 . S
C695 H710 0.961 . S
C695 H711 0.961 . S
C696 C697 1.370 . S
C696 C698 1.363 . S
C696 H712 0.931 . S
C697 C696 1.370 . S
C697 C701 1.408 . S
C698 C696 1.363 . S
C698 C699 1.370 . S
C698 C702 1.524 . S
C699 C691 1.503 . S
C699 C698 1.370 . S
C699 C700 1.403 . S
C700 C699 1.403 . S
C700 C701 1.404 . S
C700 C703 1.539 . S
C701 C697 1.408 . S
C701 C700 1.404 . S
C701 H713 0.930 . S
C702 C698 1.524 . S
C702 H714 0.956 . S
C702 H715 0.961 . S
C702 H716 0.961 . S
C703 C700 1.539 . S
C703 H717 0.958 . S
C703 H718 0.961 . S
C703 H719 0.960 . S
H704 C688 0.931 . S
H705 C693 0.929 . S
H706 C694 0.960 . S
H707 C694 0.962 . S
H708 C694 0.960 . S
H709 C695 0.961 . S
H710 C695 0.961 . S
H711 C695 0.961 . S
H712 C696 0.931 . S
H713 C701 0.930 . S
H714 C702 0.956 . S
H715 C702 0.961 . S
H716 C702 0.961 . S
H717 C703 0.958 . S
H718 C703 0.961 . S
H719 C703 0.960 . S
C720 C721 1.391 . S
C720 C722 1.394 . S
C720 H736 0.931 . S
C721 C720 1.391 . S
C721 C725 1.376 . S
C722 C720 1.394 . S
C722 C723 1.369 . S
C722 C726 1.531 1_545 S
C723 C722 1.369 . S
C723 C724 1.410 . S
C723 C731 1.503 . S
C724 C723 1.410 . S
C724 C725 1.392 . S
C724 C727 1.511 . S
C725 C721 1.376 . S
C725 C724 1.392 . S
C725 H737 0.929 . S
C726 C722 1.531 1_565 S
C726 H738 0.960 . S
C726 H739 0.962 . S
C726 H740 0.960 . S
C727 C724 1.511 . S
C727 H741 0.961 . S
C727 H742 0.961 . S
C727 H743 0.961 . S
C728 C729 1.370 1_545 S
C728 C730 1.363 . S
C728 H744 0.931 . S
C729 C728 1.370 1_565 S
C729 C733 1.408 . S
C730 C728 1.363 . S
C730 C731 1.370 . S
C730 C734 1.524 . S
C731 C723 1.503 . S
C731 C730 1.370 . S
C731 C732 1.403 1_545 S
C732 C731 1.403 1_565 S
C732 C733 1.404 . S
C732 C735 1.539 . S
C733 C729 1.408 . S
C733 C732 1.404 . S
C733 H745 0.930 . S
C734 C730 1.524 . S
C734 H746 0.956 . S
C734 H747 0.961 . S
C734 H748 0.961 . S
C735 C732 1.539 . S
C735 H749 0.958 . S
C735 H750 0.961 . S
C735 H751 0.960 1_565 S
H736 C720 0.931 . S
H737 C725 0.929 . S
H738 C726 0.960 . S
H739 C726 0.962 . S
H740 C726 0.960 . S
H741 C727 0.961 . S
H742 C727 0.961 . S
H743 C727 0.961 . S
H744 C728 0.931 . S
H745 C733 0.930 . S
H746 C734 0.956 . S
H747 C734 0.961 . S
H748 C734 0.961 . S
H749 C735 0.958 . S
H750 C735 0.961 . S
H751 C735 0.960 1_545 S
C752 C753 1.391 . S
C752 C754 1.394 . S
C752 H768 0.931 . S
C753 C752 1.391 . S
C753 C757 1.376 . S
C754 C752 1.394 . S
C754 C755 1.369 . S
C754 C758 1.531 . S
C755 C754 1.369 . S
C755 C756 1.410 . S
C755 C763 1.503 . S
C756 C755 1.410 . S
C756 C757 1.392 . S
C756 C759 1.511 . S
C757 C753 1.376 . S
C757 C756 1.392 . S
C757 H769 0.929 . S
C758 C754 1.531 . S
C758 H770 0.960 . S
C758 H771 0.962 . S
C758 H772 0.960 . S
C759 C756 1.511 . S
C759 H773 0.961 . S
C759 H774 0.961 . S
C759 H775 0.961 . S
C760 C761 1.370 . S
C760 C762 1.363 . S
C760 H776 0.931 . S
C761 C760 1.370 . S
C761 C765 1.408 . S
C762 C760 1.363 . S
C762 C763 1.370 . S
C762 C766 1.524 . S
C763 C755 1.503 . S
C763 C762 1.370 . S
C763 C764 1.403 . S
C764 C763 1.403 . S
C764 C765 1.404 . S
C764 C767 1.539 . S
C765 C761 1.408 . S
C765 C764 1.404 . S
C765 H777 0.930 . S
C766 C762 1.524 . S
C766 H778 0.956 . S
C766 H779 0.961 . S
C766 H780 0.961 . S
C767 C764 1.539 . S
C767 H781 0.958 . S
C767 H782 0.961 . S
C767 H783 0.960 . S
H768 C752 0.931 . S
H769 C757 0.929 . S
H770 C758 0.960 . S
H771 C758 0.962 . S
H772 C758 0.960 . S
H773 C759 0.961 . S
H774 C759 0.961 . S
H775 C759 0.961 . S
H776 C760 0.931 . S
H777 C765 0.930 . S
H778 C766 0.956 . S
H779 C766 0.961 . S
H780 C766 0.961 . S
H781 C767 0.958 . S
H782 C767 0.961 . S
H783 C767 0.960 . S
C784 C785 1.391 . S
C784 C786 1.394 1_455 S
C784 H800 0.931 . S
C785 C784 1.391 . S
C785 C789 1.376 1_455 S
C786 C784 1.394 1_655 S
C786 C787 1.369 . S
C786 C790 1.531 . S
C787 C786 1.369 . S
C787 C788 1.410 . S
C787 C795 1.503 . S
C788 C787 1.410 . S
C788 C789 1.392 . S
C788 C791 1.511 . S
C789 C785 1.376 1_655 S
C789 C788 1.392 . S
C789 H801 0.929 . S
C790 C786 1.531 . S
C790 H802 0.960 . S
C790 H803 0.962 1_655 S
C790 H804 0.960 1_655 S
C791 C788 1.511 . S
C791 H805 0.961 . S
C791 H806 0.961 . S
C791 H807 0.961 . S
C792 C793 1.370 . S
C792 C794 1.363 . S
C792 H808 0.931 . S
C793 C792 1.370 . S
C793 C797 1.408 . S
C794 C792 1.363 . S
C794 C795 1.370 . S
C794 C798 1.524 1_655 S
C795 C787 1.503 . S
C795 C794 1.370 . S
C795 C796 1.403 . S
C796 C795 1.403 . S
C796 C797 1.404 . S
C796 C799 1.539 . S
C797 C793 1.408 . S
C797 C796 1.404 . S
C797 H809 0.930 . S
C798 C794 1.524 1_455 S
C798 H810 0.956 . S
C798 H811 0.961 . S
C798 H812 0.961 . S
C799 C796 1.539 . S
C799 H813 0.958 . S
C799 H814 0.961 . S
C799 H815 0.960 . S
H800 C784 0.931 . S
H801 C789 0.929 . S
H802 C790 0.960 . S
H803 C790 0.962 1_455 S
H804 C790 0.960 1_455 S
H805 C791 0.961 . S
H806 C791 0.961 . S
H807 C791 0.961 . S
H808 C792 0.931 . S
H809 C797 0.930 . S
H810 C798 0.956 . S
H811 C798 0.961 . S
H812 C798 0.961 . S
H813 C799 0.958 . S
H814 C799 0.961 . S
H815 C799 0.960 . S
C241 C162 2.354 . S
C249 C2 2.412 . S
C273 C223 2.395 . S
C281 C63 2.364 . S
C305 C82 2.387 . S
C313 C122 2.369 . S
C337 C23 2.320 . S
C345 C183 2.427 . S
C369 C202 2.337 . S
C377 C42 2.424 . S
C401 C103 2.320 . S
C409 C143 2.427 . S
C433 C25 1.797 . S
C441 C111 1.823 . S
C465 C65 1.817 . S
C473 C31 1.807 . S
C497 C105 1.805 . S
C505 C71 1.821 . S
C529 C124 1.784 . S
C537 C180 1.822 . S
C561 C164 1.831 . S
C569 C220 1.805 . S
C593 C140 1.787 . S
C601 C204 1.820 . S
C625 C4 1.046 . S
C633 C100 1.024 . S
C657 C44 1.054 1_455 S
C665 C20 1.022 . S
C689 C84 1.024 1_565 S
C697 C60 1.032 . S
C721 C145 1.055 . S
C729 C191 1.025 . S
C753 C185 1.024 1_655 S
C761 C231 1.038 . S
C785 C151 1.074 . S
C793 C225 1.024 1_545 S
