# Generated by pormake.
# Topology ukg, (4)-cn, num edge types: 1
# Building blocks:
#     Node 0, Type 0, BuildingBlock: NAWXER_clean_sbu_0, # of connection points: 4
#     Node 1, Type 0, BuildingBlock: NAWXER_clean_sbu_0, # of connection points: 4
#     Node 2, Type 0, BuildingBlock: NAWXER_clean_sbu_0, # of connection points: 4
#     Node 3, Type 0, BuildingBlock: NAWXER_clean_sbu_0, # of connection points: 4
#     Node 4, Type 0, BuildingBlock: NAWXER_clean_sbu_0, # of connection points: 4
#     Node 5, Type 0, BuildingBlock: NAWXER_clean_sbu_0, # of connection points: 4
#     Node 6, Type 0, BuildingBlock: NAWXER_clean_sbu_0, # of connection points: 4
#     Node 7, Type 0, BuildingBlock: NAWXER_clean_sbu_0, # of connection points: 4
#     Edge 8, Type (0, 0), BuildingBlock: MIFKUJ_clean_linker_0, # of connection points: 2
#     Edge 9, Type (0, 0), BuildingBlock: MIFKUJ_clean_linker_0, # of connection points: 2
#     Edge 10, Type (0, 0), BuildingBlock: MIFKUJ_clean_linker_0, # of connection points: 2
#     Edge 11, Type (0, 0), BuildingBlock: MIFKUJ_clean_linker_0, # of connection points: 2
#     Edge 12, Type (0, 0), BuildingBlock: MIFKUJ_clean_linker_0, # of connection points: 2
#     Edge 13, Type (0, 0), BuildingBlock: MIFKUJ_clean_linker_0, # of connection points: 2
#     Edge 14, Type (0, 0), BuildingBlock: MIFKUJ_clean_linker_0, # of connection points: 2
#     Edge 15, Type (0, 0), BuildingBlock: MIFKUJ_clean_linker_0, # of connection points: 2
#     Edge 16, Type (0, 0), BuildingBlock: MIFKUJ_clean_linker_0, # of connection points: 2
#     Edge 17, Type (0, 0), BuildingBlock: MIFKUJ_clean_linker_0, # of connection points: 2
#     Edge 18, Type (0, 0), BuildingBlock: MIFKUJ_clean_linker_0, # of connection points: 2
#     Edge 19, Type (0, 0), BuildingBlock: MIFKUJ_clean_linker_0, # of connection points: 2
#     Edge 20, Type (0, 0), BuildingBlock: MIFKUJ_clean_linker_0, # of connection points: 2
#     Edge 21, Type (0, 0), BuildingBlock: MIFKUJ_clean_linker_0, # of connection points: 2
#     Edge 22, Type (0, 0), BuildingBlock: MIFKUJ_clean_linker_0, # of connection points: 2
#     Edge 23, Type (0, 0), BuildingBlock: MIFKUJ_clean_linker_0, # of connection points: 2
# Relax obj value: 0.100
# Max RMSD: 0.242
# Mean RMSD: 0.242
data_MOF--net-ukg--node1-NAWXER_clean_sbu_0--edge1-MIFKUJ_clean_linker_0
_symmetry_space_group_name_H-M    P1
_symmetry_Int_Tables_number       1
_symmetry_cell_setting            triclinic
loop_
_symmetry_equiv_pos_as_xyz
'x, y, z'
_cell_length_a     40.255415
_cell_length_b     40.257622
_cell_length_c     50.166413
_cell_angle_alpha  90.007226
_cell_angle_beta   90.002448
_cell_angle_gamma 90.058622
loop_
_atom_site_label
_atom_site_type_symbol
_atom_site_fract_x
_atom_site_fract_y
_atom_site_fract_z
_atom_type_partial_charge
C0 C 0.09441 0.67382 0.1502 0.0
C1 C 0.99104 0.62608 0.18256 0.0
O2 O 0.08952 0.65289 0.16869 0.0
Zn3 Zn 0.04238 0.64895 0.16506 0.0
O4 O 0.06966 0.68377 0.13615 0.0
Zn5 Zn 0.01654 0.67414 0.13531 0.0
O6 O 0.99782 0.71733 0.14066 0.0
O7 O 0.02492 0.69825 0.17571 0.0
O8 O 0.9861 0.64424 0.16189 0.0
O9 O 0.02038 0.62213 0.19124 0.0
O10 O 0.03545 0.62099 0.12844 0.0
O11 O 0.00887 0.65459 0.10115 0.0
C12 C 0.00794 0.72127 0.16441 0.0
C13 C 0.02203 0.62654 0.10563 0.0
C14 C 0.33153 0.59321 0.64761 0.0
C15 C 0.38149 0.49073 0.67916 0.0
O16 O 0.35396 0.58878 0.66499 0.0
Zn17 Zn 0.35791 0.54157 0.66178 0.0
O18 O 0.32053 0.56815 0.63444 0.0
Zn19 Zn 0.33013 0.51521 0.63376 0.0
O20 O 0.28729 0.49702 0.64129 0.0
O21 O 0.30971 0.52339 0.67544 0.0
O22 O 0.36093 0.4853 0.66006 0.0
O23 O 0.38762 0.52038 0.68626 0.0
O24 O 0.38288 0.53391 0.62417 0.0
O25 O 0.34766 0.50647 0.59885 0.0
C26 C 0.28564 0.50653 0.66539 0.0
C27 C 0.37592 0.51986 0.60189 0.0
C28 C 0.50067 0.7853 0.16386 0.0
C29 C 0.48736 0.87391 0.09896 0.0
O30 O 0.50918 0.78595 0.1395 0.0
Zn31 Zn 0.49236 0.82927 0.13168 0.0
O32 O 0.48508 0.81018 0.17391 0.0
Zn33 Zn 0.46703 0.85804 0.15959 0.0
O34 O 0.41982 0.85452 0.16379 0.0
O35 O 0.43923 0.82081 0.13296 0.0
O36 O 0.47363 0.8816 0.12122 0.0
O37 O 0.50086 0.84565 0.09642 0.0
O38 O 0.52339 0.86061 0.15693 0.0
O39 O 0.48911 0.88844 0.18296 0.0
C40 C 0.41465 0.83217 0.14647 0.0
C41 C 0.51855 0.88195 0.17558 0.0
C42 C 0.12765 0.98399 0.60317 0.0
C43 C 0.21676 0.99969 0.66748 0.0
O44 O 0.15596 0.99729 0.6 0.0
Zn45 Zn 0.17298 0.98952 0.63521 0.0
O46 O 0.12049 0.9706 0.62569 0.0
Zn47 Zn 0.14499 0.96416 0.66374 0.0
O48 O 0.11466 0.98574 0.68731 0.0
O49 O 0.14098 0.02016 0.6603 0.0
O50 O 0.19216 0.9839 0.67775 0.0
O51 O 0.21621 0.00721 0.64291 0.0
O52 O 0.18198 0.93671 0.63646 0.0
O53 O 0.14957 0.917 0.66805 0.0
C54 C 0.12017 0.01517 0.67933 0.0
C55 C 0.17136 0.91205 0.65025 0.0
C56 C 0.01726 0.38302 0.82713 0.0
C57 C 0.91385 0.33253 0.85673 0.0
O58 O 0.02234 0.36152 0.84562 0.0
Zn59 Zn 0.99172 0.32989 0.87095 0.0
O60 O 0.98773 0.38964 0.82002 0.0
Zn61 Zn 0.96602 0.35894 0.84345 0.0
O62 O 0.97354 0.38235 0.88166 0.0
O63 O 1.00021 0.34598 0.90639 0.0
O64 O 0.91869 0.35566 0.84001 0.0
O65 O 0.93869 0.32065 0.86963 0.0
O66 O 0.00942 0.2872 0.86266 0.0
O67 O 0.98414 0.31117 0.82868 0.0
C68 C 0.98719 0.37447 0.90388 0.0
C69 C 1.0005 0.28655 0.83838 0.0
C70 C 0.71644 0.49947 0.33505 0.0
C71 C 0.62642 0.48515 0.39862 0.0
O72 O 0.69274 0.48199 0.3251 0.0
Zn73 Zn 0.64519 0.46256 0.33901 0.0
O74 O 0.71455 0.50919 0.35908 0.0
Zn75 Zn 0.67209 0.49019 0.3668 0.0
O76 O 0.68345 0.43775 0.36671 0.0
O77 O 0.65008 0.41511 0.33703 0.0
O78 O 0.65456 0.4988 0.40169 0.0
O79 O 0.61969 0.4708 0.37641 0.0
O80 O 0.61554 0.48234 0.3138 0.0
O81 O 0.63962 0.51865 0.34057 0.0
C82 C 0.67289 0.41197 0.35427 0.0
C83 C 0.61976 0.51223 0.32118 0.0
C84 C 0.52061 0.12737 0.89878 0.0
C85 C 0.50501 0.22063 0.8387 0.0
O86 O 0.53468 0.1219 0.87623 0.0
Zn87 Zn 0.54154 0.1492 0.83947 0.0
O88 O 0.50676 0.15517 0.90289 0.0
Zn89 Zn 0.51483 0.17461 0.86867 0.0
O90 O 0.48537 0.14387 0.84202 0.0
O91 O 0.52044 0.12094 0.81371 0.0
O92 O 0.49532 0.21726 0.86263 0.0
O93 O 0.52253 0.19767 0.82782 0.0
O94 O 0.5887 0.15416 0.83634 0.0
O95 O 0.56764 0.18555 0.86806 0.0
C96 C 0.49085 0.125 0.82185 0.0
C97 C 0.59283 0.17573 0.85447 0.0
C98 C 0.87797 0.02026 0.39955 0.0
C99 C 0.78893 0.00576 0.33513 0.0
O100 O 0.88493 0.03469 0.37745 0.0
Zn101 Zn 0.86016 0.04289 0.33989 0.0
O102 O 0.84982 0.00655 0.40234 0.0
Zn103 Zn 0.83261 0.01522 0.36725 0.0
O104 O 0.86484 0.98672 0.34114 0.0
O105 O 0.8906 0.02279 0.31525 0.0
O106 O 0.79076 0.99555 0.35903 0.0
O107 O 0.81244 0.02383 0.32552 0.0
O108 O 0.8556 0.0903 0.33791 0.0
O109 O 0.821 0.06773 0.36676 0.0
C110 C 0.88542 0.99289 0.32221 0.0
C111 C 0.83212 0.09348 0.35456 0.0
H112 H 0.96417 0.43839 0.90427 0.0
H113 H 0.97082 0.47987 0.93942 0.0
H114 H 0.02191 0.408 0.9882 0.0
H115 H 0.01504 0.36618 0.95326 0.0
H116 H 0.97843 0.44468 0.01739 0.0
H117 H 0.06547 0.46565 0.95431 0.0
H118 H 0.08911 0.47614 0.90974 0.0
H119 H 0.03172 0.56561 0.9032 0.0
H120 H 0.00735 0.5554 0.94759 0.0
H121 H 0.04514 0.56257 0.10896 0.0
H122 H 0.04035 0.51869 0.07538 0.0
H123 H 0.99052 0.58678 0.02242 0.0
H124 H 0.9956 0.63079 0.05561 0.0
H125 H 0.03543 0.55071 0.99594 0.0
H126 H 0.94718 0.5291 0.05827 0.0
H127 H 0.923 0.5186 0.10265 0.0
H128 H 0.98224 0.4305 0.11052 0.0
H129 H 0.00715 0.44075 0.06632 0.0
C130 C 0.97662 0.43129 0.92253 0.0
C131 C 0.98925 0.39899 0.92587 0.0
C132 C 0.98053 0.45509 0.94257 0.0
C133 C 0.99731 0.44717 0.96627 0.0
C134 C 0.00899 0.41468 0.97003 0.0
C135 C 0.0051 0.39083 0.95 0.0
C136 C 0.00324 0.47299 0.98688 0.0
C137 C 0.9913 0.46767 0.01281 0.0
C138 C 0.01955 0.50323 0.98078 0.0
C139 C 0.03436 0.50959 0.95417 0.0
C140 C 0.05771 0.48743 0.94329 0.0
C141 C 0.07126 0.49335 0.91807 0.0
C142 C 0.06186 0.52148 0.90362 0.0
C143 C 0.03895 0.54381 0.9144 0.0
C144 C 0.02528 0.53798 0.9396 0.0
C145 C 0.03332 0.56825 0.09011 0.0
C146 C 0.02065 0.60018 0.08503 0.0
C147 C 0.03045 0.5431 0.07099 0.0
C148 C 0.0147 0.54934 0.0465 0.0
C149 C 0.00272 0.58137 0.04118 0.0
C150 C 0.00559 0.6065 0.06023 0.0
C151 C 0.01036 0.52256 0.02643 0.0
C152 C 0.02265 0.52768 1.00057 0.0
C153 C 0.99434 0.49218 0.0326 0.0
C154 C 0.97929 0.48589 0.05912 0.0
C155 C 0.95525 0.50763 0.06956 0.0
C156 C 0.94138 0.5017 0.09466 0.0
C157 C 0.95115 0.47395 0.10943 0.0
C158 C 0.97474 0.45202 0.09908 0.0
C159 C 0.98873 0.45786 0.074 0.0
H160 H 0.94038 0.4694 0.12886 0.0
H161 H 0.07238 0.52602 0.8841 0.0
H162 H 0.44005 0.54263 0.60287 0.0
H163 H 0.48228 0.53686 0.56819 0.0
H164 H 0.41126 0.48717 0.51758 0.0
H165 H 0.36901 0.49236 0.5523 0.0
H166 H 0.46912 0.45467 0.51794 0.0
H167 H 0.43468 0.56777 0.50588 0.0
H168 H 0.42279 0.62531 0.51977 0.0
H169 H 0.52452 0.63819 0.54337 0.0
H170 H 0.53693 0.58055 0.52996 0.0
H171 H 0.56233 0.46224 0.39751 0.0
H172 H 0.51995 0.46802 0.43209 0.0
H173 H 0.59068 0.51803 0.48277 0.0
H174 H 0.63305 0.51283 0.44815 0.0
H175 H 0.53288 0.55037 0.48232 0.0
H176 H 0.56736 0.43734 0.49451 0.0
H177 H 0.57934 0.37979 0.48073 0.0
H178 H 0.47767 0.36674 0.457 0.0
H179 H 0.46518 0.4244 0.47031 0.0
C180 C 0.43332 0.53067 0.5843 0.0
C181 C 0.4011 0.51801 0.58037 0.0
C182 C 0.45749 0.52747 0.56445 0.0
C183 C 0.44988 0.51181 0.54017 0.0
C184 C 0.41771 0.49932 0.53615 0.0
C185 C 0.39355 0.50244 0.556 0.0
C186 C 0.47566 0.50776 0.51921 0.0
C187 C 0.48274 0.47566 0.50987 0.0
C188 C 0.49402 0.53503 0.50915 0.0
C189 C 0.48665 0.56974 0.51715 0.0
C190 C 0.45446 0.58279 0.51423 0.0
C191 C 0.44764 0.61543 0.52198 0.0
C192 C 0.47286 0.63536 0.53251 0.0
C193 C 0.50499 0.62271 0.53524 0.0
C194 C 0.51194 0.59006 0.52755 0.0
C195 C 0.56896 0.47427 0.41608 0.0
C196 C 0.60113 0.48702 0.42006 0.0
C197 C 0.54471 0.47748 0.43587 0.0
C198 C 0.55219 0.49322 0.46014 0.0
C199 C 0.58432 0.50581 0.46421 0.0
C200 C 0.60856 0.5027 0.44442 0.0
C201 C 0.52635 0.49728 0.48105 0.0
C202 C 0.51926 0.52939 0.49038 0.0
C203 C 0.50799 0.47001 0.49111 0.0
C204 C 0.51542 0.4353 0.48316 0.0
C205 C 0.54762 0.42229 0.48616 0.0
C206 C 0.55449 0.38963 0.47847 0.0
C207 C 0.52931 0.36965 0.46793 0.0
C208 C 0.49717 0.38226 0.46513 0.0
C209 C 0.49017 0.41492 0.47277 0.0
H210 H 0.53468 0.34437 0.46199 0.0
H211 H 0.46753 0.66063 0.5385 0.0
H212 H 0.52369 0.86986 0.05304 0.0
H213 H 0.52907 0.91177 0.01804 0.0
H214 H 0.46018 0.97512 0.05977 0.0
H215 H 0.45474 0.93339 0.09504 0.0
H216 H 0.44876 0.97167 0.00415 0.0
H217 H 0.539 0.99138 0.06526 0.0
H218 H 0.58804 0.97572 0.09188 0.0
H219 H 0.64005 0.94818 0.0205 0.0
H220 H 0.5911 0.96323 0.99348 0.0
H221 H 0.48308 0.12672 0.94411 0.0
H222 H 0.47761 0.08186 0.97658 0.0
H223 H 0.54847 0.02328 0.93254 0.0
H224 H 0.55398 0.06806 0.89971 0.0
H225 H 0.55931 0.02251 0.9878 0.0
H226 H 0.47127 0.00412 0.92628 0.0
H227 H 0.42282 0.0189 0.89873 0.0
H228 H 0.36699 0.04212 0.96923 0.0
H229 H 0.4154 0.02812 0.99723 0.0
C230 C 0.50946 0.89259 0.05472 0.0
C231 C 0.48889 0.89835 0.07691 0.0
C232 C 0.51266 0.91654 0.03472 0.0
C233 C 0.49524 0.94663 0.03645 0.0
C234 C 0.47386 0.95206 0.0581 0.0
C235 C 0.47088 0.92823 0.07827 0.0
C236 C 0.50013 0.97284 0.01606 0.0
C237 C 0.47281 0.9831 1.00077 0.0
C238 C 0.53175 0.98701 0.01118 0.0
C239 C 0.56126 0.97808 0.02738 0.0
C240 C 0.56079 0.98171 0.05526 0.0
C241 C 0.58859 0.97299 0.07042 0.0
C242 C 0.61711 0.96087 0.0579 0.0
C243 C 0.61792 0.95752 0.03018 0.0
C244 C 0.59016 0.96616 0.01493 0.0
C245 C 0.49769 0.10441 0.94136 0.0
C246 C 0.51892 0.10093 0.91926 0.0
C247 C 0.4944 0.07873 0.95989 0.0
C248 C 0.51239 0.04915 0.9568 0.0
C249 C 0.53432 0.04591 0.93521 0.0
C250 C 0.53738 0.07148 0.91647 0.0
C251 C 0.50788 0.02157 0.97604 0.0
C252 C 0.53526 0.01104 0.9911 0.0
C253 C 0.47636 0.00699 0.98057 0.0
C254 C 0.44711 0.0154 0.96385 0.0
C255 C 0.44878 0.01269 0.93592 0.0
C256 C 0.42129 0.02086 0.92021 0.0
C257 C 0.39185 0.03148 0.93221 0.0
C258 C 0.38983 0.03392 0.95996 0.0
C259 C 0.41729 0.02587 0.97576 0.0
H260 H 0.37058 0.03775 0.92001 0.0
H261 H 0.63861 0.95415 0.06967 0.0
H262 H 0.87126 0.99167 0.44878 0.0
H263 H 0.91368 0.98567 0.48326 0.0
H264 H 0.98402 0.03794 0.43375 0.0
H265 H 0.94182 0.04374 0.39898 0.0
H266 H 0.01105 0.98251 0.45471 0.0
H267 H 0.94905 0.07561 0.48747 0.0
H268 H 0.89878 0.10606 0.50124 0.0
H269 H 0.88017 0.03369 0.56232 0.0
H270 H 0.9301 0.00253 0.54868 0.0
H271 H 0.13434 0.01143 0.55354 0.0
H272 H 0.09188 0.01678 0.51904 0.0
H273 H 0.02163 0.96538 0.56922 0.0
H274 H 0.06386 0.9603 0.60404 0.0
H275 H 0.99443 0.02011 0.54794 0.0
H276 H 0.0565 0.92709 0.51533 0.0
H277 H 0.1067 0.89653 0.50155 0.0
H278 H 0.12512 0.96856 0.44017 0.0
H279 H 0.07526 0.99982 0.45383 0.0
C280 C 0.89567 1.00211 0.44526 0.0
C281 C 0.9031 0.01825 0.42111 0.0
C282 C 0.91989 0.99873 0.46505 0.0
C283 C 0.95197 0.01157 0.46118 0.0
C284 C 0.95943 0.02784 0.43716 0.0
C285 C 0.93522 0.03126 0.41736 0.0
C286 C 0.97797 0.00733 0.48193 0.0
C287 C 0.00762 0.99115 0.47501 0.0
C288 C 0.97314 0.01783 0.50858 0.0
C289 C 0.94314 0.03656 0.51687 0.0
C290 C 0.93409 0.06604 0.5037 0.0
C291 C 0.90569 0.08346 0.51151 0.0
C292 C 0.88625 0.07177 0.5326 0.0
C293 C 0.89523 0.04269 0.54597 0.0
C294 C 0.92359 0.02516 0.53822 0.0
C295 C 0.10994 1.00102 0.5572 0.0
C296 C 0.10254 0.98539 0.58157 0.0
C297 C 0.0857 0.00402 0.53739 0.0
C298 C 0.05362 0.99125 0.54144 0.0
C299 C 0.04621 0.97542 0.56566 0.0
C300 C 0.07044 0.97242 0.5855 0.0
C301 C 0.02754 0.99529 0.52072 0.0
C302 C 0.99787 0.01144 0.52765 0.0
C303 C 0.03234 0.98475 0.49408 0.0
C304 C 0.06232 0.96597 0.48578 0.0
C305 C 0.07141 0.93656 0.49904 0.0
C306 C 0.09977 0.91909 0.49122 0.0
C307 C 0.11914 0.93064 0.47004 0.0
C308 C 0.11012 0.95966 0.45659 0.0
C309 C 0.0818 0.97725 0.46435 0.0
H310 H 0.14108 0.91707 0.46401 0.0
H311 H 0.86427 0.0853 0.53861 0.0
H312 H 0.14999 0.66332 0.18025 0.0
H313 H 0.204 0.69022 0.17598 0.0
H314 H 0.16955 0.74288 0.10638 0.0
H315 H 0.11495 0.71666 0.11097 0.0
H316 H 0.25136 0.69143 0.14086 0.0
H317 H 0.20472 0.81988 0.10484 0.0
H318 H 0.15452 0.85481 0.10798 0.0
H319 H 0.12765 0.80695 0.18138 0.0
H320 H 0.17791 0.77211 0.17887 0.0
H321 H 0.39358 0.78719 0.10904 0.0
H322 H 0.33889 0.76094 0.10574 0.0
H323 H 0.30516 0.81784 0.1734 0.0
H324 H 0.35934 0.84478 0.17637 0.0
H325 H 0.25746 0.8145 0.13846 0.0
H326 H 0.33086 0.73622 0.17959 0.0
H327 H 0.38116 0.70163 0.18346 0.0
H328 H 0.35442 0.64946 0.11192 0.0
H329 H 0.30416 0.68409 0.10744 0.0
C330 C 0.15389 0.68046 0.1639 0.0
C331 C 0.12802 0.68803 0.14607 0.0
C332 C 0.18489 0.69577 0.16144 0.0
C333 C 0.19079 0.71892 0.14107 0.0
C334 C 0.16543 0.72556 0.12256 0.0
C335 C 0.13426 0.71044 0.12514 0.0
C336 C 0.22311 0.73685 0.13992 0.0
C337 C 0.25265 0.71834 0.14015 0.0
C338 C 0.22494 0.772 0.13959 0.0
C339 C 0.19486 0.79312 0.14146 0.0
C340 C 0.18814 0.8169 0.12168 0.0
C341 C 0.15968 0.83667 0.12335 0.0
C342 C 0.13784 0.83301 0.14481 0.0
C343 C 0.14451 0.80967 0.16471 0.0
C344 C 0.17296 0.78989 0.16316 0.0
C345 C 0.37442 0.79434 0.12307 0.0
C346 C 0.38092 0.81795 0.14307 0.0
C347 C 0.3432 0.7792 0.12122 0.0
C348 C 0.31802 0.78702 0.13958 0.0
C349 C 0.32414 0.81137 0.15901 0.0
C350 C 0.35522 0.8267 0.16072 0.0
C351 C 0.28569 0.76907 0.13928 0.0
C352 C 0.25615 0.78759 0.1388 0.0
C353 C 0.28386 0.73395 0.14032 0.0
C354 C 0.31395 0.71298 0.14303 0.0
C355 C 0.33584 0.71753 0.16458 0.0
C356 C 0.36432 0.6979 0.1669 0.0
C357 C 0.37103 0.67342 0.14791 0.0
C358 C 0.34922 0.66847 0.1266 0.0
C359 C 0.32072 0.68808 0.12416 0.0
H360 H 0.39309 0.65824 0.14974 0.0
H361 H 0.11581 0.84831 0.14605 0.0
H362 H 0.34588 0.65002 0.67512 0.0
H363 H 0.31842 0.70381 0.67172 0.0
H364 H 0.25694 0.66644 0.60795 0.0
H365 H 0.28383 0.61214 0.61164 0.0
H366 H 0.3122 0.74964 0.635 0.0
H367 H 0.17973 0.70096 0.61303 0.0
H368 H 0.14583 0.65076 0.62083 0.0
H369 H 0.20426 0.62737 0.68993 0.0
H370 H 0.23817 0.67764 0.68276 0.0
H371 H 0.2114 0.89039 0.60966 0.0
H372 H 0.23758 0.83587 0.60507 0.0
H373 H 0.1909 0.80383 0.67813 0.0
H374 H 0.16381 0.85775 0.68232 0.0
H375 H 0.18966 0.75516 0.64461 0.0
H376 H 0.27365 0.83099 0.67524 0.0
H377 H 0.30837 0.88148 0.67373 0.0
H378 H 0.3485 0.85102 0.59829 0.0
H379 H 0.31366 0.80054 0.5992 0.0
C380 C 0.32668 0.65323 0.66022 0.0
C381 C 0.31688 0.62665 0.64379 0.0
C382 C 0.31106 0.6841 0.65825 0.0
C383 C 0.28531 0.6891 0.63982 0.0
C384 C 0.27635 0.66301 0.62264 0.0
C385 C 0.29185 0.63202 0.6247 0.0
C386 C 0.26715 0.72124 0.63943 0.0
C387 C 0.28538 0.75083 0.63692 0.0
C388 C 0.23221 0.72291 0.64246 0.0
C389 C 0.21172 0.69283 0.64714 0.0
C390 C 0.18526 0.68514 0.62992 0.0
C391 C 0.16606 0.65668 0.63424 0.0
C392 C 0.17297 0.63583 0.6558 0.0
C393 C 0.19901 0.64347 0.67317 0.0
C394 C 0.21825 0.67192 0.66898 0.0
C395 C 0.20651 0.87163 0.62463 0.0
C396 C 0.18566 0.87849 0.64644 0.0
C397 C 0.22161 0.84051 0.62205 0.0
C398 C 0.21669 0.81585 0.64149 0.0
C399 C 0.19512 0.82238 0.66286 0.0
C400 C 0.1797 0.85331 0.66527 0.0
C401 C 0.23469 0.78362 0.64018 0.0
C402 C 0.21643 0.754 0.64234 0.0
C403 C 0.26972 0.78196 0.63768 0.0
C404 C 0.2908 0.81219 0.63715 0.0
C405 C 0.28971 0.83518 0.65824 0.0
C406 C 0.30943 0.86377 0.65751 0.0
C407 C 0.33056 0.8695 0.63589 0.0
C408 C 0.33208 0.84658 0.615 0.0
C409 C 0.31237 0.81797 0.61562 0.0
H410 H 0.3458 0.89165 0.63535 0.0
H411 H 0.1581 0.61379 0.65908 0.0
H412 H 0.60947 0.22792 0.88704 0.0
H413 H 0.66346 0.25566 0.89058 0.0
H414 H 0.70543 0.18503 0.83542 0.0
H415 H 0.65159 0.15757 0.83141 0.0
H416 H 0.72507 0.23819 0.9059 0.0
H417 H 0.75853 0.2243 0.79406 0.0
H418 H 0.73004 0.21948 0.75067 0.0
H419 H 0.64532 0.27082 0.78235 0.0
H420 H 0.67349 0.27636 0.82578 0.0
H421 H 0.89603 0.27589 0.88349 0.0
H422 H 0.84079 0.25081 0.88638 0.0
H423 H 0.8 0.33242 0.84129 0.0
H424 H 0.85522 0.35712 0.83771 0.0
H425 H 0.77746 0.27746 0.82209 0.0
H426 H 0.78633 0.32294 0.90973 0.0
H427 H 0.81198 0.3331 0.95362 0.0
H428 H 0.80727 0.22887 0.97139 0.0
H429 H 0.78197 0.21802 0.92744 0.0
C430 C 0.63026 0.21812 0.87583 0.0
C431 C 0.6261 0.19072 0.85873 0.0
C432 C 0.66114 0.23396 0.87794 0.0
C433 C 0.68838 0.22275 0.86295 0.0
C434 C 0.68462 0.19451 0.8468 0.0
C435 C 0.6538 0.17877 0.8446 0.0
C436 C 0.72032 0.24132 0.86322 0.0
C437 C 0.73658 0.24677 0.8876 0.0
C438 C 0.73499 0.25322 0.83941 0.0
C439 C 0.71801 0.25043 0.81324 0.0
C440 C 0.73388 0.23467 0.79172 0.0
C441 C 0.71778 0.2318 0.76713 0.0
C442 C 0.68585 0.24474 0.76378 0.0
C443 C 0.67 0.2607 0.78499 0.0
C444 C 0.68601 0.26368 0.8096 0.0
C445 C 0.87525 0.28866 0.87441 0.0
C446 C 0.88007 0.31849 0.86033 0.0
C447 C 0.84361 0.27434 0.87617 0.0
C448 C 0.81609 0.28981 0.86422 0.0
C449 C 0.82081 0.31993 0.8506 0.0
C450 C 0.85243 0.33408 0.84863 0.0
C451 C 0.78266 0.27394 0.86476 0.0
C452 C 0.76608 0.26893 0.84046 0.0
C453 C 0.7674 0.26321 0.88872 0.0
C454 C 0.78253 0.26964 0.91519 0.0
C455 C 0.79099 0.30216 0.92291 0.0
C456 C 0.80543 0.30804 0.94782 0.0
C457 C 0.81132 0.28164 0.96526 0.0
C458 C 0.80272 0.24929 0.95785 0.0
C459 C 0.7883 0.24327 0.93295 0.0
H460 H 0.8225 0.28624 0.98453 0.0
H461 H 0.67342 0.24246 0.74474 0.0
H462 H 0.73503 0.39912 0.3734 0.0
H463 H 0.76231 0.34487 0.37729 0.0
H464 H 0.67299 0.29656 0.34998 0.0
H465 H 0.6458 0.35075 0.34524 0.0
H466 H 0.7148 0.26949 0.40113 0.0
H467 H 0.7165 0.29781 0.30549 0.0
H468 H 0.72829 0.33717 0.269 0.0
H469 H 0.8299 0.34429 0.29444 0.0
H470 H 0.81854 0.30525 0.33133 0.0
H471 H 0.7682 0.10686 0.36892 0.0
H472 H 0.74165 0.16121 0.37238 0.0
H473 H 0.83526 0.20878 0.35451 0.0
H474 H 0.86126 0.1543 0.34933 0.0
H475 H 0.79233 0.23858 0.32835 0.0
H476 H 0.79609 0.20754 0.41985 0.0
H477 H 0.7879 0.17215 0.45943 0.0
H478 H 0.68237 0.17414 0.44714 0.0
H479 H 0.68994 0.20918 0.40726 0.0
C480 C 0.72107 0.37692 0.36852 0.0
C481 C 0.68832 0.37915 0.35893 0.0
C482 C 0.73668 0.34602 0.37075 0.0
C483 C 0.71957 0.31687 0.36396 0.0
C484 C 0.68648 0.31886 0.3554 0.0
C485 C 0.67108 0.34979 0.3526 0.0
C486 C 0.73695 0.28452 0.36406 0.0
C487 C 0.73152 0.26239 0.38516 0.0
C488 C 0.7596 0.27606 0.34372 0.0
C489 C 0.76659 0.29894 0.32129 0.0
C490 C 0.74128 0.30799 0.30342 0.0
C491 C 0.74789 0.33017 0.28265 0.0
C492 C 0.7798 0.34328 0.27946 0.0
C493 C 0.80519 0.33413 0.29697 0.0
C494 C 0.79869 0.31196 0.31779 0.0
C495 C 0.78314 0.12896 0.36598 0.0
C496 C 0.81679 0.12639 0.3589 0.0
C497 C 0.76799 0.16011 0.36814 0.0
C498 C 0.78647 0.18939 0.36417 0.0
C499 C 0.82033 0.18672 0.35762 0.0
C500 C 0.83524 0.15556 0.35476 0.0
C501 C 0.7702 0.22266 0.36547 0.0
C502 C 0.77581 0.24527 0.34456 0.0
C503 C 0.74831 0.2318 0.38642 0.0
C504 C 0.74362 0.21075 0.41042 0.0
C505 C 0.77115 0.20023 0.42547 0.0
C506 C 0.76662 0.18027 0.44798 0.0
C507 C 0.73464 0.17084 0.45576 0.0
C508 C 0.70712 0.18143 0.44108 0.0
C509 C 0.71152 0.20138 0.41853 0.0
H510 H 0.73118 0.15538 0.47319 0.0
H511 H 0.78484 0.36046 0.26338 0.0
H512 H 0.7217 0.49749 0.28068 0.0
H513 H 0.76798 0.51716 0.25331 0.0
H514 H 0.82262 0.54266 0.32446 0.0
H515 H 0.77604 0.52412 0.35185 0.0
H516 H 0.82651 0.5912 0.29097 0.0
H517 H 0.8413 0.47305 0.28416 0.0
H518 H 0.82532 0.41514 0.27442 0.0
H519 H 0.80594 0.44118 0.19289 0.0
H520 H 0.82135 0.49935 0.20223 0.0
H521 H 0.9885 0.60657 0.23455 0.0
H522 H 0.94065 0.58419 0.25879 0.0
H523 H 0.88173 0.58867 0.18713 0.0
H524 H 0.92931 0.61194 0.16282 0.0
H525 H 0.87908 0.52558 0.21871 0.0
H526 H 0.86524 0.64366 0.22615 0.0
H527 H 0.88076 0.7015 0.23652 0.0
H528 H 0.89939 0.67446 0.31793 0.0
H529 H 0.88452 0.6163 0.30795 0.0
C530 C 0.7437 0.50702 0.29048 0.0
C531 C 0.74521 0.50925 0.31843 0.0
C532 C 0.77022 0.51814 0.27481 0.0
C533 C 0.79901 0.5311 0.28679 0.0
C534 C 0.80069 0.53285 0.31472 0.0
C535 C 0.77405 0.52216 0.33037 0.0
C536 C 0.82687 0.5442 0.27037 0.0
C537 C 0.83827 0.57658 0.27545 0.0
C538 C 0.84168 0.52558 0.24954 0.0
C539 C 0.83217 0.49064 0.24397 0.0
C540 C 0.83334 0.46649 0.26422 0.0
C541 C 0.82444 0.4336 0.25875 0.0
C542 C 0.81456 0.42451 0.23306 0.0
C543 C 0.81356 0.44828 0.21279 0.0
C544 C 0.82239 0.4812 0.21815 0.0
C545 C 0.96541 0.60264 0.22391 0.0
C546 C 0.96261 0.61102 0.1968 0.0
C547 C 0.93812 0.58998 0.2378 0.0
C548 C 0.90774 0.58493 0.22473 0.0
C549 C 0.90503 0.59245 0.19751 0.0
C550 C 0.93215 0.60579 0.18371 0.0
C551 C 0.87876 0.57216 0.23971 0.0
C552 C 0.86721 0.53999 0.2343 0.0
C553 C 0.86394 0.59082 0.26038 0.0
C554 C 0.87409 0.62553 0.26622 0.0
C555 C 0.87311 0.64993 0.24617 0.0
C556 C 0.88165 0.68281 0.252 0.0
C557 C 0.89096 0.69165 0.27788 0.0
C558 C 0.89209 0.66758 0.29791 0.0
C559 C 0.88362 0.63465 0.29217 0.0
H560 H 0.89722 0.71718 0.28242 0.0
H561 H 0.80779 0.39904 0.22881 0.0
H562 H 0.36003 0.42647 0.68051 0.0
H563 H 0.38196 0.38103 0.70754 0.0
H564 H 0.45938 0.44557 0.73704 0.0
H565 H 0.43664 0.49149 0.71091 0.0
H566 H 0.4357 0.34755 0.70979 0.0
H567 H 0.4793 0.42648 0.80046 0.0
H568 H 0.46438 0.47885 0.82301 0.0
H569 H 0.36487 0.47126 0.79283 0.0
H570 H 0.37895 0.4185 0.77057 0.0
H571 H 0.53213 0.24379 0.79232 0.0
H572 H 0.51291 0.29044 0.76521 0.0
H573 H 0.43433 0.30913 0.8218 0.0
H574 H 0.45434 0.26351 0.84951 0.0
H575 H 0.45647 0.36488 0.80628 0.0
H576 H 0.42136 0.26683 0.76114 0.0
H577 H 0.42729 0.2118 0.74008 0.0
H578 H 0.49373 0.25304 0.68183 0.0
H579 H 0.48854 0.30825 0.70279 0.0
C580 C 0.38184 0.43093 0.69266 0.0
C581 C 0.39648 0.4626 0.69376 0.0
C582 C 0.39439 0.4049 0.70808 0.0
C583 C 0.42202 0.40995 0.72469 0.0
C584 C 0.43754 0.44124 0.72491 0.0
C585 C 0.42464 0.46743 0.70986 0.0
C586 C 0.4341 0.38268 0.74217 0.0
C587 C 0.4403 0.35139 0.73087 0.0
C588 C 0.43927 0.38731 0.76987 0.0
C589 C 0.43033 0.41872 0.7836 0.0
C590 C 0.45419 0.43589 0.79875 0.0
C591 C 0.44586 0.46564 0.81149 0.0
C592 C 0.41371 0.4784 0.8093 0.0
C593 C 0.38976 0.46135 0.79448 0.0
C594 C 0.3979 0.43154 0.78179 0.0
C595 C 0.51089 0.25801 0.79905 0.0
C596 C 0.49466 0.2499 0.82298 0.0
C597 C 0.4998 0.28455 0.78346 0.0
C598 C 0.47173 0.30296 0.79115 0.0
C599 C 0.45601 0.29535 0.81539 0.0
C600 C 0.46745 0.2692 0.83121 0.0
C601 C 0.45842 0.32983 0.77384 0.0
C602 C 0.452 0.36107 0.78517 0.0
C603 C 0.45169 0.32474 0.74641 0.0
C604 C 0.45482 0.2916 0.7337 0.0
C605 C 0.43742 0.26411 0.74396 0.0
C606 C 0.44062 0.23289 0.73202 0.0
C607 C 0.46094 0.22891 0.70967 0.0
C608 C 0.47804 0.25615 0.69917 0.0
C609 C 0.47496 0.28742 0.71106 0.0
H610 H 0.46338 0.20472 0.70046 0.0
H611 H 0.40734 0.50147 0.81912 0.0
H612 H 0.58362 0.86261 0.17465 0.0
H613 H 0.62968 0.88576 0.20045 0.0
H614 H 0.56432 0.96072 0.23248 0.0
H615 H 0.51794 0.93692 0.20753 0.0
H616 H 0.66179 0.94133 0.20291 0.0
H617 H 0.58444 0.97868 0.2958 0.0
H618 H 0.53338 0.96119 0.31915 0.0
H619 H 0.54371 0.86274 0.28729 0.0
H620 H 0.59503 0.87951 0.26405 0.0
H621 H 0.76701 0.03454 0.28887 0.0
H622 H 0.72101 0.01615 0.26051 0.0
H623 H 0.70265 0.93412 0.31398 0.0
H624 H 0.74732 0.95334 0.34292 0.0
H625 H 0.64723 0.95677 0.30031 0.0
H626 H 0.74497 0.92684 0.25126 0.0
H627 H 0.79864 0.93562 0.22858 0.0
H628 H 0.75266 0.00448 0.17466 0.0
H629 H 0.6988 0.99641 0.19723 0.0
C630 C 0.57911 0.88415 0.18707 0.0
C631 C 0.54706 0.89772 0.18928 0.0
C632 C 0.60549 0.89742 0.20177 0.0
C633 C 0.60041 0.92466 0.2188 0.0
C634 C 0.56873 0.93921 0.22 0.0
C635 C 0.54225 0.92566 0.20564 0.0
C636 C 0.6279 0.93705 0.23596 0.0
C637 C 0.6586 0.94477 0.22421 0.0
C638 C 0.62405 0.9409 0.26385 0.0
C639 C 0.59336 0.93049 0.27795 0.0
C640 C 0.57585 0.95328 0.29385 0.0
C641 C 0.54687 0.94349 0.30706 0.0
C642 C 0.53524 0.91091 0.30463 0.0
C643 C 0.55266 0.888 0.28907 0.0
C644 C 0.58168 0.89765 0.27586 0.0
C645 C 0.75302 0.01267 0.29458 0.0
C646 C 0.76075 0.9954 0.31812 0.0
C647 C 0.72687 1.00203 0.27827 0.0
C648 C 0.70857 0.97338 0.28482 0.0
C649 C 0.71623 0.95632 0.30846 0.0
C650 C 0.74185 0.96733 0.325 0.0
C651 C 0.68129 0.9611 0.26733 0.0
C652 C 0.6505 0.95349 0.27901 0.0
C653 C 0.68551 0.95618 0.23955 0.0
C654 C 0.71794 0.96127 0.2261 0.0
C655 C 0.74638 0.94406 0.2347 0.0
C656 C 0.77682 0.94887 0.22184 0.0
C657 C 0.77907 0.97065 0.20023 0.0
C658 C 0.75088 0.98765 0.19142 0.0
C659 C 0.7204 0.98296 0.20423 0.0
H660 H 0.8026 0.9743 0.19022 0.0
H661 H 0.51279 0.9034 0.31485 0.0
H662 H 0.98564 0.2767 0.78562 0.0
H663 H 0.00375 0.23088 0.75705 0.0
H664 H 0.05535 0.18673 0.82352 0.0
H665 H 0.03763 0.23243 0.85215 0.0
H666 H 0.09368 0.18728 0.77942 0.0
H667 H 0.98227 0.15518 0.80271 0.0
H668 H 0.92169 0.1627 0.80672 0.0
H669 H 0.91385 0.17421 0.72186 0.0
H670 H 0.97449 0.16722 0.71738 0.0
H671 H 0.07315 0.01325 0.71865 0.0
H672 H 0.0502 0.06004 0.74358 0.0
H673 H 0.10745 0.12815 0.69565 0.0
H674 H 0.13079 0.08148 0.6707 0.0
H675 H 0.0143 0.11539 0.73031 0.0
H676 H 0.13696 0.18886 0.73748 0.0
H677 H 0.19731 0.17842 0.7353 0.0
H678 H 0.1822 0.07906 0.764 0.0
H679 H 0.12186 0.0891 0.76677 0.0
C680 C 1.0007 0.25716 0.7942 0.0
C681 C 0.01013 0.25821 0.8212 0.0
C682 C 0.01099 0.23097 0.77784 0.0
C683 C 0.0308 0.20533 0.78819 0.0
C684 C 0.04016 0.2063 0.81511 0.0
C685 C 0.02985 0.23239 0.83147 0.0
C686 C 0.04208 0.17756 0.771 0.0
C687 C 0.07632 0.17165 0.76862 0.0
C688 C 0.01942 0.15696 0.75711 0.0
C689 C 0.98295 0.16102 0.75974 0.0
C690 C 0.96766 0.15958 0.78492 0.0
C691 C 0.93331 0.1637 0.78728 0.0
C692 C 0.91394 0.16902 0.76456 0.0
C693 C 0.92888 0.17014 0.73944 0.0
C694 C 0.96324 0.16607 0.73698 0.0
C695 C 0.08068 0.03819 0.71323 0.0
C696 C 0.10404 0.04361 0.69283 0.0
C697 C 0.0674 0.06491 0.72743 0.0
C698 C 0.07739 0.0975 0.72164 0.0
C699 C 0.09971 0.10313 0.70062 0.0
C700 C 0.11296 0.07642 0.68635 0.0
C701 C 0.06585 0.12534 0.73861 0.0
C702 C 0.03163 0.13124 0.74094 0.0
C703 C 0.08849 0.14564 0.7528 0.0
C704 C 0.12486 0.13965 0.75205 0.0
C705 C 0.14655 0.16486 0.74347 0.0
C706 C 0.18075 0.159 0.74211 0.0
C707 C 0.19357 0.12806 0.74941 0.0
C708 C 0.17223 0.10298 0.75826 0.0
C709 C 0.13803 0.10874 0.75972 0.0
H710 H 0.22003 0.12353 0.74825 0.0
H711 H 0.88735 0.1722 0.76643 0.0
H712 H 0.018 0.44172 0.79987 0.0
H713 H 0.064 0.46561 0.77445 0.0
H714 H 0.12589 0.3824 0.79625 0.0
H715 H 0.08049 0.3594 0.82282 0.0
H716 H 0.16237 0.43365 0.79605 0.0
H717 H 0.08449 0.38889 0.73378 0.0
H718 H 0.0299 0.38081 0.71241 0.0
H719 H 0.02678 0.4842 0.69153 0.0
H720 H 0.0812 0.49298 0.71309 0.0
H721 H 0.23842 0.45984 0.65432 0.0
H722 H 0.19352 0.44072 0.68314 0.0
H723 H 0.2224 0.51232 0.74288 0.0
H724 H 0.26824 0.53074 0.71446 0.0
H725 H 0.14092 0.46635 0.70228 0.0
H726 H 0.20609 0.48249 0.80495 0.0
H727 H 0.26261 0.48085 0.82396 0.0
H728 H 0.29498 0.41848 0.75958 0.0
H729 H 0.23856 0.41932 0.74042 0.0
C730 C 0.04153 0.42871 0.79941 0.0
C731 C 0.04561 0.3986 0.81318 0.0
C732 C 0.06777 0.44227 0.78475 0.0
C733 C 0.09829 0.42547 0.78287 0.0
C734 C 0.10265 0.39588 0.7973 0.0
C735 C 0.07665 0.38269 0.81246 0.0
C736 C 0.12528 0.43811 0.76527 0.0
C737 C 0.15762 0.44089 0.77557 0.0
C738 C 0.11944 0.44682 0.7383 0.0
C739 C 0.08674 0.44165 0.72529 0.0
C740 C 0.07205 0.40994 0.72479 0.0
C741 C 0.04116 0.40523 0.71262 0.0
C742 C 0.02484 0.43199 0.70069 0.0
C743 C 0.03943 0.46351 0.70083 0.0
C744 C 0.0703 0.46836 0.713 0.0
C745 C 0.23517 0.47163 0.67355 0.0
C746 C 0.25702 0.49668 0.68217 0.0
C747 C 0.20942 0.46069 0.69002 0.0
C748 C 0.20476 0.47473 0.71537 0.0
C749 C 0.22589 0.50056 0.72366 0.0
C750 C 0.25198 0.51121 0.70733 0.0
C751 C 0.17797 0.46202 0.73308 0.0
C752 C 0.14564 0.4593 0.72281 0.0
C753 C 0.18415 0.45204 0.75971 0.0
C754 C 0.21817 0.45131 0.7711 0.0
C755 C 0.22525 0.46837 0.79489 0.0
C756 C 0.25727 0.46757 0.80569 0.0
C757 C 0.28238 0.44964 0.79294 0.0
C758 C 0.27553 0.43244 0.76938 0.0
C759 C 0.24354 0.4331 0.75853 0.0
H760 H 0.3071 0.44898 0.80138 0.0
H761 H 1.00093 0.4283 0.69127 0.0
H762 H 0.59205 0.51012 0.27156 0.0
H763 H 0.56877 0.55642 0.24608 0.0
H764 H 0.58656 0.62236 0.31228 0.0
H765 H 0.61055 0.57628 0.3378 0.0
H766 H 0.52029 0.62754 0.28455 0.0
H767 H 0.63907 0.62756 0.26847 0.0
H768 H 0.69195 0.60094 0.25592 0.0
H769 H 0.6519 0.57652 0.17903 0.0
H770 H 0.59855 0.60251 0.19132 0.0
H771 H 0.50323 0.78235 0.21824 0.0
H772 H 0.52064 0.73548 0.24583 0.0
H773 H 0.53455 0.67593 0.17514 0.0
H774 H 0.51848 0.72317 0.14745 0.0
H775 H 0.58419 0.66663 0.20597 0.0
H776 H 0.46678 0.66553 0.21941 0.0
H777 H 0.41178 0.68857 0.23055 0.0
H778 H 0.44546 0.71094 0.30977 0.0
H779 H 0.50084 0.68842 0.29899 0.0
C780 C 0.59072 0.53439 0.28082 0.0
C781 C 0.60327 0.53961 0.30665 0.0
C782 C 0.57745 0.56078 0.26623 0.0
C783 C 0.57608 0.59272 0.27733 0.0
C784 C 0.58739 0.59782 0.30345 0.0
C785 C 0.6012 0.57154 0.31792 0.0
C786 C 0.5645 0.62108 0.26105 0.0
C787 C 0.53436 0.63647 0.26755 0.0
C788 C 0.58249 0.63188 0.23847 0.0
C789 C 0.61471 0.61667 0.23093 0.0
C790 C 0.64144 0.61626 0.24898 0.0
C791 C 0.67152 0.60133 0.2419 0.0
C792 C 0.67526 0.58697 0.21672 0.0
C793 C 0.64896 0.58761 0.19854 0.0
C794 C 0.6188 0.60245 0.20555 0.0
C795 C 0.50978 0.75918 0.2086 0.0
C796 C 0.50946 0.75643 0.18067 0.0
C797 C 0.5196 0.73232 0.22441 0.0
C798 C 0.52852 0.70192 0.21264 0.0
C799 C 0.52785 0.69909 0.18473 0.0
C800 C 0.51858 0.72609 0.16891 0.0
C801 C 0.53967 0.67343 0.22928 0.0
C802 C 0.56989 0.65789 0.2229 0.0
C803 C 0.52138 0.66216 0.25169 0.0
C804 C 0.48806 0.67557 0.2583 0.0
C805 C 0.46254 0.67558 0.23915 0.0
C806 C 0.43128 0.68851 0.2454 0.0
C807 C 0.42516 0.70129 0.27083 0.0
C808 C 0.45026 0.70107 0.29007 0.0
C809 C 0.48158 0.68819 0.28391 0.0
H810 H 0.40094 0.7113 0.27564 0.0
H811 H 0.69855 0.57541 0.21127 0.0
H812 H 0.42579 0.12164 0.83747 0.0
H813 H 0.37893 0.09831 0.81261 0.0
H814 H 0.44514 0.07018 0.74894 0.0
H815 H 0.49216 0.09329 0.77366 0.0
H816 H 0.38818 0.10491 0.73196 0.0
H817 H 0.41613 0.01217 0.78963 0.0
H818 H 0.42619 0.98622 0.83344 0.0
H819 H 0.32724 0.01126 0.85818 0.0
H820 H 0.31673 0.03777 0.81465 0.0
H821 H 0.28095 0.00995 0.65226 0.0
H822 H 0.3272 0.02894 0.67991 0.0
H823 H 0.26194 0.03399 0.7481 0.0
H824 H 0.21608 0.01313 0.72076 0.0
H825 H 0.31754 0.01225 0.76429 0.0
H826 H 0.28724 0.10506 0.71092 0.0
H827 H 0.2742 0.13611 0.66987 0.0
H828 H 0.37269 0.11811 0.64037 0.0
H829 H 0.38619 0.08657 0.68111 0.0
C830 C 0.43044 0.11029 0.81826 0.0
C831 C 0.46273 0.10932 0.80755 0.0
C832 C 0.40364 0.0969 0.80412 0.0
C833 C 0.40863 0.08242 0.779 0.0
C834 C 0.44081 0.08124 0.76832 0.0
C835 C 0.46766 0.09434 0.78253 0.0
C836 C 0.38017 0.06944 0.76338 0.0
C837 C 0.37297 0.08433 0.7388 0.0
C838 C 0.35955 0.0436 0.77294 0.0
C839 C 0.36574 0.02719 0.79895 0.0
C840 C 0.39659 0.01234 0.80448 0.0
C841 C 0.40236 0.9975 0.82925 0.0
C842 C 0.37739 0.99714 0.84859 0.0
C843 C 0.34656 0.01156 0.84318 0.0
C844 C 0.34067 0.02646 0.81846 0.0
C845 C 0.27656 0.01497 0.67318 0.0
C846 C 0.24495 0.01018 0.68436 0.0
C847 C 0.30295 0.02605 0.68896 0.0
C848 C 0.298 0.03369 0.71603 0.0
C849 C 0.26648 0.02834 0.7273 0.0
C850 C 0.24026 0.01646 0.71166 0.0
C851 C 0.32564 0.0474 0.73247 0.0
C852 C 0.33266 0.0328 0.7573 0.0
C853 C 0.34561 0.07419 0.7235 0.0
C854 C 0.33762 0.09317 0.69896 0.0
C855 C 0.30604 0.10752 0.69559 0.0
C856 C 0.29858 0.12524 0.67239 0.0
C857 C 0.32258 0.129 0.65249 0.0
C858 C 0.35412 0.11513 0.65579 0.0
C859 C 0.3617 0.09736 0.67894 0.0
H860 H 0.31675 0.14273 0.63454 0.0
H861 H 0.38188 0.98562 0.86774 0.0
H862 H 0.04166 0.75019 0.20554 0.0
H863 H 0.02451 0.79825 0.23207 0.0
H864 H 0.93526 0.8067 0.1848 0.0
H865 H 0.95335 0.76003 0.15733 0.0
H866 H 0.95501 0.86476 0.19506 0.0
H867 H 0.94071 0.76661 0.24796 0.0
H868 H 0.95918 0.71494 0.26978 0.0
H869 H 0.02655 0.77051 0.3189 0.0
H870 H 0.00958 0.82239 0.29662 0.0
H871 H 0.8706 0.92679 0.32517 0.0
H872 H 0.89415 0.88166 0.29874 0.0
H873 H 0.96098 0.95088 0.26074 0.0
H874 H 0.93679 0.99636 0.28653 0.0
H875 H 0.95205 0.85383 0.29354 0.0
H876 H 0.97253 0.92875 0.1959 0.0
H877 H 0.94898 0.97764 0.17306 0.0
H878 H 0.85629 0.96311 0.21376 0.0
H879 H 0.87892 0.91369 0.23628 0.0
C880 C 0.01854 0.76256 0.20072 0.0
C881 C 0.99872 0.75134 0.1795 0.0
C882 C 0.00865 0.7899 0.21596 0.0
C883 C 0.97817 0.80572 0.21088 0.0
C884 C 0.95884 0.79498 0.1892 0.0
C885 C 0.96915 0.76824 0.17352 0.0
C886 C 0.96584 0.83284 0.22844 0.0
C887 C 0.95449 0.86234 0.21659 0.0
C888 C 0.96445 0.82956 0.25657 0.0
C889 C 0.97409 0.7984 0.27041 0.0
C890 C 0.95963 0.76781 0.26329 0.0
C891 C 0.96984 0.73847 0.27573 0.0
C892 C 0.9939 0.73946 0.29578 0.0
C893 C 0.00791 0.76978 0.30337 0.0
C894 C 0.9981 0.79915 0.29077 0.0
C895 C 0.89046 0.93241 0.31131 0.0
C896 C 0.90162 0.96523 0.30777 0.0
C897 C 0.90397 0.90653 0.29626 0.0
C898 C 0.92902 0.9129 0.27747 0.0
C899 C 0.9412 0.94544 0.27473 0.0
C900 C 0.92743 0.97141 0.28955 0.0
C901 C 0.94146 0.88568 0.26012 0.0
C902 C 0.95278 0.85622 0.272 0.0
C903 C 0.94176 0.88849 0.23198 0.0
C904 C 0.9276 0.91775 0.21802 0.0
C905 C 0.94705 0.93587 0.19984 0.0
C906 C 0.93384 0.96366 0.18692 0.0
C907 C 0.90116 0.9735 0.19197 0.0
C908 C 0.88156 0.95546 0.20984 0.0
C909 C 0.89458 0.92756 0.22268 0.0
H910 H 0.89101 0.99508 0.18203 0.0
H911 H 1.0017 0.71672 0.30542 0.0
loop_
_geom_bond_atom_site_label_1
_geom_bond_atom_site_label_2
_geom_bond_distance
_geom_bond_site_symmetry_2
_ccdc_geom_bond_type
C0 O2 1.247 . S
C0 O4 1.258 . S
C1 O8 1.247 . S
C1 O9 1.258 . S
O2 C0 1.247 . S
O2 Zn3 2.028 . S
Zn3 O2 2.028 . S
Zn3 O7 2.035 . S
Zn3 O9 2.035 1_455 S
Zn3 O10 2.028 . S
O4 C0 1.258 . S
O4 Zn5 2.035 1_455 S
Zn5 O4 2.035 1_655 S
Zn5 O6 2.028 . S
Zn5 O8 2.028 . S
Zn5 O11 2.033 1_655 S
O6 Zn5 2.028 . S
O6 C12 1.247 . S
O7 Zn3 2.035 . S
O7 C12 1.258 1_455 S
O8 C1 1.247 . S
O8 Zn5 2.028 . S
O9 C1 1.258 . S
O9 Zn3 2.035 1_655 S
O10 Zn3 2.028 . S
O10 C13 1.247 . S
O11 Zn5 2.033 1_455 S
O11 C13 1.264 . S
C12 O6 1.247 . S
C12 O7 1.258 1_655 S
C13 O10 1.247 . S
C13 O11 1.264 . S
C14 O16 1.247 . S
C14 O18 1.258 . S
C15 O22 1.247 . S
C15 O23 1.258 . S
O16 C14 1.247 . S
O16 Zn17 2.028 . S
Zn17 O16 2.028 . S
Zn17 O21 2.035 . S
Zn17 O23 2.035 . S
Zn17 O24 2.028 . S
O18 C14 1.258 . S
O18 Zn19 2.035 . S
Zn19 O18 2.035 . S
Zn19 O20 2.028 . S
Zn19 O22 2.028 . S
Zn19 O25 2.035 . S
O20 Zn19 2.028 . S
O20 C26 1.247 . S
O21 Zn17 2.035 . S
O21 C26 1.258 . S
O22 C15 1.247 . S
O22 Zn19 2.028 . S
O23 C15 1.258 . S
O23 Zn17 2.035 . S
O24 Zn17 2.028 . S
O24 C27 1.247 . S
O25 Zn19 2.035 . S
O25 C27 1.258 . S
C26 O20 1.247 . S
C26 O21 1.258 . S
C27 O24 1.247 . S
C27 O25 1.258 . S
C28 O30 1.247 . S
C28 O32 1.258 . S
C29 O36 1.247 . S
C29 O37 1.258 . S
O30 C28 1.247 . S
O30 Zn31 2.028 . S
Zn31 O30 2.028 . S
Zn31 O35 2.035 . S
Zn31 O37 2.035 . S
Zn31 O38 2.028 . S
O32 C28 1.258 . S
O32 Zn33 2.035 . S
Zn33 O32 2.035 . S
Zn33 O34 2.028 . S
Zn33 O36 2.028 . S
Zn33 O39 2.035 . S
O34 Zn33 2.028 . S
O34 C40 1.247 . S
O35 Zn31 2.035 . S
O35 C40 1.258 . S
O36 C29 1.247 . S
O36 Zn33 2.028 . S
O37 C29 1.258 . S
O37 Zn31 2.035 . S
O38 Zn31 2.028 . S
O38 C41 1.247 . S
O39 Zn33 2.035 . S
O39 C41 1.258 . S
C40 O34 1.247 . S
C40 O35 1.258 . S
C41 O38 1.247 . S
C41 O39 1.258 . S
C42 O44 1.248 . S
C42 O46 1.258 . S
C43 O50 1.247 1_545 S
C43 O51 1.258 . S
O44 C42 1.248 . S
O44 Zn45 2.027 1_565 S
Zn45 O44 2.027 1_545 S
Zn45 O49 2.035 . S
Zn45 O51 2.035 . S
Zn45 O52 2.028 1_545 S
O46 C42 1.258 . S
O46 Zn47 2.035 . S
Zn47 O46 2.035 . S
Zn47 O48 2.028 1_565 S
Zn47 O50 2.028 . S
Zn47 O53 2.035 . S
O48 Zn47 2.028 1_545 S
O48 C54 1.247 . S
O49 Zn45 2.035 . S
O49 C54 1.258 . S
O50 C43 1.247 1_565 S
O50 Zn47 2.028 . S
O51 C43 1.258 . S
O51 Zn45 2.035 . S
O52 Zn45 2.028 1_565 S
O52 C55 1.247 . S
O53 Zn47 2.035 . S
O53 C55 1.258 . S
C54 O48 1.247 . S
C54 O49 1.258 . S
C55 O52 1.247 . S
C55 O53 1.258 . S
C56 O58 1.247 . S
C56 O60 1.258 . S
C57 O64 1.247 . S
C57 O65 1.258 . S
O58 C56 1.247 . S
O58 Zn59 2.028 . S
Zn59 O58 2.028 . S
Zn59 O63 2.033 1_455 S
Zn59 O65 2.035 1_455 S
Zn59 O66 2.028 . S
O60 C56 1.258 . S
O60 Zn61 2.035 1_455 S
Zn61 O60 2.035 1_655 S
Zn61 O62 2.028 . S
Zn61 O64 2.028 . S
Zn61 O67 2.035 . S
O62 Zn61 2.028 . S
O62 C68 1.247 . S
O63 Zn59 2.033 1_655 S
O63 C68 1.264 . S
O64 C57 1.247 . S
O64 Zn61 2.028 . S
O65 C57 1.258 . S
O65 Zn59 2.035 1_655 S
O66 Zn59 2.028 . S
O66 C69 1.247 . S
O67 Zn61 2.035 . S
O67 C69 1.258 1_655 S
C68 O62 1.247 . S
C68 O63 1.264 . S
C69 O66 1.247 . S
C69 O67 1.258 1_455 S
C70 O72 1.247 . S
C70 O74 1.258 . S
C71 O78 1.247 . S
C71 O79 1.258 . S
O72 C70 1.247 . S
O72 Zn73 2.028 . S
Zn73 O72 2.028 . S
Zn73 O77 2.035 . S
Zn73 O79 2.035 . S
Zn73 O80 2.028 . S
O74 C70 1.258 . S
O74 Zn75 2.035 . S
Zn75 O74 2.035 . S
Zn75 O76 2.028 . S
Zn75 O78 2.028 . S
Zn75 O81 2.035 . S
O76 Zn75 2.028 . S
O76 C82 1.247 . S
O77 Zn73 2.035 . S
O77 C82 1.258 . S
O78 C71 1.247 . S
O78 Zn75 2.028 . S
O79 C71 1.258 . S
O79 Zn73 2.035 . S
O80 Zn73 2.028 . S
O80 C83 1.247 . S
O81 Zn75 2.035 . S
O81 C83 1.258 . S
C82 O76 1.247 . S
C82 O77 1.258 . S
C83 O80 1.247 . S
C83 O81 1.258 . S
C84 O86 1.247 . S
C84 O88 1.258 . S
C85 O92 1.247 . S
C85 O93 1.258 . S
O86 C84 1.247 . S
O86 Zn87 2.028 . S
Zn87 O86 2.028 . S
Zn87 O91 2.035 . S
Zn87 O93 2.035 . S
Zn87 O94 2.028 . S
O88 C84 1.258 . S
O88 Zn89 2.035 . S
Zn89 O88 2.035 . S
Zn89 O90 2.028 . S
Zn89 O92 2.028 . S
Zn89 O95 2.035 . S
O90 Zn89 2.028 . S
O90 C96 1.247 . S
O91 Zn87 2.035 . S
O91 C96 1.258 . S
O92 C85 1.247 . S
O92 Zn89 2.028 . S
O93 C85 1.258 . S
O93 Zn87 2.035 . S
O94 Zn87 2.028 . S
O94 C97 1.247 . S
O95 Zn89 2.035 . S
O95 C97 1.258 . S
C96 O90 1.247 . S
C96 O91 1.258 . S
C97 O94 1.247 . S
C97 O95 1.258 . S
C98 O100 1.247 . S
C98 O102 1.264 . S
C99 O106 1.247 . S
C99 O107 1.258 1_565 S
O100 C98 1.247 . S
O100 Zn101 2.028 . S
Zn101 O100 2.028 . S
Zn101 O105 2.035 1_545 S
Zn101 O107 2.035 . S
Zn101 O108 2.028 . S
O102 C98 1.264 . S
O102 Zn103 2.033 1_545 S
Zn103 O102 2.033 1_565 S
Zn103 O104 2.028 . S
Zn103 O106 2.028 . S
Zn103 O109 2.035 1_565 S
O104 Zn103 2.028 . S
O104 C110 1.247 . S
O105 Zn101 2.035 1_565 S
O105 C110 1.258 . S
O106 C99 1.247 . S
O106 Zn103 2.028 . S
O107 C99 1.258 1_545 S
O107 Zn101 2.035 . S
O108 Zn101 2.028 . S
O108 C111 1.247 . S
O109 Zn103 2.035 1_545 S
O109 C111 1.258 . S
C110 O104 1.247 . S
C110 O105 1.258 . S
C111 O108 1.247 . S
C111 O109 1.258 . S
H112 C130 0.951 . S
H113 C132 0.951 . S
H114 C134 0.950 . S
H115 C135 0.950 1_455 S
H116 C137 0.950 . S
H117 C140 0.950 . S
H118 C141 0.950 . S
H119 C143 0.950 . S
H120 C144 0.950 . S
H121 C145 0.951 . S
H122 C147 0.951 . S
H123 C149 0.950 . S
H124 C150 0.950 1_655 S
H125 C152 0.950 . S
H126 C155 0.950 . S
H127 C156 0.950 . S
H128 C158 0.950 . S
H129 C159 0.950 . S
C130 H112 0.951 . S
C130 C131 1.366 . S
C130 C132 1.388 . S
C131 C130 1.366 . S
C131 C135 1.385 . S
C132 H113 0.951 . S
C132 C130 1.388 . S
C132 C133 1.366 . S
C133 C132 1.366 . S
C133 C134 1.414 1_655 S
C133 C136 1.499 . S
C134 H114 0.950 . S
C134 C133 1.414 1_455 S
C134 C135 1.374 1_455 S
C135 H115 0.950 1_655 S
C135 C131 1.385 . S
C135 C134 1.374 1_655 S
C136 C133 1.499 . S
C136 C137 1.373 1_556 S
C136 C138 1.389 1_655 S
C137 H116 0.950 . S
C137 C136 1.373 1_554 S
C137 C153 1.377 . S
C138 C136 1.389 1_455 S
C138 C139 1.524 . S
C138 C152 1.377 . S
C139 C138 1.524 . S
C139 C140 1.397 . S
C139 C144 1.363 . S
C140 H117 0.950 . S
C140 C139 1.397 . S
C140 C141 1.334 . S
C141 H118 0.950 . S
C141 C140 1.334 . S
C141 C142 1.287 . S
C142 C141 1.287 . S
C142 C143 1.524 . S
C142 H161 0.913 . S
C143 H119 0.950 . S
C143 C142 1.524 . S
C143 C144 1.415 . S
C144 H120 0.950 . S
C144 C139 1.363 . S
C144 C143 1.415 . S
C145 H121 0.951 . S
C145 C146 1.366 . S
C145 C147 1.388 . S
C146 C145 1.366 . S
C146 C150 1.385 . S
C147 H122 0.951 . S
C147 C145 1.388 . S
C147 C148 1.366 . S
C148 C147 1.366 . S
C148 C149 1.414 1_455 S
C148 C151 1.499 . S
C149 H123 0.950 . S
C149 C148 1.414 1_655 S
C149 C150 1.374 1_655 S
C150 H124 0.950 1_455 S
C150 C146 1.385 . S
C150 C149 1.374 1_455 S
C151 C148 1.499 . S
C151 C152 1.373 1_554 S
C151 C153 1.389 1_455 S
C152 H125 0.950 . S
C152 C138 1.377 . S
C152 C151 1.373 1_556 S
C153 C137 1.377 . S
C153 C151 1.389 1_655 S
C153 C154 1.524 . S
C154 C153 1.524 . S
C154 C155 1.397 . S
C154 C159 1.363 . S
C155 H126 0.950 . S
C155 C154 1.397 . S
C155 C156 1.334 . S
C156 H127 0.950 . S
C156 C155 1.334 . S
C156 C157 1.287 . S
C157 C156 1.287 . S
C157 C158 1.524 . S
C157 H160 0.999 . S
C158 H128 0.950 . S
C158 C157 1.524 . S
C158 C159 1.415 . S
C159 H129 0.950 . S
C159 C154 1.363 . S
C159 C158 1.415 . S
H160 C157 0.999 . S
H161 C142 0.913 . S
H162 C180 0.951 . S
H163 C182 0.951 . S
H164 C184 0.950 . S
H165 C185 0.950 . S
H166 C187 0.950 . S
H167 C190 0.950 . S
H168 C191 0.950 . S
H169 C193 0.950 . S
H170 C194 0.950 . S
H171 C195 0.951 . S
H172 C197 0.951 . S
H173 C199 0.950 . S
H174 C200 0.950 . S
H175 C202 0.950 . S
H176 C205 0.950 . S
H177 C206 0.950 . S
H178 C208 0.950 . S
H179 C209 0.950 . S
C180 H162 0.951 . S
C180 C181 1.366 . S
C180 C182 1.388 . S
C181 C180 1.366 . S
C181 C185 1.385 . S
C182 H163 0.951 . S
C182 C180 1.388 . S
C182 C183 1.366 . S
C183 C182 1.366 . S
C183 C184 1.414 . S
C183 C186 1.499 . S
C184 H164 0.950 . S
C184 C183 1.414 . S
C184 C185 1.374 . S
C185 H165 0.950 . S
C185 C181 1.385 . S
C185 C184 1.374 . S
C186 C183 1.499 . S
C186 C187 1.373 . S
C186 C188 1.389 . S
C187 H166 0.950 . S
C187 C186 1.373 . S
C187 C203 1.377 . S
C188 C186 1.389 . S
C188 C189 1.524 . S
C188 C202 1.377 . S
C189 C188 1.524 . S
C189 C190 1.397 . S
C189 C194 1.363 . S
C190 H167 0.950 . S
C190 C189 1.397 . S
C190 C191 1.334 . S
C191 H168 0.950 . S
C191 C190 1.334 . S
C191 C192 1.287 . S
C192 C191 1.287 . S
C192 C193 1.524 . S
C192 H211 0.913 . S
C193 H169 0.950 . S
C193 C192 1.524 . S
C193 C194 1.415 . S
C194 H170 0.950 . S
C194 C189 1.363 . S
C194 C193 1.415 . S
C195 H171 0.951 . S
C195 C196 1.366 . S
C195 C197 1.388 . S
C196 C195 1.366 . S
C196 C200 1.385 . S
C197 H172 0.951 . S
C197 C195 1.388 . S
C197 C198 1.366 . S
C198 C197 1.366 . S
C198 C199 1.414 . S
C198 C201 1.499 . S
C199 H173 0.950 . S
C199 C198 1.414 . S
C199 C200 1.374 . S
C200 H174 0.950 . S
C200 C196 1.385 . S
C200 C199 1.374 . S
C201 C198 1.499 . S
C201 C202 1.373 . S
C201 C203 1.389 . S
C202 H175 0.950 . S
C202 C188 1.377 . S
C202 C201 1.373 . S
C203 C187 1.377 . S
C203 C201 1.389 . S
C203 C204 1.524 . S
C204 C203 1.524 . S
C204 C205 1.397 . S
C204 C209 1.363 . S
C205 H176 0.950 . S
C205 C204 1.397 . S
C205 C206 1.334 . S
C206 H177 0.950 . S
C206 C205 1.334 . S
C206 C207 1.287 . S
C207 C206 1.287 . S
C207 C208 1.524 . S
C207 H210 0.999 . S
C208 H178 0.950 . S
C208 C207 1.524 . S
C208 C209 1.415 . S
C209 H179 0.950 . S
C209 C204 1.363 . S
C209 C208 1.415 . S
H210 C207 0.999 . S
H211 C192 0.913 . S
H212 C230 0.951 . S
H213 C232 0.951 . S
H214 C234 0.950 . S
H215 C235 0.950 . S
H216 C237 0.950 . S
H217 C240 0.950 . S
H218 C241 0.950 . S
H219 C243 0.950 . S
H220 C244 0.950 . S
H221 C245 0.951 . S
H222 C247 0.951 . S
H223 C249 0.950 . S
H224 C250 0.950 . S
H225 C252 0.950 . S
H226 C255 0.950 . S
H227 C256 0.950 . S
H228 C258 0.950 . S
H229 C259 0.950 . S
C230 H212 0.951 . S
C230 C231 1.366 . S
C230 C232 1.388 . S
C231 C230 1.366 . S
C231 C235 1.385 . S
C232 H213 0.951 . S
C232 C230 1.388 . S
C232 C233 1.366 . S
C233 C232 1.366 . S
C233 C234 1.414 . S
C233 C236 1.499 . S
C234 H214 0.950 . S
C234 C233 1.414 . S
C234 C235 1.374 . S
C235 H215 0.950 . S
C235 C231 1.385 . S
C235 C234 1.374 . S
C236 C233 1.499 . S
C236 C237 1.373 1_554 S
C236 C238 1.389 1_565 S
C237 H216 0.950 . S
C237 C236 1.373 1_556 S
C237 C253 1.377 . S
C238 C236 1.389 1_545 S
C238 C239 1.524 . S
C238 C252 1.377 . S
C239 C238 1.524 . S
C239 C240 1.397 . S
C239 C244 1.363 . S
C240 H217 0.950 . S
C240 C239 1.397 . S
C240 C241 1.334 . S
C241 H218 0.950 . S
C241 C240 1.334 . S
C241 C242 1.287 . S
C242 C241 1.287 . S
C242 C243 1.524 . S
C242 H261 0.913 . S
C243 H219 0.950 . S
C243 C242 1.524 . S
C243 C244 1.415 . S
C244 H220 0.950 . S
C244 C239 1.363 . S
C244 C243 1.415 . S
C245 H221 0.951 . S
C245 C246 1.366 . S
C245 C247 1.388 . S
C246 C245 1.366 . S
C246 C250 1.385 . S
C247 H222 0.951 . S
C247 C245 1.388 . S
C247 C248 1.366 . S
C248 C247 1.366 . S
C248 C249 1.414 . S
C248 C251 1.499 . S
C249 H223 0.950 . S
C249 C248 1.414 . S
C249 C250 1.374 . S
C250 H224 0.950 . S
C250 C246 1.385 . S
C250 C249 1.374 . S
C251 C248 1.499 . S
C251 C252 1.373 1_556 S
C251 C253 1.389 1_545 S
C252 H225 0.950 . S
C252 C238 1.377 . S
C252 C251 1.373 1_554 S
C253 C237 1.377 . S
C253 C251 1.389 1_565 S
C253 C254 1.524 . S
C254 C253 1.524 . S
C254 C255 1.397 . S
C254 C259 1.363 . S
C255 H226 0.950 . S
C255 C254 1.397 . S
C255 C256 1.334 . S
C256 H227 0.950 . S
C256 C255 1.334 . S
C256 C257 1.287 . S
C257 C256 1.287 . S
C257 C258 1.524 . S
C257 H260 0.999 . S
C258 H228 0.950 . S
C258 C257 1.524 . S
C258 C259 1.415 . S
C259 H229 0.950 . S
C259 C254 1.363 . S
C259 C258 1.415 . S
H260 C257 0.999 . S
H261 C242 0.913 . S
H262 C280 0.951 . S
H263 C282 0.951 1_565 S
H264 C284 0.950 . S
H265 C285 0.950 . S
H266 C287 0.950 . S
H267 C290 0.950 . S
H268 C291 0.950 . S
H269 C293 0.950 . S
H270 C294 0.950 . S
H271 C295 0.951 . S
H272 C297 0.951 1_545 S
H273 C299 0.950 . S
H274 C300 0.950 . S
H275 C302 0.950 . S
H276 C305 0.950 . S
H277 C306 0.950 . S
H278 C308 0.950 . S
H279 C309 0.950 . S
C280 H262 0.951 . S
C280 C281 1.366 . S
C280 C282 1.388 . S
C281 C280 1.366 . S
C281 C285 1.385 . S
C282 H263 0.951 1_545 S
C282 C280 1.388 . S
C282 C283 1.366 . S
C283 C282 1.366 . S
C283 C284 1.414 . S
C283 C286 1.499 . S
C284 H264 0.950 . S
C284 C283 1.414 . S
C284 C285 1.374 . S
C285 H265 0.950 . S
C285 C281 1.385 . S
C285 C284 1.374 . S
C286 C283 1.499 . S
C286 C287 1.373 1_645 S
C286 C288 1.389 . S
C287 H266 0.950 . S
C287 C286 1.373 1_465 S
C287 C303 1.377 . S
C288 C286 1.389 . S
C288 C289 1.524 . S
C288 C302 1.377 . S
C289 C288 1.524 . S
C289 C290 1.397 . S
C289 C294 1.363 . S
C290 H267 0.950 . S
C290 C289 1.397 . S
C290 C291 1.334 . S
C291 H268 0.950 . S
C291 C290 1.334 . S
C291 C292 1.287 . S
C292 C291 1.287 . S
C292 C293 1.524 . S
C292 H311 0.913 . S
C293 H269 0.950 . S
C293 C292 1.524 . S
C293 C294 1.415 . S
C294 H270 0.950 . S
C294 C289 1.363 . S
C294 C293 1.415 . S
C295 H271 0.951 . S
C295 C296 1.366 . S
C295 C297 1.388 . S
C296 C295 1.366 . S
C296 C300 1.385 . S
C297 H272 0.951 1_565 S
C297 C295 1.388 . S
C297 C298 1.366 . S
C298 C297 1.366 . S
C298 C299 1.414 . S
C298 C301 1.499 . S
C299 H273 0.950 . S
C299 C298 1.414 . S
C299 C300 1.374 . S
C300 H274 0.950 . S
C300 C296 1.385 . S
C300 C299 1.374 . S
C301 C298 1.499 . S
C301 C302 1.373 1_465 S
C301 C303 1.389 . S
C302 H275 0.950 . S
C302 C288 1.377 . S
C302 C301 1.373 1_645 S
C303 C287 1.377 . S
C303 C301 1.389 . S
C303 C304 1.524 . S
C304 C303 1.524 . S
C304 C305 1.397 . S
C304 C309 1.363 . S
C305 H276 0.950 . S
C305 C304 1.397 . S
C305 C306 1.334 . S
C306 H277 0.950 . S
C306 C305 1.334 . S
C306 C307 1.287 . S
C307 C306 1.287 . S
C307 C308 1.524 . S
C307 H310 0.999 . S
C308 H278 0.950 . S
C308 C307 1.524 . S
C308 C309 1.415 . S
C309 H279 0.950 . S
C309 C304 1.363 . S
C309 C308 1.415 . S
H310 C307 0.999 . S
H311 C292 0.913 . S
H312 C330 0.951 . S
H313 C332 0.951 . S
H314 C334 0.950 . S
H315 C335 0.950 . S
H316 C337 0.950 . S
H317 C340 0.950 . S
H318 C341 0.950 . S
H319 C343 0.950 . S
H320 C344 0.950 . S
H321 C345 0.951 . S
H322 C347 0.951 . S
H323 C349 0.950 . S
H324 C350 0.950 . S
H325 C352 0.950 . S
H326 C355 0.950 . S
H327 C356 0.950 . S
H328 C358 0.950 . S
H329 C359 0.950 . S
C330 H312 0.951 . S
C330 C331 1.366 . S
C330 C332 1.388 . S
C331 C330 1.366 . S
C331 C335 1.385 . S
C332 H313 0.951 . S
C332 C330 1.388 . S
C332 C333 1.366 . S
C333 C332 1.366 . S
C333 C334 1.414 . S
C333 C336 1.499 . S
C334 H314 0.950 . S
C334 C333 1.414 . S
C334 C335 1.374 . S
C335 H315 0.950 . S
C335 C331 1.385 . S
C335 C334 1.374 . S
C336 C333 1.499 . S
C336 C337 1.373 . S
C336 C338 1.389 . S
C337 H316 0.950 . S
C337 C336 1.373 . S
C337 C353 1.377 . S
C338 C336 1.389 . S
C338 C339 1.524 . S
C338 C352 1.377 . S
C339 C338 1.524 . S
C339 C340 1.397 . S
C339 C344 1.363 . S
C340 H317 0.950 . S
C340 C339 1.397 . S
C340 C341 1.334 . S
C341 H318 0.950 . S
C341 C340 1.334 . S
C341 C342 1.287 . S
C342 C341 1.287 . S
C342 C343 1.524 . S
C342 H361 0.913 . S
C343 H319 0.950 . S
C343 C342 1.524 . S
C343 C344 1.415 . S
C344 H320 0.950 . S
C344 C339 1.363 . S
C344 C343 1.415 . S
C345 H321 0.951 . S
C345 C346 1.366 . S
C345 C347 1.388 . S
C346 C345 1.366 . S
C346 C350 1.385 . S
C347 H322 0.951 . S
C347 C345 1.388 . S
C347 C348 1.366 . S
C348 C347 1.366 . S
C348 C349 1.414 . S
C348 C351 1.499 . S
C349 H323 0.950 . S
C349 C348 1.414 . S
C349 C350 1.374 . S
C350 H324 0.950 . S
C350 C346 1.385 . S
C350 C349 1.374 . S
C351 C348 1.499 . S
C351 C352 1.373 . S
C351 C353 1.389 . S
C352 H325 0.950 . S
C352 C338 1.377 . S
C352 C351 1.373 . S
C353 C337 1.377 . S
C353 C351 1.389 . S
C353 C354 1.524 . S
C354 C353 1.524 . S
C354 C355 1.397 . S
C354 C359 1.363 . S
C355 H326 0.950 . S
C355 C354 1.397 . S
C355 C356 1.334 . S
C356 H327 0.950 . S
C356 C355 1.334 . S
C356 C357 1.287 . S
C357 C356 1.287 . S
C357 C358 1.524 . S
C357 H360 0.999 . S
C358 H328 0.950 . S
C358 C357 1.524 . S
C358 C359 1.415 . S
C359 H329 0.950 . S
C359 C354 1.363 . S
C359 C358 1.415 . S
H360 C357 0.999 . S
H361 C342 0.913 . S
H362 C380 0.951 . S
H363 C382 0.951 . S
H364 C384 0.950 . S
H365 C385 0.950 . S
H366 C387 0.950 . S
H367 C390 0.950 . S
H368 C391 0.950 . S
H369 C393 0.950 . S
H370 C394 0.950 . S
H371 C395 0.951 . S
H372 C397 0.951 . S
H373 C399 0.950 . S
H374 C400 0.950 . S
H375 C402 0.950 . S
H376 C405 0.950 . S
H377 C406 0.950 . S
H378 C408 0.950 . S
H379 C409 0.950 . S
C380 H362 0.951 . S
C380 C381 1.366 . S
C380 C382 1.388 . S
C381 C380 1.366 . S
C381 C385 1.385 . S
C382 H363 0.951 . S
C382 C380 1.388 . S
C382 C383 1.366 . S
C383 C382 1.366 . S
C383 C384 1.414 . S
C383 C386 1.499 . S
C384 H364 0.950 . S
C384 C383 1.414 . S
C384 C385 1.374 . S
C385 H365 0.950 . S
C385 C381 1.385 . S
C385 C384 1.374 . S
C386 C383 1.499 . S
C386 C387 1.373 . S
C386 C388 1.389 . S
C387 H366 0.950 . S
C387 C386 1.373 . S
C387 C403 1.377 . S
C388 C386 1.389 . S
C388 C389 1.524 . S
C388 C402 1.377 . S
C389 C388 1.524 . S
C389 C390 1.397 . S
C389 C394 1.363 . S
C390 H367 0.950 . S
C390 C389 1.397 . S
C390 C391 1.334 . S
C391 H368 0.950 . S
C391 C390 1.334 . S
C391 C392 1.287 . S
C392 C391 1.287 . S
C392 C393 1.524 . S
C392 H411 0.913 . S
C393 H369 0.950 . S
C393 C392 1.524 . S
C393 C394 1.415 . S
C394 H370 0.950 . S
C394 C389 1.363 . S
C394 C393 1.415 . S
C395 H371 0.951 . S
C395 C396 1.366 . S
C395 C397 1.388 . S
C396 C395 1.366 . S
C396 C400 1.385 . S
C397 H372 0.951 . S
C397 C395 1.388 . S
C397 C398 1.366 . S
C398 C397 1.366 . S
C398 C399 1.414 . S
C398 C401 1.499 . S
C399 H373 0.950 . S
C399 C398 1.414 . S
C399 C400 1.374 . S
C400 H374 0.950 . S
C400 C396 1.385 . S
C400 C399 1.374 . S
C401 C398 1.499 . S
C401 C402 1.373 . S
C401 C403 1.389 . S
C402 H375 0.950 . S
C402 C388 1.377 . S
C402 C401 1.373 . S
C403 C387 1.377 . S
C403 C401 1.389 . S
C403 C404 1.524 . S
C404 C403 1.524 . S
C404 C405 1.397 . S
C404 C409 1.363 . S
C405 H376 0.950 . S
C405 C404 1.397 . S
C405 C406 1.334 . S
C406 H377 0.950 . S
C406 C405 1.334 . S
C406 C407 1.287 . S
C407 C406 1.287 . S
C407 C408 1.524 . S
C407 H410 0.999 . S
C408 H378 0.950 . S
C408 C407 1.524 . S
C408 C409 1.415 . S
C409 H379 0.950 . S
C409 C404 1.363 . S
C409 C408 1.415 . S
H410 C407 0.999 . S
H411 C392 0.913 . S
H412 C430 0.951 . S
H413 C432 0.951 . S
H414 C434 0.950 . S
H415 C435 0.950 . S
H416 C437 0.950 . S
H417 C440 0.950 . S
H418 C441 0.950 . S
H419 C443 0.950 . S
H420 C444 0.950 . S
H421 C445 0.951 . S
H422 C447 0.951 . S
H423 C449 0.950 . S
H424 C450 0.950 . S
H425 C452 0.950 . S
H426 C455 0.950 . S
H427 C456 0.950 . S
H428 C458 0.950 . S
H429 C459 0.950 . S
C430 H412 0.951 . S
C430 C431 1.366 . S
C430 C432 1.388 . S
C431 C430 1.366 . S
C431 C435 1.385 . S
C432 H413 0.951 . S
C432 C430 1.388 . S
C432 C433 1.366 . S
C433 C432 1.366 . S
C433 C434 1.414 . S
C433 C436 1.499 . S
C434 H414 0.950 . S
C434 C433 1.414 . S
C434 C435 1.374 . S
C435 H415 0.950 . S
C435 C431 1.385 . S
C435 C434 1.374 . S
C436 C433 1.499 . S
C436 C437 1.373 . S
C436 C438 1.389 . S
C437 H416 0.950 . S
C437 C436 1.373 . S
C437 C453 1.377 . S
C438 C436 1.389 . S
C438 C439 1.524 . S
C438 C452 1.377 . S
C439 C438 1.524 . S
C439 C440 1.397 . S
C439 C444 1.363 . S
C440 H417 0.950 . S
C440 C439 1.397 . S
C440 C441 1.334 . S
C441 H418 0.950 . S
C441 C440 1.334 . S
C441 C442 1.287 . S
C442 C441 1.287 . S
C442 C443 1.524 . S
C442 H461 0.913 . S
C443 H419 0.950 . S
C443 C442 1.524 . S
C443 C444 1.415 . S
C444 H420 0.950 . S
C444 C439 1.363 . S
C444 C443 1.415 . S
C445 H421 0.951 . S
C445 C446 1.366 . S
C445 C447 1.388 . S
C446 C445 1.366 . S
C446 C450 1.385 . S
C447 H422 0.951 . S
C447 C445 1.388 . S
C447 C448 1.366 . S
C448 C447 1.366 . S
C448 C449 1.414 . S
C448 C451 1.499 . S
C449 H423 0.950 . S
C449 C448 1.414 . S
C449 C450 1.374 . S
C450 H424 0.950 . S
C450 C446 1.385 . S
C450 C449 1.374 . S
C451 C448 1.499 . S
C451 C452 1.373 . S
C451 C453 1.389 . S
C452 H425 0.950 . S
C452 C438 1.377 . S
C452 C451 1.373 . S
C453 C437 1.377 . S
C453 C451 1.389 . S
C453 C454 1.524 . S
C454 C453 1.524 . S
C454 C455 1.397 . S
C454 C459 1.363 . S
C455 H426 0.950 . S
C455 C454 1.397 . S
C455 C456 1.334 . S
C456 H427 0.950 . S
C456 C455 1.334 . S
C456 C457 1.287 . S
C457 C456 1.287 . S
C457 C458 1.524 . S
C457 H460 0.999 . S
C458 H428 0.950 . S
C458 C457 1.524 . S
C458 C459 1.415 . S
C459 H429 0.950 . S
C459 C454 1.363 . S
C459 C458 1.415 . S
H460 C457 0.999 . S
H461 C442 0.913 . S
H462 C480 0.951 . S
H463 C482 0.951 . S
H464 C484 0.950 . S
H465 C485 0.950 . S
H466 C487 0.950 . S
H467 C490 0.950 . S
H468 C491 0.950 . S
H469 C493 0.950 . S
H470 C494 0.950 . S
H471 C495 0.951 . S
H472 C497 0.951 . S
H473 C499 0.950 . S
H474 C500 0.950 . S
H475 C502 0.950 . S
H476 C505 0.950 . S
H477 C506 0.950 . S
H478 C508 0.950 . S
H479 C509 0.950 . S
C480 H462 0.951 . S
C480 C481 1.366 . S
C480 C482 1.388 . S
C481 C480 1.366 . S
C481 C485 1.385 . S
C482 H463 0.951 . S
C482 C480 1.388 . S
C482 C483 1.366 . S
C483 C482 1.366 . S
C483 C484 1.414 . S
C483 C486 1.499 . S
C484 H464 0.950 . S
C484 C483 1.414 . S
C484 C485 1.374 . S
C485 H465 0.950 . S
C485 C481 1.385 . S
C485 C484 1.374 . S
C486 C483 1.499 . S
C486 C487 1.373 . S
C486 C488 1.389 . S
C487 H466 0.950 . S
C487 C486 1.373 . S
C487 C503 1.377 . S
C488 C486 1.389 . S
C488 C489 1.524 . S
C488 C502 1.377 . S
C489 C488 1.524 . S
C489 C490 1.397 . S
C489 C494 1.363 . S
C490 H467 0.950 . S
C490 C489 1.397 . S
C490 C491 1.334 . S
C491 H468 0.950 . S
C491 C490 1.334 . S
C491 C492 1.287 . S
C492 C491 1.287 . S
C492 C493 1.524 . S
C492 H511 0.913 . S
C493 H469 0.950 . S
C493 C492 1.524 . S
C493 C494 1.415 . S
C494 H470 0.950 . S
C494 C489 1.363 . S
C494 C493 1.415 . S
C495 H471 0.951 . S
C495 C496 1.366 . S
C495 C497 1.388 . S
C496 C495 1.366 . S
C496 C500 1.385 . S
C497 H472 0.951 . S
C497 C495 1.388 . S
C497 C498 1.366 . S
C498 C497 1.366 . S
C498 C499 1.414 . S
C498 C501 1.499 . S
C499 H473 0.950 . S
C499 C498 1.414 . S
C499 C500 1.374 . S
C500 H474 0.950 . S
C500 C496 1.385 . S
C500 C499 1.374 . S
C501 C498 1.499 . S
C501 C502 1.373 . S
C501 C503 1.389 . S
C502 H475 0.950 . S
C502 C488 1.377 . S
C502 C501 1.373 . S
C503 C487 1.377 . S
C503 C501 1.389 . S
C503 C504 1.524 . S
C504 C503 1.524 . S
C504 C505 1.397 . S
C504 C509 1.363 . S
C505 H476 0.950 . S
C505 C504 1.397 . S
C505 C506 1.334 . S
C506 H477 0.950 . S
C506 C505 1.334 . S
C506 C507 1.287 . S
C507 C506 1.287 . S
C507 C508 1.524 . S
C507 H510 0.999 . S
C508 H478 0.950 . S
C508 C507 1.524 . S
C508 C509 1.415 . S
C509 H479 0.950 . S
C509 C504 1.363 . S
C509 C508 1.415 . S
H510 C507 0.999 . S
H511 C492 0.913 . S
H512 C530 0.951 . S
H513 C532 0.951 . S
H514 C534 0.950 . S
H515 C535 0.950 . S
H516 C537 0.950 . S
H517 C540 0.950 . S
H518 C541 0.950 . S
H519 C543 0.950 . S
H520 C544 0.950 . S
H521 C545 0.951 . S
H522 C547 0.951 . S
H523 C549 0.950 . S
H524 C550 0.950 . S
H525 C552 0.950 . S
H526 C555 0.950 . S
H527 C556 0.950 . S
H528 C558 0.950 . S
H529 C559 0.950 . S
C530 H512 0.951 . S
C530 C531 1.366 . S
C530 C532 1.388 . S
C531 C530 1.366 . S
C531 C535 1.385 . S
C532 H513 0.951 . S
C532 C530 1.388 . S
C532 C533 1.366 . S
C533 C532 1.366 . S
C533 C534 1.414 . S
C533 C536 1.499 . S
C534 H514 0.950 . S
C534 C533 1.414 . S
C534 C535 1.374 . S
C535 H515 0.950 . S
C535 C531 1.385 . S
C535 C534 1.374 . S
C536 C533 1.499 . S
C536 C537 1.373 . S
C536 C538 1.389 . S
C537 H516 0.950 . S
C537 C536 1.373 . S
C537 C553 1.377 . S
C538 C536 1.389 . S
C538 C539 1.524 . S
C538 C552 1.377 . S
C539 C538 1.524 . S
C539 C540 1.397 . S
C539 C544 1.363 . S
C540 H517 0.950 . S
C540 C539 1.397 . S
C540 C541 1.334 . S
C541 H518 0.950 . S
C541 C540 1.334 . S
C541 C542 1.287 . S
C542 C541 1.287 . S
C542 C543 1.524 . S
C542 H561 0.913 . S
C543 H519 0.950 . S
C543 C542 1.524 . S
C543 C544 1.415 . S
C544 H520 0.950 . S
C544 C539 1.363 . S
C544 C543 1.415 . S
C545 H521 0.951 . S
C545 C546 1.366 . S
C545 C547 1.388 . S
C546 C545 1.366 . S
C546 C550 1.385 . S
C547 H522 0.951 . S
C547 C545 1.388 . S
C547 C548 1.366 . S
C548 C547 1.366 . S
C548 C549 1.414 . S
C548 C551 1.499 . S
C549 H523 0.950 . S
C549 C548 1.414 . S
C549 C550 1.374 . S
C550 H524 0.950 . S
C550 C546 1.385 . S
C550 C549 1.374 . S
C551 C548 1.499 . S
C551 C552 1.373 . S
C551 C553 1.389 . S
C552 H525 0.950 . S
C552 C538 1.377 . S
C552 C551 1.373 . S
C553 C537 1.377 . S
C553 C551 1.389 . S
C553 C554 1.524 . S
C554 C553 1.524 . S
C554 C555 1.397 . S
C554 C559 1.363 . S
C555 H526 0.950 . S
C555 C554 1.397 . S
C555 C556 1.334 . S
C556 H527 0.950 . S
C556 C555 1.334 . S
C556 C557 1.287 . S
C557 C556 1.287 . S
C557 C558 1.524 . S
C557 H560 0.999 . S
C558 H528 0.950 . S
C558 C557 1.524 . S
C558 C559 1.415 . S
C559 H529 0.950 . S
C559 C554 1.363 . S
C559 C558 1.415 . S
H560 C557 0.999 . S
H561 C542 0.913 . S
H562 C580 0.951 . S
H563 C582 0.951 . S
H564 C584 0.950 . S
H565 C585 0.950 . S
H566 C587 0.950 . S
H567 C590 0.950 . S
H568 C591 0.950 . S
H569 C593 0.950 . S
H570 C594 0.950 . S
H571 C595 0.951 . S
H572 C597 0.951 . S
H573 C599 0.950 . S
H574 C600 0.950 . S
H575 C602 0.950 . S
H576 C605 0.950 . S
H577 C606 0.950 . S
H578 C608 0.950 . S
H579 C609 0.950 . S
C580 H562 0.951 . S
C580 C581 1.366 . S
C580 C582 1.388 . S
C581 C580 1.366 . S
C581 C585 1.385 . S
C582 H563 0.951 . S
C582 C580 1.388 . S
C582 C583 1.366 . S
C583 C582 1.366 . S
C583 C584 1.414 . S
C583 C586 1.499 . S
C584 H564 0.950 . S
C584 C583 1.414 . S
C584 C585 1.374 . S
C585 H565 0.950 . S
C585 C581 1.385 . S
C585 C584 1.374 . S
C586 C583 1.499 . S
C586 C587 1.373 . S
C586 C588 1.389 . S
C587 H566 0.950 . S
C587 C586 1.373 . S
C587 C603 1.377 . S
C588 C586 1.389 . S
C588 C589 1.524 . S
C588 C602 1.377 . S
C589 C588 1.524 . S
C589 C590 1.397 . S
C589 C594 1.363 . S
C590 H567 0.950 . S
C590 C589 1.397 . S
C590 C591 1.334 . S
C591 H568 0.950 . S
C591 C590 1.334 . S
C591 C592 1.287 . S
C592 C591 1.287 . S
C592 C593 1.524 . S
C592 H611 0.913 . S
C593 H569 0.950 . S
C593 C592 1.524 . S
C593 C594 1.415 . S
C594 H570 0.950 . S
C594 C589 1.363 . S
C594 C593 1.415 . S
C595 H571 0.951 . S
C595 C596 1.366 . S
C595 C597 1.388 . S
C596 C595 1.366 . S
C596 C600 1.385 . S
C597 H572 0.951 . S
C597 C595 1.388 . S
C597 C598 1.366 . S
C598 C597 1.366 . S
C598 C599 1.414 . S
C598 C601 1.499 . S
C599 H573 0.950 . S
C599 C598 1.414 . S
C599 C600 1.374 . S
C600 H574 0.950 . S
C600 C596 1.385 . S
C600 C599 1.374 . S
C601 C598 1.499 . S
C601 C602 1.373 . S
C601 C603 1.389 . S
C602 H575 0.950 . S
C602 C588 1.377 . S
C602 C601 1.373 . S
C603 C587 1.377 . S
C603 C601 1.389 . S
C603 C604 1.524 . S
C604 C603 1.524 . S
C604 C605 1.397 . S
C604 C609 1.363 . S
C605 H576 0.950 . S
C605 C604 1.397 . S
C605 C606 1.334 . S
C606 H577 0.950 . S
C606 C605 1.334 . S
C606 C607 1.287 . S
C607 C606 1.287 . S
C607 C608 1.524 . S
C607 H610 0.999 . S
C608 H578 0.950 . S
C608 C607 1.524 . S
C608 C609 1.415 . S
C609 H579 0.950 . S
C609 C604 1.363 . S
C609 C608 1.415 . S
H610 C607 0.999 . S
H611 C592 0.913 . S
H612 C630 0.951 . S
H613 C632 0.951 . S
H614 C634 0.950 . S
H615 C635 0.950 . S
H616 C637 0.950 . S
H617 C640 0.950 . S
H618 C641 0.950 . S
H619 C643 0.950 . S
H620 C644 0.950 . S
H621 C645 0.964 . S
H622 C647 0.951 . S
H623 C649 0.950 . S
H624 C650 0.950 . S
H625 C652 0.950 . S
H626 C655 0.950 . S
H627 C656 0.950 . S
H628 C658 0.950 . S
H629 C659 0.950 . S
C630 H612 0.951 . S
C630 C631 1.366 . S
C630 C632 1.388 . S
C631 C630 1.366 . S
C631 C635 1.385 . S
C632 H613 0.951 . S
C632 C630 1.388 . S
C632 C633 1.366 . S
C633 C632 1.366 . S
C633 C634 1.414 . S
C633 C636 1.499 . S
C634 H614 0.950 . S
C634 C633 1.414 . S
C634 C635 1.374 . S
C635 H615 0.950 . S
C635 C631 1.385 . S
C635 C634 1.374 . S
C636 C633 1.499 . S
C636 C637 1.373 . S
C636 C638 1.389 . S
C637 H616 0.950 . S
C637 C636 1.373 . S
C637 C653 1.377 . S
C638 C636 1.389 . S
C638 C639 1.524 . S
C638 C652 1.377 . S
C639 C638 1.524 . S
C639 C640 1.397 . S
C639 C644 1.363 . S
C640 H617 0.950 . S
C640 C639 1.397 . S
C640 C641 1.334 . S
C641 H618 0.950 . S
C641 C640 1.334 . S
C641 C642 1.287 . S
C642 C641 1.287 . S
C642 C643 1.524 . S
C642 H661 0.913 . S
C643 H619 0.950 . S
C643 C642 1.524 . S
C643 C644 1.415 . S
C644 H620 0.950 . S
C644 C639 1.363 . S
C644 C643 1.415 . S
C645 H621 0.964 . S
C645 C646 1.358 1_545 S
C645 C647 1.382 1_545 S
C646 C645 1.358 1_565 S
C646 C650 1.385 . S
C647 H622 0.951 . S
C647 C645 1.382 1_565 S
C647 C648 1.366 . S
C648 C647 1.366 . S
C648 C649 1.414 . S
C648 C651 1.499 . S
C649 H623 0.950 . S
C649 C648 1.414 . S
C649 C650 1.374 . S
C650 H624 0.950 . S
C650 C646 1.385 . S
C650 C649 1.374 . S
C651 C648 1.499 . S
C651 C652 1.373 . S
C651 C653 1.389 . S
C652 H625 0.950 . S
C652 C638 1.377 . S
C652 C651 1.373 . S
C653 C637 1.377 . S
C653 C651 1.389 . S
C653 C654 1.524 . S
C654 C653 1.524 . S
C654 C655 1.397 . S
C654 C659 1.363 1_565 S
C655 H626 0.950 . S
C655 C654 1.397 . S
C655 C656 1.334 1_565 S
C656 H627 0.950 . S
C656 C655 1.334 1_545 S
C656 C657 1.287 . S
C657 C656 1.287 . S
C657 C658 1.524 . S
C657 H660 0.999 . S
C658 H628 0.950 . S
C658 C657 1.524 . S
C658 C659 1.415 . S
C659 H629 0.950 . S
C659 C654 1.363 1_545 S
C659 C658 1.415 . S
H660 C657 0.999 . S
H661 C642 0.913 . S
H662 C680 0.951 1_655 S
H663 C682 0.951 . S
H664 C684 0.950 . S
H665 C685 0.950 . S
H666 C687 0.950 . S
H667 C690 0.950 1_455 S
H668 C691 0.950 . S
H669 C693 0.950 . S
H670 C694 0.950 . S
H671 C695 0.951 . S
H672 C697 0.951 . S
H673 C699 0.950 . S
H674 C700 0.950 . S
H675 C702 0.950 . S
H676 C705 0.950 . S
H677 C706 0.950 . S
H678 C708 0.950 . S
H679 C709 0.950 . S
C680 H662 0.951 1_455 S
C680 C681 1.366 . S
C680 C682 1.388 . S
C681 C680 1.366 . S
C681 C685 1.385 . S
C682 H663 0.951 . S
C682 C680 1.388 . S
C682 C683 1.366 . S
C683 C682 1.366 . S
C683 C684 1.414 . S
C683 C686 1.499 . S
C684 H664 0.950 . S
C684 C683 1.414 . S
C684 C685 1.374 . S
C685 H665 0.950 . S
C685 C681 1.385 . S
C685 C684 1.374 . S
C686 C683 1.499 . S
C686 C687 1.373 . S
C686 C688 1.389 . S
C687 H666 0.950 . S
C687 C686 1.373 . S
C687 C703 1.377 . S
C688 C686 1.389 . S
C688 C689 1.524 . S
C688 C702 1.377 . S
C689 C688 1.524 . S
C689 C690 1.397 1_455 S
C689 C694 1.363 1_455 S
C690 H667 0.950 1_655 S
C690 C689 1.397 1_655 S
C690 C691 1.334 . S
C691 H668 0.950 . S
C691 C690 1.334 . S
C691 C692 1.287 . S
C692 C691 1.287 . S
C692 C693 1.524 . S
C692 H711 0.913 . S
C693 H669 0.950 . S
C693 C692 1.524 . S
C693 C694 1.415 . S
C694 H670 0.950 . S
C694 C689 1.363 1_655 S
C694 C693 1.415 . S
C695 H671 0.951 . S
C695 C696 1.366 . S
C695 C697 1.388 . S
C696 C695 1.366 . S
C696 C700 1.385 . S
C697 H672 0.951 . S
C697 C695 1.388 . S
C697 C698 1.366 . S
C698 C697 1.366 . S
C698 C699 1.414 . S
C698 C701 1.499 . S
C699 H673 0.950 . S
C699 C698 1.414 . S
C699 C700 1.374 . S
C700 H674 0.950 . S
C700 C696 1.385 . S
C700 C699 1.374 . S
C701 C698 1.499 . S
C701 C702 1.373 . S
C701 C703 1.389 . S
C702 H675 0.950 . S
C702 C688 1.377 . S
C702 C701 1.373 . S
C703 C687 1.377 . S
C703 C701 1.389 . S
C703 C704 1.524 . S
C704 C703 1.524 . S
C704 C705 1.397 . S
C704 C709 1.363 . S
C705 H676 0.950 . S
C705 C704 1.397 . S
C705 C706 1.334 . S
C706 H677 0.950 . S
C706 C705 1.334 . S
C706 C707 1.287 . S
C707 C706 1.287 . S
C707 C708 1.524 . S
C707 H710 0.999 . S
C708 H678 0.950 . S
C708 C707 1.524 . S
C708 C709 1.415 . S
C709 H679 0.950 . S
C709 C704 1.363 . S
C709 C708 1.415 . S
H710 C707 0.999 . S
H711 C692 0.913 . S
H712 C730 0.951 . S
H713 C732 0.951 . S
H714 C734 0.950 . S
H715 C735 0.950 . S
H716 C737 0.950 . S
H717 C740 0.950 . S
H718 C741 0.950 . S
H719 C743 0.950 . S
H720 C744 0.950 . S
H721 C745 0.951 . S
H722 C747 0.951 . S
H723 C749 0.950 . S
H724 C750 0.950 . S
H725 C752 0.950 . S
H726 C755 0.950 . S
H727 C756 0.950 . S
H728 C758 0.950 . S
H729 C759 0.950 . S
C730 H712 0.951 . S
C730 C731 1.366 . S
C730 C732 1.388 . S
C731 C730 1.366 . S
C731 C735 1.385 . S
C732 H713 0.951 . S
C732 C730 1.388 . S
C732 C733 1.366 . S
C733 C732 1.366 . S
C733 C734 1.414 . S
C733 C736 1.499 . S
C734 H714 0.950 . S
C734 C733 1.414 . S
C734 C735 1.374 . S
C735 H715 0.950 . S
C735 C731 1.385 . S
C735 C734 1.374 . S
C736 C733 1.499 . S
C736 C737 1.373 . S
C736 C738 1.389 . S
C737 H716 0.950 . S
C737 C736 1.373 . S
C737 C753 1.377 . S
C738 C736 1.389 . S
C738 C739 1.524 . S
C738 C752 1.377 . S
C739 C738 1.524 . S
C739 C740 1.397 . S
C739 C744 1.363 . S
C740 H717 0.950 . S
C740 C739 1.397 . S
C740 C741 1.334 . S
C741 H718 0.950 . S
C741 C740 1.334 . S
C741 C742 1.287 . S
C742 C741 1.287 . S
C742 C743 1.524 . S
C742 H761 0.913 . S
C743 H719 0.950 . S
C743 C742 1.524 . S
C743 C744 1.415 . S
C744 H720 0.950 . S
C744 C739 1.363 . S
C744 C743 1.415 . S
C745 H721 0.951 . S
C745 C746 1.366 . S
C745 C747 1.388 . S
C746 C745 1.366 . S
C746 C750 1.385 . S
C747 H722 0.951 . S
C747 C745 1.388 . S
C747 C748 1.366 . S
C748 C747 1.366 . S
C748 C749 1.414 . S
C748 C751 1.499 . S
C749 H723 0.950 . S
C749 C748 1.414 . S
C749 C750 1.374 . S
C750 H724 0.950 . S
C750 C746 1.385 . S
C750 C749 1.374 . S
C751 C748 1.499 . S
C751 C752 1.373 . S
C751 C753 1.389 . S
C752 H725 0.950 . S
C752 C738 1.377 . S
C752 C751 1.373 . S
C753 C737 1.377 . S
C753 C751 1.389 . S
C753 C754 1.524 . S
C754 C753 1.524 . S
C754 C755 1.397 . S
C754 C759 1.363 . S
C755 H726 0.950 . S
C755 C754 1.397 . S
C755 C756 1.334 . S
C756 H727 0.950 . S
C756 C755 1.334 . S
C756 C757 1.287 . S
C757 C756 1.287 . S
C757 C758 1.524 . S
C757 H760 0.999 . S
C758 H728 0.950 . S
C758 C757 1.524 . S
C758 C759 1.415 . S
C759 H729 0.950 . S
C759 C754 1.363 . S
C759 C758 1.415 . S
H760 C757 0.999 . S
H761 C742 0.913 . S
H762 C780 0.951 . S
H763 C782 0.951 . S
H764 C784 0.950 . S
H765 C785 0.950 . S
H766 C787 0.950 . S
H767 C790 0.950 . S
H768 C791 0.950 . S
H769 C793 0.950 . S
H770 C794 0.950 . S
H771 C795 0.951 . S
H772 C797 0.951 . S
H773 C799 0.950 . S
H774 C800 0.950 . S
H775 C802 0.950 . S
H776 C805 0.950 . S
H777 C806 0.950 . S
H778 C808 0.950 . S
H779 C809 0.950 . S
C780 H762 0.951 . S
C780 C781 1.366 . S
C780 C782 1.388 . S
C781 C780 1.366 . S
C781 C785 1.385 . S
C782 H763 0.951 . S
C782 C780 1.388 . S
C782 C783 1.366 . S
C783 C782 1.366 . S
C783 C784 1.414 . S
C783 C786 1.499 . S
C784 H764 0.950 . S
C784 C783 1.414 . S
C784 C785 1.374 . S
C785 H765 0.950 . S
C785 C781 1.385 . S
C785 C784 1.374 . S
C786 C783 1.499 . S
C786 C787 1.373 . S
C786 C788 1.389 . S
C787 H766 0.950 . S
C787 C786 1.373 . S
C787 C803 1.377 . S
C788 C786 1.389 . S
C788 C789 1.524 . S
C788 C802 1.377 . S
C789 C788 1.524 . S
C789 C790 1.397 . S
C789 C794 1.363 . S
C790 H767 0.950 . S
C790 C789 1.397 . S
C790 C791 1.334 . S
C791 H768 0.950 . S
C791 C790 1.334 . S
C791 C792 1.287 . S
C792 C791 1.287 . S
C792 C793 1.524 . S
C792 H811 0.913 . S
C793 H769 0.950 . S
C793 C792 1.524 . S
C793 C794 1.415 . S
C794 H770 0.950 . S
C794 C789 1.363 . S
C794 C793 1.415 . S
C795 H771 0.951 . S
C795 C796 1.366 . S
C795 C797 1.388 . S
C796 C795 1.366 . S
C796 C800 1.385 . S
C797 H772 0.951 . S
C797 C795 1.388 . S
C797 C798 1.366 . S
C798 C797 1.366 . S
C798 C799 1.414 . S
C798 C801 1.499 . S
C799 H773 0.950 . S
C799 C798 1.414 . S
C799 C800 1.374 . S
C800 H774 0.950 . S
C800 C796 1.385 . S
C800 C799 1.374 . S
C801 C798 1.499 . S
C801 C802 1.373 . S
C801 C803 1.389 . S
C802 H775 0.950 . S
C802 C788 1.377 . S
C802 C801 1.373 . S
C803 C787 1.377 . S
C803 C801 1.389 . S
C803 C804 1.524 . S
C804 C803 1.524 . S
C804 C805 1.397 . S
C804 C809 1.363 . S
C805 H776 0.950 . S
C805 C804 1.397 . S
C805 C806 1.334 . S
C806 H777 0.950 . S
C806 C805 1.334 . S
C806 C807 1.287 . S
C807 C806 1.287 . S
C807 C808 1.524 . S
C807 H810 0.999 . S
C808 H778 0.950 . S
C808 C807 1.524 . S
C808 C809 1.415 . S
C809 H779 0.950 . S
C809 C804 1.363 . S
C809 C808 1.415 . S
H810 C807 0.999 . S
H811 C792 0.913 . S
H812 C830 0.951 . S
H813 C832 0.951 . S
H814 C834 0.950 . S
H815 C835 0.950 . S
H816 C837 0.950 . S
H817 C840 0.950 . S
H818 C841 0.950 . S
H819 C843 0.950 . S
H820 C844 0.950 . S
H821 C845 0.951 1_565 S
H822 C847 0.951 . S
H823 C849 0.950 . S
H824 C850 0.950 . S
H825 C852 0.950 . S
H826 C855 0.950 . S
H827 C856 0.950 . S
H828 C858 0.950 . S
H829 C859 0.950 . S
C830 H812 0.951 . S
C830 C831 1.366 . S
C830 C832 1.388 . S
C831 C830 1.366 . S
C831 C835 1.385 . S
C832 H813 0.951 . S
C832 C830 1.388 . S
C832 C833 1.366 . S
C833 C832 1.366 . S
C833 C834 1.414 . S
C833 C836 1.499 . S
C834 H814 0.950 . S
C834 C833 1.414 . S
C834 C835 1.374 . S
C835 H815 0.950 . S
C835 C831 1.385 . S
C835 C834 1.374 . S
C836 C833 1.499 . S
C836 C837 1.373 . S
C836 C838 1.389 . S
C837 H816 0.950 . S
C837 C836 1.373 . S
C837 C853 1.377 . S
C838 C836 1.389 . S
C838 C839 1.524 . S
C838 C852 1.377 . S
C839 C838 1.524 . S
C839 C840 1.397 . S
C839 C844 1.363 . S
C840 H817 0.950 . S
C840 C839 1.397 . S
C840 C841 1.334 . S
C841 H818 0.950 . S
C841 C840 1.334 . S
C841 C842 1.287 . S
C842 C841 1.287 . S
C842 C843 1.524 . S
C842 H861 0.913 . S
C843 H819 0.950 . S
C843 C842 1.524 . S
C843 C844 1.415 . S
C844 H820 0.950 . S
C844 C839 1.363 . S
C844 C843 1.415 . S
C845 H821 0.951 1_545 S
C845 C846 1.366 . S
C845 C847 1.388 . S
C846 C845 1.366 . S
C846 C850 1.385 . S
C847 H822 0.951 . S
C847 C845 1.388 . S
C847 C848 1.366 . S
C848 C847 1.366 . S
C848 C849 1.414 . S
C848 C851 1.499 . S
C849 H823 0.950 . S
C849 C848 1.414 . S
C849 C850 1.374 . S
C850 H824 0.950 . S
C850 C846 1.385 . S
C850 C849 1.374 . S
C851 C848 1.499 . S
C851 C852 1.373 . S
C851 C853 1.389 . S
C852 H825 0.950 . S
C852 C838 1.377 . S
C852 C851 1.373 . S
C853 C837 1.377 . S
C853 C851 1.389 . S
C853 C854 1.524 . S
C854 C853 1.524 . S
C854 C855 1.397 . S
C854 C859 1.363 . S
C855 H826 0.950 . S
C855 C854 1.397 . S
C855 C856 1.334 . S
C856 H827 0.950 . S
C856 C855 1.334 . S
C856 C857 1.287 . S
C857 C856 1.287 . S
C857 C858 1.524 . S
C857 H860 0.999 . S
C858 H828 0.950 . S
C858 C857 1.524 . S
C858 C859 1.415 . S
C859 H829 0.950 . S
C859 C854 1.363 . S
C859 C858 1.415 . S
H860 C857 0.999 . S
H861 C842 0.913 . S
H862 C880 0.951 . S
H863 C882 0.951 . S
H864 C884 0.950 . S
H865 C885 0.950 . S
H866 C887 0.950 . S
H867 C890 0.950 . S
H868 C891 0.950 . S
H869 C893 0.950 . S
H870 C894 0.948 1_455 S
H871 C895 0.951 . S
H872 C897 0.951 . S
H873 C899 0.950 . S
H874 C900 0.950 . S
H875 C902 0.950 . S
H876 C905 0.950 . S
H877 C906 0.950 . S
H878 C908 0.950 . S
H879 C909 0.950 . S
C880 H862 0.951 . S
C880 C881 1.366 1_455 S
C880 C882 1.388 1_455 S
C881 C880 1.366 1_655 S
C881 C885 1.385 . S
C882 H863 0.951 . S
C882 C880 1.388 1_655 S
C882 C883 1.366 . S
C883 C882 1.366 . S
C883 C884 1.414 . S
C883 C886 1.499 . S
C884 H864 0.950 . S
C884 C883 1.414 . S
C884 C885 1.374 . S
C885 H865 0.950 . S
C885 C881 1.385 . S
C885 C884 1.374 . S
C886 C883 1.499 . S
C886 C887 1.373 . S
C886 C888 1.389 . S
C887 H866 0.950 . S
C887 C886 1.373 . S
C887 C903 1.377 . S
C888 C886 1.389 . S
C888 C889 1.524 . S
C888 C902 1.377 . S
C889 C888 1.524 . S
C889 C890 1.397 . S
C889 C894 1.383 . S
C890 H867 0.950 . S
C890 C889 1.397 . S
C890 C891 1.334 . S
C891 H868 0.950 . S
C891 C890 1.334 . S
C891 C892 1.287 1_655 S
C892 C891 1.287 1_455 S
C892 C893 1.524 . S
C892 H911 0.913 . S
C893 H869 0.950 . S
C893 C892 1.524 . S
C893 C894 1.398 1_455 S
C894 H870 0.948 1_655 S
C894 C889 1.383 . S
C894 C893 1.398 1_655 S
C895 H871 0.951 . S
C895 C896 1.366 . S
C895 C897 1.388 . S
C896 C895 1.366 . S
C896 C900 1.385 . S
C897 H872 0.951 . S
C897 C895 1.388 . S
C897 C898 1.366 . S
C898 C897 1.366 . S
C898 C899 1.414 . S
C898 C901 1.499 . S
C899 H873 0.950 . S
C899 C898 1.414 . S
C899 C900 1.374 . S
C900 H874 0.950 . S
C900 C896 1.385 . S
C900 C899 1.374 . S
C901 C898 1.499 . S
C901 C902 1.373 . S
C901 C903 1.389 . S
C902 H875 0.950 . S
C902 C888 1.377 . S
C902 C901 1.373 . S
C903 C887 1.377 . S
C903 C901 1.389 . S
C903 C904 1.524 . S
C904 C903 1.524 . S
C904 C905 1.397 . S
C904 C909 1.363 . S
C905 H876 0.950 . S
C905 C904 1.397 . S
C905 C906 1.334 . S
C906 H877 0.950 . S
C906 C905 1.334 . S
C906 C907 1.287 . S
C907 C906 1.287 . S
C907 C908 1.524 . S
C907 H910 0.999 . S
C908 H878 0.950 . S
C908 C907 1.524 . S
C908 C909 1.415 . S
C909 H879 0.950 . S
C909 C904 1.363 . S
C909 C908 1.415 . S
H910 C907 0.999 . S
H911 C892 0.913 . S
C131 C68 1.798 . S
C146 C13 1.798 . S
C181 C27 1.798 . S
C196 C71 1.797 . S
C231 C29 1.798 . S
C246 C84 1.798 . S
C281 C98 1.798 . S
C296 C42 1.797 . S
C331 C0 2.274 . S
C346 C40 2.273 . S
C381 C14 2.274 . S
C396 C55 2.275 . S
C431 C97 2.274 . S
C446 C57 2.273 . S
C481 C82 2.276 . S
C496 C111 2.273 . S
C531 C70 1.326 . S
C546 C1 1.309 . S
C581 C15 1.309 . S
C596 C85 1.326 . S
C631 C41 1.309 . S
C646 C99 1.326 . S
C681 C69 1.326 . S
C696 C54 1.307 . S
C731 C56 1.309 . S
C746 C26 1.326 . S
C781 C83 1.307 . S
C796 C28 1.326 . S
C831 C96 1.308 . S
C846 C43 1.326 . S
C881 C12 1.326 . S
C896 C110 1.309 . S
