# Generated by pormake.
# Topology smu, (6)-cn, num edge types: 1
# Building blocks:
#     Node 0, Type 0, BuildingBlock: HISSIN_clean_sbu_0, # of connection points: 6
#     Node 1, Type 0, BuildingBlock: HISSIN_clean_sbu_0, # of connection points: 6
#     Node 2, Type 0, BuildingBlock: HISSIN_clean_sbu_0, # of connection points: 6
#     Node 3, Type 0, BuildingBlock: HISSIN_clean_sbu_0, # of connection points: 6
#     Node 4, Type 0, BuildingBlock: HISSIN_clean_sbu_0, # of connection points: 6
#     Node 5, Type 0, BuildingBlock: HISSIN_clean_sbu_0, # of connection points: 6
#     Edge 6, Type (0, 0), BuildingBlock: MIFKUJ_clean_linker_0, # of connection points: 2
#     Edge 7, Type (0, 0), BuildingBlock: MIFKUJ_clean_linker_0, # of connection points: 2
#     Edge 8, Type (0, 0), BuildingBlock: MIFKUJ_clean_linker_0, # of connection points: 2
#     Edge 9, Type (0, 0), BuildingBlock: MIFKUJ_clean_linker_0, # of connection points: 2
#     Edge 10, Type (0, 0), BuildingBlock: MIFKUJ_clean_linker_0, # of connection points: 2
#     Edge 11, Type (0, 0), BuildingBlock: MIFKUJ_clean_linker_0, # of connection points: 2
#     Edge 12, Type (0, 0), BuildingBlock: MIFKUJ_clean_linker_0, # of connection points: 2
#     Edge 13, Type (0, 0), BuildingBlock: MIFKUJ_clean_linker_0, # of connection points: 2
#     Edge 14, Type (0, 0), BuildingBlock: MIFKUJ_clean_linker_0, # of connection points: 2
#     Edge 15, Type (0, 0), BuildingBlock: MIFKUJ_clean_linker_0, # of connection points: 2
#     Edge 16, Type (0, 0), BuildingBlock: MIFKUJ_clean_linker_0, # of connection points: 2
#     Edge 17, Type (0, 0), BuildingBlock: MIFKUJ_clean_linker_0, # of connection points: 2
#     Edge 18, Type (0, 0), BuildingBlock: MIFKUJ_clean_linker_0, # of connection points: 2
#     Edge 19, Type (0, 0), BuildingBlock: MIFKUJ_clean_linker_0, # of connection points: 2
#     Edge 20, Type (0, 0), BuildingBlock: MIFKUJ_clean_linker_0, # of connection points: 2
#     Edge 21, Type (0, 0), BuildingBlock: MIFKUJ_clean_linker_0, # of connection points: 2
#     Edge 22, Type (0, 0), BuildingBlock: MIFKUJ_clean_linker_0, # of connection points: 2
#     Edge 23, Type (0, 0), BuildingBlock: MIFKUJ_clean_linker_0, # of connection points: 2
# Relax obj value: 0.212
# Max RMSD: 0.299
# Mean RMSD: 0.299
data_MOF--net-smu--node1-HISSIN_clean_sbu_0--edge1-MIFKUJ_clean_linker_0
_symmetry_space_group_name_H-M    P1
_symmetry_Int_Tables_number       1
_symmetry_cell_setting            triclinic
loop_
_symmetry_equiv_pos_as_xyz
'x, y, z'
_cell_length_a     48.416075
_cell_length_b     48.367531
_cell_length_c     36.506664
_cell_angle_alpha  89.974818
_cell_angle_beta   90.158764
_cell_angle_gamma 119.96422
loop_
_atom_site_label
_atom_site_type_symbol
_atom_site_fract_x
_atom_site_fract_y
_atom_site_fract_z
_atom_type_partial_charge
Eu0 Eu 0.32333 0.11587 0.26205 0.0
Eu1 Eu 0.37423 0.08866 0.26225 0.0
C2 C 0.33761 0.08857 0.18838 0.0
C3 C 0.25709 0.14115 0.26626 0.0
C4 C 0.23372 0.13097 0.23863 0.0
C5 C 0.22789 0.1612 0.30092 0.0
C6 C 0.20835 0.13681 0.24155 0.0
C7 C 0.25341 0.15549 0.29794 0.0
C8 C 0.20581 0.15301 0.2721 0.0
C9 C 0.2876 0.14224 0.25869 0.0
O10 O 0.40233 0.14119 0.27647 0.0
O11 O 0.37104 0.1551 0.24418 0.0
C12 C 0.39778 0.16301 0.26095 0.0
O13 O 0.32747 0.10608 0.32215 0.0
O14 O 0.40585 0.07712 0.23134 0.0
O15 O 0.4041 0.07316 0.29028 0.0
O16 O 0.3516 0.07524 0.31799 0.0
C17 C 0.33656 0.08689 0.33666 0.0
O18 O 0.29255 0.06403 0.27282 0.0
O19 O 0.32535 0.04471 0.25331 0.0
O20 O 0.36524 0.09521 0.20267 0.0
O21 O 0.30769 0.14752 0.28538 0.0
O22 O 0.2878 0.12297 0.23389 0.0
O23 O 0.31627 0.09119 0.20776 0.0
C24 C 0.45413 0.08927 0.26154 0.0
C25 C 0.4717 0.10771 0.29184 0.0
C26 C 0.5039 0.10064 0.23233 0.0
C27 C 0.50502 0.12224 0.29245 0.0
C28 C 0.47061 0.08597 0.23183 0.0
C29 C 0.52154 0.11882 0.26273 0.0
C30 C 0.41878 0.07287 0.26055 0.0
C31 C 0.29707 0.04072 0.26193 0.0
H32 H 0.23597 0.1201 0.21372 0.0
H33 H 0.22663 0.17389 0.32472 0.0
H34 H 0.19143 0.12983 0.21915 0.0
H35 H 0.2712 0.16396 0.31949 0.0
H36 H 0.45978 0.11088 0.31516 0.0
H37 H 0.51579 0.09719 0.20917 0.0
H38 H 0.51788 0.13638 0.3161 0.0
H39 H 0.45768 0.07178 0.20822 0.0
Eu40 Eu 0.80892 0.70272 0.26172 0.0
Eu41 Eu 0.73232 0.64941 0.2654 0.0
C42 C 0.76582 0.68079 0.18739 0.0
C43 C 0.90389 0.76568 0.25988 0.0
C44 C 0.91968 0.77634 0.22628 0.0
C45 C 0.95394 0.79795 0.29189 0.0
C46 C 0.95239 0.79792 0.22548 0.0
C47 C 0.92111 0.77684 0.29269 0.0
C48 C 0.96981 0.80862 0.25827 0.0
C49 C 0.86957 0.74292 0.26064 0.0
O50 O 0.75813 0.6225 0.2524 0.0
O51 O 0.80422 0.65665 0.28187 0.0
C52 C 0.78519 0.62859 0.26755 0.0
O53 O 0.79124 0.71193 0.31458 0.0
O54 O 0.68491 0.6203 0.24107 0.0
O55 O 0.69222 0.61561 0.2986 0.0
O56 O 0.75066 0.66109 0.32366 0.0
C57 C 0.76973 0.69007 0.33591 0.0
O58 O 0.78417 0.72863 0.24291 0.0
O59 O 0.73526 0.6978 0.27039 0.0
O60 O 0.7395 0.66524 0.20653 0.0
O61 O 0.85076 0.74409 0.28529 0.0
O62 O 0.8557 0.71983 0.23682 0.0
O63 O 0.7944 0.6933 0.20216 0.0
C64 C 0.65389 0.56912 0.26742 0.0
C65 C 0.66496 0.54946 0.28181 0.0
C66 C 0.60524 0.52185 0.24774 0.0
C67 C 0.64598 0.51621 0.27983 0.0
C68 C 0.6241 0.55506 0.25002 0.0
C69 C 0.61568 0.50193 0.26313 0.0
C70 C 0.6726 0.60417 0.27097 0.0
C71 C 0.75677 0.72449 0.2546 0.0
H72 H 0.9067 0.76809 0.20069 0.0
H73 H 0.96693 0.80606 0.3175 0.0
H74 H 0.96421 0.80574 0.19925 0.0
H75 H 0.90927 0.76885 0.31889 0.0
H76 H 0.68803 0.55974 0.29513 0.0
H77 H 0.58241 0.51182 0.23394 0.0
H78 H 0.65476 0.50174 0.29228 0.0
H79 H 0.61525 0.5698 0.23844 0.0
Eu80 Eu 0.9079 0.21271 0.26782 0.0
Eu81 Eu 0.93437 0.28995 0.2657 0.0
C82 C 0.93891 0.25425 0.19412 0.0
C83 C 0.88077 0.1202 0.26591 0.0
C84 C 0.86757 0.102 0.23399 0.0
C85 C 0.8819 0.07496 0.29361 0.0
C86 C 0.86093 0.07033 0.23226 0.0
C87 C 0.8887 0.10659 0.29527 0.0
C88 C 0.86699 0.05618 0.26258 0.0
C89 C 0.88074 0.15048 0.27168 0.0
O90 O 0.88202 0.26377 0.24993 0.0
O91 O 0.86924 0.22183 0.28711 0.0
C92 C 0.8607 0.23947 0.26879 0.0
O93 O 0.93138 0.23153 0.32269 0.0
O94 O 0.94429 0.3323 0.23442 0.0
O95 O 0.94971 0.3356 0.29334 0.0
O96 O 0.92647 0.27618 0.32542 0.0
C97 C 0.93314 0.25571 0.34102 0.0
O98 O 0.96021 0.23283 0.25995 0.0
O99 O 0.97879 0.28587 0.27568 0.0
O100 O 0.95272 0.28018 0.21415 0.0
O101 O 0.89943 0.16996 0.29684 0.0
O102 O 0.87679 0.16531 0.24402 0.0
O103 O 0.91584 0.22701 0.20724 0.0
C104 C 0.93223 0.36857 0.26488 0.0
C105 C 0.93843 0.38992 0.29393 0.0
C106 C 0.89686 0.38544 0.23795 0.0
C107 C 0.92411 0.40889 0.29497 0.0
C108 C 0.91107 0.36636 0.237 0.0
C109 C 0.90339 0.40718 0.26678 0.0
C110 C 0.94894 0.3499 0.26337 0.0
C111 C 0.98332 0.26156 0.26863 0.0
H112 H 0.86076 0.11161 0.21112 0.0
H113 H 0.88718 0.06481 0.31722 0.0
H114 H 0.84923 0.05636 0.20806 0.0
H115 H 0.89855 0.1198 0.32044 0.0
H116 H 0.95461 0.39214 0.31577 0.0
H117 H 0.88136 0.38368 0.21554 0.0
H118 H 0.92929 0.42491 0.31796 0.0
H119 H 0.90577 0.35021 0.21412 0.0
Eu120 Eu 0.0907 0.36816 0.76362 0.0
Eu121 Eu 0.11844 0.31856 0.76608 0.0
C122 C 0.08507 0.32935 0.83754 0.0
C123 C 0.09265 0.44854 0.76141 0.0
C124 C 0.11124 0.46658 0.79141 0.0
C125 C 0.10482 0.49806 0.73058 0.0
C126 C 0.12617 0.49992 0.79112 0.0
C127 C 0.08974 0.46468 0.73097 0.0
C128 C 0.123 0.5161 0.7608 0.0
C129 C 0.07551 0.4131 0.76192 0.0
O130 O 0.0665 0.28605 0.7737 0.0
O131 O 0.04673 0.31882 0.7549 0.0
C132 C 0.04299 0.29046 0.76324 0.0
O133 O 0.09998 0.36057 0.70481 0.0
O134 O 0.15081 0.30475 0.7916 0.0
O135 O 0.12738 0.28347 0.73996 0.0
O136 O 0.09454 0.31108 0.71103 0.0
C137 C 0.093 0.33275 0.69092 0.0
O138 O 0.14272 0.39591 0.78066 0.0
O139 O 0.15675 0.3661 0.74646 0.0
O140 O 0.10805 0.32446 0.82571 0.0
O141 O 0.07744 0.39868 0.73267 0.0
O142 O 0.07735 0.39942 0.79186 0.0
O143 O 0.07237 0.34203 0.8165 0.0
C144 C 0.14717 0.25493 0.77434 0.0
C145 C 0.13434 0.22922 0.74952 0.0
C146 C 0.173 0.23015 0.80698 0.0
C147 C 0.14171 0.20483 0.75266 0.0
C148 C 0.16572 0.25459 0.80377 0.0
C149 C 0.16216 0.20571 0.7806 0.0
C150 C 0.14668 0.28451 0.76556 0.0
C151 C 0.16475 0.39242 0.76415 0.0
H152 H 0.11415 0.455 0.81532 0.0
H153 H 0.10159 0.50971 0.70695 0.0
H154 H 0.14031 0.51307 0.81465 0.0
H155 H 0.07545 0.45143 0.70756 0.0
H156 H 0.12023 0.2289 0.72627 0.0
H157 H 0.1883 0.23115 0.82926 0.0
H158 H 0.13309 0.18648 0.73176 0.0
H159 H 0.17617 0.27417 0.82316 0.0
Eu160 Eu 0.29292 0.92927 0.76597 0.0
Eu161 Eu 0.21604 0.90357 0.7596 0.0
C162 C 0.25317 0.92897 0.83621 0.0
C163 C 0.37162 0.92741 0.76962 0.0
C164 C 0.36199 0.89882 0.78881 0.0
C165 C 0.41852 0.9261 0.74844 0.0
C166 C 0.38079 0.88423 0.78819 0.0
C167 C 0.39985 0.94069 0.74924 0.0
C168 C 0.40952 0.89788 0.76826 0.0
C169 C 0.35276 0.94379 0.76997 0.0
O170 O 0.2371 0.9563 0.75675 0.0
O171 O 0.2902 0.97477 0.77219 0.0
C172 C 0.26612 0.97939 0.76418 0.0
O173 O 0.28609 0.94777 0.71284 0.0
O174 O 0.16816 0.87145 0.78002 0.0
O175 O 0.17415 0.8966 0.72882 0.0
O176 O 0.23526 0.90791 0.7014 0.0
C177 C 0.26225 0.93253 0.69012 0.0
O178 O 0.2685 0.87767 0.74741 0.0
O179 O 0.22298 0.86332 0.77841 0.0
O180 O 0.23052 0.92794 0.81512 0.0
O181 O 0.33839 0.94305 0.73948 0.0
O182 O 0.33507 0.93991 0.79857 0.0
O183 O 0.27331 0.92054 0.8235 0.0
C184 C 0.12375 0.87648 0.75948 0.0
C185 C 0.11033 0.88651 0.73198 0.0
C186 C 0.07373 0.854 0.79299 0.0
C187 C 0.07867 0.8796 0.73449 0.0
C188 C 0.10536 0.86094 0.79051 0.0
C189 C 0.05968 0.86227 0.76443 0.0
C190 C 0.15403 0.87674 0.75269 0.0
C191 C 0.24239 0.85562 0.76287 0.0
H192 H 0.34008 0.88788 0.80445 0.0
H193 H 0.43999 0.93692 0.73204 0.0
H194 H 0.37312 0.86262 0.80391 0.0
H195 H 0.40753 0.9625 0.73386 0.0
H196 H 0.12368 0.89811 0.70747 0.0
H197 H 0.05989 0.84108 0.8167 0.0
H198 H 0.06854 0.88612 0.71189 0.0
H199 H 0.11482 0.8526 0.81206 0.0
Eu200 Eu 0.65189 0.72677 0.76002 0.0
Eu201 Eu 0.7047 0.8043 0.76256 0.0
C202 C 0.68922 0.76032 0.8357 0.0
C203 C 0.57086 0.64856 0.76062 0.0
C204 C 0.55568 0.63676 0.79449 0.0
C205 C 0.51865 0.62335 0.73108 0.0
C206 C 0.52241 0.61852 0.79662 0.0
C207 C 0.5519 0.64158 0.72894 0.0
C208 C 0.50345 0.61145 0.76492 0.0
C209 C 0.60623 0.66687 0.75819 0.0
O210 O 0.73362 0.78119 0.77505 0.0
O211 O 0.70027 0.73042 0.75189 0.0
C212 C 0.72827 0.7531 0.76398 0.0
O213 O 0.66184 0.74208 0.70094 0.0
O214 O 0.71958 0.85171 0.78505 0.0
O215 O 0.74412 0.8465 0.73795 0.0
O216 O 0.71038 0.78785 0.70669 0.0
C217 C 0.68911 0.7639 0.68706 0.0
O218 O 0.62491 0.75218 0.77464 0.0
O219 O 0.6576 0.79817 0.74455 0.0
O220 O 0.6985 0.78908 0.82247 0.0
O221 O 0.61874 0.68425 0.72906 0.0
O222 O 0.622 0.68131 0.78773 0.0
O223 O 0.67445 0.73451 0.81544 0.0
C224 C 0.77142 0.89624 0.76996 0.0
C225 C 0.79373 0.91226 0.74212 0.0
C226 C 0.79894 0.94369 0.80811 0.0
C227 C 0.81765 0.94395 0.74664 0.0
C228 C 0.77478 0.91192 0.80346 0.0
C229 C 0.81992 0.96047 0.77922 0.0
C230 C 0.74211 0.86614 0.76075 0.0
C231 C 0.63024 0.7791 0.75996 0.0
H232 H 0.56952 0.64145 0.81941 0.0
H233 H 0.50487 0.61796 0.70602 0.0
H234 H 0.51154 0.61005 0.82319 0.0
H235 H 0.56276 0.6499 0.70233 0.0
H236 H 0.79149 0.90094 0.71581 0.0
H237 H 0.80039 0.95547 0.83385 0.0
H238 H 0.83299 0.95602 0.72356 0.0
H239 H 0.75785 0.90023 0.8254 0.0
H240 H 0.21433 0.94398 0.8767 0.0
H241 H 0.22536 0.96961 0.93701 0.0
H242 H 0.31607 0.97292 0.94003 0.0
H243 H 0.30456 0.94613 0.88096 0.0
H244 H 0.29344 0.95861 1.00351 0.0
H245 H 0.309 0.04619 0.92394 0.0
H246 H 0.29495 0.07387 0.87734 0.0
H247 H 0.20928 0.05082 0.93606 0.0
H248 H 0.22369 0.02404 0.98391 0.0
H249 H 0.37394 0.07735 0.13925 0.0
H250 H 0.35698 0.04946 0.08041 0.0
H251 H 0.26371 0.03872 0.09443 0.0
H252 H 0.28055 0.06698 0.15282 0.0
H253 H 0.28335 0.05441 0.02493 0.0
H254 H 0.27833 0.97863 0.11209 0.0
H255 H 0.29812 0.95688 0.15994 0.0
H256 H 0.36801 0.95976 0.08544 0.0
H257 H 0.34872 0.98173 0.0372 0.0
C258 C 0.23648 0.94989 0.8904 0.0
C259 C 0.2584 0.94271 0.8739 0.0
C260 C 0.24299 0.96497 0.92481 0.0
C261 C 0.2719 0.97389 0.94319 0.0
C262 C 0.29355 0.96634 0.9268 0.0
C263 C 0.28687 0.9509 0.89281 0.0
C264 C 0.27981 0.99078 0.97948 0.0
C265 C 0.29157 0.97979 1.0079 0.0
C266 C 0.27659 0.01791 0.98616 0.0
C267 C 0.26716 0.03279 0.95705 0.0
C268 C 0.28705 0.04683 0.9267 0.0
C269 C 0.27907 0.06247 0.90016 0.0
C270 C 0.25093 0.06372 0.90336 0.0
C271 C 0.23096 0.0497 0.93348 0.0
C272 C 0.23916 0.03452 0.96048 0.0
C273 C 0.34994 0.06943 0.12965 0.0
C274 C 0.32871 0.07457 0.1509 0.0
C275 C 0.34018 0.05324 0.09606 0.0
C276 C 0.30888 0.04154 0.0831 0.0
C277 C 0.28795 0.04747 0.10374 0.0
C278 C 0.2977 0.06371 0.13722 0.0
C279 C 0.29778 0.02274 0.04836 0.0
C280 C 0.28515 0.03318 0.02048 0.0
C281 C 0.30055 0.99531 0.04212 0.0
C282 C 0.31209 0.98191 0.07104 0.0
C283 C 0.29793 0.97466 0.10592 0.0
C284 C 0.30907 0.9623 0.13312 0.0
C285 C 0.33433 0.95696 0.12575 0.0
C286 C 0.34843 0.96389 0.09112 0.0
C287 C 0.33735 0.97624 0.0638 0.0
H288 H 0.34296 0.94742 0.14685 0.0
H289 H 0.24472 0.07575 0.88268 0.0
H290 H 0.67042 0.70757 0.65222 0.0
H291 H 0.68843 0.69913 0.59283 0.0
H292 H 0.74547 0.80084 0.57762 0.0
H293 H 0.7284 0.80953 0.63791 0.0
H294 H 0.70107 0.75866 0.51409 0.0
H295 H 0.7911 0.77957 0.58655 0.0
H296 H 0.82355 0.77725 0.63718 0.0
H297 H 0.7802 0.67578 0.6233 0.0
H298 H 0.74787 0.67769 0.57193 0.0
H299 H 0.7895 0.75004 0.36159 0.0
H300 H 0.77782 0.76522 0.421 0.0
H301 H 0.72683 0.66636 0.45346 0.0
H302 H 0.73803 0.65084 0.39375 0.0
H303 H 0.77159 0.71161 0.5078 0.0
H304 H 0.68311 0.69556 0.42953 0.0
H305 H 0.66187 0.70512 0.37238 0.0
H306 H 0.71103 0.80573 0.39488 0.0
H307 H 0.73273 0.79673 0.45209 0.0
C308 C 0.68649 0.72818 0.63607 0.0
C309 C 0.69771 0.75924 0.64954 0.0
C310 C 0.69695 0.7233 0.60229 0.0
C311 C 0.71829 0.74935 0.58091 0.0
C312 C 0.72899 0.78044 0.59377 0.0
C313 C 0.71918 0.78535 0.6281 0.0
C314 C 0.72915 0.74364 0.54519 0.0
C315 C 0.71681 0.74877 0.51269 0.0
C316 C 0.74955 0.73063 0.54329 0.0
C317 C 0.7667 0.72869 0.57591 0.0
C318 C 0.78808 0.75668 0.59473 0.0
C319 C 0.80664 0.75548 0.62336 0.0
C320 C 0.80375 0.72632 0.63371 0.0
C321 C 0.78231 0.69832 0.61536 0.0
C322 C 0.76397 0.69947 0.58637 0.0
C323 C 0.77615 0.73152 0.38151 0.0
C324 C 0.76482 0.69921 0.37303 0.0
C325 C 0.76934 0.74025 0.41535 0.0
C326 C 0.75136 0.7169 0.4415 0.0
C327 C 0.74076 0.68472 0.43359 0.0
C328 C 0.74715 0.6759 0.39949 0.0
C329 C 0.74304 0.726 0.47684 0.0
C330 C 0.75578 0.72142 0.50925 0.0
C331 C 0.72361 0.74017 0.47849 0.0
C332 C 0.70962 0.74549 0.44494 0.0
C333 C 0.68941 0.71972 0.42224 0.0
C334 C 0.67729 0.72503 0.38986 0.0
C335 C 0.68513 0.75602 0.37998 0.0
C336 C 0.70496 0.78174 0.40259 0.0
C337 C 0.7171 0.77654 0.43504 0.0
H338 H 0.67583 0.7601 0.35482 0.0
H339 H 0.81827 0.72543 0.65578 0.0
H340 H 1.00078 0.28861 0.17561 0.0
H341 H 0.02515 0.29544 0.11597 0.0
H342 H 0.93239 0.23488 0.06791 0.0
H343 H 0.90823 0.22503 0.12932 0.0
H344 H 0.97046 0.22631 0.0305 0.0
H345 H 0.97538 0.32265 0.06655 0.0
H346 H 0.98632 0.36854 0.10578 0.0
H347 H 0.08642 0.40008 0.10382 0.0
H348 H 0.07604 0.35413 0.06498 0.0
H349 H 0.02717 0.31855 0.8606 0.0
H350 H 1.00264 0.30086 0.92056 0.0
H351 H 0.08499 0.29713 0.9587 0.0
H352 H 0.10985 0.31438 0.89788 0.0
H353 H 0.05157 0.3375 0.99857 0.0
H354 H 0.03869 0.2339 0.95819 0.0
H355 H 0.02098 0.1911 0.91197 0.0
H356 H 0.92673 0.1786 0.91387 0.0
H357 H 0.94397 0.22144 0.95993 0.0
C358 C 0.98559 0.27606 0.15254 0.0
C359 C 0.95259 0.25619 0.15725 0.0
C360 C 0.99953 0.2805 0.11812 0.0
C361 C 0.98067 0.26685 0.08677 0.0
C362 C 0.94762 0.24606 0.09144 0.0
C363 C 0.93374 0.24044 0.1265 0.0
C364 C 0.99569 0.27511 0.04954 0.0
C365 C 0.98804 0.2507 0.02371 0.0
C366 C 0.0185 0.307 0.0398 0.0
C367 C 0.02488 0.33476 0.06312 0.0
C368 C 0.9997 0.33925 0.07468 0.0
C369 C 1.00581 0.36529 0.09682 0.0
C370 C 0.03704 0.38717 0.10735 0.0
C371 C 0.06224 0.38309 0.09568 0.0
C372 C 0.05626 0.35707 0.07357 0.0
C373 C 0.04026 0.314 0.88158 0.0
C374 C 0.07074 0.31823 0.87443 0.0
C375 C 0.026 0.30367 0.91582 0.0
C376 C 0.04189 0.29753 0.94393 0.0
C377 C 0.07228 0.30159 0.93716 0.0
C378 C 0.08646 0.31149 0.9025 0.0
C379 C 0.02711 0.28866 0.98077 0.0
C380 C 0.03439 0.31312 1.00605 0.0
C381 C 1.00313 0.2572 0.98931 0.0
C382 C 0.99268 0.231 0.96227 0.0
C383 C 0.01425 0.22214 0.94857 0.0
C384 C 1.00427 0.1978 0.92248 0.0
C385 C 0.97275 0.18213 0.90995 0.0
C386 C 0.95112 0.19067 0.92362 0.0
C387 C 0.96096 0.21493 0.94978 0.0
H388 H 0.96509 0.16335 0.88969 0.0
H389 H 0.04171 0.40731 0.1245 0.0
H390 H 0.37367 0.1004 0.39765 0.0
H391 H 0.3578 0.07429 0.4576 0.0
H392 H 0.26121 0.01649 0.41834 0.0
H393 H 0.27684 0.04433 0.35928 0.0
H394 H 0.25773 0.02804 0.48561 0.0
H395 H 0.32066 0.99039 0.42313 0.0
H396 H 0.36814 0.9959 0.3915 0.0
H397 H 0.42571 0.04227 0.48612 0.0
H398 H 0.37866 0.03733 0.51815 0.0
H399 H 0.21847 0.9134 0.63276 0.0
H400 H 0.22708 0.93801 0.57163 0.0
H401 H 0.32386 1.00644 0.60175 0.0
H402 H 0.31592 0.98197 0.6614 0.0
H403 H 0.32369 0.98513 0.53673 0.0
H404 H 0.26198 0.02483 0.59841 0.0
H405 H 0.21493 0.01943 0.6309 0.0
H406 H 0.15544 0.9689 0.53899 0.0
H407 H 0.20213 0.97372 0.50612 0.0
C408 C 0.34893 0.08264 0.40227 0.0
C409 C 0.32638 0.07459 0.37417 0.0
C410 C 0.33989 0.06732 0.43635 0.0
C411 C 0.30839 0.04254 0.44247 0.0
C412 C 0.28565 0.03533 0.41457 0.0
C413 C 0.29454 0.05129 0.38082 0.0
C414 C 0.2994 0.02355 0.4773 0.0
C415 C 0.27198 0.01831 0.49645 0.0
C416 C 0.31796 0.01094 0.49209 0.0
C417 C 0.34619 0.01369 0.4729 0.0
C418 C 0.34348 1.00188 0.4371 0.0
C419 C 0.37031 1.0049 0.41912 0.0
C420 C 0.39993 0.01948 0.43676 0.0
C421 C 0.40277 0.031 0.47247 0.0
C422 C 0.37602 0.02806 0.49057 0.0
C423 C 0.24162 0.93349 0.62612 0.0
C424 C 0.26648 0.94543 0.65212 0.0
C425 C 0.24646 0.94776 0.59128 0.0
C426 C 0.27615 0.97432 0.58197 0.0
C427 C 0.30081 0.98596 0.60793 0.0
C428 C 0.2961 0.97179 0.64231 0.0
C429 C 0.28246 0.99018 0.54531 0.0
C430 C 0.30934 0.9947 0.52574 0.0
C431 C 0.26345 1.0021 0.53029 0.0
C432 C 0.23546 0.99933 0.54999 0.0
C433 C 0.23883 0.01237 0.58524 0.0
C434 C 0.21223 0.00946 0.6037 0.0
C435 C 0.1822 0.99375 0.58706 0.0
C436 C 0.17871 0.98102 0.55187 0.0
C437 C 0.20522 0.98385 0.53331 0.0
H438 H 0.16163 0.9915 0.60139 0.0
H439 H 0.42067 0.02181 0.42278 0.0
H440 H 0.73004 0.80622 0.88512 0.0
H441 H 0.74626 0.79702 0.94578 0.0
H442 H 0.68528 0.69552 0.93137 0.0
H443 H 0.66849 0.70438 0.87213 0.0
H444 H 0.67784 0.71132 0.99697 0.0
H445 H 0.77017 0.73691 0.92011 0.0
H446 H 0.81691 0.77058 0.88166 0.0
H447 H 0.8555 0.84172 0.96621 0.0
H448 H 0.80893 0.80853 1.00521 0.0
H449 H 0.72465 0.64236 0.13445 0.0
H450 H 0.71499 0.65872 0.07452 0.0
H451 H 0.78799 0.75592 0.09702 0.0
H452 H 0.79945 0.73891 0.15541 0.0
H453 H 0.79026 0.74793 0.03013 0.0
H454 H 0.70143 0.7239 0.10826 0.0
H455 H 0.65696 0.69077 0.14993 0.0
H456 H 0.61204 0.62003 0.06564 0.0
H457 H 0.6564 0.6526 0.0236 0.0
C458 C 0.71983 0.78201 0.89516 0.0
C459 C 0.69782 0.75611 0.87367 0.0
C460 C 0.72939 0.77674 0.92967 0.0
C461 C 0.71724 0.74549 0.94313 0.0
C462 C 0.69502 0.71984 0.92181 0.0
C463 C 0.68543 0.72503 0.88771 0.0
C464 C 0.72672 0.73874 0.97951 0.0
C465 C 0.70246 0.7192 1.00407 0.0
C466 C 0.75885 0.74988 0.98962 0.0
C467 C 0.78591 0.77042 0.96537 0.0
C468 C 0.7884 0.75992 0.93029 0.0
C469 C 0.81492 0.77888 0.90844 0.0
C470 C 0.8391 0.80829 0.92142 0.0
C471 C 0.83673 0.81894 0.95618 0.0
C472 C 0.81031 0.80007 0.97818 0.0
C473 C 0.73907 0.66704 0.12608 0.0
C474 C 0.7629 0.68932 0.14933 0.0
C475 C 0.73323 0.67655 0.09208 0.0
C476 C 0.74994 0.70887 0.08152 0.0
C477 C 0.77459 0.7309 0.10434 0.0
C478 C 0.78122 0.72115 0.13771 0.0
C479 C 0.74131 0.71984 0.04726 0.0
C480 C 0.76566 0.74027 0.02324 0.0
C481 C 0.70926 0.70996 0.03783 0.0
C482 C 0.68232 0.6906 0.06289 0.0
C483 C 0.68211 0.70124 0.09867 0.0
C484 C 0.65692 0.68255 0.12235 0.0
C485 C 0.63172 0.65329 0.11046 0.0
C486 C 0.63158 0.6427 0.07482 0.0
C487 C 0.6567 0.66128 0.05104 0.0
H488 H 0.61227 0.63884 0.12884 0.0
H489 H 0.85981 0.8227 0.90472 0.0
H490 H 0.93574 0.21349 0.38896 0.0
H491 H 0.96298 0.2254 0.44848 0.0
H492 H 0.9904 0.32451 0.4365 0.0
H493 H 0.96265 0.31273 0.37741 0.0
H494 H 0.04191 0.31113 0.4567 0.0
H495 H 0.93636 0.2878 0.49477 0.0
H496 H 0.87774 0.25454 0.4968 0.0
H497 H 0.8859 0.17708 0.54252 0.0
H498 H 0.94459 0.20972 0.53974 0.0
H499 H 0.09486 0.37258 0.6362 0.0
H500 H 0.06798 0.35739 0.57657 0.0
H501 H 0.03185 0.25809 0.60183 0.0
H502 H 0.05894 0.27304 0.6612 0.0
H503 H 0.98494 0.26888 0.57429 0.0
H504 H 0.08857 0.2911 0.54163 0.0
H505 H 0.14726 0.32156 0.53921 0.0
H506 H 0.14387 0.39728 0.48171 0.0
H507 H 0.08508 0.36745 0.48429 0.0
C508 C 0.94718 0.23774 0.39924 0.0
C509 C 0.94672 0.2621 0.37862 0.0
C510 C 0.96282 0.24452 0.43317 0.0
C511 C 0.97877 0.27585 0.44683 0.0
C512 C 0.97827 0.30018 0.42641 0.0
C513 C 0.96212 0.29333 0.39282 0.0
C514 C 0.99612 0.28327 0.48234 0.0
C515 C 0.02947 0.30231 0.48249 0.0
C516 C 0.97998 0.27077 0.51576 0.0
C517 C 0.94478 0.25115 0.51721 0.0
C518 C 0.92562 0.26361 0.50505 0.0
C519 C 0.8924 0.24488 0.50628 0.0
C520 C 0.87809 0.21372 0.51982 0.0
C521 C 0.89699 0.20123 0.5321 0.0
C522 C 0.93022 0.21984 0.53077 0.0
C523 C 0.08154 0.34754 0.62889 0.0
C524 C 0.07932 0.32409 0.6534 0.0
C525 C 0.06615 0.33888 0.5948 0.0
C526 C 0.04795 0.30658 0.58466 0.0
C527 C 0.04576 0.28313 0.60902 0.0
C528 C 0.06151 0.29179 0.64287 0.0
C529 C 0.03083 0.29739 0.54887 0.0
C530 C 0.99749 0.27784 0.54859 0.0
C531 C 0.04707 0.30911 0.51525 0.0
C532 C 0.08241 0.32718 0.51351 0.0
C533 C 0.10033 0.31438 0.52876 0.0
C534 C 0.13362 0.3315 0.52731 0.0
C535 C 0.14929 0.36138 0.51041 0.0
C536 C 0.13169 0.37415 0.49485 0.0
C537 C 0.09838 0.35713 0.49627 0.0
H538 H 0.17507 0.37461 0.5093 0.0
H539 H 0.85237 0.19927 0.52078 0.0
H540 H 0.55929 0.12094 0.32001 0.0
H541 H 0.61716 0.14401 0.32086 0.0
H542 H 0.62192 0.17339 0.20836 0.0
H543 H 0.56397 0.15005 0.20726 0.0
H544 H 0.65846 0.14827 0.21722 0.0
H545 H 0.64565 0.22741 0.28152 0.0
H546 H 0.62434 0.24829 0.32853 0.0
H547 H 0.66315 0.21611 0.4134 0.0
H548 H 0.68435 0.19465 0.36689 0.0
H549 H 0.82844 0.2544 0.21775 0.0
H550 H 0.771 0.23582 0.21627 0.0
H551 H 0.75894 0.18645 0.31851 0.0
H552 H 0.8159 0.20421 0.31977 0.0
H553 H 0.72705 0.2237 0.31382 0.0
H554 H 0.73797 0.14305 0.24906 0.0
H555 H 0.75967 0.12273 0.20189 0.0
H556 H 0.72472 0.15915 0.11734 0.0
H557 H 0.70322 0.18013 0.16408 0.0
C558 C 0.57268 0.13264 0.29557 0.0
C559 C 0.55695 0.13371 0.26359 0.0
C560 C 0.60583 0.14585 0.29608 0.0
C561 C 0.6241 0.16087 0.2648 0.0
C562 C 0.60843 0.16194 0.23284 0.0
C563 C 0.57526 0.14854 0.23223 0.0
C564 C 0.65941 0.17478 0.26514 0.0
C565 C 0.67345 0.16518 0.23802 0.0
C566 C 0.6791 0.19636 0.29267 0.0
C567 C 0.66632 0.20916 0.32072 0.0
C568 C 0.64942 0.22456 0.31022 0.0
C569 C 0.6374 0.23654 0.33677 0.0
C570 C 0.64232 0.23346 0.37393 0.0
C571 C 0.65933 0.21844 0.38461 0.0
C572 C 0.67137 0.20639 0.35816 0.0
C573 C 0.81356 0.23982 0.24003 0.0
C574 C 0.82668 0.23073 0.26883 0.0
C575 C 0.78078 0.22912 0.23908 0.0
C576 C 0.76074 0.20968 0.26724 0.0
C577 C 0.77398 0.20145 0.29654 0.0
C578 C 0.80653 0.21157 0.29714 0.0
C579 C 0.72583 0.19724 0.26591 0.0
C580 C 0.71195 0.20701 0.2929 0.0
C581 C 0.70632 0.17595 0.23821 0.0
C582 C 0.71937 0.16354 0.21007 0.0
C583 C 0.73524 0.14705 0.22042 0.0
C584 C 0.74742 0.13533 0.19376 0.0
C585 C 0.74368 0.13974 0.15664 0.0
C586 C 0.72767 0.15582 0.14611 0.0
C587 C 0.71547 0.16762 0.17267 0.0
H588 H 0.7531 0.13062 0.13603 0.0
H589 H 0.63302 0.24277 0.39444 0.0
H590 H 0.55075 0.46749 0.27139 0.0
H591 H 0.51631 0.40978 0.27139 0.0
H592 H 0.59814 0.39793 0.25638 0.0
H593 H 0.63271 0.45588 0.25408 0.0
H594 H 0.55085 0.35658 0.21527 0.0
H595 H 0.56102 0.38716 0.34156 0.0
H596 H 0.55953 0.41784 0.3947 0.0
H597 H 0.45975 0.38246 0.37641 0.0
H598 H 0.46073 0.35188 0.32285 0.0
H599 H 0.46277 0.19015 0.26857 0.0
H600 H 0.50241 0.24753 0.26998 0.0
H601 H 0.42697 0.26997 0.26043 0.0
H602 H 0.3876 0.21318 0.25814 0.0
H603 H 0.47375 0.3048 0.31662 0.0
H604 H 0.46477 0.27753 0.18843 0.0
H605 H 0.46587 0.24669 0.13526 0.0
H606 H 0.56367 0.27561 0.15822 0.0
H607 H 0.56298 0.30628 0.21191 0.0
C608 C 0.56149 0.45273 0.26747 0.0
C609 C 0.59464 0.46653 0.26277 0.0
C610 C 0.54174 0.41962 0.26803 0.0
C611 C 0.55465 0.39941 0.26466 0.0
C612 C 0.58762 0.413 0.25934 0.0
C613 C 0.60741 0.44619 0.25839 0.0
C614 C 0.53365 0.36414 0.26659 0.0
C615 C 0.53445 0.34526 0.23781 0.0
C616 C 0.51177 0.34925 0.29565 0.0
C617 C 0.51102 0.36741 0.32803 0.0
C618 C 0.53881 0.38607 0.34874 0.0
C619 C 0.53804 0.40343 0.37895 0.0
C620 C 0.50958 0.40215 0.38888 0.0
C621 C 0.48179 0.38344 0.36867 0.0
C622 C 0.48242 0.36606 0.33842 0.0
C623 C 0.45475 0.20738 0.26685 0.0
C624 C 0.42216 0.19723 0.26301 0.0
C625 C 0.47734 0.24006 0.26758 0.0
C626 C 0.46754 0.2629 0.26525 0.0
C627 C 0.43499 0.25272 0.26228 0.0
C628 C 0.41257 0.22025 0.26078 0.0
C629 C 0.49101 0.29753 0.26535 0.0
C630 C 0.49054 0.31621 0.29442 0.0
C631 C 0.51322 0.31219 0.23669 0.0
C632 C 0.5137 0.29383 0.20445 0.0
C633 C 0.48641 0.27704 0.18237 0.0
C634 C 0.48697 0.25965 0.15209 0.0
C635 C 0.51479 0.25909 0.14344 0.0
C636 C 0.54212 0.27601 0.16501 0.0
C637 C 0.54166 0.2934 0.19535 0.0
H638 H 0.51519 0.24564 0.11997 0.0
H639 H 0.50904 0.41561 0.41228 0.0
H640 H 0.93192 0.46996 0.28786 0.0
H641 H 0.90905 0.5049 0.28842 0.0
H642 H 0.8205 0.42847 0.24593 0.0
H643 H 0.84303 0.39306 0.24581 0.0
H644 H 0.83809 0.48467 0.21079 0.0
H645 H 0.82642 0.44903 0.33529 0.0
H646 H 0.84444 0.43883 0.39441 0.0
H647 H 0.91116 0.53892 0.40654 0.0
H648 H 0.89383 0.54967 0.34723 0.0
H649 H 0.7515 0.56636 0.24362 0.0
H650 H 0.7689 0.52669 0.24359 0.0
H651 H 0.85869 0.5957 0.29182 0.0
H652 H 0.84137 0.63511 0.29256 0.0
H653 H 0.83715 0.54024 0.32457 0.0
H654 H 0.85128 0.57598 0.19948 0.0
H655 H 0.83463 0.58691 0.13985 0.0
H656 H 0.76467 0.48768 0.12833 0.0
H657 H 0.78065 0.47623 0.18815 0.0
C658 C 0.90742 0.46034 0.27909 0.0
C659 C 0.8893 0.42851 0.26706 0.0
C660 C 0.89441 0.48045 0.27929 0.0
C661 C 0.86291 0.46924 0.2676 0.0
C662 C 0.84485 0.43766 0.25507 0.0
C663 C 0.85784 0.41747 0.25493 0.0
C664 C 0.84898 0.49058 0.26846 0.0
C665 C 0.8374 0.49642 0.23578 0.0
C666 C 0.84866 0.50647 0.30089 0.0
C667 C 0.859 0.50011 0.33668 0.0
C668 C 0.84509 0.46884 0.35045 0.0
C669 C 0.85515 0.46296 0.38401 0.0
C670 C 0.87897 0.4882 0.40418 0.0
C671 C 0.89272 0.51939 0.39087 0.0
C672 C 0.88276 0.52539 0.3573 0.0
C673 C 0.77492 0.57306 0.25428 0.0
C674 C 0.79502 0.60398 0.26805 0.0
C675 C 0.78491 0.55039 0.25409 0.0
C676 C 0.81528 0.55826 0.26735 0.0
C677 C 0.83516 0.58898 0.28147 0.0
C678 C 0.82519 0.61156 0.2818 0.0
C679 C 0.82653 0.53465 0.26679 0.0
C680 C 0.83763 0.52835 0.29958 0.0
C681 C 0.82653 0.51849 0.23442 0.0
C682 C 0.81691 0.52532 0.19846 0.0
C683 C 0.83217 0.55654 0.18436 0.0
C684 C 0.82289 0.56282 0.15051 0.0
C685 C 0.79854 0.53802 0.13037 0.0
C686 C 0.78348 0.50687 0.144 0.0
C687 C 0.79266 0.50047 0.17785 0.0
H688 H 0.79139 0.54293 0.10417 0.0
H689 H 0.88674 0.4836 0.43016 0.0
H690 H 0.12516 0.55432 0.81738 0.0
H691 H 0.14817 0.61227 0.81744 0.0
H692 H 0.1769 0.61619 0.70499 0.0
H693 H 0.15449 0.55819 0.70494 0.0
H694 H 0.22399 0.66458 0.74762 0.0
H695 H 0.11101 0.61969 0.72475 0.0
H696 H 0.05396 0.58478 0.73858 0.0
H697 H 0.06657 0.63198 0.84199 0.0
H698 H 0.1238 0.66688 0.82898 0.0
H699 H 0.2572 0.82346 0.71185 0.0
H700 H 0.23857 0.76611 0.71033 0.0
H701 H 0.19108 0.75448 0.8139 0.0
H702 H 0.20795 0.81114 0.81419 0.0
H703 H 0.15358 0.70924 0.77412 0.0
H704 H 0.26479 0.75305 0.80093 0.0
H705 H 0.32251 0.78813 0.79099 0.0
H706 H 0.31503 0.74353 0.68692 0.0
H707 H 0.25718 0.70853 0.69598 0.0
C708 C 0.13671 0.56751 0.79277 0.0
C709 C 0.13787 0.55154 0.7611 0.0
C710 C 0.14966 0.60064 0.79278 0.0
C711 C 0.16398 0.61856 0.7611 0.0
C712 C 0.16588 0.60285 0.72971 0.0
C713 C 0.15282 0.56966 0.72963 0.0
C714 C 0.1762 0.65356 0.76047 0.0
C715 C 0.20858 0.67441 0.75301 0.0
C716 C 0.15627 0.66641 0.76844 0.0
C717 C 0.12174 0.64572 0.77601 0.0
C718 C 0.10165 0.62249 0.75053 0.0
C719 C 0.06928 0.60273 0.75821 0.0
C720 C 0.05666 0.60612 0.79117 0.0
C721 C 0.07637 0.62936 0.81648 0.0
C722 C 0.10877 0.64916 0.80895 0.0
C723 C 0.24304 0.80862 0.73438 0.0
C724 C 0.23409 0.82174 0.76315 0.0
C725 C 0.23246 0.77583 0.73362 0.0
C726 C 0.21366 0.75575 0.76227 0.0
C727 C 0.20537 0.76919 0.79134 0.0
C728 C 0.21519 0.80168 0.7916 0.0
C729 C 0.20169 0.72066 0.76173 0.0
C730 C 0.16921 0.69965 0.76884 0.0
C731 C 0.22172 0.70775 0.75417 0.0
C732 C 0.25661 0.72836 0.749 0.0
C733 C 0.27544 0.75084 0.77584 0.0
C734 C 0.30817 0.7707 0.77037 0.0
C735 C 0.32241 0.76809 0.73832 0.0
C736 C 0.30396 0.74554 0.71172 0.0
C737 C 0.27121 0.72567 0.71702 0.0
H738 H 0.34775 0.78349 0.7341 0.0
H739 H 0.0316 0.59078 0.79708 0.0
H740 H 0.47481 0.92852 0.76994 0.0
H741 H 0.50919 0.90512 0.76777 0.0
H742 H 0.42658 0.8108 0.76597 0.0
H743 H 0.39176 0.83408 0.76739 0.0
H744 H 0.47401 0.81598 0.81395 0.0
H745 H 0.46656 0.8417 0.68815 0.0
H746 H 0.46952 0.87687 0.63754 0.0
H747 H 0.5684 0.94077 0.66159 0.0
H748 H 0.56592 0.90618 0.71265 0.0
H749 H 0.5657 0.74143 0.77107 0.0
H750 H 0.52562 0.75828 0.77188 0.0
H751 H 0.59952 0.85582 0.75397 0.0
H752 H 0.63918 0.83893 0.75149 0.0
H753 H 0.55273 0.84539 0.71369 0.0
H754 H 0.56133 0.82456 0.84078 0.0
H755 H 0.56036 0.79252 0.89387 0.0
H756 H 0.46262 0.7235 0.87091 0.0
H757 H 0.46313 0.75497 0.81742 0.0
C758 C 0.4638 0.90279 0.76863 0.0
C759 C 0.43038 0.88326 0.76836 0.0
C760 C 0.48357 0.88944 0.76757 0.0
C761 C 0.4705 0.85622 0.76621 0.0
C762 C 0.4372 0.83652 0.76693 0.0
C763 C 0.41733 0.84989 0.76786 0.0
C764 C 0.49178 0.8423 0.76377 0.0
C765 C 0.4909 0.82196 0.79174 0.0
C766 C 0.51438 0.85076 0.73529 0.0
C767 C 0.51598 0.87145 0.70438 0.0
C768 C 0.48888 0.86335 0.68279 0.0
C769 C 0.49048 0.88317 0.654 0.0
C770 C 0.51911 0.91106 0.6464 0.0
C771 C 0.54623 0.91916 0.66752 0.0
C772 C 0.54475 0.89943 0.69635 0.0
C773 C 0.57333 0.76645 0.76731 0.0
C774 C 0.60561 0.7888 0.76111 0.0
C775 C 0.55042 0.77613 0.768 0.0
C776 C 0.55945 0.80847 0.76344 0.0
C777 C 0.59176 0.83073 0.7574 0.0
C778 C 0.61449 0.82102 0.75605 0.0
C779 C 0.53551 0.81938 0.76429 0.0
C780 C 0.5358 0.83917 0.7359 0.0
C781 C 0.51276 0.81082 0.79272 0.0
C782 C 0.51238 0.79193 0.82489 0.0
C783 C 0.53971 0.80243 0.84692 0.0
C784 C 0.53922 0.7844 0.8771 0.0
C785 C 0.51147 0.75594 0.8857 0.0
C786 C 0.48411 0.74551 0.86419 0.0
C787 C 0.48448 0.76345 0.83396 0.0
H788 H 0.51115 0.74201 0.90907 0.0
H789 H 0.5203 0.92638 0.62411 0.0
H790 H 0.21553 0.38515 0.74807 0.0
H791 H 0.27198 0.42514 0.75019 0.0
H792 H 0.24849 0.49596 0.7854 0.0
H793 H 0.19148 0.45561 0.78422 0.0
H794 H 0.30322 0.48398 0.71041 0.0
H795 H 0.28574 0.52739 0.83737 0.0
H796 H 0.25792 0.5108 0.89686 0.0
H797 H 0.28257 0.43719 0.9059 0.0
H798 H 0.31 0.45309 0.84614 0.0
H799 H 0.4582 0.61893 0.72783 0.0
H800 H 0.40031 0.58421 0.72921 0.0
H801 H 0.41047 0.52335 0.80793 0.0
H802 H 0.46839 0.5578 0.80652 0.0
H803 H 0.36158 0.53127 0.82639 0.0
H804 H 0.3968 0.5024 0.71844 0.0
H805 H 0.42452 0.51082 0.65942 0.0
H806 H 0.36638 0.54563 0.61219 0.0
H807 H 0.3386 0.53784 0.67114 0.0
C808 C 0.22224 0.40921 0.75636 0.0
C809 C 0.19894 0.41721 0.76596 0.0
C810 C 0.25459 0.43203 0.75757 0.0
C811 C 0.26448 0.46342 0.76832 0.0
C812 C 0.24139 0.47168 0.7778 0.0
C813 C 0.20884 0.44868 0.77691 0.0
C814 C 0.29903 0.48736 0.76869 0.0
C815 C 0.31595 0.49486 0.73562 0.0
C816 C 0.31579 0.50054 0.80166 0.0
C817 C 0.29959 0.49123 0.83743 0.0
C818 C 0.28507 0.50762 0.85208 0.0
C819 C 0.26935 0.49831 0.88575 0.0
C820 C 0.26843 0.47292 0.90512 0.0
C821 C 0.2832 0.45677 0.89083 0.0
C822 C 0.29873 0.46585 0.85704 0.0
C823 C 0.44817 0.59808 0.74532 0.0
C824 C 0.46805 0.59111 0.76691 0.0
C825 C 0.41502 0.57829 0.74616 0.0
C826 C 0.401 0.55097 0.76842 0.0
C827 C 0.4207 0.54434 0.79064 0.0
C828 C 0.45385 0.56414 0.78985 0.0
C829 C 0.3659 0.52886 0.7678 0.0
C830 C 0.34891 0.52123 0.80091 0.0
C831 C 0.34917 0.51509 0.73477 0.0
C832 C 0.36589 0.51991 0.69933 0.0
C833 C 0.39013 0.51213 0.69557 0.0
C834 C 0.40581 0.51674 0.66211 0.0
C835 C 0.39729 0.52886 0.63211 0.0
C836 C 0.373 0.53632 0.63548 0.0
C837 C 0.35727 0.5318 0.6689 0.0
H838 H 0.40945 0.53239 0.60622 0.0
H839 H 0.25631 0.46579 0.93122 0.0
H840 H 0.16726 0.15076 0.32829 0.0
H841 H 0.13183 0.17337 0.32903 0.0
H842 H 0.15671 0.20382 0.21695 0.0
H843 H 0.19234 0.18168 0.21618 0.0
H844 H 0.16004 0.25125 0.2591 0.0
H845 H 0.08578 0.14261 0.2347 0.0
H846 H 0.05743 0.0842 0.24249 0.0
H847 H 0.02397 0.09374 0.34793 0.0
H848 H 0.05258 0.15232 0.34103 0.0
H849 H 0.02762 0.27421 0.21624 0.0
H850 H 0.07062 0.26168 0.22005 0.0
H851 H 0.05014 0.23915 0.33465 0.0
H852 H 1.00725 0.25208 0.33078 0.0
H853 H 0.04554 0.18902 0.29199 0.0
H854 H 0.12019 0.30081 0.31109 0.0
H855 H 0.14591 0.35812 0.29635 0.0
H856 H 0.17563 0.34084 0.19228 0.0
H857 H 0.1497 0.28332 0.20619 0.0
C858 C 0.16501 0.16215 0.3038 0.0
C859 C 0.18241 0.16429 0.27214 0.0
C860 C 0.14471 0.17492 0.30418 0.0
C861 C 0.14162 0.1902 0.273 0.0
C862 C 0.15877 0.19215 0.2413 0.0
C863 C 0.17886 0.17919 0.2408 0.0
C864 C 0.12113 0.20489 0.27372 0.0
C865 C 0.13493 0.2376 0.26599 0.0
C866 C 0.08845 0.1871 0.28293 0.0
C867 C 0.07172 0.15191 0.28758 0.0
C868 C 0.07273 0.1323 0.25977 0.0
C869 C 0.05653 0.09915 0.26397 0.0
C870 C 0.03901 0.08528 0.29575 0.0
C871 C 0.03763 0.10454 0.32337 0.0
C872 C 0.05384 0.13772 0.31933 0.0
C873 C 0.03338 0.26815 0.24255 0.0
C874 C 0.01479 0.2648 0.2734 0.0
C875 C 0.05778 0.26075 0.2447 0.0
C876 C 0.06352 0.24948 0.27765 0.0
C877 C 0.04614 0.24795 0.30904 0.0
C878 C 0.02196 0.25566 0.30694 0.0
C879 C 0.08458 0.23547 0.27807 0.0
C880 C 0.07076 0.20276 0.28563 0.0
C881 C 0.11701 0.25311 0.2679 0.0
C882 C 0.13279 0.28772 0.25958 0.0
C883 C 0.132 0.30919 0.28494 0.0
C884 C 0.14666 0.34172 0.27676 0.0
C885 C 0.16234 0.35311 0.24337 0.0
C886 C 0.16346 0.33198 0.21813 0.0
C887 C 0.14883 0.29942 0.22617 0.0
H888 H 0.17368 0.3783 0.23709 0.0
H889 H 0.02642 0.0596 0.29891 0.0
H890 H 0.01526 0.80086 0.29275 0.0
H891 H 0.0731 0.83567 0.28953 0.0
H892 H 0.06034 0.90022 0.21908 0.0
H893 H 1.00247 0.86472 0.22123 0.0
H894 H 0.10607 0.89332 0.19371 0.0
H895 H 0.08063 0.91652 0.31148 0.0
H896 H 0.05738 0.90547 0.37343 0.0
H897 H 0.11528 0.86492 0.40412 0.0
H898 H 0.1386 0.87536 0.34216 0.0
H899 H 0.24917 0.03575 0.22125 0.0
H900 H 0.19581 0.99029 0.21613 0.0
H901 H 0.22493 0.93277 0.27759 0.0
H902 H 0.27902 0.97947 0.28389 0.0
H903 H 0.17273 0.93121 0.30603 0.0
H904 H 0.20129 0.91563 0.18334 0.0
H905 H 0.22512 0.93476 0.12244 0.0
H906 H 0.16184 0.97138 0.10292 0.0
H907 H 0.13724 0.95195 0.16351 0.0
C908 C 0.02491 0.8226 0.27678 0.0
C909 C 1.00461 0.83028 0.25732 0.0
C910 C 0.05788 0.84248 0.27499 0.0
C911 C 0.07107 0.87076 0.25441 0.0
C912 C 0.05072 0.87848 0.23503 0.0
C913 C 0.01774 0.8583 0.23632 0.0
C914 C 0.10608 0.89212 0.25276 0.0
C915 C 0.1206 0.90168 0.2183 0.0
C916 C 0.12515 0.90281 0.2848 0.0
C917 C 0.11107 0.89635 0.32204 0.0
C918 C 0.08819 0.90497 0.33133 0.0
C919 C 0.07504 0.89888 0.36647 0.0
C920 C 0.08476 0.8844 0.39266 0.0
C921 C 0.10772 0.87607 0.38378 0.0
C922 C 0.12093 0.88208 0.34867 0.0
C923 C 0.2444 0.01318 0.23299 0.0
C924 C 0.26791 0.01091 0.2531 0.0
C925 C 0.21395 0.9871 0.22972 0.0
C926 C 0.20644 0.95795 0.24597 0.0
C927 C 0.2304 0.95506 0.26458 0.0
C928 C 0.2612 0.9815 0.26798 0.0
C929 C 0.17268 0.93224 0.24705 0.0
C930 C 0.15828 0.9221 0.28146 0.0
C931 C 0.1536 0.92184 0.21502 0.0
C932 C 0.16747 0.93235 0.17796 0.0
C933 C 0.19244 0.92772 0.16603 0.0
C934 C 0.20611 0.93866 0.13157 0.0
C935 C 0.19522 0.95454 0.10892 0.0
C936 C 0.17028 0.95909 0.12048 0.0
C937 C 0.1563 0.9479 0.15476 0.0
H938 H 0.20604 0.96322 0.08238 0.0
H939 H 0.07457 0.87971 0.41985 0.0
H940 H 0.87173 0.01895 0.2091 0.0
H941 H 0.84799 0.96078 0.20917 0.0
H942 H 0.8103 0.95651 0.3173 0.0
H943 H 0.83451 0.01454 0.31767 0.0
H944 H 0.83187 0.91559 0.31189 0.0
H945 H 0.76383 0.94099 0.23784 0.0
H946 H 0.75362 0.96839 0.18703 0.0
H947 H 0.78636 0.92429 0.10969 0.0
H948 H 0.79712 0.89694 0.16008 0.0
H949 H 0.73477 0.74845 0.30785 0.0
H950 H 0.74548 0.80373 0.31064 0.0
H951 H 0.78405 0.82006 0.20114 0.0
H952 H 0.77246 0.76507 0.198 0.0
H953 H 0.75782 0.8545 0.21055 0.0
H954 H 0.83201 0.83506 0.27896 0.0
H955 H 0.84661 0.80803 0.32612 0.0
H956 H 0.80747 0.84076 0.40971 0.0
H957 H 0.79241 0.8678 0.36294 0.0
C958 C 0.85853 1.00557 0.23292 0.0
C959 C 0.85492 0.02128 0.26331 0.0
C960 C 0.8449 0.97235 0.23293 0.0
C961 C 0.82679 0.95419 0.26298 0.0
C962 C 0.82408 0.96997 0.2938 0.0
C963 C 0.83801 1.00316 0.29399 0.0
C964 C 0.80976 0.91873 0.26193 0.0
C965 C 0.81528 0.90222 0.29004 0.0
C966 C 0.78862 0.90122 0.23304 0.0
C967 C 0.78141 0.91707 0.20273 0.0
C968 C 0.76892 0.93722 0.21 0.0
C969 C 0.76306 0.95275 0.18128 0.0
C970 C 0.76938 0.94812 0.14516 0.0
C971 C 0.78147 0.92786 0.13767 0.0
C972 C 0.78741 0.9123 0.16628 0.0
C973 C 0.74414 0.76352 0.28387 0.0
C974 C 0.75294 0.75273 0.25275 0.0
C975 C 0.75073 0.7952 0.28565 0.0
C976 C 0.76642 0.81632 0.25645 0.0
C977 C 0.77217 0.80441 0.22411 0.0
C978 C 0.76551 0.77293 0.2223 0.0
C979 C 0.78006 0.85135 0.26033 0.0
C980 C 0.774 0.86783 0.23272 0.0
C981 C 0.80125 0.86885 0.28922 0.0
C982 C 0.81087 0.85322 0.31746 0.0
C983 C 0.82646 0.83643 0.3074 0.0
C984 C 0.83484 0.82114 0.33404 0.0
C985 C 0.828 0.82272 0.37089 0.0
C986 C 0.8128 0.83962 0.38116 0.0
C987 C 0.80437 0.85496 0.35461 0.0
H988 H 0.83446 0.81082 0.39147 0.0
H989 H 0.76487 0.9602 0.12297 0.0
H990 H 0.12999 0.14146 0.76501 0.0
H991 H 0.15236 0.10599 0.76026 0.0
H992 H 0.24508 0.18392 0.78993 0.0
H993 H 0.22327 0.21964 0.79345 0.0
H994 H 0.2487 0.15059 0.73244 0.0
H995 H 0.19793 0.12649 0.85249 0.0
H996 H 0.152 0.10965 0.89378 0.0
H997 H 0.10078 0.02058 0.83615 0.0
H998 H 0.14627 0.03708 0.79426 0.0
H999 H 0.27824 0.01917 0.82189 0.0
H1000 H 0.26608 0.06282 0.82344 0.0
H1001 H 0.24701 0.05228 0.70751 0.0
H1002 H 0.25929 0.00903 0.7057 0.0
H1003 H 0.20792 0.05294 0.80845 0.0
H1004 H 0.25456 0.12009 0.67295 0.0
H1005 H 0.29901 0.13481 0.62995 0.0
H1006 H 0.35849 0.13685 0.7186 0.0
H1007 H 0.31449 0.12243 0.76215 0.0
C1008 C 0.15514 0.15102 0.77048 0.0
C1009 C 0.17476 0.18331 0.78001 0.0
C1010 C 0.16784 0.1307 0.76792 0.0
C1011 C 0.20034 0.1423 0.77502 0.0
C1012 C 0.21994 0.17448 0.78441 0.0
C1013 C 0.20731 0.19476 0.7869 0.0
C1014 C 0.21415 0.12107 0.77294 0.0
C1015 C 0.23982 0.12925 0.74908 0.0
C1016 C 0.20249 0.09319 0.79454 0.0
C1017 C 0.17539 0.08313 0.82009 0.0
C1018 C 0.1768 0.10339 0.84853 0.0
C1019 C 0.15086 0.0939 0.87205 0.0
C1020 C 0.12347 0.06409 0.86754 0.0
C1021 C 0.122 0.04367 0.83959 0.0
C1022 C 0.14786 0.05307 0.81599 0.0
C1023 C 0.27311 0.02741 0.79652 0.0
C1024 C 0.27033 0.01146 0.76353 0.0
C1025 C 0.26576 0.05191 0.79756 0.0
C1026 C 0.25578 0.0608 0.76575 0.0
C1027 C 0.25512 0.04621 0.73231 0.0
C1028 C 0.26232 0.02167 0.73125 0.0
C1029 C 0.24277 0.08269 0.76832 0.0
C1030 C 0.21699 0.07441 0.79198 0.0
C1031 C 0.25422 0.11035 0.74641 0.0
C1032 C 0.28119 0.12006 0.72074 0.0
C1033 C 0.27721 0.12392 0.68328 0.0
C1034 C 0.30229 0.13212 0.65881 0.0
C1035 C 0.33154 0.13671 0.67153 0.0
C1036 C 0.3358 0.13321 0.70877 0.0
C1037 C 0.31079 0.12499 0.73335 0.0
H1038 H 0.35091 0.14301 0.65253 0.0
H1039 H 0.1034 0.0568 0.88575 0.0
H1040 H 1.01204 0.80297 0.7838 0.0
H1041 H 0.95464 0.78175 0.78027 0.0
H1042 H 0.97042 0.87217 0.73933 0.0
H1043 H 0.0282 0.89396 0.74377 0.0
H1044 H 0.92338 0.84932 0.78681 0.0
H1045 H 0.94776 0.81122 0.68144 0.0
H1046 H 0.97101 0.78665 0.64227 0.0
H1047 H 0.91463 0.69686 0.69666 0.0
H1048 H 0.89141 0.72104 0.73664 0.0
H1049 H 0.75709 0.74743 0.70339 0.0
H1050 H 0.81355 0.76256 0.70027 0.0
H1051 H 0.81981 0.76744 0.81779 0.0
H1052 H 0.76387 0.75382 0.82125 0.0
H1053 H 0.8558 0.74609 0.72323 0.0
H1054 H 0.88334 0.83798 0.84181 0.0
H1055 H 0.85884 0.86782 0.86778 0.0
H1056 H 0.81176 0.86032 0.7654 0.0
H1057 H 0.83637 0.83103 0.73869 0.0
C1058 C 1.00338 0.81858 0.77463 0.0
C1059 C 0.02476 0.85023 0.76419 0.0
C1060 C 0.97051 0.80626 0.77219 0.0
C1061 C 0.9582 0.8252 0.75904 0.0
C1062 C 0.97939 0.85706 0.7494 0.0
C1063 C 1.01238 0.86943 0.75177 0.0
C1064 C 0.92317 0.81148 0.75543 0.0
C1065 C 0.90866 0.82673 0.773 0.0
C1066 C 0.90396 0.78276 0.73589 0.0
C1067 C 0.91812 0.76806 0.71236 0.0
C1068 C 0.94058 0.78632 0.68535 0.0
C1069 C 0.9537 0.77245 0.66294 0.0
C1070 C 0.94437 0.74024 0.66705 0.0
C1071 C 0.92187 0.72183 0.69356 0.0
C1072 C 0.90871 0.73561 0.71611 0.0
C1073 C 0.77016 0.75021 0.72857 0.0
C1074 C 0.75631 0.74918 0.76259 0.0
C1075 C 0.80237 0.75898 0.72669 0.0
C1076 C 0.82086 0.76658 0.75868 0.0
C1077 C 0.80599 0.76213 0.79282 0.0
C1078 C 0.77403 0.75397 0.79477 0.0
C1079 C 0.85613 0.783 0.75641 0.0
C1080 C 0.87061 0.76849 0.73736 0.0
C1081 C 0.87541 0.81331 0.7728 0.0
C1082 C 0.8614 0.83191 0.78845 0.0
C1083 C 0.86787 0.84283 0.82483 0.0
C1084 C 0.85395 0.85963 0.83967 0.0
C1085 C 0.83363 0.86581 0.81832 0.0
C1086 C 0.82738 0.85541 0.78198 0.0
C1087 C 0.84131 0.8387 0.767 0.0
H1088 H 0.82281 0.87874 0.82988 0.0
H1089 H 0.95452 0.72952 0.64962 0.0
H1090 H 0.03501 0.24147 0.72251 0.0
H1091 H 0.99046 0.18737 0.72377 0.0
H1092 H 0.9379 0.21775 0.79222 0.0
H1093 H 0.98393 0.2726 0.79216 0.0
H1094 H 0.93866 0.16754 0.82079 0.0
H1095 H 0.91461 0.19041 0.70037 0.0
H1096 H 0.92971 0.21254 0.63799 0.0
H1097 H 0.962 0.14646 0.61405 0.0
H1098 H 0.94751 0.12419 0.67632 0.0
H1099 H 0.80894 1.00532 0.81141 0.0
H1100 H 0.84213 0.0633 0.8084 0.0
H1101 H 0.9127 0.05369 0.74676 0.0
H1102 H 0.8803 0.99563 0.75078 0.0
H1103 H 0.89528 0.09459 0.71402 0.0
H1104 H 0.9294 0.07823 0.83098 0.0
H1105 H 0.92378 0.05884 0.89449 0.0
H1106 H 0.87955 0.11339 0.92488 0.0
H1107 H 0.88452 0.13278 0.86135 0.0
C1108 C 0.01355 0.23683 0.73688 0.0
C1109 C 1.01261 0.26106 0.75693 0.0
C1110 C 0.98797 0.20586 0.73747 0.0
C1111 C 0.96048 0.19845 0.75754 0.0
C1112 C 0.95878 0.22303 0.77624 0.0
C1113 C 0.98478 0.25433 0.77587 0.0
C1114 C 0.93555 0.16444 0.76187 0.0
C1115 C 0.92834 0.15174 0.79743 0.0
C1116 C 0.92313 0.1436 0.73137 0.0
C1117 C 0.92997 0.15564 0.69311 0.0
C1118 C 0.92486 0.18055 0.68178 0.0
C1119 C 0.93338 0.19316 0.64646 0.0
C1120 C 0.94687 0.18095 0.62216 0.0
C1121 C 0.95153 0.15586 0.63292 0.0
C1122 C 0.94306 0.14316 0.66818 0.0
C1123 C 0.8319 0.01541 0.79807 0.0
C1124 C 0.84185 0.99564 0.78127 0.0
C1125 C 0.85071 0.04863 0.79611 0.0
C1126 C 0.87973 0.06274 0.77716 0.0
C1127 C 0.89019 0.04321 0.76122 0.0
C1128 C 0.87159 0.01002 0.7635 0.0
C1129 C 0.89872 0.09786 0.77284 0.0
C1130 C 0.90482 0.11059 0.73732 0.0
C1131 C 0.91053 0.11867 0.80329 0.0
C1132 C 0.90687 0.10656 0.8413 0.0
C1133 C 0.91809 0.08577 0.8511 0.0
C1134 C 0.91513 0.07486 0.88712 0.0
C1135 C 0.90119 0.08477 0.91368 0.0
C1136 C 0.89021 0.10562 0.90424 0.0
C1137 C 0.89309 0.11658 0.86823 0.0
H1138 H 0.89899 0.07638 0.94158 0.0
H1139 H 0.95385 0.19097 0.59505 0.0
loop_
_geom_bond_atom_site_label_1
_geom_bond_atom_site_label_2
_geom_bond_distance
_geom_bond_site_symmetry_2
_ccdc_geom_bond_type
Eu0 C9 2.828 . S
Eu0 O11 2.392 . S
Eu0 O13 2.418 . S
Eu0 O18 2.373 . S
Eu0 O21 2.488 . S
Eu0 O22 2.471 . S
Eu0 O23 2.349 . S
Eu1 O10 2.373 . S
Eu1 O14 2.488 . S
Eu1 O15 2.471 . S
Eu1 O16 2.349 . S
Eu1 O19 2.392 . S
Eu1 O20 2.418 . S
Eu1 C30 2.828 . S
C2 O20 1.244 . S
C2 O23 1.265 . S
C3 C4 1.379 . S
C3 C7 1.373 . S
C3 C9 1.505 . S
C4 C3 1.379 . S
C4 C6 1.369 . S
C4 H32 0.930 . S
C5 C7 1.383 . S
C5 C8 1.382 . S
C5 H33 0.930 . S
C6 C4 1.369 . S
C6 C8 1.392 . S
C6 H34 0.930 . S
C7 C3 1.373 . S
C7 C5 1.383 . S
C7 H35 0.931 . S
C8 C5 1.382 . S
C8 C6 1.392 . S
C9 Eu0 2.828 . S
C9 C3 1.505 . S
C9 O21 1.249 . S
C9 O22 1.244 . S
O10 Eu1 2.373 . S
O10 C12 1.258 . S
O11 Eu0 2.392 . S
O11 C12 1.242 . S
C12 O10 1.258 . S
C12 O11 1.242 . S
O13 Eu0 2.418 . S
O13 C17 1.244 . S
O14 Eu1 2.488 . S
O14 C30 1.249 . S
O15 Eu1 2.471 . S
O15 C30 1.244 . S
O16 Eu1 2.349 . S
O16 C17 1.265 . S
C17 O13 1.244 . S
C17 O16 1.265 . S
O18 Eu0 2.373 . S
O18 C31 1.258 . S
O19 Eu1 2.392 . S
O19 C31 1.242 . S
O20 Eu1 2.418 . S
O20 C2 1.244 . S
O21 Eu0 2.488 . S
O21 C9 1.249 . S
O22 Eu0 2.471 . S
O22 C9 1.244 . S
O23 Eu0 2.349 . S
O23 C2 1.265 . S
C24 C25 1.379 . S
C24 C28 1.373 . S
C24 C30 1.505 . S
C25 C24 1.379 . S
C25 C27 1.369 . S
C25 H36 0.930 . S
C26 C28 1.383 . S
C26 C29 1.382 . S
C26 H37 0.930 . S
C27 C25 1.369 . S
C27 C29 1.392 . S
C27 H38 0.930 . S
C28 C24 1.373 . S
C28 C26 1.383 . S
C28 H39 0.931 . S
C29 C26 1.382 . S
C29 C27 1.392 . S
C30 Eu1 2.828 . S
C30 O14 1.249 . S
C30 O15 1.244 . S
C30 C24 1.505 . S
C31 O18 1.258 . S
C31 O19 1.242 . S
H32 C4 0.930 . S
H33 C5 0.930 . S
H34 C6 0.930 . S
H35 C7 0.931 . S
H36 C25 0.930 . S
H37 C26 0.930 . S
H38 C27 0.930 . S
H39 C28 0.931 . S
Eu40 C49 2.828 . S
Eu40 O51 2.392 . S
Eu40 O53 2.418 . S
Eu40 O58 2.373 . S
Eu40 O61 2.488 . S
Eu40 O62 2.471 . S
Eu40 O63 2.349 . S
Eu41 O50 2.373 . S
Eu41 O54 2.488 . S
Eu41 O55 2.471 . S
Eu41 O56 2.349 . S
Eu41 O59 2.392 . S
Eu41 O60 2.418 . S
Eu41 C70 2.828 . S
C42 O60 1.244 . S
C42 O63 1.265 . S
C43 C44 1.379 . S
C43 C47 1.373 . S
C43 C49 1.505 . S
C44 C43 1.379 . S
C44 C46 1.369 . S
C44 H72 0.930 . S
C45 C47 1.383 . S
C45 C48 1.382 . S
C45 H73 0.930 . S
C46 C44 1.369 . S
C46 C48 1.392 . S
C46 H74 0.930 . S
C47 C43 1.373 . S
C47 C45 1.383 . S
C47 H75 0.931 . S
C48 C45 1.382 . S
C48 C46 1.392 . S
C49 Eu40 2.828 . S
C49 C43 1.505 . S
C49 O61 1.249 . S
C49 O62 1.244 . S
O50 Eu41 2.373 . S
O50 C52 1.258 . S
O51 Eu40 2.392 . S
O51 C52 1.242 . S
C52 O50 1.258 . S
C52 O51 1.242 . S
O53 Eu40 2.418 . S
O53 C57 1.244 . S
O54 Eu41 2.488 . S
O54 C70 1.249 . S
O55 Eu41 2.471 . S
O55 C70 1.244 . S
O56 Eu41 2.349 . S
O56 C57 1.265 . S
C57 O53 1.244 . S
C57 O56 1.265 . S
O58 Eu40 2.373 . S
O58 C71 1.258 . S
O59 Eu41 2.392 . S
O59 C71 1.242 . S
O60 Eu41 2.418 . S
O60 C42 1.244 . S
O61 Eu40 2.488 . S
O61 C49 1.249 . S
O62 Eu40 2.471 . S
O62 C49 1.244 . S
O63 Eu40 2.349 . S
O63 C42 1.265 . S
C64 C65 1.379 . S
C64 C68 1.373 . S
C64 C70 1.505 . S
C65 C64 1.379 . S
C65 C67 1.369 . S
C65 H76 0.930 . S
C66 C68 1.383 . S
C66 C69 1.382 . S
C66 H77 0.930 . S
C67 C65 1.369 . S
C67 C69 1.392 . S
C67 H78 0.930 . S
C68 C64 1.373 . S
C68 C66 1.383 . S
C68 H79 0.931 . S
C69 C66 1.382 . S
C69 C67 1.392 . S
C70 Eu41 2.828 . S
C70 O54 1.249 . S
C70 O55 1.244 . S
C70 C64 1.505 . S
C71 O58 1.258 . S
C71 O59 1.242 . S
H72 C44 0.930 . S
H73 C45 0.930 . S
H74 C46 0.930 . S
H75 C47 0.931 . S
H76 C65 0.930 . S
H77 C66 0.930 . S
H78 C67 0.930 . S
H79 C68 0.931 . S
Eu80 C89 2.828 . S
Eu80 O91 2.392 . S
Eu80 O93 2.418 . S
Eu80 O98 2.373 . S
Eu80 O101 2.488 . S
Eu80 O102 2.471 . S
Eu80 O103 2.349 . S
Eu81 O90 2.373 . S
Eu81 O94 2.488 . S
Eu81 O95 2.471 . S
Eu81 O96 2.349 . S
Eu81 O99 2.392 . S
Eu81 O100 2.418 . S
Eu81 C110 2.828 . S
C82 O100 1.244 . S
C82 O103 1.265 . S
C83 C84 1.379 . S
C83 C87 1.373 . S
C83 C89 1.505 . S
C84 C83 1.379 . S
C84 C86 1.369 . S
C84 H112 0.930 . S
C85 C87 1.383 . S
C85 C88 1.382 . S
C85 H113 0.930 . S
C86 C84 1.369 . S
C86 C88 1.392 . S
C86 H114 0.930 . S
C87 C83 1.373 . S
C87 C85 1.383 . S
C87 H115 0.931 . S
C88 C85 1.382 . S
C88 C86 1.392 . S
C89 Eu80 2.828 . S
C89 C83 1.505 . S
C89 O101 1.249 . S
C89 O102 1.244 . S
O90 Eu81 2.373 . S
O90 C92 1.258 . S
O91 Eu80 2.392 . S
O91 C92 1.242 . S
C92 O90 1.258 . S
C92 O91 1.242 . S
O93 Eu80 2.418 . S
O93 C97 1.244 . S
O94 Eu81 2.488 . S
O94 C110 1.249 . S
O95 Eu81 2.471 . S
O95 C110 1.244 . S
O96 Eu81 2.349 . S
O96 C97 1.265 . S
C97 O93 1.244 . S
C97 O96 1.265 . S
O98 Eu80 2.373 . S
O98 C111 1.258 . S
O99 Eu81 2.392 . S
O99 C111 1.242 . S
O100 Eu81 2.418 . S
O100 C82 1.244 . S
O101 Eu80 2.488 . S
O101 C89 1.249 . S
O102 Eu80 2.471 . S
O102 C89 1.244 . S
O103 Eu80 2.349 . S
O103 C82 1.265 . S
C104 C105 1.379 . S
C104 C108 1.373 . S
C104 C110 1.505 . S
C105 C104 1.379 . S
C105 C107 1.369 . S
C105 H116 0.930 . S
C106 C108 1.383 . S
C106 C109 1.382 . S
C106 H117 0.930 . S
C107 C105 1.369 . S
C107 C109 1.392 . S
C107 H118 0.930 . S
C108 C104 1.373 . S
C108 C106 1.383 . S
C108 H119 0.931 . S
C109 C106 1.382 . S
C109 C107 1.392 . S
C110 Eu81 2.828 . S
C110 O94 1.249 . S
C110 O95 1.244 . S
C110 C104 1.505 . S
C111 O98 1.258 . S
C111 O99 1.242 . S
H112 C84 0.930 . S
H113 C85 0.930 . S
H114 C86 0.930 . S
H115 C87 0.931 . S
H116 C105 0.930 . S
H117 C106 0.930 . S
H118 C107 0.930 . S
H119 C108 0.931 . S
Eu120 C129 2.828 . S
Eu120 O131 2.392 . S
Eu120 O133 2.418 . S
Eu120 O138 2.373 . S
Eu120 O141 2.488 . S
Eu120 O142 2.471 . S
Eu120 O143 2.349 . S
Eu121 O130 2.373 . S
Eu121 O134 2.488 . S
Eu121 O135 2.471 . S
Eu121 O136 2.349 . S
Eu121 O139 2.392 . S
Eu121 O140 2.418 . S
Eu121 C150 2.828 . S
C122 O140 1.244 . S
C122 O143 1.265 . S
C123 C124 1.379 . S
C123 C127 1.373 . S
C123 C129 1.505 . S
C124 C123 1.379 . S
C124 C126 1.369 . S
C124 H152 0.930 . S
C125 C127 1.383 . S
C125 C128 1.382 . S
C125 H153 0.930 . S
C126 C124 1.369 . S
C126 C128 1.392 . S
C126 H154 0.930 . S
C127 C123 1.373 . S
C127 C125 1.383 . S
C127 H155 0.931 . S
C128 C125 1.382 . S
C128 C126 1.392 . S
C129 Eu120 2.828 . S
C129 C123 1.505 . S
C129 O141 1.249 . S
C129 O142 1.244 . S
O130 Eu121 2.373 . S
O130 C132 1.258 . S
O131 Eu120 2.392 . S
O131 C132 1.242 . S
C132 O130 1.258 . S
C132 O131 1.242 . S
O133 Eu120 2.418 . S
O133 C137 1.244 . S
O134 Eu121 2.488 . S
O134 C150 1.249 . S
O135 Eu121 2.471 . S
O135 C150 1.244 . S
O136 Eu121 2.349 . S
O136 C137 1.265 . S
C137 O133 1.244 . S
C137 O136 1.265 . S
O138 Eu120 2.373 . S
O138 C151 1.258 . S
O139 Eu121 2.392 . S
O139 C151 1.242 . S
O140 Eu121 2.418 . S
O140 C122 1.244 . S
O141 Eu120 2.488 . S
O141 C129 1.249 . S
O142 Eu120 2.471 . S
O142 C129 1.244 . S
O143 Eu120 2.349 . S
O143 C122 1.265 . S
C144 C145 1.379 . S
C144 C148 1.373 . S
C144 C150 1.505 . S
C145 C144 1.379 . S
C145 C147 1.369 . S
C145 H156 0.930 . S
C146 C148 1.383 . S
C146 C149 1.382 . S
C146 H157 0.930 . S
C147 C145 1.369 . S
C147 C149 1.392 . S
C147 H158 0.930 . S
C148 C144 1.373 . S
C148 C146 1.383 . S
C148 H159 0.931 . S
C149 C146 1.382 . S
C149 C147 1.392 . S
C150 Eu121 2.828 . S
C150 O134 1.249 . S
C150 O135 1.244 . S
C150 C144 1.505 . S
C151 O138 1.258 . S
C151 O139 1.242 . S
H152 C124 0.930 . S
H153 C125 0.930 . S
H154 C126 0.930 . S
H155 C127 0.931 . S
H156 C145 0.930 . S
H157 C146 0.930 . S
H158 C147 0.930 . S
H159 C148 0.931 . S
Eu160 C169 2.828 . S
Eu160 O171 2.392 . S
Eu160 O173 2.418 . S
Eu160 O178 2.373 . S
Eu160 O181 2.488 . S
Eu160 O182 2.471 . S
Eu160 O183 2.349 . S
Eu161 O170 2.373 . S
Eu161 O174 2.488 . S
Eu161 O175 2.471 . S
Eu161 O176 2.349 . S
Eu161 O179 2.392 . S
Eu161 O180 2.418 . S
Eu161 C190 2.828 . S
C162 O180 1.244 . S
C162 O183 1.265 . S
C163 C164 1.379 . S
C163 C167 1.373 . S
C163 C169 1.505 . S
C164 C163 1.379 . S
C164 C166 1.369 . S
C164 H192 0.930 . S
C165 C167 1.383 . S
C165 C168 1.382 . S
C165 H193 0.930 . S
C166 C164 1.369 . S
C166 C168 1.392 . S
C166 H194 0.930 . S
C167 C163 1.373 . S
C167 C165 1.383 . S
C167 H195 0.931 . S
C168 C165 1.382 . S
C168 C166 1.392 . S
C169 Eu160 2.828 . S
C169 C163 1.505 . S
C169 O181 1.249 . S
C169 O182 1.244 . S
O170 Eu161 2.373 . S
O170 C172 1.258 . S
O171 Eu160 2.392 . S
O171 C172 1.242 . S
C172 O170 1.258 . S
C172 O171 1.242 . S
O173 Eu160 2.418 . S
O173 C177 1.244 . S
O174 Eu161 2.488 . S
O174 C190 1.249 . S
O175 Eu161 2.471 . S
O175 C190 1.244 . S
O176 Eu161 2.349 . S
O176 C177 1.265 . S
C177 O173 1.244 . S
C177 O176 1.265 . S
O178 Eu160 2.373 . S
O178 C191 1.258 . S
O179 Eu161 2.392 . S
O179 C191 1.242 . S
O180 Eu161 2.418 . S
O180 C162 1.244 . S
O181 Eu160 2.488 . S
O181 C169 1.249 . S
O182 Eu160 2.471 . S
O182 C169 1.244 . S
O183 Eu160 2.349 . S
O183 C162 1.265 . S
C184 C185 1.379 . S
C184 C188 1.373 . S
C184 C190 1.505 . S
C185 C184 1.379 . S
C185 C187 1.369 . S
C185 H196 0.930 . S
C186 C188 1.383 . S
C186 C189 1.382 . S
C186 H197 0.930 . S
C187 C185 1.369 . S
C187 C189 1.392 . S
C187 H198 0.930 . S
C188 C184 1.373 . S
C188 C186 1.383 . S
C188 H199 0.931 . S
C189 C186 1.382 . S
C189 C187 1.392 . S
C190 Eu161 2.828 . S
C190 O174 1.249 . S
C190 O175 1.244 . S
C190 C184 1.505 . S
C191 O178 1.258 . S
C191 O179 1.242 . S
H192 C164 0.930 . S
H193 C165 0.930 . S
H194 C166 0.930 . S
H195 C167 0.931 . S
H196 C185 0.930 . S
H197 C186 0.930 . S
H198 C187 0.930 . S
H199 C188 0.931 . S
Eu200 C209 2.828 . S
Eu200 O211 2.392 . S
Eu200 O213 2.418 . S
Eu200 O218 2.373 . S
Eu200 O221 2.488 . S
Eu200 O222 2.471 . S
Eu200 O223 2.349 . S
Eu201 O210 2.373 . S
Eu201 O214 2.488 . S
Eu201 O215 2.471 . S
Eu201 O216 2.349 . S
Eu201 O219 2.392 . S
Eu201 O220 2.418 . S
Eu201 C230 2.828 . S
C202 O220 1.244 . S
C202 O223 1.265 . S
C203 C204 1.379 . S
C203 C207 1.373 . S
C203 C209 1.505 . S
C204 C203 1.379 . S
C204 C206 1.369 . S
C204 H232 0.930 . S
C205 C207 1.383 . S
C205 C208 1.382 . S
C205 H233 0.930 . S
C206 C204 1.369 . S
C206 C208 1.392 . S
C206 H234 0.930 . S
C207 C203 1.373 . S
C207 C205 1.383 . S
C207 H235 0.931 . S
C208 C205 1.382 . S
C208 C206 1.392 . S
C209 Eu200 2.828 . S
C209 C203 1.505 . S
C209 O221 1.249 . S
C209 O222 1.244 . S
O210 Eu201 2.373 . S
O210 C212 1.258 . S
O211 Eu200 2.392 . S
O211 C212 1.242 . S
C212 O210 1.258 . S
C212 O211 1.242 . S
O213 Eu200 2.418 . S
O213 C217 1.244 . S
O214 Eu201 2.488 . S
O214 C230 1.249 . S
O215 Eu201 2.471 . S
O215 C230 1.244 . S
O216 Eu201 2.349 . S
O216 C217 1.265 . S
C217 O213 1.244 . S
C217 O216 1.265 . S
O218 Eu200 2.373 . S
O218 C231 1.258 . S
O219 Eu201 2.392 . S
O219 C231 1.242 . S
O220 Eu201 2.418 . S
O220 C202 1.244 . S
O221 Eu200 2.488 . S
O221 C209 1.249 . S
O222 Eu200 2.471 . S
O222 C209 1.244 . S
O223 Eu200 2.349 . S
O223 C202 1.265 . S
C224 C225 1.379 . S
C224 C228 1.373 . S
C224 C230 1.505 . S
C225 C224 1.379 . S
C225 C227 1.369 . S
C225 H236 0.930 . S
C226 C228 1.383 . S
C226 C229 1.382 . S
C226 H237 0.930 . S
C227 C225 1.369 . S
C227 C229 1.392 . S
C227 H238 0.930 . S
C228 C224 1.373 . S
C228 C226 1.383 . S
C228 H239 0.931 . S
C229 C226 1.382 . S
C229 C227 1.392 . S
C230 Eu201 2.828 . S
C230 O214 1.249 . S
C230 O215 1.244 . S
C230 C224 1.505 . S
C231 O218 1.258 . S
C231 O219 1.242 . S
H232 C204 0.930 . S
H233 C205 0.930 . S
H234 C206 0.930 . S
H235 C207 0.931 . S
H236 C225 0.930 . S
H237 C226 0.930 . S
H238 C227 0.930 . S
H239 C228 0.931 . S
H240 C258 0.951 . S
H241 C260 0.951 . S
H242 C262 0.950 . S
H243 C263 0.950 . S
H244 C265 0.950 . S
H245 C268 0.950 . S
H246 C269 0.950 . S
H247 C271 0.950 . S
H248 C272 0.950 . S
H249 C273 0.951 . S
H250 C275 0.951 . S
H251 C277 0.950 . S
H252 C278 0.950 . S
H253 C280 0.950 . S
H254 C283 0.950 . S
H255 C284 0.950 . S
H256 C286 0.950 . S
H257 C287 0.950 . S
C258 H240 0.951 . S
C258 C259 1.366 . S
C258 C260 1.388 . S
C259 C258 1.366 . S
C259 C263 1.385 . S
C260 H241 0.951 . S
C260 C258 1.388 . S
C260 C261 1.366 . S
C261 C260 1.366 . S
C261 C262 1.414 . S
C261 C264 1.499 . S
C262 H242 0.950 . S
C262 C261 1.414 . S
C262 C263 1.374 . S
C263 H243 0.950 . S
C263 C259 1.385 . S
C263 C262 1.374 . S
C264 C261 1.499 . S
C264 C265 1.373 . S
C264 C266 1.389 1_565 S
C265 H244 0.950 . S
C265 C264 1.373 . S
C265 C281 1.377 1_556 S
C266 C264 1.389 1_545 S
C266 C267 1.524 . S
C266 C280 1.377 1_556 S
C267 C266 1.524 . S
C267 C268 1.397 . S
C267 C272 1.363 . S
C268 H245 0.950 . S
C268 C267 1.397 . S
C268 C269 1.334 . S
C269 H246 0.950 . S
C269 C268 1.334 . S
C269 C270 1.287 . S
C270 C269 1.287 . S
C270 C271 1.524 . S
C270 H289 0.913 . S
C271 H247 0.950 . S
C271 C270 1.524 . S
C271 C272 1.415 . S
C272 H248 0.950 . S
C272 C267 1.363 . S
C272 C271 1.415 . S
C273 H249 0.951 . S
C273 C274 1.366 . S
C273 C275 1.388 . S
C274 C273 1.366 . S
C274 C278 1.385 . S
C275 H250 0.951 . S
C275 C273 1.388 . S
C275 C276 1.366 . S
C276 C275 1.366 . S
C276 C277 1.414 . S
C276 C279 1.499 . S
C277 H251 0.950 . S
C277 C276 1.414 . S
C277 C278 1.374 . S
C278 H252 0.950 . S
C278 C274 1.385 . S
C278 C277 1.374 . S
C279 C276 1.499 . S
C279 C280 1.373 . S
C279 C281 1.389 1_545 S
C280 H253 0.950 . S
C280 C266 1.377 1_554 S
C280 C279 1.373 . S
C281 C265 1.377 1_554 S
C281 C279 1.389 1_565 S
C281 C282 1.524 . S
C282 C281 1.524 . S
C282 C283 1.397 . S
C282 C287 1.363 . S
C283 H254 0.950 . S
C283 C282 1.397 . S
C283 C284 1.334 . S
C284 H255 0.950 . S
C284 C283 1.334 . S
C284 C285 1.287 . S
C285 C284 1.287 . S
C285 C286 1.524 . S
C285 H288 0.999 . S
C286 H256 0.950 . S
C286 C285 1.524 . S
C286 C287 1.415 . S
C287 H257 0.950 . S
C287 C282 1.363 . S
C287 C286 1.415 . S
H288 C285 0.999 . S
H289 C270 0.913 . S
H290 C308 0.951 . S
H291 C310 0.951 . S
H292 C312 0.950 . S
H293 C313 0.950 . S
H294 C315 0.950 . S
H295 C318 0.950 . S
H296 C319 0.950 . S
H297 C321 0.950 . S
H298 C322 0.950 . S
H299 C323 0.951 . S
H300 C325 0.951 . S
H301 C327 0.950 . S
H302 C328 0.950 . S
H303 C330 0.950 . S
H304 C333 0.950 . S
H305 C334 0.950 . S
H306 C336 0.950 . S
H307 C337 0.950 . S
C308 H290 0.951 . S
C308 C309 1.366 . S
C308 C310 1.388 . S
C309 C308 1.366 . S
C309 C313 1.385 . S
C310 H291 0.951 . S
C310 C308 1.388 . S
C310 C311 1.366 . S
C311 C310 1.366 . S
C311 C312 1.414 . S
C311 C314 1.499 . S
C312 H292 0.950 . S
C312 C311 1.414 . S
C312 C313 1.374 . S
C313 H293 0.950 . S
C313 C309 1.385 . S
C313 C312 1.374 . S
C314 C311 1.499 . S
C314 C315 1.373 . S
C314 C316 1.389 . S
C315 H294 0.950 . S
C315 C314 1.373 . S
C315 C331 1.377 . S
C316 C314 1.389 . S
C316 C317 1.524 . S
C316 C330 1.377 . S
C317 C316 1.524 . S
C317 C318 1.397 . S
C317 C322 1.363 . S
C318 H295 0.950 . S
C318 C317 1.397 . S
C318 C319 1.334 . S
C319 H296 0.950 . S
C319 C318 1.334 . S
C319 C320 1.287 . S
C320 C319 1.287 . S
C320 C321 1.524 . S
C320 H339 0.913 . S
C321 H297 0.950 . S
C321 C320 1.524 . S
C321 C322 1.415 . S
C322 H298 0.950 . S
C322 C317 1.363 . S
C322 C321 1.415 . S
C323 H299 0.951 . S
C323 C324 1.366 . S
C323 C325 1.388 . S
C324 C323 1.366 . S
C324 C328 1.385 . S
C325 H300 0.951 . S
C325 C323 1.388 . S
C325 C326 1.366 . S
C326 C325 1.366 . S
C326 C327 1.414 . S
C326 C329 1.499 . S
C327 H301 0.950 . S
C327 C326 1.414 . S
C327 C328 1.374 . S
C328 H302 0.950 . S
C328 C324 1.385 . S
C328 C327 1.374 . S
C329 C326 1.499 . S
C329 C330 1.373 . S
C329 C331 1.389 . S
C330 H303 0.950 . S
C330 C316 1.377 . S
C330 C329 1.373 . S
C331 C315 1.377 . S
C331 C329 1.389 . S
C331 C332 1.524 . S
C332 C331 1.524 . S
C332 C333 1.397 . S
C332 C337 1.363 . S
C333 H304 0.950 . S
C333 C332 1.397 . S
C333 C334 1.334 . S
C334 H305 0.950 . S
C334 C333 1.334 . S
C334 C335 1.287 . S
C335 C334 1.287 . S
C335 C336 1.524 . S
C335 H338 0.999 . S
C336 H306 0.950 . S
C336 C335 1.524 . S
C336 C337 1.415 . S
C337 H307 0.950 . S
C337 C332 1.363 . S
C337 C336 1.415 . S
H338 C335 0.999 . S
H339 C320 0.913 . S
H340 C358 0.951 . S
H341 C360 0.951 . S
H342 C362 0.950 . S
H343 C363 0.950 . S
H344 C365 0.950 . S
H345 C368 0.950 . S
H346 C369 0.950 . S
H347 C371 0.950 . S
H348 C372 0.950 . S
H349 C373 0.951 . S
H350 C375 0.951 . S
H351 C377 0.950 . S
H352 C378 0.950 . S
H353 C380 0.950 . S
H354 C383 0.950 . S
H355 C384 0.950 1_455 S
H356 C386 0.950 . S
H357 C387 0.950 . S
C358 H340 0.951 . S
C358 C359 1.366 . S
C358 C360 1.388 . S
C359 C358 1.366 . S
C359 C363 1.385 . S
C360 H341 0.951 . S
C360 C358 1.388 . S
C360 C361 1.366 . S
C361 C360 1.366 . S
C361 C362 1.414 . S
C361 C364 1.499 . S
C362 H342 0.950 . S
C362 C361 1.414 . S
C362 C363 1.374 . S
C363 H343 0.950 . S
C363 C359 1.385 . S
C363 C362 1.374 . S
C364 C361 1.499 . S
C364 C365 1.373 . S
C364 C366 1.389 1_655 S
C365 H344 0.950 . S
C365 C364 1.373 . S
C365 C381 1.377 1_554 S
C366 C364 1.389 1_455 S
C366 C367 1.524 . S
C366 C380 1.377 1_554 S
C367 C366 1.524 . S
C367 C368 1.397 1_455 S
C367 C372 1.363 . S
C368 H345 0.950 . S
C368 C367 1.397 1_655 S
C368 C369 1.334 . S
C369 H346 0.950 . S
C369 C368 1.334 . S
C369 C370 1.287 1_655 S
C370 C369 1.287 1_455 S
C370 C371 1.524 . S
C370 H389 0.913 . S
C371 H347 0.950 . S
C371 C370 1.524 . S
C371 C372 1.415 . S
C372 H348 0.950 . S
C372 C367 1.363 . S
C372 C371 1.415 . S
C373 H349 0.951 . S
C373 C374 1.366 . S
C373 C375 1.388 . S
C374 C373 1.366 . S
C374 C378 1.385 . S
C375 H350 0.951 . S
C375 C373 1.388 . S
C375 C376 1.366 . S
C376 C375 1.366 . S
C376 C377 1.414 . S
C376 C379 1.499 . S
C377 H351 0.950 . S
C377 C376 1.414 . S
C377 C378 1.374 . S
C378 H352 0.950 . S
C378 C374 1.385 . S
C378 C377 1.374 . S
C379 C376 1.499 . S
C379 C380 1.373 . S
C379 C381 1.389 1_455 S
C380 H353 0.950 . S
C380 C366 1.377 1_556 S
C380 C379 1.373 . S
C381 C365 1.377 1_556 S
C381 C379 1.389 1_655 S
C381 C382 1.524 . S
C382 C381 1.524 . S
C382 C383 1.397 1_655 S
C382 C387 1.363 . S
C383 H354 0.950 . S
C383 C382 1.397 1_455 S
C383 C384 1.334 1_455 S
C384 H355 0.950 1_655 S
C384 C383 1.334 1_655 S
C384 C385 1.287 . S
C385 C384 1.287 . S
C385 C386 1.524 . S
C385 H388 0.999 . S
C386 H356 0.950 . S
C386 C385 1.524 . S
C386 C387 1.415 . S
C387 H357 0.950 . S
C387 C382 1.363 . S
C387 C386 1.415 . S
H388 C385 0.999 . S
H389 C370 0.913 . S
H390 C408 0.951 . S
H391 C410 0.951 . S
H392 C412 0.950 . S
H393 C413 0.950 . S
H394 C415 0.950 . S
H395 C418 0.958 . S
H396 C419 0.950 . S
H397 C421 0.950 . S
H398 C422 0.950 . S
H399 C423 0.951 . S
H400 C425 0.951 . S
H401 C427 0.950 . S
H402 C428 0.950 . S
H403 C430 0.950 . S
H404 C433 0.950 . S
H405 C434 0.950 . S
H406 C436 0.950 . S
H407 C437 0.950 . S
C408 H390 0.951 . S
C408 C409 1.366 . S
C408 C410 1.388 . S
C409 C408 1.366 . S
C409 C413 1.385 . S
C410 H391 0.951 . S
C410 C408 1.388 . S
C410 C411 1.366 . S
C411 C410 1.366 . S
C411 C412 1.414 . S
C411 C414 1.499 . S
C412 H392 0.950 . S
C412 C411 1.414 . S
C412 C413 1.374 . S
C413 H393 0.950 . S
C413 C409 1.385 . S
C413 C412 1.374 . S
C414 C411 1.499 . S
C414 C415 1.373 . S
C414 C416 1.389 . S
C415 H394 0.950 . S
C415 C414 1.373 . S
C415 C431 1.377 1_545 S
C416 C414 1.389 . S
C416 C417 1.524 . S
C416 C430 1.377 1_545 S
C417 C416 1.524 . S
C417 C418 1.397 . S
C417 C422 1.363 . S
C418 H395 0.958 . S
C418 C417 1.397 . S
C418 C419 1.334 . S
C419 H396 0.950 . S
C419 C418 1.334 . S
C419 C420 1.287 . S
C420 C419 1.287 . S
C420 C421 1.524 . S
C420 H439 0.913 . S
C421 H397 0.950 . S
C421 C420 1.524 . S
C421 C422 1.415 . S
C422 H398 0.950 . S
C422 C417 1.363 . S
C422 C421 1.415 . S
C423 H399 0.951 . S
C423 C424 1.366 . S
C423 C425 1.388 . S
C424 C423 1.366 . S
C424 C428 1.385 . S
C425 H400 0.951 . S
C425 C423 1.388 . S
C425 C426 1.366 . S
C426 C425 1.366 . S
C426 C427 1.414 . S
C426 C429 1.499 . S
C427 H401 0.950 . S
C427 C426 1.414 . S
C427 C428 1.374 . S
C428 H402 0.950 . S
C428 C424 1.385 . S
C428 C427 1.374 . S
C429 C426 1.499 . S
C429 C430 1.373 . S
C429 C431 1.389 . S
C430 H403 0.950 . S
C430 C416 1.377 1_565 S
C430 C429 1.373 . S
C431 C415 1.377 1_565 S
C431 C429 1.389 . S
C431 C432 1.524 . S
C432 C431 1.524 . S
C432 C433 1.397 . S
C432 C437 1.363 . S
C433 H404 0.950 . S
C433 C432 1.397 . S
C433 C434 1.334 . S
C434 H405 0.950 . S
C434 C433 1.334 . S
C434 C435 1.287 . S
C435 C434 1.287 . S
C435 C436 1.524 . S
C435 H438 0.999 . S
C436 H406 0.950 . S
C436 C435 1.524 . S
C436 C437 1.415 . S
C437 H407 0.950 . S
C437 C432 1.363 . S
C437 C436 1.415 . S
H438 C435 0.999 . S
H439 C420 0.913 . S
H440 C458 0.951 . S
H441 C460 0.951 . S
H442 C462 0.950 . S
H443 C463 0.950 . S
H444 C465 0.950 . S
H445 C468 0.950 . S
H446 C469 0.950 . S
H447 C471 0.950 . S
H448 C472 0.950 1_554 S
H449 C473 0.951 . S
H450 C475 0.951 . S
H451 C477 0.950 . S
H452 C478 0.950 . S
H453 C480 0.950 . S
H454 C483 0.950 . S
H455 C484 0.950 . S
H456 C486 0.950 . S
H457 C487 0.950 1_556 S
C458 H440 0.951 . S
C458 C459 1.366 . S
C458 C460 1.388 . S
C459 C458 1.366 . S
C459 C463 1.385 . S
C460 H441 0.951 . S
C460 C458 1.388 . S
C460 C461 1.366 . S
C461 C460 1.366 . S
C461 C462 1.414 . S
C461 C464 1.499 . S
C462 H442 0.950 . S
C462 C461 1.414 . S
C462 C463 1.374 . S
C463 H443 0.950 . S
C463 C459 1.385 . S
C463 C462 1.374 . S
C464 C461 1.499 . S
C464 C465 1.373 . S
C464 C466 1.389 . S
C465 H444 0.950 . S
C465 C464 1.373 . S
C465 C481 1.377 1_556 S
C466 C464 1.389 . S
C466 C467 1.524 . S
C466 C480 1.377 1_556 S
C467 C466 1.524 . S
C467 C468 1.397 . S
C467 C472 1.363 . S
C468 H445 0.950 . S
C468 C467 1.397 . S
C468 C469 1.334 . S
C469 H446 0.950 . S
C469 C468 1.334 . S
C469 C470 1.287 . S
C470 C469 1.287 . S
C470 C471 1.524 . S
C470 H489 0.913 . S
C471 H447 0.950 . S
C471 C470 1.524 . S
C471 C472 1.415 . S
C472 H448 0.950 1_556 S
C472 C467 1.363 . S
C472 C471 1.415 . S
C473 H449 0.951 . S
C473 C474 1.366 . S
C473 C475 1.388 . S
C474 C473 1.366 . S
C474 C478 1.385 . S
C475 H450 0.951 . S
C475 C473 1.388 . S
C475 C476 1.366 . S
C476 C475 1.366 . S
C476 C477 1.414 . S
C476 C479 1.499 . S
C477 H451 0.950 . S
C477 C476 1.414 . S
C477 C478 1.374 . S
C478 H452 0.950 . S
C478 C474 1.385 . S
C478 C477 1.374 . S
C479 C476 1.499 . S
C479 C480 1.373 . S
C479 C481 1.389 . S
C480 H453 0.950 . S
C480 C466 1.377 1_554 S
C480 C479 1.373 . S
C481 C465 1.377 1_554 S
C481 C479 1.389 . S
C481 C482 1.524 . S
C482 C481 1.524 . S
C482 C483 1.397 . S
C482 C487 1.363 . S
C483 H454 0.950 . S
C483 C482 1.397 . S
C483 C484 1.334 . S
C484 H455 0.950 . S
C484 C483 1.334 . S
C484 C485 1.287 . S
C485 C484 1.287 . S
C485 C486 1.524 . S
C485 H488 0.999 . S
C486 H456 0.950 . S
C486 C485 1.524 . S
C486 C487 1.415 . S
C487 H457 0.950 1_554 S
C487 C482 1.363 . S
C487 C486 1.415 . S
H488 C485 0.999 . S
H489 C470 0.913 . S
H490 C508 0.951 . S
H491 C510 0.951 . S
H492 C512 0.950 . S
H493 C513 0.950 . S
H494 C515 0.950 . S
H495 C518 0.950 . S
H496 C519 0.950 . S
H497 C521 0.950 . S
H498 C522 0.950 . S
H499 C523 0.951 . S
H500 C525 0.951 . S
H501 C527 0.950 . S
H502 C528 0.950 . S
H503 C530 0.950 . S
H504 C533 0.950 . S
H505 C534 0.950 . S
H506 C536 0.950 . S
H507 C537 0.950 . S
C508 H490 0.951 . S
C508 C509 1.366 . S
C508 C510 1.388 . S
C509 C508 1.366 . S
C509 C513 1.385 . S
C510 H491 0.951 . S
C510 C508 1.388 . S
C510 C511 1.366 . S
C511 C510 1.366 . S
C511 C512 1.414 . S
C511 C514 1.499 . S
C512 H492 0.950 . S
C512 C511 1.414 . S
C512 C513 1.374 . S
C513 H493 0.950 . S
C513 C509 1.385 . S
C513 C512 1.374 . S
C514 C511 1.499 . S
C514 C515 1.373 1_655 S
C514 C516 1.389 . S
C515 H494 0.950 . S
C515 C514 1.373 1_455 S
C515 C531 1.377 . S
C516 C514 1.389 . S
C516 C517 1.524 . S
C516 C530 1.377 . S
C517 C516 1.524 . S
C517 C518 1.397 . S
C517 C522 1.363 . S
C518 H495 0.950 . S
C518 C517 1.397 . S
C518 C519 1.334 . S
C519 H496 0.950 . S
C519 C518 1.334 . S
C519 C520 1.287 . S
C520 C519 1.287 . S
C520 C521 1.524 . S
C520 H539 0.913 . S
C521 H497 0.950 . S
C521 C520 1.524 . S
C521 C522 1.415 . S
C522 H498 0.950 . S
C522 C517 1.363 . S
C522 C521 1.415 . S
C523 H499 0.951 . S
C523 C524 1.366 . S
C523 C525 1.388 . S
C524 C523 1.366 . S
C524 C528 1.385 . S
C525 H500 0.951 . S
C525 C523 1.388 . S
C525 C526 1.366 . S
C526 C525 1.366 . S
C526 C527 1.414 . S
C526 C529 1.499 . S
C527 H501 0.950 . S
C527 C526 1.414 . S
C527 C528 1.374 . S
C528 H502 0.950 . S
C528 C524 1.385 . S
C528 C527 1.374 . S
C529 C526 1.499 . S
C529 C530 1.373 1_455 S
C529 C531 1.389 . S
C530 H503 0.950 . S
C530 C516 1.377 . S
C530 C529 1.373 1_655 S
C531 C515 1.377 . S
C531 C529 1.389 . S
C531 C532 1.524 . S
C532 C531 1.524 . S
C532 C533 1.397 . S
C532 C537 1.363 . S
C533 H504 0.950 . S
C533 C532 1.397 . S
C533 C534 1.334 . S
C534 H505 0.950 . S
C534 C533 1.334 . S
C534 C535 1.287 . S
C535 C534 1.287 . S
C535 C536 1.524 . S
C535 H538 0.999 . S
C536 H506 0.950 . S
C536 C535 1.524 . S
C536 C537 1.415 . S
C537 H507 0.950 . S
C537 C532 1.363 . S
C537 C536 1.415 . S
H538 C535 0.999 . S
H539 C520 0.913 . S
H540 C558 0.951 . S
H541 C560 0.951 . S
H542 C562 0.950 . S
H543 C563 0.950 . S
H544 C565 0.950 . S
H545 C568 0.950 . S
H546 C569 0.950 . S
H547 C571 0.950 . S
H548 C572 0.950 . S
H549 C573 0.951 . S
H550 C575 0.951 . S
H551 C577 0.950 . S
H552 C578 0.950 . S
H553 C580 0.950 . S
H554 C583 0.950 . S
H555 C584 0.950 . S
H556 C586 0.950 . S
H557 C587 0.950 . S
C558 H540 0.951 . S
C558 C559 1.366 . S
C558 C560 1.388 . S
C559 C558 1.366 . S
C559 C563 1.385 . S
C560 H541 0.951 . S
C560 C558 1.388 . S
C560 C561 1.366 . S
C561 C560 1.366 . S
C561 C562 1.414 . S
C561 C564 1.499 . S
C562 H542 0.950 . S
C562 C561 1.414 . S
C562 C563 1.374 . S
C563 H543 0.950 . S
C563 C559 1.385 . S
C563 C562 1.374 . S
C564 C561 1.499 . S
C564 C565 1.373 . S
C564 C566 1.389 . S
C565 H544 0.950 . S
C565 C564 1.373 . S
C565 C581 1.377 . S
C566 C564 1.389 . S
C566 C567 1.524 . S
C566 C580 1.377 . S
C567 C566 1.524 . S
C567 C568 1.397 . S
C567 C572 1.363 . S
C568 H545 0.950 . S
C568 C567 1.397 . S
C568 C569 1.334 . S
C569 H546 0.950 . S
C569 C568 1.334 . S
C569 C570 1.287 . S
C570 C569 1.287 . S
C570 C571 1.524 . S
C570 H589 0.913 . S
C571 H547 0.950 . S
C571 C570 1.524 . S
C571 C572 1.415 . S
C572 H548 0.950 . S
C572 C567 1.363 . S
C572 C571 1.415 . S
C573 H549 0.951 . S
C573 C574 1.366 . S
C573 C575 1.388 . S
C574 C573 1.366 . S
C574 C578 1.385 . S
C575 H550 0.951 . S
C575 C573 1.388 . S
C575 C576 1.366 . S
C576 C575 1.366 . S
C576 C577 1.414 . S
C576 C579 1.499 . S
C577 H551 0.950 . S
C577 C576 1.414 . S
C577 C578 1.374 . S
C578 H552 0.950 . S
C578 C574 1.385 . S
C578 C577 1.374 . S
C579 C576 1.499 . S
C579 C580 1.373 . S
C579 C581 1.389 . S
C580 H553 0.950 . S
C580 C566 1.377 . S
C580 C579 1.373 . S
C581 C565 1.377 . S
C581 C579 1.389 . S
C581 C582 1.524 . S
C582 C581 1.524 . S
C582 C583 1.397 . S
C582 C587 1.363 . S
C583 H554 0.950 . S
C583 C582 1.397 . S
C583 C584 1.334 . S
C584 H555 0.950 . S
C584 C583 1.334 . S
C584 C585 1.287 . S
C585 C584 1.287 . S
C585 C586 1.524 . S
C585 H588 0.999 . S
C586 H556 0.950 . S
C586 C585 1.524 . S
C586 C587 1.415 . S
C587 H557 0.950 . S
C587 C582 1.363 . S
C587 C586 1.415 . S
H588 C585 0.999 . S
H589 C570 0.913 . S
H590 C608 0.951 . S
H591 C610 0.951 . S
H592 C612 0.950 . S
H593 C613 0.950 . S
H594 C615 0.950 . S
H595 C618 0.950 . S
H596 C619 0.950 . S
H597 C621 0.950 . S
H598 C622 0.950 . S
H599 C623 0.951 . S
H600 C625 0.951 . S
H601 C627 0.950 . S
H602 C628 0.950 . S
H603 C630 0.950 . S
H604 C633 0.950 . S
H605 C634 0.950 . S
H606 C636 0.950 . S
H607 C637 0.950 . S
C608 H590 0.951 . S
C608 C609 1.366 . S
C608 C610 1.388 . S
C609 C608 1.366 . S
C609 C613 1.385 . S
C610 H591 0.951 . S
C610 C608 1.388 . S
C610 C611 1.366 . S
C611 C610 1.366 . S
C611 C612 1.414 . S
C611 C614 1.499 . S
C612 H592 0.950 . S
C612 C611 1.414 . S
C612 C613 1.374 . S
C613 H593 0.950 . S
C613 C609 1.385 . S
C613 C612 1.374 . S
C614 C611 1.499 . S
C614 C615 1.373 . S
C614 C616 1.389 . S
C615 H594 0.950 . S
C615 C614 1.373 . S
C615 C631 1.377 . S
C616 C614 1.389 . S
C616 C617 1.524 . S
C616 C630 1.377 . S
C617 C616 1.524 . S
C617 C618 1.397 . S
C617 C622 1.363 . S
C618 H595 0.950 . S
C618 C617 1.397 . S
C618 C619 1.334 . S
C619 H596 0.950 . S
C619 C618 1.334 . S
C619 C620 1.287 . S
C620 C619 1.287 . S
C620 C621 1.524 . S
C620 H639 0.913 . S
C621 H597 0.950 . S
C621 C620 1.524 . S
C621 C622 1.415 . S
C622 H598 0.950 . S
C622 C617 1.363 . S
C622 C621 1.415 . S
C623 H599 0.951 . S
C623 C624 1.366 . S
C623 C625 1.388 . S
C624 C623 1.366 . S
C624 C628 1.385 . S
C625 H600 0.951 . S
C625 C623 1.388 . S
C625 C626 1.366 . S
C626 C625 1.366 . S
C626 C627 1.414 . S
C626 C629 1.499 . S
C627 H601 0.950 . S
C627 C626 1.414 . S
C627 C628 1.374 . S
C628 H602 0.950 . S
C628 C624 1.385 . S
C628 C627 1.374 . S
C629 C626 1.499 . S
C629 C630 1.373 . S
C629 C631 1.389 . S
C630 H603 0.950 . S
C630 C616 1.377 . S
C630 C629 1.373 . S
C631 C615 1.377 . S
C631 C629 1.389 . S
C631 C632 1.524 . S
C632 C631 1.524 . S
C632 C633 1.397 . S
C632 C637 1.363 . S
C633 H604 0.950 . S
C633 C632 1.397 . S
C633 C634 1.334 . S
C634 H605 0.950 . S
C634 C633 1.334 . S
C634 C635 1.287 . S
C635 C634 1.287 . S
C635 C636 1.524 . S
C635 H638 0.999 . S
C636 H606 0.950 . S
C636 C635 1.524 . S
C636 C637 1.415 . S
C637 H607 0.950 . S
C637 C632 1.363 . S
C637 C636 1.415 . S
H638 C635 0.999 . S
H639 C620 0.913 . S
H640 C658 0.951 . S
H641 C660 0.951 . S
H642 C662 0.950 . S
H643 C663 0.950 . S
H644 C665 0.950 . S
H645 C668 0.950 . S
H646 C669 0.950 . S
H647 C671 0.950 . S
H648 C672 0.950 . S
H649 C673 0.951 . S
H650 C675 0.951 . S
H651 C677 0.950 . S
H652 C678 0.950 . S
H653 C680 0.950 . S
H654 C683 0.950 . S
H655 C684 0.950 . S
H656 C686 0.950 . S
H657 C687 0.950 . S
C658 H640 0.951 . S
C658 C659 1.366 . S
C658 C660 1.388 . S
C659 C658 1.366 . S
C659 C663 1.385 . S
C660 H641 0.951 . S
C660 C658 1.388 . S
C660 C661 1.366 . S
C661 C660 1.366 . S
C661 C662 1.414 . S
C661 C664 1.499 . S
C662 H642 0.950 . S
C662 C661 1.414 . S
C662 C663 1.374 . S
C663 H643 0.950 . S
C663 C659 1.385 . S
C663 C662 1.374 . S
C664 C661 1.499 . S
C664 C665 1.373 . S
C664 C666 1.389 . S
C665 H644 0.950 . S
C665 C664 1.373 . S
C665 C681 1.377 . S
C666 C664 1.389 . S
C666 C667 1.524 . S
C666 C680 1.377 . S
C667 C666 1.524 . S
C667 C668 1.397 . S
C667 C672 1.363 . S
C668 H645 0.950 . S
C668 C667 1.397 . S
C668 C669 1.334 . S
C669 H646 0.950 . S
C669 C668 1.334 . S
C669 C670 1.287 . S
C670 C669 1.287 . S
C670 C671 1.524 . S
C670 H689 0.913 . S
C671 H647 0.950 . S
C671 C670 1.524 . S
C671 C672 1.415 . S
C672 H648 0.950 . S
C672 C667 1.363 . S
C672 C671 1.415 . S
C673 H649 0.951 . S
C673 C674 1.366 . S
C673 C675 1.388 . S
C674 C673 1.366 . S
C674 C678 1.385 . S
C675 H650 0.951 . S
C675 C673 1.388 . S
C675 C676 1.366 . S
C676 C675 1.366 . S
C676 C677 1.414 . S
C676 C679 1.499 . S
C677 H651 0.950 . S
C677 C676 1.414 . S
C677 C678 1.374 . S
C678 H652 0.950 . S
C678 C674 1.385 . S
C678 C677 1.374 . S
C679 C676 1.499 . S
C679 C680 1.373 . S
C679 C681 1.389 . S
C680 H653 0.950 . S
C680 C666 1.377 . S
C680 C679 1.373 . S
C681 C665 1.377 . S
C681 C679 1.389 . S
C681 C682 1.524 . S
C682 C681 1.524 . S
C682 C683 1.397 . S
C682 C687 1.363 . S
C683 H654 0.950 . S
C683 C682 1.397 . S
C683 C684 1.334 . S
C684 H655 0.950 . S
C684 C683 1.334 . S
C684 C685 1.287 . S
C685 C684 1.287 . S
C685 C686 1.524 . S
C685 H688 0.999 . S
C686 H656 0.950 . S
C686 C685 1.524 . S
C686 C687 1.415 . S
C687 H657 0.950 . S
C687 C682 1.363 . S
C687 C686 1.415 . S
H688 C685 0.999 . S
H689 C670 0.913 . S
H690 C708 0.951 . S
H691 C710 0.951 . S
H692 C712 0.950 . S
H693 C713 0.950 . S
H694 C715 0.950 . S
H695 C718 0.950 . S
H696 C719 0.950 . S
H697 C721 0.950 . S
H698 C722 0.950 . S
H699 C723 0.951 . S
H700 C725 0.951 . S
H701 C727 0.950 . S
H702 C728 0.950 . S
H703 C730 0.950 . S
H704 C733 0.950 . S
H705 C734 0.950 . S
H706 C736 0.950 . S
H707 C737 0.950 . S
C708 H690 0.951 . S
C708 C709 1.366 . S
C708 C710 1.388 . S
C709 C708 1.366 . S
C709 C713 1.385 . S
C710 H691 0.951 . S
C710 C708 1.388 . S
C710 C711 1.366 . S
C711 C710 1.366 . S
C711 C712 1.414 . S
C711 C714 1.499 . S
C712 H692 0.950 . S
C712 C711 1.414 . S
C712 C713 1.374 . S
C713 H693 0.950 . S
C713 C709 1.385 . S
C713 C712 1.374 . S
C714 C711 1.499 . S
C714 C715 1.373 . S
C714 C716 1.389 . S
C715 H694 0.950 . S
C715 C714 1.373 . S
C715 C731 1.377 . S
C716 C714 1.389 . S
C716 C717 1.524 . S
C716 C730 1.377 . S
C717 C716 1.524 . S
C717 C718 1.397 . S
C717 C722 1.363 . S
C718 H695 0.950 . S
C718 C717 1.397 . S
C718 C719 1.334 . S
C719 H696 0.950 . S
C719 C718 1.334 . S
C719 C720 1.287 . S
C720 C719 1.287 . S
C720 C721 1.524 . S
C720 H739 0.913 . S
C721 H697 0.950 . S
C721 C720 1.524 . S
C721 C722 1.415 . S
C722 H698 0.950 . S
C722 C717 1.363 . S
C722 C721 1.415 . S
C723 H699 0.951 . S
C723 C724 1.366 . S
C723 C725 1.388 . S
C724 C723 1.366 . S
C724 C728 1.385 . S
C725 H700 0.951 . S
C725 C723 1.388 . S
C725 C726 1.366 . S
C726 C725 1.366 . S
C726 C727 1.414 . S
C726 C729 1.499 . S
C727 H701 0.950 . S
C727 C726 1.414 . S
C727 C728 1.374 . S
C728 H702 0.950 . S
C728 C724 1.385 . S
C728 C727 1.374 . S
C729 C726 1.499 . S
C729 C730 1.373 . S
C729 C731 1.389 . S
C730 H703 0.950 . S
C730 C716 1.377 . S
C730 C729 1.373 . S
C731 C715 1.377 . S
C731 C729 1.389 . S
C731 C732 1.524 . S
C732 C731 1.524 . S
C732 C733 1.397 . S
C732 C737 1.363 . S
C733 H704 0.950 . S
C733 C732 1.397 . S
C733 C734 1.334 . S
C734 H705 0.950 . S
C734 C733 1.334 . S
C734 C735 1.287 . S
C735 C734 1.287 . S
C735 C736 1.524 . S
C735 H738 0.999 . S
C736 H706 0.950 . S
C736 C735 1.524 . S
C736 C737 1.415 . S
C737 H707 0.950 . S
C737 C732 1.363 . S
C737 C736 1.415 . S
H738 C735 0.999 . S
H739 C720 0.913 . S
H740 C758 0.951 . S
H741 C760 0.951 . S
H742 C762 0.950 . S
H743 C763 0.950 . S
H744 C765 0.950 . S
H745 C768 0.950 . S
H746 C769 0.950 . S
H747 C771 0.950 . S
H748 C772 0.950 . S
H749 C773 0.951 . S
H750 C775 0.951 . S
H751 C777 0.950 . S
H752 C778 0.950 . S
H753 C780 0.950 . S
H754 C783 0.950 . S
H755 C784 0.950 . S
H756 C786 0.950 . S
H757 C787 0.950 . S
C758 H740 0.951 . S
C758 C759 1.366 . S
C758 C760 1.388 . S
C759 C758 1.366 . S
C759 C763 1.385 . S
C760 H741 0.951 . S
C760 C758 1.388 . S
C760 C761 1.366 . S
C761 C760 1.366 . S
C761 C762 1.414 . S
C761 C764 1.499 . S
C762 H742 0.950 . S
C762 C761 1.414 . S
C762 C763 1.374 . S
C763 H743 0.950 . S
C763 C759 1.385 . S
C763 C762 1.374 . S
C764 C761 1.499 . S
C764 C765 1.373 . S
C764 C766 1.389 . S
C765 H744 0.950 . S
C765 C764 1.373 . S
C765 C781 1.377 . S
C766 C764 1.389 . S
C766 C767 1.524 . S
C766 C780 1.377 . S
C767 C766 1.524 . S
C767 C768 1.397 . S
C767 C772 1.363 . S
C768 H745 0.950 . S
C768 C767 1.397 . S
C768 C769 1.334 . S
C769 H746 0.950 . S
C769 C768 1.334 . S
C769 C770 1.287 . S
C770 C769 1.287 . S
C770 C771 1.524 . S
C770 H789 0.913 . S
C771 H747 0.950 . S
C771 C770 1.524 . S
C771 C772 1.415 . S
C772 H748 0.950 . S
C772 C767 1.363 . S
C772 C771 1.415 . S
C773 H749 0.951 . S
C773 C774 1.366 . S
C773 C775 1.388 . S
C774 C773 1.366 . S
C774 C778 1.385 . S
C775 H750 0.951 . S
C775 C773 1.388 . S
C775 C776 1.366 . S
C776 C775 1.366 . S
C776 C777 1.414 . S
C776 C779 1.499 . S
C777 H751 0.950 . S
C777 C776 1.414 . S
C777 C778 1.374 . S
C778 H752 0.950 . S
C778 C774 1.385 . S
C778 C777 1.374 . S
C779 C776 1.499 . S
C779 C780 1.373 . S
C779 C781 1.389 . S
C780 H753 0.950 . S
C780 C766 1.377 . S
C780 C779 1.373 . S
C781 C765 1.377 . S
C781 C779 1.389 . S
C781 C782 1.524 . S
C782 C781 1.524 . S
C782 C783 1.397 . S
C782 C787 1.363 . S
C783 H754 0.950 . S
C783 C782 1.397 . S
C783 C784 1.334 . S
C784 H755 0.950 . S
C784 C783 1.334 . S
C784 C785 1.287 . S
C785 C784 1.287 . S
C785 C786 1.524 . S
C785 H788 0.999 . S
C786 H756 0.950 . S
C786 C785 1.524 . S
C786 C787 1.415 . S
C787 H757 0.950 . S
C787 C782 1.363 . S
C787 C786 1.415 . S
H788 C785 0.999 . S
H789 C770 0.913 . S
H790 C808 0.951 . S
H791 C810 0.951 . S
H792 C812 0.950 . S
H793 C813 0.950 . S
H794 C815 0.950 . S
H795 C818 0.950 . S
H796 C819 0.950 . S
H797 C821 0.950 . S
H798 C822 0.950 . S
H799 C823 0.951 . S
H800 C825 0.951 . S
H801 C827 0.950 . S
H802 C828 0.950 . S
H803 C830 0.950 . S
H804 C833 0.950 . S
H805 C834 0.950 . S
H806 C836 0.950 . S
H807 C837 0.950 . S
C808 H790 0.951 . S
C808 C809 1.366 . S
C808 C810 1.388 . S
C809 C808 1.366 . S
C809 C813 1.385 . S
C810 H791 0.951 . S
C810 C808 1.388 . S
C810 C811 1.366 . S
C811 C810 1.366 . S
C811 C812 1.414 . S
C811 C814 1.499 . S
C812 H792 0.950 . S
C812 C811 1.414 . S
C812 C813 1.374 . S
C813 H793 0.950 . S
C813 C809 1.385 . S
C813 C812 1.374 . S
C814 C811 1.499 . S
C814 C815 1.373 . S
C814 C816 1.389 . S
C815 H794 0.950 . S
C815 C814 1.373 . S
C815 C831 1.377 . S
C816 C814 1.389 . S
C816 C817 1.524 . S
C816 C830 1.377 . S
C817 C816 1.524 . S
C817 C818 1.397 . S
C817 C822 1.363 . S
C818 H795 0.950 . S
C818 C817 1.397 . S
C818 C819 1.334 . S
C819 H796 0.950 . S
C819 C818 1.334 . S
C819 C820 1.287 . S
C820 C819 1.287 . S
C820 C821 1.524 . S
C820 H839 0.913 . S
C821 H797 0.950 . S
C821 C820 1.524 . S
C821 C822 1.415 . S
C822 H798 0.950 . S
C822 C817 1.363 . S
C822 C821 1.415 . S
C823 H799 0.951 . S
C823 C824 1.366 . S
C823 C825 1.388 . S
C824 C823 1.366 . S
C824 C828 1.385 . S
C825 H800 0.951 . S
C825 C823 1.388 . S
C825 C826 1.366 . S
C826 C825 1.366 . S
C826 C827 1.414 . S
C826 C829 1.499 . S
C827 H801 0.950 . S
C827 C826 1.414 . S
C827 C828 1.374 . S
C828 H802 0.950 . S
C828 C824 1.385 . S
C828 C827 1.374 . S
C829 C826 1.499 . S
C829 C830 1.373 . S
C829 C831 1.389 . S
C830 H803 0.950 . S
C830 C816 1.377 . S
C830 C829 1.373 . S
C831 C815 1.377 . S
C831 C829 1.389 . S
C831 C832 1.524 . S
C832 C831 1.524 . S
C832 C833 1.397 . S
C832 C837 1.363 . S
C833 H804 0.950 . S
C833 C832 1.397 . S
C833 C834 1.334 . S
C834 H805 0.950 . S
C834 C833 1.334 . S
C834 C835 1.287 . S
C835 C834 1.287 . S
C835 C836 1.524 . S
C835 H838 0.999 . S
C836 H806 0.950 . S
C836 C835 1.524 . S
C836 C837 1.415 . S
C837 H807 0.950 . S
C837 C832 1.363 . S
C837 C836 1.415 . S
H838 C835 0.999 . S
H839 C820 0.913 . S
H840 C858 0.951 . S
H841 C860 0.951 . S
H842 C862 0.950 . S
H843 C863 0.950 . S
H844 C865 0.950 . S
H845 C868 0.950 . S
H846 C869 0.950 . S
H847 C871 0.950 . S
H848 C872 0.950 . S
H849 C873 0.951 . S
H850 C875 0.951 . S
H851 C877 0.950 . S
H852 C878 0.950 . S
H853 C880 0.950 1_655 S
H854 C883 0.950 . S
H855 C884 0.950 . S
H856 C886 0.950 . S
H857 C887 0.950 . S
C858 H840 0.951 . S
C858 C859 1.366 . S
C858 C860 1.388 . S
C859 C858 1.366 . S
C859 C863 1.385 . S
C860 H841 0.951 . S
C860 C858 1.388 . S
C860 C861 1.366 . S
C861 C860 1.366 . S
C861 C862 1.414 . S
C861 C864 1.499 . S
C862 H842 0.950 . S
C862 C861 1.414 . S
C862 C863 1.374 . S
C863 H843 0.950 . S
C863 C859 1.385 . S
C863 C862 1.374 . S
C864 C861 1.499 . S
C864 C865 1.373 . S
C864 C866 1.389 . S
C865 H844 0.950 . S
C865 C864 1.373 . S
C865 C881 1.377 . S
C866 C864 1.389 . S
C866 C867 1.524 . S
C866 C880 1.377 . S
C867 C866 1.524 . S
C867 C868 1.397 . S
C867 C872 1.363 1_455 S
C868 H845 0.950 . S
C868 C867 1.397 . S
C868 C869 1.334 . S
C869 H846 0.950 . S
C869 C868 1.334 . S
C869 C870 1.287 1_455 S
C870 C869 1.287 1_655 S
C870 C871 1.524 . S
C870 H889 0.913 . S
C871 H847 0.950 . S
C871 C870 1.524 . S
C871 C872 1.415 . S
C872 H848 0.950 . S
C872 C867 1.363 1_655 S
C872 C871 1.415 . S
C873 H849 0.951 . S
C873 C874 1.366 . S
C873 C875 1.388 1_655 S
C874 C873 1.366 . S
C874 C878 1.385 . S
C875 H850 0.951 . S
C875 C873 1.388 1_455 S
C875 C876 1.366 . S
C876 C875 1.366 . S
C876 C877 1.414 1_455 S
C876 C879 1.499 . S
C877 H851 0.950 . S
C877 C876 1.414 1_655 S
C877 C878 1.374 . S
C878 H852 0.950 . S
C878 C874 1.385 . S
C878 C877 1.374 . S
C879 C876 1.499 . S
C879 C880 1.373 . S
C879 C881 1.389 . S
C880 H853 0.950 1_455 S
C880 C866 1.377 . S
C880 C879 1.373 . S
C881 C865 1.377 . S
C881 C879 1.389 . S
C881 C882 1.524 . S
C882 C881 1.524 . S
C882 C883 1.397 . S
C882 C887 1.363 . S
C883 H854 0.950 . S
C883 C882 1.397 . S
C883 C884 1.334 . S
C884 H855 0.950 . S
C884 C883 1.334 . S
C884 C885 1.287 . S
C885 C884 1.287 . S
C885 C886 1.524 . S
C885 H888 0.999 . S
C886 H856 0.950 . S
C886 C885 1.524 . S
C886 C887 1.415 . S
C887 H857 0.950 . S
C887 C882 1.363 . S
C887 C886 1.415 . S
H888 C885 0.999 . S
H889 C870 0.913 . S
H890 C908 0.951 . S
H891 C910 0.951 . S
H892 C912 0.950 . S
H893 C913 0.950 . S
H894 C915 0.950 . S
H895 C918 0.950 . S
H896 C919 0.950 . S
H897 C921 0.950 . S
H898 C922 0.950 . S
H899 C923 0.951 . S
H900 C925 0.951 . S
H901 C927 0.950 . S
H902 C928 0.950 . S
H903 C930 0.950 . S
H904 C933 0.950 . S
H905 C934 0.938 1_565 S
H906 C936 0.950 . S
H907 C937 0.950 . S
C908 H890 0.951 . S
C908 C909 1.366 . S
C908 C910 1.388 1_655 S
C909 C908 1.366 . S
C909 C913 1.385 . S
C910 H891 0.951 . S
C910 C908 1.388 1_455 S
C910 C911 1.366 . S
C911 C910 1.366 . S
C911 C912 1.414 . S
C911 C914 1.499 . S
C912 H892 0.950 . S
C912 C911 1.414 . S
C912 C913 1.374 1_455 S
C913 H893 0.950 . S
C913 C909 1.385 . S
C913 C912 1.374 1_655 S
C914 C911 1.499 . S
C914 C915 1.373 . S
C914 C916 1.389 . S
C915 H894 0.950 . S
C915 C914 1.373 . S
C915 C931 1.377 . S
C916 C914 1.389 . S
C916 C917 1.524 . S
C916 C930 1.377 . S
C917 C916 1.524 . S
C917 C918 1.397 . S
C917 C922 1.363 . S
C918 H895 0.950 . S
C918 C917 1.397 . S
C918 C919 1.334 . S
C919 H896 0.950 . S
C919 C918 1.334 . S
C919 C920 1.287 . S
C920 C919 1.287 . S
C920 C921 1.524 . S
C920 H939 0.913 . S
C921 H897 0.950 . S
C921 C920 1.524 . S
C921 C922 1.415 . S
C922 H898 0.950 . S
C922 C917 1.363 . S
C922 C921 1.415 . S
C923 H899 0.951 . S
C923 C924 1.366 . S
C923 C925 1.388 . S
C924 C923 1.366 . S
C924 C928 1.385 1_545 S
C925 H900 0.951 . S
C925 C923 1.388 . S
C925 C926 1.366 1_545 S
C926 C925 1.366 1_565 S
C926 C927 1.414 . S
C926 C929 1.499 . S
C927 H901 0.950 . S
C927 C926 1.414 . S
C927 C928 1.374 . S
C928 H902 0.950 . S
C928 C924 1.385 1_565 S
C928 C927 1.374 . S
C929 C926 1.499 . S
C929 C930 1.373 . S
C929 C931 1.389 . S
C930 H903 0.950 . S
C930 C916 1.377 . S
C930 C929 1.373 . S
C931 C915 1.377 . S
C931 C929 1.389 . S
C931 C932 1.524 . S
C932 C931 1.524 . S
C932 C933 1.397 . S
C932 C937 1.363 1_565 S
C933 H904 0.950 . S
C933 C932 1.397 . S
C933 C934 1.328 1_565 S
C934 H905 0.938 1_545 S
C934 C933 1.328 1_545 S
C934 C935 1.306 . S
C935 C934 1.306 . S
C935 C936 1.524 . S
C935 H938 0.999 . S
C936 H906 0.950 . S
C936 C935 1.524 . S
C936 C937 1.415 . S
C937 H907 0.950 . S
C937 C932 1.363 1_545 S
C937 C936 1.415 . S
H938 C935 0.999 . S
H939 C920 0.913 . S
H940 C958 0.951 . S
H941 C960 0.951 . S
H942 C962 0.950 . S
H943 C963 0.950 . S
H944 C965 0.950 . S
H945 C968 0.950 . S
H946 C969 0.950 . S
H947 C971 0.950 . S
H948 C972 0.950 . S
H949 C973 0.951 . S
H950 C975 0.951 . S
H951 C977 0.950 . S
H952 C978 0.950 . S
H953 C980 0.950 . S
H954 C983 0.950 . S
H955 C984 0.950 . S
H956 C986 0.950 . S
H957 C987 0.950 . S
C958 H940 0.951 . S
C958 C959 1.366 . S
C958 C960 1.388 1_545 S
C959 C958 1.366 . S
C959 C963 1.385 . S
C960 H941 0.951 . S
C960 C958 1.388 1_565 S
C960 C961 1.366 . S
C961 C960 1.366 . S
C961 C962 1.414 . S
C961 C964 1.499 . S
C962 H942 0.950 . S
C962 C961 1.414 . S
C962 C963 1.374 1_565 S
C963 H943 0.950 . S
C963 C959 1.385 . S
C963 C962 1.374 1_545 S
C964 C961 1.499 . S
C964 C965 1.373 . S
C964 C966 1.389 . S
C965 H944 0.950 . S
C965 C964 1.373 . S
C965 C981 1.377 . S
C966 C964 1.389 . S
C966 C967 1.524 . S
C966 C980 1.377 . S
C967 C966 1.524 . S
C967 C968 1.397 . S
C967 C972 1.363 . S
C968 H945 0.950 . S
C968 C967 1.397 . S
C968 C969 1.334 . S
C969 H946 0.950 . S
C969 C968 1.334 . S
C969 C970 1.287 . S
C970 C969 1.287 . S
C970 C971 1.524 . S
C970 H989 0.913 . S
C971 H947 0.950 . S
C971 C970 1.524 . S
C971 C972 1.415 . S
C972 H948 0.950 . S
C972 C967 1.363 . S
C972 C971 1.415 . S
C973 H949 0.951 . S
C973 C974 1.366 . S
C973 C975 1.388 . S
C974 C973 1.366 . S
C974 C978 1.385 . S
C975 H950 0.951 . S
C975 C973 1.388 . S
C975 C976 1.366 . S
C976 C975 1.366 . S
C976 C977 1.414 . S
C976 C979 1.499 . S
C977 H951 0.950 . S
C977 C976 1.414 . S
C977 C978 1.374 . S
C978 H952 0.950 . S
C978 C974 1.385 . S
C978 C977 1.374 . S
C979 C976 1.499 . S
C979 C980 1.373 . S
C979 C981 1.389 . S
C980 H953 0.950 . S
C980 C966 1.377 . S
C980 C979 1.373 . S
C981 C965 1.377 . S
C981 C979 1.389 . S
C981 C982 1.524 . S
C982 C981 1.524 . S
C982 C983 1.397 . S
C982 C987 1.363 . S
C983 H954 0.950 . S
C983 C982 1.397 . S
C983 C984 1.334 . S
C984 H955 0.950 . S
C984 C983 1.334 . S
C984 C985 1.287 . S
C985 C984 1.287 . S
C985 C986 1.524 . S
C985 H988 0.999 . S
C986 H956 0.950 . S
C986 C985 1.524 . S
C986 C987 1.415 . S
C987 H957 0.950 . S
C987 C982 1.363 . S
C987 C986 1.415 . S
H988 C985 0.999 . S
H989 C970 0.913 . S
H990 C1008 0.951 . S
H991 C1010 0.951 . S
H992 C1012 0.950 . S
H993 C1013 0.950 . S
H994 C1015 0.950 . S
H995 C1018 0.950 . S
H996 C1019 0.950 . S
H997 C1021 0.950 . S
H998 C1022 0.945 1_565 S
H999 C1023 0.951 . S
H1000 C1025 0.951 . S
H1001 C1027 0.950 . S
H1002 C1028 0.950 . S
H1003 C1030 0.950 . S
H1004 C1033 0.950 . S
H1005 C1034 0.950 . S
H1006 C1036 0.950 . S
H1007 C1037 0.950 . S
C1008 H990 0.951 . S
C1008 C1009 1.366 . S
C1008 C1010 1.388 . S
C1009 C1008 1.366 . S
C1009 C1013 1.385 . S
C1010 H991 0.951 . S
C1010 C1008 1.388 . S
C1010 C1011 1.366 . S
C1011 C1010 1.366 . S
C1011 C1012 1.414 . S
C1011 C1014 1.499 . S
C1012 H992 0.950 . S
C1012 C1011 1.414 . S
C1012 C1013 1.374 . S
C1013 H993 0.950 . S
C1013 C1009 1.385 . S
C1013 C1012 1.374 . S
C1014 C1011 1.499 . S
C1014 C1015 1.373 . S
C1014 C1016 1.389 . S
C1015 H994 0.950 . S
C1015 C1014 1.373 . S
C1015 C1031 1.377 . S
C1016 C1014 1.389 . S
C1016 C1017 1.524 . S
C1016 C1030 1.377 . S
C1017 C1016 1.524 . S
C1017 C1018 1.397 . S
C1017 C1022 1.367 . S
C1018 H995 0.950 . S
C1018 C1017 1.397 . S
C1018 C1019 1.334 . S
C1019 H996 0.950 . S
C1019 C1018 1.334 . S
C1019 C1020 1.287 . S
C1020 C1019 1.287 . S
C1020 C1021 1.524 1_545 S
C1020 H1039 0.913 . S
C1021 H997 0.950 . S
C1021 C1020 1.524 1_565 S
C1021 C1022 1.416 1_565 S
C1022 H998 0.945 1_545 S
C1022 C1017 1.367 . S
C1022 C1021 1.416 1_545 S
C1023 H999 0.951 . S
C1023 C1024 1.366 1_545 S
C1023 C1025 1.388 . S
C1024 C1023 1.366 1_565 S
C1024 C1028 1.385 . S
C1025 H1000 0.951 . S
C1025 C1023 1.388 . S
C1025 C1026 1.366 . S
C1026 C1025 1.366 . S
C1026 C1027 1.414 1_545 S
C1026 C1029 1.499 . S
C1027 H1001 0.950 . S
C1027 C1026 1.414 1_565 S
C1027 C1028 1.374 . S
C1028 H1002 0.950 . S
C1028 C1024 1.385 . S
C1028 C1027 1.374 . S
C1029 C1026 1.499 . S
C1029 C1030 1.373 . S
C1029 C1031 1.389 . S
C1030 H1003 0.950 . S
C1030 C1016 1.377 . S
C1030 C1029 1.373 . S
C1031 C1015 1.377 . S
C1031 C1029 1.389 . S
C1031 C1032 1.524 . S
C1032 C1031 1.524 . S
C1032 C1033 1.397 . S
C1032 C1037 1.363 . S
C1033 H1004 0.950 . S
C1033 C1032 1.397 . S
C1033 C1034 1.334 . S
C1034 H1005 0.950 . S
C1034 C1033 1.334 . S
C1034 C1035 1.287 . S
C1035 C1034 1.287 . S
C1035 C1036 1.524 . S
C1035 H1038 0.999 . S
C1036 H1006 0.950 . S
C1036 C1035 1.524 . S
C1036 C1037 1.415 . S
C1037 H1007 0.950 . S
C1037 C1032 1.363 . S
C1037 C1036 1.415 . S
H1038 C1035 0.999 . S
H1039 C1020 0.913 . S
H1040 C1058 0.951 . S
H1041 C1060 0.951 . S
H1042 C1062 0.950 . S
H1043 C1063 0.950 . S
H1044 C1065 0.950 . S
H1045 C1068 0.950 . S
H1046 C1069 0.950 . S
H1047 C1071 0.950 . S
H1048 C1072 0.950 . S
H1049 C1073 0.951 . S
H1050 C1075 0.951 . S
H1051 C1077 0.950 . S
H1052 C1078 0.950 . S
H1053 C1080 0.950 . S
H1054 C1083 0.950 . S
H1055 C1084 0.950 . S
H1056 C1086 0.950 . S
H1057 C1087 0.950 . S
C1058 H1040 0.951 . S
C1058 C1059 1.366 . S
C1058 C1060 1.388 1_455 S
C1059 C1058 1.366 . S
C1059 C1063 1.385 . S
C1060 H1041 0.951 . S
C1060 C1058 1.388 1_655 S
C1060 C1061 1.366 . S
C1061 C1060 1.366 . S
C1061 C1062 1.414 . S
C1061 C1064 1.499 . S
C1062 H1042 0.950 . S
C1062 C1061 1.414 . S
C1062 C1063 1.374 1_655 S
C1063 H1043 0.950 . S
C1063 C1059 1.385 . S
C1063 C1062 1.374 1_455 S
C1064 C1061 1.499 . S
C1064 C1065 1.373 . S
C1064 C1066 1.389 . S
C1065 H1044 0.950 . S
C1065 C1064 1.373 . S
C1065 C1081 1.377 . S
C1066 C1064 1.389 . S
C1066 C1067 1.524 . S
C1066 C1080 1.377 . S
C1067 C1066 1.524 . S
C1067 C1068 1.397 . S
C1067 C1072 1.363 . S
C1068 H1045 0.950 . S
C1068 C1067 1.397 . S
C1068 C1069 1.334 . S
C1069 H1046 0.950 . S
C1069 C1068 1.334 . S
C1069 C1070 1.287 . S
C1070 C1069 1.287 . S
C1070 C1071 1.524 . S
C1070 H1089 0.913 . S
C1071 H1047 0.950 . S
C1071 C1070 1.524 . S
C1071 C1072 1.415 . S
C1072 H1048 0.950 . S
C1072 C1067 1.363 . S
C1072 C1071 1.415 . S
C1073 H1049 0.951 . S
C1073 C1074 1.366 . S
C1073 C1075 1.388 . S
C1074 C1073 1.366 . S
C1074 C1078 1.385 . S
C1075 H1050 0.951 . S
C1075 C1073 1.388 . S
C1075 C1076 1.366 . S
C1076 C1075 1.366 . S
C1076 C1077 1.414 . S
C1076 C1079 1.499 . S
C1077 H1051 0.950 . S
C1077 C1076 1.414 . S
C1077 C1078 1.374 . S
C1078 H1052 0.950 . S
C1078 C1074 1.385 . S
C1078 C1077 1.374 . S
C1079 C1076 1.499 . S
C1079 C1080 1.373 . S
C1079 C1081 1.389 . S
C1080 H1053 0.950 . S
C1080 C1066 1.377 . S
C1080 C1079 1.373 . S
C1081 C1065 1.377 . S
C1081 C1079 1.389 . S
C1081 C1082 1.524 . S
C1082 C1081 1.524 . S
C1082 C1083 1.397 . S
C1082 C1087 1.363 . S
C1083 H1054 0.950 . S
C1083 C1082 1.397 . S
C1083 C1084 1.334 . S
C1084 H1055 0.950 . S
C1084 C1083 1.334 . S
C1084 C1085 1.287 . S
C1085 C1084 1.287 . S
C1085 C1086 1.524 . S
C1085 H1088 0.999 . S
C1086 H1056 0.950 . S
C1086 C1085 1.524 . S
C1086 C1087 1.415 . S
C1087 H1057 0.950 . S
C1087 C1082 1.363 . S
C1087 C1086 1.415 . S
H1088 C1085 0.999 . S
H1089 C1070 0.913 . S
H1090 C1108 0.951 . S
H1091 C1110 0.951 . S
H1092 C1112 0.950 . S
H1093 C1113 0.978 . S
H1094 C1115 0.950 . S
H1095 C1118 0.950 . S
H1096 C1119 0.950 . S
H1097 C1121 0.950 . S
H1098 C1122 0.950 1_455 S
H1099 C1123 0.951 . S
H1100 C1125 0.951 . S
H1101 C1127 0.950 . S
H1102 C1128 0.950 . S
H1103 C1130 0.950 . S
H1104 C1133 0.950 . S
H1105 C1134 0.950 . S
H1106 C1136 0.950 . S
H1107 C1137 0.950 . S
C1108 H1090 0.951 . S
C1108 C1109 1.366 . S
C1108 C1110 1.388 . S
C1109 C1108 1.366 . S
C1109 C1113 1.353 1_455 S
C1110 H1091 0.951 . S
C1110 C1108 1.388 . S
C1110 C1111 1.366 1_455 S
C1111 C1110 1.366 1_655 S
C1111 C1112 1.414 . S
C1111 C1114 1.499 . S
C1112 H1092 0.950 . S
C1112 C1111 1.414 . S
C1112 C1113 1.378 . S
C1113 H1093 0.978 . S
C1113 C1109 1.353 1_655 S
C1113 C1112 1.378 . S
C1114 C1111 1.499 . S
C1114 C1115 1.373 . S
C1114 C1116 1.389 . S
C1115 H1094 0.950 . S
C1115 C1114 1.373 . S
C1115 C1131 1.377 . S
C1116 C1114 1.389 . S
C1116 C1117 1.524 . S
C1116 C1130 1.377 . S
C1117 C1116 1.524 . S
C1117 C1118 1.397 . S
C1117 C1122 1.363 . S
C1118 H1095 0.950 . S
C1118 C1117 1.397 . S
C1118 C1119 1.334 . S
C1119 H1096 0.950 . S
C1119 C1118 1.334 . S
C1119 C1120 1.287 . S
C1120 C1119 1.287 . S
C1120 C1121 1.524 1_655 S
C1120 H1139 0.913 1_655 S
C1121 H1097 0.950 . S
C1121 C1120 1.524 1_455 S
C1121 C1122 1.415 1_455 S
C1122 H1098 0.950 1_655 S
C1122 C1117 1.363 . S
C1122 C1121 1.415 1_655 S
C1123 H1099 0.951 . S
C1123 C1124 1.366 . S
C1123 C1125 1.388 1_565 S
C1124 C1123 1.366 . S
C1124 C1128 1.385 . S
C1125 H1100 0.951 . S
C1125 C1123 1.388 1_545 S
C1125 C1126 1.366 . S
C1126 C1125 1.366 . S
C1126 C1127 1.414 . S
C1126 C1129 1.499 . S
C1127 H1101 0.950 . S
C1127 C1126 1.414 . S
C1127 C1128 1.374 1_545 S
C1128 H1102 0.950 . S
C1128 C1124 1.385 . S
C1128 C1127 1.374 1_565 S
C1129 C1126 1.499 . S
C1129 C1130 1.373 . S
C1129 C1131 1.389 . S
C1130 H1103 0.950 . S
C1130 C1116 1.377 . S
C1130 C1129 1.373 . S
C1131 C1115 1.377 . S
C1131 C1129 1.389 . S
C1131 C1132 1.524 . S
C1132 C1131 1.524 . S
C1132 C1133 1.397 . S
C1132 C1137 1.363 . S
C1133 H1104 0.950 . S
C1133 C1132 1.397 . S
C1133 C1134 1.334 . S
C1134 H1105 0.950 . S
C1134 C1133 1.334 . S
C1134 C1135 1.287 . S
C1135 C1134 1.287 . S
C1135 C1136 1.524 . S
C1135 H1138 0.999 . S
C1136 H1106 0.950 . S
C1136 C1135 1.524 . S
C1136 C1137 1.415 . S
C1137 H1107 0.950 . S
C1137 C1132 1.363 . S
C1137 C1136 1.415 . S
H1138 C1135 0.999 . S
H1139 C1120 0.913 1_455 S
C259 C162 2.484 . S
C274 C2 2.335 . S
C309 C217 2.334 . S
C324 C57 2.484 . S
C359 C82 2.335 . S
C374 C122 2.485 . S
C409 C17 2.484 . S
C424 C177 2.334 . S
C459 C202 2.484 . S
C474 C42 2.335 . S
C509 C97 2.484 . S
C524 C137 2.334 . S
C559 C29 1.903 . S
C574 C92 1.867 . S
C609 C69 1.903 . S
C624 C12 1.867 . S
C659 C109 1.903 . S
C674 C52 1.867 . S
C709 C128 1.903 . S
C724 C191 1.866 . S
C759 C168 1.903 . S
C774 C231 1.867 . S
C809 C151 1.867 . S
C824 C208 1.903 . S
C859 C8 0.988 . S
C874 C111 1.024 . S
C909 C48 0.990 . S
C924 C31 1.024 . S
C959 C88 0.990 . S
C974 C71 1.024 . S
C1009 C149 0.989 . S
C1024 C172 1.024 . S
C1059 C189 0.989 . S
C1074 C212 1.024 . S
C1109 C132 1.024 . S
C1124 C229 0.990 . S
