# Generated by pormake.
# Topology rob, (6)-cn, num edge types: 1
# Building blocks:
#     Node 0, Type 0, BuildingBlock: KUMJIN_clean_sbu_1, # of connection points: 6
#     Node 1, Type 0, BuildingBlock: KUMJIN_clean_sbu_1, # of connection points: 6
#     Node 2, Type 0, BuildingBlock: KUMJIN_clean_sbu_1, # of connection points: 6
#     Node 3, Type 0, BuildingBlock: KUMJIN_clean_sbu_1, # of connection points: 6
#     Edge 4, Type (0, 0), BuildingBlock: KIFKEQ_clean_linker_1, # of connection points: 2
#     Edge 5, Type (0, 0), BuildingBlock: KIFKEQ_clean_linker_1, # of connection points: 2
#     Edge 6, Type (0, 0), BuildingBlock: KIFKEQ_clean_linker_1, # of connection points: 2
#     Edge 7, Type (0, 0), BuildingBlock: KIFKEQ_clean_linker_1, # of connection points: 2
#     Edge 8, Type (0, 0), BuildingBlock: KIFKEQ_clean_linker_1, # of connection points: 2
#     Edge 9, Type (0, 0), BuildingBlock: KIFKEQ_clean_linker_1, # of connection points: 2
#     Edge 10, Type (0, 0), BuildingBlock: KIFKEQ_clean_linker_1, # of connection points: 2
#     Edge 11, Type (0, 0), BuildingBlock: KIFKEQ_clean_linker_1, # of connection points: 2
#     Edge 12, Type (0, 0), BuildingBlock: KIFKEQ_clean_linker_1, # of connection points: 2
#     Edge 13, Type (0, 0), BuildingBlock: KIFKEQ_clean_linker_1, # of connection points: 2
#     Edge 14, Type (0, 0), BuildingBlock: KIFKEQ_clean_linker_1, # of connection points: 2
#     Edge 15, Type (0, 0), BuildingBlock: KIFKEQ_clean_linker_1, # of connection points: 2
# Relax obj value: 0.020
# Max RMSD: 0.111
# Mean RMSD: 0.111
data_MOF--net-rob--node1-KUMJIN_clean_sbu_1--edge1-KIFKEQ_clean_linker_1
_symmetry_space_group_name_H-M    P1
_symmetry_Int_Tables_number       1
_symmetry_cell_setting            triclinic
loop_
_symmetry_equiv_pos_as_xyz
'x, y, z'
_cell_length_a     19.132215
_cell_length_b     23.58984
_cell_length_c     34.359719
_cell_angle_alpha  109.9249
_cell_angle_beta   89.942176
_cell_angle_gamma 90.001125
loop_
_atom_site_label
_atom_site_type_symbol
_atom_site_fract_x
_atom_site_fract_y
_atom_site_fract_z
_atom_type_partial_charge
Eu0 Eu 0.30359 0.18795 0.96483 0.0
C1 C 0.08682 0.39419 0.04931 0.0
N2 N 0.15711 0.39344 0.05495 0.0
C3 C 0.16639 0.49518 0.05587 0.0
C4 C 0.05358 0.44609 0.04656 0.0
C5 C 0.19713 0.44278 0.05839 0.0
C6 C 0.09427 0.497 0.0502 0.0
C7 C 0.97512 0.34257 0.04008 0.0
C8 C 0.04817 0.34271 0.04607 0.0
C9 C 0.94207 0.39398 0.03685 0.0
C10 C 0.98105 0.44576 0.04056 0.0
Eu11 Eu 0.20263 0.30669 0.06492 0.0
N12 N 0.08118 0.29397 0.05051 0.0
C13 C 0.93686 0.2916 0.03911 0.0
C14 C 0.04281 0.24684 0.0535 0.0
C15 C 0.97075 0.24393 0.04648 0.0
H16 H 0.25253 0.44201 0.06395 0.0
H17 H 0.94102 0.20578 0.04815 0.0
H18 H 0.2282 0.05385 0.95071 0.0
H19 H 0.57633 0.2582 0.99919 0.0
H20 H 0.06631 0.2127 0.06333 0.0
H21 H 0.88076 0.28973 0.03454 0.0
H22 H 0.45238 0.27198 0.98713 0.0
H23 H 0.1982 0.53437 0.05882 0.0
H24 H 0.88604 0.39462 0.03242 0.0
H25 H 0.95447 0.48549 0.03903 0.0
H26 H 0.26328 0.95148 0.94718 0.0
H27 H 0.07052 0.53796 0.04879 0.0
H28 H 0.62026 0.15781 0.99513 0.0
N29 N 0.33054 0.09004 0.96393 0.0
C30 C 0.39918 0.07887 0.96853 0.0
C31 C 0.30195 0.98695 0.95342 0.0
C32 C 0.42187 0.02058 0.96538 0.0
C33 C 0.28199 0.0452 0.95616 0.0
C34 C 0.37224 0.97451 0.95794 0.0
N35 N 0.42353 0.18209 0.98014 0.0
C36 C 0.46939 0.22879 0.98719 0.0
C37 C 0.5184 0.11562 0.98203 0.0
C38 C 0.44694 0.12606 0.97684 0.0
C39 C 0.56505 0.16399 0.9908 0.0
C40 C 0.5404 0.22077 0.99331 0.0
H41 H 0.38769 0.92919 0.95543 0.0
H42 H 0.51146 0.96542 0.96694 0.0
H43 H 0.59605 0.04835 0.9813 0.0
O44 O 0.34513 0.20207 0.9083 0.0
O45 O 0.33101 0.18111 0.02765 0.0
O46 O 0.31225 0.27698 0.07475 0.0
O47 O 0.29174 0.11858 0.90462 0.0
O48 O 0.32688 0.28822 0.98001 0.0
O49 O 0.31036 0.33389 0.05092 0.0
O50 O 0.15927 0.30773 0.12534 0.0
O51 O 0.18682 0.3178 1.0019 0.0
O52 O 0.193 0.21917 0.96196 0.0
O53 O 0.21655 0.38481 0.12031 0.0
O54 O 0.1912 0.20565 0.05307 0.0
O55 O 0.19548 0.16545 0.98189 0.0
C56 C 0.34147 0.22324 0.06384 0.0
C57 C 0.33349 0.12313 0.83918 0.0
C58 C 0.38712 0.12277 0.77435 0.0
C59 C 0.35315 0.06825 0.75332 0.0
C60 C 0.30038 0.06824 0.81717 0.0
C61 C 0.31011 0.04122 0.77462 0.0
C62 C 0.37681 0.15067 0.8174 0.0
C63 C 0.33678 0.33299 0.0153 0.0
C64 C 0.32437 0.14866 0.8848 0.0
C65 C 0.49313 0.01001 0.96963 0.0
C66 C 0.54124 0.05731 0.97792 0.0
C67 C 0.1774 0.27483 0.96615 0.0
C68 C 0.17225 0.39736 0.18874 0.0
C69 C 0.12784 0.40854 0.25815 0.0
C70 C 0.15428 0.4678 0.27242 0.0
C71 C 0.19739 0.45687 0.20426 0.0
C72 C 0.13716 0.37334 0.21586 0.0
C73 C 0.18841 0.49163 0.24572 0.0
C74 C 0.17826 0.16161 0.01799 0.0
C75 C 0.18192 0.36237 0.14411 0.0
H76 H 0.36001 0.04658 0.72024 0.0
H77 H 0.26706 0.04576 0.83287 0.0
H78 H 0.28449 0.99893 0.75811 0.0
H79 H 0.40348 0.19253 0.83379 0.0
H80 H 0.14786 0.49651 0.30426 0.0
H81 H 0.22393 0.47694 0.18429 0.0
H82 H 0.11781 0.32748 0.20413 0.0
H83 H 0.20773 0.5375 0.25722 0.0
Eu84 Eu 0.79187 0.69325 0.96748 0.0
C85 C 0.58512 0.90294 0.05602 0.0
N86 N 0.65529 0.90112 0.06166 0.0
C87 C 0.66667 1.00326 0.06376 0.0
C88 C 0.55297 0.95563 0.05391 0.0
C89 C 0.69629 0.95011 0.06567 0.0
C90 C 0.59466 1.00617 0.05813 0.0
C91 C 0.47218 0.85343 0.04753 0.0
C92 C 0.54531 0.85217 0.05294 0.0
C93 C 0.44027 0.90543 0.04458 0.0
C94 C 0.48039 0.95661 0.04835 0.0
Eu95 Eu 0.69948 0.81301 0.0703 0.0
N96 N 0.57717 0.80307 0.05752 0.0
C97 C 0.43267 0.8034 0.04716 0.0
C98 C 0.53749 0.75723 0.06156 0.0
C99 C 0.46536 0.75555 0.05493 0.0
H100 H 0.75168 0.94831 0.07099 0.0
H101 H 0.43468 0.71828 0.05726 0.0
H102 H 0.6945 0.56763 0.9371 0.0
H103 H 0.06722 0.72493 1.01114 0.0
H104 H 0.56002 0.72306 0.07182 0.0
H105 H 0.37649 0.80259 0.043 0.0
H106 H 0.94784 0.75713 1.00128 0.0
H107 H 0.69921 0.04218 0.06717 0.0
H108 H 0.38423 0.90713 0.04056 0.0
H109 H 0.45462 0.99691 0.04723 0.0
H110 H 0.70962 0.45844 0.92322 0.0
H111 H 0.57175 0.04779 0.05743 0.0
H112 H 0.09314 0.61666 0.99565 0.0
N113 N 0.79972 0.58913 0.95584 0.0
C114 C 0.86417 0.56808 0.96045 0.0
C115 C 0.75343 0.4888 0.93386 0.0
C116 C 0.87587 0.50587 0.95132 0.0
C117 C 0.74469 0.55072 0.94239 0.0
C118 C 0.81934 0.46623 0.93827 0.0
N119 N 0.90585 0.66862 0.98252 0.0
C120 C 0.9581 0.71009 0.99538 0.0
C121 C 0.98679 0.58821 0.97778 0.0
C122 C 0.91904 0.6088 0.97347 0.0
C123 C 0.04042 0.63066 0.99177 0.0
C124 C 0.02595 0.69185 1.00067 0.0
H125 H 0.8262 0.41813 0.93107 0.0
H126 H 0.95356 0.43743 0.94764 0.0
H127 H 0.0508 0.50936 0.97033 0.0
O128 O 0.84387 0.71668 0.9179 0.0
O129 O 0.81996 0.68059 0.02879 0.0
O130 O 0.80707 0.77641 0.07565 0.0
O131 O 0.77637 0.6389 0.90261 0.0
O132 O 0.82602 0.7915 0.98623 0.0
O133 O 0.80835 0.83942 0.057 0.0
O134 O 0.65917 0.81219 0.13075 0.0
O135 O 0.687 0.82825 1.00833 0.0
O136 O 0.68336 0.73038 0.9658 0.0
O137 O 0.71765 0.88922 0.12666 0.0
O138 O 0.68143 0.71195 0.05589 0.0
O139 O 0.68178 0.67706 0.98478 0.0
C140 C 0.82634 0.72 0.06649 0.0
C141 C 0.87145 0.63358 0.85725 0.0
C142 C 0.93964 0.61877 0.79416 0.0
C143 C 0.96206 0.56267 0.79534 0.0
C144 C 0.89444 0.57706 0.8574 0.0
C145 C 0.93985 0.5422 0.82685 0.0
C146 C 0.89486 0.65457 0.82565 0.0
C147 C 0.8385 0.83529 0.02156 0.0
C148 C 0.82054 0.66923 0.88854 0.0
C149 C 0.94353 0.48512 0.95484 0.0
C150 C 0.99887 0.52614 0.96788 0.0
C151 C 0.67025 0.78743 0.97278 0.0
C152 C 0.67749 0.89802 0.19545 0.0
C153 C 0.62596 0.91009 0.26321 0.0
C154 C 0.66263 0.96466 0.28017 0.0
C155 C 0.71335 0.95278 0.21345 0.0
C156 C 0.63421 0.87645 0.22067 0.0
C157 C 0.70609 0.98556 0.25547 0.0
C158 C 0.66559 0.6705 0.02014 0.0
C159 C 0.68401 0.86577 0.15026 0.0
H160 H 0.99743 0.53491 0.772 0.0
H161 H 0.87662 0.55924 0.88069 0.0
H162 H 0.95752 0.49894 0.82745 0.0
H163 H 0.87685 0.69778 0.82494 0.0
H164 H 0.65818 0.99106 0.31278 0.0
H165 H 0.74698 0.97062 0.19501 0.0
H166 H 0.60564 0.83467 0.20712 0.0
H167 H 0.73417 0.02748 0.26895 0.0
Eu168 Eu 0.29233 0.82011 0.56716 0.0
C169 C 0.08636 0.60833 0.48012 0.0
N170 N 0.15563 0.61194 0.47233 0.0
C171 C 0.17138 0.50805 0.46489 0.0
C172 C 0.05679 0.55357 0.48011 0.0
C173 C 0.1983 0.56308 0.46476 0.0
C174 C 0.10026 0.50315 0.47234 0.0
C175 C 0.97226 0.65602 0.4942 0.0
C176 C 0.04459 0.65917 0.48692 0.0
C177 C 0.94289 0.60169 0.49462 0.0
C178 C 0.98482 0.55046 0.48693 0.0
Eu179 Eu 0.19395 0.70334 0.4663 0.0
N180 N 0.07381 0.71063 0.48453 0.0
C181 C 0.93085 0.70681 0.49904 0.0
C182 C 0.03222 0.75804 0.48546 0.0
C183 C 0.96085 0.75776 0.49408 0.0
H184 H 0.25269 0.56617 0.45752 0.0
H185 H 0.92857 0.79606 0.49542 0.0
H186 H 0.20513 0.95054 0.60478 0.0
H187 H 0.5643 0.7777 0.51711 0.0
H188 H 0.05248 0.7949 0.47744 0.0
H189 H 0.87518 0.70618 0.50473 0.0
H190 H 0.44489 0.75076 0.53145 0.0
H191 H 0.20523 0.46917 0.45853 0.0
H192 H 0.8874 0.59841 0.49986 0.0
H193 H 0.96089 0.50855 0.48623 0.0
H194 H 0.22514 0.05904 0.61821 0.0
H195 H 0.07936 0.46014 0.47167 0.0
H196 H 0.59464 0.88446 0.52973 0.0
N197 N 0.30587 0.92419 0.57942 0.0
C198 C 0.37021 0.94243 0.57176 0.0
C199 C 0.26621 0.0267 0.60479 0.0
C200 C 0.38514 1.00414 0.58078 0.0
C201 C 0.25443 0.96517 0.59636 0.0
C202 C 0.33185 0.04631 0.59689 0.0
N203 N 0.40669 0.84043 0.54933 0.0
C204 C 0.45688 0.79707 0.53595 0.0
C205 C 0.49061 0.91723 0.55046 0.0
C206 C 0.42249 0.89951 0.55703 0.0
C207 C 0.54178 0.87269 0.5354 0.0
C208 C 0.52482 0.81237 0.52817 0.0
H209 H 0.34128 0.09411 0.60418 0.0
H210 H 0.46532 0.06918 0.58147 0.0
H211 H 0.55784 0.99322 0.55509 0.0
O212 O 0.34518 0.79235 0.61458 0.0
O213 O 0.32112 0.82829 0.5046 0.0
O214 O 0.3018 0.73439 0.45516 0.0
O215 O 0.28441 0.87406 0.63282 0.0
O216 O 0.31877 0.7201 0.54773 0.0
O217 O 0.303 0.67422 0.4768 0.0
O218 O 0.14682 0.71299 0.41074 0.0
O219 O 0.18143 0.69032 0.52889 0.0
O220 O 0.18202 0.78835 0.57147 0.0
O221 O 0.20163 0.63127 0.40614 0.0
O222 O 0.18023 0.80477 0.48116 0.0
O223 O 0.18393 0.84505 0.55238 0.0
C224 C 0.32872 0.78893 0.46687 0.0
C225 C 0.38254 0.87259 0.67433 0.0
C226 C 0.44987 0.88913 0.73789 0.0
C227 C 0.4843 0.93749 0.73104 0.0
C228 C 0.41798 0.92107 0.66844 0.0
C229 C 0.46898 0.95269 0.69622 0.0
C230 C 0.39931 0.85618 0.70905 0.0
C231 C 0.33358 0.67802 0.51201 0.0
C232 C 0.32696 0.84055 0.64509 0.0
C233 C 0.45303 0.02196 0.57463 0.0
C234 C 0.50566 0.97867 0.55956 0.0
C235 C 0.16598 0.73182 0.56446 0.0
C236 C 0.10566 0.62299 0.36062 0.0
C237 C 0.02755 0.60476 0.30121 0.0
C238 C 0.99429 0.55905 0.31193 0.0
C239 C 0.07214 0.57647 0.37031 0.0
C240 C 0.08364 0.63643 0.3256 0.0
C241 C 0.01677 0.54486 0.34614 0.0
C242 C 0.16551 0.84813 0.51627 0.0
C243 C 0.16252 0.65847 0.387 0.0
H244 H 0.52406 0.96289 0.75231 0.0
H245 H 0.40585 0.9352 0.64266 0.0
H246 H 0.49636 0.98937 0.69076 0.0
H247 H 0.37239 0.81878 0.714 0.0
H248 H 0.95113 0.53403 0.29362 0.0
H249 H 0.08905 0.56394 0.3962 0.0
H250 H 0.10897 0.67238 0.31793 0.0
H251 H 0.99135 0.50909 0.35388 0.0
Eu252 Eu 0.79937 0.32012 0.56431 0.0
C253 C 0.59153 0.11137 0.47956 0.0
N254 N 0.66046 0.11509 0.47091 0.0
C255 C 0.67758 0.01168 0.4644 0.0
C256 C 0.56294 0.05688 0.48074 0.0
C257 C 0.70363 0.06649 0.46328 0.0
C258 C 0.60688 1.00673 0.47295 0.0
C259 C 0.47815 0.15978 0.49733 0.0
C260 C 0.54961 0.16258 0.48784 0.0
C261 C 0.44961 0.10544 0.49828 0.0
C262 C 0.49166 0.05407 0.48954 0.0
Eu263 Eu 0.69682 0.20706 0.465 0.0
N264 N 0.57822 0.2146 0.48598 0.0
C265 C 0.43685 0.21126 0.50443 0.0
C266 C 0.53672 0.26318 0.48969 0.0
C267 C 0.46612 0.26293 0.50011 0.0
H268 H 0.75779 0.06959 0.45538 0.0
H269 H 0.43382 0.30204 0.5036 0.0
H270 H 0.71591 0.45346 0.59585 0.0
H271 H 0.07053 0.26588 0.51648 0.0
H272 H 0.55643 0.30122 0.48281 0.0
H273 H 0.38182 0.2109 0.51184 0.0
H274 H 0.94902 0.24415 0.53073 0.0
H275 H 0.71184 0.97308 0.45818 0.0
H276 H 0.39476 0.10243 0.50523 0.0
H277 H 0.46842 0.01234 0.48971 0.0
H278 H 0.74232 0.56033 0.60701 0.0
H279 H 0.58677 0.96405 0.47348 0.0
H280 H 0.10656 0.37088 0.52726 0.0
N281 N 0.81754 0.4227 0.57358 0.0
C282 C 0.8835 0.43799 0.5662 0.0
C283 C 0.78239 0.52634 0.59533 0.0
C284 C 0.90171 0.49878 0.57404 0.0
C285 C 0.76723 0.46568 0.58833 0.0
C286 C 0.84997 0.54302 0.58824 0.0
N287 N 0.91507 0.33473 0.54584 0.0
C288 C 0.96333 0.28957 0.53389 0.0
C289 C 1.00344 0.40779 0.54633 0.0
C290 C 0.93393 0.39295 0.55254 0.0
C291 C 0.05269 0.36132 0.53257 0.0
C292 C 0.03251 0.30196 0.52635 0.0
H293 H 0.86195 0.59019 0.59446 0.0
H294 H 0.98603 0.5602 0.57471 0.0
H295 H 0.07527 0.48083 0.55097 0.0
O296 O 0.84686 0.29051 0.61226 0.0
O297 O 0.82877 0.32734 0.50159 0.0
O298 O 0.80486 0.23513 0.45103 0.0
O299 O 0.79946 0.37851 0.62927 0.0
O300 O 0.81997 0.21909 0.54498 0.0
O301 O 0.80617 0.17725 0.47374 0.0
O302 O 0.64517 0.2178 0.41096 0.0
O303 O 0.68322 0.19597 0.52837 0.0
O304 O 0.6879 0.29376 0.57148 0.0
O305 O 0.69489 0.13355 0.40554 0.0
O306 O 0.68567 0.30862 0.47945 0.0
O307 O 0.69147 0.34683 0.55055 0.0
C308 C 0.83592 0.28815 0.46382 0.0
C309 C 0.89808 0.36826 0.66817 0.0
C310 C 0.97833 0.37045 0.72402 0.0
C311 C 0.01872 0.414 0.71493 0.0
C312 C 0.93805 0.41356 0.66086 0.0
C313 C 0.99827 0.43575 0.68376 0.0
C314 C 0.91789 0.34743 0.70046 0.0
C315 C 0.83379 0.17769 0.50889 0.0
C316 C 0.83689 0.34197 0.64182 0.0
C317 C 0.97112 0.51368 0.56852 0.0
C318 C 0.02185 0.46841 0.55479 0.0
C319 C 0.66843 0.23785 0.56396 0.0
C320 C 0.69145 0.16083 0.34535 0.0
C321 C 0.67317 0.16264 0.2753 0.0
C322 C 0.74575 0.15714 0.26858 0.0
C323 C 0.76352 0.15417 0.33761 0.0
C324 C 0.64632 0.16431 0.31391 0.0
C325 C 0.79047 0.15269 0.29951 0.0
C326 C 0.67388 0.35203 0.51497 0.0
C327 C 0.66282 0.16446 0.38603 0.0
H328 H 0.06548 0.43205 0.73258 0.0
H329 H 0.92285 0.43213 0.63761 0.0
H330 H 0.02899 0.47019 0.67745 0.0
H331 H 0.88717 0.31298 0.70684 0.0
H332 H 0.76782 0.15554 0.23918 0.0
H333 H 0.79881 0.14985 0.36098 0.0
H334 H 0.59058 0.16946 0.31978 0.0
H335 H 0.8462 0.14786 0.29389 0.0
H336 H 0.56892 0.61506 0.96171 0.0
H337 H 0.65567 0.61428 0.07742 0.0
H338 H 0.48953 0.53408 0.96066 0.0
H339 H 0.57776 0.53139 0.07586 0.0
H340 H 0.38005 0.42795 0.08233 0.0
H341 H 0.45881 0.50911 0.08341 0.0
H342 H 0.48489 0.43001 0.95082 0.0
H343 H 0.40316 0.35033 0.94943 0.0
C344 C 0.57157 0.59688 0.98668 0.0
C345 C 0.61868 0.62057 0.01954 0.0
C346 C 0.52624 0.55024 0.98601 0.0
C347 C 0.5273 0.5258 0.01804 0.0
C348 C 0.57472 0.54961 0.05094 0.0
C349 C 0.61964 0.59683 0.0518 0.0
C350 C 0.40207 0.42798 0.05329 0.0
C351 C 0.38481 0.3826 0.01573 0.0
C352 C 0.44799 0.47433 0.05401 0.0
C353 C 0.47856 0.4762 0.01725 0.0
C354 C 0.46156 0.43064 0.97969 0.0
C355 C 0.41494 0.38463 0.9789 0.0
H356 H 0.37683 0.57987 0.4465 0.0
H357 H 0.41202 0.67254 0.57712 0.0
H358 H 0.46055 0.50277 0.44745 0.0
H359 H 0.49847 0.5976 0.5775 0.0
H360 H 0.58662 0.41814 0.57627 0.0
H361 H 0.50641 0.49726 0.57489 0.0
H362 H 0.57996 0.48092 0.45246 0.0
H363 H 0.65843 0.39974 0.45342 0.0
C364 C 0.40248 0.584 0.47541 0.0
C365 C 0.38651 0.63196 0.51188 0.0
C366 C 0.45129 0.54007 0.47584 0.0
C367 C 0.48625 0.54357 0.51262 0.0
C368 C 0.47153 0.59248 0.5488 0.0
C369 C 0.42206 0.63583 0.54851 0.0
C370 C 0.5862 0.43194 0.54925 0.0
C371 C 0.62902 0.40306 0.51504 0.0
C372 C 0.54028 0.4775 0.54846 0.0
C373 C 0.53659 0.49583 0.51359 0.0
C374 C 0.58044 0.46741 0.47957 0.0
C375 C 0.62581 0.42122 0.4802 0.0
H376 H 0.15999 0.11649 0.08084 0.0
H377 H 0.09189 0.09438 0.95677 0.0
H378 H 0.08132 0.03542 0.08208 0.0
H379 H 0.01196 0.01522 0.95833 0.0
H380 H 0.92087 0.83879 0.95718 0.0
H381 H 0.00668 0.91456 0.957 0.0
H382 H 0.96046 0.01337 0.08548 0.0
H383 H 0.87692 0.93607 0.08625 0.0
C384 C 0.12812 0.09431 0.05389 0.0
C385 C 0.13241 0.11144 0.01864 0.0
C386 C 0.08273 0.04814 0.05464 0.0
C387 C 0.0402 0.01856 0.02027 0.0
C388 C 0.04481 0.03596 0.98506 0.0
C389 C 0.09051 0.08161 0.9842 0.0
C390 C 0.929 0.87655 0.98548 0.0
C391 C 0.89128 0.88145 0.02162 0.0
C392 C 0.97808 0.9203 0.9853 0.0
C393 C 0.99029 0.9705 0.02114 0.0
C394 C 0.95314 0.97505 0.05743 0.0
C395 C 0.90457 0.9309 0.05773 0.0
H396 H 0.83211 0.11358 0.56083 0.0
H397 H 0.94122 0.13133 0.4558 0.0
H398 H 0.91075 0.03285 0.56124 0.0
H399 H 0.02444 0.05416 0.45797 0.0
H400 H 0.12976 0.87829 0.44879 0.0
H401 H 0.04757 0.95492 0.44557 0.0
H402 H 0.01857 0.01026 0.5783 0.0
H403 H 0.09386 0.92907 0.58035 0.0
C404 C 0.87381 0.10042 0.53813 0.0
C405 C 0.88098 0.12829 0.50831 0.0
C406 C 0.91958 0.05455 0.53855 0.0
C407 C 0.97521 0.0369 0.50998 0.0
C408 C 0.98189 0.06527 0.48005 0.0
C409 C 0.93455 0.10983 0.47885 0.0
C410 C 0.10563 0.90683 0.47725 0.0
C411 C 0.11958 0.89813 0.51498 0.0
C412 C 0.05881 0.95141 0.47552 0.0
C413 C 0.02591 0.98953 0.51167 0.0
C414 C 0.04131 0.98141 0.54952 0.0
C415 C 0.08633 0.93562 0.55098 0.0
H416 H 0.55217 0.10064 0.24583 0.0
H417 H 0.68851 0.23713 0.23026 0.0
H418 H 0.47426 0.11181 0.19215 0.0
H419 H 0.61097 0.24831 0.17688 0.0
H420 H 0.40627 0.30615 0.12936 0.0
H421 H 0.4878 0.28827 0.17825 0.0
H422 H 0.47396 0.09646 0.11371 0.0
H423 H 0.39224 0.11418 0.06411 0.0
C424 C 0.56535 0.13301 0.23095 0.0
C425 C 0.62616 0.16827 0.24237 0.0
C426 C 0.52121 0.13898 0.20001 0.0
C427 C 0.53644 0.18107 0.18042 0.0
C428 C 0.5976 0.21583 0.19163 0.0
C429 C 0.64213 0.20924 0.22204 0.0
C430 C 0.42053 0.26006 0.12539 0.0
C431 C 0.39245 0.21161 0.09281 0.0
C432 C 0.46765 0.2499 0.15333 0.0
C433 C 0.48736 0.19099 0.14979 0.0
C434 C 0.45944 0.14233 0.11727 0.0
C435 C 0.41294 0.15255 0.0888 0.0
H436 H 0.53015 0.97693 0.31876 0.0
H437 H 0.61618 0.79741 0.26947 0.0
H438 H 0.45891 0.94674 0.36696 0.0
H439 H 0.54617 0.76711 0.31865 0.0
H440 H 0.36359 0.71852 0.38769 0.0
H441 H 0.43271 0.74608 0.33743 0.0
H442 H 0.46626 0.92323 0.42761 0.0
H443 H 0.39354 0.89709 0.47692 0.0
C444 C 0.53398 0.93093 0.31838 0.0
C445 C 0.57903 0.88961 0.29039 0.0
C446 C 0.49342 0.91362 0.34627 0.0
C447 C 0.49707 0.85454 0.34727 0.0
C448 C 0.54121 0.8128 0.31862 0.0
C449 C 0.58145 0.83008 0.29038 0.0
C450 C 0.38565 0.76345 0.39691 0.0
C451 C 0.37326 0.80533 0.43674 0.0
C452 C 0.4259 0.77913 0.36805 0.0
C453 C 0.45532 0.83704 0.37825 0.0
C454 C 0.4436 0.8786 0.41828 0.0
C455 C 0.40263 0.8632 0.44694 0.0
H456 H 0.58524 0.71515 0.91292 0.0
H457 H 0.66252 0.89765 0.96249 0.0
H458 H 0.52259 0.73974 0.85935 0.0
H459 H 0.60342 0.92166 0.90706 0.0
H460 H 0.45303 0.96239 0.81882 0.0
H461 H 0.49837 0.93898 0.87801 0.0
H462 H 0.5418 0.75662 0.79765 0.0
H463 H 0.49325 0.77981 0.73927 0.0
C464 C 0.5892 0.76059 0.91218 0.0
C465 C 0.62941 0.80432 0.94174 0.0
C466 C 0.55356 0.77465 0.88117 0.0
C467 C 0.55821 0.83259 0.87822 0.0
C468 C 0.59752 0.87675 0.90843 0.0
C469 C 0.63196 0.86297 0.94013 0.0
C470 C 0.47136 0.91708 0.81416 0.0
C471 C 0.46949 0.87279 0.77453 0.0
C472 C 0.49804 0.90372 0.84799 0.0
C473 C 0.52461 0.84595 0.84291 0.0
C474 C 0.52089 0.80134 0.80325 0.0
C475 C 0.49315 0.8145 0.76959 0.0
H476 H 0.60383 0.31555 0.63225 0.0
H477 H 0.64088 0.12582 0.56815 0.0
H478 H 0.53932 0.29165 0.68587 0.0
H479 H 0.57658 0.10196 0.62209 0.0
H480 H 0.51691 0.08417 0.74619 0.0
H481 H 0.58571 0.11218 0.69537 0.0
H482 H 0.42956 0.24483 0.696 0.0
H483 H 0.36099 0.21606 0.74669 0.0
C484 C 0.59812 0.26866 0.62953 0.0
C485 C 0.62755 0.22259 0.59583 0.0
C486 C 0.56076 0.25498 0.66023 0.0
C487 C 0.55251 0.19489 0.65834 0.0
C488 C 0.58216 0.14877 0.62466 0.0
C489 C 0.61871 0.1624 0.59358 0.0
C490 C 0.49809 0.11983 0.73573 0.0
C491 C 0.43415 0.14827 0.75034 0.0
C492 C 0.53701 0.13555 0.70642 0.0
C493 C 0.51292 0.1804 0.69124 0.0
C494 C 0.45 0.21046 0.70723 0.0
C495 C 0.41086 0.19435 0.73639 0.0
H496 H 0.82383 0.7808 0.14939 0.0
H497 H 0.9054 0.61848 0.05855 0.0
H498 H 0.87519 0.75166 0.20453 0.0
H499 H 0.95833 0.59002 0.11425 0.0
H500 H 0.1001 0.6082 0.23316 0.0
H501 H 0.05429 0.63364 0.17417 0.0
H502 H 0.84997 0.66289 0.23093 0.0
H503 H 0.89526 0.63657 0.28909 0.0
C504 C 0.85337 0.73917 0.14104 0.0
C505 C 0.86067 0.70216 0.09937 0.0
C506 C 0.88251 0.72239 0.17275 0.0
C507 C 0.92065 0.66859 0.16371 0.0
C508 C 0.92949 0.63196 0.12207 0.0
C509 C 0.89905 0.64823 0.0902 0.0
C510 C 0.04548 0.62018 0.23286 0.0
C511 C 1.00118 0.62076 0.26567 0.0
C512 C 0.01923 0.63424 0.19908 0.0
C513 C 0.94865 0.65043 0.19809 0.0
C514 C 0.90465 0.65099 0.231 0.0
C515 C 0.93047 0.63581 0.2642 0.0
H516 H 0.89056 0.39896 0.47066 0.0
H517 H 0.88985 0.21261 0.39065 0.0
H518 H 0.96388 0.42445 0.42068 0.0
H519 H 0.96052 0.23877 0.34011 0.0
H520 H 0.01286 0.33361 0.24306 0.0
H521 H 0.94578 0.30229 0.29285 0.0
H522 H 0.08662 0.40131 0.39022 0.0
H523 H 0.15532 0.43075 0.34065 0.0
C524 C 0.90604 0.36333 0.44258 0.0
C525 C 0.8831 0.30371 0.43446 0.0
C526 C 0.94803 0.37805 0.41395 0.0
C527 C 0.96753 0.33373 0.37638 0.0
C528 C 0.9454 0.2741 0.36847 0.0
C529 C 0.90441 0.2592 0.39735 0.0
C530 C 0.03053 0.34776 0.27487 0.0
C531 C 0.08951 0.3852 0.28761 0.0
C532 C 0.99176 0.33004 0.30346 0.0
C533 C 0.01053 0.34989 0.34555 0.0
C534 C 0.07011 0.38621 0.35818 0.0
C535 C 0.1094 0.40315 0.3296 0.0
H536 H 0.91158 0.38646 0.79724 0.0
H537 H 0.09735 0.3105 0.72792 0.0
H538 H 0.95734 0.36353 0.85713 0.0
H539 H 0.14237 0.28621 0.78703 0.0
H540 H 0.16218 0.19782 0.88695 0.0
H541 H 0.10939 0.21784 0.82845 0.0
H542 H 0.0656 0.40077 0.90634 0.0
H543 H 0.11927 0.38121 0.96515 0.0
C544 C 0.96149 0.36376 0.79467 0.0
C545 C 1.00084 0.34965 0.75807 0.0
C546 C 0.98792 0.35118 0.82891 0.0
C547 C 0.05339 0.32306 0.82667 0.0
C548 C 0.09156 0.30744 0.78952 0.0
C549 C 0.06587 0.32118 0.75574 0.0
C550 C 0.14102 0.24231 0.89184 0.0
C551 C 0.1445 0.28778 0.93098 0.0
C552 C 0.11093 0.25373 0.85823 0.0
C553 C 0.08285 0.31068 0.86295 0.0
C554 C 0.08571 0.35614 0.90206 0.0
C555 C 0.11673 0.34496 0.93568 0.0
H556 H 0.09579 0.80714 0.63132 0.0
H557 H 0.14788 0.61957 0.57015 0.0
H558 H 0.03446 0.7816 0.68515 0.0
H559 H 0.08991 0.59424 0.62531 0.0
H560 H 0.93184 0.5568 0.71142 0.0
H561 H 0.98151 0.58428 0.65499 0.0
H562 H 0.05387 0.75273 0.74322 0.0
H563 H 1.00222 0.72536 0.79943 0.0
C564 C 0.09451 0.76039 0.62949 0.0
C565 C 0.127 0.71543 0.59647 0.0
C566 C 0.05964 0.74574 0.66061 0.0
C567 C 0.05714 0.6858 0.65995 0.0
C568 C 0.08937 0.64075 0.62664 0.0
C569 C 0.1232 0.65529 0.59507 0.0
C570 C 0.95813 0.59982 0.71858 0.0
C571 C 0.96363 0.6388 0.75979 0.0
C572 C 0.98698 0.61553 0.68624 0.0
C573 C 0.02258 0.67057 0.69426 0.0
C574 C 0.02621 0.7103 0.73556 0.0
C575 C 0.99672 0.69472 0.7679 0.0
loop_
_geom_bond_atom_site_label_1
_geom_bond_atom_site_label_2
_geom_bond_distance
_geom_bond_site_symmetry_2
_ccdc_geom_bond_type
Eu0 N29 2.600 . S
Eu0 N35 2.562 . S
Eu0 O44 2.462 . S
Eu0 O45 2.373 1_556 S
Eu0 O47 2.432 . S
Eu0 O48 2.291 . S
Eu0 O52 2.335 . S
Eu0 O55 2.372 . S
Eu0 C64 2.787 . S
C1 N2 1.365 . S
C1 C4 1.405 . S
C1 C8 1.448 . S
N2 C1 1.365 . S
N2 C5 1.319 . S
N2 Eu11 2.600 . S
C3 C5 1.397 . S
C3 C6 1.367 . S
C3 H23 0.931 . S
C4 C1 1.405 . S
C4 C6 1.403 . S
C4 C10 1.439 1_455 S
C5 N2 1.319 . S
C5 C3 1.397 . S
C5 H16 0.930 . S
C6 C3 1.367 . S
C6 C4 1.403 . S
C6 H27 0.929 . S
C7 C8 1.430 1_655 S
C7 C9 1.387 . S
C7 C13 1.404 1_554 S
C8 C1 1.448 . S
C8 C7 1.430 1_455 S
C8 N12 1.351 . S
C9 C7 1.387 . S
C9 C10 1.374 . S
C9 H24 0.931 1_554 S
C10 C4 1.439 1_655 S
C10 C9 1.374 . S
C10 H25 0.931 . S
Eu11 N2 2.600 . S
Eu11 N12 2.562 . S
Eu11 O46 2.335 . S
Eu11 O49 2.372 . S
Eu11 O50 2.462 . S
Eu11 O51 2.373 1_554 S
Eu11 O53 2.432 . S
Eu11 O54 2.291 . S
Eu11 C75 2.787 . S
N12 C8 1.351 . S
N12 Eu11 2.562 . S
N12 C14 1.325 . S
C13 C7 1.404 1_556 S
C13 C15 1.362 1_556 S
C13 H21 0.930 . S
C14 N12 1.325 . S
C14 C15 1.419 1_455 S
C14 H20 0.929 . S
C15 C13 1.362 1_554 S
C15 C14 1.419 1_655 S
C15 H17 0.930 1_554 S
H16 C5 0.930 . S
H17 C15 0.930 1_556 S
H18 C33 0.930 . S
H19 C40 0.930 . S
H20 C14 0.929 . S
H21 C13 0.930 . S
H22 C36 0.929 . S
H23 C3 0.931 . S
H24 C9 0.931 1_556 S
H25 C10 0.931 . S
H26 C31 0.931 . S
H27 C6 0.929 . S
H28 C39 0.930 . S
N29 Eu0 2.600 . S
N29 C30 1.365 . S
N29 C33 1.319 . S
C30 N29 1.365 . S
C30 C32 1.405 . S
C30 C38 1.448 . S
C31 H26 0.931 . S
C31 C33 1.397 1_565 S
C31 C34 1.367 . S
C32 C30 1.405 . S
C32 C34 1.403 1_545 S
C32 C65 1.439 . S
C33 H18 0.930 . S
C33 N29 1.319 . S
C33 C31 1.397 1_545 S
C34 C31 1.367 . S
C34 C32 1.403 1_565 S
C34 H41 0.929 . S
N35 Eu0 2.562 . S
N35 C36 1.325 . S
N35 C38 1.351 . S
C36 H22 0.929 . S
C36 N35 1.325 . S
C36 C40 1.416 1_556 S
C37 C38 1.430 . S
C37 C39 1.404 1_556 S
C37 C66 1.382 1_556 S
C38 C30 1.448 . S
C38 N35 1.351 . S
C38 C37 1.430 . S
C39 H28 0.930 . S
C39 C37 1.404 1_554 S
C39 C40 1.366 . S
C40 H19 0.930 . S
C40 C36 1.416 1_554 S
C40 C39 1.366 . S
H41 C34 0.929 . S
H42 C65 0.931 1_565 S
H43 C66 0.935 . S
O44 Eu0 2.462 . S
O44 C64 1.252 . S
O45 Eu0 2.373 1_554 S
O45 C56 1.249 . S
O46 Eu11 2.335 . S
O46 C56 1.264 . S
O47 Eu0 2.432 . S
O47 C64 1.268 . S
O48 Eu0 2.291 . S
O48 C63 1.255 1_556 S
O49 Eu11 2.372 . S
O49 C63 1.257 . S
O50 Eu11 2.462 . S
O50 C75 1.252 . S
O51 Eu11 2.373 1_556 S
O51 C67 1.249 . S
O52 Eu0 2.335 . S
O52 C67 1.264 . S
O53 Eu11 2.432 . S
O53 C75 1.268 . S
O54 Eu11 2.291 . S
O54 C74 1.255 1_554 S
O55 Eu0 2.372 . S
O55 C74 1.257 . S
C56 O45 1.249 . S
C56 O46 1.264 . S
C57 C60 1.382 . S
C57 C62 1.390 . S
C57 C64 1.506 . S
C58 C59 1.398 . S
C58 C62 1.392 . S
C59 C58 1.398 . S
C59 C61 1.372 . S
C59 H76 0.931 . S
C60 C57 1.382 . S
C60 C61 1.390 . S
C60 H77 0.931 . S
C61 C59 1.372 . S
C61 C60 1.390 . S
C61 H78 0.929 . S
C62 C57 1.390 . S
C62 C58 1.392 . S
C62 H79 0.930 . S
C63 O48 1.255 1_554 S
C63 O49 1.257 . S
C64 Eu0 2.787 . S
C64 O44 1.252 . S
C64 O47 1.268 . S
C64 C57 1.506 . S
C65 C32 1.439 . S
C65 H42 0.931 1_545 S
C65 C66 1.375 1_556 S
C66 C37 1.382 1_554 S
C66 H43 0.935 . S
C66 C65 1.375 1_554 S
C67 O51 1.249 . S
C67 O52 1.264 . S
C68 C71 1.382 . S
C68 C72 1.390 . S
C68 C75 1.506 . S
C69 C70 1.398 . S
C69 C72 1.392 . S
C70 C69 1.398 . S
C70 C73 1.372 . S
C70 H80 0.931 . S
C71 C68 1.382 . S
C71 C73 1.390 . S
C71 H81 0.931 . S
C72 C68 1.390 . S
C72 C69 1.392 . S
C72 H82 0.930 . S
C73 C70 1.372 . S
C73 C71 1.390 . S
C73 H83 0.929 . S
C74 O54 1.255 1_556 S
C74 O55 1.257 . S
C75 Eu11 2.787 . S
C75 O50 1.252 . S
C75 O53 1.268 . S
C75 C68 1.506 . S
H76 C59 0.931 . S
H77 C60 0.931 . S
H78 C61 0.929 . S
H79 C62 0.930 . S
H80 C70 0.931 . S
H81 C71 0.931 . S
H82 C72 0.930 . S
H83 C73 0.929 . S
Eu84 N113 2.600 . S
Eu84 N119 2.562 . S
Eu84 O128 2.462 . S
Eu84 O129 2.373 1_556 S
Eu84 O131 2.432 . S
Eu84 O132 2.291 . S
Eu84 O136 2.335 . S
Eu84 O139 2.372 . S
Eu84 C148 2.787 . S
C85 N86 1.365 . S
C85 C88 1.405 . S
C85 C92 1.448 . S
N86 C85 1.365 . S
N86 C89 1.319 . S
N86 Eu95 2.600 . S
C87 C89 1.397 1_545 S
C87 C90 1.367 . S
C87 H107 0.931 . S
C88 C85 1.405 . S
C88 C90 1.403 1_565 S
C88 C94 1.439 . S
C89 N86 1.319 . S
C89 C87 1.397 1_565 S
C89 H100 0.930 . S
C90 C87 1.367 . S
C90 C88 1.403 1_545 S
C90 H111 0.929 . S
C91 C92 1.430 . S
C91 C93 1.387 . S
C91 C97 1.404 1_554 S
C92 C85 1.448 . S
C92 C91 1.430 . S
C92 N96 1.351 . S
C93 C91 1.387 . S
C93 C94 1.374 . S
C93 H108 0.931 1_554 S
C94 C88 1.439 . S
C94 C93 1.374 . S
C94 H109 0.931 1_565 S
Eu95 N86 2.600 . S
Eu95 N96 2.562 . S
Eu95 O130 2.335 . S
Eu95 O133 2.372 . S
Eu95 O134 2.462 . S
Eu95 O135 2.373 1_554 S
Eu95 O137 2.432 . S
Eu95 O138 2.291 . S
Eu95 C159 2.787 . S
N96 C92 1.351 . S
N96 Eu95 2.562 . S
N96 C98 1.325 . S
C97 C91 1.404 1_556 S
C97 C99 1.362 1_556 S
C97 H105 0.930 . S
C98 N96 1.325 . S
C98 C99 1.419 . S
C98 H104 0.929 . S
C99 C97 1.362 1_554 S
C99 C98 1.419 . S
C99 H101 0.930 1_554 S
H100 C89 0.930 . S
H101 C99 0.930 1_556 S
H102 C117 0.930 . S
H103 C124 0.930 . S
H104 C98 0.929 . S
H105 C97 0.930 . S
H106 C120 0.929 . S
H107 C87 0.931 . S
H108 C93 0.931 1_556 S
H109 C94 0.931 1_545 S
H110 C115 0.931 . S
H111 C90 0.929 . S
H112 C123 0.930 . S
N113 Eu84 2.600 . S
N113 C114 1.365 . S
N113 C117 1.319 . S
C114 N113 1.365 . S
C114 C116 1.405 . S
C114 C122 1.448 . S
C115 H110 0.931 . S
C115 C117 1.397 . S
C115 C118 1.367 . S
C116 C114 1.405 . S
C116 C118 1.403 . S
C116 C149 1.439 1_655 S
C117 H102 0.930 . S
C117 N113 1.319 . S
C117 C115 1.397 . S
C118 C115 1.367 . S
C118 C116 1.403 . S
C118 H125 0.929 . S
N119 Eu84 2.562 . S
N119 C120 1.325 . S
N119 C122 1.351 . S
C120 H106 0.929 . S
C120 N119 1.325 . S
C120 C124 1.416 1_656 S
C121 C122 1.430 1_455 S
C121 C123 1.404 1_556 S
C121 C150 1.382 1_556 S
C122 C114 1.448 . S
C122 N119 1.351 . S
C122 C121 1.430 1_655 S
C123 H112 0.930 . S
C123 C121 1.404 1_554 S
C123 C124 1.366 . S
C124 H103 0.930 . S
C124 C120 1.416 1_454 S
C124 C123 1.366 . S
H125 C118 0.929 . S
H126 C149 0.931 . S
H127 C150 0.935 . S
O128 Eu84 2.462 . S
O128 C148 1.252 . S
O129 Eu84 2.373 1_554 S
O129 C140 1.249 . S
O130 Eu95 2.335 . S
O130 C140 1.264 . S
O131 Eu84 2.432 . S
O131 C148 1.268 . S
O132 Eu84 2.291 . S
O132 C147 1.255 1_556 S
O133 Eu95 2.372 . S
O133 C147 1.257 . S
O134 Eu95 2.462 . S
O134 C159 1.252 . S
O135 Eu95 2.373 1_556 S
O135 C151 1.249 . S
O136 Eu84 2.335 . S
O136 C151 1.264 . S
O137 Eu95 2.432 . S
O137 C159 1.268 . S
O138 Eu95 2.291 . S
O138 C158 1.255 1_554 S
O139 Eu84 2.372 . S
O139 C158 1.257 . S
C140 O129 1.249 . S
C140 O130 1.264 . S
C141 C144 1.382 . S
C141 C146 1.390 . S
C141 C148 1.506 . S
C142 C143 1.398 . S
C142 C146 1.392 . S
C143 C142 1.398 . S
C143 C145 1.372 . S
C143 H160 0.931 . S
C144 C141 1.382 . S
C144 C145 1.390 . S
C144 H161 0.931 . S
C145 C143 1.372 . S
C145 C144 1.390 . S
C145 H162 0.929 . S
C146 C141 1.390 . S
C146 C142 1.392 . S
C146 H163 0.930 . S
C147 O132 1.255 1_554 S
C147 O133 1.257 . S
C148 Eu84 2.787 . S
C148 O128 1.252 . S
C148 O131 1.268 . S
C148 C141 1.506 . S
C149 C116 1.439 1_455 S
C149 H126 0.931 . S
C149 C150 1.375 1_556 S
C150 C121 1.382 1_554 S
C150 H127 0.935 . S
C150 C149 1.375 1_554 S
C151 O135 1.249 . S
C151 O136 1.264 . S
C152 C155 1.382 . S
C152 C156 1.390 . S
C152 C159 1.506 . S
C153 C154 1.398 . S
C153 C156 1.392 . S
C154 C153 1.398 . S
C154 C157 1.372 . S
C154 H164 0.931 . S
C155 C152 1.382 . S
C155 C157 1.390 . S
C155 H165 0.931 . S
C156 C152 1.390 . S
C156 C153 1.392 . S
C156 H166 0.930 . S
C157 C154 1.372 . S
C157 C155 1.390 . S
C157 H167 0.929 . S
C158 O138 1.255 1_556 S
C158 O139 1.257 . S
C159 Eu95 2.787 . S
C159 O134 1.252 . S
C159 O137 1.268 . S
C159 C152 1.506 . S
H160 C143 0.931 . S
H161 C144 0.931 . S
H162 C145 0.929 . S
H163 C146 0.930 . S
H164 C154 0.931 . S
H165 C155 0.931 . S
H166 C156 0.930 . S
H167 C157 0.929 . S
Eu168 N197 2.600 . S
Eu168 N203 2.562 . S
Eu168 O212 2.462 . S
Eu168 O213 2.373 . S
Eu168 O215 2.432 . S
Eu168 O216 2.291 . S
Eu168 O220 2.335 . S
Eu168 O223 2.372 . S
Eu168 C232 2.787 . S
C169 N170 1.365 . S
C169 C172 1.405 . S
C169 C176 1.448 . S
N170 C169 1.365 . S
N170 C173 1.319 . S
N170 Eu179 2.600 . S
C171 C173 1.397 . S
C171 C174 1.367 . S
C171 H191 0.931 . S
C172 C169 1.405 . S
C172 C174 1.403 . S
C172 C178 1.439 1_455 S
C173 N170 1.319 . S
C173 C171 1.397 . S
C173 H184 0.930 . S
C174 C171 1.367 . S
C174 C172 1.403 . S
C174 H195 0.929 . S
C175 C176 1.430 1_655 S
C175 C177 1.387 . S
C175 C181 1.404 . S
C176 C169 1.448 . S
C176 C175 1.430 1_455 S
C176 N180 1.351 . S
C177 C175 1.387 . S
C177 C178 1.374 . S
C177 H192 0.931 . S
C178 C172 1.439 1_655 S
C178 C177 1.374 . S
C178 H193 0.931 . S
Eu179 N170 2.600 . S
Eu179 N180 2.562 . S
Eu179 O214 2.335 . S
Eu179 O217 2.372 . S
Eu179 O218 2.462 . S
Eu179 O219 2.373 . S
Eu179 O221 2.432 . S
Eu179 O222 2.291 . S
Eu179 C243 2.787 . S
N180 C176 1.351 . S
N180 Eu179 2.562 . S
N180 C182 1.325 . S
C181 C175 1.404 . S
C181 C183 1.366 . S
C181 H189 0.930 . S
C182 N180 1.325 . S
C182 C183 1.416 1_455 S
C182 H188 0.929 . S
C183 C181 1.366 . S
C183 C182 1.416 1_655 S
C183 H185 0.930 . S
H184 C173 0.930 . S
H185 C183 0.930 . S
H186 C201 0.930 . S
H187 C208 0.930 . S
H188 C182 0.929 . S
H189 C181 0.930 . S
H190 C204 0.929 . S
H191 C171 0.931 . S
H192 C177 0.931 . S
H193 C178 0.931 . S
H194 C199 0.931 . S
H195 C174 0.929 . S
H196 C207 0.930 . S
N197 Eu168 2.600 . S
N197 C198 1.365 . S
N197 C201 1.319 . S
C198 N197 1.365 . S
C198 C200 1.405 . S
C198 C206 1.448 . S
C199 H194 0.931 . S
C199 C201 1.397 1_545 S
C199 C202 1.367 . S
C200 C198 1.405 . S
C200 C202 1.403 1_565 S
C200 C233 1.439 . S
C201 H186 0.930 . S
C201 N197 1.319 . S
C201 C199 1.397 1_565 S
C202 C199 1.367 . S
C202 C200 1.403 1_545 S
C202 H209 0.929 . S
N203 Eu168 2.562 . S
N203 C204 1.325 . S
N203 C206 1.351 . S
C204 H190 0.929 . S
C204 N203 1.325 . S
C204 C208 1.416 . S
C205 C206 1.430 . S
C205 C207 1.404 . S
C205 C234 1.387 . S
C206 C198 1.448 . S
C206 N203 1.351 . S
C206 C205 1.430 . S
C207 H196 0.930 . S
C207 C205 1.404 . S
C207 C208 1.366 . S
C208 H187 0.930 . S
C208 C204 1.416 . S
C208 C207 1.366 . S
H209 C202 0.929 . S
H210 C233 0.931 1_545 S
H211 C234 0.931 . S
O212 Eu168 2.462 . S
O212 C232 1.252 . S
O213 Eu168 2.373 . S
O213 C224 1.249 . S
O214 Eu179 2.335 . S
O214 C224 1.264 . S
O215 Eu168 2.432 . S
O215 C232 1.268 . S
O216 Eu168 2.291 . S
O216 C231 1.255 . S
O217 Eu179 2.372 . S
O217 C231 1.257 . S
O218 Eu179 2.462 . S
O218 C243 1.252 . S
O219 Eu179 2.373 . S
O219 C235 1.249 . S
O220 Eu168 2.335 . S
O220 C235 1.264 . S
O221 Eu179 2.432 . S
O221 C243 1.268 . S
O222 Eu179 2.291 . S
O222 C242 1.255 . S
O223 Eu168 2.372 . S
O223 C242 1.257 . S
C224 O213 1.249 . S
C224 O214 1.264 . S
C225 C228 1.382 . S
C225 C230 1.390 . S
C225 C232 1.506 . S
C226 C227 1.398 . S
C226 C230 1.392 . S
C227 C226 1.398 . S
C227 C229 1.372 . S
C227 H244 0.931 . S
C228 C225 1.382 . S
C228 C229 1.390 . S
C228 H245 0.931 . S
C229 C227 1.372 . S
C229 C228 1.390 . S
C229 H246 0.929 . S
C230 C225 1.390 . S
C230 C226 1.392 . S
C230 H247 0.930 . S
C231 O216 1.255 . S
C231 O217 1.257 . S
C232 Eu168 2.787 . S
C232 O212 1.252 . S
C232 O215 1.268 . S
C232 C225 1.506 . S
C233 C200 1.439 . S
C233 H210 0.931 1_565 S
C233 C234 1.374 . S
C234 C205 1.387 . S
C234 H211 0.931 . S
C234 C233 1.374 . S
C235 O219 1.249 . S
C235 O220 1.264 . S
C236 C239 1.382 . S
C236 C240 1.390 . S
C236 C243 1.506 . S
C237 C238 1.398 . S
C237 C240 1.392 . S
C238 C237 1.398 . S
C238 C241 1.372 . S
C238 H248 0.931 . S
C239 C236 1.382 . S
C239 C241 1.390 . S
C239 H249 0.931 . S
C240 C236 1.390 . S
C240 C237 1.392 . S
C240 H250 0.930 . S
C241 C238 1.372 . S
C241 C239 1.390 . S
C241 H251 0.929 . S
C242 O222 1.255 . S
C242 O223 1.257 . S
C243 Eu179 2.787 . S
C243 O218 1.252 . S
C243 O221 1.268 . S
C243 C236 1.506 . S
H244 C227 0.931 . S
H245 C228 0.931 . S
H246 C229 0.929 . S
H247 C230 0.930 . S
H248 C238 0.931 . S
H249 C239 0.931 . S
H250 C240 0.930 . S
H251 C241 0.929 . S
Eu252 N281 2.600 . S
Eu252 N287 2.562 . S
Eu252 O296 2.462 . S
Eu252 O297 2.373 . S
Eu252 O299 2.432 . S
Eu252 O300 2.291 . S
Eu252 O304 2.335 . S
Eu252 O307 2.372 . S
Eu252 C316 2.787 . S
C253 N254 1.365 . S
C253 C256 1.405 . S
C253 C260 1.448 . S
N254 C253 1.365 . S
N254 C257 1.319 . S
N254 Eu263 2.600 . S
C255 C257 1.397 1_565 S
C255 C258 1.367 . S
C255 H275 0.931 . S
C256 C253 1.405 . S
C256 C258 1.403 1_545 S
C256 C262 1.439 . S
C257 N254 1.319 . S
C257 C255 1.397 1_545 S
C257 H268 0.930 . S
C258 C255 1.367 . S
C258 C256 1.403 1_565 S
C258 H279 0.929 . S
C259 C260 1.430 . S
C259 C261 1.387 . S
C259 C265 1.404 . S
C260 C253 1.448 . S
C260 C259 1.430 . S
C260 N264 1.351 . S
C261 C259 1.387 . S
C261 C262 1.374 . S
C261 H276 0.931 . S
C262 C256 1.439 . S
C262 C261 1.374 . S
C262 H277 0.931 1_545 S
Eu263 N254 2.600 . S
Eu263 N264 2.562 . S
Eu263 O298 2.335 . S
Eu263 O301 2.372 . S
Eu263 O302 2.462 . S
Eu263 O303 2.373 . S
Eu263 O305 2.432 . S
Eu263 O306 2.291 . S
Eu263 C327 2.787 . S
N264 C260 1.351 . S
N264 Eu263 2.562 . S
N264 C266 1.325 . S
C265 C259 1.404 . S
C265 C267 1.366 . S
C265 H273 0.930 . S
C266 N264 1.325 . S
C266 C267 1.416 . S
C266 H272 0.929 . S
C267 C265 1.366 . S
C267 C266 1.416 . S
C267 H269 0.930 . S
H268 C257 0.930 . S
H269 C267 0.930 . S
H270 C285 0.930 . S
H271 C292 0.930 . S
H272 C266 0.929 . S
H273 C265 0.930 . S
H274 C288 0.929 . S
H275 C255 0.931 . S
H276 C261 0.931 . S
H277 C262 0.931 1_565 S
H278 C283 0.931 . S
H279 C258 0.929 . S
H280 C291 0.930 . S
N281 Eu252 2.600 . S
N281 C282 1.365 . S
N281 C285 1.319 . S
C282 N281 1.365 . S
C282 C284 1.405 . S
C282 C290 1.448 . S
C283 H278 0.931 . S
C283 C285 1.397 . S
C283 C286 1.367 . S
C284 C282 1.405 . S
C284 C286 1.403 . S
C284 C317 1.439 1_655 S
C285 H270 0.930 . S
C285 N281 1.319 . S
C285 C283 1.397 . S
C286 C283 1.367 . S
C286 C284 1.403 . S
C286 H293 0.929 . S
N287 Eu252 2.562 . S
N287 C288 1.325 . S
N287 C290 1.351 . S
C288 H274 0.929 . S
C288 N287 1.325 . S
C288 C292 1.416 1_655 S
C289 C290 1.430 1_455 S
C289 C291 1.404 . S
C289 C318 1.387 . S
C290 C282 1.448 . S
C290 N287 1.351 . S
C290 C289 1.430 1_655 S
C291 H280 0.930 . S
C291 C289 1.404 . S
C291 C292 1.366 . S
C292 H271 0.930 . S
C292 C288 1.416 1_455 S
C292 C291 1.366 . S
H293 C286 0.929 . S
H294 C317 0.931 . S
H295 C318 0.931 . S
O296 Eu252 2.462 . S
O296 C316 1.252 . S
O297 Eu252 2.373 . S
O297 C308 1.249 . S
O298 Eu263 2.335 . S
O298 C308 1.264 . S
O299 Eu252 2.432 . S
O299 C316 1.268 . S
O300 Eu252 2.291 . S
O300 C315 1.255 . S
O301 Eu263 2.372 . S
O301 C315 1.257 . S
O302 Eu263 2.462 . S
O302 C327 1.252 . S
O303 Eu263 2.373 . S
O303 C319 1.249 . S
O304 Eu252 2.335 . S
O304 C319 1.264 . S
O305 Eu263 2.432 . S
O305 C327 1.268 . S
O306 Eu263 2.291 . S
O306 C326 1.255 . S
O307 Eu252 2.372 . S
O307 C326 1.257 . S
C308 O297 1.249 . S
C308 O298 1.264 . S
C309 C312 1.382 . S
C309 C314 1.390 . S
C309 C316 1.506 . S
C310 C311 1.398 . S
C310 C314 1.392 . S
C311 C310 1.398 . S
C311 C313 1.372 . S
C311 H328 0.931 . S
C312 C309 1.382 . S
C312 C313 1.390 . S
C312 H329 0.931 . S
C313 C311 1.372 . S
C313 C312 1.390 . S
C313 H330 0.929 . S
C314 C309 1.390 . S
C314 C310 1.392 . S
C314 H331 0.930 . S
C315 O300 1.255 . S
C315 O301 1.257 . S
C316 Eu252 2.787 . S
C316 O296 1.252 . S
C316 O299 1.268 . S
C316 C309 1.506 . S
C317 C284 1.439 1_455 S
C317 H294 0.931 . S
C317 C318 1.374 . S
C318 C289 1.387 . S
C318 H295 0.931 . S
C318 C317 1.374 . S
C319 O303 1.249 . S
C319 O304 1.264 . S
C320 C323 1.382 . S
C320 C324 1.390 . S
C320 C327 1.506 . S
C321 C322 1.398 . S
C321 C324 1.392 . S
C322 C321 1.398 . S
C322 C325 1.372 . S
C322 H332 0.931 . S
C323 C320 1.382 . S
C323 C325 1.390 . S
C323 H333 0.931 . S
C324 C320 1.390 . S
C324 C321 1.392 . S
C324 H334 0.930 . S
C325 C322 1.372 . S
C325 C323 1.390 . S
C325 H335 0.929 . S
C326 O306 1.255 . S
C326 O307 1.257 . S
C327 Eu263 2.787 . S
C327 O302 1.252 . S
C327 O305 1.268 . S
C327 C320 1.506 . S
H328 C311 0.931 . S
H329 C312 0.931 . S
H330 C313 0.929 . S
H331 C314 0.930 . S
H332 C322 0.931 . S
H333 C323 0.931 . S
H334 C324 0.930 . S
H335 C325 0.929 . S
H336 C344 0.950 . S
H337 C349 0.950 . S
H338 C346 0.950 . S
H339 C348 0.950 . S
H340 C350 0.950 . S
H341 C352 0.950 . S
H342 C354 0.950 . S
H343 C355 0.950 . S
C344 H336 0.950 . S
C344 C345 1.381 1_556 S
C344 C346 1.391 . S
C345 C344 1.381 1_554 S
C345 C349 1.404 . S
C346 H338 0.950 . S
C346 C344 1.391 . S
C346 C347 1.400 1_556 S
C347 C346 1.400 1_554 S
C347 C348 1.398 . S
C347 C353 1.486 . S
C348 H339 0.950 . S
C348 C347 1.398 . S
C348 C349 1.391 . S
C349 H337 0.950 . S
C349 C345 1.404 . S
C349 C348 1.391 . S
C350 H340 0.950 . S
C350 C351 1.386 . S
C350 C352 1.391 . S
C351 C350 1.386 . S
C351 C355 1.393 1_554 S
C352 H341 0.950 . S
C352 C350 1.391 . S
C352 C353 1.409 . S
C353 C347 1.486 . S
C353 C352 1.409 . S
C353 C354 1.394 1_554 S
C354 H342 0.950 . S
C354 C353 1.394 1_556 S
C354 C355 1.391 . S
C355 H343 0.950 . S
C355 C351 1.393 1_556 S
C355 C354 1.391 . S
H356 C364 0.950 . S
H357 C369 0.950 . S
H358 C366 0.950 . S
H359 C368 0.950 . S
H360 C370 0.950 . S
H361 C372 0.950 . S
H362 C374 0.950 . S
H363 C375 0.950 . S
C364 H356 0.950 . S
C364 C365 1.386 . S
C364 C366 1.391 . S
C365 C364 1.386 . S
C365 C369 1.393 . S
C366 H358 0.950 . S
C366 C364 1.391 . S
C366 C367 1.400 . S
C367 C366 1.400 . S
C367 C368 1.398 . S
C367 C373 1.491 . S
C368 H359 0.950 . S
C368 C367 1.398 . S
C368 C369 1.391 . S
C369 H357 0.950 . S
C369 C365 1.393 . S
C369 C368 1.391 . S
C370 H360 0.950 . S
C370 C371 1.386 . S
C370 C372 1.391 . S
C371 C370 1.386 . S
C371 C375 1.393 . S
C372 H361 0.950 . S
C372 C370 1.391 . S
C372 C373 1.400 . S
C373 C367 1.491 . S
C373 C372 1.400 . S
C373 C374 1.398 . S
C374 H362 0.950 . S
C374 C373 1.398 . S
C374 C375 1.391 . S
C375 H363 0.950 . S
C375 C371 1.393 . S
C375 C374 1.391 . S
H376 C384 0.950 . S
H377 C389 0.950 . S
H378 C386 0.950 1_655 S
H379 C388 0.950 1_565 S
H380 C390 0.950 . S
H381 C392 0.950 1_455 S
H382 C394 0.950 1_545 S
H383 C395 0.950 . S
C384 H376 0.950 . S
C384 C385 1.386 1_554 S
C384 C386 1.391 . S
C385 C384 1.386 1_556 S
C385 C389 1.393 . S
C386 H378 0.950 1_455 S
C386 C384 1.391 . S
C386 C387 1.400 1_554 S
C387 C386 1.400 1_556 S
C387 C388 1.398 . S
C387 C393 1.491 1_446 S
C388 H379 0.950 1_545 S
C388 C387 1.398 . S
C388 C389 1.391 . S
C389 H377 0.950 . S
C389 C385 1.393 . S
C389 C388 1.391 . S
C390 H380 0.950 . S
C390 C391 1.386 1_556 S
C390 C392 1.391 . S
C391 C390 1.386 1_554 S
C391 C395 1.393 . S
C392 H381 0.950 1_655 S
C392 C390 1.391 . S
C392 C393 1.400 1_556 S
C393 C387 1.491 1_664 S
C393 C392 1.400 1_554 S
C393 C394 1.398 . S
C394 H382 0.950 1_565 S
C394 C393 1.398 . S
C394 C395 1.391 . S
C395 H383 0.950 . S
C395 C391 1.393 . S
C395 C394 1.391 . S
H396 C404 0.950 . S
H397 C409 0.950 . S
H398 C406 0.950 . S
H399 C408 0.950 1_455 S
H400 C410 0.950 . S
H401 C412 0.950 . S
H402 C414 0.950 1_655 S
H403 C415 0.950 . S
C404 H396 0.950 . S
C404 C405 1.386 . S
C404 C406 1.391 . S
C405 C404 1.386 . S
C405 C409 1.393 . S
C406 H398 0.950 . S
C406 C404 1.391 . S
C406 C407 1.400 . S
C407 C406 1.400 . S
C407 C408 1.398 . S
C407 C413 1.491 1_645 S
C408 H399 0.950 1_655 S
C408 C407 1.398 . S
C408 C409 1.391 . S
C409 H397 0.950 . S
C409 C405 1.393 . S
C409 C408 1.391 . S
C410 H400 0.950 . S
C410 C411 1.386 . S
C410 C412 1.391 . S
C411 C410 1.386 . S
C411 C415 1.393 . S
C412 H401 0.950 . S
C412 C410 1.391 . S
C412 C413 1.400 . S
C413 C407 1.491 1_465 S
C413 C412 1.400 . S
C413 C414 1.398 . S
C414 H402 0.950 1_455 S
C414 C413 1.398 . S
C414 C415 1.391 . S
C415 H403 0.950 . S
C415 C411 1.393 . S
C415 C414 1.391 . S
H416 C424 0.950 . S
H417 C429 0.950 . S
H418 C426 0.950 . S
H419 C428 0.950 . S
H420 C430 0.950 . S
H421 C432 0.950 . S
H422 C434 0.950 . S
H423 C435 0.950 . S
C424 H416 0.950 . S
C424 C425 1.386 . S
C424 C426 1.391 . S
C425 C424 1.386 . S
C425 C429 1.393 . S
C426 H418 0.950 . S
C426 C424 1.391 . S
C426 C427 1.400 . S
C427 C426 1.400 . S
C427 C428 1.398 . S
C427 C433 1.491 . S
C428 H419 0.950 . S
C428 C427 1.398 . S
C428 C429 1.391 . S
C429 H417 0.950 . S
C429 C425 1.393 . S
C429 C428 1.391 . S
C430 H420 0.950 . S
C430 C431 1.386 . S
C430 C432 1.391 . S
C431 C430 1.386 . S
C431 C435 1.393 . S
C432 H421 0.950 . S
C432 C430 1.391 . S
C432 C433 1.400 . S
C433 C427 1.491 . S
C433 C432 1.400 . S
C433 C434 1.398 . S
C434 H422 0.950 . S
C434 C433 1.398 . S
C434 C435 1.391 . S
C435 H423 0.950 . S
C435 C431 1.393 . S
C435 C434 1.391 . S
H436 C444 0.950 . S
H437 C449 0.950 . S
H438 C446 0.950 . S
H439 C448 0.950 . S
H440 C450 0.950 . S
H441 C452 0.950 . S
H442 C454 0.950 . S
H443 C455 0.950 . S
C444 H436 0.950 . S
C444 C445 1.386 . S
C444 C446 1.391 . S
C445 C444 1.386 . S
C445 C449 1.393 . S
C446 H438 0.950 . S
C446 C444 1.391 . S
C446 C447 1.400 . S
C447 C446 1.400 . S
C447 C448 1.398 . S
C447 C453 1.491 . S
C448 H439 0.950 . S
C448 C447 1.398 . S
C448 C449 1.391 . S
C449 H437 0.950 . S
C449 C445 1.393 . S
C449 C448 1.391 . S
C450 H440 0.950 . S
C450 C451 1.386 . S
C450 C452 1.391 . S
C451 C450 1.386 . S
C451 C455 1.393 . S
C452 H441 0.950 . S
C452 C450 1.391 . S
C452 C453 1.400 . S
C453 C447 1.491 . S
C453 C452 1.400 . S
C453 C454 1.398 . S
C454 H442 0.950 . S
C454 C453 1.398 . S
C454 C455 1.391 . S
C455 H443 0.950 . S
C455 C451 1.393 . S
C455 C454 1.391 . S
H456 C464 0.950 . S
H457 C469 0.950 . S
H458 C466 0.950 . S
H459 C468 0.950 . S
H460 C470 0.950 . S
H461 C472 0.950 . S
H462 C474 0.950 . S
H463 C475 0.950 . S
C464 H456 0.950 . S
C464 C465 1.386 . S
C464 C466 1.391 . S
C465 C464 1.386 . S
C465 C469 1.393 . S
C466 H458 0.950 . S
C466 C464 1.391 . S
C466 C467 1.400 . S
C467 C466 1.400 . S
C467 C468 1.398 . S
C467 C473 1.491 . S
C468 H459 0.950 . S
C468 C467 1.398 . S
C468 C469 1.391 . S
C469 H457 0.950 . S
C469 C465 1.393 . S
C469 C468 1.391 . S
C470 H460 0.950 . S
C470 C471 1.386 . S
C470 C472 1.391 . S
C471 C470 1.386 . S
C471 C475 1.393 . S
C472 H461 0.950 . S
C472 C470 1.391 . S
C472 C473 1.400 . S
C473 C467 1.491 . S
C473 C472 1.400 . S
C473 C474 1.398 . S
C474 H462 0.950 . S
C474 C473 1.398 . S
C474 C475 1.391 . S
C475 H463 0.950 . S
C475 C471 1.393 . S
C475 C474 1.391 . S
H476 C484 0.950 . S
H477 C489 0.950 . S
H478 C486 0.950 . S
H479 C488 0.950 . S
H480 C490 0.950 . S
H481 C492 0.950 . S
H482 C494 0.950 . S
H483 C495 0.950 . S
C484 H476 0.950 . S
C484 C485 1.386 . S
C484 C486 1.391 . S
C485 C484 1.386 . S
C485 C489 1.393 . S
C486 H478 0.950 . S
C486 C484 1.391 . S
C486 C487 1.400 . S
C487 C486 1.400 . S
C487 C488 1.398 . S
C487 C493 1.491 . S
C488 H479 0.950 . S
C488 C487 1.398 . S
C488 C489 1.391 . S
C489 H477 0.950 . S
C489 C485 1.393 . S
C489 C488 1.391 . S
C490 H480 0.950 . S
C490 C491 1.386 . S
C490 C492 1.391 . S
C491 C490 1.386 . S
C491 C495 1.393 . S
C492 H481 0.950 . S
C492 C490 1.391 . S
C492 C493 1.400 . S
C493 C487 1.491 . S
C493 C492 1.400 . S
C493 C494 1.398 . S
C494 H482 0.950 . S
C494 C493 1.398 . S
C494 C495 1.391 . S
C495 H483 0.950 . S
C495 C491 1.393 . S
C495 C494 1.391 . S
H496 C504 0.950 . S
H497 C509 0.950 . S
H498 C506 0.950 . S
H499 C508 0.950 . S
H500 C510 0.950 . S
H501 C512 0.950 . S
H502 C514 0.950 . S
H503 C515 0.950 . S
C504 H496 0.950 . S
C504 C505 1.386 . S
C504 C506 1.391 . S
C505 C504 1.386 . S
C505 C509 1.393 . S
C506 H498 0.950 . S
C506 C504 1.391 . S
C506 C507 1.400 . S
C507 C506 1.400 . S
C507 C508 1.398 . S
C507 C513 1.491 . S
C508 H499 0.950 . S
C508 C507 1.398 . S
C508 C509 1.391 . S
C509 H497 0.950 . S
C509 C505 1.393 . S
C509 C508 1.391 . S
C510 H500 0.950 . S
C510 C511 1.386 . S
C510 C512 1.391 . S
C511 C510 1.386 . S
C511 C515 1.393 1_455 S
C512 H501 0.950 . S
C512 C510 1.391 . S
C512 C513 1.400 1_455 S
C513 C507 1.491 . S
C513 C512 1.400 1_655 S
C513 C514 1.398 . S
C514 H502 0.950 . S
C514 C513 1.398 . S
C514 C515 1.391 . S
C515 H503 0.950 . S
C515 C511 1.393 1_655 S
C515 C514 1.391 . S
H516 C524 0.950 . S
H517 C529 0.950 . S
H518 C526 0.950 . S
H519 C528 0.950 . S
H520 C530 0.950 . S
H521 C532 0.950 . S
H522 C534 0.950 . S
H523 C535 0.950 . S
C524 H516 0.950 . S
C524 C525 1.386 . S
C524 C526 1.391 . S
C525 C524 1.386 . S
C525 C529 1.393 . S
C526 H518 0.950 . S
C526 C524 1.391 . S
C526 C527 1.400 . S
C527 C526 1.400 . S
C527 C528 1.398 . S
C527 C533 1.491 . S
C528 H519 0.950 . S
C528 C527 1.398 . S
C528 C529 1.391 . S
C529 H517 0.950 . S
C529 C525 1.393 . S
C529 C528 1.391 . S
C530 H520 0.950 . S
C530 C531 1.386 1_655 S
C530 C532 1.391 . S
C531 C530 1.386 1_455 S
C531 C535 1.393 . S
C532 H521 0.950 . S
C532 C530 1.391 . S
C532 C533 1.400 . S
C533 C527 1.491 . S
C533 C532 1.400 . S
C533 C534 1.398 1_655 S
C534 H522 0.950 . S
C534 C533 1.398 1_455 S
C534 C535 1.391 . S
C535 H523 0.950 . S
C535 C531 1.393 . S
C535 C534 1.391 . S
H536 C544 0.950 . S
H537 C549 0.950 . S
H538 C546 0.950 . S
H539 C548 0.950 . S
H540 C550 0.950 . S
H541 C552 0.950 . S
H542 C554 0.950 . S
H543 C555 0.950 . S
C544 H536 0.950 . S
C544 C545 1.386 . S
C544 C546 1.391 . S
C545 C544 1.386 . S
C545 C549 1.393 1_655 S
C546 H538 0.950 . S
C546 C544 1.391 . S
C546 C547 1.400 1_655 S
C547 C546 1.400 1_455 S
C547 C548 1.398 . S
C547 C553 1.491 . S
C548 H539 0.950 . S
C548 C547 1.398 . S
C548 C549 1.391 . S
C549 H537 0.950 . S
C549 C545 1.393 1_455 S
C549 C548 1.391 . S
C550 H540 0.950 . S
C550 C551 1.386 . S
C550 C552 1.391 . S
C551 C550 1.386 . S
C551 C555 1.393 . S
C552 H541 0.950 . S
C552 C550 1.391 . S
C552 C553 1.400 . S
C553 C547 1.491 . S
C553 C552 1.400 . S
C553 C554 1.398 . S
C554 H542 0.950 . S
C554 C553 1.398 . S
C554 C555 1.391 . S
C555 H543 0.950 . S
C555 C551 1.393 . S
C555 C554 1.391 . S
H556 C564 0.950 . S
H557 C569 0.950 . S
H558 C566 0.950 . S
H559 C568 0.950 . S
H560 C570 0.950 . S
H561 C572 0.950 . S
H562 C574 0.950 . S
H563 C575 0.950 . S
C564 H556 0.950 . S
C564 C565 1.386 . S
C564 C566 1.391 . S
C565 C564 1.386 . S
C565 C569 1.393 . S
C566 H558 0.950 . S
C566 C564 1.391 . S
C566 C567 1.400 . S
C567 C566 1.400 . S
C567 C568 1.398 . S
C567 C573 1.491 . S
C568 H559 0.950 . S
C568 C567 1.398 . S
C568 C569 1.391 . S
C569 H557 0.950 . S
C569 C565 1.393 . S
C569 C568 1.391 . S
C570 H560 0.950 . S
C570 C571 1.386 . S
C570 C572 1.391 . S
C571 C570 1.386 . S
C571 C575 1.393 1_655 S
C572 H561 0.950 . S
C572 C570 1.391 . S
C572 C573 1.400 1_655 S
C573 C567 1.491 . S
C573 C572 1.400 1_455 S
C573 C574 1.398 . S
C574 H562 0.950 . S
C574 C573 1.398 . S
C574 C575 1.391 . S
C575 H563 0.950 . S
C575 C571 1.393 1_455 S
C575 C574 1.391 . S
C345 C158 1.507 1_554 S
C351 C63 1.518 . S
C365 C231 1.512 . S
C371 C326 1.512 . S
C385 C74 1.502 . S
C391 C147 1.502 . S
C405 C315 1.507 . S
C411 C242 1.507 . S
C425 C321 1.248 . S
C431 C56 1.316 . S
C445 C153 1.252 . S
C451 C224 1.314 . S
C465 C151 1.318 . S
C471 C226 1.233 . S
C485 C319 1.316 . S
C491 C58 1.247 . S
C505 C140 1.306 . S
C511 C237 1.249 . S
C525 C308 1.312 . S
C531 C69 1.215 . S
C545 C310 1.246 . S
C551 C67 1.305 . S
C565 C235 1.313 . S
C571 C142 1.215 . S
