# Generated by pormake.
# Topology crb, (4)-cn, num edge types: 1
# Building blocks:
#     Node 0, Type 0, BuildingBlock: NAHDIM_clean_sbu_0, # of connection points: 4
#     Node 1, Type 0, BuildingBlock: NAHDIM_clean_sbu_0, # of connection points: 4
#     Node 2, Type 0, BuildingBlock: NAHDIM_clean_sbu_0, # of connection points: 4
#     Node 3, Type 0, BuildingBlock: NAHDIM_clean_sbu_0, # of connection points: 4
#     Node 4, Type 0, BuildingBlock: NAHDIM_clean_sbu_0, # of connection points: 4
#     Node 5, Type 0, BuildingBlock: NAHDIM_clean_sbu_0, # of connection points: 4
#     Node 6, Type 0, BuildingBlock: NAHDIM_clean_sbu_0, # of connection points: 4
#     Node 7, Type 0, BuildingBlock: NAHDIM_clean_sbu_0, # of connection points: 4
#     Edge 8, Type (0, 0), BuildingBlock: AJUNOK_clean_linker_0, # of connection points: 2
#     Edge 9, Type (0, 0), BuildingBlock: AJUNOK_clean_linker_0, # of connection points: 2
#     Edge 10, Type (0, 0), BuildingBlock: AJUNOK_clean_linker_0, # of connection points: 2
#     Edge 11, Type (0, 0), BuildingBlock: AJUNOK_clean_linker_0, # of connection points: 2
#     Edge 12, Type (0, 0), BuildingBlock: AJUNOK_clean_linker_0, # of connection points: 2
#     Edge 13, Type (0, 0), BuildingBlock: AJUNOK_clean_linker_0, # of connection points: 2
#     Edge 14, Type (0, 0), BuildingBlock: AJUNOK_clean_linker_0, # of connection points: 2
#     Edge 15, Type (0, 0), BuildingBlock: AJUNOK_clean_linker_0, # of connection points: 2
#     Edge 16, Type (0, 0), BuildingBlock: AJUNOK_clean_linker_0, # of connection points: 2
#     Edge 17, Type (0, 0), BuildingBlock: AJUNOK_clean_linker_0, # of connection points: 2
#     Edge 18, Type (0, 0), BuildingBlock: AJUNOK_clean_linker_0, # of connection points: 2
#     Edge 19, Type (0, 0), BuildingBlock: AJUNOK_clean_linker_0, # of connection points: 2
#     Edge 20, Type (0, 0), BuildingBlock: AJUNOK_clean_linker_0, # of connection points: 2
#     Edge 21, Type (0, 0), BuildingBlock: AJUNOK_clean_linker_0, # of connection points: 2
#     Edge 22, Type (0, 0), BuildingBlock: AJUNOK_clean_linker_0, # of connection points: 2
#     Edge 23, Type (0, 0), BuildingBlock: AJUNOK_clean_linker_0, # of connection points: 2
# Relax obj value: 0.033
# Max RMSD: 0.066
# Mean RMSD: 0.066
data_MOF--net-crb--node1-NAHDIM_clean_sbu_0--edge1-AJUNOK_clean_linker_0
_symmetry_space_group_name_H-M    P1
_symmetry_Int_Tables_number       1
_symmetry_cell_setting            triclinic
loop_
_symmetry_equiv_pos_as_xyz
'x, y, z'
_cell_length_a     30.859314
_cell_length_b     32.448185
_cell_length_c     18.203085
_cell_angle_alpha  89.88476
_cell_angle_beta   89.905359
_cell_angle_gamma 90.118908
loop_
_atom_site_label
_atom_site_type_symbol
_atom_site_fract_x
_atom_site_fract_y
_atom_site_fract_z
_atom_type_partial_charge
C0 C 0.29308 0.30752 0.21438 0.0
O1 O 0.3035 0.34493 0.23554 0.0
O2 O 0.39145 0.32339 0.0635 0.0
Zn3 Zn 0.327 0.33276 0.06967 0.0
O4 O 0.29968 0.31711 0.97367 0.0
C5 C 0.32225 0.41723 0.0321 0.0
O6 O 0.33225 0.40088 0.96831 0.0
O7 O 0.30031 0.29697 0.14836 0.0
C8 C 0.29726 0.27959 0.95447 0.0
O9 O 0.31346 0.25123 0.99807 0.0
C10 C 0.41069 0.29181 0.08884 0.0
O11 O 0.38771 0.26276 0.12086 0.0
O12 O 0.31712 0.39347 0.08709 0.0
C13 C 0.71393 0.26423 0.94762 0.0
O14 O 0.69966 0.24295 0.0042 0.0
O15 O 0.6183 0.31683 0.03556 0.0
Zn16 Zn 0.68234 0.32978 0.03701 0.0
O17 O 0.70935 0.30685 0.12936 0.0
C18 C 0.65762 0.41429 0.05262 0.0
O19 O 0.62281 0.39622 0.079 0.0
O20 O 0.71025 0.30325 0.94876 0.0
C21 C 0.70415 0.32388 0.19156 0.0
O22 O 0.68087 0.35762 0.19569 0.0
C23 C 0.59955 0.28966 0.07479 0.0
O24 O 0.623 0.26613 0.11792 0.0
O25 O 0.68941 0.3921 0.03232 0.0
C26 C 0.70783 0.73907 0.15432 0.0
O27 O 0.68252 0.75915 0.10868 0.0
O28 O 0.62428 0.68896 0.05956 0.0
Zn29 Zn 0.68815 0.67636 0.05196 0.0
O30 O 0.71351 0.70202 0.95988 0.0
C31 C 0.66329 0.59312 0.0255 0.0
O32 O 0.63145 0.61283 0.9932 0.0
O33 O 0.71646 0.70153 0.14088 0.0
C34 C 0.71795 0.68242 0.89992 0.0
O35 O 0.70627 0.64353 0.89737 0.0
C36 C 0.60154 0.70338 0.00739 0.0
O37 O 0.62051 0.71272 0.9449 0.0
O38 O 0.69423 0.61388 0.05322 0.0
C39 C 0.31383 0.7345 0.86731 0.0
O40 O 0.3498 0.75044 0.89337 0.0
O41 O 0.39003 0.69037 0.98262 0.0
Zn42 Zn 0.32606 0.67922 0.98922 0.0
O43 O 0.30192 0.7051 0.08086 0.0
C44 C 0.32123 0.59662 0.05 0.0
O45 O 0.33013 0.61593 0.11151 0.0
O46 O 0.29705 0.7036 0.89983 0.0
C47 C 0.26456 0.6954 0.10471 0.0
O48 O 0.24151 0.66827 0.06808 0.0
C49 C 0.41413 0.69309 0.03887 0.0
O50 O 0.3969 0.68815 0.10436 0.0
O51 O 0.31737 0.61751 0.99114 0.0
C52 C 0.7863 0.76953 0.64363 0.0
O53 O 0.80375 0.74968 0.58819 0.0
O54 O 0.87907 0.83016 0.5637 0.0
Zn55 Zn 0.81442 0.83627 0.55501 0.0
O56 O 0.794 0.80855 0.46205 0.0
C57 C 0.82259 0.91781 0.50262 0.0
O58 O 0.84774 0.89771 0.45676 0.0
O59 O 0.78646 0.80872 0.64251 0.0
C60 C 0.76466 0.82303 0.42061 0.0
O61 O 0.74614 0.85806 0.43831 0.0
C62 C 0.90146 0.8068 0.52256 0.0
O63 O 0.88168 0.78415 0.47317 0.0
O64 O 0.8024 0.89744 0.55171 0.0
C65 C 0.19214 0.76531 0.37298 0.0
O66 O 0.15823 0.74738 0.40301 0.0
O67 O 0.11364 0.80985 0.48603 0.0
Zn68 Zn 0.17696 0.82374 0.48868 0.0
O69 O 0.20207 0.80089 0.58226 0.0
C70 C 0.19188 0.90923 0.53564 0.0
O71 O 0.20249 0.89284 0.59913 0.0
O72 O 0.20646 0.7985 0.40094 0.0
C73 C 0.24222 0.80276 0.59701 0.0
O74 O 0.26847 0.82106 0.55024 0.0
C75 C 0.08929 0.82207 0.53783 0.0
O76 O 0.10658 0.843 0.59217 0.0
O77 O 0.18156 0.88574 0.48268 0.0
C78 C 0.21291 0.22802 0.68317 0.0
O79 O 0.19289 0.25396 0.6394 0.0
O80 O 0.11989 0.17732 0.5877 0.0
Zn81 Zn 0.1844 0.1711 0.57385 0.0
O82 O 0.20661 0.20651 0.49005 0.0
C83 C 0.174 0.08771 0.52094 0.0
O84 O 0.14151 0.1043 0.48504 0.0
O85 O 0.21354 0.19007 0.66623 0.0
C86 C 0.2182 0.19287 0.42764 0.0
O87 O 0.21532 0.15317 0.4147 0.0
C88 C 0.09375 0.18872 0.53782 0.0
O89 O 0.10909 0.19806 0.47249 0.0
O90 O 0.19771 0.11062 0.56079 0.0
C91 C 0.78045 0.24649 0.45031 0.0
O92 O 0.79156 0.2679 0.5085 0.0
O93 O 0.88154 0.19134 0.52904 0.0
Zn94 Zn 0.81715 0.1815 0.53672 0.0
O95 O 0.79391 0.20654 0.63057 0.0
C96 C 0.82549 0.09754 0.48947 0.0
O97 O 0.85061 0.11523 0.44024 0.0
O98 O 0.7881 0.208 0.44949 0.0
C99 C 0.78644 0.18479 0.68742 0.0
O100 O 0.79439 0.14508 0.68502 0.0
C101 C 0.90654 0.18065 0.58108 0.0
O102 O 0.88953 0.16394 0.64026 0.0
O103 O 0.80647 0.12008 0.53645 0.0
C104 C 0.31953 0.4874 0.97552 0.0
C105 C 0.31911 0.46274 0.03924 0.0
C106 C 0.31914 0.53048 0.9797 0.0
C107 C 0.31866 0.5509 0.04783 0.0
H108 H 0.32062 0.4734 0.92158 0.0
H109 H 0.32017 0.54786 0.92885 0.0
S110 S 0.3151 0.50075 0.23142 0.0
N111 N 0.31637 0.462 0.17285 0.0
N112 N 0.31586 0.54301 0.18079 0.0
C113 C 0.31722 0.52667 0.11213 0.0
C114 C 0.31734 0.48265 0.10783 0.0
C115 C 0.48194 0.3192 0.04466 0.0
C116 C 0.45868 0.28885 0.08365 0.0
C117 C 0.52723 0.31852 0.04086 0.0
C118 C 0.55144 0.28757 0.07617 0.0
H119 H 0.46513 0.34411 0.01718 0.0
H120 H 0.54333 0.34309 0.01097 0.0
S121 S 0.50636 0.19964 0.18279 0.0
N122 N 0.46337 0.22593 0.1563 0.0
N123 N 0.54859 0.22476 0.14931 0.0
C124 C 0.52866 0.25648 0.11419 0.0
C125 C 0.48234 0.25707 0.11785 0.0
C126 C 0.69859 0.48122 0.0452 0.0
C127 C 0.65887 0.45977 0.045 0.0
C128 C 0.69994 0.52444 0.03963 0.0
C129 C 0.66167 0.5476 0.032 0.0
H130 H 0.7288 0.46457 0.05078 0.0
H131 H 0.73116 0.53975 0.0405 0.0
S132 S 0.54943 0.5061 0.02719 0.0
N133 N 0.58042 0.46503 0.0362 0.0
N134 N 0.58296 0.54576 0.02469 0.0
C135 C 0.62184 0.52642 0.03102 0.0
C136 C 0.62043 0.48265 0.03782 0.0
C137 C 0.4892 0.69128 0.0901 0.0
C138 C 0.46152 0.69921 0.03047 0.0
C139 C 0.53428 0.6939 0.0825 0.0
C140 C 0.55364 0.70481 0.01504 0.0
H141 H 0.47609 0.68188 0.14278 0.0
H142 H 0.55407 0.68647 0.12978 0.0
S143 S 0.49534 0.73245 0.84353 0.0
N144 N 0.45656 0.72113 0.90279 0.0
N145 N 0.54126 0.72621 0.88853 0.0
C146 C 0.52627 0.71444 0.95565 0.0
C147 C 0.48027 0.71156 0.96332 0.0
C148 C 0.84384 0.98469 0.44427 0.0
C149 C 0.82015 0.96355 0.49879 0.0
C150 C 0.84458 0.0278 0.4411 0.0
C151 C 0.82168 0.05185 0.49229 0.0
H152 H 0.86261 0.96789 0.40396 0.0
H153 H 0.8639 0.0423 0.39851 0.0
S154 S 0.75281 0.01184 0.64429 0.0
N155 N 0.77183 0.97009 0.60393 0.0
N156 N 0.77321 0.05116 0.598 0.0
C157 C 0.79696 0.03119 0.54623 0.0
C158 C 0.7962 0.98711 0.54945 0.0
C159 C 0.01474 0.83514 0.58604 0.0
C160 C 0.04177 0.81523 0.535 0.0
C161 C 0.96961 0.83147 0.58233 0.0
C162 C 0.94947 0.80758 0.52761 0.0
H163 H 0.0284 0.8545 0.62856 0.0
H164 H 0.95039 0.84809 0.6223 0.0
S165 S 0.0057 0.74681 0.38343 0.0
N166 N 0.04519 0.76902 0.42994 0.0
N167 N 0.96034 0.76203 0.42305 0.0
C168 C 0.97613 0.78643 0.47744 0.0
C169 C 0.02223 0.7903 0.48108 0.0
C170 C 0.20448 0.02341 0.57662 0.0
C171 C 0.18075 0.04245 0.52 0.0
C172 C 0.20844 0.98042 0.58052 0.0
C173 C 0.18935 0.95471 0.52742 0.0
H174 H 0.21916 0.04173 0.61961 0.0
H175 H 0.22631 0.96728 0.62603 0.0
S176 S 0.12615 0.98934 0.3651 0.0
N177 N 0.13949 0.03237 0.40773 0.0
N178 N 0.14723 0.95171 0.4145 0.0
C179 C 0.1667 0.97343 0.46909 0.0
C180 C 0.1623 0.01722 0.46557 0.0
C181 C 0.97234 0.19489 0.50415 0.0
C182 C 0.95429 0.18478 0.57298 0.0
C183 C 0.01733 0.19682 0.49376 0.0
C184 C 0.04625 0.18881 0.55175 0.0
H185 H 0.95162 0.20064 0.45728 0.0
H186 H 0.02942 0.20402 0.43931 0.0
S187 S 0.01565 0.16394 0.74443 0.0
N188 N 0.96897 0.16875 0.70119 0.0
N189 N 0.05336 0.17244 0.68182 0.0
C190 C 0.02864 0.17977 0.62147 0.0
C191 C 0.98277 0.17773 0.632 0.0
C192 C 0.24668 0.26234 0.3909 0.0
C193 C 0.2363 0.22149 0.37149 0.0
C194 C 0.26487 0.28981 0.33984 0.0
C195 C 0.27333 0.27774 0.26701 0.0
H196 H 0.24116 0.27323 0.44633 0.0
H197 H 0.27247 0.32077 0.35796 0.0
S198 S 0.25068 0.17454 0.18712 0.0
N199 N 0.23488 0.17061 0.2735 0.0
N200 N 0.26892 0.22209 0.17762 0.0
C201 C 0.26263 0.23707 0.24651 0.0
C202 C 0.24419 0.20904 0.29865 0.0
C203 C 0.73954 0.26462 0.25605 0.0
C204 C 0.7233 0.30511 0.25853 0.0
C205 C 0.75751 0.24588 0.31837 0.0
C206 C 0.76041 0.26696 0.3857 0.0
H207 H 0.73817 0.247 0.20561 0.0
H208 H 0.76957 0.21468 0.31335 0.0
S209 S 0.72257 0.37367 0.42169 0.0
N210 N 0.71119 0.36572 0.3343 0.0
N211 N 0.74515 0.33066 0.45118 0.0
C212 C 0.74432 0.30751 0.38903 0.0
C213 C 0.7257 0.32651 0.32561 0.0
C214 C 0.72364 0.82006 0.30233 0.0
C215 C 0.75153 0.80084 0.35285 0.0
C216 C 0.71029 0.79998 0.23818 0.0
C217 C 0.72405 0.75968 0.22178 0.0
H218 H 0.71189 0.851 0.31219 0.0
H219 H 0.68862 0.81626 0.2015 0.0
S220 S 0.79759 0.69555 0.33574 0.0
N221 N 0.79286 0.73906 0.38182 0.0
N222 N 0.76766 0.70131 0.26137 0.0
C223 C 0.7522 0.74008 0.27158 0.0
C224 C 0.76596 0.76064 0.33697 0.0
C225 C 0.19066 0.71603 0.26757 0.0
C226 C 0.21205 0.7478 0.30565 0.0
C227 C 0.20788 0.69946 0.20283 0.0
C228 C 0.24739 0.71375 0.17352 0.0
H229 H 0.16002 0.70399 0.28738 0.0
H230 H 0.18993 0.67517 0.17568 0.0
S231 S 0.31704 0.7958 0.25315 0.0
N232 N 0.27542 0.79251 0.30993 0.0
N233 N 0.30789 0.76131 0.18848 0.0
C234 C 0.26943 0.74527 0.21142 0.0
C235 C 0.25176 0.7623 0.2773 0.0
C236 C 0.30157 0.79468 0.68939 0.0
C237 C 0.25922 0.78506 0.6665 0.0
C238 C 0.31862 0.7785 0.75462 0.0
C239 C 0.29424 0.75164 0.7994 0.0
H240 H 0.3218 0.81507 0.6569 0.0
H241 H 0.35145 0.78685 0.76952 0.0
S242 S 0.18146 0.71674 0.76461 0.0
N243 N 0.19305 0.74705 0.69432 0.0
N244 N 0.22526 0.71643 0.81653 0.0
C245 C 0.2518 0.74173 0.77729 0.0
C246 C 0.23426 0.7585 0.71106 0.0
C247 C 0.27419 0.226 0.86397 0.0
C248 C 0.2759 0.26774 0.88456 0.0
C249 C 0.25391 0.21362 0.79887 0.0
C250 C 0.23434 0.24243 0.75149 0.0
H251 H 0.28858 0.20247 0.89839 0.0
H252 H 0.25351 0.18106 0.78589 0.0
S253 S 0.23001 0.35574 0.77958 0.0
N254 N 0.25639 0.33811 0.85185 0.0
N255 N 0.21824 0.31484 0.72963 0.0
C256 C 0.23588 0.28436 0.7712 0.0
C257 C 0.25664 0.297 0.83759 0.0
C258 C 0.74385 0.266 0.81948 0.0
C259 C 0.7331 0.24315 0.8828 0.0
C260 C 0.76115 0.24691 0.75697 0.0
C261 C 0.76861 0.20412 0.75503 0.0
H262 H 0.73858 0.29897 0.81774 0.0
H263 H 0.76859 0.266 0.70968 0.0
S264 S 0.74706 0.1302 0.90704 0.0
N265 N 0.73192 0.17526 0.94002 0.0
N266 N 0.76441 0.13947 0.82282 0.0
C267 C 0.75839 0.18088 0.81822 0.0
C268 C 0.74066 0.20035 0.88191 0.0
C269 C 0.74218 0.7466 0.83466 0.0
C270 C 0.73512 0.7037 0.83351 0.0
C271 C 0.7582 0.76762 0.7729 0.0
C272 C 0.76814 0.74662 0.70746 0.0
H273 H 0.73523 0.7643 0.88366 0.0
H274 H 0.76322 0.80059 0.77694 0.0
S275 S 0.75478 0.6343 0.67483 0.0
N276 N 0.73879 0.64102 0.76052 0.0
N277 N 0.76895 0.68042 0.64479 0.0
C278 C 0.76103 0.70374 0.70529 0.0
C279 C 0.7445 0.68234 0.76812 0.0
loop_
_geom_bond_atom_site_label_1
_geom_bond_atom_site_label_2
_geom_bond_distance
_geom_bond_site_symmetry_2
_ccdc_geom_bond_type
C0 O1 1.160 . S
C0 O7 1.185 . S
O1 C0 1.160 . S
O2 Zn3 1.899 . S
O2 C10 1.284 . S
Zn3 O2 1.899 . S
Zn3 O4 2.032 . S
Zn3 O7 2.086 . S
Zn3 O12 1.977 . S
O4 Zn3 2.032 . S
O4 C8 1.278 1_554 S
C5 O6 1.203 . S
C5 O12 1.267 . S
O6 C5 1.203 . S
O7 C0 1.185 . S
O7 Zn3 2.086 . S
C8 O4 1.278 1_556 S
C8 O9 1.211 . S
O9 C8 1.211 . S
C10 O2 1.284 . S
C10 O11 1.273 1_554 S
O11 C10 1.273 1_556 S
O12 Zn3 1.977 . S
O12 C5 1.267 . S
C13 O14 1.160 . S
C13 O20 1.185 . S
O14 C13 1.160 . S
O15 Zn16 1.899 1_556 S
O15 C23 1.284 1_556 S
Zn16 O15 1.899 1_554 S
Zn16 O17 2.032 . S
Zn16 O20 2.086 1_554 S
Zn16 O25 1.977 . S
O17 Zn16 2.032 . S
O17 C21 1.278 . S
C18 O19 1.203 . S
C18 O25 1.267 . S
O19 C18 1.203 . S
O20 C13 1.185 . S
O20 Zn16 2.086 1_556 S
C21 O17 1.278 . S
C21 O22 1.211 . S
O22 C21 1.211 . S
C23 O15 1.284 1_554 S
C23 O24 1.273 . S
O24 C23 1.273 . S
O25 Zn16 1.977 . S
O25 C18 1.267 . S
C26 O27 1.160 . S
C26 O33 1.185 . S
O27 C26 1.160 . S
O28 Zn29 1.899 . S
O28 C36 1.284 . S
Zn29 O28 1.899 . S
Zn29 O30 2.032 . S
Zn29 O33 2.086 . S
Zn29 O38 1.977 . S
O30 Zn29 2.032 . S
O30 C34 1.278 1_554 S
C31 O32 1.203 . S
C31 O38 1.267 . S
O32 C31 1.203 . S
O33 C26 1.185 . S
O33 Zn29 2.086 . S
C34 O30 1.278 1_556 S
C34 O35 1.211 . S
O35 C34 1.211 . S
C36 O28 1.284 . S
C36 O37 1.273 1_554 S
O37 C36 1.273 1_556 S
O38 Zn29 1.977 . S
O38 C31 1.267 . S
C39 O40 1.160 . S
C39 O46 1.185 . S
O40 C39 1.160 . S
O41 Zn42 1.899 1_556 S
O41 C49 1.284 1_556 S
Zn42 O41 1.899 1_554 S
Zn42 O43 2.032 . S
Zn42 O46 2.086 1_554 S
Zn42 O51 1.977 . S
O43 Zn42 2.032 . S
O43 C47 1.278 . S
C44 O45 1.203 . S
C44 O51 1.267 . S
O45 C44 1.203 . S
O46 C39 1.185 . S
O46 Zn42 2.086 1_556 S
C47 O43 1.278 . S
C47 O48 1.211 . S
O48 C47 1.211 . S
C49 O41 1.284 1_554 S
C49 O50 1.273 . S
O50 C49 1.273 . S
O51 Zn42 1.977 . S
O51 C44 1.267 . S
C52 O53 1.160 . S
C52 O59 1.185 . S
O53 C52 1.160 . S
O54 Zn55 1.899 . S
O54 C62 1.284 . S
Zn55 O54 1.899 . S
Zn55 O56 2.032 . S
Zn55 O59 2.086 . S
Zn55 O64 1.977 . S
O56 Zn55 2.032 . S
O56 C60 1.278 . S
C57 O58 1.203 . S
C57 O64 1.267 . S
O58 C57 1.203 . S
O59 C52 1.185 . S
O59 Zn55 2.086 . S
C60 O56 1.278 . S
C60 O61 1.211 . S
O61 C60 1.211 . S
C62 O54 1.284 . S
C62 O63 1.273 . S
O63 C62 1.273 . S
O64 Zn55 1.977 . S
O64 C57 1.267 . S
C65 O66 1.160 . S
C65 O72 1.185 . S
O66 C65 1.160 . S
O67 Zn68 1.899 . S
O67 C75 1.284 . S
Zn68 O67 1.899 . S
Zn68 O69 2.032 . S
Zn68 O72 2.086 . S
Zn68 O77 1.977 . S
O69 Zn68 2.032 . S
O69 C73 1.278 . S
C70 O71 1.203 . S
C70 O77 1.267 . S
O71 C70 1.203 . S
O72 C65 1.185 . S
O72 Zn68 2.086 . S
C73 O69 1.278 . S
C73 O74 1.211 . S
O74 C73 1.211 . S
C75 O67 1.284 . S
C75 O76 1.273 . S
O76 C75 1.273 . S
O77 Zn68 1.977 . S
O77 C70 1.267 . S
C78 O79 1.160 . S
C78 O85 1.185 . S
O79 C78 1.160 . S
O80 Zn81 1.899 . S
O80 C88 1.284 . S
Zn81 O80 1.899 . S
Zn81 O82 2.032 . S
Zn81 O85 2.086 . S
Zn81 O90 1.977 . S
O82 Zn81 2.032 . S
O82 C86 1.278 . S
C83 O84 1.203 . S
C83 O90 1.267 . S
O84 C83 1.203 . S
O85 C78 1.185 . S
O85 Zn81 2.086 . S
C86 O82 1.278 . S
C86 O87 1.211 . S
O87 C86 1.211 . S
C88 O80 1.284 . S
C88 O89 1.273 . S
O89 C88 1.273 . S
O90 Zn81 1.977 . S
O90 C83 1.267 . S
C91 O92 1.160 . S
C91 O98 1.185 . S
O92 C91 1.160 . S
O93 Zn94 1.899 . S
O93 C101 1.284 . S
Zn94 O93 1.899 . S
Zn94 O95 2.032 . S
Zn94 O98 2.086 . S
Zn94 O103 1.977 . S
O95 Zn94 2.032 . S
O95 C99 1.278 . S
C96 O97 1.203 . S
C96 O103 1.267 . S
O97 C96 1.203 . S
O98 C91 1.185 . S
O98 Zn94 2.086 . S
C99 O95 1.278 . S
C99 O100 1.211 . S
O100 C99 1.211 . S
C101 O93 1.284 . S
C101 O102 1.273 . S
O102 C101 1.273 . S
O103 Zn94 1.977 . S
O103 C96 1.267 . S
C104 C105 1.369 1_556 S
C104 C106 1.419 . S
C104 H108 0.930 . S
C105 C104 1.369 1_554 S
C105 C114 1.429 . S
C106 C104 1.419 . S
C106 C107 1.363 1_556 S
C106 H109 0.929 . S
C107 C106 1.363 1_554 S
C107 C113 1.428 . S
H108 C104 0.930 . S
H109 C106 0.929 . S
S110 N111 1.613 . S
S110 N112 1.610 . S
N111 S110 1.613 . S
N111 C114 1.350 . S
N112 S110 1.610 . S
N112 C113 1.351 . S
C113 C107 1.428 . S
C113 N112 1.351 . S
C113 C114 1.434 . S
C114 C105 1.429 . S
C114 N111 1.350 . S
C114 C113 1.434 . S
C115 C116 1.369 . S
C115 C117 1.419 . S
C115 H119 0.930 . S
C116 C115 1.369 . S
C116 C125 1.429 . S
C117 C115 1.419 . S
C117 C118 1.363 . S
C117 H120 0.929 . S
C118 C117 1.363 . S
C118 C124 1.428 . S
H119 C115 0.930 . S
H120 C117 0.929 . S
S121 N122 1.613 . S
S121 N123 1.610 . S
N122 S121 1.613 . S
N122 C125 1.350 . S
N123 S121 1.610 . S
N123 C124 1.351 . S
C124 C118 1.428 . S
C124 N123 1.351 . S
C124 C125 1.434 . S
C125 C116 1.429 . S
C125 N122 1.350 . S
C125 C124 1.434 . S
C126 C127 1.369 . S
C126 C128 1.419 . S
C126 H130 0.930 . S
C127 C126 1.369 . S
C127 C136 1.429 . S
C128 C126 1.419 . S
C128 C129 1.363 . S
C128 H131 0.929 . S
C129 C128 1.363 . S
C129 C135 1.428 . S
H130 C126 0.930 . S
H131 C128 0.929 . S
S132 N133 1.613 . S
S132 N134 1.610 . S
N133 S132 1.613 . S
N133 C136 1.350 1_556 S
N134 S132 1.610 . S
N134 C135 1.351 1_556 S
C135 C129 1.428 . S
C135 N134 1.351 1_554 S
C135 C136 1.434 . S
C136 C127 1.429 . S
C136 N133 1.350 1_554 S
C136 C135 1.434 . S
C137 C138 1.369 . S
C137 C139 1.419 . S
C137 H141 0.930 . S
C138 C137 1.369 . S
C138 C147 1.429 . S
C139 C137 1.419 . S
C139 C140 1.363 . S
C139 H142 0.929 . S
C140 C139 1.363 . S
C140 C146 1.428 . S
H141 C137 0.930 . S
H142 C139 0.929 . S
S143 N144 1.613 . S
S143 N145 1.610 . S
N144 S143 1.613 . S
N144 C147 1.350 1_556 S
N145 S143 1.610 . S
N145 C146 1.351 1_556 S
C146 C140 1.428 . S
C146 N145 1.351 1_554 S
C146 C147 1.434 . S
C147 C138 1.429 . S
C147 N144 1.350 1_554 S
C147 C146 1.434 . S
C148 C149 1.369 . S
C148 C150 1.419 1_565 S
C148 H152 0.930 . S
C149 C148 1.369 . S
C149 C158 1.429 . S
C150 C148 1.419 1_545 S
C150 C151 1.363 . S
C150 H153 0.929 . S
C151 C150 1.363 . S
C151 C157 1.428 . S
H152 C148 0.930 . S
H153 C150 0.929 . S
S154 N155 1.605 1_545 S
S154 N156 1.619 . S
N155 S154 1.605 1_565 S
N155 C158 1.350 . S
N156 S154 1.619 . S
N156 C157 1.351 . S
C157 C151 1.428 . S
C157 N156 1.351 . S
C157 C158 1.434 1_545 S
C158 C149 1.429 . S
C158 N155 1.350 . S
C158 C157 1.434 1_565 S
C159 C160 1.369 . S
C159 C161 1.419 1_455 S
C159 H163 0.930 . S
C160 C159 1.369 . S
C160 C169 1.429 . S
C161 C159 1.419 1_655 S
C161 C162 1.363 . S
C161 H164 0.929 . S
C162 C161 1.363 . S
C162 C168 1.428 . S
H163 C159 0.930 . S
H164 C161 0.929 . S
S165 N166 1.613 1_655 S
S165 N167 1.610 . S
N166 S165 1.613 1_455 S
N166 C169 1.350 . S
N167 S165 1.610 . S
N167 C168 1.351 . S
C168 C162 1.428 . S
C168 N167 1.351 . S
C168 C169 1.434 1_655 S
C169 C160 1.429 . S
C169 N166 1.350 . S
C169 C168 1.434 1_455 S
C170 C171 1.369 . S
C170 C172 1.419 1_545 S
C170 H174 0.930 . S
C171 C170 1.369 . S
C171 C180 1.429 . S
C172 C170 1.419 1_565 S
C172 C173 1.363 . S
C172 H175 0.929 . S
C173 C172 1.363 . S
C173 C179 1.428 . S
H174 C170 0.930 . S
H175 C172 0.929 . S
S176 N177 1.598 1_565 S
S176 N178 1.625 . S
N177 S176 1.598 1_545 S
N177 C180 1.350 . S
N178 S176 1.625 . S
N178 C179 1.351 . S
C179 C173 1.428 . S
C179 N178 1.351 . S
C179 C180 1.434 1_565 S
C180 C171 1.429 . S
C180 N177 1.350 . S
C180 C179 1.434 1_545 S
C181 C182 1.369 . S
C181 C183 1.419 1_655 S
C181 H185 0.930 . S
C182 C181 1.369 . S
C182 C191 1.429 . S
C183 C181 1.419 1_455 S
C183 C184 1.363 . S
C183 H186 0.929 . S
C184 C183 1.363 . S
C184 C190 1.428 . S
H185 C181 0.930 . S
H186 C183 0.929 . S
S187 N188 1.613 . S
S187 N189 1.610 1_655 S
N188 S187 1.613 . S
N188 C191 1.350 . S
N189 S187 1.610 1_455 S
N189 C190 1.351 . S
C190 C184 1.428 . S
C190 N189 1.351 . S
C190 C191 1.434 1_455 S
C191 C182 1.429 . S
C191 N188 1.350 . S
C191 C190 1.434 1_655 S
C192 C193 1.369 . S
C192 C194 1.419 . S
C192 H196 0.930 . S
C193 C192 1.369 . S
C193 C202 1.429 . S
C194 C192 1.419 . S
C194 C195 1.363 . S
C194 H197 0.929 . S
C195 C194 1.363 . S
C195 C201 1.428 . S
H196 C192 0.930 . S
H197 C194 0.929 . S
S198 N199 1.613 . S
S198 N200 1.610 . S
N199 S198 1.613 . S
N199 C202 1.350 . S
N200 S198 1.610 . S
N200 C201 1.351 . S
C201 C195 1.428 . S
C201 N200 1.351 . S
C201 C202 1.434 . S
C202 C193 1.429 . S
C202 N199 1.350 . S
C202 C201 1.434 . S
C203 C204 1.369 . S
C203 C205 1.419 . S
C203 H207 0.930 . S
C204 C203 1.369 . S
C204 C213 1.429 . S
C205 C203 1.419 . S
C205 C206 1.363 . S
C205 H208 0.929 . S
C206 C205 1.363 . S
C206 C212 1.428 . S
H207 C203 0.930 . S
H208 C205 0.929 . S
S209 N210 1.613 . S
S209 N211 1.610 . S
N210 S209 1.613 . S
N210 C213 1.350 . S
N211 S209 1.610 . S
N211 C212 1.351 . S
C212 C206 1.428 . S
C212 N211 1.351 . S
C212 C213 1.434 . S
C213 C204 1.429 . S
C213 N210 1.350 . S
C213 C212 1.434 . S
C214 C215 1.369 . S
C214 C216 1.419 . S
C214 H218 0.930 . S
C215 C214 1.369 . S
C215 C224 1.429 . S
C216 C214 1.419 . S
C216 C217 1.363 . S
C216 H219 0.929 . S
C217 C216 1.363 . S
C217 C223 1.428 . S
H218 C214 0.930 . S
H219 C216 0.929 . S
S220 N221 1.613 . S
S220 N222 1.610 . S
N221 S220 1.613 . S
N221 C224 1.350 . S
N222 S220 1.610 . S
N222 C223 1.351 . S
C223 C217 1.428 . S
C223 N222 1.351 . S
C223 C224 1.434 . S
C224 C215 1.429 . S
C224 N221 1.350 . S
C224 C223 1.434 . S
C225 C226 1.369 . S
C225 C227 1.419 . S
C225 H229 0.930 . S
C226 C225 1.369 . S
C226 C235 1.429 . S
C227 C225 1.419 . S
C227 C228 1.363 . S
C227 H230 0.929 . S
C228 C227 1.363 . S
C228 C234 1.428 . S
H229 C225 0.930 . S
H230 C227 0.929 . S
S231 N232 1.613 . S
S231 N233 1.610 . S
N232 S231 1.613 . S
N232 C235 1.350 . S
N233 S231 1.610 . S
N233 C234 1.351 . S
C234 C228 1.428 . S
C234 N233 1.351 . S
C234 C235 1.434 . S
C235 C226 1.429 . S
C235 N232 1.350 . S
C235 C234 1.434 . S
C236 C237 1.369 . S
C236 C238 1.419 . S
C236 H240 0.930 . S
C237 C236 1.369 . S
C237 C246 1.429 . S
C238 C236 1.419 . S
C238 C239 1.363 . S
C238 H241 0.929 . S
C239 C238 1.363 . S
C239 C245 1.428 . S
H240 C236 0.930 . S
H241 C238 0.929 . S
S242 N243 1.613 . S
S242 N244 1.610 . S
N243 S242 1.613 . S
N243 C246 1.350 . S
N244 S242 1.610 . S
N244 C245 1.351 . S
C245 C239 1.428 . S
C245 N244 1.351 . S
C245 C246 1.434 . S
C246 C237 1.429 . S
C246 N243 1.350 . S
C246 C245 1.434 . S
C247 C248 1.369 . S
C247 C249 1.419 . S
C247 H251 0.930 . S
C248 C247 1.369 . S
C248 C257 1.429 . S
C249 C247 1.419 . S
C249 C250 1.363 . S
C249 H252 0.929 . S
C250 C249 1.363 . S
C250 C256 1.428 . S
H251 C247 0.930 . S
H252 C249 0.929 . S
S253 N254 1.613 . S
S253 N255 1.610 . S
N254 S253 1.613 . S
N254 C257 1.350 . S
N255 S253 1.610 . S
N255 C256 1.351 . S
C256 C250 1.428 . S
C256 N255 1.351 . S
C256 C257 1.434 . S
C257 C248 1.429 . S
C257 N254 1.350 . S
C257 C256 1.434 . S
C258 C259 1.369 . S
C258 C260 1.419 . S
C258 H262 0.930 . S
C259 C258 1.369 . S
C259 C268 1.429 . S
C260 C258 1.419 . S
C260 C261 1.363 . S
C260 H263 0.929 . S
C261 C260 1.363 . S
C261 C267 1.428 . S
H262 C258 0.930 . S
H263 C260 0.929 . S
S264 N265 1.613 . S
S264 N266 1.610 . S
N265 S264 1.613 . S
N265 C268 1.350 . S
N266 S264 1.610 . S
N266 C267 1.351 . S
C267 C261 1.428 . S
C267 N266 1.351 . S
C267 C268 1.434 . S
C268 C259 1.429 . S
C268 N265 1.350 . S
C268 C267 1.434 . S
C269 C270 1.369 . S
C269 C271 1.419 . S
C269 H273 0.930 . S
C270 C269 1.369 . S
C270 C279 1.429 . S
C271 C269 1.419 . S
C271 C272 1.363 . S
C271 H274 0.929 . S
C272 C271 1.363 . S
C272 C278 1.428 . S
H273 C269 0.930 . S
H274 C271 0.929 . S
S275 N276 1.613 . S
S275 N277 1.610 . S
N276 S275 1.613 . S
N276 C279 1.350 . S
N277 S275 1.610 . S
N277 C278 1.351 . S
C278 C272 1.428 . S
C278 N277 1.351 . S
C278 C279 1.434 . S
C279 C270 1.429 . S
C279 N276 1.350 . S
C279 C278 1.434 . S
C105 C5 1.451 . S
C107 C44 1.450 . S
C116 C10 1.470 . S
C118 C23 1.469 . S
C127 C18 1.450 . S
C129 C31 1.449 . S
C138 C49 1.471 . S
C140 C36 1.468 . S
C149 C57 1.453 . S
C151 C96 1.454 . S
C160 C75 1.472 . S
C162 C62 1.468 . S
C171 C83 1.449 . S
C173 C70 1.452 . S
C182 C101 1.467 . S
C184 C88 1.471 . S
C193 C86 1.417 . S
C195 C0 1.422 . S
C204 C21 1.416 . S
C206 C91 1.420 . S
C215 C60 1.422 . S
C217 C26 1.421 . S
C226 C65 1.423 . S
C228 C47 1.421 . S
C237 C73 1.423 . S
C239 C39 1.421 . S
C248 C8 1.422 . S
C250 C78 1.418 . S
C259 C13 1.423 . S
C261 C99 1.418 . S
C270 C34 1.416 . S
C272 C52 1.421 . S
