# Generated by pormake.
# Topology wkj, (6)-cn, num edge types: 1
# Building blocks:
#     Node 0, Type 0, BuildingBlock: VOLQOD_clean_sbu_1, # of connection points: 6
#     Node 1, Type 0, BuildingBlock: VOLQOD_clean_sbu_1, # of connection points: 6
#     Node 2, Type 0, BuildingBlock: VOLQOD_clean_sbu_1, # of connection points: 6
#     Node 3, Type 0, BuildingBlock: VOLQOD_clean_sbu_1, # of connection points: 6
#     Node 4, Type 0, BuildingBlock: VOLQOD_clean_sbu_1, # of connection points: 6
#     Node 5, Type 0, BuildingBlock: VOLQOD_clean_sbu_1, # of connection points: 6
#     Node 6, Type 0, BuildingBlock: VOLQOD_clean_sbu_1, # of connection points: 6
#     Node 7, Type 0, BuildingBlock: VOLQOD_clean_sbu_1, # of connection points: 6
#     Node 8, Type 0, BuildingBlock: VOLQOD_clean_sbu_1, # of connection points: 6
#     Node 9, Type 0, BuildingBlock: VOLQOD_clean_sbu_1, # of connection points: 6
#     Node 10, Type 0, BuildingBlock: VOLQOD_clean_sbu_1, # of connection points: 6
#     Node 11, Type 0, BuildingBlock: VOLQOD_clean_sbu_1, # of connection points: 6
#     Edge 12, Type (0, 0), BuildingBlock: UVAHIK_clean_linker_0, # of connection points: 2
#     Edge 13, Type (0, 0), BuildingBlock: UVAHIK_clean_linker_0, # of connection points: 2
#     Edge 14, Type (0, 0), BuildingBlock: UVAHIK_clean_linker_0, # of connection points: 2
#     Edge 15, Type (0, 0), BuildingBlock: UVAHIK_clean_linker_0, # of connection points: 2
#     Edge 16, Type (0, 0), BuildingBlock: UVAHIK_clean_linker_0, # of connection points: 2
#     Edge 17, Type (0, 0), BuildingBlock: UVAHIK_clean_linker_0, # of connection points: 2
#     Edge 18, Type (0, 0), BuildingBlock: UVAHIK_clean_linker_0, # of connection points: 2
#     Edge 19, Type (0, 0), BuildingBlock: UVAHIK_clean_linker_0, # of connection points: 2
#     Edge 20, Type (0, 0), BuildingBlock: UVAHIK_clean_linker_0, # of connection points: 2
#     Edge 21, Type (0, 0), BuildingBlock: UVAHIK_clean_linker_0, # of connection points: 2
#     Edge 22, Type (0, 0), BuildingBlock: UVAHIK_clean_linker_0, # of connection points: 2
#     Edge 23, Type (0, 0), BuildingBlock: UVAHIK_clean_linker_0, # of connection points: 2
#     Edge 24, Type (0, 0), BuildingBlock: UVAHIK_clean_linker_0, # of connection points: 2
#     Edge 25, Type (0, 0), BuildingBlock: UVAHIK_clean_linker_0, # of connection points: 2
#     Edge 26, Type (0, 0), BuildingBlock: UVAHIK_clean_linker_0, # of connection points: 2
#     Edge 27, Type (0, 0), BuildingBlock: UVAHIK_clean_linker_0, # of connection points: 2
#     Edge 28, Type (0, 0), BuildingBlock: UVAHIK_clean_linker_0, # of connection points: 2
#     Edge 29, Type (0, 0), BuildingBlock: UVAHIK_clean_linker_0, # of connection points: 2
#     Edge 30, Type (0, 0), BuildingBlock: UVAHIK_clean_linker_0, # of connection points: 2
#     Edge 31, Type (0, 0), BuildingBlock: UVAHIK_clean_linker_0, # of connection points: 2
#     Edge 32, Type (0, 0), BuildingBlock: UVAHIK_clean_linker_0, # of connection points: 2
#     Edge 33, Type (0, 0), BuildingBlock: UVAHIK_clean_linker_0, # of connection points: 2
#     Edge 34, Type (0, 0), BuildingBlock: UVAHIK_clean_linker_0, # of connection points: 2
#     Edge 35, Type (0, 0), BuildingBlock: UVAHIK_clean_linker_0, # of connection points: 2
#     Edge 36, Type (0, 0), BuildingBlock: UVAHIK_clean_linker_0, # of connection points: 2
#     Edge 37, Type (0, 0), BuildingBlock: UVAHIK_clean_linker_0, # of connection points: 2
#     Edge 38, Type (0, 0), BuildingBlock: UVAHIK_clean_linker_0, # of connection points: 2
#     Edge 39, Type (0, 0), BuildingBlock: UVAHIK_clean_linker_0, # of connection points: 2
#     Edge 40, Type (0, 0), BuildingBlock: UVAHIK_clean_linker_0, # of connection points: 2
#     Edge 41, Type (0, 0), BuildingBlock: UVAHIK_clean_linker_0, # of connection points: 2
#     Edge 42, Type (0, 0), BuildingBlock: UVAHIK_clean_linker_0, # of connection points: 2
#     Edge 43, Type (0, 0), BuildingBlock: UVAHIK_clean_linker_0, # of connection points: 2
#     Edge 44, Type (0, 0), BuildingBlock: UVAHIK_clean_linker_0, # of connection points: 2
#     Edge 45, Type (0, 0), BuildingBlock: UVAHIK_clean_linker_0, # of connection points: 2
#     Edge 46, Type (0, 0), BuildingBlock: UVAHIK_clean_linker_0, # of connection points: 2
#     Edge 47, Type (0, 0), BuildingBlock: UVAHIK_clean_linker_0, # of connection points: 2
# Relax obj value: 0.767
# Max RMSD: 0.281
# Mean RMSD: 0.281
data_MOF--net-wkj--node1-VOLQOD_clean_sbu_1--edge1-UVAHIK_clean_linker_0
_symmetry_space_group_name_H-M    P1
_symmetry_Int_Tables_number       1
_symmetry_cell_setting            triclinic
loop_
_symmetry_equiv_pos_as_xyz
'x, y, z'
_cell_length_a     71.023622
_cell_length_b     71.053364
_cell_length_c     30.789927
_cell_angle_alpha  90.052691
_cell_angle_beta   90.110322
_cell_angle_gamma 119.9276
loop_
_atom_site_label
_atom_site_type_symbol
_atom_site_fract_x
_atom_site_fract_y
_atom_site_fract_z
_atom_type_partial_charge
O0 O 0.39358 0.0802 0.37447 0.0
Zn1 Zn 0.41391 0.07473 0.3389 0.0
O2 O 0.44229 0.10047 0.334 0.0
Zn3 Zn 0.46524 0.09383 0.34335 0.0
Zn4 Zn 0.44381 0.12129 0.37726 0.0
Zn5 Zn 0.44439 0.11046 0.27589 0.0
O6 O 0.48241 0.09712 0.28839 0.0
O7 O 0.47237 0.11661 0.24822 0.0
O8 O 0.41726 0.05304 0.37348 0.0
O9 O 0.45266 0.06449 0.37182 0.0
O10 O 0.48637 0.11427 0.38697 0.0
O11 O 0.47123 0.13245 0.41456 0.0
O12 O 0.44283 0.14626 0.34637 0.0
O13 O 0.40053 0.06124 0.28098 0.0
O14 O 0.4414 0.13658 0.27681 0.0
O15 O 0.42176 0.08807 0.2369 0.0
C16 C 0.39897 0.0895 0.41139 0.0
C17 C 0.48451 0.10841 0.25463 0.0
C18 C 0.4866 0.12805 0.41365 0.0
C19 C 0.43339 0.05087 0.38388 0.0
C20 C 0.4412 0.14922 0.30589 0.0
C21 C 0.40577 0.0691 0.2429 0.0
O22 O 0.4183 0.10498 0.41817 0.0
O23 O 0.33238 0.34948 0.59015 0.0
Zn24 Zn 0.3465 0.37277 0.54569 0.0
O25 O 0.33276 0.39029 0.54208 0.0
Zn26 Zn 0.35441 0.42097 0.54333 0.0
Zn27 Zn 0.31334 0.38402 0.5915 0.0
Zn28 Zn 0.31786 0.38346 0.48678 0.0
O29 O 0.35906 0.43491 0.48443 0.0
O30 O 0.33075 0.40966 0.44778 0.0
O31 O 0.37658 0.39079 0.5685 0.0
O32 O 0.38231 0.42448 0.56706 0.0
O33 O 0.34623 0.43745 0.58472 0.0
O34 O 0.32307 0.41132 0.62851 0.0
O35 O 0.28317 0.37543 0.56804 0.0
O36 O 0.34789 0.36045 0.48771 0.0
O37 O 0.28677 0.37411 0.49632 0.0
O38 O 0.32173 0.36189 0.45127 0.0
C39 C 0.32189 0.34834 0.62447 0.0
C40 C 0.34754 0.42845 0.45005 0.0
C41 C 0.33501 0.43141 0.61933 0.0
C42 C 0.38855 0.41096 0.5761 0.0
C43 C 0.27531 0.37223 0.52956 0.0
C44 C 0.33618 0.35633 0.4538 0.0
O45 O 0.31413 0.36098 0.63032 0.0
O46 O 0.9634 0.34173 0.95848 0.0
Zn47 Zn 0.96263 0.36324 0.91771 0.0
O48 O 0.93373 0.35871 0.90846 0.0
Zn49 Zn 0.93271 0.38538 0.91526 0.0
Zn50 Zn 0.91589 0.33786 0.95245 0.0
Zn51 Zn 0.92569 0.34798 0.85022 0.0
O52 O 0.9251 0.39458 0.85807 0.0
O53 O 0.91373 0.36447 0.81884 0.0
O54 O 0.97947 0.391 0.94892 0.0
O55 O 0.96067 0.40827 0.94392 0.0
O56 O 0.90884 0.3805 0.9565 0.0
O57 O 0.89643 0.34727 0.98262 0.0
O58 O 0.89747 0.30864 0.92325 0.0
O59 O 0.97835 0.3651 0.86235 0.0
O60 O 0.90374 0.31638 0.8527 0.0
O61 O 0.95151 0.35285 0.81442 0.0
C62 C 0.95424 0.33821 0.99537 0.0
C63 C 0.91611 0.38335 0.82397 0.0
C64 C 0.89591 0.36495 0.9809 0.0
C65 C 0.9772 0.40726 0.9572 0.0
C66 C 0.89419 0.30286 0.88333 0.0
C67 C 0.97148 0.36022 0.82349 0.0
O68 O 0.93597 0.3374 0.99909 0.0
O69 O 0.5284 0.91172 0.38165 0.0
Zn70 Zn 0.50449 0.90392 0.33921 0.0
O71 O 0.48975 0.87295 0.32959 0.0
Zn72 Zn 0.45884 0.86004 0.3367 0.0
Zn73 Zn 0.49873 0.85861 0.37262 0.0
Zn74 Zn 0.49457 0.86821 0.27046 0.0
O75 O 0.44252 0.85313 0.28064 0.0
O76 O 0.46775 0.85834 0.23236 0.0
O77 O 0.48407 0.91188 0.36834 0.0
O78 O 0.45306 0.88036 0.37093 0.0
O79 O 0.44631 0.83296 0.37173 0.0
O80 O 0.47399 0.84278 0.41668 0.0
O81 O 0.5043 0.83674 0.3398 0.0
O82 O 0.51956 0.92155 0.28507 0.0
O83 O 0.5031 0.84565 0.27062 0.0
O84 O 0.51838 0.89525 0.24417 0.0
C85 C 0.53536 0.90188 0.40553 0.0
C86 C 0.44822 0.85299 0.2416 0.0
C87 C 0.45366 0.8317 0.40857 0.0
C88 C 0.46441 0.90036 0.3808 0.0
C89 C 0.50606 0.83438 0.29905 0.0
C90 C 0.52557 0.91532 0.25159 0.0
O91 O 0.52593 0.88114 0.40596 0.0
O92 O 0.62938 0.60828 0.61224 0.0
Zn93 Zn 0.62268 0.5848 0.5694 0.0
O94 O 0.64787 0.58236 0.56138 0.0
Zn95 Zn 0.64099 0.55248 0.56075 0.0
Zn96 Zn 0.66778 0.59556 0.60934 0.0
Zn97 Zn 0.65982 0.59532 0.50646 0.0
O98 O 0.64089 0.54166 0.50038 0.0
O99 O 0.65263 0.57181 0.46168 0.0
O100 O 0.59882 0.55707 0.59412 0.0
O101 O 0.6117 0.5344 0.58735 0.0
O102 O 0.66072 0.54764 0.59964 0.0
O103 O 0.66384 0.57114 0.65028 0.0
O104 O 0.69797 0.60942 0.58302 0.0
O105 O 0.61397 0.59318 0.51353 0.0
O106 O 0.69213 0.61215 0.51263 0.0
O107 O 0.64635 0.61232 0.48262 0.0
C108 C 0.64478 0.6196 0.63863 0.0
C109 C 0.64559 0.55147 0.46403 0.0
C110 C 0.66325 0.5535 0.63928 0.0
C111 C 0.59701 0.53847 0.59977 0.0
C112 C 0.70498 0.61509 0.54425 0.0
C113 C 0.62621 0.60641 0.48448 0.0
O114 O 0.66129 0.61698 0.64194 0.0
O115 O 0.03992 0.61587 0.94798 0.0
Zn116 Zn 0.05971 0.61622 0.90044 0.0
O117 O 0.08523 0.64477 0.89638 0.0
Zn118 Zn 0.11192 0.64409 0.90415 0.0
Zn119 Zn 0.08527 0.66285 0.94365 0.0
Zn120 Zn 0.08666 0.65674 0.83998 0.0
O121 O 0.12775 0.64732 0.84844 0.0
O122 O 0.10908 0.65522 0.80136 0.0
O123 O 0.06899 0.59449 0.91663 0.0
O124 O 0.10452 0.61552 0.92913 0.0
O125 O 0.13178 0.66574 0.94769 0.0
O126 O 0.10567 0.66271 0.99062 0.0
O127 O 0.09401 0.6927 0.91963 0.0
O128 O 0.04138 0.60862 0.84533 0.0
O129 O 0.09348 0.68736 0.84806 0.0
O130 O 0.05809 0.63997 0.80972 0.0
C131 C 0.03966 0.63059 0.97122 0.0
C132 C 0.12442 0.65137 0.80987 0.0
C133 C 0.12457 0.66508 0.9857 0.0
C134 C 0.0872 0.59719 0.9301 0.0
C135 C 0.09592 0.69952 0.88057 0.0
C136 C 0.04221 0.62072 0.81386 0.0
O137 O 0.05546 0.65006 0.97082 0.0
O138 O 0.88573 0.56014 0.33546 0.0
Zn139 Zn 0.88684 0.54238 0.38487 0.0
O140 O 0.86359 0.51231 0.38497 0.0
Zn141 Zn 0.87405 0.49201 0.3819 0.0
Zn142 Zn 0.84574 0.50945 0.33498 0.0
Zn143 Zn 0.84816 0.50717 0.43896 0.0
O144 O 0.86782 0.47485 0.43739 0.0
O145 O 0.84263 0.47975 0.46955 0.0
O146 O 0.91405 0.54242 0.37342 0.0
O147 O 0.90644 0.50804 0.37195 0.0
O148 O 0.85883 0.47099 0.33333 0.0
O149 O 0.8365 0.48086 0.30316 0.0
O150 O 0.82114 0.51396 0.35643 0.0
O151 O 0.8919 0.55707 0.44309 0.0
O152 O 0.82187 0.50973 0.42815 0.0
O153 O 0.86675 0.53019 0.48222 0.0
C154 C 0.87841 0.55303 0.29758 0.0
C155 C 0.85413 0.47058 0.4678 0.0
C156 C 0.84423 0.46803 0.30566 0.0
C157 C 0.9199 0.52833 0.36902 0.0
C158 C 0.81378 0.51355 0.39454 0.0
C159 C 0.8832 0.54916 0.47962 0.0
O160 O 0.86388 0.53324 0.29173 0.0
O161 O 0.34766 0.92641 0.74962 0.0
Zn162 Zn 0.34929 0.90835 0.79777 0.0
O163 O 0.32341 0.87968 0.79791 0.0
Zn164 Zn 0.33074 0.85677 0.80054 0.0
Zn165 Zn 0.30677 0.87552 0.74459 0.0
Zn166 Zn 0.30697 0.87724 0.84947 0.0
O167 O 0.32366 0.84114 0.85738 0.0
O168 O 0.30806 0.85664 0.89354 0.0
O169 O 0.37572 0.90543 0.78904 0.0
O170 O 0.36267 0.86984 0.79498 0.0
O171 O 0.31916 0.83627 0.75035 0.0
O172 O 0.31043 0.85468 0.70415 0.0
O173 O 0.27523 0.86502 0.76013 0.0
O174 O 0.3523 0.92517 0.85317 0.0
O175 O 0.27684 0.86898 0.83222 0.0
O176 O 0.31956 0.90523 0.88178 0.0
C177 C 0.33434 0.92292 0.71879 0.0
C178 C 0.31543 0.84358 0.89207 0.0
C179 C 0.31448 0.8394 0.7121 0.0
C180 C 0.3784 0.88898 0.78953 0.0
C181 C 0.26639 0.8646 0.7965 0.0
C182 C 0.33818 0.92223 0.88188 0.0
O183 O 0.31782 0.90416 0.71273 0.0
O184 O 0.46219 0.36666 0.96862 0.0
Zn185 Zn 0.48598 0.38829 0.00605 0.0
O186 O 0.50791 0.38015 0.01207 0.0
Zn187 Zn 0.53642 0.40463 0.00284 0.0
Zn188 Zn 0.5037 0.35816 0.96877 0.0
Zn189 Zn 0.50763 0.37153 0.07049 0.0
O190 O 0.55211 0.41969 0.05817 0.0
O191 O 0.53222 0.39421 0.10598 0.0
O192 O 0.49842 0.41622 0.9724 0.0
O193 O 0.5331 0.42535 0.96457 0.0
O194 O 0.55467 0.39581 0.96912 0.0
O195 O 0.52889 0.37233 0.92505 0.0
O196 O 0.50349 0.33284 1.00086 0.0
O197 O 0.4712 0.38738 0.06315 0.0
O198 O 0.50858 0.3443 0.06977 0.0
O199 O 0.48075 0.36676 0.1007 0.0
C200 C 0.45962 0.35178 0.94228 0.0
C201 C 0.54832 0.41275 0.09707 0.0
C202 C 0.54884 0.3861 0.93269 0.0
C203 C 0.51715 0.42812 0.95572 0.0
C204 C 0.50631 0.33041 0.04107 0.0
C205 C 0.46914 0.37568 0.09622 0.0
O206 O 0.47451 0.34691 0.9367 0.0
O207 O 0.1003 0.47823 0.34508 0.0
Zn208 Zn 0.11445 0.49812 0.39575 0.0
O209 O 0.14591 0.51407 0.39047 0.0
Zn210 Zn 0.15698 0.54524 0.38684 0.0
Zn211 Zn 0.15429 0.5044 0.33778 0.0
Zn212 Zn 0.1579 0.50939 0.44342 0.0
O213 O 0.17575 0.56232 0.43718 0.0
O214 O 0.17231 0.53623 0.48135 0.0
O215 O 0.10331 0.51878 0.40037 0.0
O216 O 0.13243 0.55117 0.38956 0.0
O217 O 0.17137 0.55752 0.33044 0.0
O218 O 0.16718 0.52903 0.29261 0.0
O219 O 0.17454 0.49295 0.35546 0.0
O220 O 0.10435 0.47902 0.44832 0.0
O221 O 0.17814 0.49894 0.42698 0.0
O222 O 0.1349 0.48597 0.48112 0.0
C223 C 0.1074 0.47172 0.31396 0.0
C224 C 0.17875 0.55617 0.47404 0.0
C225 C 0.17315 0.54921 0.29519 0.0
C226 C 0.11222 0.53929 0.39654 0.0
C227 C 0.18253 0.49215 0.39225 0.0
C228 C 0.11425 0.47565 0.47908 0.0
O229 O 0.12775 0.47962 0.30813 0.0
O230 O 0.64643 0.0463 0.77049 0.0
Zn231 Zn 0.63289 0.05185 0.82241 0.0
O232 O 0.63197 0.0787 0.81949 0.0
Zn233 Zn 0.60265 0.07395 0.82154 0.0
Zn234 Zn 0.64593 0.09264 0.7653 0.0
Zn235 Zn 0.64728 0.09564 0.86983 0.0
O236 O 0.59786 0.08714 0.87543 0.0
O237 O 0.63124 0.10836 0.90085 0.0
O238 O 0.60273 0.02756 0.81994 0.0
O239 O 0.58106 0.0418 0.82065 0.0
O240 O 0.59757 0.08889 0.7711 0.0
O241 O 0.62878 0.10481 0.73481 0.0
O242 O 0.67686 0.11626 0.77902 0.0
O243 O 0.64397 0.04736 0.87938 0.0
O244 O 0.6769 0.11817 0.85137 0.0
O245 O 0.6495 0.07664 0.91543 0.0
C246 C 0.64764 0.05325 0.73191 0.0
C247 C 0.6109 0.10147 0.90209 0.0
C248 C 0.60939 0.10105 0.74039 0.0
C249 C 0.58391 0.02545 0.81977 0.0
C250 C 0.68659 0.12443 0.81497 0.0
C251 C 0.64821 0.05814 0.91458 0.0
O252 O 0.64633 0.07023 0.72447 0.0
O253 O 0.53156 0.64688 0.98212 0.0
Zn254 Zn 0.51164 0.61878 0.01095 0.0
O255 O 0.48239 0.61353 0.01262 0.0
Zn256 Zn 0.46215 0.58353 0.99921 0.0
Zn257 Zn 0.48035 0.63258 0.96958 0.0
Zn258 Zn 0.47706 0.6189 0.07077 0.0
O259 O 0.44713 0.56576 0.05285 0.0
O260 O 0.45276 0.5924 0.09814 0.0
O261 O 0.5124 0.59689 0.97187 0.0
O262 O 0.47773 0.57137 0.96479 0.0
O263 O 0.43938 0.58174 0.95869 0.0
O264 O 0.45492 0.61445 0.92794 0.0
O265 O 0.47608 0.65539 0.0021 0.0
O266 O 0.52375 0.61888 0.07009 0.0
O267 O 0.47087 0.64304 0.07022 0.0
O268 O 0.50271 0.62683 0.1101 0.0
C269 C 0.52798 0.65352 0.9464 0.0
C270 C 0.44378 0.57225 0.08913 0.0
C271 C 0.43952 0.59472 0.9301 0.0
C272 C 0.49774 0.57916 0.95541 0.0
C273 C 0.47172 0.65652 0.04201 0.0
C274 C 0.51913 0.62424 0.1063 0.0
O275 O 0.50859 0.64764 0.93432 0.0
C276 C 0.42818 0.16687 0.25469 0.0
C277 C 0.44137 0.16877 0.29032 0.0
C278 C 0.43316 0.18487 0.22905 0.0
C279 C 0.46937 0.24428 0.21747 0.0
H280 H 0.4703 0.2292 0.09649 0.0
C281 C 0.51593 0.31047 0.09383 0.0
C282 C 0.50379 0.30989 0.05733 0.0
C283 C 0.5089 0.29216 0.11978 0.0
C284 C 0.47 0.23363 0.13006 0.0
H285 H 0.46868 0.19104 0.32991 0.0
H286 H 0.47764 0.22269 0.2848 0.0
H287 H 0.45393 0.20057 0.15079 0.0
H288 H 0.47612 0.28938 0.01663 0.0
H289 H 0.46373 0.25713 0.06212 0.0
H290 H 0.48568 0.27736 0.19672 0.0
C291 C 0.46334 0.20737 0.27679 0.0
C292 C 0.46048 0.21726 0.16116 0.0
C293 C 0.45817 0.18932 0.30281 0.0
C294 C 0.48585 0.29011 0.04442 0.0
C295 C 0.47869 0.27174 0.07066 0.0
C296 C 0.47893 0.26064 0.18638 0.0
C297 C 0.4516 0.205 0.23831 0.0
C298 C 0.46015 0.22242 0.20523 0.0
C299 C 0.48951 0.27301 0.10982 0.0
C300 C 0.47952 0.25548 0.14244 0.0
H301 H 0.41507 0.1511 0.24466 0.0
H302 H 0.42345 0.18271 0.20031 0.0
H303 H 0.46919 0.24874 0.25106 0.0
H304 H 0.5299 0.32558 0.10424 0.0
H305 H 0.51789 0.29339 0.14912 0.0
C306 C 0.24418 0.36446 0.48105 0.0
C307 C 0.25453 0.37164 0.52155 0.0
C308 C 0.23022 0.37149 0.46566 0.0
C309 C 0.2239 0.40685 0.42713 0.0
H310 H 0.19133 0.42614 0.49677 0.0
C311 C 0.20476 0.48118 0.43652 0.0
C312 C 0.19379 0.47952 0.39738 0.0
C313 C 0.21006 0.46543 0.44787 0.0
C314 C 0.20039 0.42082 0.47694 0.0
H315 H 0.25608 0.3893 0.58011 0.0
H316 H 0.23211 0.40181 0.55329 0.0
H317 H 0.19969 0.39927 0.52619 0.0
H318 H 0.18164 0.46109 0.33761 0.0
H319 H 0.19156 0.43372 0.35721 0.0
H320 H 0.22476 0.42872 0.37813 0.0
C321 C 0.2346 0.39074 0.53318 0.0
C322 C 0.20515 0.40542 0.49374 0.0
C323 C 0.24837 0.38349 0.54876 0.0
C324 C 0.19013 0.46287 0.36793 0.0
C325 C 0.19563 0.4471 0.37926 0.0
C326 C 0.21891 0.42209 0.41015 0.0
C327 C 0.22653 0.38597 0.49036 0.0
C328 C 0.21759 0.39877 0.46963 0.0
C329 C 0.20473 0.44777 0.4202 0.0
C330 C 0.20776 0.42973 0.43551 0.0
H331 H 0.2484 0.35503 0.45961 0.0
H332 H 0.22367 0.36691 0.43311 0.0
H333 H 0.2338 0.40241 0.40777 0.0
H334 H 0.20807 0.49395 0.45971 0.0
H335 H 0.21764 0.46662 0.47911 0.0
C336 C 0.87385 0.27392 0.82787 0.0
C337 C 0.87757 0.28042 0.87171 0.0
C338 C 0.85614 0.25395 0.81603 0.0
C339 C 0.80832 0.22217 0.80175 0.0
H340 H 0.78552 0.16996 0.87143 0.0
C341 C 0.72087 0.14834 0.85524 0.0
C342 C 0.71 0.14073 0.81533 0.0
C343 C 0.74308 0.16292 0.85651 0.0
C344 C 0.79174 0.18441 0.85158 0.0
H345 H 0.86648 0.27036 0.93772 0.0
H346 H 0.83545 0.23561 0.917 0.0
H347 H 0.82246 0.19962 0.8843 0.0
H348 H 0.71404 0.14265 0.74531 0.0
H349 H 0.75313 0.16854 0.74768 0.0
H350 H 0.77729 0.20733 0.77025 0.0
C351 C 0.84631 0.24591 0.8918 0.0
C352 C 0.81285 0.20135 0.85895 0.0
C353 C 0.86403 0.2659 0.90367 0.0
C354 C 0.72192 0.14824 0.77658 0.0
C355 C 0.74426 0.16301 0.7779 0.0
C356 C 0.7872 0.20522 0.79438 0.0
C357 C 0.84182 0.24005 0.84777 0.0
C358 C 0.82108 0.22068 0.83507 0.0
C359 C 0.75504 0.17034 0.81796 0.0
C360 C 0.77848 0.18651 0.82027 0.0
H361 H 0.88413 0.28459 0.80242 0.0
H362 H 0.85326 0.24969 0.78192 0.0
H363 H 0.81413 0.23696 0.78309 0.0
H364 H 0.71227 0.14298 0.88578 0.0
H365 H 0.75085 0.16867 0.88785 0.0
C366 C 0.45824 0.67267 0.09621 0.0
C367 C 0.47049 0.67529 0.05866 0.0
C368 C 0.46174 0.69064 0.12063 0.0
C369 C 0.46869 0.73177 0.16367 0.0
H370 H 0.52998 0.7725 0.18173 0.0
C371 C 0.5209 0.81995 0.24412 0.0
C372 C 0.50903 0.81664 0.28252 0.0
C373 C 0.51836 0.80233 0.21969 0.0
C374 C 0.51282 0.76124 0.17698 0.0
H375 H 0.49458 0.69873 0.01487 0.0
H376 H 0.5005 0.73042 0.05732 0.0
H377 H 0.51884 0.74378 0.12747 0.0
H378 H 0.4867 0.79256 0.32771 0.0
H379 H 0.48225 0.76148 0.28489 0.0
H380 H 0.46269 0.74914 0.21339 0.0
C381 C 0.48846 0.71438 0.06826 0.0
C382 C 0.50641 0.74497 0.14556 0.0
C383 C 0.48485 0.69631 0.0436 0.0
C384 C 0.49615 0.79548 0.29836 0.0
C385 C 0.49339 0.77776 0.27359 0.0
C386 C 0.4751 0.74796 0.19521 0.0
C387 C 0.47762 0.71163 0.10801 0.0
C388 C 0.48427 0.73003 0.13859 0.0
C389 C 0.50371 0.78106 0.23305 0.0
C390 C 0.49723 0.76283 0.20224 0.0
H391 H 0.44701 0.6566 0.10844 0.0
H392 H 0.45314 0.68789 0.15106 0.0
H393 H 0.45151 0.72065 0.15882 0.0
H394 H 0.53091 0.83618 0.23129 0.0
H395 H 0.52651 0.8054 0.18863 0.0
C396 C 0.73682 0.61047 0.55962 0.0
C397 C 0.72691 0.6191 0.533 0.0
C398 C 0.75159 0.60504 0.54197 0.0
C399 C 0.7819 0.59292 0.49751 0.0
H400 H 0.75681 0.56318 0.38867 0.0
C401 C 0.79785 0.53645 0.37126 0.0
C402 C 0.79916 0.52248 0.40193 0.0
C403 C 0.78995 0.55023 0.38343 0.0
C404 C 0.76414 0.5716 0.41876 0.0
H405 H 0.7278 0.63271 0.46949 0.0
H406 H 0.75416 0.62396 0.43917 0.0
H407 H 0.74602 0.58817 0.41846 0.0
H408 H 0.7909 0.51021 0.46779 0.0
H409 H 0.77704 0.53405 0.48866 0.0
H410 H 0.79917 0.5754 0.49866 0.0
C411 C 0.74972 0.62035 0.47303 0.0
C412 C 0.75816 0.58611 0.43573 0.0
C413 C 0.73481 0.6256 0.49058 0.0
C414 C 0.79039 0.52099 0.44353 0.0
C415 C 0.78267 0.53479 0.45568 0.0
C416 C 0.78768 0.57825 0.48076 0.0
C417 C 0.75695 0.6085 0.49759 0.0
C418 C 0.76656 0.59654 0.47589 0.0
C419 C 0.78333 0.55022 0.4264 0.0
C420 C 0.77842 0.56704 0.44184 0.0
H421 H 0.73127 0.60542 0.59256 0.0
H422 H 0.75692 0.59609 0.56208 0.0
H423 H 0.78895 0.60092 0.52808 0.0
H424 H 0.8045 0.53804 0.33897 0.0
H425 H 0.7904 0.56186 0.36013 0.0
C426 C 0.23617 0.86643 0.83303 0.0
C427 C 0.24341 0.85883 0.79833 0.0
C428 C 0.21405 0.85822 0.83978 0.0
C429 C 0.15872 0.81899 0.7979 0.0
H430 H 0.15234 0.79474 0.91318 0.0
C431 C 0.10749 0.7306 0.82969 0.0
C432 C 0.10228 0.72241 0.87215 0.0
C433 C 0.11683 0.75275 0.82199 0.0
C434 C 0.15327 0.80168 0.88144 0.0
H435 H 0.23347 0.83854 0.74081 0.0
H436 H 0.19466 0.8234 0.75355 0.0
H437 H 0.18569 0.82668 0.8939 0.0
H438 H 0.1001 0.73066 0.93907 0.0
H439 H 0.11604 0.76949 0.92549 0.0
H440 H 0.12653 0.79305 0.78494 0.0
C441 C 0.20605 0.836 0.77516 0.0
C442 C 0.17263 0.82016 0.87024 0.0
C443 C 0.22827 0.84446 0.76806 0.0
C444 C 0.10449 0.73657 0.90614 0.0
C445 C 0.1136 0.75882 0.8983 0.0
C446 C 0.13914 0.80062 0.80936 0.0
C447 C 0.19874 0.84199 0.81238 0.0
C448 C 0.17613 0.82802 0.82744 0.0
C449 C 0.121 0.76731 0.8565 0.0
C450 C 0.13693 0.79074 0.85012 0.0
H451 H 0.24759 0.87799 0.85622 0.0
H452 H 0.2089 0.86342 0.86825 0.0
H453 H 0.16081 0.82507 0.76498 0.0
H454 H 0.10567 0.72012 0.80253 0.0
H455 H 0.12239 0.75848 0.78938 0.0
C456 C 0.58146 0.10685 0.93358 0.0
C457 C 0.60192 0.10846 0.93786 0.0
C458 C 0.57175 0.11087 0.96914 0.0
C459 C 0.56754 0.10454 0.08479 0.0
H460 H 0.54255 0.14213 0.08228 0.0
C461 C 0.51862 0.10903 0.23053 0.0
C462 C 0.50054 0.11133 0.22086 0.0
C463 C 0.53342 0.11153 0.19793 0.0
C464 C 0.54916 0.13131 0.08343 0.0
H465 H 0.62847 0.11602 0.98245 0.0
H466 H 0.61113 0.12243 0.04494 0.0
H467 H 0.56381 0.14159 0.02064 0.0
H468 H 0.48364 0.11777 0.16938 0.0
H469 H 0.50863 0.12108 0.11255 0.0
H470 H 0.55196 0.09317 0.14609 0.0
C471 C 0.60283 0.11834 0.01387 0.0
C472 C 0.56149 0.1312 0.04822 0.0
C473 C 0.61276 0.1148 0.97807 0.0
C474 C 0.49756 0.11615 0.17803 0.0
C475 C 0.51206 0.11823 0.14539 0.0
C476 C 0.55484 0.1043 0.11964 0.0
C477 C 0.58212 0.1161 0.00982 0.0
C478 C 0.57061 0.11766 0.04844 0.0
C479 C 0.53024 0.11598 0.15477 0.0
C480 C 0.54521 0.11748 0.11924 0.0
H481 H 0.57274 0.10201 0.90299 0.0
H482 H 0.55571 0.10893 0.96533 0.0
H483 H 0.57424 0.09378 0.08545 0.0
H484 H 0.52142 0.10547 0.26333 0.0
H485 H 0.54738 0.11003 0.20669 0.0
C486 C 0.41783 0.53405 0.11366 0.0
C487 C 0.43029 0.55636 0.12288 0.0
C488 C 0.40598 0.51924 0.14657 0.0
C489 C 0.38574 0.51647 0.25978 0.0
H490 H 0.38519 0.46166 0.26329 0.0
C491 C 0.36885 0.465 0.41505 0.0
C492 C 0.35424 0.4426 0.41127 0.0
C493 C 0.37574 0.47816 0.37813 0.0
C494 C 0.38502 0.47681 0.26245 0.0
H495 H 0.44001 0.58057 0.174 0.0
H496 H 0.42009 0.55494 0.23103 0.0
H497 H 0.40142 0.48581 0.20133 0.0
H498 H 0.33542 0.41644 0.36576 0.0
H499 H 0.34785 0.43945 0.30124 0.0
H500 H 0.37017 0.50776 0.32192 0.0
C501 C 0.41885 0.54878 0.19835 0.0
C502 C 0.39422 0.49063 0.22686 0.0
C503 C 0.43045 0.56353 0.16553 0.0
C504 C 0.3466 0.43367 0.3698 0.0
C505 C 0.35379 0.44678 0.33284 0.0
C506 C 0.37684 0.5028 0.29559 0.0
C507 C 0.40649 0.52642 0.18946 0.0
C508 C 0.39499 0.5108 0.22535 0.0
C509 C 0.36845 0.46913 0.33666 0.0
C510 C 0.37663 0.48297 0.29749 0.0
H511 H 0.41729 0.52801 0.0811 0.0
H512 H 0.39642 0.50217 0.13837 0.0
H513 H 0.38553 0.5316 0.25934 0.0
H514 H 0.375 0.47236 0.44653 0.0
H515 H 0.38719 0.49534 0.38191 0.0
C516 C 0.90311 0.40848 0.79766 0.0
C517 C 0.90819 0.39209 0.78917 0.0
C518 C 0.89464 0.41578 0.76474 0.0
C519 C 0.869 0.40024 0.65434 0.0
H520 H 0.88491 0.46089 0.64843 0.0
C521 C 0.86232 0.44306 0.49994 0.0
C522 C 0.85404 0.45725 0.50486 0.0
C523 C 0.86569 0.43325 0.5362 0.0
C524 C 0.88012 0.44384 0.65 0.0
H525 H 0.90907 0.37104 0.73913 0.0
H526 H 0.89533 0.38428 0.68172 0.0
H527 H 0.89811 0.44827 0.70856 0.0
H528 H 0.84216 0.47171 0.55162 0.0
H529 H 0.84845 0.45483 0.61502 0.0
H530 H 0.85187 0.3962 0.59448 0.0
C531 C 0.89697 0.391 0.71399 0.0
C532 C 0.88763 0.43656 0.68455 0.0
C533 C 0.90508 0.38351 0.74694 0.0
C534 C 0.84839 0.46072 0.54667 0.0
C535 C 0.85217 0.45124 0.58302 0.0
C536 C 0.86181 0.40762 0.61946 0.0
C537 C 0.89137 0.40706 0.72243 0.0
C538 C 0.88239 0.41468 0.68698 0.0
C539 C 0.86124 0.43774 0.57818 0.0
C540 C 0.86744 0.42952 0.61676 0.0
H541 H 0.9052 0.41532 0.82995 0.0
H542 H 0.89032 0.42797 0.77275 0.0
H543 H 0.8641 0.38318 0.65552 0.0
H544 H 0.86686 0.44009 0.46818 0.0
H545 H 0.87279 0.42299 0.53156 0.0
C546 C 0.32564 0.81922 0.93184 0.0
C547 C 0.31915 0.83495 0.93303 0.0
C548 C 0.33513 0.81553 0.96828 0.0
C549 C 0.34932 0.83059 0.08558 0.0
H550 H 0.40021 0.8267 0.055 0.0
C551 C 0.43793 0.85274 0.16339 0.0
C552 C 0.43174 0.84669 0.20671 0.0
C553 C 0.4222 0.84781 0.13115 0.0
C554 C 0.38617 0.82797 0.06419 0.0
H555 H 0.31581 0.85774 0.97468 0.0
H556 H 0.33275 0.85178 0.03751 0.0
H557 H 0.37489 0.82357 0.99867 0.0
H558 H 0.40415 0.82989 0.24984 0.0
H559 H 0.37682 0.82062 0.19363 0.0
H560 H 0.36142 0.83651 0.15065 0.0
C561 C 0.33032 0.842 0.00884 0.0
C562 C 0.37134 0.82573 0.03187 0.0
C563 C 0.32055 0.84545 0.9726 0.0
C564 C 0.40949 0.83503 0.21684 0.0
C565 C 0.39378 0.82982 0.18457 0.0
C566 C 0.36431 0.8331 0.11783 0.0
C567 C 0.33863 0.8277 0.00657 0.0
C568 C 0.35287 0.82736 0.04196 0.0
C569 C 0.39989 0.83642 0.14136 0.0
C570 C 0.38314 0.83217 0.10749 0.0
H571 H 0.32457 0.81068 0.90196 0.0
H572 H 0.34066 0.80386 0.9657 0.0
H573 H 0.33517 0.83162 0.09482 0.0
H574 H 0.45494 0.86183 0.15458 0.0
H575 H 0.42762 0.8535 0.09846 0.0
C576 C 0.55404 0.42258 0.17575 0.0
C577 C 0.56203 0.42674 0.13307 0.0
C578 C 0.56628 0.43616 0.20982 0.0
C579 C 0.5979 0.46067 0.28127 0.0
H580 H 0.63267 0.52259 0.2613 0.0
C581 C 0.64112 0.51883 0.4239 0.0
C582 C 0.64138 0.53871 0.42363 0.0
C583 C 0.63526 0.50587 0.38659 0.0
C584 C 0.62289 0.50536 0.26764 0.0
H585 H 0.58943 0.44815 0.09281 0.0
H586 H 0.61129 0.47144 0.15267 0.0
H587 H 0.61436 0.4984 0.20059 0.0
H588 H 0.63614 0.56085 0.38394 0.0
H589 H 0.62485 0.5379 0.3197 0.0
H590 H 0.60497 0.46764 0.34858 0.0
C591 C 0.59525 0.45802 0.15968 0.0
C592 C 0.61264 0.49139 0.23254 0.0
C593 C 0.58278 0.44459 0.12534 0.0
C594 C 0.63623 0.54566 0.38502 0.0
C595 C 0.62989 0.53249 0.348 0.0
C596 C 0.60776 0.47465 0.31641 0.0
C597 C 0.58708 0.45408 0.20239 0.0
C598 C 0.59967 0.46886 0.23898 0.0
C599 C 0.62897 0.51222 0.34841 0.0
C600 C 0.62015 0.49725 0.31027 0.0
H601 H 0.538 0.40911 0.18279 0.0
H602 H 0.5591 0.43282 0.24187 0.0
H603 H 0.58853 0.4434 0.28755 0.0
H604 H 0.64527 0.51319 0.4531 0.0
H605 H 0.63538 0.49071 0.38801 0.0
C606 C 0.12924 0.64512 0.73152 0.0
C607 C 0.13736 0.64948 0.77418 0.0
C608 C 0.13985 0.64007 0.69921 0.0
C609 C 0.16799 0.63562 0.63108 0.0
H610 H 0.19108 0.59892 0.66774 0.0
C611 C 0.19324 0.59385 0.50344 0.0
C612 C 0.18539 0.57164 0.51096 0.0
C613 C 0.19389 0.60743 0.53707 0.0
C614 C 0.18468 0.60912 0.65683 0.0
H615 H 0.16382 0.65349 0.81569 0.0
H616 H 0.18277 0.64556 0.7591 0.0
H617 H 0.17858 0.61501 0.72188 0.0
H618 H 0.1739 0.54676 0.56069 0.0
H619 H 0.17449 0.57009 0.61871 0.0
H620 H 0.17252 0.62838 0.56596 0.0
C621 C 0.16779 0.64523 0.75079 0.0
C622 C 0.17777 0.61866 0.68803 0.0
C623 C 0.157 0.64995 0.78322 0.0
C624 C 0.18007 0.56378 0.55366 0.0
C625 C 0.18045 0.57727 0.58714 0.0
C626 C 0.17463 0.62585 0.59987 0.0
C627 C 0.15903 0.63958 0.70862 0.0
C628 C 0.16884 0.63164 0.67558 0.0
C629 C 0.18647 0.59906 0.5789 0.0
C630 C 0.18259 0.61203 0.61226 0.0
H631 H 0.11407 0.64449 0.72353 0.0
H632 H 0.13238 0.63554 0.6674 0.0
H633 H 0.16166 0.64587 0.62016 0.0
H634 H 0.1977 0.60051 0.47101 0.0
H635 H 0.19927 0.62426 0.52973 0.0
C636 C 0.36206 0.95901 0.9153 0.0
C637 C 0.34349 0.93827 0.9172 0.0
C638 C 0.36698 0.97378 0.94946 0.0
C639 C 0.35866 0.97574 0.066 0.0
H640 H 0.3746 0.03573 0.04585 0.0
C641 C 0.37669 0.03443 0.20923 0.0
C642 C 0.39477 0.05534 0.20452 0.0
C643 C 0.36816 0.02059 0.17332 0.0
C644 C 0.37038 0.01908 0.05206 0.0
H645 H 0.3155 0.91684 0.95646 0.0
H646 H 0.32427 0.94248 0.01589 0.0
H647 H 0.36524 0.01087 0.98436 0.0
H648 H 0.41752 0.07837 0.15795 0.0
H649 H 0.40311 0.0542 0.09605 0.0
H650 H 0.36446 0.98391 0.13331 0.0
C651 C 0.33498 0.94731 0.98804 0.0
C652 C 0.36501 0.00488 0.01681 0.0
C653 C 0.32993 0.93268 0.95383 0.0
C654 C 0.40354 0.06239 0.16284 0.0
C655 C 0.39517 0.04852 0.12712 0.0
C656 C 0.36427 0.98997 0.10117 0.0
C657 C 0.35358 0.96796 0.98631 0.0
C658 C 0.35916 0.98309 0.02347 0.0
C659 C 0.37765 0.02728 0.13199 0.0
C660 C 0.3703 0.01187 0.09468 0.0
H661 H 0.3728 0.96381 0.88752 0.0
H662 H 0.38151 0.98959 0.94749 0.0
H663 H 0.35443 0.95907 0.07199 0.0
H664 H 0.36945 0.02855 0.24082 0.0
H665 H 0.35435 0.00451 0.17812 0.0
C666 C 0.43568 0.37596 0.12207 0.0
C667 C 0.45268 0.37166 0.12987 0.0
C668 C 0.41956 0.37084 0.1534 0.0
C669 C 0.39618 0.33755 0.25324 0.0
H670 H 0.3754 0.37773 0.27585 0.0
C671 C 0.35882 0.34358 0.41514 0.0
C672 C 0.34227 0.34896 0.4139 0.0
C673 C 0.36831 0.34186 0.37671 0.0
C674 C 0.38073 0.36612 0.26941 0.0
H675 H 0.46639 0.35919 0.17717 0.0
H676 H 0.43886 0.35095 0.23187 0.0
H677 H 0.40042 0.38473 0.21603 0.0
H678 H 0.32142 0.35483 0.371 0.0
H679 H 0.33805 0.35185 0.30414 0.0
H680 H 0.37716 0.3195 0.308 0.0
C681 C 0.43748 0.3576 0.20118 0.0
C682 C 0.39509 0.37014 0.23509 0.0
C683 C 0.45342 0.36254 0.16988 0.0
C684 C 0.33421 0.35078 0.37326 0.0
C685 C 0.34383 0.34925 0.33489 0.0
C686 C 0.38197 0.33364 0.2878 0.0
C687 C 0.42021 0.36147 0.19326 0.0
C688 C 0.40334 0.35614 0.2271 0.0
C689 C 0.36151 0.3456 0.33632 0.0
C690 C 0.37438 0.34808 0.29667 0.0
H691 H 0.43457 0.38284 0.09146 0.0
H692 H 0.40641 0.37391 0.14608 0.0
H693 H 0.4018 0.32613 0.2474 0.0
H694 H 0.36536 0.34199 0.44584 0.0
H695 H 0.38194 0.33906 0.37884 0.0
C696 C 0.07877 0.44675 0.50912 0.0
C697 C 0.10143 0.45981 0.51341 0.0
C698 C 0.06643 0.43254 0.54223 0.0
C699 C 0.04505 0.39658 0.60913 0.0
H700 H 0.05602 0.42084 0.72537 0.0
C701 C 0.98063 0.36384 0.74424 0.0
C702 C 0.98731 0.3655 0.78778 0.0
C703 C -0.00407 0.37196 0.71082 0.0
C704 C 0.05297 0.41357 0.69334 0.0
H705 H 0.12894 0.46773 0.55556 0.0
H706 H 0.10729 0.44291 0.61353 0.0
H707 H 0.08051 0.44152 0.66667 0.0
H708 H 0.01527 0.37564 0.82996 0.0
H709 H 0.0419 0.38944 0.77155 0.0
H710 H 0.01722 0.3688 0.63565 0.0
C711 C 0.09912 0.44381 0.58453 0.0
C712 C 0.06702 0.42548 0.65964 0.0
C713 C 0.11151 0.45796 0.55124 0.0
C714 C 0.00956 0.37427 0.79684 0.0
C715 C 0.02485 0.38232 0.76337 0.0
C716 C 0.03103 0.38461 0.64289 0.0
C717 C 0.07641 0.4311 0.58052 0.0
C718 C 0.06295 0.41733 0.617 0.0
C719 C 0.01827 0.38183 0.72008 0.0
C720 C 0.03455 0.39317 0.68524 0.0
H721 H 0.07045 0.44769 0.48039 0.0
H722 H 0.04895 0.42318 0.53836 0.0
H723 H 0.04168 0.38972 0.57671 0.0
H724 H 0.96364 0.35718 0.73602 0.0
H725 H 0.99025 0.37148 0.67795 0.0
C726 C 0.54959 0.92418 0.18674 0.0
C727 C 0.54165 0.93138 0.22095 0.0
C728 C 0.56478 0.93888 0.15763 0.0
C729 C 0.6053 -0.00321 0.14069 0.0
H730 H 0.59539 0.97984 0.01938 0.0
C731 C 0.64367 0.05545 0.99534 0.0
C732 C 0.64656 0.04694 0.95621 0.0
C733 C 0.63539 0.04227 0.03204 0.0
C734 C 0.59874 0.98469 0.05316 0.0
H735 H 0.54383 0.95989 0.25165 0.0
H736 H 0.57022 0.9857 0.19988 0.0
H737 H 0.57095 0.95538 0.07399 0.0
H738 H 0.64582 0.01882 0.92682 0.0
H739 H 0.63197 -0.00394 0.99113 0.0
H740 H 0.63292 0.02645 0.11926 0.0
C741 C 0.56478 0.96858 0.19614 0.0
C742 C 0.58461 0.97066 0.08453 0.0
C743 C 0.54954 0.95379 0.22557 0.0
C744 C 0.64346 0.0258 0.95618 0.0
C745 C 0.63533 0.01268 0.99295 0.0
C746 C 0.6195 0.01092 0.10911 0.0
C747 C 0.57241 0.96123 0.16159 0.0
C748 C 0.58768 0.97649 0.12868 0.0
C749 C 0.63003 0.02038 0.03044 0.0
C750 C 0.61635 0.00501 0.06494 0.0
H751 H 0.54414 0.90709 0.18236 0.0
H752 H 0.57061 0.93268 0.13195 0.0
H753 H 0.60822 0.00167 0.17449 0.0
H754 H 0.646 0.07171 0.99669 0.0
H755 H 0.63158 0.04876 0.06039 0.0
C756 C 0.59381 0.60274 0.4446 0.0
C757 C 0.61648 0.61339 0.44998 0.0
C758 C 0.58461 0.60746 0.40915 0.0
C759 C 0.59846 0.63021 0.29825 0.0
H760 H 0.54139 0.62461 0.3047 0.0
C761 C 0.53078 0.63705 0.18264 0.0
C762 C 0.53252 0.62675 0.1451 0.0
C763 C 0.54261 0.63849 0.22003 0.0
C764 C 0.55749 0.6266 0.30227 0.0
H765 H 0.64721 0.63822 0.42355 0.0
H766 H 0.6311 0.64697 0.36241 0.0
H767 H 0.55918 0.62294 0.37082 0.0
H768 H 0.54823 0.61009 0.11725 0.0
H769 H 0.56828 0.61192 0.18275 0.0
H770 H 0.597 0.63442 0.22983 0.0
C771 C 0.62045 0.63449 0.3849 0.0
C772 C 0.56758 0.62531 0.34025 0.0
C773 C 0.62969 0.62959 0.42015 0.0
C774 C 0.54662 0.61824 0.14555 0.0
C775 C 0.55824 0.61943 0.18312 0.0
C776 C 0.58847 0.63175 0.26033 0.0
C777 C 0.59781 0.62315 0.37842 0.0
C778 C 0.58801 0.62668 0.33866 0.0
C779 C 0.55626 0.62942 0.22099 0.0
C780 C 0.56768 0.62955 0.26172 0.0
H781 H 0.58315 0.59009 0.46683 0.0
H782 H 0.56715 0.59814 0.40501 0.0
H783 H 0.61409 0.63112 0.29558 0.0
H784 H 0.52022 0.64397 0.18322 0.0
H785 H 0.54099 0.64668 0.24822 0.0
C786 C 0.00393 0.59422 0.79054 0.0
C787 C 0.02403 0.61291 0.78234 0.0
C788 C 0.98643 0.58802 0.76194 0.0
C789 C 0.96704 0.60998 0.67372 0.0
H790 H 0.9299 0.54936 0.64359 0.0
C791 C 0.91461 0.57993 0.5183 0.0
C792 C 0.89465 0.56037 0.52013 0.0
C793 C 0.92789 0.5878 0.5551 0.0
C794 C 0.93987 0.56634 0.65225 0.0
H795 H 0.04167 0.63934 0.73691 0.0
H796 H 0.01152 0.62826 0.68687 0.0
H797 H 0.95834 0.55941 0.69787 0.0
H798 H 0.87218 0.53484 0.5632 0.0
H799 H 0.89534 0.54869 0.62723 0.0
H800 H 0.94896 0.6169 0.62689 0.0
C801 C 0.00899 0.6187 0.71591 0.0
C802 C 0.9562 0.5721 0.68336 0.0
C803 C 0.02638 0.62495 0.74449 0.0
C804 C 0.88751 0.54986 0.56044 0.0
C805 C 0.90085 0.55768 0.59713 0.0
C806 C 0.95078 0.60422 0.64242 0.0
C807 C 0.98872 0.60033 0.72448 0.0
C808 C 0.97024 0.59402 0.69394 0.0
C809 C 0.92151 0.57627 0.59443 0.0
C810 C 0.93722 0.58236 0.6309 0.0
H811 H 0.00154 0.58467 0.81952 0.0
H812 H 0.971 0.57384 0.76966 0.0
H813 H 0.97725 0.62699 0.68179 0.0
H814 H 0.9206 0.58848 0.48787 0.0
H815 H 0.94375 0.60216 0.55194 0.0
C816 C 0.44728 0.03074 0.42742 0.0
C817 C 0.42969 0.03275 0.41263 0.0
C818 C 0.44375 0.01322 0.45327 0.0
C819 C 0.40464 0.95728 0.4581 0.0
H820 H 0.45077 0.95892 0.52832 0.0
C821 C 0.43299 0.89789 0.4225 0.0
C822 C 0.45486 0.91002 0.40944 0.0
C823 C 0.42385 0.90732 0.44856 0.0
C824 C 0.43736 0.95794 0.50965 0.0
H825 H 0.39466 0.01891 0.4163 0.0
H826 H 0.38852 0.9879 0.46062 0.0
H827 H 0.4445 0.98968 0.52956 0.0
H828 H 0.48464 0.94098 0.4161 0.0
H829 H 0.46865 0.95754 0.46024 0.0
H830 H 0.39905 0.92675 0.43437 0.0
C831 C 0.40501 -5e-05 0.45219 0.0
C832 C 0.43376 0.97552 0.51039 0.0
C833 C 0.40856 0.01756 0.42641 0.0
C834 C 0.46767 0.9313 0.42497 0.0
C835 C 0.45858 0.94066 0.45109 0.0
C836 C 0.40825 0.93973 0.45733 0.0
C837 C 0.42253 -0.00272 0.46481 0.0
C838 C 0.41888 0.97618 0.4812 0.0
C839 C 0.43643 0.92898 0.46221 0.0
C840 C 0.42609 0.94099 0.4797 0.0
H841 H 0.46377 0.04233 0.41806 0.0
H842 H 0.4576 0.01145 0.46171 0.0
H843 H 0.39281 0.95716 0.43567 0.0
H844 H 0.42277 0.88129 0.4117 0.0
H845 H 0.40675 0.89798 0.45658 0.0
C846 C 0.42165 0.44019 0.61273 0.0
C847 C 0.4095 0.41858 0.59852 0.0
C848 C 0.44134 0.4474 0.63424 0.0
C849 C 0.48615 0.43768 0.63364 0.0
H850 H 0.50889 0.48524 0.71635 0.0
C851 C 0.57529 0.50072 0.62909 0.0
C852 C 0.57759 0.5213 0.62174 0.0
C853 C 0.55616 0.48404 0.64689 0.0
C854 C 0.50277 0.47172 0.69384 0.0
H855 H 0.40804 0.3873 0.59736 0.0
H856 H 0.4428 0.40013 0.63425 0.0
H857 H 0.46966 0.46158 0.70904 0.0
H858 H 0.56242 0.54104 0.63066 0.0
H859 H 0.52898 0.51197 0.66031 0.0
H860 H 0.51897 0.44884 0.61551 0.0
C861 C 0.43695 0.4114 0.62881 0.0
C862 C 0.48036 0.45822 0.68964 0.0
C863 C 0.41716 0.40414 0.60743 0.0
C864 C 0.56104 0.52529 0.63525 0.0
C865 C 0.54197 0.50866 0.653 0.0
C866 C 0.50852 0.4512 0.63775 0.0
C867 C 0.44935 0.43317 0.64191 0.0
C868 C 0.47192 0.44208 0.65732 0.0
C869 C 0.53902 0.48768 0.65765 0.0
C870 C 0.51694 0.46928 0.66562 0.0
H871 H 0.4161 0.45168 0.60682 0.0
H872 H 0.45075 0.4644 0.6431 0.0
H873 H 0.48012 0.42534 0.60852 0.0
H874 H 0.58796 0.49725 0.61986 0.0
H875 H 0.55439 0.46808 0.65047 0.0
C876 C -0.00663 0.44397 0.99196 0.0
C877 C -0.00579 0.42501 0.98349 0.0
C878 C 0.01055 0.46136 0.01344 0.0
C879 C 0.06751 0.48577 0.01039 0.0
H880 H 0.06141 0.53107 0.0673 0.0
C881 C 0.09956 0.58207 0.98938 0.0
C882 C 0.088 0.57899 0.95035 0.0
C883 C 0.09796 0.56422 0.01174 0.0
C884 C 0.06395 0.51859 0.0529 0.0
H885 H 0.01265 0.40854 0.99496 0.0
H886 H 0.04286 0.43923 0.03128 0.0
H887 H 0.03505 0.49311 0.08172 0.0
H888 H 0.0671 0.55554 0.9024 0.0
H889 H 0.06491 0.52443 0.94052 0.0
H890 H 0.09452 0.51127 0.97688 0.0
C891 C 0.02895 0.44059 0.02128 0.0
C892 C 0.04875 0.49687 0.06088 0.0
C893 C 0.01175 0.42316 0.99997 0.0
C894 C 0.07606 0.55819 0.93247 0.0
C895 C 0.07503 0.54053 0.95401 0.0
C896 C 0.08254 0.50746 0.00213 0.0
C897 C 0.02889 0.46013 0.02675 0.0
C898 C 0.04927 0.48046 0.03635 0.0
C899 C 0.08546 0.54334 0.99429 0.0
C900 C 0.0795 0.52385 0.02017 0.0
H901 H 0.97995 0.44576 0.98035 0.0
H902 H 0.01017 0.47636 0.01656 0.0
H903 H 0.06846 0.47345 0.9913 0.0
H904 H 0.10878 0.59809 0.00377 0.0
H905 H 0.10574 0.56657 0.04314 0.0
C906 C 0.10448 0.56911 0.37932 0.0
C907 C 0.09872 0.54945 0.40047 0.0
C908 C 0.09032 0.5774 0.37973 0.0
C909 C 0.04012 0.57034 0.43094 0.0
H910 H 0.02014 0.56852 0.31278 0.0
C911 C 0.95213 0.52434 0.38335 0.0
C912 C 0.94323 0.53626 0.36523 0.0
C913 C 0.97455 0.53381 0.38762 0.0
C914 C 0.02584 0.56968 0.34587 0.0
H915 H 0.07478 0.52397 0.44143 0.0
H916 H 0.0502 0.53834 0.44227 0.0
H917 H 0.05654 0.57407 0.32559 0.0
H918 H 0.95054 0.56666 0.3344 0.0
H919 H 0.99005 0.58288 0.34066 0.0
H920 H 0.00853 0.56363 0.45086 0.0
C921 C 0.06553 0.54743 0.42541 0.0
C922 C 0.04667 0.57301 0.35328 0.0
C923 C 0.07943 0.539 0.42438 0.0
C924 C 0.95709 0.55721 0.34876 0.0
C925 C 0.97956 0.56653 0.35239 0.0
C926 C 0.01929 0.56681 0.42351 0.0
C927 C 0.07054 0.56635 0.4021 0.0
C928 C 0.05331 0.57184 0.39574 0.0
C929 C 0.98829 0.55511 0.37318 0.0
C930 C 0.01168 0.56516 0.38087 0.0
H931 H 0.11938 0.57749 0.36081 0.0
H932 H 0.0944 0.59194 0.36136 0.0
H933 H 0.04507 0.56969 0.46396 0.0
H934 H 0.94179 0.50825 0.39643 0.0
H935 H 0.98119 0.52468 0.40312 0.0
C936 C 0.40593 0.87794 0.80543 0.0
C937 C 0.40034 0.89215 0.78493 0.0
C938 C 0.42744 0.88246 0.8054 0.0
C939 C 0.47409 0.91412 0.83536 0.0
H940 H 0.51395 0.94039 0.73916 0.0
C941 C 0.54513 -0.00096 0.83568 0.0
C942 C 0.56517 0.00336 0.81863 0.0
C943 C 0.52748 0.97799 0.83459 0.0
C944 C 0.50316 0.93259 0.76634 0.0
H945 H 0.4121 0.92097 0.74516 0.0
H946 H 0.44959 0.92875 0.7446 0.0
H947 H 0.47597 0.91359 0.72467 0.0
H948 H 0.58268 0.98924 0.78746 0.0
H949 H 0.5513 0.95248 0.78391 0.0
H950 H 0.50068 0.93503 0.8767 0.0
C951 C 0.43745 0.91419 0.76078 0.0
C952 C 0.4815 0.91731 0.75804 0.0
C953 C 0.41612 0.90996 0.76164 0.0
C954 C 0.56735 0.98628 0.8009 0.0
C955 C 0.54955 0.9653 0.79902 0.0
C956 C 0.49566 0.92962 0.84361 0.0
C957 C 0.44341 0.90091 0.78389 0.0
C958 C 0.46659 0.90913 0.79236 0.0
C959 C 0.52951 0.96107 0.81579 0.0
C960 C 0.5099 0.93992 0.80894 0.0
H961 H 0.39396 0.86403 0.82351 0.0
H962 H 0.4318 0.87219 0.82378 0.0
H963 H 0.46283 0.90807 0.86233 0.0
H964 H 0.54311 0.01189 0.84981 0.0
H965 H 0.51197 0.97509 0.84692 0.0
C966 C 0.48911 0.54729 0.90803 0.0
C967 C 0.50403 0.56829 0.9224 0.0
C968 C 0.49544 0.53673 0.87829 0.0
C969 C 0.54402 0.53486 0.8583 0.0
H970 H 0.50078 0.4823 0.80114 0.0
C971 C 0.54037 0.45732 0.90279 0.0
C972 C 0.5201 0.44449 0.9229 0.0
C973 C 0.54322 0.47318 0.87261 0.0
C974 C 0.5134 0.49712 0.81587 0.0
H975 H 0.53664 0.5956 0.91347 0.0
H976 H 0.5477 0.57703 0.86172 0.0
H977 H 0.49664 0.51435 0.80123 0.0
H978 H 0.48652 0.43701 0.92435 0.0
H979 H 0.49159 0.46499 0.87332 0.0
H980 H 0.55956 0.51715 0.877 0.0
C981 C 0.53122 0.56861 0.87395 0.0
C982 C 0.511 0.51545 0.81606 0.0
C983 C 0.52494 0.57913 0.90401 0.0
C984 C 0.50245 0.44689 0.91015 0.0
C985 C 0.50528 0.46267 0.88002 0.0
C986 C 0.54644 0.51659 0.858 0.0
C987 C 0.51681 0.54699 0.86204 0.0
C988 C 0.52495 0.53353 0.84162 0.0
C989 C 0.52585 0.47648 0.86198 0.0
C990 C 0.52978 0.49689 0.84118 0.0
H991 H 0.47278 0.53865 0.92104 0.0
H992 H 0.48395 0.51994 0.87056 0.0
H993 H 0.55541 0.54869 0.87746 0.0
H994 H 0.55422 0.45552 0.91115 0.0
H995 H 0.55924 0.48357 0.8592 0.0
C996 C 0.35431 0.96254 0.70101 0.0
C997 C 0.33807 0.9413 0.69033 0.0
C998 C 0.35808 0.98002 0.67461 0.0
C999 C 0.33421 -0.00276 0.5865 0.0
H1000 H 0.39446 0.04045 0.56633 0.0
C1001 C 0.36592 0.05776 0.44293 0.0
C1002 C 0.38511 0.0778 0.44919 0.0
C1003 C 0.3569 0.04298 0.47711 0.0
C1004 C 0.37752 0.02881 0.57229 0.0
H1005 H 0.31288 0.92186 0.64355 0.0
H1006 H 0.31983 0.95242 0.59674 0.0
H1007 H 0.3858 0.01034 0.6148 0.0
H1008 H 0.40794 0.0992 0.49783 0.0
H1009 H 0.39195 0.07357 0.55747 0.0
H1010 H 0.3261 0.01555 0.54249 0.0
C1011 C 0.3294 0.95555 0.62606 0.0
C1012 C 0.37254 0.01145 0.60004 0.0
C1013 C 0.32552 0.938 0.65271 0.0
C1014 C 0.39336 0.08381 0.4916 0.0
C1015 C 0.38432 0.06903 0.52577 0.0
C1016 C 0.33922 0.01463 0.55844 0.0
C1017 C 0.34585 0.97676 0.63656 0.0
C1018 C 0.35084 -0.00461 0.60746 0.0
C1019 C 0.36679 0.048 0.51827 0.0
C1020 C 0.36096 0.03058 0.55098 0.0
H1021 H 0.36414 0.96577 0.72998 0.0
H1022 H 0.37059 -0.00384 0.68418 0.0
H1023 H 0.31731 0.98528 0.59186 0.0
H1024 H 0.35895 0.05263 0.41081 0.0
H1025 H 0.34332 0.02696 0.47027 0.0
C1026 C 0.43832 0.33255 0.87492 0.0
C1027 C 0.43927 0.34132 0.91636 0.0
C1028 C 0.42016 0.32643 0.84801 0.0
C1029 C 0.37555 0.3088 0.80232 0.0
H1030 H 0.36009 0.35397 0.79934 0.0
C1031 C 0.3191 0.33963 0.70412 0.0
C1032 C 0.3237 0.33596 0.66159 0.0
C1033 C 0.32741 0.33386 0.73983 0.0
C1034 C 0.36362 0.34081 0.80032 0.0
H1035 H 0.42112 0.34863 0.96351 0.0
H1036 H 0.38966 0.3378 0.91709 0.0
H1037 H 0.38615 0.3559 0.8524 0.0
H1038 H 0.33818 0.32069 0.6236 0.0
H1039 H 0.35302 0.3113 0.68513 0.0
H1040 H 0.35317 0.29389 0.74956 0.0
C1041 C 0.40305 0.33615 0.90482 0.0
C1042 C 0.37876 0.34201 0.83076 0.0
C1043 C 0.4211 0.3423 0.93146 0.0
C1044 C 0.33455 0.32409 0.65585 0.0
C1045 C 0.34304 0.31857 0.69142 0.0
C1046 C 0.36016 0.30746 0.77197 0.0
C1047 C 0.40268 0.32892 0.86221 0.0
C1048 C 0.3852 0.32625 0.83174 0.0
C1049 C 0.34064 0.32447 0.73376 0.0
C1050 C 0.3543 0.32371 0.76999 0.0
H1051 H 0.45206 0.33161 0.86238 0.0
H1052 H 0.42038 0.32095 0.81528 0.0
H1053 H 0.38002 0.29628 0.80256 0.0
H1054 H 0.31059 0.34848 0.70989 0.0
H1055 H 0.32454 0.33798 0.77207 0.0
C1056 C 0.9899 0.34822 0.03058 0.0
C1057 C 0.96779 0.34194 0.03479 0.0
C1058 C 0.00435 0.35812 0.06518 0.0
C1059 C 0.00965 0.39221 0.15885 0.0
H1060 H 0.06163 0.38924 0.18385 0.0
C1061 C 0.06911 0.4446 0.29322 0.0
C1062 C 0.09148 0.45457 0.28442 0.0
C1063 C 0.05389 0.42875 0.26542 0.0
C1064 C 0.04727 0.39037 0.17698 0.0
H1065 H 0.94319 0.33889 0.08045 0.0
H1066 H 0.9683 0.35568 0.14096 0.0
H1067 H 0.03469 0.36346 0.13264 0.0
H1068 H 0.11535 0.45533 0.23953 0.0
H1069 H 0.08868 0.42782 0.19048 0.0
H1070 H 0.02228 0.41933 0.20215 0.0
C1071 C 0.97457 0.35356 0.11042 0.0
C1072 C 0.0318 0.37554 0.14778 0.0
C1073 C 0.96012 0.3437 0.07581 0.0
C1074 C 0.09826 0.44802 0.24731 0.0
C1075 C 0.08297 0.43213 0.21933 0.0
C1076 C 0.02507 0.407 0.18788 0.0
C1077 C -0.003 0.36184 0.10487 0.0
C1078 C 0.01281 0.37633 0.13829 0.0
C1079 C 0.06057 0.42245 0.22787 0.0
C1080 C 0.04411 0.40634 0.19728 0.0
H1081 H -0.00357 0.34706 0.99957 0.0
H1082 H 0.0215 0.36425 0.05972 0.0
H1083 H -0.00447 0.3937 0.15149 0.0
H1084 H 0.06324 0.44904 0.32168 0.0
H1085 H 0.03683 0.42138 0.27349 0.0
C1086 C 0.64394 0.04416 0.65222 0.0
C1087 C 0.64633 0.03899 0.69523 0.0
C1088 C 0.63778 0.02862 0.61914 0.0
C1089 C 0.60565 0.96972 0.60649 0.0
H1090 H 0.62399 0.98167 0.4864 0.0
C1091 C 0.55852 0.90666 0.47168 0.0
C1092 C 0.55398 0.91538 0.43481 0.0
C1093 C 0.57413 0.9204 0.5021 0.0
C1094 C 0.61861 0.97805 0.51978 0.0
H1095 H 0.64583 0.01387 0.73624 0.0
H1096 H 0.63514 0.98694 0.6786 0.0
H1097 H 0.64397 0.00908 0.54198 0.0
H1098 H 0.56333 0.94527 0.39971 0.0
H1099 H 0.58991 0.9689 0.45237 0.0
H1100 H 0.57966 0.93921 0.58431 0.0
C1101 C 0.63772 0.0029 0.67063 0.0
C1102 C 0.63012 -0.00623 0.55161 0.0
C1103 C 0.644 0.01845 0.70362 0.0
C1104 C 0.56623 0.93793 0.42788 0.0
C1105 C 0.58174 0.95156 0.45804 0.0
C1106 C 0.59403 0.95408 0.57464 0.0
C1107 C 0.63379 0.00754 0.62835 0.0
C1108 C 0.62348 0.98997 0.59521 0.0
C1109 C 0.58558 0.94311 0.49611 0.0
C1110 C 0.6 0.95824 0.53067 0.0
H1111 H 0.6456 0.05978 0.64449 0.0
H1112 H 0.63483 0.03271 0.58692 0.0
H1113 H 0.59993 0.96635 0.63971 0.0
H1114 H 0.54941 0.88937 0.47797 0.0
H1115 H 0.57688 0.91328 0.53078 0.0
C1116 C 0.54247 0.6634 0.87049 0.0
C1117 C 0.54633 0.66414 0.91543 0.0
C1118 C 0.55908 0.66758 0.84092 0.0
C1119 C 0.60596 0.65993 0.83672 0.0
H1120 H 0.61351 0.68419 0.72119 0.0
C1121 C 0.65302 0.64153 0.70767 0.0
C1122 C 0.64196 0.63464 0.66781 0.0
C1123 C 0.64705 0.65232 0.73812 0.0
C1124 C 0.61161 0.67732 0.75335 0.0
H1125 H 0.5713 0.67234 0.9644 0.0
H1126 H 0.60013 0.67971 0.91289 0.0
H1127 H 0.59171 0.69047 0.77435 0.0
H1128 H 0.61727 0.63531 0.62725 0.0
H1129 H 0.60671 0.6535 0.67994 0.0
H1130 H 0.62456 0.64561 0.81533 0.0
C1131 C 0.58419 0.67544 0.90052 0.0
C1132 C 0.59916 0.68099 0.78379 0.0
C1133 C 0.56766 0.67132 0.93001 0.0
C1134 C 0.62599 0.64017 0.65784 0.0
C1135 C 0.62006 0.65087 0.68806 0.0
C1136 C 0.61819 0.65608 0.80622 0.0
C1137 C 0.57983 0.6726 0.85576 0.0
C1138 C 0.59573 0.67186 0.82546 0.0
C1139 C 0.62997 0.65647 0.72919 0.0
C1140 C 0.62064 0.66415 0.76368 0.0
H1141 H 0.52625 0.65791 0.85813 0.0
H1142 H 0.55517 0.66523 0.80661 0.0
H1143 H 0.60341 0.6524 0.86836 0.0
H1144 H 0.66545 0.63759 0.71628 0.0
H1145 H 0.6553 0.65673 0.76922 0.0
C1146 C 0.01588 0.64064 0.0141 0.0
C1147 C 0.02073 0.62477 0.99969 0.0
C1148 C -0.00197 0.63501 0.04122 0.0
C1149 C 0.94783 0.58663 0.08485 0.0
H1150 H 0.95305 0.6274 0.17416 0.0
C1151 C 0.8825 0.55988 0.21709 0.0
C1152 C 0.89029 0.56657 0.25955 0.0
C1153 C 0.89595 0.56987 0.18125 0.0
C1154 C 0.95131 0.6157 0.14967 0.0
H1155 H 0.0108 0.59059 0.00281 0.0
H1156 H 0.98055 0.58095 0.05155 0.0
H1157 H 0.98171 0.63815 0.12097 0.0
H1158 H 0.91797 0.59 0.29735 0.0
H1159 H 0.94146 0.60666 0.23577 0.0
H1160 H 0.91835 0.5636 0.11554 0.0
C1161 C 0.98984 0.59762 0.04077 0.0
C1162 C 0.96769 0.62202 0.11851 0.0
C1163 C 0.00739 0.60318 0.01301 0.0
C1164 C 0.91132 0.58443 0.26515 0.0
C1165 C 0.92487 0.59412 0.22949 0.0
C1166 C 0.93169 0.58016 0.11651 0.0
C1167 C 0.98483 0.61342 0.0553 0.0
C1168 C 0.96643 0.60743 0.08613 0.0
C1169 C 0.91767 0.58652 0.18704 0.0
C1170 C 0.93338 0.59444 0.15 0.0
H1171 H 0.02574 0.65739 0.00406 0.0
H1172 H -0.00543 0.64761 0.05091 0.0
H1173 H 0.94585 0.57506 0.05984 0.0
H1174 H 0.86632 0.54628 0.21159 0.0
H1175 H 0.88952 0.56395 0.14909 0.0
C1176 C 0.52332 0.13686 0.44024 0.0
C1177 C 0.50356 0.13636 0.44784 0.0
C1178 C 0.5373 0.13951 0.47462 0.0
C1179 C 0.53324 0.12491 0.58817 0.0
H1180 H 0.59619 0.15531 0.58472 0.0
C1181 C 0.60836 0.11718 0.66832 0.0
C1182 C 0.59998 0.11051 0.71033 0.0
C1183 C 0.5982 0.12439 0.63903 0.0
C1184 C 0.57861 0.14656 0.58608 0.0
H1185 H 0.48367 0.13975 0.49705 0.0
H1186 H 0.50809 0.14419 0.55738 0.0
H1187 H 0.57598 0.16205 0.52839 0.0
H1188 H 0.57514 0.10739 0.75535 0.0
H1189 H 0.55799 0.12066 0.70514 0.0
H1190 H 0.53555 0.10851 0.64413 0.0
C1191 C 0.5127 0.14251 0.52472 0.0
C1192 C 0.56706 0.15057 0.55395 0.0
C1193 C 0.49883 0.14017 0.49014 0.0
C1194 C 0.58182 0.11209 0.72299 0.0
C1195 C 0.57189 0.11961 0.69402 0.0
C1196 C 0.54473 0.12072 0.61993 0.0
C1197 C 0.53171 0.14144 0.51746 0.0
C1198 C 0.54423 0.13957 0.55434 0.0
C1199 C 0.57961 0.1254 0.65127 0.0
C1200 C 0.56758 0.13125 0.61908 0.0
H1201 H 0.52743 0.13402 0.40796 0.0
H1202 H 0.55175 0.1385 0.46794 0.0
H1203 H 0.51564 0.11584 0.58893 0.0
H1204 H 0.62229 0.11609 0.65753 0.0
H1205 H 0.60451 0.12843 0.60631 0.0
C1206 C 0.33979 0.44532 0.6955 0.0
C1207 C 0.33792 0.4483 0.65102 0.0
C1208 C 0.34643 0.46266 0.72461 0.0
C1209 C 0.37469 0.52353 0.72512 0.0
H1210 H 0.36381 0.51382 0.84841 0.0
C1211 C 0.40167 0.57036 0.90438 0.0
C1212 C 0.42349 0.58502 0.89467 0.0
C1213 C 0.38763 0.55635 0.87242 0.0
C1214 C 0.36675 0.51716 0.81407 0.0
H1215 H 0.33999 0.47122 0.60239 0.0
H1216 H 0.34993 0.50099 0.65326 0.0
H1217 H 0.34451 0.48402 0.79852 0.0
H1218 H 0.44761 0.59723 0.8438 0.0
H1219 H 0.42375 0.57225 0.78864 0.0
H1220 H 0.39603 0.55693 0.74047 0.0
C1221 C 0.34747 0.48571 0.6658 0.0
C1222 C 0.35592 0.49974 0.78524 0.0
C1223 C 0.34147 0.46854 0.63656 0.0
C1224 C 0.43071 0.58636 0.85187 0.0
C1225 C 0.41689 0.57189 0.82018 0.0
C1226 C 0.38506 0.54109 0.75385 0.0
C1227 C 0.35082 0.48331 0.71012 0.0
C1228 C 0.36022 0.50245 0.74038 0.0
C1229 C 0.39531 0.55606 0.83036 0.0
C1230 C 0.38182 0.53809 0.79899 0.0
H1231 H 0.33743 0.42994 0.70742 0.0
H1232 H 0.3491 0.45999 0.75809 0.0
H1233 H 0.37877 0.52653 0.69105 0.0
H1234 H 0.39576 0.56899 0.9373 0.0
H1235 H 0.371 0.5451 0.88145 0.0
C1236 C 0.87773 0.38591 0.00307 0.0
C1237 C 0.8815 0.36852 0.01042 0.0
C1238 C 0.8669 0.39145 0.03392 0.0
C1239 C 0.86015 0.39036 0.15072 0.0
H1240 H 0.82024 0.41125 0.12539 0.0
C1241 C 0.83824 0.43156 0.28482 0.0
C1242 C 0.83822 0.45064 0.27312 0.0
C1243 C 0.83737 0.4171 0.25304 0.0
C1244 C 0.83147 0.4056 0.13304 0.0
H1245 H 0.87578 0.3426 0.05499 0.0
H1246 H 0.85705 0.35247 0.10918 0.0
H1247 H 0.83008 0.39388 0.06814 0.0
H1248 H 0.83608 0.46902 0.21924 0.0
H1249 H 0.83544 0.44432 0.16345 0.0
H1250 H 0.86276 0.40306 0.21452 0.0
C1251 C 0.86254 0.3618 0.07947 0.0
C1252 C 0.83701 0.39555 0.10025 0.0
C1253 C 0.87317 0.35608 0.04833 0.0
C1254 C 0.83592 0.45432 0.22916 0.0
C1255 C 0.83554 0.44008 0.19717 0.0
C1256 C 0.85486 0.40061 0.18326 0.0
C1257 C 0.85977 0.37988 0.07305 0.0
C1258 C 0.85166 0.38811 0.10862 0.0
C1259 C 0.83708 0.42168 0.20864 0.0
C1260 C 0.84068 0.40869 0.17482 0.0
H1261 H 0.88382 0.39576 0.97409 0.0
H1262 H 0.86517 0.40555 0.02813 0.0
H1263 H 0.87179 0.38517 0.15803 0.0
H1264 H 0.83981 0.42824 0.31857 0.0
H1265 H 0.83783 0.40278 0.26334 0.0
C1266 C 0.44266 0.82984 0.4864 0.0
C1267 C 0.43764 0.82142 0.44399 0.0
C1268 C 0.42603 0.82495 0.5164 0.0
C1269 C 0.38752 0.80883 0.5783 0.0
H1270 H 0.34016 0.81323 0.52574 0.0
C1271 C 0.32259 0.81098 0.68499 0.0
C1272 C 0.31894 0.82833 0.67596 0.0
C1273 C 0.33299 0.8046 0.65478 0.0
C1274 C 0.35321 0.81189 0.54095 0.0
H1275 H 0.41153 0.79945 0.4013 0.0
H1276 H 0.38269 0.79047 0.45388 0.0
H1277 H 0.36739 0.81204 0.4797 0.0
H1278 H 0.32156 0.85114 0.62631 0.0
H1279 H 0.33968 0.84002 0.57368 0.0
H1280 H 0.37396 0.80983 0.63962 0.0
C1281 C 0.39934 0.80139 0.46362 0.0
C1282 C 0.36872 0.81095 0.51454 0.0
C1283 C 0.41591 0.80635 0.43364 0.0
C1284 C 0.32403 0.83769 0.63436 0.0
C1285 C 0.33451 0.83132 0.60414 0.0
C1286 C 0.37199 0.80974 0.60473 0.0
C1287 C 0.40409 0.81145 0.50462 0.0
C1288 C 0.38631 0.80981 0.53288 0.0
C1289 C 0.34 0.81538 0.61479 0.0
C1290 C 0.35486 0.8117 0.58641 0.0
H1291 H 0.4592 0.84162 0.49529 0.0
H1292 H 0.43032 0.83304 0.54765 0.0
H1293 H 0.40074 0.80779 0.59351 0.0
H1294 H 0.31867 0.80324 0.71654 0.0
H1295 H 0.33646 0.79188 0.66359 0.0
C1296 C 0.66103 0.51842 0.66023 0.0
C1297 C 0.66052 0.53724 0.67256 0.0
C1298 C 0.65354 0.50069 0.68835 0.0
C1299 C 0.63615 0.48253 0.80207 0.0
H1300 H 0.59705 0.42738 0.747 0.0
C1301 C 0.5577 0.39725 0.85504 0.0
C1302 C 0.56468 0.39546 0.89676 0.0
C1303 C 0.57249 0.41204 0.82509 0.0
C1304 C 0.60793 0.44262 0.76291 0.0
H1305 H 0.65314 0.55269 0.72538 0.0
H1306 H 0.63997 0.52178 0.77432 0.0
H1307 H 0.61796 0.45953 0.70243 0.0
H1308 H 0.59292 0.40588 0.93808 0.0
H1309 H 0.61879 0.43101 0.88541 0.0
H1310 H 0.62527 0.46595 0.86262 0.0
C1311 C 0.64628 0.52073 0.74299 0.0
C1312 C 0.62015 0.46105 0.73732 0.0
C1313 C 0.65387 0.53852 0.71489 0.0
C1314 C 0.58703 0.40703 0.90626 0.0
C1315 C 0.60182 0.42164 0.87625 0.0
C1316 C 0.62392 0.46413 0.82764 0.0
C1317 C 0.64531 0.50131 0.72947 0.0
C1318 C 0.63414 0.48133 0.75661 0.0
C1319 C 0.59458 0.42517 0.83618 0.0
C1320 C 0.60937 0.444 0.80845 0.0
H1321 H 0.66623 0.51694 0.62798 0.0
H1322 H 0.65352 0.48621 0.67727 0.0
H1323 H 0.6469 0.49781 0.81802 0.0
H1324 H 0.54057 0.38873 0.84686 0.0
H1325 H 0.56628 0.41433 0.79461 0.0
C1326 C 0.16751 0.55292 0.21597 0.0
C1327 C 0.17776 0.56259 0.25545 0.0
C1328 C 0.16587 0.56554 0.18278 0.0
C1329 C 0.18453 0.62234 0.14645 0.0
H1330 H 0.1251 0.59756 0.10586 0.0
C1331 C 0.15573 0.66218 0.01654 0.0
C1332 C 0.13504 0.65995 0.02211 0.0
C1333 C 0.16335 0.65218 0.04521 0.0
C1334 C 0.14174 0.60479 0.11713 0.0
H1335 H 0.19633 0.5933 0.2892 0.0
H1336 H 0.19372 0.61521 0.23144 0.0
H1337 H 0.13532 0.57583 0.15059 0.0
H1338 H 0.10685 0.64672 0.06424 0.0
H1339 H 0.12027 0.62954 0.11442 0.0
H1340 H 0.19074 0.6515 0.11354 0.0
C1341 C 0.18677 0.59794 0.226 0.0
C1342 C 0.14771 0.59219 0.14218 0.0
C1343 C 0.18826 0.58534 0.25921 0.0
C1344 C 0.12287 0.64885 0.05891 0.0
C1345 C 0.13043 0.63872 0.08738 0.0
C1346 C 0.17857 0.63493 0.1211 0.0
C1347 C 0.17465 0.58808 0.18826 0.0
C1348 C 0.16912 0.60086 0.1576 0.0
C1349 C 0.15041 0.63963 0.07999 0.0
C1350 C 0.15702 0.62639 0.10667 0.0
H1351 H 0.15915 0.53544 0.21207 0.0
H1352 H 0.15678 0.55749 0.15372 0.0
H1353 H 0.20117 0.6295 0.15762 0.0
H1354 H 0.16553 0.67059 0.98854 0.0
H1355 H 0.17882 0.65323 0.03859 0.0
loop_
_geom_bond_atom_site_label_1
_geom_bond_atom_site_label_2
_geom_bond_distance
_geom_bond_site_symmetry_2
_ccdc_geom_bond_type
O0 Zn1 1.953 . S
O0 C16 1.225 . S
Zn1 O0 1.953 . S
Zn1 O2 1.949 . S
Zn1 O8 1.919 . S
Zn1 O13 1.924 . S
O2 Zn1 1.949 . S
O2 Zn3 1.923 . S
O2 Zn4 1.950 . S
O2 Zn5 1.945 . S
Zn3 O2 1.923 . S
Zn3 O6 1.933 . S
Zn3 O9 1.941 . S
Zn3 O10 1.965 . S
Zn4 O2 1.950 . S
Zn4 O11 1.938 . S
Zn4 O12 1.906 . S
Zn4 O22 1.953 . S
Zn5 O2 1.945 . S
Zn5 O7 1.932 . S
Zn5 O14 1.977 . S
Zn5 O15 1.910 . S
O6 Zn3 1.933 . S
O6 C17 1.226 . S
O7 Zn5 1.932 . S
O7 C17 1.307 . S
O8 Zn1 1.919 . S
O8 C19 1.253 . S
O9 Zn3 1.941 . S
O9 C19 1.283 . S
O10 Zn3 1.965 . S
O10 C18 1.303 . S
O11 Zn4 1.938 . S
O11 C18 1.247 . S
O12 Zn4 1.906 . S
O12 C20 1.304 . S
O13 Zn1 1.924 . S
O13 C21 1.311 . S
O14 Zn5 1.977 . S
O14 C20 1.272 . S
O15 Zn5 1.910 . S
O15 C21 1.231 . S
C16 O0 1.225 . S
C16 O22 1.298 . S
C17 O6 1.226 . S
C17 O7 1.307 . S
C18 O10 1.303 . S
C18 O11 1.247 . S
C19 O8 1.253 . S
C19 O9 1.283 . S
C20 O12 1.304 . S
C20 O14 1.272 . S
C21 O13 1.311 . S
C21 O15 1.231 . S
O22 Zn4 1.953 . S
O22 C16 1.298 . S
O23 Zn24 1.953 . S
O23 C39 1.225 . S
Zn24 O23 1.953 . S
Zn24 O25 1.949 . S
Zn24 O31 1.919 . S
Zn24 O36 1.924 . S
O25 Zn24 1.949 . S
O25 Zn26 1.923 . S
O25 Zn27 1.950 . S
O25 Zn28 1.945 . S
Zn26 O25 1.923 . S
Zn26 O29 1.933 . S
Zn26 O32 1.941 . S
Zn26 O33 1.965 . S
Zn27 O25 1.950 . S
Zn27 O34 1.938 . S
Zn27 O35 1.906 . S
Zn27 O45 1.953 . S
Zn28 O25 1.945 . S
Zn28 O30 1.932 . S
Zn28 O37 1.977 . S
Zn28 O38 1.910 . S
O29 Zn26 1.933 . S
O29 C40 1.226 . S
O30 Zn28 1.932 . S
O30 C40 1.307 . S
O31 Zn24 1.919 . S
O31 C42 1.253 . S
O32 Zn26 1.941 . S
O32 C42 1.283 . S
O33 Zn26 1.965 . S
O33 C41 1.303 . S
O34 Zn27 1.938 . S
O34 C41 1.247 . S
O35 Zn27 1.906 . S
O35 C43 1.304 . S
O36 Zn24 1.924 . S
O36 C44 1.311 . S
O37 Zn28 1.977 . S
O37 C43 1.272 . S
O38 Zn28 1.910 . S
O38 C44 1.231 . S
C39 O23 1.225 . S
C39 O45 1.298 . S
C40 O29 1.226 . S
C40 O30 1.307 . S
C41 O33 1.303 . S
C41 O34 1.247 . S
C42 O31 1.253 . S
C42 O32 1.283 . S
C43 O35 1.304 . S
C43 O37 1.272 . S
C44 O36 1.311 . S
C44 O38 1.231 . S
O45 Zn27 1.953 . S
O45 C39 1.298 . S
O46 Zn47 1.953 . S
O46 C62 1.225 . S
Zn47 O46 1.953 . S
Zn47 O48 1.949 . S
Zn47 O54 1.919 . S
Zn47 O59 1.924 . S
O48 Zn47 1.949 . S
O48 Zn49 1.923 . S
O48 Zn50 1.950 . S
O48 Zn51 1.945 . S
Zn49 O48 1.923 . S
Zn49 O52 1.933 . S
Zn49 O55 1.941 . S
Zn49 O56 1.965 . S
Zn50 O48 1.950 . S
Zn50 O57 1.938 . S
Zn50 O58 1.906 . S
Zn50 O68 1.953 . S
Zn51 O48 1.945 . S
Zn51 O53 1.932 . S
Zn51 O60 1.977 . S
Zn51 O61 1.910 . S
O52 Zn49 1.933 . S
O52 C63 1.226 . S
O53 Zn51 1.932 . S
O53 C63 1.307 . S
O54 Zn47 1.919 . S
O54 C65 1.253 . S
O55 Zn49 1.941 . S
O55 C65 1.283 . S
O56 Zn49 1.965 . S
O56 C64 1.303 . S
O57 Zn50 1.938 . S
O57 C64 1.247 . S
O58 Zn50 1.906 . S
O58 C66 1.304 . S
O59 Zn47 1.924 . S
O59 C67 1.311 . S
O60 Zn51 1.977 . S
O60 C66 1.272 . S
O61 Zn51 1.910 . S
O61 C67 1.231 . S
C62 O46 1.225 . S
C62 O68 1.298 . S
C63 O52 1.226 . S
C63 O53 1.307 . S
C64 O56 1.303 . S
C64 O57 1.247 . S
C65 O54 1.253 . S
C65 O55 1.283 . S
C66 O58 1.304 . S
C66 O60 1.272 . S
C67 O59 1.311 . S
C67 O61 1.231 . S
O68 Zn50 1.953 . S
O68 C62 1.298 . S
O69 Zn70 1.953 . S
O69 C85 1.225 . S
Zn70 O69 1.953 . S
Zn70 O71 1.949 . S
Zn70 O77 1.919 . S
Zn70 O82 1.924 . S
O71 Zn70 1.949 . S
O71 Zn72 1.923 . S
O71 Zn73 1.950 . S
O71 Zn74 1.945 . S
Zn72 O71 1.923 . S
Zn72 O75 1.933 . S
Zn72 O78 1.941 . S
Zn72 O79 1.965 . S
Zn73 O71 1.950 . S
Zn73 O80 1.938 . S
Zn73 O81 1.906 . S
Zn73 O91 1.953 . S
Zn74 O71 1.945 . S
Zn74 O76 1.932 . S
Zn74 O83 1.977 . S
Zn74 O84 1.910 . S
O75 Zn72 1.933 . S
O75 C86 1.226 . S
O76 Zn74 1.932 . S
O76 C86 1.307 . S
O77 Zn70 1.919 . S
O77 C88 1.253 . S
O78 Zn72 1.941 . S
O78 C88 1.283 . S
O79 Zn72 1.965 . S
O79 C87 1.303 . S
O80 Zn73 1.938 . S
O80 C87 1.247 . S
O81 Zn73 1.906 . S
O81 C89 1.304 . S
O82 Zn70 1.924 . S
O82 C90 1.311 . S
O83 Zn74 1.977 . S
O83 C89 1.272 . S
O84 Zn74 1.910 . S
O84 C90 1.231 . S
C85 O69 1.225 . S
C85 O91 1.298 . S
C86 O75 1.226 . S
C86 O76 1.307 . S
C87 O79 1.303 . S
C87 O80 1.247 . S
C88 O77 1.253 . S
C88 O78 1.283 . S
C89 O81 1.304 . S
C89 O83 1.272 . S
C90 O82 1.311 . S
C90 O84 1.231 . S
O91 Zn73 1.953 . S
O91 C85 1.298 . S
O92 Zn93 1.953 . S
O92 C108 1.225 . S
Zn93 O92 1.953 . S
Zn93 O94 1.949 . S
Zn93 O100 1.919 . S
Zn93 O105 1.924 . S
O94 Zn93 1.949 . S
O94 Zn95 1.923 . S
O94 Zn96 1.950 . S
O94 Zn97 1.945 . S
Zn95 O94 1.923 . S
Zn95 O98 1.933 . S
Zn95 O101 1.941 . S
Zn95 O102 1.965 . S
Zn96 O94 1.950 . S
Zn96 O103 1.938 . S
Zn96 O104 1.906 . S
Zn96 O114 1.953 . S
Zn97 O94 1.945 . S
Zn97 O99 1.932 . S
Zn97 O106 1.977 . S
Zn97 O107 1.910 . S
O98 Zn95 1.933 . S
O98 C109 1.226 . S
O99 Zn97 1.932 . S
O99 C109 1.307 . S
O100 Zn93 1.919 . S
O100 C111 1.253 . S
O101 Zn95 1.941 . S
O101 C111 1.283 . S
O102 Zn95 1.965 . S
O102 C110 1.303 . S
O103 Zn96 1.938 . S
O103 C110 1.247 . S
O104 Zn96 1.906 . S
O104 C112 1.304 . S
O105 Zn93 1.924 . S
O105 C113 1.311 . S
O106 Zn97 1.977 . S
O106 C112 1.272 . S
O107 Zn97 1.910 . S
O107 C113 1.231 . S
C108 O92 1.225 . S
C108 O114 1.298 . S
C109 O98 1.226 . S
C109 O99 1.307 . S
C110 O102 1.303 . S
C110 O103 1.247 . S
C111 O100 1.253 . S
C111 O101 1.283 . S
C112 O104 1.304 . S
C112 O106 1.272 . S
C113 O105 1.311 . S
C113 O107 1.231 . S
O114 Zn96 1.953 . S
O114 C108 1.298 . S
O115 Zn116 1.953 . S
O115 C131 1.225 . S
Zn116 O115 1.953 . S
Zn116 O117 1.949 . S
Zn116 O123 1.919 . S
Zn116 O128 1.924 . S
O117 Zn116 1.949 . S
O117 Zn118 1.923 . S
O117 Zn119 1.950 . S
O117 Zn120 1.945 . S
Zn118 O117 1.923 . S
Zn118 O121 1.933 . S
Zn118 O124 1.941 . S
Zn118 O125 1.965 . S
Zn119 O117 1.950 . S
Zn119 O126 1.938 . S
Zn119 O127 1.906 . S
Zn119 O137 1.953 . S
Zn120 O117 1.945 . S
Zn120 O122 1.932 . S
Zn120 O129 1.977 . S
Zn120 O130 1.910 . S
O121 Zn118 1.933 . S
O121 C132 1.226 . S
O122 Zn120 1.932 . S
O122 C132 1.307 . S
O123 Zn116 1.919 . S
O123 C134 1.253 . S
O124 Zn118 1.941 . S
O124 C134 1.283 . S
O125 Zn118 1.965 . S
O125 C133 1.303 . S
O126 Zn119 1.938 . S
O126 C133 1.247 . S
O127 Zn119 1.906 . S
O127 C135 1.304 . S
O128 Zn116 1.924 . S
O128 C136 1.311 . S
O129 Zn120 1.977 . S
O129 C135 1.272 . S
O130 Zn120 1.910 . S
O130 C136 1.231 . S
C131 O115 1.225 . S
C131 O137 1.298 . S
C132 O121 1.226 . S
C132 O122 1.307 . S
C133 O125 1.303 . S
C133 O126 1.247 . S
C134 O123 1.253 . S
C134 O124 1.283 . S
C135 O127 1.304 . S
C135 O129 1.272 . S
C136 O128 1.311 . S
C136 O130 1.231 . S
O137 Zn119 1.953 . S
O137 C131 1.298 . S
O138 Zn139 1.953 . S
O138 C154 1.225 . S
Zn139 O138 1.953 . S
Zn139 O140 1.949 . S
Zn139 O146 1.919 . S
Zn139 O151 1.924 . S
O140 Zn139 1.949 . S
O140 Zn141 1.923 . S
O140 Zn142 1.950 . S
O140 Zn143 1.945 . S
Zn141 O140 1.923 . S
Zn141 O144 1.933 . S
Zn141 O147 1.941 . S
Zn141 O148 1.965 . S
Zn142 O140 1.950 . S
Zn142 O149 1.938 . S
Zn142 O150 1.906 . S
Zn142 O160 1.953 . S
Zn143 O140 1.945 . S
Zn143 O145 1.932 . S
Zn143 O152 1.977 . S
Zn143 O153 1.910 . S
O144 Zn141 1.933 . S
O144 C155 1.226 . S
O145 Zn143 1.932 . S
O145 C155 1.307 . S
O146 Zn139 1.919 . S
O146 C157 1.253 . S
O147 Zn141 1.941 . S
O147 C157 1.283 . S
O148 Zn141 1.965 . S
O148 C156 1.303 . S
O149 Zn142 1.938 . S
O149 C156 1.247 . S
O150 Zn142 1.906 . S
O150 C158 1.304 . S
O151 Zn139 1.924 . S
O151 C159 1.311 . S
O152 Zn143 1.977 . S
O152 C158 1.272 . S
O153 Zn143 1.910 . S
O153 C159 1.231 . S
C154 O138 1.225 . S
C154 O160 1.298 . S
C155 O144 1.226 . S
C155 O145 1.307 . S
C156 O148 1.303 . S
C156 O149 1.247 . S
C157 O146 1.253 . S
C157 O147 1.283 . S
C158 O150 1.304 . S
C158 O152 1.272 . S
C159 O151 1.311 . S
C159 O153 1.231 . S
O160 Zn142 1.953 . S
O160 C154 1.298 . S
O161 Zn162 1.953 . S
O161 C177 1.225 . S
Zn162 O161 1.953 . S
Zn162 O163 1.949 . S
Zn162 O169 1.919 . S
Zn162 O174 1.924 . S
O163 Zn162 1.949 . S
O163 Zn164 1.923 . S
O163 Zn165 1.950 . S
O163 Zn166 1.945 . S
Zn164 O163 1.923 . S
Zn164 O167 1.933 . S
Zn164 O170 1.941 . S
Zn164 O171 1.965 . S
Zn165 O163 1.950 . S
Zn165 O172 1.938 . S
Zn165 O173 1.906 . S
Zn165 O183 1.953 . S
Zn166 O163 1.945 . S
Zn166 O168 1.932 . S
Zn166 O175 1.977 . S
Zn166 O176 1.910 . S
O167 Zn164 1.933 . S
O167 C178 1.226 . S
O168 Zn166 1.932 . S
O168 C178 1.307 . S
O169 Zn162 1.919 . S
O169 C180 1.253 . S
O170 Zn164 1.941 . S
O170 C180 1.283 . S
O171 Zn164 1.965 . S
O171 C179 1.303 . S
O172 Zn165 1.938 . S
O172 C179 1.247 . S
O173 Zn165 1.906 . S
O173 C181 1.304 . S
O174 Zn162 1.924 . S
O174 C182 1.311 . S
O175 Zn166 1.977 . S
O175 C181 1.272 . S
O176 Zn166 1.910 . S
O176 C182 1.231 . S
C177 O161 1.225 . S
C177 O183 1.298 . S
C178 O167 1.226 . S
C178 O168 1.307 . S
C179 O171 1.303 . S
C179 O172 1.247 . S
C180 O169 1.253 . S
C180 O170 1.283 . S
C181 O173 1.304 . S
C181 O175 1.272 . S
C182 O174 1.311 . S
C182 O176 1.231 . S
O183 Zn165 1.953 . S
O183 C177 1.298 . S
O184 Zn185 1.953 . S
O184 C200 1.225 . S
Zn185 O184 1.953 . S
Zn185 O186 1.949 . S
Zn185 O192 1.919 . S
Zn185 O197 1.924 . S
O186 Zn185 1.949 . S
O186 Zn187 1.923 . S
O186 Zn188 1.950 . S
O186 Zn189 1.945 . S
Zn187 O186 1.923 . S
Zn187 O190 1.933 . S
Zn187 O193 1.941 . S
Zn187 O194 1.965 . S
Zn188 O186 1.950 . S
Zn188 O195 1.938 . S
Zn188 O196 1.906 . S
Zn188 O206 1.953 . S
Zn189 O186 1.945 . S
Zn189 O191 1.932 . S
Zn189 O198 1.977 . S
Zn189 O199 1.910 . S
O190 Zn187 1.933 . S
O190 C201 1.226 . S
O191 Zn189 1.932 . S
O191 C201 1.307 . S
O192 Zn185 1.919 . S
O192 C203 1.253 . S
O193 Zn187 1.941 . S
O193 C203 1.283 . S
O194 Zn187 1.965 . S
O194 C202 1.303 . S
O195 Zn188 1.938 . S
O195 C202 1.247 . S
O196 Zn188 1.906 . S
O196 C204 1.304 . S
O197 Zn185 1.924 . S
O197 C205 1.311 . S
O198 Zn189 1.977 . S
O198 C204 1.272 . S
O199 Zn189 1.910 . S
O199 C205 1.231 . S
C200 O184 1.225 . S
C200 O206 1.298 . S
C201 O190 1.226 . S
C201 O191 1.307 . S
C202 O194 1.303 . S
C202 O195 1.247 . S
C203 O192 1.253 . S
C203 O193 1.283 . S
C204 O196 1.304 . S
C204 O198 1.272 . S
C205 O197 1.311 . S
C205 O199 1.231 . S
O206 Zn188 1.953 . S
O206 C200 1.298 . S
O207 Zn208 1.953 . S
O207 C223 1.225 . S
Zn208 O207 1.953 . S
Zn208 O209 1.949 . S
Zn208 O215 1.919 . S
Zn208 O220 1.924 . S
O209 Zn208 1.949 . S
O209 Zn210 1.923 . S
O209 Zn211 1.950 . S
O209 Zn212 1.945 . S
Zn210 O209 1.923 . S
Zn210 O213 1.933 . S
Zn210 O216 1.941 . S
Zn210 O217 1.965 . S
Zn211 O209 1.950 . S
Zn211 O218 1.938 . S
Zn211 O219 1.906 . S
Zn211 O229 1.953 . S
Zn212 O209 1.945 . S
Zn212 O214 1.932 . S
Zn212 O221 1.977 . S
Zn212 O222 1.910 . S
O213 Zn210 1.933 . S
O213 C224 1.226 . S
O214 Zn212 1.932 . S
O214 C224 1.307 . S
O215 Zn208 1.919 . S
O215 C226 1.253 . S
O216 Zn210 1.941 . S
O216 C226 1.283 . S
O217 Zn210 1.965 . S
O217 C225 1.303 . S
O218 Zn211 1.938 . S
O218 C225 1.247 . S
O219 Zn211 1.906 . S
O219 C227 1.304 . S
O220 Zn208 1.924 . S
O220 C228 1.311 . S
O221 Zn212 1.977 . S
O221 C227 1.272 . S
O222 Zn212 1.910 . S
O222 C228 1.231 . S
C223 O207 1.225 . S
C223 O229 1.298 . S
C224 O213 1.226 . S
C224 O214 1.307 . S
C225 O217 1.303 . S
C225 O218 1.247 . S
C226 O215 1.253 . S
C226 O216 1.283 . S
C227 O219 1.304 . S
C227 O221 1.272 . S
C228 O220 1.311 . S
C228 O222 1.231 . S
O229 Zn211 1.953 . S
O229 C223 1.298 . S
O230 Zn231 1.953 . S
O230 C246 1.225 . S
Zn231 O230 1.953 . S
Zn231 O232 1.949 . S
Zn231 O238 1.919 . S
Zn231 O243 1.924 . S
O232 Zn231 1.949 . S
O232 Zn233 1.923 . S
O232 Zn234 1.950 . S
O232 Zn235 1.945 . S
Zn233 O232 1.923 . S
Zn233 O236 1.933 . S
Zn233 O239 1.941 . S
Zn233 O240 1.965 . S
Zn234 O232 1.950 . S
Zn234 O241 1.938 . S
Zn234 O242 1.906 . S
Zn234 O252 1.953 . S
Zn235 O232 1.945 . S
Zn235 O237 1.932 . S
Zn235 O244 1.977 . S
Zn235 O245 1.910 . S
O236 Zn233 1.933 . S
O236 C247 1.226 . S
O237 Zn235 1.932 . S
O237 C247 1.307 . S
O238 Zn231 1.919 . S
O238 C249 1.253 . S
O239 Zn233 1.941 . S
O239 C249 1.283 . S
O240 Zn233 1.965 . S
O240 C248 1.303 . S
O241 Zn234 1.938 . S
O241 C248 1.247 . S
O242 Zn234 1.906 . S
O242 C250 1.304 . S
O243 Zn231 1.924 . S
O243 C251 1.311 . S
O244 Zn235 1.977 . S
O244 C250 1.272 . S
O245 Zn235 1.910 . S
O245 C251 1.231 . S
C246 O230 1.225 . S
C246 O252 1.298 . S
C247 O236 1.226 . S
C247 O237 1.307 . S
C248 O240 1.303 . S
C248 O241 1.247 . S
C249 O238 1.253 . S
C249 O239 1.283 . S
C250 O242 1.304 . S
C250 O244 1.272 . S
C251 O243 1.311 . S
C251 O245 1.231 . S
O252 Zn234 1.953 . S
O252 C246 1.298 . S
O253 Zn254 1.953 . S
O253 C269 1.225 . S
Zn254 O253 1.953 . S
Zn254 O255 1.949 . S
Zn254 O261 1.919 . S
Zn254 O266 1.924 . S
O255 Zn254 1.949 . S
O255 Zn256 1.923 . S
O255 Zn257 1.950 . S
O255 Zn258 1.945 . S
Zn256 O255 1.923 . S
Zn256 O259 1.933 . S
Zn256 O262 1.941 . S
Zn256 O263 1.965 . S
Zn257 O255 1.950 . S
Zn257 O264 1.938 . S
Zn257 O265 1.906 . S
Zn257 O275 1.953 . S
Zn258 O255 1.945 . S
Zn258 O260 1.932 . S
Zn258 O267 1.977 . S
Zn258 O268 1.910 . S
O259 Zn256 1.933 . S
O259 C270 1.226 . S
O260 Zn258 1.932 . S
O260 C270 1.307 . S
O261 Zn254 1.919 . S
O261 C272 1.253 . S
O262 Zn256 1.941 . S
O262 C272 1.283 . S
O263 Zn256 1.965 . S
O263 C271 1.303 . S
O264 Zn257 1.938 . S
O264 C271 1.247 . S
O265 Zn257 1.906 . S
O265 C273 1.304 . S
O266 Zn254 1.924 . S
O266 C274 1.311 . S
O267 Zn258 1.977 . S
O267 C273 1.272 . S
O268 Zn258 1.910 . S
O268 C274 1.231 . S
C269 O253 1.225 . S
C269 O275 1.298 . S
C270 O259 1.226 . S
C270 O260 1.307 . S
C271 O263 1.303 . S
C271 O264 1.247 . S
C272 O261 1.253 . S
C272 O262 1.283 . S
C273 O265 1.304 . S
C273 O267 1.272 . S
C274 O266 1.311 . S
C274 O268 1.231 . S
O275 Zn257 1.953 . S
O275 C269 1.298 . S
C276 C277 1.349 . S
C276 C278 1.327 . S
C276 H301 0.950 . S
C277 C276 1.349 . S
C277 C293 1.349 . S
C278 C276 1.327 . S
C278 C297 1.429 . S
C278 H302 0.950 . S
C279 C296 1.574 . S
C279 C298 1.368 . S
C279 H303 0.949 . S
H280 C284 0.949 . S
C281 C282 1.349 . S
C281 C283 1.327 . S
C281 H304 0.950 . S
C282 C281 1.349 . S
C282 C294 1.349 . S
C283 C281 1.327 . S
C283 C299 1.429 . S
C283 H305 0.950 . S
C284 H280 0.949 . S
C284 C292 1.574 . S
C284 C300 1.368 . S
H285 C293 0.950 . S
H286 C291 0.950 . S
H287 C292 0.949 . S
H288 C294 0.950 . S
H289 C295 0.950 . S
H290 C296 0.949 . S
C291 H286 0.950 . S
C291 C293 1.327 . S
C291 C297 1.429 . S
C292 C284 1.574 . S
C292 H287 0.949 . S
C292 C298 1.368 . S
C293 C277 1.349 . S
C293 H285 0.950 . S
C293 C291 1.327 . S
C294 C282 1.349 . S
C294 H288 0.950 . S
C294 C295 1.327 . S
C295 H289 0.950 . S
C295 C294 1.327 . S
C295 C299 1.429 . S
C296 C279 1.574 . S
C296 H290 0.949 . S
C296 C300 1.368 . S
C297 C278 1.429 . S
C297 C291 1.429 . S
C297 C298 1.523 . S
C298 C279 1.368 . S
C298 C292 1.368 . S
C298 C297 1.523 . S
C299 C283 1.429 . S
C299 C295 1.429 . S
C299 C300 1.523 . S
C300 C284 1.368 . S
C300 C296 1.368 . S
C300 C299 1.523 . S
H301 C276 0.950 . S
H302 C278 0.950 . S
H303 C279 0.949 . S
H304 C281 0.950 . S
H305 C283 0.950 . S
C306 C307 1.349 . S
C306 C308 1.327 . S
C306 H331 0.950 . S
C307 C306 1.349 . S
C307 C323 1.349 . S
C308 C306 1.327 . S
C308 C327 1.429 . S
C308 H332 0.950 . S
C309 C326 1.574 . S
C309 C328 1.368 . S
C309 H333 0.949 . S
H310 C314 0.949 . S
C311 C312 1.349 . S
C311 C313 1.327 . S
C311 H334 0.950 . S
C312 C311 1.349 . S
C312 C324 1.349 . S
C313 C311 1.327 . S
C313 C329 1.429 . S
C313 H335 0.950 . S
C314 H310 0.949 . S
C314 C322 1.574 . S
C314 C330 1.368 . S
H315 C323 0.950 . S
H316 C321 0.950 . S
H317 C322 0.949 . S
H318 C324 0.950 . S
H319 C325 0.950 . S
H320 C326 0.949 . S
C321 H316 0.950 . S
C321 C323 1.327 . S
C321 C327 1.429 . S
C322 C314 1.574 . S
C322 H317 0.949 . S
C322 C328 1.368 . S
C323 C307 1.349 . S
C323 H315 0.950 . S
C323 C321 1.327 . S
C324 C312 1.349 . S
C324 H318 0.950 . S
C324 C325 1.327 . S
C325 H319 0.950 . S
C325 C324 1.327 . S
C325 C329 1.429 . S
C326 C309 1.574 . S
C326 H320 0.949 . S
C326 C330 1.368 . S
C327 C308 1.429 . S
C327 C321 1.429 . S
C327 C328 1.523 . S
C328 C309 1.368 . S
C328 C322 1.368 . S
C328 C327 1.523 . S
C329 C313 1.429 . S
C329 C325 1.429 . S
C329 C330 1.523 . S
C330 C314 1.368 . S
C330 C326 1.368 . S
C330 C329 1.523 . S
H331 C306 0.950 . S
H332 C308 0.950 . S
H333 C309 0.949 . S
H334 C311 0.950 . S
H335 C313 0.950 . S
C336 C337 1.349 . S
C336 C338 1.327 . S
C336 H361 0.950 . S
C337 C336 1.349 . S
C337 C353 1.349 . S
C338 C336 1.327 . S
C338 C357 1.429 . S
C338 H362 0.950 . S
C339 C356 1.574 . S
C339 C358 1.368 . S
C339 H363 0.949 . S
H340 C344 0.949 . S
C341 C342 1.349 . S
C341 C343 1.327 . S
C341 H364 0.950 . S
C342 C341 1.349 . S
C342 C354 1.349 . S
C343 C341 1.327 . S
C343 C359 1.429 . S
C343 H365 0.950 . S
C344 H340 0.949 . S
C344 C352 1.574 . S
C344 C360 1.368 . S
H345 C353 0.950 . S
H346 C351 0.950 . S
H347 C352 0.949 . S
H348 C354 0.950 . S
H349 C355 0.950 . S
H350 C356 0.949 . S
C351 H346 0.950 . S
C351 C353 1.327 . S
C351 C357 1.429 . S
C352 C344 1.574 . S
C352 H347 0.949 . S
C352 C358 1.368 . S
C353 C337 1.349 . S
C353 H345 0.950 . S
C353 C351 1.327 . S
C354 C342 1.349 . S
C354 H348 0.950 . S
C354 C355 1.327 . S
C355 H349 0.950 . S
C355 C354 1.327 . S
C355 C359 1.429 . S
C356 C339 1.574 . S
C356 H350 0.949 . S
C356 C360 1.368 . S
C357 C338 1.429 . S
C357 C351 1.429 . S
C357 C358 1.523 . S
C358 C339 1.368 . S
C358 C352 1.368 . S
C358 C357 1.523 . S
C359 C343 1.429 . S
C359 C355 1.429 . S
C359 C360 1.523 . S
C360 C344 1.368 . S
C360 C356 1.368 . S
C360 C359 1.523 . S
H361 C336 0.950 . S
H362 C338 0.950 . S
H363 C339 0.949 . S
H364 C341 0.950 . S
H365 C343 0.950 . S
C366 C367 1.349 . S
C366 C368 1.327 . S
C366 H391 0.950 . S
C367 C366 1.349 . S
C367 C383 1.349 . S
C368 C366 1.327 . S
C368 C387 1.429 . S
C368 H392 0.950 . S
C369 C386 1.574 . S
C369 C388 1.368 . S
C369 H393 0.949 . S
H370 C374 0.949 . S
C371 C372 1.349 . S
C371 C373 1.327 . S
C371 H394 0.950 . S
C372 C371 1.349 . S
C372 C384 1.349 . S
C373 C371 1.327 . S
C373 C389 1.429 . S
C373 H395 0.950 . S
C374 H370 0.949 . S
C374 C382 1.574 . S
C374 C390 1.368 . S
H375 C383 0.950 . S
H376 C381 0.950 . S
H377 C382 0.949 . S
H378 C384 0.950 . S
H379 C385 0.950 . S
H380 C386 0.949 . S
C381 H376 0.950 . S
C381 C383 1.327 . S
C381 C387 1.429 . S
C382 C374 1.574 . S
C382 H377 0.949 . S
C382 C388 1.368 . S
C383 C367 1.349 . S
C383 H375 0.950 . S
C383 C381 1.327 . S
C384 C372 1.349 . S
C384 H378 0.950 . S
C384 C385 1.327 . S
C385 H379 0.950 . S
C385 C384 1.327 . S
C385 C389 1.429 . S
C386 C369 1.574 . S
C386 H380 0.949 . S
C386 C390 1.368 . S
C387 C368 1.429 . S
C387 C381 1.429 . S
C387 C388 1.523 . S
C388 C369 1.368 . S
C388 C382 1.368 . S
C388 C387 1.523 . S
C389 C373 1.429 . S
C389 C385 1.429 . S
C389 C390 1.523 . S
C390 C374 1.368 . S
C390 C386 1.368 . S
C390 C389 1.523 . S
H391 C366 0.950 . S
H392 C368 0.950 . S
H393 C369 0.949 . S
H394 C371 0.950 . S
H395 C373 0.950 . S
C396 C397 1.349 . S
C396 C398 1.327 . S
C396 H421 0.950 . S
C397 C396 1.349 . S
C397 C413 1.349 . S
C398 C396 1.327 . S
C398 C417 1.429 . S
C398 H422 0.950 . S
C399 C416 1.574 . S
C399 C418 1.368 . S
C399 H423 0.949 . S
H400 C404 0.949 . S
C401 C402 1.349 . S
C401 C403 1.327 . S
C401 H424 0.950 . S
C402 C401 1.349 . S
C402 C414 1.349 . S
C403 C401 1.327 . S
C403 C419 1.429 . S
C403 H425 0.950 . S
C404 H400 0.949 . S
C404 C412 1.574 . S
C404 C420 1.368 . S
H405 C413 0.950 . S
H406 C411 0.950 . S
H407 C412 0.949 . S
H408 C414 0.950 . S
H409 C415 0.950 . S
H410 C416 0.949 . S
C411 H406 0.950 . S
C411 C413 1.327 . S
C411 C417 1.429 . S
C412 C404 1.574 . S
C412 H407 0.949 . S
C412 C418 1.368 . S
C413 C397 1.349 . S
C413 H405 0.950 . S
C413 C411 1.327 . S
C414 C402 1.349 . S
C414 H408 0.950 . S
C414 C415 1.327 . S
C415 H409 0.950 . S
C415 C414 1.327 . S
C415 C419 1.429 . S
C416 C399 1.574 . S
C416 H410 0.949 . S
C416 C420 1.368 . S
C417 C398 1.429 . S
C417 C411 1.429 . S
C417 C418 1.523 . S
C418 C399 1.368 . S
C418 C412 1.368 . S
C418 C417 1.523 . S
C419 C403 1.429 . S
C419 C415 1.429 . S
C419 C420 1.523 . S
C420 C404 1.368 . S
C420 C416 1.368 . S
C420 C419 1.523 . S
H421 C396 0.950 . S
H422 C398 0.950 . S
H423 C399 0.949 . S
H424 C401 0.950 . S
H425 C403 0.950 . S
C426 C427 1.349 . S
C426 C428 1.327 . S
C426 H451 0.950 . S
C427 C426 1.349 . S
C427 C443 1.349 . S
C428 C426 1.327 . S
C428 C447 1.429 . S
C428 H452 0.950 . S
C429 C446 1.574 . S
C429 C448 1.368 . S
C429 H453 0.949 . S
H430 C434 0.949 . S
C431 C432 1.349 . S
C431 C433 1.327 . S
C431 H454 0.950 . S
C432 C431 1.349 . S
C432 C444 1.349 . S
C433 C431 1.327 . S
C433 C449 1.429 . S
C433 H455 0.950 . S
C434 H430 0.949 . S
C434 C442 1.574 . S
C434 C450 1.368 . S
H435 C443 0.950 . S
H436 C441 0.950 . S
H437 C442 0.949 . S
H438 C444 0.950 . S
H439 C445 0.950 . S
H440 C446 0.949 . S
C441 H436 0.950 . S
C441 C443 1.327 . S
C441 C447 1.429 . S
C442 C434 1.574 . S
C442 H437 0.949 . S
C442 C448 1.368 . S
C443 C427 1.349 . S
C443 H435 0.950 . S
C443 C441 1.327 . S
C444 C432 1.349 . S
C444 H438 0.950 . S
C444 C445 1.327 . S
C445 H439 0.950 . S
C445 C444 1.327 . S
C445 C449 1.429 . S
C446 C429 1.574 . S
C446 H440 0.949 . S
C446 C450 1.368 . S
C447 C428 1.429 . S
C447 C441 1.429 . S
C447 C448 1.523 . S
C448 C429 1.368 . S
C448 C442 1.368 . S
C448 C447 1.523 . S
C449 C433 1.429 . S
C449 C445 1.429 . S
C449 C450 1.523 . S
C450 C434 1.368 . S
C450 C446 1.368 . S
C450 C449 1.523 . S
H451 C426 0.950 . S
H452 C428 0.950 . S
H453 C429 0.949 . S
H454 C431 0.950 . S
H455 C433 0.950 . S
C456 C457 1.349 . S
C456 C458 1.327 . S
C456 H481 0.950 . S
C457 C456 1.349 . S
C457 C473 1.349 . S
C458 C456 1.327 . S
C458 C477 1.429 . S
C458 H482 0.950 . S
C459 C476 1.574 1_556 S
C459 C478 1.368 . S
C459 H483 0.949 . S
H460 C464 0.949 . S
C461 C462 1.349 . S
C461 C463 1.327 . S
C461 H484 0.950 . S
C462 C461 1.349 . S
C462 C474 1.349 . S
C463 C461 1.327 . S
C463 C479 1.429 . S
C463 H485 0.950 . S
C464 H460 0.949 . S
C464 C472 1.574 1_554 S
C464 C480 1.368 . S
H465 C473 0.950 . S
H466 C471 0.950 . S
H467 C472 0.949 . S
H468 C474 0.950 . S
H469 C475 0.950 . S
H470 C476 0.949 . S
C471 H466 0.950 . S
C471 C473 1.327 . S
C471 C477 1.429 . S
C472 C464 1.574 1_556 S
C472 H467 0.949 . S
C472 C478 1.368 . S
C473 C457 1.349 . S
C473 H465 0.950 . S
C473 C471 1.327 . S
C474 C462 1.349 . S
C474 H468 0.950 . S
C474 C475 1.327 . S
C475 H469 0.950 . S
C475 C474 1.327 . S
C475 C479 1.429 . S
C476 C459 1.574 1_554 S
C476 H470 0.949 . S
C476 C480 1.368 . S
C477 C458 1.429 . S
C477 C471 1.429 . S
C477 C478 1.523 . S
C478 C459 1.368 . S
C478 C472 1.368 . S
C478 C477 1.523 . S
C479 C463 1.429 . S
C479 C475 1.429 . S
C479 C480 1.523 . S
C480 C464 1.368 . S
C480 C476 1.368 . S
C480 C479 1.523 . S
H481 C456 0.950 . S
H482 C458 0.950 . S
H483 C459 0.949 . S
H484 C461 0.950 . S
H485 C463 0.950 . S
C486 C487 1.349 . S
C486 C488 1.327 . S
C486 H511 0.950 . S
C487 C486 1.349 . S
C487 C503 1.349 . S
C488 C486 1.327 . S
C488 C507 1.429 . S
C488 H512 0.950 . S
C489 C506 1.574 . S
C489 C508 1.368 . S
C489 H513 0.949 . S
H490 C494 0.949 . S
C491 C492 1.349 . S
C491 C493 1.327 . S
C491 H514 0.950 . S
C492 C491 1.349 . S
C492 C504 1.349 . S
C493 C491 1.327 . S
C493 C509 1.429 . S
C493 H515 0.950 . S
C494 H490 0.949 . S
C494 C502 1.574 . S
C494 C510 1.368 . S
H495 C503 0.950 . S
H496 C501 0.950 . S
H497 C502 0.949 . S
H498 C504 0.950 . S
H499 C505 0.950 . S
H500 C506 0.949 . S
C501 H496 0.950 . S
C501 C503 1.327 . S
C501 C507 1.429 . S
C502 C494 1.574 . S
C502 H497 0.949 . S
C502 C508 1.368 . S
C503 C487 1.349 . S
C503 H495 0.950 . S
C503 C501 1.327 . S
C504 C492 1.349 . S
C504 H498 0.950 . S
C504 C505 1.327 . S
C505 H499 0.950 . S
C505 C504 1.327 . S
C505 C509 1.429 . S
C506 C489 1.574 . S
C506 H500 0.949 . S
C506 C510 1.368 . S
C507 C488 1.429 . S
C507 C501 1.429 . S
C507 C508 1.523 . S
C508 C489 1.368 . S
C508 C502 1.368 . S
C508 C507 1.523 . S
C509 C493 1.429 . S
C509 C505 1.429 . S
C509 C510 1.523 . S
C510 C494 1.368 . S
C510 C506 1.368 . S
C510 C509 1.523 . S
H511 C486 0.950 . S
H512 C488 0.950 . S
H513 C489 0.949 . S
H514 C491 0.950 . S
H515 C493 0.950 . S
C516 C517 1.349 . S
C516 C518 1.327 . S
C516 H541 0.950 . S
C517 C516 1.349 . S
C517 C533 1.349 . S
C518 C516 1.327 . S
C518 C537 1.429 . S
C518 H542 0.950 . S
C519 C536 1.574 . S
C519 C538 1.368 . S
C519 H543 0.949 . S
H520 C524 0.949 . S
C521 C522 1.349 . S
C521 C523 1.327 . S
C521 H544 0.950 . S
C522 C521 1.349 . S
C522 C534 1.349 . S
C523 C521 1.327 . S
C523 C539 1.429 . S
C523 H545 0.950 . S
C524 H520 0.949 . S
C524 C532 1.574 . S
C524 C540 1.368 . S
H525 C533 0.950 . S
H526 C531 0.950 . S
H527 C532 0.949 . S
H528 C534 0.950 . S
H529 C535 0.950 . S
H530 C536 0.949 . S
C531 H526 0.950 . S
C531 C533 1.327 . S
C531 C537 1.429 . S
C532 C524 1.574 . S
C532 H527 0.949 . S
C532 C538 1.368 . S
C533 C517 1.349 . S
C533 H525 0.950 . S
C533 C531 1.327 . S
C534 C522 1.349 . S
C534 H528 0.950 . S
C534 C535 1.327 . S
C535 H529 0.950 . S
C535 C534 1.327 . S
C535 C539 1.429 . S
C536 C519 1.574 . S
C536 H530 0.949 . S
C536 C540 1.368 . S
C537 C518 1.429 . S
C537 C531 1.429 . S
C537 C538 1.523 . S
C538 C519 1.368 . S
C538 C532 1.368 . S
C538 C537 1.523 . S
C539 C523 1.429 . S
C539 C535 1.429 . S
C539 C540 1.523 . S
C540 C524 1.368 . S
C540 C536 1.368 . S
C540 C539 1.523 . S
H541 C516 0.950 . S
H542 C518 0.950 . S
H543 C519 0.949 . S
H544 C521 0.950 . S
H545 C523 0.950 . S
C546 C547 1.349 . S
C546 C548 1.327 . S
C546 H571 0.950 . S
C547 C546 1.349 . S
C547 C563 1.349 . S
C548 C546 1.327 . S
C548 C567 1.429 . S
C548 H572 0.950 . S
C549 C566 1.574 1_556 S
C549 C568 1.368 . S
C549 H573 0.949 . S
H550 C554 0.949 . S
C551 C552 1.349 . S
C551 C553 1.327 . S
C551 H574 0.950 . S
C552 C551 1.349 . S
C552 C564 1.349 . S
C553 C551 1.327 . S
C553 C569 1.429 . S
C553 H575 0.950 . S
C554 H550 0.949 . S
C554 C562 1.574 1_554 S
C554 C570 1.368 . S
H555 C563 0.950 . S
H556 C561 0.950 . S
H557 C562 0.949 . S
H558 C564 0.950 . S
H559 C565 0.950 . S
H560 C566 0.949 . S
C561 H556 0.950 . S
C561 C563 1.327 . S
C561 C567 1.429 . S
C562 C554 1.574 1_556 S
C562 H557 0.949 . S
C562 C568 1.368 . S
C563 C547 1.349 . S
C563 H555 0.950 . S
C563 C561 1.327 . S
C564 C552 1.349 . S
C564 H558 0.950 . S
C564 C565 1.327 . S
C565 H559 0.950 . S
C565 C564 1.327 . S
C565 C569 1.429 . S
C566 C549 1.574 1_554 S
C566 H560 0.949 . S
C566 C570 1.368 . S
C567 C548 1.429 . S
C567 C561 1.429 . S
C567 C568 1.523 . S
C568 C549 1.368 . S
C568 C562 1.368 . S
C568 C567 1.523 . S
C569 C553 1.429 . S
C569 C565 1.429 . S
C569 C570 1.523 . S
C570 C554 1.368 . S
C570 C566 1.368 . S
C570 C569 1.523 . S
H571 C546 0.950 . S
H572 C548 0.950 . S
H573 C549 0.949 . S
H574 C551 0.950 . S
H575 C553 0.950 . S
C576 C577 1.349 . S
C576 C578 1.327 . S
C576 H601 0.950 . S
C577 C576 1.349 . S
C577 C593 1.349 . S
C578 C576 1.327 . S
C578 C597 1.429 . S
C578 H602 0.950 . S
C579 C596 1.574 . S
C579 C598 1.368 . S
C579 H603 0.949 . S
H580 C584 0.949 . S
C581 C582 1.349 . S
C581 C583 1.327 . S
C581 H604 0.950 . S
C582 C581 1.349 . S
C582 C594 1.349 . S
C583 C581 1.327 . S
C583 C599 1.429 . S
C583 H605 0.950 . S
C584 H580 0.949 . S
C584 C592 1.574 . S
C584 C600 1.368 . S
H585 C593 0.950 . S
H586 C591 0.950 . S
H587 C592 0.949 . S
H588 C594 0.950 . S
H589 C595 0.950 . S
H590 C596 0.949 . S
C591 H586 0.950 . S
C591 C593 1.327 . S
C591 C597 1.429 . S
C592 C584 1.574 . S
C592 H587 0.949 . S
C592 C598 1.368 . S
C593 C577 1.349 . S
C593 H585 0.950 . S
C593 C591 1.327 . S
C594 C582 1.349 . S
C594 H588 0.950 . S
C594 C595 1.327 . S
C595 H589 0.950 . S
C595 C594 1.327 . S
C595 C599 1.429 . S
C596 C579 1.574 . S
C596 H590 0.949 . S
C596 C600 1.368 . S
C597 C578 1.429 . S
C597 C591 1.429 . S
C597 C598 1.523 . S
C598 C579 1.368 . S
C598 C592 1.368 . S
C598 C597 1.523 . S
C599 C583 1.429 . S
C599 C595 1.429 . S
C599 C600 1.523 . S
C600 C584 1.368 . S
C600 C596 1.368 . S
C600 C599 1.523 . S
H601 C576 0.950 . S
H602 C578 0.950 . S
H603 C579 0.949 . S
H604 C581 0.950 . S
H605 C583 0.950 . S
C606 C607 1.349 . S
C606 C608 1.327 . S
C606 H631 0.950 . S
C607 C606 1.349 . S
C607 C623 1.349 . S
C608 C606 1.327 . S
C608 C627 1.429 . S
C608 H632 0.950 . S
C609 C626 1.574 . S
C609 C628 1.368 . S
C609 H633 0.949 . S
H610 C614 0.949 . S
C611 C612 1.349 . S
C611 C613 1.327 . S
C611 H634 0.950 . S
C612 C611 1.349 . S
C612 C624 1.349 . S
C613 C611 1.327 . S
C613 C629 1.429 . S
C613 H635 0.950 . S
C614 H610 0.949 . S
C614 C622 1.574 . S
C614 C630 1.368 . S
H615 C623 0.950 . S
H616 C621 0.950 . S
H617 C622 0.949 . S
H618 C624 0.950 . S
H619 C625 0.950 . S
H620 C626 0.949 . S
C621 H616 0.950 . S
C621 C623 1.327 . S
C621 C627 1.429 . S
C622 C614 1.574 . S
C622 H617 0.949 . S
C622 C628 1.368 . S
C623 C607 1.349 . S
C623 H615 0.950 . S
C623 C621 1.327 . S
C624 C612 1.349 . S
C624 H618 0.950 . S
C624 C625 1.327 . S
C625 H619 0.950 . S
C625 C624 1.327 . S
C625 C629 1.429 . S
C626 C609 1.574 . S
C626 H620 0.949 . S
C626 C630 1.368 . S
C627 C608 1.429 . S
C627 C621 1.429 . S
C627 C628 1.523 . S
C628 C609 1.368 . S
C628 C622 1.368 . S
C628 C627 1.523 . S
C629 C613 1.429 . S
C629 C625 1.429 . S
C629 C630 1.523 . S
C630 C614 1.368 . S
C630 C626 1.368 . S
C630 C629 1.523 . S
H631 C606 0.950 . S
H632 C608 0.950 . S
H633 C609 0.949 . S
H634 C611 0.950 . S
H635 C613 0.950 . S
C636 C637 1.349 . S
C636 C638 1.327 . S
C636 H661 0.950 . S
C637 C636 1.349 . S
C637 C653 1.349 . S
C638 C636 1.327 . S
C638 C657 1.429 . S
C638 H662 0.950 . S
C639 C656 1.571 1_556 S
C639 C658 1.371 . S
C639 H663 0.949 . S
H640 C644 0.949 . S
C641 C642 1.349 . S
C641 C643 1.327 . S
C641 H664 0.950 . S
C642 C641 1.349 . S
C642 C654 1.349 . S
C643 C641 1.327 . S
C643 C659 1.429 . S
C643 H665 0.950 . S
C644 H640 0.949 . S
C644 C652 1.571 1_554 S
C644 C660 1.371 . S
H645 C653 0.950 . S
H646 C651 0.950 . S
H647 C652 0.949 . S
H648 C654 0.950 . S
H649 C655 0.950 . S
H650 C656 0.949 . S
C651 H646 0.950 . S
C651 C653 1.327 . S
C651 C657 1.429 . S
C652 C644 1.571 1_556 S
C652 H647 0.949 . S
C652 C658 1.368 1_545 S
C653 C637 1.349 . S
C653 H645 0.950 . S
C653 C651 1.327 . S
C654 C642 1.349 . S
C654 H648 0.950 . S
C654 C655 1.327 . S
C655 H649 0.950 . S
C655 C654 1.327 . S
C655 C659 1.429 . S
C656 C639 1.571 1_554 S
C656 H650 0.949 . S
C656 C660 1.368 1_565 S
C657 C638 1.429 . S
C657 C651 1.429 . S
C657 C658 1.523 . S
C658 C639 1.371 . S
C658 C652 1.368 1_565 S
C658 C657 1.523 . S
C659 C643 1.429 . S
C659 C655 1.429 . S
C659 C660 1.523 . S
C660 C644 1.371 . S
C660 C656 1.368 1_545 S
C660 C659 1.523 . S
H661 C636 0.950 . S
H662 C638 0.950 . S
H663 C639 0.949 . S
H664 C641 0.950 . S
H665 C643 0.950 . S
C666 C667 1.349 . S
C666 C668 1.327 . S
C666 H691 0.950 . S
C667 C666 1.349 . S
C667 C683 1.349 . S
C668 C666 1.327 . S
C668 C687 1.429 . S
C668 H692 0.950 . S
C669 C686 1.574 . S
C669 C688 1.368 . S
C669 H693 0.949 . S
H670 C674 0.949 . S
C671 C672 1.349 . S
C671 C673 1.327 . S
C671 H694 0.950 . S
C672 C671 1.349 . S
C672 C684 1.349 . S
C673 C671 1.327 . S
C673 C689 1.429 . S
C673 H695 0.950 . S
C674 H670 0.949 . S
C674 C682 1.574 . S
C674 C690 1.368 . S
H675 C683 0.950 . S
H676 C681 0.950 . S
H677 C682 0.949 . S
H678 C684 0.950 . S
H679 C685 0.950 . S
H680 C686 0.949 . S
C681 H676 0.950 . S
C681 C683 1.327 . S
C681 C687 1.429 . S
C682 C674 1.574 . S
C682 H677 0.949 . S
C682 C688 1.368 . S
C683 C667 1.349 . S
C683 H675 0.950 . S
C683 C681 1.327 . S
C684 C672 1.349 . S
C684 H678 0.950 . S
C684 C685 1.327 . S
C685 H679 0.950 . S
C685 C684 1.327 . S
C685 C689 1.429 . S
C686 C669 1.574 . S
C686 H680 0.949 . S
C686 C690 1.368 . S
C687 C668 1.429 . S
C687 C681 1.429 . S
C687 C688 1.523 . S
C688 C669 1.368 . S
C688 C682 1.368 . S
C688 C687 1.523 . S
C689 C673 1.429 . S
C689 C685 1.429 . S
C689 C690 1.523 . S
C690 C674 1.368 . S
C690 C686 1.368 . S
C690 C689 1.523 . S
H691 C666 0.950 . S
H692 C668 0.950 . S
H693 C669 0.949 . S
H694 C671 0.950 . S
H695 C673 0.950 . S
C696 C697 1.349 . S
C696 C698 1.327 . S
C696 H721 0.950 . S
C697 C696 1.349 . S
C697 C713 1.349 . S
C698 C696 1.327 . S
C698 C717 1.429 . S
C698 H722 0.950 . S
C699 C716 1.574 1_455 S
C699 C718 1.368 . S
C699 H723 0.949 . S
H700 C704 0.949 . S
C701 C702 1.349 . S
C701 C703 1.327 . S
C701 H724 0.950 . S
C702 C701 1.349 . S
C702 C714 1.349 . S
C703 C701 1.327 . S
C703 C719 1.429 . S
C703 H725 0.950 . S
C704 H700 0.949 . S
C704 C712 1.574 1_655 S
C704 C720 1.368 . S
H705 C713 0.950 . S
H706 C711 0.950 . S
H707 C712 0.949 . S
H708 C714 0.950 . S
H709 C715 0.950 . S
H710 C716 0.949 . S
C711 H706 0.950 . S
C711 C713 1.327 . S
C711 C717 1.429 . S
C712 C704 1.574 1_455 S
C712 H707 0.949 . S
C712 C718 1.368 . S
C713 C697 1.349 . S
C713 H705 0.950 . S
C713 C711 1.327 . S
C714 C702 1.349 . S
C714 H708 0.950 . S
C714 C715 1.327 . S
C715 H709 0.950 . S
C715 C714 1.327 . S
C715 C719 1.429 . S
C716 C699 1.574 1_655 S
C716 H710 0.949 . S
C716 C720 1.368 . S
C717 C698 1.429 . S
C717 C711 1.429 . S
C717 C718 1.523 . S
C718 C699 1.368 . S
C718 C712 1.368 . S
C718 C717 1.523 . S
C719 C703 1.429 . S
C719 C715 1.429 . S
C719 C720 1.523 . S
C720 C704 1.368 . S
C720 C716 1.368 . S
C720 C719 1.523 . S
H721 C696 0.950 . S
H722 C698 0.950 . S
H723 C699 0.949 . S
H724 C701 0.950 . S
H725 C703 0.950 . S
C726 C727 1.349 . S
C726 C728 1.327 . S
C726 H751 0.950 . S
C727 C726 1.349 . S
C727 C743 1.349 . S
C728 C726 1.327 . S
C728 C747 1.429 . S
C728 H752 0.950 . S
C729 C746 1.578 . S
C729 C748 1.368 1_545 S
C729 H753 0.949 . S
H730 C734 0.949 . S
C731 C732 1.349 . S
C731 C733 1.327 . S
C731 H754 0.950 . S
C732 C731 1.349 . S
C732 C744 1.349 . S
C733 C731 1.327 . S
C733 C749 1.429 . S
C733 H755 0.950 . S
C734 H730 0.949 . S
C734 C742 1.578 . S
C734 C750 1.368 1_565 S
H735 C743 0.950 . S
H736 C741 0.950 . S
H737 C742 0.949 1_554 S
H738 C744 0.950 . S
H739 C745 0.950 . S
H740 C746 0.949 1_556 S
C741 H736 0.950 . S
C741 C743 1.327 . S
C741 C747 1.429 . S
C742 C734 1.578 . S
C742 H737 0.949 1_556 S
C742 C748 1.364 1_556 S
C743 C727 1.349 . S
C743 H735 0.950 . S
C743 C741 1.327 . S
C744 C732 1.349 . S
C744 H738 0.950 . S
C744 C745 1.327 . S
C745 H739 0.950 . S
C745 C744 1.327 . S
C745 C749 1.429 . S
C746 C729 1.578 . S
C746 H740 0.949 1_554 S
C746 C750 1.364 1_554 S
C747 C728 1.429 . S
C747 C741 1.429 . S
C747 C748 1.523 . S
C748 C729 1.368 1_565 S
C748 C742 1.364 1_554 S
C748 C747 1.523 . S
C749 C733 1.429 . S
C749 C745 1.429 . S
C749 C750 1.523 . S
C750 C734 1.368 1_545 S
C750 C746 1.364 1_556 S
C750 C749 1.523 . S
H751 C726 0.950 . S
H752 C728 0.950 . S
H753 C729 0.949 . S
H754 C731 0.950 . S
H755 C733 0.950 . S
C756 C757 1.349 . S
C756 C758 1.327 . S
C756 H781 0.950 . S
C757 C756 1.349 . S
C757 C773 1.349 . S
C758 C756 1.327 . S
C758 C777 1.429 . S
C758 H782 0.950 . S
C759 C776 1.574 . S
C759 C778 1.368 . S
C759 H783 0.949 . S
H760 C764 0.949 . S
C761 C762 1.349 . S
C761 C763 1.327 . S
C761 H784 0.950 . S
C762 C761 1.349 . S
C762 C774 1.349 . S
C763 C761 1.327 . S
C763 C779 1.429 . S
C763 H785 0.950 . S
C764 H760 0.949 . S
C764 C772 1.574 . S
C764 C780 1.368 . S
H765 C773 0.950 . S
H766 C771 0.950 . S
H767 C772 0.949 . S
H768 C774 0.950 . S
H769 C775 0.950 . S
H770 C776 0.949 . S
C771 H766 0.950 . S
C771 C773 1.327 . S
C771 C777 1.429 . S
C772 C764 1.574 . S
C772 H767 0.949 . S
C772 C778 1.368 . S
C773 C757 1.349 . S
C773 H765 0.950 . S
C773 C771 1.327 . S
C774 C762 1.349 . S
C774 H768 0.950 . S
C774 C775 1.327 . S
C775 H769 0.950 . S
C775 C774 1.327 . S
C775 C779 1.429 . S
C776 C759 1.574 . S
C776 H770 0.949 . S
C776 C780 1.368 . S
C777 C758 1.429 . S
C777 C771 1.429 . S
C777 C778 1.523 . S
C778 C759 1.368 . S
C778 C772 1.368 . S
C778 C777 1.523 . S
C779 C763 1.429 . S
C779 C775 1.429 . S
C779 C780 1.523 . S
C780 C764 1.368 . S
C780 C776 1.368 . S
C780 C779 1.523 . S
H781 C756 0.950 . S
H782 C758 0.950 . S
H783 C759 0.949 . S
H784 C761 0.950 . S
H785 C763 0.950 . S
C786 C787 1.349 . S
C786 C788 1.327 . S
C786 H811 0.950 . S
C787 C786 1.349 . S
C787 C803 1.349 . S
C788 C786 1.327 . S
C788 C807 1.429 . S
C788 H812 0.950 . S
C789 C806 1.574 . S
C789 C808 1.368 . S
C789 H813 0.949 . S
H790 C794 0.949 . S
C791 C792 1.349 . S
C791 C793 1.327 . S
C791 H814 0.950 . S
C792 C791 1.349 . S
C792 C804 1.349 . S
C793 C791 1.327 . S
C793 C809 1.429 . S
C793 H815 0.950 . S
C794 H790 0.949 . S
C794 C802 1.574 . S
C794 C810 1.368 . S
H795 C803 0.950 . S
H796 C801 0.950 . S
H797 C802 0.949 . S
H798 C804 0.950 . S
H799 C805 0.950 . S
H800 C806 0.949 . S
C801 H796 0.950 . S
C801 C803 1.327 . S
C801 C807 1.429 . S
C802 C794 1.574 . S
C802 H797 0.949 . S
C802 C808 1.368 1_655 S
C803 C787 1.349 . S
C803 H795 0.950 . S
C803 C801 1.327 . S
C804 C792 1.349 . S
C804 H798 0.950 . S
C804 C805 1.327 . S
C805 H799 0.950 . S
C805 C804 1.327 . S
C805 C809 1.429 . S
C806 C789 1.574 . S
C806 H800 0.949 . S
C806 C810 1.368 1_455 S
C807 C788 1.429 . S
C807 C801 1.429 . S
C807 C808 1.523 . S
C808 C789 1.368 . S
C808 C802 1.368 1_455 S
C808 C807 1.523 . S
C809 C793 1.429 . S
C809 C805 1.429 . S
C809 C810 1.523 . S
C810 C794 1.368 . S
C810 C806 1.368 1_655 S
C810 C809 1.523 . S
H811 C786 0.950 . S
H812 C788 0.950 . S
H813 C789 0.949 . S
H814 C791 0.950 . S
H815 C793 0.950 . S
C816 C817 1.349 . S
C816 C818 1.327 . S
C816 H841 0.950 . S
C817 C816 1.349 . S
C817 C833 1.349 . S
C818 C816 1.327 . S
C818 C837 1.429 . S
C818 H842 0.950 . S
C819 C836 1.516 1_545 S
C819 C838 1.399 . S
C819 H843 0.975 . S
H820 C824 0.975 . S
C821 C822 1.349 . S
C821 C823 1.327 . S
C821 H844 0.950 . S
C822 C821 1.349 . S
C822 C834 1.349 . S
C823 C821 1.327 . S
C823 C839 1.429 . S
C823 H845 0.950 . S
C824 H820 0.975 . S
C824 C832 1.516 1_565 S
C824 C840 1.399 . S
H825 C833 0.950 . S
H826 C831 0.950 . S
H827 C832 0.949 . S
H828 C834 0.950 . S
H829 C835 0.950 . S
H830 C836 0.949 . S
C831 H826 0.950 . S
C831 C833 1.327 . S
C831 C837 1.429 . S
C832 C824 1.516 1_545 S
C832 H827 0.949 . S
C832 C838 1.368 . S
C833 C817 1.349 . S
C833 H825 0.950 . S
C833 C831 1.327 . S
C834 C822 1.349 . S
C834 H828 0.950 . S
C834 C835 1.327 . S
C835 H829 0.950 . S
C835 C834 1.327 . S
C835 C839 1.429 . S
C836 C819 1.516 1_565 S
C836 H830 0.949 . S
C836 C840 1.368 . S
C837 C818 1.429 . S
C837 C831 1.429 . S
C837 C838 1.523 . S
C838 C819 1.399 . S
C838 C832 1.368 . S
C838 C837 1.523 . S
C839 C823 1.429 . S
C839 C835 1.429 . S
C839 C840 1.523 . S
C840 C824 1.399 . S
C840 C836 1.368 . S
C840 C839 1.523 . S
H841 C816 0.950 . S
H842 C818 0.950 . S
H843 C819 0.975 . S
H844 C821 0.950 . S
H845 C823 0.950 . S
C846 C847 1.349 . S
C846 C848 1.327 . S
C846 H871 0.950 . S
C847 C846 1.349 . S
C847 C863 1.349 . S
C848 C846 1.327 . S
C848 C867 1.429 . S
C848 H872 0.950 . S
C849 C866 1.574 . S
C849 C868 1.368 . S
C849 H873 0.949 . S
H850 C854 0.949 . S
C851 C852 1.349 . S
C851 C853 1.327 . S
C851 H874 0.950 . S
C852 C851 1.349 . S
C852 C864 1.349 . S
C853 C851 1.327 . S
C853 C869 1.429 . S
C853 H875 0.950 . S
C854 H850 0.949 . S
C854 C862 1.574 . S
C854 C870 1.368 . S
H855 C863 0.950 . S
H856 C861 0.950 . S
H857 C862 0.949 . S
H858 C864 0.950 . S
H859 C865 0.950 . S
H860 C866 0.949 . S
C861 H856 0.950 . S
C861 C863 1.327 . S
C861 C867 1.429 . S
C862 C854 1.574 . S
C862 H857 0.949 . S
C862 C868 1.368 . S
C863 C847 1.349 . S
C863 H855 0.950 . S
C863 C861 1.327 . S
C864 C852 1.349 . S
C864 H858 0.950 . S
C864 C865 1.327 . S
C865 H859 0.950 . S
C865 C864 1.327 . S
C865 C869 1.429 . S
C866 C849 1.574 . S
C866 H860 0.949 . S
C866 C870 1.368 . S
C867 C848 1.429 . S
C867 C861 1.429 . S
C867 C868 1.523 . S
C868 C849 1.368 . S
C868 C862 1.368 . S
C868 C867 1.523 . S
C869 C853 1.429 . S
C869 C865 1.429 . S
C869 C870 1.523 . S
C870 C854 1.368 . S
C870 C866 1.368 . S
C870 C869 1.523 . S
H871 C846 0.950 . S
H872 C848 0.950 . S
H873 C849 0.949 . S
H874 C851 0.950 . S
H875 C853 0.950 . S
C876 C877 1.349 . S
C876 C878 1.327 . S
C876 H901 0.950 . S
C877 C876 1.349 . S
C877 C893 1.349 . S
C878 C876 1.327 . S
C878 C897 1.429 . S
C878 H902 0.950 . S
C879 C896 1.558 1_655 S
C879 C898 1.406 . S
C879 H903 0.932 . S
H880 C884 0.932 . S
C881 C882 1.349 . S
C881 C883 1.327 . S
C881 H904 0.950 . S
C882 C881 1.349 . S
C882 C894 1.349 . S
C883 C881 1.327 . S
C883 C899 1.429 . S
C883 H905 0.950 . S
C884 H880 0.932 . S
C884 C892 1.558 1_455 S
C884 C900 1.406 . S
H885 C893 0.950 . S
H886 C891 0.950 . S
H887 C892 0.949 . S
H888 C894 0.950 . S
H889 C895 0.950 . S
H890 C896 0.949 . S
C891 H886 0.950 . S
C891 C893 1.327 . S
C891 C897 1.429 . S
C892 C884 1.558 1_655 S
C892 H887 0.949 . S
C892 C898 1.368 . S
C893 C877 1.349 . S
C893 H885 0.950 . S
C893 C891 1.327 . S
C894 C882 1.349 . S
C894 H888 0.950 . S
C894 C895 1.327 . S
C895 H889 0.950 . S
C895 C894 1.327 . S
C895 C899 1.429 . S
C896 C879 1.558 1_455 S
C896 H890 0.949 . S
C896 C900 1.368 . S
C897 C878 1.429 . S
C897 C891 1.429 . S
C897 C898 1.523 . S
C898 C879 1.406 . S
C898 C892 1.368 . S
C898 C897 1.523 . S
C899 C883 1.429 . S
C899 C895 1.429 . S
C899 C900 1.523 . S
C900 C884 1.406 . S
C900 C896 1.368 . S
C900 C899 1.523 . S
H901 C876 0.950 . S
H902 C878 0.950 . S
H903 C879 0.932 . S
H904 C881 0.950 . S
H905 C883 0.950 . S
C906 C907 1.349 . S
C906 C908 1.327 . S
C906 H931 0.950 . S
C907 C906 1.349 . S
C907 C923 1.349 . S
C908 C906 1.327 . S
C908 C927 1.429 . S
C908 H932 0.950 . S
C909 C926 1.516 1_455 S
C909 C928 1.399 . S
C909 H933 0.975 . S
H910 C914 0.975 . S
C911 C912 1.349 . S
C911 C913 1.327 . S
C911 H934 0.950 . S
C912 C911 1.349 . S
C912 C924 1.349 . S
C913 C911 1.327 . S
C913 C929 1.429 . S
C913 H935 0.950 . S
C914 H910 0.975 . S
C914 C922 1.516 1_655 S
C914 C930 1.399 . S
H915 C923 0.950 . S
H916 C921 0.950 . S
H917 C922 0.949 . S
H918 C924 0.950 . S
H919 C925 0.950 . S
H920 C926 0.949 . S
C921 H916 0.950 . S
C921 C923 1.327 . S
C921 C927 1.429 . S
C922 C914 1.516 1_455 S
C922 H917 0.949 . S
C922 C928 1.368 . S
C923 C907 1.349 . S
C923 H915 0.950 . S
C923 C921 1.327 . S
C924 C912 1.349 . S
C924 H918 0.950 . S
C924 C925 1.327 . S
C925 H919 0.950 . S
C925 C924 1.327 . S
C925 C929 1.429 . S
C926 C909 1.516 1_655 S
C926 H920 0.949 . S
C926 C930 1.368 . S
C927 C908 1.429 . S
C927 C921 1.429 . S
C927 C928 1.523 . S
C928 C909 1.399 . S
C928 C922 1.368 . S
C928 C927 1.523 . S
C929 C913 1.429 . S
C929 C925 1.429 . S
C929 C930 1.523 . S
C930 C914 1.399 . S
C930 C926 1.368 . S
C930 C929 1.523 . S
H931 C906 0.950 . S
H932 C908 0.950 . S
H933 C909 0.975 . S
H934 C911 0.950 . S
H935 C913 0.950 . S
C936 C937 1.349 . S
C936 C938 1.327 . S
C936 H961 0.950 . S
C937 C936 1.349 . S
C937 C953 1.349 . S
C938 C936 1.327 . S
C938 C957 1.429 . S
C938 H962 0.950 . S
C939 C956 1.558 1_565 S
C939 C958 1.406 . S
C939 H963 0.932 . S
H940 C944 0.932 . S
C941 C942 1.349 . S
C941 C943 1.327 . S
C941 H964 0.950 . S
C942 C941 1.349 . S
C942 C954 1.349 . S
C943 C941 1.327 . S
C943 C959 1.429 . S
C943 H965 0.950 . S
C944 H940 0.932 . S
C944 C952 1.558 1_545 S
C944 C960 1.406 . S
H945 C953 0.950 . S
H946 C951 0.950 . S
H947 C952 0.949 . S
H948 C954 0.950 . S
H949 C955 0.950 . S
H950 C956 0.949 . S
C951 H946 0.950 . S
C951 C953 1.327 . S
C951 C957 1.429 . S
C952 C944 1.558 1_565 S
C952 H947 0.949 . S
C952 C958 1.368 . S
C953 C937 1.349 . S
C953 H945 0.950 . S
C953 C951 1.327 . S
C954 C942 1.349 . S
C954 H948 0.950 . S
C954 C955 1.327 . S
C955 H949 0.950 . S
C955 C954 1.327 . S
C955 C959 1.429 . S
C956 C939 1.558 1_545 S
C956 H950 0.949 . S
C956 C960 1.368 . S
C957 C938 1.429 . S
C957 C951 1.429 . S
C957 C958 1.523 . S
C958 C939 1.406 . S
C958 C952 1.368 . S
C958 C957 1.523 . S
C959 C943 1.429 . S
C959 C955 1.429 . S
C959 C960 1.523 . S
C960 C944 1.406 . S
C960 C956 1.368 . S
C960 C959 1.523 . S
H961 C936 0.950 . S
H962 C938 0.950 . S
H963 C939 0.932 . S
H964 C941 0.950 . S
H965 C943 0.950 . S
C966 C967 1.349 . S
C966 C968 1.327 . S
C966 H991 0.950 . S
C967 C966 1.349 . S
C967 C983 1.349 . S
C968 C966 1.327 . S
C968 C987 1.429 . S
C968 H992 0.950 . S
C969 C986 1.574 . S
C969 C988 1.368 . S
C969 H993 0.949 . S
H970 C974 0.949 . S
C971 C972 1.349 . S
C971 C973 1.327 . S
C971 H994 0.950 . S
C972 C971 1.349 . S
C972 C984 1.349 . S
C973 C971 1.327 . S
C973 C989 1.429 . S
C973 H995 0.950 . S
C974 H970 0.949 . S
C974 C982 1.574 . S
C974 C990 1.368 . S
H975 C983 0.950 . S
H976 C981 0.950 . S
H977 C982 0.949 . S
H978 C984 0.950 . S
H979 C985 0.950 . S
H980 C986 0.949 . S
C981 H976 0.950 . S
C981 C983 1.327 . S
C981 C987 1.429 . S
C982 C974 1.574 . S
C982 H977 0.949 . S
C982 C988 1.368 . S
C983 C967 1.349 . S
C983 H975 0.950 . S
C983 C981 1.327 . S
C984 C972 1.349 . S
C984 H978 0.950 . S
C984 C985 1.327 . S
C985 H979 0.950 . S
C985 C984 1.327 . S
C985 C989 1.429 . S
C986 C969 1.574 . S
C986 H980 0.949 . S
C986 C990 1.368 . S
C987 C968 1.429 . S
C987 C981 1.429 . S
C987 C988 1.523 . S
C988 C969 1.368 . S
C988 C982 1.368 . S
C988 C987 1.523 . S
C989 C973 1.429 . S
C989 C985 1.429 . S
C989 C990 1.523 . S
C990 C974 1.368 . S
C990 C986 1.368 . S
C990 C989 1.523 . S
H991 C966 0.950 . S
H992 C968 0.950 . S
H993 C969 0.949 . S
H994 C971 0.950 . S
H995 C973 0.950 . S
C996 C997 1.349 . S
C996 C998 1.327 . S
C996 H1021 0.950 . S
C997 C996 1.349 . S
C997 C1013 1.349 . S
C998 C996 1.327 . S
C998 C1017 1.429 . S
C998 H1022 0.950 . S
C999 C1016 1.574 . S
C999 C1018 1.368 . S
C999 H1023 0.949 . S
H1000 C1004 0.949 . S
C1001 C1002 1.349 . S
C1001 C1003 1.327 . S
C1001 H1024 0.950 . S
C1002 C1001 1.349 . S
C1002 C1014 1.349 . S
C1003 C1001 1.327 . S
C1003 C1019 1.429 . S
C1003 H1025 0.950 . S
C1004 H1000 0.949 . S
C1004 C1012 1.574 . S
C1004 C1020 1.368 . S
H1005 C1013 0.950 . S
H1006 C1011 0.950 . S
H1007 C1012 0.949 . S
H1008 C1014 0.950 . S
H1009 C1015 0.950 . S
H1010 C1016 0.949 . S
C1011 H1006 0.950 . S
C1011 C1013 1.327 . S
C1011 C1017 1.429 . S
C1012 C1004 1.574 . S
C1012 H1007 0.949 . S
C1012 C1018 1.368 1_545 S
C1013 C997 1.349 . S
C1013 H1005 0.950 . S
C1013 C1011 1.327 . S
C1014 C1002 1.349 . S
C1014 H1008 0.950 . S
C1014 C1015 1.327 . S
C1015 H1009 0.950 . S
C1015 C1014 1.327 . S
C1015 C1019 1.429 . S
C1016 C999 1.574 . S
C1016 H1010 0.949 . S
C1016 C1020 1.368 1_565 S
C1017 C998 1.429 . S
C1017 C1011 1.429 . S
C1017 C1018 1.523 . S
C1018 C999 1.368 . S
C1018 C1012 1.368 1_565 S
C1018 C1017 1.523 . S
C1019 C1003 1.429 . S
C1019 C1015 1.429 . S
C1019 C1020 1.523 . S
C1020 C1004 1.368 . S
C1020 C1016 1.368 1_545 S
C1020 C1019 1.523 . S
H1021 C996 0.950 . S
H1022 C998 0.950 . S
H1023 C999 0.949 . S
H1024 C1001 0.950 . S
H1025 C1003 0.950 . S
C1026 C1027 1.349 . S
C1026 C1028 1.327 . S
C1026 H1051 0.950 . S
C1027 C1026 1.349 . S
C1027 C1043 1.349 . S
C1028 C1026 1.327 . S
C1028 C1047 1.429 . S
C1028 H1052 0.950 . S
C1029 C1046 1.574 . S
C1029 C1048 1.368 . S
C1029 H1053 0.949 . S
H1030 C1034 0.949 . S
C1031 C1032 1.349 . S
C1031 C1033 1.327 . S
C1031 H1054 0.950 . S
C1032 C1031 1.349 . S
C1032 C1044 1.349 . S
C1033 C1031 1.327 . S
C1033 C1049 1.429 . S
C1033 H1055 0.950 . S
C1034 H1030 0.949 . S
C1034 C1042 1.574 . S
C1034 C1050 1.368 . S
H1035 C1043 0.950 . S
H1036 C1041 0.950 . S
H1037 C1042 0.949 . S
H1038 C1044 0.950 . S
H1039 C1045 0.950 . S
H1040 C1046 0.949 . S
C1041 H1036 0.950 . S
C1041 C1043 1.327 . S
C1041 C1047 1.429 . S
C1042 C1034 1.574 . S
C1042 H1037 0.949 . S
C1042 C1048 1.368 . S
C1043 C1027 1.349 . S
C1043 H1035 0.950 . S
C1043 C1041 1.327 . S
C1044 C1032 1.349 . S
C1044 H1038 0.950 . S
C1044 C1045 1.327 . S
C1045 H1039 0.950 . S
C1045 C1044 1.327 . S
C1045 C1049 1.429 . S
C1046 C1029 1.574 . S
C1046 H1040 0.949 . S
C1046 C1050 1.368 . S
C1047 C1028 1.429 . S
C1047 C1041 1.429 . S
C1047 C1048 1.523 . S
C1048 C1029 1.368 . S
C1048 C1042 1.368 . S
C1048 C1047 1.523 . S
C1049 C1033 1.429 . S
C1049 C1045 1.429 . S
C1049 C1050 1.523 . S
C1050 C1034 1.368 . S
C1050 C1046 1.368 . S
C1050 C1049 1.523 . S
H1051 C1026 0.950 . S
H1052 C1028 0.950 . S
H1053 C1029 0.949 . S
H1054 C1031 0.950 . S
H1055 C1033 0.950 . S
C1056 C1057 1.349 . S
C1056 C1058 1.327 . S
C1056 H1081 0.950 1_554 S
C1057 C1056 1.349 . S
C1057 C1073 1.349 . S
C1058 C1056 1.327 . S
C1058 C1077 1.429 . S
C1058 H1082 0.950 . S
C1059 C1076 1.574 . S
C1059 C1078 1.368 . S
C1059 H1083 0.949 . S
H1060 C1064 0.949 . S
C1061 C1062 1.349 . S
C1061 C1063 1.327 . S
C1061 H1084 0.950 . S
C1062 C1061 1.349 . S
C1062 C1074 1.349 . S
C1063 C1061 1.327 . S
C1063 C1079 1.429 . S
C1063 H1085 0.950 . S
C1064 H1060 0.949 . S
C1064 C1072 1.574 . S
C1064 C1080 1.368 . S
H1065 C1073 0.950 . S
H1066 C1071 0.950 . S
H1067 C1072 0.949 . S
H1068 C1074 0.950 . S
H1069 C1075 0.950 . S
H1070 C1076 0.949 . S
C1071 H1066 0.950 . S
C1071 C1073 1.327 . S
C1071 C1077 1.429 . S
C1072 C1064 1.574 . S
C1072 H1067 0.949 . S
C1072 C1078 1.368 1_455 S
C1073 C1057 1.349 . S
C1073 H1065 0.950 . S
C1073 C1071 1.327 . S
C1074 C1062 1.349 . S
C1074 H1068 0.950 . S
C1074 C1075 1.327 . S
C1075 H1069 0.950 . S
C1075 C1074 1.327 . S
C1075 C1079 1.429 . S
C1076 C1059 1.574 . S
C1076 H1070 0.949 . S
C1076 C1080 1.368 1_655 S
C1077 C1058 1.429 . S
C1077 C1071 1.429 . S
C1077 C1078 1.523 . S
C1078 C1059 1.368 . S
C1078 C1072 1.368 1_655 S
C1078 C1077 1.523 . S
C1079 C1063 1.429 . S
C1079 C1075 1.429 . S
C1079 C1080 1.523 . S
C1080 C1064 1.368 . S
C1080 C1076 1.368 1_455 S
C1080 C1079 1.523 . S
H1081 C1056 0.950 1_556 S
H1082 C1058 0.950 . S
H1083 C1059 0.949 . S
H1084 C1061 0.950 . S
H1085 C1063 0.950 . S
C1086 C1087 1.349 . S
C1086 C1088 1.327 . S
C1086 H1111 0.950 . S
C1087 C1086 1.349 . S
C1087 C1103 1.349 . S
C1088 C1086 1.327 . S
C1088 C1107 1.429 . S
C1088 H1112 0.950 . S
C1089 C1106 1.574 . S
C1089 C1108 1.368 1_565 S
C1089 H1113 0.949 . S
H1090 C1094 0.949 . S
C1091 C1092 1.349 . S
C1091 C1093 1.327 . S
C1091 H1114 0.950 . S
C1092 C1091 1.349 . S
C1092 C1104 1.349 . S
C1093 C1091 1.327 . S
C1093 C1109 1.429 . S
C1093 H1115 0.950 . S
C1094 H1090 0.949 . S
C1094 C1102 1.574 . S
C1094 C1110 1.368 1_545 S
H1095 C1103 0.950 . S
H1096 C1101 0.950 . S
H1097 C1102 0.949 . S
H1098 C1104 0.950 . S
H1099 C1105 0.950 . S
H1100 C1106 0.949 . S
C1101 H1096 0.950 . S
C1101 C1103 1.327 . S
C1101 C1107 1.429 . S
C1102 C1094 1.574 . S
C1102 H1097 0.949 . S
C1102 C1108 1.368 . S
C1103 C1087 1.349 . S
C1103 H1095 0.950 . S
C1103 C1101 1.327 . S
C1104 C1092 1.349 . S
C1104 H1098 0.950 . S
C1104 C1105 1.327 . S
C1105 H1099 0.950 . S
C1105 C1104 1.327 . S
C1105 C1109 1.429 . S
C1106 C1089 1.574 . S
C1106 H1100 0.949 . S
C1106 C1110 1.368 . S
C1107 C1088 1.429 . S
C1107 C1101 1.429 . S
C1107 C1108 1.523 . S
C1108 C1089 1.368 1_545 S
C1108 C1102 1.368 . S
C1108 C1107 1.523 . S
C1109 C1093 1.429 . S
C1109 C1105 1.429 . S
C1109 C1110 1.523 . S
C1110 C1094 1.368 1_565 S
C1110 C1106 1.368 . S
C1110 C1109 1.523 . S
H1111 C1086 0.950 . S
H1112 C1088 0.950 . S
H1113 C1089 0.949 . S
H1114 C1091 0.950 . S
H1115 C1093 0.950 . S
C1116 C1117 1.349 . S
C1116 C1118 1.327 . S
C1116 H1141 0.950 . S
C1117 C1116 1.349 . S
C1117 C1133 1.349 . S
C1118 C1116 1.327 . S
C1118 C1137 1.429 . S
C1118 H1142 0.950 . S
C1119 C1136 1.574 . S
C1119 C1138 1.368 . S
C1119 H1143 0.949 . S
H1120 C1124 0.949 . S
C1121 C1122 1.349 . S
C1121 C1123 1.327 . S
C1121 H1144 0.950 . S
C1122 C1121 1.349 . S
C1122 C1134 1.349 . S
C1123 C1121 1.327 . S
C1123 C1139 1.429 . S
C1123 H1145 0.950 . S
C1124 H1120 0.949 . S
C1124 C1132 1.574 . S
C1124 C1140 1.368 . S
H1125 C1133 0.950 . S
H1126 C1131 0.950 . S
H1127 C1132 0.949 . S
H1128 C1134 0.950 . S
H1129 C1135 0.950 . S
H1130 C1136 0.949 . S
C1131 H1126 0.950 . S
C1131 C1133 1.327 . S
C1131 C1137 1.429 . S
C1132 C1124 1.574 . S
C1132 H1127 0.949 . S
C1132 C1138 1.368 . S
C1133 C1117 1.349 . S
C1133 H1125 0.950 . S
C1133 C1131 1.327 . S
C1134 C1122 1.349 . S
C1134 H1128 0.950 . S
C1134 C1135 1.327 . S
C1135 H1129 0.950 . S
C1135 C1134 1.327 . S
C1135 C1139 1.429 . S
C1136 C1119 1.574 . S
C1136 H1130 0.949 . S
C1136 C1140 1.368 . S
C1137 C1118 1.429 . S
C1137 C1131 1.429 . S
C1137 C1138 1.523 . S
C1138 C1119 1.368 . S
C1138 C1132 1.368 . S
C1138 C1137 1.523 . S
C1139 C1123 1.429 . S
C1139 C1135 1.429 . S
C1139 C1140 1.523 . S
C1140 C1124 1.368 . S
C1140 C1136 1.368 . S
C1140 C1139 1.523 . S
H1141 C1116 0.950 . S
H1142 C1118 0.950 . S
H1143 C1119 0.949 . S
H1144 C1121 0.950 . S
H1145 C1123 0.950 . S
C1146 C1147 1.349 . S
C1146 C1148 1.327 . S
C1146 H1171 0.950 . S
C1147 C1146 1.349 . S
C1147 C1163 1.349 . S
C1148 C1146 1.327 . S
C1148 C1167 1.429 . S
C1148 H1172 0.950 . S
C1149 C1166 1.574 1_455 S
C1149 C1168 1.368 . S
C1149 H1173 0.949 . S
H1150 C1154 0.949 . S
C1151 C1152 1.349 . S
C1151 C1153 1.327 . S
C1151 H1174 0.950 . S
C1152 C1151 1.349 . S
C1152 C1164 1.349 . S
C1153 C1151 1.327 . S
C1153 C1169 1.429 . S
C1153 H1175 0.950 . S
C1154 H1150 0.949 . S
C1154 C1162 1.574 1_655 S
C1154 C1170 1.368 . S
H1155 C1163 0.950 . S
H1156 C1161 0.950 . S
H1157 C1162 0.949 . S
H1158 C1164 0.950 . S
H1159 C1165 0.950 . S
H1160 C1166 0.949 . S
C1161 H1156 0.950 . S
C1161 C1163 1.327 . S
C1161 C1167 1.429 . S
C1162 C1154 1.574 1_455 S
C1162 H1157 0.949 . S
C1162 C1168 1.368 . S
C1163 C1147 1.349 . S
C1163 H1155 0.950 . S
C1163 C1161 1.327 . S
C1164 C1152 1.349 . S
C1164 H1158 0.950 . S
C1164 C1165 1.327 . S
C1165 H1159 0.950 . S
C1165 C1164 1.327 . S
C1165 C1169 1.429 . S
C1166 C1149 1.574 1_655 S
C1166 H1160 0.949 . S
C1166 C1170 1.368 . S
C1167 C1148 1.429 . S
C1167 C1161 1.429 . S
C1167 C1168 1.523 . S
C1168 C1149 1.368 . S
C1168 C1162 1.368 . S
C1168 C1167 1.523 . S
C1169 C1153 1.429 . S
C1169 C1165 1.429 . S
C1169 C1170 1.523 . S
C1170 C1154 1.368 . S
C1170 C1166 1.368 . S
C1170 C1169 1.523 . S
H1171 C1146 0.950 . S
H1172 C1148 0.950 . S
H1173 C1149 0.949 . S
H1174 C1151 0.950 . S
H1175 C1153 0.950 . S
C1176 C1177 1.349 . S
C1176 C1178 1.327 . S
C1176 H1201 0.950 . S
C1177 C1176 1.349 . S
C1177 C1193 1.349 . S
C1178 C1176 1.327 . S
C1178 C1197 1.429 . S
C1178 H1202 0.950 . S
C1179 C1196 1.574 . S
C1179 C1198 1.368 . S
C1179 H1203 0.949 . S
H1180 C1184 0.949 . S
C1181 C1182 1.349 . S
C1181 C1183 1.327 . S
C1181 H1204 0.950 . S
C1182 C1181 1.349 . S
C1182 C1194 1.349 . S
C1183 C1181 1.327 . S
C1183 C1199 1.429 . S
C1183 H1205 0.950 . S
C1184 H1180 0.949 . S
C1184 C1192 1.574 . S
C1184 C1200 1.368 . S
H1185 C1193 0.950 . S
H1186 C1191 0.950 . S
H1187 C1192 0.949 . S
H1188 C1194 0.950 . S
H1189 C1195 0.950 . S
H1190 C1196 0.949 . S
C1191 H1186 0.950 . S
C1191 C1193 1.327 . S
C1191 C1197 1.429 . S
C1192 C1184 1.574 . S
C1192 H1187 0.949 . S
C1192 C1198 1.368 . S
C1193 C1177 1.349 . S
C1193 H1185 0.950 . S
C1193 C1191 1.327 . S
C1194 C1182 1.349 . S
C1194 H1188 0.950 . S
C1194 C1195 1.327 . S
C1195 H1189 0.950 . S
C1195 C1194 1.327 . S
C1195 C1199 1.429 . S
C1196 C1179 1.574 . S
C1196 H1190 0.949 . S
C1196 C1200 1.368 . S
C1197 C1178 1.429 . S
C1197 C1191 1.429 . S
C1197 C1198 1.523 . S
C1198 C1179 1.368 . S
C1198 C1192 1.368 . S
C1198 C1197 1.523 . S
C1199 C1183 1.429 . S
C1199 C1195 1.429 . S
C1199 C1200 1.523 . S
C1200 C1184 1.368 . S
C1200 C1196 1.368 . S
C1200 C1199 1.523 . S
H1201 C1176 0.950 . S
H1202 C1178 0.950 . S
H1203 C1179 0.949 . S
H1204 C1181 0.950 . S
H1205 C1183 0.950 . S
C1206 C1207 1.349 . S
C1206 C1208 1.327 . S
C1206 H1231 0.950 . S
C1207 C1206 1.349 . S
C1207 C1223 1.349 . S
C1208 C1206 1.327 . S
C1208 C1227 1.429 . S
C1208 H1232 0.950 . S
C1209 C1226 1.574 . S
C1209 C1228 1.368 . S
C1209 H1233 0.949 . S
H1210 C1214 0.949 . S
C1211 C1212 1.349 . S
C1211 C1213 1.327 . S
C1211 H1234 0.950 . S
C1212 C1211 1.349 . S
C1212 C1224 1.349 . S
C1213 C1211 1.327 . S
C1213 C1229 1.429 . S
C1213 H1235 0.950 . S
C1214 H1210 0.949 . S
C1214 C1222 1.574 . S
C1214 C1230 1.368 . S
H1215 C1223 0.950 . S
H1216 C1221 0.950 . S
H1217 C1222 0.949 . S
H1218 C1224 0.950 . S
H1219 C1225 0.950 . S
H1220 C1226 0.949 . S
C1221 H1216 0.950 . S
C1221 C1223 1.327 . S
C1221 C1227 1.429 . S
C1222 C1214 1.574 . S
C1222 H1217 0.949 . S
C1222 C1228 1.368 . S
C1223 C1207 1.349 . S
C1223 H1215 0.950 . S
C1223 C1221 1.327 . S
C1224 C1212 1.349 . S
C1224 H1218 0.950 . S
C1224 C1225 1.327 . S
C1225 H1219 0.950 . S
C1225 C1224 1.327 . S
C1225 C1229 1.429 . S
C1226 C1209 1.574 . S
C1226 H1220 0.949 . S
C1226 C1230 1.368 . S
C1227 C1208 1.429 . S
C1227 C1221 1.429 . S
C1227 C1228 1.523 . S
C1228 C1209 1.368 . S
C1228 C1222 1.368 . S
C1228 C1227 1.523 . S
C1229 C1213 1.429 . S
C1229 C1225 1.429 . S
C1229 C1230 1.523 . S
C1230 C1214 1.368 . S
C1230 C1226 1.368 . S
C1230 C1229 1.523 . S
H1231 C1206 0.950 . S
H1232 C1208 0.950 . S
H1233 C1209 0.949 . S
H1234 C1211 0.950 . S
H1235 C1213 0.950 . S
C1236 C1237 1.349 . S
C1236 C1238 1.327 . S
C1236 H1261 0.950 1_554 S
C1237 C1236 1.349 . S
C1237 C1253 1.349 . S
C1238 C1236 1.327 . S
C1238 C1257 1.429 . S
C1238 H1262 0.950 . S
C1239 C1256 1.574 . S
C1239 C1258 1.368 . S
C1239 H1263 0.949 . S
H1240 C1244 0.949 . S
C1241 C1242 1.349 . S
C1241 C1243 1.327 . S
C1241 H1264 0.950 . S
C1242 C1241 1.349 . S
C1242 C1254 1.349 . S
C1243 C1241 1.327 . S
C1243 C1259 1.429 . S
C1243 H1265 0.950 . S
C1244 H1240 0.949 . S
C1244 C1252 1.574 . S
C1244 C1260 1.368 . S
H1245 C1253 0.950 . S
H1246 C1251 0.950 . S
H1247 C1252 0.949 . S
H1248 C1254 0.950 . S
H1249 C1255 0.950 . S
H1250 C1256 0.949 . S
C1251 H1246 0.950 . S
C1251 C1253 1.327 . S
C1251 C1257 1.429 . S
C1252 C1244 1.574 . S
C1252 H1247 0.949 . S
C1252 C1258 1.368 . S
C1253 C1237 1.349 . S
C1253 H1245 0.950 . S
C1253 C1251 1.327 . S
C1254 C1242 1.349 . S
C1254 H1248 0.950 . S
C1254 C1255 1.327 . S
C1255 H1249 0.950 . S
C1255 C1254 1.327 . S
C1255 C1259 1.429 . S
C1256 C1239 1.574 . S
C1256 H1250 0.949 . S
C1256 C1260 1.368 . S
C1257 C1238 1.429 . S
C1257 C1251 1.429 . S
C1257 C1258 1.523 . S
C1258 C1239 1.368 . S
C1258 C1252 1.368 . S
C1258 C1257 1.523 . S
C1259 C1243 1.429 . S
C1259 C1255 1.429 . S
C1259 C1260 1.523 . S
C1260 C1244 1.368 . S
C1260 C1256 1.368 . S
C1260 C1259 1.523 . S
H1261 C1236 0.950 1_556 S
H1262 C1238 0.950 . S
H1263 C1239 0.949 . S
H1264 C1241 0.950 . S
H1265 C1243 0.950 . S
C1266 C1267 1.349 . S
C1266 C1268 1.327 . S
C1266 H1291 0.950 . S
C1267 C1266 1.349 . S
C1267 C1283 1.349 . S
C1268 C1266 1.327 . S
C1268 C1287 1.429 . S
C1268 H1292 0.950 . S
C1269 C1286 1.574 . S
C1269 C1288 1.368 . S
C1269 H1293 0.949 . S
H1270 C1274 0.949 . S
C1271 C1272 1.349 . S
C1271 C1273 1.327 . S
C1271 H1294 0.950 . S
C1272 C1271 1.349 . S
C1272 C1284 1.349 . S
C1273 C1271 1.327 . S
C1273 C1289 1.429 . S
C1273 H1295 0.950 . S
C1274 H1270 0.949 . S
C1274 C1282 1.574 . S
C1274 C1290 1.368 . S
H1275 C1283 0.950 . S
H1276 C1281 0.950 . S
H1277 C1282 0.949 . S
H1278 C1284 0.950 . S
H1279 C1285 0.950 . S
H1280 C1286 0.949 . S
C1281 H1276 0.950 . S
C1281 C1283 1.327 . S
C1281 C1287 1.429 . S
C1282 C1274 1.574 . S
C1282 H1277 0.949 . S
C1282 C1288 1.368 . S
C1283 C1267 1.349 . S
C1283 H1275 0.950 . S
C1283 C1281 1.327 . S
C1284 C1272 1.349 . S
C1284 H1278 0.950 . S
C1284 C1285 1.327 . S
C1285 H1279 0.950 . S
C1285 C1284 1.327 . S
C1285 C1289 1.429 . S
C1286 C1269 1.574 . S
C1286 H1280 0.949 . S
C1286 C1290 1.368 . S
C1287 C1268 1.429 . S
C1287 C1281 1.429 . S
C1287 C1288 1.523 . S
C1288 C1269 1.368 . S
C1288 C1282 1.368 . S
C1288 C1287 1.523 . S
C1289 C1273 1.429 . S
C1289 C1285 1.429 . S
C1289 C1290 1.523 . S
C1290 C1274 1.368 . S
C1290 C1286 1.368 . S
C1290 C1289 1.523 . S
H1291 C1266 0.950 . S
H1292 C1268 0.950 . S
H1293 C1269 0.949 . S
H1294 C1271 0.950 . S
H1295 C1273 0.950 . S
C1296 C1297 1.349 . S
C1296 C1298 1.327 . S
C1296 H1321 0.950 . S
C1297 C1296 1.349 . S
C1297 C1313 1.349 . S
C1298 C1296 1.327 . S
C1298 C1317 1.429 . S
C1298 H1322 0.950 . S
C1299 C1316 1.574 . S
C1299 C1318 1.368 . S
C1299 H1323 0.949 . S
H1300 C1304 0.949 . S
C1301 C1302 1.349 . S
C1301 C1303 1.327 . S
C1301 H1324 0.950 . S
C1302 C1301 1.349 . S
C1302 C1314 1.349 . S
C1303 C1301 1.327 . S
C1303 C1319 1.429 . S
C1303 H1325 0.950 . S
C1304 H1300 0.949 . S
C1304 C1312 1.574 . S
C1304 C1320 1.368 . S
H1305 C1313 0.950 . S
H1306 C1311 0.950 . S
H1307 C1312 0.949 . S
H1308 C1314 0.950 . S
H1309 C1315 0.950 . S
H1310 C1316 0.949 . S
C1311 H1306 0.950 . S
C1311 C1313 1.327 . S
C1311 C1317 1.429 . S
C1312 C1304 1.574 . S
C1312 H1307 0.949 . S
C1312 C1318 1.368 . S
C1313 C1297 1.349 . S
C1313 H1305 0.950 . S
C1313 C1311 1.327 . S
C1314 C1302 1.349 . S
C1314 H1308 0.950 . S
C1314 C1315 1.327 . S
C1315 H1309 0.950 . S
C1315 C1314 1.327 . S
C1315 C1319 1.429 . S
C1316 C1299 1.574 . S
C1316 H1310 0.949 . S
C1316 C1320 1.368 . S
C1317 C1298 1.429 . S
C1317 C1311 1.429 . S
C1317 C1318 1.523 . S
C1318 C1299 1.368 . S
C1318 C1312 1.368 . S
C1318 C1317 1.523 . S
C1319 C1303 1.429 . S
C1319 C1315 1.429 . S
C1319 C1320 1.523 . S
C1320 C1304 1.368 . S
C1320 C1316 1.368 . S
C1320 C1319 1.523 . S
H1321 C1296 0.950 . S
H1322 C1298 0.950 . S
H1323 C1299 0.949 . S
H1324 C1301 0.950 . S
H1325 C1303 0.950 . S
C1326 C1327 1.349 . S
C1326 C1328 1.327 . S
C1326 H1351 0.950 . S
C1327 C1326 1.349 . S
C1327 C1343 1.349 . S
C1328 C1326 1.327 . S
C1328 C1347 1.429 . S
C1328 H1352 0.950 . S
C1329 C1346 1.574 . S
C1329 C1348 1.368 . S
C1329 H1353 0.949 . S
H1330 C1334 0.949 . S
C1331 C1332 1.349 . S
C1331 C1333 1.327 . S
C1331 H1354 0.950 . S
C1332 C1331 1.349 . S
C1332 C1344 1.349 . S
C1333 C1331 1.327 . S
C1333 C1349 1.429 . S
C1333 H1355 0.950 . S
C1334 H1330 0.949 . S
C1334 C1342 1.574 . S
C1334 C1350 1.368 . S
H1335 C1343 0.950 . S
H1336 C1341 0.950 . S
H1337 C1342 0.949 . S
H1338 C1344 0.950 . S
H1339 C1345 0.950 . S
H1340 C1346 0.949 . S
C1341 H1336 0.950 . S
C1341 C1343 1.327 . S
C1341 C1347 1.429 . S
C1342 C1334 1.574 . S
C1342 H1337 0.949 . S
C1342 C1348 1.368 . S
C1343 C1327 1.349 . S
C1343 H1335 0.950 . S
C1343 C1341 1.327 . S
C1344 C1332 1.349 . S
C1344 H1338 0.950 . S
C1344 C1345 1.327 . S
C1345 H1339 0.950 . S
C1345 C1344 1.327 . S
C1345 C1349 1.429 . S
C1346 C1329 1.574 . S
C1346 H1340 0.949 . S
C1346 C1350 1.368 . S
C1347 C1328 1.429 . S
C1347 C1341 1.429 . S
C1347 C1348 1.523 . S
C1348 C1329 1.368 . S
C1348 C1342 1.368 . S
C1348 C1347 1.523 . S
C1349 C1333 1.429 . S
C1349 C1345 1.429 . S
C1349 C1350 1.523 . S
C1350 C1334 1.368 . S
C1350 C1346 1.368 . S
C1350 C1349 1.523 . S
H1351 C1326 0.950 . S
H1352 C1328 0.950 . S
H1353 C1329 0.949 . S
H1354 C1331 0.950 . S
H1355 C1333 0.950 . S
C277 C20 0.623 . S
C282 C204 0.623 . S
C307 C43 0.623 . S
C312 C227 0.623 . S
C337 C66 0.623 . S
C342 C250 0.623 . S
C367 C273 0.623 . S
C372 C89 0.623 . S
C397 C112 0.623 . S
C402 C158 0.623 . S
C427 C181 0.623 . S
C432 C135 0.623 . S
C457 C247 0.887 . S
C462 C17 0.887 . S
C487 C270 0.887 . S
C492 C40 0.887 . S
C517 C63 0.887 . S
C522 C155 0.887 . S
C547 C178 0.887 . S
C552 C86 0.887 . S
C577 C201 0.887 . S
C582 C109 0.887 . S
C607 C132 0.887 . S
C612 C224 0.887 . S
C637 C182 1.124 . S
C642 C21 1.124 . S
C667 C205 1.124 . S
C672 C44 1.124 . S
C697 C228 1.124 . S
C702 C67 1.124 . S
C727 C90 1.124 . S
C732 C251 1.124 . S
C757 C113 1.124 . S
C762 C274 1.124 . S
C787 C136 1.124 . S
C792 C159 1.124 . S
C817 C19 0.700 . S
C822 C88 0.700 . S
C847 C42 0.700 . S
C852 C111 0.700 . S
C877 C65 0.700 . S
C882 C134 0.700 . S
C907 C226 0.700 . S
C912 C157 0.700 . S
C937 C180 0.700 . S
C942 C249 0.700 . S
C967 C272 0.700 . S
C972 C203 0.700 . S
C997 C177 1.335 . S
C1002 C16 1.335 . S
C1027 C200 1.335 1_556 S
C1032 C39 1.335 . S
C1057 C62 1.335 1_554 S
C1062 C223 1.335 . S
C1087 C246 1.335 . S
C1092 C85 1.335 . S
C1117 C269 1.335 1_556 S
C1122 C108 1.335 . S
C1147 C131 1.335 1_554 S
C1152 C154 1.335 . S
C1177 C18 1.443 . S
C1182 C248 1.443 . S
C1207 C41 1.444 . S
C1212 C271 1.444 1_556 S
C1237 C64 1.443 1_554 S
C1242 C156 1.443 . S
C1267 C87 1.443 . S
C1272 C179 1.443 . S
C1297 C110 1.444 . S
C1302 C202 1.444 1_556 S
C1327 C225 1.443 . S
C1332 C133 1.443 1_554 S
