# Generated by pormake.
# Topology ukk, (4)-cn, num edge types: 1
# Building blocks:
#     Node 0, Type 0, BuildingBlock: ESEHIV_clean_sbu_0, # of connection points: 4
#     Node 1, Type 0, BuildingBlock: ESEHIV_clean_sbu_0, # of connection points: 4
#     Node 2, Type 0, BuildingBlock: ESEHIV_clean_sbu_0, # of connection points: 4
#     Node 3, Type 0, BuildingBlock: ESEHIV_clean_sbu_0, # of connection points: 4
#     Node 4, Type 0, BuildingBlock: ESEHIV_clean_sbu_0, # of connection points: 4
#     Node 5, Type 0, BuildingBlock: ESEHIV_clean_sbu_0, # of connection points: 4
#     Node 6, Type 0, BuildingBlock: ESEHIV_clean_sbu_0, # of connection points: 4
#     Node 7, Type 0, BuildingBlock: ESEHIV_clean_sbu_0, # of connection points: 4
#     Node 8, Type 0, BuildingBlock: ESEHIV_clean_sbu_0, # of connection points: 4
#     Node 9, Type 0, BuildingBlock: ESEHIV_clean_sbu_0, # of connection points: 4
#     Node 10, Type 0, BuildingBlock: ESEHIV_clean_sbu_0, # of connection points: 4
#     Node 11, Type 0, BuildingBlock: ESEHIV_clean_sbu_0, # of connection points: 4
#     Node 12, Type 0, BuildingBlock: ESEHIV_clean_sbu_0, # of connection points: 4
#     Node 13, Type 0, BuildingBlock: ESEHIV_clean_sbu_0, # of connection points: 4
#     Node 14, Type 0, BuildingBlock: ESEHIV_clean_sbu_0, # of connection points: 4
#     Node 15, Type 0, BuildingBlock: ESEHIV_clean_sbu_0, # of connection points: 4
#     Edge 16, Type (0, 0), BuildingBlock: ZUJKAS_clean_linker_0, # of connection points: 2
#     Edge 17, Type (0, 0), BuildingBlock: ZUJKAS_clean_linker_0, # of connection points: 2
#     Edge 18, Type (0, 0), BuildingBlock: ZUJKAS_clean_linker_0, # of connection points: 2
#     Edge 19, Type (0, 0), BuildingBlock: ZUJKAS_clean_linker_0, # of connection points: 2
#     Edge 20, Type (0, 0), BuildingBlock: ZUJKAS_clean_linker_0, # of connection points: 2
#     Edge 21, Type (0, 0), BuildingBlock: ZUJKAS_clean_linker_0, # of connection points: 2
#     Edge 22, Type (0, 0), BuildingBlock: ZUJKAS_clean_linker_0, # of connection points: 2
#     Edge 23, Type (0, 0), BuildingBlock: ZUJKAS_clean_linker_0, # of connection points: 2
#     Edge 24, Type (0, 0), BuildingBlock: ZUJKAS_clean_linker_0, # of connection points: 2
#     Edge 25, Type (0, 0), BuildingBlock: ZUJKAS_clean_linker_0, # of connection points: 2
#     Edge 26, Type (0, 0), BuildingBlock: ZUJKAS_clean_linker_0, # of connection points: 2
#     Edge 27, Type (0, 0), BuildingBlock: ZUJKAS_clean_linker_0, # of connection points: 2
#     Edge 28, Type (0, 0), BuildingBlock: ZUJKAS_clean_linker_0, # of connection points: 2
#     Edge 29, Type (0, 0), BuildingBlock: ZUJKAS_clean_linker_0, # of connection points: 2
#     Edge 30, Type (0, 0), BuildingBlock: ZUJKAS_clean_linker_0, # of connection points: 2
#     Edge 31, Type (0, 0), BuildingBlock: ZUJKAS_clean_linker_0, # of connection points: 2
#     Edge 32, Type (0, 0), BuildingBlock: ZUJKAS_clean_linker_0, # of connection points: 2
#     Edge 33, Type (0, 0), BuildingBlock: ZUJKAS_clean_linker_0, # of connection points: 2
#     Edge 34, Type (0, 0), BuildingBlock: ZUJKAS_clean_linker_0, # of connection points: 2
#     Edge 35, Type (0, 0), BuildingBlock: ZUJKAS_clean_linker_0, # of connection points: 2
#     Edge 36, Type (0, 0), BuildingBlock: ZUJKAS_clean_linker_0, # of connection points: 2
#     Edge 37, Type (0, 0), BuildingBlock: ZUJKAS_clean_linker_0, # of connection points: 2
#     Edge 38, Type (0, 0), BuildingBlock: ZUJKAS_clean_linker_0, # of connection points: 2
#     Edge 39, Type (0, 0), BuildingBlock: ZUJKAS_clean_linker_0, # of connection points: 2
#     Edge 40, Type (0, 0), BuildingBlock: ZUJKAS_clean_linker_0, # of connection points: 2
#     Edge 41, Type (0, 0), BuildingBlock: ZUJKAS_clean_linker_0, # of connection points: 2
#     Edge 42, Type (0, 0), BuildingBlock: ZUJKAS_clean_linker_0, # of connection points: 2
#     Edge 43, Type (0, 0), BuildingBlock: ZUJKAS_clean_linker_0, # of connection points: 2
#     Edge 44, Type (0, 0), BuildingBlock: ZUJKAS_clean_linker_0, # of connection points: 2
#     Edge 45, Type (0, 0), BuildingBlock: ZUJKAS_clean_linker_0, # of connection points: 2
#     Edge 46, Type (0, 0), BuildingBlock: ZUJKAS_clean_linker_0, # of connection points: 2
#     Edge 47, Type (0, 0), BuildingBlock: ZUJKAS_clean_linker_0, # of connection points: 2
# Relax obj value: 0.045
# Max RMSD: 0.116
# Mean RMSD: 0.116
data_MOF--net-ukk--node1-ESEHIV_clean_sbu_0--edge1-ZUJKAS_clean_linker_0
_symmetry_space_group_name_H-M    P1
_symmetry_Int_Tables_number       1
_symmetry_cell_setting            triclinic
loop_
_symmetry_equiv_pos_as_xyz
'x, y, z'
_cell_length_a     73.671545
_cell_length_b     73.61576
_cell_length_c     28.209721
_cell_angle_alpha  90.140098
_cell_angle_beta   90.168572
_cell_angle_gamma 90.003054
loop_
_atom_site_label
_atom_site_type_symbol
_atom_site_fract_x
_atom_site_fract_y
_atom_site_fract_z
_atom_type_partial_charge
Cu0 Cu 0.40141 0.13513 0.0718 0.0
N1 N 0.42668 0.13835 0.0757 0.0
N2 N 0.45492 0.14089 0.10505 0.0
C3 C 0.43789 0.1346 0.11242 0.0
C4 C 0.45437 0.14868 0.06176 0.0
C5 C 0.43701 0.14716 0.04397 0.0
O6 O 0.39454 0.11238 0.10221 0.0
C7 C 0.39608 0.16676 0.12916 0.0
O8 O 0.40947 0.16028 0.15488 0.0
H9 H 0.43342 0.12827 0.14489 0.0
H10 H 0.43209 0.15268 0.01085 0.0
N11 N 0.39419 0.13273 1.00837 0.0
N12 N 0.37619 0.13151 0.94416 0.0
C13 C 0.37734 0.1355 0.99096 0.0
C14 C 0.40406 0.12676 0.97149 0.0
C15 C 0.39306 0.12605 0.9319 0.0
C16 C 0.39564 0.10823 0.14589 0.0
O17 O 0.40065 0.12062 0.17685 0.0
H18 H 0.36605 0.1398 0.0127 0.0
H19 H 0.41821 0.12289 0.97342 0.0
O20 O 0.38975 0.15719 0.09526 0.0
H21 H 0.46562 0.15533 0.04437 0.0
H22 H 0.39722 0.1218 0.89684 0.0
Cu23 Cu 0.14281 0.64784 0.9495 0.0
N24 N 0.14291 0.62292 0.96262 0.0
N25 N 0.14397 0.59279 0.95111 0.0
C26 C 0.14352 0.60936 0.93043 0.0
C27 C 0.14362 0.59618 0.99822 0.0
C28 C 0.14302 0.61473 1.00516 0.0
O29 O 0.12535 0.6509 0.89787 0.0
C30 C 0.17427 0.66928 0.92229 0.0
O31 O 0.16363 0.6836 0.92171 0.0
H32 H 0.14357 0.61168 0.89257 0.0
H33 H 0.14289 0.62177 0.03887 0.0
N34 N 0.13535 0.66077 1.00377 0.0
N35 N 0.13325 0.68063 0.06406 0.0
C36 C 0.14289 0.67536 0.02553 0.0
C37 C 0.12049 0.65681 0.02928 0.0
C38 C 0.11917 0.66893 0.06635 0.0
C39 C 0.1143 0.66412 0.8938 0.0
O40 O 0.11553 0.6779 0.92332 0.0
H41 H 0.15527 0.68181 0.01386 0.0
H42 H 0.1112 0.64583 0.02125 0.0
O43 O 0.16765 0.65376 0.93199 0.0
H44 H 0.14418 0.58603 0.02586 0.0
H45 H 0.10846 0.66927 0.0925 0.0
Cu46 Cu 0.65286 0.9138 0.0979 0.0
N47 N 0.62744 0.91212 0.09825 0.0
N48 N 0.59872 0.91103 0.12436 0.0
C49 C 0.6162 0.91493 0.13523 0.0
C50 C 0.59906 0.90571 0.07847 0.0
C51 C 0.61673 0.90633 0.06265 0.0
O52 O 0.6605 0.93634 0.12811 0.0
C53 C 0.65631 0.88192 0.1559 0.0
O54 O 0.64309 0.88876 0.18144 0.0
H55 H 0.62088 0.91901 0.16996 0.0
H56 H 0.62148 0.90236 0.02791 0.0
N57 N 0.66159 0.91547 0.036 0.0
N58 N 0.68182 0.91545 0.97692 0.0
C59 C 0.67848 0.91084 0.02242 0.0
C60 C 0.6539 0.92333 0.9979 0.0
C61 C 0.66632 0.92327 0.96134 0.0
C62 C 0.65865 0.94148 0.1709 0.0
O63 O 0.65208 0.93016 0.20242 0.0
H64 H 0.6884 0.90504 0.04635 0.0
H65 H 0.64047 0.92925 0.99724 0.0
O66 O 0.66313 0.89135 0.12266 0.0
H67 H 0.58745 0.90145 0.05768 0.0
H68 H 0.66418 0.92887 0.92634 0.0
Cu69 Cu 0.89459 0.40064 0.91841 0.0
N70 N 0.89396 0.42518 0.93495 0.0
N71 N 0.89279 0.45537 0.92738 0.0
C72 C 0.897 0.43944 0.90619 0.0
C73 C 0.88695 0.45093 0.97115 0.0
C74 C 0.88771 0.4323 0.97572 0.0
O75 O 0.9128 0.39806 0.86867 0.0
C76 C 0.86314 0.37984 0.88555 0.0
O77 O 0.87383 0.36576 0.87944 0.0
H78 H 0.90123 0.4381 0.86962 0.0
H79 H 0.88331 0.42443 1.0059 0.0
N80 N 0.90143 0.38714 0.97181 0.0
N81 N 0.90465 0.36474 0.02482 0.0
C82 C 0.89588 0.37048 0.98537 0.0
C83 C 0.91402 0.39216 1.00386 0.0
C84 C 0.91604 0.37843 0.03653 0.0
C85 C 0.92302 0.3842 0.86441 0.0
O86 O 0.92001 0.36992 0.8911 0.0
H87 H 0.88601 0.36251 0.96598 0.0
H88 H 0.92138 0.40487 1.00311 0.0
O89 O 0.86981 0.39489 0.89946 0.0
H90 H 0.88209 0.46045 0.99754 0.0
H91 H 0.92519 0.37857 0.06658 0.0
Cu92 Cu 0.39197 0.39561 0.1699 0.0
N93 N 0.41695 0.39423 0.18214 0.0
N94 N 0.44701 0.39381 0.16966 0.0
C95 C 0.43042 0.39686 0.15055 0.0
C96 C 0.44375 0.38916 0.21518 0.0
C97 C 0.42525 0.38941 0.2227 0.0
O98 O 0.38911 0.41346 0.11925 0.0
C99 C 0.39144 0.36147 0.12228 0.0
O100 O 0.40411 0.36878 0.09575 0.0
H101 H 0.42798 0.4004 0.11388 0.0
H102 H 0.41831 0.38608 0.25527 0.0
N103 N 0.37943 0.40302 0.22458 0.0
N104 N 0.35784 0.40576 0.28013 0.0
C105 C 0.36258 0.39807 0.23827 0.0
C106 C 0.38552 0.41425 0.25876 0.0
C107 C 0.3723 0.41593 0.29302 0.0
C108 C 0.37613 0.42485 0.11631 0.0
O109 O 0.3625 0.42366 0.14603 0.0
H110 H 0.35408 0.38885 0.21815 0.0
H111 H 0.39869 0.42076 0.25873 0.0
O112 O 0.38376 0.37119 0.15375 0.0
H113 H 0.45397 0.38581 0.24136 0.0
H114 H 0.37319 0.42426 0.32462 0.0
Cu115 Cu 0.3995 0.64545 0.84524 0.0
N116 N 0.39854 0.62031 0.83511 0.0
N117 N 0.39572 0.59057 0.8502 0.0
C118 C 0.3986 0.6073 0.86873 0.0
C119 C 0.39385 0.59322 0.80308 0.0
C120 C 0.39556 0.61154 0.79393 0.0
O121 O 0.41773 0.64941 0.89471 0.0
C122 C 0.36867 0.66768 0.87448 0.0
O123 O 0.37963 0.68173 0.87643 0.0
H124 H 0.39992 0.61017 0.90623 0.0
H125 H 0.39419 0.61808 0.75981 0.0
N126 N 0.40623 0.65718 0.78867 0.0
N127 N 0.4085 0.67695 0.72852 0.0
C128 C 0.40019 0.67299 0.77003 0.0
C129 C 0.4188 0.65106 0.75806 0.0
C130 C 0.42019 0.66313 0.72101 0.0
C131 C 0.42907 0.66248 0.8949 0.0
O132 O 0.42761 0.67528 0.86277 0.0
H133 H 0.38984 0.68133 0.78622 0.0
H134 H 0.42651 0.63868 0.76259 0.0
O135 O 0.37493 0.65212 0.86357 0.0
H136 H 0.39122 0.58272 0.77705 0.0
H137 H 0.42938 0.66197 0.69128 0.0
Cu138 Cu 0.65073 0.65287 0.16435 0.0
N139 N 0.62565 0.65453 0.17594 0.0
N140 N 0.59558 0.65597 0.16357 0.0
C141 C 0.61183 0.65072 0.14597 0.0
C142 C 0.59936 0.66316 0.20657 0.0
C143 C 0.61785 0.66227 0.21401 0.0
O144 O 0.65538 0.63368 0.11807 0.0
C145 C 0.6502 0.68812 0.12258 0.0
O146 O 0.63491 0.68271 0.10314 0.0
H147 H 0.6137 0.64507 0.11098 0.0
H148 H 0.6252 0.66752 0.24433 0.0
N149 N 0.66311 0.64647 0.21998 0.0
N150 N 0.68571 0.64258 0.27243 0.0
C151 C 0.68077 0.64958 0.22997 0.0
C152 C 0.65662 0.63722 0.25731 0.0
C153 C 0.67048 0.63481 0.28967 0.0
C154 C 0.64977 0.63337 0.07535 0.0
O155 O 0.64138 0.64761 0.05791 0.0
H156 H 0.68988 0.65647 0.20596 0.0
H157 H 0.6428 0.63244 0.26055 0.0
O158 O 0.65951 0.67691 0.14688 0.0
H159 H 0.58954 0.66899 0.23065 0.0
H160 H 0.66936 0.62793 0.32338 0.0
Cu161 Cu 0.63787 0.40506 0.83506 0.0
N162 N 0.63899 0.43018 0.82527 0.0
N163 N 0.64182 0.46002 0.83868 0.0
C164 C 0.63746 0.44371 0.85742 0.0
C165 C 0.64616 0.45663 0.7931 0.0
C166 C 0.64438 0.43826 0.78496 0.0
O167 O 0.61818 0.3996 0.87899 0.0
C168 C 0.6682 0.38226 0.86444 0.0
O169 O 0.65729 0.36819 0.86161 0.0
H170 H 0.63418 0.44156 0.89433 0.0
H171 H 0.64753 0.43114 0.75241 0.0
N172 N 0.63222 0.39387 0.77701 0.0
N173 N 0.63049 0.37456 0.71555 0.0
C174 C 0.63923 0.37885 0.7564 0.0
C175 C 0.61876 0.39931 0.74805 0.0
C176 C 0.61767 0.38751 0.71025 0.0
C177 C 0.61795 0.40331 0.92309 0.0
O178 O 0.63244 0.41042 0.94303 0.0
H179 H 0.65016 0.37095 0.77154 0.0
H180 H 0.61017 0.41097 0.75442 0.0
O181 O 0.66203 0.39812 0.85656 0.0
H182 H 0.65066 0.46667 0.76774 0.0
H183 H 0.60813 0.38843 0.68112 0.0
Cu184 Cu 0.89694 0.64662 0.60399 0.0
N185 N 0.92218 0.64601 0.59437 0.0
N186 N 0.95203 0.6474 0.61002 0.0
C187 C 0.93524 0.64462 0.62787 0.0
C188 C 0.94941 0.65058 0.56339 0.0
C189 C 0.93104 0.64977 0.55392 0.0
O190 O 0.89039 0.62824 0.65029 0.0
C191 C 0.8762 0.67744 0.63751 0.0
O192 O 0.86249 0.66629 0.64359 0.0
H193 H 0.93246 0.6426 0.66503 0.0
H194 H 0.92455 0.65249 0.52025 0.0
N195 N 0.88438 0.64125 0.54755 0.0
N196 N 0.8619 0.63845 0.49411 0.0
C197 C 0.86723 0.64596 0.53575 0.0
C198 C 0.89009 0.63041 0.51217 0.0
C199 C 0.87634 0.6287 0.4792 0.0
C200 C 0.89475 0.62861 0.69394 0.0
O201 O 0.90307 0.64294 0.71135 0.0
H202 H 0.85859 0.65416 0.55806 0.0
H203 H 0.90322 0.62385 0.51097 0.0
O204 O 0.89137 0.67129 0.6233 0.0
H205 H 0.95996 0.65367 0.53805 0.0
H206 H 0.87694 0.62075 0.44692 0.0
Cu207 Cu 0.65048 0.16937 0.37215 0.0
N208 N 0.65649 0.15785 0.31535 0.0
N209 N 0.66123 0.13266 0.27235 0.0
C210 C 0.66272 0.14066 0.31529 0.0
C211 C 0.65405 0.14554 0.24388 0.0
C212 C 0.65094 0.16101 0.27064 0.0
O213 O 0.62653 0.15911 0.38622 0.0
C214 C 0.68506 0.1724 0.40666 0.0
O215 O 0.68484 0.18466 0.37295 0.0
H216 H 0.66692 0.13375 0.3473 0.0
H217 H 0.64358 0.17293 0.25927 0.0
N218 N 0.64916 0.19486 0.3692 0.0
N219 N 0.64864 0.22354 0.39628 0.0
C220 C 0.64944 0.20574 0.40772 0.0
C221 C 0.64825 0.20613 0.33182 0.0
C222 C 0.64788 0.22382 0.34839 0.0
C223 C 0.61221 0.16883 0.38836 0.0
O224 O 0.61383 0.18649 0.39319 0.0
H225 H 0.64994 0.20053 0.44352 0.0
H226 H 0.64803 0.20188 0.29515 0.0
O227 O 0.6706 0.16337 0.41486 0.0
H228 H 0.64982 0.14344 0.2075 0.0
H229 H 0.64734 0.2359 0.32667 0.0
Cu230 Cu 0.15109 0.39628 0.63479 0.0
N231 N 0.12621 0.39491 0.6203 0.0
N232 N 0.09603 0.39327 0.62959 0.0
C233 C 0.11215 0.39722 0.65031 0.0
C234 C 0.10017 0.38834 0.58477 0.0
C235 C 0.11872 0.38928 0.57926 0.0
O236 O 0.15493 0.41717 0.67633 0.0
C237 C 0.1569 0.35912 0.63568 0.0
O238 O 0.1537 0.36173 0.59035 0.0
H239 H 0.11379 0.40096 0.68716 0.0
H240 H 0.12626 0.38556 0.54788 0.0
N241 N 0.16457 0.40027 0.57906 0.0
N242 N 0.18696 0.40152 0.52532 0.0
C243 C 0.18205 0.39604 0.56934 0.0
C244 C 0.1584 0.4089 0.54026 0.0
C245 C 0.17205 0.40959 0.50713 0.0
C246 C 0.15045 0.41802 0.71983 0.0
O247 O 0.14383 0.4035 0.74056 0.0
H248 H 0.19093 0.38907 0.59391 0.0
H249 H 0.14493 0.41457 0.53657 0.0
O250 O 0.15739 0.37291 0.66309 0.0
H251 H 0.09053 0.38411 0.55791 0.0
H252 H 0.17119 0.41601 0.47272 0.0
Cu253 Cu 0.40072 0.88544 0.38978 0.0
N254 N 0.39619 0.89603 0.33087 0.0
N255 N 0.39328 0.91988 0.28215 0.0
C256 C 0.39248 0.91386 0.32726 0.0
C257 C 0.39744 0.90502 0.25607 0.0
C258 C 0.39938 0.89033 0.28632 0.0
O259 O 0.42621 0.89121 0.4014 0.0
C260 C 0.37127 0.88934 0.45509 0.0
O261 O 0.37393 0.8722 0.46561 0.0
H262 H 0.39011 0.92242 0.35784 0.0
H263 H 0.40392 0.87683 0.27687 0.0
N264 N 0.39703 0.86011 0.39122 0.0
N265 N 0.39626 0.8316 0.41913 0.0
C266 C 0.40184 0.84886 0.42686 0.0
C267 C 0.38826 0.84958 0.35955 0.0
C268 C 0.38782 0.83199 0.37656 0.0
C269 C 0.4379 0.881 0.38134 0.0
O270 O 0.4323 0.86616 0.35994 0.0
H271 H 0.40899 0.85339 0.45831 0.0
H272 H 0.38221 0.85442 0.32698 0.0
O273 O 0.38301 0.89766 0.43018 0.0
H274 H 0.40005 0.90497 0.21834 0.0
H275 H 0.3812 0.82055 0.35968 0.0
Cu276 Cu 0.89125 0.90486 0.64651 0.0
N277 N 0.91616 0.90735 0.65636 0.0
N278 N 0.9457 0.90999 0.63951 0.0
C279 C 0.9286 0.90975 0.62205 0.0
C280 C 0.94387 0.90767 0.68676 0.0
C281 C 0.92563 0.90604 0.69703 0.0
O282 O 0.88579 0.92016 0.59228 0.0
C283 C 0.87197 0.87204 0.62202 0.0
O284 O 0.85791 0.88242 0.61267 0.0
H285 H 0.92515 0.91065 0.58481 0.0
H286 H 0.91971 0.90374 0.73154 0.0
N287 N 0.87848 0.91265 0.70017 0.0
N288 N 0.85617 0.91664 0.75299 0.0
C289 C 0.86195 0.90717 0.71475 0.0
C290 C 0.8834 0.92594 0.73034 0.0
C291 C 0.86972 0.92842 0.76294 0.0
C292 C 0.87264 0.93134 0.5903 0.0
O293 O 0.86031 0.93123 0.62382 0.0
H294 H 0.85402 0.89694 0.69656 0.0
H295 H 0.89593 0.93355 0.72815 0.0
O296 O 0.88685 0.87924 0.63514 0.0
H297 H 0.95489 0.90709 0.71214 0.0
H298 H 0.86976 0.93824 0.79154 0.0
Cu299 Cu 0.90396 0.152 0.34678 0.0
N300 N 0.89983 0.12773 0.33008 0.0
N301 N 0.89531 0.09778 0.33638 0.0
C302 C 0.90252 0.1128 0.35674 0.0
C303 C 0.88809 0.10351 0.29498 0.0
C304 C 0.89084 0.12194 0.29132 0.0
O305 O 0.92746 0.15427 0.3786 0.0
C306 C 0.87472 0.15069 0.41285 0.0
O307 O 0.88264 0.13577 0.42763 0.0
H308 H 0.90856 0.11316 0.39172 0.0
H309 H 0.88588 0.13067 0.26336 0.0
N310 N 0.90581 0.16563 0.29112 0.0
N311 N 0.90597 0.18883 0.23989 0.0
C312 C 0.90153 0.18325 0.28408 0.0
C313 C 0.91318 0.15991 0.2502 0.0
C314 C 0.91324 0.1741 0.21856 0.0
C315 C 0.93191 0.14957 0.42046 0.0
O316 O 0.91951 0.14308 0.44915 0.0
H317 H 0.89583 0.1919 0.31131 0.0
H318 H 0.91845 0.14639 0.24409 0.0
O319 O 0.88257 0.16036 0.38156 0.0
H320 H 0.88083 0.09511 0.26974 0.0
H321 H 0.9183 0.17356 0.18261 0.0
Cu322 Cu 0.16062 0.13589 0.64667 0.0
N323 N 0.14676 0.14124 0.5926 0.0
N324 N 0.12147 0.14574 0.54966 0.0
C325 C 0.12856 0.13958 0.59087 0.0
C326 C 0.13596 0.15146 0.52441 0.0
C327 C 0.15151 0.14873 0.55103 0.0
O328 O 0.15273 0.11194 0.66895 0.0
C329 C 0.16578 0.17109 0.67256 0.0
O330 O 0.17526 0.16955 0.63337 0.0
H331 H 0.12075 0.13405 0.61984 0.0
H332 H 0.16521 0.15241 0.54131 0.0
N333 N 0.18565 0.13369 0.63608 0.0
N334 N 0.21524 0.13275 0.65456 0.0
C335 C 0.19821 0.13557 0.67054 0.0
C336 C 0.19499 0.12943 0.59668 0.0
C337 C 0.21327 0.12882 0.60799 0.0
C338 C 0.15249 0.09998 0.63602 0.0
O339 O 0.15703 0.10494 0.59295 0.0
H340 H 0.19478 0.13858 0.707 0.0
H341 H 0.18895 0.12679 0.56236 0.0
O342 O 0.15744 0.15709 0.68804 0.0
H343 H 0.13542 0.15773 0.4898 0.0
H344 H 0.22422 0.12581 0.58373 0.0
Cu345 Cu 0.15192 0.88121 0.43659 0.0
N346 N 0.15378 0.88956 0.49911 0.0
N347 N 0.15358 0.91177 0.55388 0.0
C348 C 0.14642 0.90549 0.51279 0.0
C349 C 0.16578 0.89898 0.56694 0.0
C350 C 0.16599 0.88542 0.5329 0.0
O351 O 0.12794 0.88949 0.41654 0.0
C352 C 0.18579 0.88412 0.38827 0.0
O353 O 0.18424 0.86651 0.38222 0.0
H354 H 0.13694 0.91291 0.49086 0.0
H355 H 0.17554 0.87428 0.53082 0.0
N356 N 0.15326 0.85572 0.43004 0.0
N357 N 0.15212 0.82808 0.39627 0.0
C358 C 0.1502 0.84619 0.38979 0.0
C359 C 0.15708 0.84319 0.46327 0.0
C360 C 0.15637 0.82618 0.4426 0.0
C361 C 0.11458 0.87986 0.43033 0.0
O362 O 0.1179 0.86435 0.45156 0.0
H363 H 0.14658 0.85247 0.35643 0.0
H364 H 0.16015 0.8462 0.49995 0.0
O365 O 0.17249 0.89299 0.40557 0.0
H366 H 0.17501 0.90004 0.59673 0.0
H367 H 0.15909 0.81342 0.46024 0.0
H368 H 0.40013 0.95011 0.33485 0.0
H369 H 0.39862 0.9816 0.30945 0.0
H370 H 0.38381 0.96431 0.16846 0.0
H371 H 0.38471 0.93249 0.19414 0.0
H372 H 0.4189 0.9983 0.24019 0.0
H373 H 0.34535 1.00293 0.19779 0.0
H374 H 0.35484 0.98446 0.23179 0.0
H375 H 0.35729 0.98485 0.16846 0.0
C376 C 0.39619 0.95287 0.29863 0.0
C377 C 0.39231 0.93861 0.26673 0.0
C378 C 0.39549 0.97098 0.28405 0.0
C379 C 0.39086 0.9754 0.23724 0.0
C380 C 0.38708 0.96127 0.20503 0.0
H381 H 0.38559 0.07932 0.09038 0.0
H382 H 0.38407 0.04729 0.11269 0.0
C383 C 0.38779 0.94306 0.21963 0.0
C384 C 0.39069 0.99479 0.22229 0.0
H385 H 0.36333 0.02869 0.18022 0.0
C386 C 0.40673 1.00495 0.22714 0.0
C387 C 0.37483 1.00347 0.20518 0.0
C388 C 0.35703 0.99345 0.20079 0.0
C389 C 0.4074 0.02345 0.2151 0.0
C390 C 0.3915 0.0322 0.19855 0.0
C391 C 0.37549 1.02201 0.19314 0.0
C392 C 0.39134 0.05184 0.18608 0.0
C393 C 0.42526 0.03339 0.21939 0.0
C394 C 0.39545 0.06517 0.22022 0.0
C395 C 0.39634 0.08356 0.2076 0.0
C396 C 0.39306 0.089 0.16057 0.0
C397 C 0.38828 0.07565 0.12689 0.0
C398 C 0.38739 0.0573 0.13956 0.0
H399 H 0.43694 0.02385 0.22071 0.0
H400 H 0.42722 0.04284 0.18921 0.0
H401 H 0.42533 0.04148 0.25263 0.0
H402 H 0.39818 0.06133 0.25658 0.0
H403 H 0.39997 0.09344 0.23451 0.0
H404 H 0.08933 0.69046 0.87197 0.0
H405 H 0.06253 0.68764 0.82106 0.0
H406 H 0.07708 0.63226 0.78875 0.0
H407 H 0.10416 0.63511 0.83857 0.0
H408 H 0.06508 0.64953 0.71072 0.0
H409 H 1.0167 0.66132 0.85761 0.0
H410 H 0.03248 0.67965 0.85012 0.0
H411 H 0.0406 0.6576 0.86766 0.0
C412 C 0.08691 0.67771 0.8538 0.0
C413 C 0.09887 0.66298 0.85971 0.0
C414 C 0.07147 0.67607 0.82496 0.0
C415 C 0.06748 0.65959 0.80192 0.0
C416 C 0.07975 0.64507 0.8064 0.0
H417 H 0.96076 0.62972 0.6913 0.0
H418 H 0.98909 0.63209 0.73651 0.0
C419 C 0.09526 0.64674 0.83493 0.0
C420 C 0.05049 0.65738 0.77352 0.0
H421 H 1.00425 0.66058 0.77987 0.0
C422 C 0.05178 0.65191 0.72589 0.0
C423 C 0.03306 0.66014 0.79343 0.0
C424 C 0.03056 0.66482 0.84512 0.0
C425 C 0.03622 0.64941 0.69753 0.0
C426 C 1.01883 0.65289 0.71692 0.0
C427 C 1.01754 0.65808 0.76475 0.0
C428 C 1.00179 0.6511 0.68849 0.0
C429 C 0.03859 0.64267 0.64736 0.0
C430 C 0.99934 0.66108 0.64655 0.0
C431 C 0.98318 0.65965 0.62051 0.0
C432 C 0.96894 0.64842 0.63615 0.0
C433 C 0.97136 0.63857 0.67838 0.0
C434 C 0.98759 0.63989 0.70421 0.0
H435 H 0.05174 0.6355 0.64279 0.0
H436 H 0.02744 0.63331 0.63696 0.0
H437 H 0.03846 0.65443 0.62284 0.0
H438 H 1.00981 0.67024 0.6343 0.0
H439 H 0.98168 0.66773 0.58874 0.0
H440 H 0.65326 0.95873 0.25635 0.0
H441 H 0.65595 0.99135 0.27315 0.0
H442 H 0.67408 1.00067 0.13015 0.0
H443 H 0.67142 0.96827 0.11293 0.0
H444 H 0.68681 1.01609 0.26304 0.0
H445 H 0.62882 0.0339 0.14551 0.0
H446 H 0.63282 1.01104 0.16611 0.0
H447 H 0.64622 1.0202 0.11878 0.0
C448 C 0.65799 0.96769 0.2286 0.0
C449 C 0.66198 0.96085 0.18317 0.0
C450 C 0.6595 0.98633 0.23826 0.0
C451 C 0.66491 0.99846 0.20264 0.0
C452 C 0.66957 0.9916 0.1579 0.0
H453 H 0.6687 0.11717 0.18706 0.0
H454 H 0.67103 0.08459 0.16933 0.0
C455 C 0.66811 0.97302 0.14823 0.0
C456 C 0.66528 1.01835 0.21173 0.0
H457 H 0.64521 0.05829 0.17927 0.0
C458 C 0.67771 0.02534 0.24483 0.0
C459 C 0.65346 0.03038 0.18768 0.0
C460 C 0.63946 0.02356 0.15278 0.0
C461 C 0.67877 0.04409 0.25419 0.0
C462 C 0.66677 0.05613 0.2306 0.0
C463 C 0.65445 0.04911 0.19721 0.0
C464 C 0.66621 0.07592 0.24148 0.0
C465 C 0.69296 0.05083 0.28865 0.0
C466 C 0.66254 0.08191 0.2877 0.0
C467 C 0.66123 0.10045 0.29786 0.0
C468 C 0.66338 0.11352 0.26192 0.0
C469 C 0.66695 0.1075 0.2155 0.0
C470 C 0.66833 0.08888 0.20539 0.0
H471 H 0.70444 0.04111 0.29182 0.0
H472 H 0.69841 0.06425 0.27774 0.0
H473 H 0.68676 0.05232 0.32425 0.0
H474 H 0.66026 0.07222 0.31588 0.0
H475 H 0.65796 0.10445 0.33374 0.0
H476 H 0.06688 0.37278 0.60421 0.0
H477 H 0.03703 0.37232 0.64141 0.0
H478 H 0.05474 0.41274 0.74228 0.0
H479 H 0.08474 0.41327 0.70516 0.0
H480 H 0.03683 0.38484 0.78486 0.0
H481 H 0.99655 0.40943 0.63181 0.0
H482 H 1.01015 0.38991 0.61795 0.0
H483 H 1.021 0.41096 0.63392 0.0
C484 C 0.06441 0.38179 0.63383 0.0
C485 C 0.07826 0.39317 0.65139 0.0
C486 C 0.04727 0.38152 0.65509 0.0
C487 C 0.04348 0.39274 0.69413 0.0
C488 C 0.05729 0.40402 0.71203 0.0
H489 H 0.93618 0.41325 0.81418 0.0
H490 H 0.9652 0.41541 0.77248 0.0
C491 C 0.07448 0.40425 0.69087 0.0
C492 C 0.02534 0.39218 0.71733 0.0
H493 H 0.97983 0.39697 0.69635 0.0
C494 C 0.02438 0.38758 0.76554 0.0
C495 C 1.00907 0.39599 0.69235 0.0
C496 C 1.0092 0.40203 0.64128 0.0
C497 C 1.00765 0.38631 0.78914 0.0
C498 C 0.99133 0.38936 0.76366 0.0
C499 C 0.9923 0.39438 0.71573 0.0
C500 C 0.97319 0.38764 0.7864 0.0
C501 C 1.00763 0.38198 0.84141 0.0
C502 C 0.96772 0.37116 0.80683 0.0
C503 C 0.95115 0.36987 0.83077 0.0
C504 C 0.93958 0.38503 0.83446 0.0
C505 C 0.94473 0.40131 0.81213 0.0
C506 C 0.96135 0.40258 0.7883 0.0
H507 H 1.02097 0.38499 0.85814 0.0
H508 H 0.99697 0.38981 0.86029 0.0
H509 H 1.00482 0.36729 0.84624 0.0
H510 H 0.9764 0.3593 0.80481 0.0
H511 H 0.94759 0.35708 0.84719 0.0
H512 H 0.34995 0.45007 0.09568 0.0
H513 H 0.35289 0.47732 0.04688 0.0
H514 H 0.40841 0.46315 0.01593 0.0
H515 H 0.40542 0.43562 0.0635 0.0
H516 H 0.37446 0.5058 0.05971 0.0
H517 H 0.39041 0.47511 0.88543 0.0
H518 H 0.3822 0.46185 0.93459 0.0
H519 H 0.40582 0.46796 0.93103 0.0
C520 C 0.36271 0.45258 0.0779 0.0
C521 C 0.37741 0.44056 0.08337 0.0
C522 C 0.36439 0.46823 0.05008 0.0
C523 C 0.38081 0.47226 0.02711 0.0
C524 C 0.39546 0.46018 0.03219 0.0
H525 H 0.41176 0.58117 0.93337 0.0
H526 H 0.40831 0.55254 0.97644 0.0
C527 C 0.39374 0.44444 0.05967 0.0
C528 C 0.38284 0.48955 1.00007 0.0
H529 H 0.39531 0.50703 0.89279 0.0
C530 C 0.37893 0.50604 0.02311 0.0
C531 C 0.38846 0.48994 0.9521 0.0
C532 C 0.39179 0.47276 0.92417 0.0
C533 C 0.38069 0.52283 0.99988 0.0
C534 C 0.38702 0.52327 0.95252 0.0
C535 C 0.39069 0.50677 0.92924 0.0
C536 C 0.3895 0.54064 0.92609 0.0
C537 C 0.37533 0.5399 0.02609 0.0
C538 C 0.38059 0.54335 0.88258 0.0
C539 C 0.38273 0.55962 0.85762 0.0
C540 C 0.39381 0.57363 0.8756 0.0
C541 C 0.40289 0.57081 0.91893 0.0
C542 C 0.40087 0.55445 0.94367 0.0
H543 H 0.36591 0.53691 0.05578 0.0
H544 H 0.38765 0.54633 0.04135 0.0
H545 H 0.36869 0.5498 1.002 0.0
H546 H 0.37177 0.53293 0.86813 0.0
H547 H 0.3754 0.56136 0.82466 0.0
H548 H 0.4554 0.68845 0.90587 0.0
H549 H 0.48295 0.68679 0.95418 0.0
H550 H 0.46681 0.63406 1.00512 0.0
H551 H 0.43901 0.63574 0.95755 0.0
H552 H 0.48086 0.65532 0.0762 0.0
H553 H 0.52682 0.65597 0.92103 0.0
H554 H 0.51182 0.67515 0.92304 0.0
H555 H 0.50264 0.65268 0.91538 0.0
C556 C 0.45762 0.67653 0.92756 0.0
C557 C 0.445 0.66217 0.92749 0.0
C558 C 0.47348 0.67555 0.95493 0.0
C559 C 0.4772 0.66011 0.98249 0.0
C560 C 0.46433 0.64605 0.98387 0.0
H561 H 0.58462 0.63278 0.09398 0.0
H562 H 0.55558 0.63299 0.05157 0.0
C563 C 0.44841 0.64704 0.95664 0.0
C564 C 0.49457 0.65857 0.00948 0.0
H565 H 0.54072 0.65921 0.99676 0.0
C566 C 0.49395 0.65611 0.05881 0.0
C567 C 0.51169 0.65926 0.98676 0.0
C568 C 0.51335 0.66072 0.9336 0.0
C569 C 0.50992 0.65475 0.0861 0.0
C570 C 0.52703 0.65621 0.06361 0.0
C571 C 0.52764 0.65827 0.01415 0.0
C572 C 0.54447 0.65574 0.0906 0.0
C573 C 0.50829 0.65144 0.13868 0.0
C574 C 0.54804 0.66853 0.12647 0.0
C575 C 0.56463 0.66842 0.15081 0.0
C576 C 0.57818 0.65564 0.13953 0.0
C577 C 0.5746 0.64289 0.10342 0.0
C578 C 0.55795 0.64296 0.07922 0.0
H579 H 0.49497 0.64531 0.1478 0.0
H580 H 0.51924 0.64234 0.15162 0.0
H581 H 0.50939 0.66459 0.15777 0.0
H582 H 0.5381 0.67886 0.13508 0.0
H583 H 0.56699 0.67869 0.17762 0.0
H584 H 0.66724 0.48593 0.82531 0.0
H585 H 0.66975 0.51513 0.86625 0.0
H586 H 0.62156 0.50268 0.94652 0.0
H587 H 0.61956 0.47305 0.9069 0.0
H588 H 0.64929 0.54334 0.86743 0.0
H589 H 0.65355 0.51842 0.05188 0.0
H590 H 0.65494 0.50334 1.0016 0.0
H591 H 0.63318 0.51086 0.02315 0.0
C592 C 0.65723 0.48942 0.85182 0.0
C593 C 0.64323 0.47721 0.86305 0.0
C594 C 0.65867 0.50611 0.8753 0.0
C595 C 0.64604 0.5111 0.91022 0.0
C596 C 0.63184 0.499 0.92092 0.0
H597 H 0.6289 0.62332 0.99949 0.0
H598 H 0.62841 0.59399 0.95893 0.0
C599 C 0.63061 0.48211 0.89806 0.0
C600 C 0.64748 0.52919 0.93403 0.0
H601 H 0.64814 0.55016 0.04225 0.0
C602 C 0.64917 0.54478 0.90571 0.0
C603 C 0.64767 0.53118 0.98401 0.0
C604 C 0.64744 0.51504 0.0169 0.0
C605 C 0.6508 0.56222 0.92574 0.0
C606 C 0.65 0.56429 0.97564 0.0
C607 C 0.64856 0.54868 1.004 0.0
C608 C 0.65064 0.58245 0.9993 0.0
C609 C 0.65385 0.57812 0.89304 0.0
C610 C 0.66293 0.58573 0.03659 0.0
C611 C 0.66293 0.60239 0.06065 0.0
C612 C 0.65077 0.61624 0.04762 0.0
C613 C 0.63867 0.61307 0.00987 0.0
C614 C 0.63844 0.59628 0.98642 0.0
H615 H 0.66026 0.57374 0.85929 0.0
H616 H 0.64057 0.58437 0.88409 0.0
H617 H 0.66261 0.58861 0.90979 0.0
H618 H 0.67246 0.57531 0.0474 0.0
H619 H 0.67239 0.60439 0.08968 0.0
H620 H 0.47821 0.37643 0.19469 0.0
H621 H 0.50761 0.37802 0.15512 0.0
H622 H 0.48497 0.41405 0.05025 0.0
H623 H 0.45564 0.41301 0.09044 0.0
H624 H 0.51694 0.36814 0.06403 0.0
H625 H 0.53028 0.44149 0.09291 0.0
H626 H 0.51276 0.42935 0.12432 0.0
H627 H 0.50893 0.43685 0.06451 0.0
C628 C 0.47948 0.38492 0.16364 0.0
C629 C 0.46445 0.39469 0.1461 0.0
C630 C 0.49632 0.3857 0.14079 0.0
C631 C 0.49862 0.39635 0.10005 0.0
C632 C 0.48365 0.40599 0.08213 0.0
H633 H 0.58544 0.3894 0.89233 0.0
H634 H 0.55699 0.38714 0.93627 0.0
C635 C 0.46679 0.40522 0.10492 0.0
C636 C 0.51658 0.39704 0.07583 0.0
H637 H 0.55018 0.42599 0.04036 0.0
C638 C 0.52423 0.38078 0.05899 0.0
C639 C 0.52625 0.4135 0.0698 0.0
C640 C 0.51925 0.43127 0.0892 0.0
C641 C 0.54107 0.38058 0.03553 0.0
C642 C 0.55043 0.39712 0.02804 0.0
C643 C 0.54295 0.41333 0.04571 0.0
C644 C 0.56794 0.39795 1.00177 0.0
C645 C 0.54879 0.36261 0.01957 0.0
C646 C 0.58359 0.40503 0.0236 0.0
C647 C 0.59992 0.40641 0.99847 0.0
C648 C 0.60093 0.40086 0.95076 0.0
C649 C 0.58524 0.3937 0.92907 0.0
C650 C 0.56894 0.39231 0.95425 0.0
H651 H 0.54266 0.35106 0.03914 0.0
H652 H 0.54584 0.36066 0.9813 0.0
H653 H 0.56374 0.36222 0.0246 0.0
H654 H 0.58315 0.40955 0.06016 0.0
H655 H 0.61168 0.41207 0.01629 0.0
H656 H 0.86834 0.48222 0.94152 0.0
H657 H 0.86761 0.51198 0.90316 0.0
H658 H 0.91688 0.49883 0.82815 0.0
H659 H 0.91716 0.46873 0.86511 0.0
H660 H 0.88904 0.53993 0.90488 0.0
H661 H 0.88641 0.51496 0.71993 0.0
H662 H 0.88386 0.49999 0.76993 0.0
H663 H 0.90613 0.50678 0.75045 0.0
C664 C 0.87902 0.48571 0.91687 0.0
C665 C 0.89276 0.47314 0.90604 0.0
C666 C 0.87858 0.50271 0.89487 0.0
C667 C 0.89197 0.50759 0.86189 0.0
C668 C 0.90604 0.49522 0.85217 0.0
H669 H 0.91384 0.61881 0.77302 0.0
H670 H 0.91254 0.58989 0.81518 0.0
C671 C 0.90628 0.47807 0.87351 0.0
C672 C 0.89129 0.52569 0.83834 0.0
H673 H 0.89261 0.54649 0.73031 0.0
C674 C 0.8897 0.54134 0.86666 0.0
C675 C 0.89178 0.52761 0.7884 0.0
C676 C 0.89194 0.51143 0.75542 0.0
C677 C 0.88885 0.55879 0.84661 0.0
C678 C 0.89032 0.56076 0.79682 0.0
C679 C 0.89166 0.54508 0.76849 0.0
C680 C 0.89048 0.57884 0.77309 0.0
C681 C 0.88592 0.57484 0.87909 0.0
C682 C 0.87883 0.58225 0.73458 0.0
C683 C 0.87987 0.59862 0.70966 0.0
C684 C 0.89245 0.61205 0.72306 0.0
C685 C 0.9038 0.60885 0.76231 0.0
C686 C 0.90299 0.59232 0.78665 0.0
H687 H 0.879 0.57073 0.91231 0.0
H688 H 0.89928 0.58069 0.88908 0.0
H689 H 0.87769 0.58556 0.86167 0.0
H690 H 0.86907 0.57211 0.72328 0.0
H691 H 0.87097 0.60068 0.67952 0.0
H692 H 0.60458 0.13461 0.35376 0.0
H693 H 0.57663 0.12489 0.31373 0.0
H694 H 0.55185 0.17646 0.34638 0.0
H695 H 0.57941 0.18608 0.38735 0.0
H696 H 0.52732 0.14848 0.3518 0.0
H697 H 0.56579 0.14508 0.18272 0.0
H698 H 0.57398 0.13041 0.22882 0.0
H699 H 0.57536 0.15463 0.23613 0.0
C700 C 0.59303 0.14372 0.35348 0.0
C701 C 0.59437 0.16124 0.37332 0.0
C702 C 0.57711 0.1382 0.33011 0.0
C703 C 0.56228 0.15013 0.32587 0.0
C704 C 0.56312 0.16705 0.34877 0.0
H705 H 0.48302 0.16474 0.10828 0.0
H706 H 0.50849 0.16488 0.16348 0.0
C707 C 0.57896 0.17255 0.37223 0.0
C708 C 0.54646 0.1458 0.29472 0.0
H709 H 0.53455 0.13901 0.17877 0.0
C710 C 0.5289 0.1462 0.31404 0.0
C711 C 0.54849 0.14311 0.24526 0.0
C712 C 0.56688 0.14342 0.22176 0.0
C713 C 0.51335 0.14434 0.28523 0.0
C714 C 0.51541 0.14172 0.23578 0.0
C715 C 0.53298 0.14091 0.21668 0.0
C716 C 0.49963 0.14127 0.20257 0.0
C717 C 0.49486 0.146 0.30767 0.0
C718 C 0.48613 0.12784 0.20576 0.0
C719 C 0.47144 0.12769 0.17392 0.0
C720 C 0.47005 0.14086 0.13795 0.0
C721 C 0.4837 0.15419 0.13484 0.0
C722 C 0.49829 0.15436 0.16665 0.0
H723 H 0.49563 0.15186 0.34395 0.0
H724 H 0.48579 0.15464 0.28575 0.0
H725 H 0.48863 0.13232 0.31027 0.0
H726 H 0.48703 0.11736 0.23254 0.0
H727 H 0.46133 0.1171 0.17705 0.0
H728 H 0.13344 0.56015 0.98675 0.0
H729 H 0.1357 0.53044 0.94842 0.0
H730 H 0.15833 0.55556 0.82402 0.0
H731 H 0.15667 0.58526 0.8626 0.0
H732 H 0.11974 0.51829 0.86517 0.0
H733 H 0.19478 0.51518 0.85109 0.0
H734 H 0.18331 0.53152 0.88825 0.0
H735 H 0.18488 0.53516 0.8254 0.0
C736 C 0.13913 0.55939 0.95149 0.0
C737 C 0.14498 0.57521 0.92804 0.0
C738 C 0.1403 0.54236 0.92947 0.0
C739 C 0.14745 0.54068 0.8836 0.0
C740 C 0.15309 0.55643 0.85979 0.0
H741 H 0.1624 0.45088 0.68659 0.0
H742 H 0.1617 0.4803 0.72708 0.0
C743 C 0.15192 0.57348 0.88176 0.0
C744 C 0.14858 0.52251 0.86036 0.0
H745 H 0.17818 0.49214 0.81091 0.0
C746 C 0.13253 0.51253 0.85355 0.0
C747 C 0.16527 0.51499 0.84507 0.0
C748 C 0.18307 0.52467 0.85315 0.0
C749 C 0.13265 0.49544 0.83112 0.0
C750 C 0.14934 0.48792 0.81583 0.0
C751 C 0.16539 0.49789 0.82264 0.0
C752 C 0.15036 0.46983 0.79216 0.0
C753 C 0.11483 0.48581 0.82291 0.0
C754 C 0.14462 0.45403 0.8156 0.0
C755 C 0.145 0.43715 0.79254 0.0
C756 C 0.15124 0.43569 0.74557 0.0
C757 C 0.15747 0.45147 0.72269 0.0
C758 C 0.15708 0.46834 0.7458 0.0
H759 H 0.10312 0.49526 0.82545 0.0
H760 H 0.11454 0.47915 0.78755 0.0
H761 H 0.11309 0.47515 0.85027 0.0
H762 H 0.13975 0.45476 0.85174 0.0
H763 H 0.14018 0.4253 0.81136 0.0
H764 H 0.46702 0.85982 0.36143 0.0
H765 H 0.49632 0.86953 0.33058 0.0
H766 H 0.48082 0.92557 0.34909 0.0
H767 H 0.45123 0.91587 0.38009 0.0
H768 H 0.49179 0.91714 0.2572 0.0
H769 H 0.54251 0.89182 0.38595 0.0
H770 H 0.52633 0.8747 0.36943 0.0
H771 H 0.51883 0.89464 0.40077 0.0
C772 C 0.47002 0.87422 0.36024 0.0
C773 C 0.45681 0.88707 0.37326 0.0
C774 C 0.48684 0.87976 0.34277 0.0
C775 C 0.49087 0.89828 0.33785 0.0
C776 C 0.47805 0.9112 0.35292 0.0
H777 H 0.59539 0.92897 0.20875 0.0
H778 H 0.56953 0.9282 0.2629 0.0
C779 C 0.4612 0.90564 0.37092 0.0
C780 C 0.50744 0.90385 0.31162 0.0
H781 H 0.55328 0.89699 0.30632 0.0
C782 C 0.50528 0.91304 0.2684 0.0
C783 C 0.52507 0.89862 0.32628 0.0
C784 C 0.52838 0.88956 0.37339 0.0
C785 C 0.5201 0.91622 0.23829 0.0
C786 C 0.53752 0.90989 0.2515 0.0
C787 C 0.53988 0.90165 0.29593 0.0
C788 C 0.55317 0.91069 0.21843 0.0
C789 C 0.51692 0.92602 0.19211 0.0
C790 C 0.55266 0.90093 0.17568 0.0
C791 C 0.56747 0.90116 0.14482 0.0
C792 C 0.58323 0.91117 0.15594 0.0
C793 C 0.58366 0.92095 0.19897 0.0
C794 C 0.56882 0.92062 0.22998 0.0
H795 H 0.50434 0.93433 0.19322 0.0
H796 H 0.52856 0.935 0.18341 0.0
H797 H 0.51542 0.91589 0.16316 0.0
H798 H 0.54086 0.89285 0.16648 0.0
H799 H 0.56662 0.89315 0.11273 0.0
H800 H 0.84759 0.95838 0.57781 0.0
H801 H 0.85047 0.98541 0.52818 0.0
H802 H 0.90184 0.96585 0.47591 0.0
H803 H 0.89895 0.93866 0.52468 0.0
H804 H 0.87739 1.01061 0.53688 0.0
H805 H 0.87714 0.98233 0.3546 0.0
H806 H 0.86974 0.96941 0.40532 0.0
H807 H 0.89355 0.97182 0.39285 0.0
C808 C 0.85932 0.95962 0.55502 0.0
C809 C 0.87304 0.94633 0.55529 0.0
C810 C 0.86097 0.97512 0.52677 0.0
C811 C 0.87631 0.97761 0.49806 0.0
C812 C 0.88972 0.96408 0.49703 0.0
H813 H 0.9174 0.0822 0.40188 0.0
H814 H 0.91314 0.05278 0.44063 0.0
C815 C 0.88807 0.94855 0.52514 0.0
C816 C 0.87897 0.99498 0.47237 0.0
H817 H 0.88668 1.01315 0.36295 0.0
C818 C 0.87932 1.01117 0.4988 0.0
C819 C 0.88137 0.99572 0.42267 0.0
C820 C 0.88027 0.97891 0.39209 0.0
C821 C 0.88223 0.02804 0.47703 0.0
C822 C 0.88524 0.02872 0.42756 0.0
C823 C 0.88461 1.01257 0.40097 0.0
C824 C 0.88845 0.04615 0.40259 0.0
C825 C 0.88173 0.04501 0.50713 0.0
C826 C 0.87633 0.05192 0.36728 0.0
C827 C 0.87877 0.06867 0.34499 0.0
C828 C 0.89344 0.08001 0.35743 0.0
C829 C 0.90582 0.07396 0.39201 0.0
C830 C 0.90339 0.05715 0.41421 0.0
H831 H 0.87476 0.04265 0.54144 0.0
H832 H 0.89582 0.04943 0.51497 0.0
H833 H 0.87471 0.05624 0.48828 0.0
H834 H 0.86472 0.04364 0.35773 0.0
H835 H 0.86883 0.07293 0.31901 0.0
H836 H 0.96141 0.15838 0.36629 0.0
H837 H 0.99341 0.15796 0.38923 0.0
H838 H 0.97852 0.14255 0.53128 0.0
H839 H 0.94645 0.14248 0.50828 0.0
H840 H 1.01249 0.17701 0.4542 0.0
H841 H 1.01523 0.10382 0.49966 0.0
H842 H 0.99616 0.1138 0.46907 0.0
H843 H 0.99835 0.11611 0.53236 0.0
C844 C 0.9649 0.1549 0.40247 0.0
C845 C 0.9513 0.15032 0.43534 0.0
C846 C 0.98324 0.15467 0.41554 0.0
C847 C 0.98847 0.14987 0.46174 0.0
C848 C 0.97491 0.14582 0.49506 0.0
H849 H 0.0921 0.14362 0.60827 0.0
H850 H 0.06016 0.14482 0.58608 0.0
C851 C 0.95653 0.14592 0.48193 0.0
C852 C 1.00809 0.14922 0.47489 0.0
H853 H 0.04125 0.12142 0.51915 0.0
C854 C 1.01878 0.16482 0.46819 0.0
C855 C 1.01638 0.13329 0.49301 0.0
C856 C 1.006 0.11575 0.49854 0.0
C857 C 0.03737 0.16502 0.47983 0.0
C858 C 0.04556 0.14917 0.49832 0.0
C859 C 0.03492 0.13358 0.50507 0.0
C860 C 0.06515 0.14851 0.51128 0.0
C861 C 0.04805 0.1823 0.47313 0.0
C862 C 0.07865 0.14999 0.4765 0.0
C863 C 0.09707 0.14908 0.48896 0.0
C864 C 0.10242 0.14668 0.53656 0.0
C865 C 0.08873 0.1452 0.57121 0.0
C866 C 0.07035 0.146 0.55865 0.0
H867 H 0.03906 0.19426 0.46787 0.0
H868 H 0.05699 0.1849 0.50418 0.0
H869 H 0.0568 0.1809 0.44138 0.0
H870 H 0.07494 0.15164 0.43958 0.0
H871 H 0.10707 0.15002 0.46108 0.0
H872 H 0.14045 0.94211 0.51014 0.0
H873 H 0.13783 0.97248 0.54297 0.0
H874 H 0.15886 0.95356 0.67671 0.0
H875 H 0.16138 0.92274 0.64419 0.0
H876 H 0.11836 0.98555 0.62214 0.0
H877 H 0.19282 0.99612 0.6433 0.0
H878 H 0.1836 0.9778 0.60803 0.0
H879 H 0.18321 0.97648 0.67154 0.0
C880 C 0.1443 0.94413 0.54676 0.0
C881 C 0.15118 0.92973 0.57433 0.0
C882 C 0.14286 0.96167 0.56546 0.0
C883 C 0.14834 0.96541 0.61213 0.0
C884 C 0.15485 0.95109 0.6403 0.0
H885 H 0.1587 0.07903 0.71567 0.0
H886 H 0.15591 0.04567 0.72102 0.0
C887 C 0.15627 0.93344 0.6216 0.0
C888 C 0.14741 0.98444 0.63019 0.0
H889 H 0.1739 1.02101 0.65907 0.0
C890 C 0.13049 0.99322 0.63092 0.0
C891 C 0.16321 0.99446 0.64205 0.0
C892 C 0.18179 0.98586 0.64101 0.0
C893 C 0.12902 1.01186 0.64117 0.0
C894 C 0.14491 1.02213 0.65021 0.0
C895 C 0.16172 1.01315 0.65225 0.0
C896 C 0.1447 0.04237 0.65049 0.0
C897 C 0.11046 1.02052 0.64097 0.0
C898 C 0.13919 0.05157 0.60945 0.0
C899 C 0.14087 0.0704 0.60631 0.0
C900 C 0.14805 0.08059 0.64417 0.0
C901 C 0.1529 0.07155 0.6862 0.0
C902 C 0.15142 0.05251 0.68913 0.0
H903 H 0.09975 1.01048 0.64988 0.0
H904 H 0.10973 0.032 0.66651 0.0
H905 H 0.10751 0.02581 0.60496 0.0
H906 H 0.13431 0.0441 0.57883 0.0
H907 H 0.13705 0.07696 0.5734 0.0
H908 H 0.97863 0.89628 0.66357 0.0
H909 H 1.00639 0.89715 0.61675 0.0
H910 H 0.97855 0.92716 0.50744 0.0
H911 H 0.95061 0.9263 0.55419 0.0
H912 H 0.99771 0.89932 0.47072 0.0
H913 H 0.04178 0.938 0.5933 0.0
H914 H 0.0317 0.91888 0.62238 0.0
H915 H 1.01745 0.93691 0.60044 0.0
C916 C 0.97845 0.90336 0.63001 0.0
C917 C 0.96235 0.91126 0.61279 0.0
C918 C 0.99438 0.90389 0.60325 0.0
C919 C 0.99468 0.91252 0.5589 0.0
C920 C 0.97868 0.92051 0.54165 0.0
H921 H 0.10341 0.91551 0.43041 0.0
H922 H 0.07302 0.92668 0.45133 0.0
C923 C 0.96269 0.91993 0.56835 0.0
C924 C 1.01142 0.91212 0.52956 0.0
H925 H 0.05714 0.91942 0.53514 0.0
C926 C 1.01066 0.90402 0.48446 0.0
C927 C 0.02828 0.91864 0.54679 0.0
C928 C 0.02983 0.92878 0.59316 0.0
C929 C 0.02646 0.90111 0.45771 0.0
C930 C 0.04351 0.90611 0.47694 0.0
C931 C 0.04412 0.91537 0.5205 0.0
C932 C 0.06092 0.89993 0.45571 0.0
C933 C 0.02474 0.89236 0.40951 0.0
C934 C 0.06411 0.88127 0.45008 0.0
C935 C 0.08134 0.87492 0.43808 0.0
C936 C 0.09583 0.88707 0.4317 0.0
C937 C 0.09245 0.90584 0.43456 0.0
C938 C 0.07513 0.91221 0.44683 0.0
H939 H 1.01148 0.89571 0.39282 0.0
H940 H 0.0358 0.89672 0.38544 0.0
H941 H 0.02538 0.87737 0.41344 0.0
H942 H 0.05356 0.87147 0.45776 0.0
H943 H 0.08353 0.86038 0.43629 0.0
H944 H 0.37092 0.34074 0.18259 0.0
H945 H 0.36876 0.30756 0.18492 0.0
H946 H 0.40192 0.3039 0.05959 0.0
H947 H 0.40448 0.337 0.05755 0.0
H948 H 0.35652 0.28108 0.12321 0.0
H949 H 0.43049 0.27371 0.15419 0.0
H950 H 0.41907 0.29534 0.15779 0.0
H951 H 0.42515 0.28597 0.10104 0.0
C952 C 0.37761 0.3329 0.1552 0.0
C953 C 0.38806 0.34156 0.12018 0.0
C954 C 0.37636 0.31391 0.15662 0.0
C955 C 0.38552 0.30319 0.12309 0.0
C956 C 0.39512 0.31184 0.08658 0.0
H957 H 0.37537 0.18724 0.06842 0.0
H958 H 0.3712 0.22016 0.06974 0.0
C959 C 0.39647 0.33081 0.08529 0.0
C960 C 0.38564 0.28302 0.12733 0.0
H961 H 0.41407 0.24662 0.13863 0.0
C962 C 0.36909 0.27353 0.12674 0.0
C963 C 0.40201 0.27317 0.13291 0.0
C964 C 0.42017 0.28255 0.13703 0.0
C965 C 0.36851 0.25445 0.13048 0.0
C966 C 0.38496 0.24457 0.13406 0.0
C967 C 0.40145 0.25413 0.13557 0.0
C968 C 0.38558 0.22432 0.13592 0.0
C969 C 0.35028 0.24514 0.13137 0.0
C970 C 0.39505 0.21556 0.17264 0.0
C971 C 0.39765 0.19672 0.17168 0.0
C972 C 0.39083 0.18619 0.13397 0.0
C973 C 0.38068 0.19488 0.09825 0.0
C974 C 0.3782 0.21376 0.09905 0.0
H975 H 0.33938 0.25455 0.14311 0.0
H976 H 0.34683 0.24041 0.09507 0.0
H977 H 0.35045 0.23318 0.15527 0.0
H978 H 0.40089 0.22338 0.20147 0.0
H979 H 0.40553 0.19051 0.19978 0.0
H980 H 0.1944 0.70056 0.91309 0.0
H981 H 0.22738 0.7031 0.90255 0.0
H982 H 0.23197 0.64473 0.90325 0.0
H983 H 0.19921 0.64203 0.91356 0.0
H984 H 0.25545 0.68888 0.96347 0.0
H985 H 0.25927 0.66 0.78211 0.0
H986 H 0.23835 0.66831 0.80738 0.0
H987 H 0.24676 0.64619 0.82299 0.0
C988 C 0.20241 0.68826 0.91059 0.0
C989 C 0.19411 0.67108 0.91398 0.0
C990 C 0.22126 0.68974 0.90472 0.0
C991 C 0.23211 0.6741 0.90153 0.0
C992 C 0.22385 0.65698 0.90481 0.0
H993 H 0.343 0.64097 0.8785 0.0
H994 H 0.31021 0.64432 0.88595 0.0
C995 C 0.20509 0.65548 0.91092 0.0
C996 C 0.25213 0.67547 0.89614 0.0
H997 H 0.28713 0.66216 0.82494 0.0
C998 C 0.26241 0.68326 0.93295 0.0
C999 C 0.26117 0.66814 0.85627 0.0
C1000 C 0.25084 0.66034 0.8147 0.0
C1001 C 0.28152 0.68316 0.93193 0.0
C1002 C 0.29056 0.67533 0.89263 0.0
C1003 C 0.28023 0.66806 0.8552 0.0
C1004 C 0.31069 0.67366 0.89044 0.0
C1005 C 0.29185 0.6907 0.97382 0.0
C1006 C 0.32198 0.68905 0.89065 0.0
C1007 C 0.34087 0.68717 0.88661 0.0
C1008 C 0.3488 0.66987 0.88185 0.0
C1009 C 0.33742 0.65451 0.88206 0.0
C1010 C 0.31862 0.6564 0.88624 0.0
H1011 H 0.28304 0.69236 1.00543 0.0
H1012 H 0.30342 0.68173 0.98332 0.0
H1013 H 0.29739 0.70424 0.96452 0.0
H1014 H 0.31618 0.70253 0.89294 0.0
H1015 H 0.34921 0.69929 0.88622 0.0
H1016 H 0.64644 0.85802 0.2255 0.0
H1017 H 0.64963 0.82495 0.22449 0.0
H1018 H 0.67805 0.82814 0.09129 0.0
H1019 H 0.67552 0.86115 0.09296 0.0
H1020 H 0.63475 0.80304 0.16313 0.0
H1021 H 0.70876 0.79127 0.15643 0.0
H1022 H 0.6992 0.81316 0.17087 0.0
H1023 H 0.70149 0.80616 0.10992 0.0
C1024 C 0.65378 0.85171 0.1966 0.0
C1025 C 0.66073 0.86227 0.15936 0.0
C1026 C 0.65555 0.83278 0.19597 0.0
C1027 C 0.66423 0.82396 0.15802 0.0
C1028 C 0.67171 0.83454 0.12161 0.0
H1029 H 0.63624 0.71487 0.06621 0.0
H1030 H 0.64087 0.74764 0.07374 0.0
C1031 C 0.67015 0.85349 0.1225 0.0
C1032 C 0.66377 0.80375 0.15408 0.0
H1033 H 0.68986 0.76622 0.13235 0.0
C1034 C 0.64686 0.79501 0.15689 0.0
C1035 C 0.67954 0.79314 0.14639 0.0
C1036 C 0.69828 0.80141 0.14624 0.0
C1037 C 0.6452 0.77613 0.15128 0.0
C1038 C 0.66082 0.76565 0.14092 0.0
C1039 C 0.67783 0.77427 0.13935 0.0
C1040 C 0.65972 0.74569 0.13254 0.0
C1041 C 0.62671 0.76761 0.15734 0.0
C1042 C 0.66964 0.73359 0.16102 0.0
C1043 C 0.6673 0.7148 0.15613 0.0
C1044 C 0.6549 0.70773 0.12278 0.0
C1045 C 0.64573 0.71985 0.09262 0.0
C1046 C 0.64825 0.73861 0.09715 0.0
H1047 H 0.6176 0.77637 0.17884 0.0
H1048 H 0.62031 0.76577 0.12201 0.0
H1049 H 0.62772 0.75412 0.1747 0.0
H1050 H 0.6787 0.7387 0.18828 0.0
H1051 H 0.67459 0.70585 0.17993 0.0
H1052 H 0.68775 0.35043 0.86547 0.0
H1053 H 0.72081 0.34698 0.87208 0.0
H1054 H 0.72651 0.40502 0.88604 0.0
H1055 H 0.69368 0.4086 0.87975 0.0
H1056 H 0.74745 0.36264 0.81137 0.0
H1057 H 0.75673 0.3853 0.9973 0.0
H1058 H 0.73495 0.37842 0.97377 0.0
H1059 H 0.74361 0.40081 0.96211 0.0
C1060 C 0.69602 0.36243 0.87061 0.0
C1061 C 0.68802 0.37979 0.87225 0.0
C1062 C 0.71492 0.36044 0.87418 0.0
C1063 C 0.72612 0.37572 0.88008 0.0
C1064 C 0.71814 0.39301 0.88234 0.0
H1065 H 0.83783 0.40688 0.89036 0.0
H1066 H 0.80487 0.40406 0.8877 0.0
C1067 C 0.69933 0.39502 0.87853 0.0
C1068 C 0.74622 0.37388 0.88178 0.0
H1069 H 0.78334 0.3845 0.94918 0.0
C1070 C 0.75533 0.36717 0.84171 0.0
C1071 C 0.75646 0.37979 0.9214 0.0
C1072 C 0.74745 0.38633 0.96628 0.0
C1073 C 0.77442 0.36704 0.83935 0.0
C1074 C 0.78466 0.37351 0.87846 0.0
C1075 C 0.77551 0.37965 0.91908 0.0
C1076 C 0.80481 0.37494 0.87736 0.0
C1077 C 0.78344 0.36074 0.79428 0.0
C1078 C 0.81585 0.3595 0.87211 0.0
C1079 C 0.83483 0.36107 0.87337 0.0
C1080 C 0.84312 0.3781 0.88033 0.0
C1081 C 0.83197 0.39354 0.88497 0.0
C1082 C 0.81308 0.39196 0.88357 0.0
H1083 H 0.77373 0.3601 0.76411 0.0
H1084 H 0.79481 0.36991 0.7846 0.0
H1085 H 0.78909 0.34693 0.79975 0.0
H1086 H 0.8098 0.34617 0.86813 0.0
H1087 H 0.84298 0.34889 0.87005 0.0
H1088 H 0.90255 0.70343 0.63856 0.0
H1089 H 0.89867 0.73631 0.63683 0.0
H1090 H 0.84055 0.72969 0.64211 0.0
H1091 H 0.84432 0.69662 0.64474 0.0
H1092 H 0.88102 0.75525 0.5669 0.0
H1093 H 0.84923 0.76893 0.74191 0.0
H1094 H 0.8603 0.74768 0.72827 0.0
H1095 H 0.8379 0.75222 0.70596 0.0
C1096 C 0.88892 0.70893 0.64005 0.0
C1097 C 0.87373 0.69737 0.64177 0.0
C1098 C 0.88674 0.72775 0.63897 0.0
C1099 C 0.86934 0.7355 0.63959 0.0
C1100 C 0.85412 0.72405 0.64245 0.0
H1101 H 0.8411 0.85135 0.61301 0.0
H1102 H 0.83886 0.81806 0.61439 0.0
C1103 C 0.8563 0.70514 0.64382 0.0
C1104 C 0.86734 0.75547 0.63429 0.0
H1105 H 0.85263 0.79396 0.69029 0.0
C1106 C 0.87475 0.76369 0.59385 0.0
C1107 C 0.85902 0.76647 0.66926 0.0
C1108 C 0.85127 0.75845 0.71402 0.0
C1109 C 0.8744 0.7826 0.58784 0.0
C1110 C 0.86658 0.79362 0.62339 0.0
C1111 C 0.8586 0.78543 0.6631 0.0
C1112 C 0.86776 0.8137 0.62148 0.0
C1113 C 0.88254 0.79068 0.54364 0.0
C1114 C 0.88474 0.82221 0.6252 0.0
C1115 C 0.88607 0.84112 0.62461 0.0
C1116 C 0.87043 0.85196 0.62021 0.0
C1117 C 0.85341 0.8434 0.61612 0.0
C1118 C 0.85209 0.82441 0.61709 0.0
H1119 H 0.88376 0.78045 0.51479 0.0
H1120 H 0.87424 0.80225 0.53066 0.0
H1121 H 0.89635 0.79585 0.5519 0.0
H1122 H 0.89698 0.81419 0.6292 0.0
H1123 H 0.89938 0.84724 0.62795 0.0
H1124 H 0.85487 0.13417 0.48232 0.0
H1125 H 0.82211 0.13644 0.49564 0.0
H1126 H 0.81812 0.17686 0.38588 0.0
H1127 H 0.85089 0.17479 0.37236 0.0
H1128 H 0.79798 0.16932 0.51419 0.0
H1129 H 0.78446 0.13199 0.34617 0.0
H1130 H 0.80615 0.13119 0.37616 0.0
H1131 H 0.79995 0.15083 0.34218 0.0
C1132 C 0.84709 0.14378 0.4615 0.0
C1133 C 0.85552 0.15423 0.42604 0.0
C1134 C 0.82837 0.14504 0.46921 0.0
C1135 C 0.81769 0.15663 0.44135 0.0
C1136 C 0.82614 0.1677 0.40748 0.0
H1137 H 0.71049 0.19679 0.43263 0.0
H1138 H 0.74228 0.19082 0.45122 0.0
C1139 C 0.84489 0.16657 0.39998 0.0
C1140 C 0.79761 0.15642 0.44564 0.0
H1141 H 0.75909 0.14503 0.38484 0.0
C1142 C 0.78945 0.16389 0.48615 0.0
C1143 C 0.78653 0.14899 0.40946 0.0
C1144 C 0.79464 0.14015 0.36612 0.0
C1145 C 0.77043 0.16488 0.49032 0.0
C1146 C 0.75935 0.15829 0.45296 0.0
C1147 C 0.76756 0.15006 0.41352 0.0
C1148 C 0.73944 0.16157 0.45129 0.0
C1149 C 0.76235 0.17318 0.53437 0.0
C1150 C 0.72709 0.14711 0.4461 0.0
C1151 C 0.70872 0.15053 0.43592 0.0
C1152 C 0.70262 0.16845 0.42982 0.0
C1153 C 0.71482 0.18285 0.43751 0.0
C1154 C 0.733 0.17945 0.44829 0.0
H1155 H 0.77188 0.17234 0.56489 0.0
H1156 H 0.75944 0.18775 0.52775 0.0
H1157 H 0.74943 0.16638 0.54402 0.0
H1158 H 0.73181 0.13319 0.44781 0.0
H1159 H 0.69967 0.1392 0.42934 0.0
H1160 H 0.16047 0.3281 0.58413 0.0
H1161 H 0.15954 0.29684 0.61185 0.0
H1162 H 0.15464 0.31559 0.75614 0.0
H1163 H 0.1558 0.34726 0.72849 0.0
H1164 H 0.17847 0.28643 0.74717 0.0
H1165 H 0.11398 0.27072 0.65587 0.0
H1166 H 0.13019 0.28017 0.61556 0.0
H1167 H 0.12195 0.2937 0.66427 0.0
C1168 C 0.15925 0.32567 0.62184 0.0
C1169 C 0.15805 0.34024 0.65403 0.0
C1170 C 0.15858 0.30773 0.63762 0.0
C1171 C 0.15649 0.30382 0.68595 0.0
C1172 C 0.15602 0.31828 0.71859 0.0
H1173 H 0.1369 0.18642 0.72048 0.0
H1174 H 0.13314 0.21891 0.73939 0.0
C1175 C 0.15675 0.33636 0.70277 0.0
C1176 C 0.15506 0.28455 0.7015 0.0
H1177 H 0.13317 0.24497 0.67422 0.0
C1178 C 0.16834 0.27742 0.73201 0.0
C1179 C 0.14155 0.27279 0.683 0.0
C1180 C 0.126 0.27979 0.6533 0.0
C1181 C 0.16936 0.25865 0.74116 0.0
C1182 C 0.15702 0.24666 0.71842 0.0
C1183 C 0.14282 0.25402 0.69125 0.0
C1184 C 0.16008 0.22664 0.71635 0.0
C1185 C 0.18397 0.25183 0.77415 0.0
C1186 C 0.17652 0.22008 0.69814 0.0
C1187 C 0.17864 0.2017 0.68749 0.0
C1188 C 0.16436 0.18934 0.69446 0.0
C1189 C 0.14821 0.1956 0.71527 0.0
C1190 C 0.14603 0.21417 0.72578 0.0
H1191 H 0.18696 0.26201 0.80227 0.0
H1192 H 0.18006 0.23883 0.79118 0.0
H1193 H 0.19666 0.24967 0.7538 0.0
H1194 H 0.18741 0.22934 0.68926 0.0
H1195 H 0.19125 0.19731 0.67141 0.0
H1196 H 0.1971 0.91702 0.4241 0.0
H1197 H 0.22855 0.92731 0.43389 0.0
H1198 H 0.24734 0.87973 0.35927 0.0
H1199 H 0.21616 0.86961 0.34854 0.0
H1200 H 0.25373 0.90944 0.4844 0.0
H1201 H 0.27956 0.91784 0.30268 0.0
H1202 H 0.25559 0.91652 0.31542 0.0
H1203 H 0.26887 0.89611 0.30873 0.0
C1204 C 0.2079 0.90906 0.40842 0.0
C1205 C 0.2041 0.89246 0.38558 0.0
C1206 C 0.22589 0.91491 0.41431 0.0
C1207 C 0.24035 0.90439 0.39699 0.0
C1208 C 0.23647 0.88832 0.37205 0.0
H1209 H 0.34221 0.87436 0.50035 0.0
H1210 H 0.31047 0.88276 0.49105 0.0
C1211 C 0.21857 0.88248 0.36619 0.0
C1212 C 0.25949 0.90881 0.40952 0.0
H1213 H 0.30211 0.91004 0.36259 0.0
C1214 C 0.26428 0.90999 0.45769 0.0
C1215 C 0.27329 0.90992 0.37487 0.0
C1216 C 0.26902 0.91024 0.32255 0.0
C1217 C 0.28254 0.91083 0.47212 0.0
C1218 C 0.2964 0.91007 0.43754 0.0
C1219 C 0.29155 0.91033 0.38931 0.0
C1220 C 0.3158 0.90703 0.45017 0.0
C1221 C 0.28676 0.91211 0.52437 0.0
C1222 C 0.32954 0.91797 0.43088 0.0
C1223 C 0.34783 0.91308 0.43583 0.0
C1224 C 0.35271 0.89704 0.45983 0.0
C1225 C 0.33899 0.8868 0.48173 0.0
C1226 C 0.32075 0.89167 0.47667 0.0
H1227 H 0.27583 0.91943 0.54358 0.0
H1228 H 0.28762 0.89821 0.53937 0.0
H1229 H 0.29984 0.91918 0.53096 0.0
H1230 H 0.32607 0.92985 0.41017 0.0
H1231 H 0.35801 0.92128 0.41836 0.0
H1232 H 0.24686 0.11484 0.63714 0.0
H1233 H 0.27442 0.11512 0.68594 0.0
H1234 H 0.24901 0.15246 0.78318 0.0
H1235 H 0.2215 0.15228 0.73471 0.0
H1236 H 0.29718 0.14346 0.71307 0.0
H1237 H 0.26566 0.11196 0.87116 0.0
H1238 H 0.25473 0.11208 0.81382 0.0
H1239 H 0.25415 0.13199 0.85087 0.0
C1240 C 0.24716 0.1232 0.66872 0.0
C1241 C 0.23183 0.13338 0.68218 0.0
C1242 C 0.26292 0.12329 0.69672 0.0
C1243 C 0.26368 0.13351 0.73882 0.0
C1244 C 0.2486 0.14407 0.75161 0.0
H1245 H 0.34556 0.15159 0.95763 0.0
H1246 H 0.31852 0.15237 0.90712 0.0
C1247 C 0.23285 0.14395 0.72377 0.0
C1248 C 0.28028 0.13327 0.76914 0.0
H1249 H 0.2955 0.12358 0.88092 0.0
C1250 C 0.29683 0.13903 0.74969 0.0
C1251 C 0.27983 0.12751 0.81701 0.0
C1252 C 0.26269 0.12037 0.83942 0.0
C1253 C 0.31285 0.1395 0.77698 0.0
C1254 C 0.31238 0.13378 0.82486 0.0
C1255 C 0.29584 0.12803 0.8443 0.0
C1256 C 0.32896 0.13342 0.85522 0.0
C1257 C 0.33005 0.14649 0.75461 0.0
C1258 C 0.34375 0.12233 0.84326 0.0
C1259 C 0.35921 0.12176 0.87222 0.0
C1260 C 0.36022 0.13221 0.91407 0.0
C1261 C 0.34528 0.14322 0.92607 0.0
C1262 C 0.32981 0.14376 0.89706 0.0
H1263 H 0.32719 0.15471 0.72245 0.0
H1264 H 0.33793 0.15493 0.78006 0.0
H1265 H 0.33863 0.1348 0.7439 0.0
H1266 H 0.34326 0.11389 0.81178 0.0
H1267 H 0.37021 0.11284 0.86213 0.0
H1268 H 0.15836 0.83048 0.30149 0.0
H1269 H 0.15562 0.80613 0.24237 0.0
H1270 H 0.13947 0.76882 0.35189 0.0
H1271 H 0.14201 0.79308 0.41103 0.0
H1272 H 0.17418 0.77067 0.24245 0.0
H1273 H 0.09908 0.76467 0.24798 0.0
H1274 H 0.11099 0.78453 0.26933 0.0
H1275 H 0.11029 0.76428 0.30467 0.0
C1276 C 0.15405 0.81715 0.31296 0.0
C1277 C 0.15034 0.8138 0.36112 0.0
C1278 C 0.15261 0.80321 0.27914 0.0
C1279 C 0.14718 0.78568 0.29258 0.0
C1280 C 0.1435 0.78227 0.34057 0.0
H1281 H 0.12444 0.68275 0.15707 0.0
H1282 H 0.12876 0.70855 0.21044 0.0
C1283 C 0.14509 0.79615 0.37444 0.0
C1284 C 0.14552 0.77086 0.2567 0.0
H1285 H 0.11491 0.74197 0.20528 0.0
C1286 C 0.16122 0.76445 0.23401 0.0
C1287 C 0.12861 0.76274 0.24577 0.0
C1288 C 0.11122 0.76945 0.26783 0.0
C1289 C 0.16055 0.74976 0.20188 0.0
C1290 C 0.14363 0.74152 0.19118 0.0
C1291 C 0.1279 0.74819 0.2134 0.0
C1292 C 0.14187 0.72561 0.15839 0.0
C1293 C 0.17808 0.74281 0.18112 0.0
C1294 C 0.14782 0.72643 0.11107 0.0
C1295 C 0.14544 0.71155 0.08037 0.0
C1296 C 0.13679 0.69563 0.0961 0.0
C1297 C 0.13095 0.69485 0.14352 0.0
C1298 C 0.13346 0.70961 0.17419 0.0
H1299 H 0.19002 0.74712 0.20253 0.0
H1300 H 0.17806 0.72775 0.17864 0.0
H1301 H 0.17974 0.74839 0.14489 0.0
H1302 H 0.15395 0.73872 0.0975 0.0
H1303 H 0.14987 0.71272 0.04396 0.0
H1304 H 0.69388 0.93618 0.90382 0.0
H1305 H 0.72333 0.93427 0.8646 0.0
H1306 H 0.73826 0.88936 0.9544 0.0
H1307 H 0.70877 0.89109 0.99369 0.0
H1308 H 0.76476 0.91578 0.95032 0.0
H1309 H 0.74203 0.89698 0.76922 0.0
H1310 H 0.73105 0.9169 0.79219 0.0
H1311 H 0.7274 0.8953 0.82026 0.0
C1312 C 0.70326 0.92568 0.91475 0.0
C1313 C 0.69887 0.91378 0.95201 0.0
C1314 C 0.72013 0.9246 0.89222 0.0
C1315 C 0.73293 0.91152 0.90613 0.0
C1316 C 0.72858 0.89954 0.94301 0.0
H1317 H 0.83356 0.88742 0.75463 0.0
H1318 H 0.80385 0.88542 0.79283 0.0
C1319 C 0.71172 0.90061 0.9656 0.0
C1320 C 0.75118 0.91091 0.88379 0.0
H1321 H 0.77285 0.90645 0.77745 0.0
C1322 C 0.76653 0.91362 0.91256 0.0
C1323 C 0.75352 0.90787 0.83462 0.0
C1324 C 0.73765 0.90392 0.80229 0.0
C1325 C 0.78411 0.91385 0.89335 0.0
C1326 C 0.78639 0.91159 0.84389 0.0
C1327 C 0.77108 0.90837 0.81528 0.0
C1328 C 0.80451 0.91275 0.82109 0.0
C1329 C 0.8001 0.91637 0.92627 0.0
C1330 C 0.81468 0.92884 0.82381 0.0
C1331 C 0.83163 0.93006 0.80186 0.0
C1332 C 0.83878 0.91524 0.77638 0.0
C1333 C 0.82847 0.89916 0.7735 0.0
C1334 C 0.81149 0.89796 0.7955 0.0
H1335 H 0.79659 0.91288 0.96343 0.0
H1336 H 0.81178 0.90787 0.91501 0.0
H1337 H 0.8044 0.93081 0.92559 0.0
H1338 H 0.80939 0.94058 0.84242 0.0
H1339 H 0.83894 0.94278 0.80411 0.0
H1340 H 0.88182 0.21513 0.26502 0.0
H1341 H 0.87868 0.24541 0.22988 0.0
H1342 H 0.9229 0.23374 0.13482 0.0
H1343 H 0.92618 0.20367 0.16966 0.0
H1344 H 0.90346 0.27364 0.22389 0.0
H1345 H 0.88331 0.25081 0.04415 0.0
H1346 H 0.88312 0.23586 0.09478 0.0
H1347 H 0.90401 0.24048 0.06419 0.0
C1348 C 0.89091 0.21903 0.23675 0.0
C1349 C 0.90413 0.20682 0.2199 0.0
C1350 C 0.88905 0.23632 0.21656 0.0
C1351 C 0.9003 0.24171 0.17901 0.0
C1352 C 0.91371 0.2297 0.1628 0.0
H1353 H 0.93007 0.34765 0.07845 0.0
H1354 H 0.92733 0.31833 0.11773 0.0
C1355 C 0.91557 0.21246 0.18285 0.0
C1356 C 0.89847 0.26005 0.15745 0.0
H1357 H 0.89298 0.28174 0.05141 0.0
C1358 C 0.90098 0.27542 0.18627 0.0
C1359 C 0.89494 0.26241 0.10848 0.0
C1360 C 0.891 0.24652 0.07617 0.0
C1361 C 0.90081 0.29304 0.16711 0.0
C1362 C 0.89836 0.29533 0.11766 0.0
C1363 C 0.89509 0.28 0.0892 0.0
C1364 C 0.89974 0.31342 0.09454 0.0
C1365 C 0.90323 0.30903 0.20007 0.0
C1366 C 0.88532 0.32028 0.06725 0.0
C1367 C 0.88687 0.33711 0.04449 0.0
C1368 C 0.90292 0.3474 0.04838 0.0
C1369 C 0.91737 0.34036 0.07544 0.0
C1370 C 0.91582 0.32355 0.09805 0.0
H1371 H 0.89935 0.30555 0.23698 0.0
H1372 H 0.91772 0.31312 0.20039 0.0
H1373 H 0.895 0.32084 0.1883 0.0
H1374 H 0.87281 0.31265 0.06377 0.0
H1375 H 0.87542 0.34213 0.02429 0.0
H1376 H 0.22041 0.40107 0.56675 0.0
H1377 H 0.2499 0.40082 0.52625 0.0
H1378 H 0.22255 0.39763 0.39117 0.0
H1379 H 0.19323 0.39812 0.43123 0.0
H1380 H 0.26664 0.37685 0.46637 0.0
H1381 H 0.25439 0.44141 0.37117 0.0
H1382 H 0.23999 0.43377 0.41873 0.0
H1383 H 0.2371 0.42481 0.35974 0.0
C1384 C 0.22071 0.40018 0.52846 0.0
C1385 C 0.20442 0.39989 0.50224 0.0
C1386 C 0.23758 0.40011 0.50529 0.0
C1387 C 0.23851 0.3997 0.45548 0.0
C1388 C 0.22226 0.39857 0.42947 0.0
H1389 H 0.32441 0.39853 0.24342 0.0
H1390 H 0.29571 0.39622 0.28681 0.0
C1391 C 0.20546 0.3988 0.4525 0.0
C1392 C 0.25636 0.40051 0.43049 0.0
H1393 H 0.2799 0.42405 0.34611 0.0
C1394 C 0.26957 0.38725 0.44033 0.0
C1395 C 0.2603 0.4141 0.39648 0.0
C1396 C 0.24727 0.42944 0.38621 0.0
C1397 C 0.28633 0.38696 0.41636 0.0
C1398 C 0.29009 0.40037 0.38185 0.0
C1399 C 0.27696 0.41368 0.37223 0.0
C1400 C 0.30767 0.40104 0.35581 0.0
C1401 C 0.29975 0.37208 0.42739 0.0
C1402 C 0.32396 0.4046 0.38003 0.0
C1403 C 0.34038 0.40598 0.3553 0.0
C1404 C 0.34092 0.4038 0.30569 0.0
C1405 C 0.32457 0.40008 0.28157 0.0
C1406 C 0.30812 0.39885 0.30633 0.0
H1407 H 0.2933 0.3606 0.44647 0.0
H1408 H 0.30606 0.36682 0.39439 0.0
H1409 H 0.31072 0.37765 0.45022 0.0
H1410 H 0.32396 0.4066 0.41809 0.0
H1411 H 0.35268 0.4087 0.37515 0.0
H1412 H 0.39748 0.83244 0.51542 0.0
H1413 H 0.39938 0.80643 0.56929 0.0
H1414 H 0.39993 0.76993 0.44964 0.0
H1415 H 0.39815 0.79588 0.39551 0.0
H1416 H 0.37396 0.77495 0.57276 0.0
H1417 H 0.44528 0.75569 0.533 0.0
H1418 H 0.43636 0.77806 0.52078 0.0
H1419 H 0.43068 0.75933 0.48268 0.0
C1420 C 0.39822 0.8189 0.5005 0.0
C1421 C 0.39776 0.81628 0.45102 0.0
C1422 C 0.39917 0.80403 0.53139 0.0
C1423 C 0.39994 0.78624 0.51353 0.0
C1424 C 0.39951 0.78355 0.46423 0.0
H1425 H 0.41239 0.67857 0.63317 0.0
H1426 H 0.40949 0.7053 0.58257 0.0
C1427 C 0.39839 0.7984 0.43332 0.0
C1428 C 0.40095 0.77046 0.54639 0.0
H1429 H 0.42863 0.73579 0.58191 0.0
C1430 C 0.38592 0.76641 0.575 0.0
C1431 C 0.41654 0.7593 0.54911 0.0
C1432 C 0.43323 0.7633 0.52009 0.0
C1433 C 0.38589 0.75124 0.60537 0.0
C1434 C 0.40154 0.74006 0.60826 0.0
C1435 C 0.41662 0.74428 0.57985 0.0
C1436 C 0.40251 0.72372 0.63957 0.0
C1437 C 0.36886 0.74702 0.63279 0.0
C1438 C 0.39956 0.72502 0.68874 0.0
C1439 C 0.40108 0.70963 0.71782 0.0
C1440 C 0.40591 0.69267 0.69852 0.0
C1441 C 0.40884 0.69143 0.64933 0.0
C1442 C 0.40714 0.70673 0.62029 0.0
H1443 H 0.35672 0.75344 0.61642 0.0
H1444 H 0.36652 0.73215 0.635 0.0
H1445 H 0.37023 0.75246 0.66934 0.0
H1446 H 0.39645 0.738 0.70486 0.0
H1447 H 0.399 0.71113 0.7556 0.0
H1448 H 0.71274 0.66718 0.25835 0.0
H1449 H 0.7428 0.66754 0.2955 0.0
H1450 H 0.72936 0.61913 0.37355 0.0
H1451 H 0.69933 0.61868 0.33668 0.0
H1452 H 0.74568 0.64465 0.42986 0.0
H1453 H 0.78561 0.63475 0.26537 0.0
H1454 H 0.7706 0.65395 0.2636 0.0
H1455 H 0.76136 0.63139 0.26745 0.0
C1456 C 0.71622 0.6565 0.28302 0.0
C1457 C 0.70354 0.64286 0.29428 0.0
C1458 C 0.73346 0.65671 0.30425 0.0
C1459 C 0.7385 0.64321 0.33688 0.0
C1460 C 0.72583 0.6297 0.34849 0.0
H1461 H 0.84638 0.61408 0.43376 0.0
H1462 H 0.81652 0.61599 0.39645 0.0
C1463 C 0.70859 0.6295 0.32744 0.0
C1464 C 0.75684 0.64322 0.35951 0.0
H1465 H 0.80227 0.64103 0.33551 0.0
C1466 C 0.75805 0.64387 0.40921 0.0
C1467 C 0.77301 0.64199 0.33267 0.0
C1468 C 0.77266 0.6403 0.27935 0.0
C1469 C 0.77492 0.64339 0.43274 0.0
C1470 C 0.79111 0.64257 0.40585 0.0
C1471 C 0.78989 0.64184 0.35616 0.0
C1472 C 0.80942 0.64173 0.42856 0.0
C1473 C 0.77521 0.64326 0.48622 0.0
C1474 C 0.81557 0.65567 0.45871 0.0
C1475 C 0.83274 0.65462 0.4802 0.0
C1476 C 0.84423 0.63969 0.47165 0.0
C1477 C 0.83808 0.62589 0.44086 0.0
C1478 C 0.82092 0.62692 0.41957 0.0
H1479 H 0.76187 0.6392 0.50112 0.0
H1480 H 0.78576 0.63383 0.49984 0.0
H1481 H 0.77838 0.65712 0.49939 0.0
H1482 H 0.80716 0.66746 0.46539 0.0
H1483 H 0.83709 0.66564 0.503 0.0
H1484 H 0.66048 0.22443 0.48786 0.0
H1485 H 0.6587 0.24986 0.54331 0.0
H1486 H 0.63491 0.28324 0.43437 0.0
H1487 H 0.63627 0.25777 0.37869 0.0
H1488 H 0.66371 0.30035 0.48916 0.0
H1489 H 0.61055 0.26902 0.60205 0.0
H1490 H 0.63019 0.25519 0.59086 0.0
H1491 H 0.61534 0.26112 0.54275 0.0
C1492 C 0.65468 0.23707 0.47558 0.0
C1493 C 0.64833 0.23886 0.42863 0.0
C1494 C 0.65375 0.25165 0.50743 0.0
C1495 C 0.64647 0.26838 0.49317 0.0
C1496 C 0.64055 0.27043 0.44615 0.0
H1497 H 0.60575 0.35792 0.65885 0.0
H1498 H 0.61077 0.33229 0.60554 0.0
C1499 C 0.64141 0.25583 0.41427 0.0
C1500 C 0.64481 0.28367 0.52744 0.0
H1501 H 0.62285 0.29692 0.62833 0.0
C1502 C 0.65483 0.29961 0.51968 0.0
C1503 C 0.6331 0.28271 0.56702 0.0
C1504 C 0.62154 0.26617 0.5762 0.0
C1505 C 0.65348 0.3146 0.55054 0.0
C1506 C 0.64189 0.31357 0.59038 0.0
C1507 C 0.63185 0.29764 0.59803 0.0
C1508 C 0.63919 0.32922 0.6231 0.0
C1509 C 0.6641 0.3316 0.53965 0.0
C1510 C 0.65347 0.33596 0.65122 0.0
C1511 C 0.65065 0.35074 0.68184 0.0
C1512 C 0.63349 0.35909 0.68481 0.0
C1513 C 0.61921 0.35211 0.65693 0.0
C1514 C 0.62202 0.33733 0.62661 0.0
H1515 H 0.66949 0.33152 0.50291 0.0
H1516 H 0.65551 0.34386 0.54445 0.0
H1517 H 0.67576 0.33265 0.56451 0.0
H1518 H 0.66677 0.32974 0.64964 0.0
H1519 H 0.66195 0.35577 0.70263 0.0
loop_
_geom_bond_atom_site_label_1
_geom_bond_atom_site_label_2
_geom_bond_distance
_geom_bond_site_symmetry_2
_ccdc_geom_bond_type
Cu0 N1 1.999 . S
Cu0 O6 1.974 . S
Cu0 N11 1.985 . S
Cu0 O20 1.959 . S
N1 Cu0 1.999 . S
N1 C3 1.263 . S
N1 C5 1.389 . S
N2 C3 1.358 . S
N2 C4 1.400 . S
C3 N1 1.263 . S
C3 N2 1.358 . S
C3 H9 0.930 . S
C4 N2 1.400 . S
C4 C5 1.351 . S
C4 H21 0.930 . S
C5 N1 1.389 . S
C5 C4 1.351 . S
C5 H10 0.930 . S
O6 Cu0 1.974 . S
O6 C16 1.282 . S
C7 O8 1.261 . S
C7 O20 1.251 . S
O8 C7 1.261 . S
H9 C3 0.930 . S
H10 C5 0.930 . S
N11 Cu0 1.985 . S
N11 C13 1.335 . S
N11 C14 1.390 . S
N12 C13 1.345 . S
N12 C15 1.336 . S
C13 N11 1.335 . S
C13 N12 1.345 . S
C13 H18 0.930 . S
C14 N11 1.390 . S
C14 C15 1.346 . S
C14 H19 0.930 . S
C15 N12 1.336 . S
C15 C14 1.346 . S
C15 H22 0.929 . S
C16 O6 1.282 . S
C16 O17 1.216 . S
O17 C16 1.216 . S
H18 C13 0.930 . S
H19 C14 0.930 . S
O20 Cu0 1.959 . S
O20 C7 1.251 . S
H21 C4 0.930 . S
H22 C15 0.929 . S
Cu23 N24 1.999 . S
Cu23 O29 1.974 . S
Cu23 N34 1.985 . S
Cu23 O43 1.959 . S
N24 Cu23 1.999 . S
N24 C26 1.263 . S
N24 C28 1.389 . S
N25 C26 1.358 . S
N25 C27 1.400 . S
C26 N24 1.263 . S
C26 N25 1.358 . S
C26 H32 0.930 . S
C27 N25 1.400 . S
C27 C28 1.351 . S
C27 H44 0.930 . S
C28 N24 1.389 . S
C28 C27 1.351 . S
C28 H33 0.930 . S
O29 Cu23 1.974 . S
O29 C39 1.282 . S
C30 O31 1.261 . S
C30 O43 1.251 . S
O31 C30 1.261 . S
H32 C26 0.930 . S
H33 C28 0.930 . S
N34 Cu23 1.985 . S
N34 C36 1.335 . S
N34 C37 1.390 . S
N35 C36 1.345 . S
N35 C38 1.336 . S
C36 N34 1.335 . S
C36 N35 1.345 . S
C36 H41 0.930 . S
C37 N34 1.390 . S
C37 C38 1.346 . S
C37 H42 0.930 . S
C38 N35 1.336 . S
C38 C37 1.346 . S
C38 H45 0.929 . S
C39 O29 1.282 . S
C39 O40 1.216 . S
O40 C39 1.216 . S
H41 C36 0.930 . S
H42 C37 0.930 . S
O43 Cu23 1.959 . S
O43 C30 1.251 . S
H44 C27 0.930 . S
H45 C38 0.929 . S
Cu46 N47 1.999 . S
Cu46 O52 1.974 . S
Cu46 N57 1.985 . S
Cu46 O66 1.959 . S
N47 Cu46 1.999 . S
N47 C49 1.263 . S
N47 C51 1.389 . S
N48 C49 1.358 . S
N48 C50 1.400 . S
C49 N47 1.263 . S
C49 N48 1.358 . S
C49 H55 0.930 . S
C50 N48 1.400 . S
C50 C51 1.351 . S
C50 H67 0.930 . S
C51 N47 1.389 . S
C51 C50 1.351 . S
C51 H56 0.930 . S
O52 Cu46 1.974 . S
O52 C62 1.282 . S
C53 O54 1.261 . S
C53 O66 1.251 . S
O54 C53 1.261 . S
H55 C49 0.930 . S
H56 C51 0.930 . S
N57 Cu46 1.985 . S
N57 C59 1.335 . S
N57 C60 1.390 . S
N58 C59 1.345 . S
N58 C61 1.336 . S
C59 N57 1.335 . S
C59 N58 1.345 . S
C59 H64 0.930 . S
C60 N57 1.390 . S
C60 C61 1.346 . S
C60 H65 0.930 . S
C61 N58 1.336 . S
C61 C60 1.346 . S
C61 H68 0.929 . S
C62 O52 1.282 . S
C62 O63 1.216 . S
O63 C62 1.216 . S
H64 C59 0.930 . S
H65 C60 0.930 . S
O66 Cu46 1.959 . S
O66 C53 1.251 . S
H67 C50 0.930 . S
H68 C61 0.929 . S
Cu69 N70 1.999 . S
Cu69 O75 1.974 . S
Cu69 N80 1.985 . S
Cu69 O89 1.959 . S
N70 Cu69 1.999 . S
N70 C72 1.263 . S
N70 C74 1.389 . S
N71 C72 1.358 . S
N71 C73 1.400 . S
C72 N70 1.263 . S
C72 N71 1.358 . S
C72 H78 0.930 . S
C73 N71 1.400 . S
C73 C74 1.351 . S
C73 H90 0.930 . S
C74 N70 1.389 . S
C74 C73 1.351 . S
C74 H79 0.930 . S
O75 Cu69 1.974 . S
O75 C85 1.282 . S
C76 O77 1.261 . S
C76 O89 1.251 . S
O77 C76 1.261 . S
H78 C72 0.930 . S
H79 C74 0.930 . S
N80 Cu69 1.985 . S
N80 C82 1.335 . S
N80 C83 1.390 . S
N81 C82 1.345 . S
N81 C84 1.336 . S
C82 N80 1.335 . S
C82 N81 1.345 . S
C82 H87 0.930 . S
C83 N80 1.390 . S
C83 C84 1.346 . S
C83 H88 0.930 . S
C84 N81 1.336 . S
C84 C83 1.346 . S
C84 H91 0.929 . S
C85 O75 1.282 . S
C85 O86 1.216 . S
O86 C85 1.216 . S
H87 C82 0.930 . S
H88 C83 0.930 . S
O89 Cu69 1.959 . S
O89 C76 1.251 . S
H90 C73 0.930 . S
H91 C84 0.929 . S
Cu92 N93 1.999 . S
Cu92 O98 1.974 . S
Cu92 N103 1.985 . S
Cu92 O112 1.959 . S
N93 Cu92 1.999 . S
N93 C95 1.263 . S
N93 C97 1.389 . S
N94 C95 1.358 . S
N94 C96 1.400 . S
C95 N93 1.263 . S
C95 N94 1.358 . S
C95 H101 0.930 . S
C96 N94 1.400 . S
C96 C97 1.351 . S
C96 H113 0.930 . S
C97 N93 1.389 . S
C97 C96 1.351 . S
C97 H102 0.930 . S
O98 Cu92 1.974 . S
O98 C108 1.282 . S
C99 O100 1.261 . S
C99 O112 1.251 . S
O100 C99 1.261 . S
H101 C95 0.930 . S
H102 C97 0.930 . S
N103 Cu92 1.985 . S
N103 C105 1.335 . S
N103 C106 1.390 . S
N104 C105 1.345 . S
N104 C107 1.336 . S
C105 N103 1.335 . S
C105 N104 1.345 . S
C105 H110 0.930 . S
C106 N103 1.390 . S
C106 C107 1.346 . S
C106 H111 0.930 . S
C107 N104 1.336 . S
C107 C106 1.346 . S
C107 H114 0.929 . S
C108 O98 1.282 . S
C108 O109 1.216 . S
O109 C108 1.216 . S
H110 C105 0.930 . S
H111 C106 0.930 . S
O112 Cu92 1.959 . S
O112 C99 1.251 . S
H113 C96 0.930 . S
H114 C107 0.929 . S
Cu115 N116 1.999 . S
Cu115 O121 1.974 . S
Cu115 N126 1.985 . S
Cu115 O135 1.959 . S
N116 Cu115 1.999 . S
N116 C118 1.263 . S
N116 C120 1.389 . S
N117 C118 1.358 . S
N117 C119 1.400 . S
C118 N116 1.263 . S
C118 N117 1.358 . S
C118 H124 0.930 . S
C119 N117 1.400 . S
C119 C120 1.351 . S
C119 H136 0.930 . S
C120 N116 1.389 . S
C120 C119 1.351 . S
C120 H125 0.930 . S
O121 Cu115 1.974 . S
O121 C131 1.282 . S
C122 O123 1.261 . S
C122 O135 1.251 . S
O123 C122 1.261 . S
H124 C118 0.930 . S
H125 C120 0.930 . S
N126 Cu115 1.985 . S
N126 C128 1.335 . S
N126 C129 1.390 . S
N127 C128 1.345 . S
N127 C130 1.336 . S
C128 N126 1.335 . S
C128 N127 1.345 . S
C128 H133 0.930 . S
C129 N126 1.390 . S
C129 C130 1.346 . S
C129 H134 0.930 . S
C130 N127 1.336 . S
C130 C129 1.346 . S
C130 H137 0.929 . S
C131 O121 1.282 . S
C131 O132 1.216 . S
O132 C131 1.216 . S
H133 C128 0.930 . S
H134 C129 0.930 . S
O135 Cu115 1.959 . S
O135 C122 1.251 . S
H136 C119 0.930 . S
H137 C130 0.929 . S
Cu138 N139 1.999 . S
Cu138 O144 1.974 . S
Cu138 N149 1.985 . S
Cu138 O158 1.959 . S
N139 Cu138 1.999 . S
N139 C141 1.263 . S
N139 C143 1.389 . S
N140 C141 1.358 . S
N140 C142 1.400 . S
C141 N139 1.263 . S
C141 N140 1.358 . S
C141 H147 0.930 . S
C142 N140 1.400 . S
C142 C143 1.351 . S
C142 H159 0.930 . S
C143 N139 1.389 . S
C143 C142 1.351 . S
C143 H148 0.930 . S
O144 Cu138 1.974 . S
O144 C154 1.282 . S
C145 O146 1.261 . S
C145 O158 1.251 . S
O146 C145 1.261 . S
H147 C141 0.930 . S
H148 C143 0.930 . S
N149 Cu138 1.985 . S
N149 C151 1.335 . S
N149 C152 1.390 . S
N150 C151 1.345 . S
N150 C153 1.336 . S
C151 N149 1.335 . S
C151 N150 1.345 . S
C151 H156 0.930 . S
C152 N149 1.390 . S
C152 C153 1.346 . S
C152 H157 0.930 . S
C153 N150 1.336 . S
C153 C152 1.346 . S
C153 H160 0.929 . S
C154 O144 1.282 . S
C154 O155 1.216 . S
O155 C154 1.216 . S
H156 C151 0.930 . S
H157 C152 0.930 . S
O158 Cu138 1.959 . S
O158 C145 1.251 . S
H159 C142 0.930 . S
H160 C153 0.929 . S
Cu161 N162 1.999 . S
Cu161 O167 1.974 . S
Cu161 N172 1.985 . S
Cu161 O181 1.959 . S
N162 Cu161 1.999 . S
N162 C164 1.263 . S
N162 C166 1.389 . S
N163 C164 1.358 . S
N163 C165 1.400 . S
C164 N162 1.263 . S
C164 N163 1.358 . S
C164 H170 0.930 . S
C165 N163 1.400 . S
C165 C166 1.351 . S
C165 H182 0.930 . S
C166 N162 1.389 . S
C166 C165 1.351 . S
C166 H171 0.930 . S
O167 Cu161 1.974 . S
O167 C177 1.282 . S
C168 O169 1.261 . S
C168 O181 1.251 . S
O169 C168 1.261 . S
H170 C164 0.930 . S
H171 C166 0.930 . S
N172 Cu161 1.985 . S
N172 C174 1.335 . S
N172 C175 1.390 . S
N173 C174 1.345 . S
N173 C176 1.336 . S
C174 N172 1.335 . S
C174 N173 1.345 . S
C174 H179 0.930 . S
C175 N172 1.390 . S
C175 C176 1.346 . S
C175 H180 0.930 . S
C176 N173 1.336 . S
C176 C175 1.346 . S
C176 H183 0.929 . S
C177 O167 1.282 . S
C177 O178 1.216 . S
O178 C177 1.216 . S
H179 C174 0.930 . S
H180 C175 0.930 . S
O181 Cu161 1.959 . S
O181 C168 1.251 . S
H182 C165 0.930 . S
H183 C176 0.929 . S
Cu184 N185 1.999 . S
Cu184 O190 1.974 . S
Cu184 N195 1.985 . S
Cu184 O204 1.959 . S
N185 Cu184 1.999 . S
N185 C187 1.263 . S
N185 C189 1.389 . S
N186 C187 1.358 . S
N186 C188 1.400 . S
C187 N185 1.263 . S
C187 N186 1.358 . S
C187 H193 0.930 . S
C188 N186 1.400 . S
C188 C189 1.351 . S
C188 H205 0.930 . S
C189 N185 1.389 . S
C189 C188 1.351 . S
C189 H194 0.930 . S
O190 Cu184 1.974 . S
O190 C200 1.282 . S
C191 O192 1.261 . S
C191 O204 1.251 . S
O192 C191 1.261 . S
H193 C187 0.930 . S
H194 C189 0.930 . S
N195 Cu184 1.985 . S
N195 C197 1.335 . S
N195 C198 1.390 . S
N196 C197 1.345 . S
N196 C199 1.336 . S
C197 N195 1.335 . S
C197 N196 1.345 . S
C197 H202 0.930 . S
C198 N195 1.390 . S
C198 C199 1.346 . S
C198 H203 0.930 . S
C199 N196 1.336 . S
C199 C198 1.346 . S
C199 H206 0.929 . S
C200 O190 1.282 . S
C200 O201 1.216 . S
O201 C200 1.216 . S
H202 C197 0.930 . S
H203 C198 0.930 . S
O204 Cu184 1.959 . S
O204 C191 1.251 . S
H205 C188 0.930 . S
H206 C199 0.929 . S
Cu207 N208 1.999 . S
Cu207 O213 1.974 . S
Cu207 N218 1.985 . S
Cu207 O227 1.959 . S
N208 Cu207 1.999 . S
N208 C210 1.263 . S
N208 C212 1.389 . S
N209 C210 1.358 . S
N209 C211 1.400 . S
C210 N208 1.263 . S
C210 N209 1.358 . S
C210 H216 0.930 . S
C211 N209 1.400 . S
C211 C212 1.351 . S
C211 H228 0.930 . S
C212 N208 1.389 . S
C212 C211 1.351 . S
C212 H217 0.930 . S
O213 Cu207 1.974 . S
O213 C223 1.282 . S
C214 O215 1.261 . S
C214 O227 1.251 . S
O215 C214 1.261 . S
H216 C210 0.930 . S
H217 C212 0.930 . S
N218 Cu207 1.985 . S
N218 C220 1.335 . S
N218 C221 1.390 . S
N219 C220 1.345 . S
N219 C222 1.336 . S
C220 N218 1.335 . S
C220 N219 1.345 . S
C220 H225 0.930 . S
C221 N218 1.390 . S
C221 C222 1.346 . S
C221 H226 0.930 . S
C222 N219 1.336 . S
C222 C221 1.346 . S
C222 H229 0.929 . S
C223 O213 1.282 . S
C223 O224 1.216 . S
O224 C223 1.216 . S
H225 C220 0.930 . S
H226 C221 0.930 . S
O227 Cu207 1.959 . S
O227 C214 1.251 . S
H228 C211 0.930 . S
H229 C222 0.929 . S
Cu230 N231 1.999 . S
Cu230 O236 1.974 . S
Cu230 N241 1.985 . S
Cu230 O250 1.959 . S
N231 Cu230 1.999 . S
N231 C233 1.263 . S
N231 C235 1.389 . S
N232 C233 1.358 . S
N232 C234 1.400 . S
C233 N231 1.263 . S
C233 N232 1.358 . S
C233 H239 0.930 . S
C234 N232 1.400 . S
C234 C235 1.351 . S
C234 H251 0.930 . S
C235 N231 1.389 . S
C235 C234 1.351 . S
C235 H240 0.930 . S
O236 Cu230 1.974 . S
O236 C246 1.282 . S
C237 O238 1.261 . S
C237 O250 1.251 . S
O238 C237 1.261 . S
H239 C233 0.930 . S
H240 C235 0.930 . S
N241 Cu230 1.985 . S
N241 C243 1.335 . S
N241 C244 1.390 . S
N242 C243 1.345 . S
N242 C245 1.336 . S
C243 N241 1.335 . S
C243 N242 1.345 . S
C243 H248 0.930 . S
C244 N241 1.390 . S
C244 C245 1.346 . S
C244 H249 0.930 . S
C245 N242 1.336 . S
C245 C244 1.346 . S
C245 H252 0.929 . S
C246 O236 1.282 . S
C246 O247 1.216 . S
O247 C246 1.216 . S
H248 C243 0.930 . S
H249 C244 0.930 . S
O250 Cu230 1.959 . S
O250 C237 1.251 . S
H251 C234 0.930 . S
H252 C245 0.929 . S
Cu253 N254 1.999 . S
Cu253 O259 1.974 . S
Cu253 N264 1.985 . S
Cu253 O273 1.959 . S
N254 Cu253 1.999 . S
N254 C256 1.263 . S
N254 C258 1.389 . S
N255 C256 1.358 . S
N255 C257 1.400 . S
C256 N254 1.263 . S
C256 N255 1.358 . S
C256 H262 0.930 . S
C257 N255 1.400 . S
C257 C258 1.351 . S
C257 H274 0.930 . S
C258 N254 1.389 . S
C258 C257 1.351 . S
C258 H263 0.930 . S
O259 Cu253 1.974 . S
O259 C269 1.282 . S
C260 O261 1.261 . S
C260 O273 1.251 . S
O261 C260 1.261 . S
H262 C256 0.930 . S
H263 C258 0.930 . S
N264 Cu253 1.985 . S
N264 C266 1.335 . S
N264 C267 1.390 . S
N265 C266 1.345 . S
N265 C268 1.336 . S
C266 N264 1.335 . S
C266 N265 1.345 . S
C266 H271 0.930 . S
C267 N264 1.390 . S
C267 C268 1.346 . S
C267 H272 0.930 . S
C268 N265 1.336 . S
C268 C267 1.346 . S
C268 H275 0.929 . S
C269 O259 1.282 . S
C269 O270 1.216 . S
O270 C269 1.216 . S
H271 C266 0.930 . S
H272 C267 0.930 . S
O273 Cu253 1.959 . S
O273 C260 1.251 . S
H274 C257 0.930 . S
H275 C268 0.929 . S
Cu276 N277 1.999 . S
Cu276 O282 1.974 . S
Cu276 N287 1.985 . S
Cu276 O296 1.959 . S
N277 Cu276 1.999 . S
N277 C279 1.263 . S
N277 C281 1.389 . S
N278 C279 1.358 . S
N278 C280 1.400 . S
C279 N277 1.263 . S
C279 N278 1.358 . S
C279 H285 0.930 . S
C280 N278 1.400 . S
C280 C281 1.351 . S
C280 H297 0.930 . S
C281 N277 1.389 . S
C281 C280 1.351 . S
C281 H286 0.930 . S
O282 Cu276 1.974 . S
O282 C292 1.282 . S
C283 O284 1.261 . S
C283 O296 1.251 . S
O284 C283 1.261 . S
H285 C279 0.930 . S
H286 C281 0.930 . S
N287 Cu276 1.985 . S
N287 C289 1.335 . S
N287 C290 1.390 . S
N288 C289 1.345 . S
N288 C291 1.336 . S
C289 N287 1.335 . S
C289 N288 1.345 . S
C289 H294 0.930 . S
C290 N287 1.390 . S
C290 C291 1.346 . S
C290 H295 0.930 . S
C291 N288 1.336 . S
C291 C290 1.346 . S
C291 H298 0.929 . S
C292 O282 1.282 . S
C292 O293 1.216 . S
O293 C292 1.216 . S
H294 C289 0.930 . S
H295 C290 0.930 . S
O296 Cu276 1.959 . S
O296 C283 1.251 . S
H297 C280 0.930 . S
H298 C291 0.929 . S
Cu299 N300 1.999 . S
Cu299 O305 1.974 . S
Cu299 N310 1.985 . S
Cu299 O319 1.959 . S
N300 Cu299 1.999 . S
N300 C302 1.263 . S
N300 C304 1.389 . S
N301 C302 1.358 . S
N301 C303 1.400 . S
C302 N300 1.263 . S
C302 N301 1.358 . S
C302 H308 0.930 . S
C303 N301 1.400 . S
C303 C304 1.351 . S
C303 H320 0.930 . S
C304 N300 1.389 . S
C304 C303 1.351 . S
C304 H309 0.930 . S
O305 Cu299 1.974 . S
O305 C315 1.282 . S
C306 O307 1.261 . S
C306 O319 1.251 . S
O307 C306 1.261 . S
H308 C302 0.930 . S
H309 C304 0.930 . S
N310 Cu299 1.985 . S
N310 C312 1.335 . S
N310 C313 1.390 . S
N311 C312 1.345 . S
N311 C314 1.336 . S
C312 N310 1.335 . S
C312 N311 1.345 . S
C312 H317 0.930 . S
C313 N310 1.390 . S
C313 C314 1.346 . S
C313 H318 0.930 . S
C314 N311 1.336 . S
C314 C313 1.346 . S
C314 H321 0.929 . S
C315 O305 1.282 . S
C315 O316 1.216 . S
O316 C315 1.216 . S
H317 C312 0.930 . S
H318 C313 0.930 . S
O319 Cu299 1.959 . S
O319 C306 1.251 . S
H320 C303 0.930 . S
H321 C314 0.929 . S
Cu322 N323 1.999 . S
Cu322 O328 1.974 . S
Cu322 N333 1.985 . S
Cu322 O342 1.959 . S
N323 Cu322 1.999 . S
N323 C325 1.263 . S
N323 C327 1.389 . S
N324 C325 1.358 . S
N324 C326 1.400 . S
C325 N323 1.263 . S
C325 N324 1.358 . S
C325 H331 0.930 . S
C326 N324 1.400 . S
C326 C327 1.351 . S
C326 H343 0.930 . S
C327 N323 1.389 . S
C327 C326 1.351 . S
C327 H332 0.930 . S
O328 Cu322 1.974 . S
O328 C338 1.282 . S
C329 O330 1.261 . S
C329 O342 1.251 . S
O330 C329 1.261 . S
H331 C325 0.930 . S
H332 C327 0.930 . S
N333 Cu322 1.985 . S
N333 C335 1.335 . S
N333 C336 1.390 . S
N334 C335 1.345 . S
N334 C337 1.336 . S
C335 N333 1.335 . S
C335 N334 1.345 . S
C335 H340 0.930 . S
C336 N333 1.390 . S
C336 C337 1.346 . S
C336 H341 0.930 . S
C337 N334 1.336 . S
C337 C336 1.346 . S
C337 H344 0.929 . S
C338 O328 1.282 . S
C338 O339 1.216 . S
O339 C338 1.216 . S
H340 C335 0.930 . S
H341 C336 0.930 . S
O342 Cu322 1.959 . S
O342 C329 1.251 . S
H343 C326 0.930 . S
H344 C337 0.929 . S
Cu345 N346 1.999 . S
Cu345 O351 1.974 . S
Cu345 N356 1.985 . S
Cu345 O365 1.959 . S
N346 Cu345 1.999 . S
N346 C348 1.263 . S
N346 C350 1.389 . S
N347 C348 1.358 . S
N347 C349 1.400 . S
C348 N346 1.263 . S
C348 N347 1.358 . S
C348 H354 0.930 . S
C349 N347 1.400 . S
C349 C350 1.351 . S
C349 H366 0.930 . S
C350 N346 1.389 . S
C350 C349 1.351 . S
C350 H355 0.930 . S
O351 Cu345 1.974 . S
O351 C361 1.282 . S
C352 O353 1.261 . S
C352 O365 1.251 . S
O353 C352 1.261 . S
H354 C348 0.930 . S
H355 C350 0.930 . S
N356 Cu345 1.985 . S
N356 C358 1.335 . S
N356 C359 1.390 . S
N357 C358 1.345 . S
N357 C360 1.336 . S
C358 N356 1.335 . S
C358 N357 1.345 . S
C358 H363 0.930 . S
C359 N356 1.390 . S
C359 C360 1.346 . S
C359 H364 0.930 . S
C360 N357 1.336 . S
C360 C359 1.346 . S
C360 H367 0.929 . S
C361 O351 1.282 . S
C361 O362 1.216 . S
O362 C361 1.216 . S
H363 C358 0.930 . S
H364 C359 0.930 . S
O365 Cu345 1.959 . S
O365 C352 1.251 . S
H366 C349 0.930 . S
H367 C360 0.929 . S
H368 C376 0.929 . S
H369 C378 0.930 . S
H370 C380 0.930 . S
H371 C383 0.929 . S
H372 C386 0.930 . S
H373 C388 0.960 . S
H374 C388 0.960 . S
H375 C388 0.960 . S
C376 H368 0.929 . S
C376 C377 1.377 . S
C376 C378 1.384 . S
C377 C376 1.377 . S
C377 C383 1.390 . S
C378 H369 0.930 . S
C378 C376 1.384 . S
C378 C379 1.372 . S
C379 C378 1.372 . S
C379 C380 1.400 . S
C379 C384 1.490 . S
C380 H370 0.930 . S
C380 C379 1.400 . S
C380 C383 1.386 . S
H381 C397 0.930 . S
H382 C398 0.931 . S
C383 H371 0.929 . S
C383 C377 1.390 . S
C383 C380 1.386 . S
C384 C379 1.490 . S
C384 C386 1.395 . S
C384 C387 1.403 . S
H385 C391 0.930 . S
C386 H372 0.930 . S
C386 C384 1.395 . S
C386 C389 1.403 1_565 S
C387 C384 1.403 . S
C387 C388 1.524 . S
C387 C391 1.400 1_565 S
C388 H373 0.960 . S
C388 H374 0.960 . S
C388 H375 0.960 . S
C388 C387 1.524 . S
C389 C386 1.403 1_545 S
C389 C390 1.392 . S
C389 C393 1.495 . S
C390 C389 1.392 . S
C390 C391 1.385 . S
C390 C392 1.478 . S
C391 H385 0.930 . S
C391 C387 1.400 1_545 S
C391 C390 1.385 . S
C392 C390 1.478 . S
C392 C394 1.381 . S
C392 C398 1.383 . S
C393 C389 1.495 . S
C393 H399 0.959 . S
C393 H400 0.961 . S
C393 H401 0.960 . S
C394 C392 1.381 . S
C394 C395 1.394 . S
C394 H402 0.930 . S
C395 C394 1.394 . S
C395 C396 1.383 . S
C395 H403 0.929 . S
C396 C395 1.383 . S
C396 C397 1.377 . S
C397 H381 0.930 . S
C397 C396 1.377 . S
C397 C398 1.379 . S
C398 H382 0.931 . S
C398 C392 1.383 . S
C398 C397 1.379 . S
H399 C393 0.959 . S
H400 C393 0.961 . S
H401 C393 0.960 . S
H402 C394 0.930 . S
H403 C395 0.929 . S
H404 C412 0.929 . S
H405 C414 0.930 . S
H406 C416 0.930 . S
H407 C419 0.929 . S
H408 C422 0.930 . S
H409 C424 0.965 . S
H410 C424 0.960 . S
H411 C424 0.960 . S
C412 H404 0.929 . S
C412 C413 1.377 . S
C412 C414 1.384 . S
C413 C412 1.377 . S
C413 C419 1.390 . S
C414 H405 0.930 . S
C414 C412 1.384 . S
C414 C415 1.372 . S
C415 C414 1.372 . S
C415 C416 1.400 . S
C415 C420 1.490 . S
C416 H406 0.930 . S
C416 C415 1.400 . S
C416 C419 1.386 . S
H417 C433 0.930 . S
H418 C434 0.931 . S
C419 H407 0.929 . S
C419 C413 1.390 . S
C419 C416 1.386 . S
C420 C415 1.490 . S
C420 C422 1.395 . S
C420 C423 1.403 . S
H421 C427 0.930 . S
C422 H408 0.930 . S
C422 C420 1.395 . S
C422 C425 1.403 1_455 S
C423 C420 1.403 . S
C423 C424 1.524 . S
C423 C427 1.400 1_455 S
C424 H409 0.965 . S
C424 H410 0.960 . S
C424 H411 0.960 . S
C424 C423 1.524 . S
C425 C422 1.403 1_655 S
C425 C426 1.392 . S
C425 C429 1.495 . S
C426 C425 1.392 . S
C426 C427 1.385 . S
C426 C428 1.478 . S
C427 H421 0.930 . S
C427 C423 1.400 1_655 S
C427 C426 1.385 . S
C428 C426 1.478 . S
C428 C430 1.381 . S
C428 C434 1.383 . S
C429 C425 1.495 . S
C429 H435 0.959 1_655 S
C429 H436 0.961 . S
C429 H437 0.960 . S
C430 C428 1.381 . S
C430 C431 1.394 . S
C430 H438 0.930 . S
C431 C430 1.394 . S
C431 C432 1.383 . S
C431 H439 0.929 . S
C432 C431 1.383 . S
C432 C433 1.377 . S
C433 H417 0.930 . S
C433 C432 1.377 . S
C433 C434 1.379 . S
C434 H418 0.931 . S
C434 C428 1.383 . S
C434 C433 1.379 . S
H435 C429 0.959 1_455 S
H436 C429 0.961 . S
H437 C429 0.960 . S
H438 C430 0.930 . S
H439 C431 0.929 . S
H440 C448 0.929 . S
H441 C450 0.930 . S
H442 C452 0.930 . S
H443 C455 0.929 . S
H444 C458 0.930 . S
H445 C460 0.960 . S
H446 C460 0.960 . S
H447 C460 0.960 . S
C448 H440 0.929 . S
C448 C449 1.377 . S
C448 C450 1.384 . S
C449 C448 1.377 . S
C449 C455 1.390 . S
C450 H441 0.930 . S
C450 C448 1.384 . S
C450 C451 1.372 . S
C451 C450 1.372 . S
C451 C452 1.400 . S
C451 C456 1.490 . S
C452 H442 0.930 . S
C452 C451 1.400 . S
C452 C455 1.386 . S
H453 C469 0.930 . S
H454 C470 0.931 . S
C455 H443 0.929 . S
C455 C449 1.390 . S
C455 C452 1.386 . S
C456 C451 1.490 . S
C456 C458 1.395 . S
C456 C459 1.403 . S
H457 C463 0.930 . S
C458 H444 0.930 . S
C458 C456 1.395 . S
C458 C461 1.403 1_565 S
C459 C456 1.403 . S
C459 C460 1.524 . S
C459 C463 1.400 1_565 S
C460 H445 0.960 . S
C460 H446 0.960 . S
C460 H447 0.960 . S
C460 C459 1.524 . S
C461 C458 1.403 1_545 S
C461 C462 1.392 . S
C461 C465 1.495 . S
C462 C461 1.392 . S
C462 C463 1.385 . S
C462 C464 1.478 . S
C463 H457 0.930 . S
C463 C459 1.400 1_545 S
C463 C462 1.385 . S
C464 C462 1.478 . S
C464 C466 1.381 . S
C464 C470 1.383 . S
C465 C461 1.495 . S
C465 H471 0.959 . S
C465 H472 0.961 . S
C465 H473 0.960 . S
C466 C464 1.381 . S
C466 C467 1.394 . S
C466 H474 0.930 . S
C467 C466 1.394 . S
C467 C468 1.383 . S
C467 H475 0.929 . S
C468 C467 1.383 . S
C468 C469 1.377 . S
C469 H453 0.930 . S
C469 C468 1.377 . S
C469 C470 1.379 . S
C470 H454 0.931 . S
C470 C464 1.383 . S
C470 C469 1.379 . S
H471 C465 0.959 . S
H472 C465 0.961 . S
H473 C465 0.960 . S
H474 C466 0.930 . S
H475 C467 0.929 . S
H476 C484 0.929 . S
H477 C486 0.930 . S
H478 C488 0.930 . S
H479 C491 0.929 . S
H480 C494 0.930 . S
H481 C496 0.960 1_655 S
H482 C496 0.960 . S
H483 C496 0.960 . S
C484 H476 0.929 . S
C484 C485 1.377 . S
C484 C486 1.384 . S
C485 C484 1.377 . S
C485 C491 1.390 . S
C486 H477 0.930 . S
C486 C484 1.384 . S
C486 C487 1.372 . S
C487 C486 1.372 . S
C487 C488 1.400 . S
C487 C492 1.490 . S
C488 H478 0.930 . S
C488 C487 1.400 . S
C488 C491 1.386 . S
H489 C505 0.930 . S
H490 C506 0.931 . S
C491 H479 0.929 . S
C491 C485 1.390 . S
C491 C488 1.386 . S
C492 C487 1.490 . S
C492 C494 1.395 . S
C492 C495 1.403 . S
H493 C499 0.930 . S
C494 H480 0.930 . S
C494 C492 1.395 . S
C494 C497 1.403 1_455 S
C495 C492 1.403 . S
C495 C496 1.524 . S
C495 C499 1.400 1_455 S
C496 H481 0.960 1_455 S
C496 H482 0.960 . S
C496 H483 0.960 . S
C496 C495 1.524 . S
C497 C494 1.403 1_655 S
C497 C498 1.392 . S
C497 C501 1.495 . S
C498 C497 1.392 . S
C498 C499 1.385 . S
C498 C500 1.478 . S
C499 H493 0.930 . S
C499 C495 1.400 1_655 S
C499 C498 1.385 . S
C500 C498 1.478 . S
C500 C502 1.381 . S
C500 C506 1.383 . S
C501 C497 1.495 . S
C501 H507 0.959 . S
C501 H508 0.961 . S
C501 H509 0.960 . S
C502 C500 1.381 . S
C502 C503 1.394 . S
C502 H510 0.930 . S
C503 C502 1.394 . S
C503 C504 1.383 . S
C503 H511 0.929 . S
C504 C503 1.383 . S
C504 C505 1.377 . S
C505 H489 0.930 . S
C505 C504 1.377 . S
C505 C506 1.379 . S
C506 H490 0.931 . S
C506 C500 1.383 . S
C506 C505 1.379 . S
H507 C501 0.959 . S
H508 C501 0.961 . S
H509 C501 0.960 . S
H510 C502 0.930 . S
H511 C503 0.929 . S
H512 C520 0.929 . S
H513 C522 0.930 . S
H514 C524 0.930 . S
H515 C527 0.929 . S
H516 C530 0.930 . S
H517 C532 0.960 . S
H518 C532 0.960 . S
H519 C532 0.960 . S
C520 H512 0.929 . S
C520 C521 1.377 . S
C520 C522 1.384 . S
C521 C520 1.377 . S
C521 C527 1.390 . S
C522 H513 0.930 . S
C522 C520 1.384 . S
C522 C523 1.372 . S
C523 C522 1.372 . S
C523 C524 1.400 . S
C523 C528 1.490 . S
C524 H514 0.930 . S
C524 C523 1.400 . S
C524 C527 1.386 . S
H525 C541 0.930 . S
H526 C542 0.931 . S
C527 H515 0.929 . S
C527 C521 1.390 . S
C527 C524 1.386 . S
C528 C523 1.490 . S
C528 C530 1.395 . S
C528 C531 1.403 1_554 S
H529 C535 0.930 . S
C530 H516 0.930 . S
C530 C528 1.395 . S
C530 C533 1.403 . S
C531 C528 1.403 1_556 S
C531 C532 1.524 . S
C531 C535 1.400 . S
C532 H517 0.960 . S
C532 H518 0.960 . S
C532 H519 0.960 . S
C532 C531 1.524 . S
C533 C530 1.403 . S
C533 C534 1.392 . S
C533 C537 1.495 . S
C534 C533 1.392 . S
C534 C535 1.385 1_554 S
C534 C536 1.475 1_554 S
C535 H529 0.930 . S
C535 C531 1.400 . S
C535 C534 1.385 1_556 S
C536 C534 1.475 1_556 S
C536 C538 1.386 . S
C536 C542 1.381 1_556 S
C537 C533 1.495 . S
C537 H543 0.959 . S
C537 H544 0.961 . S
C537 H545 0.960 . S
C538 C536 1.386 . S
C538 C539 1.394 . S
C538 H546 0.930 . S
C539 C538 1.394 . S
C539 C540 1.383 . S
C539 H547 0.929 . S
C540 C539 1.383 . S
C540 C541 1.377 . S
C541 H525 0.930 . S
C541 C540 1.377 . S
C541 C542 1.379 1_556 S
C542 H526 0.931 . S
C542 C536 1.381 1_554 S
C542 C541 1.379 1_554 S
H543 C537 0.959 . S
H544 C537 0.961 . S
H545 C537 0.960 . S
H546 C538 0.930 . S
H547 C539 0.929 . S
H548 C556 0.929 . S
H549 C558 0.930 1_554 S
H550 C560 0.930 . S
H551 C563 0.929 . S
H552 C566 0.930 . S
H553 C568 0.960 . S
H554 C568 0.960 . S
H555 C568 0.960 . S
C556 H548 0.929 . S
C556 C557 1.377 . S
C556 C558 1.384 . S
C557 C556 1.377 . S
C557 C563 1.390 . S
C558 H549 0.930 1_556 S
C558 C556 1.384 . S
C558 C559 1.372 . S
C559 C558 1.372 . S
C559 C560 1.400 . S
C559 C564 1.490 . S
C560 H550 0.930 . S
C560 C559 1.400 . S
C560 C563 1.386 . S
H561 C577 0.930 . S
H562 C578 0.931 . S
C563 H551 0.929 . S
C563 C557 1.390 . S
C563 C560 1.386 . S
C564 C559 1.490 . S
C564 C566 1.395 1_556 S
C564 C567 1.403 . S
H565 C571 0.930 . S
C566 H552 0.930 . S
C566 C564 1.395 1_554 S
C566 C569 1.403 . S
C567 C564 1.403 . S
C567 C568 1.524 . S
C567 C571 1.400 . S
C568 H553 0.960 . S
C568 H554 0.960 . S
C568 H555 0.960 . S
C568 C567 1.524 . S
C569 C566 1.403 . S
C569 C570 1.392 . S
C569 C573 1.495 . S
C570 C569 1.392 . S
C570 C571 1.385 1_554 S
C570 C572 1.478 . S
C571 H565 0.930 . S
C571 C567 1.400 . S
C571 C570 1.385 1_556 S
C572 C570 1.478 . S
C572 C574 1.381 . S
C572 C578 1.383 1_554 S
C573 C569 1.495 . S
C573 H579 0.959 . S
C573 H580 0.961 . S
C573 H581 0.960 . S
C574 C572 1.381 . S
C574 C575 1.394 . S
C574 H582 0.930 . S
C575 C574 1.394 . S
C575 C576 1.383 . S
C575 H583 0.929 . S
C576 C575 1.383 . S
C576 C577 1.377 1_554 S
C577 H561 0.930 . S
C577 C576 1.377 1_556 S
C577 C578 1.379 . S
C578 H562 0.931 . S
C578 C572 1.383 1_556 S
C578 C577 1.379 . S
H579 C573 0.959 . S
H580 C573 0.961 . S
H581 C573 0.960 . S
H582 C574 0.930 . S
H583 C575 0.929 . S
H584 C592 0.925 1_554 S
H585 C594 0.930 . S
H586 C596 0.930 . S
H587 C599 0.929 . S
H588 C602 0.930 . S
H589 C604 0.960 . S
H590 C604 0.960 . S
H591 C604 0.960 . S
C592 H584 0.925 1_556 S
C592 C593 1.384 . S
C592 C594 1.381 1_556 S
C593 C592 1.384 . S
C593 C599 1.390 . S
C594 H585 0.930 . S
C594 C592 1.381 1_554 S
C594 C595 1.372 1_554 S
C595 C594 1.372 1_556 S
C595 C596 1.400 . S
C595 C600 1.490 1_556 S
C596 H586 0.930 . S
C596 C595 1.400 . S
C596 C599 1.386 . S
H597 C613 0.930 . S
H598 C614 0.931 1_556 S
C599 H587 0.929 . S
C599 C593 1.390 . S
C599 C596 1.386 . S
C600 C595 1.490 1_554 S
C600 C602 1.395 1_554 S
C600 C603 1.403 . S
H601 C607 0.930 . S
C602 H588 0.930 . S
C602 C600 1.395 1_556 S
C602 C605 1.403 1_556 S
C603 C600 1.403 . S
C603 C604 1.524 . S
C603 C607 1.400 . S
C604 H589 0.960 . S
C604 H590 0.960 . S
C604 H591 0.960 . S
C604 C603 1.524 . S
C605 C602 1.403 1_554 S
C605 C606 1.392 . S
C605 C609 1.495 1_554 S
C606 C605 1.392 . S
C606 C607 1.385 . S
C606 C608 1.478 . S
C607 H601 0.930 . S
C607 C603 1.400 . S
C607 C606 1.385 . S
C608 C606 1.478 . S
C608 C610 1.381 . S
C608 C614 1.383 . S
C609 C605 1.495 1_556 S
C609 H615 0.959 . S
C609 H616 0.961 . S
C609 H617 0.960 1_556 S
C610 C608 1.381 . S
C610 C611 1.394 . S
C610 H618 0.930 . S
C611 C610 1.394 . S
C611 C612 1.383 . S
C611 H619 0.929 . S
C612 C611 1.383 . S
C612 C613 1.377 . S
C613 H597 0.930 . S
C613 C612 1.377 . S
C613 C614 1.379 . S
C614 H598 0.931 1_554 S
C614 C608 1.383 . S
C614 C613 1.379 . S
H615 C609 0.959 . S
H616 C609 0.961 . S
H617 C609 0.960 1_554 S
H618 C610 0.930 . S
H619 C611 0.929 . S
H620 C628 0.929 . S
H621 C630 0.930 . S
H622 C632 0.930 . S
H623 C635 0.929 . S
H624 C638 0.926 1_554 S
H625 C640 0.960 . S
H626 C640 0.960 1_554 S
H627 C640 0.960 . S
C628 H620 0.929 . S
C628 C629 1.377 . S
C628 C630 1.384 . S
C629 C628 1.377 . S
C629 C635 1.390 1_554 S
C630 H621 0.930 . S
C630 C628 1.384 . S
C630 C631 1.372 . S
C631 C630 1.372 . S
C631 C632 1.400 1_554 S
C631 C636 1.490 1_554 S
C632 H622 0.930 . S
C632 C631 1.400 1_556 S
C632 C635 1.386 . S
H633 C649 0.930 . S
H634 C650 0.931 . S
C635 H623 0.929 . S
C635 C629 1.390 1_556 S
C635 C632 1.386 . S
C636 C631 1.490 1_556 S
C636 C638 1.395 . S
C636 C639 1.403 . S
H637 C643 0.930 . S
C638 H624 0.926 1_556 S
C638 C636 1.395 . S
C638 C641 1.403 . S
C639 C636 1.403 . S
C639 C640 1.524 . S
C639 C643 1.400 . S
C640 H625 0.960 . S
C640 H626 0.960 1_556 S
C640 H627 0.960 . S
C640 C639 1.524 . S
C641 C638 1.403 . S
C641 C642 1.392 . S
C641 C645 1.495 . S
C642 C641 1.392 . S
C642 C643 1.385 . S
C642 C644 1.478 . S
C643 H637 0.930 . S
C643 C639 1.400 . S
C643 C642 1.385 . S
C644 C642 1.478 . S
C644 C646 1.381 . S
C644 C650 1.383 . S
C645 C641 1.495 . S
C645 H651 0.959 . S
C645 H652 0.961 . S
C645 H653 0.947 1_556 S
C646 C644 1.381 . S
C646 C647 1.394 . S
C646 H654 0.930 1_556 S
C647 C646 1.394 . S
C647 C648 1.383 . S
C647 H655 0.929 1_556 S
C648 C647 1.383 . S
C648 C649 1.377 . S
C649 H633 0.930 . S
C649 C648 1.377 . S
C649 C650 1.379 . S
C650 H634 0.931 . S
C650 C644 1.383 . S
C650 C649 1.379 . S
H651 C645 0.959 . S
H652 C645 0.961 . S
H653 C645 0.947 1_554 S
H654 C646 0.930 1_554 S
H655 C647 0.929 1_554 S
H656 C664 0.929 . S
H657 C666 0.930 . S
H658 C668 0.930 . S
H659 C671 0.929 . S
H660 C674 0.930 . S
H661 C676 0.960 . S
H662 C676 0.960 . S
H663 C676 0.960 . S
C664 H656 0.929 . S
C664 C665 1.377 . S
C664 C666 1.384 . S
C665 C664 1.377 . S
C665 C671 1.390 . S
C666 H657 0.930 . S
C666 C664 1.384 . S
C666 C667 1.372 . S
C667 C666 1.372 . S
C667 C668 1.400 . S
C667 C672 1.490 . S
C668 H658 0.930 . S
C668 C667 1.400 . S
C668 C671 1.386 . S
H669 C685 0.930 . S
H670 C686 0.931 . S
C671 H659 0.929 . S
C671 C665 1.390 . S
C671 C668 1.386 . S
C672 C667 1.490 . S
C672 C674 1.395 . S
C672 C675 1.403 . S
H673 C679 0.930 . S
C674 H660 0.930 . S
C674 C672 1.395 . S
C674 C677 1.403 . S
C675 C672 1.403 . S
C675 C676 1.524 . S
C675 C679 1.400 . S
C676 H661 0.960 . S
C676 H662 0.960 . S
C676 H663 0.960 . S
C676 C675 1.524 . S
C677 C674 1.403 . S
C677 C678 1.392 . S
C677 C681 1.495 . S
C678 C677 1.392 . S
C678 C679 1.385 . S
C678 C680 1.478 . S
C679 H673 0.930 . S
C679 C675 1.400 . S
C679 C678 1.385 . S
C680 C678 1.478 . S
C680 C682 1.381 . S
C680 C686 1.383 . S
C681 C677 1.495 . S
C681 H687 0.959 . S
C681 H688 0.961 . S
C681 H689 0.960 . S
C682 C680 1.381 . S
C682 C683 1.394 . S
C682 H690 0.930 . S
C683 C682 1.394 . S
C683 C684 1.383 . S
C683 H691 0.929 . S
C684 C683 1.383 . S
C684 C685 1.377 . S
C685 H669 0.930 . S
C685 C684 1.377 . S
C685 C686 1.379 . S
C686 H670 0.931 . S
C686 C680 1.383 . S
C686 C685 1.379 . S
H687 C681 0.959 . S
H688 C681 0.961 . S
H689 C681 0.960 . S
H690 C682 0.930 . S
H691 C683 0.929 . S
H692 C700 0.929 . S
H693 C702 0.930 . S
H694 C704 0.930 . S
H695 C707 0.929 . S
H696 C710 0.930 . S
H697 C712 0.960 . S
H698 C712 0.960 . S
H699 C712 0.960 . S
C700 H692 0.929 . S
C700 C701 1.377 . S
C700 C702 1.384 . S
C701 C700 1.377 . S
C701 C707 1.390 . S
C702 H693 0.930 . S
C702 C700 1.384 . S
C702 C703 1.372 . S
C703 C702 1.372 . S
C703 C704 1.400 . S
C703 C708 1.490 . S
C704 H694 0.930 . S
C704 C703 1.400 . S
C704 C707 1.386 . S
H705 C721 0.930 . S
H706 C722 0.931 . S
C707 H695 0.929 . S
C707 C701 1.390 . S
C707 C704 1.386 . S
C708 C703 1.490 . S
C708 C710 1.395 . S
C708 C711 1.403 . S
H709 C715 0.930 . S
C710 H696 0.930 . S
C710 C708 1.395 . S
C710 C713 1.403 . S
C711 C708 1.403 . S
C711 C712 1.524 . S
C711 C715 1.400 . S
C712 H697 0.960 . S
C712 H698 0.960 . S
C712 H699 0.960 . S
C712 C711 1.524 . S
C713 C710 1.403 . S
C713 C714 1.392 . S
C713 C717 1.495 . S
C714 C713 1.392 . S
C714 C715 1.385 . S
C714 C716 1.478 . S
C715 H709 0.930 . S
C715 C711 1.400 . S
C715 C714 1.385 . S
C716 C714 1.478 . S
C716 C718 1.381 . S
C716 C722 1.383 . S
C717 C713 1.495 . S
C717 H723 0.959 . S
C717 H724 0.961 . S
C717 H725 0.960 . S
C718 C716 1.381 . S
C718 C719 1.394 . S
C718 H726 0.930 . S
C719 C718 1.394 . S
C719 C720 1.383 . S
C719 H727 0.929 . S
C720 C719 1.383 . S
C720 C721 1.377 . S
C721 H705 0.930 . S
C721 C720 1.377 . S
C721 C722 1.379 . S
C722 H706 0.931 . S
C722 C716 1.383 . S
C722 C721 1.379 . S
H723 C717 0.959 . S
H724 C717 0.961 . S
H725 C717 0.960 . S
H726 C718 0.930 . S
H727 C719 0.929 . S
H728 C736 0.929 . S
H729 C738 0.930 . S
H730 C740 0.930 . S
H731 C743 0.929 . S
H732 C746 0.930 . S
H733 C748 0.960 . S
H734 C748 0.960 . S
H735 C748 0.960 . S
C736 H728 0.929 . S
C736 C737 1.377 . S
C736 C738 1.384 . S
C737 C736 1.377 . S
C737 C743 1.390 . S
C738 H729 0.930 . S
C738 C736 1.384 . S
C738 C739 1.372 . S
C739 C738 1.372 . S
C739 C740 1.400 . S
C739 C744 1.490 . S
C740 H730 0.930 . S
C740 C739 1.400 . S
C740 C743 1.386 . S
H741 C757 0.930 . S
H742 C758 0.931 . S
C743 H731 0.929 . S
C743 C737 1.390 . S
C743 C740 1.386 . S
C744 C739 1.490 . S
C744 C746 1.395 . S
C744 C747 1.403 . S
H745 C751 0.930 . S
C746 H732 0.930 . S
C746 C744 1.395 . S
C746 C749 1.403 . S
C747 C744 1.403 . S
C747 C748 1.524 . S
C747 C751 1.400 . S
C748 H733 0.960 . S
C748 H734 0.960 . S
C748 H735 0.960 . S
C748 C747 1.524 . S
C749 C746 1.403 . S
C749 C750 1.392 . S
C749 C753 1.495 . S
C750 C749 1.392 . S
C750 C751 1.385 . S
C750 C752 1.478 . S
C751 H745 0.930 . S
C751 C747 1.400 . S
C751 C750 1.385 . S
C752 C750 1.478 . S
C752 C754 1.381 . S
C752 C758 1.383 . S
C753 C749 1.495 . S
C753 H759 0.959 . S
C753 H760 0.961 . S
C753 H761 0.960 . S
C754 C752 1.381 . S
C754 C755 1.394 . S
C754 H762 0.930 . S
C755 C754 1.394 . S
C755 C756 1.383 . S
C755 H763 0.929 . S
C756 C755 1.383 . S
C756 C757 1.377 . S
C757 H741 0.930 . S
C757 C756 1.377 . S
C757 C758 1.379 . S
C758 H742 0.931 . S
C758 C752 1.383 . S
C758 C757 1.379 . S
H759 C753 0.959 . S
H760 C753 0.961 . S
H761 C753 0.960 . S
H762 C754 0.930 . S
H763 C755 0.929 . S
H764 C772 0.929 . S
H765 C774 0.930 . S
H766 C776 0.930 . S
H767 C779 0.929 . S
H768 C782 0.930 . S
H769 C784 0.960 . S
H770 C784 0.960 . S
H771 C784 0.960 . S
C772 H764 0.929 . S
C772 C773 1.377 . S
C772 C774 1.384 . S
C773 C772 1.377 . S
C773 C779 1.390 . S
C774 H765 0.930 . S
C774 C772 1.384 . S
C774 C775 1.372 . S
C775 C774 1.372 . S
C775 C776 1.400 . S
C775 C780 1.490 . S
C776 H766 0.930 . S
C776 C775 1.400 . S
C776 C779 1.386 . S
H777 C793 0.930 . S
H778 C794 0.931 . S
C779 H767 0.929 . S
C779 C773 1.390 . S
C779 C776 1.386 . S
C780 C775 1.490 . S
C780 C782 1.395 . S
C780 C783 1.403 . S
H781 C787 0.930 . S
C782 H768 0.930 . S
C782 C780 1.395 . S
C782 C785 1.403 . S
C783 C780 1.403 . S
C783 C784 1.524 . S
C783 C787 1.400 . S
C784 H769 0.960 . S
C784 H770 0.960 . S
C784 H771 0.960 . S
C784 C783 1.524 . S
C785 C782 1.403 . S
C785 C786 1.392 . S
C785 C789 1.495 . S
C786 C785 1.392 . S
C786 C787 1.385 . S
C786 C788 1.478 . S
C787 H781 0.930 . S
C787 C783 1.400 . S
C787 C786 1.385 . S
C788 C786 1.478 . S
C788 C790 1.381 . S
C788 C794 1.383 . S
C789 C785 1.495 . S
C789 H795 0.959 . S
C789 H796 0.961 . S
C789 H797 0.960 . S
C790 C788 1.381 . S
C790 C791 1.394 . S
C790 H798 0.930 . S
C791 C790 1.394 . S
C791 C792 1.383 . S
C791 H799 0.929 . S
C792 C791 1.383 . S
C792 C793 1.377 . S
C793 H777 0.930 . S
C793 C792 1.377 . S
C793 C794 1.379 . S
C794 H778 0.931 . S
C794 C788 1.383 . S
C794 C793 1.379 . S
H795 C789 0.959 . S
H796 C789 0.961 . S
H797 C789 0.960 . S
H798 C790 0.930 . S
H799 C791 0.929 . S
H800 C808 0.929 . S
H801 C810 0.930 . S
H802 C812 0.930 . S
H803 C815 0.929 . S
H804 C818 0.930 . S
H805 C820 0.960 . S
H806 C820 0.960 . S
H807 C820 0.960 . S
C808 H800 0.929 . S
C808 C809 1.377 . S
C808 C810 1.384 . S
C809 C808 1.377 . S
C809 C815 1.390 . S
C810 H801 0.930 . S
C810 C808 1.384 . S
C810 C811 1.372 . S
C811 C810 1.372 . S
C811 C812 1.400 . S
C811 C816 1.490 . S
C812 H802 0.930 . S
C812 C811 1.400 . S
C812 C815 1.386 . S
H813 C829 0.930 . S
H814 C830 0.931 . S
C815 H803 0.929 . S
C815 C809 1.390 . S
C815 C812 1.386 . S
C816 C811 1.490 . S
C816 C818 1.395 . S
C816 C819 1.403 . S
H817 C823 0.930 . S
C818 H804 0.930 . S
C818 C816 1.395 . S
C818 C821 1.403 1_565 S
C819 C816 1.403 . S
C819 C820 1.524 . S
C819 C823 1.400 1_565 S
C820 H805 0.960 . S
C820 H806 0.960 . S
C820 H807 0.960 . S
C820 C819 1.524 . S
C821 C818 1.403 1_545 S
C821 C822 1.392 . S
C821 C825 1.495 . S
C822 C821 1.392 . S
C822 C823 1.385 . S
C822 C824 1.478 . S
C823 H817 0.930 . S
C823 C819 1.400 1_545 S
C823 C822 1.385 . S
C824 C822 1.478 . S
C824 C826 1.381 . S
C824 C830 1.383 . S
C825 C821 1.495 . S
C825 H831 0.959 . S
C825 H832 0.961 . S
C825 H833 0.960 . S
C826 C824 1.381 . S
C826 C827 1.394 . S
C826 H834 0.930 . S
C827 C826 1.394 . S
C827 C828 1.383 . S
C827 H835 0.929 . S
C828 C827 1.383 . S
C828 C829 1.377 . S
C829 H813 0.930 . S
C829 C828 1.377 . S
C829 C830 1.379 . S
C830 H814 0.931 . S
C830 C824 1.383 . S
C830 C829 1.379 . S
H831 C825 0.959 . S
H832 C825 0.961 . S
H833 C825 0.960 . S
H834 C826 0.930 . S
H835 C827 0.929 . S
H836 C844 0.929 . S
H837 C846 0.930 . S
H838 C848 0.930 . S
H839 C851 0.929 . S
H840 C854 0.930 . S
H841 C856 0.960 . S
H842 C856 0.960 . S
H843 C856 0.960 . S
C844 H836 0.929 . S
C844 C845 1.377 . S
C844 C846 1.384 . S
C845 C844 1.377 . S
C845 C851 1.390 . S
C846 H837 0.930 . S
C846 C844 1.384 . S
C846 C847 1.372 . S
C847 C846 1.372 . S
C847 C848 1.400 . S
C847 C852 1.490 . S
C848 H838 0.930 . S
C848 C847 1.400 . S
C848 C851 1.386 . S
H849 C865 0.930 . S
H850 C866 0.931 . S
C851 H839 0.929 . S
C851 C845 1.390 . S
C851 C848 1.386 . S
C852 C847 1.490 . S
C852 C854 1.395 . S
C852 C855 1.403 . S
H853 C859 0.930 . S
C854 H840 0.930 . S
C854 C852 1.395 . S
C854 C857 1.403 1_655 S
C855 C852 1.403 . S
C855 C856 1.524 . S
C855 C859 1.400 1_655 S
C856 H841 0.960 . S
C856 H842 0.960 . S
C856 H843 0.960 . S
C856 C855 1.524 . S
C857 C854 1.403 1_455 S
C857 C858 1.392 . S
C857 C861 1.495 . S
C858 C857 1.392 . S
C858 C859 1.385 . S
C858 C860 1.478 . S
C859 H853 0.930 . S
C859 C855 1.400 1_455 S
C859 C858 1.385 . S
C860 C858 1.478 . S
C860 C862 1.381 . S
C860 C866 1.383 . S
C861 C857 1.495 . S
C861 H867 0.959 . S
C861 H868 0.961 . S
C861 H869 0.960 . S
C862 C860 1.381 . S
C862 C863 1.394 . S
C862 H870 0.930 . S
C863 C862 1.394 . S
C863 C864 1.383 . S
C863 H871 0.929 . S
C864 C863 1.383 . S
C864 C865 1.377 . S
C865 H849 0.930 . S
C865 C864 1.377 . S
C865 C866 1.379 . S
C866 H850 0.931 . S
C866 C860 1.383 . S
C866 C865 1.379 . S
H867 C861 0.959 . S
H868 C861 0.961 . S
H869 C861 0.960 . S
H870 C862 0.930 . S
H871 C863 0.929 . S
H872 C880 0.929 . S
H873 C882 0.930 . S
H874 C884 0.930 . S
H875 C887 0.929 . S
H876 C890 0.930 . S
H877 C892 0.960 . S
H878 C892 0.960 . S
H879 C892 0.960 . S
C880 H872 0.929 . S
C880 C881 1.377 . S
C880 C882 1.384 . S
C881 C880 1.377 . S
C881 C887 1.390 . S
C882 H873 0.930 . S
C882 C880 1.384 . S
C882 C883 1.372 . S
C883 C882 1.372 . S
C883 C884 1.400 . S
C883 C888 1.490 . S
C884 H874 0.930 . S
C884 C883 1.400 . S
C884 C887 1.386 . S
H885 C901 0.930 . S
H886 C902 0.931 . S
C887 H875 0.929 . S
C887 C881 1.390 . S
C887 C884 1.386 . S
C888 C883 1.490 . S
C888 C890 1.395 . S
C888 C891 1.403 . S
H889 C895 0.930 . S
C890 H876 0.930 . S
C890 C888 1.395 . S
C890 C893 1.403 1_565 S
C891 C888 1.403 . S
C891 C892 1.524 . S
C891 C895 1.400 1_565 S
C892 H877 0.960 . S
C892 H878 0.960 . S
C892 H879 0.960 . S
C892 C891 1.524 . S
C893 C890 1.403 1_545 S
C893 C894 1.392 . S
C893 C897 1.495 . S
C894 C893 1.392 . S
C894 C895 1.385 . S
C894 C896 1.478 . S
C895 H889 0.930 . S
C895 C891 1.400 1_545 S
C895 C894 1.385 . S
C896 C894 1.478 . S
C896 C898 1.381 . S
C896 C902 1.383 . S
C897 C893 1.495 . S
C897 H903 0.959 . S
C897 H904 0.961 . S
C897 H905 0.960 . S
C898 C896 1.381 . S
C898 C899 1.394 . S
C898 H906 0.930 . S
C899 C898 1.394 . S
C899 C900 1.383 . S
C899 H907 0.929 . S
C900 C899 1.383 . S
C900 C901 1.377 . S
C901 H885 0.930 . S
C901 C900 1.377 . S
C901 C902 1.379 . S
C902 H886 0.931 . S
C902 C896 1.383 . S
C902 C901 1.379 . S
H903 C897 0.959 . S
H904 C897 0.961 . S
H905 C897 0.960 . S
H906 C898 0.930 . S
H907 C899 0.929 . S
H908 C916 0.929 . S
H909 C918 0.930 . S
H910 C920 0.930 . S
H911 C923 0.929 . S
H912 C926 0.930 . S
H913 C928 0.960 1_455 S
H914 C928 0.960 . S
H915 C928 0.960 . S
C916 H908 0.929 . S
C916 C917 1.377 . S
C916 C918 1.384 . S
C917 C916 1.377 . S
C917 C923 1.390 . S
C918 H909 0.930 . S
C918 C916 1.384 . S
C918 C919 1.372 . S
C919 C918 1.372 . S
C919 C920 1.400 . S
C919 C924 1.490 . S
C920 H910 0.930 . S
C920 C919 1.400 . S
C920 C923 1.386 . S
H921 C937 0.930 . S
H922 C938 0.931 . S
C923 H911 0.929 . S
C923 C917 1.390 . S
C923 C920 1.386 . S
C924 C919 1.490 . S
C924 C926 1.395 . S
C924 C927 1.403 . S
H925 C931 0.930 . S
C926 H912 0.930 . S
C926 C924 1.395 . S
C926 C929 1.403 1_655 S
C927 C924 1.403 . S
C927 C928 1.524 . S
C927 C931 1.400 1_655 S
C928 H913 0.960 1_655 S
C928 H914 0.960 . S
C928 H915 0.960 . S
C928 C927 1.524 . S
C929 C926 1.403 1_455 S
C929 C930 1.392 . S
C929 C933 1.495 . S
C930 C929 1.392 . S
C930 C931 1.385 . S
C930 C932 1.478 . S
C931 H925 0.930 . S
C931 C927 1.400 1_455 S
C931 C930 1.385 . S
C932 C930 1.478 . S
C932 C934 1.381 . S
C932 C938 1.383 . S
C933 C929 1.495 . S
C933 H939 0.988 . S
C933 H940 0.961 . S
C933 H941 0.960 . S
C934 C932 1.381 . S
C934 C935 1.394 . S
C934 H942 0.930 . S
C935 C934 1.394 . S
C935 C936 1.383 . S
C935 H943 0.929 . S
C936 C935 1.383 . S
C936 C937 1.377 . S
C937 H921 0.930 . S
C937 C936 1.377 . S
C937 C938 1.379 . S
C938 H922 0.931 . S
C938 C932 1.383 . S
C938 C937 1.379 . S
H939 C933 0.988 . S
H940 C933 0.961 . S
H941 C933 0.960 . S
H942 C934 0.930 . S
H943 C935 0.929 . S
H944 C952 0.929 . S
H945 C954 0.930 . S
H946 C956 0.930 . S
H947 C959 0.929 . S
H948 C962 0.930 . S
H949 C964 0.960 . S
H950 C964 0.960 . S
H951 C964 0.960 . S
C952 H944 0.929 . S
C952 C953 1.377 . S
C952 C954 1.384 . S
C953 C952 1.377 . S
C953 C959 1.390 . S
C954 H945 0.930 . S
C954 C952 1.384 . S
C954 C955 1.372 . S
C955 C954 1.372 . S
C955 C956 1.400 . S
C955 C960 1.490 . S
C956 H946 0.930 . S
C956 C955 1.400 . S
C956 C959 1.386 . S
H957 C973 0.930 . S
H958 C974 0.931 . S
C959 H947 0.929 . S
C959 C953 1.390 . S
C959 C956 1.386 . S
C960 C955 1.490 . S
C960 C962 1.395 . S
C960 C963 1.403 . S
H961 C967 0.930 . S
C962 H948 0.930 . S
C962 C960 1.395 . S
C962 C965 1.403 . S
C963 C960 1.403 . S
C963 C964 1.524 . S
C963 C967 1.400 . S
C964 H949 0.960 . S
C964 H950 0.960 . S
C964 H951 0.960 . S
C964 C963 1.524 . S
C965 C962 1.403 . S
C965 C966 1.392 . S
C965 C969 1.495 . S
C966 C965 1.392 . S
C966 C967 1.385 . S
C966 C968 1.478 . S
C967 H961 0.930 . S
C967 C963 1.400 . S
C967 C966 1.385 . S
C968 C966 1.478 . S
C968 C970 1.381 . S
C968 C974 1.383 . S
C969 C965 1.495 . S
C969 H975 0.959 . S
C969 H976 0.961 . S
C969 H977 0.960 . S
C970 C968 1.381 . S
C970 C971 1.394 . S
C970 H978 0.930 . S
C971 C970 1.394 . S
C971 C972 1.383 . S
C971 H979 0.929 . S
C972 C971 1.383 . S
C972 C973 1.377 . S
C973 H957 0.930 . S
C973 C972 1.377 . S
C973 C974 1.379 . S
C974 H958 0.931 . S
C974 C968 1.383 . S
C974 C973 1.379 . S
H975 C969 0.959 . S
H976 C969 0.961 . S
H977 C969 0.960 . S
H978 C970 0.930 . S
H979 C971 0.929 . S
H980 C988 0.929 . S
H981 C990 0.930 . S
H982 C992 0.930 . S
H983 C995 0.929 . S
H984 C998 0.930 . S
H985 C1000 0.960 . S
H986 C1000 0.960 . S
H987 C1000 0.960 . S
C988 H980 0.929 . S
C988 C989 1.377 . S
C988 C990 1.384 . S
C989 C988 1.377 . S
C989 C995 1.390 . S
C990 H981 0.930 . S
C990 C988 1.384 . S
C990 C991 1.372 . S
C991 C990 1.372 . S
C991 C992 1.400 . S
C991 C996 1.490 . S
C992 H982 0.930 . S
C992 C991 1.400 . S
C992 C995 1.386 . S
H993 C1009 0.930 . S
H994 C1010 0.931 . S
C995 H983 0.929 . S
C995 C989 1.390 . S
C995 C992 1.386 . S
C996 C991 1.490 . S
C996 C998 1.395 . S
C996 C999 1.403 . S
H997 C1003 0.930 . S
C998 H984 0.930 . S
C998 C996 1.395 . S
C998 C1001 1.403 . S
C999 C996 1.403 . S
C999 C1000 1.524 . S
C999 C1003 1.400 . S
C1000 H985 0.960 . S
C1000 H986 0.960 . S
C1000 H987 0.960 . S
C1000 C999 1.524 . S
C1001 C998 1.403 . S
C1001 C1002 1.392 . S
C1001 C1005 1.495 . S
C1002 C1001 1.392 . S
C1002 C1003 1.385 . S
C1002 C1004 1.478 . S
C1003 H997 0.930 . S
C1003 C999 1.400 . S
C1003 C1002 1.385 . S
C1004 C1002 1.478 . S
C1004 C1006 1.381 . S
C1004 C1010 1.383 . S
C1005 C1001 1.495 . S
C1005 H1011 0.959 . S
C1005 H1012 0.961 . S
C1005 H1013 0.960 . S
C1006 C1004 1.381 . S
C1006 C1007 1.394 . S
C1006 H1014 0.930 . S
C1007 C1006 1.394 . S
C1007 C1008 1.383 . S
C1007 H1015 0.929 . S
C1008 C1007 1.383 . S
C1008 C1009 1.377 . S
C1009 H993 0.930 . S
C1009 C1008 1.377 . S
C1009 C1010 1.379 . S
C1010 H994 0.931 . S
C1010 C1004 1.383 . S
C1010 C1009 1.379 . S
H1011 C1005 0.959 . S
H1012 C1005 0.961 . S
H1013 C1005 0.960 . S
H1014 C1006 0.930 . S
H1015 C1007 0.929 . S
H1016 C1024 0.929 . S
H1017 C1026 0.930 . S
H1018 C1028 0.930 . S
H1019 C1031 0.929 . S
H1020 C1034 0.930 . S
H1021 C1036 0.960 . S
H1022 C1036 0.960 . S
H1023 C1036 0.960 . S
C1024 H1016 0.929 . S
C1024 C1025 1.377 . S
C1024 C1026 1.384 . S
C1025 C1024 1.377 . S
C1025 C1031 1.390 . S
C1026 H1017 0.930 . S
C1026 C1024 1.384 . S
C1026 C1027 1.372 . S
C1027 C1026 1.372 . S
C1027 C1028 1.400 . S
C1027 C1032 1.490 . S
C1028 H1018 0.930 . S
C1028 C1027 1.400 . S
C1028 C1031 1.386 . S
H1029 C1045 0.930 . S
H1030 C1046 0.931 . S
C1031 H1019 0.929 . S
C1031 C1025 1.390 . S
C1031 C1028 1.386 . S
C1032 C1027 1.490 . S
C1032 C1034 1.395 . S
C1032 C1035 1.403 . S
H1033 C1039 0.930 . S
C1034 H1020 0.930 . S
C1034 C1032 1.395 . S
C1034 C1037 1.403 . S
C1035 C1032 1.403 . S
C1035 C1036 1.524 . S
C1035 C1039 1.400 . S
C1036 H1021 0.960 . S
C1036 H1022 0.960 . S
C1036 H1023 0.960 . S
C1036 C1035 1.524 . S
C1037 C1034 1.403 . S
C1037 C1038 1.392 . S
C1037 C1041 1.495 . S
C1038 C1037 1.392 . S
C1038 C1039 1.385 . S
C1038 C1040 1.478 . S
C1039 H1033 0.930 . S
C1039 C1035 1.400 . S
C1039 C1038 1.385 . S
C1040 C1038 1.478 . S
C1040 C1042 1.381 . S
C1040 C1046 1.383 . S
C1041 C1037 1.495 . S
C1041 H1047 0.959 . S
C1041 H1048 0.961 . S
C1041 H1049 0.960 . S
C1042 C1040 1.381 . S
C1042 C1043 1.394 . S
C1042 H1050 0.930 . S
C1043 C1042 1.394 . S
C1043 C1044 1.383 . S
C1043 H1051 0.929 . S
C1044 C1043 1.383 . S
C1044 C1045 1.377 . S
C1045 H1029 0.930 . S
C1045 C1044 1.377 . S
C1045 C1046 1.379 . S
C1046 H1030 0.931 . S
C1046 C1040 1.383 . S
C1046 C1045 1.379 . S
H1047 C1041 0.959 . S
H1048 C1041 0.961 . S
H1049 C1041 0.960 . S
H1050 C1042 0.930 . S
H1051 C1043 0.929 . S
H1052 C1060 0.929 . S
H1053 C1062 0.930 . S
H1054 C1064 0.930 . S
H1055 C1067 0.929 . S
H1056 C1070 0.930 . S
H1057 C1072 0.960 . S
H1058 C1072 0.960 . S
H1059 C1072 0.960 . S
C1060 H1052 0.929 . S
C1060 C1061 1.377 . S
C1060 C1062 1.384 . S
C1061 C1060 1.377 . S
C1061 C1067 1.390 . S
C1062 H1053 0.930 . S
C1062 C1060 1.384 . S
C1062 C1063 1.372 . S
C1063 C1062 1.372 . S
C1063 C1064 1.400 . S
C1063 C1068 1.490 . S
C1064 H1054 0.930 . S
C1064 C1063 1.400 . S
C1064 C1067 1.386 . S
H1065 C1081 0.930 . S
H1066 C1082 0.931 . S
C1067 H1055 0.929 . S
C1067 C1061 1.390 . S
C1067 C1064 1.386 . S
C1068 C1063 1.490 . S
C1068 C1070 1.395 . S
C1068 C1071 1.403 . S
H1069 C1075 0.930 . S
C1070 H1056 0.930 . S
C1070 C1068 1.395 . S
C1070 C1073 1.403 . S
C1071 C1068 1.403 . S
C1071 C1072 1.524 . S
C1071 C1075 1.400 . S
C1072 H1057 0.960 . S
C1072 H1058 0.960 . S
C1072 H1059 0.960 . S
C1072 C1071 1.524 . S
C1073 C1070 1.403 . S
C1073 C1074 1.392 . S
C1073 C1077 1.495 . S
C1074 C1073 1.392 . S
C1074 C1075 1.385 . S
C1074 C1076 1.478 . S
C1075 H1069 0.930 . S
C1075 C1071 1.400 . S
C1075 C1074 1.385 . S
C1076 C1074 1.478 . S
C1076 C1078 1.381 . S
C1076 C1082 1.383 . S
C1077 C1073 1.495 . S
C1077 H1083 0.959 . S
C1077 H1084 0.961 . S
C1077 H1085 0.960 . S
C1078 C1076 1.381 . S
C1078 C1079 1.394 . S
C1078 H1086 0.930 . S
C1079 C1078 1.394 . S
C1079 C1080 1.383 . S
C1079 H1087 0.929 . S
C1080 C1079 1.383 . S
C1080 C1081 1.377 . S
C1081 H1065 0.930 . S
C1081 C1080 1.377 . S
C1081 C1082 1.379 . S
C1082 H1066 0.931 . S
C1082 C1076 1.383 . S
C1082 C1081 1.379 . S
H1083 C1077 0.959 . S
H1084 C1077 0.961 . S
H1085 C1077 0.960 . S
H1086 C1078 0.930 . S
H1087 C1079 0.929 . S
H1088 C1096 0.929 . S
H1089 C1098 0.930 . S
H1090 C1100 0.930 . S
H1091 C1103 0.929 . S
H1092 C1106 0.930 . S
H1093 C1108 0.960 . S
H1094 C1108 0.960 . S
H1095 C1108 0.960 . S
C1096 H1088 0.929 . S
C1096 C1097 1.377 . S
C1096 C1098 1.384 . S
C1097 C1096 1.377 . S
C1097 C1103 1.390 . S
C1098 H1089 0.930 . S
C1098 C1096 1.384 . S
C1098 C1099 1.372 . S
C1099 C1098 1.372 . S
C1099 C1100 1.400 . S
C1099 C1104 1.490 . S
C1100 H1090 0.930 . S
C1100 C1099 1.400 . S
C1100 C1103 1.386 . S
H1101 C1117 0.930 . S
H1102 C1118 0.931 . S
C1103 H1091 0.929 . S
C1103 C1097 1.390 . S
C1103 C1100 1.386 . S
C1104 C1099 1.490 . S
C1104 C1106 1.395 . S
C1104 C1107 1.403 . S
H1105 C1111 0.930 . S
C1106 H1092 0.930 . S
C1106 C1104 1.395 . S
C1106 C1109 1.403 . S
C1107 C1104 1.403 . S
C1107 C1108 1.524 . S
C1107 C1111 1.400 . S
C1108 H1093 0.960 . S
C1108 H1094 0.960 . S
C1108 H1095 0.960 . S
C1108 C1107 1.524 . S
C1109 C1106 1.403 . S
C1109 C1110 1.392 . S
C1109 C1113 1.495 . S
C1110 C1109 1.392 . S
C1110 C1111 1.385 . S
C1110 C1112 1.478 . S
C1111 H1105 0.930 . S
C1111 C1107 1.400 . S
C1111 C1110 1.385 . S
C1112 C1110 1.478 . S
C1112 C1114 1.381 . S
C1112 C1118 1.383 . S
C1113 C1109 1.495 . S
C1113 H1119 0.959 . S
C1113 H1120 0.961 . S
C1113 H1121 0.960 . S
C1114 C1112 1.381 . S
C1114 C1115 1.394 . S
C1114 H1122 0.930 . S
C1115 C1114 1.394 . S
C1115 C1116 1.383 . S
C1115 H1123 0.929 . S
C1116 C1115 1.383 . S
C1116 C1117 1.377 . S
C1117 H1101 0.930 . S
C1117 C1116 1.377 . S
C1117 C1118 1.379 . S
C1118 H1102 0.931 . S
C1118 C1112 1.383 . S
C1118 C1117 1.379 . S
H1119 C1113 0.959 . S
H1120 C1113 0.961 . S
H1121 C1113 0.960 . S
H1122 C1114 0.930 . S
H1123 C1115 0.929 . S
H1124 C1132 0.929 . S
H1125 C1134 0.930 . S
H1126 C1136 0.930 . S
H1127 C1139 0.929 . S
H1128 C1142 0.930 . S
H1129 C1144 0.960 . S
H1130 C1144 0.960 . S
H1131 C1144 0.960 . S
C1132 H1124 0.929 . S
C1132 C1133 1.377 . S
C1132 C1134 1.384 . S
C1133 C1132 1.377 . S
C1133 C1139 1.390 . S
C1134 H1125 0.930 . S
C1134 C1132 1.384 . S
C1134 C1135 1.372 . S
C1135 C1134 1.372 . S
C1135 C1136 1.400 . S
C1135 C1140 1.490 . S
C1136 H1126 0.930 . S
C1136 C1135 1.400 . S
C1136 C1139 1.386 . S
H1137 C1153 0.930 . S
H1138 C1154 0.931 . S
C1139 H1127 0.929 . S
C1139 C1133 1.390 . S
C1139 C1136 1.386 . S
C1140 C1135 1.490 . S
C1140 C1142 1.395 . S
C1140 C1143 1.403 . S
H1141 C1147 0.930 . S
C1142 H1128 0.930 . S
C1142 C1140 1.395 . S
C1142 C1145 1.403 . S
C1143 C1140 1.403 . S
C1143 C1144 1.524 . S
C1143 C1147 1.400 . S
C1144 H1129 0.960 . S
C1144 H1130 0.960 . S
C1144 H1131 0.960 . S
C1144 C1143 1.524 . S
C1145 C1142 1.403 . S
C1145 C1146 1.392 . S
C1145 C1149 1.495 . S
C1146 C1145 1.392 . S
C1146 C1147 1.385 . S
C1146 C1148 1.478 . S
C1147 H1141 0.930 . S
C1147 C1143 1.400 . S
C1147 C1146 1.385 . S
C1148 C1146 1.478 . S
C1148 C1150 1.381 . S
C1148 C1154 1.383 . S
C1149 C1145 1.495 . S
C1149 H1155 0.959 . S
C1149 H1156 0.961 . S
C1149 H1157 0.960 . S
C1150 C1148 1.381 . S
C1150 C1151 1.394 . S
C1150 H1158 0.930 . S
C1151 C1150 1.394 . S
C1151 C1152 1.383 . S
C1151 H1159 0.929 . S
C1152 C1151 1.383 . S
C1152 C1153 1.377 . S
C1153 H1137 0.930 . S
C1153 C1152 1.377 . S
C1153 C1154 1.379 . S
C1154 H1138 0.931 . S
C1154 C1148 1.383 . S
C1154 C1153 1.379 . S
H1155 C1149 0.959 . S
H1156 C1149 0.961 . S
H1157 C1149 0.960 . S
H1158 C1150 0.930 . S
H1159 C1151 0.929 . S
H1160 C1168 0.929 . S
H1161 C1170 0.930 . S
H1162 C1172 0.930 . S
H1163 C1175 0.929 . S
H1164 C1178 0.930 . S
H1165 C1180 0.960 . S
H1166 C1180 0.960 . S
H1167 C1180 0.960 . S
C1168 H1160 0.929 . S
C1168 C1169 1.377 . S
C1168 C1170 1.384 . S
C1169 C1168 1.377 . S
C1169 C1175 1.390 . S
C1170 H1161 0.930 . S
C1170 C1168 1.384 . S
C1170 C1171 1.372 . S
C1171 C1170 1.372 . S
C1171 C1172 1.400 . S
C1171 C1176 1.490 . S
C1172 H1162 0.930 . S
C1172 C1171 1.400 . S
C1172 C1175 1.386 . S
H1173 C1189 0.930 . S
H1174 C1190 0.931 . S
C1175 H1163 0.929 . S
C1175 C1169 1.390 . S
C1175 C1172 1.386 . S
C1176 C1171 1.490 . S
C1176 C1178 1.395 . S
C1176 C1179 1.403 . S
H1177 C1183 0.930 . S
C1178 H1164 0.930 . S
C1178 C1176 1.395 . S
C1178 C1181 1.403 . S
C1179 C1176 1.403 . S
C1179 C1180 1.524 . S
C1179 C1183 1.400 . S
C1180 H1165 0.960 . S
C1180 H1166 0.960 . S
C1180 H1167 0.960 . S
C1180 C1179 1.524 . S
C1181 C1178 1.403 . S
C1181 C1182 1.392 . S
C1181 C1185 1.495 . S
C1182 C1181 1.392 . S
C1182 C1183 1.385 . S
C1182 C1184 1.478 . S
C1183 H1177 0.930 . S
C1183 C1179 1.400 . S
C1183 C1182 1.385 . S
C1184 C1182 1.478 . S
C1184 C1186 1.381 . S
C1184 C1190 1.383 . S
C1185 C1181 1.495 . S
C1185 H1191 0.959 . S
C1185 H1192 0.961 . S
C1185 H1193 0.960 . S
C1186 C1184 1.381 . S
C1186 C1187 1.394 . S
C1186 H1194 0.930 . S
C1187 C1186 1.394 . S
C1187 C1188 1.383 . S
C1187 H1195 0.929 . S
C1188 C1187 1.383 . S
C1188 C1189 1.377 . S
C1189 H1173 0.930 . S
C1189 C1188 1.377 . S
C1189 C1190 1.379 . S
C1190 H1174 0.931 . S
C1190 C1184 1.383 . S
C1190 C1189 1.379 . S
H1191 C1185 0.959 . S
H1192 C1185 0.961 . S
H1193 C1185 0.960 . S
H1194 C1186 0.930 . S
H1195 C1187 0.929 . S
H1196 C1204 0.929 . S
H1197 C1206 0.930 . S
H1198 C1208 0.930 . S
H1199 C1211 0.929 . S
H1200 C1214 0.930 . S
H1201 C1216 0.960 . S
H1202 C1216 0.960 . S
H1203 C1216 0.960 . S
C1204 H1196 0.929 . S
C1204 C1205 1.377 . S
C1204 C1206 1.384 . S
C1205 C1204 1.377 . S
C1205 C1211 1.390 . S
C1206 H1197 0.930 . S
C1206 C1204 1.384 . S
C1206 C1207 1.372 . S
C1207 C1206 1.372 . S
C1207 C1208 1.400 . S
C1207 C1212 1.490 . S
C1208 H1198 0.930 . S
C1208 C1207 1.400 . S
C1208 C1211 1.386 . S
H1209 C1225 0.930 . S
H1210 C1226 0.931 . S
C1211 H1199 0.929 . S
C1211 C1205 1.390 . S
C1211 C1208 1.386 . S
C1212 C1207 1.490 . S
C1212 C1214 1.395 . S
C1212 C1215 1.403 . S
H1213 C1219 0.930 . S
C1214 H1200 0.930 . S
C1214 C1212 1.395 . S
C1214 C1217 1.403 . S
C1215 C1212 1.403 . S
C1215 C1216 1.524 . S
C1215 C1219 1.400 . S
C1216 H1201 0.960 . S
C1216 H1202 0.960 . S
C1216 H1203 0.960 . S
C1216 C1215 1.524 . S
C1217 C1214 1.403 . S
C1217 C1218 1.392 . S
C1217 C1221 1.495 . S
C1218 C1217 1.392 . S
C1218 C1219 1.385 . S
C1218 C1220 1.478 . S
C1219 H1213 0.930 . S
C1219 C1215 1.400 . S
C1219 C1218 1.385 . S
C1220 C1218 1.478 . S
C1220 C1222 1.381 . S
C1220 C1226 1.383 . S
C1221 C1217 1.495 . S
C1221 H1227 0.959 . S
C1221 H1228 0.961 . S
C1221 H1229 0.960 . S
C1222 C1220 1.381 . S
C1222 C1223 1.394 . S
C1222 H1230 0.930 . S
C1223 C1222 1.394 . S
C1223 C1224 1.383 . S
C1223 H1231 0.929 . S
C1224 C1223 1.383 . S
C1224 C1225 1.377 . S
C1225 H1209 0.930 . S
C1225 C1224 1.377 . S
C1225 C1226 1.379 . S
C1226 H1210 0.931 . S
C1226 C1220 1.383 . S
C1226 C1225 1.379 . S
H1227 C1221 0.959 . S
H1228 C1221 0.961 . S
H1229 C1221 0.960 . S
H1230 C1222 0.930 . S
H1231 C1223 0.929 . S
H1232 C1240 0.929 . S
H1233 C1242 0.930 . S
H1234 C1244 0.930 . S
H1235 C1247 0.929 . S
H1236 C1250 0.930 . S
H1237 C1252 0.960 . S
H1238 C1252 0.960 . S
H1239 C1252 0.960 . S
C1240 H1232 0.929 . S
C1240 C1241 1.377 . S
C1240 C1242 1.384 . S
C1241 C1240 1.377 . S
C1241 C1247 1.390 . S
C1242 H1233 0.930 . S
C1242 C1240 1.384 . S
C1242 C1243 1.372 . S
C1243 C1242 1.372 . S
C1243 C1244 1.400 . S
C1243 C1248 1.490 . S
C1244 H1234 0.930 . S
C1244 C1243 1.400 . S
C1244 C1247 1.386 . S
H1245 C1261 0.930 . S
H1246 C1262 0.931 . S
C1247 H1235 0.929 . S
C1247 C1241 1.390 . S
C1247 C1244 1.386 . S
C1248 C1243 1.490 . S
C1248 C1250 1.395 . S
C1248 C1251 1.403 . S
H1249 C1255 0.930 . S
C1250 H1236 0.930 . S
C1250 C1248 1.395 . S
C1250 C1253 1.403 . S
C1251 C1248 1.403 . S
C1251 C1252 1.524 . S
C1251 C1255 1.400 . S
C1252 H1237 0.960 . S
C1252 H1238 0.960 . S
C1252 H1239 0.960 . S
C1252 C1251 1.524 . S
C1253 C1250 1.403 . S
C1253 C1254 1.392 . S
C1253 C1257 1.495 . S
C1254 C1253 1.392 . S
C1254 C1255 1.385 . S
C1254 C1256 1.478 . S
C1255 H1249 0.930 . S
C1255 C1251 1.400 . S
C1255 C1254 1.385 . S
C1256 C1254 1.478 . S
C1256 C1258 1.381 . S
C1256 C1262 1.383 . S
C1257 C1253 1.495 . S
C1257 H1263 0.959 . S
C1257 H1264 0.961 . S
C1257 H1265 0.960 . S
C1258 C1256 1.381 . S
C1258 C1259 1.394 1_556 S
C1258 H1266 0.930 . S
C1259 C1258 1.394 1_554 S
C1259 C1260 1.383 . S
C1259 H1267 0.929 . S
C1260 C1259 1.383 . S
C1260 C1261 1.377 1_554 S
C1261 H1245 0.930 . S
C1261 C1260 1.377 1_556 S
C1261 C1262 1.379 . S
C1262 H1246 0.931 . S
C1262 C1256 1.383 . S
C1262 C1261 1.379 . S
H1263 C1257 0.959 . S
H1264 C1257 0.961 . S
H1265 C1257 0.960 . S
H1266 C1258 0.930 . S
H1267 C1259 0.929 . S
H1268 C1276 0.929 . S
H1269 C1278 0.930 . S
H1270 C1280 0.930 . S
H1271 C1283 0.929 . S
H1272 C1286 0.930 . S
H1273 C1288 0.960 . S
H1274 C1288 0.960 . S
H1275 C1288 0.960 . S
C1276 H1268 0.929 . S
C1276 C1277 1.377 . S
C1276 C1278 1.384 . S
C1277 C1276 1.377 . S
C1277 C1283 1.390 . S
C1278 H1269 0.930 . S
C1278 C1276 1.384 . S
C1278 C1279 1.372 . S
C1279 C1278 1.372 . S
C1279 C1280 1.400 . S
C1279 C1284 1.490 . S
C1280 H1270 0.930 . S
C1280 C1279 1.400 . S
C1280 C1283 1.386 . S
H1281 C1297 0.930 . S
H1282 C1298 0.931 . S
C1283 H1271 0.929 . S
C1283 C1277 1.390 . S
C1283 C1280 1.386 . S
C1284 C1279 1.490 . S
C1284 C1286 1.395 . S
C1284 C1287 1.403 . S
H1285 C1291 0.930 . S
C1286 H1272 0.930 . S
C1286 C1284 1.395 . S
C1286 C1289 1.403 . S
C1287 C1284 1.403 . S
C1287 C1288 1.524 . S
C1287 C1291 1.400 . S
C1288 H1273 0.960 . S
C1288 H1274 0.960 . S
C1288 H1275 0.960 . S
C1288 C1287 1.524 . S
C1289 C1286 1.403 . S
C1289 C1290 1.392 . S
C1289 C1293 1.495 . S
C1290 C1289 1.392 . S
C1290 C1291 1.385 . S
C1290 C1292 1.478 . S
C1291 H1285 0.930 . S
C1291 C1287 1.400 . S
C1291 C1290 1.385 . S
C1292 C1290 1.478 . S
C1292 C1294 1.381 . S
C1292 C1298 1.383 . S
C1293 C1289 1.495 . S
C1293 H1299 0.959 . S
C1293 H1300 0.961 . S
C1293 H1301 0.960 . S
C1294 C1292 1.381 . S
C1294 C1295 1.394 1_554 S
C1294 H1302 0.930 1_554 S
C1295 C1294 1.394 1_556 S
C1295 C1296 1.383 . S
C1295 H1303 0.929 . S
C1296 C1295 1.383 . S
C1296 C1297 1.377 1_556 S
C1297 H1281 0.930 . S
C1297 C1296 1.377 1_554 S
C1297 C1298 1.379 . S
C1298 H1282 0.931 . S
C1298 C1292 1.383 . S
C1298 C1297 1.379 . S
H1299 C1293 0.959 . S
H1300 C1293 0.961 . S
H1301 C1293 0.960 . S
H1302 C1294 0.930 1_556 S
H1303 C1295 0.929 . S
H1304 C1312 0.929 . S
H1305 C1314 0.930 . S
H1306 C1316 0.930 . S
H1307 C1319 0.929 . S
H1308 C1322 0.930 . S
H1309 C1324 0.960 . S
H1310 C1324 0.960 . S
H1311 C1324 0.960 . S
C1312 H1304 0.929 . S
C1312 C1313 1.377 1_556 S
C1312 C1314 1.384 . S
C1313 C1312 1.377 1_554 S
C1313 C1319 1.390 . S
C1314 H1305 0.930 . S
C1314 C1312 1.384 . S
C1314 C1315 1.372 . S
C1315 C1314 1.372 . S
C1315 C1316 1.400 . S
C1315 C1320 1.490 . S
C1316 H1306 0.930 . S
C1316 C1315 1.400 . S
C1316 C1319 1.386 1_556 S
H1317 C1333 0.930 . S
H1318 C1334 0.931 . S
C1319 H1307 0.929 . S
C1319 C1313 1.390 . S
C1319 C1316 1.386 1_554 S
C1320 C1315 1.490 . S
C1320 C1322 1.395 . S
C1320 C1323 1.403 . S
H1321 C1327 0.930 . S
C1322 H1308 0.930 . S
C1322 C1320 1.395 . S
C1322 C1325 1.403 . S
C1323 C1320 1.403 . S
C1323 C1324 1.524 . S
C1323 C1327 1.400 . S
C1324 H1309 0.960 . S
C1324 H1310 0.960 . S
C1324 H1311 0.960 . S
C1324 C1323 1.524 . S
C1325 C1322 1.403 . S
C1325 C1326 1.392 . S
C1325 C1329 1.495 . S
C1326 C1325 1.392 . S
C1326 C1327 1.385 . S
C1326 C1328 1.478 . S
C1327 H1321 0.930 . S
C1327 C1323 1.400 . S
C1327 C1326 1.385 . S
C1328 C1326 1.478 . S
C1328 C1330 1.381 . S
C1328 C1334 1.383 . S
C1329 C1325 1.495 . S
C1329 H1335 0.959 . S
C1329 H1336 0.961 . S
C1329 H1337 0.960 . S
C1330 C1328 1.381 . S
C1330 C1331 1.394 . S
C1330 H1338 0.930 . S
C1331 C1330 1.394 . S
C1331 C1332 1.383 . S
C1331 H1339 0.929 . S
C1332 C1331 1.383 . S
C1332 C1333 1.377 . S
C1333 H1317 0.930 . S
C1333 C1332 1.377 . S
C1333 C1334 1.379 . S
C1334 H1318 0.931 . S
C1334 C1328 1.383 . S
C1334 C1333 1.379 . S
H1335 C1329 0.959 . S
H1336 C1329 0.961 . S
H1337 C1329 0.960 . S
H1338 C1330 0.930 . S
H1339 C1331 0.929 . S
H1340 C1348 0.929 . S
H1341 C1350 0.930 . S
H1342 C1352 0.930 . S
H1343 C1355 0.929 . S
H1344 C1358 0.930 . S
H1345 C1360 0.960 . S
H1346 C1360 0.960 . S
H1347 C1360 0.960 . S
C1348 H1340 0.929 . S
C1348 C1349 1.377 . S
C1348 C1350 1.384 . S
C1349 C1348 1.377 . S
C1349 C1355 1.390 . S
C1350 H1341 0.930 . S
C1350 C1348 1.384 . S
C1350 C1351 1.372 . S
C1351 C1350 1.372 . S
C1351 C1352 1.400 . S
C1351 C1356 1.490 . S
C1352 H1342 0.930 . S
C1352 C1351 1.400 . S
C1352 C1355 1.386 . S
H1353 C1369 0.930 . S
H1354 C1370 0.931 . S
C1355 H1343 0.929 . S
C1355 C1349 1.390 . S
C1355 C1352 1.386 . S
C1356 C1351 1.490 . S
C1356 C1358 1.395 . S
C1356 C1359 1.403 . S
H1357 C1363 0.930 . S
C1358 H1344 0.930 . S
C1358 C1356 1.395 . S
C1358 C1361 1.403 . S
C1359 C1356 1.403 . S
C1359 C1360 1.524 . S
C1359 C1363 1.400 . S
C1360 H1345 0.960 . S
C1360 H1346 0.960 . S
C1360 H1347 0.960 . S
C1360 C1359 1.524 . S
C1361 C1358 1.403 . S
C1361 C1362 1.392 . S
C1361 C1365 1.495 . S
C1362 C1361 1.392 . S
C1362 C1363 1.385 . S
C1362 C1364 1.478 . S
C1363 H1357 0.930 . S
C1363 C1359 1.400 . S
C1363 C1362 1.385 . S
C1364 C1362 1.478 . S
C1364 C1366 1.381 . S
C1364 C1370 1.383 . S
C1365 C1361 1.495 . S
C1365 H1371 0.959 . S
C1365 H1372 0.961 . S
C1365 H1373 0.960 . S
C1366 C1364 1.381 . S
C1366 C1367 1.394 . S
C1366 H1374 0.930 . S
C1367 C1366 1.394 . S
C1367 C1368 1.383 1_554 S
C1367 H1375 0.929 . S
C1368 C1367 1.383 1_556 S
C1368 C1369 1.377 . S
C1369 H1353 0.930 . S
C1369 C1368 1.377 . S
C1369 C1370 1.379 1_556 S
C1370 H1354 0.931 . S
C1370 C1364 1.383 . S
C1370 C1369 1.379 1_554 S
H1371 C1365 0.959 . S
H1372 C1365 0.961 . S
H1373 C1365 0.960 . S
H1374 C1366 0.930 . S
H1375 C1367 0.929 . S
H1376 C1384 0.929 . S
H1377 C1386 0.930 . S
H1378 C1388 0.930 . S
H1379 C1391 0.929 . S
H1380 C1394 0.930 . S
H1381 C1396 0.960 . S
H1382 C1396 0.960 . S
H1383 C1396 0.960 . S
C1384 H1376 0.929 . S
C1384 C1385 1.377 . S
C1384 C1386 1.384 . S
C1385 C1384 1.377 . S
C1385 C1391 1.390 . S
C1386 H1377 0.930 . S
C1386 C1384 1.384 . S
C1386 C1387 1.372 . S
C1387 C1386 1.372 . S
C1387 C1388 1.400 . S
C1387 C1392 1.490 . S
C1388 H1378 0.930 . S
C1388 C1387 1.400 . S
C1388 C1391 1.386 . S
H1389 C1405 0.930 . S
H1390 C1406 0.931 . S
C1391 H1379 0.929 . S
C1391 C1385 1.390 . S
C1391 C1388 1.386 . S
C1392 C1387 1.490 . S
C1392 C1394 1.395 . S
C1392 C1395 1.403 . S
H1393 C1399 0.930 . S
C1394 H1380 0.930 . S
C1394 C1392 1.395 . S
C1394 C1397 1.403 . S
C1395 C1392 1.403 . S
C1395 C1396 1.524 . S
C1395 C1399 1.400 . S
C1396 H1381 0.960 . S
C1396 H1382 0.960 . S
C1396 H1383 0.960 . S
C1396 C1395 1.524 . S
C1397 C1394 1.403 . S
C1397 C1398 1.392 . S
C1397 C1401 1.495 . S
C1398 C1397 1.392 . S
C1398 C1399 1.385 . S
C1398 C1400 1.478 . S
C1399 H1393 0.930 . S
C1399 C1395 1.400 . S
C1399 C1398 1.385 . S
C1400 C1398 1.478 . S
C1400 C1402 1.381 . S
C1400 C1406 1.383 . S
C1401 C1397 1.495 . S
C1401 H1407 0.959 . S
C1401 H1408 0.961 . S
C1401 H1409 0.960 . S
C1402 C1400 1.381 . S
C1402 C1403 1.394 . S
C1402 H1410 0.930 . S
C1403 C1402 1.394 . S
C1403 C1404 1.383 . S
C1403 H1411 0.929 . S
C1404 C1403 1.383 . S
C1404 C1405 1.377 . S
C1405 H1389 0.930 . S
C1405 C1404 1.377 . S
C1405 C1406 1.379 . S
C1406 H1390 0.931 . S
C1406 C1400 1.383 . S
C1406 C1405 1.379 . S
H1407 C1401 0.959 . S
H1408 C1401 0.961 . S
H1409 C1401 0.960 . S
H1410 C1402 0.930 . S
H1411 C1403 0.929 . S
H1412 C1420 0.929 . S
H1413 C1422 0.930 . S
H1414 C1424 0.930 . S
H1415 C1427 0.929 . S
H1416 C1430 0.930 . S
H1417 C1432 0.960 . S
H1418 C1432 0.960 . S
H1419 C1432 0.960 . S
C1420 H1412 0.929 . S
C1420 C1421 1.377 . S
C1420 C1422 1.384 . S
C1421 C1420 1.377 . S
C1421 C1427 1.390 . S
C1422 H1413 0.930 . S
C1422 C1420 1.384 . S
C1422 C1423 1.372 . S
C1423 C1422 1.372 . S
C1423 C1424 1.400 . S
C1423 C1428 1.490 . S
C1424 H1414 0.930 . S
C1424 C1423 1.400 . S
C1424 C1427 1.386 . S
H1425 C1441 0.930 . S
H1426 C1442 0.931 . S
C1427 H1415 0.929 . S
C1427 C1421 1.390 . S
C1427 C1424 1.386 . S
C1428 C1423 1.490 . S
C1428 C1430 1.395 . S
C1428 C1431 1.403 . S
H1429 C1435 0.930 . S
C1430 H1416 0.930 . S
C1430 C1428 1.395 . S
C1430 C1433 1.403 . S
C1431 C1428 1.403 . S
C1431 C1432 1.524 . S
C1431 C1435 1.400 . S
C1432 H1417 0.960 . S
C1432 H1418 0.960 . S
C1432 H1419 0.960 . S
C1432 C1431 1.524 . S
C1433 C1430 1.403 . S
C1433 C1434 1.392 . S
C1433 C1437 1.495 . S
C1434 C1433 1.392 . S
C1434 C1435 1.385 . S
C1434 C1436 1.478 . S
C1435 H1429 0.930 . S
C1435 C1431 1.400 . S
C1435 C1434 1.385 . S
C1436 C1434 1.478 . S
C1436 C1438 1.381 . S
C1436 C1442 1.383 . S
C1437 C1433 1.495 . S
C1437 H1443 0.959 . S
C1437 H1444 0.961 . S
C1437 H1445 0.960 . S
C1438 C1436 1.381 . S
C1438 C1439 1.394 . S
C1438 H1446 0.930 . S
C1439 C1438 1.394 . S
C1439 C1440 1.383 . S
C1439 H1447 0.929 . S
C1440 C1439 1.383 . S
C1440 C1441 1.377 . S
C1441 H1425 0.930 . S
C1441 C1440 1.377 . S
C1441 C1442 1.379 . S
C1442 H1426 0.931 . S
C1442 C1436 1.383 . S
C1442 C1441 1.379 . S
H1443 C1437 0.959 . S
H1444 C1437 0.961 . S
H1445 C1437 0.960 . S
H1446 C1438 0.930 . S
H1447 C1439 0.929 . S
H1448 C1456 0.929 . S
H1449 C1458 0.930 . S
H1450 C1460 0.930 . S
H1451 C1463 0.929 . S
H1452 C1466 0.930 . S
H1453 C1468 0.960 . S
H1454 C1468 0.960 . S
H1455 C1468 0.960 . S
C1456 H1448 0.929 . S
C1456 C1457 1.377 . S
C1456 C1458 1.384 . S
C1457 C1456 1.377 . S
C1457 C1463 1.390 . S
C1458 H1449 0.930 . S
C1458 C1456 1.384 . S
C1458 C1459 1.372 . S
C1459 C1458 1.372 . S
C1459 C1460 1.400 . S
C1459 C1464 1.490 . S
C1460 H1450 0.930 . S
C1460 C1459 1.400 . S
C1460 C1463 1.386 . S
H1461 C1477 0.930 . S
H1462 C1478 0.931 . S
C1463 H1451 0.929 . S
C1463 C1457 1.390 . S
C1463 C1460 1.386 . S
C1464 C1459 1.490 . S
C1464 C1466 1.395 . S
C1464 C1467 1.403 . S
H1465 C1471 0.930 . S
C1466 H1452 0.930 . S
C1466 C1464 1.395 . S
C1466 C1469 1.403 . S
C1467 C1464 1.403 . S
C1467 C1468 1.524 . S
C1467 C1471 1.400 . S
C1468 H1453 0.960 . S
C1468 H1454 0.960 . S
C1468 H1455 0.960 . S
C1468 C1467 1.524 . S
C1469 C1466 1.403 . S
C1469 C1470 1.392 . S
C1469 C1473 1.495 . S
C1470 C1469 1.392 . S
C1470 C1471 1.385 . S
C1470 C1472 1.478 . S
C1471 H1465 0.930 . S
C1471 C1467 1.400 . S
C1471 C1470 1.385 . S
C1472 C1470 1.478 . S
C1472 C1474 1.381 . S
C1472 C1478 1.383 . S
C1473 C1469 1.495 . S
C1473 H1479 0.959 . S
C1473 H1480 0.961 . S
C1473 H1481 0.960 . S
C1474 C1472 1.381 . S
C1474 C1475 1.394 . S
C1474 H1482 0.930 . S
C1475 C1474 1.394 . S
C1475 C1476 1.383 . S
C1475 H1483 0.929 . S
C1476 C1475 1.383 . S
C1476 C1477 1.377 . S
C1477 H1461 0.930 . S
C1477 C1476 1.377 . S
C1477 C1478 1.379 . S
C1478 H1462 0.931 . S
C1478 C1472 1.383 . S
C1478 C1477 1.379 . S
H1479 C1473 0.959 . S
H1480 C1473 0.961 . S
H1481 C1473 0.960 . S
H1482 C1474 0.930 . S
H1483 C1475 0.929 . S
H1484 C1492 0.929 . S
H1485 C1494 0.930 . S
H1486 C1496 0.930 . S
H1487 C1499 0.929 . S
H1488 C1502 0.930 . S
H1489 C1504 0.960 . S
H1490 C1504 0.960 . S
H1491 C1504 0.960 . S
C1492 H1484 0.929 . S
C1492 C1493 1.377 . S
C1492 C1494 1.384 . S
C1493 C1492 1.377 . S
C1493 C1499 1.390 . S
C1494 H1485 0.930 . S
C1494 C1492 1.384 . S
C1494 C1495 1.372 . S
C1495 C1494 1.372 . S
C1495 C1496 1.400 . S
C1495 C1500 1.490 . S
C1496 H1486 0.930 . S
C1496 C1495 1.400 . S
C1496 C1499 1.386 . S
H1497 C1513 0.930 . S
H1498 C1514 0.931 . S
C1499 H1487 0.929 . S
C1499 C1493 1.390 . S
C1499 C1496 1.386 . S
C1500 C1495 1.490 . S
C1500 C1502 1.395 . S
C1500 C1503 1.403 . S
H1501 C1507 0.930 . S
C1502 H1488 0.930 . S
C1502 C1500 1.395 . S
C1502 C1505 1.403 . S
C1503 C1500 1.403 . S
C1503 C1504 1.524 . S
C1503 C1507 1.400 . S
C1504 H1489 0.960 . S
C1504 H1490 0.960 . S
C1504 H1491 0.960 . S
C1504 C1503 1.524 . S
C1505 C1502 1.403 . S
C1505 C1506 1.392 . S
C1505 C1509 1.495 . S
C1506 C1505 1.392 . S
C1506 C1507 1.385 . S
C1506 C1508 1.478 . S
C1507 H1501 0.930 . S
C1507 C1503 1.400 . S
C1507 C1506 1.385 . S
C1508 C1506 1.478 . S
C1508 C1510 1.381 . S
C1508 C1514 1.383 . S
C1509 C1505 1.495 . S
C1509 H1515 0.959 . S
C1509 H1516 0.961 . S
C1509 H1517 0.960 . S
C1510 C1508 1.381 . S
C1510 C1511 1.394 . S
C1510 H1518 0.930 . S
C1511 C1510 1.394 . S
C1511 C1512 1.383 . S
C1511 H1519 0.929 . S
C1512 C1511 1.383 . S
C1512 C1513 1.377 . S
C1513 H1497 0.930 . S
C1513 C1512 1.377 . S
C1513 C1514 1.379 . S
C1514 H1498 0.931 . S
C1514 C1508 1.383 . S
C1514 C1513 1.379 . S
H1515 C1509 0.959 . S
H1516 C1509 0.961 . S
H1517 C1509 0.960 . S
H1518 C1510 0.930 . S
H1519 C1511 0.929 . S
C377 N255 1.506 . S
C396 C16 1.620 . S
C413 C39 1.613 . S
C432 N186 1.477 . S
C449 C62 1.614 . S
C468 N209 1.481 . S
C485 N232 1.507 . S
C504 C85 1.606 . S
C521 C108 1.612 . S
C540 N117 1.522 . S
C557 C131 1.611 . S
C576 N140 1.495 . S
C593 N163 1.519 . S
C612 C154 1.599 . S
C629 N94 1.509 . S
C648 C177 1.601 . S
C665 N71 1.518 . S
C684 C200 1.598 . S
C701 C223 1.614 . S
C720 N2 1.544 . S
C737 N25 1.506 . S
C756 C246 1.620 . S
C773 C269 1.612 . S
C792 N48 1.482 . S
C809 C292 1.611 . S
C828 N301 1.525 . S
C845 C315 1.616 . S
C864 N324 1.523 . S
C881 N347 1.506 . S
C900 C338 1.618 . S
C917 N278 1.506 . S
C936 C361 1.607 . S
C953 C99 1.286 . S
C972 C7 1.283 . S
C989 C30 1.287 . S
C1008 C122 1.276 . S
C1025 C53 1.289 . S
C1044 C145 1.288 . S
C1061 C168 1.286 . S
C1080 C76 1.280 . S
C1097 C191 1.284 . S
C1116 C283 1.269 . S
C1133 C306 1.287 . S
C1152 C214 1.298 . S
C1169 C237 1.291 . S
C1188 C329 1.299 . S
C1205 C352 1.287 . S
C1224 C260 1.297 . S
C1241 N334 1.908 . S
C1260 N12 1.893 . S
C1277 N357 1.907 . S
C1296 N35 1.923 . S
C1313 N58 1.909 . S
C1332 N288 1.890 . S
C1349 N311 1.913 . S
C1368 N81 1.894 . S
C1385 N242 1.908 . S
C1404 N104 1.922 . S
C1421 N265 1.910 . S
C1440 N127 1.918 . S
C1457 N150 1.912 . S
C1476 N196 1.919 . S
C1493 N219 1.912 . S
C1512 N173 1.910 . S
