# Generated by pormake.
# Topology ukd, (4)-cn, num edge types: 1
# Building blocks:
#     Node 0, Type 0, BuildingBlock: CEKHIL_clean_sbu_0, # of connection points: 4
#     Node 1, Type 0, BuildingBlock: CEKHIL_clean_sbu_0, # of connection points: 4
#     Node 2, Type 0, BuildingBlock: CEKHIL_clean_sbu_0, # of connection points: 4
#     Node 3, Type 0, BuildingBlock: CEKHIL_clean_sbu_0, # of connection points: 4
#     Node 4, Type 0, BuildingBlock: CEKHIL_clean_sbu_0, # of connection points: 4
#     Node 5, Type 0, BuildingBlock: CEKHIL_clean_sbu_0, # of connection points: 4
#     Node 6, Type 0, BuildingBlock: CEKHIL_clean_sbu_0, # of connection points: 4
#     Node 7, Type 0, BuildingBlock: CEKHIL_clean_sbu_0, # of connection points: 4
#     Node 8, Type 0, BuildingBlock: CEKHIL_clean_sbu_0, # of connection points: 4
#     Node 9, Type 0, BuildingBlock: CEKHIL_clean_sbu_0, # of connection points: 4
#     Node 10, Type 0, BuildingBlock: CEKHIL_clean_sbu_0, # of connection points: 4
#     Node 11, Type 0, BuildingBlock: CEKHIL_clean_sbu_0, # of connection points: 4
#     Node 12, Type 0, BuildingBlock: CEKHIL_clean_sbu_0, # of connection points: 4
#     Node 13, Type 0, BuildingBlock: CEKHIL_clean_sbu_0, # of connection points: 4
#     Node 14, Type 0, BuildingBlock: CEKHIL_clean_sbu_0, # of connection points: 4
#     Node 15, Type 0, BuildingBlock: CEKHIL_clean_sbu_0, # of connection points: 4
#     Node 16, Type 0, BuildingBlock: CEKHIL_clean_sbu_0, # of connection points: 4
#     Node 17, Type 0, BuildingBlock: CEKHIL_clean_sbu_0, # of connection points: 4
#     Node 18, Type 0, BuildingBlock: CEKHIL_clean_sbu_0, # of connection points: 4
#     Node 19, Type 0, BuildingBlock: CEKHIL_clean_sbu_0, # of connection points: 4
#     Node 20, Type 0, BuildingBlock: CEKHIL_clean_sbu_0, # of connection points: 4
#     Node 21, Type 0, BuildingBlock: CEKHIL_clean_sbu_0, # of connection points: 4
#     Node 22, Type 0, BuildingBlock: CEKHIL_clean_sbu_0, # of connection points: 4
#     Node 23, Type 0, BuildingBlock: CEKHIL_clean_sbu_0, # of connection points: 4
#     Node 24, Type 0, BuildingBlock: CEKHIL_clean_sbu_0, # of connection points: 4
#     Node 25, Type 0, BuildingBlock: CEKHIL_clean_sbu_0, # of connection points: 4
#     Node 26, Type 0, BuildingBlock: CEKHIL_clean_sbu_0, # of connection points: 4
#     Node 27, Type 0, BuildingBlock: CEKHIL_clean_sbu_0, # of connection points: 4
#     Node 28, Type 0, BuildingBlock: CEKHIL_clean_sbu_0, # of connection points: 4
#     Node 29, Type 0, BuildingBlock: CEKHIL_clean_sbu_0, # of connection points: 4
#     Node 30, Type 0, BuildingBlock: CEKHIL_clean_sbu_0, # of connection points: 4
#     Node 31, Type 0, BuildingBlock: CEKHIL_clean_sbu_0, # of connection points: 4
#     Edge 32, Type (0, 0), BuildingBlock: AJUNOK_clean_linker_0, # of connection points: 2
#     Edge 33, Type (0, 0), BuildingBlock: AJUNOK_clean_linker_0, # of connection points: 2
#     Edge 34, Type (0, 0), BuildingBlock: AJUNOK_clean_linker_0, # of connection points: 2
#     Edge 35, Type (0, 0), BuildingBlock: AJUNOK_clean_linker_0, # of connection points: 2
#     Edge 36, Type (0, 0), BuildingBlock: AJUNOK_clean_linker_0, # of connection points: 2
#     Edge 37, Type (0, 0), BuildingBlock: AJUNOK_clean_linker_0, # of connection points: 2
#     Edge 38, Type (0, 0), BuildingBlock: AJUNOK_clean_linker_0, # of connection points: 2
#     Edge 39, Type (0, 0), BuildingBlock: AJUNOK_clean_linker_0, # of connection points: 2
#     Edge 40, Type (0, 0), BuildingBlock: AJUNOK_clean_linker_0, # of connection points: 2
#     Edge 41, Type (0, 0), BuildingBlock: AJUNOK_clean_linker_0, # of connection points: 2
#     Edge 42, Type (0, 0), BuildingBlock: AJUNOK_clean_linker_0, # of connection points: 2
#     Edge 43, Type (0, 0), BuildingBlock: AJUNOK_clean_linker_0, # of connection points: 2
#     Edge 44, Type (0, 0), BuildingBlock: AJUNOK_clean_linker_0, # of connection points: 2
#     Edge 45, Type (0, 0), BuildingBlock: AJUNOK_clean_linker_0, # of connection points: 2
#     Edge 46, Type (0, 0), BuildingBlock: AJUNOK_clean_linker_0, # of connection points: 2
#     Edge 47, Type (0, 0), BuildingBlock: AJUNOK_clean_linker_0, # of connection points: 2
#     Edge 48, Type (0, 0), BuildingBlock: AJUNOK_clean_linker_0, # of connection points: 2
#     Edge 49, Type (0, 0), BuildingBlock: AJUNOK_clean_linker_0, # of connection points: 2
#     Edge 50, Type (0, 0), BuildingBlock: AJUNOK_clean_linker_0, # of connection points: 2
#     Edge 51, Type (0, 0), BuildingBlock: AJUNOK_clean_linker_0, # of connection points: 2
#     Edge 52, Type (0, 0), BuildingBlock: AJUNOK_clean_linker_0, # of connection points: 2
#     Edge 53, Type (0, 0), BuildingBlock: AJUNOK_clean_linker_0, # of connection points: 2
#     Edge 54, Type (0, 0), BuildingBlock: AJUNOK_clean_linker_0, # of connection points: 2
#     Edge 55, Type (0, 0), BuildingBlock: AJUNOK_clean_linker_0, # of connection points: 2
#     Edge 56, Type (0, 0), BuildingBlock: AJUNOK_clean_linker_0, # of connection points: 2
#     Edge 57, Type (0, 0), BuildingBlock: AJUNOK_clean_linker_0, # of connection points: 2
#     Edge 58, Type (0, 0), BuildingBlock: AJUNOK_clean_linker_0, # of connection points: 2
#     Edge 59, Type (0, 0), BuildingBlock: AJUNOK_clean_linker_0, # of connection points: 2
#     Edge 60, Type (0, 0), BuildingBlock: AJUNOK_clean_linker_0, # of connection points: 2
#     Edge 61, Type (0, 0), BuildingBlock: AJUNOK_clean_linker_0, # of connection points: 2
#     Edge 62, Type (0, 0), BuildingBlock: AJUNOK_clean_linker_0, # of connection points: 2
#     Edge 63, Type (0, 0), BuildingBlock: AJUNOK_clean_linker_0, # of connection points: 2
#     Edge 64, Type (0, 0), BuildingBlock: AJUNOK_clean_linker_0, # of connection points: 2
#     Edge 65, Type (0, 0), BuildingBlock: AJUNOK_clean_linker_0, # of connection points: 2
#     Edge 66, Type (0, 0), BuildingBlock: AJUNOK_clean_linker_0, # of connection points: 2
#     Edge 67, Type (0, 0), BuildingBlock: AJUNOK_clean_linker_0, # of connection points: 2
#     Edge 68, Type (0, 0), BuildingBlock: AJUNOK_clean_linker_0, # of connection points: 2
#     Edge 69, Type (0, 0), BuildingBlock: AJUNOK_clean_linker_0, # of connection points: 2
#     Edge 70, Type (0, 0), BuildingBlock: AJUNOK_clean_linker_0, # of connection points: 2
#     Edge 71, Type (0, 0), BuildingBlock: AJUNOK_clean_linker_0, # of connection points: 2
#     Edge 72, Type (0, 0), BuildingBlock: AJUNOK_clean_linker_0, # of connection points: 2
#     Edge 73, Type (0, 0), BuildingBlock: AJUNOK_clean_linker_0, # of connection points: 2
#     Edge 74, Type (0, 0), BuildingBlock: AJUNOK_clean_linker_0, # of connection points: 2
#     Edge 75, Type (0, 0), BuildingBlock: AJUNOK_clean_linker_0, # of connection points: 2
#     Edge 76, Type (0, 0), BuildingBlock: AJUNOK_clean_linker_0, # of connection points: 2
#     Edge 77, Type (0, 0), BuildingBlock: AJUNOK_clean_linker_0, # of connection points: 2
#     Edge 78, Type (0, 0), BuildingBlock: AJUNOK_clean_linker_0, # of connection points: 2
#     Edge 79, Type (0, 0), BuildingBlock: AJUNOK_clean_linker_0, # of connection points: 2
#     Edge 80, Type (0, 0), BuildingBlock: AJUNOK_clean_linker_0, # of connection points: 2
#     Edge 81, Type (0, 0), BuildingBlock: AJUNOK_clean_linker_0, # of connection points: 2
#     Edge 82, Type (0, 0), BuildingBlock: AJUNOK_clean_linker_0, # of connection points: 2
#     Edge 83, Type (0, 0), BuildingBlock: AJUNOK_clean_linker_0, # of connection points: 2
#     Edge 84, Type (0, 0), BuildingBlock: AJUNOK_clean_linker_0, # of connection points: 2
#     Edge 85, Type (0, 0), BuildingBlock: AJUNOK_clean_linker_0, # of connection points: 2
#     Edge 86, Type (0, 0), BuildingBlock: AJUNOK_clean_linker_0, # of connection points: 2
#     Edge 87, Type (0, 0), BuildingBlock: AJUNOK_clean_linker_0, # of connection points: 2
#     Edge 88, Type (0, 0), BuildingBlock: AJUNOK_clean_linker_0, # of connection points: 2
#     Edge 89, Type (0, 0), BuildingBlock: AJUNOK_clean_linker_0, # of connection points: 2
#     Edge 90, Type (0, 0), BuildingBlock: AJUNOK_clean_linker_0, # of connection points: 2
#     Edge 91, Type (0, 0), BuildingBlock: AJUNOK_clean_linker_0, # of connection points: 2
#     Edge 92, Type (0, 0), BuildingBlock: AJUNOK_clean_linker_0, # of connection points: 2
#     Edge 93, Type (0, 0), BuildingBlock: AJUNOK_clean_linker_0, # of connection points: 2
#     Edge 94, Type (0, 0), BuildingBlock: AJUNOK_clean_linker_0, # of connection points: 2
#     Edge 95, Type (0, 0), BuildingBlock: AJUNOK_clean_linker_0, # of connection points: 2
# Relax obj value: 0.046
# Max RMSD: 0.077
# Mean RMSD: 0.077
data_MOF--net-ukd--node1-CEKHIL_clean_sbu_0--edge1-AJUNOK_clean_linker_0
_symmetry_space_group_name_H-M    P1
_symmetry_Int_Tables_number       1
_symmetry_cell_setting            triclinic
loop_
_symmetry_equiv_pos_as_xyz
'x, y, z'
_cell_length_a     33.14798
_cell_length_b     33.146766
_cell_length_c     51.209214
_cell_angle_alpha  90.001895
_cell_angle_beta   89.999221
_cell_angle_gamma 90.004418
loop_
_atom_site_label
_atom_site_type_symbol
_atom_site_fract_x
_atom_site_fract_y
_atom_site_fract_z
_atom_type_partial_charge
Co0 Co 0.22479 0.18242 0.33965 0.0
O1 O 0.2534 0.13228 0.33387 0.0
O2 O 0.2545 0.16703 0.37067 0.0
C3 C 0.24274 0.21242 0.30149 0.0
O4 O 0.20129 0.23561 0.35291 0.0
Co5 Co 0.15482 0.21004 0.30386 0.0
O6 O 0.15963 0.26207 0.3229 0.0
C7 C 0.13933 0.14792 0.34407 0.0
C8 C 0.2668 0.13573 0.35759 0.0
C9 C 0.17855 0.26437 0.34452 0.0
O10 O 0.17552 0.15248 0.3528 0.0
O11 O 0.12632 0.16588 0.32358 0.0
O12 O 0.26713 0.21217 0.32136 0.0
O13 O 0.21018 0.19148 0.30452 0.0
Co14 Co 0.0795 0.97348 0.58914 0.0
O15 O 0.12953 1.00241 0.58325 0.0
O16 O 0.09414 1.00458 0.61975 0.0
C17 C 0.05028 0.98939 0.55022 0.0
O18 O 0.02637 0.94991 0.60259 0.0
Co19 Co 0.05261 0.90188 0.5544 0.0
O20 O 1.00052 0.90655 0.57336 0.0
C21 C 0.11509 0.88869 0.59473 0.0
C22 C 0.12565 0.01657 0.60677 0.0
C23 C 0.99798 0.92632 0.59465 0.0
O24 O 0.10979 0.92494 0.60322 0.0
O25 O 0.09748 0.875 0.5743 0.0
O26 O 0.04956 0.01471 0.56961 0.0
O27 O 0.07126 0.95719 0.55429 0.0
Co28 Co 0.28387 0.83124 0.84049 0.0
O29 O 0.25475 0.88118 0.83509 0.0
O30 O 0.25448 0.84617 0.87178 0.0
C31 C 0.26561 0.80147 0.8023 0.0
O32 O 0.30817 0.77801 0.85326 0.0
Co33 Co 0.35347 0.80497 0.80383 0.0
O34 O 0.34816 0.75224 0.82199 0.0
C35 C 0.36908 0.86662 0.84432 0.0
C36 C 0.24174 0.87748 0.85888 0.0
C37 C 0.33003 0.74927 0.84386 0.0
O38 O 0.33314 0.86151 0.85337 0.0
O39 O 0.38185 0.84911 0.8236 0.0
O40 O 0.24148 0.80125 0.8223 0.0
O41 O 0.29795 0.82275 0.80525 0.0
Co42 Co 0.43071 0.03795 0.08922 0.0
O43 O 0.38096 0.00865 0.08321 0.0
O44 O 0.41612 0.00687 0.11982 0.0
C45 C 0.46019 0.02221 0.05038 0.0
O46 O 0.48345 0.06208 0.10285 0.0
Co47 Co 0.45744 0.10964 0.05446 0.0
O48 O 0.50929 0.10572 0.07378 0.0
C49 C 0.39454 0.12242 0.09459 0.0
C50 C 0.38476 0.99467 0.10678 0.0
C51 C 0.51164 0.08604 0.0951 0.0
O52 O 0.39999 0.08624 0.10316 0.0
O53 O 0.41218 0.13617 0.07419 0.0
O54 O 0.46111 0.99692 0.06978 0.0
O55 O 0.439 0.05427 0.05443 0.0
Co56 Co 0.22485 0.83292 0.16598 0.0
O57 O 0.25337 0.88276 0.17247 0.0
O58 O 0.25568 0.84888 0.13539 0.0
C59 C 0.24186 0.80244 0.20418 0.0
O60 O 0.20129 0.77983 0.15231 0.0
Co61 Co 0.15387 0.80592 0.20115 0.0
O62 O 0.16063 0.75338 0.18298 0.0
C63 C 0.1395 0.86768 0.16056 0.0
C64 C 0.26782 0.87972 0.14901 0.0
C65 C 0.17944 0.75078 0.16134 0.0
O66 O 0.17608 0.8633 0.15253 0.0
O67 O 0.12578 0.84972 0.18087 0.0
O68 O 0.26663 0.80275 0.18453 0.0
O69 O 0.20949 0.82362 0.20095 0.0
Co70 Co 0.43001 0.97661 0.41574 0.0
O71 O 0.38032 1.00509 0.42281 0.0
O72 O 0.41325 0.00739 0.38535 0.0
C73 C 0.46134 0.9936 0.45367 0.0
O74 O 0.48259 0.9531 0.40136 0.0
Co75 Co 0.45841 0.90574 0.45062 0.0
O76 O 0.5098 0.91112 0.43095 0.0
C77 C 0.39466 0.89157 0.41129 0.0
C78 C 0.38275 0.01948 0.3993 0.0
C79 C 0.5115 0.93019 0.40936 0.0
O80 O 0.39933 0.92779 0.40264 0.0
O81 O 0.41315 0.87811 0.43146 0.0
O82 O 0.46065 0.01841 0.43403 0.0
O83 O 0.44024 0.96118 0.45055 0.0
Co84 Co 0.28522 0.1792 0.66562 0.0
O85 O 0.25659 0.12945 0.67232 0.0
O86 O 0.25461 0.16275 0.63502 0.0
C87 C 0.26794 0.21023 0.70364 0.0
O88 O 0.30897 0.23205 0.65168 0.0
Co89 Co 0.35576 0.20694 0.7011 0.0
O90 O 0.34916 0.25908 0.68242 0.0
C91 C 0.37039 0.14395 0.66131 0.0
C92 C 0.24232 0.13213 0.64879 0.0
C93 C 0.33069 0.26125 0.66064 0.0
O94 O 0.3342 0.14864 0.65258 0.0
O95 O 0.38365 0.1622 0.68162 0.0
O96 O 0.24329 0.2097 0.68391 0.0
O97 O 0.30029 0.18902 0.70056 0.0
Co98 Co 0.08068 0.03803 0.91815 0.0
O99 O 0.13066 0.00965 0.92458 0.0
O100 O 0.09556 1.00566 0.88803 0.0
C101 C 0.05154 0.02326 0.95723 0.0
O102 O 0.02733 0.06113 0.90465 0.0
Co103 Co 0.05456 0.11072 0.95235 0.0
O104 O 1.00175 0.10361 0.93459 0.0
C105 C 0.1163 0.12259 0.91139 0.0
C106 C 0.12684 0.99415 0.90144 0.0
C107 C 0.99866 0.08372 0.91338 0.0
O108 O 0.11077 0.08614 0.90333 0.0
O109 O 0.09912 0.1369 0.9318 0.0
O110 O 0.05089 0.99732 0.9382 0.0
O111 O 0.07259 0.0553 0.95277 0.0
Co112 Co 0.78475 0.8297 0.66552 0.0
O113 O 0.75577 0.87962 0.6714 0.0
O114 O 0.75474 0.84486 0.63459 0.0
C115 C 0.76738 0.7995 0.70379 0.0
O116 O 0.80858 0.77677 0.6521 0.0
Co117 Co 0.85522 0.80252 0.70106 0.0
O118 O 0.85083 0.75058 0.68186 0.0
C119 C 0.86992 0.86481 0.66084 0.0
C120 C 0.74233 0.8761 0.64768 0.0
C121 C 0.83174 0.74824 0.66031 0.0
O122 O 0.8337 0.86001 0.65221 0.0
O123 O 0.88321 0.84693 0.68128 0.0
O124 O 0.74282 0.79955 0.68401 0.0
O125 O 0.79974 0.82071 0.70061 0.0
Co126 Co 0.93 0.03828 0.41566 0.0
O127 O 0.88022 0.00904 0.42169 0.0
O128 O 0.91429 0.00869 0.38464 0.0
C129 C 0.96079 0.02026 0.45362 0.0
O130 O 0.98269 0.06248 0.40197 0.0
Co131 Co 0.9578 0.10815 0.45145 0.0
O132 O 0.00941 0.10421 0.43185 0.0
C133 C 0.89456 0.12344 0.41193 0.0
C134 C 0.88333 0.99594 0.39787 0.0
C135 C 0.01137 0.08553 0.41014 0.0
O136 O 0.89928 0.08739 0.40298 0.0
O137 O 0.91289 0.13639 0.4323 0.0
O138 O 0.96054 0.9961 0.43364 0.0
O139 O 0.93956 0.05268 0.4508 0.0
Co140 Co 0.72356 0.18386 0.16684 0.0
O141 O 0.75146 0.13381 0.1739 0.0
O142 O 0.75447 0.1669 0.13654 0.0
C143 C 0.7407 0.21477 0.20493 0.0
O144 O 0.70073 0.23684 0.15253 0.0
Co145 Co 0.65287 0.21298 0.20161 0.0
O146 O 0.66033 0.26483 0.18276 0.0
C147 C 0.63794 0.14996 0.16181 0.0
C148 C 0.76617 0.13623 0.15048 0.0
C149 C 0.67919 0.26642 0.1611 0.0
O150 O 0.67446 0.1538 0.1535 0.0
O151 O 0.6245 0.16878 0.18186 0.0
O152 O 0.76558 0.21392 0.18534 0.0
O153 O 0.70804 0.19407 0.20168 0.0
Co154 Co 0.57939 0.97549 0.91516 0.0
O155 O 0.62924 1.00446 0.92131 0.0
O156 O 0.59471 1.00595 0.88443 0.0
C157 C 0.54906 0.99243 0.95343 0.0
O158 O 0.52649 0.95171 0.90152 0.0
Co159 Co 0.55247 0.90444 0.95014 0.0
O160 O 0.50038 0.90923 0.93119 0.0
C161 C 0.61399 0.89016 0.9094 0.0
C162 C 0.62585 0.01823 0.89767 0.0
C163 C 0.49797 0.92849 0.9097 0.0
O164 O 0.60981 0.92686 0.90159 0.0
O165 O 0.59606 0.87627 0.92967 0.0
O166 O 0.54917 0.01713 0.93373 0.0
O167 O 0.57032 0.96009 0.95021 0.0
Co168 Co 0.78629 0.18114 0.84052 0.0
O169 O 0.75802 0.1313 0.83358 0.0
O170 O 0.75384 0.16552 0.87047 0.0
C171 C 0.77152 0.21096 0.80167 0.0
O172 O 0.80945 0.23422 0.85455 0.0
Co173 Co 0.85908 0.20768 0.80666 0.0
O174 O 0.85184 0.26024 0.8247 0.0
C175 C 0.87103 0.14579 0.84748 0.0
C176 C 0.74247 0.1345 0.85673 0.0
C177 C 0.83205 0.263 0.84596 0.0
O178 O 0.83428 0.15071 0.8551 0.0
O179 O 0.88556 0.16333 0.82727 0.0
O180 O 0.7456 0.21132 0.82072 0.0
O181 O 0.80357 0.18986 0.80599 0.0
Co182 Co 0.58047 0.03644 0.58938 0.0
O183 O 0.63044 0.00826 0.58261 0.0
O184 O 0.59569 1.00389 0.61931 0.0
C185 C 0.55103 0.02203 0.55036 0.0
O186 O 0.52734 0.05923 0.60338 0.0
Co187 Co 0.55353 0.10949 0.55593 0.0
O188 O 0.50133 0.1032 0.57456 0.0
C189 C 0.61532 0.12121 0.59686 0.0
C190 C 0.6269 0.99263 0.60574 0.0
C191 C 0.49882 0.08278 0.59559 0.0
O192 O 0.6106 0.08436 0.60429 0.0
O193 O 0.59778 0.13589 0.57669 0.0
O194 O 0.55059 0.99591 0.56929 0.0
O195 O 0.57194 0.05415 0.55488 0.0
Co196 Co 0.72449 0.83222 0.33956 0.0
O197 O 0.75294 0.88198 0.33255 0.0
O198 O 0.75496 0.84924 0.37006 0.0
C199 C 0.74202 0.80077 0.30176 0.0
O200 O 0.70091 0.77956 0.35389 0.0
Co201 Co 0.6541 0.80347 0.30441 0.0
O202 O 0.65928 0.75214 0.32417 0.0
C203 C 0.63924 0.86723 0.34364 0.0
C204 C 0.76714 0.87972 0.35612 0.0
C205 C 0.67813 0.75055 0.34584 0.0
O206 O 0.67544 0.86281 0.35238 0.0
O207 O 0.62602 0.84856 0.32347 0.0
O208 O 0.76657 0.80163 0.32153 0.0
O209 O 0.70949 0.8218 0.30467 0.0
Co210 Co 0.92953 0.978 0.09137 0.0
O211 O 0.87966 0.007 0.08548 0.0
O212 O 0.91405 0.00772 0.12242 0.0
C213 C 0.95981 0.99589 0.05326 0.0
O214 O 0.98254 0.95381 0.10464 0.0
Co215 Co 0.9564 0.90806 0.05513 0.0
O216 O 0.0088 0.91361 0.07366 0.0
C217 C 0.89413 0.89286 0.09529 0.0
C218 C 0.88292 0.02026 0.10924 0.0
C219 C 0.01139 0.93186 0.09551 0.0
O220 O 0.89911 0.92887 0.10426 0.0
O221 O 0.91193 0.87992 0.07473 0.0
O222 O 0.95978 0.02022 0.07316 0.0
O223 O 0.93854 0.96356 0.05625 0.0
Co224 Co 0.72403 0.68065 0.8396 0.0
O225 O 0.75348 0.6309 0.83399 0.0
O226 O 0.75545 0.66689 0.87026 0.0
C227 C 0.73931 0.70943 0.80047 0.0
O228 O 0.69977 0.73378 0.85262 0.0
Co229 Co 0.65181 0.7054 0.80472 0.0
O230 O 0.65714 0.75844 0.82247 0.0
C231 C 0.63958 0.64436 0.84605 0.0
C232 C 0.76765 0.63528 0.85746 0.0
C233 C 0.67666 0.76195 0.84379 0.0
O234 O 0.67605 0.64999 0.85403 0.0
O235 O 0.62538 0.66119 0.82549 0.0
O236 O 0.76476 0.71079 0.81978 0.0
O237 O 0.70749 0.68796 0.80475 0.0
Co238 Co 0.5811 0.4783 0.08923 0.0
O239 O 0.63079 0.50763 0.08326 0.0
O240 O 0.5962 0.50835 0.12015 0.0
C241 C 0.55051 0.4952 0.05108 0.0
O242 O 0.52839 0.45403 0.10275 0.0
Co243 Co 0.55464 0.40727 0.05404 0.0
O244 O 0.5025 0.41154 0.07301 0.0
C245 C 0.61648 0.39322 0.0946 0.0
C246 C 0.62738 0.52084 0.10703 0.0
C247 C 0.49999 0.43069 0.09453 0.0
O248 O 0.61191 0.4298 0.10254 0.0
O249 O 0.59857 0.37932 0.07432 0.0
O250 O 0.55054 0.51989 0.0708 0.0
O251 O 0.57208 0.46306 0.0542 0.0
Co252 Co 0.78482 0.33338 0.34081 0.0
O253 O 0.75645 0.38334 0.3342 0.0
O254 O 0.75257 0.34864 0.37091 0.0
C255 C 0.76996 0.30394 0.3018 0.0
O256 O 0.80796 0.28027 0.35468 0.0
Co257 Co 0.85746 0.30662 0.30688 0.0
O258 O 0.8517 0.25446 0.32562 0.0
C259 C 0.86965 0.36834 0.3478 0.0
C260 C 0.74111 0.37984 0.3574 0.0
C261 C 0.83159 0.25188 0.34677 0.0
O262 O 0.83291 0.36357 0.35547 0.0
O263 O 0.88404 0.35089 0.32751 0.0
O264 O 0.74409 0.30343 0.32088 0.0
O265 O 0.80209 0.3249 0.3062 0.0
Co266 Co 0.92958 0.53559 0.58958 0.0
O267 O 0.87979 0.50712 0.58288 0.0
O268 O 0.91341 0.50471 0.62007 0.0
C269 C 0.96033 0.51874 0.55148 0.0
O270 O 0.98254 0.55918 0.60338 0.0
Co271 Co 0.95684 0.60656 0.55427 0.0
O272 O 0.00907 0.60002 0.57283 0.0
C273 C 0.89418 0.62058 0.59434 0.0
C274 C 0.88266 0.49263 0.60634 0.0
C275 C 0.01155 0.58118 0.59447 0.0
O276 O 0.89915 0.58438 0.60295 0.0
O277 O 0.91209 0.63408 0.57397 0.0
O278 O 0.95991 0.49384 0.57107 0.0
O279 O 0.93909 0.55103 0.55471 0.0
Co280 Co 0.72476 0.33026 0.66671 0.0
O281 O 0.75377 0.38019 0.67227 0.0
O282 O 0.75469 0.34501 0.63563 0.0
C283 C 0.74236 0.30061 0.70504 0.0
O284 O 0.70068 0.27703 0.65378 0.0
Co285 Co 0.6543 0.30442 0.70257 0.0
O286 O 0.65969 0.25158 0.68457 0.0
C287 C 0.63937 0.365 0.66134 0.0
C288 C 0.76715 0.3764 0.64857 0.0
C289 C 0.67838 0.24845 0.66292 0.0
O290 O 0.67591 0.36049 0.65329 0.0
O291 O 0.6258 0.34753 0.68187 0.0
O292 O 0.76675 0.30036 0.68518 0.0
O293 O 0.71003 0.32191 0.7019 0.0
Co294 Co 0.93064 0.47627 0.91637 0.0
O295 O 0.88104 0.50508 0.92329 0.0
O296 O 0.91418 0.50713 0.88592 0.0
C297 C 0.9621 0.49305 0.95428 0.0
O298 O 0.98323 0.4525 0.90212 0.0
Co299 Co 0.95829 0.40508 0.95108 0.0
O300 O 0.01004 0.41041 0.93179 0.0
C301 C 0.89547 0.39105 0.91114 0.0
C302 C 0.88363 0.5194 0.89977 0.0
C303 C 0.01205 0.42954 0.91024 0.0
O304 O 0.89974 0.42767 0.90316 0.0
O305 O 0.91387 0.37717 0.93123 0.0
O306 O 0.96143 0.51787 0.93465 0.0
O307 O 0.94071 0.46077 0.95124 0.0
Co308 Co 0.78791 0.6816 0.16645 0.0
O309 O 0.75988 0.63143 0.17293 0.0
O310 O 0.75605 0.6662 0.13625 0.0
C311 C 0.7724 0.7109 0.20536 0.0
O312 O 0.81062 0.73491 0.1527 0.0
Co313 Co 0.85989 0.7092 0.20071 0.0
O314 O 0.85373 0.76128 0.18192 0.0
C315 C 0.8728 0.64661 0.16041 0.0
C316 C 0.74462 0.63494 0.1497 0.0
C317 C 0.83375 0.76363 0.16071 0.0
O318 O 0.83645 0.65173 0.15205 0.0
O319 O 0.88663 0.6643 0.18077 0.0
O320 O 0.74672 0.7112 0.18618 0.0
O321 O 0.80475 0.69024 0.20111 0.0
Co322 Co 0.57913 0.53869 0.4176 0.0
O323 O 0.62919 0.50973 0.42329 0.0
O324 O 0.59353 0.50772 0.38689 0.0
C325 C 0.55018 0.52267 0.45656 0.0
O326 O 0.52589 0.5622 0.40434 0.0
Co327 Co 0.55225 0.61014 0.45244 0.0
O328 O 0.49999 0.60532 0.43368 0.0
C329 C 0.61471 0.62351 0.41211 0.0
C330 C 0.62511 0.49566 0.39976 0.0
C331 C 0.49741 0.58558 0.41239 0.0
O332 O 0.60937 0.5873 0.40353 0.0
O333 O 0.5971 0.63709 0.43257 0.0
O334 O 0.54933 0.49738 0.43715 0.0
O335 O 0.57111 0.5549 0.45246 0.0
Co336 Co 0.28769 0.33256 0.16643 0.0
O337 O 0.25955 0.38264 0.17303 0.0
O338 O 0.25584 0.34808 0.13624 0.0
C339 C 0.27228 0.303 0.20527 0.0
O340 O 0.3105 0.27933 0.15259 0.0
Co341 Co 0.35973 0.30488 0.20065 0.0
O342 O 0.35356 0.25285 0.1818 0.0
C343 C 0.37254 0.36772 0.1605 0.0
C344 C 0.24435 0.37926 0.14977 0.0
C345 C 0.33361 0.25056 0.16057 0.0
O346 O 0.3362 0.36259 0.15212 0.0
O347 O 0.38639 0.34992 0.18081 0.0
O348 O 0.24655 0.30275 0.18611 0.0
O349 O 0.30457 0.32376 0.20105 0.0
Co350 Co 0.42926 0.53661 0.91602 0.0
O351 O 0.37929 0.50813 0.92233 0.0
O352 O 0.41443 0.50443 0.88578 0.0
C353 C 0.45838 0.52176 0.95509 0.0
O354 O 0.48262 0.55987 0.90262 0.0
Co355 Co 0.45518 0.60923 0.95031 0.0
O356 O 0.50815 0.60202 0.93277 0.0
C357 C 0.39389 0.62137 0.90912 0.0
C358 C 0.3831 0.49285 0.89912 0.0
C359 C 0.51132 0.58229 0.91151 0.0
O360 O 0.39906 0.58473 0.90134 0.0
O361 O 0.41105 0.63571 0.92953 0.0
O362 O 0.4591 0.49586 0.93603 0.0
O363 O 0.43726 0.55375 0.95066 0.0
Co364 Co 0.22331 0.67963 0.66755 0.0
O365 O 0.25177 0.62981 0.67448 0.0
O366 O 0.25578 0.66413 0.63762 0.0
C367 C 0.23776 0.70968 0.70637 0.0
O368 O 0.20018 0.73255 0.65337 0.0
Co369 Co 0.15031 0.70665 0.70106 0.0
O370 O 0.15628 0.75868 0.68219 0.0
C371 C 0.13864 0.64424 0.66052 0.0
C372 C 0.26723 0.63309 0.65129 0.0
C373 C 0.17657 0.76108 0.6611 0.0
O374 O 0.17542 0.64908 0.65295 0.0
O375 O 0.12401 0.66199 0.68063 0.0
O376 O 0.26381 0.70996 0.68739 0.0
O377 O 0.20575 0.68852 0.70203 0.0
Co378 Co 0.08034 0.4766 0.41632 0.0
O379 O 0.1303 0.50572 0.42161 0.0
O380 O 0.09386 0.50782 0.38551 0.0
C381 C 0.05223 0.49227 0.45551 0.0
O382 O 0.02682 0.45264 0.40379 0.0
Co383 Co 0.05559 0.40483 0.45174 0.0
O384 O 1.00232 0.4106 0.43435 0.0
C385 C 0.11677 0.39226 0.41054 0.0
C386 C 0.12564 0.51995 0.39818 0.0
C387 C 0.99855 0.42998 0.41299 0.0
O388 O 0.1105 0.42826 0.40189 0.0
O389 O 0.10022 0.37856 0.43133 0.0
O390 O 0.05077 0.51768 0.43618 0.0
O391 O 0.07344 0.46032 0.45118 0.0
Co392 Co 0.28525 0.68236 0.33954 0.0
O393 O 0.25679 0.63252 0.33278 0.0
O394 O 0.25306 0.66699 0.36961 0.0
C395 C 0.27031 0.71209 0.30066 0.0
O396 O 0.30845 0.73534 0.35351 0.0
Co397 Co 0.35775 0.70937 0.3055 0.0
O398 O 0.35202 0.76136 0.32443 0.0
C399 C 0.36985 0.6467 0.34585 0.0
C400 C 0.24146 0.63595 0.356 0.0
C401 C 0.33199 0.76381 0.34562 0.0
O402 O 0.33343 0.65199 0.35403 0.0
O403 O 0.38401 0.66432 0.32556 0.0
O404 O 0.24448 0.71253 0.31976 0.0
O405 O 0.3024 0.69107 0.30496 0.0
Co406 Co 0.08217 0.53749 0.08939 0.0
O407 O 0.13218 0.50851 0.08371 0.0
O408 O 0.09634 0.50638 0.12007 0.0
C409 C 0.05327 0.52184 0.0504 0.0
O410 O 0.02896 0.56114 0.10255 0.0
Co411 Co 0.05612 0.6094 0.05471 0.0
O412 O 1.00364 0.60463 0.07322 0.0
C413 C 0.11739 0.6224 0.09579 0.0
C414 C 0.128 0.49442 0.10723 0.0
C415 C 1.00073 0.58476 0.09445 0.0
O416 O 0.11238 0.58582 0.10371 0.0
O417 O 0.10014 0.63643 0.07533 0.0
O418 O 0.05236 0.49639 0.06972 0.0
O419 O 0.07439 0.55394 0.05456 0.0
Co420 Co 0.22433 0.33097 0.83868 0.0
O421 O 0.25345 0.38095 0.83293 0.0
O422 O 0.25549 0.34524 0.86931 0.0
C423 C 0.23993 0.30188 0.7997 0.0
O424 O 0.20072 0.27784 0.85202 0.0
Co425 Co 0.15256 0.3042 0.80403 0.0
O426 O 0.15717 0.25203 0.82293 0.0
C427 C 0.1397 0.36686 0.84429 0.0
C428 C 0.2676 0.3768 0.85644 0.0
C429 C 0.17711 0.24945 0.84414 0.0
O430 O 0.17589 0.36135 0.85285 0.0
O431 O 0.12599 0.34933 0.82384 0.0
O432 O 0.26539 0.30101 0.81901 0.0
O433 O 0.20783 0.32295 0.80388 0.0
Co434 Co 0.42989 0.47492 0.59122 0.0
O435 O 0.38025 0.50441 0.58539 0.0
O436 O 0.41467 0.50462 0.62231 0.0
C437 C 0.4604 0.49262 0.55314 0.0
O438 O 0.48266 0.45035 0.60459 0.0
Co439 Co 0.45629 0.40466 0.55534 0.0
O440 O 0.5088 0.4098 0.57379 0.0
C441 C 0.39442 0.38972 0.59578 0.0
C442 C 0.38362 0.51745 0.6092 0.0
C443 C 0.51142 0.42816 0.59559 0.0
O444 O 0.399 0.42612 0.60411 0.0
O445 O 0.41237 0.37631 0.57538 0.0
O446 O 0.46049 0.51685 0.57309 0.0
O447 O 0.43887 0.46041 0.55604 0.0
C448 C 0.13894 0.36644 0.36686 0.0
C449 C 0.1401 0.36335 0.39425 0.0
C450 C 0.15343 0.33518 0.3509 0.0
C451 C 0.17023 0.29979 0.36164 0.0
H452 H 0.12451 0.39205 0.35762 0.0
H453 H 0.15 0.33818 0.32995 0.0
S454 S 0.18574 0.27965 0.4323 0.0
N455 N 0.16328 0.32408 0.43143 0.0
N456 N 0.19094 0.26565 0.40155 0.0
C457 C 0.17438 0.29777 0.38899 0.0
C458 C 0.15917 0.3294 0.40525 0.0
C459 C 0.92683 0.90242 0.6013 0.0
C460 C 0.96279 0.91803 0.61197 0.0
C461 C 0.89562 0.88799 0.61732 0.0
C462 C 0.89933 0.88788 0.64471 0.0
H463 H 0.9233 0.89998 0.58033 0.0
H464 H 0.86944 0.87461 0.60808 0.0
S465 S 0.98523 0.92949 0.68265 0.0
N466 N 0.99852 0.93588 0.65185 0.0
N467 N 0.94022 0.90819 0.68187 0.0
C468 C 0.93407 0.90552 0.65568 0.0
C469 C 0.96564 0.92078 0.63936 0.0
C470 C 0.35608 0.68639 0.90344 0.0
C471 C 0.37043 0.65002 0.89258 0.0
C472 C 0.34037 0.71729 0.88768 0.0
C473 C 0.33892 0.71339 0.86035 0.0
H474 H 0.3584 0.69176 0.92425 0.0
H475 H 0.33156 0.74534 0.89693 0.0
S476 S 0.36759 0.62246 0.82229 0.0
N477 N 0.37809 0.61046 0.85284 0.0
N478 N 0.3491 0.66869 0.82328 0.0
C479 C 0.35071 0.67627 0.84935 0.0
C480 C 0.36624 0.64455 0.86543 0.0
C481 C 0.58301 0.10871 0.1024 0.0
C482 C 0.5461 0.09508 0.1128 0.0
C483 C 0.61375 0.12375 0.11859 0.0
C484 C 0.60855 0.12656 0.14583 0.0
H485 H 0.5877 0.10903 0.08147 0.0
H486 H 0.64084 0.13542 0.10948 0.0
S487 S 0.51903 0.0916 0.18313 0.0
N488 N 0.50742 0.08249 0.15234 0.0
N489 N 0.56478 0.11129 0.18266 0.0
C490 C 0.57262 0.11108 0.1566 0.0
C491 C 0.54156 0.09519 0.14014 0.0
C492 C 0.16952 0.71908 0.11738 0.0
C493 C 0.17132 0.71491 0.14469 0.0
C494 C 0.15419 0.68805 0.10155 0.0
C495 C 0.14058 0.65131 0.11231 0.0
H496 H 0.1777 0.7474 0.10825 0.0
H497 H 0.15153 0.6936 0.08078 0.0
S498 S 0.14466 0.62311 0.18248 0.0
N499 N 0.16231 0.66967 0.1816 0.0
N500 N 0.13407 0.61123 0.15194 0.0
C501 C 0.14518 0.64565 0.13943 0.0
C502 C 0.16031 0.67747 0.15557 0.0
C503 C 0.58295 0.90758 0.40263 0.0
C504 C 0.54646 0.92179 0.39191 0.0
C505 C 0.61407 0.89274 0.38671 0.0
C506 C 0.60976 0.89084 0.35939 0.0
H507 H 0.58698 0.9065 0.42361 0.0
H508 H 0.64068 0.88043 0.39606 0.0
S509 S 0.52229 0.92855 0.32124 0.0
N510 N 0.50954 0.93656 0.35198 0.0
N511 N 0.56771 0.90816 0.32213 0.0
C512 C 0.57448 0.9072 0.3483 0.0
C513 C 0.54298 0.92285 0.36451 0.0
C514 C 0.3434 0.29194 0.61668 0.0
C515 C 0.33909 0.29682 0.64382 0.0
C516 C 0.35923 0.32297 0.60104 0.0
C517 C 0.37083 0.3604 0.61182 0.0
H518 H 0.33686 0.26312 0.60765 0.0
H519 H 0.36385 0.31692 0.58047 0.0
S520 S 0.35952 0.39037 0.68139 0.0
N521 N 0.34345 0.34325 0.68043 0.0
N522 N 0.37248 0.40175 0.65115 0.0
C523 C 0.36364 0.36665 0.63866 0.0
C524 C 0.34804 0.33483 0.65462 0.0
C525 C 0.96697 0.09276 0.86938 0.0
C526 C 0.9628 0.09155 0.8967 0.0
C527 C 0.93611 0.10815 0.85344 0.0
C528 C 0.89955 0.12236 0.86412 0.0
H529 H 0.99521 0.08417 0.86031 0.0
H530 H 0.94168 0.11044 0.83265 0.0
S531 S 0.87136 0.11985 0.93431 0.0
N532 N 0.91773 0.10169 0.93356 0.0
N533 N 0.85955 0.12999 0.90369 0.0
C534 C 0.89382 0.11826 0.89126 0.0
C535 C 0.92549 0.1031 0.90751 0.0
C536 C 0.87078 0.64612 0.6378 0.0
C537 C 0.87083 0.64976 0.61041 0.0
C538 C 0.85613 0.67728 0.65377 0.0
C539 C 0.8403 0.71309 0.64304 0.0
H540 H 0.88437 0.62008 0.64707 0.0
H541 H 0.85861 0.67382 0.67475 0.0
S542 S 0.82838 0.73506 0.57233 0.0
N543 N 0.85007 0.69024 0.57318 0.0
N544 N 0.82199 0.74846 0.6031 0.0
C545 C 0.83743 0.71579 0.61565 0.0
C546 C 0.85288 0.68428 0.59938 0.0
C547 C 0.11366 0.12405 0.38743 0.0
C548 C 0.10971 0.1249 0.36007 0.0
C549 C 0.0825 0.10942 0.40342 0.0
C550 C 0.04632 0.09435 0.39273 0.0
H551 H 0.14005 0.13694 0.39673 0.0
H552 H 0.08629 0.11121 0.4244 0.0
S553 S 0.02311 0.08496 0.32203 0.0
N554 N 0.06829 0.1059 0.32286 0.0
N555 N 0.01007 0.07786 0.3528 0.0
C556 C 0.04317 0.0924 0.36532 0.0
C557 C 0.07471 0.10785 0.34904 0.0
C558 C 0.65154 0.3266 0.10071 0.0
C559 C 0.63993 0.36433 0.11102 0.0
C560 C 0.66715 0.29598 0.11677 0.0
C561 C 0.67123 0.3016 0.14386 0.0
H562 H 0.64704 0.31999 0.0802 0.0
H563 H 0.67366 0.26689 0.10809 0.0
S564 S 0.65073 0.3962 0.18028 0.0
N565 N 0.63807 0.40677 0.14986 0.0
N566 N 0.66668 0.34902 0.17992 0.0
C567 C 0.66231 0.33991 0.15419 0.0
C568 C 0.64694 0.37132 0.13781 0.0
C569 C 0.42665 0.90501 0.90339 0.0
C570 C 0.46269 0.92005 0.89251 0.0
C571 C 0.39525 0.89048 0.88757 0.0
C572 C 0.39883 0.88973 0.86018 0.0
H573 H 0.42317 0.90309 0.92439 0.0
H574 H 0.36899 0.87757 0.89699 0.0
S575 S 0.48497 0.92975 0.82171 0.0
N576 N 0.49843 0.93668 0.85243 0.0
N577 N 0.43975 0.9089 0.82276 0.0
C578 C 0.43368 0.90684 0.84898 0.0
C579 C 0.46546 0.92216 0.8651 0.0
C580 C 0.85927 0.32487 0.90573 0.0
C581 C 0.87177 0.36202 0.89497 0.0
C582 C 0.84344 0.29395 0.88999 0.0
C583 C 0.84006 0.29866 0.86278 0.0
H584 H 0.86323 0.31895 0.92637 0.0
H585 H 0.83623 0.26529 0.89902 0.0
S586 S 0.86342 0.39143 0.82514 0.0
N587 N 0.87549 0.40292 0.85552 0.0
N588 N 0.84646 0.34462 0.82606 0.0
C589 C 0.84996 0.33642 0.85197 0.0
C590 C 0.86554 0.36814 0.86802 0.0
C591 C 0.3959 0.11949 0.61806 0.0
C592 C 0.39986 0.12057 0.64542 0.0
C593 C 0.42723 0.10509 0.60212 0.0
C594 C 0.46353 0.09049 0.61287 0.0
H595 H 0.36945 0.13216 0.60872 0.0
H596 H 0.42354 0.10687 0.58113 0.0
S597 S 0.48682 0.08165 0.68357 0.0
N598 N 0.44141 0.10208 0.68269 0.0
N599 N 0.49993 0.07451 0.65281 0.0
C600 C 0.46664 0.08858 0.64027 0.0
C601 C 0.43496 0.10379 0.6565 0.0
C602 C 0.65475 0.67928 0.35274 0.0
C603 C 0.66953 0.71566 0.36335 0.0
C604 C 0.63979 0.64831 0.36877 0.0
C605 C 0.63837 0.65265 0.39609 0.0
H606 H 0.65332 0.67524 0.33176 0.0
H607 H 0.62705 0.62182 0.35952 0.0
S608 S 0.67761 0.73981 0.43396 0.0
N609 N 0.68525 0.75245 0.40318 0.0
N610 N 0.65678 0.69458 0.43322 0.0
C611 C 0.65532 0.68779 0.40705 0.0
C612 C 0.67102 0.71914 0.39074 0.0
C613 C 0.07328 0.9037 0.15513 0.0
C614 C 0.11036 0.89114 0.14433 0.0
C615 C 0.04236 0.9196 0.13943 0.0
C616 C 0.04699 0.92301 0.11221 0.0
H617 H 0.06742 0.89985 0.17579 0.0
H618 H 0.0138 0.92698 0.14853 0.0
S619 S 0.13964 0.89949 0.07448 0.0
N620 N 0.15115 0.88732 0.10484 0.0
N621 N 0.09286 0.91653 0.07544 0.0
C622 C 0.08468 0.91296 0.10135 0.0
C623 C 0.1164 0.89729 0.11736 0.0
C624 C 0.66637 0.79356 0.88775 0.0
C625 C 0.66805 0.79772 0.86043 0.0
C626 C 0.65082 0.82447 0.90361 0.0
C627 C 0.63699 0.86111 0.89286 0.0
H628 H 0.67485 0.76532 0.89687 0.0
H629 H 0.64829 0.81897 0.9244 0.0
S630 S 0.6401 0.88906 0.82261 0.0
N631 N 0.6582 0.84267 0.82349 0.0
N632 N 0.62973 0.90097 0.85318 0.0
C633 C 0.64128 0.86671 0.86571 0.0
C634 C 0.65654 0.83497 0.84954 0.0
C635 C 0.42905 0.40605 0.10103 0.0
C636 C 0.46483 0.42197 0.11177 0.0
C637 C 0.3979 0.39131 0.117 0.0
C638 C 0.40154 0.39125 0.14438 0.0
H639 H 0.42561 0.4036 0.08005 0.0
H640 H 0.37189 0.37763 0.10773 0.0
S641 S 0.48688 0.43366 0.18248 0.0
N642 N 0.50023 0.44016 0.15171 0.0
N643 N 0.44206 0.41199 0.18161 0.0
C644 C 0.43604 0.40925 0.15541 0.0
C645 C 0.46754 0.42477 0.13916 0.0
C646 C 0.86899 0.14903 0.36894 0.0
C647 C 0.87093 0.15307 0.39628 0.0
C648 C 0.8541 0.1803 0.35314 0.0
C649 C 0.83983 0.21665 0.36402 0.0
H650 H 0.88132 0.12252 0.35948 0.0
H651 H 0.85521 0.17652 0.33214 0.0
S652 S 0.8334 0.24032 0.43477 0.0
N653 N 0.85373 0.19487 0.43371 0.0
N654 N 0.82525 0.25328 0.40409 0.0
C655 C 0.83885 0.2199 0.39143 0.0
C656 C 0.85457 0.18827 0.40752 0.0
C657 C 0.07355 0.60662 0.65452 0.0
C658 C 0.1102 0.62068 0.6439 0.0
C659 C 0.04282 0.59103 0.63856 0.0
C660 C 0.04722 0.58944 0.61126 0.0
H661 H 0.06782 0.60914 0.67529 0.0
H662 H 0.01451 0.58251 0.64759 0.0
S663 S 0.13897 0.61741 0.57382 0.0
N664 N 0.1505 0.62793 0.60443 0.0
N665 N 0.09263 0.59917 0.57451 0.0
C666 C 0.08462 0.60089 0.60053 0.0
C667 C 0.11614 0.61629 0.61681 0.0
C668 C 0.65363 0.18583 0.60298 0.0
C669 C 0.63855 0.14964 0.61365 0.0
C670 C 0.66917 0.21656 0.61896 0.0
C671 C 0.66966 0.21266 0.64632 0.0
H672 H 0.65203 0.19118 0.58214 0.0
H673 H 0.67861 0.2445 0.60984 0.0
S674 S 0.63827 0.12222 0.68398 0.0
N675 N 0.62882 0.11029 0.65329 0.0
N676 N 0.65747 0.16817 0.68325 0.0
C677 C 0.657 0.17571 0.65716 0.0
C678 C 0.64167 0.14417 0.64086 0.0
C679 C 0.11438 0.39089 0.88772 0.0
C680 C 0.11065 0.39049 0.86035 0.0
C681 C 0.08321 0.40561 0.90367 0.0
C682 C 0.04724 0.42115 0.89293 0.0
H683 H 0.1405 0.37747 0.89702 0.0
H684 H 0.08675 0.40337 0.92465 0.0
S685 S 0.02492 0.43214 0.82223 0.0
N686 N 0.06987 0.41073 0.82311 0.0
N687 N 0.01162 0.4388 0.85299 0.0
C688 C 0.04444 0.42371 0.86554 0.0
C689 C 0.07599 0.40824 0.8493 0.0
C690 C 0.8705 0.86673 0.13857 0.0
C691 C 0.87101 0.8632 0.11117 0.0
C692 C 0.8563 0.83522 0.15441 0.0
C693 C 0.84138 0.79911 0.14355 0.0
H694 H 0.88344 0.893 0.14797 0.0
H695 H 0.85849 0.83862 0.17541 0.0
S696 S 0.83083 0.7771 0.07277 0.0
N697 N 0.85153 0.82238 0.07379 0.0
N698 N 0.82433 0.76348 0.10349 0.0
C699 C 0.83887 0.79646 0.11615 0.0
C700 C 0.85387 0.82835 0.1 0.0
C701 C 0.42648 0.61028 0.40574 0.0
C702 C 0.46206 0.59366 0.39515 0.0
C703 C 0.39527 0.62455 0.38964 0.0
C704 C 0.39863 0.6234 0.36225 0.0
H705 H 0.42329 0.61372 0.42667 0.0
H706 H 0.36949 0.63887 0.39875 0.0
S707 S 0.48313 0.57856 0.32456 0.0
N708 N 0.4968 0.57333 0.35538 0.0
N709 N 0.43852 0.60068 0.32524 0.0
C710 C 0.43285 0.60462 0.35141 0.0
C711 C 0.4644 0.58958 0.3678 0.0
C712 C 0.37126 0.14792 0.1381 0.0
C713 C 0.37108 0.15147 0.11072 0.0
C714 C 0.35696 0.17924 0.15408 0.0
C715 C 0.34127 0.21514 0.14336 0.0
H716 H 0.38489 0.12188 0.14736 0.0
H717 H 0.35971 0.17589 0.17505 0.0
S718 S 0.32867 0.23687 0.07268 0.0
N719 N 0.35006 0.19191 0.07351 0.0
N720 N 0.32271 0.25044 0.10346 0.0
C721 C 0.33804 0.2177 0.11598 0.0
C722 C 0.35311 0.18601 0.09971 0.0
C723 C 0.5434 0.59139 0.86762 0.0
C724 C 0.54734 0.59014 0.89496 0.0
C725 C 0.57442 0.60675 0.8518 0.0
C726 C 0.6109 0.62094 0.86261 0.0
H727 H 0.51522 0.58283 0.85845 0.0
H728 H 0.56901 0.60904 0.83099 0.0
S729 S 0.63858 0.61813 0.93289 0.0
N730 N 0.59217 0.6001 0.93197 0.0
N731 N 0.65063 0.62835 0.90232 0.0
C732 C 0.61641 0.61677 0.88976 0.0
C733 C 0.58458 0.60162 0.9059 0.0
C734 C 0.15339 0.83241 0.65433 0.0
C735 C 0.16867 0.79626 0.64372 0.0
C736 C 0.13893 0.86356 0.63825 0.0
C737 C 0.13849 0.85957 0.61089 0.0
H738 H 0.15114 0.83612 0.67529 0.0
H739 H 0.12572 0.88986 0.64745 0.0
S740 S 0.17928 0.77306 0.57311 0.0
N741 N 0.18592 0.76005 0.60393 0.0
N742 N 0.1583 0.81822 0.57381 0.0
C743 C 0.15595 0.82466 0.59998 0.0
C744 C 0.17119 0.79316 0.61635 0.0
C745 C 0.96542 0.42194 0.36932 0.0
C746 C 0.96229 0.42172 0.39672 0.0
C747 C 0.93427 0.40677 0.35354 0.0
C748 C 0.89838 0.3914 0.36447 0.0
H749 H 0.99311 0.43161 0.35997 0.0
H750 H 0.93904 0.40565 0.33263 0.0
S751 S 0.87291 0.38938 0.43509 0.0
N752 N 0.91883 0.40862 0.43402 0.0
N753 N 0.86013 0.38068 0.40444 0.0
C754 C 0.89365 0.39387 0.39176 0.0
C755 C 0.92564 0.4088 0.40785 0.0
C756 C 0.35513 0.83514 0.35215 0.0
C757 C 0.34012 0.799 0.36292 0.0
C758 C 0.36992 0.86629 0.36807 0.0
C759 C 0.371 0.86232 0.39543 0.0
H760 H 0.35692 0.83882 0.33116 0.0
H761 H 0.3829 0.89259 0.35873 0.0
S762 S 0.33102 0.77592 0.43363 0.0
N763 N 0.3237 0.76285 0.40289 0.0
N764 N 0.35205 0.82106 0.43273 0.0
C765 C 0.35382 0.82744 0.40653 0.0
C766 C 0.3382 0.79593 0.39032 0.0
C767 C 0.92973 0.60931 0.10084 0.0
C768 C 0.96536 0.59306 0.11159 0.0
C769 C 0.89846 0.6238 0.11681 0.0
C770 C 0.90183 0.62328 0.14421 0.0
H771 H 0.92653 0.61225 0.07987 0.0
H772 H 0.8726 0.63776 0.10756 0.0
S773 S 0.98665 0.57982 0.18229 0.0
N774 N 1.00029 0.57392 0.15152 0.0
N775 N 0.94191 0.60165 0.18142 0.0
C776 C 0.93616 0.60493 0.15522 0.0
C777 C 0.96777 0.58966 0.13897 0.0
C778 C 0.15203 0.17873 0.85112 0.0
C779 C 0.16903 0.21426 0.86152 0.0
C780 C 0.13782 0.14769 0.86739 0.0
C781 C 0.13941 0.15121 0.89476 0.0
H782 H 0.14826 0.17543 0.83021 0.0
H783 H 0.12323 0.12193 0.85843 0.0
S784 S 0.18539 0.23563 0.93195 0.0
N785 N 0.19021 0.24909 0.90107 0.0
N786 N 0.16297 0.19116 0.93152 0.0
C787 C 0.15856 0.18537 0.9054 0.0
C788 C 0.17355 0.21674 0.88883 0.0
C789 C 0.54212 0.4162 0.63964 0.0
C790 C 0.54689 0.41926 0.61241 0.0
C791 C 0.57297 0.40059 0.6555 0.0
C792 C 0.61015 0.38798 0.64487 0.0
H793 H 0.51351 0.42372 0.64864 0.0
H794 H 0.56702 0.39705 0.67618 0.0
S795 S 0.63977 0.3953 0.57502 0.0
N796 N 0.59295 0.41225 0.57578 0.0
N797 N 0.65113 0.38362 0.60548 0.0
C798 C 0.61629 0.39369 0.61787 0.0
C799 C 0.58463 0.40906 0.60169 0.0
C800 C 0.23058 0.25663 0.2332 0.0
C801 C 0.26558 0.28018 0.22997 0.0
C802 C 0.22345 0.23497 0.25634 0.0
C803 C 0.25102 0.23591 0.27727 0.0
H804 H 0.20839 0.25484 0.21771 0.0
H805 H 0.19605 0.2173 0.25778 0.0
S806 S 0.34726 0.29326 0.27896 0.0
N807 N 0.32804 0.30335 0.24996 0.0
N808 N 0.31475 0.26266 0.29323 0.0
C809 C 0.28613 0.25939 0.27434 0.0
C810 C 0.29337 0.28148 0.25078 0.0
C811 C 1.00423 0.03147 0.52225 0.0
C812 C 0.02781 0.99647 0.5254 0.0
C813 C 0.98288 0.03894 0.49902 0.0
C814 C 0.98416 0.01172 0.47789 0.0
H815 H 1.00214 0.05339 0.53788 0.0
H816 H 0.96515 0.0663 0.49768 0.0
S817 S 0.04178 0.91567 0.47589 0.0
N818 N 0.0514 0.93442 0.50508 0.0
N819 N 0.01132 0.94835 0.46166 0.0
C820 C 0.00771 0.97665 0.48072 0.0
C821 C 0.02948 0.96905 0.50438 0.0
C822 C 0.27849 0.75703 0.73415 0.0
C823 C 0.24393 0.73282 0.73099 0.0
C824 C 0.28519 0.77901 0.75722 0.0
C825 C 0.25762 0.77774 0.77814 0.0
H826 H 0.30066 0.75911 0.71868 0.0
H827 H 0.31227 0.79717 0.75859 0.0
S828 S 0.16247 0.71863 0.78 0.0
N829 N 0.18188 0.70868 0.75103 0.0
N830 N 0.1944 0.74995 0.79418 0.0
C831 C 0.22295 0.7536 0.77528 0.0
C832 C 0.21613 0.7312 0.75179 0.0
C833 C 0.50649 0.98055 0.02227 0.0
C834 C 0.48255 0.01529 0.0255 0.0
C835 C 0.52769 0.97332 0.99892 0.0
C836 C 0.52588 1.00054 0.97782 0.0
H837 H 0.50897 0.95867 0.03789 0.0
H838 H 0.54573 0.94617 0.99749 0.0
S839 S 0.46703 0.09588 0.97604 0.0
N840 N 0.45797 0.07702 0.00528 0.0
N841 N 0.49774 0.06357 0.9617 0.0
C842 C 0.50193 0.03534 0.98076 0.0
C843 C 0.48033 0.04267 0.00449 0.0
C844 C 0.22893 0.75848 0.27251 0.0
C845 C 0.26383 0.73481 0.27589 0.0
C846 C 0.22203 0.78005 0.24929 0.0
C847 C 0.24974 0.77891 0.22845 0.0
H848 H 0.20666 0.76044 0.28794 0.0
H849 H 0.19473 0.79784 0.24775 0.0
S850 S 0.3457 0.72107 0.22711 0.0
N851 N 0.32627 0.71124 0.25609 0.0
N852 N 0.31342 0.75175 0.21271 0.0
C853 C 0.28471 0.75526 0.23152 0.0
C854 C 0.29172 0.73326 0.25514 0.0
C855 C 0.48389 0.97365 0.49866 0.0
C856 C 0.48483 1.00157 0.47793 0.0
C857 C 0.50526 0.98056 0.52194 0.0
C858 C 0.52852 0.01567 0.5255 0.0
H859 H 0.4664 0.94617 0.49699 0.0
H860 H 0.50345 0.9581 0.53726 0.0
S861 S 0.54153 0.0982 0.47712 0.0
N862 N 0.51132 0.06571 0.4625 0.0
N863 N 0.55147 0.0786 0.50604 0.0
C864 C 0.52987 0.0438 0.50488 0.0
C865 C 0.50807 0.03677 0.48118 0.0
C866 C 0.28098 0.25481 0.77181 0.0
C867 C 0.24643 0.27903 0.77496 0.0
C868 C 0.28773 0.23289 0.7487 0.0
C869 C 0.26019 0.2342 0.72775 0.0
H870 H 0.30307 0.25262 0.78733 0.0
H871 H 0.31475 0.21464 0.74734 0.0
S872 S 0.16524 0.29359 0.7258 0.0
N873 N 0.18457 0.30342 0.75481 0.0
N874 N 0.19713 0.26223 0.71165 0.0
C875 C 0.22561 0.25845 0.73059 0.0
C876 C 0.21876 0.28082 0.75409 0.0
C877 C 1.00455 0.98249 0.98524 0.0
C878 C 0.02853 0.01717 0.98192 0.0
C879 C 0.98258 0.97591 0.00832 0.0
C880 C 0.98362 1.00372 0.02911 0.0
H881 H 1.00262 0.96013 0.96986 0.0
H882 H 0.96459 0.94873 0.00981 0.0
S883 S 0.04205 0.09931 0.03054 0.0
N884 N 0.05222 0.07961 1.00168 0.0
N885 N 0.01094 0.06733 0.04485 0.0
C886 C 0.00754 0.03852 0.0261 0.0
C887 C 0.02995 0.04521 1.0026 0.0
C888 C 0.78689 0.77789 0.74911 0.0
C889 C 0.75951 0.77605 0.7281 0.0
C890 C 0.78012 0.75636 0.77236 0.0
C891 C 0.74569 0.732 0.77562 0.0
H892 H 0.81385 0.79623 0.74767 0.0
H893 H 0.80213 0.75892 0.78791 0.0
S894 S 0.66478 0.71623 0.72642 0.0
N895 N 0.69662 0.74747 0.71209 0.0
N896 N 0.68401 0.70701 0.75554 0.0
C897 C 0.71811 0.72973 0.75472 0.0
C898 C 0.72498 0.75171 0.73106 0.0
C899 C 0.72094 0.23732 0.25001 0.0
C900 C 0.74883 0.2381 0.22926 0.0
C901 C 0.72805 0.25856 0.27333 0.0
C902 C 0.76336 0.28154 0.27692 0.0
H903 H 0.69332 0.22006 0.24832 0.0
H904 H 0.70561 0.25688 0.28866 0.0
S905 S 0.84592 0.29406 0.22849 0.0
N906 N 0.81317 0.26415 0.21384 0.0
N907 N 0.82643 0.30405 0.25743 0.0
C908 C 0.79145 0.28273 0.25627 0.0
C909 C 0.78422 0.26106 0.23254 0.0
C910 C 0.72994 0.25707 0.7735 0.0
C911 C 0.765 0.23366 0.77691 0.0
C912 C 0.72286 0.27849 0.75025 0.0
C913 C 0.75055 0.27743 0.7294 0.0
H914 H 0.70764 0.25892 0.78892 0.0
H915 H 0.69541 0.29603 0.74867 0.0
S916 S 0.84706 0.22049 0.72822 0.0
N917 N 0.82769 0.2106 0.7572 0.0
N918 N 0.81451 0.25079 0.71373 0.0
C919 C 0.78574 0.25411 0.73252 0.0
C920 C 0.79293 0.23229 0.75619 0.0
C921 C 0.72289 0.77808 0.25662 0.0
C922 C 0.75041 0.77722 0.27758 0.0
C923 C 0.73026 0.75666 0.23342 0.0
C924 C 0.76546 0.73342 0.23015 0.0
H925 H 0.69538 0.79556 0.25806 0.0
H926 H 0.70811 0.75842 0.21791 0.0
S927 S 0.84703 0.72055 0.27923 0.0
N928 N 0.81425 0.75079 0.29356 0.0
N929 N 0.828 0.71054 0.25017 0.0
C930 C 0.79317 0.73214 0.25101 0.0
C931 C 0.78567 0.75399 0.27463 0.0
C932 C 0.52781 0.47487 0.00614 0.0
C933 C 0.52659 0.5027 0.02692 0.0
C934 C 0.50574 0.48127 0.98307 0.0
C935 C 0.48147 0.51575 0.97977 0.0
H936 H 0.54604 0.44785 0.00763 0.0
H937 H 0.50781 0.45893 0.96769 0.0
S938 S 0.46734 0.59778 0.02838 0.0
N939 N 0.49875 0.56609 0.04267 0.0
N940 N 0.45729 0.57798 0.99954 0.0
C941 C 0.47985 0.54378 1.00044 0.0
C942 C 0.50237 0.53729 0.02392 0.0
C943 C 1.00472 0.53261 0.48341 0.0
C944 C 0.02945 0.49844 0.48026 0.0
C945 C 0.98268 0.53897 0.5065 0.0
C946 C 0.98439 0.51139 0.5274 0.0
H947 H 1.00219 0.55469 0.4679 0.0
H948 H 0.96402 0.56571 0.50787 0.0
S949 S 0.04527 0.41739 0.52935 0.0
N950 N 0.05484 0.43694 0.50037 0.0
N951 N 0.01337 0.44874 0.5435 0.0
C952 C 0.00917 0.47719 0.52457 0.0
C953 C 0.03168 0.47075 0.5011 0.0
C954 C 0.00653 0.48044 0.02251 0.0
C955 C 0.03055 0.51516 0.02565 0.0
C956 C 0.98475 0.47347 0.99938 0.0
C957 C 0.986 0.50092 0.9784 0.0
H958 H 1.0044 0.4584 0.03806 0.0
H959 H 0.96665 0.44634 0.99803 0.0
S960 S 0.04486 0.59625 0.9764 0.0
N961 N 0.05467 0.57708 0.00545 0.0
N962 N 0.01376 0.56411 0.96224 0.0
C963 C 0.01006 0.53567 0.98121 0.0
C964 C 0.03229 0.54275 0.00474 0.0
C965 C 0.50366 0.48099 0.48448 0.0
C966 C 0.52772 0.51569 0.48139 0.0
C967 C 0.48222 0.47373 0.50771 0.0
C968 C 0.48387 0.50087 0.52887 0.0
H969 H 0.50126 0.45918 0.46881 0.0
H970 H 0.46409 0.44662 0.50902 0.0
S971 S 0.54296 0.59603 0.53106 0.0
N972 N 0.55227 0.57727 0.50182 0.0
N973 N 0.51201 0.56375 0.54522 0.0
C974 C 0.50795 0.5356 0.5261 0.0
C975 C 0.52981 0.54298 0.50246 0.0
C976 C 0.31905 0.08156 0.35211 0.0
C977 C 0.29556 0.10589 0.36878 0.0
C978 C 0.34731 0.05392 0.36209 0.0
C979 C 0.35261 0.04886 0.38915 0.0
H980 H 0.31608 0.0843 0.33112 0.0
H981 H 0.36489 0.03615 0.34846 0.0
S982 S 0.29815 0.10474 0.44123 0.0
N983 N 0.27953 0.12297 0.41375 0.0
N984 N 0.33179 0.07057 0.4325 0.0
C985 C 0.32897 0.07267 0.40605 0.0
C986 C 0.30072 0.1013 0.39588 0.0
C987 C 0.17996 0.06886 0.60136 0.0
C988 C 0.15545 0.04543 0.61797 0.0
C989 C 0.20771 0.097 0.61141 0.0
C990 C 0.21276 0.1022 0.6385 0.0
H991 H 0.17728 0.06591 0.58036 0.0
H992 H 0.22561 0.11454 0.59783 0.0
S993 S 0.15647 0.04778 0.69042 0.0
N994 N 0.13821 0.02935 0.6629 0.0
N995 N 0.19081 0.0813 0.68177 0.0
C996 C 0.18875 0.07861 0.65532 0.0
C997 C 0.16 0.05053 0.64508 0.0
C998 C 0.1888 0.93108 0.85381 0.0
C999 C 0.213 0.90715 0.87031 0.0
C1000 C 0.16079 0.95881 0.86399 0.0
C1001 C 0.15647 0.9644 0.89109 0.0
H1002 H 0.19107 0.92801 0.8328 0.0
H1003 H 0.1427 0.97629 0.8505 0.0
S1004 S 0.21291 0.90961 0.94275 0.0
N1005 N 0.23061 0.8909 0.91515 0.0
N1006 N 0.17887 0.94353 0.93427 0.0
C1007 C 0.18075 0.94093 0.90781 0.0
C1008 C 0.20872 0.91218 0.89744 0.0
C1009 C 0.30264 0.91436 0.11156 0.0
C1010 C 0.29745 0.90947 0.13865 0.0
C1011 C 0.3305 0.94234 0.10144 0.0
C1012 C 0.35493 0.96591 0.11801 0.0
H1013 H 0.28478 0.89671 0.09802 0.0
H1014 H 0.33329 0.94507 0.08044 0.0
S1015 S 0.35347 0.96439 0.19047 0.0
N1016 N 0.31915 0.93081 0.18189 0.0
N1017 N 0.37191 0.98249 0.16291 0.0
C1018 C 0.35022 0.96113 0.14513 0.0
C1019 C 0.32138 0.9332 0.15543 0.0
C1020 C 0.68952 0.92975 0.65308 0.0
C1021 C 0.71356 0.90589 0.63646 0.0
C1022 C 0.66137 0.95744 0.64303 0.0
C1023 C 0.65676 0.96304 0.61595 0.0
H1024 H 0.692 0.92662 0.67407 0.0
H1025 H 0.64338 0.97488 0.65661 0.0
S1026 S 0.71283 0.90852 0.56401 0.0
N1027 N 0.73082 0.88979 0.59152 0.0
N1028 N 0.6788 0.94234 0.57266 0.0
C1029 C 0.68093 0.93968 0.59911 0.0
C1030 C 0.70905 0.91098 0.60934 0.0
C1031 C 0.82938 0.94336 0.40336 0.0
C1032 C 0.85347 0.96712 0.3867 0.0
C1033 C 0.80175 0.91506 0.39337 0.0
C1034 C 0.79645 0.90996 0.3663 0.0
H1035 H 0.83229 0.94614 0.42435 0.0
H1036 H 0.78419 0.89727 0.407 0.0
S1037 S 0.85161 0.96523 0.31424 0.0
N1038 N 0.87001 0.98366 0.34172 0.0
N1039 N 0.81768 0.93133 0.32297 0.0
C1040 C 0.82002 0.93389 0.34942 0.0
C1041 C 0.84862 0.96219 0.3596 0.0
C1042 C 0.80145 0.10118 0.11342 0.0
C1043 C 0.79562 0.10601 0.14046 0.0
C1044 C 0.82926 0.07298 0.10356 0.0
C1045 C 0.85302 0.04906 0.12033 0.0
H1046 H 0.78419 0.1191 0.09971 0.0
H1047 H 0.83258 0.07038 0.08258 0.0
S1048 S 0.84966 0.0502 0.19275 0.0
N1049 N 0.81593 0.08419 0.18388 0.0
N1050 N 0.86865 0.03205 0.16536 0.0
C1051 C 0.84764 0.05372 0.1474 0.0
C1052 C 0.81882 0.08191 0.15745 0.0
C1053 C 0.67896 0.07148 0.90355 0.0
C1054 C 0.65566 0.04722 0.88672 0.0
C1055 C 0.70665 0.09985 0.89374 0.0
C1056 C 0.71281 0.10448 0.86672 0.0
H1057 H 0.67537 0.069 0.92451 0.0
H1058 H 0.72364 0.118 0.90748 0.0
S1059 S 0.66002 0.04768 0.81432 0.0
N1060 N 0.6408 0.02964 0.84167 0.0
N1061 N 0.6933 0.08209 0.82326 0.0
C1062 C 0.69003 0.08005 0.84968 0.0
C1063 C 0.66134 0.0517 0.85966 0.0
C1064 C 0.82049 0.58156 0.85224 0.0
C1065 C 0.7967 0.60581 0.86878 0.0
C1066 C 0.84868 0.55396 0.86237 0.0
C1067 C 0.85361 0.54883 0.88947 0.0
H1068 H 0.81775 0.58429 0.83123 0.0
H1069 H 0.86648 0.53624 0.84883 0.0
S1070 S 0.79804 0.60432 0.94123 0.0
N1071 N 0.77985 0.62263 0.91366 0.0
N1072 N 0.83198 0.57033 0.93269 0.0
C1073 C 0.82965 0.57256 0.90623 0.0
C1074 C 0.80147 0.60115 0.8959 0.0
C1075 C 0.7081 0.60229 0.11224 0.0
C1076 C 0.71505 0.60516 0.13929 0.0
C1077 C 0.68018 0.57455 0.10198 0.0
C1078 C 0.65741 0.54918 0.1184 0.0
H1079 H 0.72457 0.62143 0.09881 0.0
H1080 H 0.67595 0.57346 0.08102 0.0
S1081 S 0.66415 0.54449 0.19065 0.0
N1082 N 0.69702 0.57964 0.18231 0.0
N1083 N 0.64407 0.52836 0.16306 0.0
C1084 C 0.66395 0.55177 0.14548 0.0
C1085 C 0.69289 0.57948 0.1559 0.0
C1086 C 0.70635 0.41451 0.39485 0.0
C1087 C 0.7116 0.40974 0.36775 0.0
C1088 C 0.6788 0.44276 0.405 0.0
C1089 C 0.65472 0.46673 0.38846 0.0
H1090 H 0.72395 0.39658 0.40837 0.0
H1091 H 0.67596 0.44538 0.426 0.0
S1092 S 0.65647 0.46565 0.316 0.0
N1093 N 0.69037 0.43162 0.32454 0.0
N1094 N 0.6381 0.48377 0.34358 0.0
C1095 C 0.65947 0.46205 0.36133 0.0
C1096 C 0.68804 0.43386 0.351 0.0
C1097 C 0.84809 0.45771 0.64371 0.0
C1098 C 0.85274 0.46314 0.61663 0.0
C1099 C 0.81995 0.43006 0.65382 0.0
C1100 C 0.79594 0.40606 0.63725 0.0
H1101 H 0.86606 0.47523 0.65726 0.0
H1102 H 0.81746 0.42706 0.67482 0.0
S1103 S 0.79663 0.40827 0.56481 0.0
N1104 N 0.83069 0.44213 0.57338 0.0
N1105 N 0.77865 0.38971 0.59237 0.0
C1106 C 0.80045 0.411 0.61013 0.0
C1107 C 0.82857 0.43964 0.59984 0.0
C1108 C 0.18146 0.44134 0.10209 0.0
C1109 C 0.1577 0.46569 0.11858 0.0
C1110 C 0.20913 0.4133 0.1123 0.0
C1111 C 0.21486 0.40913 0.13941 0.0
H1112 H 0.17823 0.44349 0.08109 0.0
H1113 H 0.22644 0.39502 0.09881 0.0
S1114 S 0.16083 0.46646 0.19101 0.0
N1115 N 0.14196 0.48392 0.1634 0.0
N1116 N 0.19448 0.43212 0.18256 0.0
C1117 C 0.19165 0.4337 0.1561 0.0
C1118 C 0.16294 0.46169 0.14571 0.0
C1119 C 0.34856 0.45827 0.86154 0.0
C1120 C 0.3534 0.46326 0.88865 0.0
C1121 C 0.32036 0.43072 0.85131 0.0
C1122 C 0.29654 0.40637 0.86778 0.0
H1123 H 0.36636 0.47612 0.84807 0.0
H1124 H 0.31765 0.42809 0.8303 0.0
S1125 S 0.29801 0.40727 0.94025 0.0
N1126 N 0.33185 0.44141 0.9318 0.0
N1127 N 0.27981 0.38915 0.91263 0.0
C1128 C 0.30135 0.41083 0.89493 0.0
C1129 C 0.32947 0.43939 0.90533 0.0
C1130 C 0.33082 0.57113 0.60391 0.0
C1131 C 0.35387 0.54623 0.62048 0.0
C1132 C 0.30316 0.59929 0.614 0.0
C1133 C 0.29677 0.6031 0.64107 0.0
H1134 H 0.33458 0.56933 0.58293 0.0
H1135 H 0.2864 0.61795 0.60045 0.0
S1136 S 0.34874 0.54425 0.69285 0.0
N1137 N 0.36817 0.52706 0.66533 0.0
N1138 N 0.31572 0.57912 0.68427 0.0
C1139 C 0.31926 0.57799 0.65784 0.0
C1140 C 0.34793 0.54983 0.64757 0.0
C1141 C 0.17925 0.57283 0.40342 0.0
C1142 C 0.15493 0.54915 0.38685 0.0
C1143 C 0.20679 0.60109 0.39333 0.0
C1144 C 0.21183 0.60615 0.36624 0.0
H1145 H 0.17664 0.56992 0.42442 0.0
H1146 H 0.22461 0.61875 0.40688 0.0
S1147 S 0.15584 0.5513 0.3144 0.0
N1148 N 0.13768 0.53285 0.34195 0.0
N1149 N 0.19 0.58504 0.32299 0.0
C1150 C 0.18795 0.58241 0.34944 0.0
C1151 C 0.15936 0.55421 0.35973 0.0
loop_
_geom_bond_atom_site_label_1
_geom_bond_atom_site_label_2
_geom_bond_distance
_geom_bond_site_symmetry_2
_ccdc_geom_bond_type
Co0 O1 2.216 . S
Co0 O2 2.091 . S
Co0 O4 2.004 . S
Co0 O10 2.021 . S
Co0 O12 2.137 . S
Co0 O13 2.244 . S
O1 Co0 2.216 . S
O1 C8 1.247 . S
O2 Co0 2.091 . S
O2 C8 1.261 . S
C3 O12 1.247 . S
C3 O13 1.272 . S
O4 Co0 2.004 . S
O4 C9 1.259 . S
Co5 O6 2.061 . S
Co5 O11 2.052 . S
Co5 O13 2.135 . S
O6 Co5 2.061 . S
O6 C9 1.235 . S
C7 O10 1.238 . S
C7 O11 1.241 . S
C8 O1 1.247 . S
C8 O2 1.261 . S
C9 O4 1.259 . S
C9 O6 1.235 . S
O10 Co0 2.021 . S
O10 C7 1.238 . S
O11 Co5 2.052 . S
O11 C7 1.241 . S
O12 Co0 2.137 . S
O12 C3 1.247 . S
O13 Co0 2.244 . S
O13 C3 1.272 . S
O13 Co5 2.135 . S
Co14 O15 2.216 1_565 S
Co14 O16 2.091 1_565 S
Co14 O18 2.007 1_455 S
Co14 O24 2.021 . S
Co14 O26 2.137 1_565 S
Co14 O27 2.244 . S
O15 Co14 2.216 1_545 S
O15 C22 1.247 . S
O16 Co14 2.091 1_545 S
O16 C22 1.261 . S
C17 O26 1.247 1_565 S
C17 O27 1.272 . S
O18 Co14 2.007 1_655 S
O18 C23 1.258 . S
Co19 O20 2.061 1_455 S
Co19 O25 2.052 . S
Co19 O27 2.135 . S
O20 Co19 2.061 1_655 S
O20 C23 1.235 . S
C21 O24 1.238 . S
C21 O25 1.241 . S
C22 O15 1.247 . S
C22 O16 1.261 . S
C23 O18 1.258 . S
C23 O20 1.235 . S
O24 Co14 2.021 . S
O24 C21 1.238 . S
O25 Co19 2.052 . S
O25 C21 1.241 . S
O26 Co14 2.137 1_545 S
O26 C17 1.247 1_545 S
O27 Co14 2.244 . S
O27 C17 1.272 . S
O27 Co19 2.135 . S
Co28 O29 2.216 . S
Co28 O30 2.091 . S
Co28 O32 2.004 . S
Co28 O38 2.021 . S
Co28 O40 2.137 . S
Co28 O41 2.244 . S
O29 Co28 2.216 . S
O29 C36 1.247 . S
O30 Co28 2.091 . S
O30 C36 1.261 . S
C31 O40 1.247 . S
C31 O41 1.272 . S
O32 Co28 2.004 . S
O32 C37 1.259 . S
Co33 O34 2.061 . S
Co33 O39 2.052 . S
Co33 O41 2.135 . S
O34 Co33 2.061 . S
O34 C37 1.235 . S
C35 O38 1.238 . S
C35 O39 1.241 . S
C36 O29 1.247 . S
C36 O30 1.261 . S
C37 O32 1.259 . S
C37 O34 1.235 . S
O38 Co28 2.021 . S
O38 C35 1.238 . S
O39 Co33 2.052 . S
O39 C35 1.241 . S
O40 Co28 2.137 . S
O40 C31 1.247 . S
O41 Co28 2.244 . S
O41 C31 1.272 . S
O41 Co33 2.135 . S
Co42 O43 2.216 1_545 S
Co42 O44 2.091 1_545 S
Co42 O46 2.004 . S
Co42 O52 2.021 . S
Co42 O54 2.137 1_545 S
Co42 O55 2.244 . S
O43 Co42 2.216 1_565 S
O43 C50 1.247 . S
O44 Co42 2.091 1_565 S
O44 C50 1.261 . S
C45 O54 1.247 1_545 S
C45 O55 1.272 . S
O46 Co42 2.004 . S
O46 C51 1.259 . S
Co47 O48 2.061 . S
Co47 O53 2.052 . S
Co47 O55 2.135 . S
O48 Co47 2.061 . S
O48 C51 1.235 . S
C49 O52 1.238 . S
C49 O53 1.241 . S
C50 O43 1.247 . S
C50 O44 1.261 . S
C51 O46 1.259 . S
C51 O48 1.235 . S
O52 Co42 2.021 . S
O52 C49 1.238 . S
O53 Co47 2.052 . S
O53 C49 1.241 . S
O54 Co42 2.137 1_565 S
O54 C45 1.247 1_565 S
O55 Co42 2.244 . S
O55 C45 1.272 . S
O55 Co47 2.135 . S
Co56 O57 2.216 . S
Co56 O58 2.091 . S
Co56 O60 2.004 . S
Co56 O66 2.021 . S
Co56 O68 2.137 . S
Co56 O69 2.244 . S
O57 Co56 2.216 . S
O57 C64 1.247 . S
O58 Co56 2.091 . S
O58 C64 1.261 . S
C59 O68 1.247 . S
C59 O69 1.272 . S
O60 Co56 2.004 . S
O60 C65 1.259 . S
Co61 O62 2.061 . S
Co61 O67 2.052 . S
Co61 O69 2.135 . S
O62 Co61 2.061 . S
O62 C65 1.235 . S
C63 O66 1.238 . S
C63 O67 1.241 . S
C64 O57 1.247 . S
C64 O58 1.261 . S
C65 O60 1.259 . S
C65 O62 1.235 . S
O66 Co56 2.021 . S
O66 C63 1.238 . S
O67 Co61 2.052 . S
O67 C63 1.241 . S
O68 Co56 2.137 . S
O68 C59 1.247 . S
O69 Co56 2.244 . S
O69 C59 1.272 . S
O69 Co61 2.135 . S
Co70 O71 2.216 1_565 S
Co70 O72 2.091 1_565 S
Co70 O74 2.004 . S
Co70 O80 2.021 . S
Co70 O82 2.137 1_565 S
Co70 O83 2.244 . S
O71 Co70 2.216 1_545 S
O71 C78 1.247 . S
O72 Co70 2.091 1_545 S
O72 C78 1.261 . S
C73 O82 1.247 1_565 S
C73 O83 1.272 . S
O74 Co70 2.004 . S
O74 C79 1.259 . S
Co75 O76 2.061 . S
Co75 O81 2.052 . S
Co75 O83 2.135 . S
O76 Co75 2.061 . S
O76 C79 1.235 . S
C77 O80 1.238 . S
C77 O81 1.241 . S
C78 O71 1.247 . S
C78 O72 1.261 . S
C79 O74 1.259 . S
C79 O76 1.235 . S
O80 Co70 2.021 . S
O80 C77 1.238 . S
O81 Co75 2.052 . S
O81 C77 1.241 . S
O82 Co70 2.137 1_545 S
O82 C73 1.247 1_545 S
O83 Co70 2.244 . S
O83 C73 1.272 . S
O83 Co75 2.135 . S
Co84 O85 2.216 . S
Co84 O86 2.091 . S
Co84 O88 2.004 . S
Co84 O94 2.021 . S
Co84 O96 2.137 . S
Co84 O97 2.244 . S
O85 Co84 2.216 . S
O85 C92 1.247 . S
O86 Co84 2.091 . S
O86 C92 1.261 . S
C87 O96 1.247 . S
C87 O97 1.272 . S
O88 Co84 2.004 . S
O88 C93 1.259 . S
Co89 O90 2.061 . S
Co89 O95 2.052 . S
Co89 O97 2.135 . S
O90 Co89 2.061 . S
O90 C93 1.235 . S
C91 O94 1.238 . S
C91 O95 1.241 . S
C92 O85 1.247 . S
C92 O86 1.261 . S
C93 O88 1.259 . S
C93 O90 1.235 . S
O94 Co84 2.021 . S
O94 C91 1.238 . S
O95 Co89 2.052 . S
O95 C91 1.241 . S
O96 Co84 2.137 . S
O96 C87 1.247 . S
O97 Co84 2.244 . S
O97 C87 1.272 . S
O97 Co89 2.135 . S
Co98 O99 2.216 1_545 S
Co98 O100 2.091 1_545 S
Co98 O102 2.007 1_455 S
Co98 O108 2.021 . S
Co98 O110 2.137 1_545 S
Co98 O111 2.244 . S
O99 Co98 2.216 1_565 S
O99 C106 1.247 . S
O100 Co98 2.091 1_565 S
O100 C106 1.261 . S
C101 O110 1.247 1_545 S
C101 O111 1.272 . S
O102 Co98 2.007 1_655 S
O102 C107 1.258 . S
Co103 O104 2.061 1_455 S
Co103 O109 2.052 . S
Co103 O111 2.135 . S
O104 Co103 2.061 1_655 S
O104 C107 1.235 . S
C105 O108 1.238 . S
C105 O109 1.241 . S
C106 O99 1.247 . S
C106 O100 1.261 . S
C107 O102 1.258 . S
C107 O104 1.235 . S
O108 Co98 2.021 . S
O108 C105 1.238 . S
O109 Co103 2.052 . S
O109 C105 1.241 . S
O110 Co98 2.137 1_565 S
O110 C101 1.247 1_565 S
O111 Co98 2.244 . S
O111 C101 1.272 . S
O111 Co103 2.135 . S
Co112 O113 2.216 . S
Co112 O114 2.091 . S
Co112 O116 2.004 . S
Co112 O122 2.021 . S
Co112 O124 2.137 . S
Co112 O125 2.244 . S
O113 Co112 2.216 . S
O113 C120 1.247 . S
O114 Co112 2.091 . S
O114 C120 1.261 . S
C115 O124 1.247 . S
C115 O125 1.272 . S
O116 Co112 2.004 . S
O116 C121 1.259 . S
Co117 O118 2.061 . S
Co117 O123 2.052 . S
Co117 O125 2.135 . S
O118 Co117 2.061 . S
O118 C121 1.235 . S
C119 O122 1.238 . S
C119 O123 1.241 . S
C120 O113 1.247 . S
C120 O114 1.261 . S
C121 O116 1.259 . S
C121 O118 1.235 . S
O122 Co112 2.021 . S
O122 C119 1.238 . S
O123 Co117 2.052 . S
O123 C119 1.241 . S
O124 Co112 2.137 . S
O124 C115 1.247 . S
O125 Co112 2.244 . S
O125 C115 1.272 . S
O125 Co117 2.135 . S
Co126 O127 2.216 1_545 S
Co126 O128 2.091 1_545 S
Co126 O130 2.007 1_655 S
Co126 O136 2.021 . S
Co126 O138 2.137 1_545 S
Co126 O139 2.244 . S
O127 Co126 2.216 1_565 S
O127 C134 1.247 . S
O128 Co126 2.091 1_565 S
O128 C134 1.261 . S
C129 O138 1.247 1_545 S
C129 O139 1.272 . S
O130 Co126 2.007 1_455 S
O130 C135 1.258 . S
Co131 O132 2.061 1_655 S
Co131 O137 2.052 . S
Co131 O139 2.135 . S
O132 Co131 2.061 1_455 S
O132 C135 1.235 . S
C133 O136 1.238 . S
C133 O137 1.241 . S
C134 O127 1.247 . S
C134 O128 1.261 . S
C135 O130 1.258 . S
C135 O132 1.235 . S
O136 Co126 2.021 . S
O136 C133 1.238 . S
O137 Co131 2.052 . S
O137 C133 1.241 . S
O138 Co126 2.137 1_565 S
O138 C129 1.247 1_565 S
O139 Co126 2.244 . S
O139 C129 1.272 . S
O139 Co131 2.135 . S
Co140 O141 2.216 . S
Co140 O142 2.091 . S
Co140 O144 2.004 . S
Co140 O150 2.021 . S
Co140 O152 2.137 . S
Co140 O153 2.244 . S
O141 Co140 2.216 . S
O141 C148 1.247 . S
O142 Co140 2.091 . S
O142 C148 1.261 . S
C143 O152 1.247 . S
C143 O153 1.272 . S
O144 Co140 2.004 . S
O144 C149 1.259 . S
Co145 O146 2.061 . S
Co145 O151 2.052 . S
Co145 O153 2.135 . S
O146 Co145 2.061 . S
O146 C149 1.235 . S
C147 O150 1.238 . S
C147 O151 1.241 . S
C148 O141 1.247 . S
C148 O142 1.261 . S
C149 O144 1.259 . S
C149 O146 1.235 . S
O150 Co140 2.021 . S
O150 C147 1.238 . S
O151 Co145 2.052 . S
O151 C147 1.241 . S
O152 Co140 2.137 . S
O152 C143 1.247 . S
O153 Co140 2.244 . S
O153 C143 1.272 . S
O153 Co145 2.135 . S
Co154 O155 2.216 1_565 S
Co154 O156 2.091 1_565 S
Co154 O158 2.004 . S
Co154 O164 2.021 . S
Co154 O166 2.137 1_565 S
Co154 O167 2.244 . S
O155 Co154 2.216 1_545 S
O155 C162 1.247 . S
O156 Co154 2.091 1_545 S
O156 C162 1.261 . S
C157 O166 1.247 1_565 S
C157 O167 1.272 . S
O158 Co154 2.004 . S
O158 C163 1.259 . S
Co159 O160 2.061 . S
Co159 O165 2.052 . S
Co159 O167 2.135 . S
O160 Co159 2.061 . S
O160 C163 1.235 . S
C161 O164 1.238 . S
C161 O165 1.241 . S
C162 O155 1.247 . S
C162 O156 1.261 . S
C163 O158 1.259 . S
C163 O160 1.235 . S
O164 Co154 2.021 . S
O164 C161 1.238 . S
O165 Co159 2.052 . S
O165 C161 1.241 . S
O166 Co154 2.137 1_545 S
O166 C157 1.247 1_545 S
O167 Co154 2.244 . S
O167 C157 1.272 . S
O167 Co159 2.135 . S
Co168 O169 2.216 . S
Co168 O170 2.091 . S
Co168 O172 2.004 . S
Co168 O178 2.021 . S
Co168 O180 2.137 . S
Co168 O181 2.244 . S
O169 Co168 2.216 . S
O169 C176 1.247 . S
O170 Co168 2.091 . S
O170 C176 1.261 . S
C171 O180 1.247 . S
C171 O181 1.272 . S
O172 Co168 2.004 . S
O172 C177 1.259 . S
Co173 O174 2.061 . S
Co173 O179 2.052 . S
Co173 O181 2.135 . S
O174 Co173 2.061 . S
O174 C177 1.235 . S
C175 O178 1.238 . S
C175 O179 1.241 . S
C176 O169 1.247 . S
C176 O170 1.261 . S
C177 O172 1.259 . S
C177 O174 1.235 . S
O178 Co168 2.021 . S
O178 C175 1.238 . S
O179 Co173 2.052 . S
O179 C175 1.241 . S
O180 Co168 2.137 . S
O180 C171 1.247 . S
O181 Co168 2.244 . S
O181 C171 1.272 . S
O181 Co173 2.135 . S
Co182 O183 2.216 1_545 S
Co182 O184 2.091 1_545 S
Co182 O186 2.004 . S
Co182 O192 2.021 . S
Co182 O194 2.137 1_545 S
Co182 O195 2.244 . S
O183 Co182 2.216 1_565 S
O183 C190 1.247 . S
O184 Co182 2.091 1_565 S
O184 C190 1.261 . S
C185 O194 1.247 1_545 S
C185 O195 1.272 . S
O186 Co182 2.004 . S
O186 C191 1.259 . S
Co187 O188 2.061 . S
Co187 O193 2.052 . S
Co187 O195 2.135 . S
O188 Co187 2.061 . S
O188 C191 1.235 . S
C189 O192 1.238 . S
C189 O193 1.241 . S
C190 O183 1.247 . S
C190 O184 1.261 . S
C191 O186 1.259 . S
C191 O188 1.235 . S
O192 Co182 2.021 . S
O192 C189 1.238 . S
O193 Co187 2.052 . S
O193 C189 1.241 . S
O194 Co182 2.137 1_565 S
O194 C185 1.247 1_565 S
O195 Co182 2.244 . S
O195 C185 1.272 . S
O195 Co187 2.135 . S
Co196 O197 2.216 . S
Co196 O198 2.091 . S
Co196 O200 2.004 . S
Co196 O206 2.021 . S
Co196 O208 2.137 . S
Co196 O209 2.244 . S
O197 Co196 2.216 . S
O197 C204 1.247 . S
O198 Co196 2.091 . S
O198 C204 1.261 . S
C199 O208 1.247 . S
C199 O209 1.272 . S
O200 Co196 2.004 . S
O200 C205 1.259 . S
Co201 O202 2.061 . S
Co201 O207 2.052 . S
Co201 O209 2.135 . S
O202 Co201 2.061 . S
O202 C205 1.235 . S
C203 O206 1.238 . S
C203 O207 1.241 . S
C204 O197 1.247 . S
C204 O198 1.261 . S
C205 O200 1.259 . S
C205 O202 1.235 . S
O206 Co196 2.021 . S
O206 C203 1.238 . S
O207 Co201 2.052 . S
O207 C203 1.241 . S
O208 Co196 2.137 . S
O208 C199 1.247 . S
O209 Co196 2.244 . S
O209 C199 1.272 . S
O209 Co201 2.135 . S
Co210 O211 2.216 1_565 S
Co210 O212 2.091 1_565 S
Co210 O214 2.007 1_655 S
Co210 O220 2.021 . S
Co210 O222 2.137 1_565 S
Co210 O223 2.244 . S
O211 Co210 2.216 1_545 S
O211 C218 1.247 . S
O212 Co210 2.091 1_545 S
O212 C218 1.261 . S
C213 O222 1.247 1_565 S
C213 O223 1.272 . S
O214 Co210 2.007 1_455 S
O214 C219 1.258 . S
Co215 O216 2.061 1_655 S
Co215 O221 2.052 . S
Co215 O223 2.135 . S
O216 Co215 2.061 1_455 S
O216 C219 1.235 . S
C217 O220 1.238 . S
C217 O221 1.241 . S
C218 O211 1.247 . S
C218 O212 1.261 . S
C219 O214 1.258 . S
C219 O216 1.235 . S
O220 Co210 2.021 . S
O220 C217 1.238 . S
O221 Co215 2.052 . S
O221 C217 1.241 . S
O222 Co210 2.137 1_545 S
O222 C213 1.247 1_545 S
O223 Co210 2.244 . S
O223 C213 1.272 . S
O223 Co215 2.135 . S
Co224 O225 2.216 . S
Co224 O226 2.091 . S
Co224 O228 2.004 . S
Co224 O234 2.021 . S
Co224 O236 2.137 . S
Co224 O237 2.244 . S
O225 Co224 2.216 . S
O225 C232 1.247 . S
O226 Co224 2.091 . S
O226 C232 1.261 . S
C227 O236 1.247 . S
C227 O237 1.272 . S
O228 Co224 2.004 . S
O228 C233 1.259 . S
Co229 O230 2.061 . S
Co229 O235 2.052 . S
Co229 O237 2.135 . S
O230 Co229 2.061 . S
O230 C233 1.235 . S
C231 O234 1.238 . S
C231 O235 1.241 . S
C232 O225 1.247 . S
C232 O226 1.261 . S
C233 O228 1.259 . S
C233 O230 1.235 . S
O234 Co224 2.021 . S
O234 C231 1.238 . S
O235 Co229 2.052 . S
O235 C231 1.241 . S
O236 Co224 2.137 . S
O236 C227 1.247 . S
O237 Co224 2.244 . S
O237 C227 1.272 . S
O237 Co229 2.135 . S
Co238 O239 2.216 . S
Co238 O240 2.091 . S
Co238 O242 2.004 . S
Co238 O248 2.021 . S
Co238 O250 2.137 . S
Co238 O251 2.244 . S
O239 Co238 2.216 . S
O239 C246 1.247 . S
O240 Co238 2.091 . S
O240 C246 1.261 . S
C241 O250 1.247 . S
C241 O251 1.272 . S
O242 Co238 2.004 . S
O242 C247 1.259 . S
Co243 O244 2.061 . S
Co243 O249 2.052 . S
Co243 O251 2.135 . S
O244 Co243 2.061 . S
O244 C247 1.235 . S
C245 O248 1.238 . S
C245 O249 1.241 . S
C246 O239 1.247 . S
C246 O240 1.261 . S
C247 O242 1.259 . S
C247 O244 1.235 . S
O248 Co238 2.021 . S
O248 C245 1.238 . S
O249 Co243 2.052 . S
O249 C245 1.241 . S
O250 Co238 2.137 . S
O250 C241 1.247 . S
O251 Co238 2.244 . S
O251 C241 1.272 . S
O251 Co243 2.135 . S
Co252 O253 2.216 . S
Co252 O254 2.091 . S
Co252 O256 2.004 . S
Co252 O262 2.021 . S
Co252 O264 2.137 . S
Co252 O265 2.244 . S
O253 Co252 2.216 . S
O253 C260 1.247 . S
O254 Co252 2.091 . S
O254 C260 1.261 . S
C255 O264 1.247 . S
C255 O265 1.272 . S
O256 Co252 2.004 . S
O256 C261 1.259 . S
Co257 O258 2.061 . S
Co257 O263 2.052 . S
Co257 O265 2.135 . S
O258 Co257 2.061 . S
O258 C261 1.235 . S
C259 O262 1.238 . S
C259 O263 1.241 . S
C260 O253 1.247 . S
C260 O254 1.261 . S
C261 O256 1.259 . S
C261 O258 1.235 . S
O262 Co252 2.021 . S
O262 C259 1.238 . S
O263 Co257 2.052 . S
O263 C259 1.241 . S
O264 Co252 2.137 . S
O264 C255 1.247 . S
O265 Co252 2.244 . S
O265 C255 1.272 . S
O265 Co257 2.135 . S
Co266 O267 2.216 . S
Co266 O268 2.091 . S
Co266 O270 2.007 1_655 S
Co266 O276 2.021 . S
Co266 O278 2.137 . S
Co266 O279 2.244 . S
O267 Co266 2.216 . S
O267 C274 1.247 . S
O268 Co266 2.091 . S
O268 C274 1.261 . S
C269 O278 1.247 . S
C269 O279 1.272 . S
O270 Co266 2.007 1_455 S
O270 C275 1.258 . S
Co271 O272 2.061 1_655 S
Co271 O277 2.052 . S
Co271 O279 2.135 . S
O272 Co271 2.061 1_455 S
O272 C275 1.235 . S
C273 O276 1.238 . S
C273 O277 1.241 . S
C274 O267 1.247 . S
C274 O268 1.261 . S
C275 O270 1.258 . S
C275 O272 1.235 . S
O276 Co266 2.021 . S
O276 C273 1.238 . S
O277 Co271 2.052 . S
O277 C273 1.241 . S
O278 Co266 2.137 . S
O278 C269 1.247 . S
O279 Co266 2.244 . S
O279 C269 1.272 . S
O279 Co271 2.135 . S
Co280 O281 2.216 . S
Co280 O282 2.091 . S
Co280 O284 2.004 . S
Co280 O290 2.021 . S
Co280 O292 2.137 . S
Co280 O293 2.244 . S
O281 Co280 2.216 . S
O281 C288 1.247 . S
O282 Co280 2.091 . S
O282 C288 1.261 . S
C283 O292 1.247 . S
C283 O293 1.272 . S
O284 Co280 2.004 . S
O284 C289 1.259 . S
Co285 O286 2.061 . S
Co285 O291 2.052 . S
Co285 O293 2.135 . S
O286 Co285 2.061 . S
O286 C289 1.235 . S
C287 O290 1.238 . S
C287 O291 1.241 . S
C288 O281 1.247 . S
C288 O282 1.261 . S
C289 O284 1.259 . S
C289 O286 1.235 . S
O290 Co280 2.021 . S
O290 C287 1.238 . S
O291 Co285 2.052 . S
O291 C287 1.241 . S
O292 Co280 2.137 . S
O292 C283 1.247 . S
O293 Co280 2.244 . S
O293 C283 1.272 . S
O293 Co285 2.135 . S
Co294 O295 2.216 . S
Co294 O296 2.091 . S
Co294 O298 2.007 1_655 S
Co294 O304 2.021 . S
Co294 O306 2.137 . S
Co294 O307 2.244 . S
O295 Co294 2.216 . S
O295 C302 1.247 . S
O296 Co294 2.091 . S
O296 C302 1.261 . S
C297 O306 1.247 . S
C297 O307 1.272 . S
O298 Co294 2.007 1_455 S
O298 C303 1.258 . S
Co299 O300 2.061 1_655 S
Co299 O305 2.052 . S
Co299 O307 2.135 . S
O300 Co299 2.061 1_455 S
O300 C303 1.235 . S
C301 O304 1.238 . S
C301 O305 1.241 . S
C302 O295 1.247 . S
C302 O296 1.261 . S
C303 O298 1.258 . S
C303 O300 1.235 . S
O304 Co294 2.021 . S
O304 C301 1.238 . S
O305 Co299 2.052 . S
O305 C301 1.241 . S
O306 Co294 2.137 . S
O306 C297 1.247 . S
O307 Co294 2.244 . S
O307 C297 1.272 . S
O307 Co299 2.135 . S
Co308 O309 2.216 . S
Co308 O310 2.091 . S
Co308 O312 2.004 . S
Co308 O318 2.021 . S
Co308 O320 2.137 . S
Co308 O321 2.244 . S
O309 Co308 2.216 . S
O309 C316 1.247 . S
O310 Co308 2.091 . S
O310 C316 1.261 . S
C311 O320 1.247 . S
C311 O321 1.272 . S
O312 Co308 2.004 . S
O312 C317 1.259 . S
Co313 O314 2.061 . S
Co313 O319 2.052 . S
Co313 O321 2.135 . S
O314 Co313 2.061 . S
O314 C317 1.235 . S
C315 O318 1.238 . S
C315 O319 1.241 . S
C316 O309 1.247 . S
C316 O310 1.261 . S
C317 O312 1.259 . S
C317 O314 1.235 . S
O318 Co308 2.021 . S
O318 C315 1.238 . S
O319 Co313 2.052 . S
O319 C315 1.241 . S
O320 Co308 2.137 . S
O320 C311 1.247 . S
O321 Co308 2.244 . S
O321 C311 1.272 . S
O321 Co313 2.135 . S
Co322 O323 2.216 . S
Co322 O324 2.091 . S
Co322 O326 2.004 . S
Co322 O332 2.021 . S
Co322 O334 2.137 . S
Co322 O335 2.244 . S
O323 Co322 2.216 . S
O323 C330 1.247 . S
O324 Co322 2.091 . S
O324 C330 1.261 . S
C325 O334 1.247 . S
C325 O335 1.272 . S
O326 Co322 2.004 . S
O326 C331 1.259 . S
Co327 O328 2.061 . S
Co327 O333 2.052 . S
Co327 O335 2.135 . S
O328 Co327 2.061 . S
O328 C331 1.235 . S
C329 O332 1.238 . S
C329 O333 1.241 . S
C330 O323 1.247 . S
C330 O324 1.261 . S
C331 O326 1.259 . S
C331 O328 1.235 . S
O332 Co322 2.021 . S
O332 C329 1.238 . S
O333 Co327 2.052 . S
O333 C329 1.241 . S
O334 Co322 2.137 . S
O334 C325 1.247 . S
O335 Co322 2.244 . S
O335 C325 1.272 . S
O335 Co327 2.135 . S
Co336 O337 2.216 . S
Co336 O338 2.091 . S
Co336 O340 2.004 . S
Co336 O346 2.021 . S
Co336 O348 2.137 . S
Co336 O349 2.244 . S
O337 Co336 2.216 . S
O337 C344 1.247 . S
O338 Co336 2.091 . S
O338 C344 1.261 . S
C339 O348 1.247 . S
C339 O349 1.272 . S
O340 Co336 2.004 . S
O340 C345 1.259 . S
Co341 O342 2.061 . S
Co341 O347 2.052 . S
Co341 O349 2.135 . S
O342 Co341 2.061 . S
O342 C345 1.235 . S
C343 O346 1.238 . S
C343 O347 1.241 . S
C344 O337 1.247 . S
C344 O338 1.261 . S
C345 O340 1.259 . S
C345 O342 1.235 . S
O346 Co336 2.021 . S
O346 C343 1.238 . S
O347 Co341 2.052 . S
O347 C343 1.241 . S
O348 Co336 2.137 . S
O348 C339 1.247 . S
O349 Co336 2.244 . S
O349 C339 1.272 . S
O349 Co341 2.135 . S
Co350 O351 2.216 . S
Co350 O352 2.091 . S
Co350 O354 2.004 . S
Co350 O360 2.021 . S
Co350 O362 2.137 . S
Co350 O363 2.244 . S
O351 Co350 2.216 . S
O351 C358 1.247 . S
O352 Co350 2.091 . S
O352 C358 1.261 . S
C353 O362 1.247 . S
C353 O363 1.272 . S
O354 Co350 2.004 . S
O354 C359 1.259 . S
Co355 O356 2.061 . S
Co355 O361 2.052 . S
Co355 O363 2.135 . S
O356 Co355 2.061 . S
O356 C359 1.235 . S
C357 O360 1.238 . S
C357 O361 1.241 . S
C358 O351 1.247 . S
C358 O352 1.261 . S
C359 O354 1.259 . S
C359 O356 1.235 . S
O360 Co350 2.021 . S
O360 C357 1.238 . S
O361 Co355 2.052 . S
O361 C357 1.241 . S
O362 Co350 2.137 . S
O362 C353 1.247 . S
O363 Co350 2.244 . S
O363 C353 1.272 . S
O363 Co355 2.135 . S
Co364 O365 2.216 . S
Co364 O366 2.091 . S
Co364 O368 2.004 . S
Co364 O374 2.021 . S
Co364 O376 2.137 . S
Co364 O377 2.244 . S
O365 Co364 2.216 . S
O365 C372 1.247 . S
O366 Co364 2.091 . S
O366 C372 1.261 . S
C367 O376 1.247 . S
C367 O377 1.272 . S
O368 Co364 2.004 . S
O368 C373 1.259 . S
Co369 O370 2.061 . S
Co369 O375 2.052 . S
Co369 O377 2.135 . S
O370 Co369 2.061 . S
O370 C373 1.235 . S
C371 O374 1.238 . S
C371 O375 1.241 . S
C372 O365 1.247 . S
C372 O366 1.261 . S
C373 O368 1.259 . S
C373 O370 1.235 . S
O374 Co364 2.021 . S
O374 C371 1.238 . S
O375 Co369 2.052 . S
O375 C371 1.241 . S
O376 Co364 2.137 . S
O376 C367 1.247 . S
O377 Co364 2.244 . S
O377 C367 1.272 . S
O377 Co369 2.135 . S
Co378 O379 2.216 . S
Co378 O380 2.091 . S
Co378 O382 2.007 1_455 S
Co378 O388 2.021 . S
Co378 O390 2.137 . S
Co378 O391 2.244 . S
O379 Co378 2.216 . S
O379 C386 1.247 . S
O380 Co378 2.091 . S
O380 C386 1.261 . S
C381 O390 1.247 . S
C381 O391 1.272 . S
O382 Co378 2.007 1_655 S
O382 C387 1.258 . S
Co383 O384 2.061 1_455 S
Co383 O389 2.052 . S
Co383 O391 2.135 . S
O384 Co383 2.061 1_655 S
O384 C387 1.235 . S
C385 O388 1.238 . S
C385 O389 1.241 . S
C386 O379 1.247 . S
C386 O380 1.261 . S
C387 O382 1.258 . S
C387 O384 1.235 . S
O388 Co378 2.021 . S
O388 C385 1.238 . S
O389 Co383 2.052 . S
O389 C385 1.241 . S
O390 Co378 2.137 . S
O390 C381 1.247 . S
O391 Co378 2.244 . S
O391 C381 1.272 . S
O391 Co383 2.135 . S
Co392 O393 2.216 . S
Co392 O394 2.091 . S
Co392 O396 2.004 . S
Co392 O402 2.021 . S
Co392 O404 2.137 . S
Co392 O405 2.244 . S
O393 Co392 2.216 . S
O393 C400 1.247 . S
O394 Co392 2.091 . S
O394 C400 1.261 . S
C395 O404 1.247 . S
C395 O405 1.272 . S
O396 Co392 2.004 . S
O396 C401 1.259 . S
Co397 O398 2.061 . S
Co397 O403 2.052 . S
Co397 O405 2.135 . S
O398 Co397 2.061 . S
O398 C401 1.235 . S
C399 O402 1.238 . S
C399 O403 1.241 . S
C400 O393 1.247 . S
C400 O394 1.261 . S
C401 O396 1.259 . S
C401 O398 1.235 . S
O402 Co392 2.021 . S
O402 C399 1.238 . S
O403 Co397 2.052 . S
O403 C399 1.241 . S
O404 Co392 2.137 . S
O404 C395 1.247 . S
O405 Co392 2.244 . S
O405 C395 1.272 . S
O405 Co397 2.135 . S
Co406 O407 2.216 . S
Co406 O408 2.091 . S
Co406 O410 2.007 1_455 S
Co406 O416 2.021 . S
Co406 O418 2.137 . S
Co406 O419 2.244 . S
O407 Co406 2.216 . S
O407 C414 1.247 . S
O408 Co406 2.091 . S
O408 C414 1.261 . S
C409 O418 1.247 . S
C409 O419 1.272 . S
O410 Co406 2.007 1_655 S
O410 C415 1.258 . S
Co411 O412 2.061 1_455 S
Co411 O417 2.052 . S
Co411 O419 2.135 . S
O412 Co411 2.061 1_655 S
O412 C415 1.235 . S
C413 O416 1.238 . S
C413 O417 1.241 . S
C414 O407 1.247 . S
C414 O408 1.261 . S
C415 O410 1.258 . S
C415 O412 1.235 . S
O416 Co406 2.021 . S
O416 C413 1.238 . S
O417 Co411 2.052 . S
O417 C413 1.241 . S
O418 Co406 2.137 . S
O418 C409 1.247 . S
O419 Co406 2.244 . S
O419 C409 1.272 . S
O419 Co411 2.135 . S
Co420 O421 2.216 . S
Co420 O422 2.091 . S
Co420 O424 2.004 . S
Co420 O430 2.021 . S
Co420 O432 2.137 . S
Co420 O433 2.244 . S
O421 Co420 2.216 . S
O421 C428 1.247 . S
O422 Co420 2.091 . S
O422 C428 1.261 . S
C423 O432 1.247 . S
C423 O433 1.272 . S
O424 Co420 2.004 . S
O424 C429 1.259 . S
Co425 O426 2.061 . S
Co425 O431 2.052 . S
Co425 O433 2.135 . S
O426 Co425 2.061 . S
O426 C429 1.235 . S
C427 O430 1.238 . S
C427 O431 1.241 . S
C428 O421 1.247 . S
C428 O422 1.261 . S
C429 O424 1.259 . S
C429 O426 1.235 . S
O430 Co420 2.021 . S
O430 C427 1.238 . S
O431 Co425 2.052 . S
O431 C427 1.241 . S
O432 Co420 2.137 . S
O432 C423 1.247 . S
O433 Co420 2.244 . S
O433 C423 1.272 . S
O433 Co425 2.135 . S
Co434 O435 2.216 . S
Co434 O436 2.091 . S
Co434 O438 2.004 . S
Co434 O444 2.021 . S
Co434 O446 2.137 . S
Co434 O447 2.244 . S
O435 Co434 2.216 . S
O435 C442 1.247 . S
O436 Co434 2.091 . S
O436 C442 1.261 . S
C437 O446 1.247 . S
C437 O447 1.272 . S
O438 Co434 2.004 . S
O438 C443 1.259 . S
Co439 O440 2.061 . S
Co439 O445 2.052 . S
Co439 O447 2.135 . S
O440 Co439 2.061 . S
O440 C443 1.235 . S
C441 O444 1.238 . S
C441 O445 1.241 . S
C442 O435 1.247 . S
C442 O436 1.261 . S
C443 O438 1.259 . S
C443 O440 1.235 . S
O444 Co434 2.021 . S
O444 C441 1.238 . S
O445 Co439 2.052 . S
O445 C441 1.241 . S
O446 Co434 2.137 . S
O446 C437 1.247 . S
O447 Co434 2.244 . S
O447 C437 1.272 . S
O447 Co439 2.135 . S
C448 C449 1.369 . S
C448 C450 1.419 . S
C448 H452 0.930 . S
C449 C448 1.369 . S
C449 C458 1.429 . S
C450 C448 1.419 . S
C450 C451 1.363 . S
C450 H453 0.929 . S
C451 C450 1.363 . S
C451 C457 1.428 . S
H452 C448 0.930 . S
H453 C450 0.929 . S
S454 N455 1.613 . S
S454 N456 1.610 . S
N455 S454 1.613 . S
N455 C458 1.350 . S
N456 S454 1.610 . S
N456 C457 1.351 . S
C457 C451 1.428 . S
C457 N456 1.351 . S
C457 C458 1.434 . S
C458 C449 1.429 . S
C458 N455 1.350 . S
C458 C457 1.434 . S
C459 C460 1.369 . S
C459 C461 1.419 . S
C459 H463 0.930 . S
C460 C459 1.369 . S
C460 C469 1.429 . S
C461 C459 1.419 . S
C461 C462 1.363 . S
C461 H464 0.929 . S
C462 C461 1.363 . S
C462 C468 1.428 . S
H463 C459 0.930 . S
H464 C461 0.929 . S
S465 N466 1.613 . S
S465 N467 1.610 . S
N466 S465 1.613 . S
N466 C469 1.350 . S
N467 S465 1.610 . S
N467 C468 1.351 . S
C468 C462 1.428 . S
C468 N467 1.351 . S
C468 C469 1.434 . S
C469 C460 1.429 . S
C469 N466 1.350 . S
C469 C468 1.434 . S
C470 C471 1.369 . S
C470 C472 1.419 . S
C470 H474 0.930 . S
C471 C470 1.369 . S
C471 C480 1.429 . S
C472 C470 1.419 . S
C472 C473 1.363 . S
C472 H475 0.929 . S
C473 C472 1.363 . S
C473 C479 1.428 . S
H474 C470 0.930 . S
H475 C472 0.929 . S
S476 N477 1.613 . S
S476 N478 1.610 . S
N477 S476 1.613 . S
N477 C480 1.350 . S
N478 S476 1.610 . S
N478 C479 1.351 . S
C479 C473 1.428 . S
C479 N478 1.351 . S
C479 C480 1.434 . S
C480 C471 1.429 . S
C480 N477 1.350 . S
C480 C479 1.434 . S
C481 C482 1.369 . S
C481 C483 1.419 . S
C481 H485 0.930 . S
C482 C481 1.369 . S
C482 C491 1.429 . S
C483 C481 1.419 . S
C483 C484 1.363 . S
C483 H486 0.929 . S
C484 C483 1.363 . S
C484 C490 1.428 . S
H485 C481 0.930 . S
H486 C483 0.929 . S
S487 N488 1.613 . S
S487 N489 1.610 . S
N488 S487 1.613 . S
N488 C491 1.350 . S
N489 S487 1.610 . S
N489 C490 1.351 . S
C490 C484 1.428 . S
C490 N489 1.351 . S
C490 C491 1.434 . S
C491 C482 1.429 . S
C491 N488 1.350 . S
C491 C490 1.434 . S
C492 C493 1.369 . S
C492 C494 1.419 . S
C492 H496 0.930 . S
C493 C492 1.369 . S
C493 C502 1.429 . S
C494 C492 1.419 . S
C494 C495 1.363 . S
C494 H497 0.929 . S
C495 C494 1.363 . S
C495 C501 1.428 . S
H496 C492 0.930 . S
H497 C494 0.929 . S
S498 N499 1.613 . S
S498 N500 1.610 . S
N499 S498 1.613 . S
N499 C502 1.350 . S
N500 S498 1.610 . S
N500 C501 1.351 . S
C501 C495 1.428 . S
C501 N500 1.351 . S
C501 C502 1.434 . S
C502 C493 1.429 . S
C502 N499 1.350 . S
C502 C501 1.434 . S
C503 C504 1.369 . S
C503 C505 1.419 . S
C503 H507 0.930 . S
C504 C503 1.369 . S
C504 C513 1.429 . S
C505 C503 1.419 . S
C505 C506 1.363 . S
C505 H508 0.929 . S
C506 C505 1.363 . S
C506 C512 1.428 . S
H507 C503 0.930 . S
H508 C505 0.929 . S
S509 N510 1.613 . S
S509 N511 1.610 . S
N510 S509 1.613 . S
N510 C513 1.350 . S
N511 S509 1.610 . S
N511 C512 1.351 . S
C512 C506 1.428 . S
C512 N511 1.351 . S
C512 C513 1.434 . S
C513 C504 1.429 . S
C513 N510 1.350 . S
C513 C512 1.434 . S
C514 C515 1.369 . S
C514 C516 1.419 . S
C514 H518 0.930 . S
C515 C514 1.369 . S
C515 C524 1.429 . S
C516 C514 1.419 . S
C516 C517 1.363 . S
C516 H519 0.929 . S
C517 C516 1.363 . S
C517 C523 1.428 . S
H518 C514 0.930 . S
H519 C516 0.929 . S
S520 N521 1.613 . S
S520 N522 1.610 . S
N521 S520 1.613 . S
N521 C524 1.350 . S
N522 S520 1.610 . S
N522 C523 1.351 . S
C523 C517 1.428 . S
C523 N522 1.351 . S
C523 C524 1.434 . S
C524 C515 1.429 . S
C524 N521 1.350 . S
C524 C523 1.434 . S
C525 C526 1.369 . S
C525 C527 1.419 . S
C525 H529 0.930 . S
C526 C525 1.369 . S
C526 C535 1.429 . S
C527 C525 1.419 . S
C527 C528 1.363 . S
C527 H530 0.929 . S
C528 C527 1.363 . S
C528 C534 1.428 . S
H529 C525 0.930 . S
H530 C527 0.929 . S
S531 N532 1.613 . S
S531 N533 1.610 . S
N532 S531 1.613 . S
N532 C535 1.350 . S
N533 S531 1.610 . S
N533 C534 1.351 . S
C534 C528 1.428 . S
C534 N533 1.351 . S
C534 C535 1.434 . S
C535 C526 1.429 . S
C535 N532 1.350 . S
C535 C534 1.434 . S
C536 C537 1.369 . S
C536 C538 1.419 . S
C536 H540 0.930 . S
C537 C536 1.369 . S
C537 C546 1.429 . S
C538 C536 1.419 . S
C538 C539 1.363 . S
C538 H541 0.929 . S
C539 C538 1.363 . S
C539 C545 1.428 . S
H540 C536 0.930 . S
H541 C538 0.929 . S
S542 N543 1.613 . S
S542 N544 1.610 . S
N543 S542 1.613 . S
N543 C546 1.350 . S
N544 S542 1.610 . S
N544 C545 1.351 . S
C545 C539 1.428 . S
C545 N544 1.351 . S
C545 C546 1.434 . S
C546 C537 1.429 . S
C546 N543 1.350 . S
C546 C545 1.434 . S
C547 C548 1.369 . S
C547 C549 1.419 . S
C547 H551 0.930 . S
C548 C547 1.369 . S
C548 C557 1.429 . S
C549 C547 1.419 . S
C549 C550 1.363 . S
C549 H552 0.929 . S
C550 C549 1.363 . S
C550 C556 1.428 . S
H551 C547 0.930 . S
H552 C549 0.929 . S
S553 N554 1.613 . S
S553 N555 1.610 . S
N554 S553 1.613 . S
N554 C557 1.350 . S
N555 S553 1.610 . S
N555 C556 1.351 . S
C556 C550 1.428 . S
C556 N555 1.351 . S
C556 C557 1.434 . S
C557 C548 1.429 . S
C557 N554 1.350 . S
C557 C556 1.434 . S
C558 C559 1.369 . S
C558 C560 1.419 . S
C558 H562 0.930 . S
C559 C558 1.369 . S
C559 C568 1.429 . S
C560 C558 1.419 . S
C560 C561 1.363 . S
C560 H563 0.929 . S
C561 C560 1.363 . S
C561 C567 1.428 . S
H562 C558 0.930 . S
H563 C560 0.929 . S
S564 N565 1.613 . S
S564 N566 1.610 . S
N565 S564 1.613 . S
N565 C568 1.350 . S
N566 S564 1.610 . S
N566 C567 1.351 . S
C567 C561 1.428 . S
C567 N566 1.351 . S
C567 C568 1.434 . S
C568 C559 1.429 . S
C568 N565 1.350 . S
C568 C567 1.434 . S
C569 C570 1.369 . S
C569 C571 1.419 . S
C569 H573 0.930 . S
C570 C569 1.369 . S
C570 C579 1.429 . S
C571 C569 1.419 . S
C571 C572 1.363 . S
C571 H574 0.929 . S
C572 C571 1.363 . S
C572 C578 1.428 . S
H573 C569 0.930 . S
H574 C571 0.929 . S
S575 N576 1.613 . S
S575 N577 1.610 . S
N576 S575 1.613 . S
N576 C579 1.350 . S
N577 S575 1.610 . S
N577 C578 1.351 . S
C578 C572 1.428 . S
C578 N577 1.351 . S
C578 C579 1.434 . S
C579 C570 1.429 . S
C579 N576 1.350 . S
C579 C578 1.434 . S
C580 C581 1.369 . S
C580 C582 1.419 . S
C580 H584 0.930 . S
C581 C580 1.369 . S
C581 C590 1.429 . S
C582 C580 1.419 . S
C582 C583 1.363 . S
C582 H585 0.929 . S
C583 C582 1.363 . S
C583 C589 1.428 . S
H584 C580 0.930 . S
H585 C582 0.929 . S
S586 N587 1.613 . S
S586 N588 1.610 . S
N587 S586 1.613 . S
N587 C590 1.350 . S
N588 S586 1.610 . S
N588 C589 1.351 . S
C589 C583 1.428 . S
C589 N588 1.351 . S
C589 C590 1.434 . S
C590 C581 1.429 . S
C590 N587 1.350 . S
C590 C589 1.434 . S
C591 C592 1.369 . S
C591 C593 1.419 . S
C591 H595 0.930 . S
C592 C591 1.369 . S
C592 C601 1.429 . S
C593 C591 1.419 . S
C593 C594 1.363 . S
C593 H596 0.929 . S
C594 C593 1.363 . S
C594 C600 1.428 . S
H595 C591 0.930 . S
H596 C593 0.929 . S
S597 N598 1.613 . S
S597 N599 1.610 . S
N598 S597 1.613 . S
N598 C601 1.350 . S
N599 S597 1.610 . S
N599 C600 1.351 . S
C600 C594 1.428 . S
C600 N599 1.351 . S
C600 C601 1.434 . S
C601 C592 1.429 . S
C601 N598 1.350 . S
C601 C600 1.434 . S
C602 C603 1.369 . S
C602 C604 1.419 . S
C602 H606 0.930 . S
C603 C602 1.369 . S
C603 C612 1.429 . S
C604 C602 1.419 . S
C604 C605 1.363 . S
C604 H607 0.929 . S
C605 C604 1.363 . S
C605 C611 1.428 . S
H606 C602 0.930 . S
H607 C604 0.929 . S
S608 N609 1.613 . S
S608 N610 1.610 . S
N609 S608 1.613 . S
N609 C612 1.350 . S
N610 S608 1.610 . S
N610 C611 1.351 . S
C611 C605 1.428 . S
C611 N610 1.351 . S
C611 C612 1.434 . S
C612 C603 1.429 . S
C612 N609 1.350 . S
C612 C611 1.434 . S
C613 C614 1.369 . S
C613 C615 1.419 . S
C613 H617 0.930 . S
C614 C613 1.369 . S
C614 C623 1.429 . S
C615 C613 1.419 . S
C615 C616 1.363 . S
C615 H618 0.929 . S
C616 C615 1.363 . S
C616 C622 1.428 . S
H617 C613 0.930 . S
H618 C615 0.929 . S
S619 N620 1.613 . S
S619 N621 1.610 . S
N620 S619 1.613 . S
N620 C623 1.350 . S
N621 S619 1.610 . S
N621 C622 1.351 . S
C622 C616 1.428 . S
C622 N621 1.351 . S
C622 C623 1.434 . S
C623 C614 1.429 . S
C623 N620 1.350 . S
C623 C622 1.434 . S
C624 C625 1.369 . S
C624 C626 1.419 . S
C624 H628 0.930 . S
C625 C624 1.369 . S
C625 C634 1.429 . S
C626 C624 1.419 . S
C626 C627 1.363 . S
C626 H629 0.929 . S
C627 C626 1.363 . S
C627 C633 1.428 . S
H628 C624 0.930 . S
H629 C626 0.929 . S
S630 N631 1.613 . S
S630 N632 1.610 . S
N631 S630 1.613 . S
N631 C634 1.350 . S
N632 S630 1.610 . S
N632 C633 1.351 . S
C633 C627 1.428 . S
C633 N632 1.351 . S
C633 C634 1.434 . S
C634 C625 1.429 . S
C634 N631 1.350 . S
C634 C633 1.434 . S
C635 C636 1.369 . S
C635 C637 1.419 . S
C635 H639 0.930 . S
C636 C635 1.369 . S
C636 C645 1.429 . S
C637 C635 1.419 . S
C637 C638 1.363 . S
C637 H640 0.929 . S
C638 C637 1.363 . S
C638 C644 1.428 . S
H639 C635 0.930 . S
H640 C637 0.929 . S
S641 N642 1.613 . S
S641 N643 1.610 . S
N642 S641 1.613 . S
N642 C645 1.350 . S
N643 S641 1.610 . S
N643 C644 1.351 . S
C644 C638 1.428 . S
C644 N643 1.351 . S
C644 C645 1.434 . S
C645 C636 1.429 . S
C645 N642 1.350 . S
C645 C644 1.434 . S
C646 C647 1.369 . S
C646 C648 1.419 . S
C646 H650 0.930 . S
C647 C646 1.369 . S
C647 C656 1.429 . S
C648 C646 1.419 . S
C648 C649 1.363 . S
C648 H651 0.929 . S
C649 C648 1.363 . S
C649 C655 1.428 . S
H650 C646 0.930 . S
H651 C648 0.929 . S
S652 N653 1.613 . S
S652 N654 1.610 . S
N653 S652 1.613 . S
N653 C656 1.350 . S
N654 S652 1.610 . S
N654 C655 1.351 . S
C655 C649 1.428 . S
C655 N654 1.351 . S
C655 C656 1.434 . S
C656 C647 1.429 . S
C656 N653 1.350 . S
C656 C655 1.434 . S
C657 C658 1.369 . S
C657 C659 1.419 . S
C657 H661 0.930 . S
C658 C657 1.369 . S
C658 C667 1.429 . S
C659 C657 1.419 . S
C659 C660 1.363 . S
C659 H662 0.929 . S
C660 C659 1.363 . S
C660 C666 1.428 . S
H661 C657 0.930 . S
H662 C659 0.929 . S
S663 N664 1.613 . S
S663 N665 1.610 . S
N664 S663 1.613 . S
N664 C667 1.350 . S
N665 S663 1.610 . S
N665 C666 1.351 . S
C666 C660 1.428 . S
C666 N665 1.351 . S
C666 C667 1.434 . S
C667 C658 1.429 . S
C667 N664 1.350 . S
C667 C666 1.434 . S
C668 C669 1.369 . S
C668 C670 1.419 . S
C668 H672 0.930 . S
C669 C668 1.369 . S
C669 C678 1.429 . S
C670 C668 1.419 . S
C670 C671 1.363 . S
C670 H673 0.929 . S
C671 C670 1.363 . S
C671 C677 1.428 . S
H672 C668 0.930 . S
H673 C670 0.929 . S
S674 N675 1.613 . S
S674 N676 1.610 . S
N675 S674 1.613 . S
N675 C678 1.350 . S
N676 S674 1.610 . S
N676 C677 1.351 . S
C677 C671 1.428 . S
C677 N676 1.351 . S
C677 C678 1.434 . S
C678 C669 1.429 . S
C678 N675 1.350 . S
C678 C677 1.434 . S
C679 C680 1.369 . S
C679 C681 1.419 . S
C679 H683 0.930 . S
C680 C679 1.369 . S
C680 C689 1.429 . S
C681 C679 1.419 . S
C681 C682 1.363 . S
C681 H684 0.929 . S
C682 C681 1.363 . S
C682 C688 1.428 . S
H683 C679 0.930 . S
H684 C681 0.929 . S
S685 N686 1.613 . S
S685 N687 1.610 . S
N686 S685 1.613 . S
N686 C689 1.350 . S
N687 S685 1.610 . S
N687 C688 1.351 . S
C688 C682 1.428 . S
C688 N687 1.351 . S
C688 C689 1.434 . S
C689 C680 1.429 . S
C689 N686 1.350 . S
C689 C688 1.434 . S
C690 C691 1.369 . S
C690 C692 1.419 . S
C690 H694 0.930 . S
C691 C690 1.369 . S
C691 C700 1.429 . S
C692 C690 1.419 . S
C692 C693 1.363 . S
C692 H695 0.929 . S
C693 C692 1.363 . S
C693 C699 1.428 . S
H694 C690 0.930 . S
H695 C692 0.929 . S
S696 N697 1.613 . S
S696 N698 1.610 . S
N697 S696 1.613 . S
N697 C700 1.350 . S
N698 S696 1.610 . S
N698 C699 1.351 . S
C699 C693 1.428 . S
C699 N698 1.351 . S
C699 C700 1.434 . S
C700 C691 1.429 . S
C700 N697 1.350 . S
C700 C699 1.434 . S
C701 C702 1.369 . S
C701 C703 1.419 . S
C701 H705 0.930 . S
C702 C701 1.369 . S
C702 C711 1.429 . S
C703 C701 1.419 . S
C703 C704 1.363 . S
C703 H706 0.929 . S
C704 C703 1.363 . S
C704 C710 1.428 . S
H705 C701 0.930 . S
H706 C703 0.929 . S
S707 N708 1.613 . S
S707 N709 1.610 . S
N708 S707 1.613 . S
N708 C711 1.350 . S
N709 S707 1.610 . S
N709 C710 1.351 . S
C710 C704 1.428 . S
C710 N709 1.351 . S
C710 C711 1.434 . S
C711 C702 1.429 . S
C711 N708 1.350 . S
C711 C710 1.434 . S
C712 C713 1.369 . S
C712 C714 1.419 . S
C712 H716 0.930 . S
C713 C712 1.369 . S
C713 C722 1.429 . S
C714 C712 1.419 . S
C714 C715 1.363 . S
C714 H717 0.929 . S
C715 C714 1.363 . S
C715 C721 1.428 . S
H716 C712 0.930 . S
H717 C714 0.929 . S
S718 N719 1.613 . S
S718 N720 1.610 . S
N719 S718 1.613 . S
N719 C722 1.350 . S
N720 S718 1.610 . S
N720 C721 1.351 . S
C721 C715 1.428 . S
C721 N720 1.351 . S
C721 C722 1.434 . S
C722 C713 1.429 . S
C722 N719 1.350 . S
C722 C721 1.434 . S
C723 C724 1.369 . S
C723 C725 1.419 . S
C723 H727 0.930 . S
C724 C723 1.369 . S
C724 C733 1.429 . S
C725 C723 1.419 . S
C725 C726 1.363 . S
C725 H728 0.929 . S
C726 C725 1.363 . S
C726 C732 1.428 . S
H727 C723 0.930 . S
H728 C725 0.929 . S
S729 N730 1.613 . S
S729 N731 1.610 . S
N730 S729 1.613 . S
N730 C733 1.350 . S
N731 S729 1.610 . S
N731 C732 1.351 . S
C732 C726 1.428 . S
C732 N731 1.351 . S
C732 C733 1.434 . S
C733 C724 1.429 . S
C733 N730 1.350 . S
C733 C732 1.434 . S
C734 C735 1.369 . S
C734 C736 1.419 . S
C734 H738 0.930 . S
C735 C734 1.369 . S
C735 C744 1.429 . S
C736 C734 1.419 . S
C736 C737 1.363 . S
C736 H739 0.929 . S
C737 C736 1.363 . S
C737 C743 1.428 . S
H738 C734 0.930 . S
H739 C736 0.929 . S
S740 N741 1.613 . S
S740 N742 1.610 . S
N741 S740 1.613 . S
N741 C744 1.350 . S
N742 S740 1.610 . S
N742 C743 1.351 . S
C743 C737 1.428 . S
C743 N742 1.351 . S
C743 C744 1.434 . S
C744 C735 1.429 . S
C744 N741 1.350 . S
C744 C743 1.434 . S
C745 C746 1.369 . S
C745 C747 1.419 . S
C745 H749 0.930 . S
C746 C745 1.369 . S
C746 C755 1.429 . S
C747 C745 1.419 . S
C747 C748 1.363 . S
C747 H750 0.929 . S
C748 C747 1.363 . S
C748 C754 1.428 . S
H749 C745 0.930 . S
H750 C747 0.929 . S
S751 N752 1.613 . S
S751 N753 1.610 . S
N752 S751 1.613 . S
N752 C755 1.350 . S
N753 S751 1.610 . S
N753 C754 1.351 . S
C754 C748 1.428 . S
C754 N753 1.351 . S
C754 C755 1.434 . S
C755 C746 1.429 . S
C755 N752 1.350 . S
C755 C754 1.434 . S
C756 C757 1.369 . S
C756 C758 1.419 . S
C756 H760 0.930 . S
C757 C756 1.369 . S
C757 C766 1.429 . S
C758 C756 1.419 . S
C758 C759 1.363 . S
C758 H761 0.929 . S
C759 C758 1.363 . S
C759 C765 1.428 . S
H760 C756 0.930 . S
H761 C758 0.929 . S
S762 N763 1.613 . S
S762 N764 1.610 . S
N763 S762 1.613 . S
N763 C766 1.350 . S
N764 S762 1.610 . S
N764 C765 1.351 . S
C765 C759 1.428 . S
C765 N764 1.351 . S
C765 C766 1.434 . S
C766 C757 1.429 . S
C766 N763 1.350 . S
C766 C765 1.434 . S
C767 C768 1.369 . S
C767 C769 1.419 . S
C767 H771 0.930 . S
C768 C767 1.369 . S
C768 C777 1.429 . S
C769 C767 1.419 . S
C769 C770 1.363 . S
C769 H772 0.929 . S
C770 C769 1.363 . S
C770 C776 1.428 . S
H771 C767 0.930 . S
H772 C769 0.929 . S
S773 N774 1.613 . S
S773 N775 1.610 . S
N774 S773 1.613 . S
N774 C777 1.350 . S
N775 S773 1.610 . S
N775 C776 1.351 . S
C776 C770 1.428 . S
C776 N775 1.351 . S
C776 C777 1.434 . S
C777 C768 1.429 . S
C777 N774 1.350 . S
C777 C776 1.434 . S
C778 C779 1.369 . S
C778 C780 1.419 . S
C778 H782 0.930 . S
C779 C778 1.369 . S
C779 C788 1.429 . S
C780 C778 1.419 . S
C780 C781 1.363 . S
C780 H783 0.929 . S
C781 C780 1.363 . S
C781 C787 1.428 . S
H782 C778 0.930 . S
H783 C780 0.929 . S
S784 N785 1.613 . S
S784 N786 1.610 . S
N785 S784 1.613 . S
N785 C788 1.350 . S
N786 S784 1.610 . S
N786 C787 1.351 . S
C787 C781 1.428 . S
C787 N786 1.351 . S
C787 C788 1.434 . S
C788 C779 1.429 . S
C788 N785 1.350 . S
C788 C787 1.434 . S
C789 C790 1.369 . S
C789 C791 1.419 . S
C789 H793 0.930 . S
C790 C789 1.369 . S
C790 C799 1.429 . S
C791 C789 1.419 . S
C791 C792 1.363 . S
C791 H794 0.929 . S
C792 C791 1.363 . S
C792 C798 1.428 . S
H793 C789 0.930 . S
H794 C791 0.929 . S
S795 N796 1.613 . S
S795 N797 1.610 . S
N796 S795 1.613 . S
N796 C799 1.350 . S
N797 S795 1.610 . S
N797 C798 1.351 . S
C798 C792 1.428 . S
C798 N797 1.351 . S
C798 C799 1.434 . S
C799 C790 1.429 . S
C799 N796 1.350 . S
C799 C798 1.434 . S
C800 C801 1.369 . S
C800 C802 1.419 . S
C800 H804 0.930 . S
C801 C800 1.369 . S
C801 C810 1.429 . S
C802 C800 1.419 . S
C802 C803 1.363 . S
C802 H805 0.929 . S
C803 C802 1.363 . S
C803 C809 1.428 . S
H804 C800 0.930 . S
H805 C802 0.929 . S
S806 N807 1.613 . S
S806 N808 1.610 . S
N807 S806 1.613 . S
N807 C810 1.350 . S
N808 S806 1.610 . S
N808 C809 1.351 . S
C809 C803 1.428 . S
C809 N808 1.351 . S
C809 C810 1.434 . S
C810 C801 1.429 . S
C810 N807 1.350 . S
C810 C809 1.434 . S
C811 C812 1.369 1_545 S
C811 C813 1.419 . S
C811 H815 0.930 . S
C812 C811 1.369 1_565 S
C812 C821 1.429 1_455 S
C813 C811 1.419 . S
C813 C814 1.363 1_455 S
C813 H816 0.929 . S
C814 C813 1.363 1_655 S
C814 C820 1.428 1_545 S
H815 C811 0.930 . S
H816 C813 0.929 . S
S817 N818 1.613 . S
S817 N819 1.610 . S
N818 S817 1.613 . S
N818 C821 1.350 . S
N819 S817 1.610 . S
N819 C820 1.351 . S
C820 C814 1.428 1_565 S
C820 N819 1.351 . S
C820 C821 1.434 . S
C821 C812 1.429 1_655 S
C821 N818 1.350 . S
C821 C820 1.434 . S
C822 C823 1.369 . S
C822 C824 1.419 . S
C822 H826 0.930 . S
C823 C822 1.369 . S
C823 C832 1.429 . S
C824 C822 1.419 . S
C824 C825 1.363 . S
C824 H827 0.929 . S
C825 C824 1.363 . S
C825 C831 1.428 . S
H826 C822 0.930 . S
H827 C824 0.929 . S
S828 N829 1.613 . S
S828 N830 1.610 . S
N829 S828 1.613 . S
N829 C832 1.350 . S
N830 S828 1.610 . S
N830 C831 1.351 . S
C831 C825 1.428 . S
C831 N830 1.351 . S
C831 C832 1.434 . S
C832 C823 1.429 . S
C832 N829 1.350 . S
C832 C831 1.434 . S
C833 C834 1.369 . S
C833 C835 1.419 1_554 S
C833 H837 0.930 . S
C834 C833 1.369 . S
C834 C843 1.429 1_545 S
C835 C833 1.419 1_556 S
C835 C836 1.363 1_545 S
C835 H838 0.929 . S
C836 C835 1.363 1_565 S
C836 C842 1.428 . S
H837 C833 0.930 . S
H838 C835 0.929 . S
S839 N840 1.613 1_556 S
S839 N841 1.610 . S
N840 S839 1.613 1_554 S
N840 C843 1.350 . S
N841 S839 1.610 . S
N841 C842 1.351 . S
C842 C836 1.428 . S
C842 N841 1.351 . S
C842 C843 1.434 1_556 S
C843 C834 1.429 1_565 S
C843 N840 1.350 . S
C843 C842 1.434 1_554 S
C844 C845 1.369 . S
C844 C846 1.419 . S
C844 H848 0.930 . S
C845 C844 1.369 . S
C845 C854 1.429 . S
C846 C844 1.419 . S
C846 C847 1.363 . S
C846 H849 0.929 . S
C847 C846 1.363 . S
C847 C853 1.428 . S
H848 C844 0.930 . S
H849 C846 0.929 . S
S850 N851 1.613 . S
S850 N852 1.610 . S
N851 S850 1.613 . S
N851 C854 1.350 . S
N852 S850 1.610 . S
N852 C853 1.351 . S
C853 C847 1.428 . S
C853 N852 1.351 . S
C853 C854 1.434 . S
C854 C845 1.429 . S
C854 N851 1.350 . S
C854 C853 1.434 . S
C855 C856 1.369 . S
C855 C857 1.419 . S
C855 H859 0.930 . S
C856 C855 1.369 . S
C856 C865 1.429 1_565 S
C857 C855 1.419 . S
C857 C858 1.363 1_565 S
C857 H860 0.929 . S
C858 C857 1.363 1_545 S
C858 C864 1.428 . S
H859 C855 0.930 . S
H860 C857 0.929 . S
S861 N862 1.613 . S
S861 N863 1.610 . S
N862 S861 1.613 . S
N862 C865 1.350 . S
N863 S861 1.610 . S
N863 C864 1.351 . S
C864 C858 1.428 . S
C864 N863 1.351 . S
C864 C865 1.434 . S
C865 C856 1.429 1_545 S
C865 N862 1.350 . S
C865 C864 1.434 . S
C866 C867 1.369 . S
C866 C868 1.419 . S
C866 H870 0.930 . S
C867 C866 1.369 . S
C867 C876 1.429 . S
C868 C866 1.419 . S
C868 C869 1.363 . S
C868 H871 0.929 . S
C869 C868 1.363 . S
C869 C875 1.428 . S
H870 C866 0.930 . S
H871 C868 0.929 . S
S872 N873 1.613 . S
S872 N874 1.610 . S
N873 S872 1.613 . S
N873 C876 1.350 . S
N874 S872 1.610 . S
N874 C875 1.351 . S
C875 C869 1.428 . S
C875 N874 1.351 . S
C875 C876 1.434 . S
C876 C867 1.429 . S
C876 N873 1.350 . S
C876 C875 1.434 . S
C877 C878 1.369 1_565 S
C877 C879 1.419 1_456 S
C877 H881 0.930 . S
C878 C877 1.369 1_545 S
C878 C887 1.429 . S
C879 C877 1.419 1_654 S
C879 C880 1.363 . S
C879 H882 0.929 . S
C880 C879 1.363 . S
C880 C886 1.428 1_565 S
H881 C877 0.930 . S
H882 C879 0.929 . S
S883 N884 1.613 1_654 S
S883 N885 1.610 . S
N884 S883 1.613 1_456 S
N884 C887 1.350 . S
N885 S883 1.610 . S
N885 C886 1.351 . S
C886 C880 1.428 1_545 S
C886 N885 1.351 . S
C886 C887 1.434 1_654 S
C887 C878 1.429 . S
C887 N884 1.350 . S
C887 C886 1.434 1_456 S
C888 C889 1.369 . S
C888 C890 1.419 . S
C888 H892 0.930 . S
C889 C888 1.369 . S
C889 C898 1.429 . S
C890 C888 1.419 . S
C890 C891 1.363 . S
C890 H893 0.929 . S
C891 C890 1.363 . S
C891 C897 1.428 . S
H892 C888 0.930 . S
H893 C890 0.929 . S
S894 N895 1.613 . S
S894 N896 1.610 . S
N895 S894 1.613 . S
N895 C898 1.350 . S
N896 S894 1.610 . S
N896 C897 1.351 . S
C897 C891 1.428 . S
C897 N896 1.351 . S
C897 C898 1.434 . S
C898 C889 1.429 . S
C898 N895 1.350 . S
C898 C897 1.434 . S
C899 C900 1.369 . S
C899 C901 1.419 . S
C899 H903 0.930 . S
C900 C899 1.369 . S
C900 C909 1.429 . S
C901 C899 1.419 . S
C901 C902 1.363 . S
C901 H904 0.929 . S
C902 C901 1.363 . S
C902 C908 1.428 . S
H903 C899 0.930 . S
H904 C901 0.929 . S
S905 N906 1.613 . S
S905 N907 1.610 . S
N906 S905 1.613 . S
N906 C909 1.350 . S
N907 S905 1.610 . S
N907 C908 1.351 . S
C908 C902 1.428 . S
C908 N907 1.351 . S
C908 C909 1.434 . S
C909 C900 1.429 . S
C909 N906 1.350 . S
C909 C908 1.434 . S
C910 C911 1.369 . S
C910 C912 1.419 . S
C910 H914 0.930 . S
C911 C910 1.369 . S
C911 C920 1.429 . S
C912 C910 1.419 . S
C912 C913 1.363 . S
C912 H915 0.929 . S
C913 C912 1.363 . S
C913 C919 1.428 . S
H914 C910 0.930 . S
H915 C912 0.929 . S
S916 N917 1.613 . S
S916 N918 1.610 . S
N917 S916 1.613 . S
N917 C920 1.350 . S
N918 S916 1.610 . S
N918 C919 1.351 . S
C919 C913 1.428 . S
C919 N918 1.351 . S
C919 C920 1.434 . S
C920 C911 1.429 . S
C920 N917 1.350 . S
C920 C919 1.434 . S
C921 C922 1.369 . S
C921 C923 1.419 . S
C921 H925 0.930 . S
C922 C921 1.369 . S
C922 C931 1.429 . S
C923 C921 1.419 . S
C923 C924 1.363 . S
C923 H926 0.929 . S
C924 C923 1.363 . S
C924 C930 1.428 . S
H925 C921 0.930 . S
H926 C923 0.929 . S
S927 N928 1.613 . S
S927 N929 1.610 . S
N928 S927 1.613 . S
N928 C931 1.350 . S
N929 S927 1.610 . S
N929 C930 1.351 . S
C930 C924 1.428 . S
C930 N929 1.351 . S
C930 C931 1.434 . S
C931 C922 1.429 . S
C931 N928 1.350 . S
C931 C930 1.434 . S
C932 C933 1.369 . S
C932 C934 1.419 1_554 S
C932 H936 0.930 . S
C933 C932 1.369 . S
C933 C942 1.429 . S
C934 C932 1.419 1_556 S
C934 C935 1.363 . S
C934 H937 0.929 . S
C935 C934 1.363 . S
C935 C941 1.428 . S
H936 C932 0.930 . S
H937 C934 0.929 . S
S938 N939 1.613 . S
S938 N940 1.610 1_554 S
N939 S938 1.613 . S
N939 C942 1.350 . S
N940 S938 1.610 1_556 S
N940 C941 1.351 . S
C941 C935 1.428 . S
C941 N940 1.351 . S
C941 C942 1.434 1_556 S
C942 C933 1.429 . S
C942 N939 1.350 . S
C942 C941 1.434 1_554 S
C943 C944 1.369 1_655 S
C943 C945 1.419 . S
C943 H947 0.930 . S
C944 C943 1.369 1_455 S
C944 C953 1.429 . S
C945 C943 1.419 . S
C945 C946 1.363 . S
C945 H948 0.929 . S
C946 C945 1.363 . S
C946 C952 1.428 1_655 S
H947 C943 0.930 . S
H948 C945 0.929 . S
S949 N950 1.613 . S
S949 N951 1.610 . S
N950 S949 1.613 . S
N950 C953 1.350 . S
N951 S949 1.610 . S
N951 C952 1.351 . S
C952 C946 1.428 1_455 S
C952 N951 1.351 . S
C952 C953 1.434 . S
C953 C944 1.429 . S
C953 N950 1.350 . S
C953 C952 1.434 . S
C954 C955 1.369 1_655 S
C954 C956 1.419 1_554 S
C954 H958 0.930 . S
C955 C954 1.369 1_455 S
C955 C964 1.429 . S
C956 C954 1.419 1_556 S
C956 C957 1.363 . S
C956 H959 0.929 . S
C957 C956 1.363 . S
C957 C963 1.428 1_655 S
H958 C954 0.930 . S
H959 C956 0.929 . S
S960 N961 1.613 1_556 S
S960 N962 1.610 . S
N961 S960 1.613 1_554 S
N961 C964 1.350 . S
N962 S960 1.610 . S
N962 C963 1.351 . S
C963 C957 1.428 1_455 S
C963 N962 1.351 . S
C963 C964 1.434 1_556 S
C964 C955 1.429 . S
C964 N961 1.350 . S
C964 C963 1.434 1_554 S
C965 C966 1.369 . S
C965 C967 1.419 . S
C965 H969 0.930 . S
C966 C965 1.369 . S
C966 C975 1.429 . S
C967 C965 1.419 . S
C967 C968 1.363 . S
C967 H970 0.929 . S
C968 C967 1.363 . S
C968 C974 1.428 . S
H969 C965 0.930 . S
H970 C967 0.929 . S
S971 N972 1.613 . S
S971 N973 1.610 . S
N972 S971 1.613 . S
N972 C975 1.350 . S
N973 S971 1.610 . S
N973 C974 1.351 . S
C974 C968 1.428 . S
C974 N973 1.351 . S
C974 C975 1.434 . S
C975 C966 1.429 . S
C975 N972 1.350 . S
C975 C974 1.434 . S
C976 C977 1.369 . S
C976 C978 1.419 . S
C976 H980 0.930 . S
C977 C976 1.369 . S
C977 C986 1.429 . S
C978 C976 1.419 . S
C978 C979 1.363 . S
C978 H981 0.929 . S
C979 C978 1.363 . S
C979 C985 1.428 . S
H980 C976 0.930 . S
H981 C978 0.929 . S
S982 N983 1.613 . S
S982 N984 1.610 . S
N983 S982 1.613 . S
N983 C986 1.350 . S
N984 S982 1.610 . S
N984 C985 1.351 . S
C985 C979 1.428 . S
C985 N984 1.351 . S
C985 C986 1.434 . S
C986 C977 1.429 . S
C986 N983 1.350 . S
C986 C985 1.434 . S
C987 C988 1.369 . S
C987 C989 1.419 . S
C987 H991 0.930 . S
C988 C987 1.369 . S
C988 C997 1.429 . S
C989 C987 1.419 . S
C989 C990 1.363 . S
C989 H992 0.929 . S
C990 C989 1.363 . S
C990 C996 1.428 . S
H991 C987 0.930 . S
H992 C989 0.929 . S
S993 N994 1.613 . S
S993 N995 1.610 . S
N994 S993 1.613 . S
N994 C997 1.350 . S
N995 S993 1.610 . S
N995 C996 1.351 . S
C996 C990 1.428 . S
C996 N995 1.351 . S
C996 C997 1.434 . S
C997 C988 1.429 . S
C997 N994 1.350 . S
C997 C996 1.434 . S
C998 C999 1.369 . S
C998 C1000 1.419 . S
C998 H1002 0.930 . S
C999 C998 1.369 . S
C999 C1008 1.429 . S
C1000 C998 1.419 . S
C1000 C1001 1.363 . S
C1000 H1003 0.929 . S
C1001 C1000 1.363 . S
C1001 C1007 1.428 . S
H1002 C998 0.930 . S
H1003 C1000 0.929 . S
S1004 N1005 1.613 . S
S1004 N1006 1.610 . S
N1005 S1004 1.613 . S
N1005 C1008 1.350 . S
N1006 S1004 1.610 . S
N1006 C1007 1.351 . S
C1007 C1001 1.428 . S
C1007 N1006 1.351 . S
C1007 C1008 1.434 . S
C1008 C999 1.429 . S
C1008 N1005 1.350 . S
C1008 C1007 1.434 . S
C1009 C1010 1.369 . S
C1009 C1011 1.419 . S
C1009 H1013 0.930 . S
C1010 C1009 1.369 . S
C1010 C1019 1.429 . S
C1011 C1009 1.419 . S
C1011 C1012 1.363 . S
C1011 H1014 0.929 . S
C1012 C1011 1.363 . S
C1012 C1018 1.428 . S
H1013 C1009 0.930 . S
H1014 C1011 0.929 . S
S1015 N1016 1.613 . S
S1015 N1017 1.610 . S
N1016 S1015 1.613 . S
N1016 C1019 1.350 . S
N1017 S1015 1.610 . S
N1017 C1018 1.351 . S
C1018 C1012 1.428 . S
C1018 N1017 1.351 . S
C1018 C1019 1.434 . S
C1019 C1010 1.429 . S
C1019 N1016 1.350 . S
C1019 C1018 1.434 . S
C1020 C1021 1.369 . S
C1020 C1022 1.419 . S
C1020 H1024 0.930 . S
C1021 C1020 1.369 . S
C1021 C1030 1.429 . S
C1022 C1020 1.419 . S
C1022 C1023 1.363 . S
C1022 H1025 0.929 . S
C1023 C1022 1.363 . S
C1023 C1029 1.428 . S
H1024 C1020 0.930 . S
H1025 C1022 0.929 . S
S1026 N1027 1.613 . S
S1026 N1028 1.610 . S
N1027 S1026 1.613 . S
N1027 C1030 1.350 . S
N1028 S1026 1.610 . S
N1028 C1029 1.351 . S
C1029 C1023 1.428 . S
C1029 N1028 1.351 . S
C1029 C1030 1.434 . S
C1030 C1021 1.429 . S
C1030 N1027 1.350 . S
C1030 C1029 1.434 . S
C1031 C1032 1.369 . S
C1031 C1033 1.419 . S
C1031 H1035 0.930 . S
C1032 C1031 1.369 . S
C1032 C1041 1.429 . S
C1033 C1031 1.419 . S
C1033 C1034 1.363 . S
C1033 H1036 0.929 . S
C1034 C1033 1.363 . S
C1034 C1040 1.428 . S
H1035 C1031 0.930 . S
H1036 C1033 0.929 . S
S1037 N1038 1.613 . S
S1037 N1039 1.610 . S
N1038 S1037 1.613 . S
N1038 C1041 1.350 . S
N1039 S1037 1.610 . S
N1039 C1040 1.351 . S
C1040 C1034 1.428 . S
C1040 N1039 1.351 . S
C1040 C1041 1.434 . S
C1041 C1032 1.429 . S
C1041 N1038 1.350 . S
C1041 C1040 1.434 . S
C1042 C1043 1.369 . S
C1042 C1044 1.419 . S
C1042 H1046 0.930 . S
C1043 C1042 1.369 . S
C1043 C1052 1.429 . S
C1044 C1042 1.419 . S
C1044 C1045 1.363 . S
C1044 H1047 0.929 . S
C1045 C1044 1.363 . S
C1045 C1051 1.428 . S
H1046 C1042 0.930 . S
H1047 C1044 0.929 . S
S1048 N1049 1.613 . S
S1048 N1050 1.610 . S
N1049 S1048 1.613 . S
N1049 C1052 1.350 . S
N1050 S1048 1.610 . S
N1050 C1051 1.351 . S
C1051 C1045 1.428 . S
C1051 N1050 1.351 . S
C1051 C1052 1.434 . S
C1052 C1043 1.429 . S
C1052 N1049 1.350 . S
C1052 C1051 1.434 . S
C1053 C1054 1.369 . S
C1053 C1055 1.419 . S
C1053 H1057 0.930 . S
C1054 C1053 1.369 . S
C1054 C1063 1.429 . S
C1055 C1053 1.419 . S
C1055 C1056 1.363 . S
C1055 H1058 0.929 . S
C1056 C1055 1.363 . S
C1056 C1062 1.428 . S
H1057 C1053 0.930 . S
H1058 C1055 0.929 . S
S1059 N1060 1.613 . S
S1059 N1061 1.610 . S
N1060 S1059 1.613 . S
N1060 C1063 1.350 . S
N1061 S1059 1.610 . S
N1061 C1062 1.351 . S
C1062 C1056 1.428 . S
C1062 N1061 1.351 . S
C1062 C1063 1.434 . S
C1063 C1054 1.429 . S
C1063 N1060 1.350 . S
C1063 C1062 1.434 . S
C1064 C1065 1.369 . S
C1064 C1066 1.419 . S
C1064 H1068 0.930 . S
C1065 C1064 1.369 . S
C1065 C1074 1.429 . S
C1066 C1064 1.419 . S
C1066 C1067 1.363 . S
C1066 H1069 0.929 . S
C1067 C1066 1.363 . S
C1067 C1073 1.428 . S
H1068 C1064 0.930 . S
H1069 C1066 0.929 . S
S1070 N1071 1.613 . S
S1070 N1072 1.610 . S
N1071 S1070 1.613 . S
N1071 C1074 1.350 . S
N1072 S1070 1.610 . S
N1072 C1073 1.351 . S
C1073 C1067 1.428 . S
C1073 N1072 1.351 . S
C1073 C1074 1.434 . S
C1074 C1065 1.429 . S
C1074 N1071 1.350 . S
C1074 C1073 1.434 . S
C1075 C1076 1.369 . S
C1075 C1077 1.419 . S
C1075 H1079 0.930 . S
C1076 C1075 1.369 . S
C1076 C1085 1.429 . S
C1077 C1075 1.419 . S
C1077 C1078 1.363 . S
C1077 H1080 0.929 . S
C1078 C1077 1.363 . S
C1078 C1084 1.428 . S
H1079 C1075 0.930 . S
H1080 C1077 0.929 . S
S1081 N1082 1.613 . S
S1081 N1083 1.610 . S
N1082 S1081 1.613 . S
N1082 C1085 1.350 . S
N1083 S1081 1.610 . S
N1083 C1084 1.351 . S
C1084 C1078 1.428 . S
C1084 N1083 1.351 . S
C1084 C1085 1.434 . S
C1085 C1076 1.429 . S
C1085 N1082 1.350 . S
C1085 C1084 1.434 . S
C1086 C1087 1.369 . S
C1086 C1088 1.419 . S
C1086 H1090 0.930 . S
C1087 C1086 1.369 . S
C1087 C1096 1.429 . S
C1088 C1086 1.419 . S
C1088 C1089 1.363 . S
C1088 H1091 0.929 . S
C1089 C1088 1.363 . S
C1089 C1095 1.428 . S
H1090 C1086 0.930 . S
H1091 C1088 0.929 . S
S1092 N1093 1.613 . S
S1092 N1094 1.610 . S
N1093 S1092 1.613 . S
N1093 C1096 1.350 . S
N1094 S1092 1.610 . S
N1094 C1095 1.351 . S
C1095 C1089 1.428 . S
C1095 N1094 1.351 . S
C1095 C1096 1.434 . S
C1096 C1087 1.429 . S
C1096 N1093 1.350 . S
C1096 C1095 1.434 . S
C1097 C1098 1.369 . S
C1097 C1099 1.419 . S
C1097 H1101 0.930 . S
C1098 C1097 1.369 . S
C1098 C1107 1.429 . S
C1099 C1097 1.419 . S
C1099 C1100 1.363 . S
C1099 H1102 0.929 . S
C1100 C1099 1.363 . S
C1100 C1106 1.428 . S
H1101 C1097 0.930 . S
H1102 C1099 0.929 . S
S1103 N1104 1.613 . S
S1103 N1105 1.610 . S
N1104 S1103 1.613 . S
N1104 C1107 1.350 . S
N1105 S1103 1.610 . S
N1105 C1106 1.351 . S
C1106 C1100 1.428 . S
C1106 N1105 1.351 . S
C1106 C1107 1.434 . S
C1107 C1098 1.429 . S
C1107 N1104 1.350 . S
C1107 C1106 1.434 . S
C1108 C1109 1.369 . S
C1108 C1110 1.419 . S
C1108 H1112 0.930 . S
C1109 C1108 1.369 . S
C1109 C1118 1.429 . S
C1110 C1108 1.419 . S
C1110 C1111 1.363 . S
C1110 H1113 0.929 . S
C1111 C1110 1.363 . S
C1111 C1117 1.428 . S
H1112 C1108 0.930 . S
H1113 C1110 0.929 . S
S1114 N1115 1.613 . S
S1114 N1116 1.610 . S
N1115 S1114 1.613 . S
N1115 C1118 1.350 . S
N1116 S1114 1.610 . S
N1116 C1117 1.351 . S
C1117 C1111 1.428 . S
C1117 N1116 1.351 . S
C1117 C1118 1.434 . S
C1118 C1109 1.429 . S
C1118 N1115 1.350 . S
C1118 C1117 1.434 . S
C1119 C1120 1.369 . S
C1119 C1121 1.419 . S
C1119 H1123 0.930 . S
C1120 C1119 1.369 . S
C1120 C1129 1.429 . S
C1121 C1119 1.419 . S
C1121 C1122 1.363 . S
C1121 H1124 0.929 . S
C1122 C1121 1.363 . S
C1122 C1128 1.428 . S
H1123 C1119 0.930 . S
H1124 C1121 0.929 . S
S1125 N1126 1.613 . S
S1125 N1127 1.610 . S
N1126 S1125 1.613 . S
N1126 C1129 1.350 . S
N1127 S1125 1.610 . S
N1127 C1128 1.351 . S
C1128 C1122 1.428 . S
C1128 N1127 1.351 . S
C1128 C1129 1.434 . S
C1129 C1120 1.429 . S
C1129 N1126 1.350 . S
C1129 C1128 1.434 . S
C1130 C1131 1.369 . S
C1130 C1132 1.419 . S
C1130 H1134 0.930 . S
C1131 C1130 1.369 . S
C1131 C1140 1.429 . S
C1132 C1130 1.419 . S
C1132 C1133 1.363 . S
C1132 H1135 0.929 . S
C1133 C1132 1.363 . S
C1133 C1139 1.428 . S
H1134 C1130 0.930 . S
H1135 C1132 0.929 . S
S1136 N1137 1.613 . S
S1136 N1138 1.610 . S
N1137 S1136 1.613 . S
N1137 C1140 1.350 . S
N1138 S1136 1.610 . S
N1138 C1139 1.351 . S
C1139 C1133 1.428 . S
C1139 N1138 1.351 . S
C1139 C1140 1.434 . S
C1140 C1131 1.429 . S
C1140 N1137 1.350 . S
C1140 C1139 1.434 . S
C1141 C1142 1.369 . S
C1141 C1143 1.419 . S
C1141 H1145 0.930 . S
C1142 C1141 1.369 . S
C1142 C1151 1.429 . S
C1143 C1141 1.419 . S
C1143 C1144 1.363 . S
C1143 H1146 0.929 . S
C1144 C1143 1.363 . S
C1144 C1150 1.428 . S
H1145 C1141 0.930 . S
H1146 C1143 0.929 . S
S1147 N1148 1.613 . S
S1147 N1149 1.610 . S
N1148 S1147 1.613 . S
N1148 C1151 1.350 . S
N1149 S1147 1.610 . S
N1149 C1150 1.351 . S
C1150 C1144 1.428 . S
C1150 N1149 1.351 . S
C1150 C1151 1.434 . S
C1151 C1142 1.429 . S
C1151 N1148 1.350 . S
C1151 C1150 1.434 . S
C449 C385 1.362 . S
C451 C9 1.349 . S
C460 C23 1.350 . S
C462 C119 1.363 . S
C471 C357 1.359 . S
C473 C37 1.343 . S
C482 C51 1.341 . S
C484 C147 1.361 . S
C493 C65 1.350 . S
C495 C413 1.364 . S
C504 C79 1.350 . S
C506 C203 1.363 . S
C515 C93 1.348 . S
C517 C441 1.365 . S
C526 C107 1.341 . S
C528 C175 1.362 . S
C537 C273 1.363 . S
C539 C121 1.349 . S
C548 C7 1.358 . S
C550 C135 1.345 . S
C559 C245 1.365 . S
C561 C149 1.344 . S
C570 C163 1.349 . S
C572 C35 1.365 . S
C581 C301 1.364 . S
C583 C177 1.349 . S
C592 C91 1.359 . S
C594 C191 1.348 . S
C603 C205 1.344 . S
C605 C329 1.359 . S
C614 C63 1.365 . S
C616 C219 1.348 . S
C625 C233 1.341 . S
C627 C161 1.361 . S
C636 C247 1.341 . S
C638 C343 1.360 . S
C647 C133 1.358 . S
C649 C261 1.345 . S
C658 C371 1.364 . S
C660 C275 1.343 . S
C669 C189 1.358 . S
C671 C289 1.343 . S
C680 C427 1.362 . S
C682 C303 1.349 . S
C691 C217 1.364 . S
C693 C317 1.349 . S
C702 C331 1.343 . S
C704 C399 1.359 . S
C713 C49 1.358 . S
C715 C345 1.346 . S
C724 C359 1.343 . S
C726 C231 1.359 . S
C735 C373 1.344 . S
C737 C21 1.359 . S
C746 C387 1.341 . S
C748 C259 1.361 . S
C757 C401 1.349 . S
C759 C77 1.360 . S
C768 C415 1.345 . S
C770 C315 1.359 . S
C779 C429 1.345 . S
C781 C105 1.359 . S
C790 C443 1.345 . S
C792 C287 1.365 . S
C801 C339 1.522 . S
C803 C3 1.520 . S
C812 C17 1.520 . S
C814 C129 1.522 . S
C823 C367 1.522 . S
C825 C31 1.520 . S
C834 C45 1.522 . S
C836 C157 1.520 . S
C845 C395 1.520 . S
C847 C59 1.522 . S
C856 C73 1.522 . S
C858 C185 1.520 . S
C867 C423 1.522 . S
C869 C87 1.520 . S
C878 C101 1.521 . S
C880 C213 1.521 . S
C889 C115 1.520 . S
C891 C227 1.522 . S
C900 C143 1.522 . S
C902 C255 1.520 . S
C911 C171 1.520 . S
C913 C283 1.522 . S
C922 C199 1.522 . S
C924 C311 1.521 . S
C933 C241 1.520 . S
C935 C353 1.522 . S
C944 C381 1.521 . S
C946 C269 1.521 . S
C955 C409 1.522 . S
C957 C297 1.520 . S
C966 C325 1.521 . S
C968 C437 1.522 . S
C977 C8 1.477 . S
C979 C78 1.477 . S
C988 C22 1.478 . S
C990 C92 1.477 . S
C999 C36 1.478 . S
C1001 C106 1.477 . S
C1010 C64 1.477 . S
C1012 C50 1.477 . S
C1021 C120 1.477 . S
C1023 C190 1.477 . S
C1032 C134 1.478 . S
C1034 C204 1.477 . S
C1043 C148 1.477 . S
C1045 C218 1.478 . S
C1054 C162 1.478 . S
C1056 C176 1.477 . S
C1065 C232 1.478 . S
C1067 C302 1.477 . S
C1076 C316 1.477 . S
C1078 C246 1.477 . S
C1087 C260 1.477 . S
C1089 C330 1.478 . S
C1098 C274 1.477 . S
C1100 C288 1.478 . S
C1109 C414 1.478 . S
C1111 C344 1.477 . S
C1120 C358 1.477 . S
C1122 C428 1.478 . S
C1131 C442 1.477 . S
C1133 C372 1.477 . S
C1142 C386 1.478 . S
C1144 C400 1.477 . S
