# Generated by pormake.
# Topology rac, (4)-cn, num edge types: 1
# Building blocks:
#     Node 0, Type 0, BuildingBlock: NAHDIM_clean_sbu_0, # of connection points: 4
#     Node 1, Type 0, BuildingBlock: NAHDIM_clean_sbu_0, # of connection points: 4
#     Node 2, Type 0, BuildingBlock: NAHDIM_clean_sbu_0, # of connection points: 4
#     Node 3, Type 0, BuildingBlock: NAHDIM_clean_sbu_0, # of connection points: 4
#     Node 4, Type 0, BuildingBlock: NAHDIM_clean_sbu_0, # of connection points: 4
#     Node 5, Type 0, BuildingBlock: NAHDIM_clean_sbu_0, # of connection points: 4
#     Node 6, Type 0, BuildingBlock: NAHDIM_clean_sbu_0, # of connection points: 4
#     Node 7, Type 0, BuildingBlock: NAHDIM_clean_sbu_0, # of connection points: 4
#     Edge 8, Type (0, 0), BuildingBlock: ZUJKAS_clean_linker_0, # of connection points: 2
#     Edge 9, Type (0, 0), BuildingBlock: ZUJKAS_clean_linker_0, # of connection points: 2
#     Edge 10, Type (0, 0), BuildingBlock: ZUJKAS_clean_linker_0, # of connection points: 2
#     Edge 11, Type (0, 0), BuildingBlock: ZUJKAS_clean_linker_0, # of connection points: 2
#     Edge 12, Type (0, 0), BuildingBlock: ZUJKAS_clean_linker_0, # of connection points: 2
#     Edge 13, Type (0, 0), BuildingBlock: ZUJKAS_clean_linker_0, # of connection points: 2
#     Edge 14, Type (0, 0), BuildingBlock: ZUJKAS_clean_linker_0, # of connection points: 2
#     Edge 15, Type (0, 0), BuildingBlock: ZUJKAS_clean_linker_0, # of connection points: 2
#     Edge 16, Type (0, 0), BuildingBlock: ZUJKAS_clean_linker_0, # of connection points: 2
#     Edge 17, Type (0, 0), BuildingBlock: ZUJKAS_clean_linker_0, # of connection points: 2
#     Edge 18, Type (0, 0), BuildingBlock: ZUJKAS_clean_linker_0, # of connection points: 2
#     Edge 19, Type (0, 0), BuildingBlock: ZUJKAS_clean_linker_0, # of connection points: 2
#     Edge 20, Type (0, 0), BuildingBlock: ZUJKAS_clean_linker_0, # of connection points: 2
#     Edge 21, Type (0, 0), BuildingBlock: ZUJKAS_clean_linker_0, # of connection points: 2
#     Edge 22, Type (0, 0), BuildingBlock: ZUJKAS_clean_linker_0, # of connection points: 2
#     Edge 23, Type (0, 0), BuildingBlock: ZUJKAS_clean_linker_0, # of connection points: 2
# Relax obj value: 0.231
# Max RMSD: 0.117
# Mean RMSD: 0.117
data_MOF--net-rac--node1-NAHDIM_clean_sbu_0--edge1-ZUJKAS_clean_linker_0
_symmetry_space_group_name_H-M    P1
_symmetry_Int_Tables_number       1
_symmetry_cell_setting            triclinic
loop_
_symmetry_equiv_pos_as_xyz
'x, y, z'
_cell_length_a     51.134868
_cell_length_b     26.819938
_cell_length_c     53.935226
_cell_angle_alpha  89.991956
_cell_angle_beta   90.006356
_cell_angle_gamma 90.014974
loop_
_atom_site_label
_atom_site_type_symbol
_atom_site_fract_x
_atom_site_fract_y
_atom_site_fract_z
_atom_type_partial_charge
C0 C 0.42315 0.31878 0.05621 0.0
O1 O 0.41213 0.33491 0.07665 0.0
O2 O 0.39299 0.24295 0.10287 0.0
Zn3 Zn 0.38469 0.24833 0.066 0.0
O4 O 0.35574 0.29752 0.06121 0.0
C5 C 0.36302 0.14961 0.06754 0.0
O6 O 0.36917 0.15422 0.09107 0.0
O7 O 0.41545 0.27747 0.04713 0.0
C8 C 0.33268 0.28977 0.06906 0.0
O9 O 0.32749 0.24852 0.08125 0.0
C10 C 0.38516 0.27574 0.11824 0.0
O11 O 0.37179 0.31421 0.11013 0.0
O12 O 0.37014 0.1835 0.05247 0.0
C13 C 0.06867 0.69722 0.06323 0.0
O14 O 0.0764 0.687 0.0859 0.0
O15 O 0.10289 0.77286 0.10608 0.0
Zn16 Zn 0.11107 0.75938 0.07011 0.0
O17 O 0.13589 0.70192 0.0703 0.0
C18 C 0.13315 0.85868 0.06443 0.0
O19 O 0.11999 0.86788 0.08484 0.0
O20 O 0.07978 0.73277 0.05167 0.0
C21 C 0.1493 0.69117 0.05124 0.0
O22 O 0.14718 0.71894 0.03127 0.0
C23 C 0.12247 0.77373 0.1206 0.0
O24 O 0.14606 0.77026 0.11108 0.0
O25 O 0.13042 0.81658 0.05391 0.0
C26 C 0.43655 0.22142 0.44591 0.0
O27 O 0.44343 0.23337 0.42322 0.0
O28 O 0.39849 0.26858 0.39533 0.0
Zn29 Zn 0.38572 0.25815 0.43036 0.0
O30 O 0.3598 0.20251 0.4289 0.0
C31 C 0.34903 0.33434 0.42652 0.0
O32 O 0.3486 0.31399 0.40436 0.0
O33 O 0.41388 0.23333 0.45357 0.0
C34 C 0.34434 0.19522 0.44695 0.0
O35 O 0.34539 0.22504 0.46625 0.0
C36 C 0.40263 0.23057 0.38178 0.0
O37 O 0.40048 0.18591 0.3916 0.0
O38 O 0.3654 0.31815 0.44235 0.0
C39 C 0.07011 0.81452 0.44081 0.0
O40 O 0.07996 0.82537 0.41896 0.0
O41 O 0.10208 0.7342 0.39892 0.0
Zn42 Zn 0.10996 0.74573 0.43516 0.0
O43 O 0.13785 0.79837 0.43652 0.0
C44 C 0.12537 0.64188 0.44134 0.0
O45 O 0.11159 0.6349 0.42108 0.0
O46 O 0.07904 0.77683 0.45239 0.0
C47 C 0.16191 0.78899 0.44014 0.0
O48 O 0.16954 0.74258 0.44297 0.0
C49 C 0.1212 0.72656 0.38436 0.0
O50 O 0.14484 0.72279 0.3937 0.0
O51 O 0.12505 0.68448 0.45165 0.0
C52 C 0.5787 0.68976 0.93367 0.0
O53 O 0.58999 0.67841 0.91252 0.0
O54 O 0.60991 0.77193 0.89211 0.0
Zn55 Zn 0.61745 0.76023 0.92844 0.0
O56 O 0.64482 0.7068 0.93011 0.0
C57 C 0.6366 0.86159 0.93412 0.0
O58 O 0.62657 0.86744 0.91189 0.0
O59 O 0.5862 0.72882 0.94506 0.0
C60 C 0.66888 0.71428 0.93463 0.0
O61 O 0.67735 0.75996 0.93821 0.0
C62 C 0.62915 0.77393 0.8772 0.0
O63 O 0.653 0.77238 0.8862 0.0
O64 O 0.6327 0.8208 0.94556 0.0
C65 C 0.93196 0.30253 0.94065 0.0
O66 O 0.92361 0.31285 0.91819 0.0
O67 O 0.89655 0.22814 0.89861 0.0
Zn68 Zn 0.88939 0.23963 0.93503 0.0
O69 O 0.86369 0.29597 0.93677 0.0
C70 C 0.86921 0.13872 0.94021 0.0
O71 O 0.88127 0.13148 0.91901 0.0
O72 O 0.92119 0.26693 0.95245 0.0
C73 C 0.83943 0.29065 0.94107 0.0
O74 O 0.82981 0.24574 0.94445 0.0
C75 C 0.87692 0.22484 0.88425 0.0
O76 O 0.85334 0.22519 0.8939 0.0
O77 O 0.87218 0.1801 0.95135 0.0
C78 C 0.56469 0.80511 0.55832 0.0
O79 O 0.56901 0.8088 0.58225 0.0
O80 O 0.60353 0.73584 0.59942 0.0
Zn81 Zn 0.61031 0.74635 0.56284 0.0
O82 O 0.63773 0.79969 0.56029 0.0
C83 C 0.62736 0.64342 0.55807 0.0
O84 O 0.61483 0.63771 0.57914 0.0
O85 O 0.57895 0.77593 0.54554 0.0
C86 C 0.66179 0.7908 0.55643 0.0
O87 O 0.66978 0.74447 0.5542 0.0
C88 C 0.62308 0.72965 0.61365 0.0
O89 O 0.64657 0.72712 0.60388 0.0
O90 O 0.62558 0.6848 0.54669 0.0
C91 C 0.92325 0.19752 0.56282 0.0
O92 O 0.91393 0.18577 0.58477 0.0
O93 O 0.89099 0.27521 0.60593 0.0
Zn94 Zn 0.88267 0.26348 0.56981 0.0
O95 O 0.85653 0.20812 0.5693 0.0
C96 C 0.86111 0.36329 0.56518 0.0
O97 O 0.87256 0.37016 0.58671 0.0
O98 O 0.91373 0.23518 0.55165 0.0
C99 C 0.84312 0.19891 0.55003 0.0
O100 O 0.8462 0.22682 0.53022 0.0
C101 C 0.87166 0.27545 0.62074 0.0
O102 O 0.8479 0.27238 0.61155 0.0
O103 O 0.86481 0.3225 0.5537 0.0
H104 H 0.33861 0.13927 0.0224 0.0
H105 H 0.30073 0.08657 0.01299 0.0
H106 H 0.30439 0.02368 0.08649 0.0
H107 H 0.34242 0.07513 0.09587 0.0
H108 H 0.29215 0.95366 0.05099 0.0
H109 H 0.22929 0.12201 0.04189 0.0
H110 H 0.25678 0.11891 0.02121 0.0
H111 H 0.26213 0.1249 0.05399 0.0
C112 C 0.33168 0.11348 0.03639 0.0
C113 C 0.34337 0.11187 0.06001 0.0
C114 C 0.30988 0.08372 0.03104 0.0
C115 C 0.29936 0.05212 0.04925 0.0
C116 C 0.31205 0.04809 0.07222 0.0
H117 H 0.14898 0.9449 0.08685 0.0
H118 H 0.18884 0.99212 0.07863 0.0
C119 C 0.33383 0.07761 0.07755 0.0
C120 C 0.27428 0.02534 0.04529 0.0
H121 H 0.20854 0.04417 0.03878 0.0
C122 C 0.27388 0.9733 0.04798 0.0
C123 C 0.25045 0.05124 0.04167 0.0
C124 C 0.24948 0.10736 0.03971 0.0
C125 C 0.25026 0.94656 0.04794 0.0
C126 C 0.2264 0.97252 0.0446 0.0
C127 C 0.22687 0.02437 0.04113 0.0
C128 C 0.20071 0.94725 0.04724 0.0
C129 C 0.251 0.89115 0.05283 0.0
C130 C 0.19356 0.90754 0.0317 0.0
C131 C 0.17078 0.8802 0.03644 0.0
C132 C 0.15463 0.89241 0.0567 0.0
C133 C 0.16099 0.93429 0.07118 0.0
C134 C 0.1838 0.96138 0.0665 0.0
H135 H 0.27028 0.87888 0.06012 0.0
H136 H 0.23564 0.88027 0.06634 0.0
H137 H 0.24729 0.87083 0.03526 0.0
H138 H 0.206 0.89674 0.01637 0.0
H139 H 0.16637 0.8484 0.0248 0.0
H140 H 0.16246 0.65088 0.47777 0.0
H141 H 0.20117 0.59862 0.48356 0.0
H142 H 0.17373 0.49864 0.42666 0.0
H143 H 0.13489 0.55043 0.42074 0.0
H144 H 0.19858 0.45116 0.46969 0.0
H145 H 0.25739 0.60385 0.42725 0.0
H146 H 0.23762 0.61996 0.45364 0.0
H147 H 0.22218 0.60186 0.42515 0.0
C148 C 0.16432 0.61719 0.46684 0.0
C149 C 0.14571 0.60522 0.44853 0.0
C150 C 0.18654 0.58751 0.47013 0.0
C151 C 0.19049 0.54534 0.45523 0.0
C152 C 0.17106 0.53122 0.43826 0.0
H153 H 0.31758 0.38632 0.39522 0.0
H154 H 0.28067 0.43978 0.40591 0.0
C155 C 0.14887 0.56091 0.4349 0.0
C156 C 0.21581 0.51854 0.4555 0.0
H157 H 0.27943 0.52963 0.43697 0.0
C158 C 0.21638 0.46841 0.46291 0.0
C159 C 0.2389 0.5412 0.44638 0.0
C160 C 0.23915 0.59456 0.43747 0.0
C161 C 0.23937 0.43995 0.46092 0.0
C162 C 0.26228 0.46237 0.45134 0.0
C163 C 0.26186 0.51281 0.44452 0.0
C164 C 0.2859 0.43269 0.44554 0.0
C165 C 0.23874 0.38552 0.46795 0.0
C166 C 0.30149 0.41201 0.46434 0.0
C167 C 0.32283 0.38155 0.45828 0.0
C168 C 0.32871 0.37117 0.43332 0.0
C169 C 0.31351 0.39337 0.41462 0.0
C170 C 0.29241 0.42397 0.42068 0.0
H171 H 0.21866 0.37246 0.47238 0.0
H172 H 0.24668 0.36238 0.45263 0.0
H173 H 0.25129 0.37944 0.48446 0.0
H174 H 0.29689 0.41879 0.48365 0.0
H175 H 0.33413 0.36486 0.47309 0.0
H176 H 0.66508 0.85618 0.97715 0.0
H177 H 0.70358 0.90565 0.98813 0.0
H178 H 0.69345 0.99377 0.92192 0.0
H179 H 0.65473 0.9455 0.91114 0.0
H180 H 0.74758 0.90882 0.96167 0.0
H181 H 0.71025 0.10084 0.97139 0.0
H182 H 0.68885 0.04729 0.97119 0.0
H183 H 0.70008 0.07421 0.94248 0.0
C184 C 0.67062 0.88698 0.96527 0.0
C185 C 0.65681 0.89679 0.94322 0.0
C186 C 0.6927 0.91511 0.97154 0.0
C187 C 0.70132 0.95375 0.95598 0.0
C188 C 0.68689 0.96496 0.93454 0.0
H189 H 0.85234 0.05451 0.91663 0.0
H190 H 0.81283 0.00686 0.92531 0.0
C191 C 0.66477 0.93705 0.92831 0.0
C192 C 0.72682 0.97875 0.96052 0.0
H193 H 0.75622 0.09296 0.9612 0.0
C194 C 0.74942 0.94911 0.96205 0.0
C195 C 0.72929 0.03125 0.96146 0.0
C196 C 0.70576 0.06516 0.96182 0.0
C197 C 0.77445 0.97055 0.96297 0.0
C198 C 0.77699 0.02303 0.96176 0.0
C199 C 0.75435 0.05269 0.96178 0.0
C200 C 0.80275 0.0479 0.95854 0.0
C201 C 0.7979 0.93667 0.96493 0.0
C202 C 0.81036 0.08695 0.9743 0.0
C203 C 0.8329 0.11473 0.96921 0.0
C204 C 0.84819 0.10413 0.94816 0.0
C205 C 0.84115 0.06354 0.93307 0.0
C206 C 0.81858 0.03599 0.93811 0.0
H207 H 0.79281 0.90127 0.97448 0.0
H208 H 0.8048 0.92706 0.94602 0.0
H209 H 0.8142 0.95482 0.97512 0.0
H210 H 0.79841 0.09695 0.99012 0.0
H211 H 0.83771 0.1458 0.98121 0.0
H212 H 0.64398 0.56163 0.58381 0.0
H213 H 0.68373 0.51355 0.57661 0.0
H214 H 0.69774 0.59544 0.50909 0.0
H215 H 0.65829 0.64489 0.51651 0.0
H216 H 0.70276 0.45379 0.54019 0.0
H217 H 0.76331 0.62519 0.54858 0.0
H218 H 0.7289 0.62437 0.55584 0.0
H219 H 0.73955 0.62641 0.52409 0.0
C220 C 0.65522 0.56895 0.56719 0.0
C221 C 0.64813 0.60766 0.55094 0.0
C222 C 0.678 0.5414 0.56311 0.0
C223 C 0.69408 0.55179 0.54266 0.0
C224 C 0.68601 0.58774 0.52536 0.0
H225 H 0.83217 0.35913 0.52237 0.0
H226 H 0.79281 0.40724 0.51259 0.0
C227 C 0.66331 0.61566 0.52953 0.0
C228 C 0.71995 0.52699 0.54056 0.0
H229 H 0.78569 0.5497 0.54239 0.0
C230 C 0.72092 0.4747 0.5404 0.0
C231 C 0.74362 0.55445 0.54117 0.0
C232 C 0.74394 0.61067 0.54265 0.0
C233 C 0.74483 0.44904 0.54153 0.0
C234 C 0.7685 0.47649 0.54219 0.0
C235 C 0.76755 0.52877 0.54164 0.0
C236 C 0.79419 0.45183 0.546 0.0
C237 C 0.74442 0.39286 0.54331 0.0
C238 C 0.80894 0.46303 0.56724 0.0
C239 C 0.83165 0.43624 0.57268 0.0
C240 C 0.84003 0.3975 0.55702 0.0
C241 C 0.82612 0.38842 0.53495 0.0
C242 C 0.80349 0.41558 0.52942 0.0
H243 H 0.72469 0.37846 0.54816 0.0
H244 H 0.75004 0.37671 0.52515 0.0
H245 H 0.75856 0.3795 0.55746 0.0
H246 H 0.80226 0.49111 0.58022 0.0
H247 H 0.8419 0.44439 0.58977 0.0
H248 H 0.40466 0.19453 0.14308 0.0
H249 H 0.4111 0.18592 0.18795 0.0
H250 H 0.38516 0.33742 0.19853 0.0
H251 H 0.37814 0.34601 0.15402 0.0
H252 H 0.44181 0.23879 0.22164 0.0
H253 H 0.33647 0.25941 0.24368 0.0
H254 H 0.34814 0.2488 0.21256 0.0
H255 H 0.34913 0.31037 0.22579 0.0
C256 C 0.40039 0.22601 0.15498 0.0
C257 C 0.3906 0.27075 0.14505 0.0
C258 C 0.4041 0.22104 0.18058 0.0
C259 C 0.39809 0.26071 0.19658 0.0
C260 C 0.38928 0.30595 0.18657 0.0
H261 H 0.39947 0.31583 0.35412 0.0
H262 H 0.40133 0.32286 0.30893 0.0
C263 C 0.38538 0.31082 0.1611 0.0
C264 C 0.4006 0.25491 0.22378 0.0
H265 H 0.366 0.26366 0.27771 0.0
C266 C 0.42523 0.24387 0.23392 0.0
C267 C 0.37888 0.26128 0.23972 0.0
C268 C 0.35162 0.27012 0.2299 0.0
C269 C 0.42882 0.24045 0.2597 0.0
C270 C 0.40721 0.24808 0.27556 0.0
C271 C 0.38257 0.25844 0.26542 0.0
C272 C 0.40942 0.24467 0.30283 0.0
C273 C 0.45571 0.22972 0.26986 0.0
C274 C 0.41367 0.19845 0.31427 0.0
C275 C 0.41248 0.19422 0.34007 0.0
C276 C 0.40701 0.23619 0.35483 0.0
C277 C 0.40378 0.28282 0.3433 0.0
C278 C 0.4048 0.28692 0.3175 0.0
H279 H 0.47114 0.23393 0.25551 0.0
H280 H 0.46021 0.25497 0.28561 0.0
H281 H 0.45631 0.19085 0.2769 0.0
H282 H 0.4169 0.16532 0.3032 0.0
H283 H 0.41508 0.15779 0.34837 0.0
H284 H 0.15852 0.71538 0.34872 0.0
H285 H 0.15315 0.72227 0.30393 0.0
H286 H 0.07017 0.74386 0.31335 0.0
H287 H 0.0754 0.73791 0.35843 0.0
H288 H 0.12324 0.66658 0.27114 0.0
H289 H 0.09184 0.86528 0.27212 0.0
H290 H 0.10611 0.83528 0.29885 0.0
H291 H 0.07262 0.82342 0.2907 0.0
C292 C 0.13908 0.72138 0.34133 0.0
C293 C 0.11741 0.72647 0.35717 0.0
C294 C 0.13606 0.72529 0.3157 0.0
C295 C 0.11135 0.73443 0.30536 0.0
C296 C 0.0895 0.73786 0.32101 0.0
H297 H 0.07649 0.77522 0.1469 0.0
H298 H 0.07118 0.76564 0.19189 0.0
C299 C 0.0925 0.73408 0.34673 0.0
C300 C 0.10885 0.74069 0.27818 0.0
H301 H 0.09499 0.82623 0.23308 0.0
C302 C 0.11687 0.70135 0.26282 0.0
C303 C 0.10049 0.78612 0.2674 0.0
C304 C 0.09245 0.83016 0.28305 0.0
C305 C 0.11728 0.70654 0.23696 0.0
C306 C 0.10971 0.7524 0.22625 0.0
C307 C 0.10078 0.79118 0.24147 0.0
C308 C 0.11267 0.76157 0.19938 0.0
C309 C 0.12614 0.66315 0.22126 0.0
C310 C 0.13774 0.7639 0.18897 0.0
C311 C 0.14086 0.7696 0.16344 0.0
C312 C 0.11892 0.77305 0.14782 0.0
C313 C 0.09377 0.77254 0.15843 0.0
C314 C 0.09069 0.76702 0.18408 0.0
H315 H 0.1253 0.6274 0.23164 0.0
H316 H 0.11392 0.6598 0.20432 0.0
H317 H 0.14668 0.6694 0.21537 0.0
H318 H 0.15493 0.76047 0.20059 0.0
H319 H 0.1605 0.7701 0.15592 0.0
H320 H 0.6663 0.77144 0.84101 0.0
H321 H 0.65964 0.76262 0.79641 0.0
H322 H 0.57611 0.76487 0.80714 0.0
H323 H 0.58251 0.7737 0.852 0.0
H324 H 0.62889 0.67973 0.77439 0.0
H325 H 0.59216 0.86932 0.75029 0.0
H326 H 0.61119 0.85773 0.77792 0.0
H327 H 0.57776 0.83782 0.77644 0.0
C328 C 0.64647 0.77064 0.83394 0.0
C329 C 0.62492 0.7732 0.85007 0.0
C330 C 0.64273 0.76549 0.80844 0.0
C331 C 0.61741 0.76326 0.79857 0.0
C332 C 0.5958 0.76699 0.81446 0.0
H333 H 0.57788 0.74091 0.6405 0.0
H334 H 0.57353 0.74443 0.68575 0.0
C335 C 0.59951 0.77195 0.84005 0.0
C336 C 0.61393 0.75456 0.77172 0.0
H337 H 0.59723 0.8121 0.71757 0.0
C338 C 0.62178 0.70848 0.76195 0.0
C339 C 0.60437 0.792 0.75569 0.0
C340 C 0.59596 0.8422 0.76544 0.0
C341 C 0.6209 0.69919 0.73638 0.0
C342 C 0.61253 0.73745 0.72018 0.0
C343 C 0.60371 0.7829 0.73005 0.0
C344 C 0.61468 0.73244 0.69291 0.0
C345 C 0.6291 0.64857 0.72697 0.0
C346 C 0.63925 0.72468 0.68201 0.0
C347 C 0.64179 0.72253 0.65628 0.0
C348 C 0.61983 0.72855 0.6409 0.0
C349 C 0.59516 0.73591 0.65185 0.0
C350 C 0.59264 0.73805 0.67767 0.0
H351 H 0.62669 0.61947 0.74147 0.0
H352 H 0.6176 0.63755 0.71039 0.0
H353 H 0.65008 0.64973 0.72177 0.0
H354 H 0.65661 0.72139 0.6934 0.0
H355 H 0.6611 0.71709 0.64848 0.0
H356 H 0.9181 0.27455 0.64628 0.0
H357 H 0.92413 0.26375 0.69111 0.0
H358 H 0.84051 0.2617 0.70118 0.0
H359 H 0.83424 0.27241 0.65666 0.0
H360 H 0.90306 0.32345 0.73275 0.0
H361 H 0.86789 0.12766 0.73147 0.0
H362 H 0.87875 0.15976 0.70388 0.0
H363 H 0.84667 0.17136 0.71619 0.0
C364 C 0.90101 0.27226 0.65808 0.0
C365 C 0.87568 0.27393 0.64789 0.0
C366 C 0.9045 0.26603 0.68364 0.0
C367 C 0.88276 0.26107 0.69928 0.0
C368 C 0.85752 0.26462 0.68929 0.0
H369 H 0.8387 0.21933 0.84918 0.0
H370 H 0.84352 0.22614 0.80433 0.0
C371 C 0.854 0.27096 0.66385 0.0
C372 C 0.88612 0.25128 0.72606 0.0
H373 H 0.87131 0.16645 0.77106 0.0
C374 C 0.8965 0.28892 0.74118 0.0
C375 C 0.87761 0.20606 0.73684 0.0
C376 C 0.86731 0.16364 0.72127 0.0
C377 C 0.8973 0.28354 0.76708 0.0
C378 C 0.88789 0.23894 0.77794 0.0
C379 C 0.87845 0.20061 0.76267 0.0
C380 C 0.88567 0.23279 0.80514 0.0
C381 C 0.90698 0.32646 0.78267 0.0
C382 C 0.90788 0.2332 0.82044 0.0
C383 C 0.90519 0.22938 0.8462 0.0
C384 C 0.88025 0.22485 0.857 0.0
C385 C 0.85818 0.22292 0.8415 0.0
C386 C 0.86088 0.22679 0.81584 0.0
H387 H 0.90866 0.36147 0.77177 0.0
H388 H 0.89367 0.33315 0.7986 0.0
H389 H 0.9266 0.31726 0.79016 0.0
H390 H 0.92723 0.23683 0.81249 0.0
H391 H 0.92259 0.2308 0.85764 0.0
H392 H 0.44475 0.40454 0.0734 0.0
H393 H 0.47162 0.46414 0.05086 0.0
H394 H 0.47138 0.36762 0.98691 0.0
H395 H 0.44386 0.30757 0.00936 0.0
H396 H 0.52043 0.455 0.02884 0.0
H397 H 0.44355 0.50029 0.95942 0.0
H398 H 0.43661 0.46593 0.98744 0.0
H399 H 0.45226 0.43555 0.96174 0.0
C400 C 0.45048 0.39564 0.05458 0.0
C401 C 0.44194 0.35144 0.04309 0.0
C402 C 0.46589 0.42983 0.04174 0.0
C403 C 0.47309 0.42075 0.01709 0.0
C404 C 0.46556 0.37576 0.00579 0.0
H405 H 0.55925 0.60473 0.91314 0.0
H406 H 0.53336 0.54004 0.93332 0.0
C407 C 0.45005 0.34133 0.01869 0.0
C408 C 0.48806 0.45926 0.00341 0.0
H409 H 0.48402 0.54168 0.95527 0.0
C410 C 0.51252 0.47389 0.01271 0.0
C411 C 0.47761 0.48394 0.98245 0.0
C412 C 0.45098 0.47107 0.97221 0.0
C413 C 0.5269 0.51242 0.00156 0.0
C414 C 0.51628 0.53759 0.98083 0.0
C415 C 0.49199 0.52251 0.97129 0.0
C416 C 0.53045 0.57878 0.96837 0.0
C417 C 0.5535 0.52533 0.01186 0.0
C418 C 0.53672 0.62282 0.98117 0.0
C419 C 0.55159 0.66007 0.96967 0.0
C420 C 0.56033 0.65387 0.94515 0.0
C421 C 0.55298 0.61064 0.9321 0.0
C422 C 0.53816 0.57355 0.94358 0.0
H423 H 0.56144 0.49491 0.02365 0.0
H424 H 0.56762 0.53305 0.9967 0.0
H425 H 0.55188 0.55934 0.02347 0.0
H426 H 0.53044 0.62803 0.00017 0.0
H427 H 0.55683 0.69299 0.98019 0.0
H428 H 0.05771 0.69162 0.01346 0.0
H429 H 0.03351 0.6253 0.99216 0.0
H430 H 0.01631 0.55641 0.06254 0.0
H431 H 0.04004 0.62249 0.08391 0.0
H432 H 0.04695 0.52391 0.99471 0.0
H433 H 0.94545 0.55407 0.0277 0.0
H434 H 0.97048 0.60134 0.03008 0.0
H435 H 0.96916 0.55124 0.05221 0.0
C436 C 0.04825 0.663 0.02442 0.0
C437 C 0.05081 0.66231 0.05038 0.0
C438 C 0.03455 0.62501 0.01222 0.0
C439 C 0.02297 0.58615 0.02579 0.0
C440 C 0.0247 0.58646 0.05173 0.0
H441 H 0.94399 0.30819 0.99017 0.0
H442 H 0.96844 0.37477 0.011 0.0
C443 C 0.0384 0.62422 0.06391 0.0
C444 C 0.01085 0.54316 0.01291 0.0
H445 H 0.95425 0.47638 0.00802 0.0
C446 C 0.02663 0.51371 0.99744 0.0
C447 C 0.98441 0.52972 0.01672 0.0
C448 C 0.9663 0.56098 0.0324 0.0
C449 C 0.01677 0.47063 0.98598 0.0
C450 C 0.99036 0.45712 0.98984 0.0
C451 C 0.97457 0.48661 0.00528 0.0
C452 C 0.97827 0.41387 0.97717 0.0
C453 C 0.03483 0.43941 0.97023 0.0
C454 C 0.9761 0.41342 0.95126 0.0
C455 C 0.96223 0.37554 0.93935 0.0
C456 C 0.95011 0.33745 0.95312 0.0
C457 C 0.9532 0.33683 0.97903 0.0
C458 C 0.96704 0.37494 0.99096 0.0
H459 H 0.05571 0.44679 0.97461 0.0
H460 H 0.03087 0.39902 0.97281 0.0
H461 H 0.03161 0.44862 0.9504 0.0
H462 H 0.98425 0.44349 0.94029 0.0
H463 H 0.9602 0.37719 0.91937 0.0
H464 H 0.52789 0.86404 0.58015 0.0
H465 H 0.50416 0.93354 0.56141 0.0
H466 H 0.5394 0.90036 0.49065 0.0
H467 H 0.56263 0.82994 0.5091 0.0
H468 H 0.52646 0.01462 0.54158 0.0
H469 H 0.46473 0.92333 0.47042 0.0
H470 H 0.48076 0.8887 0.49476 0.0
H471 H 0.49862 0.9072 0.4675 0.0
C472 C 0.53012 0.87081 0.56046 0.0
C473 C 0.54714 0.84145 0.5461 0.0
C474 C 0.51661 0.91068 0.5498 0.0
C475 C 0.51985 0.92206 0.52459 0.0
C476 C 0.53612 0.89171 0.51001 0.0
H477 H 0.48036 0.17188 0.43061 0.0
H478 H 0.50164 0.10141 0.45109 0.0
C479 C 0.54946 0.85148 0.52061 0.0
C480 C 0.50798 0.96798 0.51413 0.0
H481 H 0.4696 0.01175 0.4671 0.0
C482 C 0.51383 0.01391 0.52543 0.0
C483 C 0.49152 0.96707 0.49304 0.0
C484 C 0.48331 0.91888 0.48087 0.0
C485 C 0.50407 0.05894 0.51592 0.0
C486 C 0.48809 0.05797 0.49461 0.0
C487 C 0.48207 0.01221 0.48337 0.0
C488 C 0.47714 0.10404 0.48372 0.0
C489 C 0.51125 0.10739 0.52838 0.0
C490 C 0.45671 0.12941 0.49561 0.0
C491 C 0.4444 0.16963 0.48394 0.0
C492 C 0.45238 0.18513 0.46018 0.0
C493 C 0.47375 0.16106 0.44891 0.0
C494 C 0.48588 0.12063 0.46052 0.0
H495 H 0.52691 0.10246 0.54244 0.0
H496 H 0.51786 0.13506 0.51439 0.0
H497 H 0.49373 0.12294 0.53774 0.0
H498 H 0.44962 0.11686 0.51348 0.0
H499 H 0.42799 0.18727 0.49311 0.0
H500 H 0.94824 0.11786 0.58315 0.0
H501 H 0.97374 0.05422 0.56185 0.0
H502 H 0.96515 0.13416 0.49295 0.0
H503 H 0.93914 0.19811 0.51416 0.0
H504 H 0.95162 0.03298 0.48998 0.0
H505 H 0.04831 0.05621 0.5351 0.0
H506 H 0.0218 0.04979 0.55668 0.0
H507 H 0.02312 0.10329 0.5366 0.0
C508 C 0.95208 0.12247 0.56353 0.0
C509 C 0.94164 0.16309 0.55034 0.0
C510 C 0.9668 0.0861 0.55141 0.0
C511 C 0.97157 0.08972 0.52589 0.0
C512 C 0.96178 0.13086 0.51271 0.0
H513 H 0.04616 0.89453 0.41961 0.0
H514 H 0.02063 0.95922 0.44016 0.0
C515 C 0.94704 0.16745 0.52487 0.0
C516 C 0.98519 0.04867 0.5128 0.0
H517 H 0.04194 0.9817 0.51182 0.0
C518 C 0.97145 0.022 0.49458 0.0
C519 C 0.01096 0.0342 0.51902 0.0
C520 C 0.02702 0.06263 0.53776 0.0
C521 C 0.98264 0.98058 0.48272 0.0
C522 C 0.00836 0.96597 0.48903 0.0
C523 C 0.02213 0.99275 0.50718 0.0
C524 C 0.02184 0.92433 0.4763 0.0
C525 C 0.96664 0.95218 0.46392 0.0
C526 C 0.03103 0.88315 0.48983 0.0
C527 C 0.04574 0.84597 0.47812 0.0
C528 C 0.05174 0.84975 0.45275 0.0
C529 C 0.04187 0.8904 0.43917 0.0
C530 C 0.02714 0.92736 0.45085 0.0
H531 H 0.94538 0.95939 0.46615 0.0
H532 H 0.97238 0.96419 0.445 0.0
H533 H 0.97015 0.91143 0.46545 0.0
H534 H 0.02722 0.88029 0.50953 0.0
H535 H 0.05316 0.81528 0.48911 0.0
H536 H 0.18625 0.66547 0.01691 0.0
H537 H 0.21616 0.59409 0.01843 0.0
H538 H 0.18206 0.54743 0.08773 0.0
H539 H 0.15225 0.61869 0.08659 0.0
H540 H 0.25071 0.57259 0.06675 0.0
H541 H 0.18301 0.42303 0.03461 0.0
H542 H 0.17917 0.48727 0.0251 0.0
H543 H 0.17106 0.46915 0.05613 0.0
C544 C 0.18503 0.63989 0.03241 0.0
C545 C 0.16696 0.64772 0.05166 0.0
C546 C 0.20208 0.59925 0.03322 0.0
C547 C 0.20104 0.56566 0.05309 0.0
C548 C 0.1829 0.57297 0.07218 0.0
H549 H 0.28474 0.29567 0.09137 0.0
H550 H 0.25254 0.36277 0.08721 0.0
C551 C 0.16601 0.61376 0.07152 0.0
C552 C 0.21976 0.52415 0.05457 0.0
H553 H 0.22534 0.39841 0.04701 0.0
C554 C 0.24531 0.53449 0.06235 0.0
C555 C 0.2123 0.47472 0.0491 0.0
C556 C 0.18493 0.46246 0.04066 0.0
C557 C 0.26374 0.49626 0.06505 0.0
C558 C 0.2565 0.44672 0.05912 0.0
C559 C 0.23083 0.43645 0.05142 0.0
C560 C 0.27537 0.40514 0.06078 0.0
C561 C 0.29056 0.50916 0.07486 0.0
C562 C 0.2985 0.40626 0.04684 0.0
C563 C 0.31698 0.36841 0.04936 0.0
C564 C 0.31245 0.32829 0.06558 0.0
C565 C 0.28879 0.3262 0.0788 0.0
C566 C 0.2704 0.36443 0.07643 0.0
H567 H 0.29046 0.54507 0.08514 0.0
H568 H 0.29805 0.47953 0.08736 0.0
H569 H 0.30433 0.51304 0.05907 0.0
H570 H 0.30237 0.43668 0.03414 0.0
H571 H 0.33487 0.37073 0.03867 0.0
H572 H 0.30557 0.17392 0.48019 0.0
H573 H 0.2751 0.10364 0.47912 0.0
H574 H 0.31105 0.05065 0.41175 0.0
H575 H 0.34121 0.12126 0.41235 0.0
H576 H 0.25777 0.05091 0.40917 0.0
H577 H 0.29106 0.95879 0.49572 0.0
H578 H 0.28184 0.02283 0.49987 0.0
H579 H 0.30954 0.00763 0.48077 0.0
C580 C 0.30703 0.14723 0.46518 0.0
C581 C 0.32584 0.15301 0.4464 0.0
C582 C 0.28973 0.10695 0.46469 0.0
C583 C 0.29116 0.07155 0.4456 0.0
C584 C 0.30975 0.07748 0.42671 0.0
H585 H 0.21514 0.78201 0.44341 0.0
H586 H 0.24677 0.85047 0.44406 0.0
C587 C 0.32695 0.11784 0.4271 0.0
C588 C 0.27281 0.029 0.44485 0.0
H589 H 0.25191 0.92765 0.47755 0.0
C590 C 0.25654 0.02381 0.42406 0.0
C591 C 0.27157 0.9934 0.46416 0.0
C592 C 0.2896 0.99553 0.48628 0.0
C593 C 0.23869 0.98434 0.42223 0.0
C594 C 0.23673 0.94985 0.44198 0.0
C595 C 0.25332 0.9545 0.46257 0.0
C596 C 0.21757 0.90864 0.44161 0.0
C597 C 0.22239 0.97954 0.39902 0.0
C598 C 0.19071 0.91884 0.44036 0.0
C599 C 0.17263 0.87992 0.43984 0.0
C600 C 0.18109 0.83008 0.44086 0.0
C601 C 0.20801 0.82 0.44255 0.0
C602 C 0.2261 0.85901 0.44294 0.0
H603 H 0.23128 -2e-05 0.3832 0.0
H604 H 0.21991 0.93984 0.39367 0.0
H605 H 0.20273 0.99563 0.40245 0.0
H606 H 0.18372 0.95695 0.43989 0.0
H607 H 0.15201 0.88895 0.43875 0.0
H608 H 0.72214 0.71647 0.93975 0.0
H609 H 0.75201 0.64511 0.94077 0.0
H610 H 0.68653 0.54474 0.93351 0.0
H611 H 0.65665 0.6155 0.93199 0.0
H612 H 0.75362 0.56572 0.97378 0.0
H613 H 0.7349 0.49932 0.87801 0.0
H614 H 0.72488 0.56019 0.88866 0.0
H615 H 0.70567 0.50601 0.89613 0.0
C616 C 0.71413 0.6792 0.93827 0.0
C617 C 0.68707 0.67162 0.93559 0.0
C618 C 0.7312 0.63855 0.93888 0.0
C619 C 0.72147 0.58982 0.93676 0.0
C620 C 0.69446 0.58214 0.93456 0.0
H621 H 0.78605 0.29261 0.94375 0.0
H622 H 0.75771 0.36623 0.94368 0.0
C623 C 0.67742 0.62265 0.93383 0.0
C624 C 0.73945 0.54675 0.93737 0.0
H625 H 0.75842 0.44421 0.90453 0.0
C626 C 0.75485 0.53933 0.95858 0.0
C627 C 0.74097 0.51253 0.91746 0.0
C628 C 0.72592 0.52008 0.89368 0.0
C629 C 0.77133 0.49776 0.96066 0.0
C630 C 0.77245 0.46318 0.94095 0.0
C631 C 0.75726 0.47078 0.91966 0.0
C632 C 0.7896 0.41909 0.94187 0.0
C633 C 0.78705 0.49048 0.98405 0.0
C634 C 0.81679 0.42481 0.94073 0.0
C635 C 0.833 0.383 0.94063 0.0
C636 C 0.82223 0.33478 0.94169 0.0
C637 C 0.79493 0.32925 0.94299 0.0
C638 C 0.77872 0.37115 0.94293 0.0
H639 H 0.78031 0.51524 0.99927 0.0
H640 H 0.78585 0.45114 0.9904 0.0
H641 H 0.8079 0.49899 0.98022 0.0
H642 H 0.82545 0.46162 0.93959 0.0
H643 H 0.85396 0.38851 0.93961 0.0
H644 H 0.71515 0.78532 0.55539 0.0
H645 H 0.7462 0.8547 0.55401 0.0
H646 H 0.6821 0.95915 0.5518 0.0
H647 H 0.65096 0.89025 0.55379 0.0
H648 H 0.75327 0.92769 0.51917 0.0
H649 H 0.72515 0.0107 0.6095 0.0
H650 H 0.71473 0.94928 0.60008 0.0
H651 H 0.69815 0.00371 0.58854 0.0
C652 C 0.70767 0.82307 0.55466 0.0
C653 C 0.68062 0.83237 0.55493 0.0
C654 C 0.72542 0.86261 0.55385 0.0
C655 C 0.71641 0.912 0.55325 0.0
C656 C 0.68943 0.92133 0.55288 0.0
H657 H 0.80784 0.17386 0.51398 0.0
H658 H 0.77721 0.10375 0.51422 0.0
C659 C 0.67168 0.8819 0.5539 0.0
C660 C 0.73524 0.9538 0.55284 0.0
H661 H 0.75336 0.05895 0.58398 0.0
C662 C 0.7534 0.95633 0.53337 0.0
C663 C 0.73552 0.99066 0.57159 0.0
C664 C 0.71753 0.98832 0.59374 0.0
C665 C 0.77167 0.99523 0.53196 0.0
C666 C 0.77132 0.03303 0.55024 0.0
C667 C 0.75337 0.03015 0.56985 0.0
C668 C 0.78987 0.0753 0.54982 0.0
C669 C 0.7915 0.99491 0.51124 0.0
C670 C 0.8066 0.08321 0.57004 0.0
C671 C 0.82384 0.12349 0.5701 0.0
C672 C 0.82466 0.15661 0.54991 0.0
C673 C 0.80779 0.14877 0.52971 0.0
C674 C 0.7904 0.10858 0.52975 0.0
H675 H 0.79365 0.95719 0.50296 0.0
H676 H 0.78497 0.02069 0.49639 0.0
H677 H 0.81094 0.00758 0.51791 0.0
H678 H 0.80638 0.05804 0.58575 0.0
H679 H 0.83659 0.12848 0.58595 0.0
loop_
_geom_bond_atom_site_label_1
_geom_bond_atom_site_label_2
_geom_bond_distance
_geom_bond_site_symmetry_2
_ccdc_geom_bond_type
C0 O1 1.160 . S
C0 O7 1.185 . S
O1 C0 1.160 . S
O2 Zn3 1.899 . S
O2 C10 1.284 . S
Zn3 O2 1.899 . S
Zn3 O4 2.032 . S
Zn3 O7 2.086 . S
Zn3 O12 1.977 . S
O4 Zn3 2.032 . S
O4 C8 1.278 . S
C5 O6 1.203 . S
C5 O12 1.267 . S
O6 C5 1.203 . S
O7 C0 1.185 . S
O7 Zn3 2.086 . S
C8 O4 1.278 . S
C8 O9 1.211 . S
O9 C8 1.211 . S
C10 O2 1.284 . S
C10 O11 1.273 . S
O11 C10 1.273 . S
O12 Zn3 1.977 . S
O12 C5 1.267 . S
C13 O14 1.160 . S
C13 O20 1.185 . S
O14 C13 1.160 . S
O15 Zn16 1.899 . S
O15 C23 1.284 . S
Zn16 O15 1.899 . S
Zn16 O17 2.032 . S
Zn16 O20 2.086 . S
Zn16 O25 1.977 . S
O17 Zn16 2.032 . S
O17 C21 1.278 . S
C18 O19 1.203 . S
C18 O25 1.267 . S
O19 C18 1.203 . S
O20 C13 1.185 . S
O20 Zn16 2.086 . S
C21 O17 1.278 . S
C21 O22 1.211 . S
O22 C21 1.211 . S
C23 O15 1.284 . S
C23 O24 1.273 . S
O24 C23 1.273 . S
O25 Zn16 1.977 . S
O25 C18 1.267 . S
C26 O27 1.160 . S
C26 O33 1.185 . S
O27 C26 1.160 . S
O28 Zn29 1.899 . S
O28 C36 1.284 . S
Zn29 O28 1.899 . S
Zn29 O30 2.032 . S
Zn29 O33 2.086 . S
Zn29 O38 1.977 . S
O30 Zn29 2.032 . S
O30 C34 1.278 . S
C31 O32 1.203 . S
C31 O38 1.267 . S
O32 C31 1.203 . S
O33 C26 1.185 . S
O33 Zn29 2.086 . S
C34 O30 1.278 . S
C34 O35 1.211 . S
O35 C34 1.211 . S
C36 O28 1.284 . S
C36 O37 1.273 . S
O37 C36 1.273 . S
O38 Zn29 1.977 . S
O38 C31 1.267 . S
C39 O40 1.160 . S
C39 O46 1.185 . S
O40 C39 1.160 . S
O41 Zn42 1.899 . S
O41 C49 1.284 . S
Zn42 O41 1.899 . S
Zn42 O43 2.032 . S
Zn42 O46 2.086 . S
Zn42 O51 1.977 . S
O43 Zn42 2.032 . S
O43 C47 1.278 . S
C44 O45 1.203 . S
C44 O51 1.267 . S
O45 C44 1.203 . S
O46 C39 1.185 . S
O46 Zn42 2.086 . S
C47 O43 1.278 . S
C47 O48 1.211 . S
O48 C47 1.211 . S
C49 O41 1.284 . S
C49 O50 1.273 . S
O50 C49 1.273 . S
O51 Zn42 1.977 . S
O51 C44 1.267 . S
C52 O53 1.160 . S
C52 O59 1.185 . S
O53 C52 1.160 . S
O54 Zn55 1.899 . S
O54 C62 1.284 . S
Zn55 O54 1.899 . S
Zn55 O56 2.032 . S
Zn55 O59 2.086 . S
Zn55 O64 1.977 . S
O56 Zn55 2.032 . S
O56 C60 1.278 . S
C57 O58 1.203 . S
C57 O64 1.267 . S
O58 C57 1.203 . S
O59 C52 1.185 . S
O59 Zn55 2.086 . S
C60 O56 1.278 . S
C60 O61 1.211 . S
O61 C60 1.211 . S
C62 O54 1.284 . S
C62 O63 1.273 . S
O63 C62 1.273 . S
O64 Zn55 1.977 . S
O64 C57 1.267 . S
C65 O66 1.160 . S
C65 O72 1.185 . S
O66 C65 1.160 . S
O67 Zn68 1.899 . S
O67 C75 1.284 . S
Zn68 O67 1.899 . S
Zn68 O69 2.032 . S
Zn68 O72 2.086 . S
Zn68 O77 1.977 . S
O69 Zn68 2.032 . S
O69 C73 1.278 . S
C70 O71 1.203 . S
C70 O77 1.267 . S
O71 C70 1.203 . S
O72 C65 1.185 . S
O72 Zn68 2.086 . S
C73 O69 1.278 . S
C73 O74 1.211 . S
O74 C73 1.211 . S
C75 O67 1.284 . S
C75 O76 1.273 . S
O76 C75 1.273 . S
O77 Zn68 1.977 . S
O77 C70 1.267 . S
C78 O79 1.160 . S
C78 O85 1.185 . S
O79 C78 1.160 . S
O80 Zn81 1.899 . S
O80 C88 1.284 . S
Zn81 O80 1.899 . S
Zn81 O82 2.032 . S
Zn81 O85 2.086 . S
Zn81 O90 1.977 . S
O82 Zn81 2.032 . S
O82 C86 1.278 . S
C83 O84 1.203 . S
C83 O90 1.267 . S
O84 C83 1.203 . S
O85 C78 1.185 . S
O85 Zn81 2.086 . S
C86 O82 1.278 . S
C86 O87 1.211 . S
O87 C86 1.211 . S
C88 O80 1.284 . S
C88 O89 1.273 . S
O89 C88 1.273 . S
O90 Zn81 1.977 . S
O90 C83 1.267 . S
C91 O92 1.160 . S
C91 O98 1.185 . S
O92 C91 1.160 . S
O93 Zn94 1.899 . S
O93 C101 1.284 . S
Zn94 O93 1.899 . S
Zn94 O95 2.032 . S
Zn94 O98 2.086 . S
Zn94 O103 1.977 . S
O95 Zn94 2.032 . S
O95 C99 1.278 . S
C96 O97 1.203 . S
C96 O103 1.267 . S
O97 C96 1.203 . S
O98 C91 1.185 . S
O98 Zn94 2.086 . S
C99 O95 1.278 . S
C99 O100 1.211 . S
O100 C99 1.211 . S
C101 O93 1.284 . S
C101 O102 1.273 . S
O102 C101 1.273 . S
O103 Zn94 1.977 . S
O103 C96 1.267 . S
H104 C112 0.929 . S
H105 C114 0.930 . S
H106 C116 0.930 . S
H107 C119 0.929 . S
H108 C122 0.930 . S
H109 C124 0.960 . S
H110 C124 0.960 . S
H111 C124 0.960 . S
C112 H104 0.929 . S
C112 C113 1.377 . S
C112 C114 1.384 . S
C113 C112 1.377 . S
C113 C119 1.390 . S
C114 H105 0.930 . S
C114 C112 1.384 . S
C114 C115 1.372 . S
C115 C114 1.372 . S
C115 C116 1.400 . S
C115 C120 1.490 . S
C116 H106 0.930 . S
C116 C115 1.400 . S
C116 C119 1.386 . S
H117 C133 0.930 . S
H118 C134 0.931 . S
C119 H107 0.929 . S
C119 C113 1.390 . S
C119 C116 1.386 . S
C120 C115 1.490 . S
C120 C122 1.395 1_545 S
C120 C123 1.403 . S
H121 C127 0.930 . S
C122 H108 0.930 . S
C122 C120 1.395 1_565 S
C122 C125 1.403 . S
C123 C120 1.403 . S
C123 C124 1.524 . S
C123 C127 1.400 . S
C124 H109 0.960 . S
C124 H110 0.960 . S
C124 H111 0.960 . S
C124 C123 1.524 . S
C125 C122 1.403 . S
C125 C126 1.392 . S
C125 C129 1.495 . S
C126 C125 1.392 . S
C126 C127 1.385 1_565 S
C126 C128 1.478 . S
C127 H121 0.930 . S
C127 C123 1.400 . S
C127 C126 1.385 1_545 S
C128 C126 1.478 . S
C128 C130 1.381 . S
C128 C134 1.383 . S
C129 C125 1.495 . S
C129 H135 0.959 . S
C129 H136 0.961 . S
C129 H137 0.960 . S
C130 C128 1.381 . S
C130 C131 1.394 . S
C130 H138 0.930 . S
C131 C130 1.394 . S
C131 C132 1.383 . S
C131 H139 0.929 . S
C132 C131 1.383 . S
C132 C133 1.377 . S
C133 H117 0.930 . S
C133 C132 1.377 . S
C133 C134 1.379 . S
C134 H118 0.931 . S
C134 C128 1.383 . S
C134 C133 1.379 . S
H135 C129 0.959 . S
H136 C129 0.961 . S
H137 C129 0.960 . S
H138 C130 0.930 . S
H139 C131 0.929 . S
H140 C148 0.929 . S
H141 C150 0.930 . S
H142 C152 0.930 . S
H143 C155 0.929 . S
H144 C158 0.930 . S
H145 C160 0.960 . S
H146 C160 0.960 . S
H147 C160 0.960 . S
C148 H140 0.929 . S
C148 C149 1.377 . S
C148 C150 1.384 . S
C149 C148 1.377 . S
C149 C155 1.390 . S
C150 H141 0.930 . S
C150 C148 1.384 . S
C150 C151 1.372 . S
C151 C150 1.372 . S
C151 C152 1.400 . S
C151 C156 1.490 . S
C152 H142 0.930 . S
C152 C151 1.400 . S
C152 C155 1.386 . S
H153 C169 0.930 . S
H154 C170 0.931 . S
C155 H143 0.929 . S
C155 C149 1.390 . S
C155 C152 1.386 . S
C156 C151 1.490 . S
C156 C158 1.395 . S
C156 C159 1.403 . S
H157 C163 0.930 . S
C158 H144 0.930 . S
C158 C156 1.395 . S
C158 C161 1.403 . S
C159 C156 1.403 . S
C159 C160 1.524 . S
C159 C163 1.400 . S
C160 H145 0.960 . S
C160 H146 0.960 . S
C160 H147 0.960 . S
C160 C159 1.524 . S
C161 C158 1.403 . S
C161 C162 1.392 . S
C161 C165 1.495 . S
C162 C161 1.392 . S
C162 C163 1.385 . S
C162 C164 1.478 . S
C163 H157 0.930 . S
C163 C159 1.400 . S
C163 C162 1.385 . S
C164 C162 1.478 . S
C164 C166 1.381 . S
C164 C170 1.383 . S
C165 C161 1.495 . S
C165 H171 0.959 . S
C165 H172 0.961 . S
C165 H173 0.960 . S
C166 C164 1.381 . S
C166 C167 1.394 . S
C166 H174 0.930 . S
C167 C166 1.394 . S
C167 C168 1.383 . S
C167 H175 0.929 . S
C168 C167 1.383 . S
C168 C169 1.377 . S
C169 H153 0.930 . S
C169 C168 1.377 . S
C169 C170 1.379 . S
C170 H154 0.931 . S
C170 C164 1.383 . S
C170 C169 1.379 . S
H171 C165 0.959 . S
H172 C165 0.961 . S
H173 C165 0.960 . S
H174 C166 0.930 . S
H175 C167 0.929 . S
H176 C184 0.929 . S
H177 C186 0.930 . S
H178 C188 0.930 . S
H179 C191 0.929 . S
H180 C194 0.930 . S
H181 C196 0.960 . S
H182 C196 0.960 . S
H183 C196 0.960 . S
C184 H176 0.929 . S
C184 C185 1.377 . S
C184 C186 1.384 . S
C185 C184 1.377 . S
C185 C191 1.390 . S
C186 H177 0.930 . S
C186 C184 1.384 . S
C186 C187 1.372 . S
C187 C186 1.372 . S
C187 C188 1.400 . S
C187 C192 1.490 . S
C188 H178 0.930 . S
C188 C187 1.400 . S
C188 C191 1.386 . S
H189 C205 0.930 . S
H190 C206 0.931 . S
C191 H179 0.929 . S
C191 C185 1.390 . S
C191 C188 1.386 . S
C192 C187 1.490 . S
C192 C194 1.395 . S
C192 C195 1.403 1_565 S
H193 C199 0.930 . S
C194 H180 0.930 . S
C194 C192 1.395 . S
C194 C197 1.403 . S
C195 C192 1.403 1_545 S
C195 C196 1.524 . S
C195 C199 1.400 . S
C196 H181 0.960 . S
C196 H182 0.960 . S
C196 H183 0.960 . S
C196 C195 1.524 . S
C197 C194 1.403 . S
C197 C198 1.392 1_565 S
C197 C201 1.495 . S
C198 C197 1.392 1_545 S
C198 C199 1.385 . S
C198 C200 1.478 . S
C199 H193 0.930 . S
C199 C195 1.400 . S
C199 C198 1.385 . S
C200 C198 1.478 . S
C200 C202 1.381 . S
C200 C206 1.383 . S
C201 C197 1.495 . S
C201 H207 0.959 . S
C201 H208 0.961 . S
C201 H209 0.960 . S
C202 C200 1.381 . S
C202 C203 1.394 . S
C202 H210 0.930 . S
C203 C202 1.394 . S
C203 C204 1.383 . S
C203 H211 0.929 . S
C204 C203 1.383 . S
C204 C205 1.377 . S
C205 H189 0.930 . S
C205 C204 1.377 . S
C205 C206 1.379 . S
C206 H190 0.931 . S
C206 C200 1.383 . S
C206 C205 1.379 . S
H207 C201 0.959 . S
H208 C201 0.961 . S
H209 C201 0.960 . S
H210 C202 0.930 . S
H211 C203 0.929 . S
H212 C220 0.929 . S
H213 C222 0.930 . S
H214 C224 0.930 . S
H215 C227 0.929 . S
H216 C230 0.930 . S
H217 C232 0.960 . S
H218 C232 0.960 . S
H219 C232 0.960 . S
C220 H212 0.929 . S
C220 C221 1.377 . S
C220 C222 1.384 . S
C221 C220 1.377 . S
C221 C227 1.390 . S
C222 H213 0.930 . S
C222 C220 1.384 . S
C222 C223 1.372 . S
C223 C222 1.372 . S
C223 C224 1.400 . S
C223 C228 1.490 . S
C224 H214 0.930 . S
C224 C223 1.400 . S
C224 C227 1.386 . S
H225 C241 0.930 . S
H226 C242 0.931 . S
C227 H215 0.929 . S
C227 C221 1.390 . S
C227 C224 1.386 . S
C228 C223 1.490 . S
C228 C230 1.395 . S
C228 C231 1.403 . S
H229 C235 0.930 . S
C230 H216 0.930 . S
C230 C228 1.395 . S
C230 C233 1.403 . S
C231 C228 1.403 . S
C231 C232 1.524 . S
C231 C235 1.400 . S
C232 H217 0.960 . S
C232 H218 0.960 . S
C232 H219 0.960 . S
C232 C231 1.524 . S
C233 C230 1.403 . S
C233 C234 1.392 . S
C233 C237 1.495 . S
C234 C233 1.392 . S
C234 C235 1.385 . S
C234 C236 1.478 . S
C235 H229 0.930 . S
C235 C231 1.400 . S
C235 C234 1.385 . S
C236 C234 1.478 . S
C236 C238 1.381 . S
C236 C242 1.383 . S
C237 C233 1.495 . S
C237 H243 0.959 . S
C237 H244 0.961 . S
C237 H245 0.960 . S
C238 C236 1.381 . S
C238 C239 1.394 . S
C238 H246 0.930 . S
C239 C238 1.394 . S
C239 C240 1.383 . S
C239 H247 0.929 . S
C240 C239 1.383 . S
C240 C241 1.377 . S
C241 H225 0.930 . S
C241 C240 1.377 . S
C241 C242 1.379 . S
C242 H226 0.931 . S
C242 C236 1.383 . S
C242 C241 1.379 . S
H243 C237 0.959 . S
H244 C237 0.961 . S
H245 C237 0.960 . S
H246 C238 0.930 . S
H247 C239 0.929 . S
H248 C256 0.929 . S
H249 C258 0.930 . S
H250 C260 0.930 . S
H251 C263 0.929 . S
H252 C266 0.930 . S
H253 C268 0.960 . S
H254 C268 0.960 . S
H255 C268 0.960 . S
C256 H248 0.929 . S
C256 C257 1.377 . S
C256 C258 1.384 . S
C257 C256 1.377 . S
C257 C263 1.390 . S
C258 H249 0.930 . S
C258 C256 1.384 . S
C258 C259 1.372 . S
C259 C258 1.372 . S
C259 C260 1.400 . S
C259 C264 1.490 . S
C260 H250 0.930 . S
C260 C259 1.400 . S
C260 C263 1.386 . S
H261 C277 0.930 . S
H262 C278 0.931 . S
C263 H251 0.929 . S
C263 C257 1.390 . S
C263 C260 1.386 . S
C264 C259 1.490 . S
C264 C266 1.395 . S
C264 C267 1.403 . S
H265 C271 0.930 . S
C266 H252 0.930 . S
C266 C264 1.395 . S
C266 C269 1.403 . S
C267 C264 1.403 . S
C267 C268 1.524 . S
C267 C271 1.400 . S
C268 H253 0.960 . S
C268 H254 0.960 . S
C268 H255 0.960 . S
C268 C267 1.524 . S
C269 C266 1.403 . S
C269 C270 1.392 . S
C269 C273 1.495 . S
C270 C269 1.392 . S
C270 C271 1.385 . S
C270 C272 1.478 . S
C271 H265 0.930 . S
C271 C267 1.400 . S
C271 C270 1.385 . S
C272 C270 1.478 . S
C272 C274 1.381 . S
C272 C278 1.383 . S
C273 C269 1.495 . S
C273 H279 0.959 . S
C273 H280 0.961 . S
C273 H281 0.960 . S
C274 C272 1.381 . S
C274 C275 1.394 . S
C274 H282 0.930 . S
C275 C274 1.394 . S
C275 C276 1.383 . S
C275 H283 0.929 . S
C276 C275 1.383 . S
C276 C277 1.377 . S
C277 H261 0.930 . S
C277 C276 1.377 . S
C277 C278 1.379 . S
C278 H262 0.931 . S
C278 C272 1.383 . S
C278 C277 1.379 . S
H279 C273 0.959 . S
H280 C273 0.961 . S
H281 C273 0.960 . S
H282 C274 0.930 . S
H283 C275 0.929 . S
H284 C292 0.929 . S
H285 C294 0.930 . S
H286 C296 0.930 . S
H287 C299 0.929 . S
H288 C302 0.930 . S
H289 C304 0.960 . S
H290 C304 0.960 . S
H291 C304 0.960 . S
C292 H284 0.929 . S
C292 C293 1.377 . S
C292 C294 1.384 . S
C293 C292 1.377 . S
C293 C299 1.390 . S
C294 H285 0.930 . S
C294 C292 1.384 . S
C294 C295 1.372 . S
C295 C294 1.372 . S
C295 C296 1.400 . S
C295 C300 1.490 . S
C296 H286 0.930 . S
C296 C295 1.400 . S
C296 C299 1.386 . S
H297 C313 0.930 . S
H298 C314 0.931 . S
C299 H287 0.929 . S
C299 C293 1.390 . S
C299 C296 1.386 . S
C300 C295 1.490 . S
C300 C302 1.395 . S
C300 C303 1.403 . S
H301 C307 0.930 . S
C302 H288 0.930 . S
C302 C300 1.395 . S
C302 C305 1.403 . S
C303 C300 1.403 . S
C303 C304 1.524 . S
C303 C307 1.400 . S
C304 H289 0.960 . S
C304 H290 0.960 . S
C304 H291 0.960 . S
C304 C303 1.524 . S
C305 C302 1.403 . S
C305 C306 1.392 . S
C305 C309 1.495 . S
C306 C305 1.392 . S
C306 C307 1.385 . S
C306 C308 1.478 . S
C307 H301 0.930 . S
C307 C303 1.400 . S
C307 C306 1.385 . S
C308 C306 1.478 . S
C308 C310 1.381 . S
C308 C314 1.383 . S
C309 C305 1.495 . S
C309 H315 0.959 . S
C309 H316 0.961 . S
C309 H317 0.960 . S
C310 C308 1.381 . S
C310 C311 1.394 . S
C310 H318 0.930 . S
C311 C310 1.394 . S
C311 C312 1.383 . S
C311 H319 0.929 . S
C312 C311 1.383 . S
C312 C313 1.377 . S
C313 H297 0.930 . S
C313 C312 1.377 . S
C313 C314 1.379 . S
C314 H298 0.931 . S
C314 C308 1.383 . S
C314 C313 1.379 . S
H315 C309 0.959 . S
H316 C309 0.961 . S
H317 C309 0.960 . S
H318 C310 0.930 . S
H319 C311 0.929 . S
H320 C328 0.929 . S
H321 C330 0.930 . S
H322 C332 0.930 . S
H323 C335 0.929 . S
H324 C338 0.930 . S
H325 C340 0.960 . S
H326 C340 0.960 . S
H327 C340 0.960 . S
C328 H320 0.929 . S
C328 C329 1.377 . S
C328 C330 1.384 . S
C329 C328 1.377 . S
C329 C335 1.390 . S
C330 H321 0.930 . S
C330 C328 1.384 . S
C330 C331 1.372 . S
C331 C330 1.372 . S
C331 C332 1.400 . S
C331 C336 1.490 . S
C332 H322 0.930 . S
C332 C331 1.400 . S
C332 C335 1.386 . S
H333 C349 0.930 . S
H334 C350 0.931 . S
C335 H323 0.929 . S
C335 C329 1.390 . S
C335 C332 1.386 . S
C336 C331 1.490 . S
C336 C338 1.395 . S
C336 C339 1.403 . S
H337 C343 0.930 . S
C338 H324 0.930 . S
C338 C336 1.395 . S
C338 C341 1.403 . S
C339 C336 1.403 . S
C339 C340 1.524 . S
C339 C343 1.400 . S
C340 H325 0.960 . S
C340 H326 0.960 . S
C340 H327 0.960 . S
C340 C339 1.524 . S
C341 C338 1.403 . S
C341 C342 1.392 . S
C341 C345 1.495 . S
C342 C341 1.392 . S
C342 C343 1.385 . S
C342 C344 1.478 . S
C343 H337 0.930 . S
C343 C339 1.400 . S
C343 C342 1.385 . S
C344 C342 1.478 . S
C344 C346 1.381 . S
C344 C350 1.383 . S
C345 C341 1.495 . S
C345 H351 0.959 . S
C345 H352 0.961 . S
C345 H353 0.960 . S
C346 C344 1.381 . S
C346 C347 1.394 . S
C346 H354 0.930 . S
C347 C346 1.394 . S
C347 C348 1.383 . S
C347 H355 0.929 . S
C348 C347 1.383 . S
C348 C349 1.377 . S
C349 H333 0.930 . S
C349 C348 1.377 . S
C349 C350 1.379 . S
C350 H334 0.931 . S
C350 C344 1.383 . S
C350 C349 1.379 . S
H351 C345 0.959 . S
H352 C345 0.961 . S
H353 C345 0.960 . S
H354 C346 0.930 . S
H355 C347 0.929 . S
H356 C364 0.929 . S
H357 C366 0.930 . S
H358 C368 0.930 . S
H359 C371 0.929 . S
H360 C374 0.930 . S
H361 C376 0.960 . S
H362 C376 0.960 . S
H363 C376 0.960 . S
C364 H356 0.929 . S
C364 C365 1.377 . S
C364 C366 1.384 . S
C365 C364 1.377 . S
C365 C371 1.390 . S
C366 H357 0.930 . S
C366 C364 1.384 . S
C366 C367 1.372 . S
C367 C366 1.372 . S
C367 C368 1.400 . S
C367 C372 1.490 . S
C368 H358 0.930 . S
C368 C367 1.400 . S
C368 C371 1.386 . S
H369 C385 0.930 . S
H370 C386 0.931 . S
C371 H359 0.929 . S
C371 C365 1.390 . S
C371 C368 1.386 . S
C372 C367 1.490 . S
C372 C374 1.395 . S
C372 C375 1.403 . S
H373 C379 0.930 . S
C374 H360 0.930 . S
C374 C372 1.395 . S
C374 C377 1.403 . S
C375 C372 1.403 . S
C375 C376 1.524 . S
C375 C379 1.400 . S
C376 H361 0.960 . S
C376 H362 0.960 . S
C376 H363 0.960 . S
C376 C375 1.524 . S
C377 C374 1.403 . S
C377 C378 1.392 . S
C377 C381 1.495 . S
C378 C377 1.392 . S
C378 C379 1.385 . S
C378 C380 1.478 . S
C379 H373 0.930 . S
C379 C375 1.400 . S
C379 C378 1.385 . S
C380 C378 1.478 . S
C380 C382 1.381 . S
C380 C386 1.383 . S
C381 C377 1.495 . S
C381 H387 0.959 . S
C381 H388 0.961 . S
C381 H389 0.960 . S
C382 C380 1.381 . S
C382 C383 1.394 . S
C382 H390 0.930 . S
C383 C382 1.394 . S
C383 C384 1.383 . S
C383 H391 0.929 . S
C384 C383 1.383 . S
C384 C385 1.377 . S
C385 H369 0.930 . S
C385 C384 1.377 . S
C385 C386 1.379 . S
C386 H370 0.931 . S
C386 C380 1.383 . S
C386 C385 1.379 . S
H387 C381 0.959 . S
H388 C381 0.961 . S
H389 C381 0.960 . S
H390 C382 0.930 . S
H391 C383 0.929 . S
H392 C400 0.929 . S
H393 C402 0.930 . S
H394 C404 0.930 . S
H395 C407 0.929 . S
H396 C410 0.930 . S
H397 C412 0.960 . S
H398 C412 0.960 . S
H399 C412 0.960 . S
C400 H392 0.929 . S
C400 C401 1.377 . S
C400 C402 1.384 . S
C401 C400 1.377 . S
C401 C407 1.390 . S
C402 H393 0.930 . S
C402 C400 1.384 . S
C402 C403 1.372 . S
C403 C402 1.372 . S
C403 C404 1.400 . S
C403 C408 1.490 . S
C404 H394 0.930 . S
C404 C403 1.400 . S
C404 C407 1.386 . S
H405 C421 0.930 . S
H406 C422 0.931 . S
C407 H395 0.929 . S
C407 C401 1.390 . S
C407 C404 1.386 . S
C408 C403 1.490 . S
C408 C410 1.395 . S
C408 C411 1.403 1_554 S
H409 C415 0.930 . S
C410 H396 0.930 . S
C410 C408 1.395 . S
C410 C413 1.403 . S
C411 C408 1.403 1_556 S
C411 C412 1.524 . S
C411 C415 1.400 . S
C412 H397 0.960 . S
C412 H398 0.960 . S
C412 H399 0.960 . S
C412 C411 1.524 . S
C413 C410 1.403 . S
C413 C414 1.392 1_554 S
C413 C417 1.495 . S
C414 C413 1.392 1_556 S
C414 C415 1.385 . S
C414 C416 1.478 . S
C415 H409 0.930 . S
C415 C411 1.400 . S
C415 C414 1.385 . S
C416 C414 1.478 . S
C416 C418 1.381 . S
C416 C422 1.383 . S
C417 C413 1.495 . S
C417 H423 0.959 . S
C417 H424 0.961 . S
C417 H425 0.960 . S
C418 C416 1.381 . S
C418 C419 1.394 . S
C418 H426 0.930 . S
C419 C418 1.394 . S
C419 C420 1.383 . S
C419 H427 0.929 . S
C420 C419 1.383 . S
C420 C421 1.377 . S
C421 H405 0.930 . S
C421 C420 1.377 . S
C421 C422 1.379 . S
C422 H406 0.931 . S
C422 C416 1.383 . S
C422 C421 1.379 . S
H423 C417 0.959 . S
H424 C417 0.961 . S
H425 C417 0.960 . S
H426 C418 0.930 . S
H427 C419 0.929 . S
H428 C436 0.929 1_556 S
H429 C438 0.930 . S
H430 C440 0.930 . S
H431 C443 0.929 . S
H432 C446 0.930 . S
H433 C448 0.960 . S
H434 C448 0.960 . S
H435 C448 0.960 . S
C436 H428 0.929 1_554 S
C436 C437 1.377 . S
C436 C438 1.384 1_554 S
C437 C436 1.377 . S
C437 C443 1.390 . S
C438 H429 0.930 . S
C438 C436 1.384 1_556 S
C438 C439 1.372 1_556 S
C439 C438 1.372 1_554 S
C439 C440 1.400 . S
C439 C444 1.490 . S
C440 H430 0.930 . S
C440 C439 1.400 . S
C440 C443 1.386 . S
H441 C457 0.930 1_554 S
H442 C458 0.931 1_554 S
C443 H431 0.929 . S
C443 C437 1.390 . S
C443 C440 1.386 . S
C444 C439 1.490 . S
C444 C446 1.395 1_554 S
C444 C447 1.403 1_455 S
H445 C451 0.930 . S
C446 H432 0.930 . S
C446 C444 1.395 1_556 S
C446 C449 1.403 . S
C447 C444 1.403 1_655 S
C447 C448 1.524 . S
C447 C451 1.400 . S
C448 H433 0.960 . S
C448 H434 0.960 . S
C448 H435 0.960 . S
C448 C447 1.524 . S
C449 C446 1.403 . S
C449 C450 1.392 1_455 S
C449 C453 1.495 . S
C450 C449 1.392 1_655 S
C450 C451 1.385 1_556 S
C450 C452 1.478 . S
C451 H445 0.930 . S
C451 C447 1.400 . S
C451 C450 1.385 1_554 S
C452 C450 1.478 . S
C452 C454 1.381 . S
C452 C458 1.383 . S
C453 C449 1.495 . S
C453 H459 0.959 . S
C453 H460 0.961 . S
C453 H461 0.960 . S
C454 C452 1.381 . S
C454 C455 1.394 . S
C454 H462 0.930 . S
C455 C454 1.394 . S
C455 C456 1.383 . S
C455 H463 0.929 . S
C456 C455 1.383 . S
C456 C457 1.377 . S
C457 H441 0.930 1_556 S
C457 C456 1.377 . S
C457 C458 1.379 . S
C458 H442 0.931 1_556 S
C458 C452 1.383 . S
C458 C457 1.379 . S
H459 C453 0.959 . S
H460 C453 0.961 . S
H461 C453 0.960 . S
H462 C454 0.930 . S
H463 C455 0.929 . S
H464 C472 0.929 . S
H465 C474 0.930 . S
H466 C476 0.930 . S
H467 C479 0.929 . S
H468 C482 0.930 . S
H469 C484 0.960 . S
H470 C484 0.960 . S
H471 C484 0.960 . S
C472 H464 0.929 . S
C472 C473 1.377 . S
C472 C474 1.384 . S
C473 C472 1.377 . S
C473 C479 1.390 . S
C474 H465 0.930 . S
C474 C472 1.384 . S
C474 C475 1.372 . S
C475 C474 1.372 . S
C475 C476 1.400 . S
C475 C480 1.490 . S
C476 H466 0.930 . S
C476 C475 1.400 . S
C476 C479 1.386 . S
H477 C493 0.930 . S
H478 C494 0.931 . S
C479 H467 0.929 . S
C479 C473 1.390 . S
C479 C476 1.386 . S
C480 C475 1.490 . S
C480 C482 1.395 1_565 S
C480 C483 1.403 . S
H481 C487 0.930 . S
C482 H468 0.930 . S
C482 C480 1.395 1_545 S
C482 C485 1.403 . S
C483 C480 1.403 . S
C483 C484 1.524 . S
C483 C487 1.400 . S
C484 H469 0.960 . S
C484 H470 0.960 . S
C484 H471 0.960 . S
C484 C483 1.524 . S
C485 C482 1.403 . S
C485 C486 1.392 . S
C485 C489 1.495 . S
C486 C485 1.392 . S
C486 C487 1.385 1_545 S
C486 C488 1.478 . S
C487 H481 0.930 . S
C487 C483 1.400 . S
C487 C486 1.385 1_565 S
C488 C486 1.478 . S
C488 C490 1.381 . S
C488 C494 1.383 . S
C489 C485 1.495 . S
C489 H495 0.959 . S
C489 H496 0.961 . S
C489 H497 0.960 . S
C490 C488 1.381 . S
C490 C491 1.394 . S
C490 H498 0.930 . S
C491 C490 1.394 . S
C491 C492 1.383 . S
C491 H499 0.929 . S
C492 C491 1.383 . S
C492 C493 1.377 . S
C493 H477 0.930 . S
C493 C492 1.377 . S
C493 C494 1.379 . S
C494 H478 0.931 . S
C494 C488 1.383 . S
C494 C493 1.379 . S
H495 C489 0.959 . S
H496 C489 0.961 . S
H497 C489 0.960 . S
H498 C490 0.930 . S
H499 C491 0.929 . S
H500 C508 0.929 . S
H501 C510 0.930 . S
H502 C512 0.930 . S
H503 C515 0.929 . S
H504 C518 0.930 . S
H505 C520 0.960 . S
H506 C520 0.960 1_655 S
H507 C520 0.960 . S
C508 H500 0.929 . S
C508 C509 1.377 . S
C508 C510 1.384 . S
C509 C508 1.377 . S
C509 C515 1.390 . S
C510 H501 0.930 . S
C510 C508 1.384 . S
C510 C511 1.372 . S
C511 C510 1.372 . S
C511 C512 1.400 . S
C511 C516 1.490 . S
C512 H502 0.930 . S
C512 C511 1.400 . S
C512 C515 1.386 . S
H513 C529 0.930 . S
H514 C530 0.931 . S
C515 H503 0.929 . S
C515 C509 1.390 . S
C515 C512 1.386 . S
C516 C511 1.490 . S
C516 C518 1.395 . S
C516 C519 1.403 1_655 S
H517 C523 0.930 . S
C518 H504 0.930 . S
C518 C516 1.395 . S
C518 C521 1.403 1_545 S
C519 C516 1.403 1_455 S
C519 C520 1.524 . S
C519 C523 1.400 1_545 S
C520 H505 0.960 . S
C520 H506 0.960 1_455 S
C520 H507 0.960 . S
C520 C519 1.524 . S
C521 C518 1.403 1_565 S
C521 C522 1.392 1_655 S
C521 C525 1.495 . S
C522 C521 1.392 1_455 S
C522 C523 1.385 . S
C522 C524 1.478 . S
C523 H517 0.930 . S
C523 C519 1.400 1_565 S
C523 C522 1.385 . S
C524 C522 1.478 . S
C524 C526 1.381 . S
C524 C530 1.383 . S
C525 C521 1.495 . S
C525 H531 0.959 . S
C525 H532 0.962 . S
C525 H533 0.960 . S
C526 C524 1.381 . S
C526 C527 1.394 . S
C526 H534 0.930 . S
C527 C526 1.394 . S
C527 C528 1.383 . S
C527 H535 0.929 . S
C528 C527 1.383 . S
C528 C529 1.377 . S
C529 H513 0.930 . S
C529 C528 1.377 . S
C529 C530 1.379 . S
C530 H514 0.931 . S
C530 C524 1.383 . S
C530 C529 1.379 . S
H531 C525 0.959 . S
H532 C525 0.962 . S
H533 C525 0.960 . S
H534 C526 0.930 . S
H535 C527 0.929 . S
H536 C544 0.929 . S
H537 C546 0.930 . S
H538 C548 0.930 . S
H539 C551 0.929 . S
H540 C554 0.930 . S
H541 C556 0.960 . S
H542 C556 0.960 . S
H543 C556 0.960 . S
C544 H536 0.929 . S
C544 C545 1.377 . S
C544 C546 1.384 . S
C545 C544 1.377 . S
C545 C551 1.390 . S
C546 H537 0.930 . S
C546 C544 1.384 . S
C546 C547 1.372 . S
C547 C546 1.372 . S
C547 C548 1.400 . S
C547 C552 1.490 . S
C548 H538 0.930 . S
C548 C547 1.400 . S
C548 C551 1.386 . S
H549 C565 0.930 . S
H550 C566 0.931 . S
C551 H539 0.929 . S
C551 C545 1.390 . S
C551 C548 1.386 . S
C552 C547 1.490 . S
C552 C554 1.395 . S
C552 C555 1.403 . S
H553 C559 0.930 . S
C554 H540 0.930 . S
C554 C552 1.395 . S
C554 C557 1.403 . S
C555 C552 1.403 . S
C555 C556 1.524 . S
C555 C559 1.400 . S
C556 H541 0.960 . S
C556 H542 0.960 . S
C556 H543 0.960 . S
C556 C555 1.524 . S
C557 C554 1.403 . S
C557 C558 1.392 . S
C557 C561 1.495 . S
C558 C557 1.392 . S
C558 C559 1.385 . S
C558 C560 1.478 . S
C559 H553 0.930 . S
C559 C555 1.400 . S
C559 C558 1.385 . S
C560 C558 1.478 . S
C560 C562 1.381 . S
C560 C566 1.383 . S
C561 C557 1.495 . S
C561 H567 0.959 . S
C561 H568 0.961 . S
C561 H569 0.960 . S
C562 C560 1.381 . S
C562 C563 1.394 . S
C562 H570 0.930 . S
C563 C562 1.394 . S
C563 C564 1.383 . S
C563 H571 0.929 . S
C564 C563 1.383 . S
C564 C565 1.377 . S
C565 H549 0.930 . S
C565 C564 1.377 . S
C565 C566 1.379 . S
C566 H550 0.931 . S
C566 C560 1.383 . S
C566 C565 1.379 . S
H567 C561 0.959 . S
H568 C561 0.961 . S
H569 C561 0.960 . S
H570 C562 0.930 . S
H571 C563 0.929 . S
H572 C580 0.929 . S
H573 C582 0.930 . S
H574 C584 0.930 . S
H575 C587 0.929 . S
H576 C590 0.930 . S
H577 C592 0.960 1_565 S
H578 C592 0.960 . S
H579 C592 0.960 1_565 S
C580 H572 0.929 . S
C580 C581 1.377 . S
C580 C582 1.384 . S
C581 C580 1.377 . S
C581 C587 1.390 . S
C582 H573 0.930 . S
C582 C580 1.384 . S
C582 C583 1.372 . S
C583 C582 1.372 . S
C583 C584 1.400 . S
C583 C588 1.490 . S
C584 H574 0.930 . S
C584 C583 1.400 . S
C584 C587 1.386 . S
H585 C601 0.930 . S
H586 C602 0.931 . S
C587 H575 0.929 . S
C587 C581 1.390 . S
C587 C584 1.386 . S
C588 C583 1.490 . S
C588 C590 1.395 . S
C588 C591 1.403 . S
H589 C595 0.930 . S
C590 H576 0.930 . S
C590 C588 1.395 . S
C590 C593 1.403 . S
C591 C588 1.403 . S
C591 C592 1.524 . S
C591 C595 1.400 1_545 S
C592 H577 0.960 1_545 S
C592 H578 0.960 . S
C592 H579 0.960 1_545 S
C592 C591 1.524 . S
C593 C590 1.403 . S
C593 C594 1.392 1_545 S
C593 C597 1.495 . S
C594 C593 1.392 1_565 S
C594 C595 1.385 . S
C594 C596 1.478 . S
C595 H589 0.930 . S
C595 C591 1.400 1_565 S
C595 C594 1.385 . S
C596 C594 1.478 . S
C596 C598 1.381 . S
C596 C602 1.383 . S
C597 C593 1.495 . S
C597 H603 0.959 . S
C597 H604 0.961 1_545 S
C597 H605 0.960 . S
C598 C596 1.381 . S
C598 C599 1.394 . S
C598 H606 0.930 . S
C599 C598 1.394 . S
C599 C600 1.383 . S
C599 H607 0.929 . S
C600 C599 1.383 . S
C600 C601 1.377 . S
C601 H585 0.930 . S
C601 C600 1.377 . S
C601 C602 1.379 . S
C602 H586 0.931 . S
C602 C596 1.383 . S
C602 C601 1.379 . S
H603 C597 0.959 . S
H604 C597 0.961 1_565 S
H605 C597 0.960 . S
H606 C598 0.930 . S
H607 C599 0.929 . S
H608 C616 0.929 . S
H609 C618 0.930 . S
H610 C620 0.930 . S
H611 C623 0.929 . S
H612 C626 0.930 . S
H613 C628 0.960 . S
H614 C628 0.960 . S
H615 C628 0.960 . S
C616 H608 0.929 . S
C616 C617 1.377 . S
C616 C618 1.384 . S
C617 C616 1.377 . S
C617 C623 1.390 . S
C618 H609 0.930 . S
C618 C616 1.384 . S
C618 C619 1.372 . S
C619 C618 1.372 . S
C619 C620 1.400 . S
C619 C624 1.490 . S
C620 H610 0.930 . S
C620 C619 1.400 . S
C620 C623 1.386 . S
H621 C637 0.930 . S
H622 C638 0.931 . S
C623 H611 0.929 . S
C623 C617 1.390 . S
C623 C620 1.386 . S
C624 C619 1.490 . S
C624 C626 1.395 . S
C624 C627 1.403 . S
H625 C631 0.930 . S
C626 H612 0.930 . S
C626 C624 1.395 . S
C626 C629 1.403 . S
C627 C624 1.403 . S
C627 C628 1.524 . S
C627 C631 1.400 . S
C628 H613 0.960 . S
C628 H614 0.960 . S
C628 H615 0.960 . S
C628 C627 1.524 . S
C629 C626 1.403 . S
C629 C630 1.392 . S
C629 C633 1.495 . S
C630 C629 1.392 . S
C630 C631 1.385 . S
C630 C632 1.478 . S
C631 H625 0.930 . S
C631 C627 1.400 . S
C631 C630 1.385 . S
C632 C630 1.478 . S
C632 C634 1.381 . S
C632 C638 1.383 . S
C633 C629 1.495 . S
C633 H639 0.959 1_556 S
C633 H640 0.961 . S
C633 H641 0.960 . S
C634 C632 1.381 . S
C634 C635 1.394 . S
C634 H642 0.930 . S
C635 C634 1.394 . S
C635 C636 1.383 . S
C635 H643 0.929 . S
C636 C635 1.383 . S
C636 C637 1.377 . S
C637 H621 0.930 . S
C637 C636 1.377 . S
C637 C638 1.379 . S
C638 H622 0.931 . S
C638 C632 1.383 . S
C638 C637 1.379 . S
H639 C633 0.959 1_554 S
H640 C633 0.961 . S
H641 C633 0.960 . S
H642 C634 0.930 . S
H643 C635 0.929 . S
H644 C652 0.929 . S
H645 C654 0.930 . S
H646 C656 0.930 . S
H647 C659 0.929 . S
H648 C662 0.930 . S
H649 C664 0.960 . S
H650 C664 0.960 . S
H651 C664 0.960 . S
C652 H644 0.929 . S
C652 C653 1.377 . S
C652 C654 1.384 . S
C653 C652 1.377 . S
C653 C659 1.390 . S
C654 H645 0.930 . S
C654 C652 1.384 . S
C654 C655 1.372 . S
C655 C654 1.372 . S
C655 C656 1.400 . S
C655 C660 1.490 . S
C656 H646 0.930 . S
C656 C655 1.400 . S
C656 C659 1.386 . S
H657 C673 0.930 . S
H658 C674 0.931 . S
C659 H647 0.929 . S
C659 C653 1.390 . S
C659 C656 1.386 . S
C660 C655 1.490 . S
C660 C662 1.395 . S
C660 C663 1.403 1_565 S
H661 C667 0.930 . S
C662 H648 0.930 . S
C662 C660 1.395 . S
C662 C665 1.403 . S
C663 C660 1.403 1_545 S
C663 C664 1.524 . S
C663 C667 1.400 . S
C664 H649 0.960 . S
C664 H650 0.960 . S
C664 H651 0.960 . S
C664 C663 1.524 . S
C665 C662 1.403 . S
C665 C666 1.392 1_565 S
C665 C669 1.495 . S
C666 C665 1.392 1_545 S
C666 C667 1.385 . S
C666 C668 1.478 . S
C667 H661 0.930 . S
C667 C663 1.400 . S
C667 C666 1.385 . S
C668 C666 1.478 . S
C668 C670 1.381 . S
C668 C674 1.383 . S
C669 C665 1.495 . S
C669 H675 0.959 . S
C669 H676 0.961 . S
C669 H677 0.960 . S
C670 C668 1.381 . S
C670 C671 1.394 . S
C670 H678 0.930 . S
C671 C670 1.394 . S
C671 C672 1.383 . S
C671 H679 0.929 . S
C672 C671 1.383 . S
C672 C673 1.377 . S
C673 H657 0.930 . S
C673 C672 1.377 . S
C673 C674 1.379 . S
C674 H658 0.931 . S
C674 C668 1.383 . S
C674 C673 1.379 . S
H675 C669 0.959 . S
H676 C669 0.961 . S
H677 C669 0.960 . S
H678 C670 0.930 . S
H679 C671 0.929 . S
C113 C5 1.238 . S
C132 C18 1.241 . S
C149 C44 1.235 . S
C168 C31 1.258 . S
C185 C57 1.247 . S
C204 C70 1.241 . S
C221 C83 1.231 . S
C240 C96 1.222 . S
C257 C10 1.476 . S
C276 C36 1.482 . S
C293 C49 1.474 . S
C312 C23 1.453 . S
C329 C62 1.477 . S
C348 C88 1.482 . S
C365 C101 1.478 . S
C384 C75 1.476 . S
C401 C0 1.406 . S
C420 C52 1.433 . S
C437 C13 1.409 . S
C456 C65 1.404 . S
C473 C78 1.402 . S
C492 C26 1.427 . S
C509 C91 1.396 . S
C528 C39 1.377 . S
C545 C21 0.450 . S
C564 C8 0.507 . S
C581 C34 0.438 . S
C600 C47 0.467 . S
C617 C60 0.431 . S
C636 C73 0.462 . S
C653 C86 0.450 . S
C672 C99 0.508 . S
