# Generated by pormake.
# Topology sof, (5)-cn, num edge types: 1
# Building blocks:
#     Node 0, Type 0, BuildingBlock: XOMCOT_clean_sbu_0, # of connection points: 5
#     Node 1, Type 0, BuildingBlock: XOMCOT_clean_sbu_0, # of connection points: 5
#     Node 2, Type 0, BuildingBlock: XOMCOT_clean_sbu_0, # of connection points: 5
#     Node 3, Type 0, BuildingBlock: XOMCOT_clean_sbu_0, # of connection points: 5
#     Node 4, Type 0, BuildingBlock: XOMCOT_clean_sbu_0, # of connection points: 5
#     Node 5, Type 0, BuildingBlock: XOMCOT_clean_sbu_0, # of connection points: 5
#     Node 6, Type 0, BuildingBlock: XOMCOT_clean_sbu_0, # of connection points: 5
#     Node 7, Type 0, BuildingBlock: XOMCOT_clean_sbu_0, # of connection points: 5
#     Edge 8, Type (0, 0), None
#     Edge 9, Type (0, 0), None
#     Edge 10, Type (0, 0), None
#     Edge 11, Type (0, 0), None
#     Edge 12, Type (0, 0), None
#     Edge 13, Type (0, 0), None
#     Edge 14, Type (0, 0), None
#     Edge 15, Type (0, 0), None
#     Edge 16, Type (0, 0), None
#     Edge 17, Type (0, 0), None
#     Edge 18, Type (0, 0), None
#     Edge 19, Type (0, 0), None
#     Edge 20, Type (0, 0), None
#     Edge 21, Type (0, 0), None
#     Edge 22, Type (0, 0), None
#     Edge 23, Type (0, 0), None
#     Edge 24, Type (0, 0), None
#     Edge 25, Type (0, 0), None
#     Edge 26, Type (0, 0), None
#     Edge 27, Type (0, 0), None
# Relax obj value: 0.134
# Max RMSD: 0.155
# Mean RMSD: 0.155
data_MOF--net-sof--node1-XOMCOT_clean_sbu_0--edge1-none
_symmetry_space_group_name_H-M    P1
_symmetry_Int_Tables_number       1
_symmetry_cell_setting            triclinic
loop_
_symmetry_equiv_pos_as_xyz
'x, y, z'
_cell_length_a     30.138485
_cell_length_b     9.1951369
_cell_length_c     21.518847
_cell_angle_alpha  89.999497
_cell_angle_beta   90.00001
_cell_angle_gamma 90.00955
loop_
_atom_site_label
_atom_site_type_symbol
_atom_site_fract_x
_atom_site_fract_y
_atom_site_fract_z
_atom_type_partial_charge
Co0 Co 0.06968 0.13843 0.09489 0.0
C1 C 0.08605 0.82999 0.09826 0.0
C2 C 0.0335 0.88565 0.1609 0.0
C3 C 0.03152 0.73809 0.14923 0.0
N4 N 0.06772 0.9436 0.12873 0.0
N5 N 0.06424 0.70504 0.109 0.0
H6 H 0.11068 0.84166 0.06232 0.0
H7 H 0.00817 0.94841 0.18431 0.0
C8 C 0.06646 0.21568 0.23642 0.0
O9 O 0.0666 0.08176 0.25747 0.0
N10 N 0.07075 0.33318 0.06099 0.0
C11 C 0.10193 0.39462 0.02441 0.0
C12 C 0.10147 0.54311 0.0338 0.0
C13 C 0.05053 0.44561 0.08983 0.0
N14 N 0.06966 0.57351 0.07591 0.0
C15 C 0.15463 0.08278 0.0404 0.0
C16 C 0.20476 0.10648 0.14714 0.0
C17 C 0.22509 0.05197 0.09318 0.0
C18 C 0.19924 0.04275 0.03911 0.0
C19 C 0.15959 0.14179 0.14686 0.0
N20 N 0.13465 0.12741 0.09413 0.0
H21 H 0.13563 0.07057 0.99827 0.0
H22 H 0.14516 0.17635 0.18996 0.0
H23 H 0.12614 0.33637 0.99718 0.0
H24 H 0.02581 0.4322 0.12581 0.0
O25 O 0.05758 0.05306 0.01402 0.0
O26 O 0.00607 0.12718 0.08002 0.0
O27 O 0.06892 0.24124 0.17843 0.0
C28 C 0.01587 0.06222 0.02798 0.0
H29 H 0.00562 0.66472 0.16437 0.0
H30 H 0.12498 0.62012 0.01485 0.0
H31 H 0.22327 0.12041 0.18982 0.0
H32 H 0.21258 0.99989 0.9962 0.0
Co33 Co 0.42802 0.91799 0.09489 0.0
C34 C 0.41165 0.22644 0.09826 0.0
C35 C 0.46419 0.17077 0.1609 0.0
C36 C 0.46618 0.31833 0.14923 0.0
N37 N 0.42998 0.11283 0.12873 0.0
N38 N 0.43346 0.35139 0.109 0.0
H39 H 0.38702 0.21477 0.06232 0.0
H40 H 0.48953 0.10802 0.18431 0.0
C41 C 0.43124 0.84075 0.23642 0.0
O42 O 0.4311 0.97466 0.25747 0.0
N43 N 0.42695 0.72325 0.06099 0.0
C44 C 0.39577 0.66181 0.02441 0.0
C45 C 0.39622 0.51332 0.0338 0.0
C46 C 0.44716 0.61082 0.08983 0.0
N47 N 0.42803 0.48292 0.07591 0.0
C48 C 0.34307 0.97365 0.0404 0.0
C49 C 0.29294 0.94995 0.14714 0.0
C50 C 0.27261 1.00446 0.09318 0.0
C51 C 0.29846 1.01369 0.03911 0.0
C52 C 0.33811 0.91463 0.14686 0.0
N53 N 0.36305 0.92901 0.09413 0.0
H54 H 0.36206 0.98586 0.99827 0.0
H55 H 0.35253 0.88007 0.18996 0.0
H56 H 0.37156 0.72006 0.99718 0.0
H57 H 0.47188 0.62423 0.12581 0.0
O58 O 0.44011 1.00337 0.01402 0.0
O59 O 0.49163 0.92925 0.08002 0.0
O60 O 0.42878 0.81518 0.17843 0.0
C61 C 0.48182 0.99421 0.02798 0.0
H62 H 0.49207 0.3917 0.16437 0.0
H63 H 0.37271 0.43631 0.01485 0.0
H64 H 0.27442 0.93601 0.18982 0.0
H65 H 0.28511 0.05655 0.9962 0.0
Co66 Co 0.06966 0.41803 0.42165 0.0
C67 C 0.08603 0.72648 0.4183 0.0
C68 C 0.03352 0.67076 0.3556 0.0
C69 C 0.03153 0.81832 0.36728 0.0
N70 N 0.06772 0.61285 0.38781 0.0
N71 N 0.06423 0.85141 0.40754 0.0
H72 H 0.11065 0.71484 0.45425 0.0
H73 H 0.0082 0.60798 0.33217 0.0
C74 C 0.06648 0.34083 0.28011 0.0
O75 O 0.06674 0.47475 0.25906 0.0
N76 N 0.07072 0.22328 0.45554 0.0
C77 C 0.10189 0.16188 0.49214 0.0
C78 C 0.10144 1.01339 0.48275 0.0
C79 C 0.05051 0.11082 0.42669 0.0
N80 N 0.06964 0.98295 0.44063 0.0
C81 C 0.15462 0.47374 0.47612 0.0
C82 C 0.20475 0.44991 0.36939 0.0
C83 C 0.22509 0.50448 0.42334 0.0
C84 C 0.19923 0.51376 0.47741 0.0
C85 C 0.15958 0.4146 0.36967 0.0
N86 N 0.13464 0.42906 0.4224 0.0
H87 H 0.13562 0.486 0.51825 0.0
H88 H 0.14516 0.37996 0.32658 0.0
H89 H 0.1261 0.22017 0.51938 0.0
H90 H 0.0258 0.1242 0.39071 0.0
O91 O 0.05758 0.50337 0.50252 0.0
O92 O 0.00605 0.42927 0.43653 0.0
O93 O 0.06888 0.31525 0.3381 0.0
C94 C 0.01587 0.49421 0.48857 0.0
H95 H 0.00564 0.89166 0.35211 0.0
H96 H 0.12495 0.93641 0.50171 0.0
H97 H 0.22327 0.43593 0.32672 0.0
H98 H 0.21259 0.55665 0.52031 0.0
Co99 Co 0.42803 0.6384 0.42165 0.0
C100 C 0.41166 0.32994 0.4183 0.0
C101 C 0.46418 0.38567 0.35561 0.0
C102 C 0.46617 0.23811 0.36728 0.0
N103 N 0.42998 0.44357 0.38781 0.0
N104 N 0.43347 0.20502 0.40754 0.0
H105 H 0.38705 0.34159 0.45425 0.0
H106 H 0.4895 0.44845 0.33217 0.0
C107 C 0.43121 0.71559 0.28011 0.0
O108 O 0.43096 0.58168 0.25906 0.0
N109 N 0.42698 0.83314 0.45554 0.0
C110 C 0.3958 0.89455 0.49214 0.0
C111 C 0.39625 0.04304 0.48275 0.0
C112 C 0.44718 0.94561 0.42669 0.0
N113 N 0.42805 0.07348 0.44063 0.0
C114 C 0.34308 0.58268 0.47612 0.0
C115 C 0.29294 0.60652 0.36939 0.0
C116 C 0.27261 0.55195 0.42334 0.0
C117 C 0.29847 0.54266 0.47741 0.0
C118 C 0.33812 0.64184 0.36968 0.0
N119 N 0.36306 0.62737 0.4224 0.0
H120 H 0.36207 0.57041 0.51825 0.0
H121 H 0.35254 0.67649 0.32658 0.0
H122 H 0.3716 0.83625 0.51938 0.0
H123 H 0.47189 0.93223 0.39071 0.0
O124 O 0.44012 0.55305 0.50252 0.0
O125 O 0.49164 0.62716 0.43653 0.0
O126 O 0.42882 0.74118 0.3381 0.0
C127 C 0.48183 0.56221 0.48857 0.0
H128 H 0.49206 0.16476 0.35211 0.0
H129 H 0.37275 0.12001 0.50171 0.0
H130 H 0.27443 0.62051 0.32672 0.0
H131 H 0.28511 0.49976 0.52031 0.0
Co132 Co 0.92802 0.918 0.92166 0.0
C133 C 0.91165 0.22644 0.91829 0.0
C134 C 0.96419 0.17078 0.85565 0.0
C135 C 0.96618 0.31834 0.86732 0.0
N136 N 0.92998 0.11283 0.88782 0.0
N137 N 0.93346 0.35139 0.90755 0.0
H138 H 0.88702 0.21477 0.95423 0.0
H139 H 0.98952 0.10802 0.83224 0.0
C140 C 0.93124 0.84075 0.78013 0.0
O141 O 0.9311 0.97466 0.75908 0.0
N142 N 0.92695 0.72326 0.95556 0.0
C143 C 0.89577 0.66181 0.99215 0.0
C144 C 0.89623 0.51332 0.98275 0.0
C145 C 0.94717 0.61082 0.92672 0.0
N146 N 0.92803 0.48292 0.94064 0.0
C147 C 0.84307 0.97364 0.97615 0.0
C148 C 0.79294 0.94995 0.86941 0.0
C149 C 0.77261 1.00446 0.92337 0.0
C150 C 0.79846 1.01368 0.97744 0.0
C151 C 0.83811 0.91464 0.86969 0.0
N152 N 0.86305 0.92902 0.92242 0.0
H153 H 0.86206 0.98585 0.01828 0.0
H154 H 0.85253 0.88009 0.82659 0.0
H155 H 0.87156 0.72006 0.01937 0.0
H156 H 0.97188 0.62423 0.89074 0.0
O157 O 0.94011 1.00337 1.00252 0.0
O158 O 0.99163 0.92926 0.93653 0.0
O159 O 0.92878 0.81519 0.83812 0.0
C160 C 0.98182 0.99423 0.98856 0.0
H161 H 0.99207 0.39171 0.85218 0.0
H162 H 0.87272 0.43631 1.0017 0.0
H163 H 0.77443 0.93602 0.82673 0.0
H164 H 0.78511 0.05654 0.02035 0.0
Co165 Co 0.56968 0.13843 0.92166 0.0
C166 C 0.58605 0.82998 0.91829 0.0
C167 C 0.53351 0.88565 0.85565 0.0
C168 C 0.53152 0.73809 0.86732 0.0
N169 N 0.56772 0.9436 0.88782 0.0
N170 N 0.56424 0.70504 0.90755 0.0
H171 H 0.61068 0.84165 0.95423 0.0
H172 H 0.50817 0.94841 0.83224 0.0
C173 C 0.56646 0.21568 0.78013 0.0
O174 O 0.5666 0.08176 0.75908 0.0
N175 N 0.57075 0.33317 0.95556 0.0
C176 C 0.60193 0.39461 0.99215 0.0
C177 C 0.60147 0.5431 0.98275 0.0
C178 C 0.55053 0.44561 0.92672 0.0
N179 N 0.56966 0.57351 0.94065 0.0
C180 C 0.65463 0.08278 0.97615 0.0
C181 C 0.70476 0.10649 0.86941 0.0
C182 C 0.72509 0.05197 0.92337 0.0
C183 C 0.69924 0.04274 0.97744 0.0
C184 C 0.65959 0.1418 0.86969 0.0
N185 N 0.63465 0.12741 0.92242 0.0
H186 H 0.63563 0.07056 0.01828 0.0
H187 H 0.64517 0.17637 0.82659 0.0
H188 H 0.62614 0.33636 0.01938 0.0
H189 H 0.52581 0.4322 0.89074 0.0
O190 O 0.55758 0.05305 1.00253 0.0
O191 O 0.50607 0.12717 0.93653 0.0
O192 O 0.56892 0.24124 0.83812 0.0
C193 C 0.51587 0.0622 0.98856 0.0
H194 H 0.50563 0.66472 0.85218 0.0
H195 H 0.62498 0.62011 1.0017 0.0
H196 H 0.72327 0.12043 0.82674 0.0
H197 H 0.71258 0.99987 0.02035 0.0
Co198 Co 0.92804 0.6384 0.5949 0.0
C199 C 0.91166 0.32994 0.59825 0.0
C200 C 0.96418 0.38566 0.66095 0.0
C201 C 0.96617 0.2381 0.64928 0.0
N202 N 0.92998 0.44357 0.62874 0.0
N203 N 0.93347 0.20501 0.60902 0.0
H204 H 0.88705 0.34158 0.5623 0.0
H205 H 0.9895 0.44845 0.68439 0.0
C206 C 0.93121 0.71559 0.73644 0.0
O207 O 0.93096 0.58168 0.7575 0.0
N208 N 0.92698 0.83314 0.56101 0.0
C209 C 0.89581 0.89455 0.52441 0.0
C210 C 0.89626 0.04304 0.5338 0.0
C211 C 0.94718 0.9456 0.58986 0.0
N212 N 0.92805 0.07348 0.57592 0.0
C213 C 0.84308 0.58268 0.54043 0.0
C214 C 0.79294 0.60652 0.64716 0.0
C215 C 0.77261 0.55195 0.59321 0.0
C216 C 0.79847 0.54266 0.53914 0.0
C217 C 0.83812 0.64183 0.64688 0.0
N218 N 0.86306 0.62737 0.59415 0.0
H219 H 0.86207 0.57042 0.4983 0.0
H220 H 0.85254 0.67648 0.68997 0.0
H221 H 0.8716 0.83626 0.49717 0.0
H222 H 0.9719 0.93223 0.62584 0.0
O223 O 0.94012 0.55305 0.51403 0.0
O224 O 0.99164 0.62715 0.58002 0.0
O225 O 0.92882 0.74118 0.67845 0.0
C226 C 0.98183 0.56219 0.52799 0.0
H227 H 0.99206 0.16476 0.66444 0.0
H228 H 0.87275 0.12001 0.51484 0.0
H229 H 0.77443 0.62051 0.68983 0.0
H230 H 0.78511 0.49977 0.49624 0.0
Co231 Co 0.56966 0.41803 0.5949 0.0
C232 C 0.58603 0.72649 0.59825 0.0
C233 C 0.53352 0.67077 0.66095 0.0
C234 C 0.53153 0.81832 0.64928 0.0
N235 N 0.56772 0.61286 0.62874 0.0
N236 N 0.56423 0.85141 0.60902 0.0
H237 H 0.61065 0.71485 0.5623 0.0
H238 H 0.5082 0.60798 0.68438 0.0
C239 C 0.56648 0.34083 0.73644 0.0
O240 O 0.56674 0.47475 0.7575 0.0
N241 N 0.57072 0.22329 0.56101 0.0
C242 C 0.60189 0.16188 0.52441 0.0
C243 C 0.60144 1.0134 0.5338 0.0
C244 C 0.55051 0.11082 0.58986 0.0
N245 N 0.56965 0.98295 0.57592 0.0
C246 C 0.65462 0.47375 0.54043 0.0
C247 C 0.70476 0.44991 0.64716 0.0
C248 C 0.72509 0.50448 0.59321 0.0
C249 C 0.69923 0.51377 0.53914 0.0
C250 C 0.65958 0.41459 0.64688 0.0
N251 N 0.63464 0.42906 0.59415 0.0
H252 H 0.63562 0.48601 0.4983 0.0
H253 H 0.64516 0.37994 0.68997 0.0
H254 H 0.6261 0.22018 0.49717 0.0
H255 H 0.5258 0.1242 0.62584 0.0
O256 O 0.55758 0.50338 0.51403 0.0
O257 O 0.50605 0.42927 0.58002 0.0
O258 O 0.56888 0.31525 0.67845 0.0
C259 C 0.51587 0.49423 0.52799 0.0
H260 H 0.50564 0.89167 0.66444 0.0
H261 H 0.62495 0.93642 0.51484 0.0
H262 H 0.72327 0.43592 0.68983 0.0
H263 H 0.71259 0.55667 0.49624 0.0
loop_
_geom_bond_atom_site_label_1
_geom_bond_atom_site_label_2
_geom_bond_distance
_geom_bond_site_symmetry_2
_ccdc_geom_bond_type
Co0 N4 2.148 1_545 S
Co0 N10 2.128 . S
Co0 N20 2.194 . S
Co0 O25 2.351 . S
Co0 O26 2.155 1_455 S
Co0 O27 2.096 . S
C1 N4 1.301 . S
C1 N5 1.328 . S
C1 H6 0.930 . S
C2 C3 1.333 . S
C2 N4 1.317 . S
C2 H7 0.930 . S
C3 C2 1.333 . S
C3 N5 1.350 . S
C3 H29 0.931 . S
N4 Co0 2.148 1_565 S
N4 C1 1.301 . S
N4 C2 1.317 . S
N5 C1 1.328 . S
N5 C3 1.350 . S
H6 C1 0.930 . S
H7 C2 0.930 . S
C8 O9 1.224 . S
C8 O27 1.247 . S
O9 C8 1.224 . S
N10 Co0 2.128 . S
N10 C11 1.355 . S
N10 C13 1.311 . S
C11 N10 1.355 . S
C11 C12 1.363 . S
C11 H23 0.924 1_554 S
C12 C11 1.363 . S
C12 N14 1.375 . S
C12 H30 0.931 1_554 S
C13 N10 1.311 . S
C13 N14 1.347 . S
C13 H24 0.929 . S
N14 C12 1.375 . S
N14 C13 1.347 . S
C15 C18 1.365 . S
C15 N20 1.328 1_565 S
C15 H21 0.929 . S
C16 C17 1.362 . S
C16 C19 1.378 . S
C16 H31 0.929 . S
C17 C16 1.362 . S
C17 C18 1.366 1_545 S
C18 C15 1.365 . S
C18 C17 1.366 1_565 S
C18 H32 0.930 1_554 S
C19 C16 1.378 . S
C19 N20 1.315 . S
C19 H22 0.930 . S
N20 Co0 2.194 . S
N20 C15 1.328 1_545 S
N20 C19 1.315 . S
H21 C15 0.929 . S
H22 C19 0.930 . S
H23 C11 0.924 1_556 S
H24 C13 0.929 . S
O25 Co0 2.351 . S
O25 C28 1.244 . S
O26 Co0 2.155 1_655 S
O26 C28 1.240 1_655 S
O27 Co0 2.096 . S
O27 C8 1.247 . S
C28 O25 1.244 . S
C28 O26 1.240 1_455 S
H29 C3 0.931 . S
H30 C12 0.931 1_556 S
H31 C16 0.929 . S
H32 C18 0.930 1_556 S
Co33 N37 2.148 1_565 S
Co33 N43 2.128 . S
Co33 N53 2.194 . S
Co33 O58 2.351 . S
Co33 O59 2.155 . S
Co33 O60 2.096 . S
C34 N37 1.301 . S
C34 N38 1.328 . S
C34 H39 0.930 . S
C35 C36 1.333 . S
C35 N37 1.317 . S
C35 H40 0.930 . S
C36 C35 1.333 . S
C36 N38 1.350 . S
C36 H62 0.931 . S
N37 Co33 2.148 1_545 S
N37 C34 1.301 . S
N37 C35 1.317 . S
N38 C34 1.328 . S
N38 C36 1.350 . S
H39 C34 0.930 . S
H40 C35 0.930 . S
C41 O42 1.224 . S
C41 O60 1.247 . S
O42 C41 1.224 . S
N43 Co33 2.128 . S
N43 C44 1.355 . S
N43 C46 1.311 . S
C44 N43 1.355 . S
C44 C45 1.363 . S
C44 H56 0.924 1_554 S
C45 C44 1.363 . S
C45 N47 1.375 . S
C45 H63 0.931 1_554 S
C46 N43 1.311 . S
C46 N47 1.347 . S
C46 H57 0.929 . S
N47 C45 1.375 . S
N47 C46 1.347 . S
C48 C51 1.365 . S
C48 N53 1.328 1_545 S
C48 H54 0.929 . S
C49 C50 1.362 . S
C49 C52 1.378 . S
C49 H64 0.929 . S
C50 C49 1.362 . S
C50 C51 1.366 1_565 S
C51 C48 1.365 . S
C51 C50 1.366 1_545 S
C51 H65 0.930 1_554 S
C52 C49 1.378 . S
C52 N53 1.315 . S
C52 H55 0.930 . S
N53 Co33 2.194 . S
N53 C48 1.328 1_565 S
N53 C52 1.315 . S
H54 C48 0.929 . S
H55 C52 0.930 . S
H56 C44 0.924 1_556 S
H57 C46 0.929 . S
O58 Co33 2.351 . S
O58 C61 1.244 . S
O59 Co33 2.155 . S
O59 C61 1.240 . S
O60 Co33 2.096 . S
O60 C41 1.247 . S
C61 O58 1.244 . S
C61 O59 1.240 . S
H62 C36 0.931 . S
H63 C45 0.931 1_556 S
H64 C49 0.929 . S
H65 C51 0.930 1_556 S
Co66 N70 2.148 . S
Co66 N76 2.128 . S
Co66 N86 2.194 . S
Co66 O91 2.351 . S
Co66 O92 2.155 1_455 S
Co66 O93 2.096 . S
C67 N70 1.301 . S
C67 N71 1.328 . S
C67 H72 0.930 . S
C68 C69 1.333 . S
C68 N70 1.317 . S
C68 H73 0.930 . S
C69 C68 1.333 . S
C69 N71 1.350 . S
C69 H95 0.931 . S
N70 Co66 2.148 . S
N70 C67 1.301 . S
N70 C68 1.317 . S
N71 C67 1.328 . S
N71 C69 1.350 . S
H72 C67 0.930 . S
H73 C68 0.930 . S
C74 O75 1.224 . S
C74 O93 1.247 . S
O75 C74 1.224 . S
N76 Co66 2.128 . S
N76 C77 1.355 . S
N76 C79 1.311 . S
C77 N76 1.355 . S
C77 C78 1.363 . S
C77 H89 0.929 . S
C78 C77 1.363 . S
C78 N80 1.375 1_545 S
C78 H96 0.931 1_545 S
C79 N76 1.311 . S
C79 N80 1.347 1_545 S
C79 H90 0.929 . S
N80 C78 1.375 1_565 S
N80 C79 1.347 1_565 S
C81 C84 1.365 . S
C81 N86 1.328 . S
C81 H87 0.929 . S
C82 C83 1.362 . S
C82 C85 1.378 . S
C82 H97 0.929 . S
C83 C82 1.362 . S
C83 C84 1.366 . S
C84 C81 1.365 . S
C84 C83 1.366 . S
C84 H98 0.930 . S
C85 C82 1.378 . S
C85 N86 1.315 . S
C85 H88 0.930 . S
N86 Co66 2.194 . S
N86 C81 1.328 . S
N86 C85 1.315 . S
H87 C81 0.929 . S
H88 C85 0.930 . S
H89 C77 0.929 . S
H90 C79 0.929 . S
O91 Co66 2.351 . S
O91 C94 1.244 . S
O92 Co66 2.155 1_655 S
O92 C94 1.240 1_655 S
O93 Co66 2.096 . S
O93 C74 1.247 . S
C94 O91 1.244 . S
C94 O92 1.240 1_455 S
H95 C69 0.931 . S
H96 C78 0.931 1_565 S
H97 C82 0.929 . S
H98 C84 0.930 . S
Co99 N103 2.148 . S
Co99 N109 2.128 . S
Co99 N119 2.194 . S
Co99 O124 2.351 . S
Co99 O125 2.155 . S
Co99 O126 2.096 . S
C100 N103 1.301 . S
C100 N104 1.328 . S
C100 H105 0.930 . S
C101 C102 1.333 . S
C101 N103 1.317 . S
C101 H106 0.930 . S
C102 C101 1.333 . S
C102 N104 1.350 . S
C102 H128 0.931 . S
N103 Co99 2.148 . S
N103 C100 1.301 . S
N103 C101 1.317 . S
N104 C100 1.328 . S
N104 C102 1.350 . S
H105 C100 0.930 . S
H106 C101 0.930 . S
C107 O108 1.224 . S
C107 O126 1.247 . S
O108 C107 1.224 . S
N109 Co99 2.128 . S
N109 C110 1.355 . S
N109 C112 1.311 . S
C110 N109 1.355 . S
C110 C111 1.363 . S
C110 H122 0.929 . S
C111 C110 1.363 . S
C111 N113 1.375 1_565 S
C111 H129 0.931 1_565 S
C112 N109 1.311 . S
C112 N113 1.347 1_565 S
C112 H123 0.929 . S
N113 C111 1.375 1_545 S
N113 C112 1.347 1_545 S
C114 C117 1.365 . S
C114 N119 1.328 . S
C114 H120 0.929 . S
C115 C116 1.362 . S
C115 C118 1.378 . S
C115 H130 0.929 . S
C116 C115 1.362 . S
C116 C117 1.366 . S
C117 C114 1.365 . S
C117 C116 1.366 . S
C117 H131 0.930 . S
C118 C115 1.378 . S
C118 N119 1.315 . S
C118 H121 0.930 . S
N119 Co99 2.194 . S
N119 C114 1.328 . S
N119 C118 1.315 . S
H120 C114 0.929 . S
H121 C118 0.930 . S
H122 C110 0.929 . S
H123 C112 0.929 . S
O124 Co99 2.351 . S
O124 C127 1.244 . S
O125 Co99 2.155 . S
O125 C127 1.240 . S
O126 Co99 2.096 . S
O126 C107 1.247 . S
C127 O124 1.244 . S
C127 O125 1.240 . S
H128 C102 0.931 . S
H129 C111 0.931 1_545 S
H130 C115 0.929 . S
H131 C117 0.930 . S
Co132 N136 2.148 1_565 S
Co132 N142 2.128 . S
Co132 N152 2.194 . S
Co132 O157 2.351 . S
Co132 O158 2.155 1_655 S
Co132 O159 2.096 . S
C133 N136 1.301 . S
C133 N137 1.328 . S
C133 H138 0.930 . S
C134 C135 1.333 . S
C134 N136 1.317 . S
C134 H139 0.930 . S
C135 C134 1.333 . S
C135 N137 1.350 . S
C135 H161 0.931 . S
N136 Co132 2.148 1_545 S
N136 C133 1.301 . S
N136 C134 1.317 . S
N137 C133 1.328 . S
N137 C135 1.350 . S
H138 C133 0.930 . S
H139 C134 0.930 . S
C140 O141 1.224 . S
C140 O159 1.247 . S
O141 C140 1.224 . S
N142 Co132 2.128 . S
N142 C143 1.355 . S
N142 C145 1.311 . S
C143 N142 1.355 . S
C143 C144 1.363 . S
C143 H155 0.924 1_556 S
C144 C143 1.363 . S
C144 N146 1.375 . S
C144 H162 0.931 1_556 S
C145 N142 1.311 . S
C145 N146 1.347 . S
C145 H156 0.929 . S
N146 C144 1.375 . S
N146 C145 1.347 . S
C147 C150 1.365 . S
C147 N152 1.328 1_545 S
C147 H153 0.929 . S
C148 C149 1.362 . S
C148 C151 1.378 . S
C148 H163 0.929 . S
C149 C148 1.362 . S
C149 C150 1.366 1_565 S
C150 C147 1.365 . S
C150 C149 1.366 1_545 S
C150 H164 0.930 1_556 S
C151 C148 1.378 . S
C151 N152 1.315 . S
C151 H154 0.930 . S
N152 Co132 2.194 . S
N152 C147 1.328 1_565 S
N152 C151 1.315 . S
H153 C147 0.929 . S
H154 C151 0.930 . S
H155 C143 0.924 1_554 S
H156 C145 0.929 . S
O157 Co132 2.351 . S
O157 C160 1.244 . S
O158 Co132 2.155 1_455 S
O158 C160 1.240 1_455 S
O159 Co132 2.096 . S
O159 C140 1.247 . S
C160 O157 1.244 . S
C160 O158 1.240 1_655 S
H161 C135 0.931 . S
H162 C144 0.931 1_554 S
H163 C148 0.929 . S
H164 C150 0.930 1_554 S
Co165 N169 2.148 1_545 S
Co165 N175 2.128 . S
Co165 N185 2.194 . S
Co165 O190 2.351 . S
Co165 O191 2.155 . S
Co165 O192 2.096 . S
C166 N169 1.301 . S
C166 N170 1.328 . S
C166 H171 0.930 . S
C167 C168 1.333 . S
C167 N169 1.317 . S
C167 H172 0.930 . S
C168 C167 1.333 . S
C168 N170 1.350 . S
C168 H194 0.931 . S
N169 Co165 2.148 1_565 S
N169 C166 1.301 . S
N169 C167 1.317 . S
N170 C166 1.328 . S
N170 C168 1.350 . S
H171 C166 0.930 . S
H172 C167 0.930 . S
C173 O174 1.224 . S
C173 O192 1.247 . S
O174 C173 1.224 . S
N175 Co165 2.128 . S
N175 C176 1.355 . S
N175 C178 1.311 . S
C176 N175 1.355 . S
C176 C177 1.363 . S
C176 H188 0.924 1_556 S
C177 C176 1.363 . S
C177 N179 1.375 . S
C177 H195 0.931 1_556 S
C178 N175 1.311 . S
C178 N179 1.347 . S
C178 H189 0.929 . S
N179 C177 1.375 . S
N179 C178 1.347 . S
C180 C183 1.365 . S
C180 N185 1.328 1_565 S
C180 H186 0.929 . S
C181 C182 1.362 . S
C181 C184 1.378 . S
C181 H196 0.929 . S
C182 C181 1.362 . S
C182 C183 1.366 1_545 S
C183 C180 1.365 . S
C183 C182 1.366 1_565 S
C183 H197 0.930 1_556 S
C184 C181 1.378 . S
C184 N185 1.315 . S
C184 H187 0.930 . S
N185 Co165 2.194 . S
N185 C180 1.328 1_545 S
N185 C184 1.315 . S
H186 C180 0.929 . S
H187 C184 0.930 . S
H188 C176 0.924 1_554 S
H189 C178 0.929 . S
O190 Co165 2.351 . S
O190 C193 1.244 . S
O191 Co165 2.155 . S
O191 C193 1.240 . S
O192 Co165 2.096 . S
O192 C173 1.247 . S
C193 O190 1.244 . S
C193 O191 1.240 . S
H194 C168 0.931 . S
H195 C177 0.931 1_554 S
H196 C181 0.929 . S
H197 C183 0.930 1_554 S
Co198 N202 2.148 . S
Co198 N208 2.128 . S
Co198 N218 2.194 . S
Co198 O223 2.351 . S
Co198 O224 2.155 1_655 S
Co198 O225 2.096 . S
C199 N202 1.301 . S
C199 N203 1.328 . S
C199 H204 0.930 . S
C200 C201 1.333 . S
C200 N202 1.317 . S
C200 H205 0.930 . S
C201 C200 1.333 . S
C201 N203 1.350 . S
C201 H227 0.931 . S
N202 Co198 2.148 . S
N202 C199 1.301 . S
N202 C200 1.317 . S
N203 C199 1.328 . S
N203 C201 1.350 . S
H204 C199 0.930 . S
H205 C200 0.930 . S
C206 O207 1.224 . S
C206 O225 1.247 . S
O207 C206 1.224 . S
N208 Co198 2.128 . S
N208 C209 1.355 . S
N208 C211 1.311 . S
C209 N208 1.355 . S
C209 C210 1.363 . S
C209 H221 0.929 . S
C210 C209 1.363 . S
C210 N212 1.375 1_565 S
C210 H228 0.931 1_565 S
C211 N208 1.311 . S
C211 N212 1.347 1_565 S
C211 H222 0.929 . S
N212 C210 1.375 1_545 S
N212 C211 1.347 1_545 S
C213 C216 1.365 . S
C213 N218 1.328 . S
C213 H219 0.929 . S
C214 C215 1.362 . S
C214 C217 1.378 . S
C214 H229 0.929 . S
C215 C214 1.362 . S
C215 C216 1.366 . S
C216 C213 1.365 . S
C216 C215 1.366 . S
C216 H230 0.930 . S
C217 C214 1.378 . S
C217 N218 1.315 . S
C217 H220 0.930 . S
N218 Co198 2.194 . S
N218 C213 1.328 . S
N218 C217 1.315 . S
H219 C213 0.929 . S
H220 C217 0.930 . S
H221 C209 0.929 . S
H222 C211 0.929 . S
O223 Co198 2.351 . S
O223 C226 1.244 . S
O224 Co198 2.155 1_455 S
O224 C226 1.240 1_455 S
O225 Co198 2.096 . S
O225 C206 1.247 . S
C226 O223 1.244 . S
C226 O224 1.240 1_655 S
H227 C201 0.931 . S
H228 C210 0.931 1_545 S
H229 C214 0.929 . S
H230 C216 0.930 . S
Co231 N235 2.148 . S
Co231 N241 2.128 . S
Co231 N251 2.194 . S
Co231 O256 2.351 . S
Co231 O257 2.155 . S
Co231 O258 2.096 . S
C232 N235 1.301 . S
C232 N236 1.328 . S
C232 H237 0.930 . S
C233 C234 1.333 . S
C233 N235 1.317 . S
C233 H238 0.930 . S
C234 C233 1.333 . S
C234 N236 1.350 . S
C234 H260 0.931 . S
N235 Co231 2.148 . S
N235 C232 1.301 . S
N235 C233 1.317 . S
N236 C232 1.328 . S
N236 C234 1.350 . S
H237 C232 0.930 . S
H238 C233 0.930 . S
C239 O240 1.224 . S
C239 O258 1.247 . S
O240 C239 1.224 . S
N241 Co231 2.128 . S
N241 C242 1.355 . S
N241 C244 1.311 . S
C242 N241 1.355 . S
C242 C243 1.363 . S
C242 H254 0.929 . S
C243 C242 1.363 . S
C243 N245 1.375 1_545 S
C243 H261 0.931 1_545 S
C244 N241 1.311 . S
C244 N245 1.347 1_545 S
C244 H255 0.929 . S
N245 C243 1.375 1_565 S
N245 C244 1.347 1_565 S
C246 C249 1.365 . S
C246 N251 1.328 . S
C246 H252 0.929 . S
C247 C248 1.362 . S
C247 C250 1.378 . S
C247 H262 0.929 . S
C248 C247 1.362 . S
C248 C249 1.366 . S
C249 C246 1.365 . S
C249 C248 1.366 . S
C249 H263 0.930 . S
C250 C247 1.378 . S
C250 N251 1.315 . S
C250 H253 0.930 . S
N251 Co231 2.194 . S
N251 C246 1.328 . S
N251 C250 1.315 . S
H252 C246 0.929 . S
H253 C250 0.930 . S
H254 C242 0.929 . S
H255 C244 0.929 . S
O256 Co231 2.351 . S
O256 C259 1.244 . S
O257 Co231 2.155 . S
O257 C259 1.240 . S
O258 Co231 2.096 . S
O258 C239 1.247 . S
C259 O256 1.244 . S
C259 O257 1.240 . S
H260 C234 0.931 . S
H261 C243 0.931 1_565 S
H262 C247 0.929 . S
H263 C249 0.930 . S
C17 C50 1.633 1_545 S
C116 C83 1.633 . S
C149 C182 1.633 1_565 S
C248 C215 1.633 . S
C28 C160 1.149 1_444 S
C61 C193 1.150 1_564 S
C94 C226 1.149 1_455 S
C127 C259 1.150 . S
C74 C8 1.631 . S
C107 C41 1.631 . S
C140 C206 1.631 . S
C173 C239 1.631 . S
N5 N14 2.047 . S
N38 N47 2.046 . S
N80 N71 2.047 . S
N113 N104 2.046 . S
N146 N137 2.047 . S
N170 N179 2.046 . S
N212 N203 2.047 . S
N236 N245 2.046 . S
