# Generated by pormake.
# Topology ukj, (4)-cn, num edge types: 1
# Building blocks:
#     Node 0, Type 0, BuildingBlock: MUDLON_clean_sbu_0, # of connection points: 4
#     Node 1, Type 0, BuildingBlock: MUDLON_clean_sbu_0, # of connection points: 4
#     Node 2, Type 0, BuildingBlock: MUDLON_clean_sbu_0, # of connection points: 4
#     Node 3, Type 0, BuildingBlock: MUDLON_clean_sbu_0, # of connection points: 4
#     Node 4, Type 0, BuildingBlock: MUDLON_clean_sbu_0, # of connection points: 4
#     Node 5, Type 0, BuildingBlock: MUDLON_clean_sbu_0, # of connection points: 4
#     Node 6, Type 0, BuildingBlock: MUDLON_clean_sbu_0, # of connection points: 4
#     Node 7, Type 0, BuildingBlock: MUDLON_clean_sbu_0, # of connection points: 4
#     Node 8, Type 0, BuildingBlock: MUDLON_clean_sbu_0, # of connection points: 4
#     Node 9, Type 0, BuildingBlock: MUDLON_clean_sbu_0, # of connection points: 4
#     Node 10, Type 0, BuildingBlock: MUDLON_clean_sbu_0, # of connection points: 4
#     Node 11, Type 0, BuildingBlock: MUDLON_clean_sbu_0, # of connection points: 4
#     Node 12, Type 0, BuildingBlock: MUDLON_clean_sbu_0, # of connection points: 4
#     Node 13, Type 0, BuildingBlock: MUDLON_clean_sbu_0, # of connection points: 4
#     Node 14, Type 0, BuildingBlock: MUDLON_clean_sbu_0, # of connection points: 4
#     Node 15, Type 0, BuildingBlock: MUDLON_clean_sbu_0, # of connection points: 4
#     Node 16, Type 0, BuildingBlock: MUDLON_clean_sbu_0, # of connection points: 4
#     Node 17, Type 0, BuildingBlock: MUDLON_clean_sbu_0, # of connection points: 4
#     Node 18, Type 0, BuildingBlock: MUDLON_clean_sbu_0, # of connection points: 4
#     Node 19, Type 0, BuildingBlock: MUDLON_clean_sbu_0, # of connection points: 4
#     Node 20, Type 0, BuildingBlock: MUDLON_clean_sbu_0, # of connection points: 4
#     Node 21, Type 0, BuildingBlock: MUDLON_clean_sbu_0, # of connection points: 4
#     Node 22, Type 0, BuildingBlock: MUDLON_clean_sbu_0, # of connection points: 4
#     Node 23, Type 0, BuildingBlock: MUDLON_clean_sbu_0, # of connection points: 4
#     Node 24, Type 0, BuildingBlock: MUDLON_clean_sbu_0, # of connection points: 4
#     Node 25, Type 0, BuildingBlock: MUDLON_clean_sbu_0, # of connection points: 4
#     Node 26, Type 0, BuildingBlock: MUDLON_clean_sbu_0, # of connection points: 4
#     Node 27, Type 0, BuildingBlock: MUDLON_clean_sbu_0, # of connection points: 4
#     Node 28, Type 0, BuildingBlock: MUDLON_clean_sbu_0, # of connection points: 4
#     Node 29, Type 0, BuildingBlock: MUDLON_clean_sbu_0, # of connection points: 4
#     Node 30, Type 0, BuildingBlock: MUDLON_clean_sbu_0, # of connection points: 4
#     Node 31, Type 0, BuildingBlock: MUDLON_clean_sbu_0, # of connection points: 4
#     Edge 32, Type (0, 0), BuildingBlock: ZUJKAS_clean_linker_0, # of connection points: 2
#     Edge 33, Type (0, 0), BuildingBlock: ZUJKAS_clean_linker_0, # of connection points: 2
#     Edge 34, Type (0, 0), BuildingBlock: ZUJKAS_clean_linker_0, # of connection points: 2
#     Edge 35, Type (0, 0), BuildingBlock: ZUJKAS_clean_linker_0, # of connection points: 2
#     Edge 36, Type (0, 0), BuildingBlock: ZUJKAS_clean_linker_0, # of connection points: 2
#     Edge 37, Type (0, 0), BuildingBlock: ZUJKAS_clean_linker_0, # of connection points: 2
#     Edge 38, Type (0, 0), BuildingBlock: ZUJKAS_clean_linker_0, # of connection points: 2
#     Edge 39, Type (0, 0), BuildingBlock: ZUJKAS_clean_linker_0, # of connection points: 2
#     Edge 40, Type (0, 0), BuildingBlock: ZUJKAS_clean_linker_0, # of connection points: 2
#     Edge 41, Type (0, 0), BuildingBlock: ZUJKAS_clean_linker_0, # of connection points: 2
#     Edge 42, Type (0, 0), BuildingBlock: ZUJKAS_clean_linker_0, # of connection points: 2
#     Edge 43, Type (0, 0), BuildingBlock: ZUJKAS_clean_linker_0, # of connection points: 2
#     Edge 44, Type (0, 0), BuildingBlock: ZUJKAS_clean_linker_0, # of connection points: 2
#     Edge 45, Type (0, 0), BuildingBlock: ZUJKAS_clean_linker_0, # of connection points: 2
#     Edge 46, Type (0, 0), BuildingBlock: ZUJKAS_clean_linker_0, # of connection points: 2
#     Edge 47, Type (0, 0), BuildingBlock: ZUJKAS_clean_linker_0, # of connection points: 2
#     Edge 48, Type (0, 0), BuildingBlock: ZUJKAS_clean_linker_0, # of connection points: 2
#     Edge 49, Type (0, 0), BuildingBlock: ZUJKAS_clean_linker_0, # of connection points: 2
#     Edge 50, Type (0, 0), BuildingBlock: ZUJKAS_clean_linker_0, # of connection points: 2
#     Edge 51, Type (0, 0), BuildingBlock: ZUJKAS_clean_linker_0, # of connection points: 2
#     Edge 52, Type (0, 0), BuildingBlock: ZUJKAS_clean_linker_0, # of connection points: 2
#     Edge 53, Type (0, 0), BuildingBlock: ZUJKAS_clean_linker_0, # of connection points: 2
#     Edge 54, Type (0, 0), BuildingBlock: ZUJKAS_clean_linker_0, # of connection points: 2
#     Edge 55, Type (0, 0), BuildingBlock: ZUJKAS_clean_linker_0, # of connection points: 2
#     Edge 56, Type (0, 0), BuildingBlock: ZUJKAS_clean_linker_0, # of connection points: 2
#     Edge 57, Type (0, 0), BuildingBlock: ZUJKAS_clean_linker_0, # of connection points: 2
#     Edge 58, Type (0, 0), BuildingBlock: ZUJKAS_clean_linker_0, # of connection points: 2
#     Edge 59, Type (0, 0), BuildingBlock: ZUJKAS_clean_linker_0, # of connection points: 2
#     Edge 60, Type (0, 0), BuildingBlock: ZUJKAS_clean_linker_0, # of connection points: 2
#     Edge 61, Type (0, 0), BuildingBlock: ZUJKAS_clean_linker_0, # of connection points: 2
#     Edge 62, Type (0, 0), BuildingBlock: ZUJKAS_clean_linker_0, # of connection points: 2
#     Edge 63, Type (0, 0), BuildingBlock: ZUJKAS_clean_linker_0, # of connection points: 2
#     Edge 64, Type (0, 0), BuildingBlock: ZUJKAS_clean_linker_0, # of connection points: 2
#     Edge 65, Type (0, 0), BuildingBlock: ZUJKAS_clean_linker_0, # of connection points: 2
#     Edge 66, Type (0, 0), BuildingBlock: ZUJKAS_clean_linker_0, # of connection points: 2
#     Edge 67, Type (0, 0), BuildingBlock: ZUJKAS_clean_linker_0, # of connection points: 2
#     Edge 68, Type (0, 0), BuildingBlock: ZUJKAS_clean_linker_0, # of connection points: 2
#     Edge 69, Type (0, 0), BuildingBlock: ZUJKAS_clean_linker_0, # of connection points: 2
#     Edge 70, Type (0, 0), BuildingBlock: ZUJKAS_clean_linker_0, # of connection points: 2
#     Edge 71, Type (0, 0), BuildingBlock: ZUJKAS_clean_linker_0, # of connection points: 2
#     Edge 72, Type (0, 0), BuildingBlock: ZUJKAS_clean_linker_0, # of connection points: 2
#     Edge 73, Type (0, 0), BuildingBlock: ZUJKAS_clean_linker_0, # of connection points: 2
#     Edge 74, Type (0, 0), BuildingBlock: ZUJKAS_clean_linker_0, # of connection points: 2
#     Edge 75, Type (0, 0), BuildingBlock: ZUJKAS_clean_linker_0, # of connection points: 2
#     Edge 76, Type (0, 0), BuildingBlock: ZUJKAS_clean_linker_0, # of connection points: 2
#     Edge 77, Type (0, 0), BuildingBlock: ZUJKAS_clean_linker_0, # of connection points: 2
#     Edge 78, Type (0, 0), BuildingBlock: ZUJKAS_clean_linker_0, # of connection points: 2
#     Edge 79, Type (0, 0), BuildingBlock: ZUJKAS_clean_linker_0, # of connection points: 2
#     Edge 80, Type (0, 0), BuildingBlock: ZUJKAS_clean_linker_0, # of connection points: 2
#     Edge 81, Type (0, 0), BuildingBlock: ZUJKAS_clean_linker_0, # of connection points: 2
#     Edge 82, Type (0, 0), BuildingBlock: ZUJKAS_clean_linker_0, # of connection points: 2
#     Edge 83, Type (0, 0), BuildingBlock: ZUJKAS_clean_linker_0, # of connection points: 2
#     Edge 84, Type (0, 0), BuildingBlock: ZUJKAS_clean_linker_0, # of connection points: 2
#     Edge 85, Type (0, 0), BuildingBlock: ZUJKAS_clean_linker_0, # of connection points: 2
#     Edge 86, Type (0, 0), BuildingBlock: ZUJKAS_clean_linker_0, # of connection points: 2
#     Edge 87, Type (0, 0), BuildingBlock: ZUJKAS_clean_linker_0, # of connection points: 2
#     Edge 88, Type (0, 0), BuildingBlock: ZUJKAS_clean_linker_0, # of connection points: 2
#     Edge 89, Type (0, 0), BuildingBlock: ZUJKAS_clean_linker_0, # of connection points: 2
#     Edge 90, Type (0, 0), BuildingBlock: ZUJKAS_clean_linker_0, # of connection points: 2
#     Edge 91, Type (0, 0), BuildingBlock: ZUJKAS_clean_linker_0, # of connection points: 2
#     Edge 92, Type (0, 0), BuildingBlock: ZUJKAS_clean_linker_0, # of connection points: 2
#     Edge 93, Type (0, 0), BuildingBlock: ZUJKAS_clean_linker_0, # of connection points: 2
#     Edge 94, Type (0, 0), BuildingBlock: ZUJKAS_clean_linker_0, # of connection points: 2
#     Edge 95, Type (0, 0), BuildingBlock: ZUJKAS_clean_linker_0, # of connection points: 2
# Relax obj value: 0.028
# Max RMSD: 0.216
# Mean RMSD: 0.215
data_MOF--net-ukj--node1-MUDLON_clean_sbu_0--edge1-ZUJKAS_clean_linker_0
_symmetry_space_group_name_H-M    P1
_symmetry_Int_Tables_number       1
_symmetry_cell_setting            triclinic
loop_
_symmetry_equiv_pos_as_xyz
'x, y, z'
_cell_length_a     44.942721
_cell_length_b     74.533304
_cell_length_c     77.495922
_cell_angle_alpha  90.016575
_cell_angle_beta   89.972072
_cell_angle_gamma 90.0186
loop_
_atom_site_label
_atom_site_type_symbol
_atom_site_fract_x
_atom_site_fract_y
_atom_site_fract_z
_atom_type_partial_charge
Mg0 Mg 0.17218 0.34299 0.26674 0.0
C1 C 0.15581 0.34512 0.23021 0.0
O2 O 0.15896 0.32787 0.23319 0.0
C3 C 0.16101 0.34665 0.30336 0.0
O4 O 0.17017 0.33007 0.30116 0.0
C5 C 0.11952 0.3202 0.26769 0.0
O6 O 0.10941 0.33673 0.26717 0.0
O7 O 0.14757 0.31778 0.26763 0.0
O8 O 0.15993 0.35605 0.2426 0.0
O9 O 0.22053 0.34123 0.26817 0.0
C10 C 0.23685 0.34357 0.25495 0.0
O11 O 0.22424 0.34516 0.23974 0.0
O12 O 0.1589 0.35676 0.29019 0.0
Mg13 Mg 0.10373 0.90672 0.2642 0.0
C14 C 0.09865 0.8996 0.2273 0.0
O15 O 0.07921 0.91234 0.23051 0.0
C16 C 0.11983 0.90423 0.3006 0.0
O17 O 0.11444 0.92133 0.29793 0.0
C18 C 0.15518 0.93005 0.25923 0.0
O19 O 0.16427 0.91391 0.25486 0.0
O20 O 0.12808 0.93208 0.26362 0.0
O21 O 0.11384 0.89339 0.23981 0.0
O22 O 0.05523 0.90754 0.26578 0.0
C23 C 0.04367 0.89212 0.26343 0.0
O24 O 0.06148 0.87849 0.26043 0.0
O25 O 0.11792 0.89348 0.28787 0.0
Mg26 Mg 0.16873 0.90374 1.01476 0.0
C27 C 0.13306 0.89192 0.04616 0.0
O28 O 0.11224 0.90129 0.0384 0.0
C29 C 0.15775 0.90029 0.97789 0.0
O30 O 0.16498 0.91721 0.98023 0.0
C31 C 0.13957 0.93922 0.02673 0.0
O32 O 0.15321 0.93596 0.04139 0.0
O33 O 0.14367 0.92873 1.01401 0.0
O34 O 0.15792 0.88972 0.03862 0.0
O35 O 0.21696 0.90646 1.01368 0.0
C36 C 0.23272 0.90429 0.02716 0.0
O37 O 0.21937 0.90234 0.04212 0.0
O38 O 0.15673 0.89001 0.99099 0.0
Mg39 Mg 0.1077 0.34559 1.01449 0.0
C40 C 0.11845 0.34612 0.05164 0.0
O41 O 0.11267 0.32926 0.04797 0.0
C42 C 0.1044 0.37053 0.9841 0.0
O43 O 0.07826 0.37363 0.99109 0.0
C44 C 0.15996 0.32227 1.01425 0.0
O45 O 0.17062 0.3386 0.01589 0.0
O46 O 0.13189 0.32028 1.01319 0.0
O47 O 0.11866 0.35746 0.03937 0.0
O48 O 0.05925 0.34375 1.01218 0.0
C49 C 0.0423 0.3474 0.02488 0.0
O50 O 0.0542 0.35053 0.04005 0.0
O51 O 0.12266 0.36047 0.99204 0.0
Mg52 Mg 0.85558 0.65154 0.76545 0.0
C53 C 0.89303 0.64099 0.79624 0.0
O54 O 0.91165 0.65203 0.78862 0.0
C55 C 0.84961 0.6439 0.72836 0.0
O56 O 0.82824 0.65545 0.7316 0.0
C57 C 0.89327 0.6829 0.75311 0.0
O58 O 0.89072 0.67409 0.73852 0.0
O59 O 0.87926 0.67725 0.76633 0.0
O60 O 0.86877 0.63709 0.78867 0.0
O61 O 0.80714 0.65283 0.76678 0.0
C62 C 0.79504 0.63751 0.76871 0.0
O63 O 0.81235 0.62337 0.77003 0.0
O64 O 0.86588 0.63866 0.74083 0.0
Mg65 Mg 0.91703 0.09761 0.76828 0.0
C66 C 0.92361 0.11328 0.80328 0.0
O67 O 0.94919 0.10519 0.80076 0.0
C68 C 0.89917 0.12151 0.73616 0.0
O69 O 0.90323 0.13582 0.74578 0.0
C70 C 0.8696 0.07219 0.77805 0.0
O71 O 0.85904 0.08781 0.78297 0.0
O72 O 0.89565 0.07157 0.7716 0.0
O73 O 0.90468 0.11343 0.79105 0.0
O74 O 0.96558 0.09719 0.76685 0.0
C75 C 0.9775 0.11253 0.76474 0.0
O76 O 0.96007 0.12662 0.76346 0.0
O77 O 0.90224 0.106 0.74275 0.0
Mg78 Mg 0.85508 0.0944 0.01608 0.0
C79 C 0.8884 0.10322 0.98344 0.0
O80 O 0.90142 0.08814 0.98789 0.0
C81 C 0.87632 0.11824 0.04758 0.0
O82 O 0.89458 0.12662 0.03708 0.0
C83 C 0.90381 0.06968 0.02603 0.0
O84 O 0.9097 0.0843 0.03484 0.0
O85 O 0.88052 0.06933 0.01667 0.0
O86 O 0.86947 0.11012 0.99371 0.0
O87 O 0.80709 0.0919 1.01311 0.0
C88 C 0.79467 0.10713 1.01129 0.0
O89 O 0.81165 0.12148 1.01078 0.0
O90 O 0.85929 0.10605 0.04176 0.0
Mg91 Mg 0.92125 0.65473 1.01501 0.0
C92 C 0.92966 0.64619 0.97857 0.0
O93 O 0.95038 0.65802 0.98228 0.0
C94 C 0.90254 0.65284 0.05124 0.0
O95 O 0.90562 0.67008 0.04818 0.0
C96 C 0.86882 0.67745 1.01115 0.0
O97 O 0.85903 0.66094 1.00935 0.0
O98 O 0.89657 0.67986 1.0135 0.0
O99 O 0.91243 0.64099 0.99063 0.0
O100 O 0.96957 0.65649 0.0171 0.0
C101 C 0.98179 0.64116 0.01857 0.0
O102 O 0.96458 0.6269 0.0191 0.0
O103 O 0.90683 0.64185 0.0389 0.0
Mg104 Mg 0.17097 0.84058 0.76501 0.0
C105 C 0.17533 0.8504 0.72845 0.0
O106 O 0.1974 0.83915 0.73101 0.0
C107 C 0.1561 0.84215 0.80169 0.0
O108 O 0.16297 0.82527 0.79885 0.0
C109 C 0.13452 0.80903 0.75154 0.0
O110 O 0.13558 0.8186 0.73733 0.0
O111 O 0.14921 0.81426 0.76465 0.0
O112 O 0.15888 0.85453 0.74123 0.0
O113 O 0.21953 0.84126 0.76602 0.0
C114 C 0.22956 0.85713 0.76417 0.0
O115 O 0.2104 0.87029 0.76221 0.0
O116 O 0.15659 0.85303 0.78903 0.0
Mg117 Mg 0.10266 0.40791 0.7659 0.0
C118 C 0.11125 0.40383 0.72944 0.0
O119 O 0.09886 0.41958 0.73198 0.0
C120 C 0.09555 0.39991 0.80256 0.0
O121 O 0.07297 0.41037 0.79874 0.0
C122 C 0.13523 0.44209 0.77781 0.0
O123 O 0.12734 0.43664 0.79327 0.0
O124 O 0.12628 0.43344 0.76464 0.0
O125 O 0.11691 0.39414 0.74255 0.0
O126 O 0.05407 0.40937 0.76462 0.0
C127 C 0.04073 0.39718 0.75609 0.0
O128 O 0.0566 0.38521 0.74774 0.0
O129 O 0.1135 0.39553 0.79056 0.0
Mg130 Mg 0.17148 0.40572 0.51535 0.0
C131 C 0.17065 0.40065 0.55226 0.0
O132 O 0.18647 0.41518 0.54936 0.0
C133 C 0.15322 0.4041 0.47916 0.0
O134 O 0.15776 0.42125 0.48207 0.0
C135 C 0.12083 0.42975 0.51982 0.0
O136 O 0.11028 0.41354 0.52252 0.0
O137 O 0.14847 0.43147 0.51659 0.0
O138 O 0.15987 0.39232 0.53937 0.0
O139 O 0.22005 0.40616 0.51421 0.0
C140 C 0.2323 0.392 0.52004 0.0
O141 O 0.21525 0.37922 0.52627 0.0
O142 O 0.15663 0.3931 0.49157 0.0
Mg143 Mg 0.10234 0.84374 0.51371 0.0
C144 C 0.1094 0.84613 0.55068 0.0
O145 O 0.09852 0.8301 0.54747 0.0
C146 C 0.11486 0.84651 0.47695 0.0
O147 O 0.1068 0.82976 0.47942 0.0
C148 C 0.15348 0.82007 0.51724 0.0
O149 O 0.16348 0.83634 0.52027 0.0
O150 O 0.12592 0.81811 0.51391 0.0
O151 O 0.11433 0.85657 0.53801 0.0
O152 O 0.0538 0.84358 0.51331 0.0
C153 C 0.04319 0.85914 0.51618 0.0
O154 O 0.06188 0.87237 0.51905 0.0
O155 O 0.11599 0.85694 0.48995 0.0
Mg156 Mg 0.8556 0.15222 0.26642 0.0
C157 C 0.86286 0.14831 0.30334 0.0
O158 O 0.8539 0.16486 0.30068 0.0
C159 C 0.87799 0.15035 0.23029 0.0
O160 O 0.88111 0.16743 0.23404 0.0
C161 C 0.90784 0.17513 0.27067 0.0
O162 O 0.91786 0.15864 0.2721 0.0
O163 O 0.88009 0.17745 0.26825 0.0
O164 O 0.86632 0.13809 0.29031 0.0
O165 O 0.80723 0.154 0.26605 0.0
C166 C 0.79479 0.13867 0.26683 0.0
O167 O 0.81182 0.12436 0.26776 0.0
O168 O 0.86839 0.13974 0.24193 0.0
Mg169 Mg 0.91589 0.60063 0.26726 0.0
C170 C 0.91352 0.62586 0.29888 0.0
O171 O 0.9376 0.63293 0.2921 0.0
C172 C 0.91178 0.60297 0.22989 0.0
O173 O 0.92315 0.58709 0.23318 0.0
C174 C 0.86494 0.57727 0.26174 0.0
O175 O 0.85584 0.59352 0.25781 0.0
O176 O 0.89181 0.5752 0.26656 0.0
O177 O 0.89974 0.61361 0.29069 0.0
O178 O 0.96439 0.59921 0.26865 0.0
C179 C 0.9778 0.61298 0.26279 0.0
O180 O 0.96179 0.62607 0.25626 0.0
O181 O 0.90552 0.61319 0.24255 0.0
Mg182 Mg 0.86245 0.60075 0.51303 0.0
C183 C 0.86214 0.62582 0.48112 0.0
O184 O 0.83763 0.63231 0.48792 0.0
C185 C 0.88843 0.60408 0.54887 0.0
O186 O 0.89682 0.58771 0.54498 0.0
C187 C 0.91202 0.57579 0.50777 0.0
O188 O 0.92297 0.59168 0.50404 0.0
O189 O 0.8847 0.5747 0.51203 0.0
O190 O 0.87692 0.61406 0.48936 0.0
O191 O 0.81384 0.60021 0.51287 0.0
C192 C 0.80154 0.61426 0.51893 0.0
O193 O 0.81863 0.62711 0.52499 0.0
O194 O 0.87507 0.61341 0.53748 0.0
Mg195 Mg 0.91462 0.14617 0.51616 0.0
C196 C 0.87961 0.13652 0.48363 0.0
O197 O 0.86244 0.14953 0.48922 0.0
C198 C 0.92219 0.12986 0.55188 0.0
O199 O 0.95023 0.13032 0.54716 0.0
C200 C 0.86598 0.17202 0.52207 0.0
O201 O 0.85599 0.15697 0.52874 0.0
O202 O 0.89203 0.17215 0.51556 0.0
O203 O 0.90135 0.13145 0.49294 0.0
O204 O 0.9632 0.14715 0.51488 0.0
C205 C 0.97529 0.13245 0.51026 0.0
O206 O 0.95797 0.11882 0.50641 0.0
O207 O 0.90227 0.1344 0.54106 0.0
Mg208 Mg 0.66591 0.34589 0.76575 0.0
C209 C 0.6685 0.35081 0.72859 0.0
O210 O 0.68613 0.33721 0.73203 0.0
C211 C 0.65166 0.34946 0.80228 0.0
O212 O 0.65899 0.33253 0.80024 0.0
C213 C 0.62067 0.31805 0.75658 0.0
O214 O 0.6129 0.3314 0.74649 0.0
O215 O 0.64365 0.31978 0.76605 0.0
O216 O 0.65522 0.35848 0.74109 0.0
O217 O 0.71446 0.34554 0.76694 0.0
C218 C 0.72647 0.35984 0.76123 0.0
O219 O 0.7092 0.37272 0.75546 0.0
O220 O 0.65155 0.35962 0.78908 0.0
Mg221 Mg 0.60439 0.9055 0.76614 0.0
C222 C 0.62111 0.90367 0.72946 0.0
O223 O 0.62017 0.92093 0.73283 0.0
C224 C 0.61512 0.90131 0.80284 0.0
O225 O 0.6072 0.91814 0.8007 0.0
C226 C 0.65768 0.92772 0.76975 0.0
O227 O 0.66716 0.9111 0.77103 0.0
O228 O 0.62998 0.9304 0.76744 0.0
O229 O 0.61585 0.89267 0.74165 0.0
O230 O 0.55603 0.90789 0.76752 0.0
C231 C 0.53982 0.90493 0.75436 0.0
O232 O 0.55261 0.90242 0.73931 0.0
O233 O 0.61656 0.89122 0.78961 0.0
Mg234 Mg 0.66538 0.90029 0.51329 0.0
C235 C 0.67124 0.88924 0.54986 0.0
O236 O 0.697 0.89678 0.54649 0.0
C237 C 0.64843 0.89838 0.47698 0.0
O238 O 0.65687 0.91507 0.47943 0.0
C239 C 0.63575 0.93502 0.52604 0.0
O240 O 0.63944 0.92768 0.5413 0.0
O241 O 0.64647 0.92727 0.5128 0.0
O242 O 0.65229 0.88789 0.53772 0.0
O243 O 0.71358 0.89787 0.51083 0.0
C244 C 0.7336 0.90932 0.51443 0.0
O245 O 0.72581 0.92529 0.52003 0.0
O246 O 0.64856 0.88772 0.48982 0.0
Mg247 Mg 0.60803 0.34329 0.51264 0.0
C248 C 0.61822 0.34526 0.54942 0.0
O249 O 0.60825 0.32901 0.54628 0.0
C250 C 0.61973 0.34591 0.47579 0.0
O251 O 0.61223 0.3291 0.47844 0.0
C252 C 0.65938 0.3193 0.51004 0.0
O253 O 0.67022 0.33546 0.50747 0.0
O254 O 0.63152 0.31765 0.51257 0.0
O255 O 0.62158 0.35594 0.53676 0.0
O256 O 0.55937 0.34217 0.51238 0.0
C257 C 0.54549 0.35278 0.52244 0.0
O258 O 0.56085 0.36284 0.53311 0.0
O259 O 0.62065 0.3565 0.48868 0.0
Mg260 Mg 0.3565 0.65157 0.26638 0.0
C261 C 0.39395 0.64049 0.2969 0.0
O262 O 0.41286 0.65126 0.28915 0.0
C263 C 0.39123 0.63998 0.23404 0.0
O264 O 0.41353 0.64814 0.24171 0.0
C265 C 0.38669 0.68633 0.25414 0.0
O266 O 0.37556 0.68162 0.23913 0.0
O267 O 0.38043 0.67703 0.26742 0.0
O268 O 0.3694 0.63695 0.2895 0.0
O269 O 0.30809 0.65339 0.26743 0.0
C270 C 0.29535 0.63865 0.27125 0.0
O271 O 0.31206 0.62457 0.27443 0.0
O272 O 0.36653 0.63852 0.24194 0.0
Mg273 Mg 0.41665 0.09733 0.2655 0.0
C274 C 0.37978 0.11116 0.29622 0.0
O275 O 0.35755 0.1038 0.28777 0.0
C276 C 0.38533 0.10365 0.23153 0.0
O277 O 0.37155 0.08903 0.23661 0.0
C278 C 0.38505 0.06324 0.27862 0.0
O279 O 0.39173 0.06973 0.2939 0.0
O280 O 0.3945 0.07125 0.2652 0.0
O281 O 0.4055 0.11126 0.28938 0.0
O282 O 0.46509 0.09636 0.26505 0.0
C283 C 0.47713 0.1118 0.26412 0.0
O284 O 0.45975 0.12596 0.26341 0.0
O285 O 0.40401 0.111 0.24166 0.0
Mg286 Mg 0.35352 0.09183 0.51413 0.0
C287 C 0.34704 0.10036 0.4774 0.0
O288 O 0.32723 0.08776 0.48034 0.0
C289 C 0.38489 0.10411 0.54766 0.0
O290 O 0.40694 0.0941 0.54211 0.0
C291 C 0.4078 0.07027 0.50998 0.0
O292 O 0.41579 0.08656 0.50545 0.0
O293 O 0.38076 0.06752 0.51417 0.0
O294 O 0.36292 0.10583 0.48995 0.0
O295 O 0.30521 0.08867 0.51453 0.0
C296 C 0.2923 0.10377 0.51636 0.0
O297 O 0.30893 0.11819 0.51794 0.0
O298 O 0.36212 0.10632 0.53814 0.0
Mg299 Mg 0.42332 0.65512 0.51585 0.0
C300 C 0.42857 0.64911 0.47895 0.0
O301 O 0.44666 0.66245 0.48256 0.0
C302 C 0.38992 0.64356 0.54854 0.0
O303 O 0.36928 0.65437 0.54258 0.0
C304 C 0.3716 0.67854 0.5095 0.0
O305 O 0.3634 0.66291 0.50327 0.0
O306 O 0.39762 0.68001 0.51587 0.0
O307 O 0.41396 0.64199 0.49125 0.0
O308 O 0.47174 0.65744 0.51663 0.0
C309 C 0.48431 0.64232 0.51426 0.0
O310 O 0.46738 0.62818 0.51173 0.0
O311 O 0.4129 0.64047 0.53942 0.0
Mg312 Mg 0.66826 0.84378 0.26303 0.0
C313 C 0.67596 0.86499 0.22977 0.0
O314 O 0.70407 0.86365 0.23417 0.0
C315 C 0.65322 0.8442 0.29986 0.0
O316 O 0.66065 0.82745 0.2968 0.0
C317 C 0.61664 0.82094 0.25752 0.0
O318 O 0.60723 0.83748 0.25539 0.0
O319 O 0.64408 0.81846 0.26084 0.0
O320 O 0.65613 0.85894 0.23996 0.0
O321 O 0.71681 0.84269 0.26452 0.0
C322 C 0.7285 0.85683 0.27081 0.0
O323 O 0.71079 0.86972 0.27615 0.0
O324 O 0.65342 0.85528 0.28737 0.0
Mg325 Mg 0.60567 0.40749 0.26343 0.0
C326 C 0.60123 0.39513 0.22699 0.0
O327 O 0.57571 0.40338 0.22925 0.0
C328 C 0.62105 0.40532 0.30013 0.0
O329 O 0.61384 0.42223 0.2978 0.0
C330 C 0.64126 0.43952 0.25061 0.0
O331 O 0.6411 0.43003 0.23633 0.0
O332 O 0.62628 0.43403 0.26351 0.0
O333 O 0.61916 0.39401 0.23966 0.0
O334 O 0.55722 0.40641 0.26467 0.0
C335 C 0.54725 0.39044 0.26393 0.0
O336 O 0.56641 0.37718 0.26267 0.0
O337 O 0.6206 0.39481 0.28718 0.0
Mg338 Mg 0.6735 0.41063 1.0141 0.0
C339 C 0.68017 0.39647 0.0499 0.0
O340 O 0.70623 0.40392 0.04719 0.0
C341 C 0.65619 0.40946 0.97764 0.0
O342 O 0.66314 0.42635 0.98035 0.0
C343 C 0.63908 0.44222 0.02879 0.0
O344 O 0.64139 0.43253 0.04287 0.0
O345 O 0.6525 0.43706 1.0152 0.0
O346 O 0.66108 0.3965 0.03776 0.0
O347 O 0.72197 0.4097 1.01216 0.0
C348 C 0.73195 0.39371 1.0119 0.0
O349 O 0.71278 0.3804 1.01245 0.0
O350 O 0.65755 0.39855 0.99025 0.0
Mg351 Mg 0.60386 0.84483 0.01644 0.0
C352 C 0.60313 0.8547 0.05298 0.0
O353 O 0.58178 0.84277 0.05136 0.0
C354 C 0.61781 0.84511 0.9795 0.0
O355 O 0.61208 0.8282 0.98296 0.0
C356 C 0.65474 0.82108 0.01955 0.0
O357 O 0.66538 0.83747 0.02065 0.0
O358 O 0.62674 0.81909 0.01789 0.0
O359 O 0.61764 0.85926 0.03957 0.0
O360 O 0.55529 0.84495 0.01664 0.0
C361 C 0.54477 0.86061 0.01914 0.0
O362 O 0.5635 0.87399 0.02113 0.0
O363 O 0.61686 0.85645 0.99178 0.0
Mg364 Mg 0.35679 0.14944 0.76571 0.0
C365 C 0.39169 0.13569 0.79673 0.0
O366 O 0.41303 0.14495 0.78933 0.0
C367 C 0.3666 0.14816 0.72831 0.0
O368 O 0.36121 0.16515 0.73157 0.0
C369 C 0.40846 0.17377 0.76049 0.0
O370 O 0.41734 0.15877 0.75323 0.0
O371 O 0.38255 0.17436 0.76715 0.0
O372 O 0.3669 0.13407 0.78898 0.0
O373 O 0.30854 0.15216 0.76592 0.0
C374 C 0.29559 0.13696 0.76637 0.0
O375 O 0.31216 0.12244 0.76678 0.0
O376 O 0.36668 0.13706 0.7408 0.0
Mg377 Mg 0.41604 0.60074 0.76666 0.0
C378 C 0.38406 0.61676 0.79826 0.0
O379 O 0.36047 0.60965 0.79099 0.0
C380 C 0.40133 0.60208 0.72973 0.0
O381 O 0.40414 0.58488 0.73302 0.0
C382 C 0.36194 0.57821 0.76438 0.0
O383 O 0.353 0.59398 0.75886 0.0
O384 O 0.38915 0.57627 0.76859 0.0
O385 O 0.40881 0.61622 0.7903 0.0
O386 O 0.46419 0.59739 0.76574 0.0
C387 C 0.47736 0.61225 0.763 0.0
O388 O 0.461 0.62669 0.76078 0.0
O389 O 0.40472 0.61326 0.74201 0.0
Mg390 Mg 0.35989 0.59903 0.0168 0.0
C391 C 0.35523 0.60672 0.98005 0.0
O392 O 0.33496 0.59445 0.98323 0.0
C393 C 0.35561 0.60944 0.05339 0.0
O394 O 0.33223 0.5992 0.05087 0.0
C395 C 0.39501 0.56684 0.02972 0.0
O396 O 0.38901 0.57436 0.04464 0.0
O397 O 0.38381 0.5735 0.01607 0.0
O398 O 0.37105 0.61238 0.99255 0.0
O399 O 0.31126 0.5978 0.01708 0.0
C400 C 0.29918 0.61323 0.01621 0.0
O401 O 0.31655 0.62739 1.0152 0.0
O402 O 0.37273 0.61267 0.04066 0.0
Mg403 Mg 0.4179 0.15074 1.01514 0.0
C404 C 0.42488 0.14107 0.97886 0.0
O405 O 0.44683 0.15218 0.98223 0.0
C406 C 0.41303 0.14805 0.05221 0.0
O407 O 0.42885 0.1625 0.049 0.0
C408 C 0.36672 0.17449 1.01247 0.0
O409 O 0.35579 0.15815 1.01174 0.0
O410 O 0.39477 0.17636 1.01386 0.0
O411 O 0.40726 0.13684 0.99108 0.0
O412 O 0.46634 0.15171 0.01648 0.0
C413 C 0.47811 0.13632 0.01851 0.0
O414 O 0.4605 0.12234 0.02006 0.0
O415 O 0.40379 0.1388 0.03947 0.0
H416 H 0.13671 0.32474 0.20345 0.0
H417 H 0.12858 0.33384 0.17367 0.0
H418 H 0.15145 0.38838 0.18665 0.0
H419 H 0.15977 0.37932 0.21683 0.0
H420 H 0.08845 0.36245 0.16066 0.0
H421 H 0.20873 0.37259 0.14564 0.0
H422 H 0.19711 0.35919 0.16384 0.0
H423 H 0.19276 0.38308 0.16445 0.0
C424 C 0.13993 0.33871 0.20007 0.0
C425 C 0.14905 0.3513 0.2125 0.0
C426 C 0.13518 0.34389 0.18303 0.0
C427 C 0.13962 0.36173 0.17796 0.0
C428 C 0.14813 0.37451 0.19033 0.0
H429 H 0.13224 0.37957 0.06465 0.0
H430 H 0.1364 0.38811 0.09527 0.0
C431 C 0.15273 0.36934 0.20754 0.0
C432 C 0.13587 0.36636 0.15953 0.0
H433 H 0.17576 0.37046 0.12221 0.0
C434 C 0.10742 0.36471 0.15227 0.0
C435 C 0.16066 0.36936 0.14865 0.0
C436 C 0.19165 0.37114 0.15591 0.0
C437 C 0.10337 0.36474 0.13433 0.0
C438 C 0.12847 0.36621 0.12343 0.0
C439 C 0.15661 0.36931 0.13066 0.0
C440 C 0.12645 0.36155 0.10491 0.0
C441 C 0.07248 0.36219 0.12715 0.0
C442 C 0.12014 0.34378 0.1003 0.0
C443 C 0.11802 0.33886 0.08301 0.0
C444 C 0.12211 0.35163 0.06988 0.0
C445 C 0.12888 0.36945 0.07448 0.0
C446 C 0.13124 0.37435 0.09192 0.0
H447 H 0.05519 0.36645 0.13655 0.0
H448 H 0.06953 0.36986 0.11499 0.0
H449 H 0.06894 0.34775 0.12427 0.0
H450 H 0.11684 0.33365 0.11016 0.0
H451 H 0.11285 0.32502 0.07999 0.0
H452 H 0.17313 0.87447 0.06691 0.0
H453 H 0.16911 0.86901 0.09797 0.0
H454 H 0.08132 0.89235 0.09801 0.0
H455 H 0.08489 0.89754 0.06701 0.0
H456 H 0.1633 0.89474 0.12236 0.0
H457 H 0.0679 0.84825 0.12719 0.0
H458 H 0.08702 0.85241 0.10708 0.0
H459 H 0.05887 0.86771 0.11465 0.0
C460 C 0.1527 0.87809 0.07346 0.0
C461 C 0.12931 0.88644 0.06444 0.0
C462 C 0.15048 0.87499 0.09123 0.0
C463 C 0.12478 0.88004 0.10032 0.0
C464 C 0.10109 0.88791 0.09125 0.0
H465 H 0.06424 0.90735 0.19948 0.0
H466 H 0.07307 0.89962 0.16937 0.0
C467 C 0.10325 0.89099 0.0735 0.0
C468 C 0.12368 0.87877 0.11945 0.0
H469 H 0.07964 0.86515 0.15292 0.0
C470 C 0.14537 0.88795 0.12908 0.0
C471 C 0.10033 0.86986 0.12822 0.0
C472 C 0.0774 0.85884 0.11874 0.0
C473 C 0.14331 0.8894 0.14712 0.0
C474 C 0.11909 0.88127 0.15577 0.0
C475 C 0.09816 0.8714 0.14624 0.0
C476 C 0.11329 0.88458 0.17435 0.0
C477 C 0.16608 0.90046 0.15669 0.0
C478 C 0.13273 0.87838 0.18723 0.0
C479 C 0.12771 0.88279 0.2046 0.0
C480 C 0.10323 0.8935 0.20928 0.0
C481 C 0.08343 0.89919 0.19634 0.0
C482 C 0.08836 0.89473 0.1791 0.0
H483 H 0.18095 0.90797 0.14779 0.0
H484 H 0.15491 0.91018 0.16541 0.0
H485 H 0.18003 0.89149 0.16475 0.0
H486 H 0.15193 0.87035 0.18384 0.0
H487 H 0.14332 0.87817 0.21427 0.0
H488 H 0.85466 0.62316 0.8179 0.0
H489 H 0.85922 0.61976 0.84925 0.0
H490 H 0.94608 0.64422 0.8475 0.0
H491 H 0.94172 0.64781 0.81628 0.0
H492 H 0.90445 0.60368 0.87214 0.0
H493 H 0.8944 0.67761 0.87864 0.0
H494 H 0.88468 0.66584 0.85908 0.0
H495 H 0.92302 0.67044 0.86399 0.0
C496 C 0.87498 0.62752 0.82413 0.0
C497 C 0.89768 0.63598 0.81458 0.0
C498 C 0.87752 0.62556 0.84205 0.0
C499 C 0.90274 0.63204 0.8507 0.0
C500 C 0.92622 0.63939 0.84108 0.0
H501 H 0.96738 0.65204 0.95181 0.0
H502 H 0.95882 0.64639 0.92127 0.0
C503 C 0.92371 0.64138 0.82321 0.0
C504 C 0.90377 0.63246 0.86984 0.0
H505 H 0.90852 0.66153 0.90376 0.0
C506 C 0.90507 0.61629 0.87912 0.0
C507 C 0.90419 0.64895 0.87888 0.0
C508 C 0.90122 0.66671 0.86969 0.0
C509 C 0.90823 0.61625 0.89721 0.0
C510 C 0.90982 0.63277 0.90613 0.0
C511 C 0.90749 0.64888 0.89686 0.0
C512 C 0.91583 0.63393 0.92492 0.0
C513 C 0.91099 0.59862 0.90661 0.0
C514 C 0.89465 0.6285 0.93721 0.0
C515 C 0.89948 0.63173 0.95484 0.0
C516 C 0.92548 0.64056 0.96038 0.0
C517 C 0.94701 0.64533 0.94803 0.0
C518 C 0.94221 0.64209 0.93053 0.0
H519 H 0.91362 0.58714 0.8976 0.0
H520 H 0.93033 0.59894 0.91552 0.0
H521 H 0.89071 0.59636 0.91448 0.0
H522 H 0.87395 0.62239 0.93313 0.0
H523 H 0.88243 0.62796 0.96403 0.0
H524 H 0.9267 0.09105 0.95884 0.0
H525 H 0.9278 0.09889 0.9283 0.0
H526 H 0.85921 0.13835 0.93658 0.0
H527 H 0.8578 0.13054 0.96737 0.0
H528 H 0.8725 0.09629 0.90695 0.0
H529 H 0.92717 0.16341 0.90615 0.0
H530 H 0.93327 0.14761 0.92348 0.0
H531 H 0.89832 0.15903 0.92178 0.0
C532 C 0.91214 0.10161 0.9543 0.0
C533 C 0.89205 0.1101 0.96558 0.0
C534 C 0.91279 0.10605 0.9368 0.0
C535 C 0.89358 0.11917 0.93019 0.0
C536 C 0.87436 0.12827 0.94147 0.0
H537 H 0.86822 0.11995 0.81709 0.0
H538 H 0.85638 0.12472 0.84772 0.0
C539 C 0.87361 0.12379 0.95906 0.0
C540 C 0.89244 0.12213 0.91128 0.0
H541 H 0.91585 0.15031 0.87927 0.0
C542 C 0.88151 0.10822 0.90086 0.0
C543 C 0.9043 0.13769 0.90346 0.0
C544 C 0.91658 0.15284 0.91419 0.0
C545 C 0.88316 0.10912 0.88279 0.0
C546 C 0.89581 0.12447 0.87491 0.0
C547 C 0.90587 0.13866 0.88534 0.0
C548 C 0.90231 0.12484 0.85611 0.0
C549 C 0.87287 0.09321 0.87231 0.0
C550 C 0.93199 0.1242 0.8506 0.0
C551 C 0.93877 0.12151 0.83321 0.0
C552 C 0.916 0.11951 0.82091 0.0
C553 C 0.88625 0.12143 0.82625 0.0
C554 C 0.87945 0.12404 0.84375 0.0
H555 H 0.86796 0.08135 0.88051 0.0
H556 H 0.85229 0.09682 0.86521 0.0
H557 H 0.89003 0.08939 0.86266 0.0
H558 H 0.94998 0.12482 0.85989 0.0
H559 H 0.96193 0.12026 0.82951 0.0
H560 H 0.13071 0.8731 0.71748 0.0
H561 H 0.11745 0.8803 0.68752 0.0
H562 H 0.19029 0.84763 0.66942 0.0
H563 H 0.20417 0.84095 0.699 0.0
H564 H 0.18529 0.8777 0.65049 0.0
H565 H 0.07464 0.84479 0.65712 0.0
H566 H 0.08139 0.86344 0.67126 0.0
H567 H 0.10275 0.8432 0.67362 0.0
C568 C 0.14405 0.86764 0.70709 0.0
C569 C 0.16829 0.85629 0.71064 0.0
C570 C 0.13635 0.87167 0.68998 0.0
C571 C 0.15253 0.86423 0.67618 0.0
C572 C 0.17742 0.85353 0.6798 0.0
H573 H 0.11091 0.82432 0.57865 0.0
H574 H 0.12004 0.83234 0.60857 0.0
C575 C 0.18525 0.84964 0.69679 0.0
C576 C 0.14306 0.86646 0.65793 0.0
H577 H 0.08862 0.85424 0.62954 0.0
C578 C 0.16397 0.87283 0.6459 0.0
C579 C 0.11527 0.86001 0.65196 0.0
C580 C 0.09225 0.85234 0.66409 0.0
C581 C 0.15859 0.87195 0.62805 0.0
C582 C 0.1312 0.86494 0.62208 0.0
C583 C 0.1096 0.85962 0.63415 0.0
C584 C 0.12593 0.86069 0.6036 0.0
C585 C 0.183 0.87744 0.61575 0.0
C586 C 0.12631 0.87397 0.59071 0.0
C587 C 0.1214 0.86935 0.57337 0.0
C588 C 0.11563 0.85143 0.56875 0.0
C589 C 0.11516 0.83827 0.58173 0.0
C590 C 0.12032 0.84284 0.5989 0.0
H591 H 0.20463 0.87937 0.62243 0.0
H592 H 0.18596 0.8672 0.60548 0.0
H593 H 0.17687 0.8903 0.60948 0.0
H594 H 0.13009 0.88789 0.59405 0.0
H595 H 0.12167 0.8798 0.56367 0.0
H596 H 0.13906 0.37124 0.56374 0.0
H597 H 0.12905 0.36283 0.59386 0.0
H598 H 0.17965 0.40857 0.61127 0.0
H599 H 0.19019 0.41676 0.58155 0.0
H600 H 0.1916 0.37801 0.63019 0.0
H601 H 0.06957 0.38978 0.62415 0.0
H602 H 0.08592 0.37355 0.60985 0.0
H603 H 0.09548 0.39684 0.60772 0.0
C604 C 0.14816 0.37941 0.57402 0.0
C605 C 0.16521 0.39475 0.57024 0.0
C606 C 0.14235 0.37463 0.5912 0.0
C607 C 0.15334 0.38519 0.60481 0.0
C608 C 0.17098 0.40019 0.601 0.0
H609 H 0.10364 0.42301 0.70006 0.0
H610 H 0.11328 0.41381 0.67053 0.0
C611 C 0.17687 0.40491 0.58395 0.0
C612 C 0.14568 0.38153 0.6231 0.0
H613 H 0.08855 0.3854 0.65189 0.0
C614 C 0.16899 0.37922 0.63497 0.0
C615 C 0.11615 0.38317 0.62925 0.0
C616 C 0.09027 0.38608 0.61716 0.0
C617 C 0.16387 0.37977 0.65284 0.0
C618 C 0.13455 0.38238 0.65897 0.0
C619 C 0.11099 0.38338 0.64711 0.0
C620 C 0.12843 0.38716 0.67721 0.0
C621 C 0.19007 0.37891 0.66499 0.0
C622 C 0.13377 0.37519 0.69087 0.0
C623 C 0.12841 0.38049 0.70798 0.0
C624 C 0.1175 0.39779 0.71159 0.0
C625 C 0.11203 0.40959 0.69781 0.0
C626 C 0.11743 0.40433 0.68086 0.0
H627 H 0.21168 0.37915 0.65803 0.0
H628 H 0.18947 0.39035 0.67417 0.0
H629 H 0.1889 0.36633 0.67261 0.0
H630 H 0.14195 0.36179 0.68831 0.0
H631 H 0.13267 0.37107 0.71832 0.0
H632 H 0.86767 0.16911 0.3319 0.0
H633 H 0.87425 0.15971 0.36171 0.0
H634 H 0.87667 0.10434 0.34568 0.0
H635 H 0.87007 0.11372 0.31542 0.0
H636 H 0.83661 0.11284 0.37455 0.0
H637 H 0.95053 0.1391 0.38463 0.0
H638 H 0.92612 0.15505 0.37458 0.0
H639 H 0.93548 0.13465 0.36343 0.0
C640 C 0.86978 0.15491 0.3346 0.0
C641 C 0.86837 0.14216 0.32125 0.0
C642 C 0.87371 0.14958 0.35169 0.0
C643 C 0.87631 0.13136 0.35589 0.0
C644 C 0.87493 0.11849 0.34266 0.0
H645 H 0.9177 0.11475 0.46545 0.0
H646 H 0.91698 0.10872 0.43438 0.0
C647 C 0.87124 0.12386 0.32541 0.0
C648 C 0.87914 0.12614 0.37429 0.0
H649 H 0.92079 0.13489 0.41012 0.0
C650 C 0.85529 0.11729 0.38231 0.0
C651 C 0.90367 0.13175 0.38435 0.0
C652 C 0.93056 0.14051 0.37629 0.0
C653 C 0.85444 0.11502 0.40032 0.0
C654 C 0.87787 0.12199 0.41053 0.0
C655 C 0.90266 0.12969 0.40235 0.0
C656 C 0.87597 0.1231 0.42967 0.0
C657 C 0.82811 0.10558 0.40827 0.0
C658 C 0.85293 0.13295 0.43742 0.0
C659 C 0.85328 0.13642 0.45514 0.0
C660 C 0.87681 0.13023 0.46552 0.0
C661 C 0.89919 0.11968 0.45787 0.0
C662 C 0.89885 0.11624 0.44009 0.0
H663 H 0.81802 0.0959 0.39907 0.0
H664 H 0.83452 0.09829 0.4202 0.0
H665 H 0.81087 0.11564 0.41163 0.0
H666 H 0.83539 0.13874 0.42963 0.0
H667 H 0.83572 0.14462 0.46057 0.0
H668 H 0.93233 0.65393 0.31901 0.0
H669 H 0.92277 0.65856 0.34981 0.0
H670 H 0.86795 0.61104 0.35071 0.0
H671 H 0.87627 0.60683 0.31988 0.0
H672 H 0.84398 0.6358 0.37013 0.0
H673 H 0.96369 0.63094 0.38691 0.0
H674 H 0.95543 0.64911 0.37253 0.0
H675 H 0.95001 0.62631 0.36552 0.0
C676 C 0.91796 0.6446 0.32574 0.0
C677 C 0.90525 0.62993 0.317 0.0
C678 C 0.91275 0.64715 0.3434 0.0
C679 C 0.89532 0.63486 0.35275 0.0
C680 C 0.88164 0.62066 0.34386 0.0
H681 H 0.90066 0.60766 0.46018 0.0
H682 H 0.90851 0.61186 0.42931 0.0
C683 C 0.88641 0.61827 0.32618 0.0
C684 C 0.89178 0.63635 0.37182 0.0
H685 H 0.93054 0.63714 0.40976 0.0
C686 C 0.86292 0.63615 0.3788 0.0
C687 C 0.91649 0.63656 0.38318 0.0
C688 C 0.94814 0.63556 0.3767 0.0
C689 C 0.85806 0.63578 0.39671 0.0
C690 C 0.88276 0.63633 0.40807 0.0
C691 C 0.9116 0.6369 0.40109 0.0
C692 C 0.87934 0.63486 0.42715 0.0
C693 C 0.82652 0.63393 0.4032 0.0
C694 C 0.86101 0.64672 0.43644 0.0
C695 C 0.85608 0.64416 0.45412 0.0
C696 C 0.86994 0.62995 0.46294 0.0
C697 C 0.88961 0.61875 0.45381 0.0
C698 C 0.89413 0.62113 0.43612 0.0
H699 H 0.81134 0.62881 0.39301 0.0
H700 H 0.82536 0.62471 0.41443 0.0
H701 H 0.8182 0.64729 0.4073 0.0
H702 H 0.8501 0.65778 0.42997 0.0
H703 H 0.84104 0.65314 0.46082 0.0
H704 H 0.63233 0.37888 0.56194 0.0
H705 H 0.63939 0.38749 0.59233 0.0
H706 H 0.62384 0.33272 0.60784 0.0
H707 H 0.61646 0.32412 0.5779 0.0
H708 H 0.59134 0.35791 0.627 0.0
H709 H 0.71169 0.37545 0.62317 0.0
H710 H 0.68675 0.38651 0.60845 0.0
H711 H 0.69322 0.36285 0.60641 0.0
C712 C 0.63059 0.3687 0.57185 0.0
C713 C 0.62386 0.35082 0.56749 0.0
C714 C 0.63467 0.37362 0.58918 0.0
C715 C 0.63224 0.36072 0.60233 0.0
C716 C 0.62568 0.34291 0.59792 0.0
H717 H 0.69484 0.33672 0.7001 0.0
H718 H 0.68487 0.3436 0.67 0.0
C719 C 0.62156 0.33802 0.58074 0.0
C720 C 0.63636 0.36531 0.6208 0.0
H721 H 0.68998 0.37466 0.65066 0.0
C722 C 0.61273 0.36192 0.63221 0.0
C723 C 0.66433 0.3705 0.62749 0.0
C724 C 0.6906 0.37397 0.61583 0.0
C725 C 0.61677 0.36248 0.65017 0.0
C726 C 0.64511 0.36689 0.65689 0.0
C727 C 0.66826 0.37135 0.64546 0.0
C728 C 0.65236 0.36425 0.6754 0.0
C729 C 0.59126 0.35709 0.66174 0.0
C730 C 0.63773 0.37381 0.68855 0.0
C731 C 0.64325 0.36978 0.70594 0.0
C732 C 0.66358 0.35621 0.71041 0.0
C733 C 0.67889 0.34718 0.69717 0.0
C734 C 0.67334 0.35116 0.6799 0.0
H735 H 0.57236 0.3513 0.65437 0.0
H736 H 0.5987 0.34708 0.67143 0.0
H737 H 0.58303 0.36907 0.66878 0.0
H738 H 0.62179 0.38417 0.68536 0.0
H739 H 0.63126 0.37706 0.71584 0.0
H740 H 0.61223 0.87005 0.71548 0.0
H741 H 0.61646 0.86151 0.68492 0.0
H742 H 0.64502 0.9152 0.6724 0.0
H743 H 0.64046 0.92384 0.70256 0.0
H744 H 0.59946 0.90297 0.65145 0.0
H745 H 0.69142 0.85314 0.65552 0.0
H746 H 0.65975 0.84943 0.66927 0.0
H747 H 0.68322 0.86855 0.67285 0.0
C748 C 0.61975 0.87994 0.70622 0.0
C749 C 0.62595 0.89763 0.71145 0.0
C750 C 0.62219 0.87504 0.68878 0.0
C751 C 0.63115 0.88771 0.67639 0.0
C752 C 0.63794 0.90522 0.68171 0.0
H753 H 0.70739 0.8914 0.57792 0.0
H754 H 0.69404 0.88757 0.60811 0.0
C755 C 0.63537 0.91013 0.699 0.0
C756 C 0.63272 0.88328 0.65772 0.0
H757 H 0.67309 0.85992 0.62789 0.0
C758 C 0.61525 0.89337 0.64627 0.0
C759 C 0.65339 0.87078 0.65104 0.0
C760 C 0.67322 0.85989 0.66274 0.0
C761 C 0.61891 0.89201 0.62833 0.0
C762 C 0.64018 0.87986 0.62161 0.0
C763 C 0.65667 0.86913 0.63306 0.0
C764 C 0.64844 0.87991 0.60303 0.0
C765 C 0.6013 0.90442 0.61681 0.0
C766 C 0.62747 0.87636 0.59001 0.0
C767 C 0.63499 0.87872 0.57258 0.0
C768 C 0.66369 0.88452 0.56793 0.0
C769 C 0.68501 0.88706 0.581 0.0
C770 C 0.67745 0.8848 0.59832 0.0
H771 H 0.59015 0.91527 0.62422 0.0
H772 H 0.61592 0.91068 0.60694 0.0
H773 H 0.58386 0.89662 0.61 0.0
H774 H 0.6051 0.87221 0.59333 0.0
H775 H 0.61813 0.87652 0.56283 0.0
H776 H 0.356 0.62215 0.31839 0.0
H777 H 0.36027 0.61891 0.34978 0.0
H778 H 0.44618 0.64456 0.34836 0.0
H779 H 0.44222 0.64789 0.31709 0.0
H780 H 0.41007 0.60401 0.37324 0.0
H781 H 0.3875 0.67716 0.37828 0.0
H782 H 0.37839 0.66424 0.35928 0.0
H783 H 0.41618 0.67088 0.36325 0.0
C784 C 0.3761 0.62677 0.3247 0.0
C785 C 0.39863 0.63549 0.31523 0.0
C786 C 0.37847 0.62488 0.34263 0.0
C787 C 0.40336 0.6317 0.35135 0.0
C788 C 0.42669 0.63935 0.34184 0.0
H789 H 0.46307 0.65853 0.4517 0.0
H790 H 0.45501 0.65205 0.42129 0.0
C791 C 0.42438 0.64122 0.32395 0.0
C792 C 0.40391 0.63249 0.37044 0.0
H793 H 0.40286 0.66238 0.40377 0.0
C794 C 0.40822 0.61671 0.38 0.0
C795 C 0.40117 0.64907 0.37915 0.0
C796 C 0.3953 0.66632 0.36953 0.0
C797 C 0.41131 0.61724 0.39808 0.0
C798 C 0.40966 0.63395 0.4067 0.0
C799 C 0.40426 0.6496 0.39713 0.0
C800 C 0.41562 0.63594 0.42543 0.0
C801 C 0.41752 0.60012 0.40777 0.0
C802 C 0.39633 0.62879 0.43795 0.0
C803 C 0.40093 0.63247 0.45552 0.0
C804 C 0.42473 0.64348 0.46075 0.0
C805 C 0.44439 0.65012 0.44815 0.0
C806 C 0.43986 0.6464 0.43073 0.0
H807 H 0.42291 0.58882 0.39896 0.0
H808 H 0.43631 0.60204 0.41689 0.0
H809 H 0.3976 0.59638 0.41544 0.0
H810 H 0.37722 0.62089 0.43411 0.0
H811 H 0.38536 0.62722 0.46492 0.0
H812 H 0.31057 0.09498 0.44995 0.0
H813 H 0.31905 0.10316 0.41992 0.0
H814 H 0.40147 0.1289 0.43398 0.0
H815 H 0.3932 0.12061 0.46433 0.0
H816 H 0.32905 0.13749 0.40377 0.0
H817 H 0.42505 0.09067 0.39721 0.0
H818 H 0.39931 0.08935 0.41505 0.0
H819 H 0.42659 0.10692 0.41436 0.0
C820 C 0.33046 0.10248 0.44674 0.0
C821 C 0.35137 0.107 0.45954 0.0
C822 C 0.33519 0.10721 0.42955 0.0
C823 C 0.36102 0.11645 0.42468 0.0
C824 C 0.38154 0.12157 0.43745 0.0
H825 H 0.42132 0.12644 0.31753 0.0
H826 H 0.41753 0.13127 0.34867 0.0
C827 C 0.37672 0.11691 0.45478 0.0
C828 C 0.36668 0.11979 0.40609 0.0
H829 H 0.40871 0.10522 0.37216 0.0
C830 C 0.34671 0.13064 0.39686 0.0
C831 C 0.38973 0.11085 0.39712 0.0
C832 C 0.41137 0.09869 0.40633 0.0
C833 C 0.34875 0.13245 0.37884 0.0
C834 C 0.37095 0.12283 0.36977 0.0
C835 C 0.39166 0.11257 0.3791 0.0
C836 C 0.37196 0.12211 0.3506 0.0
C837 C 0.32699 0.14457 0.36972 0.0
C838 C 0.34748 0.11558 0.34123 0.0
C839 C 0.34951 0.11289 0.3234 0.0
C840 C 0.37622 0.11646 0.31457 0.0
C841 C 0.4004 0.12355 0.32389 0.0
C842 C 0.3983 0.12629 0.34172 0.0
H843 H 0.31867 0.15528 0.37845 0.0
H844 H 0.33722 0.15094 0.3582 0.0
H845 H 0.30754 0.13654 0.36545 0.0
H846 H 0.32715 0.11183 0.34781 0.0
H847 H 0.33053 0.10729 0.31668 0.0
H848 H 0.71252 0.87967 0.20537 0.0
H849 H 0.70137 0.88484 0.17491 0.0
H850 H 0.61089 0.86761 0.18331 0.0
H851 H 0.62166 0.86276 0.21383 0.0
H852 H 0.6855 0.85878 0.15289 0.0
H853 H 0.59791 0.91084 0.15296 0.0
H854 H 0.62067 0.90627 0.17165 0.0
H855 H 0.58881 0.89246 0.16693 0.0
C856 C 0.69005 0.87736 0.20083 0.0
C857 C 0.668 0.87074 0.21205 0.0
C858 C 0.68373 0.88032 0.1834 0.0
C859 C 0.65523 0.87679 0.17682 0.0
C860 C 0.63286 0.87084 0.18813 0.0
H861 H 0.57143 0.85059 0.0826 0.0
H862 H 0.58605 0.85883 0.11183 0.0
C863 C 0.63911 0.86797 0.20559 0.0
C864 C 0.64979 0.87733 0.15791 0.0
H865 H 0.60165 0.89276 0.12721 0.0
C866 C 0.66754 0.86649 0.14722 0.0
C867 C 0.62633 0.88738 0.15051 0.0
C868 C 0.60755 0.90003 0.1611 0.0
C869 C 0.66152 0.8647 0.12953 0.0
C870 C 0.63732 0.87418 0.12228 0.0
C871 C 0.62021 0.88552 0.13282 0.0
C872 C 0.62769 0.87104 0.10423 0.0
C873 C 0.68012 0.85194 0.11892 0.0
C874 C 0.64596 0.87559 0.09018 0.0
C875 C 0.63764 0.87087 0.07334 0.0
C876 C 0.61096 0.8615 0.07036 0.0
C877 C 0.59224 0.85766 0.08443 0.0
C878 C 0.60049 0.86242 0.10117 0.0
H879 H 0.69484 0.84348 0.12706 0.0
H880 H 0.66565 0.84302 0.11108 0.0
H881 H 0.69433 0.85974 0.10992 0.0
H882 H 0.66691 0.88244 0.09228 0.0
H883 H 0.65248 0.87407 0.06276 0.0
H884 H 0.62458 0.39138 0.06378 0.0
H885 H 0.61253 0.3862 0.09427 0.0
H886 H 0.70605 0.3826 0.10617 0.0
H887 H 0.71825 0.38816 0.07594 0.0
H888 H 0.62591 0.35938 0.11873 0.0
H889 H 0.67834 0.42443 0.13602 0.0
H890 H 0.67063 0.41814 0.114 0.0
H891 H 0.70274 0.40927 0.12491 0.0
C892 C 0.64253 0.3892 0.07286 0.0
C893 C 0.67237 0.39043 0.06752 0.0
C894 C 0.63563 0.38626 0.09027 0.0
C895 C 0.65843 0.38444 0.10254 0.0
C896 C 0.68814 0.38442 0.097 0.0
H897 H 0.65687 0.38608 0.21523 0.0
H898 H 0.67165 0.38057 0.18522 0.0
C899 C 0.69505 0.38753 0.07969 0.0
C900 C 0.65134 0.38373 0.12123 0.0
H901 H 0.66162 0.40638 0.15908 0.0
C902 C 0.63373 0.36963 0.12757 0.0
C903 C 0.6615 0.39717 0.13274 0.0
C904 C 0.67911 0.4132 0.12659 0.0
C905 C 0.62621 0.36855 0.14516 0.0
C906 C 0.63634 0.38201 0.15661 0.0
C907 C 0.65418 0.39597 0.1503 0.0
C908 C 0.62702 0.38272 0.17495 0.0
C909 C 0.6076 0.35299 0.15137 0.0
C910 C 0.59704 0.38557 0.17913 0.0
C911 C 0.58859 0.38881 0.19619 0.0
C912 C 0.60997 0.3893 0.20943 0.0
C913 C 0.63986 0.38571 0.20534 0.0
C914 C 0.64834 0.38259 0.18821 0.0
H915 H 0.60859 0.34149 0.14227 0.0
H916 H 0.61502 0.34841 0.16431 0.0
H917 H 0.58405 0.35733 0.15241 0.0
H918 H 0.58031 0.38608 0.16908 0.0
H919 H 0.56537 0.3915 0.1989 0.0
H920 H 0.34886 0.12137 0.818 0.0
H921 H 0.35165 0.11777 0.84941 0.0
H922 H 0.44345 0.13447 0.84849 0.0
H923 H 0.44094 0.13819 0.81721 0.0
H924 H 0.39377 0.09814 0.87306 0.0
H925 H 0.39702 0.17242 0.87845 0.0
H926 H 0.38505 0.16103 0.8591 0.0
H927 H 0.42401 0.16301 0.86393 0.0
C928 C 0.36983 0.12393 0.82443 0.0
C929 C 0.39459 0.1303 0.81509 0.0
C930 C 0.37136 0.12185 0.84238 0.0
C931 C 0.39761 0.12612 0.85126 0.0
C932 C 0.42287 0.13132 0.84187 0.0
H933 H 0.46367 0.14384 0.95219 0.0
H934 H 0.45447 0.13804 0.92175 0.0
C935 C 0.42139 0.13341 0.82397 0.0
C936 C 0.39811 0.12676 0.87038 0.0
H937 H 0.40723 0.15592 0.90391 0.0
C938 C 0.39642 0.11074 0.87988 0.0
C939 C 0.40121 0.14327 0.87919 0.0
C940 C 0.40166 0.16095 0.8697 0.0
C941 C 0.39923 0.11079 0.89799 0.0
C942 C 0.40352 0.12727 0.90669 0.0
C943 C 0.40411 0.14328 0.89719 0.0
C944 C 0.40958 0.12835 0.92548 0.0
C945 C 0.3988 0.09324 0.90765 0.0
C946 C 0.38751 0.12449 0.93779 0.0
C947 C 0.39272 0.1278 0.95537 0.0
C948 C 0.41999 0.13517 0.96081 0.0
C949 C 0.44233 0.13831 0.94846 0.0
C950 C 0.43715 0.13497 0.93102 0.0
H951 H 0.39946 0.08151 0.89882 0.0
H952 H 0.41801 0.09246 0.91662 0.0
H953 H 0.37817 0.09242 0.91549 0.0
H954 H 0.36592 0.11959 0.93375 0.0
H955 H 0.37505 0.12532 0.96457 0.0
H956 H 0.43034 0.62731 0.8191 0.0
H957 H 0.42943 0.63062 0.85059 0.0
H958 H 0.33487 0.62115 0.85073 0.0
H959 H 0.33539 0.61784 0.81936 0.0
H960 H 0.38195 0.65341 0.87554 0.0
H961 H 0.38624 0.57877 0.87834 0.0
H962 H 0.40136 0.59129 0.8604 0.0
H963 H 0.36185 0.5889 0.86268 0.0
C964 C 0.40921 0.62635 0.82577 0.0
C965 C 0.38297 0.62212 0.8167 0.0
C966 C 0.40877 0.62828 0.84375 0.0
C967 C 0.38211 0.62605 0.85291 0.0
C968 C 0.35564 0.62293 0.84383 0.0
H969 H 0.31881 0.60102 0.95272 0.0
H970 H 0.32802 0.6078 0.92248 0.0
C971 C 0.35603 0.62102 0.8259 0.0
C972 C 0.3822 0.6248 0.87196 0.0
H973 H 0.37742 0.59407 0.90444 0.0
C974 C 0.38131 0.64049 0.88196 0.0
C975 C 0.38148 0.60789 0.88017 0.0
C976 C 0.38294 0.59068 0.86994 0.0
C977 C 0.37846 0.63965 0.90005 0.0
C978 C 0.37676 0.62269 0.9082 0.0
C979 C 0.37869 0.60705 0.89816 0.0
C980 C 0.37051 0.62061 0.9269 0.0
C981 C 0.37602 0.65681 0.91024 0.0
C982 C 0.39118 0.62585 0.93955 0.0
C983 C 0.38592 0.62201 0.95703 0.0
C984 C 0.36005 0.61272 0.96203 0.0
C985 C 0.33909 0.60805 0.94933 0.0
C986 C 0.34427 0.61194 0.93201 0.0
H987 H 0.37306 0.6687 0.90178 0.0
H988 H 0.35701 0.65609 0.91938 0.0
H989 H 0.3966 0.65873 0.91793 0.0
H990 H 0.41178 0.63235 0.93586 0.0
H991 H 0.40253 0.62572 0.9665 0.0
H992 H 0.89588 0.21119 0.26744 0.0
H993 H 0.93201 0.23594 0.267 0.0
H994 H 1.0036 0.1982 0.2742 0.0
H995 H 0.96799 0.17353 0.27458 0.0
H996 H 0.97527 0.2456 0.29301 0.0
H997 H 0.02839 0.22687 0.23084 0.0
H998 H 0.99252 0.21833 0.23739 0.0
H999 H 0.02599 0.20901 0.24634 0.0
C1000 C 0.91932 0.20818 0.26894 0.0
C1001 C 0.92904 0.19037 0.27095 0.0
C1002 C 0.9399 0.22232 0.26868 0.0
C1003 C 0.97049 0.21884 0.27028 0.0
C1004 C 0.98015 0.20113 0.27261 0.0
H1005 H 0.13172 0.28409 0.26998 0.0
H1006 H 0.09569 0.25934 0.27122 0.0
C1007 C 0.95968 0.18705 0.27291 0.0
C1008 C 0.99247 0.23367 0.26977 0.0
H1009 H 0.05216 0.24964 0.24719 0.0
C1010 C 0.99198 0.24657 0.28295 0.0
C1011 C 0.01438 0.23479 0.25669 0.0
C1012 C 0.01532 0.22162 0.24191 0.0
C1013 C 0.01316 0.26042 0.28356 0.0
C1014 C 0.03501 0.2616 0.27044 0.0
C1015 C 0.03549 0.24867 0.25727 0.0
C1016 C 0.05691 0.27649 0.26982 0.0
C1017 C 1.01232 0.27345 0.29847 0.0
C1018 C 0.04707 0.29427 0.26834 0.0
C1019 C 0.0675 0.30836 0.26767 0.0
C1020 C 0.09828 0.30499 0.2683 0.0
C1021 C 0.10818 0.28714 0.26952 0.0
C1022 C 0.08763 0.273 0.27022 0.0
H1023 H 1.00022 0.26779 0.30973 0.0
H1024 H 0.03513 0.27721 0.30261 0.0
H1025 H 1.00054 0.28582 0.29439 0.0
H1026 H 0.02352 0.29726 0.26758 0.0
H1027 H 0.05905 0.32192 0.26659 0.0
H1028 H 0.14803 0.96367 0.27343 0.0
H1029 H 0.18635 0.98687 0.27702 0.0
H1030 H 0.25 0.95309 0.25097 0.0
H1031 H 0.21224 0.9299 0.24755 0.0
H1032 H 0.27147 0.96659 0.28154 0.0
H1033 H 0.22288 0.02088 0.24133 0.0
H1034 H 0.19869 0.0122 0.2578 0.0
H1035 H 0.20997 0.99797 0.24027 0.0
C1036 C 0.17009 0.9613 0.26828 0.0
C1037 C 0.17706 0.94492 0.26022 0.0
C1038 C 0.19195 0.97459 0.2703 0.0
C1039 C 0.22102 0.97176 0.26415 0.0
C1040 C 0.22776 0.95556 0.25583 0.0
H1041 H 0.36452 0.0476 0.24894 0.0
H1042 H 0.32527 0.02508 0.24609 0.0
C1043 C 0.20607 0.94232 0.25387 0.0
C1044 C 0.24496 0.98523 0.26691 0.0
H1045 H 0.26655 0.02795 0.25698 0.0
C1046 C 0.27038 0.98003 0.2762 0.0
C1047 C 0.24363 0.00268 0.25979 0.0
C1048 C 0.21747 0.00879 0.2491 0.0
C1049 C 0.29452 0.99176 0.27852 0.0
C1050 C 0.29302 0.0093 0.27161 0.0
C1051 C 0.2676 0.01452 0.26234 0.0
C1052 C 0.31783 0.02233 0.27354 0.0
C1053 C 0.32172 0.9851 0.28795 0.0
C1054 C 0.32688 0.0282 0.28994 0.0
C1055 C 0.34948 0.04101 0.29163 0.0
C1056 C 0.36332 0.04833 0.27694 0.0
C1057 C 0.35446 0.04222 0.26054 0.0
C1058 C 0.33191 0.0294 0.25887 0.0
H1059 H 0.32243 0.97021 0.28853 0.0
H1060 H 0.34241 0.98997 0.28167 0.0
H1061 H 0.32134 0.99025 0.30139 0.0
H1062 H 0.31601 0.02317 0.30144 0.0
H1063 H 0.35553 0.04551 0.30445 0.0
H1064 H 0.10076 0.94556 1.00025 0.0
H1065 H 0.06045 0.96757 0.99927 0.0
H1066 H 0.08585 0.98717 0.04947 0.0
H1067 H 0.12622 0.9651 0.05067 0.0
H1068 H 1.01262 0.97058 0.02574 0.0
H1069 H 0.07962 0.03268 0.01713 0.0
H1070 H 0.09368 0.01068 1.0117 0.0
H1071 H 0.09164 0.01759 0.03385 0.0
C1072 C 0.09804 0.95467 1.01103 0.0
C1073 C 0.11679 0.95358 0.02555 0.0
C1074 C 0.0749 0.96718 1.01046 0.0
C1075 C 0.07028 0.97902 0.02426 0.0
C1076 C 0.08925 0.97824 0.03862 0.0
H1077 H 0.94937 0.06471 0.04855 0.0
H1078 H 0.98806 0.04184 0.04772 0.0
C1079 C 0.11227 0.96561 0.03929 0.0
C1080 C 0.04499 0.99176 0.02389 0.0
H1081 H 0.02815 0.03636 0.02228 0.0
C1082 C 0.01591 0.98497 0.02489 0.0
C1083 C 0.04946 0.01048 0.02279 0.0
C1084 C 0.08024 0.01839 0.02118 0.0
C1085 C 0.99112 0.99647 0.02534 0.0
C1086 C 0.99557 0.01524 0.02434 0.0
C1087 C 0.02472 0.02198 0.02307 0.0
C1088 C 0.97056 0.02826 0.02523 0.0
C1089 C 0.96052 0.98844 0.02748 0.0
C1090 C 0.94753 0.02817 1.01295 0.0
C1091 C 0.92506 0.04122 1.01348 0.0
C1092 C 0.92551 0.05471 0.02617 0.0
C1093 C 0.94836 0.05456 0.03857 0.0
C1094 C 0.97058 0.04149 0.0381 0.0
H1095 H 0.96156 0.9745 0.03252 0.0
H1096 H 0.94672 0.99663 0.03638 0.0
H1097 H 0.94926 0.98805 1.01475 0.0
H1098 H 0.94735 0.01832 1.00268 0.0
H1099 H 0.90793 0.04109 1.00365 0.0
H1100 H 0.30644 0.17389 1.00899 0.0
H1101 H 0.27211 0.1992 1.00879 0.0
H1102 H 0.34567 0.23577 1.01511 0.0
H1103 H 0.38047 0.21039 1.01513 0.0
H1104 H 0.26273 0.22443 0.03462 0.0
H1105 H 0.3004 0.25696 0.97393 0.0
H1106 H 0.31064 0.2343 0.97961 0.0
H1107 H 0.32926 0.253 0.9895 0.0
C1108 C 0.31546 0.18731 1.01025 0.0
C1109 C 0.34628 0.19011 1.01203 0.0
C1110 C 0.29573 0.20177 1.01015 0.0
C1111 C 0.30631 0.21938 1.01174 0.0
C1112 C 0.33706 0.22229 1.01355 0.0
H1113 H 0.22042 0.32306 0.01663 0.0
H1114 H 0.25496 0.29786 0.01619 0.0
C1115 C 0.35691 0.20778 1.01364 0.0
C1116 C 0.28488 0.23454 1.01198 0.0
H1117 H 0.26447 0.2726 0.99049 0.0
C1118 C 0.26304 0.23494 0.02494 0.0
C1119 C 0.28531 0.24822 0.99933 0.0
C1120 C 0.30747 0.2481 0.9847 0.0
C1121 C 0.24192 0.24881 0.02578 0.0
C1122 C 0.24231 0.26247 1.01312 0.0
C1123 C 0.26416 0.26208 1.00015 0.0
C1124 C 0.22083 0.27761 1.01337 0.0
C1125 C 0.21982 0.24893 0.04045 0.0
C1126 C 0.19007 0.27463 1.01177 0.0
C1127 C 0.17011 0.28908 1.01205 0.0
C1128 C 0.18063 0.30676 1.01384 0.0
C1129 C 0.21148 0.30964 1.01527 0.0
C1130 C 0.23133 0.29524 1.01499 0.0
H1131 H 0.22701 0.24014 0.05124 0.0
H1132 H 0.21657 0.26274 0.04549 0.0
H1133 H 0.19804 0.24395 0.03571 0.0
H1134 H 0.18151 0.26115 1.01018 0.0
H1135 H 0.14651 0.28641 1.01084 0.0
H1136 H 0.91551 0.69869 0.78246 0.0
H1137 H 0.95586 0.72083 0.78432 0.0
H1138 H 0.96159 0.72217 0.72881 0.0
H1139 H 0.92144 0.70022 0.7268 0.0
H1140 H 0.01489 0.71612 0.77029 0.0
H1141 H 0.95818 0.77565 0.74274 0.0
H1142 H 0.93807 0.75653 0.75109 0.0
H1143 H 0.95449 0.75568 0.72995 0.0
C1144 C 0.92501 0.70395 0.77065 0.0
C1145 C 0.91518 0.69773 0.75447 0.0
C1146 C 0.94816 0.71651 0.77174 0.0
C1147 C 0.96154 0.72325 0.7567 0.0
C1148 C 0.95129 0.71736 0.74057 0.0
H1149 H 0.10396 0.79278 0.72546 0.0
H1150 H 0.06335 0.77116 0.72792 0.0
C1151 C 0.92837 0.70475 0.73946 0.0
C1152 C 0.98725 0.73571 0.75769 0.0
H1153 H 1.01099 0.77706 0.74471 0.0
C1154 C 0.01402 0.72954 0.76489 0.0
C1155 C 0.98603 0.75316 0.75059 0.0
C1156 C 0.95759 0.76076 0.74329 0.0
C1157 C 0.03998 0.7401 0.76455 0.0
C1158 C 0.03892 0.75742 0.75709 0.0
C1159 C 1.01189 0.76374 0.75031 0.0
C1160 C 0.06559 0.76916 0.75575 0.0
C1161 C 0.06852 0.73233 0.77155 0.0
C1162 C 0.08081 0.77501 0.77055 0.0
C1163 C 0.10433 0.78728 0.76916 0.0
C1164 C 0.11278 0.79411 0.75295 0.0
C1165 C 0.09803 0.78782 0.73814 0.0
C1166 C 0.07472 0.77549 0.73953 0.0
H1167 H 0.0674 0.71748 0.77263 0.0
H1168 H 0.08772 0.73594 0.76322 0.0
H1169 H 0.07263 0.73785 0.78463 0.0
H1170 H 0.07384 0.7706 0.78323 0.0
H1171 H 0.11501 0.79198 0.78085 0.0
H1172 H 0.64792 0.96376 0.76431 0.0
H1173 H 0.68467 0.98812 0.76598 0.0
H1174 H 0.75276 0.94989 0.77947 0.0
H1175 H 0.71648 0.92562 0.77789 0.0
H1176 H 0.75086 0.98113 0.80087 0.0
H1177 H 0.75341 0.99748 0.73086 0.0
H1178 H 0.71718 0.99695 0.74073 0.0
H1179 H 0.73845 0.97664 0.73903 0.0
C1180 C 0.67072 0.96056 0.76763 0.0
C1181 C 0.67926 0.94273 0.77091 0.0
C1182 C 0.6917 0.97447 0.76849 0.0
C1183 C 0.7215 0.97076 0.77267 0.0
C1184 C 0.72992 0.95303 0.77616 0.0
H1185 H 0.87797 0.03948 0.76236 0.0
H1186 H 0.84298 0.01416 0.76158 0.0
C1187 C 0.7091 0.93917 0.77522 0.0
C1188 C 0.74402 0.98528 0.77367 0.0
H1189 H 0.7816 0.01614 0.74941 0.0
C1190 C 0.75758 0.9888 0.78963 0.0
C1191 C 0.75304 0.99506 0.75893 0.0
C1192 C 0.74001 0.99132 0.74136 0.0
C1193 C 0.7796 0.00206 0.7913 0.0
C1194 C 0.78815 0.01212 0.77665 0.0
C1195 C 0.77494 0.00841 0.76063 0.0
C1196 C 0.81005 0.02696 0.77781 0.0
C1197 C 0.79378 0.00512 0.8087 0.0
C1198 C 0.80314 0.04246 0.78723 0.0
C1199 C 0.82294 0.0569 0.78766 0.0
C1200 C 0.85013 0.05614 0.77868 0.0
C1201 C 0.85731 0.04044 0.76951 0.0
C1202 C 0.83731 0.02601 0.76898 0.0
H1203 H 0.78999 0.99363 0.81757 0.0
H1204 H 0.81811 0.00733 0.80736 0.0
H1205 H 0.78398 0.01728 0.81468 0.0
H1206 H 0.78208 0.04355 0.79396 0.0
H1207 H 0.81668 0.06878 0.79484 0.0
H1208 H 0.71468 0.82195 0.02437 0.0
H1209 H 0.74986 0.79713 0.02286 0.0
H1210 H 0.67773 0.76034 1.01314 0.0
H1211 H 0.64211 0.78529 1.01442 0.0
H1212 H 0.75305 0.7659 0.04261 0.0
H1213 H 0.73572 0.75049 0.97316 0.0
H1214 H 0.72271 0.77101 0.98297 0.0
H1215 H 0.70261 0.75044 0.98617 0.0
C1216 C 0.70616 0.80859 0.02191 0.0
C1217 C 0.67553 0.80563 0.01942 0.0
C1218 C 0.72637 0.79441 0.02108 0.0
C1219 C 0.71651 0.77693 0.01764 0.0
C1220 C 0.68588 0.77379 0.01549 0.0
H1221 H 0.80894 0.67577 1.00598 0.0
H1222 H 0.77274 0.70006 1.00772 0.0
C1223 C 0.66554 0.78803 0.01634 0.0
C1224 C 0.73851 0.76213 0.0164 0.0
H1225 H 0.76811 0.73135 0.9886 0.0
C1226 C 0.75638 0.75834 0.03081 0.0
C1227 C 0.74287 0.75235 1.00096 0.0
C1228 C 0.72518 0.75632 0.98486 0.0
C1229 C 0.77821 0.74486 0.03028 0.0
C1230 C 0.78267 0.73514 1.01481 0.0
C1231 C 0.76472 0.73888 1.00042 0.0
C1232 C 0.80521 0.72063 1.01344 0.0
C1233 C 0.79584 0.74089 0.04639 0.0
C1234 C 0.83567 0.72416 0.01578 0.0
C1235 C 0.85657 0.71024 1.01482 0.0
C1236 C 0.84734 0.69256 1.0114 0.0
C1237 C 0.81688 0.6892 1.00869 0.0
C1238 C 0.79609 0.70308 1.00966 0.0
H1239 H 0.78487 0.74636 0.05812 0.0
H1240 H 0.79893 0.72621 0.04809 0.0
H1241 H 0.81815 0.74717 0.0453 0.0
H1242 H 0.84327 0.73769 0.01837 0.0
H1243 H 0.87986 0.71329 0.0169 0.0
H1244 H 0.37254 0.54194 0.76724 0.0
H1245 H 0.33529 0.51781 0.76849 0.0
H1246 H 0.26504 0.5572 0.76708 0.0
H1247 H 0.30178 0.58111 0.76518 0.0
H1248 H 0.29282 0.50958 0.79107 0.0
H1249 H 0.23903 0.52505 0.72878 0.0
H1250 H 0.2738 0.53513 0.73518 0.0
H1251 H 0.23897 0.54427 0.74267 0.0
C1252 C 0.34913 0.54539 0.76712 0.0
C1253 C 0.3401 0.5634 0.76587 0.0
C1254 C 0.32787 0.53162 0.76784 0.0
C1255 C 0.2973 0.53565 0.76741 0.0
C1256 C 0.28841 0.55367 0.7668 0.0
H1257 H 0.15269 0.46687 0.80186 0.0
H1258 H 0.1922 0.48928 0.79913 0.0
C1259 C 0.30952 0.56736 0.76583 0.0
C1260 C 0.2745 0.52117 0.76795 0.0
H1261 H 0.21109 0.50649 0.74819 0.0
C1262 C 0.27511 0.50879 0.7816 0.0
C1263 C 0.25167 0.51986 0.75541 0.0
C1264 C 0.251 0.53167 0.73959 0.0
C1265 C 0.25305 0.49553 0.78335 0.0
C1266 C 0.22911 0.49501 0.77145 0.0
C1267 C 0.22905 0.50705 0.75751 0.0
C1268 C 0.20418 0.48193 0.77298 0.0
C1269 C 0.25601 0.48204 0.79777 0.0
C1270 C 0.19655 0.47097 0.75891 0.0
C1271 C 0.17343 0.45849 0.76029 0.0
C1272 C 0.15756 0.45659 0.77583 0.0
C1273 C 0.16467 0.46789 0.78976 0.0
C1274 C 0.18751 0.48057 0.78828 0.0
H1275 H 0.27953 0.48062 0.80197 0.0
H1276 H 0.24293 0.48669 0.80906 0.0
H1277 H 0.24762 0.46865 0.79382 0.0
H1278 H 0.20887 0.47183 0.74692 0.0
H1279 H 0.16861 0.44997 0.74931 0.0
H1280 H 0.97048 0.5747 0.49865 0.0
H1281 H 1.00488 0.54954 0.50082 0.0
H1282 H 0.93431 0.51605 0.52042 0.0
H1283 H 0.8994 0.54127 0.51817 0.0
H1284 H 0.02021 0.53077 0.53083 0.0
H1285 H 0.97088 0.48558 0.48146 0.0
H1286 H 0.96169 0.50913 0.48282 0.0
H1287 H 0.94552 0.49345 0.49773 0.0
C1288 C 0.96209 0.56196 0.50331 0.0
C1289 C 0.93211 0.56001 0.50822 0.0
C1290 C 0.98187 0.54759 0.50456 0.0
C1291 C 0.97215 0.53089 0.51065 0.0
C1292 C 0.94218 0.52876 0.51543 0.0
H1293 H 0.06203 0.4298 0.52829 0.0
H1294 H 0.0269 0.45465 0.52666 0.0
C1295 C 0.92228 0.54319 0.51418 0.0
C1296 C 0.99384 0.51599 0.5125 0.0
H1297 H 1.01084 0.474 0.49789 0.0
C1298 C 0.01821 0.51835 0.52362 0.0
C1299 C 0.99118 0.49983 0.50307 0.0
C1300 C 0.96607 0.49681 0.49048 0.0
C1301 C 0.0398 0.5049 0.52573 0.0
C1302 C 0.03724 0.48878 0.51622 0.0
C1303 C 0.0128 0.48639 0.50514 0.0
C1304 C 0.0593 0.47402 0.51778 0.0
C1305 C 0.06478 0.50792 0.53841 0.0
C1306 C 0.08934 0.47663 0.51336 0.0
C1307 C 0.10966 0.4624 0.51434 0.0
C1308 C 0.10019 0.44528 0.51963 0.0
C1309 C 0.07013 0.44279 0.52415 0.0
C1310 C 0.04994 0.45699 0.5232 0.0
H1311 H 0.05939 0.51874 0.54776 0.0
H1312 H 0.06981 0.49545 0.54569 0.0
H1313 H 0.08512 0.51195 0.53127 0.0
H1314 H 0.09696 0.48959 0.50883 0.0
H1315 H 0.13258 0.46472 0.51065 0.0
H1316 H 0.31437 0.67827 0.49794 0.0
H1317 H 0.27767 0.7023 0.49943 0.0
H1318 H 0.34223 0.73677 0.5238 0.0
H1319 H 0.37942 0.7127 0.52229 0.0
H1320 H 0.25645 0.71992 0.5294 0.0
H1321 H 0.30972 0.76731 0.48345 0.0
H1322 H 0.31993 0.74392 0.48465 0.0
H1323 H 0.33323 0.75945 0.50061 0.0
C1324 C 0.32095 0.69098 0.50354 0.0
C1325 C 0.34994 0.69356 0.50995 0.0
C1326 C 0.29985 0.7047 0.50441 0.0
C1327 C 0.30726 0.72137 0.51158 0.0
C1328 C 0.33618 0.72408 0.51797 0.0
H1329 H 0.21139 0.82041 0.5274 0.0
H1330 H 0.24731 0.79598 0.52645 0.0
C1331 C 0.35737 0.7103 0.51715 0.0
C1332 C 0.28436 0.73569 0.51267 0.0
H1333 H 0.26706 0.77768 0.49826 0.0
C1334 C 0.25869 0.73255 0.52257 0.0
C1335 C 0.28734 0.75211 0.50371 0.0
C1336 C 0.31389 0.75593 0.49237 0.0
C1337 C 0.23618 0.74555 0.52404 0.0
C1338 C 0.23913 0.76199 0.51507 0.0
C1339 C 0.26478 0.76508 0.50512 0.0
C1340 C 0.21641 0.77644 0.5162 0.0
C1341 C 0.20983 0.74175 0.53555 0.0
C1342 C 0.18691 0.77362 0.51078 0.0
C1343 C 0.16609 0.78764 0.5114 0.0
C1344 C 0.17455 0.80475 0.51728 0.0
C1345 C 0.20407 0.80743 0.52276 0.0
C1346 C 0.22472 0.79347 0.52221 0.0
H1347 H 0.21456 0.73076 0.54484 0.0
H1348 H 0.20326 0.75391 0.54291 0.0
H1349 H 0.19066 0.73757 0.52748 0.0
H1350 H 0.18012 0.7607 0.50577 0.0
H1351 H 0.14361 0.78517 0.50698 0.0
H1352 H 0.81017 0.57731 0.24694 0.0
H1353 H 0.77337 0.55336 0.24666 0.0
H1354 H 0.83363 0.51902 0.27462 0.0
H1355 H 0.8712 0.54301 0.27464 0.0
H1356 H 0.80546 0.50127 0.24841 0.0
H1357 H 0.72242 0.53836 0.28714 0.0
H1358 H 0.73387 0.55081 0.26848 0.0
H1359 H 0.76053 0.5457 0.28511 0.0
C1360 C 0.81572 0.56469 0.25307 0.0
C1361 C 0.84356 0.56214 0.26098 0.0
C1362 C 0.7945 0.55103 0.25299 0.0
C1363 C 0.80038 0.53456 0.26103 0.0
C1364 C 0.82849 0.53171 0.26851 0.0
H1365 H 0.65798 0.45687 0.28027 0.0
H1366 H 0.69722 0.47939 0.28352 0.0
C1367 C 0.84994 0.5454 0.26849 0.0
C1368 C 0.77717 0.52035 0.26127 0.0
H1369 H 0.70431 0.51278 0.27159 0.0
C1370 C 0.78344 0.50371 0.25363 0.0
C1371 C 0.74856 0.5234 0.26838 0.0
C1372 C 0.74102 0.54047 0.2779 0.0
C1373 C 0.76155 0.4903 0.25229 0.0
C1374 C 0.73238 0.49381 0.25838 0.0
C1375 C 0.72648 0.51019 0.26664 0.0
C1376 C 0.70769 0.4807 0.25628 0.0
C1377 C 0.77003 0.47246 0.2445 0.0
C1378 C 0.69978 0.47438 0.23984 0.0
C1379 C 0.67747 0.46145 0.23795 0.0
C1380 C 0.66226 0.45476 0.25245 0.0
C1381 C 0.66922 0.46174 0.26883 0.0
C1382 C 0.69174 0.47457 0.27072 0.0
H1383 H 0.79434 0.46999 0.24552 0.0
H1384 H 0.75806 0.46124 0.25087 0.0
H1385 H 0.76414 0.47245 0.23059 0.0
H1386 H 0.71109 0.47932 0.22844 0.0
H1387 H 0.6725 0.45648 0.22513 0.0
H1388 H 0.64707 0.28453 0.51963 0.0
H1389 H 0.68222 0.25937 0.52143 0.0
H1390 H 0.75284 0.29369 0.50329 0.0
H1391 H 0.7181 0.31876 0.5014 0.0
H1392 H 0.74983 0.25907 0.48691 0.0
H1393 H 0.74893 0.25494 0.55855 0.0
H1394 H 0.71312 0.25441 0.54823 0.0
H1395 H 0.73546 0.27434 0.547 0.0
C1396 C 0.67005 0.28668 0.51596 0.0
C1397 C 0.6798 0.30368 0.51046 0.0
C1398 C 0.69013 0.27234 0.51709 0.0
C1399 C 0.72021 0.27475 0.5127 0.0
C1400 C 0.72977 0.29156 0.50681 0.0
H1401 H 0.87788 0.20555 0.50877 0.0
H1402 H 0.84341 0.23098 0.50646 0.0
C1403 C 0.70984 0.30589 0.50578 0.0
C1404 C 0.74193 0.25986 0.51428 0.0
H1405 H 0.77674 0.23297 0.54366 0.0
C1406 C 0.75578 0.25335 0.4993 0.0
C1407 C 0.74969 0.25251 0.53048 0.0
C1408 C 0.73626 0.25945 0.54704 0.0
C1409 C 0.77675 0.23938 0.50004 0.0
C1410 C 0.78461 0.23204 0.51626 0.0
C1411 C 0.7708 0.23864 0.53124 0.0
C1412 C 0.80611 0.21698 0.51796 0.0
C1413 C 0.78965 0.23229 0.4834 0.0
C1414 C 0.79695 0.2009 0.5257 0.0
C1415 C 0.81662 0.18651 0.52722 0.0
C1416 C 0.846 0.18782 0.52105 0.0
C1417 C 0.85538 0.20406 0.51357 0.0
C1418 C 0.83563 0.21855 0.51211 0.0
H1419 H 0.77584 0.23608 0.47208 0.0
H1420 H 0.81219 0.23804 0.4815 0.0
H1421 H 0.79169 0.21745 0.48376 0.0
H1422 H 0.77436 0.19939 0.53037 0.0
H1423 H 0.80859 0.17424 0.53309 0.0
H1424 H 0.45824 0.17898 0.74125 0.0
H1425 H 0.49401 0.20345 0.74313 0.0
H1426 H 0.44216 0.22787 0.78367 0.0
H1427 H 0.4055 0.20352 0.78145 0.0
H1428 H 0.46094 0.2525 0.76142 0.0
H1429 H 0.55692 0.21011 0.77908 0.0
H1430 H 0.5404 0.20259 0.75932 0.0
H1431 H 0.51928 0.2017 0.77908 0.0
C1432 C 0.45439 0.18953 0.7506 0.0
C1433 C 0.42913 0.18923 0.76131 0.0
C1434 C 0.47505 0.20346 0.75176 0.0
C1435 C 0.47132 0.21724 0.7639 0.0
C1436 C 0.44571 0.21726 0.77434 0.0
H1437 H 0.61774 0.29322 0.78272 0.0
H1438 H 0.58109 0.26904 0.78603 0.0
C1439 C 0.42474 0.20338 0.77304 0.0
C1440 C 0.49379 0.23185 0.7652 0.0
H1441 H 0.56859 0.23955 0.76819 0.0
C1442 C 0.48443 0.24968 0.76311 0.0
C1443 C 0.52443 0.22827 0.76781 0.0
C1444 C 0.5358 0.20964 0.77164 0.0
C1445 C 0.50495 0.2639 0.76275 0.0
C1446 C 0.5358 0.26015 0.76398 0.0
C1447 C 0.54504 0.24242 0.7669 0.0
C1448 C 0.55878 0.27435 0.7618 0.0
C1449 C 0.49325 0.2828 0.76115 0.0
C1450 C 0.55912 0.28496 0.74684 0.0
C1451 C 0.57978 0.29883 0.74501 0.0
C1452 C 0.60102 0.30216 0.75794 0.0
C1453 C 0.60167 0.29097 0.77254 0.0
C1454 C 0.58067 0.2772 0.77446 0.0
H1455 H 0.47019 0.28388 0.76623 0.0
H1456 H 0.50754 0.2925 0.76819 0.0
H1457 H 0.49271 0.28666 0.74733 0.0
H1458 H 0.54319 0.28264 0.7366 0.0
H1459 H 0.57892 0.30706 0.73351 0.0
H1460 H 0.40014 0.03362 0.51093 0.0
H1461 H 0.43906 0.01065 0.51324 0.0
H1462 H 0.50592 0.05214 0.51577 0.0
H1463 H 0.46752 0.07492 0.51264 0.0
H1464 H 0.52425 0.02729 0.49538 0.0
H1465 H 0.48311 0.99434 0.55484 0.0
H1466 H 0.45625 0.99388 0.53775 0.0
H1467 H 0.46751 0.01504 0.5469 0.0
C1468 C 0.42316 0.03779 0.51201 0.0
C1469 C 0.43074 0.05608 0.51159 0.0
C1470 C 0.4454 0.02466 0.51347 0.0
C1471 C 0.47551 0.02961 0.51502 0.0
C1472 C 0.48294 0.0479 0.51461 0.0
H1473 H 0.61637 0.9584 0.55088 0.0
H1474 H 0.57899 0.98208 0.54784 0.0
C1475 C 0.46089 0.06095 0.51282 0.0
C1476 C 0.49959 0.01594 0.5166 0.0
H1477 H 0.52277 0.9798 0.54014 0.0
C1478 C 0.52394 0.01695 0.50524 0.0
C1479 C 0.49959 0.00261 0.52962 0.0
C1480 C 0.47538 0.00149 0.54308 0.0
C1481 C 0.54811 0.00508 0.50648 0.0
C1482 C 0.5475 0.99125 0.51901 0.0
C1483 C 0.52323 0.99027 0.53043 0.0
C1484 C 0.5717 0.97766 0.52054 0.0
C1485 C 0.57439 0.00788 0.49464 0.0
C1486 C 0.58035 0.96734 0.50622 0.0
C1487 C 0.60219 0.95408 0.50785 0.0
C1488 C 0.61534 0.95051 0.52396 0.0
C1489 C 0.60676 0.96086 0.53828 0.0
C1490 C 0.58527 0.97435 0.53657 0.0
H1491 H 0.57589 0.02204 0.49025 0.0
H1492 H 0.59563 0.00426 0.50107 0.0
H1493 H 0.5717 0.99936 0.48301 0.0
H1494 H 0.56967 0.96918 0.49383 0.0
H1495 H 0.6079 0.94616 0.49661 0.0
H1496 H 0.55861 0.82267 0.24778 0.0
H1497 H 0.5215 0.79887 0.24818 0.0
H1498 H 0.58753 0.76142 0.26632 0.0
H1499 H 0.62529 0.78531 0.26577 0.0
H1500 H 0.5506 0.74755 0.24004 0.0
H1501 H 0.48356 0.77865 0.29205 0.0
H1502 H 0.49048 0.79359 0.27434 0.0
H1503 H 0.5211 0.78567 0.2872 0.0
C1504 C 0.5654 0.80938 0.25185 0.0
C1505 C 0.59493 0.80594 0.25689 0.0
C1506 C 0.54404 0.7958 0.25215 0.0
C1507 C 0.55155 0.77847 0.25764 0.0
C1508 C 0.58121 0.77477 0.26218 0.0
H1509 H 0.41754 0.69755 0.28267 0.0
H1510 H 0.45835 0.71923 0.28384 0.0
C1511 C 0.60274 0.78841 0.26185 0.0
C1512 C 0.52824 0.76436 0.25853 0.0
H1513 H 0.46021 0.7551 0.27612 0.0
C1514 C 0.53095 0.74911 0.24803 0.0
C1515 C 0.50279 0.76628 0.26915 0.0
C1516 C 0.49937 0.78184 0.28146 0.0
C1517 C 0.50841 0.73603 0.24742 0.0
C1518 C 0.48225 0.73845 0.25736 0.0
C1519 C 0.48004 0.75338 0.26831 0.0
C1520 C 0.45694 0.72562 0.25662 0.0
C1521 C 0.51291 0.71969 0.23622 0.0
C1522 C 0.44199 0.72236 0.24102 0.0
C1523 C 0.41859 0.70998 0.2403 0.0
C1524 C 0.40951 0.7007 0.25521 0.0
C1525 C 0.42392 0.70444 0.27093 0.0
C1526 C 0.44733 0.7168 0.27163 0.0
H1527 H 0.53684 0.71739 0.23339 0.0
H1528 H 0.50368 0.70749 0.24248 0.0
H1529 H 0.50122 0.72168 0.22376 0.0
H1530 H 0.44851 0.72934 0.22936 0.0
H1531 H 0.40796 0.70749 0.228 0.0
H1532 H 0.60871 0.45731 0.05566 0.0
H1533 H 0.56814 0.47909 0.05418 0.0
H1534 H 0.57898 0.48262 0.99902 0.0
H1535 H 0.6196 0.46073 1.00032 0.0
H1536 H 0.56629 0.51492 0.04032 0.0
H1537 H 0.49043 0.468 1.00592 0.0
H1538 H 0.52369 0.46049 0.0168 0.0
H1539 H 0.52634 0.47149 0.99625 0.0
C1540 C 0.60273 0.46284 0.04321 0.0
C1541 C 0.61731 0.45717 0.0281 0.0
C1542 C 0.57949 0.47528 0.0424 0.0
C1543 C 0.5702 0.48221 0.02647 0.0
C1544 C 0.58547 0.47718 1.01142 0.0
H1545 H 0.42054 0.55228 1.0007 0.0
H1546 H 0.46304 0.53173 0.9994 0.0
C1547 C 0.60885 0.46479 1.01221 0.0
C1548 C 0.54408 0.49437 0.02568 0.0
H1549 H 0.47214 0.49706 1.01161 0.0
C1550 C 0.54572 0.51105 0.03402 0.0
C1551 C 0.51731 0.48929 0.0174 0.0
C1552 C 0.51407 0.4713 1.00867 0.0
C1553 C 0.52132 0.52282 0.03428 0.0
C1554 C 0.49429 0.51758 0.02634 0.0
C1555 C 0.49281 0.50102 0.01774 0.0
C1556 C 0.46724 0.52902 0.02709 0.0
C1557 C 0.52487 0.54087 0.04286 0.0
C1558 C 0.45478 0.53379 0.04305 0.0
C1559 C 0.43055 0.54552 0.04385 0.0
C1560 C 0.41807 0.55261 0.02867 0.0
C1561 C 0.42963 0.5471 1.01264 0.0
C1562 C 0.45398 0.53539 1.01187 0.0
H1563 H 0.54865 0.54484 0.04383 0.0
H1564 H 0.51268 0.55146 0.03568 0.0
H1565 H 0.5157 0.5402 0.05614 0.0
H1566 H 0.46412 0.52865 0.05495 0.0
H1567 H 0.42207 0.54934 0.05641 0.0
H1568 H 0.13967 0.4248 0.45137 0.0
H1569 H 0.13442 0.41539 0.42139 0.0
H1570 H 0.14815 0.3603 0.4364 0.0
H1571 H 0.15307 0.3696 0.46662 0.0
H1572 H 0.17863 0.3987 0.40282 0.0
H1573 H 0.07657 0.3568 0.40394 0.0
H1574 H 0.08603 0.3721 0.42117 0.0
H1575 H 0.10391 0.35058 0.41973 0.0
C1576 C 0.14116 0.41063 0.44837 0.0
C1577 C 0.14691 0.39794 0.46138 0.0
C1578 C 0.13813 0.4053 0.43121 0.0
C1579 C 0.14066 0.38716 0.42667 0.0
C1580 C 0.14555 0.37435 0.43967 0.0
H1581 H 0.16191 0.32739 0.33316 0.0
H1582 H 0.15477 0.33824 0.36253 0.0
C1583 C 0.1485 0.37968 0.45691 0.0
C1584 C 0.14069 0.38196 0.40821 0.0
H1585 H 0.10616 0.35539 0.37843 0.0
C1586 C 0.1626 0.38937 0.39743 0.0
C1587 C 0.11978 0.36977 0.40125 0.0
C1588 C 0.09505 0.36196 0.41206 0.0
C1589 C 0.16474 0.38453 0.37999 0.0
C1590 C 0.14406 0.37217 0.37306 0.0
C1591 C 0.12189 0.36492 0.38377 0.0
C1592 C 0.14637 0.36572 0.35503 0.0
C1593 C 0.18978 0.39217 0.36928 0.0
C1594 C 0.14344 0.37754 0.34101 0.0
C1595 C 0.14763 0.37137 0.3241 0.0
C1596 C 0.15471 0.35329 0.32099 0.0
C1597 C 0.15668 0.34143 0.33507 0.0
C1598 C 0.1525 0.34758 0.3519 0.0
H1599 H 0.2073 0.39843 0.37741 0.0
H1600 H 0.20019 0.38157 0.36121 0.0
H1601 H 0.1808 0.40263 0.36053 0.0
H1602 H 0.13824 0.39155 0.34316 0.0
H1603 H 0.14578 0.38081 0.31353 0.0
H1604 H 0.1304 0.92467 0.32901 0.0
H1605 H 0.13505 0.91485 0.35887 0.0
H1606 H 0.12596 0.85974 0.34274 0.0
H1607 H 0.12163 0.86948 0.3126 0.0
H1608 H 0.09171 0.89654 0.37683 0.0
H1609 H 0.19707 0.85769 0.37576 0.0
H1610 H 0.18679 0.87302 0.35874 0.0
H1611 H 0.17038 0.85106 0.35973 0.0
C1612 C 0.12976 0.91042 0.33173 0.0
C1613 C 0.12555 0.89785 0.3184 0.0
C1614 C 0.13243 0.90484 0.34884 0.0
C1615 C 0.13108 0.88657 0.35305 0.0
C1616 C 0.12762 0.8739 0.33976 0.0
H1617 H 0.1161 0.82663 0.44749 0.0
H1618 H 0.12175 0.83715 0.41789 0.0
C1619 C 0.12502 0.87948 0.32255 0.0
C1620 C 0.13108 0.88106 0.37145 0.0
H1621 H 0.16788 0.85569 0.4013 0.0
C1622 C 0.1085 0.88772 0.38222 0.0
C1623 C 0.15296 0.86952 0.37843 0.0
C1624 C 0.17835 0.86251 0.36763 0.0
C1625 C 0.10679 0.88286 0.39969 0.0
C1626 C 0.1286 0.87127 0.40667 0.0
C1627 C 0.15129 0.86466 0.39593 0.0
C1628 C 0.12719 0.86506 0.42484 0.0
C1629 C 0.08111 0.88971 0.41038 0.0
C1630 C 0.12902 0.87723 0.43866 0.0
C1631 C 0.1257 0.87126 0.4557 0.0
C1632 C 0.1206 0.85299 0.45917 0.0
C1633 C 0.1198 0.84081 0.4453 0.0
C1634 C 0.12312 0.84678 0.42834 0.0
H1635 H 0.06288 0.8951 0.40221 0.0
H1636 H 0.07194 0.8789 0.41869 0.0
H1637 H 0.08905 0.90069 0.41888 0.0
H1638 H 0.13267 0.89137 0.43625 0.0
H1639 H 0.12659 0.88096 0.46609 0.0
H1640 H 0.14815 0.82124 0.83008 0.0
H1641 H 0.14288 0.83078 0.86001 0.0
H1642 H 0.14631 0.88616 0.84405 0.0
H1643 H 0.1512 0.8767 0.81386 0.0
H1644 H 0.18416 0.85035 0.87798 0.0
H1645 H 0.07557 0.88576 0.87719 0.0
H1646 H 0.08724 0.87096 0.86003 0.0
H1647 H 0.1015 0.89346 0.86119 0.0
C1648 C 0.14741 0.83548 0.83285 0.0
C1649 C 0.15016 0.84823 0.81956 0.0
C1650 C 0.14439 0.84089 0.85 0.0
C1651 C 0.14395 0.85916 0.85427 0.0
C1652 C 0.14602 0.87198 0.84102 0.0
H1653 H 0.1556 0.91985 0.94826 0.0
H1654 H 0.15051 0.90894 0.91876 0.0
C1655 C 0.14895 0.86656 0.82378 0.0
C1656 C 0.14353 0.86463 0.87268 0.0
H1657 H 0.10494 0.88898 0.90258 0.0
C1658 C 0.1667 0.85868 0.8834 0.0
C1659 C 0.12075 0.8755 0.87971 0.0
C1660 C 0.09469 0.88168 0.86899 0.0
C1661 C 0.16813 0.86364 0.90085 0.0
C1662 C 0.14549 0.87462 0.90785 0.0
C1663 C 0.12218 0.88049 0.89718 0.0
C1664 C 0.14662 0.88102 0.92595 0.0
C1665 C 0.19438 0.85758 0.9115 0.0
C1666 C 0.14552 0.86894 0.93986 0.0
C1667 C 0.14848 0.87513 0.95685 0.0
C1668 C 0.15255 0.89352 0.96016 0.0
C1669 C 0.1527 0.90559 0.9462 0.0
C1670 C 0.1497 0.8994 0.92929 0.0
H1671 H 0.21286 0.85249 0.90332 0.0
H1672 H 0.20291 0.86874 0.9196 0.0
H1673 H 0.18727 0.84657 0.92021 0.0
H1674 H 0.14268 0.85471 0.93756 0.0
H1675 H 0.14812 0.86552 0.96732 0.0
H1676 H 0.05799 0.40497 0.82954 0.0
H1677 H 0.06663 0.39842 0.85988 0.0
H1678 H 0.15278 0.37645 0.84749 0.0
H1679 H 0.14441 0.38318 0.8168 0.0
H1680 H 0.07894 0.36482 0.87546 0.0
H1681 H 0.17003 0.41446 0.88559 0.0
H1682 H 0.14575 0.41533 0.86705 0.0
H1683 H 0.17439 0.39862 0.86824 0.0
C1684 C 0.07881 0.39872 0.83318 0.0
C1685 C 0.10059 0.39467 0.82074 0.0
C1686 C 0.08368 0.39497 0.85056 0.0
C1687 C 0.11047 0.38718 0.85595 0.0
C1688 C 0.13213 0.38274 0.8436 0.0
H1689 H 0.15315 0.36259 0.96414 0.0
H1690 H 0.15791 0.36643 0.93284 0.0
C1691 C 0.12723 0.38646 0.82608 0.0
C1692 C 0.11507 0.38377 0.87459 0.0
H1693 H 0.15291 0.39876 0.91003 0.0
C1694 C 0.09534 0.37209 0.88299 0.0
C1695 C 0.13653 0.39325 0.88436 0.0
C1696 C 0.15784 0.40622 0.87596 0.0
C1697 C 0.09589 0.37002 0.90096 0.0
C1698 C 0.11643 0.3801 0.9108 0.0
C1699 C 0.13707 0.39118 0.9024 0.0
C1700 C 0.11555 0.37982 0.92989 0.0
C1701 C 0.07415 0.35726 0.90932 0.0
C1702 C 0.09073 0.38675 0.9386 0.0
C1703 C 0.08795 0.38465 0.95643 0.0
C1704 C 0.10998 0.37556 0.96589 0.0
C1705 C 0.13572 0.3696 0.95724 0.0
C1706 C 0.13849 0.37175 0.93936 0.0
H1707 H 0.06507 0.34744 0.89991 0.0
H1708 H 0.08486 0.34981 0.92006 0.0
H1709 H 0.05525 0.36502 0.91473 0.0
H1710 H 0.073 0.39326 0.9315 0.0
H1711 H 0.06794 0.38951 0.96266 0.0
H1712 H 0.82111 0.65547 0.69944 0.0
H1713 H 0.83286 0.64865 0.66944 0.0
H1714 H 0.90459 0.61429 0.68585 0.0
H1715 H 0.89302 0.62109 0.71615 0.0
H1716 H 0.89046 0.65451 0.65253 0.0
H1717 H 0.85284 0.58331 0.65182 0.0
H1718 H 0.84069 0.59905 0.66809 0.0
H1719 H 0.87762 0.58998 0.6689 0.0
C1720 C 0.83931 0.64636 0.69676 0.0
C1721 C 0.85611 0.63879 0.71024 0.0
C1722 C 0.84603 0.64254 0.67956 0.0
C1723 C 0.86949 0.63094 0.67543 0.0
C1724 C 0.88621 0.62317 0.6888 0.0
H1725 H 0.92128 0.58929 0.57477 0.0
H1726 H 0.92013 0.59688 0.60542 0.0
C1727 C 0.87959 0.62707 0.70609 0.0
C1728 C 0.87645 0.6273 0.65706 0.0
H1729 H 0.87223 0.59497 0.62598 0.0
C1730 C 0.88666 0.64147 0.64671 0.0
C1731 C 0.87151 0.61028 0.64956 0.0
C1732 C 0.85989 0.59475 0.66006 0.0
C1733 C 0.89202 0.6391 0.62899 0.0
C1734 C 0.8863 0.62219 0.62135 0.0
C1735 C 0.8766 0.60793 0.63181 0.0
C1736 C 0.88942 0.61901 0.60249 0.0
C1737 C 0.90407 0.65466 0.61869 0.0
C1738 C 0.87291 0.62912 0.59054 0.0
C1739 C 0.87374 0.62492 0.57293 0.0
C1740 C 0.89075 0.61034 0.56698 0.0
C1741 C 0.9079 0.60059 0.57891 0.0
C1742 C 0.90723 0.60488 0.59646 0.0
H1743 H 0.91586 0.66444 0.62708 0.0
H1744 H 0.91961 0.65003 0.60848 0.0
H1745 H 0.8853 0.6618 0.61242 0.0
H1746 H 0.85846 0.63983 0.59489 0.0
H1747 H 0.86003 0.63257 0.56411 0.0
H1748 H 0.89592 0.09436 0.71257 0.0
H1749 H 0.89443 0.09674 0.68125 0.0
H1750 H 0.89007 0.15439 0.68521 0.0
H1751 H 0.89248 0.15217 0.71675 0.0
H1752 H 0.85564 0.11039 0.65818 0.0
H1753 H 0.96256 0.14767 0.65506 0.0
H1754 H 0.94924 0.13744 0.67468 0.0
H1755 H 0.93421 0.15855 0.66759 0.0
C1756 C 0.89446 0.10759 0.70686 0.0
C1757 C 0.89471 0.12311 0.71723 0.0
C1758 C 0.89354 0.10891 0.68889 0.0
C1759 C 0.89275 0.12574 0.68082 0.0
C1760 C 0.89143 0.14126 0.69112 0.0
H1761 H 0.86988 0.1376 0.56862 0.0
H1762 H 0.86054 0.13651 0.59973 0.0
C1763 C 0.8926 0.13997 0.70916 0.0
C1764 C 0.89458 0.12684 0.66167 0.0
H1765 H 0.93796 0.1424 0.62872 0.0
C1766 C 0.87356 0.11746 0.65172 0.0
C1767 C 0.91823 0.13583 0.65325 0.0
C1768 C 0.94252 0.14531 0.66316 0.0
C1769 C 0.87571 0.11668 0.63362 0.0
C1770 C 0.89917 0.12585 0.62521 0.0
C1771 C 0.91993 0.13542 0.63516 0.0
C1772 C 0.90351 0.12522 0.60618 0.0
C1773 C 0.85347 0.10551 0.62376 0.0
C1774 C 0.93075 0.11928 0.59938 0.0
C1775 C 0.93626 0.12008 0.58165 0.0
C1776 C 0.91461 0.1268 0.57028 0.0
C1777 C 0.88691 0.13216 0.577 0.0
C1778 C 0.88151 0.13151 0.59481 0.0
H1779 H 0.84208 0.09564 0.63224 0.0
H1780 H 0.83624 0.11445 0.61818 0.0
H1781 H 0.86437 0.09815 0.61301 0.0
H1782 H 0.94806 0.11434 0.60787 0.0
H1783 H 0.95781 0.11582 0.57692 0.0
H1784 H 0.85685 0.11989 0.21446 0.0
H1785 H 0.85921 0.11268 0.18354 0.0
H1786 H 0.91116 0.1604 0.1745 0.0
H1787 H 0.90887 0.1677 0.20517 0.0
H1788 H 0.83705 0.13726 0.15713 0.0
H1789 H 0.95632 0.12034 0.14774 0.0
H1790 H 0.93833 0.11935 0.16858 0.0
H1791 H 0.94928 0.14059 0.15966 0.0
C1792 C 0.86928 0.12863 0.20593 0.0
C1793 C 0.88262 0.14438 0.21225 0.0
C1794 C 0.87052 0.12453 0.18828 0.0
C1795 C 0.88556 0.13594 0.17677 0.0
C1796 C 0.89981 0.15128 0.18318 0.0
H1797 H 0.90862 0.1436 0.06537 0.0
H1798 H 0.91025 0.14818 0.09673 0.0
C1799 C 0.89833 0.15547 0.20072 0.0
C1800 C 0.88432 0.13279 0.15789 0.0
H1801 H 0.92758 0.125 0.12242 0.0
C1802 C 0.85677 0.1344 0.14954 0.0
C1803 C 0.91017 0.12935 0.14802 0.0
C1804 C 0.94021 0.12716 0.15642 0.0
C1805 C 0.85442 0.13302 0.13151 0.0
C1806 C 0.88025 0.12945 0.12161 0.0
C1807 C 0.90782 0.12778 0.12999 0.0
C1808 C 0.87896 0.12695 0.10259 0.0
C1809 C 0.8244 0.13592 0.12324 0.0
C1810 C 0.86107 0.11342 0.09548 0.0
C1811 C 0.85989 0.11089 0.07764 0.0
C1812 C 0.87694 0.12167 0.06646 0.0
C1813 C 0.89511 0.13513 0.0736 0.0
C1814 C 0.89613 0.13772 0.09151 0.0
H1815 H 0.80937 0.14381 0.13174 0.0
H1816 H 0.82655 0.14302 0.1107 0.0
H1817 H 0.81374 0.12272 0.12088 0.0
H1818 H 0.84822 0.10464 0.10375 0.0
H1819 H 0.84588 0.10026 0.07266 0.0
H1820 H 0.9087 0.61889 0.06472 0.0
H1821 H 0.90535 0.61022 0.0952 0.0
H1822 H 0.88076 0.66438 0.10865 0.0
H1823 H 0.88452 0.67317 0.07843 0.0
H1824 H 0.92676 0.65197 0.12808 0.0
H1825 H 0.83514 0.60208 0.12748 0.0
H1826 H 0.8643 0.5974 0.11229 0.0
H1827 H 0.84192 0.61721 0.10972 0.0
C1828 C 0.90206 0.62885 0.07414 0.0
C1829 C 0.89699 0.64673 0.06916 0.0
C1830 C 0.90004 0.62387 0.09156 0.0
C1831 C 0.89257 0.63663 0.10421 0.0
C1832 C 0.88656 0.65431 0.09913 0.0
H1833 H 0.89146 0.63541 0.21761 0.0
H1834 H 0.88492 0.64421 0.1873 0.0
C1835 C 0.88871 0.6593 0.08182 0.0
C1836 C 0.89323 0.63204 0.12287 0.0
H1837 H 0.8637 0.60407 0.15331 0.0
C1838 C 0.91277 0.6416 0.13363 0.0
C1839 C 0.87501 0.6185 0.13008 0.0
C1840 C 0.8527 0.6083 0.11934 0.0
C1841 C 0.91513 0.63771 0.1513 0.0
C1842 C 0.89712 0.62406 0.15848 0.0
C1843 C 0.8774 0.61458 0.14777 0.0
C1844 C 0.89967 0.61876 0.17689 0.0
C1845 C 0.93757 0.64785 0.16202 0.0
C1846 C 0.90941 0.60144 0.18107 0.0
C1847 C 0.91307 0.5964 0.19828 0.0
C1848 C 0.90692 0.60853 0.21173 0.0
C1849 C 0.89654 0.62579 0.20755 0.0
C1850 C 0.89292 0.63085 0.19025 0.0
H1851 H 0.95396 0.65512 0.15388 0.0
H1852 H 0.92579 0.65785 0.17013 0.0
H1853 H 0.94979 0.6386 0.17073 0.0
H1854 H 0.91469 0.5919 0.17097 0.0
H1855 H 0.92096 0.58296 0.20099 0.0
H1856 H 0.64725 0.43028 0.94928 0.0
H1857 H 0.64033 0.42061 0.91949 0.0
H1858 H 0.64339 0.3653 0.9357 0.0
H1859 H 0.64996 0.37489 0.96573 0.0
H1860 H 0.68056 0.4005 0.90106 0.0
H1861 H 0.57113 0.36608 0.90361 0.0
H1862 H 0.58383 0.38096 0.92047 0.0
H1863 H 0.59749 0.35833 0.91935 0.0
C1864 C 0.64608 0.41604 0.94659 0.0
C1865 C 0.64924 0.40335 0.95989 0.0
C1866 C 0.64211 0.41055 0.92953 0.0
C1867 C 0.64109 0.39225 0.92537 0.0
C1868 C 0.64354 0.3795 0.93865 0.0
H1869 H 0.64814 0.3303 0.8321 0.0
H1870 H 0.64349 0.34169 0.86147 0.0
C1871 C 0.64744 0.385 0.9558 0.0
C1872 C 0.63976 0.38667 0.90701 0.0
H1873 H 0.59946 0.36233 0.87788 0.0
C1874 C 0.66268 0.39229 0.89594 0.0
C1875 C 0.61645 0.37593 0.90039 0.0
C1876 C 0.59066 0.37008 0.91151 0.0
C1877 C 0.66337 0.38709 0.87854 0.0
C1878 C 0.6402 0.37624 0.87194 0.0
C1879 C 0.61711 0.37074 0.88296 0.0
C1880 C 0.6406 0.36956 0.85391 0.0
C1881 C 0.68946 0.39275 0.86753 0.0
C1882 C 0.63978 0.38144 0.83984 0.0
C1883 C 0.64253 0.37497 0.82294 0.0
C1884 C 0.64605 0.3565 0.81987 0.0
C1885 C 0.64568 0.34463 0.83399 0.0
C1886 C 0.64293 0.35109 0.85081 0.0
H1887 H 0.70837 0.39768 0.87544 0.0
H1888 H 0.69735 0.38142 0.85942 0.0
H1889 H 0.68243 0.40377 0.85882 0.0
H1890 H 0.63748 0.39574 0.84196 0.0
H1891 H 0.64257 0.38445 0.81235 0.0
H1892 H 0.62122 0.8793 0.96627 0.0
H1893 H 0.62535 0.88783 0.93576 0.0
H1894 H 0.63065 0.83202 0.92145 0.0
H1895 H 0.62618 0.82338 0.95169 0.0
H1896 H 0.66928 0.88006 0.91027 0.0
H1897 H 0.5596 0.85048 0.89341 0.0
H1898 H 0.57094 0.85441 0.91543 0.0
H1899 H 0.58478 0.83525 0.90384 0.0
C1900 C 0.62348 0.86886 0.95662 0.0
C1901 C 0.62302 0.85066 0.96139 0.0
C1902 C 0.62582 0.87375 0.93921 0.0
C1903 C 0.6277 0.86053 0.92633 0.0
C1904 C 0.62854 0.84242 0.93114 0.0
H1905 H 0.62345 0.86641 0.81341 0.0
H1906 H 0.62978 0.85567 0.84317 0.0
C1907 C 0.6261 0.83752 0.94847 0.0
C1908 C 0.62805 0.86558 0.90782 0.0
H1909 H 0.58886 0.86128 0.87028 0.0
C1910 C 0.65171 0.87597 0.90152 0.0
C1911 C 0.60514 0.86016 0.89642 0.0
C1912 C 0.57852 0.8496 0.9026 0.0
C1913 C 0.65315 0.88102 0.88407 0.0
C1914 C 0.63008 0.87575 0.87272 0.0
C1915 C 0.60663 0.86517 0.87898 0.0
C1916 C 0.62863 0.88214 0.85462 0.0
C1917 C 0.67945 0.89185 0.8779 0.0
C1918 C 0.6258 0.90053 0.85124 0.0
C1919 C 0.62209 0.90666 0.83438 0.0
C1920 C 0.621 0.89452 0.82048 0.0
C1921 C 0.62431 0.87609 0.82382 0.0
C1922 C 0.62789 0.86994 0.8408 0.0
H1923 H 0.69892 0.89025 0.88659 0.0
H1924 H 0.68606 0.88788 0.86463 0.0
H1925 H 0.67334 0.90627 0.87772 0.0
H1926 H 0.62566 0.91015 0.86172 0.0
H1927 H 0.6196 0.92095 0.83229 0.0
H1928 H 0.63892 0.91915 0.44874 0.0
H1929 H 0.63367 0.90957 0.41884 0.0
H1930 H 0.63842 0.85422 0.43478 0.0
H1931 H 0.64332 0.86374 0.46497 0.0
H1932 H 0.67638 0.89033 0.40139 0.0
H1933 H 0.56848 0.854 0.40084 0.0
H1934 H 0.5791 0.86897 0.4181 0.0
H1935 H 0.59422 0.84668 0.41711 0.0
C1936 C 0.63842 0.90491 0.44597 0.0
C1937 C 0.64168 0.8922 0.45924 0.0
C1938 C 0.6354 0.89947 0.42884 0.0
C1939 C 0.63549 0.8812 0.42456 0.0
C1940 C 0.63777 0.86839 0.43781 0.0
H1941 H 0.64965 0.82316 0.32855 0.0
H1942 H 0.6436 0.83268 0.35847 0.0
C1943 C 0.64068 0.87385 0.45505 0.0
C1944 C 0.63576 0.8758 0.40613 0.0
H1945 H 0.59815 0.85186 0.37551 0.0
C1946 C 0.65916 0.88202 0.3957 0.0
C1947 C 0.61335 0.8649 0.39877 0.0
C1948 C 0.5872 0.85835 0.40921 0.0
C1949 C 0.66104 0.87742 0.37818 0.0
C1950 C 0.63861 0.86655 0.37079 0.0
C1951 C 0.6152 0.8603 0.3812 0.0
C1952 C 0.63991 0.86091 0.35244 0.0
C1953 C 0.68749 0.88381 0.36786 0.0
C1954 C 0.63913 0.87362 0.33906 0.0
C1955 C 0.64268 0.86823 0.32186 0.0
C1956 C 0.64696 0.85003 0.31779 0.0
C1957 C 0.6466 0.83731 0.33121 0.0
C1958 C 0.64305 0.8427 0.34835 0.0
H1959 H 0.70593 0.88845 0.3763 0.0
H1960 H 0.69599 0.87299 0.35933 0.0
H1961 H 0.68064 0.89524 0.3596 0.0
H1962 H 0.63622 0.88773 0.34194 0.0
H1963 H 0.64269 0.87834 0.31183 0.0
H1964 H 0.62569 0.3806 0.4641 0.0
H1965 H 0.63037 0.39046 0.43396 0.0
H1966 H 0.63134 0.33528 0.41724 0.0
H1967 H 0.62628 0.32536 0.44706 0.0
H1968 H 0.67344 0.3827 0.40794 0.0
H1969 H 0.56157 0.35694 0.39035 0.0
H1970 H 0.5734 0.35957 0.41246 0.0
H1971 H 0.58539 0.34048 0.40008 0.0
C1972 C 0.6271 0.37059 0.454 0.0
C1973 C 0.62523 0.35221 0.45795 0.0
C1974 C 0.62977 0.37623 0.43681 0.0
C1975 C 0.63058 0.36359 0.42337 0.0
C1976 C 0.63006 0.34526 0.42738 0.0
H1977 H 0.62751 0.37045 0.31104 0.0
H1978 H 0.63313 0.35991 0.34086 0.0
C1979 C 0.62726 0.33963 0.44447 0.0
C1980 C 0.63119 0.36942 0.40508 0.0
H1981 H 0.59208 0.367 0.36738 0.0
C1982 C 0.65564 0.37933 0.39907 0.0
C1983 C 0.60793 0.36497 0.39354 0.0
C1984 C 0.58045 0.35505 0.39943 0.0
C1985 C 0.65764 0.38469 0.38171 0.0
C1986 C 0.63439 0.3802 0.37019 0.0
C1987 C 0.61001 0.37026 0.37621 0.0
C1988 C 0.63395 0.38652 0.35205 0.0
C1989 C 0.6848 0.39488 0.37581 0.0
C1990 C 0.63264 0.40493 0.34848 0.0
C1991 C 0.62938 0.41096 0.33154 0.0
C1992 C 0.62721 0.3987 0.31779 0.0
C1993 C 0.62923 0.38024 0.32133 0.0
C1994 C 0.63239 0.3742 0.33835 0.0
H1995 H 0.70392 0.39283 0.38468 0.0
H1996 H 0.69151 0.39075 0.3626 0.0
H1997 H 0.67963 0.40943 0.37556 0.0
H1998 H 0.63317 0.41466 0.35886 0.0
H1999 H 0.62788 0.42528 0.32928 0.0
H2000 H 0.34811 0.62466 0.21403 0.0
H2001 H 0.34834 0.62084 0.18274 0.0
H2002 H 0.43788 0.64144 0.18038 0.0
H2003 H 0.43797 0.64529 0.21179 0.0
H2004 H 0.35777 0.65054 0.15937 0.0
H2005 H 0.43962 0.59534 0.1497 0.0
H2006 H 0.42127 0.59911 0.17014 0.0
H2007 H 0.45067 0.61376 0.1633 0.0
C2008 C 0.36808 0.62811 0.20694 0.0
C2009 C 0.393 0.63533 0.21545 0.0
C2010 C 0.36813 0.62595 0.18904 0.0
C2011 C 0.39313 0.63081 0.17926 0.0
C2012 C 0.41848 0.63741 0.18772 0.0
H2013 H 0.40793 0.62391 0.06571 0.0
H2014 H 0.41973 0.63142 0.09587 0.0
C2015 C 0.41845 0.63962 0.20567 0.0
C2016 C 0.3916 0.63012 0.16016 0.0
H2017 H 0.41744 0.60759 0.1248 0.0
C2018 C 0.37097 0.64124 0.15179 0.0
C2019 C 0.40913 0.61815 0.1503 0.0
C2020 C 0.43135 0.60579 0.15874 0.0
C2021 C 0.36679 0.64039 0.13388 0.0
C2022 C 0.38328 0.62782 0.12409 0.0
C2023 C 0.40483 0.61721 0.13234 0.0
C2024 C 0.37625 0.62426 0.10571 0.0
C2025 C 0.34447 0.65281 0.1256 0.0
C2026 C 0.348 0.61773 0.10129 0.0
C2027 C 0.34126 0.61346 0.08422 0.0
C2028 C 0.36266 0.61553 0.07113 0.0
C2029 C 0.39091 0.6223 0.07549 0.0
C2030 C 0.39771 0.62651 0.09269 0.0
H2031 H 0.34093 0.66506 0.13351 0.0
H2032 H 0.35173 0.65689 0.11247 0.0
H2033 H 0.32278 0.64579 0.12446 0.0
H2034 H 0.33128 0.61557 0.11115 0.0
H2035 H 0.31931 0.60825 0.08136 0.0
H2036 H 0.35017 0.0893 0.20629 0.0
H2037 H 0.34975 0.09684 0.17561 0.0
H2038 H 0.41355 0.13898 0.18472 0.0
H2039 H 0.41412 0.13158 0.21553 0.0
H2040 H 0.36435 0.14806 0.16172 0.0
H2041 H 0.42134 0.08451 0.14361 0.0
H2042 H 0.38842 0.08225 0.15662 0.0
H2043 H 0.42084 0.0929 0.16547 0.0
C2044 C 0.36392 0.1003 0.20185 0.0
C2045 C 0.38237 0.10974 0.21338 0.0
C2046 C 0.36374 0.10452 0.18427 0.0
C2047 C 0.38201 0.11824 0.17786 0.0
C2048 C 0.39943 0.12825 0.18942 0.0
H2049 H 0.4327 0.16479 0.08121 0.0
H2050 H 0.42245 0.15717 0.11114 0.0
C2051 C 0.39969 0.12402 0.20702 0.0
C2052 C 0.38366 0.1218 0.15905 0.0
H2053 H 0.40746 0.10379 0.12091 0.0
C2054 C 0.37369 0.13838 0.15277 0.0
C2055 C 0.39566 0.10907 0.14741 0.0
C2056 C 0.40741 0.09122 0.15355 0.0
C2057 C 0.3755 0.14262 0.13514 0.0
C2058 C 0.38827 0.1301 0.12355 0.0
C2059 C 0.39763 0.11335 0.12979 0.0
C2060 C 0.39399 0.1346 0.10517 0.0
C2061 C 0.36353 0.16046 0.12909 0.0
C2062 C 0.38221 0.12406 0.09176 0.0
C2063 C 0.38829 0.1283 0.07446 0.0
C2064 C 0.40641 0.14308 0.07034 0.0
C2065 C 0.41843 0.15341 0.08386 0.0
C2066 C 0.41242 0.14916 0.10104 0.0
H2067 H 0.34636 0.16574 0.13806 0.0
H2068 H 0.38199 0.17034 0.12861 0.0
H2069 H 0.35369 0.15938 0.11599 0.0
H2070 H 0.36818 0.11264 0.09467 0.0
H2071 H 0.37878 0.12005 0.06437 0.0
H2072 H 0.39041 0.16811 0.70256 0.0
H2073 H 0.39548 0.16017 0.67216 0.0
H2074 H 0.35858 0.10784 0.68264 0.0
H2075 H 0.35484 0.11549 0.71342 0.0
H2076 H 0.40181 0.10513 0.65985 0.0
H2077 H 0.32804 0.16033 0.63902 0.0
H2078 H 0.35954 0.16873 0.65064 0.0
H2079 H 0.33289 0.15453 0.66141 0.0
C2080 C 0.38354 0.15486 0.69841 0.0
C2081 C 0.37192 0.14248 0.7103 0.0
C2082 C 0.38622 0.15039 0.68099 0.0
C2083 C 0.37646 0.13364 0.67496 0.0
C2084 C 0.36595 0.12094 0.68694 0.0
H2085 H 0.33665 0.11425 0.56676 0.0
H2086 H 0.33501 0.12085 0.59759 0.0
C2087 C 0.36386 0.12529 0.70451 0.0
C2088 C 0.37701 0.12953 0.65615 0.0
H2089 H 0.35603 0.1459 0.61683 0.0
C2090 C 0.39163 0.11398 0.65045 0.0
C2091 C 0.36318 0.14087 0.64385 0.0
C2092 C 0.34476 0.15692 0.64906 0.0
C2093 C 0.39332 0.10963 0.63281 0.0
C2094 C 0.381 0.12153 0.62046 0.0
C2095 C 0.36593 0.13691 0.62621 0.0
C2096 C 0.38249 0.11803 0.60154 0.0
C2097 C 0.40758 0.09208 0.62772 0.0
C2098 C 0.40981 0.11473 0.59329 0.0
C2099 C 0.41074 0.11067 0.57566 0.0
C2100 C 0.38446 0.1103 0.56583 0.0
C2101 C 0.35733 0.11449 0.57393 0.0
C2102 C 0.35636 0.11821 0.5916 0.0
H2103 H 0.40713 0.08227 0.63851 0.0
H2104 H 0.39622 0.086 0.61642 0.0
H2105 H 0.43122 0.09448 0.6243 0.0
H2106 H 0.43042 0.11515 0.60049 0.0
H2107 H 0.43201 0.10765 0.56976 0.0
H2108 H 0.37254 0.58349 0.70476 0.0
H2109 H 0.36794 0.5911 0.67426 0.0
H2110 H 0.41446 0.64087 0.68328 0.0
H2111 H 0.4179 0.63362 0.71415 0.0
H2112 H 0.37102 0.6457 0.66054 0.0
H2113 H 0.43517 0.58572 0.64106 0.0
H2114 H 0.40253 0.57974 0.65304 0.0
H2115 H 0.43164 0.59253 0.66329 0.0
C2116 C 0.38155 0.59615 0.70028 0.0
C2117 C 0.39586 0.60789 0.71178 0.0
C2118 C 0.37913 0.60041 0.6828 0.0
C2119 C 0.39175 0.61627 0.67633 0.0
C2120 C 0.40484 0.62845 0.68794 0.0
H2121 H 0.4359 0.63107 0.5682 0.0
H2122 H 0.43573 0.62492 0.59912 0.0
C2123 C 0.40675 0.62434 0.70556 0.0
C2124 C 0.39173 0.61987 0.65744 0.0
H2125 H 0.41019 0.60137 0.61854 0.0
C2126 C 0.37973 0.63606 0.65136 0.0
C2127 C 0.40366 0.60745 0.64543 0.0
C2128 C 0.41927 0.59049 0.65104 0.0
C2129 C 0.37883 0.64004 0.63362 0.0
C2130 C 0.3893 0.62718 0.62157 0.0
C2131 C 0.40171 0.61112 0.6277 0.0
C2132 C 0.38877 0.63036 0.6026 0.0
C2133 C 0.36746 0.6582 0.62809 0.0
C2134 C 0.36227 0.63497 0.59406 0.0
C2135 C 0.3624 0.63876 0.57636 0.0
C2136 C 0.38889 0.63757 0.56677 0.0
C2137 C 0.41507 0.63206 0.57517 0.0
C2138 C 0.41502 0.62859 0.5929 0.0
H2139 H 0.36911 0.66818 0.6387 0.0
H2140 H 0.38 0.66337 0.61679 0.0
H2141 H 0.34365 0.65704 0.62448 0.0
H2142 H 0.3415 0.63581 0.60109 0.0
H2143 H 0.34182 0.64282 0.57023 0.0
H2144 H 0.26797 0.34954 0.2848 0.0
H2145 H 0.32006 0.35859 0.28759 0.0
H2146 H 0.33116 0.35412 0.23247 0.0
H2147 H 0.27888 0.34562 0.22951 0.0
H2148 H 0.37141 0.34283 0.28009 0.0
H2149 H 0.36103 0.40425 0.24048 0.0
H2150 H 0.32911 0.39155 0.24756 0.0
H2151 H 0.34989 0.38456 0.22885 0.0
C2152 C 0.28153 0.35039 0.27327 0.0
C2153 C 0.26918 0.34701 0.2569 0.0
C2154 C 0.31131 0.35561 0.27489 0.0
C2155 C 0.32936 0.35751 0.2602 0.0
C2156 C 0.31745 0.35333 0.24394 0.0
H2157 H 0.52054 0.35863 0.25651 0.0
H2158 H 0.46766 0.35159 0.25658 0.0
C2159 C 0.2876 0.34829 0.24228 0.0
C2160 C 0.3607 0.3637 0.26191 0.0
H2161 H 0.41058 0.39457 0.24682 0.0
C2162 C 0.3799 0.35423 0.27291 0.0
C2163 C 0.37169 0.37885 0.25288 0.0
C2164 C 0.35177 0.39051 0.24193 0.0
C2165 C 0.40995 0.35908 0.27465 0.0
C2166 C 0.42138 0.37349 0.26475 0.0
C2167 C 0.40195 0.38337 0.25423 0.0
C2168 C 0.45359 0.37807 0.26462 0.0
C2169 C 0.42903 0.34877 0.28724 0.0
C2170 C 0.46337 0.39556 0.26842 0.0
C2171 C 0.4938 0.39975 0.26811 0.0
C2172 C 0.51492 0.3865 0.26401 0.0
C2173 C 0.50494 0.36911 0.25996 0.0
C2174 C 0.47465 0.365 0.26011 0.0
H2175 H 0.41538 0.34269 0.29767 0.0
H2176 H 0.44043 0.3377 0.28032 0.0
H2177 H 0.44617 0.35752 0.29322 0.0
H2178 H 0.44749 0.40592 0.27177 0.0
H2179 H 0.50077 0.41328 0.27124 0.0
H2180 H 0.75842 0.88623 0.28245 0.0
H2181 H 0.81174 0.89212 0.28128 0.0
H2182 H 0.82636 0.84026 0.25816 0.0
H2183 H 0.77265 0.83415 0.25929 0.0
H2184 H 0.8664 0.84993 0.28635 0.0
H2185 H 0.85874 0.90314 0.23636 0.0
H2186 H 0.83436 0.90596 0.25455 0.0
H2187 H 0.82913 0.88725 0.24024 0.0
C2188 C 0.77287 0.876 0.27712 0.0
C2189 C 0.76118 0.85972 0.27086 0.0
C2190 C 0.80338 0.87946 0.27639 0.0
C2191 C 0.82293 0.86677 0.26937 0.0
C2192 C 0.81156 0.85029 0.26351 0.0
H2193 H 0.01384 0.86147 0.25542 0.0
H2194 H 0.96059 0.85573 0.25711 0.0
C2195 C 0.7809 0.84681 0.26418 0.0
C2196 C 0.85523 0.87077 0.26829 0.0
H2197 H 0.90564 0.89921 0.24977 0.0
C2198 C 0.87504 0.86063 0.27829 0.0
C2199 C 0.86636 0.88487 0.25789 0.0
C2200 C 0.84614 0.89587 0.24652 0.0
C2201 C 0.90569 0.86437 0.27836 0.0
C2202 C 0.91691 0.87836 0.26783 0.0
C2203 C 0.89704 0.88854 0.25787 0.0
C2204 C 0.9493 0.8822 0.26651 0.0
C2205 C 0.92567 0.85353 0.29003 0.0
C2206 C 0.96068 0.89926 0.27059 0.0
C2207 C 0.99133 0.90269 0.26945 0.0
C2208 C 1.01105 0.88911 0.26416 0.0
C2209 C 0.9994 0.8722 0.25974 0.0
C2210 C 0.9689 0.86883 0.2608 0.0
H2211 H 0.913 0.84735 0.30081 0.0
H2212 H 0.93601 0.84253 0.28247 0.0
H2213 H 0.94372 0.86195 0.29553 0.0
H2214 H 0.9459 0.90984 0.27487 0.0
H2215 H 0.99957 0.91587 0.27289 0.0
H2216 H 0.27315 0.90158 0.05337 0.0
H2217 H 0.32607 0.89434 0.05116 0.0
H2218 H 0.31873 0.89253 0.9957 0.0
H2219 H 0.26599 0.90023 0.99777 0.0
H2220 H 0.35141 0.86445 0.03817 0.0
H2221 H 0.39121 0.92374 1.00164 0.0
H2222 H 0.35483 0.92287 1.01145 0.0
H2223 H 0.3615 0.912 0.99107 0.0
C2224 C 0.28288 0.89991 0.04068 0.0
C2225 C 0.26533 0.90158 0.02574 0.0
C2226 C 0.31313 0.8957 0.03944 0.0
C2227 C 0.32651 0.89305 0.02326 0.0
C2228 C 0.30912 0.89489 1.00831 0.0
H2229 H 0.49861 0.83822 1.00994 0.0
H2230 H 0.4452 0.84517 1.01039 0.0
C2231 C 0.2789 0.89925 1.00953 0.0
C2232 C 0.35832 0.88768 0.02214 0.0
H2233 H 0.42541 0.89974 1.00499 0.0
C2234 C 0.36763 0.87218 0.03095 0.0
C2235 C 0.37952 0.89784 1.01281 0.0
C2236 C 0.37138 0.91513 1.00384 0.0
C2237 C 0.3975 0.8666 0.03073 0.0
C2238 C 0.41857 0.87655 0.0211 0.0
C2239 C 0.40922 0.89201 1.01224 0.0
C2240 C 0.45076 0.87191 0.02086 0.0
C2241 C 0.40633 0.85043 0.04126 0.0
C2242 C 0.47169 0.8847 0.02625 0.0
C2243 C 0.50206 0.88086 0.02577 0.0
C2244 C 0.51232 0.8641 0.01993 0.0
C2245 C 0.49139 0.8512 1.01462 0.0
C2246 C 0.46086 0.85513 1.01496 0.0
H2247 H 0.38943 0.84718 0.05125 0.0
H2248 H 0.40846 0.83864 0.03261 0.0
H2249 H 0.42808 0.85261 0.04773 0.0
H2250 H 0.4645 0.89772 0.03087 0.0
H2251 H 0.51751 0.89111 0.03002 0.0
H2252 H 0.9992 0.34978 0.04955 0.0
H2253 H 0.94683 0.35752 0.04565 0.0
H2254 H 0.96026 0.36078 0.99061 0.0
H2255 H 1.01252 0.35245 0.99439 0.0
H2256 H 0.92366 0.38761 0.03323 0.0
H2257 H 0.88632 0.33077 0.99248 0.0
H2258 H 0.92177 0.3308 1.00337 0.0
H2259 H 0.91713 0.34282 0.98341 0.0
C2260 C 0.99091 0.35186 0.03658 0.0
C2261 C 1.01 0.35038 0.02227 0.0
C2262 C 0.96097 0.35636 0.03437 0.0
C2263 C 0.94943 0.35958 0.01782 0.0
C2264 C 0.96838 0.35796 1.00348 0.0
H2265 H 0.77864 0.41649 1.00479 0.0
H2266 H 0.83193 0.40921 1.00506 0.0
C2267 C 0.99831 0.35323 1.00566 0.0
C2268 C 0.91792 0.36537 0.01579 0.0
H2269 H 0.85228 0.35478 0.99606 0.0
C2270 C 0.90803 0.38041 0.02512 0.0
C2271 C 0.89745 0.35593 1.0053 0.0
C2272 C 0.90608 0.33908 0.9957 0.0
C2273 C 0.87826 0.38613 0.02442 0.0
C2274 C 0.85791 0.3769 1.01367 0.0
C2275 C 0.8679 0.36198 1.00418 0.0
C2276 C 0.82572 0.38158 1.01298 0.0
C2277 C 0.86874 0.4016 0.03572 0.0
C2278 C 0.80442 0.3684 0.01679 0.0
C2279 C 0.77411 0.37242 0.01629 0.0
C2280 C 0.76428 0.38979 1.0121 0.0
C2281 C 0.78554 0.40303 1.00821 0.0
C2282 C 0.816 0.39891 1.00848 0.0
H2283 H 0.88476 0.40399 0.0464 0.0
H2284 H 0.86765 0.414 0.02784 0.0
H2285 H 0.84641 0.39916 0.0414 0.0
H2286 H 0.81126 0.35495 0.02031 0.0
H2287 H 0.75838 0.3619 0.01942 0.0
H2288 H 0.75172 0.66294 0.76304 0.0
H2289 H 0.69762 0.65827 0.76243 0.0
H2290 H 0.71037 0.60217 0.77374 0.0
H2291 H 0.76407 0.60667 0.77452 0.0
H2292 H 0.66551 0.63441 0.74058 0.0
H2293 H 0.64838 0.61774 0.80968 0.0
H2294 H 0.68172 0.62856 0.80187 0.0
H2295 H 0.67683 0.60478 0.79922 0.0
C2296 C 0.74296 0.64965 0.76555 0.0
C2297 C 0.76224 0.6352 0.76889 0.0
C2298 C 0.71208 0.647 0.76516 0.0
C2299 C 0.69996 0.62992 0.76827 0.0
C2300 C 0.71917 0.61552 0.77163 0.0
H2301 H 0.51923 0.58605 0.76938 0.0
H2302 H 0.5736 0.58963 0.76989 0.0
C2303 C 0.74993 0.61813 0.77197 0.0
C2304 C 0.66735 0.62689 0.76737 0.0
H2305 H 0.60746 0.61276 0.79092 0.0
C2306 C 0.65277 0.62978 0.7516 0.0
C2307 C 0.65083 0.62067 0.78173 0.0
C2308 C 0.66513 0.61789 0.79913 0.0
C2309 C 0.62218 0.62641 0.74975 0.0
C2310 C 0.6056 0.62032 0.76414 0.0
C2311 C 0.62021 0.61734 0.77988 0.0
C2312 C 0.57283 0.61786 0.76335 0.0
C2313 C 0.60798 0.62912 0.7323 0.0
C2314 C 0.55442 0.63254 0.75967 0.0
C2315 C 0.52355 0.63054 0.75935 0.0
C2316 C 0.51028 0.61382 0.76284 0.0
C2317 C 0.52874 0.59908 0.76656 0.0
C2318 C 0.55977 0.60112 0.76689 0.0
H2319 H 0.62471 0.62862 0.72175 0.0
H2320 H 0.59068 0.6188 0.72978 0.0
H2321 H 0.59721 0.64251 0.73193 0.0
H2322 H 0.56393 0.64566 0.75727 0.0
H2323 H 0.51009 0.64222 0.75652 0.0
H2324 H 0.02103 0.08678 0.76789 0.0
H2325 H 0.07512 0.09144 0.76819 0.0
H2326 H 0.06198 0.14826 0.76116 0.0
H2327 H 1.00823 0.14382 0.76096 0.0
H2328 H 0.11185 0.10743 0.74231 0.0
H2329 H 0.11627 0.14557 0.80382 0.0
H2330 H 0.08434 0.13239 0.79754 0.0
H2331 H 0.09035 0.15418 0.78825 0.0
C2332 C 0.02968 0.10026 0.76643 0.0
C2333 C 1.01027 0.11493 0.7645 0.0
C2334 C 0.06056 0.1029 0.7666 0.0
C2335 C 0.07253 0.12024 0.76499 0.0
C2336 C 0.05322 0.13482 0.76279 0.0
H2337 H 0.25344 0.16368 0.76383 0.0
H2338 H 0.19911 0.16002 0.76291 0.0
C2339 C 0.02246 0.13221 0.76258 0.0
C2340 C 0.1052 0.12313 0.76529 0.0
H2341 H 0.16075 0.14443 0.78737 0.0
C2342 C 0.12258 0.11544 0.7522 0.0
C2343 C 0.11909 0.13373 0.77813 0.0
C2344 C 0.10164 0.14184 0.79283 0.0
C2345 C 0.15347 0.11823 0.75148 0.0
C2346 C 0.16743 0.12869 0.76441 0.0
C2347 C 0.15001 0.13648 0.77744 0.0
C2348 C 0.20022 0.13107 0.76501 0.0
C2349 C 0.17081 0.11019 0.7367 0.0
C2350 C 0.21877 0.11608 0.76683 0.0
C2351 C 0.24962 0.11811 0.76733 0.0
C2352 C 0.2627 0.13523 0.76617 0.0
C2353 C 0.24408 0.15032 0.76469 0.0
C2354 C 0.21307 0.14825 0.76417 0.0
H2355 H 0.15623 0.10717 0.72549 0.0
H2356 H 0.18887 0.11933 0.7324 0.0
H2357 H 0.18108 0.0974 0.74098 0.0
H2358 H 0.20935 0.10274 0.76794 0.0
H2359 H 0.26321 0.10619 0.76863 0.0
H2360 H 0.50851 0.10507 0.02309 0.0
H2361 H 0.56213 0.10024 0.02182 0.0
H2362 H 0.57569 0.15655 1.01179 0.0
H2363 H 0.5218 0.1616 1.01324 0.0
H2364 H 0.60033 0.10668 0.99424 0.0
H2365 H 0.63299 0.1465 0.05179 0.0
H2366 H 0.59501 0.13985 0.04771 0.0
H2367 H 0.61096 0.1585 0.03628 0.0
C2368 C 0.52283 0.1165 0.02073 0.0
C2369 C 0.51083 0.13376 0.01832 0.0
C2370 C 0.55352 0.11368 0.01998 0.0
C2371 C 0.57294 0.12804 0.01689 0.0
C2372 C 0.56113 0.14532 1.0145 0.0
H2373 H 0.76339 0.13788 1.00594 0.0
H2374 H 0.70965 0.14211 1.00668 0.0
C2375 C 0.53033 0.14818 1.01526 0.0
C2376 C 0.60546 0.12472 0.01575 0.0
H2377 H 0.67207 0.1353 0.03432 0.0
C2378 C 0.61604 0.11288 1.00304 0.0
C2379 C 0.62587 0.13279 0.02727 0.0
C2380 C 0.61571 0.145 0.04164 0.0
C2381 C 0.64656 0.10918 1.00131 0.0
C2382 C 0.66697 0.1173 1.01279 0.0
C2383 C 0.65637 0.12909 0.02553 0.0
C2384 C 0.69954 0.1142 1.01156 0.0
C2385 C 0.65675 0.09696 0.98695 0.0
C2386 C 0.7118 0.09704 1.01399 0.0
C2387 C 0.74272 0.09452 1.01353 0.0
C2388 C 0.76185 0.10918 1.01075 0.0
C2389 C 0.74937 0.12628 1.00814 0.0
C2390 C 0.71861 0.12875 1.00858 0.0
H2391 H 0.63938 0.0953 0.97688 0.0
H2392 H 0.67729 0.10221 0.98079 0.0
H2393 H 0.66182 0.08352 0.99236 0.0
H2394 H 0.69751 0.08565 0.0166 0.0
H2395 H 0.75162 0.08121 0.01569 0.0
H2396 H 0.26839 0.64462 1.01416 0.0
H2397 H 0.21468 0.64905 1.01506 0.0
H2398 H 0.20163 0.59193 0.01964 0.0
H2399 H 0.25572 0.58734 0.01895 0.0
H2400 H 0.17131 0.6358 0.99281 0.0
H2401 H 0.15268 0.61217 0.05994 0.0
H2402 H 0.18922 0.61748 0.0517 0.0
H2403 H 0.17179 0.59655 0.04619 0.0
C2404 C 0.2542 0.63295 0.01541 0.0
C2405 C 0.26641 0.6156 0.01656 0.0
C2406 C 0.22344 0.63553 0.0159 0.0
C2407 C 0.20415 0.62087 0.01764 0.0
C2408 C 0.21615 0.60348 0.01861 0.0
H2409 H 0.01287 0.60998 0.02179 0.0
H2410 H 0.06664 0.60576 0.02147 0.0
C2411 C 0.24704 0.60086 0.01812 0.0
C2412 C 0.17149 0.62392 0.01813 0.0
H2413 H 0.10982 0.6191 0.04349 0.0
C2414 C 0.15785 0.6322 1.00391 0.0
C2415 C 0.15401 0.61925 0.03264 0.0
C2416 C 0.16762 0.61101 0.04857 0.0
C2417 C 0.12712 0.63564 1.00366 0.0
C2418 C 0.10963 0.63098 0.01817 0.0
C2419 C 0.12328 0.62271 0.0324 0.0
C2420 C 0.07694 0.63394 0.0186 0.0
C2421 C 0.11352 0.64382 0.98769 0.0
C2422 C 0.06477 0.65127 0.01735 0.0
C2423 C 0.03385 0.65376 0.01749 0.0
C2424 C 0.0146 0.63896 0.01899 0.0
C2425 C 0.02697 0.62169 0.02056 0.0
C2426 C 0.05776 0.61923 0.02041 0.0
H2427 H 0.12846 0.64259 0.97632 0.0
H2428 H 0.09191 0.63736 0.98459 0.0
H2429 H 0.10941 0.6583 0.99 0.0
H2430 H 0.07919 0.66286 0.01628 0.0
H2431 H 0.02505 0.66723 0.01633 0.0
H2432 H 0.49832 0.90173 0.7288 0.0
H2433 H 0.44583 0.89373 0.73178 0.0
H2434 H 0.45571 0.89199 0.78711 0.0
H2435 H 0.50803 0.90051 0.78426 0.0
H2436 H 0.42234 0.86358 0.74482 0.0
H2437 H 0.3816 0.92179 0.7826 0.0
H2438 H 0.41764 0.92159 0.77235 0.0
H2439 H 0.41213 0.91035 0.79265 0.0
C2440 C 0.48923 0.89993 0.74163 0.0
C2441 C 0.50736 0.90186 0.7563 0.0
C2442 C 0.45922 0.89527 0.74331 0.0
C2443 C 0.44667 0.8924 0.75968 0.0
C2444 C 0.46464 0.89452 0.77437 0.0
H2445 H 0.27635 0.83509 0.77308 0.0
H2446 H 0.32956 0.84266 0.77287 0.0
C2447 C 0.49462 0.89935 0.77271 0.0
C2448 C 0.41514 0.8865 0.76123 0.0
H2449 H 0.3482 0.8974 0.77927 0.0
C2450 C 0.4061 0.87099 0.75233 0.0
C2451 C 0.3939 0.89622 0.77095 0.0
C2452 C 0.40168 0.9135 0.78005 0.0
C2453 C 0.37644 0.86502 0.75277 0.0
C2454 C 0.35532 0.87456 0.76274 0.0
C2455 C 0.36443 0.88998 0.77175 0.0
C2456 C 0.32323 0.86961 0.76307 0.0
C2457 C 0.36785 0.84892 0.74205 0.0
C2458 C 0.30192 0.88231 0.75805 0.0
C2459 C 0.27167 0.87813 0.75841 0.0
C2460 C 0.2619 0.86108 0.76375 0.0
C2461 C 0.28319 0.84829 0.76877 0.0
C2462 C 0.31361 0.85257 0.76857 0.0
H2463 H 0.38462 0.84601 0.73189 0.0
H2464 H 0.36627 0.83696 0.75053 0.0
H2465 H 0.3459 0.85095 0.73578 0.0
H2466 H 0.30872 0.89553 0.75374 0.0
H2467 H 0.25593 0.88831 0.7544 0.0
H2468 H 0.75782 0.38256 0.74085 0.0
H2469 H 0.81119 0.38827 0.74099 0.0
H2470 H 0.82236 0.34956 0.78188 0.0
H2471 H 0.76877 0.34319 0.78123 0.0
H2472 H 0.84479 0.40184 0.76508 0.0
H2473 H 0.88663 0.33366 0.74984 0.0
H2474 H 0.84782 0.3395 0.74816 0.0
H2475 H 0.86388 0.33434 0.76885 0.0
C2476 C 0.77166 0.37511 0.74977 0.0
C2477 C 0.75913 0.36237 0.761 0.0
C2478 C 0.8022 0.37843 0.74986 0.0
C2479 C 0.82098 0.36926 0.76132 0.0
C2480 C 0.80852 0.35651 0.77261 0.0
H2481 H 1.0022 0.40926 0.78095 0.0
H2482 H 0.94886 0.40282 0.78323 0.0
C2483 C 0.77788 0.35293 0.7723 0.0
C2484 C 0.85332 0.37362 0.76163 0.0
H2485 H 0.92269 0.35547 0.75734 0.0
C2486 C 0.86183 0.39168 0.76336 0.0
C2487 C 0.87559 0.36042 0.75922 0.0
C2488 C 0.86807 0.34093 0.75624 0.0
C2489 C 0.8918 0.39697 0.76249 0.0
C2490 C 0.91411 0.38373 0.76045 0.0
C2491 C 0.90564 0.36563 0.75898 0.0
C2492 C 0.94628 0.38832 0.75903 0.0
C2493 C 0.89904 0.41673 0.76309 0.0
C2494 C 0.96281 0.38208 0.74487 0.0
C2495 C 0.99332 0.38542 0.74375 0.0
C2496 C 1.00798 0.39525 0.75667 0.0
C2497 C 0.99139 0.40188 0.77066 0.0
C2498 C 0.96087 0.39825 0.77194 0.0
H2499 H 0.87951 0.42508 0.75951 0.0
H2500 H 0.90561 0.42044 0.77642 0.0
H2501 H 0.9177 0.42008 0.75426 0.0
H2502 H 0.95213 0.37443 0.73472 0.0
H2503 H 1.00551 0.38014 0.7328 0.0
H2504 H 0.2737 0.40969 0.50014 0.0
H2505 H 0.32705 0.40293 0.49776 0.0
H2506 H 0.31774 0.36174 0.53648 0.0
H2507 H 0.26466 0.36797 0.53848 0.0
H2508 H 0.37195 0.40426 0.51999 0.0
H2509 H 0.35844 0.33387 0.49923 0.0
H2510 H 0.32766 0.34937 0.49996 0.0
H2511 H 0.33948 0.33783 0.51921 0.0
C2512 C 0.2831 0.39922 0.50814 0.0
C2513 C 0.26491 0.38923 0.51935 0.0
C2514 C 0.31355 0.39532 0.50674 0.0
C2515 C 0.32629 0.38145 0.51657 0.0
C2516 C 0.30831 0.37203 0.52828 0.0
H2517 H 0.50905 0.36821 0.5462 0.0
H2518 H 0.45621 0.37503 0.54343 0.0
C2519 C 0.27795 0.37574 0.52952 0.0
C2520 C 0.35847 0.37701 0.51504 0.0
H2521 H 0.40662 0.34184 0.51043 0.0
C2522 C 0.37952 0.39065 0.5177 0.0
C2523 C 0.3685 0.35933 0.51163 0.0
C2524 C 0.34731 0.34432 0.50715 0.0
C2525 C 0.41017 0.38694 0.51785 0.0
C2526 C 0.42005 0.36901 0.51582 0.0
C2527 C 0.39909 0.35552 0.51234 0.0
C2528 C 0.4519 0.36391 0.51774 0.0
C2529 C 0.43161 0.40236 0.52008 0.0
C2530 C 0.46679 0.35442 0.50465 0.0
C2531 C 0.49702 0.35011 0.50637 0.0
C2532 C 0.51286 0.35531 0.5212 0.0
C2533 C 0.49759 0.36422 0.53452 0.0
C2534 C 0.4674 0.3683 0.53288 0.0
H2535 H 0.42171 0.41519 0.51556 0.0
H2536 H 0.43694 0.40393 0.53397 0.0
H2537 H 0.45264 0.40001 0.5129 0.0
H2538 H 0.45521 0.35069 0.49293 0.0
H2539 H 0.50817 0.34326 0.49588 0.0
H2540 H 0.01565 0.89061 0.52394 0.0
H2541 H 0.96275 0.89752 0.52289 0.0
H2542 H 0.94391 0.84341 0.5065 0.0
H2543 H 0.99722 0.83622 0.50776 0.0
H2544 H 0.92539 0.89624 0.49473 0.0
H2545 H 0.88568 0.85053 0.54652 0.0
H2546 H 0.92452 0.85591 0.54361 0.0
H2547 H 0.90673 0.83995 0.52964 0.0
C2548 C 1.00034 0.88008 0.5202 0.0
C2549 C 1.01073 0.86282 0.51595 0.0
C2550 C 0.97004 0.8841 0.51959 0.0
C2551 C 0.9493 0.87097 0.51477 0.0
C2552 C 0.95946 0.85367 0.51055 0.0
H2553 H 0.75646 0.87692 0.50452 0.0
H2554 H 0.80858 0.86771 0.50377 0.0
C2555 C 0.98994 0.8496 0.5112 0.0
C2556 C 0.91724 0.87578 0.51378 0.0
H2557 H 0.84904 0.86681 0.53128 0.0
C2558 C 0.90869 0.88979 0.50272 0.0
C2559 C 0.89546 0.86735 0.52419 0.0
C2560 C 0.90347 0.8527 0.53678 0.0
C2561 C 0.879 0.89559 0.50176 0.0
C2562 C 0.85731 0.88735 0.51234 0.0
C2563 C 0.86573 0.87315 0.52321 0.0
C2564 C 0.82575 0.89329 0.51239 0.0
C2565 C 0.87104 0.91035 0.48926 0.0
C2566 C 0.81803 0.91075 0.51754 0.0
C2567 C 0.78815 0.91611 0.51798 0.0
C2568 C 0.76543 0.90406 0.51334 0.0
C2569 C 0.77333 0.88659 0.50814 0.0
C2570 C 0.80314 0.88126 0.50773 0.0
H2571 H 0.88825 0.91199 0.47908 0.0
H2572 H 0.84929 0.90764 0.48298 0.0
H2573 H 0.86925 0.92322 0.49638 0.0
H2574 H 0.83508 0.92017 0.52148 0.0
H2575 H 0.78288 0.92961 0.52214 0.0
H2576 H 0.508 0.14317 0.26176 0.0
H2577 H 0.56178 0.1475 0.26186 0.0
H2578 H 0.57464 0.0904 0.26673 0.0
H2579 H 0.52056 0.08587 0.26643 0.0
H2580 H 0.6024 0.13845 0.28735 0.0
H2581 H 0.62831 0.10345 0.22587 0.0
H2582 H 0.59096 0.10994 0.23177 0.0
H2583 H 0.60759 0.0903 0.24114 0.0
C2584 C 0.52218 0.13147 0.26278 0.0
C2585 C 0.50992 0.11414 0.26402 0.0
C2586 C 0.55297 0.134 0.26285 0.0
C2587 C 0.57225 0.11928 0.26409 0.0
C2588 C 0.56017 0.10194 0.26543 0.0
H2589 H 0.76326 0.10753 0.26886 0.0
H2590 H 0.70943 0.10359 0.26843 0.0
C2591 C 0.52927 0.09937 0.26535 0.0
C2592 C 0.60493 0.12227 0.26437 0.0
H2593 H 0.66935 0.11293 0.24277 0.0
C2594 C 0.61705 0.13293 0.27757 0.0
C2595 C 0.62398 0.11509 0.25158 0.0
C2596 C 0.61211 0.10419 0.23669 0.0
C2597 C 0.64777 0.13631 0.27852 0.0
C2598 C 0.66682 0.1291 0.26575 0.0
C2599 C 0.65469 0.11847 0.25253 0.0
C2600 C 0.69954 0.13188 0.26615 0.0
C2601 C 0.65964 0.14719 0.29342 0.0
C2602 C 0.71198 0.14914 0.26489 0.0
C2603 C 0.74294 0.15149 0.26518 0.0
C2604 C 0.76196 0.13658 0.26662 0.0
C2605 C 0.74933 0.11934 0.26776 0.0
C2606 C 0.71851 0.11702 0.26749 0.0
H2607 H 0.64335 0.14806 0.30418 0.0
H2608 H 0.68064 0.14133 0.29843 0.0
H2609 H 0.66445 0.16103 0.28894 0.0
H2610 H 0.69776 0.16078 0.26353 0.0
H2611 H 0.75194 0.16493 0.26418 0.0
H2612 H 1.01119 0.64144 0.25222 0.0
H2613 H 0.06494 0.64532 0.25428 0.0
H2614 H 0.07286 0.59317 0.27789 0.0
H2615 H 0.01877 0.58907 0.27578 0.0
H2616 H 0.10041 0.64493 0.28437 0.0
H2617 H 0.13378 0.59172 0.23796 0.0
H2618 H 0.0963 0.60037 0.23908 0.0
H2619 H 0.1092 0.58464 0.25495 0.0
C2620 C 0.02428 0.6307 0.25778 0.0
C2621 C 1.01063 0.61489 0.26379 0.0
C2622 C 0.05505 0.63299 0.25898 0.0
C2623 C 0.07294 0.61949 0.26608 0.0
C2624 C 0.05949 0.60366 0.27211 0.0
H2625 H 0.26308 0.6096 0.28147 0.0
H2626 H 0.20924 0.60568 0.28087 0.0
C2627 C 0.02859 0.60135 0.27096 0.0
C2628 C 0.10558 0.62227 0.2674 0.0
H2629 H 0.17243 0.60657 0.25289 0.0
C2630 C 0.1162 0.63656 0.27749 0.0
C2631 C 0.12608 0.61136 0.25838 0.0
C2632 C 0.11588 0.59624 0.24685 0.0
C2633 C 0.14682 0.64007 0.27901 0.0
C2634 C 0.16734 0.62921 0.26991 0.0
C2635 C 0.15669 0.6149 0.25985 0.0
C2636 C 0.20002 0.63219 0.27086 0.0
C2637 C 0.15692 0.6551 0.29066 0.0
C2638 C 0.21287 0.64844 0.26544 0.0
C2639 C 0.24382 0.65079 0.26584 0.0
C2640 C 0.26247 0.63684 0.27152 0.0
C2641 C 0.24944 0.62064 0.277 0.0
C2642 C 0.21861 0.61834 0.27665 0.0
H2643 H 0.13939 0.65892 0.30009 0.0
H2644 H 0.17732 0.6513 0.29786 0.0
H2645 H 0.16209 0.66709 0.28272 0.0
H2646 H 0.19901 0.6592 0.26058 0.0
H2647 H 0.25314 0.66338 0.26142 0.0
H2648 H 0.75841 0.59053 0.50813 0.0
H2649 H 0.70443 0.59563 0.50704 0.0
H2650 H 0.71685 0.64879 0.52773 0.0
H2651 H 0.77045 0.6439 0.52885 0.0
H2652 H 0.66526 0.60562 0.53543 0.0
H2653 H 0.667 0.65676 0.4833 0.0
H2654 H 0.69779 0.64175 0.48726 0.0
H2655 H 0.69206 0.66092 0.50092 0.0
C2656 C 0.74963 0.6033 0.51243 0.0
C2657 C 0.76879 0.61682 0.51851 0.0
C2658 C 0.71882 0.60619 0.5118 0.0
C2659 C 0.70673 0.6227 0.51705 0.0
C2660 C 0.72576 0.63609 0.52332 0.0
H2661 H 0.52711 0.66751 0.52221 0.0
H2662 H 0.58125 0.66295 0.52334 0.0
C2663 C 0.75643 0.6332 0.52403 0.0
C2664 C 0.67417 0.6259 0.51637 0.0
H2665 H 0.62104 0.65232 0.49769 0.0
C2666 C 0.65553 0.61575 0.52711 0.0
C2667 C 0.66162 0.63926 0.50564 0.0
C2668 C 0.68055 0.65023 0.49351 0.0
C2669 C 0.62469 0.61875 0.5276 0.0
C2670 C 0.61205 0.63201 0.51674 0.0
C2671 C 0.63074 0.64221 0.50604 0.0
C2672 C 0.5794 0.63499 0.51585 0.0
C2673 C 0.606 0.60796 0.54002 0.0
C2674 C 0.5605 0.62094 0.5109 0.0
C2675 C 0.52976 0.62347 0.51031 0.0
C2676 C 0.51713 0.6402 0.51447 0.0
C2677 C 0.53612 0.65445 0.51899 0.0
C2678 C 0.56702 0.65186 0.51965 0.0
H2679 H 0.61959 0.6025 0.55077 0.0
H2680 H 0.58775 0.6162 0.54554 0.0
H2681 H 0.59594 0.59645 0.53306 0.0
H2682 H 0.56956 0.60795 0.50747 0.0
H2683 H 0.51589 0.61224 0.50658 0.0
H2684 H 1.00615 0.10223 0.50188 0.0
H2685 H 0.05969 0.09727 0.50326 0.0
H2686 H 0.07264 0.15195 0.51983 0.0
H2687 H 0.01871 0.15698 0.5188 0.0
H2688 H 0.1055 0.11359 0.4861 0.0
H2689 H 0.11698 0.12375 0.55675 0.0
H2690 H 0.0813 0.12104 0.5464 0.0
H2691 H 0.10023 0.14228 0.54559 0.0
C2692 C 0.0203 0.11325 0.50583 0.0
C2693 C 1.00807 0.13 0.51034 0.0
C2694 C 0.05097 0.11037 0.50659 0.0
C2695 C 0.07017 0.12412 0.51192 0.0
C2696 C 0.05818 0.14101 0.51605 0.0
H2697 H 0.2602 0.13397 0.52279 0.0
H2698 H 0.20644 0.1379 0.52163 0.0
C2699 C 0.02738 0.14391 0.51534 0.0
C2700 C 0.10269 0.12065 0.513 0.0
H2701 H 0.16168 0.12029 0.54081 0.0
C2702 C 0.11777 0.11498 0.49808 0.0
C2703 C 0.11865 0.12237 0.52866 0.0
C2704 C 0.10347 0.12753 0.54531 0.0
C2705 C 0.14846 0.11136 0.4983 0.0
C2706 C 0.16443 0.11322 0.51392 0.0
C2707 C 0.14935 0.11882 0.52886 0.0
C2708 C 0.19707 0.11033 0.51486 0.0
C2709 C 0.16372 0.10603 0.48173 0.0
C2710 C 0.20973 0.0934 0.51168 0.0
C2711 C 0.24069 0.09105 0.51236 0.0
C2712 C 0.25943 0.10562 0.51624 0.0
C2713 C 0.24651 0.12245 0.51968 0.0
C2714 C 0.21572 0.12475 0.51906 0.0
H2715 H 0.14966 0.1088 0.47025 0.0
H2716 H 0.18517 0.11327 0.48026 0.0
H2717 H 0.16857 0.09144 0.48203 0.0
H2718 H 0.19567 0.08201 0.50868 0.0
H2719 H 0.24992 0.07792 0.50969 0.0
loop_
_geom_bond_atom_site_label_1
_geom_bond_atom_site_label_2
_geom_bond_distance
_geom_bond_site_symmetry_2
_ccdc_geom_bond_type
Mg0 O7 2.141 . S
Mg0 O8 2.048 . S
Mg0 O9 2.048 . S
Mg0 O12 2.141 . S
C1 O2 1.313 . S
C1 O8 1.195 . S
O2 C1 1.313 . S
C3 O4 1.245 . S
C3 O12 1.289 . S
O4 C3 1.245 . S
C5 O6 1.245 . S
C5 O7 1.289 . S
O6 C5 1.245 . S
O7 Mg0 2.141 . S
O7 C5 1.289 . S
O8 Mg0 2.048 . S
O8 C1 1.195 . S
O9 Mg0 2.048 . S
O9 C10 1.195 . S
C10 O9 1.195 . S
C10 O11 1.313 . S
O11 C10 1.313 . S
O12 Mg0 2.141 . S
O12 C3 1.289 . S
Mg13 O20 2.141 . S
Mg13 O21 2.048 . S
Mg13 O22 2.048 . S
Mg13 O25 2.141 . S
C14 O15 1.313 . S
C14 O21 1.195 . S
O15 C14 1.313 . S
C16 O17 1.245 . S
C16 O25 1.289 . S
O17 C16 1.245 . S
C18 O19 1.245 . S
C18 O20 1.289 . S
O19 C18 1.245 . S
O20 Mg13 2.141 . S
O20 C18 1.289 . S
O21 Mg13 2.048 . S
O21 C14 1.195 . S
O22 Mg13 2.048 . S
O22 C23 1.195 . S
C23 O22 1.195 . S
C23 O24 1.313 . S
O24 C23 1.313 . S
O25 Mg13 2.141 . S
O25 C16 1.289 . S
Mg26 O33 2.142 1_554 S
Mg26 O34 2.046 . S
Mg26 O35 2.047 . S
Mg26 O38 2.143 1_554 S
C27 O28 1.313 . S
C27 O34 1.195 . S
O28 C27 1.313 . S
C29 O30 1.245 . S
C29 O38 1.289 . S
O30 C29 1.245 . S
C31 O32 1.249 . S
C31 O33 1.289 . S
O32 C31 1.249 . S
O33 Mg26 2.142 1_556 S
O33 C31 1.289 . S
O34 Mg26 2.046 . S
O34 C27 1.195 . S
O35 Mg26 2.047 . S
O35 C36 1.200 . S
C36 O35 1.200 . S
C36 O37 1.313 . S
O37 C36 1.313 . S
O38 Mg26 2.143 1_556 S
O38 C29 1.289 . S
Mg39 O46 2.142 1_554 S
Mg39 O47 2.046 . S
Mg39 O48 2.047 . S
Mg39 O51 2.143 1_554 S
C40 O41 1.313 . S
C40 O47 1.195 . S
O41 C40 1.313 . S
C42 O43 1.245 . S
C42 O51 1.289 . S
O43 C42 1.245 . S
C44 O45 1.249 . S
C44 O46 1.289 . S
O45 C44 1.249 . S
O46 Mg39 2.142 1_556 S
O46 C44 1.289 . S
O47 Mg39 2.046 . S
O47 C40 1.195 . S
O48 Mg39 2.047 . S
O48 C49 1.200 . S
C49 O48 1.200 . S
C49 O50 1.313 . S
O50 C49 1.313 . S
O51 Mg39 2.143 1_556 S
O51 C42 1.289 . S
Mg52 O59 2.141 . S
Mg52 O60 2.048 . S
Mg52 O61 2.048 . S
Mg52 O64 2.141 . S
C53 O54 1.313 . S
C53 O60 1.195 . S
O54 C53 1.313 . S
C55 O56 1.245 . S
C55 O64 1.289 . S
O56 C55 1.245 . S
C57 O58 1.245 . S
C57 O59 1.289 . S
O58 C57 1.245 . S
O59 Mg52 2.141 . S
O59 C57 1.289 . S
O60 Mg52 2.048 . S
O60 C53 1.195 . S
O61 Mg52 2.048 . S
O61 C62 1.195 . S
C62 O61 1.195 . S
C62 O63 1.313 . S
O63 C62 1.313 . S
O64 Mg52 2.141 . S
O64 C55 1.289 . S
Mg65 O72 2.141 . S
Mg65 O73 2.048 . S
Mg65 O74 2.048 . S
Mg65 O77 2.141 . S
C66 O67 1.313 . S
C66 O73 1.195 . S
O67 C66 1.313 . S
C68 O69 1.245 . S
C68 O77 1.289 . S
O69 C68 1.245 . S
C70 O71 1.245 . S
C70 O72 1.289 . S
O71 C70 1.245 . S
O72 Mg65 2.141 . S
O72 C70 1.289 . S
O73 Mg65 2.048 . S
O73 C66 1.195 . S
O74 Mg65 2.048 . S
O74 C75 1.195 . S
C75 O74 1.195 . S
C75 O76 1.313 . S
O76 C75 1.313 . S
O77 Mg65 2.141 . S
O77 C68 1.289 . S
Mg78 O85 2.147 . S
Mg78 O86 1.985 1_554 S
Mg78 O87 2.047 . S
Mg78 O90 2.204 . S
C79 O80 1.313 . S
C79 O86 1.195 . S
O80 C79 1.313 . S
C81 O82 1.245 . S
C81 O90 1.289 . S
O82 C81 1.245 . S
C83 O84 1.238 1_554 S
C83 O85 1.289 . S
O84 C83 1.238 1_556 S
O85 Mg78 2.147 . S
O85 C83 1.289 . S
O86 Mg78 1.985 1_556 S
O86 C79 1.195 . S
O87 Mg78 2.047 . S
O87 C88 1.190 1_554 S
C88 O87 1.190 1_556 S
C88 O89 1.313 . S
O89 C88 1.313 . S
O90 Mg78 2.204 . S
O90 C81 1.289 . S
Mg91 O98 2.147 . S
Mg91 O99 1.985 1_554 S
Mg91 O100 2.047 . S
Mg91 O103 2.204 . S
C92 O93 1.313 . S
C92 O99 1.195 . S
O93 C92 1.313 . S
C94 O95 1.245 . S
C94 O103 1.289 . S
O95 C94 1.245 . S
C96 O97 1.238 1_554 S
C96 O98 1.289 . S
O97 C96 1.238 1_556 S
O98 Mg91 2.147 . S
O98 C96 1.289 . S
O99 Mg91 1.985 1_556 S
O99 C92 1.195 . S
O100 Mg91 2.047 . S
O100 C101 1.190 1_554 S
C101 O100 1.190 1_556 S
C101 O102 1.313 . S
O102 C101 1.313 . S
O103 Mg91 2.204 . S
O103 C94 1.289 . S
Mg104 O111 2.141 . S
Mg104 O112 2.048 . S
Mg104 O113 2.048 . S
Mg104 O116 2.141 . S
C105 O106 1.313 . S
C105 O112 1.195 . S
O106 C105 1.313 . S
C107 O108 1.245 . S
C107 O116 1.289 . S
O108 C107 1.245 . S
C109 O110 1.245 . S
C109 O111 1.289 . S
O110 C109 1.245 . S
O111 Mg104 2.141 . S
O111 C109 1.289 . S
O112 Mg104 2.048 . S
O112 C105 1.195 . S
O113 Mg104 2.048 . S
O113 C114 1.195 . S
C114 O113 1.195 . S
C114 O115 1.313 . S
O115 C114 1.313 . S
O116 Mg104 2.141 . S
O116 C107 1.289 . S
Mg117 O124 2.141 . S
Mg117 O125 2.048 . S
Mg117 O126 2.048 . S
Mg117 O129 2.141 . S
C118 O119 1.313 . S
C118 O125 1.195 . S
O119 C118 1.313 . S
C120 O121 1.245 . S
C120 O129 1.289 . S
O121 C120 1.245 . S
C122 O123 1.245 . S
C122 O124 1.289 . S
O123 C122 1.245 . S
O124 Mg117 2.141 . S
O124 C122 1.289 . S
O125 Mg117 2.048 . S
O125 C118 1.195 . S
O126 Mg117 2.048 . S
O126 C127 1.195 . S
C127 O126 1.195 . S
C127 O128 1.313 . S
O128 C127 1.313 . S
O129 Mg117 2.141 . S
O129 C120 1.289 . S
Mg130 O137 2.141 . S
Mg130 O138 2.048 . S
Mg130 O139 2.048 . S
Mg130 O142 2.141 . S
C131 O132 1.313 . S
C131 O138 1.195 . S
O132 C131 1.313 . S
C133 O134 1.245 . S
C133 O142 1.289 . S
O134 C133 1.245 . S
C135 O136 1.245 . S
C135 O137 1.289 . S
O136 C135 1.245 . S
O137 Mg130 2.141 . S
O137 C135 1.289 . S
O138 Mg130 2.048 . S
O138 C131 1.195 . S
O139 Mg130 2.048 . S
O139 C140 1.195 . S
C140 O139 1.195 . S
C140 O141 1.313 . S
O141 C140 1.313 . S
O142 Mg130 2.141 . S
O142 C133 1.289 . S
Mg143 O150 2.141 . S
Mg143 O151 2.048 . S
Mg143 O152 2.048 . S
Mg143 O155 2.141 . S
C144 O145 1.313 . S
C144 O151 1.195 . S
O145 C144 1.313 . S
C146 O147 1.245 . S
C146 O155 1.289 . S
O147 C146 1.245 . S
C148 O149 1.245 . S
C148 O150 1.289 . S
O149 C148 1.245 . S
O150 Mg143 2.141 . S
O150 C148 1.289 . S
O151 Mg143 2.048 . S
O151 C144 1.195 . S
O152 Mg143 2.048 . S
O152 C153 1.195 . S
C153 O152 1.195 . S
C153 O154 1.313 . S
O154 C153 1.313 . S
O155 Mg143 2.141 . S
O155 C146 1.289 . S
Mg156 O163 2.141 . S
Mg156 O164 2.048 . S
Mg156 O165 2.048 . S
Mg156 O168 2.141 . S
C157 O158 1.313 . S
C157 O164 1.195 . S
O158 C157 1.313 . S
C159 O160 1.245 . S
C159 O168 1.289 . S
O160 C159 1.245 . S
C161 O162 1.245 . S
C161 O163 1.289 . S
O162 C161 1.245 . S
O163 Mg156 2.141 . S
O163 C161 1.289 . S
O164 Mg156 2.048 . S
O164 C157 1.195 . S
O165 Mg156 2.048 . S
O165 C166 1.195 . S
C166 O165 1.195 . S
C166 O167 1.313 . S
O167 C166 1.313 . S
O168 Mg156 2.141 . S
O168 C159 1.289 . S
Mg169 O176 2.141 . S
Mg169 O177 2.048 . S
Mg169 O178 2.048 . S
Mg169 O181 2.141 . S
C170 O171 1.313 . S
C170 O177 1.195 . S
O171 C170 1.313 . S
C172 O173 1.245 . S
C172 O181 1.289 . S
O173 C172 1.245 . S
C174 O175 1.245 . S
C174 O176 1.289 . S
O175 C174 1.245 . S
O176 Mg169 2.141 . S
O176 C174 1.289 . S
O177 Mg169 2.048 . S
O177 C170 1.195 . S
O178 Mg169 2.048 . S
O178 C179 1.195 . S
C179 O178 1.195 . S
C179 O180 1.313 . S
O180 C179 1.313 . S
O181 Mg169 2.141 . S
O181 C172 1.289 . S
Mg182 O189 2.141 . S
Mg182 O190 2.048 . S
Mg182 O191 2.048 . S
Mg182 O194 2.141 . S
C183 O184 1.313 . S
C183 O190 1.195 . S
O184 C183 1.313 . S
C185 O186 1.245 . S
C185 O194 1.289 . S
O186 C185 1.245 . S
C187 O188 1.245 . S
C187 O189 1.289 . S
O188 C187 1.245 . S
O189 Mg182 2.141 . S
O189 C187 1.289 . S
O190 Mg182 2.048 . S
O190 C183 1.195 . S
O191 Mg182 2.048 . S
O191 C192 1.195 . S
C192 O191 1.195 . S
C192 O193 1.313 . S
O193 C192 1.313 . S
O194 Mg182 2.141 . S
O194 C185 1.289 . S
Mg195 O202 2.141 . S
Mg195 O203 2.048 . S
Mg195 O204 2.048 . S
Mg195 O207 2.141 . S
C196 O197 1.313 . S
C196 O203 1.195 . S
O197 C196 1.313 . S
C198 O199 1.245 . S
C198 O207 1.289 . S
O199 C198 1.245 . S
C200 O201 1.245 . S
C200 O202 1.289 . S
O201 C200 1.245 . S
O202 Mg195 2.141 . S
O202 C200 1.289 . S
O203 Mg195 2.048 . S
O203 C196 1.195 . S
O204 Mg195 2.048 . S
O204 C205 1.195 . S
C205 O204 1.195 . S
C205 O206 1.313 . S
O206 C205 1.313 . S
O207 Mg195 2.141 . S
O207 C198 1.289 . S
Mg208 O215 2.141 . S
Mg208 O216 2.048 . S
Mg208 O217 2.048 . S
Mg208 O220 2.141 . S
C209 O210 1.313 . S
C209 O216 1.195 . S
O210 C209 1.313 . S
C211 O212 1.245 . S
C211 O220 1.289 . S
O212 C211 1.245 . S
C213 O214 1.245 . S
C213 O215 1.289 . S
O214 C213 1.245 . S
O215 Mg208 2.141 . S
O215 C213 1.289 . S
O216 Mg208 2.048 . S
O216 C209 1.195 . S
O217 Mg208 2.048 . S
O217 C218 1.195 . S
C218 O217 1.195 . S
C218 O219 1.313 . S
O219 C218 1.313 . S
O220 Mg208 2.141 . S
O220 C211 1.289 . S
Mg221 O228 2.141 . S
Mg221 O229 2.048 . S
Mg221 O230 2.048 . S
Mg221 O233 2.141 . S
C222 O223 1.313 . S
C222 O229 1.195 . S
O223 C222 1.313 . S
C224 O225 1.245 . S
C224 O233 1.289 . S
O225 C224 1.245 . S
C226 O227 1.245 . S
C226 O228 1.289 . S
O227 C226 1.245 . S
O228 Mg221 2.141 . S
O228 C226 1.289 . S
O229 Mg221 2.048 . S
O229 C222 1.195 . S
O230 Mg221 2.048 . S
O230 C231 1.195 . S
C231 O230 1.195 . S
C231 O232 1.313 . S
O232 C231 1.313 . S
O233 Mg221 2.141 . S
O233 C224 1.289 . S
Mg234 O241 2.141 . S
Mg234 O242 2.048 . S
Mg234 O243 2.048 . S
Mg234 O246 2.141 . S
C235 O236 1.313 . S
C235 O242 1.195 . S
O236 C235 1.313 . S
C237 O238 1.245 . S
C237 O246 1.289 . S
O238 C237 1.245 . S
C239 O240 1.245 . S
C239 O241 1.289 . S
O240 C239 1.245 . S
O241 Mg234 2.141 . S
O241 C239 1.289 . S
O242 Mg234 2.048 . S
O242 C235 1.195 . S
O243 Mg234 2.048 . S
O243 C244 1.195 . S
C244 O243 1.195 . S
C244 O245 1.313 . S
O245 C244 1.313 . S
O246 Mg234 2.141 . S
O246 C237 1.289 . S
Mg247 O254 2.141 . S
Mg247 O255 2.048 . S
Mg247 O256 2.048 . S
Mg247 O259 2.141 . S
C248 O249 1.313 . S
C248 O255 1.195 . S
O249 C248 1.313 . S
C250 O251 1.245 . S
C250 O259 1.289 . S
O251 C250 1.245 . S
C252 O253 1.245 . S
C252 O254 1.289 . S
O253 C252 1.245 . S
O254 Mg247 2.141 . S
O254 C252 1.289 . S
O255 Mg247 2.048 . S
O255 C248 1.195 . S
O256 Mg247 2.048 . S
O256 C257 1.195 . S
C257 O256 1.195 . S
C257 O258 1.313 . S
O258 C257 1.313 . S
O259 Mg247 2.141 . S
O259 C250 1.289 . S
Mg260 O267 2.141 . S
Mg260 O268 2.048 . S
Mg260 O269 2.048 . S
Mg260 O272 2.141 . S
C261 O262 1.313 . S
C261 O268 1.195 . S
O262 C261 1.313 . S
C263 O264 1.245 . S
C263 O272 1.289 . S
O264 C263 1.245 . S
C265 O266 1.245 . S
C265 O267 1.289 . S
O266 C265 1.245 . S
O267 Mg260 2.141 . S
O267 C265 1.289 . S
O268 Mg260 2.048 . S
O268 C261 1.195 . S
O269 Mg260 2.048 . S
O269 C270 1.195 . S
C270 O269 1.195 . S
C270 O271 1.313 . S
O271 C270 1.313 . S
O272 Mg260 2.141 . S
O272 C263 1.289 . S
Mg273 O280 2.141 . S
Mg273 O281 2.048 . S
Mg273 O282 2.048 . S
Mg273 O285 2.141 . S
C274 O275 1.313 . S
C274 O281 1.195 . S
O275 C274 1.313 . S
C276 O277 1.245 . S
C276 O285 1.289 . S
O277 C276 1.245 . S
C278 O279 1.245 . S
C278 O280 1.289 . S
O279 C278 1.245 . S
O280 Mg273 2.141 . S
O280 C278 1.289 . S
O281 Mg273 2.048 . S
O281 C274 1.195 . S
O282 Mg273 2.048 . S
O282 C283 1.195 . S
C283 O282 1.195 . S
C283 O284 1.313 . S
O284 C283 1.313 . S
O285 Mg273 2.141 . S
O285 C276 1.289 . S
Mg286 O293 2.141 . S
Mg286 O294 2.048 . S
Mg286 O295 2.048 . S
Mg286 O298 2.141 . S
C287 O288 1.313 . S
C287 O294 1.195 . S
O288 C287 1.313 . S
C289 O290 1.245 . S
C289 O298 1.289 . S
O290 C289 1.245 . S
C291 O292 1.245 . S
C291 O293 1.289 . S
O292 C291 1.245 . S
O293 Mg286 2.141 . S
O293 C291 1.289 . S
O294 Mg286 2.048 . S
O294 C287 1.195 . S
O295 Mg286 2.048 . S
O295 C296 1.195 . S
C296 O295 1.195 . S
C296 O297 1.313 . S
O297 C296 1.313 . S
O298 Mg286 2.141 . S
O298 C289 1.289 . S
Mg299 O306 2.141 . S
Mg299 O307 2.048 . S
Mg299 O308 2.048 . S
Mg299 O311 2.141 . S
C300 O301 1.313 . S
C300 O307 1.195 . S
O301 C300 1.313 . S
C302 O303 1.245 . S
C302 O311 1.289 . S
O303 C302 1.245 . S
C304 O305 1.245 . S
C304 O306 1.289 . S
O305 C304 1.245 . S
O306 Mg299 2.141 . S
O306 C304 1.289 . S
O307 Mg299 2.048 . S
O307 C300 1.195 . S
O308 Mg299 2.048 . S
O308 C309 1.195 . S
C309 O308 1.195 . S
C309 O310 1.313 . S
O310 C309 1.313 . S
O311 Mg299 2.141 . S
O311 C302 1.289 . S
Mg312 O319 2.141 . S
Mg312 O320 2.048 . S
Mg312 O321 2.048 . S
Mg312 O324 2.141 . S
C313 O314 1.313 . S
C313 O320 1.195 . S
O314 C313 1.313 . S
C315 O316 1.245 . S
C315 O324 1.289 . S
O316 C315 1.245 . S
C317 O318 1.245 . S
C317 O319 1.289 . S
O318 C317 1.245 . S
O319 Mg312 2.141 . S
O319 C317 1.289 . S
O320 Mg312 2.048 . S
O320 C313 1.195 . S
O321 Mg312 2.048 . S
O321 C322 1.195 . S
C322 O321 1.195 . S
C322 O323 1.313 . S
O323 C322 1.313 . S
O324 Mg312 2.141 . S
O324 C315 1.289 . S
Mg325 O332 2.141 . S
Mg325 O333 2.048 . S
Mg325 O334 2.048 . S
Mg325 O337 2.141 . S
C326 O327 1.313 . S
C326 O333 1.195 . S
O327 C326 1.313 . S
C328 O329 1.245 . S
C328 O337 1.289 . S
O329 C328 1.245 . S
C330 O331 1.245 . S
C330 O332 1.289 . S
O331 C330 1.245 . S
O332 Mg325 2.141 . S
O332 C330 1.289 . S
O333 Mg325 2.048 . S
O333 C326 1.195 . S
O334 Mg325 2.048 . S
O334 C335 1.195 . S
C335 O334 1.195 . S
C335 O336 1.313 . S
O336 C335 1.313 . S
O337 Mg325 2.141 . S
O337 C328 1.289 . S
Mg338 O345 2.142 1_554 S
Mg338 O346 2.046 . S
Mg338 O347 2.047 . S
Mg338 O350 2.143 1_554 S
C339 O340 1.313 . S
C339 O346 1.195 . S
O340 C339 1.313 . S
C341 O342 1.245 . S
C341 O350 1.289 . S
O342 C341 1.245 . S
C343 O344 1.249 . S
C343 O345 1.289 . S
O344 C343 1.249 . S
O345 Mg338 2.142 1_556 S
O345 C343 1.289 . S
O346 Mg338 2.046 . S
O346 C339 1.195 . S
O347 Mg338 2.047 . S
O347 C348 1.200 . S
C348 O347 1.200 . S
C348 O349 1.313 . S
O349 C348 1.313 . S
O350 Mg338 2.143 1_556 S
O350 C341 1.289 . S
Mg351 O358 2.142 1_554 S
Mg351 O359 2.046 . S
Mg351 O360 2.047 . S
Mg351 O363 2.143 1_554 S
C352 O353 1.313 . S
C352 O359 1.195 . S
O353 C352 1.313 . S
C354 O355 1.245 . S
C354 O363 1.289 . S
O355 C354 1.245 . S
C356 O357 1.249 . S
C356 O358 1.289 . S
O357 C356 1.249 . S
O358 Mg351 2.142 1_556 S
O358 C356 1.289 . S
O359 Mg351 2.046 . S
O359 C352 1.195 . S
O360 Mg351 2.047 . S
O360 C361 1.200 . S
C361 O360 1.200 . S
C361 O362 1.313 . S
O362 C361 1.313 . S
O363 Mg351 2.143 1_556 S
O363 C354 1.289 . S
Mg364 O371 2.141 . S
Mg364 O372 2.048 . S
Mg364 O373 2.048 . S
Mg364 O376 2.141 . S
C365 O366 1.313 . S
C365 O372 1.195 . S
O366 C365 1.313 . S
C367 O368 1.245 . S
C367 O376 1.289 . S
O368 C367 1.245 . S
C369 O370 1.245 . S
C369 O371 1.289 . S
O370 C369 1.245 . S
O371 Mg364 2.141 . S
O371 C369 1.289 . S
O372 Mg364 2.048 . S
O372 C365 1.195 . S
O373 Mg364 2.048 . S
O373 C374 1.195 . S
C374 O373 1.195 . S
C374 O375 1.313 . S
O375 C374 1.313 . S
O376 Mg364 2.141 . S
O376 C367 1.289 . S
Mg377 O384 2.141 . S
Mg377 O385 2.048 . S
Mg377 O386 2.048 . S
Mg377 O389 2.141 . S
C378 O379 1.313 . S
C378 O385 1.195 . S
O379 C378 1.313 . S
C380 O381 1.245 . S
C380 O389 1.289 . S
O381 C380 1.245 . S
C382 O383 1.245 . S
C382 O384 1.289 . S
O383 C382 1.245 . S
O384 Mg377 2.141 . S
O384 C382 1.289 . S
O385 Mg377 2.048 . S
O385 C378 1.195 . S
O386 Mg377 2.048 . S
O386 C387 1.195 . S
C387 O386 1.195 . S
C387 O388 1.313 . S
O388 C387 1.313 . S
O389 Mg377 2.141 . S
O389 C380 1.289 . S
Mg390 O397 2.147 . S
Mg390 O398 1.985 1_554 S
Mg390 O399 2.047 . S
Mg390 O402 2.204 . S
C391 O392 1.313 . S
C391 O398 1.195 . S
O392 C391 1.313 . S
C393 O394 1.245 . S
C393 O402 1.289 . S
O394 C393 1.245 . S
C395 O396 1.238 1_554 S
C395 O397 1.289 . S
O396 C395 1.238 1_556 S
O397 Mg390 2.147 . S
O397 C395 1.289 . S
O398 Mg390 1.985 1_556 S
O398 C391 1.195 . S
O399 Mg390 2.047 . S
O399 C400 1.190 1_554 S
C400 O399 1.190 1_556 S
C400 O401 1.313 . S
O401 C400 1.313 . S
O402 Mg390 2.204 . S
O402 C393 1.289 . S
Mg403 O410 2.147 . S
Mg403 O411 1.985 1_554 S
Mg403 O412 2.047 . S
Mg403 O415 2.204 . S
C404 O405 1.313 . S
C404 O411 1.195 . S
O405 C404 1.313 . S
C406 O407 1.245 . S
C406 O415 1.289 . S
O407 C406 1.245 . S
C408 O409 1.238 1_554 S
C408 O410 1.289 . S
O409 C408 1.238 1_556 S
O410 Mg403 2.147 . S
O410 C408 1.289 . S
O411 Mg403 1.985 1_556 S
O411 C404 1.195 . S
O412 Mg403 2.047 . S
O412 C413 1.190 1_554 S
C413 O412 1.190 1_556 S
C413 O414 1.313 . S
O414 C413 1.313 . S
O415 Mg403 2.204 . S
O415 C406 1.289 . S
H416 C424 0.929 . S
H417 C426 0.930 . S
H418 C428 0.930 . S
H419 C431 0.929 . S
H420 C434 0.930 . S
H421 C436 0.960 . S
H422 C436 0.960 . S
H423 C436 0.960 . S
C424 H416 0.929 . S
C424 C425 1.377 . S
C424 C426 1.384 . S
C425 C424 1.377 . S
C425 C431 1.390 . S
C426 H417 0.930 . S
C426 C424 1.384 . S
C426 C427 1.372 . S
C427 C426 1.372 . S
C427 C428 1.400 . S
C427 C432 1.490 . S
C428 H418 0.930 . S
C428 C427 1.400 . S
C428 C431 1.386 . S
H429 C445 0.930 . S
H430 C446 0.931 . S
C431 H419 0.929 . S
C431 C425 1.390 . S
C431 C428 1.386 . S
C432 C427 1.490 . S
C432 C434 1.395 . S
C432 C435 1.403 . S
H433 C439 0.930 . S
C434 H420 0.930 . S
C434 C432 1.395 . S
C434 C437 1.403 . S
C435 C432 1.403 . S
C435 C436 1.524 . S
C435 C439 1.400 . S
C436 H421 0.960 . S
C436 H422 0.960 . S
C436 H423 0.960 . S
C436 C435 1.524 . S
C437 C434 1.403 . S
C437 C438 1.392 . S
C437 C441 1.495 . S
C438 C437 1.392 . S
C438 C439 1.385 . S
C438 C440 1.478 . S
C439 H433 0.930 . S
C439 C435 1.400 . S
C439 C438 1.385 . S
C440 C438 1.478 . S
C440 C442 1.381 . S
C440 C446 1.383 . S
C441 C437 1.495 . S
C441 H447 0.959 . S
C441 H448 0.961 . S
C441 H449 0.960 . S
C442 C440 1.381 . S
C442 C443 1.394 . S
C442 H450 0.930 . S
C443 C442 1.394 . S
C443 C444 1.383 . S
C443 H451 0.929 . S
C444 C443 1.383 . S
C444 C445 1.377 . S
C445 H429 0.930 . S
C445 C444 1.377 . S
C445 C446 1.379 . S
C446 H430 0.931 . S
C446 C440 1.383 . S
C446 C445 1.379 . S
H447 C441 0.959 . S
H448 C441 0.961 . S
H449 C441 0.960 . S
H450 C442 0.930 . S
H451 C443 0.929 . S
H452 C460 0.929 . S
H453 C462 0.930 . S
H454 C464 0.930 . S
H455 C467 0.929 . S
H456 C470 0.930 . S
H457 C472 0.960 . S
H458 C472 0.960 . S
H459 C472 0.960 . S
C460 H452 0.929 . S
C460 C461 1.377 . S
C460 C462 1.384 . S
C461 C460 1.377 . S
C461 C467 1.390 . S
C462 H453 0.930 . S
C462 C460 1.384 . S
C462 C463 1.372 . S
C463 C462 1.372 . S
C463 C464 1.400 . S
C463 C468 1.490 . S
C464 H454 0.930 . S
C464 C463 1.400 . S
C464 C467 1.386 . S
H465 C481 0.930 . S
H466 C482 0.931 . S
C467 H455 0.929 . S
C467 C461 1.390 . S
C467 C464 1.386 . S
C468 C463 1.490 . S
C468 C470 1.395 . S
C468 C471 1.403 . S
H469 C475 0.930 . S
C470 H456 0.930 . S
C470 C468 1.395 . S
C470 C473 1.403 . S
C471 C468 1.403 . S
C471 C472 1.524 . S
C471 C475 1.400 . S
C472 H457 0.960 . S
C472 H458 0.960 . S
C472 H459 0.960 . S
C472 C471 1.524 . S
C473 C470 1.403 . S
C473 C474 1.392 . S
C473 C477 1.495 . S
C474 C473 1.392 . S
C474 C475 1.385 . S
C474 C476 1.478 . S
C475 H469 0.930 . S
C475 C471 1.400 . S
C475 C474 1.385 . S
C476 C474 1.478 . S
C476 C478 1.381 . S
C476 C482 1.383 . S
C477 C473 1.495 . S
C477 H483 0.959 . S
C477 H484 0.961 . S
C477 H485 0.960 . S
C478 C476 1.381 . S
C478 C479 1.394 . S
C478 H486 0.930 . S
C479 C478 1.394 . S
C479 C480 1.383 . S
C479 H487 0.929 . S
C480 C479 1.383 . S
C480 C481 1.377 . S
C481 H465 0.930 . S
C481 C480 1.377 . S
C481 C482 1.379 . S
C482 H466 0.931 . S
C482 C476 1.383 . S
C482 C481 1.379 . S
H483 C477 0.959 . S
H484 C477 0.961 . S
H485 C477 0.960 . S
H486 C478 0.930 . S
H487 C479 0.929 . S
H488 C496 0.929 . S
H489 C498 0.930 . S
H490 C500 0.930 . S
H491 C503 0.929 . S
H492 C506 0.930 . S
H493 C508 0.960 . S
H494 C508 0.960 . S
H495 C508 0.960 . S
C496 H488 0.929 . S
C496 C497 1.377 . S
C496 C498 1.384 . S
C497 C496 1.377 . S
C497 C503 1.390 . S
C498 H489 0.930 . S
C498 C496 1.384 . S
C498 C499 1.372 . S
C499 C498 1.372 . S
C499 C500 1.400 . S
C499 C504 1.490 . S
C500 H490 0.930 . S
C500 C499 1.400 . S
C500 C503 1.386 . S
H501 C517 0.930 . S
H502 C518 0.931 . S
C503 H491 0.929 . S
C503 C497 1.390 . S
C503 C500 1.386 . S
C504 C499 1.490 . S
C504 C506 1.395 . S
C504 C507 1.403 . S
H505 C511 0.930 . S
C506 H492 0.930 . S
C506 C504 1.395 . S
C506 C509 1.403 . S
C507 C504 1.403 . S
C507 C508 1.524 . S
C507 C511 1.400 . S
C508 H493 0.960 . S
C508 H494 0.960 . S
C508 H495 0.960 . S
C508 C507 1.524 . S
C509 C506 1.403 . S
C509 C510 1.392 . S
C509 C513 1.495 . S
C510 C509 1.392 . S
C510 C511 1.385 . S
C510 C512 1.478 . S
C511 H505 0.930 . S
C511 C507 1.400 . S
C511 C510 1.385 . S
C512 C510 1.478 . S
C512 C514 1.381 . S
C512 C518 1.383 . S
C513 C509 1.495 . S
C513 H519 0.959 . S
C513 H520 0.961 . S
C513 H521 0.960 . S
C514 C512 1.381 . S
C514 C515 1.394 . S
C514 H522 0.930 . S
C515 C514 1.394 . S
C515 C516 1.383 . S
C515 H523 0.929 . S
C516 C515 1.383 . S
C516 C517 1.377 . S
C517 H501 0.930 . S
C517 C516 1.377 . S
C517 C518 1.379 . S
C518 H502 0.931 . S
C518 C512 1.383 . S
C518 C517 1.379 . S
H519 C513 0.959 . S
H520 C513 0.961 . S
H521 C513 0.960 . S
H522 C514 0.930 . S
H523 C515 0.929 . S
H524 C532 0.929 . S
H525 C534 0.930 . S
H526 C536 0.930 . S
H527 C539 0.929 . S
H528 C542 0.930 . S
H529 C544 0.960 . S
H530 C544 0.960 . S
H531 C544 0.960 . S
C532 H524 0.929 . S
C532 C533 1.377 . S
C532 C534 1.384 . S
C533 C532 1.377 . S
C533 C539 1.390 . S
C534 H525 0.930 . S
C534 C532 1.384 . S
C534 C535 1.372 . S
C535 C534 1.372 . S
C535 C536 1.400 . S
C535 C540 1.490 . S
C536 H526 0.930 . S
C536 C535 1.400 . S
C536 C539 1.386 . S
H537 C553 0.930 . S
H538 C554 0.931 . S
C539 H527 0.929 . S
C539 C533 1.390 . S
C539 C536 1.386 . S
C540 C535 1.490 . S
C540 C542 1.395 . S
C540 C543 1.403 . S
H541 C547 0.930 . S
C542 H528 0.930 . S
C542 C540 1.395 . S
C542 C545 1.403 . S
C543 C540 1.403 . S
C543 C544 1.524 . S
C543 C547 1.400 . S
C544 H529 0.960 . S
C544 H530 0.960 . S
C544 H531 0.960 . S
C544 C543 1.524 . S
C545 C542 1.403 . S
C545 C546 1.392 . S
C545 C549 1.495 . S
C546 C545 1.392 . S
C546 C547 1.385 . S
C546 C548 1.478 . S
C547 H541 0.930 . S
C547 C543 1.400 . S
C547 C546 1.385 . S
C548 C546 1.478 . S
C548 C550 1.381 . S
C548 C554 1.383 . S
C549 C545 1.495 . S
C549 H555 0.959 . S
C549 H556 0.961 . S
C549 H557 0.960 . S
C550 C548 1.381 . S
C550 C551 1.394 . S
C550 H558 0.930 . S
C551 C550 1.394 . S
C551 C552 1.383 . S
C551 H559 0.929 . S
C552 C551 1.383 . S
C552 C553 1.377 . S
C553 H537 0.930 . S
C553 C552 1.377 . S
C553 C554 1.379 . S
C554 H538 0.931 . S
C554 C548 1.383 . S
C554 C553 1.379 . S
H555 C549 0.959 . S
H556 C549 0.961 . S
H557 C549 0.960 . S
H558 C550 0.930 . S
H559 C551 0.929 . S
H560 C568 0.929 . S
H561 C570 0.930 . S
H562 C572 0.930 . S
H563 C575 0.929 . S
H564 C578 0.930 . S
H565 C580 0.960 . S
H566 C580 0.960 . S
H567 C580 0.960 . S
C568 H560 0.929 . S
C568 C569 1.377 . S
C568 C570 1.384 . S
C569 C568 1.377 . S
C569 C575 1.390 . S
C570 H561 0.930 . S
C570 C568 1.384 . S
C570 C571 1.372 . S
C571 C570 1.372 . S
C571 C572 1.400 . S
C571 C576 1.490 . S
C572 H562 0.930 . S
C572 C571 1.400 . S
C572 C575 1.386 . S
H573 C589 0.930 . S
H574 C590 0.931 . S
C575 H563 0.929 . S
C575 C569 1.390 . S
C575 C572 1.386 . S
C576 C571 1.490 . S
C576 C578 1.395 . S
C576 C579 1.403 . S
H577 C583 0.930 . S
C578 H564 0.930 . S
C578 C576 1.395 . S
C578 C581 1.403 . S
C579 C576 1.403 . S
C579 C580 1.524 . S
C579 C583 1.400 . S
C580 H565 0.960 . S
C580 H566 0.960 . S
C580 H567 0.960 . S
C580 C579 1.524 . S
C581 C578 1.403 . S
C581 C582 1.392 . S
C581 C585 1.495 . S
C582 C581 1.392 . S
C582 C583 1.385 . S
C582 C584 1.478 . S
C583 H577 0.930 . S
C583 C579 1.400 . S
C583 C582 1.385 . S
C584 C582 1.478 . S
C584 C586 1.381 . S
C584 C590 1.383 . S
C585 C581 1.495 . S
C585 H591 0.959 . S
C585 H592 0.961 . S
C585 H593 0.960 . S
C586 C584 1.381 . S
C586 C587 1.394 . S
C586 H594 0.930 . S
C587 C586 1.394 . S
C587 C588 1.383 . S
C587 H595 0.929 . S
C588 C587 1.383 . S
C588 C589 1.377 . S
C589 H573 0.930 . S
C589 C588 1.377 . S
C589 C590 1.379 . S
C590 H574 0.931 . S
C590 C584 1.383 . S
C590 C589 1.379 . S
H591 C585 0.959 . S
H592 C585 0.961 . S
H593 C585 0.960 . S
H594 C586 0.930 . S
H595 C587 0.929 . S
H596 C604 0.929 . S
H597 C606 0.930 . S
H598 C608 0.930 . S
H599 C611 0.929 . S
H600 C614 0.930 . S
H601 C616 0.960 . S
H602 C616 0.960 . S
H603 C616 0.960 . S
C604 H596 0.929 . S
C604 C605 1.377 . S
C604 C606 1.384 . S
C605 C604 1.377 . S
C605 C611 1.390 . S
C606 H597 0.930 . S
C606 C604 1.384 . S
C606 C607 1.372 . S
C607 C606 1.372 . S
C607 C608 1.400 . S
C607 C612 1.490 . S
C608 H598 0.930 . S
C608 C607 1.400 . S
C608 C611 1.386 . S
H609 C625 0.930 . S
H610 C626 0.931 . S
C611 H599 0.929 . S
C611 C605 1.390 . S
C611 C608 1.386 . S
C612 C607 1.490 . S
C612 C614 1.395 . S
C612 C615 1.403 . S
H613 C619 0.930 . S
C614 H600 0.930 . S
C614 C612 1.395 . S
C614 C617 1.403 . S
C615 C612 1.403 . S
C615 C616 1.524 . S
C615 C619 1.400 . S
C616 H601 0.960 . S
C616 H602 0.960 . S
C616 H603 0.960 . S
C616 C615 1.524 . S
C617 C614 1.403 . S
C617 C618 1.392 . S
C617 C621 1.495 . S
C618 C617 1.392 . S
C618 C619 1.385 . S
C618 C620 1.478 . S
C619 H613 0.930 . S
C619 C615 1.400 . S
C619 C618 1.385 . S
C620 C618 1.478 . S
C620 C622 1.381 . S
C620 C626 1.383 . S
C621 C617 1.495 . S
C621 H627 0.959 . S
C621 H628 0.961 . S
C621 H629 0.960 . S
C622 C620 1.381 . S
C622 C623 1.394 . S
C622 H630 0.930 . S
C623 C622 1.394 . S
C623 C624 1.383 . S
C623 H631 0.929 . S
C624 C623 1.383 . S
C624 C625 1.377 . S
C625 H609 0.930 . S
C625 C624 1.377 . S
C625 C626 1.379 . S
C626 H610 0.931 . S
C626 C620 1.383 . S
C626 C625 1.379 . S
H627 C621 0.959 . S
H628 C621 0.961 . S
H629 C621 0.960 . S
H630 C622 0.930 . S
H631 C623 0.929 . S
H632 C640 0.929 . S
H633 C642 0.930 . S
H634 C644 0.930 . S
H635 C647 0.929 . S
H636 C650 0.930 . S
H637 C652 0.960 . S
H638 C652 0.960 . S
H639 C652 0.960 . S
C640 H632 0.929 . S
C640 C641 1.377 . S
C640 C642 1.384 . S
C641 C640 1.377 . S
C641 C647 1.390 . S
C642 H633 0.930 . S
C642 C640 1.384 . S
C642 C643 1.372 . S
C643 C642 1.372 . S
C643 C644 1.400 . S
C643 C648 1.490 . S
C644 H634 0.930 . S
C644 C643 1.400 . S
C644 C647 1.386 . S
H645 C661 0.930 . S
H646 C662 0.931 . S
C647 H635 0.929 . S
C647 C641 1.390 . S
C647 C644 1.386 . S
C648 C643 1.490 . S
C648 C650 1.395 . S
C648 C651 1.403 . S
H649 C655 0.930 . S
C650 H636 0.930 . S
C650 C648 1.395 . S
C650 C653 1.403 . S
C651 C648 1.403 . S
C651 C652 1.524 . S
C651 C655 1.400 . S
C652 H637 0.960 . S
C652 H638 0.960 . S
C652 H639 0.960 . S
C652 C651 1.524 . S
C653 C650 1.403 . S
C653 C654 1.392 . S
C653 C657 1.495 . S
C654 C653 1.392 . S
C654 C655 1.385 . S
C654 C656 1.478 . S
C655 H649 0.930 . S
C655 C651 1.400 . S
C655 C654 1.385 . S
C656 C654 1.478 . S
C656 C658 1.381 . S
C656 C662 1.383 . S
C657 C653 1.495 . S
C657 H663 0.959 . S
C657 H664 0.961 . S
C657 H665 0.960 . S
C658 C656 1.381 . S
C658 C659 1.394 . S
C658 H666 0.930 . S
C659 C658 1.394 . S
C659 C660 1.383 . S
C659 H667 0.929 . S
C660 C659 1.383 . S
C660 C661 1.377 . S
C661 H645 0.930 . S
C661 C660 1.377 . S
C661 C662 1.379 . S
C662 H646 0.931 . S
C662 C656 1.383 . S
C662 C661 1.379 . S
H663 C657 0.959 . S
H664 C657 0.961 . S
H665 C657 0.960 . S
H666 C658 0.930 . S
H667 C659 0.929 . S
H668 C676 0.929 . S
H669 C678 0.930 . S
H670 C680 0.930 . S
H671 C683 0.929 . S
H672 C686 0.930 . S
H673 C688 0.960 . S
H674 C688 0.960 . S
H675 C688 0.960 . S
C676 H668 0.929 . S
C676 C677 1.377 . S
C676 C678 1.384 . S
C677 C676 1.377 . S
C677 C683 1.390 . S
C678 H669 0.930 . S
C678 C676 1.384 . S
C678 C679 1.372 . S
C679 C678 1.372 . S
C679 C680 1.400 . S
C679 C684 1.490 . S
C680 H670 0.930 . S
C680 C679 1.400 . S
C680 C683 1.386 . S
H681 C697 0.930 . S
H682 C698 0.931 . S
C683 H671 0.929 . S
C683 C677 1.390 . S
C683 C680 1.386 . S
C684 C679 1.490 . S
C684 C686 1.395 . S
C684 C687 1.403 . S
H685 C691 0.930 . S
C686 H672 0.930 . S
C686 C684 1.395 . S
C686 C689 1.403 . S
C687 C684 1.403 . S
C687 C688 1.524 . S
C687 C691 1.400 . S
C688 H673 0.960 . S
C688 H674 0.960 . S
C688 H675 0.960 . S
C688 C687 1.524 . S
C689 C686 1.403 . S
C689 C690 1.392 . S
C689 C693 1.495 . S
C690 C689 1.392 . S
C690 C691 1.385 . S
C690 C692 1.478 . S
C691 H685 0.930 . S
C691 C687 1.400 . S
C691 C690 1.385 . S
C692 C690 1.478 . S
C692 C694 1.381 . S
C692 C698 1.383 . S
C693 C689 1.495 . S
C693 H699 0.959 . S
C693 H700 0.961 . S
C693 H701 0.960 . S
C694 C692 1.381 . S
C694 C695 1.394 . S
C694 H702 0.930 . S
C695 C694 1.394 . S
C695 C696 1.383 . S
C695 H703 0.929 . S
C696 C695 1.383 . S
C696 C697 1.377 . S
C697 H681 0.930 . S
C697 C696 1.377 . S
C697 C698 1.379 . S
C698 H682 0.931 . S
C698 C692 1.383 . S
C698 C697 1.379 . S
H699 C693 0.959 . S
H700 C693 0.961 . S
H701 C693 0.960 . S
H702 C694 0.930 . S
H703 C695 0.929 . S
H704 C712 0.929 . S
H705 C714 0.930 . S
H706 C716 0.930 . S
H707 C719 0.929 . S
H708 C722 0.930 . S
H709 C724 0.960 . S
H710 C724 0.960 . S
H711 C724 0.960 . S
C712 H704 0.929 . S
C712 C713 1.377 . S
C712 C714 1.384 . S
C713 C712 1.377 . S
C713 C719 1.390 . S
C714 H705 0.930 . S
C714 C712 1.384 . S
C714 C715 1.372 . S
C715 C714 1.372 . S
C715 C716 1.400 . S
C715 C720 1.490 . S
C716 H706 0.930 . S
C716 C715 1.400 . S
C716 C719 1.386 . S
H717 C733 0.930 . S
H718 C734 0.931 . S
C719 H707 0.929 . S
C719 C713 1.390 . S
C719 C716 1.386 . S
C720 C715 1.490 . S
C720 C722 1.395 . S
C720 C723 1.403 . S
H721 C727 0.930 . S
C722 H708 0.930 . S
C722 C720 1.395 . S
C722 C725 1.403 . S
C723 C720 1.403 . S
C723 C724 1.524 . S
C723 C727 1.400 . S
C724 H709 0.960 . S
C724 H710 0.960 . S
C724 H711 0.960 . S
C724 C723 1.524 . S
C725 C722 1.403 . S
C725 C726 1.392 . S
C725 C729 1.495 . S
C726 C725 1.392 . S
C726 C727 1.385 . S
C726 C728 1.478 . S
C727 H721 0.930 . S
C727 C723 1.400 . S
C727 C726 1.385 . S
C728 C726 1.478 . S
C728 C730 1.381 . S
C728 C734 1.383 . S
C729 C725 1.495 . S
C729 H735 0.959 . S
C729 H736 0.961 . S
C729 H737 0.960 . S
C730 C728 1.381 . S
C730 C731 1.394 . S
C730 H738 0.930 . S
C731 C730 1.394 . S
C731 C732 1.383 . S
C731 H739 0.929 . S
C732 C731 1.383 . S
C732 C733 1.377 . S
C733 H717 0.930 . S
C733 C732 1.377 . S
C733 C734 1.379 . S
C734 H718 0.931 . S
C734 C728 1.383 . S
C734 C733 1.379 . S
H735 C729 0.959 . S
H736 C729 0.961 . S
H737 C729 0.960 . S
H738 C730 0.930 . S
H739 C731 0.929 . S
H740 C748 0.929 . S
H741 C750 0.930 . S
H742 C752 0.930 . S
H743 C755 0.929 . S
H744 C758 0.930 . S
H745 C760 0.960 . S
H746 C760 0.960 . S
H747 C760 0.960 . S
C748 H740 0.929 . S
C748 C749 1.377 . S
C748 C750 1.384 . S
C749 C748 1.377 . S
C749 C755 1.390 . S
C750 H741 0.930 . S
C750 C748 1.384 . S
C750 C751 1.372 . S
C751 C750 1.372 . S
C751 C752 1.400 . S
C751 C756 1.490 . S
C752 H742 0.930 . S
C752 C751 1.400 . S
C752 C755 1.386 . S
H753 C769 0.930 . S
H754 C770 0.931 . S
C755 H743 0.929 . S
C755 C749 1.390 . S
C755 C752 1.386 . S
C756 C751 1.490 . S
C756 C758 1.395 . S
C756 C759 1.403 . S
H757 C763 0.930 . S
C758 H744 0.930 . S
C758 C756 1.395 . S
C758 C761 1.403 . S
C759 C756 1.403 . S
C759 C760 1.524 . S
C759 C763 1.400 . S
C760 H745 0.960 . S
C760 H746 0.960 . S
C760 H747 0.960 . S
C760 C759 1.524 . S
C761 C758 1.403 . S
C761 C762 1.392 . S
C761 C765 1.495 . S
C762 C761 1.392 . S
C762 C763 1.385 . S
C762 C764 1.478 . S
C763 H757 0.930 . S
C763 C759 1.400 . S
C763 C762 1.385 . S
C764 C762 1.478 . S
C764 C766 1.381 . S
C764 C770 1.383 . S
C765 C761 1.495 . S
C765 H771 0.959 . S
C765 H772 0.961 . S
C765 H773 0.960 . S
C766 C764 1.381 . S
C766 C767 1.394 . S
C766 H774 0.930 . S
C767 C766 1.394 . S
C767 C768 1.383 . S
C767 H775 0.929 . S
C768 C767 1.383 . S
C768 C769 1.377 . S
C769 H753 0.930 . S
C769 C768 1.377 . S
C769 C770 1.379 . S
C770 H754 0.931 . S
C770 C764 1.383 . S
C770 C769 1.379 . S
H771 C765 0.959 . S
H772 C765 0.961 . S
H773 C765 0.960 . S
H774 C766 0.930 . S
H775 C767 0.929 . S
H776 C784 0.929 . S
H777 C786 0.930 . S
H778 C788 0.930 . S
H779 C791 0.929 . S
H780 C794 0.930 . S
H781 C796 0.960 . S
H782 C796 0.960 . S
H783 C796 0.960 . S
C784 H776 0.929 . S
C784 C785 1.377 . S
C784 C786 1.384 . S
C785 C784 1.377 . S
C785 C791 1.390 . S
C786 H777 0.930 . S
C786 C784 1.384 . S
C786 C787 1.372 . S
C787 C786 1.372 . S
C787 C788 1.400 . S
C787 C792 1.490 . S
C788 H778 0.930 . S
C788 C787 1.400 . S
C788 C791 1.386 . S
H789 C805 0.930 . S
H790 C806 0.931 . S
C791 H779 0.929 . S
C791 C785 1.390 . S
C791 C788 1.386 . S
C792 C787 1.490 . S
C792 C794 1.395 . S
C792 C795 1.403 . S
H793 C799 0.930 . S
C794 H780 0.930 . S
C794 C792 1.395 . S
C794 C797 1.403 . S
C795 C792 1.403 . S
C795 C796 1.524 . S
C795 C799 1.400 . S
C796 H781 0.960 . S
C796 H782 0.960 . S
C796 H783 0.960 . S
C796 C795 1.524 . S
C797 C794 1.403 . S
C797 C798 1.392 . S
C797 C801 1.495 . S
C798 C797 1.392 . S
C798 C799 1.385 . S
C798 C800 1.478 . S
C799 H793 0.930 . S
C799 C795 1.400 . S
C799 C798 1.385 . S
C800 C798 1.478 . S
C800 C802 1.381 . S
C800 C806 1.383 . S
C801 C797 1.495 . S
C801 H807 0.959 . S
C801 H808 0.961 . S
C801 H809 0.960 . S
C802 C800 1.381 . S
C802 C803 1.394 . S
C802 H810 0.930 . S
C803 C802 1.394 . S
C803 C804 1.383 . S
C803 H811 0.929 . S
C804 C803 1.383 . S
C804 C805 1.377 . S
C805 H789 0.930 . S
C805 C804 1.377 . S
C805 C806 1.379 . S
C806 H790 0.931 . S
C806 C800 1.383 . S
C806 C805 1.379 . S
H807 C801 0.959 . S
H808 C801 0.961 . S
H809 C801 0.960 . S
H810 C802 0.930 . S
H811 C803 0.929 . S
H812 C820 0.929 . S
H813 C822 0.930 . S
H814 C824 0.930 . S
H815 C827 0.929 . S
H816 C830 0.930 . S
H817 C832 0.960 . S
H818 C832 0.960 . S
H819 C832 0.960 . S
C820 H812 0.929 . S
C820 C821 1.377 . S
C820 C822 1.384 . S
C821 C820 1.377 . S
C821 C827 1.390 . S
C822 H813 0.930 . S
C822 C820 1.384 . S
C822 C823 1.372 . S
C823 C822 1.372 . S
C823 C824 1.400 . S
C823 C828 1.490 . S
C824 H814 0.930 . S
C824 C823 1.400 . S
C824 C827 1.386 . S
H825 C841 0.930 . S
H826 C842 0.931 . S
C827 H815 0.929 . S
C827 C821 1.390 . S
C827 C824 1.386 . S
C828 C823 1.490 . S
C828 C830 1.395 . S
C828 C831 1.403 . S
H829 C835 0.930 . S
C830 H816 0.930 . S
C830 C828 1.395 . S
C830 C833 1.403 . S
C831 C828 1.403 . S
C831 C832 1.524 . S
C831 C835 1.400 . S
C832 H817 0.960 . S
C832 H818 0.960 . S
C832 H819 0.960 . S
C832 C831 1.524 . S
C833 C830 1.403 . S
C833 C834 1.392 . S
C833 C837 1.495 . S
C834 C833 1.392 . S
C834 C835 1.385 . S
C834 C836 1.478 . S
C835 H829 0.930 . S
C835 C831 1.400 . S
C835 C834 1.385 . S
C836 C834 1.478 . S
C836 C838 1.381 . S
C836 C842 1.383 . S
C837 C833 1.495 . S
C837 H843 0.959 . S
C837 H844 0.961 . S
C837 H845 0.960 . S
C838 C836 1.381 . S
C838 C839 1.394 . S
C838 H846 0.930 . S
C839 C838 1.394 . S
C839 C840 1.383 . S
C839 H847 0.929 . S
C840 C839 1.383 . S
C840 C841 1.377 . S
C841 H825 0.930 . S
C841 C840 1.377 . S
C841 C842 1.379 . S
C842 H826 0.931 . S
C842 C836 1.383 . S
C842 C841 1.379 . S
H843 C837 0.959 . S
H844 C837 0.961 . S
H845 C837 0.960 . S
H846 C838 0.930 . S
H847 C839 0.929 . S
H848 C856 0.929 . S
H849 C858 0.930 . S
H850 C860 0.930 . S
H851 C863 0.929 . S
H852 C866 0.930 . S
H853 C868 0.960 . S
H854 C868 0.960 . S
H855 C868 0.960 . S
C856 H848 0.929 . S
C856 C857 1.377 . S
C856 C858 1.384 . S
C857 C856 1.377 . S
C857 C863 1.390 . S
C858 H849 0.930 . S
C858 C856 1.384 . S
C858 C859 1.372 . S
C859 C858 1.372 . S
C859 C860 1.400 . S
C859 C864 1.490 . S
C860 H850 0.930 . S
C860 C859 1.400 . S
C860 C863 1.386 . S
H861 C877 0.930 . S
H862 C878 0.931 . S
C863 H851 0.929 . S
C863 C857 1.390 . S
C863 C860 1.386 . S
C864 C859 1.490 . S
C864 C866 1.395 . S
C864 C867 1.403 . S
H865 C871 0.930 . S
C866 H852 0.930 . S
C866 C864 1.395 . S
C866 C869 1.403 . S
C867 C864 1.403 . S
C867 C868 1.524 . S
C867 C871 1.400 . S
C868 H853 0.960 . S
C868 H854 0.960 . S
C868 H855 0.960 . S
C868 C867 1.524 . S
C869 C866 1.403 . S
C869 C870 1.392 . S
C869 C873 1.495 . S
C870 C869 1.392 . S
C870 C871 1.385 . S
C870 C872 1.478 . S
C871 H865 0.930 . S
C871 C867 1.400 . S
C871 C870 1.385 . S
C872 C870 1.478 . S
C872 C874 1.381 . S
C872 C878 1.383 . S
C873 C869 1.495 . S
C873 H879 0.959 . S
C873 H880 0.961 . S
C873 H881 0.960 . S
C874 C872 1.381 . S
C874 C875 1.394 . S
C874 H882 0.930 . S
C875 C874 1.394 . S
C875 C876 1.383 . S
C875 H883 0.929 . S
C876 C875 1.383 . S
C876 C877 1.377 . S
C877 H861 0.930 . S
C877 C876 1.377 . S
C877 C878 1.379 . S
C878 H862 0.931 . S
C878 C872 1.383 . S
C878 C877 1.379 . S
H879 C873 0.959 . S
H880 C873 0.961 . S
H881 C873 0.960 . S
H882 C874 0.930 . S
H883 C875 0.929 . S
H884 C892 0.929 . S
H885 C894 0.930 . S
H886 C896 0.930 . S
H887 C899 0.929 . S
H888 C902 0.930 . S
H889 C904 0.960 . S
H890 C904 0.960 . S
H891 C904 0.960 . S
C892 H884 0.929 . S
C892 C893 1.377 . S
C892 C894 1.384 . S
C893 C892 1.377 . S
C893 C899 1.390 . S
C894 H885 0.930 . S
C894 C892 1.384 . S
C894 C895 1.372 . S
C895 C894 1.372 . S
C895 C896 1.400 . S
C895 C900 1.490 . S
C896 H886 0.930 . S
C896 C895 1.400 . S
C896 C899 1.386 . S
H897 C913 0.930 . S
H898 C914 0.931 . S
C899 H887 0.929 . S
C899 C893 1.390 . S
C899 C896 1.386 . S
C900 C895 1.490 . S
C900 C902 1.395 . S
C900 C903 1.403 . S
H901 C907 0.930 . S
C902 H888 0.930 . S
C902 C900 1.395 . S
C902 C905 1.403 . S
C903 C900 1.403 . S
C903 C904 1.524 . S
C903 C907 1.400 . S
C904 H889 0.960 . S
C904 H890 0.960 . S
C904 H891 0.960 . S
C904 C903 1.524 . S
C905 C902 1.403 . S
C905 C906 1.392 . S
C905 C909 1.495 . S
C906 C905 1.392 . S
C906 C907 1.385 . S
C906 C908 1.478 . S
C907 H901 0.930 . S
C907 C903 1.400 . S
C907 C906 1.385 . S
C908 C906 1.478 . S
C908 C910 1.381 . S
C908 C914 1.383 . S
C909 C905 1.495 . S
C909 H915 0.959 . S
C909 H916 0.961 . S
C909 H917 0.960 . S
C910 C908 1.381 . S
C910 C911 1.394 . S
C910 H918 0.930 . S
C911 C910 1.394 . S
C911 C912 1.383 . S
C911 H919 0.929 . S
C912 C911 1.383 . S
C912 C913 1.377 . S
C913 H897 0.930 . S
C913 C912 1.377 . S
C913 C914 1.379 . S
C914 H898 0.931 . S
C914 C908 1.383 . S
C914 C913 1.379 . S
H915 C909 0.959 . S
H916 C909 0.961 . S
H917 C909 0.960 . S
H918 C910 0.930 . S
H919 C911 0.929 . S
H920 C928 0.929 . S
H921 C930 0.930 . S
H922 C932 0.930 . S
H923 C935 0.929 . S
H924 C938 0.930 . S
H925 C940 0.960 . S
H926 C940 0.960 . S
H927 C940 0.960 . S
C928 H920 0.929 . S
C928 C929 1.377 . S
C928 C930 1.384 . S
C929 C928 1.377 . S
C929 C935 1.390 . S
C930 H921 0.930 . S
C930 C928 1.384 . S
C930 C931 1.372 . S
C931 C930 1.372 . S
C931 C932 1.400 . S
C931 C936 1.490 . S
C932 H922 0.930 . S
C932 C931 1.400 . S
C932 C935 1.386 . S
H933 C949 0.930 . S
H934 C950 0.931 . S
C935 H923 0.929 . S
C935 C929 1.390 . S
C935 C932 1.386 . S
C936 C931 1.490 . S
C936 C938 1.395 . S
C936 C939 1.403 . S
H937 C943 0.930 . S
C938 H924 0.930 . S
C938 C936 1.395 . S
C938 C941 1.403 . S
C939 C936 1.403 . S
C939 C940 1.524 . S
C939 C943 1.400 . S
C940 H925 0.960 . S
C940 H926 0.960 . S
C940 H927 0.960 . S
C940 C939 1.524 . S
C941 C938 1.403 . S
C941 C942 1.392 . S
C941 C945 1.495 . S
C942 C941 1.392 . S
C942 C943 1.385 . S
C942 C944 1.478 . S
C943 H937 0.930 . S
C943 C939 1.400 . S
C943 C942 1.385 . S
C944 C942 1.478 . S
C944 C946 1.381 . S
C944 C950 1.383 . S
C945 C941 1.495 . S
C945 H951 0.959 . S
C945 H952 0.961 . S
C945 H953 0.960 . S
C946 C944 1.381 . S
C946 C947 1.394 . S
C946 H954 0.930 . S
C947 C946 1.394 . S
C947 C948 1.383 . S
C947 H955 0.929 . S
C948 C947 1.383 . S
C948 C949 1.377 . S
C949 H933 0.930 . S
C949 C948 1.377 . S
C949 C950 1.379 . S
C950 H934 0.931 . S
C950 C944 1.383 . S
C950 C949 1.379 . S
H951 C945 0.959 . S
H952 C945 0.961 . S
H953 C945 0.960 . S
H954 C946 0.930 . S
H955 C947 0.929 . S
H956 C964 0.929 . S
H957 C966 0.930 . S
H958 C968 0.930 . S
H959 C971 0.929 . S
H960 C974 0.930 . S
H961 C976 0.960 . S
H962 C976 0.960 . S
H963 C976 0.960 . S
C964 H956 0.929 . S
C964 C965 1.377 . S
C964 C966 1.384 . S
C965 C964 1.377 . S
C965 C971 1.390 . S
C966 H957 0.930 . S
C966 C964 1.384 . S
C966 C967 1.372 . S
C967 C966 1.372 . S
C967 C968 1.400 . S
C967 C972 1.490 . S
C968 H958 0.930 . S
C968 C967 1.400 . S
C968 C971 1.386 . S
H969 C985 0.930 . S
H970 C986 0.931 . S
C971 H959 0.929 . S
C971 C965 1.390 . S
C971 C968 1.386 . S
C972 C967 1.490 . S
C972 C974 1.395 . S
C972 C975 1.403 . S
H973 C979 0.930 . S
C974 H960 0.930 . S
C974 C972 1.395 . S
C974 C977 1.403 . S
C975 C972 1.403 . S
C975 C976 1.524 . S
C975 C979 1.400 . S
C976 H961 0.960 . S
C976 H962 0.960 . S
C976 H963 0.960 . S
C976 C975 1.524 . S
C977 C974 1.403 . S
C977 C978 1.392 . S
C977 C981 1.495 . S
C978 C977 1.392 . S
C978 C979 1.385 . S
C978 C980 1.478 . S
C979 H973 0.930 . S
C979 C975 1.400 . S
C979 C978 1.385 . S
C980 C978 1.478 . S
C980 C982 1.381 . S
C980 C986 1.383 . S
C981 C977 1.495 . S
C981 H987 0.959 . S
C981 H988 0.961 . S
C981 H989 0.960 . S
C982 C980 1.381 . S
C982 C983 1.394 . S
C982 H990 0.930 . S
C983 C982 1.394 . S
C983 C984 1.383 . S
C983 H991 0.929 . S
C984 C983 1.383 . S
C984 C985 1.377 . S
C985 H969 0.930 . S
C985 C984 1.377 . S
C985 C986 1.379 . S
C986 H970 0.931 . S
C986 C980 1.383 . S
C986 C985 1.379 . S
H987 C981 0.959 . S
H988 C981 0.961 . S
H989 C981 0.960 . S
H990 C982 0.930 . S
H991 C983 0.929 . S
H992 C1000 0.929 . S
H993 C1002 0.930 . S
H994 C1004 0.930 . S
H995 C1007 0.929 . S
H996 C1010 0.930 . S
H997 C1012 0.960 . S
H998 C1012 0.960 . S
H999 C1012 0.960 . S
C1000 H992 0.929 . S
C1000 C1001 1.377 . S
C1000 C1002 1.384 . S
C1001 C1000 1.377 . S
C1001 C1007 1.390 . S
C1002 H993 0.930 . S
C1002 C1000 1.384 . S
C1002 C1003 1.372 . S
C1003 C1002 1.372 . S
C1003 C1004 1.400 . S
C1003 C1008 1.490 . S
C1004 H994 0.930 . S
C1004 C1003 1.400 . S
C1004 C1007 1.386 . S
H1005 C1021 0.930 . S
H1006 C1022 0.931 . S
C1007 H995 0.929 . S
C1007 C1001 1.390 . S
C1007 C1004 1.386 . S
C1008 C1003 1.490 . S
C1008 C1010 1.395 . S
C1008 C1011 1.403 1_655 S
H1009 C1015 0.930 . S
C1010 H996 0.930 . S
C1010 C1008 1.395 . S
C1010 C1013 1.403 . S
C1011 C1008 1.403 1_455 S
C1011 C1012 1.524 . S
C1011 C1015 1.400 . S
C1012 H997 0.960 . S
C1012 H998 0.960 . S
C1012 H999 0.960 . S
C1012 C1011 1.524 . S
C1013 C1010 1.403 . S
C1013 C1014 1.392 1_655 S
C1013 C1017 1.495 . S
C1014 C1013 1.392 1_455 S
C1014 C1015 1.385 . S
C1014 C1016 1.478 . S
C1015 H1009 0.930 . S
C1015 C1011 1.400 . S
C1015 C1014 1.385 . S
C1016 C1014 1.478 . S
C1016 C1018 1.381 . S
C1016 C1022 1.383 . S
C1017 C1013 1.495 . S
C1017 H1023 0.959 . S
C1017 H1024 0.961 . S
C1017 H1025 0.960 . S
C1018 C1016 1.381 . S
C1018 C1019 1.394 . S
C1018 H1026 0.930 . S
C1019 C1018 1.394 . S
C1019 C1020 1.383 . S
C1019 H1027 0.929 . S
C1020 C1019 1.383 . S
C1020 C1021 1.377 . S
C1021 H1005 0.930 . S
C1021 C1020 1.377 . S
C1021 C1022 1.379 . S
C1022 H1006 0.931 . S
C1022 C1016 1.383 . S
C1022 C1021 1.379 . S
H1023 C1017 0.959 . S
H1024 C1017 0.961 . S
H1025 C1017 0.960 . S
H1026 C1018 0.930 . S
H1027 C1019 0.929 . S
H1028 C1036 0.929 . S
H1029 C1038 0.930 . S
H1030 C1040 0.930 . S
H1031 C1043 0.929 . S
H1032 C1046 0.930 . S
H1033 C1048 0.960 . S
H1034 C1048 0.960 . S
H1035 C1048 0.960 1_565 S
C1036 H1028 0.929 . S
C1036 C1037 1.377 . S
C1036 C1038 1.384 . S
C1037 C1036 1.377 . S
C1037 C1043 1.390 . S
C1038 H1029 0.930 . S
C1038 C1036 1.384 . S
C1038 C1039 1.372 . S
C1039 C1038 1.372 . S
C1039 C1040 1.400 . S
C1039 C1044 1.490 . S
C1040 H1030 0.930 . S
C1040 C1039 1.400 . S
C1040 C1043 1.386 . S
H1041 C1057 0.930 . S
H1042 C1058 0.931 . S
C1043 H1031 0.929 . S
C1043 C1037 1.390 . S
C1043 C1040 1.386 . S
C1044 C1039 1.490 . S
C1044 C1046 1.395 . S
C1044 C1047 1.403 1_565 S
H1045 C1051 0.930 . S
C1046 H1032 0.930 . S
C1046 C1044 1.395 . S
C1046 C1049 1.403 . S
C1047 C1044 1.403 1_545 S
C1047 C1048 1.524 . S
C1047 C1051 1.400 . S
C1048 H1033 0.960 . S
C1048 H1034 0.960 . S
C1048 H1035 0.960 1_545 S
C1048 C1047 1.524 . S
C1049 C1046 1.403 . S
C1049 C1050 1.392 1_565 S
C1049 C1053 1.495 . S
C1050 C1049 1.392 1_545 S
C1050 C1051 1.385 . S
C1050 C1052 1.478 . S
C1051 H1045 0.930 . S
C1051 C1047 1.400 . S
C1051 C1050 1.385 . S
C1052 C1050 1.478 . S
C1052 C1054 1.381 . S
C1052 C1058 1.383 . S
C1053 C1049 1.495 . S
C1053 H1059 0.959 . S
C1053 H1060 0.961 . S
C1053 H1061 0.960 1_565 S
C1054 C1052 1.381 . S
C1054 C1055 1.394 . S
C1054 H1062 0.930 . S
C1055 C1054 1.394 . S
C1055 C1056 1.383 . S
C1055 H1063 0.929 . S
C1056 C1055 1.383 . S
C1056 C1057 1.377 . S
C1057 H1041 0.930 . S
C1057 C1056 1.377 . S
C1057 C1058 1.379 . S
C1058 H1042 0.931 . S
C1058 C1052 1.383 . S
C1058 C1057 1.379 . S
H1059 C1053 0.959 . S
H1060 C1053 0.961 . S
H1061 C1053 0.960 1_545 S
H1062 C1054 0.930 . S
H1063 C1055 0.929 . S
H1064 C1072 0.929 . S
H1065 C1074 0.930 . S
H1066 C1076 0.930 . S
H1067 C1079 0.929 . S
H1068 C1082 0.930 . S
H1069 C1084 0.960 1_545 S
H1070 C1084 0.960 . S
H1071 C1084 0.960 . S
C1072 H1064 0.929 . S
C1072 C1073 1.377 . S
C1072 C1074 1.384 . S
C1073 C1072 1.377 . S
C1073 C1079 1.390 1_556 S
C1074 H1065 0.930 . S
C1074 C1072 1.384 . S
C1074 C1075 1.384 . S
C1075 C1074 1.384 . S
C1075 C1076 1.393 1_556 S
C1075 C1080 1.489 . S
C1076 H1066 0.930 . S
C1076 C1075 1.393 1_554 S
C1076 C1079 1.386 . S
H1077 C1093 0.930 . S
H1078 C1094 0.931 . S
C1079 H1067 0.929 . S
C1079 C1073 1.390 1_554 S
C1079 C1076 1.386 . S
C1080 C1075 1.489 . S
C1080 C1082 1.389 1_456 S
C1080 C1083 1.407 . S
H1081 C1087 0.932 . S
C1082 H1068 0.930 . S
C1082 C1080 1.389 1_654 S
C1082 C1085 1.421 . S
C1083 C1080 1.407 . S
C1083 C1084 1.524 . S
C1083 C1087 1.407 1_565 S
C1084 H1069 0.960 1_565 S
C1084 H1070 0.960 . S
C1084 H1071 0.960 . S
C1084 C1083 1.524 . S
C1085 C1082 1.421 . S
C1085 C1086 1.376 1_565 S
C1085 C1089 1.495 . S
C1086 C1085 1.376 1_545 S
C1086 C1087 1.377 1_654 S
C1086 C1088 1.478 . S
C1087 H1081 0.932 . S
C1087 C1083 1.407 1_545 S
C1087 C1086 1.377 1_456 S
C1088 C1086 1.478 . S
C1088 C1090 1.381 1_554 S
C1088 C1094 1.383 . S
C1089 C1085 1.495 . S
C1089 H1095 0.971 . S
C1089 H1096 0.951 1_565 S
C1089 H1097 0.956 1_565 S
C1090 C1088 1.381 1_556 S
C1090 C1091 1.394 . S
C1090 H1098 0.930 . S
C1091 C1090 1.394 . S
C1091 C1092 1.383 1_556 S
C1091 H1099 0.929 . S
C1092 C1091 1.383 1_554 S
C1092 C1093 1.377 . S
C1093 H1077 0.930 . S
C1093 C1092 1.377 . S
C1093 C1094 1.379 . S
C1094 H1078 0.931 . S
C1094 C1088 1.383 . S
C1094 C1093 1.379 . S
H1095 C1089 0.971 . S
H1096 C1089 0.951 1_545 S
H1097 C1089 0.956 1_545 S
H1098 C1090 0.930 . S
H1099 C1091 0.929 . S
H1100 C1108 0.929 . S
H1101 C1110 0.930 . S
H1102 C1112 0.930 . S
H1103 C1115 0.929 . S
H1104 C1118 0.933 . S
H1105 C1120 0.960 . S
H1106 C1120 0.960 . S
H1107 C1120 0.960 1_554 S
C1108 H1100 0.929 . S
C1108 C1109 1.333 1_556 S
C1108 C1110 1.384 . S
C1109 C1108 1.333 1_554 S
C1109 C1115 1.434 . S
C1110 H1101 0.930 . S
C1110 C1108 1.384 . S
C1110 C1111 1.384 . S
C1111 C1110 1.384 . S
C1111 C1112 1.388 1_556 S
C1111 C1116 1.490 . S
C1112 H1102 0.930 . S
C1112 C1111 1.388 1_554 S
C1112 C1115 1.386 . S
H1113 C1129 0.930 . S
H1114 C1130 0.931 . S
C1115 H1103 0.929 . S
C1115 C1109 1.434 . S
C1115 C1112 1.386 . S
C1116 C1111 1.490 . S
C1116 C1118 1.394 . S
C1116 C1119 1.403 . S
H1117 C1123 0.930 . S
C1118 H1104 0.933 . S
C1118 C1116 1.394 . S
C1118 C1121 1.403 . S
C1119 C1116 1.403 . S
C1119 C1120 1.526 . S
C1119 C1123 1.400 . S
C1120 H1105 0.960 . S
C1120 H1106 0.960 . S
C1120 H1107 0.960 1_556 S
C1120 C1119 1.526 . S
C1121 C1118 1.403 . S
C1121 C1122 1.392 . S
C1121 C1125 1.495 . S
C1122 C1121 1.392 . S
C1122 C1123 1.385 . S
C1122 C1124 1.477 . S
C1123 H1117 0.930 . S
C1123 C1119 1.400 . S
C1123 C1122 1.385 . S
C1124 C1122 1.477 . S
C1124 C1126 1.405 . S
C1124 C1130 1.359 1_556 S
C1125 C1121 1.495 . S
C1125 H1131 0.962 . S
C1125 H1132 0.911 1_556 S
C1125 H1133 1.010 . S
C1126 C1124 1.405 . S
C1126 C1127 1.394 . S
C1126 H1134 0.930 . S
C1127 C1126 1.394 . S
C1127 C1128 1.426 . S
C1127 H1135 0.929 . S
C1128 C1127 1.426 . S
C1128 C1129 1.334 1_556 S
C1129 H1113 0.930 . S
C1129 C1128 1.334 1_554 S
C1129 C1130 1.379 . S
C1130 H1114 0.931 . S
C1130 C1124 1.359 1_554 S
C1130 C1129 1.379 . S
H1131 C1125 0.962 . S
H1132 C1125 0.911 1_554 S
H1133 C1125 1.010 . S
H1134 C1126 0.930 . S
H1135 C1127 0.929 . S
H1136 C1144 0.929 . S
H1137 C1146 0.930 . S
H1138 C1148 0.930 . S
H1139 C1151 0.929 . S
H1140 C1154 0.930 . S
H1141 C1156 0.960 . S
H1142 C1156 0.960 . S
H1143 C1156 0.960 . S
C1144 H1136 0.929 . S
C1144 C1145 1.377 . S
C1144 C1146 1.384 . S
C1145 C1144 1.377 . S
C1145 C1151 1.390 . S
C1146 H1137 0.930 . S
C1146 C1144 1.384 . S
C1146 C1147 1.372 . S
C1147 C1146 1.372 . S
C1147 C1148 1.400 . S
C1147 C1152 1.490 . S
C1148 H1138 0.930 . S
C1148 C1147 1.400 . S
C1148 C1151 1.386 . S
H1149 C1165 0.930 . S
H1150 C1166 0.931 . S
C1151 H1139 0.929 . S
C1151 C1145 1.390 . S
C1151 C1148 1.386 . S
C1152 C1147 1.490 . S
C1152 C1154 1.395 1_655 S
C1152 C1155 1.403 . S
H1153 C1159 0.930 . S
C1154 H1140 0.930 . S
C1154 C1152 1.395 1_455 S
C1154 C1157 1.403 . S
C1155 C1152 1.403 . S
C1155 C1156 1.524 . S
C1155 C1159 1.400 . S
C1156 H1141 0.960 . S
C1156 H1142 0.960 . S
C1156 H1143 0.960 . S
C1156 C1155 1.524 . S
C1157 C1154 1.403 . S
C1157 C1158 1.392 . S
C1157 C1161 1.495 . S
C1158 C1157 1.392 . S
C1158 C1159 1.385 1_455 S
C1158 C1160 1.478 . S
C1159 H1153 0.930 . S
C1159 C1155 1.400 . S
C1159 C1158 1.385 1_655 S
C1160 C1158 1.478 . S
C1160 C1162 1.381 . S
C1160 C1166 1.383 . S
C1161 C1157 1.495 . S
C1161 H1167 0.959 . S
C1161 H1168 0.961 . S
C1161 H1169 0.960 . S
C1162 C1160 1.381 . S
C1162 C1163 1.394 . S
C1162 H1170 0.930 . S
C1163 C1162 1.394 . S
C1163 C1164 1.383 . S
C1163 H1171 0.929 . S
C1164 C1163 1.383 . S
C1164 C1165 1.377 . S
C1165 H1149 0.930 . S
C1165 C1164 1.377 . S
C1165 C1166 1.379 . S
C1166 H1150 0.931 . S
C1166 C1160 1.383 . S
C1166 C1165 1.379 . S
H1167 C1161 0.959 . S
H1168 C1161 0.961 . S
H1169 C1161 0.960 . S
H1170 C1162 0.930 . S
H1171 C1163 0.929 . S
H1172 C1180 0.929 . S
H1173 C1182 0.930 . S
H1174 C1184 0.930 . S
H1175 C1187 0.929 . S
H1176 C1190 0.930 . S
H1177 C1192 0.960 . S
H1178 C1192 0.960 . S
H1179 C1192 0.960 1_565 S
C1180 H1172 0.929 . S
C1180 C1181 1.377 . S
C1180 C1182 1.384 . S
C1181 C1180 1.377 . S
C1181 C1187 1.390 . S
C1182 H1173 0.930 . S
C1182 C1180 1.384 . S
C1182 C1183 1.372 . S
C1183 C1182 1.372 . S
C1183 C1184 1.400 . S
C1183 C1188 1.490 . S
C1184 H1174 0.930 . S
C1184 C1183 1.400 . S
C1184 C1187 1.386 . S
H1185 C1201 0.930 . S
H1186 C1202 0.931 . S
C1187 H1175 0.929 . S
C1187 C1181 1.390 . S
C1187 C1184 1.386 . S
C1188 C1183 1.490 . S
C1188 C1190 1.395 . S
C1188 C1191 1.403 1_565 S
H1189 C1195 0.930 . S
C1190 H1176 0.930 . S
C1190 C1188 1.395 . S
C1190 C1193 1.403 . S
C1191 C1188 1.403 1_545 S
C1191 C1192 1.524 . S
C1191 C1195 1.400 . S
C1192 H1177 0.960 . S
C1192 H1178 0.960 . S
C1192 H1179 0.960 1_545 S
C1192 C1191 1.524 . S
C1193 C1190 1.403 . S
C1193 C1194 1.392 1_565 S
C1193 C1197 1.495 . S
C1194 C1193 1.392 1_545 S
C1194 C1195 1.385 . S
C1194 C1196 1.478 . S
C1195 H1189 0.930 . S
C1195 C1191 1.400 . S
C1195 C1194 1.385 . S
C1196 C1194 1.478 . S
C1196 C1198 1.381 . S
C1196 C1202 1.383 . S
C1197 C1193 1.495 . S
C1197 H1203 0.959 . S
C1197 H1204 0.961 . S
C1197 H1205 0.960 1_565 S
C1198 C1196 1.381 . S
C1198 C1199 1.394 . S
C1198 H1206 0.930 . S
C1199 C1198 1.394 . S
C1199 C1200 1.383 . S
C1199 H1207 0.929 . S
C1200 C1199 1.383 . S
C1200 C1201 1.377 . S
C1201 H1185 0.930 . S
C1201 C1200 1.377 . S
C1201 C1202 1.379 . S
C1202 H1186 0.931 . S
C1202 C1196 1.383 . S
C1202 C1201 1.379 . S
H1203 C1197 0.959 . S
H1204 C1197 0.961 . S
H1205 C1197 0.960 1_545 S
H1206 C1198 0.930 . S
H1207 C1199 0.929 . S
H1208 C1216 0.929 . S
H1209 C1218 0.930 . S
H1210 C1220 0.930 . S
H1211 C1223 0.929 . S
H1212 C1226 0.930 . S
H1213 C1228 0.960 . S
H1214 C1228 0.960 . S
H1215 C1228 0.960 . S
C1216 H1208 0.929 . S
C1216 C1217 1.377 1_554 S
C1216 C1218 1.384 . S
C1217 C1216 1.377 1_556 S
C1217 C1223 1.390 . S
C1218 H1209 0.930 . S
C1218 C1216 1.384 . S
C1218 C1219 1.376 . S
C1219 C1218 1.376 . S
C1219 C1220 1.396 1_554 S
C1219 C1224 1.489 . S
C1220 H1210 0.930 . S
C1220 C1219 1.396 1_556 S
C1220 C1223 1.386 . S
H1221 C1237 0.930 . S
H1222 C1238 0.931 . S
C1223 H1211 0.929 . S
C1223 C1217 1.390 . S
C1223 C1220 1.386 . S
C1224 C1219 1.489 . S
C1224 C1226 1.444 . S
C1224 C1227 1.359 1_554 S
H1225 C1231 0.930 . S
C1226 H1212 0.930 . S
C1226 C1224 1.444 . S
C1226 C1229 1.403 . S
C1227 C1224 1.359 1_556 S
C1227 C1228 1.524 . S
C1227 C1231 1.400 . S
C1228 H1213 0.960 . S
C1228 H1214 0.960 . S
C1228 H1215 0.960 . S
C1228 C1227 1.524 . S
C1229 C1226 1.403 . S
C1229 C1230 1.392 . S
C1229 C1233 1.495 . S
C1230 C1229 1.392 . S
C1230 C1231 1.385 1_554 S
C1230 C1232 1.478 . S
C1231 H1225 0.930 . S
C1231 C1227 1.400 . S
C1231 C1230 1.385 1_556 S
C1232 C1230 1.478 . S
C1232 C1234 1.381 . S
C1232 C1238 1.383 1_554 S
C1233 C1229 1.495 . S
C1233 H1239 0.959 . S
C1233 H1240 0.961 . S
C1233 H1241 0.960 . S
C1234 C1232 1.381 . S
C1234 C1235 1.394 . S
C1234 H1242 0.930 . S
C1235 C1234 1.394 . S
C1235 C1236 1.383 . S
C1235 H1243 0.929 . S
C1236 C1235 1.383 . S
C1236 C1237 1.377 1_554 S
C1237 H1221 0.930 . S
C1237 C1236 1.377 1_556 S
C1237 C1238 1.379 . S
C1238 H1222 0.931 . S
C1238 C1232 1.383 1_556 S
C1238 C1237 1.379 . S
H1239 C1233 0.959 . S
H1240 C1233 0.961 . S
H1241 C1233 0.960 . S
H1242 C1234 0.930 . S
H1243 C1235 0.929 . S
H1244 C1252 0.929 . S
H1245 C1254 0.930 . S
H1246 C1256 0.930 . S
H1247 C1259 0.929 . S
H1248 C1262 0.930 . S
H1249 C1264 0.960 . S
H1250 C1264 0.960 . S
H1251 C1264 0.960 . S
C1252 H1244 0.929 . S
C1252 C1253 1.377 . S
C1252 C1254 1.384 . S
C1253 C1252 1.377 . S
C1253 C1259 1.390 . S
C1254 H1245 0.930 . S
C1254 C1252 1.384 . S
C1254 C1255 1.372 . S
C1255 C1254 1.372 . S
C1255 C1256 1.400 . S
C1255 C1260 1.490 . S
C1256 H1246 0.930 . S
C1256 C1255 1.400 . S
C1256 C1259 1.386 . S
H1257 C1273 0.930 . S
H1258 C1274 0.931 . S
C1259 H1247 0.929 . S
C1259 C1253 1.390 . S
C1259 C1256 1.386 . S
C1260 C1255 1.490 . S
C1260 C1262 1.395 . S
C1260 C1263 1.403 . S
H1261 C1267 0.930 . S
C1262 H1248 0.930 . S
C1262 C1260 1.395 . S
C1262 C1265 1.403 . S
C1263 C1260 1.403 . S
C1263 C1264 1.524 . S
C1263 C1267 1.400 . S
C1264 H1249 0.960 . S
C1264 H1250 0.960 . S
C1264 H1251 0.960 . S
C1264 C1263 1.524 . S
C1265 C1262 1.403 . S
C1265 C1266 1.392 . S
C1265 C1269 1.495 . S
C1266 C1265 1.392 . S
C1266 C1267 1.385 . S
C1266 C1268 1.478 . S
C1267 H1261 0.930 . S
C1267 C1263 1.400 . S
C1267 C1266 1.385 . S
C1268 C1266 1.478 . S
C1268 C1270 1.381 . S
C1268 C1274 1.383 . S
C1269 C1265 1.495 . S
C1269 H1275 0.959 . S
C1269 H1276 0.961 . S
C1269 H1277 0.960 . S
C1270 C1268 1.381 . S
C1270 C1271 1.394 . S
C1270 H1278 0.930 . S
C1271 C1270 1.394 . S
C1271 C1272 1.383 . S
C1271 H1279 0.929 . S
C1272 C1271 1.383 . S
C1272 C1273 1.377 . S
C1273 H1257 0.930 . S
C1273 C1272 1.377 . S
C1273 C1274 1.379 . S
C1274 H1258 0.931 . S
C1274 C1268 1.383 . S
C1274 C1273 1.379 . S
H1275 C1269 0.959 . S
H1276 C1269 0.961 . S
H1277 C1269 0.960 . S
H1278 C1270 0.930 . S
H1279 C1271 0.929 . S
H1280 C1288 0.929 . S
H1281 C1290 0.930 . S
H1282 C1292 0.930 . S
H1283 C1295 0.929 . S
H1284 C1298 0.930 . S
H1285 C1300 0.960 . S
H1286 C1300 0.960 . S
H1287 C1300 0.960 . S
C1288 H1280 0.929 . S
C1288 C1289 1.377 . S
C1288 C1290 1.384 . S
C1289 C1288 1.377 . S
C1289 C1295 1.390 . S
C1290 H1281 0.930 . S
C1290 C1288 1.384 . S
C1290 C1291 1.372 . S
C1291 C1290 1.372 . S
C1291 C1292 1.400 . S
C1291 C1296 1.490 . S
C1292 H1282 0.930 . S
C1292 C1291 1.400 . S
C1292 C1295 1.386 . S
H1293 C1309 0.930 . S
H1294 C1310 0.931 . S
C1295 H1283 0.929 . S
C1295 C1289 1.390 . S
C1295 C1292 1.386 . S
C1296 C1291 1.490 . S
C1296 C1298 1.395 1_655 S
C1296 C1299 1.403 . S
H1297 C1303 0.930 . S
C1298 H1284 0.930 . S
C1298 C1296 1.395 1_455 S
C1298 C1301 1.403 . S
C1299 C1296 1.403 . S
C1299 C1300 1.524 . S
C1299 C1303 1.400 . S
C1300 H1285 0.960 . S
C1300 H1286 0.960 . S
C1300 H1287 0.960 . S
C1300 C1299 1.524 . S
C1301 C1298 1.403 . S
C1301 C1302 1.392 . S
C1301 C1305 1.495 . S
C1302 C1301 1.392 . S
C1302 C1303 1.385 1_455 S
C1302 C1304 1.478 . S
C1303 H1297 0.930 . S
C1303 C1299 1.400 . S
C1303 C1302 1.385 1_655 S
C1304 C1302 1.478 . S
C1304 C1306 1.381 . S
C1304 C1310 1.383 . S
C1305 C1301 1.495 . S
C1305 H1311 0.959 . S
C1305 H1312 0.961 . S
C1305 H1313 0.960 . S
C1306 C1304 1.381 . S
C1306 C1307 1.394 . S
C1306 H1314 0.930 . S
C1307 C1306 1.394 . S
C1307 C1308 1.383 . S
C1307 H1315 0.929 . S
C1308 C1307 1.383 . S
C1308 C1309 1.377 . S
C1309 H1293 0.930 . S
C1309 C1308 1.377 . S
C1309 C1310 1.379 . S
C1310 H1294 0.931 . S
C1310 C1304 1.383 . S
C1310 C1309 1.379 . S
H1311 C1305 0.959 . S
H1312 C1305 0.961 . S
H1313 C1305 0.960 . S
H1314 C1306 0.930 . S
H1315 C1307 0.929 . S
H1316 C1324 0.929 . S
H1317 C1326 0.930 . S
H1318 C1328 0.930 . S
H1319 C1331 0.929 . S
H1320 C1334 0.930 . S
H1321 C1336 0.960 . S
H1322 C1336 0.960 . S
H1323 C1336 0.960 . S
C1324 H1316 0.929 . S
C1324 C1325 1.377 . S
C1324 C1326 1.384 . S
C1325 C1324 1.377 . S
C1325 C1331 1.390 . S
C1326 H1317 0.930 . S
C1326 C1324 1.384 . S
C1326 C1327 1.372 . S
C1327 C1326 1.372 . S
C1327 C1328 1.400 . S
C1327 C1332 1.490 . S
C1328 H1318 0.930 . S
C1328 C1327 1.400 . S
C1328 C1331 1.386 . S
H1329 C1345 0.930 . S
H1330 C1346 0.931 . S
C1331 H1319 0.929 . S
C1331 C1325 1.390 . S
C1331 C1328 1.386 . S
C1332 C1327 1.490 . S
C1332 C1334 1.395 . S
C1332 C1335 1.403 . S
H1333 C1339 0.930 . S
C1334 H1320 0.930 . S
C1334 C1332 1.395 . S
C1334 C1337 1.403 . S
C1335 C1332 1.403 . S
C1335 C1336 1.524 . S
C1335 C1339 1.400 . S
C1336 H1321 0.960 . S
C1336 H1322 0.960 . S
C1336 H1323 0.960 . S
C1336 C1335 1.524 . S
C1337 C1334 1.403 . S
C1337 C1338 1.392 . S
C1337 C1341 1.495 . S
C1338 C1337 1.392 . S
C1338 C1339 1.385 . S
C1338 C1340 1.478 . S
C1339 H1333 0.930 . S
C1339 C1335 1.400 . S
C1339 C1338 1.385 . S
C1340 C1338 1.478 . S
C1340 C1342 1.381 . S
C1340 C1346 1.383 . S
C1341 C1337 1.495 . S
C1341 H1347 0.959 . S
C1341 H1348 0.961 . S
C1341 H1349 0.960 . S
C1342 C1340 1.381 . S
C1342 C1343 1.394 . S
C1342 H1350 0.930 . S
C1343 C1342 1.394 . S
C1343 C1344 1.383 . S
C1343 H1351 0.929 . S
C1344 C1343 1.383 . S
C1344 C1345 1.377 . S
C1345 H1329 0.930 . S
C1345 C1344 1.377 . S
C1345 C1346 1.379 . S
C1346 H1330 0.931 . S
C1346 C1340 1.383 . S
C1346 C1345 1.379 . S
H1347 C1341 0.959 . S
H1348 C1341 0.961 . S
H1349 C1341 0.960 . S
H1350 C1342 0.930 . S
H1351 C1343 0.929 . S
H1352 C1360 0.929 . S
H1353 C1362 0.930 . S
H1354 C1364 0.930 . S
H1355 C1367 0.929 . S
H1356 C1370 0.930 . S
H1357 C1372 0.960 . S
H1358 C1372 0.960 . S
H1359 C1372 0.960 . S
C1360 H1352 0.929 . S
C1360 C1361 1.377 . S
C1360 C1362 1.384 . S
C1361 C1360 1.377 . S
C1361 C1367 1.390 . S
C1362 H1353 0.930 . S
C1362 C1360 1.384 . S
C1362 C1363 1.372 . S
C1363 C1362 1.372 . S
C1363 C1364 1.400 . S
C1363 C1368 1.490 . S
C1364 H1354 0.930 . S
C1364 C1363 1.400 . S
C1364 C1367 1.386 . S
H1365 C1381 0.930 . S
H1366 C1382 0.931 . S
C1367 H1355 0.929 . S
C1367 C1361 1.390 . S
C1367 C1364 1.386 . S
C1368 C1363 1.490 . S
C1368 C1370 1.395 . S
C1368 C1371 1.403 . S
H1369 C1375 0.930 . S
C1370 H1356 0.930 . S
C1370 C1368 1.395 . S
C1370 C1373 1.403 . S
C1371 C1368 1.403 . S
C1371 C1372 1.524 . S
C1371 C1375 1.400 . S
C1372 H1357 0.960 . S
C1372 H1358 0.960 . S
C1372 H1359 0.960 . S
C1372 C1371 1.524 . S
C1373 C1370 1.403 . S
C1373 C1374 1.392 . S
C1373 C1377 1.495 . S
C1374 C1373 1.392 . S
C1374 C1375 1.385 . S
C1374 C1376 1.478 . S
C1375 H1369 0.930 . S
C1375 C1371 1.400 . S
C1375 C1374 1.385 . S
C1376 C1374 1.478 . S
C1376 C1378 1.381 . S
C1376 C1382 1.383 . S
C1377 C1373 1.495 . S
C1377 H1383 0.959 . S
C1377 H1384 0.961 . S
C1377 H1385 0.960 . S
C1378 C1376 1.381 . S
C1378 C1379 1.394 . S
C1378 H1386 0.930 . S
C1379 C1378 1.394 . S
C1379 C1380 1.383 . S
C1379 H1387 0.929 . S
C1380 C1379 1.383 . S
C1380 C1381 1.377 . S
C1381 H1365 0.930 . S
C1381 C1380 1.377 . S
C1381 C1382 1.379 . S
C1382 H1366 0.931 . S
C1382 C1376 1.383 . S
C1382 C1381 1.379 . S
H1383 C1377 0.959 . S
H1384 C1377 0.961 . S
H1385 C1377 0.960 . S
H1386 C1378 0.930 . S
H1387 C1379 0.929 . S
H1388 C1396 0.929 . S
H1389 C1398 0.930 . S
H1390 C1400 0.930 . S
H1391 C1403 0.929 . S
H1392 C1406 0.930 . S
H1393 C1408 0.960 . S
H1394 C1408 0.960 . S
H1395 C1408 0.960 . S
C1396 H1388 0.929 . S
C1396 C1397 1.377 . S
C1396 C1398 1.384 . S
C1397 C1396 1.377 . S
C1397 C1403 1.390 . S
C1398 H1389 0.930 . S
C1398 C1396 1.384 . S
C1398 C1399 1.372 . S
C1399 C1398 1.372 . S
C1399 C1400 1.400 . S
C1399 C1404 1.490 . S
C1400 H1390 0.930 . S
C1400 C1399 1.400 . S
C1400 C1403 1.386 . S
H1401 C1417 0.930 . S
H1402 C1418 0.931 . S
C1403 H1391 0.929 . S
C1403 C1397 1.390 . S
C1403 C1400 1.386 . S
C1404 C1399 1.490 . S
C1404 C1406 1.395 . S
C1404 C1407 1.403 . S
H1405 C1411 0.930 . S
C1406 H1392 0.930 . S
C1406 C1404 1.395 . S
C1406 C1409 1.403 . S
C1407 C1404 1.403 . S
C1407 C1408 1.524 . S
C1407 C1411 1.400 . S
C1408 H1393 0.960 . S
C1408 H1394 0.960 . S
C1408 H1395 0.960 . S
C1408 C1407 1.524 . S
C1409 C1406 1.403 . S
C1409 C1410 1.392 . S
C1409 C1413 1.495 . S
C1410 C1409 1.392 . S
C1410 C1411 1.385 . S
C1410 C1412 1.478 . S
C1411 H1405 0.930 . S
C1411 C1407 1.400 . S
C1411 C1410 1.385 . S
C1412 C1410 1.478 . S
C1412 C1414 1.381 . S
C1412 C1418 1.383 . S
C1413 C1409 1.495 . S
C1413 H1419 0.959 . S
C1413 H1420 0.961 . S
C1413 H1421 0.960 . S
C1414 C1412 1.381 . S
C1414 C1415 1.394 . S
C1414 H1422 0.930 . S
C1415 C1414 1.394 . S
C1415 C1416 1.383 . S
C1415 H1423 0.929 . S
C1416 C1415 1.383 . S
C1416 C1417 1.377 . S
C1417 H1401 0.930 . S
C1417 C1416 1.377 . S
C1417 C1418 1.379 . S
C1418 H1402 0.931 . S
C1418 C1412 1.383 . S
C1418 C1417 1.379 . S
H1419 C1413 0.959 . S
H1420 C1413 0.961 . S
H1421 C1413 0.960 . S
H1422 C1414 0.930 . S
H1423 C1415 0.929 . S
H1424 C1432 0.929 . S
H1425 C1434 0.930 . S
H1426 C1436 0.930 . S
H1427 C1439 0.929 . S
H1428 C1442 0.930 . S
H1429 C1444 0.960 . S
H1430 C1444 0.960 . S
H1431 C1444 0.960 . S
C1432 H1424 0.929 . S
C1432 C1433 1.377 . S
C1432 C1434 1.384 . S
C1433 C1432 1.377 . S
C1433 C1439 1.390 . S
C1434 H1425 0.930 . S
C1434 C1432 1.384 . S
C1434 C1435 1.372 . S
C1435 C1434 1.372 . S
C1435 C1436 1.400 . S
C1435 C1440 1.490 . S
C1436 H1426 0.930 . S
C1436 C1435 1.400 . S
C1436 C1439 1.386 . S
H1437 C1453 0.930 . S
H1438 C1454 0.931 . S
C1439 H1427 0.929 . S
C1439 C1433 1.390 . S
C1439 C1436 1.386 . S
C1440 C1435 1.490 . S
C1440 C1442 1.395 . S
C1440 C1443 1.403 . S
H1441 C1447 0.930 . S
C1442 H1428 0.930 . S
C1442 C1440 1.395 . S
C1442 C1445 1.403 . S
C1443 C1440 1.403 . S
C1443 C1444 1.524 . S
C1443 C1447 1.400 . S
C1444 H1429 0.960 . S
C1444 H1430 0.960 . S
C1444 H1431 0.960 . S
C1444 C1443 1.524 . S
C1445 C1442 1.403 . S
C1445 C1446 1.392 . S
C1445 C1449 1.495 . S
C1446 C1445 1.392 . S
C1446 C1447 1.385 . S
C1446 C1448 1.478 . S
C1447 H1441 0.930 . S
C1447 C1443 1.400 . S
C1447 C1446 1.385 . S
C1448 C1446 1.478 . S
C1448 C1450 1.381 . S
C1448 C1454 1.383 . S
C1449 C1445 1.495 . S
C1449 H1455 0.959 . S
C1449 H1456 0.961 . S
C1449 H1457 0.960 . S
C1450 C1448 1.381 . S
C1450 C1451 1.394 . S
C1450 H1458 0.930 . S
C1451 C1450 1.394 . S
C1451 C1452 1.383 . S
C1451 H1459 0.929 . S
C1452 C1451 1.383 . S
C1452 C1453 1.377 . S
C1453 H1437 0.930 . S
C1453 C1452 1.377 . S
C1453 C1454 1.379 . S
C1454 H1438 0.931 . S
C1454 C1448 1.383 . S
C1454 C1453 1.379 . S
H1455 C1449 0.959 . S
H1456 C1449 0.961 . S
H1457 C1449 0.960 . S
H1458 C1450 0.930 . S
H1459 C1451 0.929 . S
H1460 C1468 0.929 . S
H1461 C1470 0.930 . S
H1462 C1472 0.930 . S
H1463 C1475 0.929 . S
H1464 C1478 0.930 . S
H1465 C1480 0.960 . S
H1466 C1480 0.965 . S
H1467 C1480 0.960 1_545 S
C1468 H1460 0.929 . S
C1468 C1469 1.377 . S
C1468 C1470 1.384 . S
C1469 C1468 1.377 . S
C1469 C1475 1.390 . S
C1470 H1461 0.930 . S
C1470 C1468 1.384 . S
C1470 C1471 1.372 . S
C1471 C1470 1.372 . S
C1471 C1472 1.400 . S
C1471 C1476 1.490 . S
C1472 H1462 0.930 . S
C1472 C1471 1.400 . S
C1472 C1475 1.386 . S
H1473 C1489 0.930 . S
H1474 C1490 0.931 . S
C1475 H1463 0.929 . S
C1475 C1469 1.390 . S
C1475 C1472 1.386 . S
C1476 C1471 1.490 . S
C1476 C1478 1.395 . S
C1476 C1479 1.397 . S
H1477 C1483 0.930 . S
C1478 H1464 0.930 . S
C1478 C1476 1.395 . S
C1478 C1481 1.446 . S
C1479 C1476 1.397 . S
C1479 C1480 1.524 1_545 S
C1479 C1483 1.405 1_545 S
C1480 H1465 0.960 . S
C1480 H1466 0.965 . S
C1480 H1467 0.960 1_565 S
C1480 C1479 1.524 1_565 S
C1481 C1478 1.446 . S
C1481 C1482 1.349 1_545 S
C1481 C1485 1.499 . S
C1482 C1481 1.349 1_565 S
C1482 C1483 1.385 . S
C1482 C1484 1.478 . S
C1483 H1477 0.930 . S
C1483 C1479 1.405 1_565 S
C1483 C1482 1.385 . S
C1484 C1482 1.478 . S
C1484 C1486 1.381 . S
C1484 C1490 1.383 . S
C1485 C1481 1.499 . S
C1485 H1491 0.959 . S
C1485 H1492 0.968 . S
C1485 H1493 0.960 1_545 S
C1486 C1484 1.381 . S
C1486 C1487 1.394 . S
C1486 H1494 0.930 . S
C1487 C1486 1.394 . S
C1487 C1488 1.383 . S
C1487 H1495 0.929 . S
C1488 C1487 1.383 . S
C1488 C1489 1.377 . S
C1489 H1473 0.930 . S
C1489 C1488 1.377 . S
C1489 C1490 1.379 . S
C1490 H1474 0.931 . S
C1490 C1484 1.383 . S
C1490 C1489 1.379 . S
H1491 C1485 0.959 . S
H1492 C1485 0.968 . S
H1493 C1485 0.960 1_565 S
H1494 C1486 0.930 . S
H1495 C1487 0.929 . S
H1496 C1504 0.929 . S
H1497 C1506 0.930 . S
H1498 C1508 0.930 . S
H1499 C1511 0.929 . S
H1500 C1514 0.930 . S
H1501 C1516 0.960 . S
H1502 C1516 0.960 . S
H1503 C1516 0.960 . S
C1504 H1496 0.929 . S
C1504 C1505 1.377 . S
C1504 C1506 1.384 . S
C1505 C1504 1.377 . S
C1505 C1511 1.390 . S
C1506 H1497 0.930 . S
C1506 C1504 1.384 . S
C1506 C1507 1.372 . S
C1507 C1506 1.372 . S
C1507 C1508 1.400 . S
C1507 C1512 1.490 . S
C1508 H1498 0.930 . S
C1508 C1507 1.400 . S
C1508 C1511 1.386 . S
H1509 C1525 0.930 . S
H1510 C1526 0.931 . S
C1511 H1499 0.929 . S
C1511 C1505 1.390 . S
C1511 C1508 1.386 . S
C1512 C1507 1.490 . S
C1512 C1514 1.395 . S
C1512 C1515 1.403 . S
H1513 C1519 0.930 . S
C1514 H1500 0.930 . S
C1514 C1512 1.395 . S
C1514 C1517 1.403 . S
C1515 C1512 1.403 . S
C1515 C1516 1.524 . S
C1515 C1519 1.400 . S
C1516 H1501 0.960 . S
C1516 H1502 0.960 . S
C1516 H1503 0.960 . S
C1516 C1515 1.524 . S
C1517 C1514 1.403 . S
C1517 C1518 1.392 . S
C1517 C1521 1.495 . S
C1518 C1517 1.392 . S
C1518 C1519 1.385 . S
C1518 C1520 1.478 . S
C1519 H1513 0.930 . S
C1519 C1515 1.400 . S
C1519 C1518 1.385 . S
C1520 C1518 1.478 . S
C1520 C1522 1.381 . S
C1520 C1526 1.383 . S
C1521 C1517 1.495 . S
C1521 H1527 0.959 . S
C1521 H1528 0.961 . S
C1521 H1529 0.960 . S
C1522 C1520 1.381 . S
C1522 C1523 1.394 . S
C1522 H1530 0.930 . S
C1523 C1522 1.394 . S
C1523 C1524 1.383 . S
C1523 H1531 0.929 . S
C1524 C1523 1.383 . S
C1524 C1525 1.377 . S
C1525 H1509 0.930 . S
C1525 C1524 1.377 . S
C1525 C1526 1.379 . S
C1526 H1510 0.931 . S
C1526 C1520 1.383 . S
C1526 C1525 1.379 . S
H1527 C1521 0.959 . S
H1528 C1521 0.961 . S
H1529 C1521 0.960 . S
H1530 C1522 0.930 . S
H1531 C1523 0.929 . S
H1532 C1540 0.929 . S
H1533 C1542 0.930 . S
H1534 C1544 0.930 . S
H1535 C1547 0.929 . S
H1536 C1550 0.930 . S
H1537 C1552 0.960 . S
H1538 C1552 0.960 1_554 S
H1539 C1552 0.960 . S
C1540 H1532 0.929 . S
C1540 C1541 1.329 1_554 S
C1540 C1542 1.384 . S
C1541 C1540 1.329 1_556 S
C1541 C1547 1.437 . S
C1542 H1533 0.930 . S
C1542 C1540 1.384 . S
C1542 C1543 1.386 . S
C1543 C1542 1.386 . S
C1543 C1544 1.385 1_554 S
C1543 C1548 1.490 . S
C1544 H1534 0.930 . S
C1544 C1543 1.385 1_556 S
C1544 C1547 1.386 . S
H1545 C1561 0.930 . S
H1546 C1562 0.931 . S
C1547 H1535 0.929 . S
C1547 C1541 1.437 . S
C1547 C1544 1.386 . S
C1548 C1543 1.490 . S
C1548 C1550 1.401 . S
C1548 C1551 1.399 1_554 S
H1549 C1555 0.930 . S
C1550 H1536 0.930 . S
C1550 C1548 1.401 . S
C1550 C1553 1.403 . S
C1551 C1548 1.399 1_556 S
C1551 C1552 1.524 . S
C1551 C1555 1.400 . S
C1552 H1537 0.960 . S
C1552 H1538 0.960 1_556 S
C1552 H1539 0.960 . S
C1552 C1551 1.524 . S
C1553 C1550 1.403 . S
C1553 C1554 1.392 . S
C1553 C1557 1.495 . S
C1554 C1553 1.392 . S
C1554 C1555 1.385 1_554 S
C1554 C1556 1.480 . S
C1555 H1549 0.930 . S
C1555 C1551 1.400 . S
C1555 C1554 1.385 1_556 S
C1556 C1554 1.480 . S
C1556 C1558 1.436 . S
C1556 C1562 1.329 1_554 S
C1557 C1553 1.495 . S
C1557 H1563 0.959 . S
C1557 H1564 0.961 1_554 S
C1557 H1565 0.960 . S
C1558 C1556 1.436 . S
C1558 C1559 1.394 . S
C1558 H1566 0.930 . S
C1559 C1558 1.394 . S
C1559 C1560 1.440 . S
C1559 H1567 0.929 . S
C1560 C1559 1.440 . S
C1560 C1561 1.322 1_554 S
C1561 H1545 0.930 . S
C1561 C1560 1.322 1_556 S
C1561 C1562 1.379 . S
C1562 H1546 0.931 . S
C1562 C1556 1.329 1_556 S
C1562 C1561 1.379 . S
H1563 C1557 0.959 . S
H1564 C1557 0.961 1_556 S
H1565 C1557 0.960 . S
H1566 C1558 0.930 . S
H1567 C1559 0.929 . S
H1568 C1576 0.929 . S
H1569 C1578 0.930 . S
H1570 C1580 0.930 . S
H1571 C1583 0.929 . S
H1572 C1586 0.930 . S
H1573 C1588 0.960 . S
H1574 C1588 0.960 . S
H1575 C1588 0.960 . S
C1576 H1568 0.929 . S
C1576 C1577 1.377 . S
C1576 C1578 1.384 . S
C1577 C1576 1.377 . S
C1577 C1583 1.390 . S
C1578 H1569 0.930 . S
C1578 C1576 1.384 . S
C1578 C1579 1.372 . S
C1579 C1578 1.372 . S
C1579 C1580 1.400 . S
C1579 C1584 1.490 . S
C1580 H1570 0.930 . S
C1580 C1579 1.400 . S
C1580 C1583 1.386 . S
H1581 C1597 0.930 . S
H1582 C1598 0.931 . S
C1583 H1571 0.929 . S
C1583 C1577 1.390 . S
C1583 C1580 1.386 . S
C1584 C1579 1.490 . S
C1584 C1586 1.395 . S
C1584 C1587 1.403 . S
H1585 C1591 0.930 . S
C1586 H1572 0.930 . S
C1586 C1584 1.395 . S
C1586 C1589 1.403 . S
C1587 C1584 1.403 . S
C1587 C1588 1.524 . S
C1587 C1591 1.400 . S
C1588 H1573 0.960 . S
C1588 H1574 0.960 . S
C1588 H1575 0.960 . S
C1588 C1587 1.524 . S
C1589 C1586 1.403 . S
C1589 C1590 1.392 . S
C1589 C1593 1.495 . S
C1590 C1589 1.392 . S
C1590 C1591 1.385 . S
C1590 C1592 1.478 . S
C1591 H1585 0.930 . S
C1591 C1587 1.400 . S
C1591 C1590 1.385 . S
C1592 C1590 1.478 . S
C1592 C1594 1.381 . S
C1592 C1598 1.383 . S
C1593 C1589 1.495 . S
C1593 H1599 0.959 . S
C1593 H1600 0.961 . S
C1593 H1601 0.960 . S
C1594 C1592 1.381 . S
C1594 C1595 1.394 . S
C1594 H1602 0.930 . S
C1595 C1594 1.394 . S
C1595 C1596 1.383 . S
C1595 H1603 0.929 . S
C1596 C1595 1.383 . S
C1596 C1597 1.377 . S
C1597 H1581 0.930 . S
C1597 C1596 1.377 . S
C1597 C1598 1.379 . S
C1598 H1582 0.931 . S
C1598 C1592 1.383 . S
C1598 C1597 1.379 . S
H1599 C1593 0.959 . S
H1600 C1593 0.961 . S
H1601 C1593 0.960 . S
H1602 C1594 0.930 . S
H1603 C1595 0.929 . S
H1604 C1612 0.929 . S
H1605 C1614 0.930 . S
H1606 C1616 0.930 . S
H1607 C1619 0.929 . S
H1608 C1622 0.930 . S
H1609 C1624 0.960 . S
H1610 C1624 0.960 . S
H1611 C1624 0.960 . S
C1612 H1604 0.929 . S
C1612 C1613 1.377 . S
C1612 C1614 1.384 . S
C1613 C1612 1.377 . S
C1613 C1619 1.390 . S
C1614 H1605 0.930 . S
C1614 C1612 1.384 . S
C1614 C1615 1.372 . S
C1615 C1614 1.372 . S
C1615 C1616 1.400 . S
C1615 C1620 1.490 . S
C1616 H1606 0.930 . S
C1616 C1615 1.400 . S
C1616 C1619 1.386 . S
H1617 C1633 0.930 . S
H1618 C1634 0.931 . S
C1619 H1607 0.929 . S
C1619 C1613 1.390 . S
C1619 C1616 1.386 . S
C1620 C1615 1.490 . S
C1620 C1622 1.395 . S
C1620 C1623 1.403 . S
H1621 C1627 0.930 . S
C1622 H1608 0.930 . S
C1622 C1620 1.395 . S
C1622 C1625 1.403 . S
C1623 C1620 1.403 . S
C1623 C1624 1.524 . S
C1623 C1627 1.400 . S
C1624 H1609 0.960 . S
C1624 H1610 0.960 . S
C1624 H1611 0.960 . S
C1624 C1623 1.524 . S
C1625 C1622 1.403 . S
C1625 C1626 1.392 . S
C1625 C1629 1.495 . S
C1626 C1625 1.392 . S
C1626 C1627 1.385 . S
C1626 C1628 1.478 . S
C1627 H1621 0.930 . S
C1627 C1623 1.400 . S
C1627 C1626 1.385 . S
C1628 C1626 1.478 . S
C1628 C1630 1.381 . S
C1628 C1634 1.383 . S
C1629 C1625 1.495 . S
C1629 H1635 0.959 . S
C1629 H1636 0.961 . S
C1629 H1637 0.960 . S
C1630 C1628 1.381 . S
C1630 C1631 1.394 . S
C1630 H1638 0.930 . S
C1631 C1630 1.394 . S
C1631 C1632 1.383 . S
C1631 H1639 0.929 . S
C1632 C1631 1.383 . S
C1632 C1633 1.377 . S
C1633 H1617 0.930 . S
C1633 C1632 1.377 . S
C1633 C1634 1.379 . S
C1634 H1618 0.931 . S
C1634 C1628 1.383 . S
C1634 C1633 1.379 . S
H1635 C1629 0.959 . S
H1636 C1629 0.961 . S
H1637 C1629 0.960 . S
H1638 C1630 0.930 . S
H1639 C1631 0.929 . S
H1640 C1648 0.929 . S
H1641 C1650 0.930 . S
H1642 C1652 0.930 . S
H1643 C1655 0.929 . S
H1644 C1658 0.930 . S
H1645 C1660 0.960 . S
H1646 C1660 0.960 . S
H1647 C1660 0.960 . S
C1648 H1640 0.929 . S
C1648 C1649 1.377 . S
C1648 C1650 1.384 . S
C1649 C1648 1.377 . S
C1649 C1655 1.390 . S
C1650 H1641 0.930 . S
C1650 C1648 1.384 . S
C1650 C1651 1.372 . S
C1651 C1650 1.372 . S
C1651 C1652 1.400 . S
C1651 C1656 1.490 . S
C1652 H1642 0.930 . S
C1652 C1651 1.400 . S
C1652 C1655 1.386 . S
H1653 C1669 0.930 . S
H1654 C1670 0.931 . S
C1655 H1643 0.929 . S
C1655 C1649 1.390 . S
C1655 C1652 1.386 . S
C1656 C1651 1.490 . S
C1656 C1658 1.395 . S
C1656 C1659 1.403 . S
H1657 C1663 0.930 . S
C1658 H1644 0.930 . S
C1658 C1656 1.395 . S
C1658 C1661 1.403 . S
C1659 C1656 1.403 . S
C1659 C1660 1.524 . S
C1659 C1663 1.400 . S
C1660 H1645 0.960 . S
C1660 H1646 0.960 . S
C1660 H1647 0.960 . S
C1660 C1659 1.524 . S
C1661 C1658 1.403 . S
C1661 C1662 1.392 . S
C1661 C1665 1.495 . S
C1662 C1661 1.392 . S
C1662 C1663 1.385 . S
C1662 C1664 1.478 . S
C1663 H1657 0.930 . S
C1663 C1659 1.400 . S
C1663 C1662 1.385 . S
C1664 C1662 1.478 . S
C1664 C1666 1.381 . S
C1664 C1670 1.383 . S
C1665 C1661 1.495 . S
C1665 H1671 0.959 . S
C1665 H1672 0.961 . S
C1665 H1673 0.960 . S
C1666 C1664 1.381 . S
C1666 C1667 1.394 . S
C1666 H1674 0.930 . S
C1667 C1666 1.394 . S
C1667 C1668 1.383 . S
C1667 H1675 0.929 . S
C1668 C1667 1.383 . S
C1668 C1669 1.377 . S
C1669 H1653 0.930 . S
C1669 C1668 1.377 . S
C1669 C1670 1.379 . S
C1670 H1654 0.931 . S
C1670 C1664 1.383 . S
C1670 C1669 1.379 . S
H1671 C1665 0.959 . S
H1672 C1665 0.961 . S
H1673 C1665 0.960 . S
H1674 C1666 0.930 . S
H1675 C1667 0.929 . S
H1676 C1684 0.929 . S
H1677 C1686 0.930 . S
H1678 C1688 0.930 . S
H1679 C1691 0.929 . S
H1680 C1694 0.930 . S
H1681 C1696 0.960 . S
H1682 C1696 0.960 . S
H1683 C1696 0.960 . S
C1684 H1676 0.929 . S
C1684 C1685 1.377 . S
C1684 C1686 1.384 . S
C1685 C1684 1.377 . S
C1685 C1691 1.390 . S
C1686 H1677 0.930 . S
C1686 C1684 1.384 . S
C1686 C1687 1.372 . S
C1687 C1686 1.372 . S
C1687 C1688 1.400 . S
C1687 C1692 1.490 . S
C1688 H1678 0.930 . S
C1688 C1687 1.400 . S
C1688 C1691 1.386 . S
H1689 C1705 0.930 . S
H1690 C1706 0.931 . S
C1691 H1679 0.929 . S
C1691 C1685 1.390 . S
C1691 C1688 1.386 . S
C1692 C1687 1.490 . S
C1692 C1694 1.395 . S
C1692 C1695 1.403 . S
H1693 C1699 0.930 . S
C1694 H1680 0.930 . S
C1694 C1692 1.395 . S
C1694 C1697 1.403 . S
C1695 C1692 1.403 . S
C1695 C1696 1.524 . S
C1695 C1699 1.400 . S
C1696 H1681 0.960 . S
C1696 H1682 0.960 . S
C1696 H1683 0.960 . S
C1696 C1695 1.524 . S
C1697 C1694 1.403 . S
C1697 C1698 1.392 . S
C1697 C1701 1.495 . S
C1698 C1697 1.392 . S
C1698 C1699 1.385 . S
C1698 C1700 1.478 . S
C1699 H1693 0.930 . S
C1699 C1695 1.400 . S
C1699 C1698 1.385 . S
C1700 C1698 1.478 . S
C1700 C1702 1.381 . S
C1700 C1706 1.383 . S
C1701 C1697 1.495 . S
C1701 H1707 0.959 . S
C1701 H1708 0.961 . S
C1701 H1709 0.960 . S
C1702 C1700 1.381 . S
C1702 C1703 1.394 . S
C1702 H1710 0.930 . S
C1703 C1702 1.394 . S
C1703 C1704 1.383 . S
C1703 H1711 0.929 . S
C1704 C1703 1.383 . S
C1704 C1705 1.377 . S
C1705 H1689 0.930 . S
C1705 C1704 1.377 . S
C1705 C1706 1.379 . S
C1706 H1690 0.931 . S
C1706 C1700 1.383 . S
C1706 C1705 1.379 . S
H1707 C1701 0.959 . S
H1708 C1701 0.961 . S
H1709 C1701 0.960 . S
H1710 C1702 0.930 . S
H1711 C1703 0.929 . S
H1712 C1720 0.929 . S
H1713 C1722 0.930 . S
H1714 C1724 0.930 . S
H1715 C1727 0.929 . S
H1716 C1730 0.930 . S
H1717 C1732 0.960 . S
H1718 C1732 0.960 . S
H1719 C1732 0.960 . S
C1720 H1712 0.929 . S
C1720 C1721 1.377 . S
C1720 C1722 1.384 . S
C1721 C1720 1.377 . S
C1721 C1727 1.390 . S
C1722 H1713 0.930 . S
C1722 C1720 1.384 . S
C1722 C1723 1.372 . S
C1723 C1722 1.372 . S
C1723 C1724 1.400 . S
C1723 C1728 1.490 . S
C1724 H1714 0.930 . S
C1724 C1723 1.400 . S
C1724 C1727 1.386 . S
H1725 C1741 0.930 . S
H1726 C1742 0.931 . S
C1727 H1715 0.929 . S
C1727 C1721 1.390 . S
C1727 C1724 1.386 . S
C1728 C1723 1.490 . S
C1728 C1730 1.395 . S
C1728 C1731 1.403 . S
H1729 C1735 0.930 . S
C1730 H1716 0.930 . S
C1730 C1728 1.395 . S
C1730 C1733 1.403 . S
C1731 C1728 1.403 . S
C1731 C1732 1.524 . S
C1731 C1735 1.400 . S
C1732 H1717 0.960 . S
C1732 H1718 0.960 . S
C1732 H1719 0.960 . S
C1732 C1731 1.524 . S
C1733 C1730 1.403 . S
C1733 C1734 1.392 . S
C1733 C1737 1.495 . S
C1734 C1733 1.392 . S
C1734 C1735 1.385 . S
C1734 C1736 1.478 . S
C1735 H1729 0.930 . S
C1735 C1731 1.400 . S
C1735 C1734 1.385 . S
C1736 C1734 1.478 . S
C1736 C1738 1.381 . S
C1736 C1742 1.383 . S
C1737 C1733 1.495 . S
C1737 H1743 0.959 . S
C1737 H1744 0.961 . S
C1737 H1745 0.960 . S
C1738 C1736 1.381 . S
C1738 C1739 1.394 . S
C1738 H1746 0.930 . S
C1739 C1738 1.394 . S
C1739 C1740 1.383 . S
C1739 H1747 0.929 . S
C1740 C1739 1.383 . S
C1740 C1741 1.377 . S
C1741 H1725 0.930 . S
C1741 C1740 1.377 . S
C1741 C1742 1.379 . S
C1742 H1726 0.931 . S
C1742 C1736 1.383 . S
C1742 C1741 1.379 . S
H1743 C1737 0.959 . S
H1744 C1737 0.961 . S
H1745 C1737 0.960 . S
H1746 C1738 0.930 . S
H1747 C1739 0.929 . S
H1748 C1756 0.929 . S
H1749 C1758 0.930 . S
H1750 C1760 0.930 . S
H1751 C1763 0.929 . S
H1752 C1766 0.930 . S
H1753 C1768 0.960 . S
H1754 C1768 0.960 . S
H1755 C1768 0.960 . S
C1756 H1748 0.929 . S
C1756 C1757 1.377 . S
C1756 C1758 1.384 . S
C1757 C1756 1.377 . S
C1757 C1763 1.390 . S
C1758 H1749 0.930 . S
C1758 C1756 1.384 . S
C1758 C1759 1.372 . S
C1759 C1758 1.372 . S
C1759 C1760 1.400 . S
C1759 C1764 1.490 . S
C1760 H1750 0.930 . S
C1760 C1759 1.400 . S
C1760 C1763 1.386 . S
H1761 C1777 0.930 . S
H1762 C1778 0.931 . S
C1763 H1751 0.929 . S
C1763 C1757 1.390 . S
C1763 C1760 1.386 . S
C1764 C1759 1.490 . S
C1764 C1766 1.395 . S
C1764 C1767 1.403 . S
H1765 C1771 0.930 . S
C1766 H1752 0.930 . S
C1766 C1764 1.395 . S
C1766 C1769 1.403 . S
C1767 C1764 1.403 . S
C1767 C1768 1.524 . S
C1767 C1771 1.400 . S
C1768 H1753 0.960 . S
C1768 H1754 0.960 . S
C1768 H1755 0.960 . S
C1768 C1767 1.524 . S
C1769 C1766 1.403 . S
C1769 C1770 1.392 . S
C1769 C1773 1.495 . S
C1770 C1769 1.392 . S
C1770 C1771 1.385 . S
C1770 C1772 1.478 . S
C1771 H1765 0.930 . S
C1771 C1767 1.400 . S
C1771 C1770 1.385 . S
C1772 C1770 1.478 . S
C1772 C1774 1.381 . S
C1772 C1778 1.383 . S
C1773 C1769 1.495 . S
C1773 H1779 0.959 . S
C1773 H1780 0.961 . S
C1773 H1781 0.960 . S
C1774 C1772 1.381 . S
C1774 C1775 1.394 . S
C1774 H1782 0.930 . S
C1775 C1774 1.394 . S
C1775 C1776 1.383 . S
C1775 H1783 0.929 . S
C1776 C1775 1.383 . S
C1776 C1777 1.377 . S
C1777 H1761 0.930 . S
C1777 C1776 1.377 . S
C1777 C1778 1.379 . S
C1778 H1762 0.931 . S
C1778 C1772 1.383 . S
C1778 C1777 1.379 . S
H1779 C1773 0.959 . S
H1780 C1773 0.961 . S
H1781 C1773 0.960 . S
H1782 C1774 0.930 . S
H1783 C1775 0.929 . S
H1784 C1792 0.929 . S
H1785 C1794 0.930 . S
H1786 C1796 0.930 . S
H1787 C1799 0.929 . S
H1788 C1802 0.930 . S
H1789 C1804 0.960 . S
H1790 C1804 0.960 . S
H1791 C1804 0.960 . S
C1792 H1784 0.929 . S
C1792 C1793 1.377 . S
C1792 C1794 1.384 . S
C1793 C1792 1.377 . S
C1793 C1799 1.390 . S
C1794 H1785 0.930 . S
C1794 C1792 1.384 . S
C1794 C1795 1.372 . S
C1795 C1794 1.372 . S
C1795 C1796 1.400 . S
C1795 C1800 1.490 . S
C1796 H1786 0.930 . S
C1796 C1795 1.400 . S
C1796 C1799 1.386 . S
H1797 C1813 0.930 . S
H1798 C1814 0.931 . S
C1799 H1787 0.929 . S
C1799 C1793 1.390 . S
C1799 C1796 1.386 . S
C1800 C1795 1.490 . S
C1800 C1802 1.395 . S
C1800 C1803 1.403 . S
H1801 C1807 0.930 . S
C1802 H1788 0.930 . S
C1802 C1800 1.395 . S
C1802 C1805 1.403 . S
C1803 C1800 1.403 . S
C1803 C1804 1.524 . S
C1803 C1807 1.400 . S
C1804 H1789 0.960 . S
C1804 H1790 0.960 . S
C1804 H1791 0.960 . S
C1804 C1803 1.524 . S
C1805 C1802 1.403 . S
C1805 C1806 1.392 . S
C1805 C1809 1.495 . S
C1806 C1805 1.392 . S
C1806 C1807 1.385 . S
C1806 C1808 1.478 . S
C1807 H1801 0.930 . S
C1807 C1803 1.400 . S
C1807 C1806 1.385 . S
C1808 C1806 1.478 . S
C1808 C1810 1.381 . S
C1808 C1814 1.383 . S
C1809 C1805 1.495 . S
C1809 H1815 0.959 . S
C1809 H1816 0.961 . S
C1809 H1817 0.960 . S
C1810 C1808 1.381 . S
C1810 C1811 1.394 . S
C1810 H1818 0.930 . S
C1811 C1810 1.394 . S
C1811 C1812 1.383 . S
C1811 H1819 0.929 . S
C1812 C1811 1.383 . S
C1812 C1813 1.377 . S
C1813 H1797 0.930 . S
C1813 C1812 1.377 . S
C1813 C1814 1.379 . S
C1814 H1798 0.931 . S
C1814 C1808 1.383 . S
C1814 C1813 1.379 . S
H1815 C1809 0.959 . S
H1816 C1809 0.961 . S
H1817 C1809 0.960 . S
H1818 C1810 0.930 . S
H1819 C1811 0.929 . S
H1820 C1828 0.929 . S
H1821 C1830 0.930 . S
H1822 C1832 0.930 . S
H1823 C1835 0.929 . S
H1824 C1838 0.930 . S
H1825 C1840 0.960 . S
H1826 C1840 0.960 . S
H1827 C1840 0.960 . S
C1828 H1820 0.929 . S
C1828 C1829 1.377 . S
C1828 C1830 1.384 . S
C1829 C1828 1.377 . S
C1829 C1835 1.390 . S
C1830 H1821 0.930 . S
C1830 C1828 1.384 . S
C1830 C1831 1.372 . S
C1831 C1830 1.372 . S
C1831 C1832 1.400 . S
C1831 C1836 1.490 . S
C1832 H1822 0.930 . S
C1832 C1831 1.400 . S
C1832 C1835 1.386 . S
H1833 C1849 0.930 . S
H1834 C1850 0.931 . S
C1835 H1823 0.929 . S
C1835 C1829 1.390 . S
C1835 C1832 1.386 . S
C1836 C1831 1.490 . S
C1836 C1838 1.395 . S
C1836 C1839 1.403 . S
H1837 C1843 0.930 . S
C1838 H1824 0.930 . S
C1838 C1836 1.395 . S
C1838 C1841 1.403 . S
C1839 C1836 1.403 . S
C1839 C1840 1.524 . S
C1839 C1843 1.400 . S
C1840 H1825 0.960 . S
C1840 H1826 0.960 . S
C1840 H1827 0.960 . S
C1840 C1839 1.524 . S
C1841 C1838 1.403 . S
C1841 C1842 1.392 . S
C1841 C1845 1.495 . S
C1842 C1841 1.392 . S
C1842 C1843 1.385 . S
C1842 C1844 1.478 . S
C1843 H1837 0.930 . S
C1843 C1839 1.400 . S
C1843 C1842 1.385 . S
C1844 C1842 1.478 . S
C1844 C1846 1.381 . S
C1844 C1850 1.383 . S
C1845 C1841 1.495 . S
C1845 H1851 0.959 . S
C1845 H1852 0.961 . S
C1845 H1853 0.960 . S
C1846 C1844 1.381 . S
C1846 C1847 1.394 . S
C1846 H1854 0.930 . S
C1847 C1846 1.394 . S
C1847 C1848 1.383 . S
C1847 H1855 0.929 . S
C1848 C1847 1.383 . S
C1848 C1849 1.377 . S
C1849 H1833 0.930 . S
C1849 C1848 1.377 . S
C1849 C1850 1.379 . S
C1850 H1834 0.931 . S
C1850 C1844 1.383 . S
C1850 C1849 1.379 . S
H1851 C1845 0.959 . S
H1852 C1845 0.961 . S
H1853 C1845 0.960 . S
H1854 C1846 0.930 . S
H1855 C1847 0.929 . S
H1856 C1864 0.929 . S
H1857 C1866 0.930 . S
H1858 C1868 0.930 . S
H1859 C1871 0.929 . S
H1860 C1874 0.930 . S
H1861 C1876 0.960 . S
H1862 C1876 0.960 . S
H1863 C1876 0.960 . S
C1864 H1856 0.929 . S
C1864 C1865 1.377 . S
C1864 C1866 1.384 . S
C1865 C1864 1.377 . S
C1865 C1871 1.390 . S
C1866 H1857 0.930 . S
C1866 C1864 1.384 . S
C1866 C1867 1.372 . S
C1867 C1866 1.372 . S
C1867 C1868 1.400 . S
C1867 C1872 1.490 . S
C1868 H1858 0.930 . S
C1868 C1867 1.400 . S
C1868 C1871 1.386 . S
H1869 C1885 0.930 . S
H1870 C1886 0.931 . S
C1871 H1859 0.929 . S
C1871 C1865 1.390 . S
C1871 C1868 1.386 . S
C1872 C1867 1.490 . S
C1872 C1874 1.395 . S
C1872 C1875 1.403 . S
H1873 C1879 0.930 . S
C1874 H1860 0.930 . S
C1874 C1872 1.395 . S
C1874 C1877 1.403 . S
C1875 C1872 1.403 . S
C1875 C1876 1.524 . S
C1875 C1879 1.400 . S
C1876 H1861 0.960 . S
C1876 H1862 0.960 . S
C1876 H1863 0.960 . S
C1876 C1875 1.524 . S
C1877 C1874 1.403 . S
C1877 C1878 1.392 . S
C1877 C1881 1.495 . S
C1878 C1877 1.392 . S
C1878 C1879 1.385 . S
C1878 C1880 1.478 . S
C1879 H1873 0.930 . S
C1879 C1875 1.400 . S
C1879 C1878 1.385 . S
C1880 C1878 1.478 . S
C1880 C1882 1.381 . S
C1880 C1886 1.383 . S
C1881 C1877 1.495 . S
C1881 H1887 0.959 . S
C1881 H1888 0.961 . S
C1881 H1889 0.960 . S
C1882 C1880 1.381 . S
C1882 C1883 1.394 . S
C1882 H1890 0.930 . S
C1883 C1882 1.394 . S
C1883 C1884 1.383 . S
C1883 H1891 0.929 . S
C1884 C1883 1.383 . S
C1884 C1885 1.377 . S
C1885 H1869 0.930 . S
C1885 C1884 1.377 . S
C1885 C1886 1.379 . S
C1886 H1870 0.931 . S
C1886 C1880 1.383 . S
C1886 C1885 1.379 . S
H1887 C1881 0.959 . S
H1888 C1881 0.961 . S
H1889 C1881 0.960 . S
H1890 C1882 0.930 . S
H1891 C1883 0.929 . S
H1892 C1900 0.929 . S
H1893 C1902 0.930 . S
H1894 C1904 0.930 . S
H1895 C1907 0.929 . S
H1896 C1910 0.930 . S
H1897 C1912 0.960 . S
H1898 C1912 0.960 . S
H1899 C1912 0.960 . S
C1900 H1892 0.929 . S
C1900 C1901 1.377 . S
C1900 C1902 1.384 . S
C1901 C1900 1.377 . S
C1901 C1907 1.390 . S
C1902 H1893 0.930 . S
C1902 C1900 1.384 . S
C1902 C1903 1.372 . S
C1903 C1902 1.372 . S
C1903 C1904 1.400 . S
C1903 C1908 1.490 . S
C1904 H1894 0.930 . S
C1904 C1903 1.400 . S
C1904 C1907 1.386 . S
H1905 C1921 0.930 . S
H1906 C1922 0.931 . S
C1907 H1895 0.929 . S
C1907 C1901 1.390 . S
C1907 C1904 1.386 . S
C1908 C1903 1.490 . S
C1908 C1910 1.395 . S
C1908 C1911 1.403 . S
H1909 C1915 0.930 . S
C1910 H1896 0.930 . S
C1910 C1908 1.395 . S
C1910 C1913 1.403 . S
C1911 C1908 1.403 . S
C1911 C1912 1.524 . S
C1911 C1915 1.400 . S
C1912 H1897 0.960 . S
C1912 H1898 0.960 . S
C1912 H1899 0.960 . S
C1912 C1911 1.524 . S
C1913 C1910 1.403 . S
C1913 C1914 1.392 . S
C1913 C1917 1.495 . S
C1914 C1913 1.392 . S
C1914 C1915 1.385 . S
C1914 C1916 1.478 . S
C1915 H1909 0.930 . S
C1915 C1911 1.400 . S
C1915 C1914 1.385 . S
C1916 C1914 1.478 . S
C1916 C1918 1.381 . S
C1916 C1922 1.383 . S
C1917 C1913 1.495 . S
C1917 H1923 0.959 . S
C1917 H1924 0.961 . S
C1917 H1925 0.960 . S
C1918 C1916 1.381 . S
C1918 C1919 1.394 . S
C1918 H1926 0.930 . S
C1919 C1918 1.394 . S
C1919 C1920 1.383 . S
C1919 H1927 0.929 . S
C1920 C1919 1.383 . S
C1920 C1921 1.377 . S
C1921 H1905 0.930 . S
C1921 C1920 1.377 . S
C1921 C1922 1.379 . S
C1922 H1906 0.931 . S
C1922 C1916 1.383 . S
C1922 C1921 1.379 . S
H1923 C1917 0.959 . S
H1924 C1917 0.961 . S
H1925 C1917 0.960 . S
H1926 C1918 0.930 . S
H1927 C1919 0.929 . S
H1928 C1936 0.929 . S
H1929 C1938 0.930 . S
H1930 C1940 0.930 . S
H1931 C1943 0.929 . S
H1932 C1946 0.930 . S
H1933 C1948 0.960 . S
H1934 C1948 0.960 . S
H1935 C1948 0.960 . S
C1936 H1928 0.929 . S
C1936 C1937 1.377 . S
C1936 C1938 1.384 . S
C1937 C1936 1.377 . S
C1937 C1943 1.390 . S
C1938 H1929 0.930 . S
C1938 C1936 1.384 . S
C1938 C1939 1.372 . S
C1939 C1938 1.372 . S
C1939 C1940 1.400 . S
C1939 C1944 1.490 . S
C1940 H1930 0.930 . S
C1940 C1939 1.400 . S
C1940 C1943 1.386 . S
H1941 C1957 0.930 . S
H1942 C1958 0.931 . S
C1943 H1931 0.929 . S
C1943 C1937 1.390 . S
C1943 C1940 1.386 . S
C1944 C1939 1.490 . S
C1944 C1946 1.395 . S
C1944 C1947 1.403 . S
H1945 C1951 0.930 . S
C1946 H1932 0.930 . S
C1946 C1944 1.395 . S
C1946 C1949 1.403 . S
C1947 C1944 1.403 . S
C1947 C1948 1.524 . S
C1947 C1951 1.400 . S
C1948 H1933 0.960 . S
C1948 H1934 0.960 . S
C1948 H1935 0.960 . S
C1948 C1947 1.524 . S
C1949 C1946 1.403 . S
C1949 C1950 1.392 . S
C1949 C1953 1.495 . S
C1950 C1949 1.392 . S
C1950 C1951 1.385 . S
C1950 C1952 1.478 . S
C1951 H1945 0.930 . S
C1951 C1947 1.400 . S
C1951 C1950 1.385 . S
C1952 C1950 1.478 . S
C1952 C1954 1.381 . S
C1952 C1958 1.383 . S
C1953 C1949 1.495 . S
C1953 H1959 0.959 . S
C1953 H1960 0.961 . S
C1953 H1961 0.960 . S
C1954 C1952 1.381 . S
C1954 C1955 1.394 . S
C1954 H1962 0.930 . S
C1955 C1954 1.394 . S
C1955 C1956 1.383 . S
C1955 H1963 0.929 . S
C1956 C1955 1.383 . S
C1956 C1957 1.377 . S
C1957 H1941 0.930 . S
C1957 C1956 1.377 . S
C1957 C1958 1.379 . S
C1958 H1942 0.931 . S
C1958 C1952 1.383 . S
C1958 C1957 1.379 . S
H1959 C1953 0.959 . S
H1960 C1953 0.961 . S
H1961 C1953 0.960 . S
H1962 C1954 0.930 . S
H1963 C1955 0.929 . S
H1964 C1972 0.929 . S
H1965 C1974 0.930 . S
H1966 C1976 0.930 . S
H1967 C1979 0.929 . S
H1968 C1982 0.930 . S
H1969 C1984 0.960 . S
H1970 C1984 0.960 . S
H1971 C1984 0.960 . S
C1972 H1964 0.929 . S
C1972 C1973 1.377 . S
C1972 C1974 1.384 . S
C1973 C1972 1.377 . S
C1973 C1979 1.390 . S
C1974 H1965 0.930 . S
C1974 C1972 1.384 . S
C1974 C1975 1.372 . S
C1975 C1974 1.372 . S
C1975 C1976 1.400 . S
C1975 C1980 1.490 . S
C1976 H1966 0.930 . S
C1976 C1975 1.400 . S
C1976 C1979 1.386 . S
H1977 C1993 0.930 . S
H1978 C1994 0.931 . S
C1979 H1967 0.929 . S
C1979 C1973 1.390 . S
C1979 C1976 1.386 . S
C1980 C1975 1.490 . S
C1980 C1982 1.395 . S
C1980 C1983 1.403 . S
H1981 C1987 0.930 . S
C1982 H1968 0.930 . S
C1982 C1980 1.395 . S
C1982 C1985 1.403 . S
C1983 C1980 1.403 . S
C1983 C1984 1.524 . S
C1983 C1987 1.400 . S
C1984 H1969 0.960 . S
C1984 H1970 0.960 . S
C1984 H1971 0.960 . S
C1984 C1983 1.524 . S
C1985 C1982 1.403 . S
C1985 C1986 1.392 . S
C1985 C1989 1.495 . S
C1986 C1985 1.392 . S
C1986 C1987 1.385 . S
C1986 C1988 1.478 . S
C1987 H1981 0.930 . S
C1987 C1983 1.400 . S
C1987 C1986 1.385 . S
C1988 C1986 1.478 . S
C1988 C1990 1.381 . S
C1988 C1994 1.383 . S
C1989 C1985 1.495 . S
C1989 H1995 0.959 . S
C1989 H1996 0.961 . S
C1989 H1997 0.960 . S
C1990 C1988 1.381 . S
C1990 C1991 1.394 . S
C1990 H1998 0.930 . S
C1991 C1990 1.394 . S
C1991 C1992 1.383 . S
C1991 H1999 0.929 . S
C1992 C1991 1.383 . S
C1992 C1993 1.377 . S
C1993 H1977 0.930 . S
C1993 C1992 1.377 . S
C1993 C1994 1.379 . S
C1994 H1978 0.931 . S
C1994 C1988 1.383 . S
C1994 C1993 1.379 . S
H1995 C1989 0.959 . S
H1996 C1989 0.961 . S
H1997 C1989 0.960 . S
H1998 C1990 0.930 . S
H1999 C1991 0.929 . S
H2000 C2008 0.929 . S
H2001 C2010 0.930 . S
H2002 C2012 0.930 . S
H2003 C2015 0.929 . S
H2004 C2018 0.930 . S
H2005 C2020 0.960 . S
H2006 C2020 0.960 . S
H2007 C2020 0.960 . S
C2008 H2000 0.929 . S
C2008 C2009 1.377 . S
C2008 C2010 1.384 . S
C2009 C2008 1.377 . S
C2009 C2015 1.390 . S
C2010 H2001 0.930 . S
C2010 C2008 1.384 . S
C2010 C2011 1.372 . S
C2011 C2010 1.372 . S
C2011 C2012 1.400 . S
C2011 C2016 1.490 . S
C2012 H2002 0.930 . S
C2012 C2011 1.400 . S
C2012 C2015 1.386 . S
H2013 C2029 0.930 . S
H2014 C2030 0.931 . S
C2015 H2003 0.929 . S
C2015 C2009 1.390 . S
C2015 C2012 1.386 . S
C2016 C2011 1.490 . S
C2016 C2018 1.395 . S
C2016 C2019 1.403 . S
H2017 C2023 0.930 . S
C2018 H2004 0.930 . S
C2018 C2016 1.395 . S
C2018 C2021 1.403 . S
C2019 C2016 1.403 . S
C2019 C2020 1.524 . S
C2019 C2023 1.400 . S
C2020 H2005 0.960 . S
C2020 H2006 0.960 . S
C2020 H2007 0.960 . S
C2020 C2019 1.524 . S
C2021 C2018 1.403 . S
C2021 C2022 1.392 . S
C2021 C2025 1.495 . S
C2022 C2021 1.392 . S
C2022 C2023 1.385 . S
C2022 C2024 1.478 . S
C2023 H2017 0.930 . S
C2023 C2019 1.400 . S
C2023 C2022 1.385 . S
C2024 C2022 1.478 . S
C2024 C2026 1.381 . S
C2024 C2030 1.383 . S
C2025 C2021 1.495 . S
C2025 H2031 0.959 . S
C2025 H2032 0.961 . S
C2025 H2033 0.960 . S
C2026 C2024 1.381 . S
C2026 C2027 1.394 . S
C2026 H2034 0.930 . S
C2027 C2026 1.394 . S
C2027 C2028 1.383 . S
C2027 H2035 0.929 . S
C2028 C2027 1.383 . S
C2028 C2029 1.377 . S
C2029 H2013 0.930 . S
C2029 C2028 1.377 . S
C2029 C2030 1.379 . S
C2030 H2014 0.931 . S
C2030 C2024 1.383 . S
C2030 C2029 1.379 . S
H2031 C2025 0.959 . S
H2032 C2025 0.961 . S
H2033 C2025 0.960 . S
H2034 C2026 0.930 . S
H2035 C2027 0.929 . S
H2036 C2044 0.929 . S
H2037 C2046 0.930 . S
H2038 C2048 0.930 . S
H2039 C2051 0.929 . S
H2040 C2054 0.930 . S
H2041 C2056 0.960 . S
H2042 C2056 0.960 . S
H2043 C2056 0.960 . S
C2044 H2036 0.929 . S
C2044 C2045 1.377 . S
C2044 C2046 1.384 . S
C2045 C2044 1.377 . S
C2045 C2051 1.390 . S
C2046 H2037 0.930 . S
C2046 C2044 1.384 . S
C2046 C2047 1.372 . S
C2047 C2046 1.372 . S
C2047 C2048 1.400 . S
C2047 C2052 1.490 . S
C2048 H2038 0.930 . S
C2048 C2047 1.400 . S
C2048 C2051 1.386 . S
H2049 C2065 0.930 . S
H2050 C2066 0.931 . S
C2051 H2039 0.929 . S
C2051 C2045 1.390 . S
C2051 C2048 1.386 . S
C2052 C2047 1.490 . S
C2052 C2054 1.395 . S
C2052 C2055 1.403 . S
H2053 C2059 0.930 . S
C2054 H2040 0.930 . S
C2054 C2052 1.395 . S
C2054 C2057 1.403 . S
C2055 C2052 1.403 . S
C2055 C2056 1.524 . S
C2055 C2059 1.400 . S
C2056 H2041 0.960 . S
C2056 H2042 0.960 . S
C2056 H2043 0.960 . S
C2056 C2055 1.524 . S
C2057 C2054 1.403 . S
C2057 C2058 1.392 . S
C2057 C2061 1.495 . S
C2058 C2057 1.392 . S
C2058 C2059 1.385 . S
C2058 C2060 1.478 . S
C2059 H2053 0.930 . S
C2059 C2055 1.400 . S
C2059 C2058 1.385 . S
C2060 C2058 1.478 . S
C2060 C2062 1.381 . S
C2060 C2066 1.383 . S
C2061 C2057 1.495 . S
C2061 H2067 0.959 . S
C2061 H2068 0.961 . S
C2061 H2069 0.960 . S
C2062 C2060 1.381 . S
C2062 C2063 1.394 . S
C2062 H2070 0.930 . S
C2063 C2062 1.394 . S
C2063 C2064 1.383 . S
C2063 H2071 0.929 . S
C2064 C2063 1.383 . S
C2064 C2065 1.377 . S
C2065 H2049 0.930 . S
C2065 C2064 1.377 . S
C2065 C2066 1.379 . S
C2066 H2050 0.931 . S
C2066 C2060 1.383 . S
C2066 C2065 1.379 . S
H2067 C2061 0.959 . S
H2068 C2061 0.961 . S
H2069 C2061 0.960 . S
H2070 C2062 0.930 . S
H2071 C2063 0.929 . S
H2072 C2080 0.929 . S
H2073 C2082 0.930 . S
H2074 C2084 0.930 . S
H2075 C2087 0.929 . S
H2076 C2090 0.930 . S
H2077 C2092 0.960 . S
H2078 C2092 0.960 . S
H2079 C2092 0.960 . S
C2080 H2072 0.929 . S
C2080 C2081 1.377 . S
C2080 C2082 1.384 . S
C2081 C2080 1.377 . S
C2081 C2087 1.390 . S
C2082 H2073 0.930 . S
C2082 C2080 1.384 . S
C2082 C2083 1.372 . S
C2083 C2082 1.372 . S
C2083 C2084 1.400 . S
C2083 C2088 1.490 . S
C2084 H2074 0.930 . S
C2084 C2083 1.400 . S
C2084 C2087 1.386 . S
H2085 C2101 0.930 . S
H2086 C2102 0.931 . S
C2087 H2075 0.929 . S
C2087 C2081 1.390 . S
C2087 C2084 1.386 . S
C2088 C2083 1.490 . S
C2088 C2090 1.395 . S
C2088 C2091 1.403 . S
H2089 C2095 0.930 . S
C2090 H2076 0.930 . S
C2090 C2088 1.395 . S
C2090 C2093 1.403 . S
C2091 C2088 1.403 . S
C2091 C2092 1.524 . S
C2091 C2095 1.400 . S
C2092 H2077 0.960 . S
C2092 H2078 0.960 . S
C2092 H2079 0.960 . S
C2092 C2091 1.524 . S
C2093 C2090 1.403 . S
C2093 C2094 1.392 . S
C2093 C2097 1.495 . S
C2094 C2093 1.392 . S
C2094 C2095 1.385 . S
C2094 C2096 1.478 . S
C2095 H2089 0.930 . S
C2095 C2091 1.400 . S
C2095 C2094 1.385 . S
C2096 C2094 1.478 . S
C2096 C2098 1.381 . S
C2096 C2102 1.383 . S
C2097 C2093 1.495 . S
C2097 H2103 0.959 . S
C2097 H2104 0.961 . S
C2097 H2105 0.960 . S
C2098 C2096 1.381 . S
C2098 C2099 1.394 . S
C2098 H2106 0.930 . S
C2099 C2098 1.394 . S
C2099 C2100 1.383 . S
C2099 H2107 0.929 . S
C2100 C2099 1.383 . S
C2100 C2101 1.377 . S
C2101 H2085 0.930 . S
C2101 C2100 1.377 . S
C2101 C2102 1.379 . S
C2102 H2086 0.931 . S
C2102 C2096 1.383 . S
C2102 C2101 1.379 . S
H2103 C2097 0.959 . S
H2104 C2097 0.961 . S
H2105 C2097 0.960 . S
H2106 C2098 0.930 . S
H2107 C2099 0.929 . S
H2108 C2116 0.929 . S
H2109 C2118 0.930 . S
H2110 C2120 0.930 . S
H2111 C2123 0.929 . S
H2112 C2126 0.930 . S
H2113 C2128 0.960 . S
H2114 C2128 0.960 . S
H2115 C2128 0.960 . S
C2116 H2108 0.929 . S
C2116 C2117 1.377 . S
C2116 C2118 1.384 . S
C2117 C2116 1.377 . S
C2117 C2123 1.390 . S
C2118 H2109 0.930 . S
C2118 C2116 1.384 . S
C2118 C2119 1.372 . S
C2119 C2118 1.372 . S
C2119 C2120 1.400 . S
C2119 C2124 1.490 . S
C2120 H2110 0.930 . S
C2120 C2119 1.400 . S
C2120 C2123 1.386 . S
H2121 C2137 0.930 . S
H2122 C2138 0.931 . S
C2123 H2111 0.929 . S
C2123 C2117 1.390 . S
C2123 C2120 1.386 . S
C2124 C2119 1.490 . S
C2124 C2126 1.395 . S
C2124 C2127 1.403 . S
H2125 C2131 0.930 . S
C2126 H2112 0.930 . S
C2126 C2124 1.395 . S
C2126 C2129 1.403 . S
C2127 C2124 1.403 . S
C2127 C2128 1.524 . S
C2127 C2131 1.400 . S
C2128 H2113 0.960 . S
C2128 H2114 0.960 . S
C2128 H2115 0.960 . S
C2128 C2127 1.524 . S
C2129 C2126 1.403 . S
C2129 C2130 1.392 . S
C2129 C2133 1.495 . S
C2130 C2129 1.392 . S
C2130 C2131 1.385 . S
C2130 C2132 1.478 . S
C2131 H2125 0.930 . S
C2131 C2127 1.400 . S
C2131 C2130 1.385 . S
C2132 C2130 1.478 . S
C2132 C2134 1.381 . S
C2132 C2138 1.383 . S
C2133 C2129 1.495 . S
C2133 H2139 0.959 . S
C2133 H2140 0.961 . S
C2133 H2141 0.960 . S
C2134 C2132 1.381 . S
C2134 C2135 1.394 . S
C2134 H2142 0.930 . S
C2135 C2134 1.394 . S
C2135 C2136 1.383 . S
C2135 H2143 0.929 . S
C2136 C2135 1.383 . S
C2136 C2137 1.377 . S
C2137 H2121 0.930 . S
C2137 C2136 1.377 . S
C2137 C2138 1.379 . S
C2138 H2122 0.931 . S
C2138 C2132 1.383 . S
C2138 C2137 1.379 . S
H2139 C2133 0.959 . S
H2140 C2133 0.961 . S
H2141 C2133 0.960 . S
H2142 C2134 0.930 . S
H2143 C2135 0.929 . S
H2144 C2152 0.929 . S
H2145 C2154 0.930 . S
H2146 C2156 0.930 . S
H2147 C2159 0.929 . S
H2148 C2162 0.930 . S
H2149 C2164 0.960 . S
H2150 C2164 0.960 . S
H2151 C2164 0.960 . S
C2152 H2144 0.929 . S
C2152 C2153 1.377 . S
C2152 C2154 1.384 . S
C2153 C2152 1.377 . S
C2153 C2159 1.390 . S
C2154 H2145 0.930 . S
C2154 C2152 1.384 . S
C2154 C2155 1.372 . S
C2155 C2154 1.372 . S
C2155 C2156 1.400 . S
C2155 C2160 1.490 . S
C2156 H2146 0.930 . S
C2156 C2155 1.400 . S
C2156 C2159 1.386 . S
H2157 C2173 0.930 . S
H2158 C2174 0.931 . S
C2159 H2147 0.929 . S
C2159 C2153 1.390 . S
C2159 C2156 1.386 . S
C2160 C2155 1.490 . S
C2160 C2162 1.395 . S
C2160 C2163 1.403 . S
H2161 C2167 0.930 . S
C2162 H2148 0.930 . S
C2162 C2160 1.395 . S
C2162 C2165 1.403 . S
C2163 C2160 1.403 . S
C2163 C2164 1.524 . S
C2163 C2167 1.400 . S
C2164 H2149 0.960 . S
C2164 H2150 0.960 . S
C2164 H2151 0.960 . S
C2164 C2163 1.524 . S
C2165 C2162 1.403 . S
C2165 C2166 1.392 . S
C2165 C2169 1.495 . S
C2166 C2165 1.392 . S
C2166 C2167 1.385 . S
C2166 C2168 1.478 . S
C2167 H2161 0.930 . S
C2167 C2163 1.400 . S
C2167 C2166 1.385 . S
C2168 C2166 1.478 . S
C2168 C2170 1.381 . S
C2168 C2174 1.383 . S
C2169 C2165 1.495 . S
C2169 H2175 0.959 . S
C2169 H2176 0.961 . S
C2169 H2177 0.960 . S
C2170 C2168 1.381 . S
C2170 C2171 1.394 . S
C2170 H2178 0.930 . S
C2171 C2170 1.394 . S
C2171 C2172 1.383 . S
C2171 H2179 0.929 . S
C2172 C2171 1.383 . S
C2172 C2173 1.377 . S
C2173 H2157 0.930 . S
C2173 C2172 1.377 . S
C2173 C2174 1.379 . S
C2174 H2158 0.931 . S
C2174 C2168 1.383 . S
C2174 C2173 1.379 . S
H2175 C2169 0.959 . S
H2176 C2169 0.961 . S
H2177 C2169 0.960 . S
H2178 C2170 0.930 . S
H2179 C2171 0.929 . S
H2180 C2188 0.929 . S
H2181 C2190 0.930 . S
H2182 C2192 0.930 . S
H2183 C2195 0.929 . S
H2184 C2198 0.930 . S
H2185 C2200 0.960 . S
H2186 C2200 0.960 . S
H2187 C2200 0.960 . S
C2188 H2180 0.929 . S
C2188 C2189 1.377 . S
C2188 C2190 1.384 . S
C2189 C2188 1.377 . S
C2189 C2195 1.390 . S
C2190 H2181 0.930 . S
C2190 C2188 1.384 . S
C2190 C2191 1.372 . S
C2191 C2190 1.372 . S
C2191 C2192 1.400 . S
C2191 C2196 1.490 . S
C2192 H2182 0.930 . S
C2192 C2191 1.400 . S
C2192 C2195 1.386 . S
H2193 C2209 0.930 . S
H2194 C2210 0.931 . S
C2195 H2183 0.929 . S
C2195 C2189 1.390 . S
C2195 C2192 1.386 . S
C2196 C2191 1.490 . S
C2196 C2198 1.395 . S
C2196 C2199 1.403 . S
H2197 C2203 0.930 . S
C2198 H2184 0.930 . S
C2198 C2196 1.395 . S
C2198 C2201 1.403 . S
C2199 C2196 1.403 . S
C2199 C2200 1.524 . S
C2199 C2203 1.400 . S
C2200 H2185 0.960 . S
C2200 H2186 0.960 . S
C2200 H2187 0.960 . S
C2200 C2199 1.524 . S
C2201 C2198 1.403 . S
C2201 C2202 1.392 . S
C2201 C2205 1.495 . S
C2202 C2201 1.392 . S
C2202 C2203 1.385 . S
C2202 C2204 1.478 . S
C2203 H2197 0.930 . S
C2203 C2199 1.400 . S
C2203 C2202 1.385 . S
C2204 C2202 1.478 . S
C2204 C2206 1.381 . S
C2204 C2210 1.383 . S
C2205 C2201 1.495 . S
C2205 H2211 0.959 . S
C2205 H2212 0.961 . S
C2205 H2213 0.960 . S
C2206 C2204 1.381 . S
C2206 C2207 1.394 . S
C2206 H2214 0.930 . S
C2207 C2206 1.394 . S
C2207 C2208 1.383 . S
C2207 H2215 0.929 . S
C2208 C2207 1.383 . S
C2208 C2209 1.377 . S
C2209 H2193 0.930 . S
C2209 C2208 1.377 . S
C2209 C2210 1.379 . S
C2210 H2194 0.931 . S
C2210 C2204 1.383 . S
C2210 C2209 1.379 . S
H2211 C2205 0.959 . S
H2212 C2205 0.961 . S
H2213 C2205 0.960 . S
H2214 C2206 0.930 . S
H2215 C2207 0.929 . S
H2216 C2224 0.929 . S
H2217 C2226 0.930 . S
H2218 C2228 0.930 . S
H2219 C2231 0.929 . S
H2220 C2234 0.930 . S
H2221 C2236 0.960 . S
H2222 C2236 0.960 . S
H2223 C2236 0.960 . S
C2224 H2216 0.929 . S
C2224 C2225 1.377 . S
C2224 C2226 1.384 . S
C2225 C2224 1.377 . S
C2225 C2231 1.390 1_554 S
C2226 H2217 0.930 . S
C2226 C2224 1.384 . S
C2226 C2227 1.372 . S
C2227 C2226 1.372 . S
C2227 C2228 1.400 1_554 S
C2227 C2232 1.490 . S
C2228 H2218 0.930 . S
C2228 C2227 1.400 1_556 S
C2228 C2231 1.386 . S
H2229 C2245 0.930 . S
H2230 C2246 0.931 . S
C2231 H2219 0.929 . S
C2231 C2225 1.390 1_556 S
C2231 C2228 1.386 . S
C2232 C2227 1.490 . S
C2232 C2234 1.395 . S
C2232 C2235 1.403 1_554 S
H2233 C2239 0.930 . S
C2234 H2220 0.930 . S
C2234 C2232 1.395 . S
C2234 C2237 1.403 . S
C2235 C2232 1.403 1_556 S
C2235 C2236 1.524 . S
C2235 C2239 1.400 . S
C2236 H2221 0.960 . S
C2236 H2222 0.960 . S
C2236 H2223 0.960 . S
C2236 C2235 1.524 . S
C2237 C2234 1.403 . S
C2237 C2238 1.392 . S
C2237 C2241 1.495 . S
C2238 C2237 1.392 . S
C2238 C2239 1.385 1_554 S
C2238 C2240 1.478 . S
C2239 H2233 0.930 . S
C2239 C2235 1.400 . S
C2239 C2238 1.385 1_556 S
C2240 C2238 1.478 . S
C2240 C2242 1.381 . S
C2240 C2246 1.383 1_554 S
C2241 C2237 1.495 . S
C2241 H2247 0.959 . S
C2241 H2248 0.961 . S
C2241 H2249 0.960 . S
C2242 C2240 1.381 . S
C2242 C2243 1.394 . S
C2242 H2250 0.930 . S
C2243 C2242 1.394 . S
C2243 C2244 1.383 . S
C2243 H2251 0.929 . S
C2244 C2243 1.383 . S
C2244 C2245 1.377 1_554 S
C2245 H2229 0.930 . S
C2245 C2244 1.377 1_556 S
C2245 C2246 1.379 . S
C2246 H2230 0.931 . S
C2246 C2240 1.383 1_556 S
C2246 C2245 1.379 . S
H2247 C2241 0.959 . S
H2248 C2241 0.961 . S
H2249 C2241 0.960 . S
H2250 C2242 0.930 . S
H2251 C2243 0.929 . S
H2252 C2260 0.929 . S
H2253 C2262 0.930 . S
H2254 C2264 0.930 . S
H2255 C2267 0.929 . S
H2256 C2270 0.930 . S
H2257 C2272 0.960 . S
H2258 C2272 0.960 1_554 S
H2259 C2272 0.960 . S
C2260 H2252 0.929 . S
C2260 C2261 1.377 . S
C2260 C2262 1.384 . S
C2261 C2260 1.377 . S
C2261 C2267 1.390 1_554 S
C2262 H2253 0.930 . S
C2262 C2260 1.384 . S
C2262 C2263 1.372 . S
C2263 C2262 1.372 . S
C2263 C2264 1.400 1_554 S
C2263 C2268 1.490 . S
C2264 H2254 0.930 . S
C2264 C2263 1.400 1_556 S
C2264 C2267 1.386 . S
H2265 C2281 0.930 . S
H2266 C2282 0.931 . S
C2267 H2255 0.929 . S
C2267 C2261 1.390 1_556 S
C2267 C2264 1.386 . S
C2268 C2263 1.490 . S
C2268 C2270 1.395 . S
C2268 C2271 1.403 1_554 S
H2269 C2275 0.930 . S
C2270 H2256 0.930 . S
C2270 C2268 1.395 . S
C2270 C2273 1.403 . S
C2271 C2268 1.403 1_556 S
C2271 C2272 1.524 . S
C2271 C2275 1.400 . S
C2272 H2257 0.960 . S
C2272 H2258 0.960 1_556 S
C2272 H2259 0.960 . S
C2272 C2271 1.524 . S
C2273 C2270 1.403 . S
C2273 C2274 1.392 . S
C2273 C2277 1.495 . S
C2274 C2273 1.392 . S
C2274 C2275 1.385 1_554 S
C2274 C2276 1.478 . S
C2275 H2269 0.930 . S
C2275 C2271 1.400 . S
C2275 C2274 1.385 1_556 S
C2276 C2274 1.478 . S
C2276 C2278 1.381 . S
C2276 C2282 1.383 1_554 S
C2277 C2273 1.495 . S
C2277 H2283 0.959 . S
C2277 H2284 0.961 . S
C2277 H2285 0.960 . S
C2278 C2276 1.381 . S
C2278 C2279 1.394 . S
C2278 H2286 0.930 . S
C2279 C2278 1.394 . S
C2279 C2280 1.383 . S
C2279 H2287 0.929 . S
C2280 C2279 1.383 . S
C2280 C2281 1.377 1_554 S
C2281 H2265 0.930 . S
C2281 C2280 1.377 1_556 S
C2281 C2282 1.379 . S
C2282 H2266 0.931 . S
C2282 C2276 1.383 1_556 S
C2282 C2281 1.379 . S
H2283 C2277 0.959 . S
H2284 C2277 0.961 . S
H2285 C2277 0.960 . S
H2286 C2278 0.930 . S
H2287 C2279 0.929 . S
H2288 C2296 0.929 . S
H2289 C2298 0.930 . S
H2290 C2300 0.930 . S
H2291 C2303 0.929 . S
H2292 C2306 0.930 . S
H2293 C2308 0.960 . S
H2294 C2308 0.960 . S
H2295 C2308 0.960 . S
C2296 H2288 0.929 . S
C2296 C2297 1.377 . S
C2296 C2298 1.384 . S
C2297 C2296 1.377 . S
C2297 C2303 1.390 . S
C2298 H2289 0.930 . S
C2298 C2296 1.384 . S
C2298 C2299 1.372 . S
C2299 C2298 1.372 . S
C2299 C2300 1.400 . S
C2299 C2304 1.490 . S
C2300 H2290 0.930 . S
C2300 C2299 1.400 . S
C2300 C2303 1.386 . S
H2301 C2317 0.930 . S
H2302 C2318 0.931 . S
C2303 H2291 0.929 . S
C2303 C2297 1.390 . S
C2303 C2300 1.386 . S
C2304 C2299 1.490 . S
C2304 C2306 1.395 . S
C2304 C2307 1.403 . S
H2305 C2311 0.930 . S
C2306 H2292 0.930 . S
C2306 C2304 1.395 . S
C2306 C2309 1.403 . S
C2307 C2304 1.403 . S
C2307 C2308 1.524 . S
C2307 C2311 1.400 . S
C2308 H2293 0.960 . S
C2308 H2294 0.960 . S
C2308 H2295 0.960 . S
C2308 C2307 1.524 . S
C2309 C2306 1.403 . S
C2309 C2310 1.392 . S
C2309 C2313 1.495 . S
C2310 C2309 1.392 . S
C2310 C2311 1.385 . S
C2310 C2312 1.478 . S
C2311 H2305 0.930 . S
C2311 C2307 1.400 . S
C2311 C2310 1.385 . S
C2312 C2310 1.478 . S
C2312 C2314 1.381 . S
C2312 C2318 1.383 . S
C2313 C2309 1.495 . S
C2313 H2319 0.959 . S
C2313 H2320 0.961 . S
C2313 H2321 0.960 . S
C2314 C2312 1.381 . S
C2314 C2315 1.394 . S
C2314 H2322 0.930 . S
C2315 C2314 1.394 . S
C2315 C2316 1.383 . S
C2315 H2323 0.929 . S
C2316 C2315 1.383 . S
C2316 C2317 1.377 . S
C2317 H2301 0.930 . S
C2317 C2316 1.377 . S
C2317 C2318 1.379 . S
C2318 H2302 0.931 . S
C2318 C2312 1.383 . S
C2318 C2317 1.379 . S
H2319 C2313 0.959 . S
H2320 C2313 0.961 . S
H2321 C2313 0.960 . S
H2322 C2314 0.930 . S
H2323 C2315 0.929 . S
H2324 C2332 0.929 . S
H2325 C2334 0.930 . S
H2326 C2336 0.930 . S
H2327 C2339 0.929 . S
H2328 C2342 0.930 . S
H2329 C2344 0.960 . S
H2330 C2344 0.960 . S
H2331 C2344 0.960 . S
C2332 H2324 0.929 . S
C2332 C2333 1.377 . S
C2332 C2334 1.384 . S
C2333 C2332 1.377 . S
C2333 C2339 1.390 . S
C2334 H2325 0.930 . S
C2334 C2332 1.384 . S
C2334 C2335 1.372 . S
C2335 C2334 1.372 . S
C2335 C2336 1.400 . S
C2335 C2340 1.490 . S
C2336 H2326 0.930 . S
C2336 C2335 1.400 . S
C2336 C2339 1.386 . S
H2337 C2353 0.930 . S
H2338 C2354 0.931 . S
C2339 H2327 0.929 . S
C2339 C2333 1.390 . S
C2339 C2336 1.386 . S
C2340 C2335 1.490 . S
C2340 C2342 1.395 . S
C2340 C2343 1.403 . S
H2341 C2347 0.930 . S
C2342 H2328 0.930 . S
C2342 C2340 1.395 . S
C2342 C2345 1.403 . S
C2343 C2340 1.403 . S
C2343 C2344 1.524 . S
C2343 C2347 1.400 . S
C2344 H2329 0.960 . S
C2344 H2330 0.960 . S
C2344 H2331 0.960 . S
C2344 C2343 1.524 . S
C2345 C2342 1.403 . S
C2345 C2346 1.392 . S
C2345 C2349 1.495 . S
C2346 C2345 1.392 . S
C2346 C2347 1.385 . S
C2346 C2348 1.478 . S
C2347 H2341 0.930 . S
C2347 C2343 1.400 . S
C2347 C2346 1.385 . S
C2348 C2346 1.478 . S
C2348 C2350 1.381 . S
C2348 C2354 1.383 . S
C2349 C2345 1.495 . S
C2349 H2355 0.959 . S
C2349 H2356 0.961 . S
C2349 H2357 0.960 . S
C2350 C2348 1.381 . S
C2350 C2351 1.394 . S
C2350 H2358 0.930 . S
C2351 C2350 1.394 . S
C2351 C2352 1.383 . S
C2351 H2359 0.929 . S
C2352 C2351 1.383 . S
C2352 C2353 1.377 . S
C2353 H2337 0.930 . S
C2353 C2352 1.377 . S
C2353 C2354 1.379 . S
C2354 H2338 0.931 . S
C2354 C2348 1.383 . S
C2354 C2353 1.379 . S
H2355 C2349 0.959 . S
H2356 C2349 0.961 . S
H2357 C2349 0.960 . S
H2358 C2350 0.930 . S
H2359 C2351 0.929 . S
H2360 C2368 0.929 . S
H2361 C2370 0.930 . S
H2362 C2372 0.930 . S
H2363 C2375 0.929 . S
H2364 C2378 0.930 . S
H2365 C2380 0.960 . S
H2366 C2380 0.929 1_554 S
H2367 C2380 0.989 . S
C2368 H2360 0.929 . S
C2368 C2369 1.377 1_554 S
C2368 C2370 1.384 . S
C2369 C2368 1.377 1_556 S
C2369 C2375 1.390 . S
C2370 H2361 0.930 . S
C2370 C2368 1.384 . S
C2370 C2371 1.372 1_554 S
C2371 C2370 1.372 1_556 S
C2371 C2372 1.400 . S
C2371 C2376 1.490 . S
C2372 H2362 0.930 . S
C2372 C2371 1.400 . S
C2372 C2375 1.386 . S
H2373 C2389 0.930 . S
H2374 C2390 0.931 . S
C2375 H2363 0.929 . S
C2375 C2369 1.390 . S
C2375 C2372 1.386 . S
C2376 C2371 1.490 . S
C2376 C2378 1.395 . S
C2376 C2379 1.403 . S
H2377 C2383 0.930 . S
C2378 H2364 0.930 . S
C2378 C2376 1.395 . S
C2378 C2381 1.403 . S
C2379 C2376 1.403 . S
C2379 C2380 1.526 . S
C2379 C2383 1.400 . S
C2380 H2365 0.960 . S
C2380 H2366 0.929 1_556 S
C2380 H2367 0.989 . S
C2380 C2379 1.526 . S
C2381 C2378 1.403 . S
C2381 C2382 1.392 . S
C2381 C2385 1.495 . S
C2382 C2381 1.392 . S
C2382 C2383 1.385 . S
C2382 C2384 1.478 . S
C2383 H2377 0.930 . S
C2383 C2379 1.400 . S
C2383 C2382 1.385 . S
C2384 C2382 1.478 . S
C2384 C2386 1.381 1_556 S
C2384 C2390 1.383 . S
C2385 C2381 1.495 . S
C2385 H2391 0.959 . S
C2385 H2392 0.961 . S
C2385 H2393 0.960 1_556 S
C2386 C2384 1.381 1_554 S
C2386 C2387 1.394 . S
C2386 H2394 0.930 . S
C2387 C2386 1.394 . S
C2387 C2388 1.383 1_554 S
C2387 H2395 0.929 . S
C2388 C2387 1.383 1_556 S
C2388 C2389 1.377 . S
C2389 H2373 0.930 . S
C2389 C2388 1.377 . S
C2389 C2390 1.379 . S
C2390 H2374 0.931 . S
C2390 C2384 1.383 . S
C2390 C2389 1.379 . S
H2391 C2385 0.959 . S
H2392 C2385 0.961 . S
H2393 C2385 0.960 1_554 S
H2394 C2386 0.930 . S
H2395 C2387 0.929 . S
H2396 C2404 0.929 . S
H2397 C2406 0.930 . S
H2398 C2408 0.930 . S
H2399 C2411 0.929 . S
H2400 C2414 0.930 . S
H2401 C2416 0.960 . S
H2402 C2416 0.960 . S
H2403 C2416 0.960 . S
C2404 H2396 0.929 . S
C2404 C2405 1.377 . S
C2404 C2406 1.384 . S
C2405 C2404 1.377 . S
C2405 C2411 1.390 1_556 S
C2406 H2397 0.930 . S
C2406 C2404 1.384 . S
C2406 C2407 1.372 . S
C2407 C2406 1.372 . S
C2407 C2408 1.400 1_556 S
C2407 C2412 1.490 . S
C2408 H2398 0.930 . S
C2408 C2407 1.400 1_554 S
C2408 C2411 1.386 . S
H2409 C2425 0.927 1_554 S
H2410 C2426 0.931 1_554 S
C2411 H2399 0.929 . S
C2411 C2405 1.390 1_554 S
C2411 C2408 1.386 . S
C2412 C2407 1.490 . S
C2412 C2414 1.395 . S
C2412 C2415 1.403 1_556 S
H2413 C2419 0.930 . S
C2414 H2400 0.930 . S
C2414 C2412 1.395 . S
C2414 C2417 1.403 . S
C2415 C2412 1.403 1_554 S
C2415 C2416 1.524 . S
C2415 C2419 1.400 . S
C2416 H2401 0.960 . S
C2416 H2402 0.960 . S
C2416 H2403 0.960 . S
C2416 C2415 1.524 . S
C2417 C2414 1.403 . S
C2417 C2418 1.392 . S
C2417 C2421 1.495 . S
C2418 C2417 1.392 . S
C2418 C2419 1.385 1_556 S
C2418 C2420 1.478 . S
C2419 H2413 0.930 . S
C2419 C2415 1.400 . S
C2419 C2418 1.385 1_554 S
C2420 C2418 1.478 . S
C2420 C2422 1.381 . S
C2420 C2426 1.383 . S
C2421 C2417 1.495 . S
C2421 H2427 0.959 . S
C2421 H2428 0.961 . S
C2421 H2429 0.960 . S
C2422 C2420 1.381 . S
C2422 C2423 1.394 . S
C2422 H2430 0.930 . S
C2423 C2422 1.394 . S
C2423 C2424 1.383 . S
C2423 H2431 0.929 . S
C2424 C2423 1.383 . S
C2424 C2425 1.379 . S
C2425 H2409 0.927 1_556 S
C2425 C2424 1.379 . S
C2425 C2426 1.380 . S
C2426 H2410 0.931 1_556 S
C2426 C2420 1.383 . S
C2426 C2425 1.380 . S
H2427 C2421 0.959 . S
H2428 C2421 0.961 . S
H2429 C2421 0.960 . S
H2430 C2422 0.930 . S
H2431 C2423 0.929 . S
H2432 C2440 0.929 . S
H2433 C2442 0.930 . S
H2434 C2444 0.930 . S
H2435 C2447 0.929 . S
H2436 C2450 0.930 . S
H2437 C2452 0.960 . S
H2438 C2452 0.960 . S
H2439 C2452 0.960 . S
C2440 H2432 0.929 . S
C2440 C2441 1.377 . S
C2440 C2442 1.384 . S
C2441 C2440 1.377 . S
C2441 C2447 1.390 . S
C2442 H2433 0.930 . S
C2442 C2440 1.384 . S
C2442 C2443 1.372 . S
C2443 C2442 1.372 . S
C2443 C2444 1.400 . S
C2443 C2448 1.490 . S
C2444 H2434 0.930 . S
C2444 C2443 1.400 . S
C2444 C2447 1.386 . S
H2445 C2461 0.930 . S
H2446 C2462 0.931 . S
C2447 H2435 0.929 . S
C2447 C2441 1.390 . S
C2447 C2444 1.386 . S
C2448 C2443 1.490 . S
C2448 C2450 1.395 . S
C2448 C2451 1.403 . S
H2449 C2455 0.930 . S
C2450 H2436 0.930 . S
C2450 C2448 1.395 . S
C2450 C2453 1.403 . S
C2451 C2448 1.403 . S
C2451 C2452 1.524 . S
C2451 C2455 1.400 . S
C2452 H2437 0.960 . S
C2452 H2438 0.960 . S
C2452 H2439 0.960 . S
C2452 C2451 1.524 . S
C2453 C2450 1.403 . S
C2453 C2454 1.392 . S
C2453 C2457 1.495 . S
C2454 C2453 1.392 . S
C2454 C2455 1.385 . S
C2454 C2456 1.478 . S
C2455 H2449 0.930 . S
C2455 C2451 1.400 . S
C2455 C2454 1.385 . S
C2456 C2454 1.478 . S
C2456 C2458 1.381 . S
C2456 C2462 1.383 . S
C2457 C2453 1.495 . S
C2457 H2463 0.959 . S
C2457 H2464 0.961 . S
C2457 H2465 0.960 . S
C2458 C2456 1.381 . S
C2458 C2459 1.394 . S
C2458 H2466 0.930 . S
C2459 C2458 1.394 . S
C2459 C2460 1.383 . S
C2459 H2467 0.929 . S
C2460 C2459 1.383 . S
C2460 C2461 1.377 . S
C2461 H2445 0.930 . S
C2461 C2460 1.377 . S
C2461 C2462 1.379 . S
C2462 H2446 0.931 . S
C2462 C2456 1.383 . S
C2462 C2461 1.379 . S
H2463 C2457 0.959 . S
H2464 C2457 0.961 . S
H2465 C2457 0.960 . S
H2466 C2458 0.930 . S
H2467 C2459 0.929 . S
H2468 C2476 0.929 . S
H2469 C2478 0.930 . S
H2470 C2480 0.930 . S
H2471 C2483 0.929 . S
H2472 C2486 0.930 . S
H2473 C2488 0.960 . S
H2474 C2488 0.960 . S
H2475 C2488 0.960 . S
C2476 H2468 0.929 . S
C2476 C2477 1.377 . S
C2476 C2478 1.384 . S
C2477 C2476 1.377 . S
C2477 C2483 1.390 . S
C2478 H2469 0.930 . S
C2478 C2476 1.384 . S
C2478 C2479 1.372 . S
C2479 C2478 1.372 . S
C2479 C2480 1.400 . S
C2479 C2484 1.490 . S
C2480 H2470 0.930 . S
C2480 C2479 1.400 . S
C2480 C2483 1.386 . S
H2481 C2497 0.930 . S
H2482 C2498 0.931 . S
C2483 H2471 0.929 . S
C2483 C2477 1.390 . S
C2483 C2480 1.386 . S
C2484 C2479 1.490 . S
C2484 C2486 1.395 . S
C2484 C2487 1.403 . S
H2485 C2491 0.930 . S
C2486 H2472 0.930 . S
C2486 C2484 1.395 . S
C2486 C2489 1.403 . S
C2487 C2484 1.403 . S
C2487 C2488 1.524 . S
C2487 C2491 1.400 . S
C2488 H2473 0.960 . S
C2488 H2474 0.960 . S
C2488 H2475 0.960 . S
C2488 C2487 1.524 . S
C2489 C2486 1.403 . S
C2489 C2490 1.392 . S
C2489 C2493 1.495 . S
C2490 C2489 1.392 . S
C2490 C2491 1.385 . S
C2490 C2492 1.478 . S
C2491 H2485 0.930 . S
C2491 C2487 1.400 . S
C2491 C2490 1.385 . S
C2492 C2490 1.478 . S
C2492 C2494 1.381 . S
C2492 C2498 1.383 . S
C2493 C2489 1.495 . S
C2493 H2499 0.959 . S
C2493 H2500 0.961 . S
C2493 H2501 0.960 . S
C2494 C2492 1.381 . S
C2494 C2495 1.394 . S
C2494 H2502 0.930 . S
C2495 C2494 1.394 . S
C2495 C2496 1.383 . S
C2495 H2503 0.929 . S
C2496 C2495 1.383 . S
C2496 C2497 1.377 . S
C2497 H2481 0.930 . S
C2497 C2496 1.377 . S
C2497 C2498 1.379 . S
C2498 H2482 0.931 . S
C2498 C2492 1.383 . S
C2498 C2497 1.379 . S
H2499 C2493 0.959 . S
H2500 C2493 0.961 . S
H2501 C2493 0.960 . S
H2502 C2494 0.930 . S
H2503 C2495 0.929 . S
H2504 C2512 0.929 . S
H2505 C2514 0.930 . S
H2506 C2516 0.930 . S
H2507 C2519 0.929 . S
H2508 C2522 0.930 . S
H2509 C2524 0.960 . S
H2510 C2524 0.960 . S
H2511 C2524 0.960 . S
C2512 H2504 0.929 . S
C2512 C2513 1.377 . S
C2512 C2514 1.384 . S
C2513 C2512 1.377 . S
C2513 C2519 1.390 . S
C2514 H2505 0.930 . S
C2514 C2512 1.384 . S
C2514 C2515 1.372 . S
C2515 C2514 1.372 . S
C2515 C2516 1.400 . S
C2515 C2520 1.490 . S
C2516 H2506 0.930 . S
C2516 C2515 1.400 . S
C2516 C2519 1.386 . S
H2517 C2533 0.930 . S
H2518 C2534 0.931 . S
C2519 H2507 0.929 . S
C2519 C2513 1.390 . S
C2519 C2516 1.386 . S
C2520 C2515 1.490 . S
C2520 C2522 1.395 . S
C2520 C2523 1.403 . S
H2521 C2527 0.930 . S
C2522 H2508 0.930 . S
C2522 C2520 1.395 . S
C2522 C2525 1.403 . S
C2523 C2520 1.403 . S
C2523 C2524 1.524 . S
C2523 C2527 1.400 . S
C2524 H2509 0.960 . S
C2524 H2510 0.960 . S
C2524 H2511 0.960 . S
C2524 C2523 1.524 . S
C2525 C2522 1.403 . S
C2525 C2526 1.392 . S
C2525 C2529 1.495 . S
C2526 C2525 1.392 . S
C2526 C2527 1.385 . S
C2526 C2528 1.478 . S
C2527 H2521 0.930 . S
C2527 C2523 1.400 . S
C2527 C2526 1.385 . S
C2528 C2526 1.478 . S
C2528 C2530 1.381 . S
C2528 C2534 1.383 . S
C2529 C2525 1.495 . S
C2529 H2535 0.959 . S
C2529 H2536 0.961 . S
C2529 H2537 0.960 . S
C2530 C2528 1.381 . S
C2530 C2531 1.394 . S
C2530 H2538 0.930 . S
C2531 C2530 1.394 . S
C2531 C2532 1.383 . S
C2531 H2539 0.929 . S
C2532 C2531 1.383 . S
C2532 C2533 1.377 . S
C2533 H2517 0.930 . S
C2533 C2532 1.377 . S
C2533 C2534 1.379 . S
C2534 H2518 0.931 . S
C2534 C2528 1.383 . S
C2534 C2533 1.379 . S
H2535 C2529 0.959 . S
H2536 C2529 0.961 . S
H2537 C2529 0.960 . S
H2538 C2530 0.930 . S
H2539 C2531 0.929 . S
H2540 C2548 0.929 . S
H2541 C2550 0.930 . S
H2542 C2552 0.930 . S
H2543 C2555 0.929 . S
H2544 C2558 0.930 . S
H2545 C2560 0.960 . S
H2546 C2560 0.960 . S
H2547 C2560 0.960 . S
C2548 H2540 0.929 . S
C2548 C2549 1.377 . S
C2548 C2550 1.384 . S
C2549 C2548 1.377 . S
C2549 C2555 1.390 . S
C2550 H2541 0.930 . S
C2550 C2548 1.384 . S
C2550 C2551 1.372 . S
C2551 C2550 1.372 . S
C2551 C2552 1.400 . S
C2551 C2556 1.490 . S
C2552 H2542 0.930 . S
C2552 C2551 1.400 . S
C2552 C2555 1.386 . S
H2553 C2569 0.930 . S
H2554 C2570 0.931 . S
C2555 H2543 0.929 . S
C2555 C2549 1.390 . S
C2555 C2552 1.386 . S
C2556 C2551 1.490 . S
C2556 C2558 1.395 . S
C2556 C2559 1.403 . S
H2557 C2563 0.930 . S
C2558 H2544 0.930 . S
C2558 C2556 1.395 . S
C2558 C2561 1.403 . S
C2559 C2556 1.403 . S
C2559 C2560 1.524 . S
C2559 C2563 1.400 . S
C2560 H2545 0.960 . S
C2560 H2546 0.960 . S
C2560 H2547 0.960 . S
C2560 C2559 1.524 . S
C2561 C2558 1.403 . S
C2561 C2562 1.392 . S
C2561 C2565 1.495 . S
C2562 C2561 1.392 . S
C2562 C2563 1.385 . S
C2562 C2564 1.478 . S
C2563 H2557 0.930 . S
C2563 C2559 1.400 . S
C2563 C2562 1.385 . S
C2564 C2562 1.478 . S
C2564 C2566 1.381 . S
C2564 C2570 1.383 . S
C2565 C2561 1.495 . S
C2565 H2571 0.959 . S
C2565 H2572 0.961 . S
C2565 H2573 0.960 . S
C2566 C2564 1.381 . S
C2566 C2567 1.394 . S
C2566 H2574 0.930 . S
C2567 C2566 1.394 . S
C2567 C2568 1.383 . S
C2567 H2575 0.929 . S
C2568 C2567 1.383 . S
C2568 C2569 1.377 . S
C2569 H2553 0.930 . S
C2569 C2568 1.377 . S
C2569 C2570 1.379 . S
C2570 H2554 0.931 . S
C2570 C2564 1.383 . S
C2570 C2569 1.379 . S
H2571 C2565 0.959 . S
H2572 C2565 0.961 . S
H2573 C2565 0.960 . S
H2574 C2566 0.930 . S
H2575 C2567 0.929 . S
H2576 C2584 0.929 . S
H2577 C2586 0.930 . S
H2578 C2588 0.930 . S
H2579 C2591 0.929 . S
H2580 C2594 0.930 . S
H2581 C2596 0.960 . S
H2582 C2596 0.960 . S
H2583 C2596 0.960 . S
C2584 H2576 0.929 . S
C2584 C2585 1.377 . S
C2584 C2586 1.384 . S
C2585 C2584 1.377 . S
C2585 C2591 1.390 . S
C2586 H2577 0.930 . S
C2586 C2584 1.384 . S
C2586 C2587 1.372 . S
C2587 C2586 1.372 . S
C2587 C2588 1.400 . S
C2587 C2592 1.490 . S
C2588 H2578 0.930 . S
C2588 C2587 1.400 . S
C2588 C2591 1.386 . S
H2589 C2605 0.930 . S
H2590 C2606 0.931 . S
C2591 H2579 0.929 . S
C2591 C2585 1.390 . S
C2591 C2588 1.386 . S
C2592 C2587 1.490 . S
C2592 C2594 1.395 . S
C2592 C2595 1.403 . S
H2593 C2599 0.930 . S
C2594 H2580 0.930 . S
C2594 C2592 1.395 . S
C2594 C2597 1.403 . S
C2595 C2592 1.403 . S
C2595 C2596 1.524 . S
C2595 C2599 1.400 . S
C2596 H2581 0.960 . S
C2596 H2582 0.960 . S
C2596 H2583 0.960 . S
C2596 C2595 1.524 . S
C2597 C2594 1.403 . S
C2597 C2598 1.392 . S
C2597 C2601 1.495 . S
C2598 C2597 1.392 . S
C2598 C2599 1.385 . S
C2598 C2600 1.478 . S
C2599 H2593 0.930 . S
C2599 C2595 1.400 . S
C2599 C2598 1.385 . S
C2600 C2598 1.478 . S
C2600 C2602 1.381 . S
C2600 C2606 1.383 . S
C2601 C2597 1.495 . S
C2601 H2607 0.959 . S
C2601 H2608 0.961 . S
C2601 H2609 0.960 . S
C2602 C2600 1.381 . S
C2602 C2603 1.394 . S
C2602 H2610 0.930 . S
C2603 C2602 1.394 . S
C2603 C2604 1.383 . S
C2603 H2611 0.929 . S
C2604 C2603 1.383 . S
C2604 C2605 1.377 . S
C2605 H2589 0.930 . S
C2605 C2604 1.377 . S
C2605 C2606 1.379 . S
C2606 H2590 0.931 . S
C2606 C2600 1.383 . S
C2606 C2605 1.379 . S
H2607 C2601 0.959 . S
H2608 C2601 0.961 . S
H2609 C2601 0.960 . S
H2610 C2602 0.930 . S
H2611 C2603 0.929 . S
H2612 C2620 0.929 . S
H2613 C2622 0.930 . S
H2614 C2624 0.930 . S
H2615 C2627 0.929 . S
H2616 C2630 0.930 . S
H2617 C2632 0.960 . S
H2618 C2632 0.960 . S
H2619 C2632 0.960 . S
C2620 H2612 0.929 . S
C2620 C2621 1.377 . S
C2620 C2622 1.384 . S
C2621 C2620 1.377 . S
C2621 C2627 1.390 . S
C2622 H2613 0.930 . S
C2622 C2620 1.384 . S
C2622 C2623 1.372 . S
C2623 C2622 1.372 . S
C2623 C2624 1.400 . S
C2623 C2628 1.490 . S
C2624 H2614 0.930 . S
C2624 C2623 1.400 . S
C2624 C2627 1.386 . S
H2625 C2641 0.930 . S
H2626 C2642 0.931 . S
C2627 H2615 0.929 . S
C2627 C2621 1.390 . S
C2627 C2624 1.386 . S
C2628 C2623 1.490 . S
C2628 C2630 1.395 . S
C2628 C2631 1.403 . S
H2629 C2635 0.930 . S
C2630 H2616 0.930 . S
C2630 C2628 1.395 . S
C2630 C2633 1.403 . S
C2631 C2628 1.403 . S
C2631 C2632 1.524 . S
C2631 C2635 1.400 . S
C2632 H2617 0.960 . S
C2632 H2618 0.960 . S
C2632 H2619 0.960 . S
C2632 C2631 1.524 . S
C2633 C2630 1.403 . S
C2633 C2634 1.392 . S
C2633 C2637 1.495 . S
C2634 C2633 1.392 . S
C2634 C2635 1.385 . S
C2634 C2636 1.478 . S
C2635 H2629 0.930 . S
C2635 C2631 1.400 . S
C2635 C2634 1.385 . S
C2636 C2634 1.478 . S
C2636 C2638 1.381 . S
C2636 C2642 1.383 . S
C2637 C2633 1.495 . S
C2637 H2643 0.959 . S
C2637 H2644 0.961 . S
C2637 H2645 0.960 . S
C2638 C2636 1.381 . S
C2638 C2639 1.394 . S
C2638 H2646 0.930 . S
C2639 C2638 1.394 . S
C2639 C2640 1.383 . S
C2639 H2647 0.929 . S
C2640 C2639 1.383 . S
C2640 C2641 1.377 . S
C2641 H2625 0.930 . S
C2641 C2640 1.377 . S
C2641 C2642 1.379 . S
C2642 H2626 0.931 . S
C2642 C2636 1.383 . S
C2642 C2641 1.379 . S
H2643 C2637 0.959 . S
H2644 C2637 0.961 . S
H2645 C2637 0.960 . S
H2646 C2638 0.930 . S
H2647 C2639 0.929 . S
H2648 C2656 0.929 . S
H2649 C2658 0.930 . S
H2650 C2660 0.930 . S
H2651 C2663 0.929 . S
H2652 C2666 0.930 . S
H2653 C2668 0.960 . S
H2654 C2668 0.960 . S
H2655 C2668 0.960 . S
C2656 H2648 0.929 . S
C2656 C2657 1.377 . S
C2656 C2658 1.384 . S
C2657 C2656 1.377 . S
C2657 C2663 1.390 . S
C2658 H2649 0.930 . S
C2658 C2656 1.384 . S
C2658 C2659 1.372 . S
C2659 C2658 1.372 . S
C2659 C2660 1.400 . S
C2659 C2664 1.490 . S
C2660 H2650 0.930 . S
C2660 C2659 1.400 . S
C2660 C2663 1.386 . S
H2661 C2677 0.930 . S
H2662 C2678 0.931 . S
C2663 H2651 0.929 . S
C2663 C2657 1.390 . S
C2663 C2660 1.386 . S
C2664 C2659 1.490 . S
C2664 C2666 1.395 . S
C2664 C2667 1.403 . S
H2665 C2671 0.930 . S
C2666 H2652 0.930 . S
C2666 C2664 1.395 . S
C2666 C2669 1.403 . S
C2667 C2664 1.403 . S
C2667 C2668 1.524 . S
C2667 C2671 1.400 . S
C2668 H2653 0.960 . S
C2668 H2654 0.960 . S
C2668 H2655 0.960 . S
C2668 C2667 1.524 . S
C2669 C2666 1.403 . S
C2669 C2670 1.392 . S
C2669 C2673 1.495 . S
C2670 C2669 1.392 . S
C2670 C2671 1.385 . S
C2670 C2672 1.478 . S
C2671 H2665 0.930 . S
C2671 C2667 1.400 . S
C2671 C2670 1.385 . S
C2672 C2670 1.478 . S
C2672 C2674 1.381 . S
C2672 C2678 1.383 . S
C2673 C2669 1.495 . S
C2673 H2679 0.959 . S
C2673 H2680 0.961 . S
C2673 H2681 0.960 . S
C2674 C2672 1.381 . S
C2674 C2675 1.394 . S
C2674 H2682 0.930 . S
C2675 C2674 1.394 . S
C2675 C2676 1.383 . S
C2675 H2683 0.929 . S
C2676 C2675 1.383 . S
C2676 C2677 1.377 . S
C2677 H2661 0.930 . S
C2677 C2676 1.377 . S
C2677 C2678 1.379 . S
C2678 H2662 0.931 . S
C2678 C2672 1.383 . S
C2678 C2677 1.379 . S
H2679 C2673 0.959 . S
H2680 C2673 0.961 . S
H2681 C2673 0.960 . S
H2682 C2674 0.930 . S
H2683 C2675 0.929 . S
H2684 C2692 0.929 . S
H2685 C2694 0.930 . S
H2686 C2696 0.930 . S
H2687 C2699 0.929 . S
H2688 C2702 0.930 . S
H2689 C2704 0.960 . S
H2690 C2704 0.960 . S
H2691 C2704 0.960 . S
C2692 H2684 0.929 . S
C2692 C2693 1.377 . S
C2692 C2694 1.384 . S
C2693 C2692 1.377 . S
C2693 C2699 1.390 . S
C2694 H2685 0.930 . S
C2694 C2692 1.384 . S
C2694 C2695 1.372 . S
C2695 C2694 1.372 . S
C2695 C2696 1.400 . S
C2695 C2700 1.490 . S
C2696 H2686 0.930 . S
C2696 C2695 1.400 . S
C2696 C2699 1.386 . S
H2697 C2713 0.930 . S
H2698 C2714 0.931 . S
C2699 H2687 0.929 . S
C2699 C2693 1.390 . S
C2699 C2696 1.386 . S
C2700 C2695 1.490 . S
C2700 C2702 1.395 . S
C2700 C2703 1.403 . S
H2701 C2707 0.930 . S
C2702 H2688 0.930 . S
C2702 C2700 1.395 . S
C2702 C2705 1.403 . S
C2703 C2700 1.403 . S
C2703 C2704 1.524 . S
C2703 C2707 1.400 . S
C2704 H2689 0.960 . S
C2704 H2690 0.960 . S
C2704 H2691 0.960 . S
C2704 C2703 1.524 . S
C2705 C2702 1.403 . S
C2705 C2706 1.392 . S
C2705 C2709 1.495 . S
C2706 C2705 1.392 . S
C2706 C2707 1.385 . S
C2706 C2708 1.478 . S
C2707 H2701 0.930 . S
C2707 C2703 1.400 . S
C2707 C2706 1.385 . S
C2708 C2706 1.478 . S
C2708 C2710 1.381 . S
C2708 C2714 1.383 . S
C2709 C2705 1.495 . S
C2709 H2715 0.959 . S
C2709 H2716 0.961 . S
C2709 H2717 0.960 . S
C2710 C2708 1.381 . S
C2710 C2711 1.394 . S
C2710 H2718 0.930 . S
C2711 C2710 1.394 . S
C2711 C2712 1.383 . S
C2711 H2719 0.929 . S
C2712 C2711 1.383 . S
C2712 C2713 1.377 . S
C2713 H2697 0.930 . S
C2713 C2712 1.377 . S
C2713 C2714 1.379 . S
C2714 H2698 0.931 . S
C2714 C2708 1.383 . S
C2714 C2713 1.379 . S
H2715 C2709 0.959 . S
H2716 C2709 0.961 . S
H2717 C2709 0.960 . S
H2718 C2710 0.930 . S
H2719 C2711 0.929 . S
C425 C1 1.474 . S
C444 C40 1.480 . S
C461 C27 1.474 . S
C480 C14 1.477 . S
C497 C53 1.458 . S
C516 C92 1.441 . S
C533 C79 1.450 . S
C552 C66 1.476 . S
C569 C105 1.428 . S
C588 C144 1.423 . S
C605 C131 1.428 . S
C624 C118 1.425 . S
C641 C157 1.412 . S
C660 C196 1.390 . S
C677 C170 1.408 . S
C696 C183 1.412 . S
C713 C248 1.428 . S
C732 C209 1.424 . S
C749 C222 1.428 . S
C768 C235 1.422 . S
C785 C261 1.412 . S
C804 C300 1.390 . S
C821 C287 1.411 . S
C840 C274 1.395 . S
C857 C313 1.474 . S
C876 C352 1.475 . S
C893 C339 1.473 . S
C912 C326 1.481 . S
C929 C365 1.457 . S
C948 C404 1.442 . S
C965 C378 1.457 . S
C984 C391 1.444 . S
C1001 C161 1.820 . S
C1020 C5 1.742 . S
C1037 C18 1.717 . S
C1056 C278 1.807 . S
C1073 C31 1.679 . S
C1092 C83 1.760 . S
C1109 C408 1.770 . S
C1128 C44 1.647 . S
C1145 C57 1.818 . S
C1164 C109 1.696 . S
C1181 C226 1.718 . S
C1200 C70 1.806 . S
C1217 C356 1.682 . S
C1236 C96 1.771 . S
C1253 C382 1.819 . S
C1272 C122 1.740 . S
C1289 C187 1.775 . S
C1308 C135 1.652 . S
C1325 C304 1.774 . S
C1344 C148 1.652 . S
C1361 C174 1.822 . S
C1380 C330 1.724 . S
C1397 C252 1.678 . S
C1416 C200 1.763 . S
C1433 C369 1.822 . S
C1452 C213 1.735 . S
C1469 C291 1.774 . S
C1488 C239 1.656 . S
C1505 C317 1.724 . S
C1524 C265 1.825 . S
C1541 C343 1.682 . S
C1560 C395 1.776 . S
C1577 C133 1.745 . S
C1596 C3 1.742 . S
C1613 C16 1.745 . S
C1632 C146 1.741 . S
C1649 C107 1.703 . S
C1668 C29 1.689 . S
C1685 C120 1.703 . S
C1704 C42 1.689 . S
C1721 C55 1.709 . S
C1740 C185 1.713 . S
C1757 C68 1.714 . S
C1776 C198 1.690 . S
C1793 C159 1.669 . S
C1812 C81 1.649 . S
C1829 C94 1.671 . S
C1848 C172 1.641 . S
C1865 C341 1.704 . S
C1884 C211 1.691 . S
C1901 C354 1.704 . S
C1920 C224 1.693 . S
C1937 C237 1.745 . S
C1956 C315 1.743 . S
C1973 C250 1.744 . S
C1992 C328 1.739 . S
C2009 C263 1.672 . S
C2028 C393 1.640 . S
C2045 C276 1.668 . S
C2064 C406 1.676 . S
C2081 C367 1.713 . S
C2100 C289 1.721 . S
C2117 C380 1.712 . S
C2136 C302 1.722 . S
C2153 C10 2.035 . S
C2172 C335 2.046 . S
C2189 C322 2.028 . S
C2208 C23 2.038 1_655 S
C2225 C36 1.984 . S
C2244 C361 1.969 . S
C2261 C49 1.985 1_655 S
C2280 C348 1.963 . S
C2297 C62 2.109 . S
C2316 C387 2.098 . S
C2333 C75 2.112 1_455 S
C2352 C374 2.117 . S
C2369 C413 2.064 . S
C2388 C88 2.050 . S
C2405 C400 2.066 . S
C2424 C101 2.059 1_455 S
C2441 C231 2.022 . S
C2460 C114 2.022 . S
C2477 C218 2.025 . S
C2496 C127 2.000 1_655 S
C2513 C140 1.991 . S
C2532 C257 2.008 . S
C2549 C153 1.991 1_655 S
C2568 C244 1.970 . S
C2585 C283 2.106 . S
C2604 C166 2.092 . S
C2621 C179 2.106 1_455 S
C2640 C270 2.093 . S
C2657 C192 2.064 . S
C2676 C309 2.060 . S
C2693 C205 2.067 1_455 S
C2712 C296 2.070 . S
