# Generated by pormake.
# Topology gis, (4)-cn, num edge types: 1
# Building blocks:
#     Node 0, Type 0, BuildingBlock: TATPOV_clean_sbu_0, # of connection points: 4
#     Node 1, Type 0, BuildingBlock: TATPOV_clean_sbu_0, # of connection points: 4
#     Node 2, Type 0, BuildingBlock: TATPOV_clean_sbu_0, # of connection points: 4
#     Node 3, Type 0, BuildingBlock: TATPOV_clean_sbu_0, # of connection points: 4
#     Node 4, Type 0, BuildingBlock: TATPOV_clean_sbu_0, # of connection points: 4
#     Node 5, Type 0, BuildingBlock: TATPOV_clean_sbu_0, # of connection points: 4
#     Node 6, Type 0, BuildingBlock: TATPOV_clean_sbu_0, # of connection points: 4
#     Node 7, Type 0, BuildingBlock: TATPOV_clean_sbu_0, # of connection points: 4
#     Node 8, Type 0, BuildingBlock: TATPOV_clean_sbu_0, # of connection points: 4
#     Node 9, Type 0, BuildingBlock: TATPOV_clean_sbu_0, # of connection points: 4
#     Node 10, Type 0, BuildingBlock: TATPOV_clean_sbu_0, # of connection points: 4
#     Node 11, Type 0, BuildingBlock: TATPOV_clean_sbu_0, # of connection points: 4
#     Node 12, Type 0, BuildingBlock: TATPOV_clean_sbu_0, # of connection points: 4
#     Node 13, Type 0, BuildingBlock: TATPOV_clean_sbu_0, # of connection points: 4
#     Node 14, Type 0, BuildingBlock: TATPOV_clean_sbu_0, # of connection points: 4
#     Node 15, Type 0, BuildingBlock: TATPOV_clean_sbu_0, # of connection points: 4
#     Edge 16, Type (0, 0), BuildingBlock: AJUNOK_clean_linker_0, # of connection points: 2
#     Edge 17, Type (0, 0), BuildingBlock: AJUNOK_clean_linker_0, # of connection points: 2
#     Edge 18, Type (0, 0), BuildingBlock: AJUNOK_clean_linker_0, # of connection points: 2
#     Edge 19, Type (0, 0), BuildingBlock: AJUNOK_clean_linker_0, # of connection points: 2
#     Edge 20, Type (0, 0), BuildingBlock: AJUNOK_clean_linker_0, # of connection points: 2
#     Edge 21, Type (0, 0), BuildingBlock: AJUNOK_clean_linker_0, # of connection points: 2
#     Edge 22, Type (0, 0), BuildingBlock: AJUNOK_clean_linker_0, # of connection points: 2
#     Edge 23, Type (0, 0), BuildingBlock: AJUNOK_clean_linker_0, # of connection points: 2
#     Edge 24, Type (0, 0), BuildingBlock: AJUNOK_clean_linker_0, # of connection points: 2
#     Edge 25, Type (0, 0), BuildingBlock: AJUNOK_clean_linker_0, # of connection points: 2
#     Edge 26, Type (0, 0), BuildingBlock: AJUNOK_clean_linker_0, # of connection points: 2
#     Edge 27, Type (0, 0), BuildingBlock: AJUNOK_clean_linker_0, # of connection points: 2
#     Edge 28, Type (0, 0), BuildingBlock: AJUNOK_clean_linker_0, # of connection points: 2
#     Edge 29, Type (0, 0), BuildingBlock: AJUNOK_clean_linker_0, # of connection points: 2
#     Edge 30, Type (0, 0), BuildingBlock: AJUNOK_clean_linker_0, # of connection points: 2
#     Edge 31, Type (0, 0), BuildingBlock: AJUNOK_clean_linker_0, # of connection points: 2
#     Edge 32, Type (0, 0), BuildingBlock: AJUNOK_clean_linker_0, # of connection points: 2
#     Edge 33, Type (0, 0), BuildingBlock: AJUNOK_clean_linker_0, # of connection points: 2
#     Edge 34, Type (0, 0), BuildingBlock: AJUNOK_clean_linker_0, # of connection points: 2
#     Edge 35, Type (0, 0), BuildingBlock: AJUNOK_clean_linker_0, # of connection points: 2
#     Edge 36, Type (0, 0), BuildingBlock: AJUNOK_clean_linker_0, # of connection points: 2
#     Edge 37, Type (0, 0), BuildingBlock: AJUNOK_clean_linker_0, # of connection points: 2
#     Edge 38, Type (0, 0), BuildingBlock: AJUNOK_clean_linker_0, # of connection points: 2
#     Edge 39, Type (0, 0), BuildingBlock: AJUNOK_clean_linker_0, # of connection points: 2
#     Edge 40, Type (0, 0), BuildingBlock: AJUNOK_clean_linker_0, # of connection points: 2
#     Edge 41, Type (0, 0), BuildingBlock: AJUNOK_clean_linker_0, # of connection points: 2
#     Edge 42, Type (0, 0), BuildingBlock: AJUNOK_clean_linker_0, # of connection points: 2
#     Edge 43, Type (0, 0), BuildingBlock: AJUNOK_clean_linker_0, # of connection points: 2
#     Edge 44, Type (0, 0), BuildingBlock: AJUNOK_clean_linker_0, # of connection points: 2
#     Edge 45, Type (0, 0), BuildingBlock: AJUNOK_clean_linker_0, # of connection points: 2
#     Edge 46, Type (0, 0), BuildingBlock: AJUNOK_clean_linker_0, # of connection points: 2
#     Edge 47, Type (0, 0), BuildingBlock: AJUNOK_clean_linker_0, # of connection points: 2
# Relax obj value: 0.144
# Max RMSD: 0.164
# Mean RMSD: 0.142
data_MOF--net-gis--node1-TATPOV_clean_sbu_0--edge1-AJUNOK_clean_linker_0
_symmetry_space_group_name_H-M    P1
_symmetry_Int_Tables_number       1
_symmetry_cell_setting            triclinic
loop_
_symmetry_equiv_pos_as_xyz
'x, y, z'
_cell_length_a     34.82327
_cell_length_b     34.884094
_cell_length_c     34.961563
_cell_angle_alpha  91.082633
_cell_angle_beta   91.431465
_cell_angle_gamma 90.297409
loop_
_atom_site_label
_atom_site_type_symbol
_atom_site_fract_x
_atom_site_fract_y
_atom_site_fract_z
_atom_type_partial_charge
Zn0 Zn 0.13944 0.64606 0.04025 0.0
Zn1 Zn 0.15369 0.61213 0.10698 0.0
O2 O 0.18245 0.5828 0.06495 0.0
O3 O 0.17411 0.61157 0.01018 0.0
O4 O 0.17323 0.58426 0.15335 0.0
O5 O 0.15821 0.69638 0.06277 0.0
O6 O 0.16712 0.66879 0.1183 0.0
C7 C 0.18885 0.58474 0.02929 0.0
C8 C 0.072 0.61347 0.07756 0.0
O9 O 0.09563 0.604 0.10407 0.0
O10 O 0.0839 0.63035 0.04824 0.0
C11 C 0.16283 0.58634 0.18791 0.0
O12 O 0.13492 0.60962 0.19728 0.0
C13 C 0.16737 0.69877 0.09802 0.0
Zn14 Zn 0.65169 0.88148 0.47319 0.0
Zn15 Zn 0.68242 0.90282 0.40723 0.0
O16 O 0.70423 0.94179 0.44711 0.0
O17 O 0.68563 0.91933 0.50215 0.0
O18 O 0.70832 0.91504 0.35786 0.0
O19 O 0.66678 0.82629 0.4658 0.0
O20 O 0.69172 0.84456 0.41194 0.0
C21 C 0.70367 0.94405 0.48347 0.0
C22 C 0.59702 0.91167 0.41671 0.0
O23 O 0.62634 0.9138 0.39585 0.0
O24 O 0.6004 0.8995 0.45059 0.0
C25 C 0.72307 0.94711 0.34935 0.0
O26 O 0.72216 0.9758 0.37418 0.0
C27 C 0.68384 0.81806 0.43524 0.0
Zn28 Zn 0.35984 0.39959 0.54787 0.0
Zn29 Zn 0.32546 0.41528 0.61227 0.0
O30 O 0.30462 0.45796 0.57575 0.0
O31 O 0.33312 0.4422 0.522 0.0
O32 O 0.29821 0.42223 0.66272 0.0
O33 O 0.33779 0.34678 0.54378 0.0
O34 O 0.31015 0.35855 0.59858 0.0
C35 C 0.31097 0.46384 0.54049 0.0
C36 C 0.41379 0.42064 0.60759 0.0
O37 O 0.38335 0.42331 0.62712 0.0
O38 O 0.41145 0.41016 0.57276 0.0
C39 C 0.26636 0.439 0.66805 0.0
O40 O 0.24925 0.45638 0.63936 0.0
C41 C 0.3169 0.33579 0.57057 0.0
Zn42 Zn 0.85602 0.08751 0.78657 0.0
Zn43 Zn 0.8441 0.0627 0.85787 0.0
O44 O 0.80535 0.0316 0.82485 0.0
O45 O 0.81778 0.04887 0.76625 0.0
O46 O 0.83197 0.04718 0.91117 0.0
O47 O 0.91069 0.07195 0.79361 0.0
O48 O 0.90167 0.05097 0.85174 0.0
C49 C 0.79883 0.02873 0.78894 0.0
C50 C 0.83069 0.14694 0.83672 0.0
O51 O 0.8323 0.11944 0.86004 0.0
O52 O 0.83929 0.14129 0.80209 0.0
C53 C 0.79737 0.04656 0.92206 0.0
O54 O 0.76949 0.05577 0.89802 0.0
C55 C 0.92373 0.05688 0.82388 0.0
Zn56 Zn 0.16749 0.37076 0.95993 0.0
Zn57 Zn 0.17303 0.39258 0.88835 0.0
O58 O 0.19785 0.43587 0.92177 0.0
O59 O 0.2008 0.41384 0.98015 0.0
O60 O 0.1914 0.40247 0.83485 0.0
O61 O 0.18765 0.31745 0.95296 0.0
O62 O 0.19024 0.33655 0.89369 0.0
C63 C 0.20754 0.44035 0.95699 0.0
C64 C 0.09421 0.39087 0.91906 0.0
O65 O 0.11414 0.3965 0.88952 0.0
O66 O 0.11059 0.3808 0.95012 0.0
C67 C 0.1891 0.43222 0.81448 0.0
O68 O 0.17022 0.46218 0.82718 0.0
C69 C 0.1949 0.31041 0.91832 0.0
Zn70 Zn 0.84651 0.89104 0.06539 0.0
Zn71 Zn 0.81477 0.91697 0.1281 0.0
O72 O 0.79497 0.95469 0.08659 0.0
O73 O 0.81711 0.92775 0.034 0.0
O74 O 0.78709 0.93086 0.17625 0.0
O75 O 0.82579 0.83839 0.0705 0.0
O76 O 0.79892 0.85957 0.12312 0.0
C77 C 0.79785 0.95363 0.05026 0.0
C78 C 0.90159 0.92109 0.12131 0.0
O79 O 0.87199 0.92592 0.14153 0.0
O80 O 0.89816 0.90691 0.08777 0.0
C81 C 0.79765 0.95489 0.20224 0.0
O82 O 0.82872 0.97562 0.19757 0.0
C83 C 0.80518 0.83261 0.09905 0.0
Zn84 Zn 0.36087 0.58568 0.28471 0.0
Zn85 Zn 0.34066 0.58671 0.35382 0.0
O86 O 0.29431 0.56613 0.31985 0.0
O87 O 0.3171 0.55543 0.26274 0.0
O88 O 0.32601 0.57526 0.40825 0.0
O89 O 0.41181 0.56183 0.29208 0.0
O90 O 0.39694 0.5649 0.35259 0.0
C91 C 0.28934 0.55445 0.28524 0.0
C92 C 0.3483 0.66247 0.31786 0.0
O93 O 0.34219 0.64479 0.34872 0.0
O94 O 0.35625 0.6437 0.2877 0.0
C95 C 0.29272 0.56601 0.41934 0.0
O96 O 0.26357 0.56647 0.39479 0.0
C97 C 0.42113 0.55694 0.32677 0.0
Zn98 Zn 0.61132 0.10783 0.70925 0.0
Zn99 Zn 0.6423 0.09341 0.64163 0.0
O100 O 0.66773 0.05702 0.68056 0.0
O101 O 0.63815 0.06449 0.73486 0.0
O102 O 0.66572 0.07637 0.59211 0.0
O103 O 0.5589 0.09943 0.68627 0.0
O104 O 0.58467 0.08562 0.63093 0.0
C105 C 0.66302 0.04745 0.71516 0.0
C106 C 0.65243 0.17235 0.67753 0.0
O107 O 0.65634 0.15025 0.6485 0.0
O108 O 0.63605 0.16036 0.70703 0.0
C109 C 0.70076 0.06666 0.58997 0.0
O110 O 0.72346 0.07061 0.62038 0.0
C111 C 0.55515 0.08951 0.6514 0.0
Zn112 Zn 0.86378 0.34553 0.9636 0.0
Zn113 Zn 0.84479 0.38493 0.90067 0.0
O114 O 0.81836 0.40857 0.94761 0.0
O115 O 0.8312 0.37574 -0.00069 0.0
O116 O 0.81937 0.416 0.85906 0.0
O117 O 0.84276 0.2977 0.93827 0.0
O118 O 0.8307 0.3293 0.88539 0.0
C119 C 0.81417 0.40321 0.98325 0.0
C120 C 0.92819 0.38298 0.92476 0.0
O121 O 0.90329 0.39415 0.90006 0.0
O122 O 0.91792 0.36347 0.95306 0.0
C123 C 0.82764 0.4194 0.82409 0.0
O124 O 0.85797 0.40174 0.81096 0.0
C125 C 0.83082 0.29814 0.90381 0.0
Zn126 Zn 0.3464 0.1106 0.52295 0.0
Zn127 Zn 0.31605 0.09166 0.58972 0.0
O128 O 0.29722 0.04991 0.55154 0.0
O129 O 0.31703 0.06844 0.49549 0.0
O130 O 0.29227 0.07348 0.63783 0.0
O131 O 0.32364 0.16292 0.52887 0.0
O132 O 0.29908 0.14845 0.58424 0.0
C133 C 0.29899 0.04491 0.51552 0.0
C134 C 0.40271 0.09177 0.58121 0.0
O135 O 0.37289 0.08824 0.60104 0.0
O136 O 0.3995 0.1003 0.54619 0.0
C137 C 0.30804 0.05109 0.66184 0.0
O138 O 0.3433 0.03915 0.65713 0.0
C139 C 0.30514 0.17273 0.55816 0.0
Zn140 Zn 0.64761 0.60771 0.31907 0.0
Zn141 Zn 0.66547 0.57414 0.38357 0.0
O142 O 0.70696 0.55466 0.34559 0.0
O143 O 0.68775 0.57974 0.29097 0.0
O144 O 0.67654 0.54507 0.43222 0.0
O145 O 0.59416 0.58713 0.31775 0.0
O146 O 0.60777 0.55959 0.37253 0.0
C147 C 0.71088 0.55914 0.30974 0.0
C148 C 0.6718 0.66134 0.37871 0.0
O149 O 0.67416 0.63121 0.39876 0.0
O150 O 0.6611 0.65877 0.34386 0.0
C151 C 0.68088 0.50887 0.43077 0.0
O152 O 0.67963 0.49134 0.39717 0.0
C153 C 0.58399 0.56676 0.34527 0.0
Zn154 Zn 0.12502 0.9102 0.21334 0.0
Zn155 Zn 0.14311 0.93673 0.14345 0.0
O156 O 0.18073 0.96452 0.18025 0.0
O157 O 0.16336 0.94744 0.23752 0.0
O158 O 0.15357 0.9588 0.0917 0.0
O159 O 0.06924 0.92402 0.20512 0.0
O160 O 0.08511 0.94455 0.14856 0.0
C161 C 0.18535 0.96632 0.21645 0.0
C162 C 0.15573 0.85257 0.1607 0.0
O163 O 0.1566 0.88039 0.13766 0.0
O164 O 0.14378 0.85787 0.19437 0.0
C165 C 0.18579 0.97247 0.08209 0.0
O166 O 0.21472 0.97269 0.10692 0.0
C167 C 0.05964 0.93822 0.17328 0.0
Zn168 Zn 0.82895 0.61235 0.05271 0.0
Zn169 Zn 0.82977 0.59471 0.1246 0.0
O170 O 0.80391 0.54934 0.09427 0.0
O171 O 0.79816 0.56753 0.03466 0.0
O172 O 0.82167 0.58099 0.17978 0.0
O173 O 0.80326 0.66205 0.06076 0.0
O174 O 0.80644 0.64963 0.12212 0.0
C175 C 0.79269 0.54269 0.05977 0.0
C176 C 0.90576 0.60156 0.08629 0.0
O177 O 0.88797 0.59547 0.11704 0.0
O178 O 0.88695 0.60893 0.0558 0.0
C179 C 0.81565 0.54711 0.19124 0.0
O180 O 0.81745 0.5182 0.16676 0.0
C181 C 0.79728 0.67205 0.09498 0.0
Zn182 Zn 0.15059 0.10821 0.80005 0.0
Zn183 Zn 0.17089 0.07064 0.85977 0.0
O184 O 0.20774 0.04839 0.8188 0.0
O185 O 0.18312 0.07608 0.76769 0.0
O186 O 0.17961 0.03973 0.90726 0.0
O187 O 0.09564 0.09473 0.80191 0.0
O188 O 0.11262 0.05935 0.85083 0.0
C189 C 0.20677 0.05314 0.78267 0.0
C190 C 0.18444 0.15732 0.85695 0.0
O191 O 0.18443 0.12659 0.87615 0.0
O192 O 0.17176 0.15697 0.82274 0.0
C193 C 0.20091 0.04857 0.93615 0.0
O194 O 0.22285 0.07926 0.93512 0.0
C195 C 0.087 0.07112 0.82726 0.0
Zn196 Zn 0.62777 0.40604 0.71992 0.0
Zn197 Zn 0.65487 0.41602 0.65262 0.0
O198 O 0.69514 0.43691 0.69265 0.0
O199 O 0.66638 0.43983 0.74773 0.0
O200 O 0.67108 0.43931 0.60283 0.0
O201 O 0.57321 0.42179 0.70895 0.0
O202 O 0.5967 0.42893 0.65196 0.0
C203 C 0.69599 0.44541 0.7283 0.0
C204 C 0.65646 0.33665 0.67875 0.0
O205 O 0.66152 0.358 0.65011 0.0
O206 O 0.64346 0.35064 0.70958 0.0
C207 C 0.67523 0.42146 0.57117 0.0
O208 O 0.67081 0.38404 0.56984 0.0
C209 C 0.56811 0.42981 0.67409 0.0
Zn210 Zn 0.39137 0.90013 0.28758 0.0
Zn211 Zn 0.35888 0.90552 0.35657 0.0
O212 O 0.3271 0.94019 0.32129 0.0
O213 O 0.35512 0.93955 0.26576 0.0
O214 O 0.33633 0.91619 0.40773 0.0
O215 O 0.44286 0.91565 0.31088 0.0
O216 O 0.41541 0.91866 0.36671 0.0
C217 C 0.32866 0.9516 0.28698 0.0
C218 C 0.35894 0.82853 0.31678 0.0
O219 O 0.35079 0.84868 0.34615 0.0
O220 O 0.37516 0.8438 0.2887 0.0
C221 C 0.30063 0.92108 0.41251 0.0
O222 O 0.27653 0.91534 0.38344 0.0
C223 C 0.4453 0.92139 0.34673 0.0
C224 C 0.1711 0.8068 0.10757 0.0
C225 C 0.1656 0.81342 0.14687 0.0
C226 C 0.17448 0.7696 0.09248 0.0
C227 C 0.17264 0.73738 0.11601 0.0
H228 H 0.17097 0.83035 0.08784 0.0
H229 H 0.17673 0.76613 0.06174 0.0
S230 S 0.16553 0.73933 0.22185 0.0
N231 N 0.16363 0.78483 0.20983 0.0
N232 N 0.16998 0.71481 0.18138 0.0
C233 C 0.17043 0.74366 0.1558 0.0
C234 C 0.16682 0.78169 0.17122 0.0
C235 C 0.51675 0.92532 0.34339 0.0
C236 C 0.48366 0.92609 0.36568 0.0
C237 C 0.55342 0.9226 0.3603 0.0
C238 C 0.55852 0.92039 0.40025 0.0
H239 H 0.51438 0.92509 0.31241 0.0
H240 H 0.57774 0.92042 0.34171 0.0
S241 S 0.48191 0.92793 0.47196 0.0
N242 N 0.45881 0.92936 0.43022 0.0
N243 N 0.52782 0.92409 0.46198 0.0
C244 C 0.52598 0.92395 0.42308 0.0
C245 C 0.48854 0.9269 0.40584 0.0
C246 C 0.29791 0.27688 0.53377 0.0
C247 C 0.3031 0.29552 0.56954 0.0
C248 C 0.29437 0.23702 0.53076 0.0
C249 C 0.29618 0.21402 0.56337 0.0
H250 H 0.29888 0.29304 0.50763 0.0
H251 H 0.29293 0.22397 0.50238 0.0
S252 S 0.30284 0.24926 0.66417 0.0
N253 N 0.30452 0.28858 0.63863 0.0
N254 N 0.29827 0.21323 0.63299 0.0
C255 C 0.29738 0.23249 0.59957 0.0
C256 C 0.30081 0.2734 0.60265 0.0
C257 C 0.02628 0.05293 0.79384 0.0
C258 C 0.04691 0.05788 0.82858 0.0
C259 C 0.98645 0.04891 0.79306 0.0
C260 C 0.96557 0.05023 0.82698 0.0
H261 H 0.04086 0.05415 0.76685 0.0
H262 H 0.97176 0.04716 0.76538 0.0
S263 S 0.00698 0.05653 0.92576 0.0
N264 N 0.04461 0.05881 0.89799 0.0
N265 N 0.96903 0.05189 0.89666 0.0
C266 C 0.98616 0.05154 0.86218 0.0
C267 C 0.02709 0.05528 0.86293 0.0
C268 C 0.19212 0.23964 0.92851 0.0
C269 C 0.20207 0.27053 0.90521 0.0
C270 C 0.1893 0.20212 0.9135 0.0
C271 C 0.19622 0.19439 0.87472 0.0
H272 H 0.18383 0.24472 0.95782 0.0
H273 H 0.17899 0.17965 0.93166 0.0
S274 S 0.23199 0.26339 0.80417 0.0
N275 N 0.22546 0.28953 0.84329 0.0
N276 N 0.21988 0.21919 0.81511 0.0
C277 C 0.20994 0.22427 0.85223 0.0
C278 C 0.21299 0.26233 0.86749 0.0
C279 C 0.96993 0.93777 0.11044 0.0
C280 C 0.94046 0.93131 0.13639 0.0
C281 C 0.00804 0.94289 0.12302 0.0
C282 C 0.01842 0.94122 0.1621 0.0
H283 H 0.96375 0.93779 0.07991 0.0
H284 H 0.02971 0.94608 0.1016 0.0
S285 S 0.95134 0.93017 0.24217 0.0
N286 N 0.92348 0.92762 0.20327 0.0
N287 N 0.99542 0.93672 0.22709 0.0
C288 C 0.98889 0.93727 0.18862 0.0
C289 C 0.94984 0.93247 0.17574 0.0
C290 C 0.34821 0.72669 0.3513 0.0
C291 C 0.34732 0.70493 0.31698 0.0
C292 C 0.35046 0.76683 0.35099 0.0
C293 C 0.35205 0.78666 0.31637 0.0
H294 H 0.34832 0.71264 0.37867 0.0
H295 H 0.35239 0.7823 0.37814 0.0
S296 S 0.34497 0.74362 0.21857 0.0
N297 N 0.34409 0.70665 0.2473 0.0
N298 N 0.34864 0.78189 0.24691 0.0
C299 C 0.34928 0.76541 0.28186 0.0
C300 C 0.34683 0.72462 0.28212 0.0
C301 C 0.51101 0.08671 0.59398 0.0
C302 C 0.51621 0.08554 0.63397 0.0
C303 C 0.47417 0.08779 0.57709 0.0
C304 C 0.44118 0.08754 0.59952 0.0
H305 H 0.53551 0.08815 0.57559 0.0
H306 H 0.47166 0.08962 0.54622 0.0
S307 S 0.43928 0.08104 0.70551 0.0
N308 N 0.48531 0.08126 0.69547 0.0
N309 N 0.41623 0.08376 0.66388 0.0
C310 C 0.44602 0.08473 0.6395 0.0
C311 C 0.48349 0.08361 0.65666 0.0
C312 C 0.83247 0.21824 0.82973 0.0
C313 C 0.8225 0.1861 0.85125 0.0
C314 C 0.83203 0.2553 0.84596 0.0
C315 C 0.82178 0.2613 0.88423 0.0
H316 H 0.84292 0.21463 0.80097 0.0
H317 H 0.8424 0.27892 0.82931 0.0
S318 S 0.7851 0.1881 0.94985 0.0
N319 N 0.79579 0.16373 0.91066 0.0
N320 N 0.79557 0.23326 0.94113 0.0
C321 C 0.80834 0.22997 0.90479 0.0
C322 C 0.80853 0.19237 0.88829 0.0
C323 C 0.68896 0.73017 0.37075 0.0
C324 C 0.68074 0.69989 0.39539 0.0
C325 C 0.69289 0.76795 0.38446 0.0
C326 C 0.6883 0.77723 0.4234 0.0
H327 H 0.69126 0.72489 0.34025 0.0
H328 H 0.69744 0.79025 0.36388 0.0
S329 S 0.67177 0.70787 0.50073 0.0
N330 N 0.67222 0.68113 0.46127 0.0
N331 N 0.6792 0.75234 0.48717 0.0
C332 C 0.68261 0.74691 0.44882 0.0
C333 C 0.67895 0.70823 0.4348 0.0
C334 C 0.80222 0.73212 0.1349 0.0
C335 C 0.78649 0.71233 0.10265 0.0
C336 C 0.80433 0.77237 0.13586 0.0
C337 C 0.79072 0.79361 0.10464 0.0
H338 H 0.81642 0.71654 0.15769 0.0
H339 H 0.82 0.78657 0.15929 0.0
S340 S 0.73855 0.75603 0.01826 0.0
N341 N 0.75028 0.71747 0.04252 0.0
N342 N 0.75515 0.79287 0.04413 0.0
C343 C 0.77089 0.77444 0.07459 0.0
C344 C 0.76841 0.73375 0.07371 0.0
C345 C 0.65695 0.27406 0.64227 0.0
C346 C 0.66379 0.295 0.67656 0.0
C347 C 0.65636 0.23376 0.64196 0.0
C348 C 0.66259 0.2134 0.67594 0.0
H349 H 0.64955 0.28879 0.61612 0.0
H350 H 0.64833 0.21864 0.61559 0.0
S351 S 0.69042 0.25486 0.7711 0.0
N352 N 0.68333 0.29238 0.74377 0.0
N353 N 0.68194 0.21693 0.74316 0.0
C354 C 0.67298 0.23403 0.70949 0.0
C355 C 0.67365 0.27481 0.70981 0.0
C356 C 0.03263 0.39521 0.95337 0.0
C357 C 0.05167 0.39461 0.9183 0.0
C358 C 0.99267 0.3935 0.95477 0.0
C359 C 0.96968 0.39139 0.92121 0.0
H360 H 0.04872 0.39582 0.9803 0.0
H361 H 0.97971 0.39269 0.98261 0.0
S362 S 0.0045 0.39283 0.82186 0.0
N363 N 0.04412 0.39469 0.84888 0.0
N364 N 0.96844 0.39171 0.85166 0.0
C365 C 0.98791 0.3932 0.88581 0.0
C366 C 0.02902 0.39474 0.88432 0.0
C367 C 0.52637 0.54087 0.31072 0.0
C368 C 0.54367 0.55344 0.34545 0.0
C369 C 0.48645 0.53803 0.30637 0.0
C370 C 0.46206 0.54846 0.33635 0.0
H371 H 0.54377 0.53544 0.28594 0.0
H372 H 0.47466 0.53032 0.27828 0.0
S373 S 0.49367 0.57717 0.43506 0.0
N374 N 0.53411 0.57133 0.41195 0.0
N375 N 0.45864 0.56681 0.40376 0.0
C376 C 0.47916 0.55745 0.37243 0.0
C377 C 0.52013 0.55984 0.37695 0.0
C378 C 0.49644 0.42663 0.68071 0.0
C379 C 0.52842 0.43435 0.65799 0.0
C380 C 0.4591 0.42396 0.66465 0.0
C381 C 0.45232 0.42867 0.62522 0.0
H382 H 0.50036 0.42088 0.71088 0.0
H383 H 0.43571 0.41639 0.68296 0.0
S384 S 0.52493 0.45564 0.55424 0.0
N385 N 0.5498 0.45135 0.59472 0.0
N386 N 0.47995 0.44613 0.56465 0.0
C387 C 0.4836 0.43892 0.60266 0.0
C388 C 0.52152 0.44186 0.619 0.0
C389 C 0.00624 0.60991 0.04819 0.0
C390 C 0.03017 0.60657 0.08092 0.0
C391 C 0.96636 0.60725 0.05035 0.0
C392 C 0.94839 0.60128 0.0854 0.0
H393 H 0.0183 0.61522 0.02051 0.0
H394 H 0.94953 0.61064 0.02417 0.0
S395 S -0.00191 0.58844 0.17948 0.0
N396 N 0.0332 0.59524 0.14941 0.0
N397 N 0.95787 0.59029 0.15355 0.0
C398 C 0.97196 0.5966 0.1183 0.0
C399 C 0.01288 0.59919 0.11605 0.0
C400 C 0.21776 0.5195 0.03066 0.0
C401 C 0.20706 0.55178 0.00943 0.0
C402 C 0.22297 0.48381 0.01269 0.0
C403 C 0.21752 0.47902 0.97283 0.0
H404 H 0.2189 0.52086 0.06166 0.0
H405 H 0.22774 0.45924 0.03066 0.0
S406 S 0.20212 0.55701 0.90341 0.0
N407 N 0.20074 0.57862 0.94577 0.0
N408 N 0.21037 0.51138 0.91199 0.0
C409 C 0.21284 0.51216 0.95087 0.0
C410 C 0.20755 0.54863 0.9692 0.0
C411 C 0.73407 0.92365 0.28263 0.0
C412 C 0.74114 0.95149 0.31163 0.0
C413 C 0.7516 0.92579 0.24717 0.0
C414 C 0.77738 0.95564 0.23915 0.0
H415 H 0.71492 0.89972 0.28734 0.0
H416 H 0.74545 0.90318 0.22621 0.0
S417 S 0.8046 0.03685 0.30463 0.0
N418 N 0.7747 0.01081 0.32944 0.0
N419 N 0.80803 0.01459 0.26277 0.0
C420 C 0.78421 0.98417 0.26756 0.0
C421 C 0.76599 0.98218 0.30373 0.0
C422 C 0.32202 0.5285 0.51632 0.0
C423 C 0.29649 0.49767 0.52052 0.0
C424 C 0.31846 0.55297 0.48511 0.0
C425 C 0.28919 0.54743 0.457 0.0
H426 H 0.34714 0.53139 0.53512 0.0
H427 H 0.34051 0.57453 0.4815 0.0
S428 S 0.21154 0.47414 0.45869 0.0
N429 N 0.23864 0.46538 0.49695 0.0
N430 N 0.23105 0.51178 0.43857 0.0
C431 C 0.26104 0.51919 0.46326 0.0
C432 C 0.26499 0.49409 0.49495 0.0
C433 C 0.69424 0.02449 0.77522 0.0
C434 C 0.69206 0.02349 0.73488 0.0
C435 C 0.72923 0.01848 0.79465 0.0
C436 C 0.7627 0.01151 0.77409 0.0
H437 H 0.67033 0.03479 0.7917 0.0
H438 H 0.73097 0.02509 0.82505 0.0
S439 S 0.76774 0.98764 0.6709 0.0
N440 N 0.72283 0.00118 0.67681 0.0
N441 N 0.78883 0.99037 0.71367 0.0
C442 C 0.75884 0.00197 0.73505 0.0
C443 C 0.72328 0.00801 0.7152 0.0
C444 C 0.80655 0.43763 0.04568 0.0
C445 C 0.79554 0.43305 0.00682 0.0
C446 C 0.80035 0.47232 0.06533 0.0
C447 C 0.78299 0.50331 0.0466 0.0
H448 H 0.82355 0.41597 0.05993 0.0
H449 H 0.81322 0.47614 0.09368 0.0
S450 S 0.73689 0.5008 0.94993 0.0
N451 N 0.75762 0.45854 0.95384 0.0
N452 N 0.74585 0.52374 0.99094 0.0
C453 C 0.76626 0.49673 0.01007 0.0
C454 C 0.77268 0.46154 0.99001 0.0
C455 C 0.22302 0.02624 0.7199 0.0
C456 C 0.23559 0.03688 0.75716 0.0
C457 C 0.24784 0.0279 0.68927 0.0
C458 C 0.28621 0.03937 0.69506 0.0
H459 H 0.19282 0.02066 0.71376 0.0
H460 H 0.23626 0.02284 0.66054 0.0
S461 S 0.33505 0.06279 0.78791 0.0
N462 N 0.29001 0.05403 0.79898 0.0
N463 N 0.33731 0.05585 0.74112 0.0
C464 C 0.30043 0.04527 0.73266 0.0
C465 C 0.27489 0.04412 0.76396 0.0
C466 C 0.67584 0.50434 0.50199 0.0
C467 C 0.68342 0.48645 0.46657 0.0
C468 C 0.6745 0.48329 0.53573 0.0
C469 C 0.68063 0.44339 0.53557 0.0
H470 H 0.66978 0.53474 0.50365 0.0
H471 H 0.66743 0.49839 0.56196 0.0
S472 S 0.70612 0.38342 0.45117 0.0
N473 N 0.70044 0.42684 0.43402 0.0
N474 N 0.69781 0.38737 0.49735 0.0
C475 C 0.6899 0.42538 0.50065 0.0
C476 C 0.69132 0.44686 0.46624 0.0
C477 C 0.2915 0.97281 0.22936 0.0
C478 C 0.29532 0.97172 0.26953 0.0
C479 C 0.25544 0.97727 0.21147 0.0
C480 C 0.22216 0.9806 0.23324 0.0
H481 H 0.31561 0.96607 0.21148 0.0
H482 H 0.25332 0.97331 0.18068 0.0
S483 S 0.21899 0.99534 0.33816 0.0
N484 N 0.2646 0.98625 0.32991 0.0
N485 N 0.19667 0.99409 0.29597 0.0
C486 C 0.22663 0.9866 0.27288 0.0
C487 C 0.26335 0.98223 0.29118 0.0
C488 C 0.73412 0.00874 0.56531 0.0
C489 C 0.71202 0.0415 0.55776 0.0
C490 C 0.73492 0.97798 0.53901 0.0
C491 C 0.715 0.97979 0.50371 0.0
H492 H 0.74776 0.00518 0.59307 0.0
H493 H 0.74875 0.9516 0.54748 0.0
S494 S 0.65979 0.06245 0.46699 0.0
N495 N 0.67433 0.07617 0.51048 0.0
N496 N 0.67742 0.01906 0.46015 0.0
C497 C 0.6969 0.01426 0.49388 0.0
C498 C 0.69502 0.04505 0.52117 0.0
C499 C 0.21854 0.46332 0.71531 0.0
C500 C 0.24761 0.43714 0.7058 0.0
C501 C 0.19993 0.46169 0.75048 0.0
C502 C 0.20915 0.4334 0.77735 0.0
H503 H 0.21018 0.48548 0.69552 0.0
H504 H 0.17787 0.4826 0.75645 0.0
S505 S 0.28285 0.35752 0.76618 0.0
N506 N 0.28459 0.38185 0.72624 0.0
N507 N 0.2495 0.37845 0.79183 0.0
C508 C 0.23806 0.40687 0.76809 0.0
C509 C 0.25732 0.40885 0.73252 0.0
C510 C 0.81354 0.0384 0.99106 0.0
C511 C 0.7888 0.0304 0.95951 0.0
C512 C 0.81189 0.01667 0.02426 0.0
C513 C 0.78608 0.98577 0.02646 0.0
H514 H 0.83595 0.05989 0.98909 0.0
H515 H 0.83377 0.02132 0.04649 0.0
S516 S 0.7123 0.95615 0.95366 0.0
N517 N 0.7346 0.99269 0.93439 0.0
N518 N 0.73288 0.95064 0.99628 0.0
C519 C 0.75905 0.97968 0.99655 0.0
C520 C 0.76008 0.00236 0.96308 0.0
C521 C 0.19066 0.58517 0.25468 0.0
C522 C 0.18757 0.56854 0.21773 0.0
C523 C 0.22155 0.57624 0.27949 0.0
C524 C 0.25029 0.55054 0.26798 0.0
H525 H 0.17126 0.60776 0.26322 0.0
H526 H 0.22506 0.59269 0.30596 0.0
S527 S 0.24919 0.49134 0.17881 0.0
N528 N 0.21105 0.519 0.17444 0.0
N529 N 0.26922 0.50272 0.22084 0.0
C530 C 0.24451 0.52998 0.23338 0.0
C531 C 0.21313 0.53893 0.20823 0.0
C532 C 0.26418 0.00731 0.46478 0.0
C533 C 0.28796 0.00802 0.49774 0.0
C534 C 0.26418 0.97571 0.43948 0.0
C535 C 0.28931 0.94487 0.44559 0.0
H536 H 0.24783 0.03247 0.457 0.0
H537 H 0.24758 0.97745 0.4131 0.0
S538 S 0.35227 0.93065 0.53106 0.0
N539 N 0.3325 0.97302 0.53843 0.0
N540 N 0.33405 0.91438 0.48976 0.0
C541 C 0.31014 0.94361 0.48044 0.0
C542 C 0.30917 0.9752 0.5068 0.0
C543 C 0.76669 0.51535 0.23087 0.0
C544 C 0.79694 0.54206 0.22832 0.0
C545 C 0.74077 0.51768 0.2609 0.0
C546 C 0.74508 0.54592 0.28985 0.0
H547 H 0.76064 0.49503 0.20766 0.0
H548 H 0.71538 0.49955 0.25962 0.0
S549 S 0.82349 0.6177 0.30018 0.0
N550 N 0.83265 0.59413 0.26002 0.0
N551 N 0.78442 0.59768 0.31697 0.0
C552 C 0.7776 0.5698 0.28994 0.0
C553 C 0.8035 0.56806 0.25901 0.0
C554 C 0.22125 0.01442 0.03731 0.0
C555 C 0.19017 0.98963 0.04389 0.0
C556 C 0.22491 0.03275 0.00219 0.0
C557 C 0.19791 0.02667 0.97203 0.0
H558 H 0.24253 0.0205 0.05976 0.0
H559 H 0.24893 0.05216 0.99886 0.0
S560 S 0.11222 0.96273 0.97388 0.0
N561 N 0.1326 0.95882 0.01673 0.0
N562 N 0.13954 0.99287 0.95079 0.0
C563 C 0.16724 0.00105 0.97787 0.0
C564 C 0.16333 0.98269 0.01375 0.0
C565 C 0.76653 0.43364 0.73438 0.0
C566 C 0.73338 0.45106 0.74896 0.0
C567 C 0.79861 0.42635 0.75822 0.0
C568 C 0.79872 0.43633 0.79743 0.0
H569 H 0.76648 0.42234 0.70531 0.0
H570 H 0.82211 0.41012 0.74642 0.0
S571 S 0.72328 0.49198 0.84673 0.0
N572 N 0.70571 0.48484 0.80289 0.0
N573 N 0.76598 0.4716 0.84766 0.0
C574 C 0.7677 0.45801 0.81106 0.0
C575 C 0.73506 0.4653 0.78681 0.0
loop_
_geom_bond_atom_site_label_1
_geom_bond_atom_site_label_2
_geom_bond_distance
_geom_bond_site_symmetry_2
_ccdc_geom_bond_type
Zn0 O3 2.031 . S
Zn0 O5 2.049 . S
Zn0 O10 2.067 . S
Zn1 O2 1.962 . S
Zn1 O4 1.986 . S
Zn1 O6 1.996 . S
Zn1 O9 1.943 . S
O2 Zn1 1.962 . S
O2 C7 1.254 . S
O3 Zn0 2.031 . S
O3 C7 1.269 . S
O4 Zn1 1.986 . S
O4 C11 1.262 . S
O5 Zn0 2.049 . S
O5 C13 1.260 . S
O6 Zn1 1.996 . S
O6 C13 1.257 . S
C7 O2 1.254 . S
C7 O3 1.269 . S
C8 O9 1.249 . S
C8 O10 1.270 . S
O9 Zn1 1.943 . S
O9 C8 1.249 . S
O10 Zn0 2.067 . S
O10 C8 1.270 . S
C11 O4 1.262 . S
C11 O12 1.232 . S
O12 C11 1.232 . S
C13 O5 1.260 . S
C13 O6 1.257 . S
Zn14 O17 2.031 . S
Zn14 O19 2.049 . S
Zn14 O24 2.067 . S
Zn15 O16 1.962 . S
Zn15 O18 1.986 . S
Zn15 O20 1.996 . S
Zn15 O23 1.943 . S
O16 Zn15 1.962 . S
O16 C21 1.254 . S
O17 Zn14 2.031 . S
O17 C21 1.269 . S
O18 Zn15 1.986 . S
O18 C25 1.262 . S
O19 Zn14 2.049 . S
O19 C27 1.260 . S
O20 Zn15 1.996 . S
O20 C27 1.257 . S
C21 O16 1.254 . S
C21 O17 1.269 . S
C22 O23 1.249 . S
C22 O24 1.270 . S
O23 Zn15 1.943 . S
O23 C22 1.249 . S
O24 Zn14 2.067 . S
O24 C22 1.270 . S
C25 O18 1.262 . S
C25 O26 1.232 . S
O26 C25 1.232 . S
C27 O19 1.260 . S
C27 O20 1.257 . S
Zn28 O31 2.031 . S
Zn28 O33 2.049 . S
Zn28 O38 2.067 . S
Zn29 O30 1.962 . S
Zn29 O32 1.986 . S
Zn29 O34 1.996 . S
Zn29 O37 1.943 . S
O30 Zn29 1.962 . S
O30 C35 1.254 . S
O31 Zn28 2.031 . S
O31 C35 1.269 . S
O32 Zn29 1.986 . S
O32 C39 1.262 . S
O33 Zn28 2.049 . S
O33 C41 1.260 . S
O34 Zn29 1.996 . S
O34 C41 1.257 . S
C35 O30 1.254 . S
C35 O31 1.269 . S
C36 O37 1.249 . S
C36 O38 1.270 . S
O37 Zn29 1.943 . S
O37 C36 1.249 . S
O38 Zn28 2.067 . S
O38 C36 1.270 . S
C39 O32 1.262 . S
C39 O40 1.232 . S
O40 C39 1.232 . S
C41 O33 1.260 . S
C41 O34 1.257 . S
Zn42 O45 2.031 . S
Zn42 O47 2.049 . S
Zn42 O52 2.067 . S
Zn43 O44 1.962 . S
Zn43 O46 1.986 . S
Zn43 O48 1.996 . S
Zn43 O51 1.943 . S
O44 Zn43 1.962 . S
O44 C49 1.254 . S
O45 Zn42 2.031 . S
O45 C49 1.269 . S
O46 Zn43 1.986 . S
O46 C53 1.262 . S
O47 Zn42 2.049 . S
O47 C55 1.260 . S
O48 Zn43 1.996 . S
O48 C55 1.257 . S
C49 O44 1.254 . S
C49 O45 1.269 . S
C50 O51 1.249 . S
C50 O52 1.270 . S
O51 Zn43 1.943 . S
O51 C50 1.249 . S
O52 Zn42 2.067 . S
O52 C50 1.270 . S
C53 O46 1.262 . S
C53 O54 1.232 . S
O54 C53 1.232 . S
C55 O47 1.260 . S
C55 O48 1.257 . S
Zn56 O59 2.031 . S
Zn56 O61 2.049 . S
Zn56 O66 2.067 . S
Zn57 O58 1.962 . S
Zn57 O60 1.986 . S
Zn57 O62 1.996 . S
Zn57 O65 1.943 . S
O58 Zn57 1.962 . S
O58 C63 1.254 . S
O59 Zn56 2.031 . S
O59 C63 1.269 . S
O60 Zn57 1.986 . S
O60 C67 1.262 . S
O61 Zn56 2.049 . S
O61 C69 1.260 . S
O62 Zn57 1.996 . S
O62 C69 1.257 . S
C63 O58 1.254 . S
C63 O59 1.269 . S
C64 O65 1.249 . S
C64 O66 1.270 . S
O65 Zn57 1.943 . S
O65 C64 1.249 . S
O66 Zn56 2.067 . S
O66 C64 1.270 . S
C67 O60 1.262 . S
C67 O68 1.232 . S
O68 C67 1.232 . S
C69 O61 1.260 . S
C69 O62 1.257 . S
Zn70 O73 2.031 . S
Zn70 O75 2.049 . S
Zn70 O80 2.067 . S
Zn71 O72 1.962 . S
Zn71 O74 1.986 . S
Zn71 O76 1.996 . S
Zn71 O79 1.943 . S
O72 Zn71 1.962 . S
O72 C77 1.254 . S
O73 Zn70 2.031 . S
O73 C77 1.269 . S
O74 Zn71 1.986 . S
O74 C81 1.262 . S
O75 Zn70 2.049 . S
O75 C83 1.260 . S
O76 Zn71 1.996 . S
O76 C83 1.257 . S
C77 O72 1.254 . S
C77 O73 1.269 . S
C78 O79 1.249 . S
C78 O80 1.270 . S
O79 Zn71 1.943 . S
O79 C78 1.249 . S
O80 Zn70 2.067 . S
O80 C78 1.270 . S
C81 O74 1.262 . S
C81 O82 1.232 . S
O82 C81 1.232 . S
C83 O75 1.260 . S
C83 O76 1.257 . S
Zn84 O87 2.031 . S
Zn84 O89 2.049 . S
Zn84 O94 2.067 . S
Zn85 O86 1.962 . S
Zn85 O88 1.986 . S
Zn85 O90 1.996 . S
Zn85 O93 1.943 . S
O86 Zn85 1.962 . S
O86 C91 1.254 . S
O87 Zn84 2.031 . S
O87 C91 1.269 . S
O88 Zn85 1.986 . S
O88 C95 1.262 . S
O89 Zn84 2.049 . S
O89 C97 1.260 . S
O90 Zn85 1.996 . S
O90 C97 1.257 . S
C91 O86 1.254 . S
C91 O87 1.269 . S
C92 O93 1.249 . S
C92 O94 1.270 . S
O93 Zn85 1.943 . S
O93 C92 1.249 . S
O94 Zn84 2.067 . S
O94 C92 1.270 . S
C95 O88 1.262 . S
C95 O96 1.232 . S
O96 C95 1.232 . S
C97 O89 1.260 . S
C97 O90 1.257 . S
Zn98 O101 2.031 . S
Zn98 O103 2.049 . S
Zn98 O108 2.067 . S
Zn99 O100 1.962 . S
Zn99 O102 1.986 . S
Zn99 O104 1.996 . S
Zn99 O107 1.943 . S
O100 Zn99 1.962 . S
O100 C105 1.254 . S
O101 Zn98 2.031 . S
O101 C105 1.269 . S
O102 Zn99 1.986 . S
O102 C109 1.262 . S
O103 Zn98 2.049 . S
O103 C111 1.260 . S
O104 Zn99 1.996 . S
O104 C111 1.257 . S
C105 O100 1.254 . S
C105 O101 1.269 . S
C106 O107 1.249 . S
C106 O108 1.270 . S
O107 Zn99 1.943 . S
O107 C106 1.249 . S
O108 Zn98 2.067 . S
O108 C106 1.270 . S
C109 O102 1.262 . S
C109 O110 1.232 . S
O110 C109 1.232 . S
C111 O103 1.260 . S
C111 O104 1.257 . S
Zn112 O115 2.031 . S
Zn112 O117 2.049 . S
Zn112 O122 2.067 . S
Zn113 O114 1.962 . S
Zn113 O116 1.986 . S
Zn113 O118 1.996 . S
Zn113 O121 1.943 . S
O114 Zn113 1.962 . S
O114 C119 1.254 . S
O115 Zn112 2.031 . S
O115 C119 1.269 . S
O116 Zn113 1.986 . S
O116 C123 1.262 . S
O117 Zn112 2.049 . S
O117 C125 1.260 . S
O118 Zn113 1.996 . S
O118 C125 1.257 . S
C119 O114 1.254 . S
C119 O115 1.269 . S
C120 O121 1.249 . S
C120 O122 1.270 . S
O121 Zn113 1.943 . S
O121 C120 1.249 . S
O122 Zn112 2.067 . S
O122 C120 1.270 . S
C123 O116 1.262 . S
C123 O124 1.232 . S
O124 C123 1.232 . S
C125 O117 1.260 . S
C125 O118 1.257 . S
Zn126 O129 2.031 . S
Zn126 O131 2.049 . S
Zn126 O136 2.067 . S
Zn127 O128 1.962 . S
Zn127 O130 1.986 . S
Zn127 O132 1.996 . S
Zn127 O135 1.943 . S
O128 Zn127 1.962 . S
O128 C133 1.254 . S
O129 Zn126 2.031 . S
O129 C133 1.269 . S
O130 Zn127 1.986 . S
O130 C137 1.262 . S
O131 Zn126 2.049 . S
O131 C139 1.260 . S
O132 Zn127 1.996 . S
O132 C139 1.257 . S
C133 O128 1.254 . S
C133 O129 1.269 . S
C134 O135 1.249 . S
C134 O136 1.270 . S
O135 Zn127 1.943 . S
O135 C134 1.249 . S
O136 Zn126 2.067 . S
O136 C134 1.270 . S
C137 O130 1.262 . S
C137 O138 1.232 . S
O138 C137 1.232 . S
C139 O131 1.260 . S
C139 O132 1.257 . S
Zn140 O143 2.031 . S
Zn140 O145 2.049 . S
Zn140 O150 2.067 . S
Zn141 O142 1.962 . S
Zn141 O144 1.986 . S
Zn141 O146 1.996 . S
Zn141 O149 1.943 . S
O142 Zn141 1.962 . S
O142 C147 1.254 . S
O143 Zn140 2.031 . S
O143 C147 1.269 . S
O144 Zn141 1.986 . S
O144 C151 1.262 . S
O145 Zn140 2.049 . S
O145 C153 1.260 . S
O146 Zn141 1.996 . S
O146 C153 1.257 . S
C147 O142 1.254 . S
C147 O143 1.269 . S
C148 O149 1.249 . S
C148 O150 1.270 . S
O149 Zn141 1.943 . S
O149 C148 1.249 . S
O150 Zn140 2.067 . S
O150 C148 1.270 . S
C151 O144 1.262 . S
C151 O152 1.232 . S
O152 C151 1.232 . S
C153 O145 1.260 . S
C153 O146 1.257 . S
Zn154 O157 2.031 . S
Zn154 O159 2.049 . S
Zn154 O164 2.067 . S
Zn155 O156 1.962 . S
Zn155 O158 1.986 . S
Zn155 O160 1.996 . S
Zn155 O163 1.943 . S
O156 Zn155 1.962 . S
O156 C161 1.254 . S
O157 Zn154 2.031 . S
O157 C161 1.269 . S
O158 Zn155 1.986 . S
O158 C165 1.262 . S
O159 Zn154 2.049 . S
O159 C167 1.260 . S
O160 Zn155 1.996 . S
O160 C167 1.257 . S
C161 O156 1.254 . S
C161 O157 1.269 . S
C162 O163 1.249 . S
C162 O164 1.270 . S
O163 Zn155 1.943 . S
O163 C162 1.249 . S
O164 Zn154 2.067 . S
O164 C162 1.270 . S
C165 O158 1.262 . S
C165 O166 1.232 . S
O166 C165 1.232 . S
C167 O159 1.260 . S
C167 O160 1.257 . S
Zn168 O171 2.031 . S
Zn168 O173 2.049 . S
Zn168 O178 2.067 . S
Zn169 O170 1.962 . S
Zn169 O172 1.986 . S
Zn169 O174 1.996 . S
Zn169 O177 1.943 . S
O170 Zn169 1.962 . S
O170 C175 1.254 . S
O171 Zn168 2.031 . S
O171 C175 1.269 . S
O172 Zn169 1.986 . S
O172 C179 1.262 . S
O173 Zn168 2.049 . S
O173 C181 1.260 . S
O174 Zn169 1.996 . S
O174 C181 1.257 . S
C175 O170 1.254 . S
C175 O171 1.269 . S
C176 O177 1.249 . S
C176 O178 1.270 . S
O177 Zn169 1.943 . S
O177 C176 1.249 . S
O178 Zn168 2.067 . S
O178 C176 1.270 . S
C179 O172 1.262 . S
C179 O180 1.232 . S
O180 C179 1.232 . S
C181 O173 1.260 . S
C181 O174 1.257 . S
Zn182 O185 2.031 . S
Zn182 O187 2.049 . S
Zn182 O192 2.067 . S
Zn183 O184 1.962 . S
Zn183 O186 1.986 . S
Zn183 O188 1.996 . S
Zn183 O191 1.943 . S
O184 Zn183 1.962 . S
O184 C189 1.254 . S
O185 Zn182 2.031 . S
O185 C189 1.269 . S
O186 Zn183 1.986 . S
O186 C193 1.262 . S
O187 Zn182 2.049 . S
O187 C195 1.260 . S
O188 Zn183 1.996 . S
O188 C195 1.257 . S
C189 O184 1.254 . S
C189 O185 1.269 . S
C190 O191 1.249 . S
C190 O192 1.270 . S
O191 Zn183 1.943 . S
O191 C190 1.249 . S
O192 Zn182 2.067 . S
O192 C190 1.270 . S
C193 O186 1.262 . S
C193 O194 1.232 . S
O194 C193 1.232 . S
C195 O187 1.260 . S
C195 O188 1.257 . S
Zn196 O199 2.031 . S
Zn196 O201 2.049 . S
Zn196 O206 2.067 . S
Zn197 O198 1.962 . S
Zn197 O200 1.986 . S
Zn197 O202 1.996 . S
Zn197 O205 1.943 . S
O198 Zn197 1.962 . S
O198 C203 1.254 . S
O199 Zn196 2.031 . S
O199 C203 1.269 . S
O200 Zn197 1.986 . S
O200 C207 1.262 . S
O201 Zn196 2.049 . S
O201 C209 1.260 . S
O202 Zn197 1.996 . S
O202 C209 1.257 . S
C203 O198 1.254 . S
C203 O199 1.269 . S
C204 O205 1.249 . S
C204 O206 1.270 . S
O205 Zn197 1.943 . S
O205 C204 1.249 . S
O206 Zn196 2.067 . S
O206 C204 1.270 . S
C207 O200 1.262 . S
C207 O208 1.232 . S
O208 C207 1.232 . S
C209 O201 1.260 . S
C209 O202 1.257 . S
Zn210 O213 2.031 . S
Zn210 O215 2.049 . S
Zn210 O220 2.067 . S
Zn211 O212 1.962 . S
Zn211 O214 1.986 . S
Zn211 O216 1.996 . S
Zn211 O219 1.943 . S
O212 Zn211 1.962 . S
O212 C217 1.254 . S
O213 Zn210 2.031 . S
O213 C217 1.269 . S
O214 Zn211 1.986 . S
O214 C221 1.262 . S
O215 Zn210 2.049 . S
O215 C223 1.260 . S
O216 Zn211 1.996 . S
O216 C223 1.257 . S
C217 O212 1.254 . S
C217 O213 1.269 . S
C218 O219 1.249 . S
C218 O220 1.270 . S
O219 Zn211 1.943 . S
O219 C218 1.249 . S
O220 Zn210 2.067 . S
O220 C218 1.270 . S
C221 O214 1.262 . S
C221 O222 1.232 . S
O222 C221 1.232 . S
C223 O215 1.260 . S
C223 O216 1.257 . S
C224 C225 1.369 . S
C224 C226 1.419 . S
C224 H228 0.930 . S
C225 C224 1.369 . S
C225 C234 1.429 . S
C226 C224 1.419 . S
C226 C227 1.363 . S
C226 H229 0.929 . S
C227 C226 1.363 . S
C227 C233 1.428 . S
H228 C224 0.930 . S
H229 C226 0.929 . S
S230 N231 1.613 . S
S230 N232 1.610 . S
N231 S230 1.613 . S
N231 C234 1.350 . S
N232 S230 1.610 . S
N232 C233 1.351 . S
C233 C227 1.428 . S
C233 N232 1.351 . S
C233 C234 1.434 . S
C234 C225 1.429 . S
C234 N231 1.350 . S
C234 C233 1.434 . S
C235 C236 1.369 . S
C235 C237 1.419 . S
C235 H239 0.930 . S
C236 C235 1.369 . S
C236 C245 1.429 . S
C237 C235 1.419 . S
C237 C238 1.363 . S
C237 H240 0.929 . S
C238 C237 1.363 . S
C238 C244 1.428 . S
H239 C235 0.930 . S
H240 C237 0.929 . S
S241 N242 1.613 . S
S241 N243 1.610 . S
N242 S241 1.613 . S
N242 C245 1.350 . S
N243 S241 1.610 . S
N243 C244 1.351 . S
C244 C238 1.428 . S
C244 N243 1.351 . S
C244 C245 1.434 . S
C245 C236 1.429 . S
C245 N242 1.350 . S
C245 C244 1.434 . S
C246 C247 1.369 . S
C246 C248 1.419 . S
C246 H250 0.930 . S
C247 C246 1.369 . S
C247 C256 1.429 . S
C248 C246 1.419 . S
C248 C249 1.363 . S
C248 H251 0.929 . S
C249 C248 1.363 . S
C249 C255 1.428 . S
H250 C246 0.930 . S
H251 C248 0.929 . S
S252 N253 1.613 . S
S252 N254 1.610 . S
N253 S252 1.613 . S
N253 C256 1.350 . S
N254 S252 1.610 . S
N254 C255 1.351 . S
C255 C249 1.428 . S
C255 N254 1.351 . S
C255 C256 1.434 . S
C256 C247 1.429 . S
C256 N253 1.350 . S
C256 C255 1.434 . S
C257 C258 1.369 . S
C257 C259 1.419 1_455 S
C257 H261 0.930 . S
C258 C257 1.369 . S
C258 C267 1.429 . S
C259 C257 1.419 1_655 S
C259 C260 1.363 . S
C259 H262 0.929 . S
C260 C259 1.363 . S
C260 C266 1.428 . S
H261 C257 0.930 . S
H262 C259 0.929 . S
S263 N264 1.613 . S
S263 N265 1.610 1_455 S
N264 S263 1.613 . S
N264 C267 1.350 . S
N265 S263 1.610 1_655 S
N265 C266 1.351 . S
C266 C260 1.428 . S
C266 N265 1.351 . S
C266 C267 1.434 1_655 S
C267 C258 1.429 . S
C267 N264 1.350 . S
C267 C266 1.434 1_455 S
C268 C269 1.369 . S
C268 C270 1.419 . S
C268 H272 0.930 . S
C269 C268 1.369 . S
C269 C278 1.429 . S
C270 C268 1.419 . S
C270 C271 1.363 . S
C270 H273 0.929 . S
C271 C270 1.363 . S
C271 C277 1.428 . S
H272 C268 0.930 . S
H273 C270 0.929 . S
S274 N275 1.613 . S
S274 N276 1.610 . S
N275 S274 1.613 . S
N275 C278 1.350 . S
N276 S274 1.610 . S
N276 C277 1.351 . S
C277 C271 1.428 . S
C277 N276 1.351 . S
C277 C278 1.434 . S
C278 C269 1.429 . S
C278 N275 1.350 . S
C278 C277 1.434 . S
C279 C280 1.369 . S
C279 C281 1.419 1_655 S
C279 H283 0.930 . S
C280 C279 1.369 . S
C280 C289 1.429 . S
C281 C279 1.419 1_455 S
C281 C282 1.363 . S
C281 H284 0.929 . S
C282 C281 1.363 . S
C282 C288 1.428 . S
H283 C279 0.930 . S
H284 C281 0.929 . S
S285 N286 1.613 . S
S285 N287 1.610 1_655 S
N286 S285 1.613 . S
N286 C289 1.350 . S
N287 S285 1.610 1_455 S
N287 C288 1.351 . S
C288 C282 1.428 . S
C288 N287 1.351 . S
C288 C289 1.434 1_455 S
C289 C280 1.429 . S
C289 N286 1.350 . S
C289 C288 1.434 1_655 S
C290 C291 1.369 . S
C290 C292 1.419 . S
C290 H294 0.930 . S
C291 C290 1.369 . S
C291 C300 1.429 . S
C292 C290 1.419 . S
C292 C293 1.363 . S
C292 H295 0.929 . S
C293 C292 1.363 . S
C293 C299 1.428 . S
H294 C290 0.930 . S
H295 C292 0.929 . S
S296 N297 1.613 . S
S296 N298 1.610 . S
N297 S296 1.613 . S
N297 C300 1.350 . S
N298 S296 1.610 . S
N298 C299 1.351 . S
C299 C293 1.428 . S
C299 N298 1.351 . S
C299 C300 1.434 . S
C300 C291 1.429 . S
C300 N297 1.350 . S
C300 C299 1.434 . S
C301 C302 1.369 . S
C301 C303 1.419 . S
C301 H305 0.930 . S
C302 C301 1.369 . S
C302 C311 1.429 . S
C303 C301 1.419 . S
C303 C304 1.363 . S
C303 H306 0.929 . S
C304 C303 1.363 . S
C304 C310 1.428 . S
H305 C301 0.930 . S
H306 C303 0.929 . S
S307 N308 1.613 . S
S307 N309 1.610 . S
N308 S307 1.613 . S
N308 C311 1.350 . S
N309 S307 1.610 . S
N309 C310 1.351 . S
C310 C304 1.428 . S
C310 N309 1.351 . S
C310 C311 1.434 . S
C311 C302 1.429 . S
C311 N308 1.350 . S
C311 C310 1.434 . S
C312 C313 1.369 . S
C312 C314 1.419 . S
C312 H316 0.930 . S
C313 C312 1.369 . S
C313 C322 1.429 . S
C314 C312 1.419 . S
C314 C315 1.363 . S
C314 H317 0.929 . S
C315 C314 1.363 . S
C315 C321 1.428 . S
H316 C312 0.930 . S
H317 C314 0.929 . S
S318 N319 1.613 . S
S318 N320 1.610 . S
N319 S318 1.613 . S
N319 C322 1.350 . S
N320 S318 1.610 . S
N320 C321 1.351 . S
C321 C315 1.428 . S
C321 N320 1.351 . S
C321 C322 1.434 . S
C322 C313 1.429 . S
C322 N319 1.350 . S
C322 C321 1.434 . S
C323 C324 1.369 . S
C323 C325 1.419 . S
C323 H327 0.930 . S
C324 C323 1.369 . S
C324 C333 1.429 . S
C325 C323 1.419 . S
C325 C326 1.363 . S
C325 H328 0.929 . S
C326 C325 1.363 . S
C326 C332 1.428 . S
H327 C323 0.930 . S
H328 C325 0.929 . S
S329 N330 1.613 . S
S329 N331 1.610 . S
N330 S329 1.613 . S
N330 C333 1.350 . S
N331 S329 1.610 . S
N331 C332 1.351 . S
C332 C326 1.428 . S
C332 N331 1.351 . S
C332 C333 1.434 . S
C333 C324 1.429 . S
C333 N330 1.350 . S
C333 C332 1.434 . S
C334 C335 1.369 . S
C334 C336 1.419 . S
C334 H338 0.930 . S
C335 C334 1.369 . S
C335 C344 1.429 . S
C336 C334 1.419 . S
C336 C337 1.363 . S
C336 H339 0.929 . S
C337 C336 1.363 . S
C337 C343 1.428 . S
H338 C334 0.930 . S
H339 C336 0.929 . S
S340 N341 1.613 . S
S340 N342 1.610 . S
N341 S340 1.613 . S
N341 C344 1.350 . S
N342 S340 1.610 . S
N342 C343 1.351 . S
C343 C337 1.428 . S
C343 N342 1.351 . S
C343 C344 1.434 . S
C344 C335 1.429 . S
C344 N341 1.350 . S
C344 C343 1.434 . S
C345 C346 1.369 . S
C345 C347 1.419 . S
C345 H349 0.930 . S
C346 C345 1.369 . S
C346 C355 1.429 . S
C347 C345 1.419 . S
C347 C348 1.363 . S
C347 H350 0.929 . S
C348 C347 1.363 . S
C348 C354 1.428 . S
H349 C345 0.930 . S
H350 C347 0.929 . S
S351 N352 1.613 . S
S351 N353 1.610 . S
N352 S351 1.613 . S
N352 C355 1.350 . S
N353 S351 1.610 . S
N353 C354 1.351 . S
C354 C348 1.428 . S
C354 N353 1.351 . S
C354 C355 1.434 . S
C355 C346 1.429 . S
C355 N352 1.350 . S
C355 C354 1.434 . S
C356 C357 1.369 . S
C356 C358 1.419 1_455 S
C356 H360 0.930 . S
C357 C356 1.369 . S
C357 C366 1.429 . S
C358 C356 1.419 1_655 S
C358 C359 1.363 . S
C358 H361 0.929 . S
C359 C358 1.363 . S
C359 C365 1.428 . S
H360 C356 0.930 . S
H361 C358 0.929 . S
S362 N363 1.613 1_655 S
S362 N364 1.610 . S
N363 S362 1.613 1_455 S
N363 C366 1.350 . S
N364 S362 1.610 . S
N364 C365 1.351 . S
C365 C359 1.428 . S
C365 N364 1.351 . S
C365 C366 1.434 1_655 S
C366 C357 1.429 . S
C366 N363 1.350 . S
C366 C365 1.434 1_455 S
C367 C368 1.369 . S
C367 C369 1.419 . S
C367 H371 0.930 . S
C368 C367 1.369 . S
C368 C377 1.429 . S
C369 C367 1.419 . S
C369 C370 1.363 . S
C369 H372 0.929 . S
C370 C369 1.363 . S
C370 C376 1.428 . S
H371 C367 0.930 . S
H372 C369 0.929 . S
S373 N374 1.613 . S
S373 N375 1.610 . S
N374 S373 1.613 . S
N374 C377 1.350 . S
N375 S373 1.610 . S
N375 C376 1.351 . S
C376 C370 1.428 . S
C376 N375 1.351 . S
C376 C377 1.434 . S
C377 C368 1.429 . S
C377 N374 1.350 . S
C377 C376 1.434 . S
C378 C379 1.369 . S
C378 C380 1.419 . S
C378 H382 0.930 . S
C379 C378 1.369 . S
C379 C388 1.429 . S
C380 C378 1.419 . S
C380 C381 1.363 . S
C380 H383 0.929 . S
C381 C380 1.363 . S
C381 C387 1.428 . S
H382 C378 0.930 . S
H383 C380 0.929 . S
S384 N385 1.613 . S
S384 N386 1.610 . S
N385 S384 1.613 . S
N385 C388 1.350 . S
N386 S384 1.610 . S
N386 C387 1.351 . S
C387 C381 1.428 . S
C387 N386 1.351 . S
C387 C388 1.434 . S
C388 C379 1.429 . S
C388 N385 1.350 . S
C388 C387 1.434 . S
C389 C390 1.369 . S
C389 C391 1.419 1_455 S
C389 H393 0.930 . S
C390 C389 1.369 . S
C390 C399 1.429 . S
C391 C389 1.419 1_655 S
C391 C392 1.363 . S
C391 H394 0.929 . S
C392 C391 1.363 . S
C392 C398 1.428 . S
H393 C389 0.930 . S
H394 C391 0.929 . S
S395 N396 1.613 1_655 S
S395 N397 1.610 . S
N396 S395 1.613 1_455 S
N396 C399 1.350 . S
N397 S395 1.610 . S
N397 C398 1.351 . S
C398 C392 1.428 . S
C398 N397 1.351 . S
C398 C399 1.434 1_655 S
C399 C390 1.429 . S
C399 N396 1.350 . S
C399 C398 1.434 1_455 S
C400 C401 1.369 . S
C400 C402 1.419 . S
C400 H404 0.930 . S
C401 C400 1.369 . S
C401 C410 1.429 1_554 S
C402 C400 1.419 . S
C402 C403 1.363 1_554 S
C402 H405 0.929 . S
C403 C402 1.363 1_556 S
C403 C409 1.428 . S
H404 C400 0.930 . S
H405 C402 0.929 . S
S406 N407 1.613 . S
S406 N408 1.610 . S
N407 S406 1.613 . S
N407 C410 1.350 . S
N408 S406 1.610 . S
N408 C409 1.351 . S
C409 C403 1.428 . S
C409 N408 1.351 . S
C409 C410 1.434 . S
C410 C401 1.429 1_556 S
C410 N407 1.350 . S
C410 C409 1.434 . S
C411 C412 1.369 . S
C411 C413 1.419 . S
C411 H415 0.930 . S
C412 C411 1.369 . S
C412 C421 1.429 . S
C413 C411 1.419 . S
C413 C414 1.363 . S
C413 H416 0.929 . S
C414 C413 1.363 . S
C414 C420 1.428 . S
H415 C411 0.930 . S
H416 C413 0.929 . S
S417 N418 1.613 1_545 S
S417 N419 1.610 1_545 S
N418 S417 1.613 1_565 S
N418 C421 1.350 . S
N419 S417 1.610 1_565 S
N419 C420 1.351 . S
C420 C414 1.428 . S
C420 N419 1.351 . S
C420 C421 1.434 . S
C421 C412 1.429 . S
C421 N418 1.350 . S
C421 C420 1.434 . S
C422 C423 1.369 . S
C422 C424 1.419 . S
C422 H426 0.930 . S
C423 C422 1.369 . S
C423 C432 1.429 . S
C424 C422 1.419 . S
C424 C425 1.363 . S
C424 H427 0.929 . S
C425 C424 1.363 . S
C425 C431 1.428 . S
H426 C422 0.930 . S
H427 C424 0.929 . S
S428 N429 1.613 . S
S428 N430 1.610 . S
N429 S428 1.613 . S
N429 C432 1.350 . S
N430 S428 1.610 . S
N430 C431 1.351 . S
C431 C425 1.428 . S
C431 N430 1.351 . S
C431 C432 1.434 . S
C432 C423 1.429 . S
C432 N429 1.350 . S
C432 C431 1.434 . S
C433 C434 1.369 . S
C433 C435 1.419 . S
C433 H437 0.930 . S
C434 C433 1.369 . S
C434 C443 1.429 . S
C435 C433 1.419 . S
C435 C436 1.363 . S
C435 H438 0.929 . S
C436 C435 1.363 . S
C436 C442 1.428 . S
H437 C433 0.930 . S
H438 C435 0.929 . S
S439 N440 1.613 . S
S439 N441 1.610 . S
N440 S439 1.613 . S
N440 C443 1.350 . S
N441 S439 1.610 . S
N441 C442 1.351 . S
C442 C436 1.428 . S
C442 N441 1.351 . S
C442 C443 1.434 . S
C443 C434 1.429 . S
C443 N440 1.350 . S
C443 C442 1.434 . S
C444 C445 1.369 . S
C444 C446 1.419 1_556 S
C444 H448 0.930 . S
C445 C444 1.369 . S
C445 C454 1.429 . S
C446 C444 1.419 1_554 S
C446 C447 1.363 . S
C446 H449 0.929 . S
C447 C446 1.363 . S
C447 C453 1.428 . S
H448 C444 0.930 . S
H449 C446 0.929 . S
S450 N451 1.613 . S
S450 N452 1.614 . S
N451 S450 1.613 . S
N451 C454 1.350 . S
N452 S450 1.614 . S
N452 C453 1.351 1_556 S
C453 C447 1.428 . S
C453 N452 1.351 1_554 S
C453 C454 1.434 1_554 S
C454 C445 1.429 . S
C454 N451 1.350 . S
C454 C453 1.434 1_556 S
C455 C456 1.369 . S
C455 C457 1.419 . S
C455 H459 0.930 . S
C456 C455 1.369 . S
C456 C465 1.429 . S
C457 C455 1.419 . S
C457 C458 1.363 . S
C457 H460 0.929 . S
C458 C457 1.363 . S
C458 C464 1.428 . S
H459 C455 0.930 . S
H460 C457 0.929 . S
S461 N462 1.613 . S
S461 N463 1.610 . S
N462 S461 1.613 . S
N462 C465 1.350 . S
N463 S461 1.610 . S
N463 C464 1.351 . S
C464 C458 1.428 . S
C464 N463 1.351 . S
C464 C465 1.434 . S
C465 C456 1.429 . S
C465 N462 1.350 . S
C465 C464 1.434 . S
C466 C467 1.369 . S
C466 C468 1.419 . S
C466 H470 0.930 . S
C467 C466 1.369 . S
C467 C476 1.429 . S
C468 C466 1.419 . S
C468 C469 1.363 . S
C468 H471 0.929 . S
C469 C468 1.363 . S
C469 C475 1.428 . S
H470 C466 0.930 . S
H471 C468 0.929 . S
S472 N473 1.613 . S
S472 N474 1.610 . S
N473 S472 1.613 . S
N473 C476 1.350 . S
N474 S472 1.610 . S
N474 C475 1.351 . S
C475 C469 1.428 . S
C475 N474 1.351 . S
C475 C476 1.434 . S
C476 C467 1.429 . S
C476 N473 1.350 . S
C476 C475 1.434 . S
C477 C478 1.369 . S
C477 C479 1.419 . S
C477 H481 0.930 . S
C478 C477 1.369 . S
C478 C487 1.429 . S
C479 C477 1.419 . S
C479 C480 1.363 . S
C479 H482 0.929 . S
C480 C479 1.363 . S
C480 C486 1.428 . S
H481 C477 0.930 . S
H482 C479 0.929 . S
S483 N484 1.613 . S
S483 N485 1.610 . S
N484 S483 1.613 . S
N484 C487 1.350 . S
N485 S483 1.610 . S
N485 C486 1.351 . S
C486 C480 1.428 . S
C486 N485 1.351 . S
C486 C487 1.434 . S
C487 C478 1.429 . S
C487 N484 1.350 . S
C487 C486 1.434 . S
C488 C489 1.369 1_565 S
C488 C490 1.419 . S
C488 H492 0.930 . S
C489 C488 1.369 1_545 S
C489 C498 1.429 . S
C490 C488 1.419 . S
C490 C491 1.363 . S
C490 H493 0.929 . S
C491 C490 1.363 . S
C491 C497 1.447 . S
H492 C488 0.930 . S
H493 C490 0.929 . S
S494 N495 1.613 . S
S494 N496 1.610 . S
N495 S494 1.613 . S
N495 C498 1.350 . S
N496 S494 1.610 . S
N496 C497 1.348 1_545 S
C497 C491 1.447 . S
C497 N496 1.348 1_565 S
C497 C498 1.418 1_565 S
C498 C489 1.429 . S
C498 N495 1.350 . S
C498 C497 1.418 1_545 S
C499 C500 1.369 . S
C499 C501 1.419 . S
C499 H503 0.930 . S
C500 C499 1.369 . S
C500 C509 1.429 . S
C501 C499 1.419 . S
C501 C502 1.363 . S
C501 H504 0.929 . S
C502 C501 1.363 . S
C502 C508 1.428 . S
H503 C499 0.930 . S
H504 C501 0.929 . S
S505 N506 1.613 . S
S505 N507 1.610 . S
N506 S505 1.613 . S
N506 C509 1.350 . S
N507 S505 1.610 . S
N507 C508 1.351 . S
C508 C502 1.428 . S
C508 N507 1.351 . S
C508 C509 1.434 . S
C509 C500 1.429 . S
C509 N506 1.350 . S
C509 C508 1.434 . S
C510 C511 1.369 . S
C510 C512 1.419 1_546 S
C510 H514 0.930 . S
C511 C510 1.369 . S
C511 C520 1.429 . S
C512 C510 1.419 1_564 S
C512 C513 1.363 . S
C512 H515 0.929 . S
C513 C512 1.363 . S
C513 C519 1.428 . S
H514 C510 0.930 . S
H515 C512 0.929 . S
S516 N517 1.613 1_565 S
S516 N518 1.610 1_556 S
N517 S516 1.613 1_545 S
N517 C520 1.350 . S
N518 S516 1.610 1_554 S
N518 C519 1.351 . S
C519 C513 1.428 . S
C519 N518 1.351 . S
C519 C520 1.434 1_564 S
C520 C511 1.429 . S
C520 N517 1.350 . S
C520 C519 1.434 1_546 S
C521 C522 1.369 . S
C521 C523 1.419 . S
C521 H525 0.930 . S
C522 C521 1.369 . S
C522 C531 1.429 . S
C523 C521 1.419 . S
C523 C524 1.363 . S
C523 H526 0.929 . S
C524 C523 1.363 . S
C524 C530 1.428 . S
H525 C521 0.930 . S
H526 C523 0.929 . S
S527 N528 1.613 . S
S527 N529 1.610 . S
N528 S527 1.613 . S
N528 C531 1.350 . S
N529 S527 1.610 . S
N529 C530 1.351 . S
C530 C524 1.428 . S
C530 N529 1.351 . S
C530 C531 1.434 . S
C531 C522 1.429 . S
C531 N528 1.350 . S
C531 C530 1.434 . S
C532 C533 1.369 . S
C532 C534 1.419 . S
C532 H536 0.930 . S
C533 C532 1.369 . S
C533 C542 1.429 1_545 S
C534 C532 1.419 . S
C534 C535 1.363 1_545 S
C534 H537 0.929 . S
C535 C534 1.363 1_565 S
C535 C541 1.428 . S
H536 C532 0.930 . S
H537 C534 0.929 . S
S538 N539 1.613 . S
S538 N540 1.610 . S
N539 S538 1.613 . S
N539 C542 1.350 . S
N540 S538 1.610 . S
N540 C541 1.351 . S
C541 C535 1.428 . S
C541 N540 1.351 . S
C541 C542 1.434 . S
C542 C533 1.429 1_565 S
C542 N539 1.350 . S
C542 C541 1.434 . S
C543 C544 1.369 . S
C543 C545 1.419 . S
C543 H547 0.930 . S
C544 C543 1.369 . S
C544 C553 1.429 . S
C545 C543 1.419 . S
C545 C546 1.363 . S
C545 H548 0.929 . S
C546 C545 1.363 . S
C546 C552 1.428 . S
H547 C543 0.930 . S
H548 C545 0.929 . S
S549 N550 1.613 . S
S549 N551 1.610 . S
N550 S549 1.613 . S
N550 C553 1.350 . S
N551 S549 1.610 . S
N551 C552 1.351 . S
C552 C546 1.428 . S
C552 N551 1.351 . S
C552 C553 1.434 . S
C553 C544 1.429 . S
C553 N550 1.350 . S
C553 C552 1.434 . S
C554 C555 1.369 1_545 S
C554 C556 1.418 1_554 S
C554 H558 0.930 . S
C555 C554 1.369 1_565 S
C555 C564 1.429 . S
C556 C554 1.418 1_556 S
C556 C557 1.363 . S
C556 H559 0.929 1_556 S
C557 C556 1.363 . S
C557 C563 1.428 1_545 S
H558 C554 0.930 . S
H559 C556 0.929 1_554 S
S560 N561 1.613 . S
S560 N562 1.610 . S
N561 S560 1.613 . S
N561 C564 1.350 1_556 S
N562 S560 1.610 . S
N562 C563 1.351 . S
C563 C557 1.428 1_565 S
C563 N562 1.351 . S
C563 C564 1.434 1_556 S
C564 C555 1.429 . S
C564 N561 1.350 1_554 S
C564 C563 1.434 1_554 S
C565 C566 1.369 . S
C565 C567 1.419 . S
C565 H569 0.930 . S
C566 C565 1.369 . S
C566 C575 1.429 . S
C567 C565 1.419 . S
C567 C568 1.363 . S
C567 H570 0.929 . S
C568 C567 1.363 . S
C568 C574 1.428 . S
H569 C565 0.930 . S
H570 C567 0.929 . S
S571 N572 1.613 . S
S571 N573 1.610 . S
N572 S571 1.613 . S
N572 C575 1.350 . S
N573 S571 1.610 . S
N573 C574 1.351 . S
C574 C568 1.428 . S
C574 N573 1.351 . S
C574 C575 1.434 . S
C575 C566 1.429 . S
C575 N572 1.350 . S
C575 C574 1.434 . S
C225 C162 1.335 . S
C227 C13 1.357 . S
C236 C223 1.401 . S
C238 C22 1.394 . S
C247 C41 1.269 . S
C249 C139 1.255 . S
C258 C195 1.264 . S
C260 C55 1.252 . S
C269 C69 1.455 . S
C271 C190 1.430 . S
C280 C78 1.407 . S
C282 C167 1.415 . S
C291 C92 1.476 . S
C293 C218 1.480 . S
C302 C111 1.376 . S
C304 C134 1.377 . S
C313 C50 1.325 . S
C315 C125 1.334 . S
C324 C148 1.415 . S
C326 C27 1.426 . S
C335 C181 1.277 . S
C337 C83 1.289 . S
C346 C204 1.494 . S
C348 C106 1.498 . S
C357 C64 1.441 . S
C359 C120 1.455 . S
C368 C153 1.316 . S
C370 C97 1.300 . S
C379 C209 1.472 . S
C381 C36 1.450 . S
C390 C8 1.427 . S
C392 C176 1.413 . S
C401 C7 1.268 . S
C403 C63 1.268 . S
C412 C25 1.206 . S
C414 C81 1.204 . S
C423 C35 1.321 . S
C425 C95 1.334 . S
C434 C105 1.351 . S
C436 C49 1.336 . S
C445 C119 1.270 . S
C447 C175 1.263 . S
C456 C189 1.281 . S
C458 C137 1.292 . S
C467 C151 1.245 . S
C469 C207 1.254 . S
C478 C217 1.352 . S
C480 C161 1.337 . S
C489 C109 1.305 . S
C491 C21 1.292 . S
C500 C39 1.277 . S
C502 C67 1.283 . S
C511 C53 1.320 . S
C513 C77 1.313 . S
C522 C11 1.232 . S
C524 C91 1.225 . S
C533 C133 1.290 . S
C535 C221 1.303 . S
C544 C179 1.365 . S
C546 C147 1.356 . S
C555 C165 1.236 . S
C557 C193 1.228 . S
C566 C203 1.228 . S
C568 C123 1.236 . S
