# Generated by pormake.
# Topology dmp, (4)-cn, num edge types: 1
# Building blocks:
#     Node 0, Type 0, BuildingBlock: ICAMEG_clean_sbu_1, # of connection points: 4
#     Node 1, Type 0, BuildingBlock: ICAMEG_clean_sbu_1, # of connection points: 4
#     Node 2, Type 0, BuildingBlock: ICAMEG_clean_sbu_1, # of connection points: 4
#     Node 3, Type 0, BuildingBlock: ICAMEG_clean_sbu_1, # of connection points: 4
#     Edge 4, Type (0, 0), BuildingBlock: OJICUG_clean_linker_0, # of connection points: 2
#     Edge 5, Type (0, 0), BuildingBlock: OJICUG_clean_linker_0, # of connection points: 2
#     Edge 6, Type (0, 0), BuildingBlock: OJICUG_clean_linker_0, # of connection points: 2
#     Edge 7, Type (0, 0), BuildingBlock: OJICUG_clean_linker_0, # of connection points: 2
#     Edge 8, Type (0, 0), BuildingBlock: OJICUG_clean_linker_0, # of connection points: 2
#     Edge 9, Type (0, 0), BuildingBlock: OJICUG_clean_linker_0, # of connection points: 2
#     Edge 10, Type (0, 0), BuildingBlock: OJICUG_clean_linker_0, # of connection points: 2
#     Edge 11, Type (0, 0), BuildingBlock: OJICUG_clean_linker_0, # of connection points: 2
# Relax obj value: 0.007
# Max RMSD: 0.062
# Mean RMSD: 0.062
data_MOF--net-dmp--node1-ICAMEG_clean_sbu_1--edge1-OJICUG_clean_linker_0
_symmetry_space_group_name_H-M    P1
_symmetry_Int_Tables_number       1
_symmetry_cell_setting            triclinic
loop_
_symmetry_equiv_pos_as_xyz
'x, y, z'
_cell_length_a     32.312965
_cell_length_b     14.249729
_cell_length_c     13.924047
_cell_angle_alpha  89.995629
_cell_angle_beta   90.099906
_cell_angle_gamma 89.974813
loop_
_atom_site_label
_atom_site_type_symbol
_atom_site_fract_x
_atom_site_fract_y
_atom_site_fract_z
_atom_type_partial_charge
Co0 Co 0.13585 0.23432 0.09577 0.0
Co1 Co 0.12297 0.2576 0.3398 0.0
O2 O 0.10092 0.24788 0.20934 0.0
C3 C 0.07593 0.07796 0.0861 0.0
O4 O 0.08757 0.05474 0.17329 0.0
C5 C 0.07663 0.42249 0.41266 0.0
O6 O 0.11261 0.46196 0.43012 0.0
O7 O 0.1573 0.36584 0.29869 0.0
O8 O 0.17721 0.32619 0.1491 0.0
H9 H 0.23286 0.3307 0.58308 0.0
H10 H 0.04716 0.28375 0.07073 0.0
O11 O 0.09409 0.14454 0.04229 0.0
H12 H 0.12519 0.52968 0.89986 0.0
H13 H 0.16239 0.14626 0.75163 0.0
H14 H 0.22664 0.23191 0.06034 0.0
H15 H 0.16183 0.40427 0.98767 0.0
H16 H 0.11915 0.19588 0.88771 0.0
O17 O 0.07517 0.34264 0.37133 0.0
H18 H 0.20642 0.28591 0.4234 0.0
H19 H 0.08493 0.25888 0.53589 0.0
H20 H 0.27099 0.19303 0.92264 0.0
H21 H 0.00933 0.40566 0.98085 0.0
H22 H 0.2389 0.14768 0.76721 0.0
H23 H 0.04835 0.53013 0.89487 0.0
O24 O 0.16652 0.12977 0.15632 0.0
H25 H 0.99363 0.06197 0.34904 0.0
H26 H 0.13967 0.08214 0.45016 0.0
H27 H 0.09912 0.94086 0.49006 0.0
H28 H 0.02575 0.92959 0.4381 0.0
H29 H 0.03541 0.20166 0.30991 0.0
H30 H 0.10998 0.30481 0.69667 0.0
H31 H 0.18412 0.34515 0.71985 0.0
O32 O 0.17081 0.17176 0.31114 0.0
C33 C 0.18048 0.37608 0.22517 0.0
C34 C 0.20036 0.31489 0.57341 0.0
C35 C 0.13138 0.30043 0.6371 0.0
N36 N 0.14405 0.27167 0.46985 0.0
C37 C 0.18525 0.28886 0.48329 0.0
C38 C 0.11745 0.27381 0.5461 0.0
C39 C 0.173 0.32275 0.65016 0.0
C40 C 0.06438 0.33755 0.03345 0.0
N41 N 0.10665 0.33673 0.03414 0.0
C42 C 0.04278 0.40668 0.98299 0.0
C43 C 0.06471 0.4763 0.93456 0.0
C44 C 0.10781 0.47608 0.9373 0.0
C45 C 0.12839 0.40523 0.98764 0.0
C46 C 0.17674 0.16728 0.81851 0.0
C47 C 0.2123 0.21674 0.99197 0.0
C48 C 0.15237 0.19446 0.89641 0.0
N49 N 0.17017 0.21653 0.98265 0.0
C50 C 0.23767 0.19332 0.91447 0.0
C51 C 0.21967 0.16761 0.82744 0.0
C52 C 0.18247 0.12246 0.2396 0.0
C53 C 0.02563 0.06597 0.37175 0.0
C54 C 0.1077 0.07799 0.42777 0.0
C55 C 0.08487 -0.00213 0.45069 0.0
C56 C 0.04367 0.9917 0.42174 0.0
N57 N 0.08996 0.15005 0.37762 0.0
C58 C 0.04937 0.14515 0.35037 0.0
Co59 Co 0.3687 0.73389 0.40593 0.0
Co60 Co 0.38149 0.75756 0.162 0.0
O61 O 0.40363 0.74753 0.29237 0.0
C62 C 0.42887 0.57782 0.416 0.0
O63 O 0.41734 0.55442 0.3288 0.0
C64 C 0.42799 0.92224 0.08929 0.0
O65 O 0.39205 0.96205 0.07201 0.0
O66 O 0.34735 0.86604 0.20341 0.0
O67 O 0.3272 0.82552 0.35254 0.0
H68 H 0.27137 0.83123 0.91932 0.0
H69 H 0.4573 0.78391 0.43097 0.0
O70 O 0.4106 0.6444 0.4596 0.0
H71 H 0.37886 0.02957 0.60139 0.0
H72 H 0.34223 0.64645 0.75028 0.0
H73 H 0.27792 0.73071 0.44118 0.0
H74 H 0.34243 0.90375 0.51386 0.0
H75 H 0.38542 0.69598 0.61409 0.0
O76 O 0.42938 0.84223 0.13034 0.0
H77 H 0.29798 0.78656 0.0789 0.0
H78 H 0.41933 0.75896 0.96572 0.0
H79 H 0.2336 0.69182 0.57892 0.0
H80 H 0.49493 0.90625 0.52057 0.0
H81 H 0.26573 0.64722 0.73456 0.0
H82 H 0.45569 0.03061 0.60632 0.0
O83 O 0.33823 0.62913 0.34535 0.0
H84 H 0.51051 0.56066 0.152 0.0
H85 H 0.36444 0.58247 0.05143 0.0
H86 H 0.40473 0.44086 0.01115 0.0
H87 H 0.47812 0.42876 0.06283 0.0
H88 H 0.46898 0.70073 0.19146 0.0
H89 H 0.39413 0.80483 0.80504 0.0
H90 H 0.31995 0.84524 0.7822 0.0
O91 O 0.33356 0.67207 0.19085 0.0
C92 C 0.32403 0.87586 0.27675 0.0
C93 C 0.30388 0.81533 0.92881 0.0
C94 C 0.37279 0.80059 0.86474 0.0
N95 N 0.36029 0.77198 0.03209 0.0
C96 C 0.31909 0.78936 0.01889 0.0
C97 C 0.38681 0.77402 0.95569 0.0
C98 C 0.33115 0.82296 0.85187 0.0
C99 C 0.43999 0.83765 0.46816 0.0
N100 N 0.39773 0.83652 0.46749 0.0
C101 C 0.46148 0.90703 0.51845 0.0
C102 C 0.43943 0.97658 0.56675 0.0
C103 C 0.39632 0.97604 0.56405 0.0
C104 C 0.37587 0.90495 0.51387 0.0
C105 C 0.32787 0.66718 0.68331 0.0
C106 C 0.29226 0.71582 0.50962 0.0
C107 C 0.35221 0.69429 0.60535 0.0
N108 N 0.33439 0.71599 0.51902 0.0
C109 C 0.26691 0.69241 0.58715 0.0
C110 C 0.28493 0.66713 0.6743 0.0
C111 C 0.32208 0.62232 0.26222 0.0
C112 C 0.4785 0.56502 0.1294 0.0
C113 C 0.39642 0.57798 0.07369 0.0
C114 C 0.4191 0.49766 0.05056 0.0
C115 C 0.46031 0.49103 0.07935 0.0
N116 N 0.41431 0.64977 0.12389 0.0
C117 C 0.45491 0.64442 0.15097 0.0
Co118 Co 0.86889 0.7589 0.90702 0.0
Co119 Co 0.88177 0.73561 0.66299 0.0
O120 O 0.90382 0.74533 0.79346 0.0
C121 C 0.92881 0.91525 0.91669 0.0
O122 O 0.91717 0.93847 0.82951 0.0
C123 C 0.92811 0.57072 0.59013 0.0
O124 O 0.89213 0.53125 0.57268 0.0
O125 O 0.84744 0.62738 0.7041 0.0
O126 O 0.82753 0.66702 0.85369 0.0
H127 H 0.77188 0.66251 0.41971 0.0
H128 H 0.95758 0.70946 0.93207 0.0
O129 O 0.91065 0.84867 0.96051 0.0
H130 H 0.87955 0.46354 0.10293 0.0
H131 H 0.84234 0.84695 0.25116 0.0
H132 H 0.7781 0.7613 0.94245 0.0
H133 H 0.84291 0.58894 0.01512 0.0
H134 H 0.88558 0.79733 0.11509 0.0
O135 O 0.92957 0.65058 0.63146 0.0
H136 H 0.79832 0.7073 0.57939 0.0
H137 H 0.91981 0.73433 0.4669 0.0
H138 H 0.73375 0.80018 0.08015 0.0
H139 H 0.99541 0.58756 0.02195 0.0
H140 H 0.76584 0.84552 0.23558 0.0
H141 H 0.95638 0.46308 0.10793 0.0
O142 O 0.83821 0.86344 0.84648 0.0
H143 H 0.01111 0.93124 0.65376 0.0
H144 H 0.86507 0.91108 0.55263 0.0
H145 H 0.90562 0.05236 0.51273 0.0
H146 H 0.97899 0.06362 0.5647 0.0
H147 H 0.96933 0.79155 0.69289 0.0
H148 H 0.89477 0.6884 0.30613 0.0
H149 H 0.82062 0.64806 0.28294 0.0
O150 O 0.83393 0.82145 0.69165 0.0
C151 C 0.82426 0.61713 0.77762 0.0
C152 C 0.80438 0.67832 0.42938 0.0
C153 C 0.87337 0.69278 0.36569 0.0
N154 N 0.86069 0.72154 0.53294 0.0
C155 C 0.81949 0.70435 0.5195 0.0
C156 C 0.88729 0.7194 0.45669 0.0
C157 C 0.83174 0.67047 0.35263 0.0
C158 C 0.94035 0.65566 0.96935 0.0
N159 N 0.89809 0.65649 0.96866 0.0
C160 C 0.96196 0.58653 0.01981 0.0
C161 C 0.94003 0.51691 0.06823 0.0
C162 C 0.89692 0.51713 0.0655 0.0
C163 C 0.87635 0.58798 0.01515 0.0
C164 C 0.828 0.82593 0.18429 0.0
C165 C 0.79244 0.77647 0.01082 0.0
C166 C 0.85237 0.79875 0.10638 0.0
N167 N 0.83457 0.77668 0.02015 0.0
C168 C 0.76707 0.79989 0.08832 0.0
C169 C 0.78507 0.8256 0.17535 0.0
C170 C 0.82227 0.87076 0.76319 0.0
C171 C 0.97911 0.92724 0.63105 0.0
C172 C 0.89705 0.91522 0.57502 0.0
C173 C 0.91987 0.99534 0.55211 0.0
C174 C 0.96107 0.00151 0.58106 0.0
N175 N 0.91478 0.84316 0.62518 0.0
C176 C 0.95537 0.84806 0.65243 0.0
Co177 Co 0.63604 0.25933 0.59686 0.0
Co178 Co 0.62325 0.23565 0.84078 0.0
O179 O 0.60111 0.24568 0.71042 0.0
C180 C 0.57587 0.41539 0.58679 0.0
O181 O 0.5874 0.43879 0.67398 0.0
C182 C 0.57675 0.07097 0.91349 0.0
O183 O 0.61268 0.03116 0.93077 0.0
O184 O 0.65739 0.12717 0.79937 0.0
O185 O 0.67754 0.16769 0.65025 0.0
H186 H 0.73337 0.16198 0.08347 0.0
H187 H 0.54744 0.2093 0.57181 0.0
O188 O 0.59414 0.34882 0.54318 0.0
H189 H 0.62588 0.96364 0.4014 0.0
H190 H 0.66251 0.34676 0.25251 0.0
H191 H 0.72682 0.2625 0.5616 0.0
H192 H 0.66231 0.08946 0.48893 0.0
H193 H 0.61933 0.29723 0.38869 0.0
O194 O 0.57536 0.15098 0.87244 0.0
H195 H 0.70676 0.20665 0.92389 0.0
H196 H 0.58541 0.23426 0.03706 0.0
H197 H 0.77114 0.30139 0.42387 0.0
H198 H 0.50981 0.08697 0.48222 0.0
H199 H 0.73901 0.34599 0.26823 0.0
H200 H 0.54905 0.96261 0.39646 0.0
O201 O 0.66651 0.36408 0.65744 0.0
H202 H 0.49423 0.43255 0.85078 0.0
H203 H 0.6403 0.41074 0.95135 0.0
H204 H 0.60001 0.55235 0.99164 0.0
H205 H 0.52662 0.56445 0.93995 0.0
H206 H 0.53575 0.29248 0.81132 0.0
H207 H 0.61061 0.18838 0.19774 0.0
H208 H 0.68478 0.14797 0.22059 0.0
O209 O 0.67118 0.32114 0.81193 0.0
C210 C 0.68071 0.11735 0.72604 0.0
C211 C 0.70086 0.17788 0.07397 0.0
C212 C 0.63195 0.19262 0.13804 0.0
N213 N 0.64445 0.22123 0.9707 0.0
C214 C 0.68565 0.20385 0.9839 0.0
C215 C 0.61792 0.21919 0.04709 0.0
C216 C 0.67359 0.17025 0.15091 0.0
C217 C 0.56475 0.15556 0.53462 0.0
N218 N 0.60701 0.15669 0.53529 0.0
C219 C 0.54326 0.08618 0.48433 0.0
C220 C 0.56531 0.01663 0.43603 0.0
C221 C 0.60842 0.01718 0.43873 0.0
C222 C 0.62887 0.08826 0.48891 0.0
C223 C 0.67688 0.32604 0.31947 0.0
C224 C 0.71248 0.27739 0.49317 0.0
C225 C 0.65253 0.29892 0.39743 0.0
N226 N 0.67035 0.27723 0.48376 0.0
C227 C 0.73783 0.3008 0.41564 0.0
C228 C 0.71981 0.32608 0.32848 0.0
C229 C 0.68266 0.37089 0.74057 0.0
C230 C 0.52624 0.42819 0.87338 0.0
C231 C 0.60832 0.41523 0.9291 0.0
C232 C 0.58564 0.49555 0.95223 0.0
C233 C 0.54443 0.50218 0.92344 0.0
N234 N 0.59043 0.34345 0.87889 0.0
C235 C 0.54983 0.34879 0.85181 0.0
C236 C 0.27655 0.97638 0.17929 0.0
C237 C 0.28908 0.94296 0.26968 0.0
H238 H 0.23243 0.05469 0.09876 0.0
C239 C 0.26613 0.96932 0.35123 0.0
H240 H 0.2934 0.95818 0.11485 0.0
C241 C 0.23146 0.02787 0.34216 0.0
C242 C 0.21841 0.05886 0.25111 0.0
H243 H 0.27489 0.9447 0.42199 0.0
H244 H 0.21465 0.04785 0.40619 0.0
C245 C 0.24133 0.032 0.16998 0.0
C246 C 0.22824 0.47572 0.32277 0.0
C247 C 0.21542 0.44315 0.23228 0.0
H248 H 0.27261 0.5532 0.4033 0.0
C249 C 0.2381 0.47026 0.1506 0.0
H250 H 0.2116 0.45692 0.38732 0.0
C251 C 0.27278 0.52871 0.15963 0.0
C252 C 0.28612 0.55883 0.25075 0.0
H253 H 0.22912 0.44631 0.07976 0.0
H254 H 0.28938 0.54928 0.0955 0.0
C255 C 0.26347 0.53121 0.33202 0.0
C256 C 0.72819 0.01683 0.8235 0.0
C257 C 0.71566 0.05025 0.7331 0.0
H258 H 0.77231 0.93852 0.90403 0.0
C259 C 0.73861 0.02389 0.65156 0.0
H260 H 0.71134 0.03503 0.88794 0.0
C261 C 0.77328 0.96534 0.66063 0.0
C262 C 0.78633 0.93435 0.75168 0.0
H263 H 0.72985 0.04851 0.5808 0.0
H264 H 0.7901 0.94537 0.5966 0.0
C265 C 0.7634 0.96121 0.83281 0.0
C266 C 0.7765 0.51749 0.68002 0.0
C267 C 0.78932 0.55006 0.77051 0.0
H268 H 0.73213 0.44001 0.59948 0.0
C269 C 0.76664 0.52295 0.85219 0.0
H270 H 0.79314 0.53629 0.61547 0.0
C271 C 0.73196 0.4645 0.84316 0.0
C272 C 0.71862 0.43438 0.75204 0.0
H273 H 0.77562 0.5469 0.92303 0.0
H274 H 0.71536 0.44393 0.90728 0.0
C275 C 0.74127 0.462 0.67077 0.0
C276 C 0.0256 0.06201 0.94984 0.0
C277 C 0.03892 0.03431 0.04192 0.0
H278 H 0.98032 0.04697 0.83845 0.0
C279 C 0.01526 0.96852 0.09303 0.0
H280 H 0.04296 0.11299 0.90862 0.0
C281 C 0.97914 0.93121 0.05296 0.0
C282 C 0.96582 0.9589 0.96088 0.0
H283 H 0.02442 0.94624 0.16435 0.0
H284 H 0.96178 0.88022 0.09418 0.0
C285 C 0.98948 0.02469 0.90977 0.0
C286 C 0.5005 0.07904 0.94722 0.0
C287 C 0.53844 0.03122 0.95582 0.0
H288 H 0.43616 0.08315 0.98347 0.0
C289 C 0.53986 0.94837 0.01055 0.0
H290 H 0.49828 0.14346 0.90623 0.0
C291 C 0.50424 0.91418 0.05557 0.0
C292 C 0.4663 0.96199 0.04696 0.0
H293 H 0.56858 0.91006 0.01931 0.0
H294 H 0.50646 0.84975 0.09655 0.0
C295 C 0.46488 0.04484 0.99223 0.0
C296 C 0.00437 0.57844 0.55647 0.0
C297 C 0.96636 0.53103 0.54743 0.0
H298 H 0.06869 0.5824 0.52014 0.0
C299 C 0.96482 0.44878 0.49179 0.0
H300 H 0.00668 0.6424 0.59816 0.0
C301 C 1.00037 0.41477 0.44632 0.0
C302 C 0.03838 0.46218 0.45537 0.0
H303 H 0.93605 0.41082 0.48265 0.0
H304 H 0.99806 0.35081 0.40464 0.0
C305 C 0.03992 0.54443 0.511 0.0
C306 C 0.48961 0.46837 0.40973 0.0
C307 C 0.46587 0.53428 0.46052 0.0
H308 H 0.54312 0.38001 0.40916 0.0
C309 C 0.47906 0.56212 0.55264 0.0
H310 H 0.48055 0.44596 0.33839 0.0
C311 C 0.51513 0.52484 0.59306 0.0
C312 C 0.53888 0.45894 0.54227 0.0
H313 H 0.46163 0.6132 0.59363 0.0
H314 H 0.52419 0.54726 0.6644 0.0
C315 C 0.52569 0.43109 0.45015 0.0
loop_
_geom_bond_atom_site_label_1
_geom_bond_atom_site_label_2
_geom_bond_distance
_geom_bond_site_symmetry_2
_ccdc_geom_bond_type
Co0 O2 2.143 . S
Co0 O8 2.074 . S
Co0 O11 2.093 . S
Co0 O24 2.097 . S
Co0 N41 2.151 . S
Co0 N49 2.214 1_554 S
Co1 O2 2.160 . S
Co1 O7 2.058 . S
Co1 O17 2.057 . S
Co1 O32 2.037 . S
Co1 N36 2.145 . S
Co1 N57 2.257 . S
O2 Co0 2.143 . S
O2 Co1 2.160 . S
C3 O4 1.278 . S
C3 O11 1.224 . S
O4 C3 1.278 . S
C5 O6 1.245 . S
C5 O17 1.232 . S
O6 C5 1.245 . S
O7 Co1 2.058 . S
O7 C33 1.269 . S
O8 Co0 2.074 . S
O8 C33 1.257 . S
H9 C34 0.930 . S
H10 C40 0.930 . S
O11 Co0 2.093 . S
O11 C3 1.224 . S
H12 C44 0.929 . S
H13 C46 0.930 . S
H14 C47 0.930 . S
H15 C45 0.929 . S
H16 C48 0.928 . S
O17 Co1 2.057 . S
O17 C5 1.232 . S
H18 C37 0.929 . S
H19 C38 0.929 . S
H20 C50 0.931 . S
H21 C42 0.929 . S
H22 C51 0.930 . S
H23 C43 0.931 . S
O24 Co0 2.097 . S
O24 C52 1.214 . S
H25 C53 0.929 . S
H26 C54 0.929 . S
H27 C55 0.930 . S
H28 C56 0.929 . S
H29 C58 0.930 . S
H30 C35 0.930 . S
H31 C39 0.930 . S
O32 Co1 2.037 . S
O32 C52 1.234 . S
C33 O7 1.269 . S
C33 O8 1.257 . S
C34 H9 0.930 . S
C34 C37 1.388 . S
C34 C39 1.418 . S
C35 H30 0.930 . S
C35 C38 1.404 . S
C35 C39 1.353 . S
N36 Co1 2.145 . S
N36 C37 1.397 . S
N36 C38 1.334 . S
C37 H18 0.929 . S
C37 C34 1.388 . S
C37 N36 1.397 . S
C38 H19 0.929 . S
C38 C35 1.404 . S
C38 N36 1.334 . S
C39 H31 0.930 . S
C39 C34 1.418 . S
C39 C35 1.353 . S
C40 H10 0.930 . S
C40 N41 1.330 . S
C40 C42 1.446 1_554 S
N41 Co0 2.151 . S
N41 C40 1.330 . S
N41 C45 1.418 1_554 S
C42 H21 0.929 . S
C42 C40 1.446 1_556 S
C42 C43 1.332 . S
C43 H23 0.931 . S
C43 C42 1.332 . S
C43 C44 1.267 . S
C44 H12 0.929 . S
C44 C43 1.267 . S
C44 C45 1.251 . S
C45 H15 0.929 . S
C45 N41 1.418 1_556 S
C45 C44 1.251 . S
C46 H13 0.930 . S
C46 C48 1.406 . S
C46 C51 1.261 . S
C47 H14 0.930 . S
C47 N49 1.325 1_554 S
C47 C50 1.357 1_554 S
C48 H16 0.928 . S
C48 C46 1.406 . S
C48 N49 1.261 . S
N49 Co0 2.214 1_556 S
N49 C47 1.325 1_556 S
N49 C48 1.261 . S
C50 H20 0.931 . S
C50 C47 1.357 1_556 S
C50 C51 1.312 . S
C51 H22 0.930 . S
C51 C46 1.261 . S
C51 C50 1.312 . S
C52 O24 1.214 . S
C52 O32 1.234 . S
C53 H25 0.929 . S
C53 C56 1.391 1_545 S
C53 C58 1.391 . S
C54 H26 0.929 . S
C54 C55 1.390 1_545 S
C54 N57 1.391 . S
C55 H27 0.930 . S
C55 C54 1.390 1_565 S
C55 C56 1.392 . S
C56 H28 0.929 . S
C56 C53 1.391 1_565 S
C56 C55 1.392 . S
N57 Co1 2.257 . S
N57 C54 1.391 . S
N57 C58 1.388 . S
C58 H29 0.930 . S
C58 C53 1.391 . S
C58 N57 1.388 . S
Co59 O61 2.143 . S
Co59 O67 2.074 . S
Co59 O70 2.093 . S
Co59 O83 2.097 . S
Co59 N100 2.151 . S
Co59 N108 2.214 . S
Co60 O61 2.160 . S
Co60 O66 2.058 . S
Co60 O76 2.057 . S
Co60 O91 2.037 . S
Co60 N95 2.145 1_554 S
Co60 N116 2.257 . S
O61 Co59 2.143 . S
O61 Co60 2.160 . S
C62 O63 1.278 . S
C62 O70 1.224 . S
O63 C62 1.278 . S
C64 O65 1.245 . S
C64 O76 1.232 . S
O65 C64 1.245 . S
O66 Co60 2.058 . S
O66 C92 1.269 . S
O67 Co59 2.074 . S
O67 C92 1.257 . S
H68 C93 0.930 . S
H69 C99 0.930 . S
O70 Co59 2.093 . S
O70 C62 1.224 . S
H71 C103 0.929 1_545 S
H72 C105 0.930 . S
H73 C106 0.930 . S
H74 C104 0.929 . S
H75 C107 0.928 . S
O76 Co60 2.057 . S
O76 C64 1.232 . S
H77 C96 0.929 1_554 S
H78 C97 0.929 . S
H79 C109 0.931 . S
H80 C101 0.929 . S
H81 C110 0.930 . S
H82 C102 0.931 1_545 S
O83 Co59 2.097 . S
O83 C111 1.214 . S
H84 C112 0.929 . S
H85 C113 0.929 . S
H86 C114 0.926 1_556 S
H87 C115 0.929 1_556 S
H88 C117 0.930 . S
H89 C94 0.930 . S
H90 C98 0.930 . S
O91 Co60 2.037 . S
O91 C111 1.234 . S
C92 O66 1.269 . S
C92 O67 1.257 . S
C93 H68 0.930 . S
C93 C96 1.388 . S
C93 C98 1.418 . S
C94 H89 0.930 . S
C94 C97 1.404 . S
C94 C98 1.353 . S
N95 Co60 2.145 1_556 S
N95 C96 1.397 . S
N95 C97 1.334 . S
C96 H77 0.929 1_556 S
C96 C93 1.388 . S
C96 N95 1.397 . S
C97 H78 0.929 . S
C97 C94 1.404 . S
C97 N95 1.334 . S
C98 H90 0.930 . S
C98 C93 1.418 . S
C98 C94 1.353 . S
C99 H69 0.930 . S
C99 N100 1.330 . S
C99 C101 1.446 . S
N100 Co59 2.151 . S
N100 C99 1.330 . S
N100 C104 1.418 . S
C101 H80 0.929 . S
C101 C99 1.446 . S
C101 C102 1.332 . S
C102 H82 0.931 1_565 S
C102 C101 1.332 . S
C102 C103 1.267 . S
C103 H71 0.929 1_565 S
C103 C102 1.267 . S
C103 C104 1.251 . S
C104 H74 0.929 . S
C104 N100 1.418 . S
C104 C103 1.251 . S
C105 H72 0.930 . S
C105 C107 1.406 . S
C105 C110 1.261 . S
C106 H73 0.930 . S
C106 N108 1.325 . S
C106 C109 1.357 . S
C107 H75 0.928 . S
C107 C105 1.406 . S
C107 N108 1.261 . S
N108 Co59 2.214 . S
N108 C106 1.325 . S
N108 C107 1.261 . S
C109 H79 0.931 . S
C109 C106 1.357 . S
C109 C110 1.312 . S
C110 H81 0.930 . S
C110 C105 1.261 . S
C110 C109 1.312 . S
C111 O83 1.214 . S
C111 O91 1.234 . S
C112 H84 0.929 . S
C112 C115 1.391 . S
C112 C117 1.391 . S
C113 H85 0.929 . S
C113 C114 1.393 . S
C113 N116 1.391 . S
C114 H86 0.926 1_554 S
C114 C113 1.393 . S
C114 C115 1.393 . S
C115 H87 0.929 1_554 S
C115 C112 1.391 . S
C115 C114 1.393 . S
N116 Co60 2.257 . S
N116 C113 1.391 . S
N116 C117 1.388 . S
C117 H88 0.930 . S
C117 C112 1.391 . S
C117 N116 1.388 . S
Co118 O120 2.143 . S
Co118 O126 2.074 . S
Co118 O129 2.093 . S
Co118 O142 2.097 . S
Co118 N159 2.151 . S
Co118 N167 2.214 1_556 S
Co119 O120 2.160 . S
Co119 O125 2.058 . S
Co119 O135 2.057 . S
Co119 O150 2.037 . S
Co119 N154 2.145 . S
Co119 N175 2.257 . S
O120 Co118 2.143 . S
O120 Co119 2.160 . S
C121 O122 1.278 . S
C121 O129 1.224 . S
O122 C121 1.278 . S
C123 O124 1.245 . S
C123 O135 1.232 . S
O124 C123 1.245 . S
O125 Co119 2.058 . S
O125 C151 1.269 . S
O126 Co118 2.074 . S
O126 C151 1.257 . S
H127 C152 0.930 . S
H128 C158 0.930 . S
O129 Co118 2.093 . S
O129 C121 1.224 . S
H130 C162 0.929 . S
H131 C164 0.930 . S
H132 C165 0.930 . S
H133 C163 0.929 . S
H134 C166 0.928 . S
O135 Co119 2.057 . S
O135 C123 1.232 . S
H136 C155 0.929 . S
H137 C156 0.929 . S
H138 C168 0.931 . S
H139 C160 0.929 . S
H140 C169 0.930 . S
H141 C161 0.931 . S
O142 Co118 2.097 . S
O142 C170 1.214 . S
H143 C171 0.929 . S
H144 C172 0.929 . S
H145 C173 0.930 . S
H146 C174 0.929 . S
H147 C176 0.930 . S
H148 C153 0.930 . S
H149 C157 0.930 . S
O150 Co119 2.037 . S
O150 C170 1.234 . S
C151 O125 1.269 . S
C151 O126 1.257 . S
C152 H127 0.930 . S
C152 C155 1.388 . S
C152 C157 1.418 . S
C153 H148 0.930 . S
C153 C156 1.404 . S
C153 C157 1.353 . S
N154 Co119 2.145 . S
N154 C155 1.397 . S
N154 C156 1.334 . S
C155 H136 0.929 . S
C155 C152 1.388 . S
C155 N154 1.397 . S
C156 H137 0.929 . S
C156 C153 1.404 . S
C156 N154 1.334 . S
C157 H149 0.930 . S
C157 C152 1.418 . S
C157 C153 1.353 . S
C158 H128 0.930 . S
C158 N159 1.330 . S
C158 C160 1.446 1_556 S
N159 Co118 2.151 . S
N159 C158 1.330 . S
N159 C163 1.418 1_556 S
C160 H139 0.929 . S
C160 C158 1.446 1_554 S
C160 C161 1.332 . S
C161 H141 0.931 . S
C161 C160 1.332 . S
C161 C162 1.267 . S
C162 H130 0.929 . S
C162 C161 1.267 . S
C162 C163 1.251 . S
C163 H133 0.929 . S
C163 N159 1.418 1_554 S
C163 C162 1.251 . S
C164 H131 0.930 . S
C164 C166 1.406 . S
C164 C169 1.261 . S
C165 H132 0.930 . S
C165 N167 1.325 1_556 S
C165 C168 1.357 1_556 S
C166 H134 0.928 . S
C166 C164 1.406 . S
C166 N167 1.261 . S
N167 Co118 2.214 1_554 S
N167 C165 1.325 1_554 S
N167 C166 1.261 . S
C168 H138 0.931 . S
C168 C165 1.357 1_554 S
C168 C169 1.312 . S
C169 H140 0.930 . S
C169 C164 1.261 . S
C169 C168 1.312 . S
C170 O142 1.214 . S
C170 O150 1.234 . S
C171 H143 0.929 . S
C171 C174 1.391 1_565 S
C171 C176 1.391 . S
C172 H144 0.929 . S
C172 C173 1.390 1_565 S
C172 N175 1.391 . S
C173 H145 0.930 . S
C173 C172 1.390 1_545 S
C173 C174 1.392 . S
C174 H146 0.929 . S
C174 C171 1.391 1_545 S
C174 C173 1.392 . S
N175 Co119 2.257 . S
N175 C172 1.391 . S
N175 C176 1.388 . S
C176 H147 0.930 . S
C176 C171 1.391 . S
C176 N175 1.388 . S
Co177 O179 2.143 . S
Co177 O185 2.074 . S
Co177 O188 2.093 . S
Co177 O201 2.097 . S
Co177 N218 2.151 . S
Co177 N226 2.214 . S
Co178 O179 2.160 . S
Co178 O184 2.058 . S
Co178 O194 2.057 . S
Co178 O209 2.037 . S
Co178 N213 2.145 1_556 S
Co178 N234 2.257 . S
O179 Co177 2.143 . S
O179 Co178 2.160 . S
C180 O181 1.278 . S
C180 O188 1.224 . S
O181 C180 1.278 . S
C182 O183 1.245 . S
C182 O194 1.232 . S
O183 C182 1.245 . S
O184 Co178 2.058 . S
O184 C210 1.269 . S
O185 Co177 2.074 . S
O185 C210 1.257 . S
H186 C211 0.930 . S
H187 C217 0.930 . S
O188 Co177 2.093 . S
O188 C180 1.224 . S
H189 C221 0.929 1_565 S
H190 C223 0.930 . S
H191 C224 0.930 . S
H192 C222 0.929 . S
H193 C225 0.928 . S
O194 Co178 2.057 . S
O194 C182 1.232 . S
H195 C214 0.929 1_556 S
H196 C215 0.929 . S
H197 C227 0.931 . S
H198 C219 0.929 . S
H199 C228 0.930 . S
H200 C220 0.931 1_565 S
O201 Co177 2.097 . S
O201 C229 1.214 . S
H202 C230 0.929 . S
H203 C231 0.929 . S
H204 C232 0.926 1_554 S
H205 C233 0.929 1_554 S
H206 C235 0.930 . S
H207 C212 0.930 . S
H208 C216 0.930 . S
O209 Co178 2.037 . S
O209 C229 1.234 . S
C210 O184 1.269 . S
C210 O185 1.257 . S
C211 H186 0.930 . S
C211 C214 1.388 . S
C211 C216 1.418 . S
C212 H207 0.930 . S
C212 C215 1.404 . S
C212 C216 1.353 . S
N213 Co178 2.145 1_554 S
N213 C214 1.397 . S
N213 C215 1.334 . S
C214 H195 0.929 1_554 S
C214 C211 1.388 . S
C214 N213 1.397 . S
C215 H196 0.929 . S
C215 C212 1.404 . S
C215 N213 1.334 . S
C216 H208 0.930 . S
C216 C211 1.418 . S
C216 C212 1.353 . S
C217 H187 0.930 . S
C217 N218 1.330 . S
C217 C219 1.446 . S
N218 Co177 2.151 . S
N218 C217 1.330 . S
N218 C222 1.418 . S
C219 H198 0.929 . S
C219 C217 1.446 . S
C219 C220 1.332 . S
C220 H200 0.931 1_545 S
C220 C219 1.332 . S
C220 C221 1.267 . S
C221 H189 0.929 1_545 S
C221 C220 1.267 . S
C221 C222 1.251 . S
C222 H192 0.929 . S
C222 N218 1.418 . S
C222 C221 1.251 . S
C223 H190 0.930 . S
C223 C225 1.406 . S
C223 C228 1.261 . S
C224 H191 0.930 . S
C224 N226 1.325 . S
C224 C227 1.357 . S
C225 H193 0.928 . S
C225 C223 1.406 . S
C225 N226 1.261 . S
N226 Co177 2.214 . S
N226 C224 1.325 . S
N226 C225 1.261 . S
C227 H197 0.931 . S
C227 C224 1.357 . S
C227 C228 1.312 . S
C228 H199 0.930 . S
C228 C223 1.261 . S
C228 C227 1.312 . S
C229 O201 1.214 . S
C229 O209 1.234 . S
C230 H202 0.929 . S
C230 C233 1.391 . S
C230 C235 1.391 . S
C231 H203 0.929 . S
C231 C232 1.393 . S
C231 N234 1.391 . S
C232 H204 0.926 1_556 S
C232 C231 1.393 . S
C232 C233 1.393 . S
C233 H205 0.929 1_556 S
C233 C230 1.391 . S
C233 C232 1.393 . S
N234 Co178 2.257 . S
N234 C231 1.391 . S
N234 C235 1.388 . S
C235 H206 0.930 . S
C235 C230 1.391 . S
C235 N234 1.388 . S
C236 C237 1.387 . S
C236 H240 0.950 . S
C236 C245 1.390 1_565 S
C237 C236 1.387 . S
C237 C239 1.387 . S
H238 C245 0.950 . S
C239 C237 1.387 . S
C239 C241 1.390 1_565 S
C239 H243 0.950 . S
H240 C236 0.950 . S
C241 C239 1.390 1_545 S
C241 C242 1.387 . S
C241 H244 0.950 . S
C242 C241 1.387 . S
C242 C245 1.387 . S
H243 C239 0.950 . S
H244 C241 0.950 . S
C245 C236 1.390 1_545 S
C245 H238 0.950 . S
C245 C242 1.387 . S
C246 C247 1.387 . S
C246 H250 0.950 . S
C246 C255 1.390 . S
C247 C246 1.387 . S
C247 C249 1.387 . S
H248 C255 0.950 . S
C249 C247 1.387 . S
C249 C251 1.390 . S
C249 H253 0.950 . S
H250 C246 0.950 . S
C251 C249 1.390 . S
C251 C252 1.387 . S
C251 H254 0.950 . S
C252 C251 1.387 . S
C252 C255 1.387 . S
H253 C249 0.950 . S
H254 C251 0.950 . S
C255 C246 1.390 . S
C255 H248 0.950 . S
C255 C252 1.387 . S
C256 C257 1.387 . S
C256 H260 0.950 . S
C256 C265 1.390 1_545 S
C257 C256 1.387 . S
C257 C259 1.387 . S
H258 C265 0.950 . S
C259 C257 1.387 . S
C259 C261 1.390 1_545 S
C259 H263 0.950 . S
H260 C256 0.950 . S
C261 C259 1.390 1_565 S
C261 C262 1.387 . S
C261 H264 0.950 . S
C262 C261 1.387 . S
C262 C265 1.387 . S
H263 C259 0.950 . S
H264 C261 0.950 . S
C265 C256 1.390 1_565 S
C265 H258 0.950 . S
C265 C262 1.387 . S
C266 C267 1.387 . S
C266 H270 0.950 . S
C266 C275 1.390 . S
C267 C266 1.387 . S
C267 C269 1.387 . S
H268 C275 0.950 . S
C269 C267 1.387 . S
C269 C271 1.390 . S
C269 H273 0.950 . S
H270 C266 0.950 . S
C271 C269 1.390 . S
C271 C272 1.387 . S
C271 H274 0.950 . S
C272 C271 1.387 . S
C272 C275 1.387 . S
H273 C269 0.950 . S
H274 C271 0.950 . S
C275 C266 1.390 . S
C275 H268 0.950 . S
C275 C272 1.387 . S
C276 C277 1.387 1_556 S
C276 H280 0.950 . S
C276 C285 1.390 1_455 S
C277 C276 1.387 1_554 S
C277 C279 1.387 1_545 S
H278 C285 0.950 . S
C279 C277 1.387 1_565 S
C279 C281 1.390 1_455 S
C279 H283 0.950 . S
H280 C276 0.950 . S
C281 C279 1.390 1_655 S
C281 C282 1.387 1_554 S
C281 H284 0.950 . S
C282 C281 1.387 1_556 S
C282 C285 1.387 1_565 S
H283 C279 0.950 . S
H284 C281 0.950 . S
C285 C276 1.390 1_655 S
C285 H278 0.950 . S
C285 C282 1.387 1_545 S
C286 C287 1.387 1_554 S
C286 H290 0.950 . S
C286 C295 1.390 1_545 S
C287 C286 1.387 1_556 S
C287 C289 1.387 . S
H288 C295 0.950 . S
C289 C287 1.387 . S
C289 C291 1.390 1_545 S
C289 H293 0.950 . S
H290 C286 0.950 . S
C291 C289 1.390 1_565 S
C291 C292 1.387 1_556 S
C291 H294 0.950 . S
C292 C291 1.387 1_554 S
C292 C295 1.387 . S
H293 C289 0.950 . S
H294 C291 0.950 . S
C295 C286 1.390 1_565 S
C295 H288 0.950 . S
C295 C292 1.387 . S
C296 C297 1.387 . S
C296 H300 0.950 . S
C296 C305 1.390 1_655 S
C297 C296 1.387 . S
C297 C299 1.387 . S
H298 C305 0.950 . S
C299 C297 1.387 . S
C299 C301 1.390 1_655 S
C299 H303 0.950 . S
H300 C296 0.950 . S
C301 C299 1.390 1_455 S
C301 C302 1.387 . S
C301 H304 0.950 . S
C302 C301 1.387 . S
C302 C305 1.387 . S
H303 C299 0.950 . S
H304 C301 0.950 . S
C305 C296 1.390 1_455 S
C305 H298 0.950 . S
C305 C302 1.387 . S
C306 C307 1.387 . S
C306 H310 0.950 . S
C306 C315 1.390 . S
C307 C306 1.387 . S
C307 C309 1.387 . S
H308 C315 0.950 . S
C309 C307 1.387 . S
C309 C311 1.390 . S
C309 H313 0.950 . S
H310 C306 0.950 . S
C311 C309 1.390 . S
C311 C312 1.387 . S
C311 H314 0.950 . S
C312 C311 1.387 . S
C312 C315 1.387 . S
H313 C309 0.950 . S
H314 C311 0.950 . S
C315 C306 1.390 . S
C315 H308 0.950 . S
C315 C312 1.387 . S
C237 C92 1.379 . S
C242 C52 1.384 . S
C247 C33 1.379 . S
C252 C111 1.384 . S
C257 C210 1.378 . S
C262 C170 1.383 . S
C267 C151 1.378 . S
C272 C229 1.383 . S
C277 C3 1.489 . S
C282 C121 1.489 . S
C287 C182 1.499 . S
C292 C64 1.499 . S
C297 C123 1.500 . S
C302 C5 1.500 . S
C307 C62 1.487 . S
C312 C180 1.487 . S
