# Generated by pormake.
# Topology can, (4)-cn, num edge types: 1
# Building blocks:
#     Node 0, Type 0, BuildingBlock: GALJAG_clean_sbu_0, # of connection points: 4
#     Node 1, Type 0, BuildingBlock: GALJAG_clean_sbu_0, # of connection points: 4
#     Node 2, Type 0, BuildingBlock: GALJAG_clean_sbu_0, # of connection points: 4
#     Node 3, Type 0, BuildingBlock: GALJAG_clean_sbu_0, # of connection points: 4
#     Node 4, Type 0, BuildingBlock: GALJAG_clean_sbu_0, # of connection points: 4
#     Node 5, Type 0, BuildingBlock: GALJAG_clean_sbu_0, # of connection points: 4
#     Node 6, Type 0, BuildingBlock: GALJAG_clean_sbu_0, # of connection points: 4
#     Node 7, Type 0, BuildingBlock: GALJAG_clean_sbu_0, # of connection points: 4
#     Node 8, Type 0, BuildingBlock: GALJAG_clean_sbu_0, # of connection points: 4
#     Node 9, Type 0, BuildingBlock: GALJAG_clean_sbu_0, # of connection points: 4
#     Node 10, Type 0, BuildingBlock: GALJAG_clean_sbu_0, # of connection points: 4
#     Node 11, Type 0, BuildingBlock: GALJAG_clean_sbu_0, # of connection points: 4
#     Edge 12, Type (0, 0), BuildingBlock: KIFKEQ_clean_linker_1, # of connection points: 2
#     Edge 13, Type (0, 0), BuildingBlock: KIFKEQ_clean_linker_1, # of connection points: 2
#     Edge 14, Type (0, 0), BuildingBlock: KIFKEQ_clean_linker_1, # of connection points: 2
#     Edge 15, Type (0, 0), BuildingBlock: KIFKEQ_clean_linker_1, # of connection points: 2
#     Edge 16, Type (0, 0), BuildingBlock: KIFKEQ_clean_linker_1, # of connection points: 2
#     Edge 17, Type (0, 0), BuildingBlock: KIFKEQ_clean_linker_1, # of connection points: 2
#     Edge 18, Type (0, 0), BuildingBlock: KIFKEQ_clean_linker_1, # of connection points: 2
#     Edge 19, Type (0, 0), BuildingBlock: KIFKEQ_clean_linker_1, # of connection points: 2
#     Edge 20, Type (0, 0), BuildingBlock: KIFKEQ_clean_linker_1, # of connection points: 2
#     Edge 21, Type (0, 0), BuildingBlock: KIFKEQ_clean_linker_1, # of connection points: 2
#     Edge 22, Type (0, 0), BuildingBlock: KIFKEQ_clean_linker_1, # of connection points: 2
#     Edge 23, Type (0, 0), BuildingBlock: KIFKEQ_clean_linker_1, # of connection points: 2
#     Edge 24, Type (0, 0), BuildingBlock: KIFKEQ_clean_linker_1, # of connection points: 2
#     Edge 25, Type (0, 0), BuildingBlock: KIFKEQ_clean_linker_1, # of connection points: 2
#     Edge 26, Type (0, 0), BuildingBlock: KIFKEQ_clean_linker_1, # of connection points: 2
#     Edge 27, Type (0, 0), BuildingBlock: KIFKEQ_clean_linker_1, # of connection points: 2
#     Edge 28, Type (0, 0), BuildingBlock: KIFKEQ_clean_linker_1, # of connection points: 2
#     Edge 29, Type (0, 0), BuildingBlock: KIFKEQ_clean_linker_1, # of connection points: 2
#     Edge 30, Type (0, 0), BuildingBlock: KIFKEQ_clean_linker_1, # of connection points: 2
#     Edge 31, Type (0, 0), BuildingBlock: KIFKEQ_clean_linker_1, # of connection points: 2
#     Edge 32, Type (0, 0), BuildingBlock: KIFKEQ_clean_linker_1, # of connection points: 2
#     Edge 33, Type (0, 0), BuildingBlock: KIFKEQ_clean_linker_1, # of connection points: 2
#     Edge 34, Type (0, 0), BuildingBlock: KIFKEQ_clean_linker_1, # of connection points: 2
#     Edge 35, Type (0, 0), BuildingBlock: KIFKEQ_clean_linker_1, # of connection points: 2
# Relax obj value: 0.108
# Max RMSD: 0.101
# Mean RMSD: 0.101
data_MOF--net-can--node1-GALJAG_clean_sbu_0--edge1-KIFKEQ_clean_linker_1
_symmetry_space_group_name_H-M    P1
_symmetry_Int_Tables_number       1
_symmetry_cell_setting            triclinic
loop_
_symmetry_equiv_pos_as_xyz
'x, y, z'
_cell_length_a     54.172174
_cell_length_b     54.097186
_cell_length_c     29.099504
_cell_angle_alpha  90.013634
_cell_angle_beta   90.129248
_cell_angle_gamma 119.96079
loop_
_atom_site_label
_atom_site_type_symbol
_atom_site_fract_x
_atom_site_fract_y
_atom_site_fract_z
_atom_type_partial_charge
In0 In 0.0336 0.36859 0.25476 0.0
O1 O 0.08153 0.39298 0.24503 0.0
O2 O 0.06032 0.34749 0.2463 0.0
C3 C 0.03162 0.41631 0.27207 0.0
C4 C 0.01429 0.35266 0.16825 0.0
C5 C 0.01318 0.34115 0.33506 0.0
O6 O 0.05436 0.4153 0.27501 0.0
O7 O 0.00975 0.39305 0.26122 0.0
O8 O -0.00326 0.33916 0.30256 0.0
O9 O 0.03931 0.35636 0.32647 0.0
C10 C 0.08354 0.37072 0.2428 0.0
O11 O 0.00866 0.33444 0.1996 0.0
O12 O 0.02849 0.37823 0.18117 0.0
In13 In 0.65517 0.04939 0.75781 0.0
O14 O 0.68309 0.09744 0.75487 0.0
O15 O 0.70318 0.07266 0.76644 0.0
C16 C 0.60379 0.04554 0.75416 0.0
C17 C 0.65914 0.03181 0.67276 0.0
C18 C 0.65438 0.0304 0.84375 0.0
O19 O 0.62666 0.06887 0.75971 0.0
O20 O 0.60676 0.02392 0.75033 0.0
O21 O 0.65551 0.01699 0.80888 0.0
O22 O 0.6532 0.05256 0.83477 0.0
C23 C 0.70595 0.09714 0.76187 0.0
O24 O 0.65505 0.01632 0.70776 0.0
O25 O 0.6612 0.05561 0.68111 0.0
In26 In 0.61213 0.66585 0.24063 0.0
O27 O 0.59288 0.69421 0.23277 0.0
O28 O 0.6377 0.71436 0.24434 0.0
C29 C 0.56352 0.61529 0.24501 0.0
C30 C 0.63078 0.66569 0.15477 0.0
C31 C 0.63225 0.66735 0.32608 0.0
O32 O 0.56433 0.63886 0.24963 0.0
O33 O 0.58735 0.6171 0.23791 0.0
O34 O 0.64436 0.66441 0.29098 0.0
O35 O 0.61058 0.66946 0.31755 0.0
C36 C 0.61616 0.7172 0.23805 0.0
O37 O 0.64403 0.66443 0.18981 0.0
O38 O 0.60867 0.66693 0.16352 0.0
In39 In 0.93929 0.60325 0.7528 0.0
O40 O 0.89158 0.58416 0.7579 0.0
O41 O 0.91671 0.62904 0.74698 0.0
C42 C 0.94149 0.55462 0.75268 0.0
C43 C 0.95775 0.6225 0.66705 0.0
C44 C 0.95836 0.6232 0.83834 0.0
O45 O 0.91842 0.55496 0.75018 0.0
O46 O 0.96361 0.57891 0.75528 0.0
O47 O 0.97391 0.63415 0.80334 0.0
O48 O 0.9338 0.60277 0.82972 0.0
C49 C 0.89219 0.60761 0.75234 0.0
O50 O 0.97123 0.63664 0.70222 0.0
O51 O 0.93564 0.59908 0.67559 0.0
In52 In 0.32232 0.94318 0.24863 0.0
O53 O 0.32184 0.97577 0.19806 0.0
O54 O 0.3212 0.93881 0.17149 0.0
C55 C 0.31965 0.96121 0.33401 0.0
C56 C 0.27217 0.8946 0.24486 0.0
C57 C 0.37398 0.94752 0.25276 0.0
O58 O 0.32182 0.97595 0.29883 0.0
O59 O 0.31893 0.93802 0.32564 0.0
O60 O 0.35104 0.92425 0.25787 0.0
O61 O 0.37099 0.96888 0.24542 0.0
C62 C 0.32108 0.96157 0.16292 0.0
O63 O 0.2957 0.89536 0.24029 0.0
O64 O 0.27388 0.9185 0.25138 0.0
In65 In 0.37126 0.33011 0.74777 0.0
O66 O 0.33864 0.33067 0.69733 0.0
O67 O 0.3737 0.32781 0.67079 0.0
C68 C 0.35234 0.32953 0.83359 0.0
C69 C 0.36708 0.2787 0.74575 0.0
C70 C 0.4197 0.38093 0.74934 0.0
O71 O 0.33974 0.33207 0.79873 0.0
O72 O 0.37394 0.32741 0.82466 0.0
O73 O 0.41917 0.35757 0.75516 0.0
O74 O 0.39566 0.37877 0.74267 0.0
C75 C 0.35144 0.32886 0.66222 0.0
O76 O 0.39042 0.30163 0.74055 0.0
O77 O 0.34562 0.28166 0.75192 0.0
In78 In 0.61014 0.9488 0.25869 0.0
O79 O 0.59124 0.90113 0.26472 0.0
O80 O 0.63607 0.9263 0.25392 0.0
C81 C 0.56155 0.95087 0.25663 0.0
C82 C 0.62969 0.96714 0.34448 0.0
C83 C 0.62898 0.96749 0.17297 0.0
O84 O 0.56217 0.928 0.25206 0.0
O85 O 0.58557 0.97292 0.26241 0.0
O86 O 0.64117 0.98282 0.20788 0.0
O87 O 0.60787 0.94341 0.18181 0.0
C88 C 0.61465 0.90174 0.25932 0.0
O89 O 0.64285 0.98163 0.30948 0.0
O90 O 0.60723 0.94405 0.33568 0.0
In91 In 0.65947 0.61178 0.74001 0.0
O92 O 0.68608 0.59037 0.73782 0.0
O93 O 0.70795 0.63572 0.74365 0.0
C94 C 0.60767 0.56455 0.74012 0.0
C95 C 0.66097 0.63107 0.82602 0.0
C96 C 0.66158 0.63223 0.65452 0.0
O97 O 0.63052 0.56385 0.73735 0.0
O98 O 0.61081 0.58926 0.74286 0.0
O99 O 0.66045 0.64535 0.68977 0.0
O100 O 0.66148 0.60936 0.66288 0.0
C101 C 0.70963 0.61329 0.74089 0.0
O102 O 0.65954 0.64431 0.79112 0.0
O103 O 0.66156 0.60858 0.8171 0.0
In104 In 0.04112 0.65611 0.25503 0.0
O105 O 0.08898 0.68405 0.25879 0.0
O106 O 0.06447 0.70428 0.24594 0.0
C107 C 0.03772 0.60496 0.26256 0.0
C108 C 0.02282 0.66019 0.33937 0.0
C109 C 0.02224 0.65379 0.16829 0.0
O110 O 0.06089 0.62772 0.25551 0.0
O111 O 0.01609 0.60791 0.26549 0.0
O112 O 0.00942 0.65662 0.20248 0.0
O113 O 0.0438 0.65178 0.17833 0.0
C114 C 0.08884 0.70698 0.25147 0.0
O115 O 0.007 0.65442 0.30424 0.0
O116 O 0.04738 0.66417 0.33136 0.0
In117 In 0.36775 0.04402 0.74827 0.0
O118 O 0.38763 0.09166 0.7562 0.0
O119 O 0.34274 0.06756 0.74492 0.0
C120 C 0.41604 0.04145 0.74517 0.0
C121 C 0.3488 0.02554 0.83411 0.0
C122 C 0.34786 0.02557 0.66261 0.0
O123 O 0.41549 0.06427 0.73953 0.0
O124 O 0.39208 0.01965 0.75248 0.0
O125 O 0.33539 0.01064 0.69763 0.0
O126 O 0.36973 0.04916 0.67134 0.0
C127 C 0.36452 0.09176 0.75135 0.0
O128 O 0.33572 0.01081 0.79913 0.0
O129 O 0.37086 0.04891 0.82529 0.0
In130 In 0.32437 0.38371 0.24839 0.0
O131 O 0.29621 0.40345 0.25322 0.0
O132 O 0.27634 0.35879 0.23956 0.0
C133 C 0.37565 0.43148 0.24939 0.0
C134 C 0.32113 0.36292 0.3338 0.0
C135 C 0.32462 0.36498 0.16267 0.0
O136 O 0.35264 0.43168 0.24408 0.0
O137 O 0.37288 0.40704 0.25446 0.0
O138 O 0.32473 0.35113 0.1977 0.0
O139 O 0.32476 0.38786 0.17139 0.0
C140 C 0.27344 0.38034 0.24543 0.0
O141 O 0.32431 0.35084 0.29884 0.0
O142 O 0.31967 0.38497 0.32522 0.0
In143 In 0.94875 0.32224 0.7527 0.0
O144 O 0.95538 0.30041 0.81475 0.0
O145 O 0.98509 0.3441 0.80542 0.0
C146 C 0.96358 0.3158 0.66709 0.0
C147 C 0.89754 0.27552 0.75981 0.0
C148 C 0.94682 0.37109 0.75239 0.0
O149 O 0.98083 0.3227 0.7004 0.0
O150 O 0.93956 0.31249 0.67719 0.0
O151 O 0.92902 0.34917 0.774 0.0
O152 O 0.96551 0.36832 0.73097 0.0
C153 C 0.9766 0.32238 0.83046 0.0
O154 O 0.90131 0.30018 0.76767 0.0
O155 O 0.91961 0.27464 0.74859 0.0
H156 H -4e-05 0.30229 0.12464 0.0
H157 H 0.0137 0.38707 0.10145 0.0
H158 H -0.00553 0.29319 0.04172 0.0
H159 H 0.0073 0.37784 0.01944 0.0
H160 H 0.02132 0.36744 0.87326 0.0
H161 H 0.03164 0.37272 0.9554 0.0
H162 H 0.96365 0.28619 0.97761 0.0
H163 H 0.95416 0.28062 0.89535 0.0
C164 C 0.00131 0.31875 0.10187 0.0
C165 C 0.00732 0.34539 0.11934 0.0
C166 C -0.00174 0.31362 0.05442 0.0
C167 C 0.00099 0.33499 0.02378 0.0
C168 C 0.00598 0.36121 0.04177 0.0
C169 C 0.00927 0.36639 0.08889 0.0
C170 C 0.00909 0.34935 0.89558 0.0
C171 C 0.98678 0.32374 0.87798 0.0
C172 C 0.01474 0.35244 0.94273 0.0
C173 C -0.00201 0.3301 0.97328 0.0
C174 C 0.97699 0.30382 0.95517 0.0
C175 C 0.97152 0.30065 0.90796 0.0
H176 H 0.60485 0.93731 0.42202 0.0
H177 H 0.6748 0.0176 0.37537 0.0
H178 H 0.6164 0.953 0.5012 0.0
H179 H 0.68692 0.03325 0.45537 0.0
H180 H 0.66854 0.06285 0.59482 0.0
H181 H 0.66579 0.04724 0.51578 0.0
H182 H 0.64992 0.96492 0.56343 0.0
H183 H 0.65201 0.98047 0.64305 0.0
C184 C 0.62299 0.95824 0.42873 0.0
C185 C 0.63877 0.97635 0.39241 0.0
C186 C 0.62979 0.96713 0.47428 0.0
C187 C 0.65258 -0.0056 0.48477 0.0
C188 C 0.66901 0.01222 0.44844 0.0
C189 C 0.66217 0.00326 0.40266 0.0
C190 C 0.66472 0.04148 0.58852 0.0
C191 C 0.66017 0.02276 0.62517 0.0
C192 C 0.6634 0.03261 0.54309 0.0
C193 C 0.65752 0.00478 0.53314 0.0
C194 C 0.6541 0.98639 0.56991 0.0
C195 C 0.65541 -0.00471 0.6155 0.0
H196 H 0.60643 0.67152 0.07701 0.0
H197 H 0.67452 0.65813 0.12414 0.0
H198 H 0.61761 0.66688 0.99783 0.0
H199 H 0.68615 0.65395 0.04422 0.0
H200 H 0.66692 0.60675 0.90378 0.0
H201 H 0.66353 0.61887 0.98306 0.0
H202 H 0.65235 0.68851 0.93654 0.0
H203 H 0.65526 0.67595 0.85666 0.0
C204 C 0.62406 0.66791 0.07041 0.0
C205 C 0.63947 0.66496 0.10686 0.0
C206 C 0.63062 0.6655 0.0249 0.0
C207 C 0.65277 0.66004 0.0146 0.0
C208 C 0.66875 0.65787 0.05104 0.0
C209 C 0.6622 0.66037 0.09677 0.0
C210 C 0.66396 0.62481 0.9104 0.0
C211 C 0.66109 0.64026 0.87395 0.0
C212 C 0.66227 0.63191 0.95594 0.0
C213 C 0.65763 0.65462 0.96623 0.0
C214 C 0.65563 0.67067 0.92975 0.0
C215 C 0.65739 0.66358 0.88404 0.0
H216 H 0.05467 0.67371 0.41726 0.0
H217 H 0.96942 0.6466 0.36903 0.0
H218 H 0.03851 0.66833 0.49629 0.0
H219 H 0.95322 0.64183 0.44869 0.0
H220 H 0.93031 0.59523 0.58877 0.0
H221 H 0.94556 0.60862 0.50986 0.0
H222 H 0.02044 0.68498 0.55755 0.0
H223 H 0.00532 0.6711 0.63719 0.0
C224 C 0.03251 0.66706 0.42357 0.0
C225 C 0.01323 0.66028 0.3869 0.0
C226 C 0.02329 0.66419 0.46901 0.0
C227 C -0.00548 0.65449 0.47896 0.0
C228 C 0.97545 0.64895 0.44221 0.0
C229 C 0.98472 0.65183 0.39659 0.0
C230 C 0.94997 0.61498 0.58251 0.0
C231 C 0.96676 0.632 0.61925 0.0
C232 C 0.95857 0.62282 0.53714 0.0
C233 C 0.98421 0.64791 0.52724 0.0
C234 C 0.0007 0.66535 0.564 0.0
C235 C -0.00796 0.65748 0.60959 0.0
H236 H 0.37231 0.05649 0.91154 0.0
H237 H 0.30588 0.97388 0.86518 0.0
H238 H 0.3616 0.04091 0.99088 0.0
H239 H 0.2947 0.95829 0.94525 0.0
H240 H 0.31613 0.93183 0.08502 0.0
H241 H 0.31862 0.94712 0.00586 0.0
H242 H 0.32706 0.02678 0.0528 0.0
H243 H 0.32504 0.01153 0.13264 0.0
C244 C 0.35513 0.03505 0.91835 0.0
C245 C 0.34009 0.0163 0.88208 0.0
C246 C 0.34882 0.02621 0.96395 0.0
C247 C 0.32733 -0.00166 0.97451 0.0
C248 C 0.31161 0.97982 0.93823 0.0
C249 C 0.3179 0.98874 0.89242 0.0
C250 C 0.31831 0.95255 0.07854 0.0
C251 C 0.32065 0.97061 0.11509 0.0
C252 C 0.31946 0.9612 0.03306 0.0
C253 C 0.32304 0.98817 0.0229 0.0
C254 C 0.32458 0.00597 0.05949 0.0
C255 C 0.32334 -0.00276 0.10518 0.0
H256 H 0.31344 0.38596 0.41157 0.0
H257 H 0.32701 0.31805 0.36401 0.0
H258 H 0.31635 0.37344 0.49074 0.0
H259 H 0.32928 0.30495 0.44379 0.0
H260 H 0.37519 0.32236 0.58455 0.0
H261 H 0.36343 0.32631 0.50541 0.0
H262 H 0.29469 0.33881 0.55175 0.0
H263 H 0.30701 0.33545 0.63169 0.0
C264 C 0.31665 0.36805 0.41806 0.0
C265 C 0.32032 0.35317 0.38154 0.0
C266 C 0.31806 0.36069 0.46356 0.0
C267 C 0.32314 0.33824 0.47372 0.0
C268 C 0.32572 0.32262 0.43713 0.0
C269 C 0.32432 0.33002 0.39145 0.0
C270 C 0.35739 0.32572 0.57795 0.0
C271 C 0.34218 0.32888 0.61438 0.0
C272 C 0.35047 0.32771 0.53244 0.0
C273 C 0.32813 0.3329 0.52211 0.0
C274 C 0.31225 0.33512 0.55856 0.0
C275 C 0.3192 0.33309 0.60431 0.0
H276 H 0.92638 0.60436 0.91574 0.0
H277 H 0.01192 0.66221 0.8691 0.0
H278 H 0.9422 0.61527 0.99513 0.0
H279 H 0.0278 0.6736 0.94911 0.0
H280 H 0.04941 0.65116 0.09177 0.0
H281 H 0.03453 0.6478 0.01211 0.0
H282 H 0.96024 0.65167 0.05511 0.0
H283 H 0.97505 0.65463 0.1355 0.0
C284 C 0.94855 0.61973 0.92247 0.0
C285 C 0.96798 0.63226 0.88615 0.0
C286 C 0.95757 0.62615 0.96807 0.0
C287 C 0.98627 0.64524 0.97855 0.0
C288 C 0.00558 0.65853 0.94217 0.0
C289 C -0.0035 0.65214 0.89638 0.0
C290 C 0.02995 0.65143 0.08431 0.0
C291 C 0.01327 0.65294 0.11997 0.0
C292 C 0.02156 0.64978 0.03852 0.0
C293 C -0.00377 0.64953 0.02714 0.0
C294 C 0.97976 0.65157 0.06277 0.0
C295 C 0.98824 0.65332 0.10877 0.0
H296 H 0.32409 0.01145 0.36397 0.0
H297 H 0.31339 0.93114 0.41199 0.0
H298 H 0.32587 0.02677 0.44371 0.0
H299 H 0.31579 0.94653 0.49105 0.0
H300 H 0.30454 0.97397 0.63164 0.0
H301 H 0.29287 0.95828 0.55159 0.0
H302 H 0.35987 0.04068 0.50589 0.0
H303 H 0.37097 0.05639 0.58516 0.0
C304 C 0.32194 -0.00296 0.3915 0.0
C305 C 0.31884 0.97022 0.38172 0.0
C306 C 0.32306 0.00581 0.43715 0.0
C307 C 0.32106 0.98791 0.47385 0.0
C308 C 0.31699 0.96073 0.4638 0.0
C309 C 0.31589 0.95201 0.41835 0.0
C310 C 0.31646 0.98877 0.60438 0.0
C311 C 0.3388 0.0163 0.61469 0.0
C312 C 0.30989 0.97979 0.55857 0.0
C313 C 0.32552 -0.0018 0.52226 0.0
C314 C 0.34713 0.02605 0.5328 0.0
C315 C 0.35367 0.03497 0.57839 0.0
H316 H 0.3752 0.32093 0.91078 0.0
H317 H 0.30998 0.33903 0.86489 0.0
H318 H 0.36451 0.3256 0.99023 0.0
H319 H 0.2988 0.34321 0.94505 0.0
H320 H 0.32088 0.39064 0.08502 0.0
H321 H 0.3233 0.37797 0.0058 0.0
H322 H 0.32981 0.30553 0.05204 0.0
H323 H 0.32787 0.31864 0.13203 0.0
C324 C 0.35828 0.32555 0.91771 0.0
C325 C 0.34361 0.32991 0.88156 0.0
C326 C 0.35198 0.32797 0.96337 0.0
C327 C 0.33086 0.33485 0.97406 0.0
C328 C 0.31545 0.33822 0.9379 0.0
C329 C 0.32174 0.33573 0.89204 0.0
C330 C 0.32266 0.37189 0.07839 0.0
C331 C 0.32446 0.35577 0.11478 0.0
C332 C 0.32375 0.36446 0.03286 0.0
C333 C 0.32672 0.34073 0.02251 0.0
C334 C 0.32779 0.32412 0.05892 0.0
C335 C 0.32662 0.33155 0.10467 0.0
H336 H 0.01627 0.34053 0.62758 0.0
H337 H 0.92685 0.28511 0.59896 0.0
H338 H 0.02686 0.34139 0.546 0.0
H339 H 0.93736 0.28453 0.51784 0.0
H340 H 0.96207 0.32635 0.3747 0.0
H341 H 0.94971 0.31561 0.45548 0.0
H342 H 0.02967 0.31801 0.48024 0.0
H343 H 0.04247 0.33023 0.39994 0.0
C344 C -0.00099 0.32796 0.6039 0.0
C345 C 0.97077 0.31304 0.61931 0.0
C346 C 0.00501 0.32827 0.55711 0.0
C347 C 0.9829 0.31323 0.52501 0.0
C348 C 0.95484 0.29695 0.54121 0.0
C349 C 0.94882 0.2971 0.58776 0.0
C350 C 0.9767 0.32404 0.39733 0.0
C351 C 0.00328 0.32936 0.38131 0.0
C352 C 0.96963 0.31779 0.4437 0.0
C353 C 0.98885 0.31626 0.47476 0.0
C354 C 0.01466 0.31975 0.45773 0.0
C355 C 0.0219 0.32648 0.41161 0.0
H356 H 0.6551 0.05859 0.92131 0.0
H357 H 0.65423 0.98234 0.87466 0.0
H358 H 0.65332 0.04381 0.0006 0.0
H359 H 0.6529 0.96764 0.95468 0.0
H360 H 0.60786 0.93544 0.09584 0.0
H361 H 0.61786 0.95093 0.01636 0.0
H362 H 0.67963 0.03593 0.06147 0.0
H363 H 0.66916 0.02039 0.14166 0.0
C364 C 0.65477 0.03873 0.92803 0.0
C365 C 0.65455 0.02148 0.89171 0.0
C366 C 0.65405 0.03041 0.97359 0.0
C367 C 0.65303 0.00459 0.98405 0.0
C368 C 0.65342 0.98756 0.94772 0.0
C369 C 0.65423 -0.00404 0.90195 0.0
C370 C 0.62379 0.9574 0.08889 0.0
C371 C 0.63754 0.97681 0.12502 0.0
C372 C 0.6297 0.96621 0.04322 0.0
C373 C 0.64946 -0.00532 0.0325 0.0
C374 C 0.66402 0.0139 0.06865 0.0
C375 C 0.65815 0.00502 0.11452 0.0
H376 H 0.67506 0.65821 0.35666 0.0
H377 H 0.61018 0.67634 0.40368 0.0
H378 H 0.68707 0.65447 0.43661 0.0
H379 H 0.62162 0.67204 0.48291 0.0
H380 H 0.65825 0.67864 0.6244 0.0
H381 H 0.65623 0.69194 0.54457 0.0
H382 H 0.66372 0.62019 0.49755 0.0
H383 H 0.66633 0.60742 0.57661 0.0
C384 C 0.66356 0.66162 0.38402 0.0
C385 C 0.64154 0.66731 0.3739 0.0
C386 C 0.67032 0.65938 0.42977 0.0
C387 C 0.65521 0.66284 0.46622 0.0
C388 C 0.63395 0.66961 0.45586 0.0
C389 C 0.62721 0.67181 0.41031 0.0
C390 C 0.65977 0.66598 0.59691 0.0
C391 C 0.66221 0.64188 0.60677 0.0
C392 C 0.65853 0.67349 0.55122 0.0
C393 C 0.65975 0.65708 0.5146 0.0
C394 C 0.66313 0.63357 0.52473 0.0
C395 C 0.66435 0.62608 0.57019 0.0
H396 H -0.00772 0.55445 0.28997 0.0
H397 H 0.0798 0.59272 0.24561 0.0
H398 H 0.99011 0.50849 0.29802 0.0
H399 H 0.07741 0.54675 0.25193 0.0
H400 H 0.0742 0.46729 0.30385 0.0
H401 H 0.07493 0.51267 0.30607 0.0
H402 H 0.98904 0.47143 0.252 0.0
H403 H 0.98802 0.42591 0.25152 0.0
C404 C 0.01099 0.55297 0.28172 0.0
C405 C 0.0362 0.5771 0.26716 0.0
C406 C 0.00973 0.52664 0.28615 0.0
C407 C 0.03361 0.52391 0.27574 0.0
C408 C 0.0588 0.54816 0.26114 0.0
C409 C 0.06011 0.57448 0.25713 0.0
C410 C 0.05538 0.46791 0.29298 0.0
C411 C 0.03111 0.44315 0.27731 0.0
C412 C 0.05585 0.49394 0.29391 0.0
C413 C 0.03216 0.4958 0.2787 0.0
C414 C 0.00755 0.47076 0.26441 0.0
C415 C 0.007 0.44467 0.26391 0.0
H416 H 0.42472 -0.00217 0.77122 0.0
H417 H 0.46777 0.08342 0.71641 0.0
H418 H 0.46991 -0.00197 0.77312 0.0
H419 H 0.51258 0.0833 0.7166 0.0
H420 H 0.59226 0.08779 0.77375 0.0
H421 H 0.54641 0.08567 0.77101 0.0
H422 H 0.50635 -0.00226 0.72635 0.0
H423 H 0.55234 -0.00034 0.73078 0.0
C424 C 0.4438 0.01654 0.75912 0.0
C425 C 0.44284 0.04069 0.74403 0.0
C426 C 0.46965 0.01661 0.75997 0.0
C427 C 0.49493 0.04078 0.74537 0.0
C428 C 0.49366 0.06459 0.72908 0.0
C429 C 0.46795 0.0646 0.72868 0.0
C430 C 0.57366 0.068 0.76338 0.0
C431 C 0.57584 0.04391 0.75238 0.0
C432 C 0.54739 0.06682 0.76149 0.0
C433 C 0.5227 0.0416 0.74807 0.0
C434 C 0.52488 0.01741 0.73727 0.0
C435 C 0.55121 0.01853 0.73957 0.0
H436 H 0.51212 0.60647 0.27384 0.0
H437 H 0.55429 0.56234 0.22198 0.0
H438 H 0.46728 0.56162 0.2768 0.0
H439 H 0.50905 0.51739 0.22319 0.0
H440 H 0.42756 0.43789 0.27185 0.0
H441 H 0.47353 0.48209 0.2727 0.0
H442 H 0.43244 0.52847 0.22546 0.0
H443 H 0.38663 0.48464 0.22634 0.0
C444 C 0.51173 0.58714 0.26282 0.0
C445 C 0.53662 0.58787 0.24748 0.0
C446 C 0.48599 0.56145 0.26424 0.0
C447 C 0.48447 0.53591 0.2498 0.0
C448 C 0.50952 0.5366 0.23501 0.0
C449 C 0.53539 0.56235 0.23405 0.0
C450 C 0.42845 0.45759 0.26176 0.0
C451 C 0.40357 0.45791 0.24926 0.0
C452 C 0.45477 0.48287 0.26198 0.0
C453 C 0.45668 0.50888 0.24936 0.0
C454 C 0.43171 0.50897 0.23632 0.0
C455 C 0.40545 0.48381 0.23652 0.0
H456 H 0.98835 0.54835 0.75918 0.0
H457 H 0.89668 0.50044 0.7457 0.0
H458 H 0.98966 0.50389 0.75949 0.0
H459 H 0.89801 0.45606 0.74509 0.0
H460 H 0.90903 0.38218 0.79652 0.0
H461 H 0.90802 0.42677 0.79695 0.0
H462 H 0.98147 0.46498 0.70776 0.0
H463 H 0.9828 0.42057 0.70809 0.0
C464 C 0.96851 0.52832 0.75611 0.0
C465 C 0.94242 0.52783 0.7525 0.0
C466 C 0.96926 0.50288 0.75604 0.0
C467 C 0.94393 0.47646 0.75235 0.0
C468 C 0.91786 0.47604 0.74864 0.0
C469 C 0.91711 0.50147 0.74872 0.0
C470 C 0.92495 0.40012 0.77705 0.0
C471 C 0.946 0.39793 0.75231 0.0
C472 C 0.92429 0.4256 0.77708 0.0
C473 C 0.94467 0.4494 0.75237 0.0
C474 C 0.96571 0.44715 0.72762 0.0
C475 C 0.96636 0.42167 0.72758 0.0
H476 H 0.38523 0.90636 0.28111 0.0
H477 H 0.42586 0.99257 0.2291 0.0
H478 H 0.43101 0.90828 0.28309 0.0
H479 H 0.47178 -0.00578 0.2294 0.0
H480 H 0.55328 -0.00459 0.27813 0.0
H481 H 0.50821 -0.0045 0.27851 0.0
H482 H 0.46451 0.90803 0.231 0.0
H483 H 0.50921 0.90772 0.2323 0.0
C484 C 0.40399 0.92569 0.26986 0.0
C485 C 0.402 0.94927 0.25476 0.0
C486 C 0.43022 0.92675 0.2707 0.0
C487 C 0.45506 0.95129 0.25593 0.0
C488 C 0.45312 0.97508 0.24141 0.0
C489 C 0.42682 0.9741 0.24099 0.0
C490 C 0.53399 0.97625 0.2678 0.0
C491 C 0.53467 0.9515 0.25548 0.0
C492 C 0.50821 0.97633 0.26776 0.0
C493 C 0.48269 0.95171 0.25509 0.0
C494 C 0.48362 0.92717 0.24194 0.0
C495 C 0.50928 0.92703 0.24238 0.0
H496 H 0.55601 0.55919 0.76102 0.0
H497 H 0.59605 0.5108 0.72016 0.0
H498 H 0.50997 0.51516 0.7648 0.0
H499 H 0.55015 0.46711 0.72209 0.0
H500 H 0.47173 0.39098 0.7774 0.0
H501 H 0.51651 0.43592 0.77623 0.0
H502 H 0.47333 0.47795 0.7191 0.0
H503 H 0.42817 0.43295 0.72208 0.0
C504 C 0.55489 0.53917 0.75244 0.0
C505 C 0.57957 0.53834 0.74059 0.0
C506 C 0.52852 0.51397 0.75437 0.0
C507 C 0.52637 0.48753 0.7441 0.0
C508 C 0.55109 0.48696 0.73128 0.0
C509 C 0.5774 0.51204 0.72984 0.0
C510 C 0.47179 0.40985 0.76476 0.0
C511 C 0.44654 0.40849 0.74964 0.0
C512 C 0.4975 0.43559 0.76377 0.0
C513 C 0.49862 0.46053 0.74707 0.0
C514 C 0.4732 0.45923 0.73258 0.0
C515 C 0.44736 0.43345 0.73404 0.0
H516 H 0.13483 0.41654 0.22064 0.0
H517 H 0.09418 0.32721 0.25622 0.0
H518 H 0.18083 0.41867 0.21755 0.0
H519 H 0.14018 0.32952 0.25522 0.0
H520 H 0.22365 0.33651 0.21258 0.0
H521 H 0.17766 0.33428 0.20738 0.0
H522 H 0.21452 0.41811 0.26909 0.0
H523 H 0.26066 0.42074 0.27233 0.0
C524 C 0.1358 0.3974 0.22786 0.0
C525 C 0.11106 0.37175 0.23877 0.0
C526 C 0.16212 0.39863 0.22642 0.0
C527 C 0.16423 0.37432 0.23647 0.0
C528 C 0.1393 0.34854 0.24664 0.0
C529 C 0.11295 0.34724 0.24749 0.0
C530 C 0.22185 0.35444 0.22492 0.0
C531 C 0.24561 0.37878 0.24289 0.0
C532 C 0.19551 0.35313 0.22214 0.0
C533 C 0.19239 0.37602 0.23782 0.0
C534 C 0.21627 0.40033 0.25588 0.0
C535 C 0.24266 0.40176 0.25812 0.0
H536 H 0.84786 0.27074 0.79103 0.0
H537 H 0.88401 0.2218 0.73519 0.0
H538 H 0.80127 0.22746 0.79499 0.0
H539 H 0.83748 0.17886 0.73768 0.0
H540 H 0.75667 0.10229 0.78733 0.0
H541 H 0.80296 0.14577 0.79055 0.0
H542 H 0.76434 0.19457 0.74386 0.0
H543 H 0.71791 0.15119 0.74218 0.0
C544 C 0.84579 0.25074 0.7795 0.0
C545 C 0.86946 0.24956 0.76281 0.0
C546 C 0.81914 0.22602 0.78154 0.0
C547 C 0.8157 0.19974 0.76665 0.0
C548 C 0.83949 0.19866 0.75015 0.0
C549 C 0.86612 0.22329 0.74841 0.0
C550 C 0.75811 0.12234 0.77791 0.0
C551 C 0.7338 0.12342 0.76432 0.0
C552 C 0.78461 0.14721 0.77956 0.0
C553 C 0.78733 0.17359 0.76725 0.0
C554 C 0.76289 0.17465 0.75415 0.0
C555 C 0.73635 0.1498 0.75286 0.0
H556 H 0.57457 0.72853 0.21303 0.0
H557 H 0.66095 0.7686 0.26438 0.0
H558 H 0.57558 0.7739 0.21759 0.0
H559 H 0.6617 0.81402 0.27051 0.0
H560 H 0.66 0.89609 0.23328 0.0
H561 H 0.66151 0.85185 0.22631 0.0
H562 H 0.57504 0.80435 0.27659 0.0
H563 H 0.57327 0.84828 0.28199 0.0
C564 C 0.59377 0.74708 0.22537 0.0
C565 C 0.61763 0.74508 0.23858 0.0
C566 C 0.5943 0.77303 0.22831 0.0
C567 C 0.61859 0.79748 0.245 0.0
C568 C 0.64273 0.79562 0.25722 0.0
C569 C 0.64228 0.76962 0.25388 0.0
C570 C 0.6414 0.87616 0.24297 0.0
C571 C 0.61646 0.87552 0.25787 0.0
C572 C 0.64229 0.85087 0.23915 0.0
C573 C 0.6183 0.82457 0.25046 0.0
C574 C 0.59366 0.82417 0.26657 0.0
C575 C 0.5927 0.84935 0.27 0.0
H576 H 0.88633 0.65266 0.725 0.0
H577 H 0.83926 0.56694 0.77869 0.0
H578 H 0.84241 0.65482 0.72126 0.0
H579 H 0.79569 0.56942 0.7768 0.0
H580 H 0.71846 0.5695 0.71986 0.0
H581 H 0.76313 0.56916 0.72202 0.0
H582 H 0.80693 0.65709 0.76736 0.0
H583 H 0.76217 0.65766 0.76333 0.0
C584 C 0.86662 0.63442 0.73641 0.0
C585 C 0.86608 0.60957 0.75183 0.0
C586 C 0.84151 0.63569 0.73452 0.0
C587 C 0.81549 0.61222 0.74843 0.0
C588 C 0.81522 0.58764 0.76483 0.0
C589 C 0.84021 0.58626 0.76621 0.0
C590 C 0.73766 0.58877 0.73017 0.0
C591 C 0.73691 0.61357 0.74159 0.0
C592 C 0.76324 0.58854 0.73172 0.0
C593 C 0.78858 0.61302 0.74532 0.0
C594 C 0.78785 0.63797 0.75629 0.0
C595 C 0.76223 0.63828 0.75423 0.0
H596 H 0.21964 0.8859 0.26799 0.0
H597 H 0.26318 0.84262 0.21838 0.0
H598 H 0.17482 0.8406 0.26914 0.0
H599 H 0.21838 0.79761 0.21785 0.0
H600 H 0.14213 0.7184 0.27437 0.0
H601 H 0.18599 0.7642 0.27202 0.0
H602 H 0.13924 0.804 0.22079 0.0
H603 H 0.09507 0.75815 0.22478 0.0
C604 C 0.21953 0.86673 0.25688 0.0
C605 C 0.24484 0.86766 0.24341 0.0
C606 C 0.19387 0.84083 0.25728 0.0
C607 C 0.19307 0.81547 0.24385 0.0
C608 C 0.21836 0.81665 0.22932 0.0
C609 C 0.244 0.84245 0.22935 0.0
C610 C 0.14123 0.73694 0.26263 0.0
C611 C 0.11526 0.73478 0.24972 0.0
C612 C 0.16639 0.76316 0.26098 0.0
C613 C 0.16615 0.78773 0.24592 0.0
C614 C 0.14009 0.78554 0.23305 0.0
C615 C 0.11484 0.75929 0.23509 0.0
H616 H 0.32187 0.2272 0.7701 0.0
H617 H 0.40845 0.26718 0.72046 0.0
H618 H 0.32021 0.18124 0.77283 0.0
H619 H 0.40654 0.22133 0.72159 0.0
H620 H 0.32004 0.09942 0.72719 0.0
H621 H 0.31966 0.1444 0.72496 0.0
H622 H 0.40601 0.18866 0.77715 0.0
H623 H 0.40665 0.14407 0.77779 0.0
C624 C 0.34041 0.22607 0.75937 0.0
C625 C 0.36535 0.2507 0.74537 0.0
C626 C 0.33944 0.19977 0.76072 0.0
C627 C 0.36333 0.19769 0.74779 0.0
C628 C 0.38799 0.22231 0.73277 0.0
C629 C 0.38904 0.24855 0.73182 0.0
C630 C 0.33885 0.11881 0.73827 0.0
C631 C 0.36344 0.11838 0.75231 0.0
C632 C 0.33861 0.14451 0.7372 0.0
C633 C 0.3629 0.17013 0.75047 0.0
C634 C 0.38718 0.16942 0.76569 0.0
C635 C 0.38749 0.14385 0.76635 0.0
loop_
_geom_bond_atom_site_label_1
_geom_bond_atom_site_label_2
_geom_bond_distance
_geom_bond_site_symmetry_2
_ccdc_geom_bond_type
In0 O1 2.294 . S
In0 O2 2.326 . S
In0 O6 2.266 . S
In0 O7 2.326 . S
In0 O8 2.266 . S
In0 O9 2.326 . S
In0 O11 2.294 . S
In0 O12 2.326 . S
O1 In0 2.294 . S
O1 C10 1.240 . S
O2 In0 2.326 . S
O2 C10 1.252 . S
C3 O6 1.252 . S
C3 O7 1.260 . S
C4 O11 1.240 . S
C4 O12 1.252 . S
C5 O8 1.252 . S
C5 O9 1.260 . S
O6 In0 2.266 . S
O6 C3 1.252 . S
O7 In0 2.326 . S
O7 C3 1.260 . S
O8 In0 2.266 . S
O8 C5 1.252 . S
O9 In0 2.326 . S
O9 C5 1.260 . S
C10 O1 1.240 . S
C10 O2 1.252 . S
O11 In0 2.294 . S
O11 C4 1.240 . S
O12 In0 2.326 . S
O12 C4 1.252 . S
In13 O14 2.294 . S
In13 O15 2.326 . S
In13 O19 2.266 . S
In13 O20 2.326 . S
In13 O21 2.266 . S
In13 O22 2.326 . S
In13 O24 2.294 . S
In13 O25 2.326 . S
O14 In13 2.294 . S
O14 C23 1.240 . S
O15 In13 2.326 . S
O15 C23 1.252 . S
C16 O19 1.252 . S
C16 O20 1.260 . S
C17 O24 1.240 . S
C17 O25 1.252 . S
C18 O21 1.252 . S
C18 O22 1.260 . S
O19 In13 2.266 . S
O19 C16 1.252 . S
O20 In13 2.326 . S
O20 C16 1.260 . S
O21 In13 2.266 . S
O21 C18 1.252 . S
O22 In13 2.326 . S
O22 C18 1.260 . S
C23 O14 1.240 . S
C23 O15 1.252 . S
O24 In13 2.294 . S
O24 C17 1.240 . S
O25 In13 2.326 . S
O25 C17 1.252 . S
In26 O27 2.294 . S
In26 O28 2.326 . S
In26 O32 2.266 . S
In26 O33 2.326 . S
In26 O34 2.266 . S
In26 O35 2.326 . S
In26 O37 2.294 . S
In26 O38 2.326 . S
O27 In26 2.294 . S
O27 C36 1.240 . S
O28 In26 2.326 . S
O28 C36 1.252 . S
C29 O32 1.252 . S
C29 O33 1.260 . S
C30 O37 1.240 . S
C30 O38 1.252 . S
C31 O34 1.252 . S
C31 O35 1.260 . S
O32 In26 2.266 . S
O32 C29 1.252 . S
O33 In26 2.326 . S
O33 C29 1.260 . S
O34 In26 2.266 . S
O34 C31 1.252 . S
O35 In26 2.326 . S
O35 C31 1.260 . S
C36 O27 1.240 . S
C36 O28 1.252 . S
O37 In26 2.294 . S
O37 C30 1.240 . S
O38 In26 2.326 . S
O38 C30 1.252 . S
In39 O40 2.294 . S
In39 O41 2.326 . S
In39 O45 2.266 . S
In39 O46 2.326 . S
In39 O47 2.266 . S
In39 O48 2.326 . S
In39 O50 2.294 . S
In39 O51 2.326 . S
O40 In39 2.294 . S
O40 C49 1.240 . S
O41 In39 2.326 . S
O41 C49 1.252 . S
C42 O45 1.252 . S
C42 O46 1.260 . S
C43 O50 1.240 . S
C43 O51 1.252 . S
C44 O47 1.252 . S
C44 O48 1.260 . S
O45 In39 2.266 . S
O45 C42 1.252 . S
O46 In39 2.326 . S
O46 C42 1.260 . S
O47 In39 2.266 . S
O47 C44 1.252 . S
O48 In39 2.326 . S
O48 C44 1.260 . S
C49 O40 1.240 . S
C49 O41 1.252 . S
O50 In39 2.294 . S
O50 C43 1.240 . S
O51 In39 2.326 . S
O51 C43 1.252 . S
In52 O53 2.294 . S
In52 O54 2.326 . S
In52 O58 2.266 . S
In52 O59 2.326 . S
In52 O60 2.266 . S
In52 O61 2.326 . S
In52 O63 2.294 . S
In52 O64 2.326 . S
O53 In52 2.294 . S
O53 C62 1.240 . S
O54 In52 2.326 . S
O54 C62 1.252 . S
C55 O58 1.252 . S
C55 O59 1.260 . S
C56 O63 1.240 . S
C56 O64 1.252 . S
C57 O60 1.252 . S
C57 O61 1.260 . S
O58 In52 2.266 . S
O58 C55 1.252 . S
O59 In52 2.326 . S
O59 C55 1.260 . S
O60 In52 2.266 . S
O60 C57 1.252 . S
O61 In52 2.326 . S
O61 C57 1.260 . S
C62 O53 1.240 . S
C62 O54 1.252 . S
O63 In52 2.294 . S
O63 C56 1.240 . S
O64 In52 2.326 . S
O64 C56 1.252 . S
In65 O66 2.294 . S
In65 O67 2.326 . S
In65 O71 2.266 . S
In65 O72 2.326 . S
In65 O73 2.266 . S
In65 O74 2.326 . S
In65 O76 2.294 . S
In65 O77 2.326 . S
O66 In65 2.294 . S
O66 C75 1.240 . S
O67 In65 2.326 . S
O67 C75 1.252 . S
C68 O71 1.252 . S
C68 O72 1.260 . S
C69 O76 1.240 . S
C69 O77 1.252 . S
C70 O73 1.252 . S
C70 O74 1.260 . S
O71 In65 2.266 . S
O71 C68 1.252 . S
O72 In65 2.326 . S
O72 C68 1.260 . S
O73 In65 2.266 . S
O73 C70 1.252 . S
O74 In65 2.326 . S
O74 C70 1.260 . S
C75 O66 1.240 . S
C75 O67 1.252 . S
O76 In65 2.294 . S
O76 C69 1.240 . S
O77 In65 2.326 . S
O77 C69 1.252 . S
In78 O79 2.294 . S
In78 O80 2.326 . S
In78 O84 2.266 . S
In78 O85 2.326 . S
In78 O86 2.266 . S
In78 O87 2.326 . S
In78 O89 2.294 . S
In78 O90 2.326 . S
O79 In78 2.294 . S
O79 C88 1.240 . S
O80 In78 2.326 . S
O80 C88 1.252 . S
C81 O84 1.252 . S
C81 O85 1.260 . S
C82 O89 1.240 . S
C82 O90 1.252 . S
C83 O86 1.252 . S
C83 O87 1.260 . S
O84 In78 2.266 . S
O84 C81 1.252 . S
O85 In78 2.326 . S
O85 C81 1.260 . S
O86 In78 2.266 . S
O86 C83 1.252 . S
O87 In78 2.326 . S
O87 C83 1.260 . S
C88 O79 1.240 . S
C88 O80 1.252 . S
O89 In78 2.294 . S
O89 C82 1.240 . S
O90 In78 2.326 . S
O90 C82 1.252 . S
In91 O92 2.294 . S
In91 O93 2.326 . S
In91 O97 2.266 . S
In91 O98 2.326 . S
In91 O99 2.266 . S
In91 O100 2.326 . S
In91 O102 2.294 . S
In91 O103 2.326 . S
O92 In91 2.294 . S
O92 C101 1.240 . S
O93 In91 2.326 . S
O93 C101 1.252 . S
C94 O97 1.252 . S
C94 O98 1.260 . S
C95 O102 1.240 . S
C95 O103 1.252 . S
C96 O99 1.252 . S
C96 O100 1.260 . S
O97 In91 2.266 . S
O97 C94 1.252 . S
O98 In91 2.326 . S
O98 C94 1.260 . S
O99 In91 2.266 . S
O99 C96 1.252 . S
O100 In91 2.326 . S
O100 C96 1.260 . S
C101 O92 1.240 . S
C101 O93 1.252 . S
O102 In91 2.294 . S
O102 C95 1.240 . S
O103 In91 2.326 . S
O103 C95 1.252 . S
In104 O105 2.294 . S
In104 O106 2.326 . S
In104 O110 2.266 . S
In104 O111 2.326 . S
In104 O112 2.266 . S
In104 O113 2.326 . S
In104 O115 2.294 . S
In104 O116 2.326 . S
O105 In104 2.294 . S
O105 C114 1.240 . S
O106 In104 2.326 . S
O106 C114 1.252 . S
C107 O110 1.252 . S
C107 O111 1.260 . S
C108 O115 1.240 . S
C108 O116 1.252 . S
C109 O112 1.252 . S
C109 O113 1.260 . S
O110 In104 2.266 . S
O110 C107 1.252 . S
O111 In104 2.326 . S
O111 C107 1.260 . S
O112 In104 2.266 . S
O112 C109 1.252 . S
O113 In104 2.326 . S
O113 C109 1.260 . S
C114 O105 1.240 . S
C114 O106 1.252 . S
O115 In104 2.294 . S
O115 C108 1.240 . S
O116 In104 2.326 . S
O116 C108 1.252 . S
In117 O118 2.294 . S
In117 O119 2.326 . S
In117 O123 2.266 . S
In117 O124 2.326 . S
In117 O125 2.266 . S
In117 O126 2.326 . S
In117 O128 2.294 . S
In117 O129 2.326 . S
O118 In117 2.294 . S
O118 C127 1.240 . S
O119 In117 2.326 . S
O119 C127 1.252 . S
C120 O123 1.252 . S
C120 O124 1.260 . S
C121 O128 1.240 . S
C121 O129 1.252 . S
C122 O125 1.252 . S
C122 O126 1.260 . S
O123 In117 2.266 . S
O123 C120 1.252 . S
O124 In117 2.326 . S
O124 C120 1.260 . S
O125 In117 2.266 . S
O125 C122 1.252 . S
O126 In117 2.326 . S
O126 C122 1.260 . S
C127 O118 1.240 . S
C127 O119 1.252 . S
O128 In117 2.294 . S
O128 C121 1.240 . S
O129 In117 2.326 . S
O129 C121 1.252 . S
In130 O131 2.294 . S
In130 O132 2.326 . S
In130 O136 2.266 . S
In130 O137 2.326 . S
In130 O138 2.266 . S
In130 O139 2.326 . S
In130 O141 2.294 . S
In130 O142 2.326 . S
O131 In130 2.294 . S
O131 C140 1.240 . S
O132 In130 2.326 . S
O132 C140 1.252 . S
C133 O136 1.252 . S
C133 O137 1.260 . S
C134 O141 1.240 . S
C134 O142 1.252 . S
C135 O138 1.252 . S
C135 O139 1.260 . S
O136 In130 2.266 . S
O136 C133 1.252 . S
O137 In130 2.326 . S
O137 C133 1.260 . S
O138 In130 2.266 . S
O138 C135 1.252 . S
O139 In130 2.326 . S
O139 C135 1.260 . S
C140 O131 1.240 . S
C140 O132 1.252 . S
O141 In130 2.294 . S
O141 C134 1.240 . S
O142 In130 2.326 . S
O142 C134 1.252 . S
In143 O144 2.294 . S
In143 O145 2.326 . S
In143 O149 2.266 . S
In143 O150 2.326 . S
In143 O151 2.266 . S
In143 O152 2.326 . S
In143 O154 2.294 . S
In143 O155 2.326 . S
O144 In143 2.294 . S
O144 C153 1.240 . S
O145 In143 2.326 . S
O145 C153 1.252 . S
C146 O149 1.252 . S
C146 O150 1.260 . S
C147 O154 1.240 . S
C147 O155 1.252 . S
C148 O151 1.252 . S
C148 O152 1.260 . S
O149 In143 2.266 . S
O149 C146 1.252 . S
O150 In143 2.326 . S
O150 C146 1.260 . S
O151 In143 2.266 . S
O151 C148 1.252 . S
O152 In143 2.326 . S
O152 C148 1.260 . S
C153 O144 1.240 . S
C153 O145 1.252 . S
O154 In143 2.294 . S
O154 C147 1.240 . S
O155 In143 2.326 . S
O155 C147 1.252 . S
H156 C164 0.950 . S
H157 C169 0.950 . S
H158 C166 0.950 . S
H159 C168 0.941 1_655 S
H160 C170 0.950 . S
H161 C172 0.950 . S
H162 C174 0.941 1_455 S
H163 C175 0.950 . S
C164 H156 0.950 . S
C164 C165 1.386 . S
C164 C166 1.391 . S
C165 C164 1.386 . S
C165 C169 1.393 . S
C166 H158 0.950 . S
C166 C164 1.391 . S
C166 C167 1.400 . S
C167 C166 1.400 . S
C167 C168 1.398 . S
C167 C173 1.491 1_454 S
C168 H159 0.941 1_455 S
C168 C167 1.398 . S
C168 C169 1.391 . S
C169 H157 0.950 . S
C169 C165 1.393 . S
C169 C168 1.391 . S
C170 H160 0.950 . S
C170 C171 1.386 . S
C170 C172 1.391 . S
C171 C170 1.386 . S
C171 C175 1.393 . S
C172 H161 0.950 . S
C172 C170 1.391 . S
C172 C173 1.400 . S
C173 C167 1.491 1_656 S
C173 C172 1.400 . S
C173 C174 1.398 . S
C174 H162 0.941 1_655 S
C174 C173 1.398 . S
C174 C175 1.391 . S
C175 H163 0.950 . S
C175 C171 1.393 . S
C175 C174 1.391 . S
H176 C184 0.950 . S
H177 C189 0.950 . S
H178 C186 0.950 . S
H179 C188 0.950 . S
H180 C190 0.950 . S
H181 C192 0.950 . S
H182 C194 0.950 . S
H183 C195 0.950 . S
C184 H176 0.950 . S
C184 C185 1.386 . S
C184 C186 1.391 . S
C185 C184 1.386 . S
C185 C189 1.393 1_565 S
C186 H178 0.950 . S
C186 C184 1.391 . S
C186 C187 1.400 . S
C187 C186 1.400 . S
C187 C188 1.398 1_565 S
C187 C193 1.491 1_565 S
C188 H179 0.950 . S
C188 C187 1.398 1_545 S
C188 C189 1.391 . S
C189 H177 0.950 . S
C189 C185 1.393 1_545 S
C189 C188 1.391 . S
C190 H180 0.950 . S
C190 C191 1.386 . S
C190 C192 1.391 . S
C191 C190 1.386 . S
C191 C195 1.393 1_545 S
C192 H181 0.950 . S
C192 C190 1.391 . S
C192 C193 1.400 . S
C193 C187 1.491 1_545 S
C193 C192 1.400 . S
C193 C194 1.398 1_545 S
C194 H182 0.950 . S
C194 C193 1.398 1_565 S
C194 C195 1.391 . S
C195 H183 0.950 . S
C195 C191 1.393 1_565 S
C195 C194 1.391 . S
H196 C204 0.950 . S
H197 C209 0.950 . S
H198 C206 0.950 . S
H199 C208 0.950 . S
H200 C210 0.950 . S
H201 C212 0.950 . S
H202 C214 0.950 . S
H203 C215 0.950 . S
C204 H196 0.950 . S
C204 C205 1.386 . S
C204 C206 1.391 . S
C205 C204 1.386 . S
C205 C209 1.393 . S
C206 H198 0.950 . S
C206 C204 1.391 . S
C206 C207 1.400 . S
C207 C206 1.400 . S
C207 C208 1.398 . S
C207 C213 1.491 1_554 S
C208 H199 0.950 . S
C208 C207 1.398 . S
C208 C209 1.391 . S
C209 H197 0.950 . S
C209 C205 1.393 . S
C209 C208 1.391 . S
C210 H200 0.950 . S
C210 C211 1.386 . S
C210 C212 1.391 . S
C211 C210 1.386 . S
C211 C215 1.393 . S
C212 H201 0.950 . S
C212 C210 1.391 . S
C212 C213 1.400 . S
C213 C207 1.491 1_556 S
C213 C212 1.400 . S
C213 C214 1.398 . S
C214 H202 0.950 . S
C214 C213 1.398 . S
C214 C215 1.391 . S
C215 H203 0.950 . S
C215 C211 1.393 . S
C215 C214 1.391 . S
H216 C224 0.950 . S
H217 C229 0.950 . S
H218 C226 0.950 . S
H219 C228 0.950 . S
H220 C230 0.950 . S
H221 C232 0.950 . S
H222 C234 0.950 . S
H223 C235 0.950 . S
C224 H216 0.950 . S
C224 C225 1.386 . S
C224 C226 1.391 . S
C225 C224 1.386 . S
C225 C229 1.393 1_455 S
C226 H218 0.950 . S
C226 C224 1.391 . S
C226 C227 1.400 . S
C227 C226 1.400 . S
C227 C228 1.398 1_455 S
C227 C233 1.491 1_455 S
C228 H219 0.950 . S
C228 C227 1.398 1_655 S
C228 C229 1.391 . S
C229 H217 0.950 . S
C229 C225 1.393 1_655 S
C229 C228 1.391 . S
C230 H220 0.950 . S
C230 C231 1.386 . S
C230 C232 1.391 . S
C231 C230 1.386 . S
C231 C235 1.393 1_655 S
C232 H221 0.950 . S
C232 C230 1.391 . S
C232 C233 1.400 . S
C233 C227 1.491 1_655 S
C233 C232 1.400 . S
C233 C234 1.398 1_655 S
C234 H222 0.950 . S
C234 C233 1.398 1_455 S
C234 C235 1.391 . S
C235 H223 0.950 . S
C235 C231 1.393 1_455 S
C235 C234 1.391 . S
H236 C244 0.950 . S
H237 C249 0.974 . S
H238 C246 0.950 . S
H239 C248 0.950 . S
H240 C250 0.950 . S
H241 C252 0.950 . S
H242 C254 0.950 . S
H243 C255 0.974 . S
C244 H236 0.950 . S
C244 C245 1.386 . S
C244 C246 1.391 . S
C245 C244 1.386 . S
C245 C249 1.363 1_545 S
C246 H238 0.950 . S
C246 C244 1.391 . S
C246 C247 1.400 . S
C247 C246 1.400 . S
C247 C248 1.398 1_545 S
C247 C253 1.491 1_546 S
C248 H239 0.950 . S
C248 C247 1.398 1_565 S
C248 C249 1.397 . S
C249 H237 0.974 . S
C249 C245 1.363 1_565 S
C249 C248 1.397 . S
C250 H240 0.950 . S
C250 C251 1.386 . S
C250 C252 1.391 . S
C251 C250 1.386 . S
C251 C255 1.363 1_565 S
C252 H241 0.950 . S
C252 C250 1.391 . S
C252 C253 1.400 . S
C253 C247 1.491 1_564 S
C253 C252 1.400 . S
C253 C254 1.398 1_565 S
C254 H242 0.950 . S
C254 C253 1.398 1_545 S
C254 C255 1.397 . S
C255 H243 0.974 . S
C255 C251 1.363 1_545 S
C255 C254 1.397 . S
H256 C264 0.950 . S
H257 C269 0.950 . S
H258 C266 0.950 . S
H259 C268 0.950 . S
H260 C270 0.950 . S
H261 C272 0.950 . S
H262 C274 0.950 . S
H263 C275 0.950 . S
C264 H256 0.950 . S
C264 C265 1.386 . S
C264 C266 1.391 . S
C265 C264 1.386 . S
C265 C269 1.393 . S
C266 H258 0.950 . S
C266 C264 1.391 . S
C266 C267 1.400 . S
C267 C266 1.400 . S
C267 C268 1.398 . S
C267 C273 1.491 . S
C268 H259 0.950 . S
C268 C267 1.398 . S
C268 C269 1.391 . S
C269 H257 0.950 . S
C269 C265 1.393 . S
C269 C268 1.391 . S
C270 H260 0.950 . S
C270 C271 1.386 . S
C270 C272 1.391 . S
C271 C270 1.386 . S
C271 C275 1.393 . S
C272 H261 0.950 . S
C272 C270 1.391 . S
C272 C273 1.400 . S
C273 C267 1.491 . S
C273 C272 1.400 . S
C273 C274 1.398 . S
C274 H262 0.950 . S
C274 C273 1.398 . S
C274 C275 1.391 . S
C275 H263 0.950 . S
C275 C271 1.393 . S
C275 C274 1.391 . S
H276 C284 0.950 . S
H277 C289 0.950 . S
H278 C286 0.950 . S
H279 C288 0.950 . S
H280 C290 0.950 . S
H281 C292 0.950 . S
H282 C294 0.950 . S
H283 C295 0.950 . S
C284 H276 0.950 . S
C284 C285 1.386 . S
C284 C286 1.391 . S
C285 C284 1.386 . S
C285 C289 1.393 1_655 S
C286 H278 0.950 . S
C286 C284 1.391 . S
C286 C287 1.400 . S
C287 C286 1.400 . S
C287 C288 1.398 1_655 S
C287 C293 1.491 1_656 S
C288 H279 0.950 . S
C288 C287 1.398 1_455 S
C288 C289 1.391 . S
C289 H277 0.950 . S
C289 C285 1.393 1_455 S
C289 C288 1.391 . S
C290 H280 0.950 . S
C290 C291 1.386 . S
C290 C292 1.391 . S
C291 C290 1.386 . S
C291 C295 1.393 1_455 S
C292 H281 0.950 . S
C292 C290 1.391 . S
C292 C293 1.400 . S
C293 C287 1.491 1_454 S
C293 C292 1.400 . S
C293 C294 1.398 1_455 S
C294 H282 0.950 . S
C294 C293 1.398 1_655 S
C294 C295 1.391 . S
C295 H283 0.950 . S
C295 C291 1.393 1_655 S
C295 C294 1.391 . S
H296 C304 0.950 . S
H297 C309 0.950 . S
H298 C306 0.950 . S
H299 C308 0.950 . S
H300 C310 0.950 . S
H301 C312 0.950 . S
H302 C314 0.950 . S
H303 C315 0.950 . S
C304 H296 0.950 . S
C304 C305 1.386 1_545 S
C304 C306 1.391 . S
C305 C304 1.386 1_565 S
C305 C309 1.393 . S
C306 H298 0.950 . S
C306 C304 1.391 . S
C306 C307 1.400 1_545 S
C307 C306 1.400 1_565 S
C307 C308 1.398 . S
C307 C313 1.491 1_565 S
C308 H299 0.950 . S
C308 C307 1.398 . S
C308 C309 1.391 . S
C309 H297 0.950 . S
C309 C305 1.393 . S
C309 C308 1.391 . S
C310 H300 0.950 . S
C310 C311 1.386 1_565 S
C310 C312 1.391 . S
C311 C310 1.386 1_545 S
C311 C315 1.393 . S
C312 H301 0.950 . S
C312 C310 1.391 . S
C312 C313 1.400 1_565 S
C313 C307 1.491 1_545 S
C313 C312 1.400 1_545 S
C313 C314 1.398 . S
C314 H302 0.950 . S
C314 C313 1.398 . S
C314 C315 1.391 . S
C315 H303 0.950 . S
C315 C311 1.393 . S
C315 C314 1.391 . S
H316 C324 0.950 . S
H317 C329 0.950 . S
H318 C326 0.950 . S
H319 C328 0.950 . S
H320 C330 0.950 . S
H321 C332 0.950 . S
H322 C334 0.950 . S
H323 C335 0.950 . S
C324 H316 0.950 . S
C324 C325 1.386 . S
C324 C326 1.391 . S
C325 C324 1.386 . S
C325 C329 1.393 . S
C326 H318 0.950 . S
C326 C324 1.391 . S
C326 C327 1.400 . S
C327 C326 1.400 . S
C327 C328 1.398 . S
C327 C333 1.491 1_556 S
C328 H319 0.950 . S
C328 C327 1.398 . S
C328 C329 1.391 . S
C329 H317 0.950 . S
C329 C325 1.393 . S
C329 C328 1.391 . S
C330 H320 0.950 . S
C330 C331 1.386 . S
C330 C332 1.391 . S
C331 C330 1.386 . S
C331 C335 1.393 . S
C332 H321 0.950 . S
C332 C330 1.391 . S
C332 C333 1.400 . S
C333 C327 1.491 1_554 S
C333 C332 1.400 . S
C333 C334 1.398 . S
C334 H322 0.950 . S
C334 C333 1.398 . S
C334 C335 1.391 . S
C335 H323 0.950 . S
C335 C331 1.393 . S
C335 C334 1.391 . S
H336 C344 0.950 . S
H337 C349 0.950 . S
H338 C346 0.950 . S
H339 C348 0.950 . S
H340 C350 0.950 . S
H341 C352 0.950 . S
H342 C354 0.950 . S
H343 C355 0.950 . S
C344 H336 0.950 . S
C344 C345 1.386 1_455 S
C344 C346 1.391 . S
C345 C344 1.386 1_655 S
C345 C349 1.393 . S
C346 H338 0.950 . S
C346 C344 1.391 . S
C346 C347 1.400 1_455 S
C347 C346 1.400 1_655 S
C347 C348 1.398 . S
C347 C353 1.491 1_655 S
C348 H339 0.950 . S
C348 C347 1.398 . S
C348 C349 1.391 . S
C349 H337 0.950 . S
C349 C345 1.393 . S
C349 C348 1.391 . S
C350 H340 0.950 . S
C350 C351 1.386 1_655 S
C350 C352 1.391 . S
C351 C350 1.386 1_455 S
C351 C355 1.393 . S
C352 H341 0.950 . S
C352 C350 1.391 . S
C352 C353 1.400 1_655 S
C353 C347 1.491 1_455 S
C353 C352 1.400 1_455 S
C353 C354 1.398 . S
C354 H342 0.950 . S
C354 C353 1.398 . S
C354 C355 1.391 . S
C355 H343 0.950 . S
C355 C351 1.393 . S
C355 C354 1.391 . S
H356 C364 0.950 . S
H357 C369 0.950 . S
H358 C366 0.950 . S
H359 C368 0.950 . S
H360 C370 0.950 . S
H361 C372 0.950 . S
H362 C374 0.950 . S
H363 C375 0.950 . S
C364 H356 0.950 . S
C364 C365 1.386 . S
C364 C366 1.391 . S
C365 C364 1.386 . S
C365 C369 1.393 1_545 S
C366 H358 0.950 . S
C366 C364 1.391 . S
C366 C367 1.400 . S
C367 C366 1.400 . S
C367 C368 1.398 1_545 S
C367 C373 1.491 1_546 S
C368 H359 0.950 . S
C368 C367 1.398 1_565 S
C368 C369 1.391 . S
C369 H357 0.950 . S
C369 C365 1.393 1_565 S
C369 C368 1.391 . S
C370 H360 0.950 . S
C370 C371 1.386 . S
C370 C372 1.391 . S
C371 C370 1.386 . S
C371 C375 1.393 1_565 S
C372 H361 0.950 . S
C372 C370 1.391 . S
C372 C373 1.400 . S
C373 C367 1.491 1_564 S
C373 C372 1.400 . S
C373 C374 1.398 1_565 S
C374 H362 0.950 . S
C374 C373 1.398 1_545 S
C374 C375 1.391 . S
C375 H363 0.950 . S
C375 C371 1.393 1_545 S
C375 C374 1.391 . S
H376 C384 0.950 . S
H377 C389 0.950 . S
H378 C386 0.950 . S
H379 C388 0.950 . S
H380 C390 0.950 . S
H381 C392 0.950 . S
H382 C394 0.950 . S
H383 C395 0.950 . S
C384 H376 0.950 . S
C384 C385 1.386 . S
C384 C386 1.391 . S
C385 C384 1.386 . S
C385 C389 1.393 . S
C386 H378 0.950 . S
C386 C384 1.391 . S
C386 C387 1.400 . S
C387 C386 1.400 . S
C387 C388 1.398 . S
C387 C393 1.491 . S
C388 H379 0.950 . S
C388 C387 1.398 . S
C388 C389 1.391 . S
C389 H377 0.950 . S
C389 C385 1.393 . S
C389 C388 1.391 . S
C390 H380 0.950 . S
C390 C391 1.386 . S
C390 C392 1.391 . S
C391 C390 1.386 . S
C391 C395 1.393 . S
C392 H381 0.950 . S
C392 C390 1.391 . S
C392 C393 1.400 . S
C393 C387 1.491 . S
C393 C392 1.400 . S
C393 C394 1.398 . S
C394 H382 0.950 . S
C394 C393 1.398 . S
C394 C395 1.391 . S
C395 H383 0.950 . S
C395 C391 1.393 . S
C395 C394 1.391 . S
H396 C404 0.950 1_655 S
H397 C409 0.950 . S
H398 C406 0.950 1_655 S
H399 C408 0.950 . S
H400 C410 0.950 . S
H401 C412 0.950 . S
H402 C414 0.950 1_655 S
H403 C415 0.950 1_655 S
C404 H396 0.950 1_455 S
C404 C405 1.386 . S
C404 C406 1.391 . S
C405 C404 1.386 . S
C405 C409 1.393 . S
C406 H398 0.950 1_455 S
C406 C404 1.391 . S
C406 C407 1.400 . S
C407 C406 1.400 . S
C407 C408 1.398 . S
C407 C413 1.491 . S
C408 H399 0.950 . S
C408 C407 1.398 . S
C408 C409 1.391 . S
C409 H397 0.950 . S
C409 C405 1.393 . S
C409 C408 1.391 . S
C410 H400 0.950 . S
C410 C411 1.386 . S
C410 C412 1.391 . S
C411 C410 1.386 . S
C411 C415 1.393 . S
C412 H401 0.950 . S
C412 C410 1.391 . S
C412 C413 1.400 . S
C413 C407 1.491 . S
C413 C412 1.400 . S
C413 C414 1.398 . S
C414 H402 0.950 1_455 S
C414 C413 1.398 . S
C414 C415 1.391 . S
C415 H403 0.950 1_455 S
C415 C411 1.393 . S
C415 C414 1.391 . S
H416 C424 0.950 1_565 S
H417 C429 0.950 . S
H418 C426 0.950 1_565 S
H419 C428 0.950 . S
H420 C430 0.950 . S
H421 C432 0.950 . S
H422 C434 0.958 . S
H423 C435 0.946 1_565 S
C424 H416 0.950 1_545 S
C424 C425 1.386 . S
C424 C426 1.391 . S
C425 C424 1.386 . S
C425 C429 1.393 . S
C426 H418 0.950 1_545 S
C426 C424 1.391 . S
C426 C427 1.400 . S
C427 C426 1.400 . S
C427 C428 1.398 . S
C427 C433 1.491 . S
C428 H419 0.950 . S
C428 C427 1.398 . S
C428 C429 1.391 . S
C429 H417 0.950 . S
C429 C425 1.393 . S
C429 C428 1.391 . S
C430 H420 0.950 . S
C430 C431 1.386 . S
C430 C432 1.391 . S
C431 C430 1.386 . S
C431 C435 1.393 . S
C432 H421 0.950 . S
C432 C430 1.391 . S
C432 C433 1.400 . S
C433 C427 1.491 . S
C433 C432 1.400 . S
C433 C434 1.398 . S
C434 H422 0.958 . S
C434 C433 1.398 . S
C434 C435 1.391 . S
C435 H423 0.946 1_545 S
C435 C431 1.393 . S
C435 C434 1.391 . S
H436 C444 0.950 . S
H437 C449 0.950 . S
H438 C446 0.950 . S
H439 C448 0.950 . S
H440 C450 0.950 . S
H441 C452 0.950 . S
H442 C454 0.950 . S
H443 C455 0.950 . S
C444 H436 0.950 . S
C444 C445 1.386 . S
C444 C446 1.391 . S
C445 C444 1.386 . S
C445 C449 1.393 . S
C446 H438 0.950 . S
C446 C444 1.391 . S
C446 C447 1.400 . S
C447 C446 1.400 . S
C447 C448 1.398 . S
C447 C453 1.491 . S
C448 H439 0.950 . S
C448 C447 1.398 . S
C448 C449 1.391 . S
C449 H437 0.950 . S
C449 C445 1.393 . S
C449 C448 1.391 . S
C450 H440 0.950 . S
C450 C451 1.386 . S
C450 C452 1.391 . S
C451 C450 1.386 . S
C451 C455 1.393 . S
C452 H441 0.950 . S
C452 C450 1.391 . S
C452 C453 1.400 . S
C453 C447 1.491 . S
C453 C452 1.400 . S
C453 C454 1.398 . S
C454 H442 0.950 . S
C454 C453 1.398 . S
C454 C455 1.391 . S
C455 H443 0.950 . S
C455 C451 1.393 . S
C455 C454 1.391 . S
H456 C464 0.950 . S
H457 C469 0.950 . S
H458 C466 0.950 . S
H459 C468 0.950 . S
H460 C470 0.950 . S
H461 C472 0.950 . S
H462 C474 0.950 . S
H463 C475 0.950 . S
C464 H456 0.950 . S
C464 C465 1.386 . S
C464 C466 1.391 . S
C465 C464 1.386 . S
C465 C469 1.393 . S
C466 H458 0.950 . S
C466 C464 1.391 . S
C466 C467 1.400 . S
C467 C466 1.400 . S
C467 C468 1.398 . S
C467 C473 1.491 . S
C468 H459 0.950 . S
C468 C467 1.398 . S
C468 C469 1.391 . S
C469 H457 0.950 . S
C469 C465 1.393 . S
C469 C468 1.391 . S
C470 H460 0.950 . S
C470 C471 1.386 . S
C470 C472 1.391 . S
C471 C470 1.386 . S
C471 C475 1.393 . S
C472 H461 0.950 . S
C472 C470 1.391 . S
C472 C473 1.400 . S
C473 C467 1.491 . S
C473 C472 1.400 . S
C473 C474 1.398 . S
C474 H462 0.950 . S
C474 C473 1.398 . S
C474 C475 1.391 . S
C475 H463 0.950 . S
C475 C471 1.393 . S
C475 C474 1.391 . S
H476 C484 0.950 . S
H477 C489 0.950 1_545 S
H478 C486 0.950 . S
H479 C488 0.950 1_545 S
H480 C490 0.950 1_545 S
H481 C492 0.950 1_545 S
H482 C494 0.950 . S
H483 C495 0.950 . S
C484 H476 0.950 . S
C484 C485 1.386 . S
C484 C486 1.391 . S
C485 C484 1.386 . S
C485 C489 1.393 . S
C486 H478 0.950 . S
C486 C484 1.391 . S
C486 C487 1.400 . S
C487 C486 1.400 . S
C487 C488 1.398 . S
C487 C493 1.491 . S
C488 H479 0.950 1_565 S
C488 C487 1.398 . S
C488 C489 1.391 . S
C489 H477 0.950 1_565 S
C489 C485 1.393 . S
C489 C488 1.391 . S
C490 H480 0.950 1_565 S
C490 C491 1.386 . S
C490 C492 1.391 . S
C491 C490 1.386 . S
C491 C495 1.393 . S
C492 H481 0.950 1_565 S
C492 C490 1.391 . S
C492 C493 1.400 . S
C493 C487 1.491 . S
C493 C492 1.400 . S
C493 C494 1.398 . S
C494 H482 0.950 . S
C494 C493 1.398 . S
C494 C495 1.391 . S
C495 H483 0.950 . S
C495 C491 1.393 . S
C495 C494 1.391 . S
H496 C504 0.950 . S
H497 C509 0.950 . S
H498 C506 0.950 . S
H499 C508 0.950 . S
H500 C510 0.950 . S
H501 C512 0.950 . S
H502 C514 0.950 . S
H503 C515 0.950 . S
C504 H496 0.950 . S
C504 C505 1.386 . S
C504 C506 1.391 . S
C505 C504 1.386 . S
C505 C509 1.393 . S
C506 H498 0.950 . S
C506 C504 1.391 . S
C506 C507 1.400 . S
C507 C506 1.400 . S
C507 C508 1.398 . S
C507 C513 1.491 . S
C508 H499 0.950 . S
C508 C507 1.398 . S
C508 C509 1.391 . S
C509 H497 0.950 . S
C509 C505 1.393 . S
C509 C508 1.391 . S
C510 H500 0.950 . S
C510 C511 1.386 . S
C510 C512 1.391 . S
C511 C510 1.386 . S
C511 C515 1.393 . S
C512 H501 0.950 . S
C512 C510 1.391 . S
C512 C513 1.400 . S
C513 C507 1.491 . S
C513 C512 1.400 . S
C513 C514 1.398 . S
C514 H502 0.950 . S
C514 C513 1.398 . S
C514 C515 1.391 . S
C515 H503 0.950 . S
C515 C511 1.393 . S
C515 C514 1.391 . S
H516 C524 0.950 . S
H517 C529 0.950 . S
H518 C526 0.950 . S
H519 C528 0.950 . S
H520 C530 0.950 . S
H521 C532 0.950 . S
H522 C534 0.950 . S
H523 C535 0.950 . S
C524 H516 0.950 . S
C524 C525 1.386 . S
C524 C526 1.391 . S
C525 C524 1.386 . S
C525 C529 1.393 . S
C526 H518 0.950 . S
C526 C524 1.391 . S
C526 C527 1.400 . S
C527 C526 1.400 . S
C527 C528 1.398 . S
C527 C533 1.491 . S
C528 H519 0.950 . S
C528 C527 1.398 . S
C528 C529 1.391 . S
C529 H517 0.950 . S
C529 C525 1.393 . S
C529 C528 1.391 . S
C530 H520 0.950 . S
C530 C531 1.386 . S
C530 C532 1.391 . S
C531 C530 1.386 . S
C531 C535 1.393 . S
C532 H521 0.950 . S
C532 C530 1.391 . S
C532 C533 1.400 . S
C533 C527 1.491 . S
C533 C532 1.400 . S
C533 C534 1.398 . S
C534 H522 0.950 . S
C534 C533 1.398 . S
C534 C535 1.391 . S
C535 H523 0.950 . S
C535 C531 1.393 . S
C535 C534 1.391 . S
H536 C544 0.950 . S
H537 C549 0.950 . S
H538 C546 0.950 . S
H539 C548 0.950 . S
H540 C550 0.950 . S
H541 C552 0.950 . S
H542 C554 0.950 . S
H543 C555 0.950 . S
C544 H536 0.950 . S
C544 C545 1.386 . S
C544 C546 1.391 . S
C545 C544 1.386 . S
C545 C549 1.393 . S
C546 H538 0.950 . S
C546 C544 1.391 . S
C546 C547 1.400 . S
C547 C546 1.400 . S
C547 C548 1.398 . S
C547 C553 1.491 . S
C548 H539 0.950 . S
C548 C547 1.398 . S
C548 C549 1.391 . S
C549 H537 0.950 . S
C549 C545 1.393 . S
C549 C548 1.391 . S
C550 H540 0.950 . S
C550 C551 1.386 . S
C550 C552 1.391 . S
C551 C550 1.386 . S
C551 C555 1.393 . S
C552 H541 0.950 . S
C552 C550 1.391 . S
C552 C553 1.400 . S
C553 C547 1.491 . S
C553 C552 1.400 . S
C553 C554 1.398 . S
C554 H542 0.950 . S
C554 C553 1.398 . S
C554 C555 1.391 . S
C555 H543 0.950 . S
C555 C551 1.393 . S
C555 C554 1.391 . S
H556 C564 0.950 . S
H557 C569 0.950 . S
H558 C566 0.950 . S
H559 C568 0.950 . S
H560 C570 0.950 . S
H561 C572 0.950 . S
H562 C574 0.950 . S
H563 C575 0.950 . S
C564 H556 0.950 . S
C564 C565 1.386 . S
C564 C566 1.391 . S
C565 C564 1.386 . S
C565 C569 1.393 . S
C566 H558 0.950 . S
C566 C564 1.391 . S
C566 C567 1.400 . S
C567 C566 1.400 . S
C567 C568 1.398 . S
C567 C573 1.491 . S
C568 H559 0.950 . S
C568 C567 1.398 . S
C568 C569 1.391 . S
C569 H557 0.950 . S
C569 C565 1.393 . S
C569 C568 1.391 . S
C570 H560 0.950 . S
C570 C571 1.386 . S
C570 C572 1.391 . S
C571 C570 1.386 . S
C571 C575 1.393 . S
C572 H561 0.950 . S
C572 C570 1.391 . S
C572 C573 1.400 . S
C573 C567 1.491 . S
C573 C572 1.400 . S
C573 C574 1.398 . S
C574 H562 0.950 . S
C574 C573 1.398 . S
C574 C575 1.391 . S
C575 H563 0.950 . S
C575 C571 1.393 . S
C575 C574 1.391 . S
H576 C584 0.950 . S
H577 C589 0.950 . S
H578 C586 0.950 . S
H579 C588 0.950 . S
H580 C590 0.950 . S
H581 C592 0.950 . S
H582 C594 0.950 . S
H583 C595 0.950 . S
C584 H576 0.950 . S
C584 C585 1.386 . S
C584 C586 1.391 . S
C585 C584 1.386 . S
C585 C589 1.393 . S
C586 H578 0.950 . S
C586 C584 1.391 . S
C586 C587 1.400 . S
C587 C586 1.400 . S
C587 C588 1.398 . S
C587 C593 1.491 . S
C588 H579 0.950 . S
C588 C587 1.398 . S
C588 C589 1.391 . S
C589 H577 0.950 . S
C589 C585 1.393 . S
C589 C588 1.391 . S
C590 H580 0.950 . S
C590 C591 1.386 . S
C590 C592 1.391 . S
C591 C590 1.386 . S
C591 C595 1.393 . S
C592 H581 0.950 . S
C592 C590 1.391 . S
C592 C593 1.400 . S
C593 C587 1.491 . S
C593 C592 1.400 . S
C593 C594 1.398 . S
C594 H582 0.950 . S
C594 C593 1.398 . S
C594 C595 1.391 . S
C595 H583 0.950 . S
C595 C591 1.393 . S
C595 C594 1.391 . S
H596 C604 0.950 . S
H597 C609 0.950 . S
H598 C606 0.950 . S
H599 C608 0.950 . S
H600 C610 0.950 . S
H601 C612 0.950 . S
H602 C614 0.950 . S
H603 C615 0.950 . S
C604 H596 0.950 . S
C604 C605 1.386 . S
C604 C606 1.391 . S
C605 C604 1.386 . S
C605 C609 1.393 . S
C606 H598 0.950 . S
C606 C604 1.391 . S
C606 C607 1.400 . S
C607 C606 1.400 . S
C607 C608 1.398 . S
C607 C613 1.491 . S
C608 H599 0.950 . S
C608 C607 1.398 . S
C608 C609 1.391 . S
C609 H597 0.950 . S
C609 C605 1.393 . S
C609 C608 1.391 . S
C610 H600 0.950 . S
C610 C611 1.386 . S
C610 C612 1.391 . S
C611 C610 1.386 . S
C611 C615 1.393 . S
C612 H601 0.950 . S
C612 C610 1.391 . S
C612 C613 1.400 . S
C613 C607 1.491 . S
C613 C612 1.400 . S
C613 C614 1.398 . S
C614 H602 0.950 . S
C614 C613 1.398 . S
C614 C615 1.391 . S
C615 H603 0.950 . S
C615 C611 1.393 . S
C615 C614 1.391 . S
H616 C624 0.950 . S
H617 C629 0.950 . S
H618 C626 0.950 . S
H619 C628 0.950 . S
H620 C630 0.950 . S
H621 C632 0.950 . S
H622 C634 0.950 . S
H623 C635 0.950 . S
C624 H616 0.950 . S
C624 C625 1.386 . S
C624 C626 1.391 . S
C625 C624 1.386 . S
C625 C629 1.393 . S
C626 H618 0.950 . S
C626 C624 1.391 . S
C626 C627 1.400 . S
C627 C626 1.400 . S
C627 C628 1.398 . S
C627 C633 1.491 . S
C628 H619 0.950 . S
C628 C627 1.398 . S
C628 C629 1.391 . S
C629 H617 0.950 . S
C629 C625 1.393 . S
C629 C628 1.391 . S
C630 H620 0.950 . S
C630 C631 1.386 . S
C630 C632 1.391 . S
C631 C630 1.386 . S
C631 C635 1.393 . S
C632 H621 0.950 . S
C632 C630 1.391 . S
C632 C633 1.400 . S
C633 C627 1.491 . S
C633 C632 1.400 . S
C633 C634 1.398 . S
C634 H622 0.950 . S
C634 C633 1.398 . S
C634 C635 1.391 . S
C635 H623 0.950 . S
C635 C631 1.393 . S
C635 C634 1.391 . S
C165 C4 1.378 . S
C171 C153 1.379 . S
C185 C82 1.381 . S
C191 C17 1.370 . S
C205 C30 1.373 . S
C211 C95 1.368 . S
C225 C108 1.381 . S
C231 C43 1.370 . S
C245 C121 1.380 . S
C251 C62 1.376 . S
C265 C134 1.375 . S
C271 C75 1.368 . S
C285 C44 1.341 . S
C291 C109 1.347 . S
C305 C55 1.341 . S
C311 C122 1.338 . S
C325 C68 1.351 . S
C331 C135 1.355 . S
C345 C146 1.348 . S
C351 C5 1.341 . S
C365 C18 1.345 . S
C371 C83 1.352 . S
C385 C31 1.352 . S
C391 C96 1.346 . S
C405 C107 1.732 . S
C411 C3 1.732 . S
C425 C120 1.732 . S
C431 C16 1.731 . S
C445 C29 1.726 . S
C451 C133 1.725 . S
C465 C42 1.728 . S
C471 C148 1.731 . S
C485 C57 1.725 . S
C491 C81 1.727 . S
C505 C94 1.730 . S
C511 C70 1.732 . S
C525 C10 1.712 . S
C531 C140 1.715 . S
C545 C147 1.716 . S
C551 C23 1.712 . S
C565 C36 1.714 . S
C571 C88 1.713 . S
C585 C49 1.720 . S
C591 C101 1.714 . S
C605 C56 1.719 . S
C611 C114 1.716 . S
C625 C69 1.719 . S
C631 C127 1.713 . S
