# Generated by pormake.
# Topology wla, (5)-cn, num edge types: 1
# Building blocks:
#     Node 0, Type 0, BuildingBlock: XOMCOT_clean_sbu_0, # of connection points: 5
#     Node 1, Type 0, BuildingBlock: XOMCOT_clean_sbu_0, # of connection points: 5
#     Node 2, Type 0, BuildingBlock: XOMCOT_clean_sbu_0, # of connection points: 5
#     Node 3, Type 0, BuildingBlock: XOMCOT_clean_sbu_0, # of connection points: 5
#     Node 4, Type 0, BuildingBlock: XOMCOT_clean_sbu_0, # of connection points: 5
#     Node 5, Type 0, BuildingBlock: XOMCOT_clean_sbu_0, # of connection points: 5
#     Node 6, Type 0, BuildingBlock: XOMCOT_clean_sbu_0, # of connection points: 5
#     Node 7, Type 0, BuildingBlock: XOMCOT_clean_sbu_0, # of connection points: 5
#     Node 8, Type 0, BuildingBlock: XOMCOT_clean_sbu_0, # of connection points: 5
#     Node 9, Type 0, BuildingBlock: XOMCOT_clean_sbu_0, # of connection points: 5
#     Node 10, Type 0, BuildingBlock: XOMCOT_clean_sbu_0, # of connection points: 5
#     Node 11, Type 0, BuildingBlock: XOMCOT_clean_sbu_0, # of connection points: 5
#     Node 12, Type 0, BuildingBlock: XOMCOT_clean_sbu_0, # of connection points: 5
#     Node 13, Type 0, BuildingBlock: XOMCOT_clean_sbu_0, # of connection points: 5
#     Node 14, Type 0, BuildingBlock: XOMCOT_clean_sbu_0, # of connection points: 5
#     Node 15, Type 0, BuildingBlock: XOMCOT_clean_sbu_0, # of connection points: 5
#     Node 16, Type 0, BuildingBlock: XOMCOT_clean_sbu_0, # of connection points: 5
#     Node 17, Type 0, BuildingBlock: XOMCOT_clean_sbu_0, # of connection points: 5
#     Edge 18, Type (0, 0), BuildingBlock: ZUJKAS_clean_linker_0, # of connection points: 2
#     Edge 19, Type (0, 0), BuildingBlock: ZUJKAS_clean_linker_0, # of connection points: 2
#     Edge 20, Type (0, 0), BuildingBlock: ZUJKAS_clean_linker_0, # of connection points: 2
#     Edge 21, Type (0, 0), BuildingBlock: ZUJKAS_clean_linker_0, # of connection points: 2
#     Edge 22, Type (0, 0), BuildingBlock: ZUJKAS_clean_linker_0, # of connection points: 2
#     Edge 23, Type (0, 0), BuildingBlock: ZUJKAS_clean_linker_0, # of connection points: 2
#     Edge 24, Type (0, 0), BuildingBlock: ZUJKAS_clean_linker_0, # of connection points: 2
#     Edge 25, Type (0, 0), BuildingBlock: ZUJKAS_clean_linker_0, # of connection points: 2
#     Edge 26, Type (0, 0), BuildingBlock: ZUJKAS_clean_linker_0, # of connection points: 2
#     Edge 27, Type (0, 0), BuildingBlock: ZUJKAS_clean_linker_0, # of connection points: 2
#     Edge 28, Type (0, 0), BuildingBlock: ZUJKAS_clean_linker_0, # of connection points: 2
#     Edge 29, Type (0, 0), BuildingBlock: ZUJKAS_clean_linker_0, # of connection points: 2
#     Edge 30, Type (0, 0), BuildingBlock: ZUJKAS_clean_linker_0, # of connection points: 2
#     Edge 31, Type (0, 0), BuildingBlock: ZUJKAS_clean_linker_0, # of connection points: 2
#     Edge 32, Type (0, 0), BuildingBlock: ZUJKAS_clean_linker_0, # of connection points: 2
#     Edge 33, Type (0, 0), BuildingBlock: ZUJKAS_clean_linker_0, # of connection points: 2
#     Edge 34, Type (0, 0), BuildingBlock: ZUJKAS_clean_linker_0, # of connection points: 2
#     Edge 35, Type (0, 0), BuildingBlock: ZUJKAS_clean_linker_0, # of connection points: 2
#     Edge 36, Type (0, 0), BuildingBlock: ZUJKAS_clean_linker_0, # of connection points: 2
#     Edge 37, Type (0, 0), BuildingBlock: ZUJKAS_clean_linker_0, # of connection points: 2
#     Edge 38, Type (0, 0), BuildingBlock: ZUJKAS_clean_linker_0, # of connection points: 2
#     Edge 39, Type (0, 0), BuildingBlock: ZUJKAS_clean_linker_0, # of connection points: 2
#     Edge 40, Type (0, 0), BuildingBlock: ZUJKAS_clean_linker_0, # of connection points: 2
#     Edge 41, Type (0, 0), BuildingBlock: ZUJKAS_clean_linker_0, # of connection points: 2
#     Edge 42, Type (0, 0), BuildingBlock: ZUJKAS_clean_linker_0, # of connection points: 2
#     Edge 43, Type (0, 0), BuildingBlock: ZUJKAS_clean_linker_0, # of connection points: 2
#     Edge 44, Type (0, 0), BuildingBlock: ZUJKAS_clean_linker_0, # of connection points: 2
#     Edge 45, Type (0, 0), BuildingBlock: ZUJKAS_clean_linker_0, # of connection points: 2
#     Edge 46, Type (0, 0), BuildingBlock: ZUJKAS_clean_linker_0, # of connection points: 2
#     Edge 47, Type (0, 0), BuildingBlock: ZUJKAS_clean_linker_0, # of connection points: 2
#     Edge 48, Type (0, 0), BuildingBlock: ZUJKAS_clean_linker_0, # of connection points: 2
#     Edge 49, Type (0, 0), BuildingBlock: ZUJKAS_clean_linker_0, # of connection points: 2
#     Edge 50, Type (0, 0), BuildingBlock: ZUJKAS_clean_linker_0, # of connection points: 2
#     Edge 51, Type (0, 0), BuildingBlock: ZUJKAS_clean_linker_0, # of connection points: 2
#     Edge 52, Type (0, 0), BuildingBlock: ZUJKAS_clean_linker_0, # of connection points: 2
#     Edge 53, Type (0, 0), BuildingBlock: ZUJKAS_clean_linker_0, # of connection points: 2
#     Edge 54, Type (0, 0), BuildingBlock: ZUJKAS_clean_linker_0, # of connection points: 2
#     Edge 55, Type (0, 0), BuildingBlock: ZUJKAS_clean_linker_0, # of connection points: 2
#     Edge 56, Type (0, 0), BuildingBlock: ZUJKAS_clean_linker_0, # of connection points: 2
#     Edge 57, Type (0, 0), BuildingBlock: ZUJKAS_clean_linker_0, # of connection points: 2
#     Edge 58, Type (0, 0), BuildingBlock: ZUJKAS_clean_linker_0, # of connection points: 2
#     Edge 59, Type (0, 0), BuildingBlock: ZUJKAS_clean_linker_0, # of connection points: 2
#     Edge 60, Type (0, 0), BuildingBlock: ZUJKAS_clean_linker_0, # of connection points: 2
#     Edge 61, Type (0, 0), BuildingBlock: ZUJKAS_clean_linker_0, # of connection points: 2
#     Edge 62, Type (0, 0), BuildingBlock: ZUJKAS_clean_linker_0, # of connection points: 2
# Relax obj value: 0.273
# Max RMSD: 0.258
# Mean RMSD: 0.258
data_MOF--net-wla--node1-XOMCOT_clean_sbu_0--edge1-ZUJKAS_clean_linker_0
_symmetry_space_group_name_H-M    P1
_symmetry_Int_Tables_number       1
_symmetry_cell_setting            triclinic
loop_
_symmetry_equiv_pos_as_xyz
'x, y, z'
_cell_length_a     73.804742
_cell_length_b     73.829432
_cell_length_c     39.836034
_cell_angle_alpha  90.007417
_cell_angle_beta   89.976806
_cell_angle_gamma 119.99998
loop_
_atom_site_label
_atom_site_type_symbol
_atom_site_fract_x
_atom_site_fract_y
_atom_site_fract_z
_atom_type_partial_charge
Co0 Co 0.16968 0.02765 0.22667 0.0
C1 C 0.21405 0.06157 0.22502 0.0
C2 C 0.19298 0.07312 0.21702 0.0
C3 C 0.21303 0.08917 0.21144 0.0
N4 N 0.19359 0.05584 0.22625 0.0
N5 N 0.22628 0.08184 0.21622 0.0
H6 H 0.21981 0.05084 0.2279 0.0
H7 H 0.17886 0.07364 0.21195 0.0
C8 C 0.155 0.05228 0.26706 0.0
O9 O 0.17231 0.06038 0.28485 0.0
N10 N 0.14589 0.99971 0.22621 0.0
C11 C 0.14647 0.98188 0.23008 0.0
C12 C 0.12629 0.96553 0.23354 0.0
C13 C 0.12547 0.99403 0.22702 0.0
N14 N 0.11315 0.97324 0.23176 0.0
C15 C 0.19341 0.01982 0.27623 0.0
C16 C 0.16513 0.01035 0.32795 0.0
C17 C 0.18302 0.00876 0.33373 0.0
C18 C 0.19726 0.01356 0.30728 0.0
C19 C 0.1618 0.01641 0.29652 0.0
N20 N 0.17623 0.02192 0.27142 0.0
H21 H 0.2037 0.02185 0.25566 0.0
H22 H 0.14711 0.01586 0.29221 0.0
H23 H 0.16062 0.98097 0.23179 0.0
H24 H 0.11978 0.00497 0.22601 0.0
O25 O 0.18532 0.01831 0.19955 0.0
O26 O 0.16559 0.0308 0.18001 0.0
O27 O 0.15151 0.03866 0.24445 0.0
C28 C 0.17814 0.02363 0.17378 0.0
H29 H 0.21728 0.10452 0.20191 0.0
H30 H 0.1217 0.94932 0.23782 0.0
H31 H 0.15355 0.00671 0.34739 0.0
H32 H 0.21086 0.01174 0.31008 0.0
Co33 Co 0.9739 0.14653 0.21894 0.0
C34 C 0.93813 0.15468 0.21875 0.0
C35 C 0.92891 0.12297 0.20652 0.0
C36 C 0.91185 0.12557 0.20264 0.0
N37 N 0.94535 0.14113 0.21711 0.0
N38 N 0.91772 0.14552 0.2103 0.0
H39 H 0.94774 0.1712 0.22336 0.0
H40 H 0.92953 0.109 0.20051 0.0
C41 C 0.94924 0.10951 0.26342 0.0
O42 O 0.94066 0.11953 0.27745 0.0
N43 N 0.00222 0.15155 0.21991 0.0
C44 C 0.0199 0.16997 0.21483 0.0
C45 C 0.03683 0.16718 0.21971 0.0
C46 C 0.00858 0.13788 0.22806 0.0
N47 N 0.02961 0.14705 0.22825 0.0
C48 C 0.9818 0.18079 0.26286 0.0
C49 C 0.98993 0.16442 0.31941 0.0
C50 C 0.99137 0.18405 0.32166 0.0
C51 C 0.98734 0.1923 0.29275 0.0
C52 C 0.98456 0.15362 0.28911 0.0
N53 N 0.9795 0.16125 0.26164 0.0
H54 H 0.9802 0.18802 0.24042 0.0
H55 H 0.98512 0.13933 0.28775 0.0
H56 H 0.0205 0.18454 0.20882 0.0
H57 H 0.99814 0.1216 0.23403 0.0
O58 O 0.98227 0.16976 0.18818 0.0
O59 O 0.97088 0.13683 0.17345 0.0
O60 O 0.96347 0.11852 0.24117 0.0
C61 C 0.97742 0.15602 0.16432 0.0
H62 H 0.89653 0.11389 0.19378 0.0
H63 H 0.05316 0.17914 0.21825 0.0
H64 H 0.99303 0.15738 0.34086 0.0
H65 H 0.98907 0.20775 0.29289 0.0
Co66 Co 0.85116 0.83508 0.21117 0.0
C67 C 0.84403 0.79356 0.19231 0.0
C68 C 0.87442 0.81791 0.17676 0.0
C69 C 0.87191 0.79897 0.16654 0.0
N70 N 0.85697 0.8144 0.19301 0.0
N71 N 0.85278 0.7837 0.17631 0.0
H72 H 0.82859 0.78587 0.20345 0.0
H73 H 0.88785 0.83318 0.17215 0.0
C74 C 0.88993 0.86072 0.25318 0.0
O75 O 0.8785 0.85991 0.27907 0.0
N76 N 0.8455 0.85644 0.22849 0.0
C77 C 0.82677 0.85484 0.2348 0.0
C78 C 0.8298 0.87416 0.2437 0.0
C79 C 0.85947 0.87704 0.23177 0.0
N80 N 0.85042 0.88811 0.24191 0.0
C81 C 0.82296 0.81218 0.26504 0.0
C82 C 0.85066 0.80495 0.30113 0.0
C83 C 0.83125 0.79957 0.31553 0.0
C84 C 0.81702 0.8026 0.29642 0.0
C85 C 0.85597 0.81462 0.26969 0.0
N86 N 0.84276 0.81954 0.25322 0.0
H87 H 0.81156 0.81363 0.25034 0.0
H88 H 0.87091 0.8185 0.25888 0.0
H89 H 0.81171 0.84102 0.23127 0.0
H90 H 0.87591 0.88395 0.22606 0.0
O91 O 0.82456 0.82169 0.18789 0.0
O92 O 0.85456 0.84707 0.16729 0.0
O93 O 0.88129 0.85181 0.22557 0.0
C94 C 0.83475 0.83393 0.16284 0.0
H95 H 0.88311 0.7967 0.15228 0.0
H96 H 0.81765 0.8778 0.24953 0.0
H97 H 0.8618 0.80202 0.31421 0.0
H98 H 0.80165 0.79831 0.30596 0.0
Co99 Co 0.0221 0.17044 0.76829 0.0
C100 C 0.05654 0.21386 0.78301 0.0
C101 C 0.06176 0.19028 0.8046 0.0
C102 C 0.07766 0.20951 0.81467 0.0
N103 N 0.04864 0.19298 0.78439 0.0
N104 N 0.07432 0.22431 0.80108 0.0
H105 H 0.04906 0.22138 0.77074 0.0
H106 H 0.05959 0.17525 0.81217 0.0
C107 C 0.05474 0.16213 0.74018 0.0
O108 O 0.06582 0.18204 0.73224 0.0
N109 N 0.99565 0.14777 0.7533 0.0
C110 C 0.97933 0.14917 0.74145 0.0
C111 C 0.96368 0.12944 0.73266 0.0
C112 C 0.98981 0.12736 0.75179 0.0
N113 N 0.97032 0.11574 0.73913 0.0
C114 C 0.0218 0.20015 0.7217 0.0
C115 C 0.0252 0.18094 0.66451 0.0
C116 C 0.02196 0.19799 0.66102 0.0
C117 C 0.02052 0.20783 0.69017 0.0
C118 C 0.02609 0.17365 0.6963 0.0
N119 N 0.02508 0.18356 0.7246 0.0
H120 H 0.0189 0.20685 0.7437 0.0
H121 H 0.02631 0.1592 0.69774 0.0
H122 H 0.97887 0.16354 0.73926 0.0
H123 H 0.99978 0.12123 0.75936 0.0
O124 O 0.00777 0.18234 0.79272 0.0
O125 O 0.01596 0.15938 0.81306 0.0
O126 O 0.03652 0.1548 0.75298 0.0
C127 C 0.0077 0.17111 0.81799 0.0
H128 H 0.09051 0.21236 0.83106 0.0
H129 H 0.94852 0.12552 0.72269 0.0
H130 H 0.02627 0.1727 0.64278 0.0
H131 H 0.01731 0.2206 0.68873 0.0
Co132 Co 0.83522 0.85574 0.76308 0.0
C133 C 0.79101 0.84622 0.76385 0.0
C134 C 0.81271 0.87885 0.77044 0.0
C135 C 0.79282 0.87556 0.7749 0.0
N136 N 0.81162 0.86052 0.76275 0.0
N137 N 0.77921 0.855 0.77083 0.0
H138 H 0.78477 0.82956 0.76297 0.0
H139 H 0.82703 0.89344 0.77471 0.0
C140 C 0.84942 0.89336 0.71891 0.0
O141 O 0.83159 0.88354 0.70256 0.0
N142 N 0.85879 0.85129 0.76438 0.0
C143 C 0.8583 0.83293 0.76057 0.0
C144 C 0.87857 0.83679 0.75883 0.0
C145 C 0.87919 0.86601 0.76536 0.0
N146 N 0.89164 0.8576 0.76176 0.0
C147 C 0.81034 0.82279 0.71596 0.0
C148 C 0.83841 0.83934 0.66342 0.0
C149 C 0.82004 0.82011 0.65884 0.0
C150 C 0.80589 0.8118 0.68564 0.0
C151 C 0.84224 0.8497 0.69402 0.0
N152 N 0.82793 0.84191 0.7195 0.0
H153 H 0.80014 0.81535 0.737 0.0
H154 H 0.85718 0.8637 0.69747 0.0
H155 H 0.8442 0.8179 0.75797 0.0
H156 H 0.8848 0.8826 0.7671 0.0
O157 O 0.81975 0.83186 0.79245 0.0
O158 O 0.84013 0.86469 0.80897 0.0
O159 O 0.85342 0.88412 0.74242 0.0
C160 C 0.82759 0.84526 0.81702 0.0
H161 H 0.78878 0.88724 0.78208 0.0
H162 H 0.88332 0.82523 0.75514 0.0
H163 H 0.84993 0.84633 0.64361 0.0
H164 H 0.79189 0.79661 0.68365 0.0
Co165 Co 0.15496 0.98495 0.78453 0.0
C166 C 0.16286 0.95069 0.80061 0.0
C167 C 0.13275 0.94426 0.81846 0.0
C168 C 0.13555 0.92775 0.82703 0.0
N169 N 0.14985 0.95849 0.80179 0.0
N170 N 0.1545 0.93185 0.81579 0.0
H171 H 0.17803 0.9586 0.78855 0.0
H172 H 0.11932 0.94589 0.82427 0.0
C173 C 0.11553 0.97248 0.74509 0.0
O174 O 0.12656 0.98377 0.71938 0.0
N175 N 0.15982 0.01184 0.7681 0.0
C176 C 0.17791 0.02866 0.75818 0.0
C177 C 0.17433 0.04485 0.75127 0.0
C178 C 0.14584 0.01855 0.76879 0.0
N179 N 0.15409 0.03844 0.75781 0.0
C180 C 0.18255 0.99016 0.72971 0.0
C181 C 0.15386 0.95635 0.6926 0.0
C182 C 0.17323 0.9703 0.67797 0.0
C183 C 0.18798 0.98694 0.69762 0.0
C184 C 0.14904 0.96038 0.72464 0.0
N185 N 0.16272 0.9781 0.74161 0.0
H186 H 0.19437 0.00238 0.74491 0.0
H187 H 0.13414 0.94936 0.73557 0.0
H188 H 0.19303 0.0298 0.75755 0.0
H189 H 0.1301 0.00929 0.7784 0.0
O190 O 0.18199 0.99844 0.80657 0.0
O191 O 0.15217 0.9932 0.82895 0.0
O192 O 0.12459 0.97138 0.77167 0.0
C193 C 0.1721 0.00019 0.83236 0.0
H194 H 0.12464 0.914 0.841 0.0
H195 H 0.18589 0.06023 0.7425 0.0
H196 H 0.14236 0.94259 0.67927 0.0
H197 H 0.20338 0.99789 0.6881 0.0
Co198 Co 0.83403 0.35788 0.57109 0.0
C199 C 0.8775 0.39365 0.56308 0.0
C200 C 0.85421 0.40226 0.55402 0.0
C201 C 0.87339 0.41891 0.54553 0.0
N202 N 0.85675 0.38647 0.56556 0.0
N203 N 0.88797 0.41341 0.55129 0.0
H204 H 0.88474 0.38424 0.5665 0.0
H205 H 0.83926 0.40127 0.54987 0.0
C206 C 0.82153 0.38347 0.61282 0.0
O207 O 0.84028 0.39273 0.62635 0.0
N208 N 0.81123 0.3296 0.57553 0.0
C209 C 0.81278 0.31253 0.58208 0.0
C210 C 0.79304 0.29597 0.58827 0.0
C211 C 0.79068 0.32325 0.57731 0.0
N212 N 0.77923 0.3028 0.58532 0.0
C213 C 0.86221 0.35391 0.61673 0.0
C214 C 0.83658 0.34416 0.67229 0.0
C215 C 0.85538 0.34398 0.67517 0.0
C216 C 0.8684 0.34909 0.64704 0.0
C217 C 0.83115 0.34929 0.64177 0.0
N218 N 0.84417 0.35474 0.61459 0.0
H219 H 0.87135 0.35569 0.59465 0.0
H220 H 0.8159 0.3478 0.63972 0.0
H221 H 0.82733 0.31237 0.58365 0.0
H222 H 0.78434 0.33358 0.57447 0.0
O223 O 0.84853 0.34826 0.54195 0.0
O224 O 0.82631 0.35845 0.52538 0.0
O225 O 0.81634 0.36866 0.59171 0.0
C226 C 0.83904 0.35178 0.51739 0.0
H227 H 0.87631 0.43353 0.53453 0.0
H228 H 0.78917 0.28024 0.59503 0.0
H229 H 0.82593 0.34 0.69335 0.0
H230 H 0.88271 0.3484 0.64805 0.0
Co231 Co 0.64277 0.47845 0.55333 0.0
C232 C 0.60666 0.48491 0.5399 0.0
C233 C 0.60221 0.45607 0.51967 0.0
C234 C 0.58567 0.45847 0.50985 0.0
N235 N 0.61525 0.47251 0.53893 0.0
N236 N 0.58854 0.47663 0.52256 0.0
H237 H 0.61402 0.50027 0.55095 0.0
H238 H 0.60495 0.44355 0.51225 0.0
C239 C 0.61301 0.43626 0.58165 0.0
O240 O 0.60088 0.44356 0.59151 0.0
N241 N 0.67023 0.48425 0.56678 0.0
C242 C 0.68613 0.5028 0.57697 0.0
C243 C 0.70256 0.50009 0.58645 0.0
C244 C 0.6771 0.47053 0.57001 0.0
N245 N 0.69682 0.47976 0.58216 0.0
C246 C 0.64152 0.50693 0.60137 0.0
C247 C 0.64122 0.48498 0.65765 0.0
C248 C 0.64324 0.50475 0.66186 0.0
C249 C 0.64307 0.51565 0.63317 0.0
C250 C 0.64005 0.47704 0.62555 0.0
N251 N 0.6396 0.48764 0.59774 0.0
H252 H 0.6433 0.51641 0.57968 0.0
H253 H 0.64088 0.46294 0.62338 0.0
H254 H 0.68569 0.51721 0.57796 0.0
H255 H 0.66765 0.45405 0.56444 0.0
O256 O 0.65503 0.50487 0.52943 0.0
O257 O 0.64882 0.47457 0.5079 0.0
O258 O 0.63062 0.44842 0.56783 0.0
C259 C 0.65571 0.49441 0.5036 0.0
H260 H 0.57281 0.4479 0.49392 0.0
H261 H 0.71754 0.51219 0.59577 0.0
H262 H 0.64138 0.47596 0.67896 0.0
H263 H 0.64531 0.53127 0.63508 0.0
Co264 Co 0.52278 0.15865 0.54269 0.0
C265 C 0.5139 0.11532 0.53522 0.0
C266 C 0.54646 0.13747 0.52742 0.0
C267 C 0.5432 0.1177 0.52143 0.0
N268 N 0.52808 0.13589 0.53606 0.0
N269 N 0.52272 0.10383 0.52629 0.0
H270 H 0.49734 0.10904 0.53954 0.0
H271 H 0.56105 0.15202 0.52456 0.0
C272 C 0.55766 0.18544 0.59115 0.0
O273 O 0.54446 0.18676 0.61178 0.0
N274 N 0.51771 0.182 0.5482 0.0
C275 C 0.4994 0.18171 0.54403 0.0
C276 C 0.50278 0.20172 0.5467 0.0
C277 C 0.53212 0.20249 0.55151 0.0
N278 N 0.52338 0.21478 0.55155 0.0
C279 C 0.48966 0.14208 0.59187 0.0
C280 C 0.51146 0.1343 0.64064 0.0
C281 C 0.492 0.13215 0.64894 0.0
C282 C 0.48074 0.1354 0.62358 0.0
C283 C 0.51986 0.14124 0.60869 0.0
N284 N 0.50959 0.14646 0.58554 0.0
H285 H 0.48049 0.14383 0.57258 0.0
H286 H 0.53495 0.14296 0.60287 0.0
H287 H 0.48461 0.16816 0.53764 0.0
H288 H 0.5488 0.20855 0.55201 0.0
O289 O 0.49877 0.14487 0.51317 0.0
O290 O 0.5313 0.16737 0.49732 0.0
O291 O 0.55123 0.17512 0.56382 0.0
C292 C 0.51189 0.15492 0.48895 0.0
H293 H 0.55492 0.11387 0.51352 0.0
H294 H 0.49099 0.20628 0.54471 0.0
H295 H 0.52035 0.13103 0.65883 0.0
H296 H 0.46546 0.13354 0.62833 0.0
Co297 Co 0.69753 0.50817 0.10638 0.0
C298 C 0.73276 0.55217 0.10944 0.0
C299 C 0.74198 0.52997 0.12369 0.0
C300 C 0.75869 0.54974 0.12857 0.0
N301 N 0.7258 0.53146 0.11111 0.0
N302 N 0.75283 0.56367 0.11967 0.0
H303 H 0.72309 0.55882 0.1034 0.0
H304 H 0.7414 0.51547 0.1302 0.0
C305 C 0.72427 0.49596 0.06678 0.0
O306 O 0.73367 0.5146 0.05287 0.0
N307 N 0.66947 0.48484 0.10248 0.0
C308 C 0.65183 0.48587 0.0996 0.0
C309 C 0.63536 0.46602 0.09391 0.0
C310 C 0.66357 0.4645 0.09864 0.0
N311 N 0.64278 0.45261 0.09314 0.0
C312 C 0.69111 0.53437 0.05985 0.0
C313 C 0.68527 0.50988 0.00403 0.0
C314 C 0.68293 0.5275 0.00068 0.0
C315 C 0.68599 0.53988 0.02913 0.0
C316 C 0.69014 0.50485 0.03511 0.0
N317 N 0.69389 0.51746 0.06238 0.0
H318 H 0.69172 0.54312 0.08189 0.0
H319 H 0.68991 0.49019 0.03727 0.0
H320 H 0.6511 0.50013 0.10062 0.0
H321 H 0.67437 0.45864 0.09858 0.0
O322 O 0.68746 0.52261 0.13489 0.0
O323 O 0.69841 0.5012 0.15248 0.0
O324 O 0.70901 0.49076 0.08698 0.0
C325 C 0.69121 0.51357 0.15988 0.0
H326 H 0.77376 0.55352 0.1388 0.0
H327 H 0.61921 0.46189 0.09032 0.0
H328 H 0.68294 0.49969 0.98292 0.0
H329 H 0.68359 0.55319 0.02807 0.0
Co330 Co 0.49681 0.19383 0.09167 0.0
C331 C 0.45329 0.18269 0.10568 0.0
C332 C 0.47485 0.21505 0.1161 0.0
C333 C 0.45506 0.21073 0.12497 0.0
N334 N 0.47364 0.19748 0.10395 0.0
N335 N 0.44151 0.19035 0.11851 0.0
H336 H 0.44739 0.16661 0.09824 0.0
H337 H 0.4892 0.22976 0.11948 0.0
C338 C 0.52351 0.23139 0.04813 0.0
O339 O 0.52698 0.21979 0.02696 0.0
N340 N 0.52064 0.19052 0.0802 0.0
C341 C 0.52091 0.17335 0.06927 0.0
C342 C 0.54131 0.17827 0.06435 0.0
C343 C 0.54101 0.20531 0.08341 0.0
N344 N 0.55392 0.19842 0.073 0.0
C345 C 0.47525 0.16123 0.04301 0.0
C346 C 0.47153 0.18581 0.99446 0.0
C347 C 0.46627 0.16527 0.98616 0.0
C348 C 0.46737 0.15266 0.0115 0.0
C349 C 0.47957 0.19376 0.02622 0.0
N350 N 0.48306 0.18201 0.049 0.0
H351 H 0.47535 0.15113 0.06245 0.0
H352 H 0.48309 0.20943 0.03226 0.0
H353 H 0.50753 0.15804 0.06576 0.0
H354 H 0.54627 0.221 0.09238 0.0
O355 O 0.48515 0.16861 0.11858 0.0
O356 O 0.50717 0.20066 0.13679 0.0
O357 O 0.51166 0.22321 0.07359 0.0
C358 C 0.49565 0.18084 0.14344 0.0
H359 H 0.45117 0.22157 0.13667 0.0
H360 H 0.54647 0.16772 0.05556 0.0
H361 H 0.46973 0.19579 0.97646 0.0
H362 H 0.46295 0.13652 0.00688 0.0
Co363 Co 0.81437 0.31278 0.11899 0.0
C364 C 0.81936 0.27664 0.13394 0.0
C365 C 0.78918 0.27127 0.14937 0.0
C366 C 0.79103 0.25431 0.15887 0.0
N367 N 0.80696 0.28516 0.13379 0.0
N368 N 0.81 0.25777 0.14904 0.0
H369 H 0.83524 0.28449 0.12451 0.0
H370 H 0.77608 0.2736 0.15432 0.0
C371 C 0.77773 0.30538 0.07499 0.0
O372 O 0.79026 0.31894 0.05258 0.0
N373 N 0.82174 0.34077 0.10475 0.0
C374 C 0.84028 0.3562 0.09332 0.0
C375 C 0.83854 0.37354 0.08668 0.0
C376 C 0.80931 0.3493 0.10628 0.0
N377 N 0.81898 0.36913 0.09456 0.0
C378 C 0.84647 0.31723 0.07367 0.0
C379 C 0.82061 0.29299 0.02238 0.0
C380 C 0.84228 0.30467 0.01652 0.0
C381 C 0.85527 0.31593 0.04346 0.0
C382 C 0.81254 0.29428 0.05345 0.0
N383 N 0.8253 0.30784 0.0775 0.0
H384 H 0.85684 0.3262 0.09382 0.0
H385 H 0.79598 0.28453 0.05771 0.0
H386 H 0.85436 0.35536 0.09051 0.0
H387 H 0.79331 0.34091 0.11508 0.0
O388 O 0.83939 0.32417 0.14627 0.0
O389 O 0.80856 0.31908 0.16318 0.0
O390 O 0.78517 0.30108 0.10077 0.0
C391 C 0.82797 0.32515 0.17029 0.0
H392 H 0.77945 0.24063 0.17226 0.0
H393 H 0.85087 0.38834 0.07717 0.0
H394 H 0.80978 0.28349 0.00294 0.0
H395 H 0.87214 0.32415 0.04113 0.0
Co396 Co 0.50859 0.69186 0.88992 0.0
C397 C 0.55173 0.72558 0.87256 0.0
C398 C 0.52835 0.73305 0.85781 0.0
C399 C 0.54739 0.7485 0.84615 0.0
N400 N 0.53108 0.71887 0.87508 0.0
N401 N 0.56209 0.74373 0.85533 0.0
H402 H 0.55897 0.71696 0.88143 0.0
H403 H 0.51336 0.73167 0.85235 0.0
C404 C 0.49722 0.72247 0.9179 0.0
O405 O 0.51609 0.73318 0.93078 0.0
N406 N 0.48596 0.665 0.90359 0.0
C407 C 0.48758 0.64926 0.91755 0.0
C408 C 0.46783 0.63348 0.92602 0.0
C409 C 0.46539 0.65862 0.90335 0.0
N410 N 0.45393 0.63944 0.9171 0.0
C411 C 0.53819 0.69447 0.93965 0.0
C412 C 0.51537 0.69445 0.99464 0.0
C413 C 0.5342 0.6946 -7e-05 0.0
C414 C 0.54562 0.69446 0.97194 0.0
C415 C 0.50846 0.69425 0.96205 0.0
N416 N 0.52025 0.69521 0.9349 0.0
H417 H 0.5463 0.69263 0.91865 0.0
H418 H 0.49309 0.69232 0.95883 0.0
H419 H 0.50214 0.64946 0.92194 0.0
H420 H 0.45902 0.6681 0.89431 0.0
O421 O 0.52218 0.67836 0.86798 0.0
O422 O 0.49926 0.68557 0.84431 0.0
O423 O 0.49155 0.70529 0.90247 0.0
C424 C 0.51164 0.67788 0.84144 0.0
H425 H 0.54998 0.76153 0.83042 0.0
H426 H 0.46401 0.61881 0.93791 0.0
H427 H 0.5055 0.69343 0.01552 0.0
H428 H 0.55989 0.69385 0.97494 0.0
Co429 Co 0.31531 0.81773 0.87273 0.0
C430 C 0.27977 0.82453 0.863 0.0
C431 C 0.27247 0.79395 0.8463 0.0
C432 C 0.25545 0.79643 0.84027 0.0
N433 N 0.28758 0.81157 0.86062 0.0
N434 N 0.2601 0.81567 0.85084 0.0
H435 H 0.28858 0.84032 0.87264 0.0
H436 H 0.27384 0.78041 0.84021 0.0
C437 C 0.30552 0.77972 0.91458 0.0
O438 O 0.31795 0.79167 0.93862 0.0
N439 N 0.34354 0.82388 0.88389 0.0
C440 C 0.36114 0.84285 0.88499 0.0
C441 C 0.37821 0.84023 0.88898 0.0
C442 C 0.35044 0.81006 0.88582 0.0
N443 N 0.37133 0.8196 0.88981 0.0
C444 C 0.32459 0.84678 0.92671 0.0
C445 C 0.29203 0.81998 0.96796 0.0
C446 C 0.30656 0.83994 0.97993 0.0
C447 C 0.32258 0.85365 0.95835 0.0
C448 C 0.2945 0.81386 0.93595 0.0
N449 N 0.31142 0.82673 0.91665 0.0
H450 H 0.3366 0.85773 0.91021 0.0
H451 H 0.28292 0.79861 0.92688 0.0
H452 H 0.3619 0.85769 0.88123 0.0
H453 H 0.34073 0.79338 0.88237 0.0
O454 O 0.32651 0.84401 0.84904 0.0
O455 O 0.32059 0.81389 0.82687 0.0
O456 O 0.30321 0.78782 0.88775 0.0
C457 C 0.32692 0.83367 0.82286 0.0
H458 H 0.24082 0.78497 0.82897 0.0
H459 H 0.39444 0.85247 0.89054 0.0
H460 H 0.2792 0.80889 0.98345 0.0
H461 H 0.33359 0.86954 0.96587 0.0
Co462 Co 0.19256 0.49914 0.89134 0.0
C463 C 0.18192 0.4559 0.87693 0.0
C464 C 0.21371 0.47785 0.86349 0.0
C465 C 0.20948 0.45811 0.85452 0.0
N466 N 0.19642 0.47636 0.87752 0.0
N467 N 0.18948 0.44436 0.86296 0.0
H468 H 0.16596 0.44975 0.88534 0.0
H469 H 0.22818 0.49233 0.85927 0.0
C470 C 0.23086 0.52609 0.93295 0.0
O471 O 0.2192 0.52834 0.95565 0.0
N472 N 0.18906 0.52256 0.90437 0.0
C473 C 0.17209 0.5227 0.9167 0.0
C474 C 0.17688 0.54312 0.92117 0.0
C475 C 0.20357 0.54291 0.9003 0.0
N476 N 0.19676 0.55579 0.91108 0.0
C477 C 0.16143 0.47675 0.94174 0.0
C478 C 0.18754 0.47288 0.98716 0.0
C479 C 0.16687 0.46635 0.9967 0.0
C480 C 0.15354 0.46761 0.97294 0.0
C481 C 0.1947 0.48176 0.95553 0.0
N482 N 0.18217 0.4852 0.93437 0.0
H483 H 0.15077 0.47695 0.92348 0.0
H484 H 0.2104 0.48593 0.9483 0.0
H485 H 0.15705 0.5092 0.92159 0.0
H486 H 0.21883 0.54817 0.88937 0.0
O487 O 0.16651 0.48696 0.86665 0.0
O488 O 0.19774 0.50947 0.84602 0.0
O489 O 0.22248 0.51462 0.90715 0.0
C490 C 0.17775 0.49757 0.84103 0.0
H491 H 0.22023 0.45422 0.84246 0.0
H492 H 0.16656 0.5482 0.93138 0.0
H493 H 0.19835 0.47175 0.00421 0.0
H494 H 0.13716 0.46171 0.97843 0.0
Co495 Co 0.35351 0.83169 0.43121 0.0
C496 C 0.38903 0.87526 0.43654 0.0
C497 C 0.39881 0.8527 0.44325 0.0
C498 C 0.41549 0.87218 0.45013 0.0
N499 N 0.38227 0.8546 0.43379 0.0
N500 N 0.40928 0.88637 0.4461 0.0
H501 H 0.37905 0.88193 0.43424 0.0
H502 H 0.39841 0.83805 0.44749 0.0
C503 C 0.37744 0.81609 0.39169 0.0
O504 O 0.38614 0.83372 0.37472 0.0
N505 N 0.32506 0.80884 0.42985 0.0
C506 C 0.30776 0.81029 0.42504 0.0
C507 C 0.29087 0.79041 0.42161 0.0
C508 C 0.31855 0.78825 0.42951 0.0
N509 N 0.29774 0.7766 0.42419 0.0
C510 C 0.34986 0.8576 0.38064 0.0
C511 C 0.33624 0.82786 0.33038 0.0
C512 C 0.33706 0.84689 0.32426 0.0
C513 C 0.3442 0.86201 0.34956 0.0
C514 C 0.34244 0.82427 0.36149 0.0
N515 N 0.34955 0.83918 0.38609 0.0
H516 H 0.35315 0.86848 0.40076 0.0
H517 H 0.34044 0.80899 0.36626 0.0
H518 H 0.3076 0.8248 0.42273 0.0
H519 H 0.32889 0.78194 0.43242 0.0
O520 O 0.34454 0.848 0.45704 0.0
O521 O 0.35493 0.82683 0.4781 0.0
O522 O 0.36365 0.81264 0.41401 0.0
C523 C 0.34843 0.84003 0.48336 0.0
H524 H 0.43051 0.8754 0.45982 0.0
H525 H 0.27497 0.78651 0.41608 0.0
H526 H 0.33043 0.81568 0.31148 0.0
H527 H 0.34436 0.87663 0.3459 0.0
Co528 Co 0.1579 0.51762 0.44485 0.0
C529 C 0.11408 0.50927 0.44577 0.0
C530 C 0.13645 0.54197 0.44778 0.0
C531 C 0.11692 0.53941 0.45313 0.0
N532 N 0.13474 0.5231 0.44237 0.0
N533 N 0.10291 0.51883 0.45187 0.0
H534 H 0.10749 0.49257 0.44781 0.0
H535 H 0.15103 0.55651 0.45063 0.0
C536 C 0.17427 0.55477 0.39913 0.0
O537 O 0.15699 0.54503 0.38137 0.0
N538 N 0.18103 0.51254 0.4486 0.0
C539 C 0.18008 0.49386 0.44742 0.0
C540 C 0.20019 0.49719 0.44704 0.0
C541 C 0.20154 0.52693 0.44924 0.0
N542 N 0.21364 0.518 0.44792 0.0
C543 C 0.13286 0.48622 0.39528 0.0
C544 C 0.16428 0.50001 0.34771 0.0
C545 C 0.14495 0.48236 0.34079 0.0
C546 C 0.12901 0.47548 0.36479 0.0
C547 C 0.16729 0.5105 0.37802 0.0
N548 N 0.15157 0.50392 0.40118 0.0
H549 H 0.12109 0.47972 0.41448 0.0
H550 H 0.18263 0.5236 0.38325 0.0
H551 H 0.16579 0.47894 0.44548 0.0
H552 H 0.20749 0.5436 0.4499 0.0
O553 O 0.14142 0.49377 0.47374 0.0
O554 O 0.16174 0.52655 0.4907 0.0
O555 O 0.17708 0.54577 0.42432 0.0
C556 C 0.1489 0.50714 0.49843 0.0
H557 H 0.11342 0.55159 0.45953 0.0
H558 H 0.20452 0.48524 0.44462 0.0
H559 H 0.17704 0.50563 0.32984 0.0
H560 H 0.11404 0.46152 0.36051 0.0
Co561 Co 0.47628 0.63925 0.44969 0.0
C562 C 0.48345 0.60295 0.45266 0.0
C563 C 0.45281 0.59515 0.46929 0.0
C564 C 0.45534 0.57815 0.47454 0.0
N565 N 0.4703 0.61063 0.45497 0.0
N566 N 0.47464 0.58312 0.4641 0.0
H567 H 0.49964 0.612 0.44546 0.0
H568 H 0.43945 0.59648 0.47689 0.0
C569 C 0.43556 0.6131 0.41425 0.0
O570 O 0.44372 0.60294 0.39935 0.0
N571 N 0.48205 0.66766 0.44536 0.0
C572 C 0.50087 0.68462 0.43952 0.0
C573 C 0.49811 0.7015 0.43404 0.0
C574 C 0.46813 0.67437 0.4436 0.0
N575 N 0.4775 0.695 0.43647 0.0
C576 C 0.50606 0.64281 0.39958 0.0
C577 C 0.48647 0.64975 0.34616 0.0
C578 C 0.50554 0.65043 0.34063 0.0
C579 C 0.51534 0.64681 0.36781 0.0
C580 C 0.47777 0.64567 0.3782 0.0
N581 N 0.48709 0.64147 0.40433 0.0
H582 H 0.51479 0.64201 0.42062 0.0
H583 H 0.46398 0.64693 0.38208 0.0
H584 H 0.51547 0.68457 0.43817 0.0
H585 H 0.45141 0.66422 0.44598 0.0
O586 O 0.50186 0.64889 0.47525 0.0
O587 O 0.47063 0.63961 0.49659 0.0
O588 O 0.44679 0.62855 0.4335 0.0
C589 C 0.49034 0.64608 0.50168 0.0
H590 H 0.4441 0.56353 0.48615 0.0
H591 H 0.51032 0.71726 0.42819 0.0
H592 H 0.47849 0.65278 0.32601 0.0
H593 H 0.5305 0.64803 0.36491 0.0
H594 H 0.15379 0.07752 0.31662 0.0
H595 H 0.13051 0.09224 0.31973 0.0
H596 H 0.10064 0.06062 0.22766 0.0
H597 H 0.12304 0.04529 0.22515 0.0
H598 H 0.12764 0.11829 0.27904 0.0
H599 H 0.05027 0.04679 0.28176 0.0
H600 H 0.07413 0.04614 0.28825 0.0
H601 H 0.06481 0.04602 0.24634 0.0
C602 C 0.14199 0.07344 0.2974 0.0
C603 C 0.1402 0.06015 0.27076 0.0
C604 C 0.12872 0.08187 0.29917 0.0
C605 C 0.11351 0.07723 0.27429 0.0
C606 C 0.11172 0.0639 0.24779 0.0
H607 H 0.06599 0.15435 0.20053 0.0
H608 H 0.08645 0.13777 0.21558 0.0
C609 C 0.12471 0.05527 0.24625 0.0
C610 C 0.10061 0.08751 0.27422 0.0
H611 H 0.05095 0.07794 0.26061 0.0
C612 C 0.11081 0.10944 0.27561 0.0
C613 C 0.07859 0.07602 0.27049 0.0
C614 C 0.06633 0.05244 0.27203 0.0
C615 C 0.09977 0.1202 0.27158 0.0
C616 C 0.07804 0.10875 0.26471 0.0
C617 C 0.06767 0.0868 0.26515 0.0
C618 C 0.06586 0.11914 0.25598 0.0
C619 C 0.11157 0.14372 0.27484 0.0
C620 C 0.04702 0.11362 0.27267 0.0
C621 C 0.03506 0.12269 0.26343 0.0
C622 C 0.04182 0.13759 0.23754 0.0
C623 C 0.06065 0.14314 0.22088 0.0
C624 C 0.0724 0.13379 0.22969 0.0
H625 H 0.12532 0.14908 0.29167 0.0
H626 H 0.11749 0.1508 0.24979 0.0
H627 H 0.10144 0.14962 0.28482 0.0
H628 H 0.04157 0.1023 0.2929 0.0
H629 H 0.02068 0.11828 0.27683 0.0
H630 H 0.8874 0.91864 0.21661 0.0
H631 H 0.9046 0.95598 0.22882 0.0
H632 H 0.85386 0.94548 0.29463 0.0
H633 H 0.8366 0.90798 0.28291 0.0
H634 H 0.86477 0.97773 0.24797 0.0
H635 H 0.93478 0.98705 0.31493 0.0
H636 H 0.93033 0.97415 0.27506 0.0
H637 H 0.91167 0.96187 0.3084 0.0
C638 C 0.88 0.92415 0.23408 0.0
C639 C 0.8606 0.91023 0.24885 0.0
C640 C 0.88989 0.94553 0.24106 0.0
C641 C 0.88067 0.95342 0.26308 0.0
C642 C 0.86128 0.93965 0.27772 0.0
H643 H 0.91657 0.08391 0.30457 0.0
H644 H 0.89996 0.04585 0.30963 0.0
C645 C 0.85137 0.91825 0.27079 0.0
C646 C 0.89075 0.97618 0.26927 0.0
H647 H 0.93598 0.01846 0.29659 0.0
C648 C 0.88021 0.98664 0.25902 0.0
C649 C 0.91089 0.98769 0.28368 0.0
C650 C 0.92253 0.97711 0.29646 0.0
C651 C 0.88967 0.00846 0.26143 0.0
C652 C 0.91004 0.02004 0.27511 0.0
C653 C 0.92036 0.00952 0.28619 0.0
C654 C 0.92143 0.04318 0.27575 0.0
C655 C 0.87816 0.019 0.24789 0.0
C656 C 0.93958 0.05432 0.25637 0.0
C657 C 0.9492 0.07603 0.25364 0.0
C658 C 0.94083 0.08701 0.27028 0.0
C659 C 0.92331 0.07592 0.29122 0.0
C660 C 0.91372 0.05416 0.29399 0.0
H661 H 0.86467 0.00832 0.23189 0.0
H662 H 0.8721 0.02413 0.26916 0.0
H663 H 0.88881 0.03304 0.2329 0.0
H664 H 0.94585 0.04614 0.24226 0.0
H665 H 0.96276 0.08409 0.23749 0.0
H666 H 0.91748 0.86829 0.20231 0.0
H667 H 0.95549 0.88722 0.20474 0.0
H668 H 0.9532 0.89855 0.31043 0.0
H669 H 0.9148 0.87978 0.30818 0.0
H670 H 0.98234 0.93378 0.27571 0.0
H671 H 0.99191 0.86594 0.24503 0.0
H672 H 0.97607 0.86963 0.21473 0.0
H673 H 0.96709 0.86311 0.25741 0.0
C674 C 0.92496 0.87469 0.2262 0.0
C675 C 0.91306 0.87236 0.25515 0.0
C676 C 0.94674 0.88544 0.22753 0.0
C677 C 0.95715 0.8939 0.25789 0.0
C678 C 0.94542 0.89196 0.2868 0.0
H679 H 0.09118 0.9392 0.27116 0.0
H680 H 0.05345 0.92049 0.2811 0.0
C681 C 0.92351 0.88122 0.28548 0.0
C682 C 0.98032 0.90511 0.25886 0.0
H683 H 0.02227 0.8998 0.23804 0.0
C684 C 0.99112 0.92632 0.26789 0.0
C685 C 0.99174 0.89525 0.24918 0.0
C686 C 0.98111 0.87217 0.24139 0.0
C687 C 0.01305 0.93817 0.26611 0.0
C688 C 0.02437 0.92863 0.25429 0.0
C689 C 0.01358 0.9072 0.24664 0.0
C690 C 0.04735 0.94055 0.24913 0.0
C691 C 0.02383 0.96076 0.27703 0.0
C692 C 0.05646 0.9579 0.22753 0.0
C693 C 0.07805 0.96865 0.22188 0.0
C694 C 0.09088 0.96204 0.23727 0.0
C695 C 0.08168 0.94452 0.25858 0.0
C696 C 0.06014 0.93389 0.26446 0.0
H697 H 0.01403 0.96369 0.29495 0.0
H698 H 0.03913 0.9655 0.28906 0.0
H699 H 0.02662 0.97084 0.25474 0.0
H700 H 0.04684 0.96295 0.21462 0.0
H701 H 0.08466 0.98192 0.20499 0.0
H702 H 0.11224 0.02318 0.75141 0.0
H703 H 0.09441 0.04334 0.74524 0.0
H704 H 0.15372 0.10067 0.74846 0.0
H705 H 0.17173 0.08079 0.75565 0.0
H706 H 0.09872 0.07697 0.79214 0.0
H707 H 0.12279 0.10341 0.6606 0.0
H708 H 0.12271 0.08075 0.67797 0.0
H709 H 0.14312 0.10654 0.68901 0.0
C710 C 0.12155 0.04006 0.75119 0.0
C711 C 0.14349 0.0503 0.75412 0.0
C712 C 0.1113 0.05154 0.74739 0.0
C713 C 0.1228 0.07342 0.74601 0.0
C714 C 0.14464 0.08374 0.74894 0.0
H715 H 0.09551 0.17371 0.72758 0.0
H716 H 0.11118 0.15133 0.72777 0.0
C717 C 0.1549 0.07231 0.75299 0.0
C718 C 0.11194 0.08556 0.74263 0.0
H719 H 0.10511 0.11798 0.68966 0.0
C720 C 0.09995 0.08584 0.7697 0.0
C721 C 0.11378 0.09715 0.71336 0.0
C722 C 0.12616 0.09693 0.68339 0.0
C723 C 0.09012 0.0979 0.76863 0.0
C724 C 0.09186 0.10948 0.73926 0.0
C725 C 0.10374 0.10903 0.71207 0.0
C726 C 0.082 0.12267 0.73675 0.0
C727 C 0.07857 0.09867 0.7994 0.0
C728 C 0.06031 0.11389 0.74068 0.0
C729 C 0.05133 0.12665 0.74086 0.0
C730 C 0.06386 0.1484 0.73658 0.0
C731 C 0.08543 0.15702 0.73096 0.0
C732 C 0.09442 0.14426 0.7311 0.0
H733 H 0.08347 0.09366 0.82231 0.0
H734 H 0.0812 0.11468 0.80359 0.0
H735 H 0.06155 0.08791 0.7959 0.0
H736 H 0.05036 0.09719 0.74414 0.0
H737 H 0.03463 0.1195 0.74486 0.0
H738 H 0.9384 0.09401 0.69536 0.0
H739 H 0.91837 0.05608 0.688 0.0
H740 H 0.95688 0.04883 0.76203 0.0
H741 H 0.97644 0.08658 0.77056 0.0
H742 H 0.93124 0.0277 0.66884 0.0
H743 H 0.89763 0.01104 0.79728 0.0
H744 H 0.91041 0.03697 0.77941 0.0
H745 H 0.92567 0.02635 0.7966 0.0
C746 C 0.94249 0.08437 0.71039 0.0
C747 C 0.95894 0.09342 0.73383 0.0
C748 C 0.93113 0.0627 0.7059 0.0
C749 C 0.93595 0.04966 0.72483 0.0
C750 C 0.95267 0.05862 0.74759 0.0
H751 H 0.8878 0.91772 0.74725 0.0
H752 H 0.90941 0.9557 0.74479 0.0
C753 C 0.96399 0.08026 0.75218 0.0
C754 C 0.92336 0.02666 0.72115 0.0
H755 H 0.89277 0.98185 0.76512 0.0
C756 C 0.92271 0.01765 0.68979 0.0
C757 C 0.91215 0.01364 0.7485 0.0
C758 C 0.91128 0.02247 0.78227 0.0
C759 C 0.91161 0.99584 0.68536 0.0
C760 C 0.90082 0.98287 0.71294 0.0
C761 C 0.90123 0.9919 0.74411 0.0
C762 C 0.88906 0.9598 0.71043 0.0
C763 C 0.91189 0.98679 0.65156 0.0
C764 C 0.87065 0.94952 0.69136 0.0
C765 C 0.85817 0.92772 0.69272 0.0
C766 C 0.86389 0.91594 0.71336 0.0
C767 C 0.88285 0.9263 0.73123 0.0
C768 C 0.89525 0.94802 0.72986 0.0
H769 H 0.92412 0.9986 0.63479 0.0
H770 H 0.91462 0.97338 0.65445 0.0
H771 H 0.89646 0.98092 0.63926 0.0
H772 H 0.86549 0.9584 0.67656 0.0
H773 H 0.84365 0.92023 0.67873 0.0
H774 H 0.08989 0.96587 0.69092 0.0
H775 H 0.05151 0.9461 0.69006 0.0
H776 H 0.05076 0.93392 0.79611 0.0
H777 H 0.08881 0.95306 0.79706 0.0
H778 H 0.02479 0.899 0.76163 0.0
H779 H 0.01125 0.96398 0.72566 0.0
H780 H 0.02744 0.95956 0.69701 0.0
H781 H 0.03649 0.96834 0.73899 0.0
C782 C 0.08151 0.95904 0.71404 0.0
C783 C 0.0924 0.96103 0.74403 0.0
C784 C 0.0596 0.94785 0.71355 0.0
C785 C 0.04828 0.93876 0.74312 0.0
C786 C 0.05917 0.94081 0.77301 0.0
H787 H 0.91885 0.89423 0.79142 0.0
H788 H 0.95696 0.91353 0.78539 0.0
C789 C 0.08096 0.95178 0.77347 0.0
C790 C 0.0251 0.92658 0.74324 0.0
H791 H 0.98136 0.93027 0.72995 0.0
C792 C 0.01527 0.90581 0.75462 0.0
C793 C 0.01277 0.9356 0.73446 0.0
C794 C 0.02247 0.95815 0.72363 0.0
C795 C 0.99346 0.89385 0.75782 0.0
C796 C 0.98109 0.90273 0.74851 0.0
C797 C 0.99089 0.92346 0.73686 0.0
C798 C 0.95799 0.89102 0.75177 0.0
C799 C 0.98396 0.87207 0.77225 0.0
C800 C 0.94592 0.87208 0.73465 0.0
C801 C 0.92418 0.86096 0.7383 0.0
C802 C 0.91408 0.86876 0.75872 0.0
C803 C 0.92618 0.8879 0.7754 0.0
C804 C 0.94794 0.89892 0.77199 0.0
H805 H 0.99567 0.86982 0.78638 0.0
H806 H 0.97073 0.86868 0.7893 0.0
H807 H 0.97794 0.86052 0.75147 0.0
H808 H 0.95329 0.86596 0.71826 0.0
H809 H 0.91524 0.84649 0.72457 0.0
H810 H 0.69209 0.44368 0.55593 0.0
H811 H 0.71248 0.42691 0.56939 0.0
H812 H 0.7497 0.47647 0.63901 0.0
H813 H 0.72914 0.49323 0.62623 0.0
H814 H 0.77289 0.46686 0.5922 0.0
H815 H 0.71157 0.39583 0.65648 0.0
H816 H 0.7039 0.40095 0.61639 0.0
H817 H 0.70947 0.41896 0.65043 0.0
C818 C 0.70437 0.4509 0.57449 0.0
C819 C 0.70889 0.46983 0.59002 0.0
C820 C 0.71601 0.44126 0.58216 0.0
C821 C 0.73236 0.4503 0.60556 0.0
C822 C 0.73704 0.46921 0.621 0.0
H823 H 0.82803 0.41661 0.65233 0.0
H824 H 0.80617 0.43287 0.65558 0.0
C825 C 0.72536 0.47884 0.61344 0.0
C826 C 0.74525 0.44054 0.61252 0.0
H827 H 0.74265 0.39564 0.6407 0.0
C828 C 0.7664 0.4514 0.6032 0.0
C829 C 0.73665 0.42038 0.62683 0.0
C830 C 0.71419 0.40838 0.63842 0.0
C831 C 0.77902 0.44227 0.60646 0.0
C832 C 0.77032 0.42191 0.62017 0.0
C833 C 0.74928 0.41127 0.6303 0.0
C834 C 0.78239 0.41084 0.6218 0.0
C835 C 0.80126 0.4541 0.59373 0.0
C836 C 0.7757 0.39248 0.60314 0.0
C837 C 0.788 0.38303 0.60151 0.0
C838 C 0.80726 0.39181 0.61853 0.0
C839 C 0.81338 0.40957 0.63869 0.0
C840 C 0.80098 0.41897 0.64041 0.0
H841 H 0.804 0.46738 0.57725 0.0
H842 H 0.81211 0.46053 0.61539 0.0
H843 H 0.80522 0.44361 0.57949 0.0
H844 H 0.76133 0.38588 0.58876 0.0
H845 H 0.78272 0.36928 0.58592 0.0
H846 H 0.63442 0.41622 0.56473 0.0
H847 H 0.62102 0.37855 0.56292 0.0
H848 H 0.56169 0.36728 0.60153 0.0
H849 H 0.57498 0.405 0.60376 0.0
H850 H 0.57654 0.34141 0.63019 0.0
H851 H 0.57796 0.34181 0.49062 0.0
H852 H 0.60235 0.35966 0.51045 0.0
H853 H 0.58029 0.36352 0.51491 0.0
C854 C 0.61858 0.40577 0.57317 0.0
C855 C 0.60569 0.41362 0.58408 0.0
C856 C 0.61094 0.38425 0.57198 0.0
C857 C 0.59027 0.37018 0.58152 0.0
C858 C 0.57767 0.37793 0.5939 0.0
H859 H 0.51087 0.24112 0.52743 0.0
H860 H 0.52783 0.27884 0.5362 0.0
C861 C 0.58529 0.39948 0.59513 0.0
C862 C 0.58147 0.34739 0.57714 0.0
H863 H 0.5683 0.3097 0.51736 0.0
C864 C 0.57478 0.33444 0.60557 0.0
C865 C 0.57899 0.33839 0.54492 0.0
C866 C 0.58509 0.35149 0.5134 0.0
C867 C 0.56572 0.31264 0.60262 0.0
C868 C 0.56352 0.30369 0.57042 0.0
C869 C 0.57018 0.31666 0.54202 0.0
C870 C 0.55345 0.2808 0.56541 0.0
C871 C 0.55807 0.29933 0.63384 0.0
C872 C 0.5624 0.26944 0.57857 0.0
C873 C 0.55268 0.24781 0.57372 0.0
C874 C 0.53385 0.23718 0.55554 0.0
C875 C 0.52515 0.24872 0.54198 0.0
C876 C 0.53489 0.27031 0.5468 0.0
H877 H 0.55678 0.30811 0.6555 0.0
H878 H 0.54257 0.28522 0.62943 0.0
H879 H 0.56927 0.29406 0.64066 0.0
H880 H 0.57692 0.27731 0.59255 0.0
H881 H 0.5597 0.23937 0.5847 0.0
H882 H 0.58865 0.18875 0.55017 0.0
H883 H 0.62612 0.20825 0.55967 0.0
H884 H 0.61626 0.22774 0.65676 0.0
H885 H 0.57829 0.20843 0.6471 0.0
H886 H 0.64699 0.26009 0.6215 0.0
H887 H 0.6611 0.19344 0.61864 0.0
H888 H 0.64703 0.19344 0.58199 0.0
H889 H 0.63519 0.18997 0.62283 0.0
C890 C 0.59431 0.19699 0.57375 0.0
C891 C 0.58041 0.1969 0.59801 0.0
C892 C 0.61581 0.20804 0.57921 0.0
C893 C 0.62398 0.21903 0.60924 0.0
C894 C 0.61024 0.21915 0.63355 0.0
H895 H 0.75939 0.27215 0.63139 0.0
H896 H 0.72181 0.25271 0.6432 0.0
C897 C 0.58858 0.20812 0.62801 0.0
C898 C 0.64696 0.23118 0.61394 0.0
H899 H 0.69084 0.22726 0.6051 0.0
C900 C 0.65661 0.25289 0.61855 0.0
C901 C 0.65951 0.22174 0.61085 0.0
C902 C 0.65014 0.19833 0.60869 0.0
C903 C 0.67848 0.26557 0.61799 0.0
C904 C 0.69095 0.25631 0.6117 0.0
C905 C 0.68131 0.23445 0.60927 0.0
C906 C 0.71385 0.26893 0.60593 0.0
C907 C 0.68794 0.28874 0.62392 0.0
C908 C 0.72188 0.28436 0.58082 0.0
C909 C 0.74334 0.29556 0.57424 0.0
C910 C 0.75713 0.29124 0.59212 0.0
C911 C 0.74908 0.27564 0.61697 0.0
C912 C 0.72765 0.26463 0.62387 0.0
H913 H 0.67758 0.29206 0.63986 0.0
H914 H 0.70349 0.29551 0.63618 0.0
H915 H 0.68983 0.29673 0.5995 0.0
H916 H 0.71152 0.28748 0.56582 0.0
H917 H 0.74912 0.3073 0.55466 0.0
H918 H 0.83194 0.40148 0.05076 0.0
H919 H 0.81605 0.42312 0.04107 0.0
H920 H 0.76915 0.38813 0.11583 0.0
H921 H 0.78516 0.36661 0.1263 0.0
H922 H 0.75396 0.39427 0.05101 0.0
H923 H 0.81744 0.4679 0.10687 0.0
H924 H 0.82533 0.45506 0.07668 0.0
H925 H 0.81445 0.4426 0.11613 0.0
C926 C 0.81847 0.39854 0.06561 0.0
C927 C 0.80993 0.38231 0.08949 0.0
C928 C 0.80936 0.4109 0.05988 0.0
C929 C 0.79155 0.40729 0.07792 0.0
C930 C 0.78291 0.39112 0.10166 0.0
H931 H 0.70916 0.45699 0.09352 0.0
H932 H 0.72519 0.43512 0.09168 0.0
C933 C 0.79205 0.37879 0.10751 0.0
C934 C 0.78177 0.42022 0.07175 0.0
H935 H 0.78936 0.46942 0.08174 0.0
C936 C 0.76168 0.41072 0.05763 0.0
C937 C 0.79201 0.44168 0.08015 0.0
C938 C 0.81345 0.45248 0.09602 0.0
C939 C 0.75146 0.42214 0.0518 0.0
C940 C 0.76147 0.44349 0.06107 0.0
C941 C 0.78175 0.45307 0.07456 0.0
C942 C 0.75072 0.45587 0.05918 0.0
C943 C 0.73014 0.41127 0.03556 0.0
C944 C 0.75982 0.47494 0.0417 0.0
C945 C 0.75078 0.48765 0.04296 0.0
C946 C 0.73255 0.48156 0.06192 0.0
C947 C 0.72315 0.46215 0.07855 0.0
C948 C 0.73222 0.44951 0.07735 0.0
H949 H 0.72782 0.39768 0.02027 0.0
H950 H 0.71796 0.40532 0.0554 0.0
H951 H 0.72781 0.42212 0.01923 0.0
H952 H 0.77418 0.48018 0.02769 0.0
H953 H 0.75843 0.50252 0.02993 0.0
H954 H 0.60595 0.43134 0.05946 0.0
H955 H 0.58625 0.39385 0.0481 0.0
H956 H 0.63402 0.38615 0.09719 0.0
H957 H 0.65344 0.42347 0.10993 0.0
H958 H 0.59732 0.3683 0.01236 0.0
H959 H 0.58071 0.34439 0.14613 0.0
H960 H 0.59065 0.37104 0.13265 0.0
H961 H 0.608 0.36066 0.13659 0.0
C962 C 0.61218 0.4217 0.06829 0.0
C963 C 0.63123 0.43049 0.08597 0.0
C964 C 0.60098 0.40028 0.06143 0.0
C965 C 0.60855 0.38721 0.07214 0.0
C966 C 0.62774 0.39593 0.08915 0.0
H967 H 0.5605 0.2565 0.01557 0.0
H968 H 0.58136 0.29479 0.01817 0.0
C969 C 0.63892 0.41733 0.09615 0.0
C970 C 0.59615 0.36439 0.06604 0.0
H971 H 0.57077 0.31735 0.10622 0.0
C972 C 0.59148 0.35711 0.03283 0.0
C973 C 0.5884 0.34991 0.09284 0.0
C974 C 0.592 0.35684 0.12907 0.0
C975 C 0.57928 0.33565 0.0257 0.0
C976 C 0.57185 0.32117 0.05252 0.0
C977 C 0.57657 0.3285 0.08569 0.0
C978 C 0.55852 0.29835 0.04721 0.0
C979 C 0.57402 0.32871 0.98967 0.0
C980 C 0.53876 0.28769 0.06247 0.0
C981 C 0.527 0.26594 0.06134 0.0
C982 C 0.53472 0.25437 0.04481 0.0
C983 C 0.55408 0.26505 0.02818 0.0
C984 C 0.56598 0.28691 0.0296 0.0
H985 H 0.57648 0.34182 0.97299 0.0
H986 H 0.58428 0.32272 0.98076 0.0
H987 H 0.55752 0.31592 0.98728 0.0
H988 H 0.53269 0.29622 0.07613 0.0
H989 H 0.51207 0.25814 0.0742 0.0
H990 H 0.74807 0.27887 0.11905 0.0
H991 H 0.71024 0.26169 0.11354 0.0
H992 H 0.71697 0.29044 0.01665 0.0
H993 H 0.7552 0.30819 0.02221 0.0
H994 H 0.68731 0.29247 0.05695 0.0
H995 H 0.67395 0.21175 0.05428 0.0
H996 H 0.68893 0.22615 0.09012 0.0
H997 H 0.69954 0.23442 0.04861 0.0
C998 C 0.74161 0.28152 0.09641 0.0
C999 C 0.75472 0.29479 0.0709 0.0
C1000 C 0.71992 0.27158 0.09327 0.0
C1001 C 0.71078 0.27444 0.06441 0.0
C1002 C 0.72374 0.28789 0.03902 0.0
H1003 H 0.57767 0.19289 0.02706 0.0
H1004 H 0.61574 0.21255 0.02211 0.0
C1005 C 0.74556 0.29797 0.0422 0.0
C1006 C 0.68767 0.26359 0.06138 0.0
H1007 H 0.64404 0.21527 0.06583 0.0
C1008 C 0.67782 0.27558 0.0585 0.0
C1009 C 0.67533 0.24153 0.06291 0.0
C1010 C 0.68498 0.2277 0.0638 0.0
C1011 C 0.65589 0.26612 0.05834 0.0
C1012 C 0.64357 0.24414 0.06188 0.0
C1013 C 0.65347 0.23214 0.06357 0.0
C1014 C 0.62038 0.23312 0.06396 0.0
C1015 C 0.64619 0.27976 0.05413 0.0
C1016 C 0.61028 0.23807 0.08923 0.0
C1017 C 0.58845 0.22687 0.09203 0.0
C1018 C 0.57637 0.21027 0.06998 0.0
C1019 C 0.58655 0.20537 0.04474 0.0
C1020 C 0.6083 0.21668 0.04176 0.0
H1021 H 0.65711 0.29477 0.04157 0.0
H1022 H 0.63152 0.2717 0.03925 0.0
H1023 H 0.6424 0.2835 0.07923 0.0
H1024 H 0.61928 0.25031 0.10724 0.0
H1025 H 0.58107 0.23084 0.11194 0.0
H1026 H 0.40785 0.83016 0.85907 0.0
H1027 H 0.42843 0.81259 0.8648 0.0
H1028 H 0.38374 0.77002 0.93698 0.0
H1029 H 0.36257 0.78678 0.92942 0.0
H1030 H 0.44844 0.80842 0.91334 0.0
H1031 H 0.38662 0.72867 0.87839 0.0
H1032 H 0.38319 0.75104 0.87373 0.0
H1033 H 0.37885 0.73813 0.9138 0.0
C1034 C 0.40245 0.81695 0.87591 0.0
C1035 C 0.38362 0.80961 0.89356 0.0
C1036 C 0.41417 0.80692 0.87924 0.0
C1037 C 0.40743 0.78963 0.90079 0.0
C1038 C 0.3889 0.78277 0.91925 0.0
H1039 H 0.49524 0.74878 0.96415 0.0
H1040 H 0.47286 0.76453 0.96229 0.0
C1041 C 0.3769 0.79243 0.91518 0.0
C1042 C 0.4201 0.77918 0.90448 0.0
H1043 H 0.4172 0.73157 0.90373 0.0
C1044 C 0.44162 0.79162 0.91097 0.0
C1045 C 0.41133 0.75728 0.90093 0.0
C1046 C 0.38879 0.74306 0.89096 0.0
C1047 C 0.45459 0.78284 0.91393 0.0
C1048 C 0.44561 0.76083 0.91206 0.0
C1049 C 0.42408 0.7484 0.90565 0.0
C1050 C 0.45835 0.7504 0.91478 0.0
C1051 C 0.47784 0.7974 0.91775 0.0
C1052 C 0.45681 0.73627 0.88981 0.0
C1053 C 0.46897 0.72669 0.89154 0.0
C1054 C 0.48322 0.73133 0.91797 0.0
C1055 C 0.48454 0.74515 0.94331 0.0
C1056 C 0.47192 0.75431 0.94206 0.0
H1057 H 0.48267 0.8133 0.90813 0.0
H1058 H 0.48202 0.79893 0.94476 0.0
H1059 H 0.48693 0.79141 0.90419 0.0
H1060 H 0.44645 0.73291 0.86855 0.0
H1061 H 0.46771 0.71616 0.87155 0.0
H1062 H 0.2776 0.75112 0.87063 0.0
H1063 H 0.26045 0.71316 0.87377 0.0
H1064 H 0.29199 0.71776 0.96718 0.0
H1065 H 0.30921 0.75604 0.96447 0.0
H1066 H 0.27974 0.68878 0.87591 0.0
H1067 H 0.22986 0.67615 0.98809 0.0
H1068 H 0.24229 0.70051 0.96517 0.0
H1069 H 0.25734 0.69423 0.99333 0.0
C1070 C 0.28087 0.74415 0.892 0.0
C1071 C 0.29477 0.75665 0.91737 0.0
C1072 C 0.27105 0.72241 0.89369 0.0
C1073 C 0.27482 0.71266 0.9208 0.0
C1074 C 0.28863 0.725 0.94629 0.0
H1075 H 0.23878 0.58033 0.91774 0.0
H1076 H 0.25868 0.6185 0.92113 0.0
C1077 C 0.2985 0.74685 0.94464 0.0
C1078 C 0.26454 0.68955 0.92158 0.0
H1079 H 0.22832 0.64623 0.96382 0.0
C1080 C 0.26859 0.67945 0.89522 0.0
C1081 C 0.24985 0.67749 0.94663 0.0
C1082 C 0.24438 0.68756 0.97482 0.0
C1083 C 0.25817 0.65756 0.89303 0.0
C1084 C 0.24356 0.64548 0.91817 0.0
C1085 C 0.23963 0.65557 0.9447 0.0
C1086 C 0.23158 0.62234 0.91663 0.0
C1087 C 0.2624 0.64757 0.86325 0.0
C1088 C 0.20972 0.61185 0.91362 0.0
C1089 C 0.1983 0.59004 0.91162 0.0
C1090 C 0.20854 0.57831 0.9127 0.0
C1091 C 0.23045 0.5889 0.91608 0.0
C1092 C 0.24185 0.61071 0.91814 0.0
H1093 H 0.2703 0.65893 0.84254 0.0
H1094 H 0.27275 0.64145 0.87113 0.0
H1095 H 0.24764 0.63427 0.8535 0.0
H1096 H 0.20151 0.62057 0.91241 0.0
H1097 H 0.18148 0.5824 0.9088 0.0
H1098 H 0.25907 0.5254 0.88956 0.0
H1099 H 0.29704 0.54445 0.89379 0.0
H1100 H 0.29316 0.57088 0.98823 0.0
H1101 H 0.25488 0.55206 0.98393 0.0
H1102 H 0.322 0.60028 0.94556 0.0
H1103 H 0.33423 0.53235 0.95323 0.0
H1104 H 0.31863 0.53073 0.91761 0.0
H1105 H 0.30891 0.53002 0.95934 0.0
C1106 C 0.2662 0.5351 0.91144 0.0
C1107 C 0.25389 0.5371 0.93653 0.0
C1108 C 0.28795 0.54589 0.91389 0.0
C1109 C 0.29791 0.55875 0.94164 0.0
C1110 C 0.28574 0.56087 0.96675 0.0
H1111 H 0.4329 0.61203 0.96719 0.0
H1112 H 0.39507 0.59316 0.9766 0.0
C1113 C 0.26389 0.55009 0.96427 0.0
C1114 C 0.32107 0.57067 0.94331 0.0
H1115 H 0.36414 0.56508 0.93739 0.0
C1116 C 0.33124 0.59259 0.94423 0.0
C1117 C 0.33311 0.56062 0.94212 0.0
C1118 C 0.32316 0.53713 0.94338 0.0
C1119 C 0.35313 0.60476 0.94246 0.0
C1120 C 0.36509 0.59471 0.93895 0.0
C1121 C 0.35495 0.57278 0.93958 0.0
C1122 C 0.38805 0.60658 0.93372 0.0
C1123 C 0.3632 0.62825 0.94438 0.0
C1124 C 0.39664 0.62016 0.90622 0.0
C1125 C 0.41824 0.63097 0.90082 0.0
C1126 C 0.43165 0.62818 0.92255 0.0
C1127 C 0.42298 0.61435 0.94981 0.0
C1128 C 0.40138 0.60365 0.95533 0.0
H1129 H 0.35295 0.63301 0.95752 0.0
H1130 H 0.37847 0.63529 0.95762 0.0
H1131 H 0.36593 0.63475 0.91858 0.0
H1132 H 0.38661 0.62219 0.88863 0.0
H1133 H 0.42441 0.64122 0.87929 0.0
H1134 H 0.49149 0.72907 0.39629 0.0
H1135 H 0.47402 0.74905 0.38441 0.0
H1136 H 0.42293 0.70818 0.44916 0.0
H1137 H 0.44036 0.68812 0.4613 0.0
H1138 H 0.41007 0.71588 0.38701 0.0
H1139 H 0.46895 0.78978 0.44806 0.0
H1140 H 0.47952 0.77983 0.41726 0.0
H1141 H 0.46806 0.76519 0.45503 0.0
C1142 C 0.4767 0.72449 0.40841 0.0
C1143 C 0.46741 0.70706 0.42997 0.0
C1144 C 0.46671 0.73591 0.40152 0.0
C1145 C 0.44733 0.73026 0.41626 0.0
C1146 C 0.43791 0.71281 0.43757 0.0
H1147 H 0.36213 0.77783 0.42136 0.0
H1148 H 0.37851 0.7562 0.42339 0.0
C1149 C 0.44787 0.70134 0.44442 0.0
C1150 C 0.43676 0.74241 0.40916 0.0
H1151 H 0.44208 0.79085 0.4174 0.0
C1152 C 0.41703 0.73227 0.39366 0.0
C1153 C 0.44593 0.7638 0.41779 0.0
C1154 C 0.46669 0.77529 0.43572 0.0
C1155 C 0.40628 0.743 0.38636 0.0
C1156 C 0.41539 0.76434 0.39523 0.0
C1157 C 0.4352 0.77452 0.41041 0.0
C1158 C 0.40427 0.77622 0.39071 0.0
C1159 C 0.38536 0.73148 0.36893 0.0
C1160 C 0.4133 0.79465 0.37158 0.0
C1161 C 0.40401 0.80716 0.37047 0.0
C1162 C 0.38565 0.80152 0.38878 0.0
C1163 C 0.37627 0.78264 0.40694 0.0
C1164 C 0.38554 0.77016 0.40798 0.0
H1165 H 0.38343 0.71747 0.35536 0.0
H1166 H 0.37272 0.72614 0.38793 0.0
H1167 H 0.3834 0.7418 0.35081 0.0
H1168 H 0.42782 0.79964 0.35821 0.0
H1169 H 0.41167 0.82161 0.35633 0.0
H1170 H 0.25624 0.75131 0.43536 0.0
H1171 H 0.23578 0.7135 0.4263 0.0
H1172 H 0.29136 0.71338 0.39325 0.0
H1173 H 0.31181 0.75122 0.40129 0.0
H1174 H 0.25545 0.68963 0.35194 0.0
H1175 H 0.23912 0.67006 0.48735 0.0
H1176 H 0.23213 0.68863 0.47197 0.0
H1177 H 0.25915 0.69544 0.4729 0.0
C1178 C 0.26409 0.74327 0.42597 0.0
C1179 C 0.2857 0.75428 0.41934 0.0
C1180 C 0.25241 0.72166 0.42104 0.0
C1181 C 0.26214 0.71067 0.40949 0.0
C1182 C 0.28361 0.72161 0.40235 0.0
H1183 H 0.21334 0.57792 0.42558 0.0
H1184 H 0.23566 0.61585 0.42415 0.0
C1185 C 0.29531 0.7432 0.4073 0.0
C1186 C 0.24999 0.6877 0.40527 0.0
H1187 H 0.22193 0.64219 0.4488 0.0
C1188 C 0.24812 0.67921 0.37306 0.0
C1189 C 0.24069 0.67422 0.43298 0.0
C1190 C 0.24297 0.68247 0.46832 0.0
C1191 C 0.23692 0.65748 0.36779 0.0
C1192 C 0.22726 0.64405 0.39543 0.0
C1193 C 0.22931 0.65257 0.42763 0.0
C1194 C 0.2151 0.62102 0.39194 0.0
C1195 C 0.23579 0.64906 0.33289 0.0
C1196 C 0.19636 0.61133 0.37357 0.0
C1197 C 0.18353 0.58956 0.37424 0.0
C1198 C 0.18918 0.57723 0.39361 0.0
C1199 C 0.20845 0.58697 0.41063 0.0
C1200 C 0.22124 0.60865 0.40985 0.0
H1201 H 0.24797 0.66096 0.31613 0.0
H1202 H 0.23765 0.63504 0.33354 0.0
H1203 H 0.22025 0.64437 0.32188 0.0
H1204 H 0.19119 0.62063 0.35999 0.0
H1205 H 0.16874 0.58253 0.361 0.0
H1206 H 0.40553 0.57731 0.38388 0.0
H1207 H 0.36759 0.56249 0.38669 0.0
H1208 H 0.37621 0.61623 0.44266 0.0
H1209 H 0.41408 0.63108 0.44034 0.0
H1210 H 0.34899 0.57836 0.47315 0.0
H1211 H 0.32815 0.57841 0.33927 0.0
H1212 H 0.34375 0.56642 0.3471 0.0
H1213 H 0.35458 0.59392 0.35471 0.0
C1214 C 0.39938 0.58616 0.39626 0.0
C1215 C 0.41284 0.60535 0.41197 0.0
C1216 C 0.37769 0.57769 0.39774 0.0
C1217 C 0.36912 0.58834 0.41469 0.0
C1218 C 0.38253 0.60779 0.42943 0.0
H1219 H 0.23893 0.55634 0.42096 0.0
H1220 H 0.27684 0.57372 0.41394 0.0
C1221 C 0.40418 0.61625 0.42802 0.0
C1222 C 0.34621 0.57853 0.41934 0.0
H1223 H 0.29995 0.55938 0.37722 0.0
C1224 C 0.33826 0.57428 0.45219 0.0
C1225 C 0.33231 0.5734 0.39196 0.0
C1226 C 0.34009 0.57842 0.35626 0.0
C1227 C 0.31671 0.56475 0.45841 0.0
C1228 C 0.30276 0.55906 0.43099 0.0
C1229 C 0.31071 0.5636 0.39815 0.0
C1230 C 0.27984 0.54856 0.43593 0.0
C1231 C 0.30908 0.56111 0.49426 0.0
C1232 C 0.26897 0.52862 0.45054 0.0
C1233 C 0.24729 0.51869 0.45484 0.0
C1234 C 0.23608 0.5285 0.4445 0.0
C1235 C 0.24708 0.54849 0.42979 0.0
C1236 C 0.26873 0.55838 0.42546 0.0
H1237 H 0.32183 0.57089 0.51213 0.0
H1238 H 0.29617 0.56457 0.49755 0.0
H1239 H 0.30303 0.54446 0.50085 0.0
H1240 H 0.27723 0.52067 0.45836 0.0
H1241 H 0.23932 0.50337 0.46636 0.0
H1242 H 0.41714 0.14849 0.12908 0.0
H1243 H 0.38012 0.12958 0.14408 0.0
H1244 H 0.37892 0.18738 0.14272 0.0
H1245 H 0.41563 0.20627 0.12618 0.0
H1246 H 0.36178 0.13446 0.19997 0.0
H1247 H 0.3283 0.14992 0.08633 0.0
H1248 H 0.35482 0.15481 0.08784 0.0
H1249 H 0.34843 0.17335 0.1056 0.0
C1250 C 0.40896 0.15717 0.13124 0.0
C1251 C 0.41945 0.17896 0.12626 0.0
C1252 C 0.3878 0.14633 0.1401 0.0
C1253 C 0.37669 0.15702 0.14407 0.0
C1254 C 0.38707 0.17873 0.13912 0.0
H1255 H 0.25306 0.12371 0.21593 0.0
H1256 H 0.2899 0.14187 0.19917 0.0
C1257 C 0.40817 0.18957 0.13008 0.0
C1258 C 0.35451 0.14562 0.15485 0.0
H1259 H 0.30555 0.13567 0.1335 0.0
C1260 C 0.34946 0.13459 0.18532 0.0
C1261 C 0.33847 0.14583 0.13567 0.0
C1262 C 0.34271 0.15644 0.10189 0.0
C1263 C 0.32885 0.12408 0.19745 0.0
C1264 C 0.31293 0.12457 0.17851 0.0
C1265 C 0.3179 0.1355 0.14801 0.0
C1266 C 0.29089 0.11355 0.1897 0.0
C1267 C 0.32424 0.11282 0.23067 0.0
C1268 C 0.27934 0.09165 0.18977 0.0
C1269 C 0.25826 0.08122 0.19897 0.0
C1270 C 0.24832 0.09252 0.20833 0.0
C1271 C 0.26011 0.11451 0.20854 0.0
C1272 C 0.28117 0.12492 0.19913 0.0
H1273 H 0.33874 0.11716 0.24507 0.0
H1274 H 0.31385 0.11632 0.24617 0.0
H1275 H 0.31599 0.0957 0.22615 0.0
H1276 H 0.28654 0.08263 0.18205 0.0
H1277 H 0.24969 0.06433 0.19777 0.0
H1278 H 0.83698 0.2533 0.10902 0.0
H1279 H 0.85378 0.23258 0.12053 0.0
H1280 H 0.82104 0.21294 0.21509 0.0
H1281 H 0.80388 0.23331 0.20326 0.0
H1282 H 0.87973 0.23703 0.17058 0.0
H1283 H 0.80976 0.15779 0.1767 0.0
H1284 H 0.80873 0.1801 0.16057 0.0
H1285 H 0.80852 0.17599 0.20513 0.0
C1286 C 0.83331 0.24446 0.13215 0.0
C1287 C 0.8191 0.24483 0.1552 0.0
C1288 C 0.84286 0.23261 0.13868 0.0
C1289 C 0.83845 0.22099 0.16846 0.0
C1290 C 0.82425 0.22133 0.19156 0.0
H1291 H 0.9204 0.17747 0.24721 0.0
H1292 H 0.90071 0.19573 0.23871 0.0
C1293 C 0.8145 0.233 0.18483 0.0
C1294 C 0.8495 0.20934 0.17589 0.0
H1295 H 0.84193 0.16094 0.19475 0.0
C1296 C 0.87147 0.22038 0.17577 0.0
C1297 C 0.83869 0.18757 0.1823 0.0
C1298 C 0.81513 0.17461 0.18088 0.0
C1299 C 0.88294 0.21028 0.18193 0.0
C1300 C 0.87214 0.18865 0.1894 0.0
C1301 C 0.85017 0.17757 0.18941 0.0
C1302 C 0.88333 0.17704 0.1959 0.0
C1303 C 0.9065 0.22279 0.17942 0.0
C1304 C 0.8795 0.15999 0.17552 0.0
C1305 C 0.8905 0.14939 0.18064 0.0
C1306 C 0.90559 0.15571 0.20618 0.0
C1307 C 0.90909 0.17251 0.22703 0.0
C1308 C 0.89791 0.18296 0.22213 0.0
H1309 H 0.91184 0.23736 0.16464 0.0
H1310 H 0.91323 0.22733 0.20499 0.0
H1311 H 0.91282 0.21349 0.16756 0.0
H1312 H 0.86829 0.15514 0.15517 0.0
H1313 H 0.88762 0.13665 0.16398 0.0
H1314 H 0.74879 0.59252 0.0836 0.0
H1315 H 0.76746 0.63038 0.09253 0.0
H1316 H 0.80238 0.62346 0.17334 0.0
H1317 H 0.78343 0.58559 0.16519 0.0
H1318 H 0.78417 0.64796 0.18945 0.0
H1319 H 0.82882 0.67341 0.06996 0.0
H1320 H 0.8012 0.65596 0.065 0.0
H1321 H 0.81692 0.64686 0.0852 0.0
C1322 C 0.76044 0.59906 0.10326 0.0
C1323 C 0.76463 0.58604 0.12366 0.0
C1324 C 0.77124 0.6207 0.10809 0.0
C1325 C 0.78646 0.62968 0.1333 0.0
C1326 C 0.79079 0.61679 0.15357 0.0
H1327 H 0.87301 0.76197 0.16622 0.0
H1328 H 0.85713 0.7244 0.15611 0.0
C1329 C 0.78004 0.59517 0.14872 0.0
C1330 C 0.79713 0.65244 0.13968 0.0
H1331 H 0.82894 0.70002 0.10382 0.0
C1332 C 0.79404 0.65936 0.17082 0.0
C1333 C 0.81014 0.6672 0.1154 0.0
C1334 C 0.81467 0.66055 0.0821 0.0
C1335 C 0.80331 0.68075 0.17811 0.0
C1336 C 0.81576 0.69551 0.15342 0.0
C1337 C 0.81922 0.68861 0.12254 0.0
C1338 C 0.82528 0.71824 0.1592 0.0
C1339 C 0.79986 0.68737 0.21225 0.0
C1340 C 0.81259 0.72718 0.16381 0.0
C1341 C 0.8216 0.74864 0.1694 0.0
C1342 C 0.84348 0.76156 0.17036 0.0
C1343 C 0.85613 0.75253 0.16533 0.0
C1344 C 0.8471 0.73106 0.15969 0.0
H1345 H 0.79429 0.67445 0.23082 0.0
H1346 H 0.81449 0.70095 0.22182 0.0
H1347 H 0.78783 0.69214 0.21023 0.0
H1348 H 0.79571 0.71757 0.16283 0.0
H1349 H 0.81139 0.75511 0.17248 0.0
H1350 H 0.07875 0.25479 0.75839 0.0
H1351 H 0.09902 0.29258 0.76788 0.0
H1352 H 0.11728 0.28199 0.86548 0.0
H1353 H 0.09711 0.24426 0.85616 0.0
H1354 H 0.09456 0.31595 0.81774 0.0
H1355 H 0.1732 0.32363 0.82333 0.0
H1356 H 0.15052 0.30047 0.80757 0.0
H1357 H 0.15474 0.30461 0.85205 0.0
C1358 C 0.08705 0.26052 0.78188 0.0
C1359 C 0.08643 0.24654 0.80644 0.0
C1360 C 0.09868 0.28209 0.78722 0.0
C1361 C 0.10991 0.29006 0.81715 0.0
C1362 C 0.10915 0.27617 0.84186 0.0
H1363 H 0.15704 0.41463 0.89877 0.0
H1364 H 0.13741 0.37707 0.88711 0.0
C1365 C 0.09761 0.25461 0.83649 0.0
C1366 C 0.12196 0.31291 0.82293 0.0
H1367 H 0.17087 0.3533 0.84043 0.0
C1368 C 0.11126 0.32416 0.82255 0.0
C1369 C 0.14378 0.32358 0.82877 0.0
C1370 C 0.1563 0.31251 0.82765 0.0
C1371 C 0.12175 0.34578 0.82847 0.0
C1372 C 0.14343 0.3563 0.83558 0.0
C1373 C 0.1542 0.34512 0.83534 0.0
C1374 C 0.15532 0.37899 0.84287 0.0
C1375 C 0.1096 0.3572 0.82654 0.0
C1376 C 0.17224 0.3924 0.82241 0.0
C1377 C 0.18354 0.41381 0.82914 0.0
C1378 C 0.17815 0.42221 0.8565 0.0
C1379 C 0.16134 0.40867 0.87719 0.0
C1380 C 0.1501 0.38723 0.87053 0.0
H1381 H 0.09482 0.34816 0.81219 0.0
H1382 H 0.10548 0.3596 0.85231 0.0
H1383 H 0.11904 0.37277 0.81457 0.0
H1384 H 0.17655 0.38631 0.80098 0.0
H1385 H 0.19624 0.42383 0.81251 0.0
H1386 H 0.58583 0.78492 0.84038 0.0
H1387 H 0.62264 0.80353 0.82371 0.0
H1388 H 0.62489 0.74652 0.83299 0.0
H1389 H 0.58802 0.72766 0.84895 0.0
H1390 H 0.65832 0.78277 0.8658 0.0
H1391 H 0.64711 0.79743 0.73259 0.0
H1392 H 0.63399 0.80479 0.76311 0.0
H1393 H 0.62625 0.77771 0.7579 0.0
C1394 C 0.59405 0.77626 0.83851 0.0
C1395 C 0.58389 0.75477 0.84601 0.0
C1396 C 0.61509 0.78693 0.82902 0.0
C1397 C 0.62635 0.77631 0.8268 0.0
C1398 C 0.6164 0.75495 0.83454 0.0
H1399 H 0.7498 0.81888 0.74248 0.0
H1400 H 0.71236 0.79941 0.75588 0.0
C1401 C 0.59534 0.74424 0.84391 0.0
C1402 C 0.64868 0.78761 0.81722 0.0
H1403 H 0.68202 0.81422 0.75283 0.0
C1404 C 0.66353 0.78961 0.8411 0.0
C1405 C 0.65531 0.79629 0.78485 0.0
C1406 C 0.63987 0.79386 0.75796 0.0
C1407 C 0.68497 0.80047 0.83364 0.0
C1408 C 0.69164 0.80964 0.80158 0.0
C1409 C 0.67678 0.80729 0.77746 0.0
C1410 C 0.71406 0.82173 0.79271 0.0
C1411 C 0.70035 0.80193 0.85996 0.0
C1412 C 0.72721 0.84084 0.80861 0.0
C1413 C 0.74853 0.85197 0.80101 0.0
C1414 C 0.75705 0.84414 0.77739 0.0
C1415 C 0.74371 0.82516 0.76105 0.0
C1416 C 0.72235 0.81409 0.76853 0.0
H1417 H 0.69253 0.79044 0.88053 0.0
H1418 H 0.71258 0.79928 0.84863 0.0
H1419 H 0.70821 0.81785 0.87105 0.0
H1420 H 0.721 0.84705 0.82711 0.0
H1421 H 0.75839 0.86641 0.81427 0.0
H1422 H 0.26149 0.84599 0.89086 0.0
H1423 H 0.24107 0.86355 0.88478 0.0
H1424 H 0.20885 0.82441 0.7998 0.0
H1425 H 0.22968 0.80717 0.80509 0.0
H1426 H 0.22436 0.86684 0.78818 0.0
H1427 H 0.17934 0.84165 0.90715 0.0
H1428 H 0.20709 0.85319 0.91275 0.0
H1429 H 0.19286 0.82896 0.89018 0.0
C1430 C 0.2501 0.84113 0.87084 0.0
C1431 C 0.24725 0.8252 0.84841 0.0
C1432 C 0.23826 0.851 0.86766 0.0
C1433 C 0.22326 0.84505 0.84214 0.0
C1434 C 0.22025 0.82908 0.81984 0.0
H1435 H 0.13445 0.88967 0.82285 0.0
H1436 H 0.15052 0.86778 0.8284 0.0
C1437 C 0.23207 0.81917 0.82302 0.0
C1438 C 0.21158 0.85632 0.83763 0.0
H1439 H 0.17892 0.86956 0.87754 0.0
C1440 C 0.21429 0.86731 0.80759 0.0
C1441 C 0.19829 0.85669 0.86286 0.0
C1442 C 0.19402 0.84434 0.89493 0.0
C1443 C 0.20451 0.8792 0.80248 0.0
C1444 C 0.19197 0.88032 0.82832 0.0
C1445 C 0.18874 0.86882 0.85795 0.0
C1446 C 0.18229 0.89358 0.82521 0.0
C1447 C 0.20763 0.8904 0.76945 0.0
C1448 C 0.19488 0.91534 0.82213 0.0
C1449 C 0.18578 0.92789 0.81912 0.0
C1450 C 0.16389 0.91891 0.81931 0.0
C1451 C 0.15134 0.8971 0.8229 0.0
C1452 C 0.16047 0.88456 0.82592 0.0
H1453 H 0.21294 0.88362 0.74945 0.0
H1454 H 0.19295 0.88973 0.76112 0.0
H1455 H 0.21978 0.90708 0.77254 0.0
H1456 H 0.21178 0.92263 0.82231 0.0
H1457 H 0.1959 0.94464 0.8171 0.0
H1458 H 0.92024 0.41503 0.58542 0.0
H1459 H 0.95729 0.4342 0.56945 0.0
H1460 H 0.94142 0.45572 0.47938 0.0
H1461 H 0.9046 0.43729 0.49607 0.0
H1462 H 0.9767 0.42987 0.51809 0.0
H1463 H 0.98793 0.50973 0.51325 0.0
H1464 H 0.96474 0.48795 0.5308 0.0
H1465 H 0.9672 0.49217 0.48607 0.0
C1466 C 0.92479 0.42404 0.5624 0.0
C1467 C 0.9097 0.42495 0.54218 0.0
C1468 C 0.94589 0.43496 0.55327 0.0
C1469 C 0.95223 0.44678 0.52354 0.0
C1470 C 0.93705 0.44734 0.50299 0.0
H1471 H 0.07117 0.48412 0.42435 0.0
H1472 H 0.03427 0.46649 0.44116 0.0
C1473 C 0.91602 0.43674 0.51245 0.0
C1474 C 0.97458 0.45783 0.51342 0.0
H1475 H 0.01471 0.50513 0.48801 0.0
C1476 C 0.98506 0.44638 0.51176 0.0
C1477 C 0.9856 0.47943 0.50563 0.0
C1478 C 0.97584 0.49307 0.50938 0.0
C1479 C 0.00615 0.45583 0.50218 0.0
C1480 C 0.01684 0.47718 0.49273 0.0
C1481 C 0.00644 0.4887 0.49479 0.0
C1482 C 0.039 0.48808 0.48156 0.0
C1483 C 0.01682 0.44293 0.50315 0.0
C1484 C 0.05375 0.50656 0.49762 0.0
C1485 C 0.07465 0.51689 0.48744 0.0
C1486 C 0.08122 0.50881 0.46121 0.0
C1487 C 0.06645 0.49046 0.44487 0.0
C1488 C 0.04545 0.48034 0.45465 0.0
H1489 H 0.00874 0.42943 0.52055 0.0
H1490 H 0.01642 0.43661 0.47772 0.0
H1491 H 0.03339 0.45247 0.51113 0.0
H1492 H 0.04914 0.51287 0.51838 0.0
H1493 H 0.08578 0.53088 0.50068 0.0
H1494 H 0.50521 0.58447 0.4249 0.0
H1495 H 0.52356 0.56485 0.43281 0.0
H1496 H 0.48572 0.53481 0.52008 0.0
H1497 H 0.46729 0.55427 0.51223 0.0
H1498 H 0.54686 0.56597 0.48673 0.0
H1499 H 0.48084 0.48538 0.4676 0.0
H1500 H 0.47942 0.50827 0.45595 0.0
H1501 H 0.47566 0.49968 0.49894 0.0
C1502 C 0.50077 0.57363 0.4457 0.0
C1503 C 0.48476 0.57086 0.46786 0.0
C1504 C 0.5112 0.56239 0.45012 0.0
C1505 C 0.50579 0.54815 0.47674 0.0
C1506 C 0.48978 0.54532 0.49887 0.0
H1507 H 0.58377 0.50323 0.56344 0.0
H1508 H 0.56358 0.5206 0.55195 0.0
C1509 C 0.47927 0.55647 0.49436 0.0
C1510 C 0.5176 0.53707 0.48234 0.0
H1511 H 0.51209 0.48856 0.49078 0.0
C1512 C 0.53929 0.54904 0.48743 0.0
C1513 C 0.50771 0.51499 0.48285 0.0
C1514 C 0.48466 0.50131 0.47572 0.0
C1515 C 0.55132 0.53953 0.49364 0.0
C1516 C 0.5413 0.51747 0.4955 0.0
C1517 C 0.51968 0.50548 0.48974 0.0
C1518 C 0.55304 0.50653 0.50296 0.0
C1519 C 0.57469 0.55319 0.49765 0.0
C1520 C 0.55325 0.49237 0.47971 0.0
C1521 C 0.56466 0.48234 0.4863 0.0
C1522 C 0.57606 0.48628 0.51632 0.0
C1523 C 0.57546 0.50017 0.53985 0.0
C1524 C 0.56396 0.51011 0.53331 0.0
H1525 H 0.58047 0.56896 0.4866 0.0
H1526 H 0.57864 0.55523 0.52478 0.0
H1527 H 0.58311 0.54595 0.48563 0.0
H1528 H 0.54486 0.48935 0.45618 0.0
H1529 H 0.56496 0.47191 0.46752 0.0
H1530 H 0.39387 0.91167 0.46433 0.0
H1531 H 0.41394 0.94877 0.47805 0.0
H1532 H 0.47141 0.94825 0.46201 0.0
H1533 H 0.4515 0.91115 0.4471 0.0
H1534 H 0.46576 0.96759 0.52706 0.0
H1535 H 0.45138 0.99716 0.40714 0.0
H1536 H 0.42925 0.97554 0.42717 0.0
H1537 H 0.44979 0.97198 0.41029 0.0
C1538 C 0.41074 0.91939 0.4631 0.0
C1539 C 0.42104 0.90834 0.45429 0.0
C1540 C 0.42218 0.9406 0.47123 0.0
C1541 C 0.44408 0.95115 0.47084 0.0
C1542 C 0.45447 0.94027 0.46243 0.0
H1543 H 0.53328 0.08353 0.48068 0.0
H1544 H 0.51451 0.04601 0.46866 0.0
C1545 C 0.44306 0.91907 0.45406 0.0
C1546 C 0.45612 0.97359 0.47934 0.0
H1547 H 0.46938 0.02202 0.44976 0.0
C1548 C 0.46661 0.97954 0.51023 0.0
C1549 C 0.45718 0.98899 0.45714 0.0
C1550 C 0.44643 0.98325 0.42344 0.0
C1551 C 0.47802 0.00066 0.51969 0.0
C1552 C 0.47886 0.01605 0.49764 0.0
C1553 C 0.46857 0.0101 0.46659 0.0
C1554 C 0.49058 0.03851 0.50614 0.0
C1555 C 0.48927 0.00646 0.55295 0.0
C1556 C 0.48325 0.0466 0.53118 0.0
C1557 C 0.49393 0.06804 0.53806 0.0
C1558 C 0.51213 0.08167 0.5201 0.0
C1559 C 0.5195 0.07341 0.49527 0.0
C1560 C 0.50874 0.05202 0.48823 0.0
H1561 H 0.48992 0.99311 0.56455 0.0
H1562 H 0.50548 0.01972 0.54981 0.0
H1563 H 0.48099 0.01156 0.57046 0.0
H1564 H 0.46913 0.03638 0.54503 0.0
H1565 H 0.48798 0.07395 0.55746 0.0
H1566 H 0.15347 0.97877 0.37477 0.0
H1567 H 0.15812 0.96965 0.43152 0.0
H1568 H 0.2247 0.01152 0.42379 0.0
H1569 H 0.22002 0.02192 0.36761 0.0
H1570 H 0.17909 0.95263 0.4593 0.0
H1571 H 0.21135 0.03417 0.50576 0.0
H1572 H 0.20014 0.02627 0.4645 0.0
H1573 H 0.22613 0.03105 0.47279 0.0
C1574 C 0.16911 0.98631 0.3852 0.0
C1575 C 0.1863 0.00154 0.36687 0.0
C1576 C 0.17177 0.98083 0.41754 0.0
C1577 C 0.1917 0.99024 0.43223 0.0
C1578 C 0.2091 0.00446 0.4133 0.0
H1579 H 0.21074 0.97988 0.64794 0.0
H1580 H 0.21825 0.98261 0.58772 0.0
C1581 C 0.20642 0.01021 0.381 0.0
C1582 C 0.19372 0.98584 0.46793 0.0
H1583 H 0.2059 0.00859 0.54549 0.0
C1584 C 0.18522 0.9649 0.47809 0.0
C1585 C 0.20173 0.00187 0.49249 0.0
C1586 C 0.2102 0.02458 0.48351 0.0
C1587 C 0.18367 0.95952 0.51218 0.0
C1588 C 0.1909 0.97548 0.53659 0.0
C1589 C 0.2005 0.99645 0.5265 0.0
C1590 C 0.18616 0.9708 0.57261 0.0
C1591 C 0.17367 0.93681 0.52203 0.0
C1592 C 0.1656 0.96306 0.58385 0.0
C1593 C 0.16129 0.96196 0.61812 0.0
C1594 C 0.17748 0.96848 0.64192 0.0
C1595 C 0.19794 0.97514 0.63044 0.0
C1596 C 0.20226 0.97651 0.59605 0.0
H1597 H 0.17339 0.92693 0.50077 0.0
H1598 H 0.18211 0.9348 0.54348 0.0
H1599 H 0.15729 0.93117 0.53003 0.0
H1600 H 0.15303 0.95893 0.56605 0.0
H1601 H 0.14543 0.95711 0.62576 0.0
H1602 H 0.99977 0.17216 0.60948 0.0
H1603 H 0.99588 0.18157 0.55275 0.0
H1604 H 0.03037 0.24699 0.57913 0.0
H1605 H 0.0355 0.23762 0.63611 0.0
H1606 H 0.97762 0.20222 0.52795 0.0
H1607 H 0.06286 0.2457 0.49845 0.0
H1608 H 0.05286 0.23025 0.53606 0.0
H1609 H 0.05405 0.25509 0.53283 0.0
C1610 C 0.00687 0.18859 0.60325 0.0
C1611 C 0.01844 0.20415 0.62717 0.0
C1612 C 0.00436 0.19395 0.57083 0.0
C1613 C 0.01308 0.215 0.56146 0.0
C1614 C 0.02387 0.23066 0.58559 0.0
H1615 H 0.97664 0.20854 0.34895 0.0
H1616 H 0.98363 0.22397 0.40521 0.0
C1617 C 0.02661 0.22527 0.61821 0.0
C1618 C 0.01122 0.21985 0.52592 0.0
H1619 H 0.03965 0.23695 0.45361 0.0
C1620 C 0.99115 0.21018 0.51165 0.0
C1621 C 0.02893 0.23042 0.50486 0.0
C1622 C 0.05093 0.24089 0.51862 0.0
C1623 C 0.9883 0.2088 0.47674 0.0
C1624 C 0.00608 0.21815 0.45552 0.0
C1625 C 0.02607 0.22972 0.46993 0.0
C1626 C 0.00462 0.21273 0.41933 0.0
C1627 C 0.96638 0.19567 0.46314 0.0
C1628 C 0.01526 0.20266 0.40767 0.0
C1629 C 0.0118 0.19441 0.37535 0.0
C1630 C 0.99732 0.19571 0.354 0.0
C1631 C 0.98775 0.20709 0.36482 0.0
C1632 C 0.99154 0.21571 0.39715 0.0
H1633 H 0.95487 0.18668 0.48318 0.0
H1634 H 0.96139 0.206 0.45103 0.0
H1635 H 0.9658 0.18443 0.44406 0.0
H1636 H 0.02561 0.20033 0.42412 0.0
H1637 H 0.02005 0.18645 0.36749 0.0
H1638 H 0.78302 0.79865 0.6244 0.0
H1639 H 0.77774 0.78345 0.56811 0.0
H1640 H 0.84315 0.80192 0.56329 0.0
H1641 H 0.84826 0.81604 0.61982 0.0
H1642 H 0.795 0.80532 0.51371 0.0
H1643 H 0.8185 0.74546 0.52177 0.0
H1644 H 0.81306 0.75613 0.55871 0.0
H1645 H 0.83859 0.76947 0.53938 0.0
C1646 C 0.79612 0.79889 0.6117 0.0
C1647 C 0.81612 0.80878 0.62643 0.0
C1648 C 0.7931 0.79027 0.5795 0.0
C1649 C 0.80998 0.79127 0.56157 0.0
C1650 C 0.82975 0.80043 0.57682 0.0
H1651 H 0.85804 0.8129 0.36895 0.0
H1652 H 0.84929 0.80524 0.42819 0.0
C1653 C 0.83274 0.80889 0.60898 0.0
C1654 C 0.80785 0.78552 0.52551 0.0
H1655 H 0.82361 0.76248 0.46691 0.0
C1656 C 0.80067 0.79544 0.50354 0.0
C1657 C 0.81519 0.77257 0.51217 0.0
C1658 C 0.82154 0.76014 0.53437 0.0
C1659 C 0.80214 0.79407 0.46866 0.0
C1660 C 0.81099 0.78247 0.45547 0.0
C1661 C 0.81698 0.77149 0.47723 0.0
C1662 C 0.8164 0.78385 0.41954 0.0
C1663 C 0.79549 0.80612 0.44608 0.0
C1664 C 0.80086 0.77376 0.39512 0.0
C1665 C 0.80583 0.77792 0.36107 0.0
C1666 C 0.82641 0.79236 0.35097 0.0
C1667 C 0.8421 0.80151 0.37564 0.0
C1668 C 0.83713 0.79724 0.40958 0.0
H1669 H 0.78997 0.81534 0.46046 0.0
H1670 H 0.80876 0.81695 0.42984 0.0
H1671 H 0.78264 0.79509 0.42942 0.0
H1672 H 0.78478 0.7633 0.40247 0.0
H1673 H 0.79344 0.77027 0.34274 0.0
H1674 H 0.82805 0.2753 0.96552 0.0
H1675 H 0.83859 0.28132 0.90681 0.0
H1676 H 0.88793 0.34365 0.93088 0.0
H1677 H 0.87642 0.33857 0.98881 0.0
H1678 H 0.86496 0.34519 0.88396 0.0
H1679 H 0.88354 0.28405 0.84826 0.0
H1680 H 0.85813 0.27266 0.86711 0.0
H1681 H 0.88097 0.28969 0.89155 0.0
C1682 C 0.84119 0.29029 0.95848 0.0
C1683 C 0.8511 0.30651 0.98216 0.0
C1684 C 0.84751 0.29355 0.92487 0.0
C1685 C 0.86423 0.31288 0.9144 0.0
C1686 C 0.87505 0.32856 0.93837 0.0
H1687 H 0.89237 0.3641 0.70945 0.0
H1688 H 0.89906 0.35644 0.7667 0.0
C1689 C 0.8685 0.3255 0.97174 0.0
C1690 C 0.86825 0.31794 0.87814 0.0
H1691 H 0.87369 0.29929 0.80254 0.0
C1692 C 0.86741 0.33543 0.86632 0.0
C1693 C 0.87136 0.30517 0.85502 0.0
C1694 C 0.87377 0.28698 0.86624 0.0
C1695 C 0.86852 0.3399 0.83201 0.0
C1696 C 0.87055 0.32655 0.80885 0.0
C1697 C 0.87216 0.30948 0.82051 0.0
C1698 C 0.86853 0.32893 0.77252 0.0
C1699 C 0.86638 0.35825 0.82057 0.0
C1700 C 0.84945 0.31558 0.75676 0.0
C1701 C 0.84556 0.31999 0.72441 0.0
C1702 C 0.86076 0.33777 0.70726 0.0
C1703 C 0.88042 0.35032 0.72219 0.0
C1704 C 0.88425 0.34598 0.75477 0.0
H1705 H 0.86288 0.36587 0.84166 0.0
H1706 H 0.88119 0.37008 0.80854 0.0
H1707 H 0.85373 0.3531 0.80159 0.0
H1708 H 0.83713 0.3024 0.77018 0.0
H1709 H 0.8304 0.30989 0.7132 0.0
H1710 H 0.65474 0.49961 0.95602 0.0
H1711 H 0.64755 0.50637 0.8994 0.0
H1712 H 0.68742 0.57271 0.915 0.0
H1713 H 0.69597 0.5659 0.97137 0.0
H1714 H 0.63094 0.52727 0.87134 0.0
H1715 H 0.71494 0.56432 0.83472 0.0
H1716 H 0.70565 0.55159 0.87468 0.0
H1717 H 0.70864 0.57698 0.86741 0.0
C1718 C 0.66223 0.51566 0.94741 0.0
C1719 C 0.67649 0.53216 0.96791 0.0
C1720 C 0.65783 0.51954 0.91511 0.0
C1721 C 0.6673 0.54003 0.90259 0.0
C1722 C 0.68036 0.55673 0.92378 0.0
H1723 H 0.62877 0.52956 0.68901 0.0
H1724 H 0.63527 0.54455 0.74573 0.0
C1725 C 0.68506 0.55282 0.95613 0.0
C1726 C 0.66446 0.54314 0.86656 0.0
H1727 H 0.69056 0.55533 0.79183 0.0
C1728 C 0.64397 0.53377 0.85389 0.0
C1729 C 0.68153 0.55177 0.84388 0.0
C1730 C 0.70393 0.56163 0.85567 0.0
C1731 C 0.63999 0.53091 0.81926 0.0
C1732 C 0.65705 0.53831 0.79671 0.0
C1733 C 0.67754 0.54957 0.80926 0.0
C1734 C 0.65423 0.53122 0.76127 0.0
C1735 C 0.6176 0.51843 0.80743 0.0
C1736 C 0.6634 0.5195 0.75075 0.0
C1737 C 0.66011 0.51136 0.7184 0.0
C1738 C 0.6473 0.51446 0.69576 0.0
C1739 C 0.63862 0.52677 0.7059 0.0
C1740 C 0.64214 0.53518 0.73839 0.0
H1741 H 0.60645 0.51113 0.82858 0.0
H1742 H 0.61337 0.5289 0.79384 0.0
H1743 H 0.61565 0.50588 0.7899 0.0
H1744 H 0.67287 0.5163 0.76785 0.0
H1745 H 0.66764 0.50257 0.71122 0.0
H1746 H 0.51496 0.14677 0.7065 0.0
H1747 H 0.50221 0.14352 0.76374 0.0
H1748 H 0.43866 0.10631 0.72906 0.0
H1749 H 0.45129 0.10877 0.67142 0.0
H1750 H 0.44764 0.14276 0.7685 0.0
H1751 H 0.47495 0.09362 0.8307 0.0
H1752 H 0.49467 0.11409 0.80528 0.0
H1753 H 0.47148 0.0936 0.78577 0.0
C1754 C 0.4983 0.13729 0.71096 0.0
C1755 C 0.48418 0.12804 0.68416 0.0
C1756 C 0.49104 0.13552 0.74379 0.0
C1757 C 0.46953 0.12452 0.75061 0.0
C1758 C 0.45534 0.11479 0.72423 0.0
H1759 H 0.43834 0.12542 0.96382 0.0
H1760 H 0.43399 0.11227 0.90622 0.0
C1761 C 0.46261 0.11637 0.6913 0.0
C1762 C 0.46212 0.12517 0.78483 0.0
H1763 H 0.46875 0.11624 0.86668 0.0
C1764 C 0.45179 0.13654 0.78997 0.0
C1765 C 0.46735 0.11685 0.8127 0.0
C1766 C 0.47755 0.10367 0.8084 0.0
C1767 C 0.44801 0.14119 0.82248 0.0
C1768 C 0.45483 0.13435 0.85034 0.0
C1769 C 0.46368 0.1216 0.84521 0.0
C1770 C 0.45541 0.14239 0.88455 0.0
C1771 C 0.4375 0.15407 0.82679 0.0
C1772 C 0.46883 0.16366 0.89128 0.0
C1773 C 0.47167 0.17116 0.9241 0.0
C1774 C 0.46108 0.15754 0.95097 0.0
C1775 C 0.44701 0.13631 0.9439 0.0
C1776 C 0.44436 0.12878 0.91098 0.0
H1777 H 0.4279 0.15284 0.80449 0.0
H1778 H 0.42735 0.14912 0.84943 0.0
H1779 H 0.44964 0.17075 0.82991 0.0
H1780 H 0.47784 0.17433 0.87128 0.0
H1781 H 0.48295 0.18748 0.92848 0.0
H1782 H 0.50884 0.68116 0.29886 0.0
H1783 H 0.52274 0.6888 0.24185 0.0
H1784 H 0.53964 0.64086 0.24966 0.0
H1785 H 0.52515 0.63267 0.30675 0.0
H1786 H 0.56321 0.70045 0.21559 0.0
H1787 H 0.50045 0.62354 0.16722 0.0
H1788 H 0.49873 0.63334 0.20789 0.0
H1789 H 0.5161 0.62322 0.20157 0.0
C1790 C 0.51542 0.67215 0.28844 0.0
C1791 C 0.51555 0.65604 0.30704 0.0
C1792 C 0.52356 0.67669 0.256 0.0
C1793 C 0.53198 0.66523 0.24145 0.0
C1794 C 0.53296 0.6497 0.26035 0.0
H1795 H 0.54821 0.66887 0.02308 0.0
H1796 H 0.55368 0.66273 0.08172 0.0
C1797 C 0.5248 0.64513 0.29297 0.0
C1798 C 0.53848 0.66898 0.20583 0.0
H1799 H 0.52215 0.6483 0.1277 0.0
C1800 C 0.55451 0.68894 0.19634 0.0
C1801 C 0.52718 0.65388 0.18084 0.0
C1802 C 0.50956 0.6323 0.18965 0.0
C1803 C 0.55885 0.69453 0.1624 0.0
C1804 C 0.54658 0.67989 0.13744 0.0
C1805 C 0.53151 0.65951 0.14692 0.0
C1806 C 0.54704 0.68601 0.10191 0.0
C1807 C 0.57613 0.71625 0.15362 0.0
C1808 C 0.54182 0.70134 0.09384 0.0
C1809 C 0.53873 0.70488 0.0605 0.0
C1810 C 0.54067 0.69307 0.03456 0.0
C1811 C 0.54684 0.67838 0.04251 0.0
C1812 C 0.54988 0.6748 0.07597 0.0
H1813 H 0.58842 0.72254 0.17333 0.0
H1814 H 0.58346 0.71646 0.12917 0.0
H1815 H 0.56955 0.72684 0.15187 0.0
H1816 H 0.53907 0.70985 0.11345 0.0
H1817 H 0.5341 0.71638 0.05507 0.0
H1818 H 0.33963 0.86261 0.02174 0.0
H1819 H 0.33865 0.8681 0.08184 0.0
H1820 H 0.27126 0.83538 0.07932 0.0
H1821 H 0.27197 0.83037 0.01861 0.0
H1822 H 0.31237 0.88386 0.12586 0.0
H1823 H 0.29507 0.80139 0.13795 0.0
H1824 H 0.30786 0.81675 0.10113 0.0
H1825 H 0.28066 0.80765 0.10815 0.0
C1826 C 0.32457 0.85719 0.03357 0.0
C1827 C 0.30586 0.84586 0.01533 0.0
C1828 C 0.32407 0.86032 0.06798 0.0
C1829 C 0.30491 0.85211 0.08477 0.0
C1830 C 0.28619 0.84183 0.06656 0.0
H1831 H 0.29853 0.82322 0.29717 0.0
H1832 H 0.28694 0.82641 0.24102 0.0
C1833 C 0.28665 0.8388 0.03201 0.0
C1834 C 0.30474 0.85175 0.12171 0.0
H1835 H 0.303 0.8212 0.18698 0.0
C1836 C 0.30998 0.87011 0.13947 0.0
C1837 C 0.30153 0.83373 0.13909 0.0
C1838 C 0.29601 0.8137 0.12082 0.0
C1839 C 0.31264 0.87106 0.17446 0.0
C1840 C 0.31061 0.85336 0.19168 0.0
C1841 C 0.30454 0.83477 0.17385 0.0
C1842 C 0.31621 0.85392 0.22752 0.0
C1843 C 0.31768 0.891 0.19249 0.0
C1844 C 0.33634 0.8686 0.23889 0.0
C1845 C 0.34282 0.86696 0.27115 0.0
C1846 C 0.32945 0.85033 0.29208 0.0
C1847 C 0.30911 0.83609 0.28121 0.0
C1848 C 0.3025 0.83795 0.24928 0.0
H1849 H 0.31107 0.89955 0.17898 0.0
H1850 H 0.31154 0.88789 0.21857 0.0
H1851 H 0.33491 0.90138 0.19343 0.0
H1852 H 0.34743 0.88068 0.2223 0.0
H1853 H 0.35862 0.87801 0.27907 0.0
H1854 H 0.11587 0.47491 0.29271 0.0
H1855 H 0.11529 0.46269 0.23533 0.0
H1856 H 0.1666 0.45261 0.25949 0.0
H1857 H 0.16771 0.46567 0.31637 0.0
H1858 H 0.17566 0.47667 0.20739 0.0
H1859 H 0.09671 0.40893 0.18675 0.0
H1860 H 0.09529 0.43097 0.20228 0.0
H1861 H 0.10648 0.41905 0.22816 0.0
C1862 C 0.1266 0.46953 0.28589 0.0
C1863 C 0.14188 0.47127 0.30865 0.0
C1864 C 0.12618 0.4624 0.25321 0.0
C1865 C 0.14075 0.45648 0.24313 0.0
C1866 C 0.15518 0.45703 0.26668 0.0
H1867 H 0.17655 0.44265 0.03845 0.0
H1868 H 0.16874 0.4362 0.09848 0.0
C1869 C 0.15582 0.46449 0.29909 0.0
C1870 C 0.14306 0.45285 0.20714 0.0
H1871 H 0.11593 0.42723 0.13669 0.0
C1872 C 0.16269 0.46549 0.19214 0.0
C1873 C 0.12614 0.43834 0.18715 0.0
C1874 C 0.10504 0.42341 0.20203 0.0
C1875 C 0.16562 0.46473 0.15756 0.0
C1876 C 0.14849 0.45093 0.13742 0.0
C1877 C 0.12901 0.43779 0.15235 0.0
C1878 C 0.15034 0.45156 0.1005 0.0
C1879 C 0.18678 0.4794 0.14249 0.0
C1880 C 0.14208 0.46181 0.08182 0.0
C1881 C 0.14673 0.46579 0.04774 0.0
C1882 C 0.15966 0.45947 0.03167 0.0
C1883 C 0.1669 0.4481 0.05016 0.0
C1884 C 0.16231 0.44422 0.08435 0.0
H1885 H 0.19782 0.49072 0.16115 0.0
H1886 H 0.1937 0.47019 0.13241 0.0
H1887 H 0.18515 0.48825 0.1213 0.0
H1888 H 0.13295 0.46771 0.09401 0.0
H1889 H 0.14109 0.4748 0.03448 0.0
H1890 H 0.20508 0.01059 0.15171 0.0
H1891 H 0.21635 0.01072 0.0935 0.0
H1892 H 0.17729 0.03525 0.05994 0.0
H1893 H 0.16612 0.03525 0.11733 0.0
H1894 H 0.1908 0.98957 0.03798 0.0
H1895 H 0.23347 0.07469 0.01543 0.0
H1896 H 0.22772 0.06358 0.05717 0.0
H1897 H 0.20837 0.06646 0.03391 0.0
C1898 C 0.19897 0.01604 0.13184 0.0
C1899 C 0.18473 0.02293 0.13906 0.0
C1900 C 0.20549 0.0162 0.09873 0.0
C1901 C 0.19805 0.0235 0.0726 0.0
C1902 C 0.18369 0.03013 0.07985 0.0
H1903 H 0.15865 0.01488 0.88309 0.0
H1904 H 0.17214 0.02286 0.94032 0.0
C1905 C 0.17715 0.02991 0.11268 0.0
C1906 C 0.20379 0.02296 0.03719 0.0
H1907 H 0.217 0.05268 0.96614 0.0
C1908 C 0.19724 0.00343 0.0223 0.0
C1909 C 0.2124 0.04111 0.01689 0.0
C1910 C 0.2211 0.06266 0.03178 0.0
C1911 C 0.19698 0.00133 0.98726 0.0
C1912 C 0.20349 0.01923 0.96691 0.0
C1913 C 0.2119 0.03898 0.98189 0.0
C1914 C 0.19773 0.01714 0.93108 0.0
C1915 C 0.18798 0.97981 0.97207 0.0
C1916 C 0.2081 0.01189 0.9068 0.0
C1917 C 0.20049 0.00747 0.87383 0.0
C1918 C 0.18232 0.00804 0.86509 0.0
C1919 C 0.17262 0.01422 0.88918 0.0
C1920 C 0.18033 0.01883 0.92183 0.0
H1921 H 0.18358 0.96747 0.99143 0.0
H1922 H 0.17388 0.97615 0.95704 0.0
H1923 H 0.1996 0.9794 0.95485 0.0
H1924 H 0.22159 0.01054 0.91361 0.0
H1925 H 0.20818 0.00263 0.85571 0.0
H1926 H 0.98907 0.19441 0.13675 0.0
H1927 H 0.98995 0.2028 0.07685 0.0
H1928 H 0.96923 0.13853 0.05162 0.0
H1929 H 0.96808 0.13003 0.11087 0.0
H1930 H 0.01331 0.19861 0.02639 0.0
H1931 H 0.92925 0.14975 -0.0025 0.0
H1932 H 0.93891 0.15652 0.03997 0.0
H1933 H 0.93881 0.13486 0.01894 0.0
C1934 C 0.98462 0.18209 0.11837 0.0
C1935 C 0.97845 0.16155 0.12849 0.0
C1936 C 0.98506 0.18688 0.08424 0.0
C1937 C 0.97915 0.17117 0.05988 0.0
C1938 C 0.97325 0.15077 0.07003 0.0
H1939 H 0.99828 0.14385 0.86944 0.0
H1940 H 0.98921 0.14752 0.92696 0.0
C1941 C 0.97281 0.14598 0.10394 0.0
C1942 C 0.98043 0.17601 0.02359 0.0
H1943 H 0.95318 0.15694 0.9506 0.0
C1944 C 1.00005 0.19002 0.00982 0.0
C1945 C 0.96304 0.16492 0.00204 0.0
C1946 C 0.94128 0.15085 0.01544 0.0
C1947 C 0.00311 0.19176 0.97493 0.0
C1948 C 0.98612 0.17921 0.95355 0.0
C1949 C 0.96618 0.16645 0.9672 0.0
C1950 C 0.98957 0.17656 0.91785 0.0
C1951 C 0.02476 0.20578 0.96107 0.0
C1952 C 0.99231 0.19153 0.89364 0.0
C1953 C 0.99737 0.18939 0.86052 0.0
C1954 C 0.99994 0.17238 0.8515 0.0
C1955 C 0.99651 0.15716 0.87569 0.0
C1956 C 0.99128 0.15919 0.90851 0.0
H1957 H 0.03624 0.21491 0.98104 0.0
H1958 H 0.03022 0.19619 0.94767 0.0
H1959 H 0.02436 0.21682 0.9426 0.0
H1960 H 0.99103 0.20503 0.90056 0.0
H1961 H 1.00002 0.20139 0.84236 0.0
H1962 H 0.84423 0.87003 0.87164 0.0
H1963 H 0.83489 0.86102 0.93029 0.0
H1964 H 0.78877 0.79817 0.90187 0.0
H1965 H 0.79831 0.80706 0.84252 0.0
H1966 H 0.7953 0.84623 0.96087 0.0
H1967 H 0.82453 0.78996 0.97349 0.0
H1968 H 0.83185 0.80778 0.93847 0.0
H1969 H 0.80599 0.7855 0.94071 0.0
C1970 C 0.83215 0.85424 0.87774 0.0
C1971 C 0.82207 0.83921 0.85248 0.0
C1972 C 0.82677 0.84915 0.9113 0.0
C1973 C 0.8112 0.82894 0.92042 0.0
C1974 C 0.801 0.81381 0.89534 0.0
H1975 H 0.80014 0.79993 0.13693 0.0
H1976 H 0.78769 0.79526 0.07859 0.0
C1977 C 0.80645 0.8189 0.86152 0.0
C1978 C 0.80621 0.82417 0.95645 0.0
H1979 H 0.81562 0.80086 0.02287 0.0
C1980 C 0.79928 0.83594 0.9744 0.0
C1981 C 0.81123 0.8106 0.97396 0.0
C1982 C 0.81892 0.79775 0.95588 0.0
C1983 C 0.79869 0.83564 0.00957 0.0
C1984 C 0.80535 0.82339 0.02712 0.0
C1985 C 0.81056 0.81026 0.0092 0.0
C1986 C 0.81048 0.82667 0.06326 0.0
C1987 C 0.79197 0.84923 0.02774 0.0
C1988 C 0.82725 0.8459 0.07382 0.0
C1989 C 0.8345 0.8485 0.10675 0.0
C1990 C 0.82501 0.83196 0.12979 0.0
C1991 C 0.80759 0.81298 0.11968 0.0
C1992 C 0.80051 0.81028 0.08645 0.0
H1993 H 0.78143 0.85235 0.01195 0.0
H1994 H 0.78387 0.84185 0.05162 0.0
H1995 H 0.80601 0.86448 0.03376 0.0
H1996 H 0.83538 0.85862 0.05615 0.0
H1997 H 0.84796 0.86327 0.11389 0.0
H1998 H 0.86463 0.33045 0.19635 0.0
H1999 H 0.8761 0.33765 0.2552 0.0
H2000 H 0.821 0.34099 0.28022 0.0
H2001 H 0.80938 0.33371 0.22188 0.0
H2002 H 0.8665 0.37567 0.3056 0.0
H2003 H 0.83897 0.29181 0.33368 0.0
H2004 H 0.85334 0.30391 0.29573 0.0
H2005 H 0.82702 0.29873 0.30028 0.0
C2006 C 0.85512 0.33299 0.21436 0.0
C2007 C 0.83608 0.33146 0.20464 0.0
C2008 C 0.86166 0.33703 0.24786 0.0
C2009 C 0.8493 0.33973 0.27181 0.0
C2010 C 0.83069 0.33891 0.26193 0.0
H2011 H 0.82153 0.35891 0.46289 0.0
H2012 H 0.82938 0.35732 0.40404 0.0
C2013 C 0.82408 0.33473 0.22865 0.0
C2014 C 0.85495 0.34254 0.30765 0.0
H2015 H 0.84577 0.31434 0.37973 0.0
C2016 C 0.86251 0.3624 0.32183 0.0
C2017 C 0.84988 0.32519 0.32853 0.0
C2018 C 0.84185 0.30363 0.31403 0.0
C2019 C 0.86382 0.3651 0.35673 0.0
C2020 C 0.8569 0.3474 0.37773 0.0
C2021 C 0.85094 0.32784 0.36349 0.0
C2022 C 0.8527 0.34837 0.41375 0.0
C2023 C 0.8717 0.38673 0.37084 0.0
C2024 C 0.86269 0.34312 0.43871 0.0
C2025 C 0.85812 0.3439 0.47264 0.0
C2026 C 0.84333 0.34971 0.48186 0.0
C2027 C 0.83306 0.35447 0.45666 0.0
C2028 C 0.83767 0.35375 0.42299 0.0
H2029 H 0.8827 0.39894 0.35317 0.0
H2030 H 0.85826 0.38928 0.37484 0.0
H2031 H 0.87972 0.3887 0.39528 0.0
H2032 H 0.87415 0.33866 0.43194 0.0
H2033 H 0.86626 0.34015 0.49157 0.0
H2034 H 0.69576 0.49466 0.21494 0.0
H2035 H 0.69206 0.50143 0.27358 0.0
H2036 H 0.67685 0.54848 0.24411 0.0
H2037 H 0.68029 0.54154 0.18473 0.0
H2038 H 0.71469 0.53995 0.30852 0.0
H2039 H 0.62863 0.50963 0.30812 0.0
H2040 H 0.64132 0.50361 0.27473 0.0
H2041 H 0.64456 0.5293 0.27784 0.0
C2042 C 0.69154 0.5064 0.22079 0.0
C2043 C 0.68823 0.51752 0.19522 0.0
C2044 C 0.68951 0.5103 0.25436 0.0
C2045 C 0.68413 0.5254 0.26316 0.0
C2046 C 0.68079 0.5366 0.23778 0.0
H2047 H 0.6584 0.53044 0.47943 0.0
H2048 H 0.66758 0.54421 0.42181 0.0
C2049 C 0.68278 0.53264 0.20395 0.0
C2050 C 0.68206 0.52894 0.29916 0.0
H2051 H 0.64532 0.51641 0.36042 0.0
C2052 C 0.69962 0.53531 0.31985 0.0
C2053 C 0.66241 0.52301 0.31382 0.0
C2054 C 0.64306 0.5159 0.29267 0.0
C2055 C 0.69774 0.5344 0.35489 0.0
C2056 C 0.67782 0.52686 0.36947 0.0
C2057 C 0.66057 0.52219 0.34896 0.0
C2058 C 0.67392 0.52009 0.40487 0.0
C2059 C 0.71681 0.54028 0.37611 0.0
C2060 C 0.6745 0.50208 0.41411 0.0
C2061 C 0.66907 0.49411 0.44652 0.0
C2062 C 0.66311 0.50412 0.47041 0.0
C2063 C 0.6631 0.52254 0.46148 0.0
C2064 C 0.66826 0.53037 0.4287 0.0
H2065 H 0.73148 0.55079 0.36233 0.0
H2066 H 0.71634 0.54811 0.39964 0.0
H2067 H 0.71714 0.52589 0.38303 0.0
H2068 H 0.67862 0.49383 0.39588 0.0
H2069 H 0.66924 0.47991 0.45273 0.0
H2070 H 0.47303 0.14032 0.16579 0.0
H2071 H 0.46836 0.12818 0.22431 0.0
H2072 H 0.5086 0.19162 0.25747 0.0
H2073 H 0.5134 0.20382 0.19956 0.0
H2074 H 0.50096 0.13465 0.27245 0.0
H2075 H 0.45391 0.17005 0.31376 0.0
H2076 H 0.45667 0.16512 0.27013 0.0
H2077 H 0.47699 0.1879 0.29083 0.0
C2078 C 0.48092 0.15164 0.1856 0.0
C2079 C 0.49355 0.17303 0.17813 0.0
C2080 C 0.47819 0.14469 0.21892 0.0
C2081 C 0.48782 0.15909 0.24511 0.0
C2082 C 0.50071 0.18034 0.2376 0.0
H2083 H 0.53728 0.16996 0.43457 0.0
H2084 H 0.52728 0.16579 0.37563 0.0
C2085 C 0.50355 0.18725 0.20446 0.0
C2086 C 0.48522 0.1522 0.28047 0.0
H2087 H 0.47206 0.16269 0.35721 0.0
C2088 C 0.49421 0.14033 0.29096 0.0
C2089 C 0.47607 0.15933 0.30444 0.0
C2090 C 0.46516 0.17114 0.29423 0.0
C2091 C 0.49583 0.1369 0.32518 0.0
C2092 C 0.48846 0.14576 0.34928 0.0
C2093 C 0.4779 0.1561 0.33866 0.0
C2094 C 0.49405 0.14694 0.38516 0.0
C2095 C 0.50618 0.12455 0.33533 0.0
C2096 C 0.4786 0.13809 0.41013 0.0
C2097 C 0.48429 0.14048 0.44408 0.0
C2098 C 0.50548 0.15205 0.45339 0.0
C2099 C 0.52082 0.16095 0.42824 0.0
C2100 C 0.51516 0.15843 0.3945 0.0
H2101 H 0.50478 0.11347 0.31525 0.0
H2102 H 0.52308 0.13548 0.33975 0.0
H2103 H 0.49925 0.11564 0.35882 0.0
H2104 H 0.4622 0.12939 0.40334 0.0
H2105 H 0.47214 0.13349 0.46297 0.0
H2106 H 0.48315 0.66193 0.79154 0.0
H2107 H 0.48812 0.65263 0.7349 0.0
H2108 H 0.55094 0.66764 0.7602 0.0
H2109 H 0.54588 0.67671 0.81767 0.0
H2110 H 0.54452 0.68877 0.7001 0.0
H2111 H 0.49492 0.60253 0.69869 0.0
H2112 H 0.48302 0.61544 0.71992 0.0
H2113 H 0.50651 0.61727 0.73667 0.0
C2114 C 0.49789 0.66289 0.78527 0.0
C2115 C 0.51412 0.66999 0.80886 0.0
C2116 C 0.50068 0.65748 0.75299 0.0
C2117 C 0.51981 0.65927 0.74358 0.0
C2118 C 0.53599 0.66596 0.76723 0.0
H2119 H 0.52977 0.65554 0.52169 0.0
H2120 H 0.5423 0.65812 0.57971 0.0
C2121 C 0.53307 0.67106 0.79993 0.0
C2122 C 0.523 0.65601 0.708 0.0
H2123 H 0.49885 0.62025 0.64573 0.0
C2124 C 0.53517 0.67369 0.68808 0.0
C2125 C 0.51082 0.63631 0.69263 0.0
C2126 C 0.49821 0.61675 0.71311 0.0
C2127 C 0.53369 0.67252 0.6529 0.0
C2128 C 0.51987 0.65314 0.63765 0.0
C2129 C 0.50933 0.63512 0.65756 0.0
C2130 C 0.5131 0.6519 0.60242 0.0
C2131 C 0.54537 0.69227 0.63245 0.0
C2132 C 0.49263 0.64757 0.59618 0.0
C2133 C 0.4855 0.64611 0.56342 0.0
C2134 C 0.49868 0.64891 0.53612 0.0
C2135 C 0.51931 0.65344 0.54229 0.0
C2136 C 0.52648 0.6549 0.57532 0.0
H2137 H 0.55469 0.70627 0.64839 0.0
H2138 H 0.55614 0.6907 0.61478 0.0
H2139 H 0.53419 0.69478 0.61731 0.0
H2140 H 0.48212 0.64532 0.61681 0.0
H2141 H 0.46953 0.6426 0.55956 0.0
H2142 H 0.34038 0.82025 0.77035 0.0
H2143 H 0.3482 0.83456 0.71358 0.0
H2144 H 0.33528 0.8832 0.74306 0.0
H2145 H 0.32774 0.86908 0.80055 0.0
H2146 H 0.31199 0.85548 0.68354 0.0
H2147 H 0.39814 0.89182 0.67621 0.0
H2148 H 0.38562 0.86711 0.69775 0.0
H2149 H 0.38438 0.88893 0.71523 0.0
C2150 C 0.33951 0.83417 0.76491 0.0
C2151 C 0.33345 0.84357 0.7897 0.0
C2152 C 0.34409 0.8424 0.73258 0.0
C2153 C 0.3425 0.86002 0.7244 0.0
C2154 C 0.33679 0.86971 0.74916 0.0
H2155 H 0.34044 0.87102 0.5029 0.0
H2156 H 0.33986 0.88252 0.56067 0.0
C2157 C 0.33252 0.86166 0.78184 0.0
C2158 C 0.34492 0.86661 0.68902 0.0
H2159 H 0.37904 0.87786 0.6243 0.0
C2160 C 0.32675 0.86114 0.67045 0.0
C2161 C 0.36422 0.8741 0.67233 0.0
C2162 C 0.38427 0.88103 0.69143 0.0
C2163 C 0.32701 0.86066 0.63525 0.0
C2164 C 0.34595 0.86599 0.61865 0.0
C2165 C 0.36451 0.87365 0.63721 0.0
C2166 C 0.34612 0.85965 0.58361 0.0
C2167 C 0.30675 0.85251 0.61619 0.0
C2168 C 0.34979 0.84305 0.57767 0.0
C2169 C 0.35012 0.8365 0.54507 0.0
C2170 C 0.34679 0.84644 0.5177 0.0
C2171 C 0.34291 0.863 0.52361 0.0
C2172 C 0.34261 0.8696 0.55646 0.0
H2173 H 0.29326 0.84847 0.63305 0.0
H2174 H 0.30808 0.86451 0.59803 0.0
H2175 H 0.30354 0.83837 0.60167 0.0
H2176 H 0.3524 0.83512 0.5984 0.0
H2177 H 0.35315 0.82372 0.54136 0.0
H2178 H 0.12833 0.46747 0.5248 0.0
H2179 H 0.1225 0.45795 0.58457 0.0
H2180 H 0.15182 0.52326 0.61103 0.0
H2181 H 0.1575 0.53279 0.55198 0.0
H2182 H 0.15427 0.46997 0.63027 0.0
H2183 H 0.10128 0.49782 0.67272 0.0
H2184 H 0.10426 0.4934 0.62894 0.0
H2185 H 0.12258 0.51766 0.6489 0.0
C2186 C 0.13315 0.47972 0.54343 0.0
C2187 C 0.14347 0.50087 0.5338 0.0
C2188 C 0.12979 0.47427 0.57747 0.0
C2189 C 0.13639 0.48988 0.60219 0.0
C2190 C 0.14609 0.51092 0.59241 0.0
H2191 H 0.19833 0.5161 0.78332 0.0
H2192 H 0.18413 0.50995 0.72654 0.0
C2193 C 0.14956 0.51636 0.5586 0.0
C2194 C 0.13582 0.48481 0.63824 0.0
H2195 H 0.12536 0.49794 0.71508 0.0
C2196 C 0.14744 0.47554 0.64883 0.0
C2197 C 0.12668 0.4918 0.66248 0.0
C2198 C 0.11281 0.50051 0.65263 0.0
C2199 C 0.15175 0.47485 0.6829 0.0
C2200 C 0.14445 0.48386 0.7068 0.0
C2201 C 0.13124 0.49138 0.69657 0.0
C2202 C 0.15242 0.4878 0.74158 0.0
C2203 C 0.16492 0.46538 0.69296 0.0
C2204 C 0.1391 0.47788 0.76889 0.0
C2205 C 0.14719 0.48139 0.80153 0.0
C2206 C 0.16866 0.49504 0.80719 0.0
C2207 C 0.18175 0.50545 0.7798 0.0
C2208 C 0.1737 0.50186 0.74732 0.0
H2209 H 0.16407 0.45396 0.67396 0.0
H2210 H 0.18151 0.47797 0.69508 0.0
H2211 H 0.1599 0.4574 0.71766 0.0
H2212 H 0.12259 0.46713 0.76487 0.0
H2213 H 0.13674 0.47317 0.8222 0.0
loop_
_geom_bond_atom_site_label_1
_geom_bond_atom_site_label_2
_geom_bond_distance
_geom_bond_site_symmetry_2
_ccdc_geom_bond_type
Co0 N4 2.148 . S
Co0 N10 2.128 1_545 S
Co0 N20 2.194 1_545 S
Co0 O25 2.351 1_545 S
Co0 O26 2.155 1_545 S
Co0 O27 2.096 . S
C1 N4 1.301 . S
C1 N5 1.328 . S
C1 H6 0.930 . S
C2 C3 1.333 . S
C2 N4 1.317 . S
C2 H7 0.930 . S
C3 C2 1.333 . S
C3 N5 1.350 . S
C3 H29 0.931 . S
N4 Co0 2.148 . S
N4 C1 1.301 . S
N4 C2 1.317 . S
N5 C1 1.328 . S
N5 C3 1.350 . S
H6 C1 0.930 . S
H7 C2 0.930 . S
C8 O9 1.224 . S
C8 O27 1.247 . S
O9 C8 1.224 . S
N10 Co0 2.128 1_565 S
N10 C11 1.355 . S
N10 C13 1.311 . S
C11 N10 1.355 . S
C11 C12 1.363 . S
C11 H23 0.929 . S
C12 C11 1.363 . S
C12 N14 1.375 . S
C12 H30 0.931 . S
C13 N10 1.311 . S
C13 N14 1.347 . S
C13 H24 0.929 . S
N14 C12 1.375 . S
N14 C13 1.347 . S
C15 C18 1.365 . S
C15 N20 1.328 . S
C15 H21 0.929 . S
C16 C17 1.362 . S
C16 C19 1.378 1_565 S
C16 H31 0.929 1_565 S
C17 C16 1.362 . S
C17 C18 1.366 . S
C18 C15 1.365 . S
C18 C17 1.366 . S
C18 H32 0.930 . S
C19 C16 1.378 1_545 S
C19 N20 1.315 1_545 S
C19 H22 0.930 . S
N20 Co0 2.194 1_565 S
N20 C15 1.328 . S
N20 C19 1.315 1_565 S
H21 C15 0.929 . S
H22 C19 0.930 . S
H23 C11 0.929 . S
H24 C13 0.929 . S
O25 Co0 2.351 1_565 S
O25 C28 1.244 . S
O26 Co0 2.155 1_565 S
O26 C28 1.240 . S
O27 Co0 2.096 . S
O27 C8 1.247 . S
C28 O25 1.244 . S
C28 O26 1.240 . S
H29 C3 0.931 . S
H30 C12 0.931 . S
H31 C16 0.929 1_545 S
H32 C18 0.930 . S
Co33 N37 2.148 . S
Co33 N43 2.128 1_655 S
Co33 N53 2.194 1_655 S
Co33 O58 2.351 1_655 S
Co33 O59 2.155 1_655 S
Co33 O60 2.096 . S
C34 N37 1.301 . S
C34 N38 1.328 . S
C34 H39 0.930 . S
C35 C36 1.333 . S
C35 N37 1.317 . S
C35 H40 0.930 . S
C36 C35 1.333 . S
C36 N38 1.350 . S
C36 H62 0.931 . S
N37 Co33 2.148 . S
N37 C34 1.301 . S
N37 C35 1.317 . S
N38 C34 1.328 . S
N38 C36 1.350 . S
H39 C34 0.930 . S
H40 C35 0.930 . S
C41 O42 1.224 . S
C41 O60 1.247 . S
O42 C41 1.224 . S
N43 Co33 2.128 1_455 S
N43 C44 1.355 . S
N43 C46 1.311 . S
C44 N43 1.355 . S
C44 C45 1.363 . S
C44 H56 0.929 . S
C45 C44 1.363 . S
C45 N47 1.375 . S
C45 H63 0.931 . S
C46 N43 1.311 . S
C46 N47 1.347 . S
C46 H57 0.929 . S
N47 C45 1.375 . S
N47 C46 1.347 . S
C48 C51 1.365 . S
C48 N53 1.328 . S
C48 H54 0.929 . S
C49 C50 1.362 . S
C49 C52 1.375 1_455 S
C49 H64 0.930 . S
C50 C49 1.362 . S
C50 C51 1.366 . S
C51 C48 1.365 . S
C51 C50 1.366 . S
C51 H65 0.930 . S
C52 C49 1.375 1_655 S
C52 N53 1.314 1_655 S
C52 H55 0.935 . S
N53 Co33 2.194 1_455 S
N53 C48 1.328 . S
N53 C52 1.314 1_455 S
H54 C48 0.929 . S
H55 C52 0.935 . S
H56 C44 0.929 . S
H57 C46 0.929 . S
O58 Co33 2.351 1_455 S
O58 C61 1.244 . S
O59 Co33 2.155 1_455 S
O59 C61 1.240 . S
O60 Co33 2.096 . S
O60 C41 1.247 . S
C61 O58 1.244 . S
C61 O59 1.240 . S
H62 C36 0.931 . S
H63 C45 0.931 . S
H64 C49 0.930 . S
H65 C51 0.930 . S
Co66 N70 2.148 . S
Co66 N76 2.128 . S
Co66 N86 2.194 . S
Co66 O91 2.351 . S
Co66 O92 2.155 . S
Co66 O93 2.096 . S
C67 N70 1.301 . S
C67 N71 1.328 . S
C67 H72 0.930 . S
C68 C69 1.333 . S
C68 N70 1.317 . S
C68 H73 0.930 . S
C69 C68 1.333 . S
C69 N71 1.350 . S
C69 H95 0.931 . S
N70 Co66 2.148 . S
N70 C67 1.301 . S
N70 C68 1.317 . S
N71 C67 1.328 . S
N71 C69 1.350 . S
H72 C67 0.930 . S
H73 C68 0.930 . S
C74 O75 1.224 . S
C74 O93 1.247 . S
O75 C74 1.224 . S
N76 Co66 2.128 . S
N76 C77 1.355 . S
N76 C79 1.311 . S
C77 N76 1.355 . S
C77 C78 1.363 . S
C77 H89 0.929 . S
C78 C77 1.363 . S
C78 N80 1.375 . S
C78 H96 0.931 . S
C79 N76 1.311 . S
C79 N80 1.347 . S
C79 H90 0.929 . S
N80 C78 1.375 . S
N80 C79 1.347 . S
C81 C84 1.365 . S
C81 N86 1.328 . S
C81 H87 0.929 . S
C82 C83 1.362 . S
C82 C85 1.378 . S
C82 H97 0.929 . S
C83 C82 1.362 . S
C83 C84 1.366 . S
C84 C81 1.365 . S
C84 C83 1.366 . S
C84 H98 0.930 . S
C85 C82 1.378 . S
C85 N86 1.315 . S
C85 H88 0.930 . S
N86 Co66 2.194 . S
N86 C81 1.328 . S
N86 C85 1.315 . S
H87 C81 0.929 . S
H88 C85 0.930 . S
H89 C77 0.929 . S
H90 C79 0.929 . S
O91 Co66 2.351 . S
O91 C94 1.244 . S
O92 Co66 2.155 . S
O92 C94 1.240 . S
O93 Co66 2.096 . S
O93 C74 1.247 . S
C94 O91 1.244 . S
C94 O92 1.240 . S
H95 C69 0.931 . S
H96 C78 0.931 . S
H97 C82 0.929 . S
H98 C84 0.930 . S
Co99 N103 2.148 . S
Co99 N109 2.128 1_455 S
Co99 N119 2.194 1_455 S
Co99 O124 2.351 1_455 S
Co99 O125 2.155 1_455 S
Co99 O126 2.096 . S
C100 N103 1.301 . S
C100 N104 1.328 . S
C100 H105 0.930 . S
C101 C102 1.333 . S
C101 N103 1.317 . S
C101 H106 0.930 . S
C102 C101 1.333 . S
C102 N104 1.350 . S
C102 H128 0.931 . S
N103 Co99 2.148 . S
N103 C100 1.301 . S
N103 C101 1.317 . S
N104 C100 1.328 . S
N104 C102 1.350 . S
H105 C100 0.930 . S
H106 C101 0.930 . S
C107 O108 1.224 . S
C107 O126 1.247 . S
O108 C107 1.224 . S
N109 Co99 2.128 1_655 S
N109 C110 1.355 . S
N109 C112 1.311 . S
C110 N109 1.355 . S
C110 C111 1.363 . S
C110 H122 0.929 . S
C111 C110 1.363 . S
C111 N113 1.375 . S
C111 H129 0.931 . S
C112 N109 1.311 . S
C112 N113 1.347 . S
C112 H123 0.929 . S
N113 C111 1.375 . S
N113 C112 1.347 . S
C114 C117 1.365 . S
C114 N119 1.328 . S
C114 H120 0.929 . S
C115 C116 1.362 . S
C115 C118 1.378 1_655 S
C115 H130 0.929 1_655 S
C116 C115 1.362 . S
C116 C117 1.366 . S
C117 C114 1.365 . S
C117 C116 1.366 . S
C117 H131 0.930 . S
C118 C115 1.378 1_455 S
C118 N119 1.315 1_455 S
C118 H121 0.930 . S
N119 Co99 2.194 1_655 S
N119 C114 1.328 . S
N119 C118 1.315 1_655 S
H120 C114 0.929 . S
H121 C118 0.930 . S
H122 C110 0.929 . S
H123 C112 0.929 . S
O124 Co99 2.351 1_655 S
O124 C127 1.244 . S
O125 Co99 2.155 1_655 S
O125 C127 1.240 . S
O126 Co99 2.096 . S
O126 C107 1.247 . S
C127 O124 1.244 . S
C127 O125 1.240 . S
H128 C102 0.931 . S
H129 C111 0.931 . S
H130 C115 0.929 1_455 S
H131 C117 0.930 . S
Co132 N136 2.148 . S
Co132 N142 2.128 . S
Co132 N152 2.194 . S
Co132 O157 2.351 . S
Co132 O158 2.155 . S
Co132 O159 2.096 . S
C133 N136 1.301 . S
C133 N137 1.328 . S
C133 H138 0.930 . S
C134 C135 1.333 . S
C134 N136 1.317 . S
C134 H139 0.930 . S
C135 C134 1.333 . S
C135 N137 1.350 . S
C135 H161 0.931 . S
N136 Co132 2.148 . S
N136 C133 1.301 . S
N136 C134 1.317 . S
N137 C133 1.328 . S
N137 C135 1.350 . S
H138 C133 0.930 . S
H139 C134 0.930 . S
C140 O141 1.224 . S
C140 O159 1.247 . S
O141 C140 1.224 . S
N142 Co132 2.128 . S
N142 C143 1.355 . S
N142 C145 1.311 . S
C143 N142 1.355 . S
C143 C144 1.363 . S
C143 H155 0.929 . S
C144 C143 1.363 . S
C144 N146 1.375 . S
C144 H162 0.931 . S
C145 N142 1.311 . S
C145 N146 1.347 . S
C145 H156 0.929 . S
N146 C144 1.375 . S
N146 C145 1.347 . S
C147 C150 1.365 . S
C147 N152 1.328 . S
C147 H153 0.929 . S
C148 C149 1.362 . S
C148 C151 1.378 . S
C148 H163 0.929 . S
C149 C148 1.362 . S
C149 C150 1.366 . S
C150 C147 1.365 . S
C150 C149 1.366 . S
C150 H164 0.930 . S
C151 C148 1.378 . S
C151 N152 1.315 . S
C151 H154 0.930 . S
N152 Co132 2.194 . S
N152 C147 1.328 . S
N152 C151 1.315 . S
H153 C147 0.929 . S
H154 C151 0.930 . S
H155 C143 0.929 . S
H156 C145 0.929 . S
O157 Co132 2.351 . S
O157 C160 1.244 . S
O158 Co132 2.155 . S
O158 C160 1.240 . S
O159 Co132 2.096 . S
O159 C140 1.247 . S
C160 O157 1.244 . S
C160 O158 1.240 . S
H161 C135 0.931 . S
H162 C144 0.931 . S
H163 C148 0.929 . S
H164 C150 0.930 . S
Co165 N169 2.148 . S
Co165 N175 2.128 1_565 S
Co165 N185 2.194 1_565 S
Co165 O190 2.351 1_565 S
Co165 O191 2.155 1_565 S
Co165 O192 2.096 . S
C166 N169 1.301 . S
C166 N170 1.328 . S
C166 H171 0.930 . S
C167 C168 1.333 . S
C167 N169 1.317 . S
C167 H172 0.930 . S
C168 C167 1.333 . S
C168 N170 1.350 . S
C168 H194 0.931 . S
N169 Co165 2.148 . S
N169 C166 1.301 . S
N169 C167 1.317 . S
N170 C166 1.328 . S
N170 C168 1.350 . S
H171 C166 0.930 . S
H172 C167 0.930 . S
C173 O174 1.224 . S
C173 O192 1.247 . S
O174 C173 1.224 . S
N175 Co165 2.128 1_545 S
N175 C176 1.355 . S
N175 C178 1.311 . S
C176 N175 1.355 . S
C176 C177 1.363 . S
C176 H188 0.929 . S
C177 C176 1.363 . S
C177 N179 1.375 . S
C177 H195 0.931 . S
C178 N175 1.311 . S
C178 N179 1.347 . S
C178 H189 0.929 . S
N179 C177 1.375 . S
N179 C178 1.347 . S
C180 C183 1.365 . S
C180 N185 1.328 . S
C180 H186 0.929 . S
C181 C182 1.362 . S
C181 C184 1.375 1_545 S
C181 H196 0.930 . S
C182 C181 1.362 . S
C182 C183 1.366 . S
C183 C180 1.365 . S
C183 C182 1.366 . S
C183 H197 0.930 . S
C184 C181 1.375 1_565 S
C184 N185 1.314 1_565 S
C184 H187 0.935 . S
N185 Co165 2.194 1_545 S
N185 C180 1.328 . S
N185 C184 1.314 1_545 S
H186 C180 0.929 . S
H187 C184 0.935 . S
H188 C176 0.929 . S
H189 C178 0.929 . S
O190 Co165 2.351 1_545 S
O190 C193 1.244 . S
O191 Co165 2.155 1_545 S
O191 C193 1.240 . S
O192 Co165 2.096 . S
O192 C173 1.247 . S
C193 O190 1.244 . S
C193 O191 1.240 . S
H194 C168 0.931 . S
H195 C177 0.931 . S
H196 C181 0.930 . S
H197 C183 0.930 . S
Co198 N202 2.148 . S
Co198 N208 2.128 . S
Co198 N218 2.194 . S
Co198 O223 2.351 . S
Co198 O224 2.155 . S
Co198 O225 2.096 . S
C199 N202 1.301 . S
C199 N203 1.328 . S
C199 H204 0.930 . S
C200 C201 1.333 . S
C200 N202 1.317 . S
C200 H205 0.930 . S
C201 C200 1.333 . S
C201 N203 1.350 . S
C201 H227 0.931 . S
N202 Co198 2.148 . S
N202 C199 1.301 . S
N202 C200 1.317 . S
N203 C199 1.328 . S
N203 C201 1.350 . S
H204 C199 0.930 . S
H205 C200 0.930 . S
C206 O207 1.224 . S
C206 O225 1.247 . S
O207 C206 1.224 . S
N208 Co198 2.128 . S
N208 C209 1.355 . S
N208 C211 1.311 . S
C209 N208 1.355 . S
C209 C210 1.363 . S
C209 H221 0.929 . S
C210 C209 1.363 . S
C210 N212 1.375 . S
C210 H228 0.931 . S
C211 N208 1.311 . S
C211 N212 1.347 . S
C211 H222 0.929 . S
N212 C210 1.375 . S
N212 C211 1.347 . S
C213 C216 1.365 . S
C213 N218 1.328 . S
C213 H219 0.929 . S
C214 C215 1.362 . S
C214 C217 1.378 . S
C214 H229 0.929 . S
C215 C214 1.362 . S
C215 C216 1.366 . S
C216 C213 1.365 . S
C216 C215 1.366 . S
C216 H230 0.930 . S
C217 C214 1.378 . S
C217 N218 1.315 . S
C217 H220 0.930 . S
N218 Co198 2.194 . S
N218 C213 1.328 . S
N218 C217 1.315 . S
H219 C213 0.929 . S
H220 C217 0.930 . S
H221 C209 0.929 . S
H222 C211 0.929 . S
O223 Co198 2.351 . S
O223 C226 1.244 . S
O224 Co198 2.155 . S
O224 C226 1.240 . S
O225 Co198 2.096 . S
O225 C206 1.247 . S
C226 O223 1.244 . S
C226 O224 1.240 . S
H227 C201 0.931 . S
H228 C210 0.931 . S
H229 C214 0.929 . S
H230 C216 0.930 . S
Co231 N235 2.148 . S
Co231 N241 2.128 . S
Co231 N251 2.194 . S
Co231 O256 2.351 . S
Co231 O257 2.155 . S
Co231 O258 2.096 . S
C232 N235 1.301 . S
C232 N236 1.328 . S
C232 H237 0.930 . S
C233 C234 1.333 . S
C233 N235 1.317 . S
C233 H238 0.930 . S
C234 C233 1.333 . S
C234 N236 1.350 . S
C234 H260 0.931 . S
N235 Co231 2.148 . S
N235 C232 1.301 . S
N235 C233 1.317 . S
N236 C232 1.328 . S
N236 C234 1.350 . S
H237 C232 0.930 . S
H238 C233 0.930 . S
C239 O240 1.224 . S
C239 O258 1.247 . S
O240 C239 1.224 . S
N241 Co231 2.128 . S
N241 C242 1.355 . S
N241 C244 1.311 . S
C242 N241 1.355 . S
C242 C243 1.363 . S
C242 H254 0.929 . S
C243 C242 1.363 . S
C243 N245 1.375 . S
C243 H261 0.931 . S
C244 N241 1.311 . S
C244 N245 1.347 . S
C244 H255 0.929 . S
N245 C243 1.375 . S
N245 C244 1.347 . S
C246 C249 1.365 . S
C246 N251 1.328 . S
C246 H252 0.929 . S
C247 C248 1.362 . S
C247 C250 1.378 . S
C247 H262 0.929 . S
C248 C247 1.362 . S
C248 C249 1.366 . S
C249 C246 1.365 . S
C249 C248 1.366 . S
C249 H263 0.930 . S
C250 C247 1.378 . S
C250 N251 1.315 . S
C250 H253 0.930 . S
N251 Co231 2.194 . S
N251 C246 1.328 . S
N251 C250 1.315 . S
H252 C246 0.929 . S
H253 C250 0.930 . S
H254 C242 0.929 . S
H255 C244 0.929 . S
O256 Co231 2.351 . S
O256 C259 1.244 . S
O257 Co231 2.155 . S
O257 C259 1.240 . S
O258 Co231 2.096 . S
O258 C239 1.247 . S
C259 O256 1.244 . S
C259 O257 1.240 . S
H260 C234 0.931 . S
H261 C243 0.931 . S
H262 C247 0.929 . S
H263 C249 0.930 . S
Co264 N268 2.148 . S
Co264 N274 2.128 . S
Co264 N284 2.194 . S
Co264 O289 2.351 . S
Co264 O290 2.155 . S
Co264 O291 2.096 . S
C265 N268 1.301 . S
C265 N269 1.328 . S
C265 H270 0.930 . S
C266 C267 1.333 . S
C266 N268 1.317 . S
C266 H271 0.930 . S
C267 C266 1.333 . S
C267 N269 1.350 . S
C267 H293 0.931 . S
N268 Co264 2.148 . S
N268 C265 1.301 . S
N268 C266 1.317 . S
N269 C265 1.328 . S
N269 C267 1.350 . S
H270 C265 0.930 . S
H271 C266 0.930 . S
C272 O273 1.224 . S
C272 O291 1.247 . S
O273 C272 1.224 . S
N274 Co264 2.128 . S
N274 C275 1.355 . S
N274 C277 1.311 . S
C275 N274 1.355 . S
C275 C276 1.363 . S
C275 H287 0.929 . S
C276 C275 1.363 . S
C276 N278 1.375 . S
C276 H294 0.931 . S
C277 N274 1.311 . S
C277 N278 1.347 . S
C277 H288 0.929 . S
N278 C276 1.375 . S
N278 C277 1.347 . S
C279 C282 1.365 . S
C279 N284 1.328 . S
C279 H285 0.929 . S
C280 C281 1.362 . S
C280 C283 1.378 . S
C280 H295 0.929 . S
C281 C280 1.362 . S
C281 C282 1.366 . S
C282 C279 1.365 . S
C282 C281 1.366 . S
C282 H296 0.930 . S
C283 C280 1.378 . S
C283 N284 1.315 . S
C283 H286 0.930 . S
N284 Co264 2.194 . S
N284 C279 1.328 . S
N284 C283 1.315 . S
H285 C279 0.929 . S
H286 C283 0.930 . S
H287 C275 0.929 . S
H288 C277 0.929 . S
O289 Co264 2.351 . S
O289 C292 1.244 . S
O290 Co264 2.155 . S
O290 C292 1.240 . S
O291 Co264 2.096 . S
O291 C272 1.247 . S
C292 O289 1.244 . S
C292 O290 1.240 . S
H293 C267 0.931 . S
H294 C276 0.931 . S
H295 C280 0.929 . S
H296 C282 0.930 . S
Co297 N301 2.148 . S
Co297 N307 2.128 . S
Co297 N317 2.194 . S
Co297 O322 2.351 . S
Co297 O323 2.155 . S
Co297 O324 2.096 . S
C298 N301 1.301 . S
C298 N302 1.328 . S
C298 H303 0.930 . S
C299 C300 1.333 . S
C299 N301 1.317 . S
C299 H304 0.930 . S
C300 C299 1.333 . S
C300 N302 1.350 . S
C300 H326 0.931 . S
N301 Co297 2.148 . S
N301 C298 1.301 . S
N301 C299 1.317 . S
N302 C298 1.328 . S
N302 C300 1.350 . S
H303 C298 0.930 . S
H304 C299 0.930 . S
C305 O306 1.224 . S
C305 O324 1.247 . S
O306 C305 1.224 . S
N307 Co297 2.128 . S
N307 C308 1.355 . S
N307 C310 1.311 . S
C308 N307 1.355 . S
C308 C309 1.363 . S
C308 H320 0.929 . S
C309 C308 1.363 . S
C309 N311 1.375 . S
C309 H327 0.931 . S
C310 N307 1.311 . S
C310 N311 1.347 . S
C310 H321 0.929 . S
N311 C309 1.375 . S
N311 C310 1.347 . S
C312 C315 1.365 . S
C312 N317 1.328 . S
C312 H318 0.929 . S
C313 C314 1.362 . S
C313 C316 1.378 . S
C313 H328 0.929 1_554 S
C314 C313 1.362 . S
C314 C315 1.366 . S
C315 C312 1.365 . S
C315 C314 1.366 . S
C315 H329 0.930 . S
C316 C313 1.378 . S
C316 N317 1.315 . S
C316 H319 0.930 . S
N317 Co297 2.194 . S
N317 C312 1.328 . S
N317 C316 1.315 . S
H318 C312 0.929 . S
H319 C316 0.930 . S
H320 C308 0.929 . S
H321 C310 0.929 . S
O322 Co297 2.351 . S
O322 C325 1.244 . S
O323 Co297 2.155 . S
O323 C325 1.240 . S
O324 Co297 2.096 . S
O324 C305 1.247 . S
C325 O322 1.244 . S
C325 O323 1.240 . S
H326 C300 0.931 . S
H327 C309 0.931 . S
H328 C313 0.929 1_556 S
H329 C315 0.930 . S
Co330 N334 2.148 . S
Co330 N340 2.128 . S
Co330 N350 2.194 . S
Co330 O355 2.351 . S
Co330 O356 2.155 . S
Co330 O357 2.096 . S
C331 N334 1.301 . S
C331 N335 1.328 . S
C331 H336 0.930 . S
C332 C333 1.333 . S
C332 N334 1.317 . S
C332 H337 0.930 . S
C333 C332 1.333 . S
C333 N335 1.350 . S
C333 H359 0.931 . S
N334 Co330 2.148 . S
N334 C331 1.301 . S
N334 C332 1.317 . S
N335 C331 1.328 . S
N335 C333 1.350 . S
H336 C331 0.930 . S
H337 C332 0.930 . S
C338 O339 1.224 . S
C338 O357 1.247 . S
O339 C338 1.224 . S
N340 Co330 2.128 . S
N340 C341 1.355 . S
N340 C343 1.311 . S
C341 N340 1.355 . S
C341 C342 1.363 . S
C341 H353 0.929 . S
C342 C341 1.363 . S
C342 N344 1.375 . S
C342 H360 0.931 . S
C343 N340 1.311 . S
C343 N344 1.347 . S
C343 H354 0.929 . S
N344 C342 1.375 . S
N344 C343 1.347 . S
C345 C348 1.365 . S
C345 N350 1.328 . S
C345 H351 0.929 . S
C346 C347 1.362 . S
C346 C349 1.378 . S
C346 H361 0.929 1_554 S
C347 C346 1.362 . S
C347 C348 1.366 . S
C348 C345 1.365 . S
C348 C347 1.366 . S
C348 H362 0.930 . S
C349 C346 1.378 . S
C349 N350 1.315 . S
C349 H352 0.930 . S
N350 Co330 2.194 . S
N350 C345 1.328 . S
N350 C349 1.315 . S
H351 C345 0.929 . S
H352 C349 0.930 . S
H353 C341 0.929 . S
H354 C343 0.929 . S
O355 Co330 2.351 . S
O355 C358 1.244 . S
O356 Co330 2.155 . S
O356 C358 1.240 . S
O357 Co330 2.096 . S
O357 C338 1.247 . S
C358 O355 1.244 . S
C358 O356 1.240 . S
H359 C333 0.931 . S
H360 C342 0.931 . S
H361 C346 0.929 1_556 S
H362 C348 0.930 . S
Co363 N367 2.148 . S
Co363 N373 2.128 . S
Co363 N383 2.194 . S
Co363 O388 2.351 . S
Co363 O389 2.155 . S
Co363 O390 2.096 . S
C364 N367 1.301 . S
C364 N368 1.328 . S
C364 H369 0.930 . S
C365 C366 1.333 . S
C365 N367 1.317 . S
C365 H370 0.930 . S
C366 C365 1.333 . S
C366 N368 1.350 . S
C366 H392 0.931 . S
N367 Co363 2.148 . S
N367 C364 1.301 . S
N367 C365 1.317 . S
N368 C364 1.328 . S
N368 C366 1.350 . S
H369 C364 0.930 . S
H370 C365 0.930 . S
C371 O372 1.224 . S
C371 O390 1.247 . S
O372 C371 1.224 . S
N373 Co363 2.128 . S
N373 C374 1.355 . S
N373 C376 1.311 . S
C374 N373 1.355 . S
C374 C375 1.363 . S
C374 H386 0.929 . S
C375 C374 1.363 . S
C375 N377 1.375 . S
C375 H393 0.931 . S
C376 N373 1.311 . S
C376 N377 1.347 . S
C376 H387 0.929 . S
N377 C375 1.375 . S
N377 C376 1.347 . S
C378 C381 1.365 . S
C378 N383 1.328 . S
C378 H384 0.929 . S
C379 C380 1.362 . S
C379 C382 1.378 . S
C379 H394 0.929 1_554 S
C380 C379 1.362 . S
C380 C381 1.366 . S
C381 C378 1.365 . S
C381 C380 1.366 . S
C381 H395 0.930 . S
C382 C379 1.378 . S
C382 N383 1.315 . S
C382 H385 0.930 . S
N383 Co363 2.194 . S
N383 C378 1.328 . S
N383 C382 1.315 . S
H384 C378 0.929 . S
H385 C382 0.930 . S
H386 C374 0.929 . S
H387 C376 0.929 . S
O388 Co363 2.351 . S
O388 C391 1.244 . S
O389 Co363 2.155 . S
O389 C391 1.240 . S
O390 Co363 2.096 . S
O390 C371 1.247 . S
C391 O388 1.244 . S
C391 O389 1.240 . S
H392 C366 0.931 . S
H393 C375 0.931 . S
H394 C379 0.929 1_556 S
H395 C381 0.930 . S
Co396 N400 2.148 . S
Co396 N406 2.128 . S
Co396 N416 2.194 . S
Co396 O421 2.351 . S
Co396 O422 2.155 . S
Co396 O423 2.096 . S
C397 N400 1.301 . S
C397 N401 1.328 . S
C397 H402 0.930 . S
C398 C399 1.333 . S
C398 N400 1.317 . S
C398 H403 0.930 . S
C399 C398 1.333 . S
C399 N401 1.350 . S
C399 H425 0.931 . S
N400 Co396 2.148 . S
N400 C397 1.301 . S
N400 C398 1.317 . S
N401 C397 1.328 . S
N401 C399 1.350 . S
H402 C397 0.930 . S
H403 C398 0.930 . S
C404 O405 1.224 . S
C404 O423 1.247 . S
O405 C404 1.224 . S
N406 Co396 2.128 . S
N406 C407 1.355 . S
N406 C409 1.311 . S
C407 N406 1.355 . S
C407 C408 1.363 . S
C407 H419 0.929 . S
C408 C407 1.363 . S
C408 N410 1.375 . S
C408 H426 0.931 . S
C409 N406 1.311 . S
C409 N410 1.347 . S
C409 H420 0.929 . S
N410 C408 1.375 . S
N410 C409 1.347 . S
C411 C414 1.365 . S
C411 N416 1.328 . S
C411 H417 0.929 . S
C412 C413 1.362 . S
C412 C415 1.378 . S
C412 H427 0.929 1_556 S
C413 C412 1.362 . S
C413 C414 1.366 . S
C414 C411 1.365 . S
C414 C413 1.366 . S
C414 H428 0.930 . S
C415 C412 1.378 . S
C415 N416 1.315 . S
C415 H418 0.930 . S
N416 Co396 2.194 . S
N416 C411 1.328 . S
N416 C415 1.315 . S
H417 C411 0.929 . S
H418 C415 0.930 . S
H419 C407 0.929 . S
H420 C409 0.929 . S
O421 Co396 2.351 . S
O421 C424 1.244 . S
O422 Co396 2.155 . S
O422 C424 1.240 . S
O423 Co396 2.096 . S
O423 C404 1.247 . S
C424 O421 1.244 . S
C424 O422 1.240 . S
H425 C399 0.931 . S
H426 C408 0.931 . S
H427 C412 0.929 1_554 S
H428 C414 0.930 . S
Co429 N433 2.148 . S
Co429 N439 2.128 . S
Co429 N449 2.194 . S
Co429 O454 2.351 . S
Co429 O455 2.155 . S
Co429 O456 2.096 . S
C430 N433 1.301 . S
C430 N434 1.328 . S
C430 H435 0.930 . S
C431 C432 1.333 . S
C431 N433 1.317 . S
C431 H436 0.930 . S
C432 C431 1.333 . S
C432 N434 1.350 . S
C432 H458 0.931 . S
N433 Co429 2.148 . S
N433 C430 1.301 . S
N433 C431 1.317 . S
N434 C430 1.328 . S
N434 C432 1.350 . S
H435 C430 0.930 . S
H436 C431 0.930 . S
C437 O438 1.224 . S
C437 O456 1.247 . S
O438 C437 1.224 . S
N439 Co429 2.128 . S
N439 C440 1.355 . S
N439 C442 1.311 . S
C440 N439 1.355 . S
C440 C441 1.363 . S
C440 H452 0.929 . S
C441 C440 1.363 . S
C441 N443 1.375 . S
C441 H459 0.931 . S
C442 N439 1.311 . S
C442 N443 1.347 . S
C442 H453 0.929 . S
N443 C441 1.375 . S
N443 C442 1.347 . S
C444 C447 1.365 . S
C444 N449 1.328 . S
C444 H450 0.929 . S
C445 C446 1.362 . S
C445 C448 1.378 . S
C445 H460 0.929 1_556 S
C446 C445 1.362 . S
C446 C447 1.366 . S
C447 C444 1.365 . S
C447 C446 1.366 . S
C447 H461 0.930 . S
C448 C445 1.378 . S
C448 N449 1.315 . S
C448 H451 0.930 . S
N449 Co429 2.194 . S
N449 C444 1.328 . S
N449 C448 1.315 . S
H450 C444 0.929 . S
H451 C448 0.930 . S
H452 C440 0.929 . S
H453 C442 0.929 . S
O454 Co429 2.351 . S
O454 C457 1.244 . S
O455 Co429 2.155 . S
O455 C457 1.240 . S
O456 Co429 2.096 . S
O456 C437 1.247 . S
C457 O454 1.244 . S
C457 O455 1.240 . S
H458 C432 0.931 . S
H459 C441 0.931 . S
H460 C445 0.929 1_554 S
H461 C447 0.930 . S
Co462 N466 2.148 . S
Co462 N472 2.128 . S
Co462 N482 2.194 . S
Co462 O487 2.351 . S
Co462 O488 2.155 . S
Co462 O489 2.096 . S
C463 N466 1.301 . S
C463 N467 1.328 . S
C463 H468 0.930 . S
C464 C465 1.333 . S
C464 N466 1.317 . S
C464 H469 0.930 . S
C465 C464 1.333 . S
C465 N467 1.350 . S
C465 H491 0.931 . S
N466 Co462 2.148 . S
N466 C463 1.301 . S
N466 C464 1.317 . S
N467 C463 1.328 . S
N467 C465 1.350 . S
H468 C463 0.930 . S
H469 C464 0.930 . S
C470 O471 1.224 . S
C470 O489 1.247 . S
O471 C470 1.224 . S
N472 Co462 2.128 . S
N472 C473 1.355 . S
N472 C475 1.311 . S
C473 N472 1.355 . S
C473 C474 1.363 . S
C473 H485 0.929 . S
C474 C473 1.363 . S
C474 N476 1.375 . S
C474 H492 0.931 . S
C475 N472 1.311 . S
C475 N476 1.347 . S
C475 H486 0.929 . S
N476 C474 1.375 . S
N476 C475 1.347 . S
C477 C480 1.365 . S
C477 N482 1.328 . S
C477 H483 0.929 . S
C478 C479 1.362 . S
C478 C481 1.378 . S
C478 H493 0.929 1_556 S
C479 C478 1.362 . S
C479 C480 1.366 . S
C480 C477 1.365 . S
C480 C479 1.366 . S
C480 H494 0.930 . S
C481 C478 1.378 . S
C481 N482 1.315 . S
C481 H484 0.930 . S
N482 Co462 2.194 . S
N482 C477 1.328 . S
N482 C481 1.315 . S
H483 C477 0.929 . S
H484 C481 0.930 . S
H485 C473 0.929 . S
H486 C475 0.929 . S
O487 Co462 2.351 . S
O487 C490 1.244 . S
O488 Co462 2.155 . S
O488 C490 1.240 . S
O489 Co462 2.096 . S
O489 C470 1.247 . S
C490 O487 1.244 . S
C490 O488 1.240 . S
H491 C465 0.931 . S
H492 C474 0.931 . S
H493 C478 0.929 1_554 S
H494 C480 0.930 . S
Co495 N499 2.148 . S
Co495 N505 2.128 . S
Co495 N515 2.194 . S
Co495 O520 2.351 . S
Co495 O521 2.155 . S
Co495 O522 2.096 . S
C496 N499 1.301 . S
C496 N500 1.328 . S
C496 H501 0.930 . S
C497 C498 1.333 . S
C497 N499 1.317 . S
C497 H502 0.930 . S
C498 C497 1.333 . S
C498 N500 1.350 . S
C498 H524 0.931 . S
N499 Co495 2.148 . S
N499 C496 1.301 . S
N499 C497 1.317 . S
N500 C496 1.328 . S
N500 C498 1.350 . S
H501 C496 0.930 . S
H502 C497 0.930 . S
C503 O504 1.224 . S
C503 O522 1.247 . S
O504 C503 1.224 . S
N505 Co495 2.128 . S
N505 C506 1.355 . S
N505 C508 1.311 . S
C506 N505 1.355 . S
C506 C507 1.363 . S
C506 H518 0.929 . S
C507 C506 1.363 . S
C507 N509 1.375 . S
C507 H525 0.931 . S
C508 N505 1.311 . S
C508 N509 1.347 . S
C508 H519 0.929 . S
N509 C507 1.375 . S
N509 C508 1.347 . S
C510 C513 1.365 . S
C510 N515 1.328 . S
C510 H516 0.929 . S
C511 C512 1.362 . S
C511 C514 1.378 . S
C511 H526 0.929 . S
C512 C511 1.362 . S
C512 C513 1.366 . S
C513 C510 1.365 . S
C513 C512 1.366 . S
C513 H527 0.930 . S
C514 C511 1.378 . S
C514 N515 1.315 . S
C514 H517 0.930 . S
N515 Co495 2.194 . S
N515 C510 1.328 . S
N515 C514 1.315 . S
H516 C510 0.929 . S
H517 C514 0.930 . S
H518 C506 0.929 . S
H519 C508 0.929 . S
O520 Co495 2.351 . S
O520 C523 1.244 . S
O521 Co495 2.155 . S
O521 C523 1.240 . S
O522 Co495 2.096 . S
O522 C503 1.247 . S
C523 O520 1.244 . S
C523 O521 1.240 . S
H524 C498 0.931 . S
H525 C507 0.931 . S
H526 C511 0.929 . S
H527 C513 0.930 . S
Co528 N532 2.148 . S
Co528 N538 2.128 . S
Co528 N548 2.194 . S
Co528 O553 2.351 . S
Co528 O554 2.155 . S
Co528 O555 2.096 . S
C529 N532 1.301 . S
C529 N533 1.328 . S
C529 H534 0.930 . S
C530 C531 1.333 . S
C530 N532 1.317 . S
C530 H535 0.930 . S
C531 C530 1.333 . S
C531 N533 1.350 . S
C531 H557 0.931 . S
N532 Co528 2.148 . S
N532 C529 1.301 . S
N532 C530 1.317 . S
N533 C529 1.328 . S
N533 C531 1.350 . S
H534 C529 0.930 . S
H535 C530 0.930 . S
C536 O537 1.224 . S
C536 O555 1.247 . S
O537 C536 1.224 . S
N538 Co528 2.128 . S
N538 C539 1.355 . S
N538 C541 1.311 . S
C539 N538 1.355 . S
C539 C540 1.363 . S
C539 H551 0.929 . S
C540 C539 1.363 . S
C540 N542 1.375 . S
C540 H558 0.931 . S
C541 N538 1.311 . S
C541 N542 1.347 . S
C541 H552 0.929 . S
N542 C540 1.375 . S
N542 C541 1.347 . S
C543 C546 1.365 . S
C543 N548 1.328 . S
C543 H549 0.929 . S
C544 C545 1.362 . S
C544 C547 1.378 . S
C544 H559 0.929 . S
C545 C544 1.362 . S
C545 C546 1.366 . S
C546 C543 1.365 . S
C546 C545 1.366 . S
C546 H560 0.930 . S
C547 C544 1.378 . S
C547 N548 1.315 . S
C547 H550 0.930 . S
N548 Co528 2.194 . S
N548 C543 1.328 . S
N548 C547 1.315 . S
H549 C543 0.929 . S
H550 C547 0.930 . S
H551 C539 0.929 . S
H552 C541 0.929 . S
O553 Co528 2.351 . S
O553 C556 1.244 . S
O554 Co528 2.155 . S
O554 C556 1.240 . S
O555 Co528 2.096 . S
O555 C536 1.247 . S
C556 O553 1.244 . S
C556 O554 1.240 . S
H557 C531 0.931 . S
H558 C540 0.931 . S
H559 C544 0.929 . S
H560 C546 0.930 . S
Co561 N565 2.148 . S
Co561 N571 2.128 . S
Co561 N581 2.194 . S
Co561 O586 2.351 . S
Co561 O587 2.155 . S
Co561 O588 2.096 . S
C562 N565 1.301 . S
C562 N566 1.328 . S
C562 H567 0.930 . S
C563 C564 1.333 . S
C563 N565 1.317 . S
C563 H568 0.930 . S
C564 C563 1.333 . S
C564 N566 1.350 . S
C564 H590 0.931 . S
N565 Co561 2.148 . S
N565 C562 1.301 . S
N565 C563 1.317 . S
N566 C562 1.328 . S
N566 C564 1.350 . S
H567 C562 0.930 . S
H568 C563 0.930 . S
C569 O570 1.224 . S
C569 O588 1.247 . S
O570 C569 1.224 . S
N571 Co561 2.128 . S
N571 C572 1.355 . S
N571 C574 1.311 . S
C572 N571 1.355 . S
C572 C573 1.363 . S
C572 H584 0.929 . S
C573 C572 1.363 . S
C573 N575 1.375 . S
C573 H591 0.931 . S
C574 N571 1.311 . S
C574 N575 1.347 . S
C574 H585 0.929 . S
N575 C573 1.375 . S
N575 C574 1.347 . S
C576 C579 1.365 . S
C576 N581 1.328 . S
C576 H582 0.929 . S
C577 C578 1.362 . S
C577 C580 1.378 . S
C577 H592 0.929 . S
C578 C577 1.362 . S
C578 C579 1.366 . S
C579 C576 1.365 . S
C579 C578 1.366 . S
C579 H593 0.930 . S
C580 C577 1.378 . S
C580 N581 1.315 . S
C580 H583 0.930 . S
N581 Co561 2.194 . S
N581 C576 1.328 . S
N581 C580 1.315 . S
H582 C576 0.929 . S
H583 C580 0.930 . S
H584 C572 0.929 . S
H585 C574 0.929 . S
O586 Co561 2.351 . S
O586 C589 1.244 . S
O587 Co561 2.155 . S
O587 C589 1.240 . S
O588 Co561 2.096 . S
O588 C569 1.247 . S
C589 O586 1.244 . S
C589 O587 1.240 . S
H590 C564 0.931 . S
H591 C573 0.931 . S
H592 C577 0.929 . S
H593 C579 0.930 . S
H594 C602 0.929 . S
H595 C604 0.930 . S
H596 C606 0.930 . S
H597 C609 0.929 . S
H598 C612 0.930 . S
H599 C614 0.960 . S
H600 C614 0.960 . S
H601 C614 0.960 . S
C602 H594 0.929 . S
C602 C603 1.377 . S
C602 C604 1.384 . S
C603 C602 1.377 . S
C603 C609 1.390 . S
C604 H595 0.930 . S
C604 C602 1.384 . S
C604 C605 1.372 . S
C605 C604 1.372 . S
C605 C606 1.400 . S
C605 C610 1.490 . S
C606 H596 0.930 . S
C606 C605 1.400 . S
C606 C609 1.386 . S
H607 C623 0.930 . S
H608 C624 0.931 . S
C609 H597 0.929 . S
C609 C603 1.390 . S
C609 C606 1.386 . S
C610 C605 1.490 . S
C610 C612 1.395 . S
C610 C613 1.403 . S
H611 C617 0.930 . S
C612 H598 0.930 . S
C612 C610 1.395 . S
C612 C615 1.403 . S
C613 C610 1.403 . S
C613 C614 1.524 . S
C613 C617 1.400 . S
C614 H599 0.960 . S
C614 H600 0.960 . S
C614 H601 0.960 . S
C614 C613 1.524 . S
C615 C612 1.403 . S
C615 C616 1.392 . S
C615 C619 1.495 . S
C616 C615 1.392 . S
C616 C617 1.385 . S
C616 C618 1.478 . S
C617 H611 0.930 . S
C617 C613 1.400 . S
C617 C616 1.385 . S
C618 C616 1.478 . S
C618 C620 1.381 . S
C618 C624 1.383 . S
C619 C615 1.495 . S
C619 H625 0.959 . S
C619 H626 0.961 . S
C619 H627 0.960 . S
C620 C618 1.381 . S
C620 C621 1.394 . S
C620 H628 0.930 . S
C621 C620 1.394 . S
C621 C622 1.383 . S
C621 H629 0.929 . S
C622 C621 1.383 . S
C622 C623 1.377 . S
C623 H607 0.930 . S
C623 C622 1.377 . S
C623 C624 1.379 . S
C624 H608 0.931 . S
C624 C618 1.383 . S
C624 C623 1.379 . S
H625 C619 0.959 . S
H626 C619 0.961 . S
H627 C619 0.960 . S
H628 C620 0.930 . S
H629 C621 0.929 . S
H630 C638 0.929 . S
H631 C640 0.930 . S
H632 C642 0.930 . S
H633 C645 0.929 . S
H634 C648 0.930 . S
H635 C650 0.960 1_545 S
H636 C650 0.960 . S
H637 C650 0.960 . S
C638 H630 0.929 . S
C638 C639 1.377 . S
C638 C640 1.384 . S
C639 C638 1.377 . S
C639 C645 1.390 . S
C640 H631 0.930 . S
C640 C638 1.384 . S
C640 C641 1.372 . S
C641 C640 1.372 . S
C641 C642 1.400 . S
C641 C646 1.490 . S
C642 H632 0.930 . S
C642 C641 1.400 . S
C642 C645 1.386 . S
H643 C659 0.930 . S
H644 C660 0.931 . S
C645 H633 0.929 . S
C645 C639 1.390 . S
C645 C642 1.386 . S
C646 C641 1.490 . S
C646 C648 1.395 . S
C646 C649 1.403 1_565 S
H647 C653 0.930 . S
C648 H634 0.930 . S
C648 C646 1.395 . S
C648 C651 1.403 1_565 S
C649 C646 1.403 1_545 S
C649 C650 1.524 1_545 S
C649 C653 1.400 . S
C650 H635 0.960 1_565 S
C650 H636 0.960 . S
C650 H637 0.960 . S
C650 C649 1.524 1_565 S
C651 C648 1.403 1_545 S
C651 C652 1.392 . S
C651 C655 1.495 . S
C652 C651 1.392 . S
C652 C653 1.385 . S
C652 C654 1.478 . S
C653 H647 0.930 . S
C653 C649 1.400 . S
C653 C652 1.385 . S
C654 C652 1.478 . S
C654 C656 1.381 . S
C654 C660 1.383 . S
C655 C651 1.495 . S
C655 H661 0.959 . S
C655 H662 0.961 . S
C655 H663 0.960 . S
C656 C654 1.381 . S
C656 C657 1.394 . S
C656 H664 0.930 . S
C657 C656 1.394 . S
C657 C658 1.383 . S
C657 H665 0.929 . S
C658 C657 1.383 . S
C658 C659 1.377 . S
C659 H643 0.930 . S
C659 C658 1.377 . S
C659 C660 1.379 . S
C660 H644 0.931 . S
C660 C654 1.383 . S
C660 C659 1.379 . S
H661 C655 0.959 . S
H662 C655 0.961 . S
H663 C655 0.960 . S
H664 C656 0.930 . S
H665 C657 0.929 . S
H666 C674 0.929 . S
H667 C676 0.930 . S
H668 C678 0.930 . S
H669 C681 0.929 . S
H670 C684 0.930 . S
H671 C686 0.960 . S
H672 C686 0.960 . S
H673 C686 0.960 . S
C674 H666 0.929 . S
C674 C675 1.377 . S
C674 C676 1.384 . S
C675 C674 1.377 . S
C675 C681 1.390 . S
C676 H667 0.930 . S
C676 C674 1.384 . S
C676 C677 1.372 . S
C677 C676 1.372 . S
C677 C678 1.400 . S
C677 C682 1.490 . S
C678 H668 0.930 . S
C678 C677 1.400 . S
C678 C681 1.386 . S
H679 C695 0.930 . S
H680 C696 0.931 . S
C681 H669 0.929 . S
C681 C675 1.390 . S
C681 C678 1.386 . S
C682 C677 1.490 . S
C682 C684 1.395 . S
C682 C685 1.403 . S
H683 C689 0.930 . S
C684 H670 0.930 . S
C684 C682 1.395 . S
C684 C687 1.403 1_655 S
C685 C682 1.403 . S
C685 C686 1.524 . S
C685 C689 1.400 1_655 S
C686 H671 0.960 . S
C686 H672 0.960 . S
C686 H673 0.960 . S
C686 C685 1.524 . S
C687 C684 1.403 1_455 S
C687 C688 1.392 . S
C687 C691 1.495 . S
C688 C687 1.392 . S
C688 C689 1.385 . S
C688 C690 1.478 . S
C689 H683 0.930 . S
C689 C685 1.400 1_455 S
C689 C688 1.385 . S
C690 C688 1.478 . S
C690 C692 1.381 . S
C690 C696 1.383 . S
C691 C687 1.495 . S
C691 H697 0.900 1_455 S
C691 H698 0.961 . S
C691 H699 0.960 . S
C692 C690 1.381 . S
C692 C693 1.394 . S
C692 H700 0.930 . S
C693 C692 1.394 . S
C693 C694 1.383 . S
C693 H701 0.929 . S
C694 C693 1.383 . S
C694 C695 1.377 . S
C695 H679 0.930 . S
C695 C694 1.377 . S
C695 C696 1.379 . S
C696 H680 0.931 . S
C696 C690 1.383 . S
C696 C695 1.379 . S
H697 C691 0.900 1_655 S
H698 C691 0.961 . S
H699 C691 0.960 . S
H700 C692 0.930 . S
H701 C693 0.929 . S
H702 C710 0.929 . S
H703 C712 0.930 . S
H704 C714 0.930 . S
H705 C717 0.929 . S
H706 C720 0.930 . S
H707 C722 0.960 . S
H708 C722 0.960 . S
H709 C722 0.960 . S
C710 H702 0.929 . S
C710 C711 1.377 . S
C710 C712 1.384 . S
C711 C710 1.377 . S
C711 C717 1.390 . S
C712 H703 0.930 . S
C712 C710 1.384 . S
C712 C713 1.372 . S
C713 C712 1.372 . S
C713 C714 1.400 . S
C713 C718 1.490 . S
C714 H704 0.930 . S
C714 C713 1.400 . S
C714 C717 1.386 . S
H715 C731 0.930 . S
H716 C732 0.931 . S
C717 H705 0.929 . S
C717 C711 1.390 . S
C717 C714 1.386 . S
C718 C713 1.490 . S
C718 C720 1.395 . S
C718 C721 1.403 . S
H719 C725 0.930 . S
C720 H706 0.930 . S
C720 C718 1.395 . S
C720 C723 1.403 . S
C721 C718 1.403 . S
C721 C722 1.524 . S
C721 C725 1.400 . S
C722 H707 0.960 . S
C722 H708 0.960 . S
C722 H709 0.960 . S
C722 C721 1.524 . S
C723 C720 1.403 . S
C723 C724 1.392 . S
C723 C727 1.495 . S
C724 C723 1.392 . S
C724 C725 1.385 . S
C724 C726 1.478 . S
C725 H719 0.930 . S
C725 C721 1.400 . S
C725 C724 1.385 . S
C726 C724 1.478 . S
C726 C728 1.381 . S
C726 C732 1.383 . S
C727 C723 1.495 . S
C727 H733 0.959 . S
C727 H734 0.961 . S
C727 H735 0.960 . S
C728 C726 1.381 . S
C728 C729 1.394 . S
C728 H736 0.930 . S
C729 C728 1.394 . S
C729 C730 1.383 . S
C729 H737 0.929 . S
C730 C729 1.383 . S
C730 C731 1.377 . S
C731 H715 0.930 . S
C731 C730 1.377 . S
C731 C732 1.379 . S
C732 H716 0.931 . S
C732 C726 1.383 . S
C732 C731 1.379 . S
H733 C727 0.959 . S
H734 C727 0.961 . S
H735 C727 0.960 . S
H736 C728 0.930 . S
H737 C729 0.929 . S
H738 C746 0.929 . S
H739 C748 0.930 . S
H740 C750 0.930 . S
H741 C753 0.929 . S
H742 C756 0.930 . S
H743 C758 0.978 . S
H744 C758 0.960 . S
H745 C758 0.960 . S
C746 H738 0.929 . S
C746 C747 1.377 . S
C746 C748 1.384 . S
C747 C746 1.377 . S
C747 C753 1.390 . S
C748 H739 0.930 . S
C748 C746 1.384 . S
C748 C749 1.372 . S
C749 C748 1.372 . S
C749 C750 1.400 . S
C749 C754 1.490 . S
C750 H740 0.930 . S
C750 C749 1.400 . S
C750 C753 1.386 . S
H751 C767 0.930 . S
H752 C768 0.931 . S
C753 H741 0.929 . S
C753 C747 1.390 . S
C753 C750 1.386 . S
C754 C749 1.490 . S
C754 C756 1.395 . S
C754 C757 1.403 . S
H755 C761 0.930 . S
C756 H742 0.930 . S
C756 C754 1.395 . S
C756 C759 1.403 1_545 S
C757 C754 1.403 . S
C757 C758 1.524 . S
C757 C761 1.400 1_545 S
C758 H743 0.978 . S
C758 H744 0.960 . S
C758 H745 0.960 . S
C758 C757 1.524 . S
C759 C756 1.403 1_565 S
C759 C760 1.392 . S
C759 C763 1.495 . S
C760 C759 1.392 . S
C760 C761 1.385 . S
C760 C762 1.478 . S
C761 H755 0.930 . S
C761 C757 1.400 1_565 S
C761 C760 1.385 . S
C762 C760 1.478 . S
C762 C764 1.381 . S
C762 C768 1.383 . S
C763 C759 1.495 . S
C763 H769 0.959 . S
C763 H770 0.961 . S
C763 H771 0.960 . S
C764 C762 1.381 . S
C764 C765 1.394 . S
C764 H772 0.930 . S
C765 C764 1.394 . S
C765 C766 1.383 . S
C765 H773 0.929 . S
C766 C765 1.383 . S
C766 C767 1.377 . S
C767 H751 0.930 . S
C767 C766 1.377 . S
C767 C768 1.379 . S
C768 H752 0.931 . S
C768 C762 1.383 . S
C768 C767 1.379 . S
H769 C763 0.959 . S
H770 C763 0.961 . S
H771 C763 0.960 . S
H772 C764 0.930 . S
H773 C765 0.929 . S
H774 C782 0.929 . S
H775 C784 0.930 . S
H776 C786 0.930 . S
H777 C789 0.929 . S
H778 C792 0.930 . S
H779 C794 0.960 . S
H780 C794 0.960 . S
H781 C794 0.960 . S
C782 H774 0.929 . S
C782 C783 1.377 . S
C782 C784 1.384 . S
C783 C782 1.377 . S
C783 C789 1.390 . S
C784 H775 0.930 . S
C784 C782 1.384 . S
C784 C785 1.372 . S
C785 C784 1.372 . S
C785 C786 1.400 . S
C785 C790 1.490 . S
C786 H776 0.930 . S
C786 C785 1.400 . S
C786 C789 1.386 . S
H787 C803 0.930 . S
H788 C804 0.931 . S
C789 H777 0.929 . S
C789 C783 1.390 . S
C789 C786 1.386 . S
C790 C785 1.490 . S
C790 C792 1.395 . S
C790 C793 1.403 . S
H791 C797 0.976 . S
C792 H778 0.930 . S
C792 C790 1.395 . S
C792 C795 1.400 . S
C793 C790 1.403 . S
C793 C794 1.524 . S
C793 C797 1.357 1_455 S
C794 H779 0.960 . S
C794 H780 0.960 . S
C794 H781 0.960 . S
C794 C793 1.524 . S
C795 C792 1.400 . S
C795 C796 1.396 1_455 S
C795 C799 1.495 1_455 S
C796 C795 1.396 1_655 S
C796 C797 1.385 . S
C796 C798 1.478 . S
C797 H791 0.976 . S
C797 C793 1.357 1_655 S
C797 C796 1.385 . S
C798 C796 1.478 . S
C798 C800 1.381 . S
C798 C804 1.383 . S
C799 C795 1.495 1_655 S
C799 H805 0.956 1_655 S
C799 H806 0.961 . S
C799 H807 0.960 . S
C800 C798 1.381 . S
C800 C801 1.394 . S
C800 H808 0.930 . S
C801 C800 1.394 . S
C801 C802 1.383 . S
C801 H809 0.929 . S
C802 C801 1.383 . S
C802 C803 1.377 . S
C803 H787 0.930 . S
C803 C802 1.377 . S
C803 C804 1.379 . S
C804 H788 0.931 . S
C804 C798 1.383 . S
C804 C803 1.379 . S
H805 C799 0.956 1_455 S
H806 C799 0.961 . S
H807 C799 0.960 . S
H808 C800 0.930 . S
H809 C801 0.929 . S
H810 C818 0.929 . S
H811 C820 0.930 . S
H812 C822 0.930 . S
H813 C825 0.929 . S
H814 C828 0.930 . S
H815 C830 0.960 . S
H816 C830 0.960 . S
H817 C830 0.960 . S
C818 H810 0.929 . S
C818 C819 1.377 . S
C818 C820 1.384 . S
C819 C818 1.377 . S
C819 C825 1.390 . S
C820 H811 0.930 . S
C820 C818 1.384 . S
C820 C821 1.372 . S
C821 C820 1.372 . S
C821 C822 1.400 . S
C821 C826 1.490 . S
C822 H812 0.930 . S
C822 C821 1.400 . S
C822 C825 1.386 . S
H823 C839 0.930 . S
H824 C840 0.931 . S
C825 H813 0.929 . S
C825 C819 1.390 . S
C825 C822 1.386 . S
C826 C821 1.490 . S
C826 C828 1.395 . S
C826 C829 1.403 . S
H827 C833 0.930 . S
C828 H814 0.930 . S
C828 C826 1.395 . S
C828 C831 1.403 . S
C829 C826 1.403 . S
C829 C830 1.524 . S
C829 C833 1.400 . S
C830 H815 0.960 . S
C830 H816 0.960 . S
C830 H817 0.960 . S
C830 C829 1.524 . S
C831 C828 1.403 . S
C831 C832 1.392 . S
C831 C835 1.495 . S
C832 C831 1.392 . S
C832 C833 1.385 . S
C832 C834 1.478 . S
C833 H827 0.930 . S
C833 C829 1.400 . S
C833 C832 1.385 . S
C834 C832 1.478 . S
C834 C836 1.381 . S
C834 C840 1.383 . S
C835 C831 1.495 . S
C835 H841 0.959 . S
C835 H842 0.961 . S
C835 H843 0.960 . S
C836 C834 1.381 . S
C836 C837 1.394 . S
C836 H844 0.930 . S
C837 C836 1.394 . S
C837 C838 1.383 . S
C837 H845 0.929 . S
C838 C837 1.383 . S
C838 C839 1.377 . S
C839 H823 0.930 . S
C839 C838 1.377 . S
C839 C840 1.379 . S
C840 H824 0.931 . S
C840 C834 1.383 . S
C840 C839 1.379 . S
H841 C835 0.959 . S
H842 C835 0.961 . S
H843 C835 0.960 . S
H844 C836 0.930 . S
H845 C837 0.929 . S
H846 C854 0.929 . S
H847 C856 0.930 . S
H848 C858 0.930 . S
H849 C861 0.929 . S
H850 C864 0.930 . S
H851 C866 0.960 . S
H852 C866 0.960 . S
H853 C866 0.960 . S
C854 H846 0.929 . S
C854 C855 1.377 . S
C854 C856 1.384 . S
C855 C854 1.377 . S
C855 C861 1.390 . S
C856 H847 0.930 . S
C856 C854 1.384 . S
C856 C857 1.372 . S
C857 C856 1.372 . S
C857 C858 1.400 . S
C857 C862 1.490 . S
C858 H848 0.930 . S
C858 C857 1.400 . S
C858 C861 1.386 . S
H859 C875 0.930 . S
H860 C876 0.931 . S
C861 H849 0.929 . S
C861 C855 1.390 . S
C861 C858 1.386 . S
C862 C857 1.490 . S
C862 C864 1.395 . S
C862 C865 1.403 . S
H863 C869 0.930 . S
C864 H850 0.930 . S
C864 C862 1.395 . S
C864 C867 1.403 . S
C865 C862 1.403 . S
C865 C866 1.524 . S
C865 C869 1.400 . S
C866 H851 0.960 . S
C866 H852 0.960 . S
C866 H853 0.960 . S
C866 C865 1.524 . S
C867 C864 1.403 . S
C867 C868 1.392 . S
C867 C871 1.495 . S
C868 C867 1.392 . S
C868 C869 1.385 . S
C868 C870 1.478 . S
C869 H863 0.930 . S
C869 C865 1.400 . S
C869 C868 1.385 . S
C870 C868 1.478 . S
C870 C872 1.381 . S
C870 C876 1.383 . S
C871 C867 1.495 . S
C871 H877 0.959 . S
C871 H878 0.961 . S
C871 H879 0.960 . S
C872 C870 1.381 . S
C872 C873 1.394 . S
C872 H880 0.930 . S
C873 C872 1.394 . S
C873 C874 1.383 . S
C873 H881 0.929 . S
C874 C873 1.383 . S
C874 C875 1.377 . S
C875 H859 0.930 . S
C875 C874 1.377 . S
C875 C876 1.379 . S
C876 H860 0.931 . S
C876 C870 1.383 . S
C876 C875 1.379 . S
H877 C871 0.959 . S
H878 C871 0.961 . S
H879 C871 0.960 . S
H880 C872 0.930 . S
H881 C873 0.929 . S
H882 C890 0.929 . S
H883 C892 0.930 . S
H884 C894 0.930 . S
H885 C897 0.929 . S
H886 C900 0.930 . S
H887 C902 0.960 . S
H888 C902 0.960 . S
H889 C902 0.960 . S
C890 H882 0.929 . S
C890 C891 1.377 . S
C890 C892 1.384 . S
C891 C890 1.377 . S
C891 C897 1.390 . S
C892 H883 0.930 . S
C892 C890 1.384 . S
C892 C893 1.372 . S
C893 C892 1.372 . S
C893 C894 1.400 . S
C893 C898 1.490 . S
C894 H884 0.930 . S
C894 C893 1.400 . S
C894 C897 1.386 . S
H895 C911 0.930 . S
H896 C912 0.931 . S
C897 H885 0.929 . S
C897 C891 1.390 . S
C897 C894 1.386 . S
C898 C893 1.490 . S
C898 C900 1.395 . S
C898 C901 1.403 . S
H899 C905 0.930 . S
C900 H886 0.930 . S
C900 C898 1.395 . S
C900 C903 1.403 . S
C901 C898 1.403 . S
C901 C902 1.524 . S
C901 C905 1.400 . S
C902 H887 0.960 . S
C902 H888 0.960 . S
C902 H889 0.960 . S
C902 C901 1.524 . S
C903 C900 1.403 . S
C903 C904 1.392 . S
C903 C907 1.495 . S
C904 C903 1.392 . S
C904 C905 1.385 . S
C904 C906 1.478 . S
C905 H899 0.930 . S
C905 C901 1.400 . S
C905 C904 1.385 . S
C906 C904 1.478 . S
C906 C908 1.381 . S
C906 C912 1.383 . S
C907 C903 1.495 . S
C907 H913 0.959 . S
C907 H914 0.961 . S
C907 H915 0.960 . S
C908 C906 1.381 . S
C908 C909 1.394 . S
C908 H916 0.930 . S
C909 C908 1.394 . S
C909 C910 1.383 . S
C909 H917 0.929 . S
C910 C909 1.383 . S
C910 C911 1.377 . S
C911 H895 0.930 . S
C911 C910 1.377 . S
C911 C912 1.379 . S
C912 H896 0.931 . S
C912 C906 1.383 . S
C912 C911 1.379 . S
H913 C907 0.959 . S
H914 C907 0.961 . S
H915 C907 0.960 . S
H916 C908 0.930 . S
H917 C909 0.929 . S
H918 C926 0.929 . S
H919 C928 0.930 . S
H920 C930 0.930 . S
H921 C933 0.929 . S
H922 C936 0.930 . S
H923 C938 0.960 . S
H924 C938 0.960 . S
H925 C938 0.960 . S
C926 H918 0.929 . S
C926 C927 1.377 . S
C926 C928 1.384 . S
C927 C926 1.377 . S
C927 C933 1.390 . S
C928 H919 0.930 . S
C928 C926 1.384 . S
C928 C929 1.372 . S
C929 C928 1.372 . S
C929 C930 1.400 . S
C929 C934 1.490 . S
C930 H920 0.930 . S
C930 C929 1.400 . S
C930 C933 1.386 . S
H931 C947 0.930 . S
H932 C948 0.931 . S
C933 H921 0.929 . S
C933 C927 1.390 . S
C933 C930 1.386 . S
C934 C929 1.490 . S
C934 C936 1.395 . S
C934 C937 1.403 . S
H935 C941 0.930 . S
C936 H922 0.930 . S
C936 C934 1.395 . S
C936 C939 1.403 . S
C937 C934 1.403 . S
C937 C938 1.524 . S
C937 C941 1.400 . S
C938 H923 0.960 . S
C938 H924 0.960 . S
C938 H925 0.960 . S
C938 C937 1.524 . S
C939 C936 1.403 . S
C939 C940 1.392 . S
C939 C943 1.495 . S
C940 C939 1.392 . S
C940 C941 1.385 . S
C940 C942 1.478 . S
C941 H935 0.930 . S
C941 C937 1.400 . S
C941 C940 1.385 . S
C942 C940 1.478 . S
C942 C944 1.381 . S
C942 C948 1.383 . S
C943 C939 1.495 . S
C943 H949 0.959 . S
C943 H950 0.961 . S
C943 H951 0.960 . S
C944 C942 1.381 . S
C944 C945 1.394 . S
C944 H952 0.930 . S
C945 C944 1.394 . S
C945 C946 1.383 . S
C945 H953 0.929 . S
C946 C945 1.383 . S
C946 C947 1.377 . S
C947 H931 0.930 . S
C947 C946 1.377 . S
C947 C948 1.379 . S
C948 H932 0.931 . S
C948 C942 1.383 . S
C948 C947 1.379 . S
H949 C943 0.959 . S
H950 C943 0.961 . S
H951 C943 0.960 . S
H952 C944 0.930 . S
H953 C945 0.929 . S
H954 C962 0.929 . S
H955 C964 0.930 . S
H956 C966 0.930 . S
H957 C969 0.929 . S
H958 C972 0.930 . S
H959 C974 0.960 . S
H960 C974 0.960 . S
H961 C974 0.960 . S
C962 H954 0.929 . S
C962 C963 1.377 . S
C962 C964 1.384 . S
C963 C962 1.377 . S
C963 C969 1.390 . S
C964 H955 0.930 . S
C964 C962 1.384 . S
C964 C965 1.372 . S
C965 C964 1.372 . S
C965 C966 1.400 . S
C965 C970 1.490 . S
C966 H956 0.930 . S
C966 C965 1.400 . S
C966 C969 1.386 . S
H967 C983 0.930 . S
H968 C984 0.931 . S
C969 H957 0.929 . S
C969 C963 1.390 . S
C969 C966 1.386 . S
C970 C965 1.490 . S
C970 C972 1.395 . S
C970 C973 1.403 . S
H971 C977 0.930 . S
C972 H958 0.930 . S
C972 C970 1.395 . S
C972 C975 1.403 . S
C973 C970 1.403 . S
C973 C974 1.524 . S
C973 C977 1.400 . S
C974 H959 0.960 . S
C974 H960 0.960 . S
C974 H961 0.960 . S
C974 C973 1.524 . S
C975 C972 1.403 . S
C975 C976 1.392 . S
C975 C979 1.495 . S
C976 C975 1.392 . S
C976 C977 1.385 . S
C976 C978 1.478 . S
C977 H971 0.930 . S
C977 C973 1.400 . S
C977 C976 1.385 . S
C978 C976 1.478 . S
C978 C980 1.381 . S
C978 C984 1.383 . S
C979 C975 1.495 . S
C979 H985 0.959 . S
C979 H986 0.961 . S
C979 H987 0.960 . S
C980 C978 1.381 . S
C980 C981 1.394 . S
C980 H988 0.930 . S
C981 C980 1.394 . S
C981 C982 1.383 . S
C981 H989 0.929 . S
C982 C981 1.383 . S
C982 C983 1.377 . S
C983 H967 0.930 . S
C983 C982 1.377 . S
C983 C984 1.379 . S
C984 H968 0.931 . S
C984 C978 1.383 . S
C984 C983 1.379 . S
H985 C979 0.959 . S
H986 C979 0.961 . S
H987 C979 0.960 . S
H988 C980 0.930 . S
H989 C981 0.929 . S
H990 C998 0.929 . S
H991 C1000 0.930 . S
H992 C1002 0.930 . S
H993 C1005 0.929 . S
H994 C1008 0.930 . S
H995 C1010 0.960 . S
H996 C1010 0.960 . S
H997 C1010 0.960 . S
C998 H990 0.929 . S
C998 C999 1.377 . S
C998 C1000 1.384 . S
C999 C998 1.377 . S
C999 C1005 1.390 . S
C1000 H991 0.930 . S
C1000 C998 1.384 . S
C1000 C1001 1.372 . S
C1001 C1000 1.372 . S
C1001 C1002 1.400 . S
C1001 C1006 1.490 . S
C1002 H992 0.930 . S
C1002 C1001 1.400 . S
C1002 C1005 1.386 . S
H1003 C1019 0.930 . S
H1004 C1020 0.931 . S
C1005 H993 0.929 . S
C1005 C999 1.390 . S
C1005 C1002 1.386 . S
C1006 C1001 1.490 . S
C1006 C1008 1.395 . S
C1006 C1009 1.403 . S
H1007 C1013 0.930 . S
C1008 H994 0.930 . S
C1008 C1006 1.395 . S
C1008 C1011 1.403 . S
C1009 C1006 1.403 . S
C1009 C1010 1.524 . S
C1009 C1013 1.400 . S
C1010 H995 0.960 . S
C1010 H996 0.960 . S
C1010 H997 0.960 . S
C1010 C1009 1.524 . S
C1011 C1008 1.403 . S
C1011 C1012 1.392 . S
C1011 C1015 1.495 . S
C1012 C1011 1.392 . S
C1012 C1013 1.385 . S
C1012 C1014 1.478 . S
C1013 H1007 0.930 . S
C1013 C1009 1.400 . S
C1013 C1012 1.385 . S
C1014 C1012 1.478 . S
C1014 C1016 1.381 . S
C1014 C1020 1.383 . S
C1015 C1011 1.495 . S
C1015 H1021 0.959 . S
C1015 H1022 0.961 . S
C1015 H1023 0.960 . S
C1016 C1014 1.381 . S
C1016 C1017 1.394 . S
C1016 H1024 0.930 . S
C1017 C1016 1.394 . S
C1017 C1018 1.383 . S
C1017 H1025 0.929 . S
C1018 C1017 1.383 . S
C1018 C1019 1.377 . S
C1019 H1003 0.930 . S
C1019 C1018 1.377 . S
C1019 C1020 1.379 . S
C1020 H1004 0.931 . S
C1020 C1014 1.383 . S
C1020 C1019 1.379 . S
H1021 C1015 0.959 . S
H1022 C1015 0.961 . S
H1023 C1015 0.960 . S
H1024 C1016 0.930 . S
H1025 C1017 0.929 . S
H1026 C1034 0.929 . S
H1027 C1036 0.930 . S
H1028 C1038 0.930 . S
H1029 C1041 0.929 . S
H1030 C1044 0.930 . S
H1031 C1046 0.960 . S
H1032 C1046 0.960 . S
H1033 C1046 0.960 . S
C1034 H1026 0.929 . S
C1034 C1035 1.377 . S
C1034 C1036 1.384 . S
C1035 C1034 1.377 . S
C1035 C1041 1.390 . S
C1036 H1027 0.930 . S
C1036 C1034 1.384 . S
C1036 C1037 1.372 . S
C1037 C1036 1.372 . S
C1037 C1038 1.400 . S
C1037 C1042 1.490 . S
C1038 H1028 0.930 . S
C1038 C1037 1.400 . S
C1038 C1041 1.386 . S
H1039 C1055 0.930 . S
H1040 C1056 0.931 . S
C1041 H1029 0.929 . S
C1041 C1035 1.390 . S
C1041 C1038 1.386 . S
C1042 C1037 1.490 . S
C1042 C1044 1.395 . S
C1042 C1045 1.403 . S
H1043 C1049 0.930 . S
C1044 H1030 0.930 . S
C1044 C1042 1.395 . S
C1044 C1047 1.403 . S
C1045 C1042 1.403 . S
C1045 C1046 1.524 . S
C1045 C1049 1.400 . S
C1046 H1031 0.960 . S
C1046 H1032 0.960 . S
C1046 H1033 0.960 . S
C1046 C1045 1.524 . S
C1047 C1044 1.403 . S
C1047 C1048 1.392 . S
C1047 C1051 1.495 . S
C1048 C1047 1.392 . S
C1048 C1049 1.385 . S
C1048 C1050 1.478 . S
C1049 H1043 0.930 . S
C1049 C1045 1.400 . S
C1049 C1048 1.385 . S
C1050 C1048 1.478 . S
C1050 C1052 1.381 . S
C1050 C1056 1.383 . S
C1051 C1047 1.495 . S
C1051 H1057 0.959 . S
C1051 H1058 0.961 . S
C1051 H1059 0.960 . S
C1052 C1050 1.381 . S
C1052 C1053 1.394 . S
C1052 H1060 0.930 . S
C1053 C1052 1.394 . S
C1053 C1054 1.383 . S
C1053 H1061 0.929 . S
C1054 C1053 1.383 . S
C1054 C1055 1.377 . S
C1055 H1039 0.930 . S
C1055 C1054 1.377 . S
C1055 C1056 1.379 . S
C1056 H1040 0.931 . S
C1056 C1050 1.383 . S
C1056 C1055 1.379 . S
H1057 C1051 0.959 . S
H1058 C1051 0.961 . S
H1059 C1051 0.960 . S
H1060 C1052 0.930 . S
H1061 C1053 0.929 . S
H1062 C1070 0.929 . S
H1063 C1072 0.930 . S
H1064 C1074 0.930 . S
H1065 C1077 0.929 . S
H1066 C1080 0.930 . S
H1067 C1082 0.960 . S
H1068 C1082 0.960 . S
H1069 C1082 0.960 . S
C1070 H1062 0.929 . S
C1070 C1071 1.377 . S
C1070 C1072 1.384 . S
C1071 C1070 1.377 . S
C1071 C1077 1.390 . S
C1072 H1063 0.930 . S
C1072 C1070 1.384 . S
C1072 C1073 1.372 . S
C1073 C1072 1.372 . S
C1073 C1074 1.400 . S
C1073 C1078 1.490 . S
C1074 H1064 0.930 . S
C1074 C1073 1.400 . S
C1074 C1077 1.386 . S
H1075 C1091 0.930 . S
H1076 C1092 0.931 . S
C1077 H1065 0.929 . S
C1077 C1071 1.390 . S
C1077 C1074 1.386 . S
C1078 C1073 1.490 . S
C1078 C1080 1.395 . S
C1078 C1081 1.403 . S
H1079 C1085 0.930 . S
C1080 H1066 0.930 . S
C1080 C1078 1.395 . S
C1080 C1083 1.403 . S
C1081 C1078 1.403 . S
C1081 C1082 1.524 . S
C1081 C1085 1.400 . S
C1082 H1067 0.960 . S
C1082 H1068 0.960 . S
C1082 H1069 0.960 . S
C1082 C1081 1.524 . S
C1083 C1080 1.403 . S
C1083 C1084 1.392 . S
C1083 C1087 1.495 . S
C1084 C1083 1.392 . S
C1084 C1085 1.385 . S
C1084 C1086 1.478 . S
C1085 H1079 0.930 . S
C1085 C1081 1.400 . S
C1085 C1084 1.385 . S
C1086 C1084 1.478 . S
C1086 C1088 1.381 . S
C1086 C1092 1.383 . S
C1087 C1083 1.495 . S
C1087 H1093 0.959 . S
C1087 H1094 0.961 . S
C1087 H1095 0.960 . S
C1088 C1086 1.381 . S
C1088 C1089 1.394 . S
C1088 H1096 0.930 . S
C1089 C1088 1.394 . S
C1089 C1090 1.383 . S
C1089 H1097 0.929 . S
C1090 C1089 1.383 . S
C1090 C1091 1.377 . S
C1091 H1075 0.930 . S
C1091 C1090 1.377 . S
C1091 C1092 1.379 . S
C1092 H1076 0.931 . S
C1092 C1086 1.383 . S
C1092 C1091 1.379 . S
H1093 C1087 0.959 . S
H1094 C1087 0.961 . S
H1095 C1087 0.960 . S
H1096 C1088 0.930 . S
H1097 C1089 0.929 . S
H1098 C1106 0.929 . S
H1099 C1108 0.930 . S
H1100 C1110 0.930 . S
H1101 C1113 0.929 . S
H1102 C1116 0.930 . S
H1103 C1118 0.960 . S
H1104 C1118 0.960 . S
H1105 C1118 0.960 . S
C1106 H1098 0.929 . S
C1106 C1107 1.377 . S
C1106 C1108 1.384 . S
C1107 C1106 1.377 . S
C1107 C1113 1.390 . S
C1108 H1099 0.930 . S
C1108 C1106 1.384 . S
C1108 C1109 1.372 . S
C1109 C1108 1.372 . S
C1109 C1110 1.400 . S
C1109 C1114 1.490 . S
C1110 H1100 0.930 . S
C1110 C1109 1.400 . S
C1110 C1113 1.386 . S
H1111 C1127 0.930 . S
H1112 C1128 0.931 . S
C1113 H1101 0.929 . S
C1113 C1107 1.390 . S
C1113 C1110 1.386 . S
C1114 C1109 1.490 . S
C1114 C1116 1.395 . S
C1114 C1117 1.403 . S
H1115 C1121 0.930 . S
C1116 H1102 0.930 . S
C1116 C1114 1.395 . S
C1116 C1119 1.403 . S
C1117 C1114 1.403 . S
C1117 C1118 1.524 . S
C1117 C1121 1.400 . S
C1118 H1103 0.960 . S
C1118 H1104 0.960 . S
C1118 H1105 0.960 . S
C1118 C1117 1.524 . S
C1119 C1116 1.403 . S
C1119 C1120 1.392 . S
C1119 C1123 1.495 . S
C1120 C1119 1.392 . S
C1120 C1121 1.385 . S
C1120 C1122 1.478 . S
C1121 H1115 0.930 . S
C1121 C1117 1.400 . S
C1121 C1120 1.385 . S
C1122 C1120 1.478 . S
C1122 C1124 1.381 . S
C1122 C1128 1.383 . S
C1123 C1119 1.495 . S
C1123 H1129 0.959 . S
C1123 H1130 0.961 . S
C1123 H1131 0.960 . S
C1124 C1122 1.381 . S
C1124 C1125 1.394 . S
C1124 H1132 0.930 . S
C1125 C1124 1.394 . S
C1125 C1126 1.383 . S
C1125 H1133 0.929 . S
C1126 C1125 1.383 . S
C1126 C1127 1.377 . S
C1127 H1111 0.930 . S
C1127 C1126 1.377 . S
C1127 C1128 1.379 . S
C1128 H1112 0.931 . S
C1128 C1122 1.383 . S
C1128 C1127 1.379 . S
H1129 C1123 0.959 . S
H1130 C1123 0.961 . S
H1131 C1123 0.960 . S
H1132 C1124 0.930 . S
H1133 C1125 0.929 . S
H1134 C1142 0.929 . S
H1135 C1144 0.930 . S
H1136 C1146 0.930 . S
H1137 C1149 0.929 . S
H1138 C1152 0.930 . S
H1139 C1154 0.960 . S
H1140 C1154 0.960 . S
H1141 C1154 0.960 . S
C1142 H1134 0.929 . S
C1142 C1143 1.377 . S
C1142 C1144 1.384 . S
C1143 C1142 1.377 . S
C1143 C1149 1.390 . S
C1144 H1135 0.930 . S
C1144 C1142 1.384 . S
C1144 C1145 1.372 . S
C1145 C1144 1.372 . S
C1145 C1146 1.400 . S
C1145 C1150 1.490 . S
C1146 H1136 0.930 . S
C1146 C1145 1.400 . S
C1146 C1149 1.386 . S
H1147 C1163 0.930 . S
H1148 C1164 0.931 . S
C1149 H1137 0.929 . S
C1149 C1143 1.390 . S
C1149 C1146 1.386 . S
C1150 C1145 1.490 . S
C1150 C1152 1.395 . S
C1150 C1153 1.403 . S
H1151 C1157 0.930 . S
C1152 H1138 0.930 . S
C1152 C1150 1.395 . S
C1152 C1155 1.403 . S
C1153 C1150 1.403 . S
C1153 C1154 1.524 . S
C1153 C1157 1.400 . S
C1154 H1139 0.960 . S
C1154 H1140 0.960 . S
C1154 H1141 0.960 . S
C1154 C1153 1.524 . S
C1155 C1152 1.403 . S
C1155 C1156 1.392 . S
C1155 C1159 1.495 . S
C1156 C1155 1.392 . S
C1156 C1157 1.385 . S
C1156 C1158 1.478 . S
C1157 H1151 0.930 . S
C1157 C1153 1.400 . S
C1157 C1156 1.385 . S
C1158 C1156 1.478 . S
C1158 C1160 1.381 . S
C1158 C1164 1.383 . S
C1159 C1155 1.495 . S
C1159 H1165 0.959 . S
C1159 H1166 0.961 . S
C1159 H1167 0.960 . S
C1160 C1158 1.381 . S
C1160 C1161 1.394 . S
C1160 H1168 0.930 . S
C1161 C1160 1.394 . S
C1161 C1162 1.383 . S
C1161 H1169 0.929 . S
C1162 C1161 1.383 . S
C1162 C1163 1.377 . S
C1163 H1147 0.930 . S
C1163 C1162 1.377 . S
C1163 C1164 1.379 . S
C1164 H1148 0.931 . S
C1164 C1158 1.383 . S
C1164 C1163 1.379 . S
H1165 C1159 0.959 . S
H1166 C1159 0.961 . S
H1167 C1159 0.960 . S
H1168 C1160 0.930 . S
H1169 C1161 0.929 . S
H1170 C1178 0.929 . S
H1171 C1180 0.930 . S
H1172 C1182 0.930 . S
H1173 C1185 0.929 . S
H1174 C1188 0.930 . S
H1175 C1190 0.960 . S
H1176 C1190 0.960 . S
H1177 C1190 0.960 . S
C1178 H1170 0.929 . S
C1178 C1179 1.377 . S
C1178 C1180 1.384 . S
C1179 C1178 1.377 . S
C1179 C1185 1.390 . S
C1180 H1171 0.930 . S
C1180 C1178 1.384 . S
C1180 C1181 1.372 . S
C1181 C1180 1.372 . S
C1181 C1182 1.400 . S
C1181 C1186 1.490 . S
C1182 H1172 0.930 . S
C1182 C1181 1.400 . S
C1182 C1185 1.386 . S
H1183 C1199 0.930 . S
H1184 C1200 0.931 . S
C1185 H1173 0.929 . S
C1185 C1179 1.390 . S
C1185 C1182 1.386 . S
C1186 C1181 1.490 . S
C1186 C1188 1.395 . S
C1186 C1189 1.403 . S
H1187 C1193 0.930 . S
C1188 H1174 0.930 . S
C1188 C1186 1.395 . S
C1188 C1191 1.403 . S
C1189 C1186 1.403 . S
C1189 C1190 1.524 . S
C1189 C1193 1.400 . S
C1190 H1175 0.960 . S
C1190 H1176 0.960 . S
C1190 H1177 0.960 . S
C1190 C1189 1.524 . S
C1191 C1188 1.403 . S
C1191 C1192 1.392 . S
C1191 C1195 1.495 . S
C1192 C1191 1.392 . S
C1192 C1193 1.385 . S
C1192 C1194 1.478 . S
C1193 H1187 0.930 . S
C1193 C1189 1.400 . S
C1193 C1192 1.385 . S
C1194 C1192 1.478 . S
C1194 C1196 1.381 . S
C1194 C1200 1.383 . S
C1195 C1191 1.495 . S
C1195 H1201 0.959 . S
C1195 H1202 0.961 . S
C1195 H1203 0.960 . S
C1196 C1194 1.381 . S
C1196 C1197 1.394 . S
C1196 H1204 0.930 . S
C1197 C1196 1.394 . S
C1197 C1198 1.383 . S
C1197 H1205 0.929 . S
C1198 C1197 1.383 . S
C1198 C1199 1.377 . S
C1199 H1183 0.930 . S
C1199 C1198 1.377 . S
C1199 C1200 1.379 . S
C1200 H1184 0.931 . S
C1200 C1194 1.383 . S
C1200 C1199 1.379 . S
H1201 C1195 0.959 . S
H1202 C1195 0.961 . S
H1203 C1195 0.960 . S
H1204 C1196 0.930 . S
H1205 C1197 0.929 . S
H1206 C1214 0.929 . S
H1207 C1216 0.930 . S
H1208 C1218 0.930 . S
H1209 C1221 0.929 . S
H1210 C1224 0.930 . S
H1211 C1226 0.960 . S
H1212 C1226 0.960 . S
H1213 C1226 0.960 . S
C1214 H1206 0.929 . S
C1214 C1215 1.377 . S
C1214 C1216 1.384 . S
C1215 C1214 1.377 . S
C1215 C1221 1.390 . S
C1216 H1207 0.930 . S
C1216 C1214 1.384 . S
C1216 C1217 1.372 . S
C1217 C1216 1.372 . S
C1217 C1218 1.400 . S
C1217 C1222 1.490 . S
C1218 H1208 0.930 . S
C1218 C1217 1.400 . S
C1218 C1221 1.386 . S
H1219 C1235 0.930 . S
H1220 C1236 0.931 . S
C1221 H1209 0.929 . S
C1221 C1215 1.390 . S
C1221 C1218 1.386 . S
C1222 C1217 1.490 . S
C1222 C1224 1.395 . S
C1222 C1225 1.403 . S
H1223 C1229 0.930 . S
C1224 H1210 0.930 . S
C1224 C1222 1.395 . S
C1224 C1227 1.403 . S
C1225 C1222 1.403 . S
C1225 C1226 1.524 . S
C1225 C1229 1.400 . S
C1226 H1211 0.960 . S
C1226 H1212 0.960 . S
C1226 H1213 0.960 . S
C1226 C1225 1.524 . S
C1227 C1224 1.403 . S
C1227 C1228 1.392 . S
C1227 C1231 1.495 . S
C1228 C1227 1.392 . S
C1228 C1229 1.385 . S
C1228 C1230 1.478 . S
C1229 H1223 0.930 . S
C1229 C1225 1.400 . S
C1229 C1228 1.385 . S
C1230 C1228 1.478 . S
C1230 C1232 1.381 . S
C1230 C1236 1.383 . S
C1231 C1227 1.495 . S
C1231 H1237 0.959 . S
C1231 H1238 0.961 . S
C1231 H1239 0.960 . S
C1232 C1230 1.381 . S
C1232 C1233 1.394 . S
C1232 H1240 0.930 . S
C1233 C1232 1.394 . S
C1233 C1234 1.383 . S
C1233 H1241 0.929 . S
C1234 C1233 1.383 . S
C1234 C1235 1.377 . S
C1235 H1219 0.930 . S
C1235 C1234 1.377 . S
C1235 C1236 1.379 . S
C1236 H1220 0.931 . S
C1236 C1230 1.383 . S
C1236 C1235 1.379 . S
H1237 C1231 0.959 . S
H1238 C1231 0.961 . S
H1239 C1231 0.960 . S
H1240 C1232 0.930 . S
H1241 C1233 0.929 . S
H1242 C1250 0.929 . S
H1243 C1252 0.930 . S
H1244 C1254 0.930 . S
H1245 C1257 0.929 . S
H1246 C1260 0.930 . S
H1247 C1262 0.960 . S
H1248 C1262 0.960 . S
H1249 C1262 0.960 . S
C1250 H1242 0.929 . S
C1250 C1251 1.377 . S
C1250 C1252 1.384 . S
C1251 C1250 1.377 . S
C1251 C1257 1.390 . S
C1252 H1243 0.930 . S
C1252 C1250 1.384 . S
C1252 C1253 1.372 . S
C1253 C1252 1.372 . S
C1253 C1254 1.400 . S
C1253 C1258 1.490 . S
C1254 H1244 0.930 . S
C1254 C1253 1.400 . S
C1254 C1257 1.386 . S
H1255 C1271 0.930 . S
H1256 C1272 0.931 . S
C1257 H1245 0.929 . S
C1257 C1251 1.390 . S
C1257 C1254 1.386 . S
C1258 C1253 1.490 . S
C1258 C1260 1.395 . S
C1258 C1261 1.403 . S
H1259 C1265 0.930 . S
C1260 H1246 0.930 . S
C1260 C1258 1.395 . S
C1260 C1263 1.403 . S
C1261 C1258 1.403 . S
C1261 C1262 1.524 . S
C1261 C1265 1.400 . S
C1262 H1247 0.960 . S
C1262 H1248 0.960 . S
C1262 H1249 0.960 . S
C1262 C1261 1.524 . S
C1263 C1260 1.403 . S
C1263 C1264 1.392 . S
C1263 C1267 1.495 . S
C1264 C1263 1.392 . S
C1264 C1265 1.385 . S
C1264 C1266 1.478 . S
C1265 H1259 0.930 . S
C1265 C1261 1.400 . S
C1265 C1264 1.385 . S
C1266 C1264 1.478 . S
C1266 C1268 1.381 . S
C1266 C1272 1.383 . S
C1267 C1263 1.495 . S
C1267 H1273 0.959 . S
C1267 H1274 0.961 . S
C1267 H1275 0.960 . S
C1268 C1266 1.381 . S
C1268 C1269 1.394 . S
C1268 H1276 0.930 . S
C1269 C1268 1.394 . S
C1269 C1270 1.383 . S
C1269 H1277 0.929 . S
C1270 C1269 1.383 . S
C1270 C1271 1.377 . S
C1271 H1255 0.930 . S
C1271 C1270 1.377 . S
C1271 C1272 1.379 . S
C1272 H1256 0.931 . S
C1272 C1266 1.383 . S
C1272 C1271 1.379 . S
H1273 C1267 0.959 . S
H1274 C1267 0.961 . S
H1275 C1267 0.960 . S
H1276 C1268 0.930 . S
H1277 C1269 0.929 . S
H1278 C1286 0.929 . S
H1279 C1288 0.930 . S
H1280 C1290 0.930 . S
H1281 C1293 0.929 . S
H1282 C1296 0.930 . S
H1283 C1298 0.960 . S
H1284 C1298 0.960 . S
H1285 C1298 0.960 . S
C1286 H1278 0.929 . S
C1286 C1287 1.377 . S
C1286 C1288 1.384 . S
C1287 C1286 1.377 . S
C1287 C1293 1.390 . S
C1288 H1279 0.930 . S
C1288 C1286 1.384 . S
C1288 C1289 1.372 . S
C1289 C1288 1.372 . S
C1289 C1290 1.400 . S
C1289 C1294 1.490 . S
C1290 H1280 0.930 . S
C1290 C1289 1.400 . S
C1290 C1293 1.386 . S
H1291 C1307 0.930 . S
H1292 C1308 0.931 . S
C1293 H1281 0.929 . S
C1293 C1287 1.390 . S
C1293 C1290 1.386 . S
C1294 C1289 1.490 . S
C1294 C1296 1.395 . S
C1294 C1297 1.403 . S
H1295 C1301 0.930 . S
C1296 H1282 0.930 . S
C1296 C1294 1.395 . S
C1296 C1299 1.403 . S
C1297 C1294 1.403 . S
C1297 C1298 1.524 . S
C1297 C1301 1.400 . S
C1298 H1283 0.960 . S
C1298 H1284 0.960 . S
C1298 H1285 0.960 . S
C1298 C1297 1.524 . S
C1299 C1296 1.403 . S
C1299 C1300 1.392 . S
C1299 C1303 1.495 . S
C1300 C1299 1.392 . S
C1300 C1301 1.385 . S
C1300 C1302 1.478 . S
C1301 H1295 0.930 . S
C1301 C1297 1.400 . S
C1301 C1300 1.385 . S
C1302 C1300 1.478 . S
C1302 C1304 1.381 . S
C1302 C1308 1.383 . S
C1303 C1299 1.495 . S
C1303 H1309 0.959 . S
C1303 H1310 0.961 . S
C1303 H1311 0.960 . S
C1304 C1302 1.381 . S
C1304 C1305 1.394 . S
C1304 H1312 0.930 . S
C1305 C1304 1.394 . S
C1305 C1306 1.383 . S
C1305 H1313 0.929 . S
C1306 C1305 1.383 . S
C1306 C1307 1.377 . S
C1307 H1291 0.930 . S
C1307 C1306 1.377 . S
C1307 C1308 1.379 . S
C1308 H1292 0.931 . S
C1308 C1302 1.383 . S
C1308 C1307 1.379 . S
H1309 C1303 0.959 . S
H1310 C1303 0.961 . S
H1311 C1303 0.960 . S
H1312 C1304 0.930 . S
H1313 C1305 0.929 . S
H1314 C1322 0.929 . S
H1315 C1324 0.930 . S
H1316 C1326 0.930 . S
H1317 C1329 0.929 . S
H1318 C1332 0.930 . S
H1319 C1334 0.960 . S
H1320 C1334 0.960 . S
H1321 C1334 0.960 . S
C1322 H1314 0.929 . S
C1322 C1323 1.377 . S
C1322 C1324 1.384 . S
C1323 C1322 1.377 . S
C1323 C1329 1.390 . S
C1324 H1315 0.930 . S
C1324 C1322 1.384 . S
C1324 C1325 1.372 . S
C1325 C1324 1.372 . S
C1325 C1326 1.400 . S
C1325 C1330 1.490 . S
C1326 H1316 0.930 . S
C1326 C1325 1.400 . S
C1326 C1329 1.386 . S
H1327 C1343 0.930 . S
H1328 C1344 0.931 . S
C1329 H1317 0.929 . S
C1329 C1323 1.390 . S
C1329 C1326 1.386 . S
C1330 C1325 1.490 . S
C1330 C1332 1.395 . S
C1330 C1333 1.403 . S
H1331 C1337 0.930 . S
C1332 H1318 0.930 . S
C1332 C1330 1.395 . S
C1332 C1335 1.403 . S
C1333 C1330 1.403 . S
C1333 C1334 1.524 . S
C1333 C1337 1.400 . S
C1334 H1319 0.960 . S
C1334 H1320 0.960 . S
C1334 H1321 0.960 . S
C1334 C1333 1.524 . S
C1335 C1332 1.403 . S
C1335 C1336 1.392 . S
C1335 C1339 1.495 . S
C1336 C1335 1.392 . S
C1336 C1337 1.385 . S
C1336 C1338 1.478 . S
C1337 H1331 0.930 . S
C1337 C1333 1.400 . S
C1337 C1336 1.385 . S
C1338 C1336 1.478 . S
C1338 C1340 1.381 . S
C1338 C1344 1.383 . S
C1339 C1335 1.495 . S
C1339 H1345 0.959 . S
C1339 H1346 0.961 . S
C1339 H1347 0.960 . S
C1340 C1338 1.381 . S
C1340 C1341 1.394 . S
C1340 H1348 0.930 . S
C1341 C1340 1.394 . S
C1341 C1342 1.383 . S
C1341 H1349 0.929 . S
C1342 C1341 1.383 . S
C1342 C1343 1.377 . S
C1343 H1327 0.930 . S
C1343 C1342 1.377 . S
C1343 C1344 1.379 . S
C1344 H1328 0.931 . S
C1344 C1338 1.383 . S
C1344 C1343 1.379 . S
H1345 C1339 0.959 . S
H1346 C1339 0.961 . S
H1347 C1339 0.960 . S
H1348 C1340 0.930 . S
H1349 C1341 0.929 . S
H1350 C1358 0.929 . S
H1351 C1360 0.930 . S
H1352 C1362 0.930 . S
H1353 C1365 0.929 . S
H1354 C1368 0.930 . S
H1355 C1370 0.960 . S
H1356 C1370 0.960 . S
H1357 C1370 0.960 . S
C1358 H1350 0.929 . S
C1358 C1359 1.377 . S
C1358 C1360 1.384 . S
C1359 C1358 1.377 . S
C1359 C1365 1.390 . S
C1360 H1351 0.930 . S
C1360 C1358 1.384 . S
C1360 C1361 1.372 . S
C1361 C1360 1.372 . S
C1361 C1362 1.400 . S
C1361 C1366 1.490 . S
C1362 H1352 0.930 . S
C1362 C1361 1.400 . S
C1362 C1365 1.386 . S
H1363 C1379 0.930 . S
H1364 C1380 0.931 . S
C1365 H1353 0.929 . S
C1365 C1359 1.390 . S
C1365 C1362 1.386 . S
C1366 C1361 1.490 . S
C1366 C1368 1.395 . S
C1366 C1369 1.403 . S
H1367 C1373 0.930 . S
C1368 H1354 0.930 . S
C1368 C1366 1.395 . S
C1368 C1371 1.403 . S
C1369 C1366 1.403 . S
C1369 C1370 1.524 . S
C1369 C1373 1.400 . S
C1370 H1355 0.960 . S
C1370 H1356 0.960 . S
C1370 H1357 0.960 . S
C1370 C1369 1.524 . S
C1371 C1368 1.403 . S
C1371 C1372 1.392 . S
C1371 C1375 1.495 . S
C1372 C1371 1.392 . S
C1372 C1373 1.385 . S
C1372 C1374 1.478 . S
C1373 H1367 0.930 . S
C1373 C1369 1.400 . S
C1373 C1372 1.385 . S
C1374 C1372 1.478 . S
C1374 C1376 1.381 . S
C1374 C1380 1.383 . S
C1375 C1371 1.495 . S
C1375 H1381 0.959 . S
C1375 H1382 0.961 . S
C1375 H1383 0.960 . S
C1376 C1374 1.381 . S
C1376 C1377 1.394 . S
C1376 H1384 0.930 . S
C1377 C1376 1.394 . S
C1377 C1378 1.383 . S
C1377 H1385 0.929 . S
C1378 C1377 1.383 . S
C1378 C1379 1.377 . S
C1379 H1363 0.930 . S
C1379 C1378 1.377 . S
C1379 C1380 1.379 . S
C1380 H1364 0.931 . S
C1380 C1374 1.383 . S
C1380 C1379 1.379 . S
H1381 C1375 0.959 . S
H1382 C1375 0.961 . S
H1383 C1375 0.960 . S
H1384 C1376 0.930 . S
H1385 C1377 0.929 . S
H1386 C1394 0.929 . S
H1387 C1396 0.930 . S
H1388 C1398 0.930 . S
H1389 C1401 0.929 . S
H1390 C1404 0.930 . S
H1391 C1406 0.960 . S
H1392 C1406 0.960 . S
H1393 C1406 0.960 . S
C1394 H1386 0.929 . S
C1394 C1395 1.377 . S
C1394 C1396 1.384 . S
C1395 C1394 1.377 . S
C1395 C1401 1.390 . S
C1396 H1387 0.930 . S
C1396 C1394 1.384 . S
C1396 C1397 1.372 . S
C1397 C1396 1.372 . S
C1397 C1398 1.400 . S
C1397 C1402 1.490 . S
C1398 H1388 0.930 . S
C1398 C1397 1.400 . S
C1398 C1401 1.386 . S
H1399 C1415 0.930 . S
H1400 C1416 0.931 . S
C1401 H1389 0.929 . S
C1401 C1395 1.390 . S
C1401 C1398 1.386 . S
C1402 C1397 1.490 . S
C1402 C1404 1.395 . S
C1402 C1405 1.403 . S
H1403 C1409 0.930 . S
C1404 H1390 0.930 . S
C1404 C1402 1.395 . S
C1404 C1407 1.403 . S
C1405 C1402 1.403 . S
C1405 C1406 1.524 . S
C1405 C1409 1.400 . S
C1406 H1391 0.960 . S
C1406 H1392 0.960 . S
C1406 H1393 0.960 . S
C1406 C1405 1.524 . S
C1407 C1404 1.403 . S
C1407 C1408 1.392 . S
C1407 C1411 1.495 . S
C1408 C1407 1.392 . S
C1408 C1409 1.385 . S
C1408 C1410 1.478 . S
C1409 H1403 0.930 . S
C1409 C1405 1.400 . S
C1409 C1408 1.385 . S
C1410 C1408 1.478 . S
C1410 C1412 1.381 . S
C1410 C1416 1.383 . S
C1411 C1407 1.495 . S
C1411 H1417 0.959 . S
C1411 H1418 0.961 . S
C1411 H1419 0.960 . S
C1412 C1410 1.381 . S
C1412 C1413 1.394 . S
C1412 H1420 0.930 . S
C1413 C1412 1.394 . S
C1413 C1414 1.383 . S
C1413 H1421 0.929 . S
C1414 C1413 1.383 . S
C1414 C1415 1.377 . S
C1415 H1399 0.930 . S
C1415 C1414 1.377 . S
C1415 C1416 1.379 . S
C1416 H1400 0.931 . S
C1416 C1410 1.383 . S
C1416 C1415 1.379 . S
H1417 C1411 0.959 . S
H1418 C1411 0.961 . S
H1419 C1411 0.960 . S
H1420 C1412 0.930 . S
H1421 C1413 0.929 . S
H1422 C1430 0.929 . S
H1423 C1432 0.930 . S
H1424 C1434 0.930 . S
H1425 C1437 0.929 . S
H1426 C1440 0.930 . S
H1427 C1442 0.960 . S
H1428 C1442 0.960 . S
H1429 C1442 0.960 . S
C1430 H1422 0.929 . S
C1430 C1431 1.377 . S
C1430 C1432 1.384 . S
C1431 C1430 1.377 . S
C1431 C1437 1.390 . S
C1432 H1423 0.930 . S
C1432 C1430 1.384 . S
C1432 C1433 1.372 . S
C1433 C1432 1.372 . S
C1433 C1434 1.400 . S
C1433 C1438 1.490 . S
C1434 H1424 0.930 . S
C1434 C1433 1.400 . S
C1434 C1437 1.386 . S
H1435 C1451 0.930 . S
H1436 C1452 0.931 . S
C1437 H1425 0.929 . S
C1437 C1431 1.390 . S
C1437 C1434 1.386 . S
C1438 C1433 1.490 . S
C1438 C1440 1.395 . S
C1438 C1441 1.403 . S
H1439 C1445 0.930 . S
C1440 H1426 0.930 . S
C1440 C1438 1.395 . S
C1440 C1443 1.403 . S
C1441 C1438 1.403 . S
C1441 C1442 1.524 . S
C1441 C1445 1.400 . S
C1442 H1427 0.960 . S
C1442 H1428 0.960 . S
C1442 H1429 0.960 . S
C1442 C1441 1.524 . S
C1443 C1440 1.403 . S
C1443 C1444 1.392 . S
C1443 C1447 1.495 . S
C1444 C1443 1.392 . S
C1444 C1445 1.385 . S
C1444 C1446 1.478 . S
C1445 H1439 0.930 . S
C1445 C1441 1.400 . S
C1445 C1444 1.385 . S
C1446 C1444 1.478 . S
C1446 C1448 1.381 . S
C1446 C1452 1.383 . S
C1447 C1443 1.495 . S
C1447 H1453 0.959 . S
C1447 H1454 0.961 . S
C1447 H1455 0.960 . S
C1448 C1446 1.381 . S
C1448 C1449 1.394 . S
C1448 H1456 0.930 . S
C1449 C1448 1.394 . S
C1449 C1450 1.383 . S
C1449 H1457 0.929 . S
C1450 C1449 1.383 . S
C1450 C1451 1.377 . S
C1451 H1435 0.930 . S
C1451 C1450 1.377 . S
C1451 C1452 1.379 . S
C1452 H1436 0.931 . S
C1452 C1446 1.383 . S
C1452 C1451 1.379 . S
H1453 C1447 0.959 . S
H1454 C1447 0.961 . S
H1455 C1447 0.960 . S
H1456 C1448 0.930 . S
H1457 C1449 0.929 . S
H1458 C1466 0.929 . S
H1459 C1468 0.930 . S
H1460 C1470 0.930 . S
H1461 C1473 0.929 . S
H1462 C1476 0.930 . S
H1463 C1478 0.960 . S
H1464 C1478 0.960 . S
H1465 C1478 0.960 . S
C1466 H1458 0.929 . S
C1466 C1467 1.377 . S
C1466 C1468 1.384 . S
C1467 C1466 1.377 . S
C1467 C1473 1.390 . S
C1468 H1459 0.930 . S
C1468 C1466 1.384 . S
C1468 C1469 1.372 . S
C1469 C1468 1.372 . S
C1469 C1470 1.400 . S
C1469 C1474 1.490 . S
C1470 H1460 0.930 . S
C1470 C1469 1.400 . S
C1470 C1473 1.386 . S
H1471 C1487 0.930 . S
H1472 C1488 0.931 . S
C1473 H1461 0.929 . S
C1473 C1467 1.390 . S
C1473 C1470 1.386 . S
C1474 C1469 1.490 . S
C1474 C1476 1.395 . S
C1474 C1477 1.403 . S
H1475 C1481 0.930 . S
C1476 H1462 0.930 . S
C1476 C1474 1.395 . S
C1476 C1479 1.403 1_655 S
C1477 C1474 1.403 . S
C1477 C1478 1.524 . S
C1477 C1481 1.400 1_655 S
C1478 H1463 0.960 . S
C1478 H1464 0.960 . S
C1478 H1465 0.960 . S
C1478 C1477 1.524 . S
C1479 C1476 1.403 1_455 S
C1479 C1480 1.392 . S
C1479 C1483 1.495 . S
C1480 C1479 1.392 . S
C1480 C1481 1.385 . S
C1480 C1482 1.478 . S
C1481 H1475 0.930 . S
C1481 C1477 1.400 1_455 S
C1481 C1480 1.385 . S
C1482 C1480 1.478 . S
C1482 C1484 1.381 . S
C1482 C1488 1.383 . S
C1483 C1479 1.495 . S
C1483 H1489 0.959 . S
C1483 H1490 0.961 . S
C1483 H1491 0.960 . S
C1484 C1482 1.381 . S
C1484 C1485 1.394 . S
C1484 H1492 0.930 . S
C1485 C1484 1.394 . S
C1485 C1486 1.383 . S
C1485 H1493 0.929 . S
C1486 C1485 1.383 . S
C1486 C1487 1.377 . S
C1487 H1471 0.930 . S
C1487 C1486 1.377 . S
C1487 C1488 1.379 . S
C1488 H1472 0.931 . S
C1488 C1482 1.383 . S
C1488 C1487 1.379 . S
H1489 C1483 0.959 . S
H1490 C1483 0.961 . S
H1491 C1483 0.960 . S
H1492 C1484 0.930 . S
H1493 C1485 0.929 . S
H1494 C1502 0.929 . S
H1495 C1504 0.930 . S
H1496 C1506 0.930 . S
H1497 C1509 0.929 . S
H1498 C1512 0.930 . S
H1499 C1514 0.960 . S
H1500 C1514 0.960 . S
H1501 C1514 0.960 . S
C1502 H1494 0.929 . S
C1502 C1503 1.377 . S
C1502 C1504 1.384 . S
C1503 C1502 1.377 . S
C1503 C1509 1.390 . S
C1504 H1495 0.930 . S
C1504 C1502 1.384 . S
C1504 C1505 1.372 . S
C1505 C1504 1.372 . S
C1505 C1506 1.400 . S
C1505 C1510 1.490 . S
C1506 H1496 0.930 . S
C1506 C1505 1.400 . S
C1506 C1509 1.386 . S
H1507 C1523 0.930 . S
H1508 C1524 0.931 . S
C1509 H1497 0.929 . S
C1509 C1503 1.390 . S
C1509 C1506 1.386 . S
C1510 C1505 1.490 . S
C1510 C1512 1.395 . S
C1510 C1513 1.403 . S
H1511 C1517 0.930 . S
C1512 H1498 0.930 . S
C1512 C1510 1.395 . S
C1512 C1515 1.403 . S
C1513 C1510 1.403 . S
C1513 C1514 1.524 . S
C1513 C1517 1.400 . S
C1514 H1499 0.960 . S
C1514 H1500 0.960 . S
C1514 H1501 0.960 . S
C1514 C1513 1.524 . S
C1515 C1512 1.403 . S
C1515 C1516 1.392 . S
C1515 C1519 1.495 . S
C1516 C1515 1.392 . S
C1516 C1517 1.385 . S
C1516 C1518 1.478 . S
C1517 H1511 0.930 . S
C1517 C1513 1.400 . S
C1517 C1516 1.385 . S
C1518 C1516 1.478 . S
C1518 C1520 1.381 . S
C1518 C1524 1.383 . S
C1519 C1515 1.495 . S
C1519 H1525 0.959 . S
C1519 H1526 0.961 . S
C1519 H1527 0.960 . S
C1520 C1518 1.381 . S
C1520 C1521 1.394 . S
C1520 H1528 0.930 . S
C1521 C1520 1.394 . S
C1521 C1522 1.383 . S
C1521 H1529 0.929 . S
C1522 C1521 1.383 . S
C1522 C1523 1.377 . S
C1523 H1507 0.930 . S
C1523 C1522 1.377 . S
C1523 C1524 1.379 . S
C1524 H1508 0.931 . S
C1524 C1518 1.383 . S
C1524 C1523 1.379 . S
H1525 C1519 0.959 . S
H1526 C1519 0.961 . S
H1527 C1519 0.960 . S
H1528 C1520 0.930 . S
H1529 C1521 0.929 . S
H1530 C1538 0.929 . S
H1531 C1540 0.930 . S
H1532 C1542 0.930 . S
H1533 C1545 0.929 . S
H1534 C1548 0.930 . S
H1535 C1550 0.960 1_545 S
H1536 C1550 0.960 . S
H1537 C1550 0.960 . S
C1538 H1530 0.929 . S
C1538 C1539 1.377 . S
C1538 C1540 1.384 . S
C1539 C1538 1.377 . S
C1539 C1545 1.390 . S
C1540 H1531 0.930 . S
C1540 C1538 1.384 . S
C1540 C1541 1.372 . S
C1541 C1540 1.372 . S
C1541 C1542 1.400 . S
C1541 C1546 1.490 . S
C1542 H1532 0.930 . S
C1542 C1541 1.400 . S
C1542 C1545 1.386 . S
H1543 C1559 0.930 . S
H1544 C1560 0.931 . S
C1545 H1533 0.929 . S
C1545 C1539 1.390 . S
C1545 C1542 1.386 . S
C1546 C1541 1.490 . S
C1546 C1548 1.395 . S
C1546 C1549 1.403 . S
H1547 C1553 0.930 . S
C1548 H1534 0.930 . S
C1548 C1546 1.395 . S
C1548 C1551 1.403 1_565 S
C1549 C1546 1.403 . S
C1549 C1550 1.524 . S
C1549 C1553 1.400 1_565 S
C1550 H1535 0.960 1_565 S
C1550 H1536 0.960 . S
C1550 H1537 0.960 . S
C1550 C1549 1.524 . S
C1551 C1548 1.403 1_545 S
C1551 C1552 1.392 . S
C1551 C1555 1.495 . S
C1552 C1551 1.392 . S
C1552 C1553 1.385 . S
C1552 C1554 1.478 . S
C1553 H1547 0.930 . S
C1553 C1549 1.400 1_545 S
C1553 C1552 1.385 . S
C1554 C1552 1.478 . S
C1554 C1556 1.381 . S
C1554 C1560 1.383 . S
C1555 C1551 1.495 . S
C1555 H1561 0.959 1_545 S
C1555 H1562 0.961 . S
C1555 H1563 0.960 . S
C1556 C1554 1.381 . S
C1556 C1557 1.394 . S
C1556 H1564 0.930 . S
C1557 C1556 1.394 . S
C1557 C1558 1.383 . S
C1557 H1565 0.929 . S
C1558 C1557 1.383 . S
C1558 C1559 1.377 . S
C1559 H1543 0.930 . S
C1559 C1558 1.377 . S
C1559 C1560 1.379 . S
C1560 H1544 0.931 . S
C1560 C1554 1.383 . S
C1560 C1559 1.379 . S
H1561 C1555 0.959 1_565 S
H1562 C1555 0.961 . S
H1563 C1555 0.960 . S
H1564 C1556 0.930 . S
H1565 C1557 0.929 . S
H1566 C1574 0.929 . S
H1567 C1576 0.930 . S
H1568 C1578 0.930 . S
H1569 C1581 0.929 . S
H1570 C1584 0.930 . S
H1571 C1586 0.960 . S
H1572 C1586 0.960 . S
H1573 C1586 0.960 . S
C1574 H1566 0.929 . S
C1574 C1575 1.377 . S
C1574 C1576 1.384 . S
C1575 C1574 1.377 . S
C1575 C1581 1.390 . S
C1576 H1567 0.930 . S
C1576 C1574 1.384 . S
C1576 C1577 1.372 . S
C1577 C1576 1.372 . S
C1577 C1578 1.400 . S
C1577 C1582 1.490 . S
C1578 H1568 0.930 . S
C1578 C1577 1.400 . S
C1578 C1581 1.386 . S
H1579 C1595 0.930 . S
H1580 C1596 0.931 . S
C1581 H1569 0.929 . S
C1581 C1575 1.390 . S
C1581 C1578 1.386 . S
C1582 C1577 1.490 . S
C1582 C1584 1.395 . S
C1582 C1585 1.403 1_565 S
H1583 C1589 0.930 . S
C1584 H1570 0.930 . S
C1584 C1582 1.395 . S
C1584 C1587 1.403 . S
C1585 C1582 1.403 1_545 S
C1585 C1586 1.524 . S
C1585 C1589 1.400 . S
C1586 H1571 0.960 . S
C1586 H1572 0.960 . S
C1586 H1573 0.960 . S
C1586 C1585 1.524 . S
C1587 C1584 1.403 . S
C1587 C1588 1.392 1_565 S
C1587 C1591 1.495 . S
C1588 C1587 1.392 1_545 S
C1588 C1589 1.385 . S
C1588 C1590 1.478 . S
C1589 H1583 0.930 . S
C1589 C1585 1.400 . S
C1589 C1588 1.385 . S
C1590 C1588 1.478 . S
C1590 C1592 1.381 . S
C1590 C1596 1.383 . S
C1591 C1587 1.495 . S
C1591 H1597 0.959 . S
C1591 H1598 0.961 . S
C1591 H1599 0.960 . S
C1592 C1590 1.381 . S
C1592 C1593 1.394 . S
C1592 H1600 0.930 . S
C1593 C1592 1.394 . S
C1593 C1594 1.383 . S
C1593 H1601 0.929 . S
C1594 C1593 1.383 . S
C1594 C1595 1.377 . S
C1595 H1579 0.930 . S
C1595 C1594 1.377 . S
C1595 C1596 1.379 . S
C1596 H1580 0.931 . S
C1596 C1590 1.383 . S
C1596 C1595 1.379 . S
H1597 C1591 0.959 . S
H1598 C1591 0.961 . S
H1599 C1591 0.960 . S
H1600 C1592 0.930 . S
H1601 C1593 0.929 . S
H1602 C1610 0.929 1_455 S
H1603 C1612 0.935 . S
H1604 C1614 0.930 . S
H1605 C1617 0.929 . S
H1606 C1620 0.930 . S
H1607 C1622 0.960 . S
H1608 C1622 0.960 . S
H1609 C1622 0.960 . S
C1610 H1602 0.929 1_655 S
C1610 C1611 1.377 . S
C1610 C1612 1.383 1_655 S
C1611 C1610 1.377 . S
C1611 C1617 1.390 . S
C1612 H1603 0.935 . S
C1612 C1610 1.383 1_455 S
C1612 C1613 1.368 1_455 S
C1613 C1612 1.368 1_655 S
C1613 C1614 1.400 . S
C1613 C1618 1.490 . S
C1614 H1604 0.930 . S
C1614 C1613 1.400 . S
C1614 C1617 1.386 . S
H1615 C1631 0.930 1_655 S
H1616 C1632 0.948 . S
C1617 H1605 0.929 . S
C1617 C1611 1.390 . S
C1617 C1614 1.386 . S
C1618 C1613 1.490 . S
C1618 C1620 1.395 . S
C1618 C1621 1.403 1_655 S
H1619 C1625 0.930 . S
C1620 H1606 0.930 . S
C1620 C1618 1.395 . S
C1620 C1623 1.403 . S
C1621 C1618 1.403 1_455 S
C1621 C1622 1.524 . S
C1621 C1625 1.400 . S
C1622 H1607 0.960 . S
C1622 H1608 0.960 . S
C1622 H1609 0.960 . S
C1622 C1621 1.524 . S
C1623 C1620 1.403 . S
C1623 C1624 1.392 1_655 S
C1623 C1627 1.495 . S
C1624 C1623 1.392 1_455 S
C1624 C1625 1.385 . S
C1624 C1626 1.478 . S
C1625 H1619 0.930 . S
C1625 C1621 1.400 . S
C1625 C1624 1.385 . S
C1626 C1624 1.478 . S
C1626 C1628 1.381 . S
C1626 C1632 1.369 1_455 S
C1627 C1623 1.495 . S
C1627 H1633 0.959 . S
C1627 H1634 0.961 . S
C1627 H1635 1.003 . S
C1628 C1626 1.381 . S
C1628 C1629 1.394 . S
C1628 H1636 0.930 . S
C1629 C1628 1.394 . S
C1629 C1630 1.383 . S
C1629 H1637 0.929 . S
C1630 C1629 1.383 . S
C1630 C1631 1.377 . S
C1631 H1615 0.930 1_455 S
C1631 C1630 1.377 . S
C1631 C1632 1.376 1_455 S
C1632 H1616 0.948 . S
C1632 C1626 1.369 1_655 S
C1632 C1631 1.376 1_655 S
H1633 C1627 0.959 . S
H1634 C1627 0.961 . S
H1635 C1627 1.003 . S
H1636 C1628 0.930 . S
H1637 C1629 0.929 . S
H1638 C1646 0.929 . S
H1639 C1648 0.930 . S
H1640 C1650 0.930 . S
H1641 C1653 0.929 . S
H1642 C1656 0.930 . S
H1643 C1658 0.960 . S
H1644 C1658 0.960 . S
H1645 C1658 0.960 . S
C1646 H1638 0.929 . S
C1646 C1647 1.377 . S
C1646 C1648 1.384 . S
C1647 C1646 1.377 . S
C1647 C1653 1.390 . S
C1648 H1639 0.930 . S
C1648 C1646 1.384 . S
C1648 C1649 1.372 . S
C1649 C1648 1.372 . S
C1649 C1650 1.400 . S
C1649 C1654 1.490 . S
C1650 H1640 0.930 . S
C1650 C1649 1.400 . S
C1650 C1653 1.386 . S
H1651 C1667 0.930 . S
H1652 C1668 0.931 . S
C1653 H1641 0.929 . S
C1653 C1647 1.390 . S
C1653 C1650 1.386 . S
C1654 C1649 1.490 . S
C1654 C1656 1.395 . S
C1654 C1657 1.403 . S
H1655 C1661 0.930 . S
C1656 H1642 0.930 . S
C1656 C1654 1.395 . S
C1656 C1659 1.403 . S
C1657 C1654 1.403 . S
C1657 C1658 1.524 . S
C1657 C1661 1.400 . S
C1658 H1643 0.960 . S
C1658 H1644 0.960 . S
C1658 H1645 0.960 . S
C1658 C1657 1.524 . S
C1659 C1656 1.403 . S
C1659 C1660 1.392 . S
C1659 C1663 1.495 . S
C1660 C1659 1.392 . S
C1660 C1661 1.385 . S
C1660 C1662 1.478 . S
C1661 H1655 0.930 . S
C1661 C1657 1.400 . S
C1661 C1660 1.385 . S
C1662 C1660 1.478 . S
C1662 C1664 1.381 . S
C1662 C1668 1.383 . S
C1663 C1659 1.495 . S
C1663 H1669 0.959 . S
C1663 H1670 0.961 . S
C1663 H1671 0.960 . S
C1664 C1662 1.381 . S
C1664 C1665 1.394 . S
C1664 H1672 0.930 . S
C1665 C1664 1.394 . S
C1665 C1666 1.383 . S
C1665 H1673 0.929 . S
C1666 C1665 1.383 . S
C1666 C1667 1.377 . S
C1667 H1651 0.930 . S
C1667 C1666 1.377 . S
C1667 C1668 1.379 . S
C1668 H1652 0.931 . S
C1668 C1662 1.383 . S
C1668 C1667 1.379 . S
H1669 C1663 0.959 . S
H1670 C1663 0.961 . S
H1671 C1663 0.960 . S
H1672 C1664 0.930 . S
H1673 C1665 0.929 . S
H1674 C1682 0.929 . S
H1675 C1684 0.930 . S
H1676 C1686 0.930 . S
H1677 C1689 0.929 . S
H1678 C1692 0.930 . S
H1679 C1694 0.960 . S
H1680 C1694 0.960 . S
H1681 C1694 0.960 . S
C1682 H1674 0.929 . S
C1682 C1683 1.377 . S
C1682 C1684 1.384 . S
C1683 C1682 1.377 . S
C1683 C1689 1.390 . S
C1684 H1675 0.930 . S
C1684 C1682 1.384 . S
C1684 C1685 1.372 . S
C1685 C1684 1.372 . S
C1685 C1686 1.400 . S
C1685 C1690 1.490 . S
C1686 H1676 0.930 . S
C1686 C1685 1.400 . S
C1686 C1689 1.386 . S
H1687 C1703 0.930 . S
H1688 C1704 0.931 . S
C1689 H1677 0.929 . S
C1689 C1683 1.390 . S
C1689 C1686 1.386 . S
C1690 C1685 1.490 . S
C1690 C1692 1.395 . S
C1690 C1693 1.403 . S
H1691 C1697 0.930 . S
C1692 H1678 0.930 . S
C1692 C1690 1.395 . S
C1692 C1695 1.403 . S
C1693 C1690 1.403 . S
C1693 C1694 1.524 . S
C1693 C1697 1.400 . S
C1694 H1679 0.960 . S
C1694 H1680 0.960 . S
C1694 H1681 0.960 . S
C1694 C1693 1.524 . S
C1695 C1692 1.403 . S
C1695 C1696 1.392 . S
C1695 C1699 1.495 . S
C1696 C1695 1.392 . S
C1696 C1697 1.385 . S
C1696 C1698 1.478 . S
C1697 H1691 0.930 . S
C1697 C1693 1.400 . S
C1697 C1696 1.385 . S
C1698 C1696 1.478 . S
C1698 C1700 1.381 . S
C1698 C1704 1.383 . S
C1699 C1695 1.495 . S
C1699 H1705 0.959 . S
C1699 H1706 0.961 . S
C1699 H1707 0.960 . S
C1700 C1698 1.381 . S
C1700 C1701 1.394 . S
C1700 H1708 0.930 . S
C1701 C1700 1.394 . S
C1701 C1702 1.383 . S
C1701 H1709 0.929 . S
C1702 C1701 1.383 . S
C1702 C1703 1.377 . S
C1703 H1687 0.930 . S
C1703 C1702 1.377 . S
C1703 C1704 1.379 . S
C1704 H1688 0.931 . S
C1704 C1698 1.383 . S
C1704 C1703 1.379 . S
H1705 C1699 0.959 . S
H1706 C1699 0.961 . S
H1707 C1699 0.960 . S
H1708 C1700 0.930 . S
H1709 C1701 0.929 . S
H1710 C1718 0.929 . S
H1711 C1720 0.930 . S
H1712 C1722 0.930 . S
H1713 C1725 0.929 . S
H1714 C1728 0.930 . S
H1715 C1730 0.960 . S
H1716 C1730 0.960 . S
H1717 C1730 0.960 . S
C1718 H1710 0.929 . S
C1718 C1719 1.377 . S
C1718 C1720 1.384 . S
C1719 C1718 1.377 . S
C1719 C1725 1.390 . S
C1720 H1711 0.930 . S
C1720 C1718 1.384 . S
C1720 C1721 1.372 . S
C1721 C1720 1.372 . S
C1721 C1722 1.400 . S
C1721 C1726 1.490 . S
C1722 H1712 0.930 . S
C1722 C1721 1.400 . S
C1722 C1725 1.386 . S
H1723 C1739 0.930 . S
H1724 C1740 0.931 . S
C1725 H1713 0.929 . S
C1725 C1719 1.390 . S
C1725 C1722 1.386 . S
C1726 C1721 1.490 . S
C1726 C1728 1.395 . S
C1726 C1729 1.403 . S
H1727 C1733 0.930 . S
C1728 H1714 0.930 . S
C1728 C1726 1.395 . S
C1728 C1731 1.403 . S
C1729 C1726 1.403 . S
C1729 C1730 1.524 . S
C1729 C1733 1.400 . S
C1730 H1715 0.960 . S
C1730 H1716 0.960 . S
C1730 H1717 0.960 . S
C1730 C1729 1.524 . S
C1731 C1728 1.403 . S
C1731 C1732 1.392 . S
C1731 C1735 1.495 . S
C1732 C1731 1.392 . S
C1732 C1733 1.385 . S
C1732 C1734 1.478 . S
C1733 H1727 0.930 . S
C1733 C1729 1.400 . S
C1733 C1732 1.385 . S
C1734 C1732 1.478 . S
C1734 C1736 1.381 . S
C1734 C1740 1.383 . S
C1735 C1731 1.495 . S
C1735 H1741 0.959 . S
C1735 H1742 0.961 . S
C1735 H1743 0.960 . S
C1736 C1734 1.381 . S
C1736 C1737 1.394 . S
C1736 H1744 0.930 . S
C1737 C1736 1.394 . S
C1737 C1738 1.383 . S
C1737 H1745 0.929 . S
C1738 C1737 1.383 . S
C1738 C1739 1.377 . S
C1739 H1723 0.930 . S
C1739 C1738 1.377 . S
C1739 C1740 1.379 . S
C1740 H1724 0.931 . S
C1740 C1734 1.383 . S
C1740 C1739 1.379 . S
H1741 C1735 0.959 . S
H1742 C1735 0.961 . S
H1743 C1735 0.960 . S
H1744 C1736 0.930 . S
H1745 C1737 0.929 . S
H1746 C1754 0.929 . S
H1747 C1756 0.930 . S
H1748 C1758 0.930 . S
H1749 C1761 0.929 . S
H1750 C1764 0.930 . S
H1751 C1766 0.960 . S
H1752 C1766 0.960 . S
H1753 C1766 0.960 . S
C1754 H1746 0.929 . S
C1754 C1755 1.377 . S
C1754 C1756 1.384 . S
C1755 C1754 1.377 . S
C1755 C1761 1.390 . S
C1756 H1747 0.930 . S
C1756 C1754 1.384 . S
C1756 C1757 1.372 . S
C1757 C1756 1.372 . S
C1757 C1758 1.400 . S
C1757 C1762 1.490 . S
C1758 H1748 0.930 . S
C1758 C1757 1.400 . S
C1758 C1761 1.386 . S
H1759 C1775 0.930 . S
H1760 C1776 0.931 . S
C1761 H1749 0.929 . S
C1761 C1755 1.390 . S
C1761 C1758 1.386 . S
C1762 C1757 1.490 . S
C1762 C1764 1.395 . S
C1762 C1765 1.403 . S
H1763 C1769 0.930 . S
C1764 H1750 0.930 . S
C1764 C1762 1.395 . S
C1764 C1767 1.403 . S
C1765 C1762 1.403 . S
C1765 C1766 1.524 . S
C1765 C1769 1.400 . S
C1766 H1751 0.960 . S
C1766 H1752 0.960 . S
C1766 H1753 0.960 . S
C1766 C1765 1.524 . S
C1767 C1764 1.403 . S
C1767 C1768 1.392 . S
C1767 C1771 1.495 . S
C1768 C1767 1.392 . S
C1768 C1769 1.385 . S
C1768 C1770 1.478 . S
C1769 H1763 0.930 . S
C1769 C1765 1.400 . S
C1769 C1768 1.385 . S
C1770 C1768 1.478 . S
C1770 C1772 1.381 . S
C1770 C1776 1.383 . S
C1771 C1767 1.495 . S
C1771 H1777 0.959 . S
C1771 H1778 0.961 . S
C1771 H1779 0.960 . S
C1772 C1770 1.381 . S
C1772 C1773 1.394 . S
C1772 H1780 0.930 . S
C1773 C1772 1.394 . S
C1773 C1774 1.383 . S
C1773 H1781 0.929 . S
C1774 C1773 1.383 . S
C1774 C1775 1.377 . S
C1775 H1759 0.930 . S
C1775 C1774 1.377 . S
C1775 C1776 1.379 . S
C1776 H1760 0.931 . S
C1776 C1770 1.383 . S
C1776 C1775 1.379 . S
H1777 C1771 0.959 . S
H1778 C1771 0.961 . S
H1779 C1771 0.960 . S
H1780 C1772 0.930 . S
H1781 C1773 0.929 . S
H1782 C1790 0.929 . S
H1783 C1792 0.930 . S
H1784 C1794 0.930 . S
H1785 C1797 0.929 . S
H1786 C1800 0.930 . S
H1787 C1802 0.960 . S
H1788 C1802 0.960 . S
H1789 C1802 0.960 . S
C1790 H1782 0.929 . S
C1790 C1791 1.377 . S
C1790 C1792 1.384 . S
C1791 C1790 1.377 . S
C1791 C1797 1.390 . S
C1792 H1783 0.930 . S
C1792 C1790 1.384 . S
C1792 C1793 1.372 . S
C1793 C1792 1.372 . S
C1793 C1794 1.400 . S
C1793 C1798 1.490 . S
C1794 H1784 0.930 . S
C1794 C1793 1.400 . S
C1794 C1797 1.386 . S
H1795 C1811 0.930 . S
H1796 C1812 0.931 . S
C1797 H1785 0.929 . S
C1797 C1791 1.390 . S
C1797 C1794 1.386 . S
C1798 C1793 1.490 . S
C1798 C1800 1.395 . S
C1798 C1801 1.403 . S
H1799 C1805 0.930 . S
C1800 H1786 0.930 . S
C1800 C1798 1.395 . S
C1800 C1803 1.403 . S
C1801 C1798 1.403 . S
C1801 C1802 1.524 . S
C1801 C1805 1.400 . S
C1802 H1787 0.960 . S
C1802 H1788 0.960 . S
C1802 H1789 0.960 . S
C1802 C1801 1.524 . S
C1803 C1800 1.403 . S
C1803 C1804 1.392 . S
C1803 C1807 1.495 . S
C1804 C1803 1.392 . S
C1804 C1805 1.385 . S
C1804 C1806 1.478 . S
C1805 H1799 0.930 . S
C1805 C1801 1.400 . S
C1805 C1804 1.385 . S
C1806 C1804 1.478 . S
C1806 C1808 1.381 . S
C1806 C1812 1.383 . S
C1807 C1803 1.495 . S
C1807 H1813 0.959 . S
C1807 H1814 0.961 . S
C1807 H1815 0.960 . S
C1808 C1806 1.381 . S
C1808 C1809 1.394 . S
C1808 H1816 0.930 . S
C1809 C1808 1.394 . S
C1809 C1810 1.383 . S
C1809 H1817 0.929 . S
C1810 C1809 1.383 . S
C1810 C1811 1.377 . S
C1811 H1795 0.930 . S
C1811 C1810 1.377 . S
C1811 C1812 1.379 . S
C1812 H1796 0.931 . S
C1812 C1806 1.383 . S
C1812 C1811 1.379 . S
H1813 C1807 0.959 . S
H1814 C1807 0.961 . S
H1815 C1807 0.960 . S
H1816 C1808 0.930 . S
H1817 C1809 0.929 . S
H1818 C1826 0.929 . S
H1819 C1828 0.930 . S
H1820 C1830 0.930 . S
H1821 C1833 0.929 . S
H1822 C1836 0.930 . S
H1823 C1838 0.960 . S
H1824 C1838 0.960 . S
H1825 C1838 0.960 . S
C1826 H1818 0.929 . S
C1826 C1827 1.377 . S
C1826 C1828 1.384 . S
C1827 C1826 1.377 . S
C1827 C1833 1.390 . S
C1828 H1819 0.930 . S
C1828 C1826 1.384 . S
C1828 C1829 1.372 . S
C1829 C1828 1.372 . S
C1829 C1830 1.400 . S
C1829 C1834 1.490 . S
C1830 H1820 0.930 . S
C1830 C1829 1.400 . S
C1830 C1833 1.386 . S
H1831 C1847 0.930 . S
H1832 C1848 0.931 . S
C1833 H1821 0.929 . S
C1833 C1827 1.390 . S
C1833 C1830 1.386 . S
C1834 C1829 1.490 . S
C1834 C1836 1.395 . S
C1834 C1837 1.403 . S
H1835 C1841 0.930 . S
C1836 H1822 0.930 . S
C1836 C1834 1.395 . S
C1836 C1839 1.403 . S
C1837 C1834 1.403 . S
C1837 C1838 1.524 . S
C1837 C1841 1.400 . S
C1838 H1823 0.960 . S
C1838 H1824 0.960 . S
C1838 H1825 0.960 . S
C1838 C1837 1.524 . S
C1839 C1836 1.403 . S
C1839 C1840 1.392 . S
C1839 C1843 1.495 . S
C1840 C1839 1.392 . S
C1840 C1841 1.385 . S
C1840 C1842 1.478 . S
C1841 H1835 0.930 . S
C1841 C1837 1.400 . S
C1841 C1840 1.385 . S
C1842 C1840 1.478 . S
C1842 C1844 1.381 . S
C1842 C1848 1.383 . S
C1843 C1839 1.495 . S
C1843 H1849 0.959 . S
C1843 H1850 0.961 . S
C1843 H1851 0.960 . S
C1844 C1842 1.381 . S
C1844 C1845 1.394 . S
C1844 H1852 0.930 . S
C1845 C1844 1.394 . S
C1845 C1846 1.383 . S
C1845 H1853 0.929 . S
C1846 C1845 1.383 . S
C1846 C1847 1.377 . S
C1847 H1831 0.930 . S
C1847 C1846 1.377 . S
C1847 C1848 1.379 . S
C1848 H1832 0.931 . S
C1848 C1842 1.383 . S
C1848 C1847 1.379 . S
H1849 C1843 0.959 . S
H1850 C1843 0.961 . S
H1851 C1843 0.960 . S
H1852 C1844 0.930 . S
H1853 C1845 0.929 . S
H1854 C1862 0.929 . S
H1855 C1864 0.930 . S
H1856 C1866 0.930 . S
H1857 C1869 0.929 . S
H1858 C1872 0.930 . S
H1859 C1874 0.960 . S
H1860 C1874 0.960 . S
H1861 C1874 0.960 . S
C1862 H1854 0.929 . S
C1862 C1863 1.377 . S
C1862 C1864 1.384 . S
C1863 C1862 1.377 . S
C1863 C1869 1.390 . S
C1864 H1855 0.930 . S
C1864 C1862 1.384 . S
C1864 C1865 1.372 . S
C1865 C1864 1.372 . S
C1865 C1866 1.400 . S
C1865 C1870 1.490 . S
C1866 H1856 0.930 . S
C1866 C1865 1.400 . S
C1866 C1869 1.386 . S
H1867 C1883 0.930 . S
H1868 C1884 0.931 . S
C1869 H1857 0.929 . S
C1869 C1863 1.390 . S
C1869 C1866 1.386 . S
C1870 C1865 1.490 . S
C1870 C1872 1.395 . S
C1870 C1873 1.403 . S
H1871 C1877 0.930 . S
C1872 H1858 0.930 . S
C1872 C1870 1.395 . S
C1872 C1875 1.403 . S
C1873 C1870 1.403 . S
C1873 C1874 1.524 . S
C1873 C1877 1.400 . S
C1874 H1859 0.960 . S
C1874 H1860 0.960 . S
C1874 H1861 0.960 . S
C1874 C1873 1.524 . S
C1875 C1872 1.403 . S
C1875 C1876 1.392 . S
C1875 C1879 1.495 . S
C1876 C1875 1.392 . S
C1876 C1877 1.385 . S
C1876 C1878 1.478 . S
C1877 H1871 0.930 . S
C1877 C1873 1.400 . S
C1877 C1876 1.385 . S
C1878 C1876 1.478 . S
C1878 C1880 1.381 . S
C1878 C1884 1.383 . S
C1879 C1875 1.495 . S
C1879 H1885 0.959 . S
C1879 H1886 0.961 . S
C1879 H1887 0.960 . S
C1880 C1878 1.381 . S
C1880 C1881 1.394 . S
C1880 H1888 0.930 . S
C1881 C1880 1.394 . S
C1881 C1882 1.383 . S
C1881 H1889 0.929 . S
C1882 C1881 1.383 . S
C1882 C1883 1.377 . S
C1883 H1867 0.930 . S
C1883 C1882 1.377 . S
C1883 C1884 1.379 . S
C1884 H1868 0.931 . S
C1884 C1878 1.383 . S
C1884 C1883 1.379 . S
H1885 C1879 0.959 . S
H1886 C1879 0.961 . S
H1887 C1879 0.960 . S
H1888 C1880 0.930 . S
H1889 C1881 0.929 . S
H1890 C1898 0.929 . S
H1891 C1900 0.930 . S
H1892 C1902 0.930 1_545 S
H1893 C1905 0.929 . S
H1894 C1908 0.930 . S
H1895 C1910 0.960 . S
H1896 C1910 0.960 . S
H1897 C1910 0.960 . S
C1898 H1890 0.929 . S
C1898 C1899 1.377 . S
C1898 C1900 1.384 . S
C1899 C1898 1.377 . S
C1899 C1905 1.390 . S
C1900 H1891 0.930 . S
C1900 C1898 1.384 . S
C1900 C1901 1.372 . S
C1901 C1900 1.372 . S
C1901 C1902 1.400 . S
C1901 C1906 1.490 . S
C1902 H1892 0.930 1_565 S
C1902 C1901 1.400 . S
C1902 C1905 1.386 . S
H1903 C1919 0.930 . S
H1904 C1920 0.931 . S
C1905 H1893 0.929 . S
C1905 C1899 1.390 . S
C1905 C1902 1.386 . S
C1906 C1901 1.490 . S
C1906 C1908 1.395 . S
C1906 C1909 1.403 1_565 S
H1907 C1913 0.930 . S
C1908 H1894 0.930 . S
C1908 C1906 1.395 . S
C1908 C1911 1.403 1_554 S
C1909 C1906 1.403 1_545 S
C1909 C1910 1.524 . S
C1909 C1913 1.400 1_554 S
C1910 H1895 0.960 . S
C1910 H1896 0.960 . S
C1910 H1897 0.960 . S
C1910 C1909 1.524 . S
C1911 C1908 1.403 1_556 S
C1911 C1912 1.392 1_565 S
C1911 C1915 1.495 . S
C1912 C1911 1.392 1_545 S
C1912 C1913 1.385 . S
C1912 C1914 1.478 . S
C1913 H1907 0.930 . S
C1913 C1909 1.400 1_556 S
C1913 C1912 1.385 . S
C1914 C1912 1.478 . S
C1914 C1916 1.381 . S
C1914 C1920 1.383 . S
C1915 C1911 1.495 . S
C1915 H1921 0.959 . S
C1915 H1922 0.961 . S
C1915 H1923 0.960 . S
C1916 C1914 1.381 . S
C1916 C1917 1.394 . S
C1916 H1924 0.961 . S
C1917 C1916 1.394 . S
C1917 C1918 1.383 . S
C1917 H1925 0.929 . S
C1918 C1917 1.383 . S
C1918 C1919 1.377 . S
C1919 H1903 0.930 . S
C1919 C1918 1.377 . S
C1919 C1920 1.379 . S
C1920 H1904 0.931 . S
C1920 C1914 1.383 . S
C1920 C1919 1.379 . S
H1921 C1915 0.959 . S
H1922 C1915 0.961 . S
H1923 C1915 0.960 . S
H1924 C1916 0.961 . S
H1925 C1917 0.929 . S
H1926 C1934 0.964 . S
H1927 C1936 0.930 . S
H1928 C1938 0.930 . S
H1929 C1941 0.929 . S
H1930 C1944 0.930 . S
H1931 C1946 0.960 . S
H1932 C1946 0.960 . S
H1933 C1946 0.960 . S
C1934 H1926 0.964 . S
C1934 C1935 1.335 1_655 S
C1934 C1936 1.394 . S
C1935 C1934 1.335 1_455 S
C1935 C1941 1.390 . S
C1936 H1927 0.930 . S
C1936 C1934 1.394 . S
C1936 C1937 1.372 1_655 S
C1937 C1936 1.372 1_455 S
C1937 C1938 1.400 . S
C1937 C1942 1.490 . S
C1938 H1928 0.930 . S
C1938 C1937 1.400 . S
C1938 C1941 1.386 . S
H1939 C1955 0.930 . S
H1940 C1956 0.931 . S
C1941 H1929 0.929 . S
C1941 C1935 1.390 . S
C1941 C1938 1.386 . S
C1942 C1937 1.490 . S
C1942 C1944 1.395 1_455 S
C1942 C1945 1.403 . S
H1943 C1949 0.959 . S
C1944 H1930 0.930 . S
C1944 C1942 1.395 1_655 S
C1944 C1947 1.403 1_554 S
C1945 C1942 1.403 . S
C1945 C1946 1.524 . S
C1945 C1949 1.414 1_554 S
C1946 H1931 0.960 . S
C1946 H1932 0.960 . S
C1946 H1933 0.960 . S
C1946 C1945 1.524 . S
C1947 C1944 1.403 1_556 S
C1947 C1948 1.392 . S
C1947 C1951 1.495 . S
C1948 C1947 1.392 . S
C1948 C1949 1.347 1_655 S
C1948 C1950 1.478 . S
C1949 H1943 0.959 . S
C1949 C1945 1.414 1_556 S
C1949 C1948 1.347 1_455 S
C1950 C1948 1.478 . S
C1950 C1952 1.381 . S
C1950 C1956 1.383 1_655 S
C1951 C1947 1.495 . S
C1951 H1957 0.959 . S
C1951 H1958 0.961 . S
C1951 H1959 0.960 . S
C1952 C1950 1.381 . S
C1952 C1953 1.394 . S
C1952 H1960 0.930 . S
C1953 C1952 1.394 . S
C1953 C1954 1.383 . S
C1953 H1961 0.929 . S
C1954 C1953 1.383 . S
C1954 C1955 1.377 1_655 S
C1955 H1939 0.930 . S
C1955 C1954 1.377 1_455 S
C1955 C1956 1.379 . S
C1956 H1940 0.931 . S
C1956 C1950 1.383 1_455 S
C1956 C1955 1.379 . S
H1957 C1951 0.959 . S
H1958 C1951 0.961 . S
H1959 C1951 0.960 . S
H1960 C1952 0.930 . S
H1961 C1953 0.929 . S
H1962 C1970 0.929 . S
H1963 C1972 0.930 . S
H1964 C1974 0.930 . S
H1965 C1977 0.929 . S
H1966 C1980 0.930 . S
H1967 C1982 0.960 1_554 S
H1968 C1982 0.960 . S
H1969 C1982 0.960 . S
C1970 H1962 0.929 . S
C1970 C1971 1.377 . S
C1970 C1972 1.384 . S
C1971 C1970 1.377 . S
C1971 C1977 1.390 . S
C1972 H1963 0.930 . S
C1972 C1970 1.384 . S
C1972 C1973 1.372 . S
C1973 C1972 1.372 . S
C1973 C1974 1.400 . S
C1973 C1978 1.490 . S
C1974 H1964 0.930 . S
C1974 C1973 1.400 . S
C1974 C1977 1.386 . S
H1975 C1991 0.930 . S
H1976 C1992 0.931 . S
C1977 H1965 0.929 . S
C1977 C1971 1.390 . S
C1977 C1974 1.386 . S
C1978 C1973 1.490 . S
C1978 C1980 1.395 . S
C1978 C1981 1.403 . S
H1979 C1985 0.930 . S
C1980 H1966 0.930 . S
C1980 C1978 1.395 . S
C1980 C1983 1.403 1_556 S
C1981 C1978 1.403 . S
C1981 C1982 1.524 . S
C1981 C1985 1.400 1_556 S
C1982 H1967 0.960 1_556 S
C1982 H1968 0.960 . S
C1982 H1969 0.960 . S
C1982 C1981 1.524 . S
C1983 C1980 1.403 1_554 S
C1983 C1984 1.392 . S
C1983 C1987 1.495 . S
C1984 C1983 1.392 . S
C1984 C1985 1.385 . S
C1984 C1986 1.478 . S
C1985 H1979 0.930 . S
C1985 C1981 1.400 1_554 S
C1985 C1984 1.385 . S
C1986 C1984 1.478 . S
C1986 C1988 1.381 . S
C1986 C1992 1.383 . S
C1987 C1983 1.495 . S
C1987 H1993 0.959 1_554 S
C1987 H1994 0.961 . S
C1987 H1995 0.960 . S
C1988 C1986 1.381 . S
C1988 C1989 1.394 . S
C1988 H1996 0.930 . S
C1989 C1988 1.394 . S
C1989 C1990 1.383 . S
C1989 H1997 0.929 . S
C1990 C1989 1.383 . S
C1990 C1991 1.377 . S
C1991 H1975 0.930 . S
C1991 C1990 1.377 . S
C1991 C1992 1.379 . S
C1992 H1976 0.931 . S
C1992 C1986 1.383 . S
C1992 C1991 1.379 . S
H1993 C1987 0.959 1_556 S
H1994 C1987 0.961 . S
H1995 C1987 0.960 . S
H1996 C1988 0.930 . S
H1997 C1989 0.929 . S
H1998 C2006 0.929 . S
H1999 C2008 0.930 . S
H2000 C2010 0.930 . S
H2001 C2013 0.929 . S
H2002 C2016 0.930 . S
H2003 C2018 0.960 . S
H2004 C2018 0.960 . S
H2005 C2018 0.960 . S
C2006 H1998 0.929 . S
C2006 C2007 1.377 . S
C2006 C2008 1.384 . S
C2007 C2006 1.377 . S
C2007 C2013 1.390 . S
C2008 H1999 0.930 . S
C2008 C2006 1.384 . S
C2008 C2009 1.372 . S
C2009 C2008 1.372 . S
C2009 C2010 1.400 . S
C2009 C2014 1.490 . S
C2010 H2000 0.930 . S
C2010 C2009 1.400 . S
C2010 C2013 1.386 . S
H2011 C2027 0.930 . S
H2012 C2028 0.931 . S
C2013 H2001 0.929 . S
C2013 C2007 1.390 . S
C2013 C2010 1.386 . S
C2014 C2009 1.490 . S
C2014 C2016 1.395 . S
C2014 C2017 1.403 . S
H2015 C2021 0.930 . S
C2016 H2002 0.930 . S
C2016 C2014 1.395 . S
C2016 C2019 1.403 . S
C2017 C2014 1.403 . S
C2017 C2018 1.524 . S
C2017 C2021 1.400 . S
C2018 H2003 0.960 . S
C2018 H2004 0.960 . S
C2018 H2005 0.960 . S
C2018 C2017 1.524 . S
C2019 C2016 1.403 . S
C2019 C2020 1.392 . S
C2019 C2023 1.495 . S
C2020 C2019 1.392 . S
C2020 C2021 1.385 . S
C2020 C2022 1.478 . S
C2021 H2015 0.930 . S
C2021 C2017 1.400 . S
C2021 C2020 1.385 . S
C2022 C2020 1.478 . S
C2022 C2024 1.381 . S
C2022 C2028 1.383 . S
C2023 C2019 1.495 . S
C2023 H2029 0.959 . S
C2023 H2030 0.961 . S
C2023 H2031 0.960 . S
C2024 C2022 1.381 . S
C2024 C2025 1.394 . S
C2024 H2032 0.930 . S
C2025 C2024 1.394 . S
C2025 C2026 1.383 . S
C2025 H2033 0.929 . S
C2026 C2025 1.383 . S
C2026 C2027 1.377 . S
C2027 H2011 0.930 . S
C2027 C2026 1.377 . S
C2027 C2028 1.379 . S
C2028 H2012 0.931 . S
C2028 C2022 1.383 . S
C2028 C2027 1.379 . S
H2029 C2023 0.959 . S
H2030 C2023 0.961 . S
H2031 C2023 0.960 . S
H2032 C2024 0.930 . S
H2033 C2025 0.929 . S
H2034 C2042 0.929 . S
H2035 C2044 0.930 . S
H2036 C2046 0.930 . S
H2037 C2049 0.929 . S
H2038 C2052 0.930 . S
H2039 C2054 0.960 . S
H2040 C2054 0.960 . S
H2041 C2054 0.960 . S
C2042 H2034 0.929 . S
C2042 C2043 1.377 . S
C2042 C2044 1.384 . S
C2043 C2042 1.377 . S
C2043 C2049 1.390 . S
C2044 H2035 0.930 . S
C2044 C2042 1.384 . S
C2044 C2045 1.372 . S
C2045 C2044 1.372 . S
C2045 C2046 1.400 . S
C2045 C2050 1.490 . S
C2046 H2036 0.930 . S
C2046 C2045 1.400 . S
C2046 C2049 1.386 . S
H2047 C2063 0.930 . S
H2048 C2064 0.931 . S
C2049 H2037 0.929 . S
C2049 C2043 1.390 . S
C2049 C2046 1.386 . S
C2050 C2045 1.490 . S
C2050 C2052 1.395 . S
C2050 C2053 1.403 . S
H2051 C2057 0.930 . S
C2052 H2038 0.930 . S
C2052 C2050 1.395 . S
C2052 C2055 1.403 . S
C2053 C2050 1.403 . S
C2053 C2054 1.524 . S
C2053 C2057 1.400 . S
C2054 H2039 0.960 . S
C2054 H2040 0.960 . S
C2054 H2041 0.960 . S
C2054 C2053 1.524 . S
C2055 C2052 1.403 . S
C2055 C2056 1.392 . S
C2055 C2059 1.495 . S
C2056 C2055 1.392 . S
C2056 C2057 1.385 . S
C2056 C2058 1.478 . S
C2057 H2051 0.930 . S
C2057 C2053 1.400 . S
C2057 C2056 1.385 . S
C2058 C2056 1.478 . S
C2058 C2060 1.381 . S
C2058 C2064 1.383 . S
C2059 C2055 1.495 . S
C2059 H2065 0.959 . S
C2059 H2066 0.961 . S
C2059 H2067 0.960 . S
C2060 C2058 1.381 . S
C2060 C2061 1.394 . S
C2060 H2068 0.930 . S
C2061 C2060 1.394 . S
C2061 C2062 1.383 . S
C2061 H2069 0.929 . S
C2062 C2061 1.383 . S
C2062 C2063 1.377 . S
C2063 H2047 0.930 . S
C2063 C2062 1.377 . S
C2063 C2064 1.379 . S
C2064 H2048 0.931 . S
C2064 C2058 1.383 . S
C2064 C2063 1.379 . S
H2065 C2059 0.959 . S
H2066 C2059 0.961 . S
H2067 C2059 0.960 . S
H2068 C2060 0.930 . S
H2069 C2061 0.929 . S
H2070 C2078 0.929 . S
H2071 C2080 0.930 . S
H2072 C2082 0.930 . S
H2073 C2085 0.929 . S
H2074 C2088 0.930 . S
H2075 C2090 0.960 . S
H2076 C2090 0.960 . S
H2077 C2090 0.960 . S
C2078 H2070 0.929 . S
C2078 C2079 1.377 . S
C2078 C2080 1.384 . S
C2079 C2078 1.377 . S
C2079 C2085 1.390 . S
C2080 H2071 0.930 . S
C2080 C2078 1.384 . S
C2080 C2081 1.372 . S
C2081 C2080 1.372 . S
C2081 C2082 1.400 . S
C2081 C2086 1.490 . S
C2082 H2072 0.930 . S
C2082 C2081 1.400 . S
C2082 C2085 1.386 . S
H2083 C2099 0.930 . S
H2084 C2100 0.931 . S
C2085 H2073 0.929 . S
C2085 C2079 1.390 . S
C2085 C2082 1.386 . S
C2086 C2081 1.490 . S
C2086 C2088 1.395 . S
C2086 C2089 1.403 . S
H2087 C2093 0.930 . S
C2088 H2074 0.930 . S
C2088 C2086 1.395 . S
C2088 C2091 1.403 . S
C2089 C2086 1.403 . S
C2089 C2090 1.524 . S
C2089 C2093 1.400 . S
C2090 H2075 0.960 . S
C2090 H2076 0.960 . S
C2090 H2077 0.960 . S
C2090 C2089 1.524 . S
C2091 C2088 1.403 . S
C2091 C2092 1.392 . S
C2091 C2095 1.495 . S
C2092 C2091 1.392 . S
C2092 C2093 1.385 . S
C2092 C2094 1.478 . S
C2093 H2087 0.930 . S
C2093 C2089 1.400 . S
C2093 C2092 1.385 . S
C2094 C2092 1.478 . S
C2094 C2096 1.381 . S
C2094 C2100 1.383 . S
C2095 C2091 1.495 . S
C2095 H2101 0.959 . S
C2095 H2102 0.961 . S
C2095 H2103 0.960 . S
C2096 C2094 1.381 . S
C2096 C2097 1.394 . S
C2096 H2104 0.930 . S
C2097 C2096 1.394 . S
C2097 C2098 1.383 . S
C2097 H2105 0.929 . S
C2098 C2097 1.383 . S
C2098 C2099 1.377 . S
C2099 H2083 0.930 . S
C2099 C2098 1.377 . S
C2099 C2100 1.379 . S
C2100 H2084 0.931 . S
C2100 C2094 1.383 . S
C2100 C2099 1.379 . S
H2101 C2095 0.959 . S
H2102 C2095 0.961 . S
H2103 C2095 0.960 . S
H2104 C2096 0.930 . S
H2105 C2097 0.929 . S
H2106 C2114 0.929 . S
H2107 C2116 0.930 . S
H2108 C2118 0.930 . S
H2109 C2121 0.929 . S
H2110 C2124 0.930 . S
H2111 C2126 0.960 . S
H2112 C2126 0.960 . S
H2113 C2126 0.960 . S
C2114 H2106 0.929 . S
C2114 C2115 1.377 . S
C2114 C2116 1.384 . S
C2115 C2114 1.377 . S
C2115 C2121 1.390 . S
C2116 H2107 0.930 . S
C2116 C2114 1.384 . S
C2116 C2117 1.372 . S
C2117 C2116 1.372 . S
C2117 C2118 1.400 . S
C2117 C2122 1.490 . S
C2118 H2108 0.930 . S
C2118 C2117 1.400 . S
C2118 C2121 1.386 . S
H2119 C2135 0.930 . S
H2120 C2136 0.931 . S
C2121 H2109 0.929 . S
C2121 C2115 1.390 . S
C2121 C2118 1.386 . S
C2122 C2117 1.490 . S
C2122 C2124 1.395 . S
C2122 C2125 1.403 . S
H2123 C2129 0.930 . S
C2124 H2110 0.930 . S
C2124 C2122 1.395 . S
C2124 C2127 1.403 . S
C2125 C2122 1.403 . S
C2125 C2126 1.524 . S
C2125 C2129 1.400 . S
C2126 H2111 0.960 . S
C2126 H2112 0.960 . S
C2126 H2113 0.960 . S
C2126 C2125 1.524 . S
C2127 C2124 1.403 . S
C2127 C2128 1.392 . S
C2127 C2131 1.495 . S
C2128 C2127 1.392 . S
C2128 C2129 1.385 . S
C2128 C2130 1.478 . S
C2129 H2123 0.930 . S
C2129 C2125 1.400 . S
C2129 C2128 1.385 . S
C2130 C2128 1.478 . S
C2130 C2132 1.381 . S
C2130 C2136 1.383 . S
C2131 C2127 1.495 . S
C2131 H2137 0.959 . S
C2131 H2138 0.961 . S
C2131 H2139 0.960 . S
C2132 C2130 1.381 . S
C2132 C2133 1.394 . S
C2132 H2140 0.930 . S
C2133 C2132 1.394 . S
C2133 C2134 1.383 . S
C2133 H2141 0.929 . S
C2134 C2133 1.383 . S
C2134 C2135 1.377 . S
C2135 H2119 0.930 . S
C2135 C2134 1.377 . S
C2135 C2136 1.379 . S
C2136 H2120 0.931 . S
C2136 C2130 1.383 . S
C2136 C2135 1.379 . S
H2137 C2131 0.959 . S
H2138 C2131 0.961 . S
H2139 C2131 0.960 . S
H2140 C2132 0.930 . S
H2141 C2133 0.929 . S
H2142 C2150 0.929 . S
H2143 C2152 0.930 . S
H2144 C2154 0.930 . S
H2145 C2157 0.929 . S
H2146 C2160 0.930 . S
H2147 C2162 0.960 . S
H2148 C2162 0.960 . S
H2149 C2162 0.960 . S
C2150 H2142 0.929 . S
C2150 C2151 1.377 . S
C2150 C2152 1.384 . S
C2151 C2150 1.377 . S
C2151 C2157 1.390 . S
C2152 H2143 0.930 . S
C2152 C2150 1.384 . S
C2152 C2153 1.372 . S
C2153 C2152 1.372 . S
C2153 C2154 1.400 . S
C2153 C2158 1.490 . S
C2154 H2144 0.930 . S
C2154 C2153 1.400 . S
C2154 C2157 1.386 . S
H2155 C2171 0.930 . S
H2156 C2172 0.931 . S
C2157 H2145 0.929 . S
C2157 C2151 1.390 . S
C2157 C2154 1.386 . S
C2158 C2153 1.490 . S
C2158 C2160 1.395 . S
C2158 C2161 1.403 . S
H2159 C2165 0.930 . S
C2160 H2146 0.930 . S
C2160 C2158 1.395 . S
C2160 C2163 1.403 . S
C2161 C2158 1.403 . S
C2161 C2162 1.524 . S
C2161 C2165 1.400 . S
C2162 H2147 0.960 . S
C2162 H2148 0.960 . S
C2162 H2149 0.960 . S
C2162 C2161 1.524 . S
C2163 C2160 1.403 . S
C2163 C2164 1.392 . S
C2163 C2167 1.495 . S
C2164 C2163 1.392 . S
C2164 C2165 1.385 . S
C2164 C2166 1.478 . S
C2165 H2159 0.930 . S
C2165 C2161 1.400 . S
C2165 C2164 1.385 . S
C2166 C2164 1.478 . S
C2166 C2168 1.381 . S
C2166 C2172 1.383 . S
C2167 C2163 1.495 . S
C2167 H2173 0.959 . S
C2167 H2174 0.961 . S
C2167 H2175 0.960 . S
C2168 C2166 1.381 . S
C2168 C2169 1.394 . S
C2168 H2176 0.930 . S
C2169 C2168 1.394 . S
C2169 C2170 1.383 . S
C2169 H2177 0.929 . S
C2170 C2169 1.383 . S
C2170 C2171 1.377 . S
C2171 H2155 0.930 . S
C2171 C2170 1.377 . S
C2171 C2172 1.379 . S
C2172 H2156 0.931 . S
C2172 C2166 1.383 . S
C2172 C2171 1.379 . S
H2173 C2167 0.959 . S
H2174 C2167 0.961 . S
H2175 C2167 0.960 . S
H2176 C2168 0.930 . S
H2177 C2169 0.929 . S
H2178 C2186 0.929 . S
H2179 C2188 0.930 . S
H2180 C2190 0.930 . S
H2181 C2193 0.929 . S
H2182 C2196 0.930 . S
H2183 C2198 0.960 . S
H2184 C2198 0.960 . S
H2185 C2198 0.960 . S
C2186 H2178 0.929 . S
C2186 C2187 1.377 . S
C2186 C2188 1.384 . S
C2187 C2186 1.377 . S
C2187 C2193 1.390 . S
C2188 H2179 0.930 . S
C2188 C2186 1.384 . S
C2188 C2189 1.372 . S
C2189 C2188 1.372 . S
C2189 C2190 1.400 . S
C2189 C2194 1.490 . S
C2190 H2180 0.930 . S
C2190 C2189 1.400 . S
C2190 C2193 1.386 . S
H2191 C2207 0.930 . S
H2192 C2208 0.931 . S
C2193 H2181 0.929 . S
C2193 C2187 1.390 . S
C2193 C2190 1.386 . S
C2194 C2189 1.490 . S
C2194 C2196 1.395 . S
C2194 C2197 1.403 . S
H2195 C2201 0.930 . S
C2196 H2182 0.930 . S
C2196 C2194 1.395 . S
C2196 C2199 1.403 . S
C2197 C2194 1.403 . S
C2197 C2198 1.524 . S
C2197 C2201 1.400 . S
C2198 H2183 0.960 . S
C2198 H2184 0.960 . S
C2198 H2185 0.960 . S
C2198 C2197 1.524 . S
C2199 C2196 1.403 . S
C2199 C2200 1.392 . S
C2199 C2203 1.495 . S
C2200 C2199 1.392 . S
C2200 C2201 1.385 . S
C2200 C2202 1.478 . S
C2201 H2195 0.930 . S
C2201 C2197 1.400 . S
C2201 C2200 1.385 . S
C2202 C2200 1.478 . S
C2202 C2204 1.381 . S
C2202 C2208 1.383 . S
C2203 C2199 1.495 . S
C2203 H2209 0.959 . S
C2203 H2210 0.961 . S
C2203 H2211 0.960 . S
C2204 C2202 1.381 . S
C2204 C2205 1.394 . S
C2204 H2212 0.930 . S
C2205 C2204 1.394 . S
C2205 C2206 1.383 . S
C2205 H2213 0.929 . S
C2206 C2205 1.383 . S
C2206 C2207 1.377 . S
C2207 H2191 0.930 . S
C2207 C2206 1.377 . S
C2207 C2208 1.379 . S
C2208 H2192 0.931 . S
C2208 C2202 1.383 . S
C2208 C2207 1.379 . S
H2209 C2203 0.959 . S
H2210 C2203 0.961 . S
H2211 C2203 0.960 . S
H2212 C2204 0.930 . S
H2213 C2205 0.929 . S
C603 C8 1.124 . S
C622 N47 1.114 . S
C639 N80 1.122 . S
C658 C41 1.138 . S
C675 C74 1.129 . S
C694 N14 1.141 . S
C711 N179 1.124 . S
C730 C107 1.125 . S
C747 N113 1.117 . S
C766 C140 1.119 . S
C783 C173 1.125 . S
C802 N146 1.097 . S
C819 N245 1.123 . S
C838 C206 1.141 . S
C855 C239 1.126 . S
C874 N278 1.131 . S
C891 C272 1.129 . S
C910 N212 1.141 . S
C927 N377 1.120 . S
C946 C305 1.110 . S
C963 N311 1.117 . S
C982 C338 1.117 . S
C999 C371 1.130 . S
C1018 N344 1.140 . S
C1035 N443 1.122 . S
C1054 C404 1.139 . S
C1071 C437 1.126 . S
C1090 N476 1.098 . S
C1107 C470 1.129 . S
C1126 N410 1.140 . S
C1143 N575 1.120 . S
C1162 C503 1.110 . S
C1179 N509 1.119 . S
C1198 C536 1.130 . S
C1215 C569 1.130 . S
C1234 N542 1.118 . S
C1251 N335 1.317 . S
C1270 N5 1.320 . S
C1287 N368 1.313 . S
C1306 N38 1.319 . S
C1323 N302 1.315 . S
C1342 N71 1.327 . S
C1359 N104 1.311 . S
C1378 N467 1.314 . S
C1395 N401 1.311 . S
C1414 N137 1.311 . S
C1431 N434 1.314 . S
C1450 N170 1.320 . S
C1467 N203 1.314 . S
C1486 N533 1.326 . S
C1503 N566 1.313 . S
C1522 N236 1.325 . S
C1539 N500 1.317 . S
C1558 N269 1.311 . S
C1575 C17 1.496 . S
C1594 C182 1.468 . S
C1611 C116 1.496 . S
C1630 C50 1.473 . S
C1647 C149 1.507 . S
C1666 C83 1.522 . S
C1683 C380 1.497 1_556 S
C1702 C215 1.474 . S
C1719 C314 1.498 1_556 S
C1738 C248 1.477 . S
C1755 C281 1.496 . S
C1774 C347 1.470 1_556 S
C1791 C578 1.501 . S
C1810 C413 1.492 1_554 S
C1827 C446 1.508 1_554 S
C1846 C512 1.524 . S
C1863 C545 1.505 . S
C1882 C479 1.517 1_554 S
C1899 C28 0.871 . S
C1918 C193 0.827 . S
C1935 C61 0.856 . S
C1954 C127 0.916 . S
C1971 C160 0.863 . S
C1990 C94 0.921 . S
C2007 C391 0.867 . S
C2026 C226 0.843 . S
C2043 C325 0.874 . S
C2062 C259 0.878 . S
C2079 C358 0.856 . S
C2098 C292 0.913 . S
C2115 C424 0.865 . S
C2134 C589 0.915 . S
C2151 C457 0.868 . S
C2170 C523 0.904 . S
C2187 C556 0.856 . S
C2206 C490 0.912 . S
