# Generated by pormake.
# Topology wlj, (5)-cn, num edge types: 1
# Building blocks:
#     Node 0, Type 0, BuildingBlock: BEQFEK_clean_sbu_0, # of connection points: 5
#     Node 1, Type 0, BuildingBlock: BEQFEK_clean_sbu_0, # of connection points: 5
#     Node 2, Type 0, BuildingBlock: BEQFEK_clean_sbu_0, # of connection points: 5
#     Node 3, Type 0, BuildingBlock: BEQFEK_clean_sbu_0, # of connection points: 5
#     Node 4, Type 0, BuildingBlock: BEQFEK_clean_sbu_0, # of connection points: 5
#     Node 5, Type 0, BuildingBlock: BEQFEK_clean_sbu_0, # of connection points: 5
#     Edge 6, Type (0, 0), BuildingBlock: XUDNAN_clean_linker_2, # of connection points: 2
#     Edge 7, Type (0, 0), BuildingBlock: XUDNAN_clean_linker_2, # of connection points: 2
#     Edge 8, Type (0, 0), BuildingBlock: XUDNAN_clean_linker_2, # of connection points: 2
#     Edge 9, Type (0, 0), BuildingBlock: XUDNAN_clean_linker_2, # of connection points: 2
#     Edge 10, Type (0, 0), BuildingBlock: XUDNAN_clean_linker_2, # of connection points: 2
#     Edge 11, Type (0, 0), BuildingBlock: XUDNAN_clean_linker_2, # of connection points: 2
#     Edge 12, Type (0, 0), BuildingBlock: XUDNAN_clean_linker_2, # of connection points: 2
#     Edge 13, Type (0, 0), BuildingBlock: XUDNAN_clean_linker_2, # of connection points: 2
#     Edge 14, Type (0, 0), BuildingBlock: XUDNAN_clean_linker_2, # of connection points: 2
#     Edge 15, Type (0, 0), BuildingBlock: XUDNAN_clean_linker_2, # of connection points: 2
#     Edge 16, Type (0, 0), BuildingBlock: XUDNAN_clean_linker_2, # of connection points: 2
#     Edge 17, Type (0, 0), BuildingBlock: XUDNAN_clean_linker_2, # of connection points: 2
#     Edge 18, Type (0, 0), BuildingBlock: XUDNAN_clean_linker_2, # of connection points: 2
#     Edge 19, Type (0, 0), BuildingBlock: XUDNAN_clean_linker_2, # of connection points: 2
#     Edge 20, Type (0, 0), BuildingBlock: XUDNAN_clean_linker_2, # of connection points: 2
# Relax obj value: 0.046
# Max RMSD: 0.094
# Mean RMSD: 0.094
data_MOF--net-wlj--node1-BEQFEK_clean_sbu_0--edge1-XUDNAN_clean_linker_2
_symmetry_space_group_name_H-M    P1
_symmetry_Int_Tables_number       1
_symmetry_cell_setting            triclinic
loop_
_symmetry_equiv_pos_as_xyz
'x, y, z'
_cell_length_a     23.819841
_cell_length_b     23.84347
_cell_length_c     68.216901
_cell_angle_alpha  90.213634
_cell_angle_beta   89.647396
_cell_angle_gamma 119.92242
loop_
_atom_site_label
_atom_site_type_symbol
_atom_site_fract_x
_atom_site_fract_y
_atom_site_fract_z
_atom_type_partial_charge
Co0 Co 0.50141 0.33439 0.22288 0.0
Co1 Co 0.54301 0.25917 0.25145 0.0
C2 C 0.44079 0.19023 0.22096 0.0
O3 O 0.44733 0.24293 0.2142 0.0
O4 O 0.47318 0.18928 0.23562 0.0
C5 C 0.42114 0.37658 0.20268 0.0
O6 O 0.37116 0.32048 0.20753 0.0
C7 C 0.53398 0.16958 0.28273 0.0
C8 C 0.6373 0.19991 0.28671 0.0
C9 C 0.57545 0.15512 0.29284 0.0
N10 N 0.56981 0.22087 0.27112 0.0
N11 N 0.63155 0.23915 0.27376 0.0
C12 C 0.46162 0.13198 0.28282 0.0
H13 H 0.44164 0.15945 0.27534 0.0
H14 H 0.44324 0.12093 0.29812 0.0
H15 H 0.4451 0.08531 0.2751 0.0
C16 C 0.48228 0.38436 0.26084 0.0
N17 N 0.49609 0.34461 0.25043 0.0
N18 N 0.51454 0.31403 0.26252 0.0
C19 C 0.51305 0.33342 0.28103 0.0
C20 C 0.49255 0.37872 0.28059 0.0
C21 C 0.46082 0.42776 0.2519 0.0
H22 H 0.49939 0.46287 0.24199 0.0
H23 H 0.41692 0.39823 0.243 0.0
H24 H 0.44931 0.45419 0.26317 0.0
O25 O 0.59186 0.36548 0.21516 0.0
O26 O 0.62067 0.31006 0.23459 0.0
H27 H 0.58451 0.31791 0.29496 0.0
H28 H 0.54262 0.34427 0.31147 0.0
C29 C 0.53712 0.31389 0.29847 0.0
H30 H 0.50236 0.26261 0.30205 0.0
H31 H 0.66976 0.27718 0.26623 0.0
O32 O 0.47752 0.39044 0.2081 0.0
C33 C 0.63363 0.35097 0.22092 0.0
Co34 Co 0.66331 0.16094 0.89037 0.0
Co35 Co 0.74762 0.28416 0.91603 0.0
C36 C 0.8074 0.23802 0.88573 0.0
O37 O 0.75286 0.19144 0.88025 0.0
O38 O 0.81203 0.27612 0.89954 0.0
C39 C 0.61396 0.03422 0.87226 0.0
O40 O 0.67056 0.04044 0.87645 0.0
C41 C 0.84487 0.36199 0.94544 0.0
C42 C 0.81653 0.43434 0.95349 0.0
C43 C 0.8608 0.41448 0.95776 0.0
N44 N 0.79369 0.35161 0.93457 0.0
N45 N 0.77733 0.39534 0.93931 0.0
C46 C 0.87348 0.31857 0.94493 0.0
H47 H 0.83839 0.27069 0.93869 0.0
H48 H 0.88758 0.31212 0.95987 0.0
H49 H 0.91724 0.34054 0.93542 0.0
C50 C 0.62436 0.10137 0.93027 0.0
N51 N 0.65818 0.1524 0.91824 0.0
N52 N 0.69195 0.20474 0.92894 0.0
C53 C 0.6801 0.18873 0.94805 0.0
C54 C 0.63754 0.1228 0.94956 0.0
C55 C 0.58309 0.03323 0.92333 0.0
H56 H 0.61361 0.0184 0.91495 0.0
H57 H 0.5596 0.99919 0.9357 0.0
H58 H 0.54545 0.03069 0.91328 0.0
O59 O 0.63559 0.2228 0.88208 0.0
O60 O 0.69688 0.31091 0.89961 0.0
H61 H 0.67719 0.21535 0.97822 0.0
H62 H 0.75681 0.24735 0.96776 0.0
C63 C 0.70652 0.2358 0.96471 0.0
H64 H 0.70665 0.28095 0.96088 0.0
H65 H 0.73861 0.39774 0.93314 0.0
O66 O 0.60182 0.07841 0.87734 0.0
C67 C 0.65338 0.281 0.88676 0.0
Co68 Co 0.8461 0.50721 0.55487 0.0
Co69 Co 0.72161 0.4618 0.58106 0.0
C70 C 0.75997 0.56479 0.55058 0.0
O71 O 0.81062 0.56251 0.546 0.0
O72 O 0.72122 0.5285 0.56385 0.0
C73 C 0.96919 0.60167 0.54213 0.0
O74 O 0.95022 0.6378 0.5514 0.0
C75 C 0.64546 0.47943 0.61165 0.0
C76 C 0.57192 0.37905 0.61918 0.0
C77 C 0.59296 0.44308 0.62405 0.0
N78 N 0.65461 0.43873 0.60016 0.0
N79 N 0.61023 0.37879 0.60462 0.0
C80 C 0.69014 0.55114 0.61155 0.0
H81 H 0.73737 0.5632 0.60481 0.0
H82 H 0.69794 0.57084 0.62668 0.0
H83 H 0.66845 0.5743 0.60265 0.0
C84 C 0.90452 0.51713 0.59385 0.0
N85 N 0.85472 0.5086 0.58251 0.0
N86 N 0.80294 0.49016 0.59359 0.0
C87 C 0.81849 0.4867 0.61238 0.0
C88 C 0.88334 0.50405 0.61314 0.0
C89 C 0.96983 0.53312 0.58616 0.0
H90 H 0.96422 0.50087 0.57366 0.0
H91 H 0.99527 0.58374 0.5808 0.0
H92 H 1.00014 0.52857 0.59761 0.0
O93 O 0.7883 0.417 0.54613 0.0
O94 O 0.70007 0.38513 0.56459 0.0
H95 H 0.72776 0.41292 0.62402 0.0
H96 H 0.79172 0.44891 0.64193 0.0
C97 C 0.7705 0.45867 0.62884 0.0
H98 H 0.75425 0.49326 0.63304 0.0
H99 H 0.60676 0.33775 0.59795 0.0
O100 O 0.93154 0.54081 0.54173 0.0
C101 C 0.73123 0.37419 0.55128 0.0
Co102 Co 0.34074 0.49977 0.79745 0.0
Co103 Co 0.24856 0.531 0.77304 0.0
C104 C 0.19725 0.43067 0.80488 0.0
O105 O 0.25383 0.44054 0.80856 0.0
O106 O 0.1879 0.46165 0.79131 0.0
C107 C 0.39385 0.42368 0.81316 0.0
O108 O 0.33997 0.37341 0.80704 0.0
C109 C 0.14784 0.50794 0.74395 0.0
C110 C 0.17884 0.60776 0.73445 0.0
C111 C 0.13408 0.54355 0.73068 0.0
N112 N 0.19952 0.54926 0.75462 0.0
N113 N 0.21698 0.60887 0.7491 0.0
C114 C 0.11228 0.43601 0.74667 0.0
H115 H 0.10929 0.42408 0.76245 0.0
H116 H 0.13901 0.41496 0.73921 0.0
H117 H 0.0626 0.41369 0.74059 0.0
C118 C 0.38422 0.48764 0.75766 0.0
N119 N 0.34316 0.49458 0.76978 0.0
N120 N 0.30501 0.50813 0.75939 0.0
C121 C 0.32081 0.51024 0.74025 0.0
C122 C 0.37152 0.49737 0.73851 0.0
C123 C 0.43963 0.48011 0.76457 0.0
H124 H 0.4651 0.51476 0.77664 0.0
H125 H 0.42052 0.43043 0.77038 0.0
H126 H 0.47476 0.48852 0.75262 0.0
O127 O 0.36727 0.58924 0.80516 0.0
O128 O 0.30139 0.6119 0.78845 0.0
H129 H 0.29632 0.57554 0.72638 0.0
H130 H 0.30908 0.52441 0.70938 0.0
C131 C 0.28949 0.52651 0.72397 0.0
H132 H 0.23702 0.49135 0.72391 0.0
H133 H 0.25644 0.65028 0.75486 0.0
O134 O 0.40349 0.48029 0.81004 0.0
C135 C 0.34746 0.6281 0.8006 0.0
Co136 Co 0.516 0.84535 0.46063 0.0
Co137 Co 0.44704 0.70926 0.44052 0.0
C138 C 0.56275 0.75577 0.46839 0.0
O139 O 0.57225 0.813 0.46992 0.0
O140 O 0.51598 0.71273 0.45832 0.0
C141 C 0.59981 0.97439 0.47705 0.0
O142 O 0.6485 0.96356 0.4751 0.0
C143 C 0.46311 0.633 0.4101 0.0
C144 C 0.36386 0.55269 0.40491 0.0
C145 C 0.42703 0.58011 0.39801 0.0
N146 N 0.42305 0.63761 0.42313 0.0
N147 N 0.36383 0.58887 0.42017 0.0
C148 C 0.53476 0.67871 0.40948 0.0
H149 H 0.55327 0.69642 0.42441 0.0
H150 H 0.54538 0.72138 0.4004 0.0
H151 H 0.56051 0.65485 0.40311 0.0
C152 C 0.52712 0.88982 0.41983 0.0
N153 N 0.51009 0.84281 0.43327 0.0
N154 N 0.47746 0.78588 0.42476 0.0
C155 C 0.47108 0.79516 0.40556 0.0
C156 C 0.50296 0.8612 0.40178 0.0
C157 C 0.56624 0.96054 0.42434 0.0
H158 H 0.53435 0.97667 0.43122 0.0
H159 H 0.60493 0.9692 0.43491 0.0
H160 H 0.5885 0.98946 0.4109 0.0
O161 O 0.42836 0.79293 0.47174 0.0
O162 O 0.37258 0.6974 0.45719 0.0
H163 H 0.38808 0.70213 0.39945 0.0
H164 H 0.40863 0.76157 0.38032 0.0
C165 C 0.42863 0.74275 0.39153 0.0
H166 H 0.45752 0.72471 0.38377 0.0
H167 H 0.32314 0.58172 0.42804 0.0
O168 O 0.54393 0.93246 0.47112 0.0
C169 C 0.37637 0.73893 0.46975 0.0
Co170 Co 0.16654 0.66021 0.13033 0.0
Co171 Co 0.29175 0.75129 0.10595 0.0
C172 C 0.24698 0.80459 0.13803 0.0
O173 O 0.20001 0.74797 0.1416 0.0
O174 O 0.28663 0.81484 0.12398 0.0
C175 C 0.03554 0.60967 0.14591 0.0
O176 O 0.03812 0.66233 0.13906 0.0
C177 C 0.38446 0.84674 0.07675 0.0
C178 C 0.4461 0.80324 0.07116 0.0
C179 C 0.43738 0.8543 0.06592 0.0
N180 N 0.3625 0.79294 0.08778 0.0
N181 N 0.3998 0.76747 0.08432 0.0
C182 C 0.35722 0.89127 0.07726 0.0
H183 H 0.31826 0.87538 0.08846 0.0
H184 H 0.33726 0.89207 0.06269 0.0
H185 H 0.39646 0.94126 0.08051 0.0
C186 C 0.11267 0.61984 0.09043 0.0
N187 N 0.16026 0.65956 0.10269 0.0
N188 N 0.21225 0.69846 0.09241 0.0
C189 C 0.19895 0.68516 0.0732 0.0
C190 C 0.13561 0.63464 0.0713 0.0
C191 C 0.04972 0.56376 0.09714 0.0
H192 H 0.05813 0.5397 0.10975 0.0
H193 H 0.01718 0.58188 0.10209 0.0
H194 H 0.02552 0.52779 0.08528 0.0
O195 O 0.22447 0.62784 0.13785 0.0
O196 O 0.31419 0.69514 0.1218 0.0
H197 H 0.2865 0.70881 0.05779 0.0
H198 H 0.2234 0.7057 0.04236 0.0
C199 C 0.24636 0.71962 0.05699 0.0
H200 H 0.26676 0.77235 0.05879 0.0
H201 H 0.39352 0.72529 0.0909 0.0
O202 O 0.0831 0.60048 0.14315 0.0
C203 C 0.28331 0.64774 0.13345 0.0
H204 H 0.43832 0.16315 0.18202 0.0
H205 H 0.34824 0.07878 0.23778 0.0
H206 H 0.27957 0.9733 0.22146 0.0
H207 H 0.29745 0.06757 0.15001 0.0
H208 H 0.34579 0.05866 0.13116 0.0
H209 H 0.38078 0.12958 0.14656 0.0
H210 H 0.47242 0.10683 0.15641 0.0
H211 H 0.43779 0.03599 0.14106 0.0
H212 H 0.4517 0.02922 0.16666 0.0
H213 H 0.22416 0.87708 0.19949 0.0
H214 H 0.19467 0.79238 0.17452 0.0
H215 H 0.32826 0.93631 0.13331 0.0
C216 C 0.40289 0.12267 0.19062 0.0
C217 C 0.39709 0.12889 0.21102 0.0
C218 C 0.35238 0.07473 0.22208 0.0
C219 C 0.31318 0.01493 0.21292 0.0
C220 C 0.32038 0.01001 0.19278 0.0
C221 C 0.36475 0.06215 0.18179 0.0
C222 C 0.36823 0.04199 0.1609 0.0
C223 C 0.34677 0.07651 0.1463 0.0
C224 C 0.43658 0.05422 0.15598 0.0
C225 C 0.3195 0.97022 0.16192 0.0
C226 C 0.29144 0.95327 0.18033 0.0
C227 C 0.24569 0.88976 0.18501 0.0
C228 C 0.22915 0.84197 0.17066 0.0
C229 C 0.2592 0.85753 0.15191 0.0
C230 C 0.30435 0.92283 0.14746 0.0
H231 H 0.06695 0.38664 0.79995 0.0
H232 H 0.20411 0.37746 0.83961 0.0
H233 H 0.11618 0.31718 0.86342 0.0
H234 H 0.97759 0.41399 0.83505 0.0
H235 H 0.8996 0.36435 0.82389 0.0
H236 H 0.97159 0.40044 0.80893 0.0
H237 H 0.94271 0.28749 0.79548 0.0
H238 H 0.87026 0.25095 0.81034 0.0
H239 H 0.92816 0.22355 0.81235 0.0
H240 H 0.01806 0.27388 0.88496 0.0
H241 H 0.91304 0.24064 0.90142 0.0
H242 H 0.83683 0.26911 0.84723 0.0
C243 C 0.07828 0.37074 0.81345 0.0
C244 C 0.14262 0.38697 0.81787 0.0
C245 C 0.15531 0.36551 0.83579 0.0
C246 C 0.10563 0.33121 0.84946 0.0
C247 C 0.04317 0.31754 0.84488 0.0
C248 C 0.02902 0.33556 0.82717 0.0
C249 C 0.95831 0.31734 0.82628 0.0
C250 C 0.95141 0.37762 0.82337 0.0
C251 C 0.92276 0.26682 0.81016 0.0
C252 C 0.93555 0.28838 0.84651 0.0
C253 C 0.98536 0.28905 0.85701 0.0
C254 C 0.97814 0.27126 0.87672 0.0
C255 C 0.91858 0.25257 0.88595 0.0
C256 C 0.86689 0.25071 0.87537 0.0
C257 C 0.87518 0.26802 0.85537 0.0
H258 H 0.52764 0.64097 0.48651 0.0
H259 H 0.69192 0.83194 0.47575 0.0
H260 H 0.7613 0.80427 0.49567 0.0
H261 H 0.56532 0.63384 0.53676 0.0
H262 H 0.53764 0.54836 0.53635 0.0
H263 H 0.50225 0.5814 0.52008 0.0
H264 H 0.53101 0.53295 0.49018 0.0
H265 H 0.56597 0.49926 0.50637 0.0
H266 H 0.61358 0.55157 0.48657 0.0
H267 H 0.8132 0.75359 0.51592 0.0
H268 H 0.84156 0.68694 0.53701 0.0
H269 H 0.64055 0.53424 0.53733 0.0
C270 C 0.57844 0.67655 0.48814 0.0
C271 C 0.60487 0.73821 0.4794 0.0
C272 C 0.67106 0.78427 0.48225 0.0
C273 C 0.71072 0.76897 0.49351 0.0
C274 C 0.68302 0.70791 0.50213 0.0
C275 C 0.61822 0.66271 0.49975 0.0
C276 C 0.59947 0.60195 0.51144 0.0
C277 C 0.54814 0.59077 0.52708 0.0
C278 C 0.57615 0.54296 0.49782 0.0
C279 C 0.66387 0.61983 0.52068 0.0
C280 C 0.71173 0.68076 0.51492 0.0
C281 C 0.77596 0.70621 0.52075 0.0
C282 C 0.79163 0.66819 0.5327 0.0
C283 C 0.74298 0.60626 0.53904 0.0
C284 C 0.67832 0.58218 0.53306 0.0
H285 H 0.22831 0.53475 0.1545 0.0
H286 H 0.41285 0.68699 0.13209 0.0
H287 H 0.46782 0.63354 0.14724 0.0
H288 H 0.28617 0.51385 0.20054 0.0
H289 H 0.23418 0.42722 0.20089 0.0
H290 H 0.20923 0.47714 0.18817 0.0
H291 H 0.19406 0.4118 0.15627 0.0
H292 H 0.21884 0.36155 0.16889 0.0
H293 H 0.26053 0.40364 0.14687 0.0
H294 H 0.50296 0.56564 0.16562 0.0
H295 H 0.51579 0.48548 0.18486 0.0
H296 H 0.30779 0.37571 0.19449 0.0
C297 C 0.28031 0.55696 0.15275 0.0
C298 C 0.31633 0.61526 0.14216 0.0
C299 C 0.38422 0.64238 0.14013 0.0
C300 C 0.41589 0.61244 0.14869 0.0
C301 C 0.37891 0.55523 0.1591 0.0
C302 C 0.31259 0.52752 0.16106 0.0
C303 C 0.28407 0.46559 0.17289 0.0
C304 C 0.25151 0.47133 0.19174 0.0
C305 C 0.23658 0.4072 0.16048 0.0
C306 C 0.34484 0.46296 0.17739 0.0
C307 C 0.39901 0.51528 0.16936 0.0
C308 C 0.46089 0.52428 0.17189 0.0
C309 C 0.46763 0.47852 0.18288 0.0
C310 C 0.41274 0.42417 0.19112 0.0
C311 C 0.35059 0.41642 0.18826 0.0
H312 H 0.45953 0.68613 0.82193 0.0
H313 H 0.30603 0.71695 0.80019 0.0
H314 H 0.35697 0.82379 0.81651 0.0
H315 H 0.47708 0.76045 0.86885 0.0
H316 H 0.56394 0.79624 0.86929 0.0
H317 H 0.51541 0.72231 0.85592 0.0
H318 H 0.58155 0.77554 0.82435 0.0
H319 H 0.63048 0.84957 0.83763 0.0
H320 H 0.58879 0.8503 0.81575 0.0
H321 H 0.42318 0.92585 0.83598 0.0
H322 H 0.50292 0.01847 0.85552 0.0
H323 H 0.61479 0.92191 0.86366 0.0
C324 C 0.43646 0.71522 0.82058 0.0
C325 C 0.37853 0.69297 0.80984 0.0
C326 C 0.35038 0.73293 0.80832 0.0
C327 C 0.37887 0.7936 0.81758 0.0
C328 C 0.43569 0.81374 0.82815 0.0
C329 C 0.46445 0.77596 0.82956 0.0
C330 C 0.52597 0.80915 0.84155 0.0
C331 C 0.52022 0.76968 0.85999 0.0
C332 C 0.58519 0.8219 0.82907 0.0
C333 C 0.52729 0.87156 0.84674 0.0
C334 C 0.47458 0.87307 0.83898 0.0
C335 C 0.46477 0.92532 0.84206 0.0
C336 C 0.5103 0.97762 0.85323 0.0
C337 C 0.56526 0.97757 0.86108 0.0
C338 C 0.57353 0.9236 0.85778 0.0
H339 H 0.01757 0.54698 0.51613 0.0
H340 H 0.06825 0.72433 0.5478 0.0
H341 H 0.17709 0.77625 0.53298 0.0
H342 H 0.17449 0.55765 0.51947 0.0
H343 H 0.17185 0.52733 0.49504 0.0
H344 H 0.09769 0.50257 0.50843 0.0
H345 H 0.05499 0.54241 0.47997 0.0
H346 H 0.12902 0.56735 0.46651 0.0
H347 H 0.10252 0.62478 0.47156 0.0
H348 H 0.27878 0.80945 0.51527 0.0
H349 H 0.36967 0.82469 0.49464 0.0
H350 H 0.25567 0.62733 0.4731 0.0
C351 C 0.05175 0.59663 0.51999 0.0
C352 C 0.03445 0.63163 0.53316 0.0
C353 C 0.08027 0.69663 0.53773 0.0
C354 C 0.14231 0.72654 0.52942 0.0
C355 C 0.15775 0.69097 0.51648 0.0
C356 C 0.11402 0.62762 0.51166 0.0
C357 C 0.14326 0.60138 0.49691 0.0
C358 C 0.14705 0.54382 0.50548 0.0
C359 C 0.10517 0.5829 0.47759 0.0
C360 C 0.21025 0.66002 0.49427 0.0
C361 C 0.21718 0.71082 0.50582 0.0
C362 C 0.27409 0.77013 0.50614 0.0
C363 C 0.32557 0.77813 0.49431 0.0
C364 C 0.32014 0.72718 0.48216 0.0
C365 C 0.26143 0.66721 0.48217 0.0
H366 H 0.54659 0.228 0.86294 0.0
H367 H 0.69213 0.41013 0.88834 0.0
H368 H 0.64299 0.46649 0.87153 0.0
H369 H 0.53695 0.2912 0.81601 0.0
H370 H 0.45059 0.239 0.81394 0.0
H371 H 0.49782 0.21293 0.82767 0.0
H372 H 0.42506 0.19364 0.85818 0.0
H373 H 0.37746 0.21943 0.84454 0.0
H374 H 0.4142 0.25866 0.86734 0.0
H375 H 0.57905 0.50319 0.85182 0.0
H376 H 0.50109 0.51727 0.83187 0.0
H377 H 0.39531 0.31077 0.81995 0.0
C378 C 0.56832 0.27978 0.86494 0.0
C379 C 0.62342 0.31469 0.87691 0.0
C380 C 0.64994 0.38232 0.87926 0.0
C381 C 0.6225 0.41482 0.86973 0.0
C382 C 0.56839 0.37896 0.85801 0.0
C383 C 0.5413 0.31291 0.85567 0.0
C384 C 0.48218 0.28554 0.84263 0.0
C385 C 0.49254 0.2554 0.82396 0.0
C386 C 0.42112 0.23643 0.85385 0.0
C387 C 0.4802 0.34659 0.83802 0.0
C388 C 0.53066 0.39995 0.84693 0.0
C389 C 0.53926 0.46178 0.8448 0.0
C390 C 0.49473 0.46924 0.83339 0.0
C391 C 0.44195 0.41509 0.82438 0.0
C392 C 0.43499 0.35307 0.82668 0.0
H393 H 0.78934 0.31872 0.53013 0.0
H394 H 0.60172 0.28694 0.54958 0.0
H395 H 0.54821 0.18299 0.53179 0.0
H396 H 0.74129 0.24968 0.48201 0.0
H397 H 0.79107 0.21239 0.48212 0.0
H398 H 0.81503 0.28514 0.49605 0.0
H399 H 0.82046 0.22776 0.52758 0.0
H400 H 0.7969 0.15495 0.51373 0.0
H401 H 0.7506 0.15278 0.535 0.0
H402 H 0.51496 0.0849 0.5113 0.0
H403 H 0.50368 0.993 0.49172 0.0
H404 H 0.7131 0.08516 0.48673 0.0
C405 C 0.73699 0.28994 0.53061 0.0
C406 C 0.69961 0.31102 0.54115 0.0
C407 C 0.63129 0.27166 0.54163 0.0
C408 C 0.60045 0.21272 0.53151 0.0
C409 C 0.63867 0.19358 0.52116 0.0
C410 C 0.70543 0.23051 0.52081 0.0
C411 C 0.73513 0.19759 0.50911 0.0
C412 C 0.77285 0.23866 0.49126 0.0
C413 C 0.77831 0.18236 0.52214 0.0
C414 C 0.67453 0.13641 0.50289 0.0
C415 C 0.61949 0.13557 0.50985 0.0
C416 C 0.55766 0.08478 0.50584 0.0
C417 C 0.55183 0.03292 0.49463 0.0
C418 C 0.60756 0.03182 0.48773 0.0
C419 C 0.66967 0.08452 0.49187 0.0
H420 H 0.91887 0.6051 0.15183 0.0
H421 H 0.02575 0.50772 0.16685 0.0
H422 H 0.93495 0.43144 0.1877 0.0
H423 H 0.84633 0.59177 0.1989 0.0
H424 H 0.76971 0.57672 0.18929 0.0
H425 H 0.84288 0.62365 0.1753 0.0
H426 H 0.79259 0.54535 0.14588 0.0
H427 H 0.71916 0.49837 0.15976 0.0
H428 H 0.76124 0.4599 0.14941 0.0
H429 H 0.83448 0.36801 0.20786 0.0
H430 H 0.728 0.31778 0.22449 0.0
H431 H 0.68518 0.45422 0.19566 0.0
C432 C 0.92309 0.56763 0.15945 0.0
C433 C 0.97953 0.56256 0.15773 0.0
C434 C 0.983 0.51261 0.1679 0.0
C435 C 0.93173 0.46906 0.17983 0.0
C436 C 0.87706 0.4757 0.18134 0.0
C437 C 0.87208 0.52332 0.17132 0.0
C438 C 0.80763 0.51938 0.17538 0.0
C439 C 0.81724 0.58158 0.18531 0.0
C440 C 0.76781 0.50487 0.15648 0.0
C441 C 0.7775 0.46245 0.18935 0.0
C442 C 0.81846 0.43815 0.19266 0.0
C443 C 0.80175 0.38634 0.20531 0.0
C444 C 0.74125 0.35825 0.21472 0.0
C445 C 0.69807 0.3818 0.21133 0.0
C446 C 0.71681 0.43472 0.19848 0.0
H447 H 0.4776 0.95867 0.39324 0.0
H448 H 0.54523 0.83633 0.36757 0.0
H449 H 0.56346 0.89341 0.33592 0.0
H450 H 0.39536 0.97002 0.34922 0.0
H451 H 0.41849 0.05331 0.35377 0.0
H452 H 0.40682 1.00013 0.37401 0.0
H453 H 0.52276 0.07956 0.3863 0.0
H454 H 0.53471 0.133 0.36615 0.0
H455 H 0.59059 0.10383 0.36988 0.0
H456 H 0.58454 0.9703 0.30837 0.0
H457 H 0.602 0.05902 0.28595 0.0
H458 H 0.51616 0.12883 0.32876 0.0
C459 C 0.49585 0.94383 0.38088 0.0
C460 C 0.51026 0.89339 0.38272 0.0
C461 C 0.53358 0.87466 0.3663 0.0
C462 C 0.54415 0.90683 0.34833 0.0
C463 C 0.53028 0.95699 0.34702 0.0
C464 C 0.50606 0.97505 0.36278 0.0
C465 C 0.497 0.0318 0.3576 0.0
C466 C 0.42513 0.01265 0.35871 0.0
C467 C 0.53877 0.09051 0.37076 0.0
C468 C 0.52139 0.04383 0.33661 0.0
C469 C 0.5403 1.00003 0.33082 0.0
C470 C 0.56876 0.00407 0.31258 0.0
C471 C 0.57855 0.05447 0.29999 0.0
C472 C 0.55919 0.09943 0.3056 0.0
C473 C 0.52967 0.09374 0.32402 0.0
H474 H 0.85452 0.47123 0.99184 0.0
H475 H 0.9819 0.42553 0.95824 0.0
H476 H 0.06375 0.47275 0.9843 0.0
H477 H 0.979 0.62541 1.00873 0.0
H478 H 0.9426 0.61819 0.03252 0.0
H479 H 0.89237 0.57725 0.01172 0.0
H480 H 0.84344 0.46809 0.03029 0.0
H481 H 0.89362 0.50868 0.05115 0.0
H482 H 0.8966 0.44159 0.03998 0.0
H483 H 0.13215 0.52564 0.01396 0.0
H484 H 0.18393 0.5845 0.0445 0.0
H485 H 0.01493 0.60157 0.05787 0.0
C486 C 0.89953 0.47087 0.98998 0.0
C487 C 0.91084 0.44276 0.97323 0.0
C488 C 0.97072 0.4441 0.97126 0.0
C489 C 0.01794 0.47156 0.98591 0.0
C490 C 0.00482 0.49812 1.00233 0.0
C491 C 0.94724 0.49836 1.0044 0.0
C492 C 0.94599 0.53193 0.02316 0.0
C493 C 0.93963 0.59175 0.01876 0.0
C494 C 0.89169 0.48474 0.03696 0.0
C495 C 0.01213 0.55097 0.03127 0.0
C496 C 0.0451 0.5306 0.0191 0.0
C497 C 0.10699 0.54221 0.02354 0.0
C498 C 0.13612 0.57593 0.04081 0.0
C499 C 0.10366 0.59823 0.05329 0.0
C500 C 0.04072 0.5851 0.04851 0.0
H501 H 0.40117 0.40791 0.72409 0.0
H502 H 0.42883 0.59904 0.71316 0.0
H503 H 0.48921 0.6067 0.68272 0.0
H504 H 0.56076 0.44401 0.70665 0.0
H505 H 0.53143 0.3649 0.69605 0.0
H506 H 0.49075 0.37484 0.717 0.0
H507 H 0.38267 0.32112 0.69784 0.0
H508 H 0.42305 0.31127 0.67682 0.0
H509 H 0.37869 0.35387 0.67444 0.0
H510 H 0.5411 0.59083 0.65264 0.0
H511 H 0.58658 0.5557 0.62599 0.0
H512 H 0.53205 0.37773 0.6575 0.0
C513 C 0.42033 0.4514 0.71529 0.0
C514 C 0.4096 0.50249 0.72069 0.0
C515 C 0.43552 0.55889 0.70897 0.0
C516 C 0.47009 0.56377 0.69175 0.0
C517 C 0.47904 0.51214 0.68663 0.0
C518 C 0.45549 0.45728 0.69813 0.0
C519 C 0.47215 0.40892 0.68933 0.0
C520 C 0.51641 0.39752 0.70308 0.0
C521 C 0.41046 0.34503 0.68431 0.0
C522 C 0.508 0.44483 0.67097 0.0
C523 C 0.51137 0.50422 0.66969 0.0
C524 C 0.54006 0.54504 0.65369 0.0
C525 C 0.56661 0.52493 0.63869 0.0
C526 C 0.56519 0.46493 0.63989 0.0
C527 C 0.53478 0.4243 0.65622 0.0
H528 H 0.06515 0.59698 0.71598 0.0
H529 H 0.10772 0.44217 0.70611 0.0
H530 H 0.04296 0.41158 0.67586 0.0
H531 H 0.8989 0.512 0.69654 0.0
H532 H 0.90707 0.58422 0.68546 0.0
H533 H 0.95179 0.59002 0.70731 0.0
H534 H 0.05879 0.6696 0.68956 0.0
H535 H 0.01453 0.66364 0.66762 0.0
H536 H 0.0795 0.64555 0.66679 0.0
H537 H 0.98155 0.40361 0.64528 0.0
H538 H 0.92339 0.41622 0.61715 0.0
H539 H 0.91996 0.57548 0.64677 0.0
C540 C 0.05962 0.55579 0.70763 0.0
C541 C 0.08975 0.52066 0.71372 0.0
C542 C 0.08287 0.46807 0.7022 0.0
C543 C 0.04677 0.4508 0.68485 0.0
C544 C 0.01796 0.48665 0.67921 0.0
C545 C 0.02352 0.53775 0.69032 0.0
C546 C 0.99013 0.57014 0.68055 0.0
C547 C 0.93361 0.56368 0.69322 0.0
C548 C 0.03865 0.64144 0.67585 0.0
C549 C 0.96595 0.53002 0.66204 0.0
C550 C 0.98251 0.48207 0.66156 0.0
C551 C 0.9678 0.44055 0.64557 0.0
C552 C 0.93516 0.44816 0.62968 0.0
C553 C 0.91777 0.49682 0.62996 0.0
C554 C 0.93282 0.53785 0.64636 0.0
H555 H 0.42491 0.3395 0.31524 0.0
H556 H 0.56042 0.50987 0.28258 0.0
H557 H 0.56022 0.57976 0.30943 0.0
H558 H 0.33046 0.40603 0.335 0.0
H559 H 0.31738 0.36689 0.35848 0.0
H560 H 0.32945 0.33014 0.33695 0.0
H561 H 0.42495 0.32707 0.35389 0.0
H562 H 0.41317 0.36383 0.37548 0.0
H563 H 0.4912 0.40081 0.36353 0.0
H564 H 0.54335 0.63084 0.33915 0.0
H565 H 0.51082 0.66083 0.36994 0.0
H566 H 0.38673 0.45778 0.38407 0.0
C567 C 0.45464 0.39154 0.31388 0.0
C568 C 0.49245 0.41968 0.2969 0.0
C569 C 0.53071 0.48775 0.29546 0.0
C570 C 0.53107 0.52767 0.31063 0.0
C571 C 0.49293 0.49862 0.32716 0.0
C572 C 0.45535 0.43217 0.32891 0.0
C573 C 0.41787 0.41365 0.3481 0.0
C574 C 0.34444 0.37702 0.3444 0.0
C575 C 0.43802 0.374 0.36101 0.0
C576 C 0.4401 0.48007 0.3568 0.0
C577 C 0.4836 0.52828 0.34448 0.0
C578 C 0.5101 0.59354 0.34907 0.0
C579 C 0.49186 0.6101 0.36675 0.0
C580 C 0.44787 0.56166 0.37975 0.0
C581 C 0.42121 0.4958 0.37455 0.0
H582 H 0.51442 0.04406 0.96391 0.0
H583 H 0.71746 0.11727 0.97643 0.0
H584 H 0.68804 0.06068 1.00834 0.0
H585 H 0.46704 0.05814 0.01311 0.0
H586 H 0.38972 0.98462 0.01214 0.0
H587 H 0.426 0.02961 0.99001 0.0
H588 H 0.41918 0.92786 0.97387 0.0
H589 H 0.38198 0.88235 0.99583 0.0
H590 H 0.45433 0.88599 0.98617 0.0
H591 H 0.63753 0.99557 0.0383 0.0
H592 H 0.56806 0.92289 0.06466 0.0
H593 H 0.3971 0.8934 0.03364 0.0
C594 C 0.55234 0.04734 0.97335 0.0
C595 C 0.61814 0.0845 0.96783 0.0
C596 C 0.66682 0.08881 0.98052 0.0
C597 C 0.65059 0.05704 0.99863 0.0
C598 C 0.5854 0.02149 1.00385 0.0
C599 C 0.53691 0.01616 0.99161 0.0
C600 C 0.47068 0.97479 1.00091 0.0
C601 C 0.43635 0.01416 1.00424 0.0
C602 C 0.4291 0.91414 0.98846 0.0
C603 C 0.48964 0.95756 0.02021 0.0
C604 C 0.55613 0.98512 0.02154 0.0
C605 C 0.58545 0.97422 0.03754 0.0
C606 C 0.54574 0.9331 0.05244 0.0
C607 C 0.4776 0.90405 0.05136 0.0
C608 C 0.4492 0.91693 0.03514 0.0
loop_
_geom_bond_atom_site_label_1
_geom_bond_atom_site_label_2
_geom_bond_distance
_geom_bond_site_symmetry_2
_ccdc_geom_bond_type
Co0 O3 1.970 . S
Co0 N17 1.989 . S
Co0 O25 1.967 . S
Co0 O32 1.920 . S
Co1 O4 1.966 . S
Co1 N10 2.022 . S
Co1 N18 1.993 . S
Co1 O26 1.941 . S
C2 O3 1.258 . S
C2 O4 1.263 . S
O3 Co0 1.970 . S
O3 C2 1.258 . S
O4 Co1 1.966 . S
O4 C2 1.263 . S
C5 O6 1.235 . S
C5 O32 1.289 . S
O6 C5 1.235 . S
C7 C9 1.400 . S
C7 N10 1.351 . S
C7 C12 1.501 . S
C8 C9 1.387 . S
C8 N11 1.341 . S
C9 C7 1.400 . S
C9 C8 1.387 . S
N10 Co1 2.022 . S
N10 C7 1.351 . S
N10 N11 1.365 . S
N11 C8 1.341 . S
N11 N10 1.365 . S
N11 H31 0.862 . S
C12 C7 1.501 . S
C12 H13 0.961 . S
C12 H14 0.961 . S
C12 H15 0.960 . S
H13 C12 0.961 . S
H14 C12 0.961 . S
H15 C12 0.960 . S
C16 N17 1.342 . S
C16 C20 1.401 . S
C16 C21 1.499 . S
N17 Co0 1.989 . S
N17 C16 1.342 . S
N17 N18 1.388 . S
N18 Co1 1.993 . S
N18 N17 1.388 . S
N18 C19 1.346 . S
C19 N18 1.346 . S
C19 C20 1.396 . S
C19 C29 1.510 . S
C20 C16 1.401 . S
C20 C19 1.396 . S
C21 C16 1.499 . S
C21 H22 0.959 . S
C21 H23 0.960 . S
C21 H24 0.961 . S
H22 C21 0.959 . S
H23 C21 0.960 . S
H24 C21 0.961 . S
O25 Co0 1.967 . S
O25 C33 1.258 . S
O26 Co1 1.941 . S
O26 C33 1.266 . S
H27 C29 0.959 . S
H28 C29 0.961 . S
C29 C19 1.510 . S
C29 H27 0.959 . S
C29 H28 0.961 . S
C29 H30 0.960 . S
H30 C29 0.960 . S
H31 N11 0.862 . S
O32 Co0 1.920 . S
O32 C5 1.289 . S
C33 O25 1.258 . S
C33 O26 1.266 . S
Co34 O37 1.970 . S
Co34 N51 1.989 . S
Co34 O59 1.967 . S
Co34 O66 1.920 . S
Co35 O38 1.966 . S
Co35 N44 2.022 . S
Co35 N52 1.993 . S
Co35 O60 1.941 . S
C36 O37 1.258 . S
C36 O38 1.263 . S
O37 Co34 1.970 . S
O37 C36 1.258 . S
O38 Co35 1.966 . S
O38 C36 1.263 . S
C39 O40 1.235 1_545 S
C39 O66 1.289 . S
O40 C39 1.235 1_565 S
C41 C43 1.400 . S
C41 N44 1.351 . S
C41 C46 1.501 . S
C42 C43 1.387 . S
C42 N45 1.341 . S
C43 C41 1.400 . S
C43 C42 1.387 . S
N44 Co35 2.022 . S
N44 C41 1.351 . S
N44 N45 1.365 . S
N45 C42 1.341 . S
N45 N44 1.365 . S
N45 H65 0.862 . S
C46 C41 1.501 . S
C46 H47 0.961 . S
C46 H48 0.961 . S
C46 H49 0.960 . S
H47 C46 0.961 . S
H48 C46 0.961 . S
H49 C46 0.960 . S
C50 N51 1.342 . S
C50 C54 1.401 . S
C50 C55 1.499 1_545 S
N51 Co34 1.989 . S
N51 C50 1.342 . S
N51 N52 1.388 . S
N52 Co35 1.993 . S
N52 N51 1.388 . S
N52 C53 1.346 . S
C53 N52 1.346 . S
C53 C54 1.396 . S
C53 C63 1.510 . S
C54 C50 1.401 . S
C54 C53 1.396 . S
C55 C50 1.499 1_565 S
C55 H56 0.959 . S
C55 H57 0.960 . S
C55 H58 0.961 . S
H56 C55 0.959 . S
H57 C55 0.960 . S
H58 C55 0.961 . S
O59 Co34 1.967 . S
O59 C67 1.258 . S
O60 Co35 1.941 . S
O60 C67 1.266 . S
H61 C63 0.959 . S
H62 C63 0.961 . S
C63 C53 1.510 . S
C63 H61 0.959 . S
C63 H62 0.961 . S
C63 H64 0.960 . S
H64 C63 0.960 . S
H65 N45 0.862 . S
O66 Co34 1.920 . S
O66 C39 1.289 . S
C67 O59 1.258 . S
C67 O60 1.266 . S
Co68 O71 1.970 . S
Co68 N85 1.989 . S
Co68 O93 1.967 . S
Co68 O100 1.920 . S
Co69 O72 1.966 . S
Co69 N78 2.022 . S
Co69 N86 1.993 . S
Co69 O94 1.941 . S
C70 O71 1.258 . S
C70 O72 1.263 . S
O71 Co68 1.970 . S
O71 C70 1.258 . S
O72 Co69 1.966 . S
O72 C70 1.263 . S
C73 O74 1.235 1_655 S
C73 O100 1.289 . S
O74 C73 1.235 1_455 S
C75 C77 1.400 . S
C75 N78 1.351 . S
C75 C80 1.501 . S
C76 C77 1.387 . S
C76 N79 1.341 . S
C77 C75 1.400 . S
C77 C76 1.387 . S
N78 Co69 2.022 . S
N78 C75 1.351 . S
N78 N79 1.365 . S
N79 C76 1.341 . S
N79 N78 1.365 . S
N79 H99 0.862 . S
C80 C75 1.501 . S
C80 H81 0.961 . S
C80 H82 0.961 . S
C80 H83 0.960 . S
H81 C80 0.961 . S
H82 C80 0.961 . S
H83 C80 0.960 . S
C84 N85 1.342 . S
C84 C88 1.401 . S
C84 C89 1.499 1_655 S
N85 Co68 1.989 . S
N85 C84 1.342 . S
N85 N86 1.388 . S
N86 Co69 1.993 . S
N86 N85 1.388 . S
N86 C87 1.346 . S
C87 N86 1.346 . S
C87 C88 1.396 . S
C87 C97 1.510 . S
C88 C84 1.401 . S
C88 C87 1.396 . S
C89 C84 1.499 1_455 S
C89 H90 0.959 . S
C89 H91 0.960 . S
C89 H92 0.961 . S
H90 C89 0.959 . S
H91 C89 0.960 . S
H92 C89 0.961 . S
O93 Co68 1.967 . S
O93 C101 1.258 . S
O94 Co69 1.941 . S
O94 C101 1.266 . S
H95 C97 0.959 . S
H96 C97 0.961 . S
C97 C87 1.510 . S
C97 H95 0.959 . S
C97 H96 0.961 . S
C97 H98 0.960 . S
H98 C97 0.960 . S
H99 N79 0.862 . S
O100 Co68 1.920 . S
O100 C73 1.289 . S
C101 O93 1.258 . S
C101 O94 1.266 . S
Co102 O105 1.970 . S
Co102 N119 1.989 . S
Co102 O127 1.967 . S
Co102 O134 1.920 . S
Co103 O106 1.966 . S
Co103 N112 2.022 . S
Co103 N120 1.993 . S
Co103 O128 1.941 . S
C104 O105 1.258 . S
C104 O106 1.263 . S
O105 Co102 1.970 . S
O105 C104 1.258 . S
O106 Co103 1.966 . S
O106 C104 1.263 . S
C107 O108 1.235 . S
C107 O134 1.289 . S
O108 C107 1.235 . S
C109 C111 1.400 . S
C109 N112 1.351 . S
C109 C114 1.501 . S
C110 C111 1.387 . S
C110 N113 1.341 . S
C111 C109 1.400 . S
C111 C110 1.387 . S
N112 Co103 2.022 . S
N112 C109 1.351 . S
N112 N113 1.365 . S
N113 C110 1.341 . S
N113 N112 1.365 . S
N113 H133 0.862 . S
C114 C109 1.501 . S
C114 H115 0.961 . S
C114 H116 0.961 . S
C114 H117 0.960 . S
H115 C114 0.961 . S
H116 C114 0.961 . S
H117 C114 0.960 . S
C118 N119 1.342 . S
C118 C122 1.401 . S
C118 C123 1.499 . S
N119 Co102 1.989 . S
N119 C118 1.342 . S
N119 N120 1.388 . S
N120 Co103 1.993 . S
N120 N119 1.388 . S
N120 C121 1.346 . S
C121 N120 1.346 . S
C121 C122 1.396 . S
C121 C131 1.510 . S
C122 C118 1.401 . S
C122 C121 1.396 . S
C123 C118 1.499 . S
C123 H124 0.959 . S
C123 H125 0.960 . S
C123 H126 0.961 . S
H124 C123 0.959 . S
H125 C123 0.960 . S
H126 C123 0.961 . S
O127 Co102 1.967 . S
O127 C135 1.258 . S
O128 Co103 1.941 . S
O128 C135 1.266 . S
H129 C131 0.959 . S
H130 C131 0.961 . S
C131 C121 1.510 . S
C131 H129 0.959 . S
C131 H130 0.961 . S
C131 H132 0.960 . S
H132 C131 0.960 . S
H133 N113 0.862 . S
O134 Co102 1.920 . S
O134 C107 1.289 . S
C135 O127 1.258 . S
C135 O128 1.266 . S
Co136 O139 1.970 . S
Co136 N153 1.989 . S
Co136 O161 1.967 . S
Co136 O168 1.920 . S
Co137 O140 1.966 . S
Co137 N146 2.022 . S
Co137 N154 1.993 . S
Co137 O162 1.941 . S
C138 O139 1.258 . S
C138 O140 1.263 . S
O139 Co136 1.970 . S
O139 C138 1.258 . S
O140 Co137 1.966 . S
O140 C138 1.263 . S
C141 O142 1.235 1_565 S
C141 O168 1.289 . S
O142 C141 1.235 1_545 S
C143 C145 1.400 . S
C143 N146 1.351 . S
C143 C148 1.501 . S
C144 C145 1.387 . S
C144 N147 1.341 . S
C145 C143 1.400 . S
C145 C144 1.387 . S
N146 Co137 2.022 . S
N146 C143 1.351 . S
N146 N147 1.365 . S
N147 C144 1.341 . S
N147 N146 1.365 . S
N147 H167 0.862 . S
C148 C143 1.501 . S
C148 H149 0.961 . S
C148 H150 0.961 . S
C148 H151 0.960 . S
H149 C148 0.961 . S
H150 C148 0.961 . S
H151 C148 0.960 . S
C152 N153 1.342 . S
C152 C156 1.401 . S
C152 C157 1.499 1_565 S
N153 Co136 1.989 . S
N153 C152 1.342 . S
N153 N154 1.388 . S
N154 Co137 1.993 . S
N154 N153 1.388 . S
N154 C155 1.346 . S
C155 N154 1.346 . S
C155 C156 1.396 . S
C155 C165 1.510 . S
C156 C152 1.401 . S
C156 C155 1.396 . S
C157 C152 1.499 1_545 S
C157 H158 0.959 . S
C157 H159 0.960 . S
C157 H160 0.961 . S
H158 C157 0.959 . S
H159 C157 0.960 . S
H160 C157 0.961 . S
O161 Co136 1.967 . S
O161 C169 1.258 . S
O162 Co137 1.941 . S
O162 C169 1.266 . S
H163 C165 0.959 . S
H164 C165 0.961 . S
C165 C155 1.510 . S
C165 H163 0.959 . S
C165 H164 0.961 . S
C165 H166 0.960 . S
H166 C165 0.960 . S
H167 N147 0.862 . S
O168 Co136 1.920 . S
O168 C141 1.289 . S
C169 O161 1.258 . S
C169 O162 1.266 . S
Co170 O173 1.970 . S
Co170 N187 1.989 . S
Co170 O195 1.967 . S
Co170 O202 1.920 . S
Co171 O174 1.966 . S
Co171 N180 2.022 . S
Co171 N188 1.993 . S
Co171 O196 1.941 . S
C172 O173 1.258 . S
C172 O174 1.263 . S
O173 Co170 1.970 . S
O173 C172 1.258 . S
O174 Co171 1.966 . S
O174 C172 1.263 . S
C175 O176 1.235 1_455 S
C175 O202 1.289 . S
O176 C175 1.235 1_655 S
C177 C179 1.400 . S
C177 N180 1.351 . S
C177 C182 1.501 . S
C178 C179 1.387 . S
C178 N181 1.341 . S
C179 C177 1.400 . S
C179 C178 1.387 . S
N180 Co171 2.022 . S
N180 C177 1.351 . S
N180 N181 1.365 . S
N181 C178 1.341 . S
N181 N180 1.365 . S
N181 H201 0.862 . S
C182 C177 1.501 . S
C182 H183 0.961 . S
C182 H184 0.961 . S
C182 H185 0.960 . S
H183 C182 0.961 . S
H184 C182 0.961 . S
H185 C182 0.960 . S
C186 N187 1.342 . S
C186 C190 1.401 . S
C186 C191 1.499 1_455 S
N187 Co170 1.989 . S
N187 C186 1.342 . S
N187 N188 1.388 . S
N188 Co171 1.993 . S
N188 N187 1.388 . S
N188 C189 1.346 . S
C189 N188 1.346 . S
C189 C190 1.396 . S
C189 C199 1.510 . S
C190 C186 1.401 . S
C190 C189 1.396 . S
C191 C186 1.499 1_655 S
C191 H192 0.959 . S
C191 H193 0.960 . S
C191 H194 0.961 . S
H192 C191 0.959 . S
H193 C191 0.960 . S
H194 C191 0.961 . S
O195 Co170 1.967 . S
O195 C203 1.258 . S
O196 Co171 1.941 . S
O196 C203 1.266 . S
H197 C199 0.959 . S
H198 C199 0.961 . S
C199 C189 1.510 . S
C199 H197 0.959 . S
C199 H198 0.961 . S
C199 H200 0.960 . S
H200 C199 0.960 . S
H201 N181 0.862 . S
O202 Co170 1.920 . S
O202 C175 1.289 . S
C203 O195 1.258 . S
C203 O196 1.266 . S
H204 C216 0.930 . S
H205 C218 0.930 . S
H206 C219 0.930 1_565 S
H207 C223 0.959 . S
H208 C223 0.959 . S
H209 C223 0.961 . S
H210 C224 0.960 . S
H211 C224 0.961 . S
H212 C224 0.959 . S
H213 C227 0.929 . S
H214 C228 0.931 . S
H215 C230 0.930 . S
C216 H204 0.930 . S
C216 C217 1.399 . S
C216 C221 1.399 . S
C217 C216 1.399 . S
C217 C218 1.376 . S
C218 H205 0.930 . S
C218 C217 1.376 . S
C218 C219 1.388 . S
C219 H206 0.930 1_545 S
C219 C218 1.388 . S
C219 C220 1.390 . S
C220 C219 1.390 . S
C220 C221 1.394 . S
C220 C226 1.465 1_545 S
C221 C216 1.399 . S
C221 C220 1.394 . S
C221 C222 1.516 . S
C222 C221 1.516 . S
C222 C223 1.502 . S
C222 C224 1.561 . S
C222 C225 1.526 1_545 S
C223 H207 0.959 . S
C223 H208 0.959 . S
C223 H209 0.961 . S
C223 C222 1.502 . S
C224 H210 0.960 . S
C224 H211 0.961 . S
C224 H212 0.959 . S
C224 C222 1.561 . S
C225 C222 1.526 1_565 S
C225 C226 1.396 . S
C225 C230 1.390 . S
C226 C220 1.465 1_565 S
C226 C225 1.396 . S
C226 C227 1.399 . S
C227 H213 0.929 . S
C227 C226 1.399 . S
C227 C228 1.385 . S
C228 H214 0.931 . S
C228 C227 1.385 . S
C228 C229 1.389 . S
C229 C228 1.389 . S
C229 C230 1.387 . S
C230 H215 0.930 . S
C230 C225 1.390 . S
C230 C229 1.387 . S
H231 C243 0.930 . S
H232 C245 0.930 . S
H233 C246 0.930 . S
H234 C250 0.959 . S
H235 C250 0.959 . S
H236 C250 0.961 . S
H237 C251 0.960 . S
H238 C251 0.961 . S
H239 C251 0.959 . S
H240 C254 0.929 1_455 S
H241 C255 0.931 . S
H242 C257 0.930 . S
C243 H231 0.930 . S
C243 C244 1.399 . S
C243 C248 1.399 . S
C244 C243 1.399 . S
C244 C245 1.376 . S
C245 H232 0.930 . S
C245 C244 1.376 . S
C245 C246 1.388 . S
C246 H233 0.930 . S
C246 C245 1.388 . S
C246 C247 1.390 . S
C247 C246 1.390 . S
C247 C248 1.394 . S
C247 C253 1.465 1_455 S
C248 C243 1.399 . S
C248 C247 1.394 . S
C248 C249 1.516 1_455 S
C249 C248 1.516 1_655 S
C249 C250 1.502 . S
C249 C251 1.561 . S
C249 C252 1.526 . S
C250 H234 0.959 . S
C250 H235 0.959 . S
C250 H236 0.961 . S
C250 C249 1.502 . S
C251 H237 0.960 . S
C251 H238 0.961 . S
C251 H239 0.959 . S
C251 C249 1.561 . S
C252 C249 1.526 . S
C252 C253 1.396 . S
C252 C257 1.390 . S
C253 C247 1.465 1_655 S
C253 C252 1.396 . S
C253 C254 1.399 . S
C254 H240 0.929 1_655 S
C254 C253 1.399 . S
C254 C255 1.385 . S
C255 H241 0.931 . S
C255 C254 1.385 . S
C255 C256 1.389 . S
C256 C255 1.389 . S
C256 C257 1.387 . S
C257 H242 0.930 . S
C257 C252 1.390 . S
C257 C256 1.387 . S
H258 C270 0.930 . S
H259 C272 0.930 . S
H260 C273 0.930 . S
H261 C277 0.959 . S
H262 C277 0.959 . S
H263 C277 0.961 . S
H264 C278 0.960 . S
H265 C278 0.961 . S
H266 C278 0.959 . S
H267 C281 0.929 . S
H268 C282 0.931 . S
H269 C284 0.930 . S
C270 H258 0.930 . S
C270 C271 1.399 . S
C270 C275 1.399 . S
C271 C270 1.399 . S
C271 C272 1.376 . S
C272 H259 0.930 . S
C272 C271 1.376 . S
C272 C273 1.388 . S
C273 H260 0.930 . S
C273 C272 1.388 . S
C273 C274 1.390 . S
C274 C273 1.390 . S
C274 C275 1.394 . S
C274 C280 1.465 . S
C275 C270 1.399 . S
C275 C274 1.394 . S
C275 C276 1.516 . S
C276 C275 1.516 . S
C276 C277 1.502 . S
C276 C278 1.561 . S
C276 C279 1.526 . S
C277 H261 0.959 . S
C277 H262 0.959 . S
C277 H263 0.961 . S
C277 C276 1.502 . S
C278 H264 0.960 . S
C278 H265 0.961 . S
C278 H266 0.959 . S
C278 C276 1.561 . S
C279 C276 1.526 . S
C279 C280 1.396 . S
C279 C284 1.390 . S
C280 C274 1.465 . S
C280 C279 1.396 . S
C280 C281 1.399 . S
C281 H267 0.929 . S
C281 C280 1.399 . S
C281 C282 1.385 . S
C282 H268 0.931 . S
C282 C281 1.385 . S
C282 C283 1.389 . S
C283 C282 1.389 . S
C283 C284 1.387 . S
C284 H269 0.930 . S
C284 C279 1.390 . S
C284 C283 1.387 . S
H285 C297 0.930 . S
H286 C299 0.930 . S
H287 C300 0.930 . S
H288 C304 0.959 . S
H289 C304 0.959 . S
H290 C304 0.961 . S
H291 C305 0.960 . S
H292 C305 0.961 . S
H293 C305 0.959 . S
H294 C308 0.929 . S
H295 C309 0.931 . S
H296 C311 0.930 . S
C297 H285 0.930 . S
C297 C298 1.399 . S
C297 C302 1.399 . S
C298 C297 1.399 . S
C298 C299 1.376 . S
C299 H286 0.930 . S
C299 C298 1.376 . S
C299 C300 1.388 . S
C300 H287 0.930 . S
C300 C299 1.388 . S
C300 C301 1.390 . S
C301 C300 1.390 . S
C301 C302 1.394 . S
C301 C307 1.465 . S
C302 C297 1.399 . S
C302 C301 1.394 . S
C302 C303 1.516 . S
C303 C302 1.516 . S
C303 C304 1.502 . S
C303 C305 1.561 . S
C303 C306 1.526 . S
C304 H288 0.959 . S
C304 H289 0.959 . S
C304 H290 0.961 . S
C304 C303 1.502 . S
C305 H291 0.960 . S
C305 H292 0.961 . S
C305 H293 0.959 . S
C305 C303 1.561 . S
C306 C303 1.526 . S
C306 C307 1.396 . S
C306 C311 1.390 . S
C307 C301 1.465 . S
C307 C306 1.396 . S
C307 C308 1.399 . S
C308 H294 0.929 . S
C308 C307 1.399 . S
C308 C309 1.385 . S
C309 H295 0.931 . S
C309 C308 1.385 . S
C309 C310 1.389 . S
C310 C309 1.389 . S
C310 C311 1.387 . S
C311 H296 0.930 . S
C311 C306 1.390 . S
C311 C310 1.387 . S
H312 C324 0.930 . S
H313 C326 0.930 . S
H314 C327 0.930 . S
H315 C331 0.959 . S
H316 C331 0.959 . S
H317 C331 0.961 . S
H318 C332 0.960 . S
H319 C332 0.961 . S
H320 C332 0.959 . S
H321 C335 0.929 . S
H322 C336 0.931 . S
H323 C338 0.930 . S
C324 H312 0.930 . S
C324 C325 1.399 . S
C324 C329 1.399 . S
C325 C324 1.399 . S
C325 C326 1.376 . S
C326 H313 0.930 . S
C326 C325 1.376 . S
C326 C327 1.388 . S
C327 H314 0.930 . S
C327 C326 1.388 . S
C327 C328 1.390 . S
C328 C327 1.390 . S
C328 C329 1.394 . S
C328 C334 1.465 . S
C329 C324 1.399 . S
C329 C328 1.394 . S
C329 C330 1.516 . S
C330 C329 1.516 . S
C330 C331 1.502 . S
C330 C332 1.561 . S
C330 C333 1.526 . S
C331 H315 0.959 . S
C331 H316 0.959 . S
C331 H317 0.961 . S
C331 C330 1.502 . S
C332 H318 0.960 . S
C332 H319 0.961 . S
C332 H320 0.959 . S
C332 C330 1.561 . S
C333 C330 1.526 . S
C333 C334 1.396 . S
C333 C338 1.390 . S
C334 C328 1.465 . S
C334 C333 1.396 . S
C334 C335 1.399 . S
C335 H321 0.929 . S
C335 C334 1.399 . S
C335 C336 1.385 . S
C336 H322 0.931 . S
C336 C335 1.385 . S
C336 C337 1.389 . S
C337 C336 1.389 . S
C337 C338 1.387 . S
C338 H323 0.930 . S
C338 C333 1.390 . S
C338 C337 1.387 . S
H339 C351 0.930 . S
H340 C353 0.930 . S
H341 C354 0.930 . S
H342 C358 0.959 . S
H343 C358 0.959 . S
H344 C358 0.961 . S
H345 C359 0.960 . S
H346 C359 0.961 . S
H347 C359 0.959 . S
H348 C362 0.929 . S
H349 C363 0.931 . S
H350 C365 0.930 . S
C351 H339 0.930 . S
C351 C352 1.399 . S
C351 C356 1.399 . S
C352 C351 1.399 . S
C352 C353 1.376 . S
C353 H340 0.930 . S
C353 C352 1.376 . S
C353 C354 1.388 . S
C354 H341 0.930 . S
C354 C353 1.388 . S
C354 C355 1.390 . S
C355 C354 1.390 . S
C355 C356 1.394 . S
C355 C361 1.465 . S
C356 C351 1.399 . S
C356 C355 1.394 . S
C356 C357 1.516 . S
C357 C356 1.516 . S
C357 C358 1.502 . S
C357 C359 1.561 . S
C357 C360 1.526 . S
C358 H342 0.959 . S
C358 H343 0.959 . S
C358 H344 0.961 . S
C358 C357 1.502 . S
C359 H345 0.960 . S
C359 H346 0.961 . S
C359 H347 0.959 . S
C359 C357 1.561 . S
C360 C357 1.526 . S
C360 C361 1.396 . S
C360 C365 1.390 . S
C361 C355 1.465 . S
C361 C360 1.396 . S
C361 C362 1.399 . S
C362 H348 0.929 . S
C362 C361 1.399 . S
C362 C363 1.385 . S
C363 H349 0.931 . S
C363 C362 1.385 . S
C363 C364 1.389 . S
C364 C363 1.389 . S
C364 C365 1.387 . S
C365 H350 0.930 . S
C365 C360 1.390 . S
C365 C364 1.387 . S
H366 C378 0.930 . S
H367 C380 0.930 . S
H368 C381 0.930 . S
H369 C385 0.959 . S
H370 C385 0.959 . S
H371 C385 0.961 . S
H372 C386 0.960 . S
H373 C386 0.961 . S
H374 C386 0.959 . S
H375 C389 0.929 . S
H376 C390 0.931 . S
H377 C392 0.930 . S
C378 H366 0.930 . S
C378 C379 1.399 . S
C378 C383 1.399 . S
C379 C378 1.399 . S
C379 C380 1.376 . S
C380 H367 0.930 . S
C380 C379 1.376 . S
C380 C381 1.388 . S
C381 H368 0.930 . S
C381 C380 1.388 . S
C381 C382 1.390 . S
C382 C381 1.390 . S
C382 C383 1.394 . S
C382 C388 1.465 . S
C383 C378 1.399 . S
C383 C382 1.394 . S
C383 C384 1.516 . S
C384 C383 1.516 . S
C384 C385 1.502 . S
C384 C386 1.561 . S
C384 C387 1.526 . S
C385 H369 0.959 . S
C385 H370 0.959 . S
C385 H371 0.961 . S
C385 C384 1.502 . S
C386 H372 0.960 . S
C386 H373 0.961 . S
C386 H374 0.959 . S
C386 C384 1.561 . S
C387 C384 1.526 . S
C387 C388 1.396 . S
C387 C392 1.390 . S
C388 C382 1.465 . S
C388 C387 1.396 . S
C388 C389 1.399 . S
C389 H375 0.929 . S
C389 C388 1.399 . S
C389 C390 1.385 . S
C390 H376 0.931 . S
C390 C389 1.385 . S
C390 C391 1.389 . S
C391 C390 1.389 . S
C391 C392 1.387 . S
C392 H377 0.930 . S
C392 C387 1.390 . S
C392 C391 1.387 . S
H393 C405 0.930 . S
H394 C407 0.930 . S
H395 C408 0.930 . S
H396 C412 0.959 . S
H397 C412 0.959 . S
H398 C412 0.961 . S
H399 C413 0.960 . S
H400 C413 0.961 . S
H401 C413 0.959 . S
H402 C416 0.929 . S
H403 C417 0.931 . S
H404 C419 0.930 . S
C405 H393 0.930 . S
C405 C406 1.399 . S
C405 C410 1.399 . S
C406 C405 1.399 . S
C406 C407 1.376 . S
C407 H394 0.930 . S
C407 C406 1.376 . S
C407 C408 1.388 . S
C408 H395 0.930 . S
C408 C407 1.388 . S
C408 C409 1.390 . S
C409 C408 1.390 . S
C409 C410 1.394 . S
C409 C415 1.465 . S
C410 C405 1.399 . S
C410 C409 1.394 . S
C410 C411 1.516 . S
C411 C410 1.516 . S
C411 C412 1.502 . S
C411 C413 1.561 . S
C411 C414 1.526 . S
C412 H396 0.959 . S
C412 H397 0.959 . S
C412 H398 0.961 . S
C412 C411 1.502 . S
C413 H399 0.960 . S
C413 H400 0.961 . S
C413 H401 0.959 . S
C413 C411 1.561 . S
C414 C411 1.526 . S
C414 C415 1.396 . S
C414 C419 1.390 . S
C415 C409 1.465 . S
C415 C414 1.396 . S
C415 C416 1.399 . S
C416 H402 0.929 . S
C416 C415 1.399 . S
C416 C417 1.385 . S
C417 H403 0.931 . S
C417 C416 1.385 . S
C417 C418 1.389 . S
C418 C417 1.389 . S
C418 C419 1.387 . S
C419 H404 0.930 . S
C419 C414 1.390 . S
C419 C418 1.387 . S
H420 C432 0.930 . S
H421 C434 0.930 1_455 S
H422 C435 0.930 . S
H423 C439 0.959 . S
H424 C439 0.959 . S
H425 C439 0.961 . S
H426 C440 0.960 . S
H427 C440 0.961 . S
H428 C440 0.959 . S
H429 C443 0.929 . S
H430 C444 0.931 . S
H431 C446 0.930 . S
C432 H420 0.930 . S
C432 C433 1.399 . S
C432 C437 1.399 . S
C433 C432 1.399 . S
C433 C434 1.376 . S
C434 H421 0.930 1_655 S
C434 C433 1.376 . S
C434 C435 1.388 . S
C435 H422 0.930 . S
C435 C434 1.388 . S
C435 C436 1.390 . S
C436 C435 1.390 . S
C436 C437 1.394 . S
C436 C442 1.465 . S
C437 C432 1.399 . S
C437 C436 1.394 . S
C437 C438 1.516 . S
C438 C437 1.516 . S
C438 C439 1.502 . S
C438 C440 1.561 . S
C438 C441 1.526 . S
C439 H423 0.959 . S
C439 H424 0.959 . S
C439 H425 0.961 . S
C439 C438 1.502 . S
C440 H426 0.960 . S
C440 H427 0.961 . S
C440 H428 0.959 . S
C440 C438 1.561 . S
C441 C438 1.526 . S
C441 C442 1.396 . S
C441 C446 1.390 . S
C442 C436 1.465 . S
C442 C441 1.396 . S
C442 C443 1.399 . S
C443 H429 0.929 . S
C443 C442 1.399 . S
C443 C444 1.385 . S
C444 H430 0.931 . S
C444 C443 1.385 . S
C444 C445 1.389 . S
C445 C444 1.389 . S
C445 C446 1.387 . S
C446 H431 0.930 . S
C446 C441 1.390 . S
C446 C445 1.387 . S
H447 C459 0.930 . S
H448 C461 0.930 . S
H449 C462 0.930 . S
H450 C466 0.959 . S
H451 C466 0.959 . S
H452 C466 0.961 . S
H453 C467 0.960 . S
H454 C467 0.961 . S
H455 C467 0.959 . S
H456 C470 0.929 . S
H457 C471 0.931 . S
H458 C473 0.930 . S
C459 H447 0.930 . S
C459 C460 1.399 . S
C459 C464 1.399 1_565 S
C460 C459 1.399 . S
C460 C461 1.376 1_565 S
C461 H448 0.930 . S
C461 C460 1.376 1_545 S
C461 C462 1.388 . S
C462 H449 0.930 . S
C462 C461 1.388 . S
C462 C463 1.390 . S
C463 C462 1.390 . S
C463 C464 1.394 . S
C463 C469 1.465 . S
C464 C459 1.399 1_545 S
C464 C463 1.394 . S
C464 C465 1.516 . S
C465 C464 1.516 . S
C465 C466 1.502 1_545 S
C465 C467 1.561 . S
C465 C468 1.526 . S
C466 H450 0.959 . S
C466 H451 0.959 . S
C466 H452 0.961 . S
C466 C465 1.502 1_565 S
C467 H453 0.960 . S
C467 H454 0.961 . S
C467 H455 0.959 . S
C467 C465 1.561 . S
C468 C465 1.526 . S
C468 C469 1.396 . S
C468 C473 1.390 . S
C469 C463 1.465 . S
C469 C468 1.396 . S
C469 C470 1.399 . S
C470 H456 0.929 . S
C470 C469 1.399 . S
C470 C471 1.385 . S
C471 H457 0.931 . S
C471 C470 1.385 . S
C471 C472 1.389 . S
C472 C471 1.389 . S
C472 C473 1.387 . S
C473 H458 0.930 . S
C473 C468 1.390 . S
C473 C472 1.387 . S
H474 C486 0.930 . S
H475 C488 0.930 . S
H476 C489 0.930 1_455 S
H477 C493 0.959 . S
H478 C493 0.959 . S
H479 C493 0.961 . S
H480 C494 0.960 . S
H481 C494 0.961 . S
H482 C494 0.959 . S
H483 C497 0.929 . S
H484 C498 0.931 . S
H485 C500 0.930 . S
C486 H474 0.930 . S
C486 C487 1.399 . S
C486 C491 1.429 . S
C487 C486 1.399 . S
C487 C488 1.376 . S
C488 H475 0.930 . S
C488 C487 1.376 . S
C488 C489 1.388 . S
C489 H476 0.930 1_655 S
C489 C488 1.388 . S
C489 C490 1.390 . S
C490 C489 1.390 . S
C490 C491 1.405 . S
C490 C496 1.465 1_556 S
C491 C486 1.429 . S
C491 C490 1.405 . S
C491 C492 1.475 1_556 S
C492 C491 1.475 1_554 S
C492 C493 1.502 . S
C492 C494 1.561 . S
C492 C495 1.526 . S
C493 H477 0.959 . S
C493 H478 0.959 . S
C493 H479 0.961 . S
C493 C492 1.502 . S
C494 H480 0.960 . S
C494 H481 0.961 . S
C494 H482 0.959 . S
C494 C492 1.561 . S
C495 C492 1.526 . S
C495 C496 1.396 . S
C495 C500 1.390 . S
C496 C490 1.465 1_554 S
C496 C495 1.396 . S
C496 C497 1.399 1_655 S
C497 H483 0.929 . S
C497 C496 1.399 1_455 S
C497 C498 1.385 . S
C498 H484 0.931 . S
C498 C497 1.385 . S
C498 C499 1.389 . S
C499 C498 1.389 . S
C499 C500 1.387 1_455 S
C500 H485 0.930 . S
C500 C495 1.390 . S
C500 C499 1.387 1_655 S
H501 C513 0.930 . S
H502 C515 0.930 . S
H503 C516 0.930 . S
H504 C520 0.959 . S
H505 C520 0.959 . S
H506 C520 0.961 . S
H507 C521 0.960 . S
H508 C521 0.961 . S
H509 C521 0.959 . S
H510 C524 0.929 . S
H511 C525 0.931 . S
H512 C527 0.930 . S
C513 H501 0.930 . S
C513 C514 1.399 . S
C513 C518 1.399 . S
C514 C513 1.399 . S
C514 C515 1.376 . S
C515 H502 0.930 . S
C515 C514 1.376 . S
C515 C516 1.388 . S
C516 H503 0.930 . S
C516 C515 1.388 . S
C516 C517 1.390 . S
C517 C516 1.390 . S
C517 C518 1.394 . S
C517 C523 1.465 . S
C518 C513 1.399 . S
C518 C517 1.394 . S
C518 C519 1.516 . S
C519 C518 1.516 . S
C519 C520 1.502 . S
C519 C521 1.561 . S
C519 C522 1.526 . S
C520 H504 0.959 . S
C520 H505 0.959 . S
C520 H506 0.961 . S
C520 C519 1.502 . S
C521 H507 0.960 . S
C521 H508 0.961 . S
C521 H509 0.959 . S
C521 C519 1.561 . S
C522 C519 1.526 . S
C522 C523 1.396 . S
C522 C527 1.390 . S
C523 C517 1.465 . S
C523 C522 1.396 . S
C523 C524 1.399 . S
C524 H510 0.929 . S
C524 C523 1.399 . S
C524 C525 1.385 . S
C525 H511 0.931 . S
C525 C524 1.385 . S
C525 C526 1.389 . S
C526 C525 1.389 . S
C526 C527 1.387 . S
C527 H512 0.930 . S
C527 C522 1.390 . S
C527 C526 1.387 . S
H528 C540 0.930 . S
H529 C542 0.930 . S
H530 C543 0.930 . S
H531 C547 0.959 . S
H532 C547 0.959 . S
H533 C547 0.961 . S
H534 C548 0.960 . S
H535 C548 0.961 . S
H536 C548 0.959 . S
H537 C551 0.929 . S
H538 C552 0.931 . S
H539 C554 0.930 . S
C540 H528 0.930 . S
C540 C541 1.399 . S
C540 C545 1.399 . S
C541 C540 1.399 . S
C541 C542 1.376 . S
C542 H529 0.930 . S
C542 C541 1.376 . S
C542 C543 1.388 . S
C543 H530 0.930 . S
C543 C542 1.388 . S
C543 C544 1.390 . S
C544 C543 1.390 . S
C544 C545 1.394 . S
C544 C550 1.465 . S
C545 C540 1.399 . S
C545 C544 1.394 . S
C545 C546 1.516 . S
C546 C545 1.516 . S
C546 C547 1.502 1_455 S
C546 C548 1.561 . S
C546 C549 1.526 . S
C547 H531 0.959 . S
C547 H532 0.959 . S
C547 H533 0.961 . S
C547 C546 1.502 1_655 S
C548 H534 0.960 . S
C548 H535 0.961 . S
C548 H536 0.959 . S
C548 C546 1.561 . S
C549 C546 1.526 . S
C549 C550 1.396 . S
C549 C554 1.390 1_455 S
C550 C544 1.465 . S
C550 C549 1.396 . S
C550 C551 1.399 . S
C551 H537 0.929 . S
C551 C550 1.399 . S
C551 C552 1.385 1_455 S
C552 H538 0.931 . S
C552 C551 1.385 1_655 S
C552 C553 1.389 . S
C553 C552 1.389 . S
C553 C554 1.387 . S
C554 H539 0.930 . S
C554 C549 1.390 1_655 S
C554 C553 1.387 . S
H555 C567 0.930 . S
H556 C569 0.930 . S
H557 C570 0.930 . S
H558 C574 0.959 . S
H559 C574 0.959 . S
H560 C574 0.961 . S
H561 C575 0.960 . S
H562 C575 0.961 . S
H563 C575 0.959 . S
H564 C578 0.929 . S
H565 C579 0.931 . S
H566 C581 0.930 . S
C567 H555 0.930 . S
C567 C568 1.399 . S
C567 C572 1.399 . S
C568 C567 1.399 . S
C568 C569 1.376 . S
C569 H556 0.930 . S
C569 C568 1.376 . S
C569 C570 1.388 . S
C570 H557 0.930 . S
C570 C569 1.388 . S
C570 C571 1.390 . S
C571 C570 1.390 . S
C571 C572 1.394 . S
C571 C577 1.465 . S
C572 C567 1.399 . S
C572 C571 1.394 . S
C572 C573 1.516 . S
C573 C572 1.516 . S
C573 C574 1.502 . S
C573 C575 1.561 . S
C573 C576 1.526 . S
C574 H558 0.959 . S
C574 H559 0.959 . S
C574 H560 0.961 . S
C574 C573 1.502 . S
C575 H561 0.960 . S
C575 H562 0.961 . S
C575 H563 0.959 . S
C575 C573 1.561 . S
C576 C573 1.526 . S
C576 C577 1.396 . S
C576 C581 1.390 . S
C577 C571 1.465 . S
C577 C576 1.396 . S
C577 C578 1.399 . S
C578 H564 0.929 . S
C578 C577 1.399 . S
C578 C579 1.385 . S
C579 H565 0.931 . S
C579 C578 1.385 . S
C579 C580 1.389 . S
C580 C579 1.389 . S
C580 C581 1.387 . S
C581 H566 0.930 . S
C581 C576 1.390 . S
C581 C580 1.387 . S
H582 C594 0.930 . S
H583 C596 0.930 . S
H584 C597 0.935 . S
H585 C601 0.959 . S
H586 C601 0.959 . S
H587 C601 0.961 . S
H588 C602 0.960 . S
H589 C602 0.961 . S
H590 C602 0.959 . S
H591 C605 0.929 . S
H592 C606 0.931 . S
H593 C608 0.930 . S
C594 H582 0.930 . S
C594 C595 1.399 1_565 S
C594 C599 1.399 . S
C595 C594 1.399 1_545 S
C595 C596 1.376 . S
C596 H583 0.930 . S
C596 C595 1.376 . S
C596 C597 1.388 . S
C597 H584 0.935 . S
C597 C596 1.388 . S
C597 C598 1.390 1_545 S
C598 C597 1.390 1_565 S
C598 C599 1.394 . S
C598 C604 1.465 1_556 S
C599 C594 1.399 . S
C599 C598 1.394 . S
C599 C600 1.516 . S
C600 C599 1.516 . S
C600 C601 1.502 . S
C600 C602 1.561 . S
C600 C603 1.488 1_556 S
C601 H585 0.959 . S
C601 H586 0.959 . S
C601 H587 0.961 . S
C601 C600 1.502 . S
C602 H588 0.960 . S
C602 H589 0.961 . S
C602 H590 0.959 . S
C602 C600 1.561 . S
C603 C600 1.488 1_554 S
C603 C604 1.408 . S
C603 C608 1.415 . S
C604 C598 1.465 1_554 S
C604 C603 1.408 . S
C604 C605 1.399 . S
C605 H591 0.929 . S
C605 C604 1.399 . S
C605 C606 1.385 . S
C606 H592 0.931 . S
C606 C605 1.385 . S
C606 C607 1.389 . S
C607 C606 1.389 . S
C607 C608 1.387 . S
C608 H593 0.930 . S
C608 C603 1.415 . S
C608 C607 1.387 . S
C217 C2 1.956 . S
C229 C172 1.946 . S
C244 C104 1.951 . S
C256 C36 1.959 . S
C271 C138 1.953 . S
C283 C70 1.959 . S
C298 C203 1.511 . S
C310 C5 1.499 . S
C325 C135 1.502 . S
C337 C39 1.499 1_565 S
C352 C73 1.475 1_455 S
C364 C169 1.508 . S
C379 C67 1.502 . S
C391 C107 1.498 . S
C406 C101 1.510 . S
C418 C141 1.506 1_545 S
C433 C175 1.512 1_655 S
C445 C33 1.506 . S
C460 C156 1.300 . S
C472 C9 1.222 . S
C487 C43 1.300 . S
C499 C190 1.295 . S
C514 C122 1.295 . S
C526 C77 1.298 . S
C541 C111 1.251 . S
C553 C88 1.299 . S
C568 C20 1.295 . S
C580 C145 1.298 . S
C595 C54 1.296 . S
C607 C179 1.269 . S
