# Generated by pormake.
# Topology pcu-i, (5)-cn, num edge types: 1
# Building blocks:
#     Node 0, Type 0, BuildingBlock: XOMCOT_clean_sbu_0, # of connection points: 5
#     Node 1, Type 0, BuildingBlock: XOMCOT_clean_sbu_0, # of connection points: 5
#     Node 2, Type 0, BuildingBlock: XOMCOT_clean_sbu_0, # of connection points: 5
#     Node 3, Type 0, BuildingBlock: XOMCOT_clean_sbu_0, # of connection points: 5
#     Node 4, Type 0, BuildingBlock: XOMCOT_clean_sbu_0, # of connection points: 5
#     Node 5, Type 0, BuildingBlock: XOMCOT_clean_sbu_0, # of connection points: 5
#     Node 6, Type 0, BuildingBlock: XOMCOT_clean_sbu_0, # of connection points: 5
#     Node 7, Type 0, BuildingBlock: XOMCOT_clean_sbu_0, # of connection points: 5
#     Node 8, Type 0, BuildingBlock: XOMCOT_clean_sbu_0, # of connection points: 5
#     Node 9, Type 0, BuildingBlock: XOMCOT_clean_sbu_0, # of connection points: 5
#     Node 10, Type 0, BuildingBlock: XOMCOT_clean_sbu_0, # of connection points: 5
#     Node 11, Type 0, BuildingBlock: XOMCOT_clean_sbu_0, # of connection points: 5
#     Node 12, Type 0, BuildingBlock: XOMCOT_clean_sbu_0, # of connection points: 5
#     Node 13, Type 0, BuildingBlock: XOMCOT_clean_sbu_0, # of connection points: 5
#     Node 14, Type 0, BuildingBlock: XOMCOT_clean_sbu_0, # of connection points: 5
#     Node 15, Type 0, BuildingBlock: XOMCOT_clean_sbu_0, # of connection points: 5
#     Node 16, Type 0, BuildingBlock: XOMCOT_clean_sbu_0, # of connection points: 5
#     Node 17, Type 0, BuildingBlock: XOMCOT_clean_sbu_0, # of connection points: 5
#     Node 18, Type 0, BuildingBlock: XOMCOT_clean_sbu_0, # of connection points: 5
#     Node 19, Type 0, BuildingBlock: XOMCOT_clean_sbu_0, # of connection points: 5
#     Node 20, Type 0, BuildingBlock: XOMCOT_clean_sbu_0, # of connection points: 5
#     Node 21, Type 0, BuildingBlock: XOMCOT_clean_sbu_0, # of connection points: 5
#     Node 22, Type 0, BuildingBlock: XOMCOT_clean_sbu_0, # of connection points: 5
#     Node 23, Type 0, BuildingBlock: XOMCOT_clean_sbu_0, # of connection points: 5
#     Edge 24, Type (0, 0), BuildingBlock: KIFKEQ_clean_linker_1, # of connection points: 2
#     Edge 25, Type (0, 0), BuildingBlock: KIFKEQ_clean_linker_1, # of connection points: 2
#     Edge 26, Type (0, 0), BuildingBlock: KIFKEQ_clean_linker_1, # of connection points: 2
#     Edge 27, Type (0, 0), BuildingBlock: KIFKEQ_clean_linker_1, # of connection points: 2
#     Edge 28, Type (0, 0), BuildingBlock: KIFKEQ_clean_linker_1, # of connection points: 2
#     Edge 29, Type (0, 0), BuildingBlock: KIFKEQ_clean_linker_1, # of connection points: 2
#     Edge 30, Type (0, 0), BuildingBlock: KIFKEQ_clean_linker_1, # of connection points: 2
#     Edge 31, Type (0, 0), BuildingBlock: KIFKEQ_clean_linker_1, # of connection points: 2
#     Edge 32, Type (0, 0), BuildingBlock: KIFKEQ_clean_linker_1, # of connection points: 2
#     Edge 33, Type (0, 0), BuildingBlock: KIFKEQ_clean_linker_1, # of connection points: 2
#     Edge 34, Type (0, 0), BuildingBlock: KIFKEQ_clean_linker_1, # of connection points: 2
#     Edge 35, Type (0, 0), BuildingBlock: KIFKEQ_clean_linker_1, # of connection points: 2
#     Edge 36, Type (0, 0), BuildingBlock: KIFKEQ_clean_linker_1, # of connection points: 2
#     Edge 37, Type (0, 0), BuildingBlock: KIFKEQ_clean_linker_1, # of connection points: 2
#     Edge 38, Type (0, 0), BuildingBlock: KIFKEQ_clean_linker_1, # of connection points: 2
#     Edge 39, Type (0, 0), BuildingBlock: KIFKEQ_clean_linker_1, # of connection points: 2
#     Edge 40, Type (0, 0), BuildingBlock: KIFKEQ_clean_linker_1, # of connection points: 2
#     Edge 41, Type (0, 0), BuildingBlock: KIFKEQ_clean_linker_1, # of connection points: 2
#     Edge 42, Type (0, 0), BuildingBlock: KIFKEQ_clean_linker_1, # of connection points: 2
#     Edge 43, Type (0, 0), BuildingBlock: KIFKEQ_clean_linker_1, # of connection points: 2
#     Edge 44, Type (0, 0), BuildingBlock: KIFKEQ_clean_linker_1, # of connection points: 2
#     Edge 45, Type (0, 0), BuildingBlock: KIFKEQ_clean_linker_1, # of connection points: 2
#     Edge 46, Type (0, 0), BuildingBlock: KIFKEQ_clean_linker_1, # of connection points: 2
#     Edge 47, Type (0, 0), BuildingBlock: KIFKEQ_clean_linker_1, # of connection points: 2
#     Edge 48, Type (0, 0), BuildingBlock: KIFKEQ_clean_linker_1, # of connection points: 2
#     Edge 49, Type (0, 0), BuildingBlock: KIFKEQ_clean_linker_1, # of connection points: 2
#     Edge 50, Type (0, 0), BuildingBlock: KIFKEQ_clean_linker_1, # of connection points: 2
#     Edge 51, Type (0, 0), BuildingBlock: KIFKEQ_clean_linker_1, # of connection points: 2
#     Edge 52, Type (0, 0), BuildingBlock: KIFKEQ_clean_linker_1, # of connection points: 2
#     Edge 53, Type (0, 0), BuildingBlock: KIFKEQ_clean_linker_1, # of connection points: 2
#     Edge 54, Type (0, 0), BuildingBlock: KIFKEQ_clean_linker_1, # of connection points: 2
#     Edge 55, Type (0, 0), BuildingBlock: KIFKEQ_clean_linker_1, # of connection points: 2
#     Edge 56, Type (0, 0), BuildingBlock: KIFKEQ_clean_linker_1, # of connection points: 2
#     Edge 57, Type (0, 0), BuildingBlock: KIFKEQ_clean_linker_1, # of connection points: 2
#     Edge 58, Type (0, 0), BuildingBlock: KIFKEQ_clean_linker_1, # of connection points: 2
#     Edge 59, Type (0, 0), BuildingBlock: KIFKEQ_clean_linker_1, # of connection points: 2
#     Edge 60, Type (0, 0), BuildingBlock: KIFKEQ_clean_linker_1, # of connection points: 2
#     Edge 61, Type (0, 0), BuildingBlock: KIFKEQ_clean_linker_1, # of connection points: 2
#     Edge 62, Type (0, 0), BuildingBlock: KIFKEQ_clean_linker_1, # of connection points: 2
#     Edge 63, Type (0, 0), BuildingBlock: KIFKEQ_clean_linker_1, # of connection points: 2
#     Edge 64, Type (0, 0), BuildingBlock: KIFKEQ_clean_linker_1, # of connection points: 2
#     Edge 65, Type (0, 0), BuildingBlock: KIFKEQ_clean_linker_1, # of connection points: 2
#     Edge 66, Type (0, 0), BuildingBlock: KIFKEQ_clean_linker_1, # of connection points: 2
#     Edge 67, Type (0, 0), BuildingBlock: KIFKEQ_clean_linker_1, # of connection points: 2
#     Edge 68, Type (0, 0), BuildingBlock: KIFKEQ_clean_linker_1, # of connection points: 2
#     Edge 69, Type (0, 0), BuildingBlock: KIFKEQ_clean_linker_1, # of connection points: 2
#     Edge 70, Type (0, 0), BuildingBlock: KIFKEQ_clean_linker_1, # of connection points: 2
#     Edge 71, Type (0, 0), BuildingBlock: KIFKEQ_clean_linker_1, # of connection points: 2
#     Edge 72, Type (0, 0), BuildingBlock: KIFKEQ_clean_linker_1, # of connection points: 2
#     Edge 73, Type (0, 0), BuildingBlock: KIFKEQ_clean_linker_1, # of connection points: 2
#     Edge 74, Type (0, 0), BuildingBlock: KIFKEQ_clean_linker_1, # of connection points: 2
#     Edge 75, Type (0, 0), BuildingBlock: KIFKEQ_clean_linker_1, # of connection points: 2
#     Edge 76, Type (0, 0), BuildingBlock: KIFKEQ_clean_linker_1, # of connection points: 2
#     Edge 77, Type (0, 0), BuildingBlock: KIFKEQ_clean_linker_1, # of connection points: 2
#     Edge 78, Type (0, 0), BuildingBlock: KIFKEQ_clean_linker_1, # of connection points: 2
#     Edge 79, Type (0, 0), BuildingBlock: KIFKEQ_clean_linker_1, # of connection points: 2
#     Edge 80, Type (0, 0), BuildingBlock: KIFKEQ_clean_linker_1, # of connection points: 2
#     Edge 81, Type (0, 0), BuildingBlock: KIFKEQ_clean_linker_1, # of connection points: 2
#     Edge 82, Type (0, 0), BuildingBlock: KIFKEQ_clean_linker_1, # of connection points: 2
#     Edge 83, Type (0, 0), BuildingBlock: KIFKEQ_clean_linker_1, # of connection points: 2
# Relax obj value: 0.306
# Max RMSD: 0.283
# Mean RMSD: 0.283
data_MOF--net-pcu-i--node1-XOMCOT_clean_sbu_0--edge1-KIFKEQ_clean_linker_1
_symmetry_space_group_name_H-M    P1
_symmetry_Int_Tables_number       1
_symmetry_cell_setting            triclinic
loop_
_symmetry_equiv_pos_as_xyz
'x, y, z'
_cell_length_a     56.895624
_cell_length_b     57.041136
_cell_length_c     57.10068
_cell_angle_alpha  89.999591
_cell_angle_beta   90.151396
_cell_angle_gamma 90.090655
loop_
_atom_site_label
_atom_site_type_symbol
_atom_site_fract_x
_atom_site_fract_y
_atom_site_fract_z
_atom_type_partial_charge
Co0 Co 0.13107 0.15373 0.34545 0.0
C1 C 0.07865 0.14877 0.34166 0.0
C2 C 0.08962 0.18316 0.35244 0.0
C3 C 0.0655 0.18283 0.35108 0.0
N4 N 0.09792 0.16176 0.34683 0.0
N5 N 0.05865 0.16125 0.34425 0.0
H6 H 0.07903 0.13058 0.3364 0.0
H7 H 0.10042 0.19806 0.35716 0.0
C8 C 0.15317 0.1954 0.3193 0.0
O9 O 0.17458 0.18935 0.3253 0.0
N10 N 0.16407 0.14549 0.34339 0.0
C11 C 0.17913 0.14006 0.36082 0.0
C12 C 0.20061 0.13453 0.35114 0.0
C13 C 0.17615 0.14184 0.32343 0.0
N14 N 0.19874 0.13587 0.32759 0.0
C15 C 0.12311 0.16227 0.39359 0.0
C16 C 0.16097 0.19152 0.40182 0.0
C17 C 0.1486 0.18235 0.42092 0.0
C18 C 0.12885 0.16836 0.41655 0.0
C19 C 0.1543 0.18538 0.37902 0.0
N20 N 0.13624 0.17001 0.37514 0.0
H21 H 0.10884 0.15008 0.39069 0.0
H22 H 0.16496 0.19158 0.36494 0.0
H23 H 0.17485 0.14006 0.37926 0.0
H24 H 0.16874 0.14478 0.30621 0.0
O25 O 0.12524 0.12331 0.35865 0.0
O26 O 0.12495 0.13108 0.32061 0.0
O27 O 0.13536 0.18336 0.32597 0.0
C28 C 0.12335 0.11557 0.33738 0.0
H29 H 0.05388 0.19741 0.35459 0.0
H30 H 0.21634 0.12987 0.36074 0.0
H31 H 0.1763 0.20249 0.40452 0.0
H32 H 0.11889 0.16077 0.43082 0.0
Co33 Co 0.85006 0.13278 0.34868 0.0
C34 C 0.85549 0.08071 0.34436 0.0
C35 C 0.82106 0.09093 0.35573 0.0
C36 C 0.82166 0.0669 0.35398 0.0
N37 N 0.84234 0.09962 0.35001 0.0
N38 N 0.84326 0.06054 0.34676 0.0
H39 H 0.87362 0.08145 0.33882 0.0
H40 H 0.80607 0.1014 0.36076 0.0
C41 C 0.80718 0.15443 0.3239 0.0
O42 O 0.81281 0.1757 0.33059 0.0
N43 N 0.85793 0.16573 0.34631 0.0
C44 C 0.86458 0.18092 0.36317 0.0
C45 C 0.87 0.20212 0.35277 0.0
C46 C 0.86068 0.17739 0.32599 0.0
N47 N 0.86744 0.19981 0.32937 0.0
C48 C 0.84233 0.12334 0.39663 0.0
C49 C 0.8158 0.16234 0.4074 0.0
C50 C 0.82489 0.14864 0.42568 0.0
C51 C 0.83746 0.1284 0.42 0.0
C52 C 0.82055 0.15625 0.38408 0.0
N53 N 0.83458 0.13751 0.37892 0.0
H54 H 0.85379 0.10874 0.39287 0.0
H55 H 0.8146 0.16788 0.37063 0.0
H56 H 0.86566 0.17688 0.38165 0.0
H57 H 0.85687 0.16971 0.30907 0.0
O58 O 0.88072 0.1273 0.36139 0.0
O59 O 0.87256 0.12702 0.32343 0.0
O60 O 0.81987 0.13681 0.32977 0.0
C61 C 0.8883 0.1255 0.34009 0.0
H62 H 0.80723 0.05501 0.35744 0.0
H63 H 0.87565 0.21788 0.36173 0.0
H64 H 0.80599 0.17816 0.41112 0.0
H65 H 0.84503 0.11746 0.43357 0.0
Co66 Co 0.87725 0.85322 0.34444 0.0
C67 C 0.92887 0.85937 0.33654 0.0
C68 C 0.91994 0.82498 0.34888 0.0
C69 C 0.9436 0.82553 0.3441 0.0
N70 N 0.91066 0.84622 0.3443 0.0
N71 N 0.9492 0.84712 0.33622 0.0
H72 H 0.92725 0.87718 0.33032 0.0
H73 H 0.91003 0.80988 0.35468 0.0
C74 C 0.85549 0.81162 0.31787 0.0
O75 O 0.83416 0.8166 0.32492 0.0
N76 N 0.84397 0.86041 0.34358 0.0
C77 C 0.82887 0.86423 0.36133 0.0
C78 C 0.80686 0.86848 0.35199 0.0
C79 C 0.83137 0.86394 0.32387 0.0
N80 N 0.80851 0.86808 0.32841 0.0
C81 C 0.88764 0.84356 0.39187 0.0
C82 C 0.85031 0.81402 0.40111 0.0
C83 C 0.86323 0.82329 0.41987 0.0
C84 C 0.88279 0.83731 0.41496 0.0
C85 C 0.85615 0.82026 0.37812 0.0
N86 N 0.87383 0.83592 0.3738 0.0
H87 H 0.90165 0.85595 0.38865 0.0
H88 H 0.84503 0.81407 0.36433 0.0
H89 H 0.83338 0.86369 0.37973 0.0
H90 H 0.8386 0.86179 0.30648 0.0
O91 O 0.88263 0.88321 0.35847 0.0
O92 O 0.88163 0.877 0.32017 0.0
O93 O 0.87312 0.82409 0.32426 0.0
C94 C 0.88348 0.89187 0.33751 0.0
H95 H 0.9557 0.81104 0.34614 0.0
H96 H 0.79088 0.87136 0.3618 0.0
H97 H 0.8351 0.80301 0.40424 0.0
H98 H 0.89318 0.84496 0.42895 0.0
Co99 Co 0.15551 0.87306 0.33205 0.0
C100 C 0.1537 0.92576 0.33736 0.0
C101 C 0.17652 0.91414 0.31006 0.0
C102 C 0.17521 0.93799 0.309 0.0
N103 N 0.16382 0.90616 0.32837 0.0
N104 N 0.16085 0.94546 0.32608 0.0
H105 H 0.14026 0.9256 0.35069 0.0
H106 H 0.18444 0.90342 0.29667 0.0
C107 C 0.20638 0.87037 0.31992 0.0
O108 O 0.21032 0.88371 0.33829 0.0
N109 N 0.14692 0.84023 0.3335 0.0
C110 C 0.13039 0.82977 0.34684 0.0
C111 C 0.12693 0.80718 0.33867 0.0
C112 C 0.15334 0.82395 0.31766 0.0
N113 N 0.14158 0.80369 0.32051 0.0
C114 C 0.16426 0.88461 0.38033 0.0
C115 C 0.18973 0.84461 0.3905 0.0
C116 C 0.18211 0.8588 0.40904 0.0
C117 C 0.1699 0.87944 0.40362 0.0
C118 C 0.18393 0.85055 0.36743 0.0
N119 N 0.1709 0.87011 0.36253 0.0
H120 H 0.15299 0.89934 0.37693 0.0
H121 H 0.18874 0.83859 0.35358 0.0
H122 H 0.12071 0.83829 0.36071 0.0
H123 H 0.16524 0.82725 0.30329 0.0
O124 O 0.12505 0.88161 0.34336 0.0
O125 O 0.13375 0.87636 0.30587 0.0
O126 O 0.18533 0.86414 0.31488 0.0
C127 C 0.11798 0.88112 0.32176 0.0
H128 H 0.18269 0.94882 0.29533 0.0
H129 H 0.11424 0.79457 0.34508 0.0
H130 H 0.19927 0.82854 0.39385 0.0
H131 H 0.16324 0.89069 0.41736 0.0
Co132 Co 0.13675 0.85448 0.65385 0.0
C133 C 0.08493 0.86002 0.66133 0.0
C134 C 0.09206 0.83254 0.63682 0.0
C135 C 0.06818 0.83463 0.63905 0.0
N136 N 0.10285 0.84867 0.65052 0.0
N137 N 0.06369 0.85191 0.6544 0.0
H138 H 0.08714 0.87438 0.67348 0.0
H139 H 0.10059 0.82037 0.62519 0.0
C140 C 0.1352 0.80356 0.66857 0.0
O141 O 0.12846 0.79756 0.64744 0.0
N142 N 0.16999 0.86021 0.65813 0.0
C143 C 0.18509 0.87029 0.64303 0.0
C144 C 0.20683 0.87187 0.65369 0.0
C145 C 0.18252 0.85616 0.67779 0.0
N146 N 0.20515 0.86302 0.67557 0.0
C147 C 0.1319 0.84819 0.605 0.0
C148 C 0.17009 0.81917 0.59808 0.0
C149 C 0.15818 0.82836 0.57858 0.0
C150 C 0.13858 0.84255 0.58231 0.0
C151 C 0.16224 0.82463 0.62078 0.0
N152 N 0.14338 0.83915 0.62401 0.0
H153 H 0.11786 0.86069 0.60733 0.0
H154 H 0.17212 0.81836 0.63572 0.0
H155 H 0.18054 0.87626 0.62562 0.0
H156 H 0.17514 0.84843 0.69344 0.0
O157 O 0.13313 0.88523 0.64094 0.0
O158 O 0.13091 0.87722 0.67882 0.0
O159 O 0.13973 0.82499 0.67342 0.0
C160 C 0.13049 0.89289 0.66211 0.0
H161 H 0.05505 0.82439 0.62983 0.0
H162 H 0.22247 0.87954 0.64612 0.0
H163 H 0.18561 0.80845 0.59581 0.0
H164 H 0.1293 0.85047 0.56772 0.0
Co165 Co 0.15452 0.13573 0.66328 0.0
C166 C 0.15067 0.08325 0.66616 0.0
C167 C 0.18553 0.09528 0.65824 0.0
C168 C 0.18579 0.07122 0.6592 0.0
N169 N 0.1635 0.10289 0.66234 0.0
N170 N 0.16391 0.0637 0.66422 0.0
H171 H 0.13206 0.08305 0.66989 0.0
H172 H 0.20044 0.10652 0.65471 0.0
C173 C 0.19548 0.15867 0.69039 0.0
O174 O 0.19012 0.17994 0.68353 0.0
N175 N 0.14547 0.16842 0.66502 0.0
C176 C 0.13979 0.18319 0.64749 0.0
C177 C 0.13461 0.20481 0.65699 0.0
C178 C 0.14224 0.18076 0.68489 0.0
N179 N 0.1364 0.20327 0.68054 0.0
C180 C 0.16484 0.12701 0.6157 0.0
C181 C 0.19185 0.16632 0.60712 0.0
C182 C 0.18371 0.15299 0.58815 0.0
C183 C 0.17095 0.13253 0.59273 0.0
C184 C 0.18579 0.15982 0.62998 0.0
N185 N 0.17145 0.141 0.63399 0.0
H186 H 0.15333 0.11221 0.61863 0.0
H187 H 0.19097 0.17123 0.64389 0.0
H188 H 0.13967 0.1787 0.62909 0.0
H189 H 0.1456 0.17365 0.70215 0.0
O190 O 0.1246 0.12901 0.64919 0.0
O191 O 0.13134 0.12917 0.68747 0.0
O192 O 0.18342 0.14088 0.68372 0.0
C193 C 0.11635 0.1269 0.67023 0.0
H194 H 0.20095 0.06008 0.65657 0.0
H195 H 0.13009 0.22047 0.64729 0.0
H196 H 0.20181 0.18226 0.60425 0.0
H197 H 0.16412 0.12184 0.57858 0.0
Co198 Co 0.87227 0.15243 0.6725 0.0
C199 C 0.92467 0.14721 0.66724 0.0
C200 C 0.91465 0.17123 0.69418 0.0
C201 C 0.93826 0.16738 0.6961 0.0
N202 N 0.90585 0.15914 0.67573 0.0
N203 N 0.94456 0.15222 0.67931 0.0
H204 H 0.92358 0.1334 0.65431 0.0
H205 H 0.90441 0.18027 0.70723 0.0
C206 C 0.87218 0.2033 0.6836 0.0
O207 O 0.8856 0.20603 0.66511 0.0
N208 N 0.83907 0.14542 0.67172 0.0
C209 C 0.82615 0.1345 0.65518 0.0
C210 C 0.80375 0.13099 0.66391 0.0
C211 C 0.82469 0.14806 0.6902 0.0
N212 N 0.80302 0.1394 0.68602 0.0
C213 C 0.88402 0.15967 0.62418 0.0
C214 C 0.84467 0.18593 0.61329 0.0
C215 C 0.85848 0.17711 0.59503 0.0
C216 C 0.87889 0.16463 0.60076 0.0
C217 C 0.85069 0.18096 0.63655 0.0
N218 N 0.86976 0.1673 0.64177 0.0
H219 H 0.89844 0.14809 0.62788 0.0
H220 H 0.83897 0.18663 0.65029 0.0
H221 H 0.83271 0.1289 0.63831 0.0
H222 H 0.83027 0.15571 0.70665 0.0
O223 O 0.87906 0.12152 0.66154 0.0
O224 O 0.87501 0.13112 0.69901 0.0
O225 O 0.86486 0.18281 0.68919 0.0
C226 C 0.87879 0.11494 0.68327 0.0
H227 H 0.94969 0.17395 0.70981 0.0
H228 H 0.78946 0.12208 0.65506 0.0
H229 H 0.82876 0.19568 0.60961 0.0
H230 H 0.88984 0.15715 0.58719 0.0
Co231 Co 0.85758 0.87432 0.66392 0.0
C232 C 0.86131 0.92615 0.66994 0.0
C233 C 0.82812 0.91564 0.65548 0.0
C234 C 0.82757 0.93942 0.65945 0.0
N235 N 0.84934 0.90729 0.66189 0.0
N236 N 0.84843 0.94598 0.66865 0.0
H237 H 0.87866 0.92538 0.6776 0.0
H238 H 0.81372 0.90502 0.64904 0.0
C239 C 0.81463 0.85253 0.6885 0.0
O240 O 0.82058 0.83109 0.68276 0.0
N241 N 0.86595 0.84161 0.6671 0.0
C242 C 0.87208 0.82566 0.6508 0.0
C243 C 0.87633 0.80454 0.66194 0.0
C244 C 0.86803 0.83051 0.68778 0.0
N245 N 0.87338 0.80768 0.68518 0.0
C246 C 0.85019 0.88212 0.61551 0.0
C247 C 0.82264 0.84333 0.60619 0.0
C248 C 0.83181 0.85621 0.58743 0.0
C249 C 0.84495 0.87638 0.59234 0.0
C250 C 0.82787 0.85003 0.62921 0.0
N251 N 0.84235 0.86865 0.63368 0.0
H252 H 0.86184 0.89674 0.61882 0.0
H253 H 0.82178 0.83896 0.643 0.0
H254 H 0.87289 0.82893 0.63216 0.0
H255 H 0.86441 0.83885 0.70441 0.0
O256 O 0.88829 0.88028 0.65163 0.0
O257 O 0.87959 0.88094 0.68947 0.0
O258 O 0.82724 0.87012 0.68238 0.0
C259 C 0.89545 0.88273 0.67305 0.0
H260 H 0.81284 0.95091 0.65604 0.0
H261 H 0.88018 0.78798 0.65353 0.0
H262 H 0.81236 0.82762 0.60307 0.0
H263 H 0.85256 0.88671 0.57835 0.0
Co264 Co 0.33635 0.12925 0.15283 0.0
C265 C 0.34027 0.07695 0.14632 0.0
C266 C 0.31232 0.08734 0.16904 0.0
C267 C 0.31002 0.06389 0.16475 0.0
N268 N 0.33163 0.09575 0.15807 0.0
N269 N 0.32747 0.05736 0.15041 0.0
H270 H 0.35398 0.07784 0.13328 0.0
H271 H 0.29919 0.09781 0.17773 0.0
C272 C 0.32375 0.12775 0.20345 0.0
O273 O 0.34155 0.11338 0.20636 0.0
N274 N 0.3386 0.16252 0.14738 0.0
C275 C 0.35579 0.17549 0.13759 0.0
C276 C 0.3479 0.19838 0.13572 0.0
C277 C 0.32064 0.17734 0.15097 0.0
N278 N 0.32571 0.19931 0.144 0.0
C279 C 0.38451 0.11595 0.15954 0.0
C280 C 0.3962 0.15337 0.18807 0.0
C281 C 0.41428 0.14001 0.17816 0.0
C282 C 0.40814 0.1205 0.16455 0.0
C283 C 0.37272 0.14791 0.18302 0.0
N284 N 0.36709 0.12987 0.1682 0.0
H285 H 0.38056 0.10248 0.14699 0.0
H286 H 0.35915 0.15948 0.18944 0.0
H287 H 0.37255 0.16872 0.13181 0.0
H288 H 0.30392 0.17192 0.15818 0.0
O289 O 0.34729 0.12329 0.12165 0.0
O290 O 0.30987 0.12863 0.1312 0.0
O291 O 0.31936 0.13615 0.18312 0.0
C292 C 0.32554 0.12492 0.11496 0.0
H293 H 0.29582 0.05271 0.17065 0.0
H294 H 0.35738 0.21295 0.12807 0.0
H295 H 0.40019 0.1686 0.1987 0.0
H296 H 0.42153 0.10995 0.1562 0.0
Co297 Co 0.87604 0.33087 0.1493 0.0
C298 C 0.92847 0.33383 0.14187 0.0
C299 C 0.91799 0.30681 0.16563 0.0
C300 C 0.94131 0.30392 0.16091 0.0
N301 N 0.9097 0.32593 0.1543 0.0
N302 N 0.94791 0.32072 0.14586 0.0
H303 H 0.92754 0.34724 0.12851 0.0
H304 H 0.90748 0.29404 0.17482 0.0
C305 C 0.87776 0.31866 0.19986 0.0
O306 O 0.89244 0.33632 0.20227 0.0
N307 N 0.84259 0.3332 0.14405 0.0
C308 C 0.82972 0.35024 0.13391 0.0
C309 C 0.80673 0.3424 0.13202 0.0
C310 C 0.8276 0.31537 0.14784 0.0
N311 N 0.80559 0.32037 0.14066 0.0
C312 C 0.89041 0.3785 0.15704 0.0
C313 C 0.85275 0.39036 0.18515 0.0
C314 C 0.86685 0.40828 0.17595 0.0
C315 C 0.88645 0.40203 0.16255 0.0
C316 C 0.85758 0.36698 0.17957 0.0
N317 N 0.87576 0.3613 0.16497 0.0
H318 H 0.90413 0.37445 0.14479 0.0
H319 H 0.84555 0.35357 0.18553 0.0
H320 H 0.83663 0.36683 0.12784 0.0
H321 H 0.83294 0.29878 0.15532 0.0
O322 O 0.88181 0.34239 0.11841 0.0
O323 O 0.87639 0.30485 0.12715 0.0
O324 O 0.86928 0.3138 0.17963 0.0
C325 C 0.88011 0.32089 0.11123 0.0
H326 H 0.95228 0.28963 0.16696 0.0
H327 H 0.79224 0.35181 0.1241 0.0
H328 H 0.83746 0.39444 0.19564 0.0
H329 H 0.89758 0.41534 0.15478 0.0
Co330 Co 0.6719 0.87147 0.15304 0.0
C331 C 0.66488 0.92395 0.15274 0.0
C332 C 0.69023 0.91249 0.17791 0.0
C333 C 0.69047 0.93637 0.17756 0.0
N334 N 0.67355 0.90429 0.1631 0.0
N335 N 0.67467 0.94372 0.16169 0.0
H336 H 0.65289 0.92383 0.13801 0.0
H337 H 0.70352 0.90221 0.18657 0.0
C338 C 0.68366 0.86575 0.20367 0.0
O339 O 0.66392 0.87677 0.20815 0.0
N340 N 0.6727 0.83912 0.14291 0.0
C341 C 0.65765 0.82694 0.12927 0.0
C342 C 0.66662 0.80458 0.12614 0.0
C343 C 0.69052 0.82435 0.14757 0.0
N344 N 0.68723 0.80306 0.13784 0.0
C345 C 0.62342 0.88074 0.16269 0.0
C346 C 0.61398 0.83787 0.18329 0.0
C347 C 0.59515 0.8523 0.17676 0.0
C348 C 0.60015 0.87436 0.16719 0.0
C349 C 0.63705 0.84509 0.17883 0.0
N350 N 0.64154 0.86599 0.16792 0.0
H351 H 0.62658 0.89676 0.15327 0.0
H352 H 0.65126 0.83315 0.18278 0.0
H353 H 0.64143 0.83379 0.12214 0.0
H354 H 0.70599 0.82931 0.15745 0.0
O355 O 0.65961 0.8807 0.12326 0.0
O356 O 0.69765 0.87774 0.13144 0.0
O357 O 0.68968 0.86197 0.18238 0.0
C358 C 0.68114 0.8823 0.11612 0.0
H359 H 0.70303 0.94742 0.18663 0.0
H360 H 0.6585 0.79053 0.11627 0.0
H361 H 0.61088 0.82073 0.19084 0.0
H362 H 0.58614 0.8859 0.16153 0.0
Co363 Co 0.13563 0.66106 0.14835 0.0
C364 C 0.0836 0.66714 0.1436 0.0
C365 C 0.09405 0.65669 0.17817 0.0
C366 C 0.07019 0.66049 0.17812 0.0
N367 N 0.10251 0.66076 0.15651 0.0
N368 N 0.06365 0.66715 0.1564 0.0
H369 H 0.08437 0.67246 0.12547 0.0
H370 H 0.10462 0.65174 0.19314 0.0
C371 C 0.15849 0.68837 0.18894 0.0
O372 O 0.17988 0.68258 0.18274 0.0
N373 N 0.16866 0.6622 0.13991 0.0
C374 C 0.18356 0.64435 0.13562 0.0
C375 C 0.20528 0.65355 0.13003 0.0
C376 C 0.18106 0.68185 0.13531 0.0
N377 N 0.20366 0.67716 0.12999 0.0
C378 C 0.12614 0.6135 0.1583 0.0
C379 C 0.16398 0.60495 0.18748 0.0
C380 C 0.1508 0.58595 0.179 0.0
C381 C 0.13108 0.59056 0.16505 0.0
C382 C 0.15805 0.62783 0.18073 0.0
N383 N 0.14 0.63174 0.16537 0.0
H384 H 0.11187 0.61648 0.14613 0.0
H385 H 0.16922 0.64191 0.18634 0.0
H386 H 0.1791 0.62595 0.13665 0.0
H387 H 0.17398 0.69933 0.13739 0.0
O388 O 0.12925 0.64727 0.11834 0.0
O389 O 0.13007 0.68553 0.12521 0.0
O390 O 0.14055 0.68097 0.17752 0.0
C391 C 0.12782 0.66841 0.11014 0.0
H392 H 0.05858 0.65848 0.19297 0.0
H393 H 0.2211 0.64365 0.12651 0.0
H394 H 0.17932 0.60208 0.19837 0.0
H395 H 0.12052 0.57641 0.15795 0.0
Co396 Co 0.34122 0.87582 0.85166 0.0
C397 C 0.34542 0.92872 0.85456 0.0
C398 C 0.31949 0.91675 0.83019 0.0
C399 C 0.3179 0.94055 0.83163 0.0
N400 N 0.33732 0.90901 0.84379 0.0
N401 N 0.33418 0.94829 0.84691 0.0
H402 H 0.35809 0.92871 0.86869 0.0
H403 H 0.30665 0.90588 0.82145 0.0
C404 C 0.32997 0.87263 0.80051 0.0
O405 O 0.34835 0.88604 0.79664 0.0
N406 N 0.34236 0.8429 0.85949 0.0
C407 C 0.3588 0.8299 0.87048 0.0
C408 C 0.34998 0.80737 0.87324 0.0
C409 C 0.32392 0.82851 0.85617 0.0
N410 N 0.32796 0.80675 0.86435 0.0
C411 C 0.38936 0.88894 0.8449 0.0
C412 C 0.40253 0.84882 0.82123 0.0
C413 C 0.42011 0.86372 0.83004 0.0
C414 C 0.41318 0.88446 0.84114 0.0
C415 C 0.37876 0.85429 0.82484 0.0
N416 N 0.3724 0.87374 0.83735 0.0
H417 H 0.38486 0.90365 0.85569 0.0
H418 H 0.36553 0.84187 0.81918 0.0
H419 H 0.37571 0.83636 0.87633 0.0
H420 H 0.30762 0.83406 0.84811 0.0
O421 O 0.3518 0.8838 0.8825 0.0
O422 O 0.31442 0.87846 0.87267 0.0
O423 O 0.32473 0.86676 0.82149 0.0
C424 C 0.32998 0.88291 0.88894 0.0
H425 H 0.30439 0.95111 0.82346 0.0
H426 H 0.35877 0.79285 0.88174 0.0
H427 H 0.40711 0.83261 0.81249 0.0
H428 H 0.42613 0.89628 0.84857 0.0
Co429 Co 0.13261 0.34326 0.85331 0.0
C430 C 0.08017 0.34829 0.85797 0.0
C431 C 0.09041 0.32173 0.83363 0.0
C432 C 0.06679 0.3197 0.83729 0.0
N433 N 0.0991 0.34003 0.84606 0.0
N434 N 0.06035 0.33624 0.85266 0.0
H435 H 0.08115 0.36105 0.87195 0.0
H436 H 0.10065 0.30868 0.82462 0.0
C437 C 0.1343 0.33029 0.8028 0.0
O438 O 0.12164 0.34912 0.79876 0.0
N439 N 0.16575 0.3439 0.86087 0.0
C440 C 0.17823 0.35978 0.87317 0.0
C441 C 0.2005 0.35081 0.877 0.0
C442 C 0.18033 0.32561 0.85759 0.0
N443 N 0.20172 0.3293 0.86714 0.0
C444 C 0.1205 0.39107 0.84377 0.0
C445 C 0.16121 0.40207 0.81981 0.0
C446 C 0.14658 0.42033 0.82735 0.0
C447 C 0.12554 0.41448 0.83862 0.0
C448 C 0.15527 0.37876 0.82489 0.0
N449 N 0.13551 0.37352 0.83751 0.0
H450 H 0.10545 0.3874 0.85449 0.0
H451 H 0.16744 0.36504 0.82013 0.0
H452 H 0.17142 0.37629 0.87952 0.0
H453 H 0.17487 0.30933 0.84949 0.0
O454 O 0.12536 0.35555 0.8836 0.0
O455 O 0.1293 0.31767 0.87566 0.0
O456 O 0.14053 0.32532 0.82378 0.0
C457 C 0.12539 0.33412 0.89111 0.0
H458 H 0.05547 0.30597 0.83055 0.0
H459 H 0.21452 0.35932 0.88663 0.0
H460 H 0.1776 0.40582 0.81094 0.0
H461 H 0.11389 0.428 0.84509 0.0
Co462 Co 0.65447 0.13307 0.8536 0.0
C463 C 0.66263 0.08165 0.85644 0.0
C464 C 0.63383 0.08883 0.83336 0.0
C465 C 0.63671 0.06498 0.8347 0.0
N466 N 0.64986 0.09953 0.84731 0.0
N467 N 0.6548 0.0605 0.84922 0.0
H468 H 0.67708 0.08383 0.86858 0.0
H469 H 0.62094 0.0974 0.82246 0.0
C470 C 0.67204 0.12876 0.80428 0.0
O471 O 0.65179 0.11948 0.79833 0.0
N472 N 0.6601 0.16583 0.85999 0.0
C473 C 0.64556 0.18156 0.8699 0.0
C474 C 0.6574 0.20262 0.87199 0.0
C475 C 0.68047 0.1773 0.85639 0.0
N476 N 0.67934 0.19987 0.86342 0.0
C477 C 0.60545 0.13321 0.84478 0.0
C478 C 0.60481 0.16933 0.81252 0.0
C479 C 0.58347 0.16033 0.82091 0.0
C480 C 0.58401 0.14177 0.83686 0.0
C481 C 0.6261 0.15964 0.82038 0.0
N482 N 0.6262 0.14173 0.83634 0.0
H483 H 0.6054 0.1199 0.85825 0.0
H484 H 0.64246 0.16745 0.81476 0.0
H485 H 0.62769 0.17795 0.87525 0.0
H486 H 0.696 0.16907 0.84927 0.0
O487 O 0.63966 0.12958 0.8836 0.0
O488 O 0.6779 0.12572 0.87744 0.0
O489 O 0.67565 0.13549 0.82534 0.0
C490 C 0.66038 0.1256 0.89217 0.0
H491 H 0.62637 0.05189 0.82557 0.0
H492 H 0.65031 0.21873 0.87903 0.0
H493 H 0.60502 0.18408 0.80058 0.0
H494 H 0.56792 0.1348 0.84424 0.0
Co495 Co 0.87374 0.66218 0.85482 0.0
C496 C 0.92612 0.6673 0.85892 0.0
C497 C 0.91499 0.6548 0.82523 0.0
C498 C 0.93899 0.65751 0.82493 0.0
N499 N 0.90686 0.66062 0.84661 0.0
N500 N 0.94599 0.66543 0.84608 0.0
H501 H 0.92577 0.67355 0.87678 0.0
H502 H 0.90411 0.64946 0.81061 0.0
C503 C 0.85223 0.68974 0.81378 0.0
O504 O 0.83061 0.68405 0.81932 0.0
N505 N 0.84078 0.66459 0.86318 0.0
C506 C 0.82539 0.64728 0.86803 0.0
C507 C 0.80383 0.6572 0.87286 0.0
C508 C 0.82882 0.68469 0.86662 0.0
N509 N 0.80597 0.68076 0.87169 0.0
C510 C 0.88102 0.61415 0.84494 0.0
C511 C 0.84255 0.60709 0.81619 0.0
C512 C 0.85473 0.58759 0.82486 0.0
C513 C 0.87481 0.59139 0.83854 0.0
C514 C 0.84972 0.6297 0.8226 0.0
N515 N 0.86806 0.63298 0.83777 0.0
H516 H 0.89552 0.61657 0.85698 0.0
H517 H 0.83916 0.64408 0.81688 0.0
H518 H 0.82941 0.62876 0.86781 0.0
H519 H 0.83644 0.70186 0.86384 0.0
O520 O 0.87953 0.64796 0.88459 0.0
O521 O 0.8803 0.68632 0.87823 0.0
O522 O 0.86973 0.68242 0.82586 0.0
C523 C 0.88193 0.66891 0.89305 0.0
H524 H 0.95033 0.65456 0.81003 0.0
H525 H 0.7878 0.64774 0.87669 0.0
H526 H 0.82697 0.60484 0.80548 0.0
H527 H 0.88464 0.57681 0.84575 0.0
Co528 Co 0.15597 0.34018 0.13214 0.0
C529 C 0.15535 0.34673 0.07981 0.0
C530 C 0.18183 0.32281 0.09131 0.0
C531 C 0.18118 0.3223 0.06745 0.0
N532 N 0.16629 0.33875 0.09945 0.0
N533 N 0.16446 0.33716 0.06009 0.0
H534 H 0.14009 0.35801 0.07994 0.0
H535 H 0.19118 0.31005 0.10161 0.0
C536 C 0.20685 0.32881 0.13895 0.0
O537 O 0.21175 0.34823 0.12758 0.0
N538 N 0.14558 0.33921 0.16432 0.0
C539 C 0.13184 0.35405 0.17652 0.0
C540 C 0.12821 0.34462 0.1986 0.0
C541 C 0.14978 0.32108 0.17878 0.0
N542 N 0.1397 0.32395 0.19989 0.0
C543 C 0.1658 0.38851 0.12275 0.0
C544 C 0.18668 0.39805 0.16552 0.0
C545 C 0.18057 0.41677 0.15083 0.0
C546 C 0.17078 0.4117 0.12885 0.0
C547 C 0.1817 0.37505 0.1586 0.0
N548 N 0.17077 0.37052 0.1377 0.0
H549 H 0.15636 0.38527 0.10671 0.0
H550 H 0.1854 0.36095 0.1707 0.0
H551 H 0.12488 0.37037 0.16983 0.0
H552 H 0.15949 0.30564 0.17363 0.0
O553 O 0.12598 0.35205 0.12269 0.0
O554 O 0.13458 0.31423 0.12575 0.0
O555 O 0.18539 0.32276 0.14211 0.0
C556 C 0.11901 0.33046 0.12118 0.0
H557 H 0.19063 0.31004 0.05649 0.0
H558 H 0.11808 0.35241 0.21259 0.0
H559 H 0.19436 0.40119 0.18261 0.0
H560 H 0.16541 0.42564 0.11713 0.0
Co561 Co 0.15325 0.66975 0.86688 0.0
C562 C 0.15173 0.66475 0.91971 0.0
C563 C 0.17543 0.69118 0.90761 0.0
C564 C 0.17468 0.69234 0.93143 0.0
N565 N 0.16189 0.67327 0.89991 0.0
N566 N 0.15981 0.67578 0.9392 0.0
H567 H 0.13771 0.65195 0.91987 0.0
H568 H 0.18362 0.70432 0.89676 0.0
C569 C 0.2044 0.68059 0.86374 0.0
O570 O 0.20777 0.66192 0.8768 0.0
N571 N 0.14456 0.66898 0.83417 0.0
C572 C 0.13348 0.65244 0.8214 0.0
C573 C 0.12967 0.6613 0.7991 0.0
C574 C 0.14691 0.68758 0.81987 0.0
N575 N 0.138 0.68348 0.79838 0.0
C576 C 0.16092 0.6216 0.87906 0.0
C577 C 0.18458 0.6095 0.83863 0.0
C578 C 0.17658 0.59162 0.85349 0.0
C579 C 0.1654 0.59801 0.87435 0.0
C580 C 0.1802 0.63301 0.84428 0.0
N581 N 0.16781 0.63883 0.86397 0.0
H582 H 0.15021 0.62569 0.89395 0.0
H583 H 0.1853 0.64645 0.83195 0.0
H584 H 0.12822 0.63541 0.82789 0.0
H585 H 0.15476 0.70401 0.8253 0.0
O586 O 0.12268 0.65874 0.87536 0.0
O587 O 0.1318 0.69624 0.87053 0.0
O588 O 0.18346 0.68633 0.8577 0.0
C589 C 0.11586 0.6804 0.87523 0.0
H590 H 0.18295 0.70574 0.94207 0.0
H591 H 0.1208 0.65244 0.78483 0.0
H592 H 0.19332 0.60532 0.82233 0.0
H593 H 0.15852 0.5848 0.88612 0.0
Co594 Co 0.34791 0.15809 0.87631 0.0
C595 C 0.33841 0.15383 0.92734 0.0
C596 C 0.36492 0.17976 0.9213 0.0
C597 C 0.36037 0.17894 0.9449 0.0
N598 N 0.35113 0.164 0.91004 0.0
N599 N 0.34373 0.16262 0.94866 0.0
H600 H 0.32512 0.14055 0.92457 0.0
H601 H 0.37744 0.19146 0.91325 0.0
C602 C 0.32999 0.20763 0.8793 0.0
O603 O 0.35048 0.21397 0.88771 0.0
N604 N 0.34368 0.152 0.8433 0.0
C605 C 0.3596 0.14413 0.82775 0.0
C606 C 0.34864 0.14157 0.8063 0.0
C607 C 0.32328 0.15364 0.8314 0.0
N608 N 0.32581 0.14745 0.80874 0.0
C609 C 0.39669 0.16806 0.87901 0.0
C610 C 0.39872 0.19926 0.84201 0.0
C611 C 0.41972 0.19129 0.85215 0.0
C612 C 0.41846 0.17596 0.87123 0.0
C613 C 0.37711 0.19141 0.85085 0.0
N614 N 0.3763 0.17585 0.86909 0.0
H615 H 0.39621 0.1549 0.89262 0.0
H616 H 0.36109 0.19664 0.84208 0.0
H617 H 0.37782 0.14045 0.83175 0.0
H618 H 0.30693 0.15933 0.83918 0.0
O619 O 0.36297 0.12812 0.87987 0.0
O620 O 0.32456 0.13384 0.88233 0.0
O621 O 0.3263 0.18626 0.87347 0.0
C622 C 0.3422 0.11921 0.88268 0.0
H623 H 0.36889 0.18935 0.95833 0.0
H624 H 0.35671 0.13544 0.79029 0.0
H625 H 0.39904 0.21079 0.82694 0.0
H626 H 0.43427 0.16889 0.87914 0.0
Co627 Co 0.84992 0.34677 0.87206 0.0
C628 C 0.85464 0.33859 0.92348 0.0
C629 C 0.82035 0.35087 0.91392 0.0
C630 C 0.82046 0.34593 0.93752 0.0
N631 N 0.84184 0.34646 0.9051 0.0
N632 N 0.84202 0.3381 0.9435 0.0
H633 H 0.8725 0.33237 0.92219 0.0
H634 H 0.80538 0.35666 0.90375 0.0
C635 C 0.80993 0.31854 0.84905 0.0
O636 O 0.81551 0.32561 0.82792 0.0
N637 N 0.8583 0.3461 0.8392 0.0
C638 C 0.86232 0.36393 0.82422 0.0
C639 C 0.86807 0.35463 0.80264 0.0
C640 C 0.86311 0.32646 0.82703 0.0
N641 N 0.86838 0.33103 0.80448 0.0
C642 C 0.83866 0.39402 0.88156 0.0
C643 C 0.81003 0.402 0.84326 0.0
C644 C 0.81853 0.42118 0.85607 0.0
C645 C 0.83204 0.41689 0.87612 0.0
C646 C 0.81663 0.37924 0.84969 0.0
N647 N 0.83189 0.37558 0.86785 0.0
H648 H 0.85071 0.39127 0.89596 0.0
H649 H 0.81111 0.3651 0.83866 0.0
H650 H 0.86104 0.38234 0.82855 0.0
H651 H 0.86122 0.30904 0.8343 0.0
O652 O 0.87953 0.36167 0.87844 0.0
O653 O 0.87411 0.32318 0.87738 0.0
O654 O 0.82145 0.32566 0.86703 0.0
C655 C 0.88856 0.34086 0.87977 0.0
H656 H 0.80569 0.34785 0.94926 0.0
H657 H 0.87158 0.36449 0.78683 0.0
H658 H 0.79943 0.40464 0.8277 0.0
H659 H 0.8391 0.43121 0.88644 0.0
Co660 Co 0.67101 0.85733 0.87432 0.0
C661 C 0.66809 0.86287 0.92664 0.0
C662 C 0.69199 0.83607 0.91595 0.0
C663 C 0.69522 0.8399 0.93932 0.0
N664 N 0.67459 0.84999 0.90768 0.0
N665 N 0.68044 0.85689 0.94604 0.0
H666 H 0.65648 0.87785 0.92588 0.0
H667 H 0.70395 0.82585 0.90554 0.0
C668 C 0.68139 0.80597 0.87191 0.0
O669 O 0.66232 0.8025 0.88438 0.0
N670 N 0.67 0.8648 0.84132 0.0
C671 C 0.65529 0.87877 0.82915 0.0
C672 C 0.66392 0.8811 0.80658 0.0
C673 C 0.68724 0.8591 0.82631 0.0
N674 N 0.68397 0.86856 0.80495 0.0
C675 C 0.62288 0.85023 0.88746 0.0
C676 C 0.60963 0.82724 0.84687 0.0
C677 C 0.59206 0.83573 0.86183 0.0
C678 C 0.59901 0.8465 0.88281 0.0
C679 C 0.63337 0.83095 0.8524 0.0
N680 N 0.63977 0.8431 0.87209 0.0
H681 H 0.62755 0.86055 0.90255 0.0
H682 H 0.64656 0.82545 0.83997 0.0
H683 H 0.63984 0.88714 0.8363 0.0
H684 H 0.70265 0.84919 0.83133 0.0
O685 O 0.6605 0.88821 0.88176 0.0
O686 O 0.69795 0.87842 0.877 0.0
O687 O 0.68729 0.82685 0.86612 0.0
C688 C 0.68235 0.89463 0.88132 0.0
H689 H 0.70875 0.83213 0.95019 0.0
H690 H 0.65622 0.89138 0.79261 0.0
H691 H 0.60506 0.81866 0.83056 0.0
H692 H 0.58608 0.8536 0.89474 0.0
Co693 Co 0.85647 0.65757 0.13454 0.0
C694 C 0.86102 0.6608 0.08238 0.0
C695 C 0.82766 0.64705 0.09327 0.0
C696 C 0.82782 0.64833 0.06923 0.0
N697 N 0.84858 0.65454 0.10156 0.0
N698 N 0.84875 0.65706 0.06246 0.0
H699 H 0.87867 0.66782 0.08276 0.0
H700 H 0.81318 0.64118 0.10404 0.0
C701 C 0.81171 0.67956 0.15533 0.0
O702 O 0.81701 0.67311 0.17673 0.0
N703 N 0.86433 0.66187 0.16727 0.0
C704 C 0.87328 0.64658 0.18293 0.0
C705 C 0.87738 0.65837 0.20373 0.0
C706 C 0.86433 0.68275 0.17824 0.0
N707 N 0.87144 0.68108 0.2007 0.0
C708 C 0.85165 0.60891 0.12617 0.0
C709 C 0.82681 0.59691 0.16585 0.0
C710 C 0.83583 0.57905 0.15165 0.0
C711 C 0.84773 0.58532 0.1312 0.0
C712 C 0.83057 0.62046 0.15979 0.0
N713 N 0.84343 0.6263 0.14044 0.0
H714 H 0.86256 0.61316 0.1113 0.0
H715 H 0.8247 0.63358 0.17177 0.0
H716 H 0.87655 0.62822 0.17953 0.0
H717 H 0.85878 0.69887 0.1699 0.0
O718 O 0.88799 0.64721 0.12914 0.0
O719 O 0.87666 0.68441 0.12775 0.0
O720 O 0.82512 0.67434 0.13811 0.0
C721 C 0.89366 0.66907 0.12651 0.0
H722 H 0.8135 0.6436 0.05763 0.0
H723 H 0.88365 0.65072 0.21992 0.0
H724 H 0.81766 0.59272 0.18193 0.0
H725 H 0.85535 0.57208 0.11995 0.0
Co726 Co 0.34981 0.84785 0.12813 0.0
C727 C 0.34288 0.85519 0.07667 0.0
C728 C 0.35591 0.8209 0.08488 0.0
C729 C 0.35159 0.822 0.06119 0.0
N730 N 0.35061 0.84174 0.09463 0.0
N731 N 0.34329 0.84354 0.05605 0.0
H732 H 0.33613 0.87276 0.07861 0.0
H733 H 0.3619 0.80567 0.09446 0.0
C734 C 0.32379 0.80469 0.14755 0.0
O735 O 0.33051 0.80867 0.16917 0.0
N736 N 0.34794 0.85409 0.16145 0.0
C737 C 0.36528 0.85936 0.1767 0.0
C738 C 0.3554 0.86355 0.19836 0.0
C739 C 0.32782 0.85645 0.17365 0.0
N740 N 0.33182 0.86159 0.19638 0.0
C741 C 0.39777 0.83972 0.11844 0.0
C742 C 0.40766 0.81041 0.15565 0.0
C743 C 0.42632 0.82008 0.14287 0.0
C744 C 0.42107 0.83407 0.12343 0.0
C745 C 0.38444 0.81608 0.14967 0.0
N746 N 0.37976 0.83149 0.13193 0.0
H747 H 0.3943 0.85212 0.10455 0.0
H748 H 0.3707 0.80965 0.16069 0.0
H749 H 0.38376 0.86024 0.17242 0.0
H750 H 0.31062 0.85347 0.16609 0.0
O751 O 0.36305 0.8785 0.1239 0.0
O752 O 0.32482 0.87075 0.12363 0.0
O753 O 0.33025 0.81813 0.13079 0.0
C754 C 0.3417 0.88627 0.12244 0.0
H755 H 0.35422 0.80792 0.04878 0.0
H756 H 0.36485 0.86792 0.21425 0.0
H757 H 0.41102 0.79945 0.17078 0.0
H758 H 0.43493 0.84209 0.1132 0.0
Co759 Co 0.66204 0.15151 0.13534 0.0
C760 C 0.65608 0.14672 0.08321 0.0
C761 C 0.68218 0.17191 0.09298 0.0
C762 C 0.68381 0.16826 0.06938 0.0
N763 N 0.66442 0.15891 0.10194 0.0
N764 N 0.66751 0.15239 0.06326 0.0
H765 H 0.64371 0.13234 0.08436 0.0
H766 H 0.69517 0.1814 0.10297 0.0
C767 C 0.67415 0.20249 0.13745 0.0
O768 O 0.65516 0.20651 0.12496 0.0
N769 N 0.66233 0.14389 0.16836 0.0
C770 C 0.64752 0.13065 0.18117 0.0
C771 C 0.65697 0.12809 0.20344 0.0
C772 C 0.68046 0.14891 0.18271 0.0
N773 N 0.67767 0.13973 0.20427 0.0
C774 C 0.61386 0.16026 0.12377 0.0
C775 C 0.6027 0.18289 0.16506 0.0
C776 C 0.58445 0.17513 0.15042 0.0
C777 C 0.59034 0.16461 0.12908 0.0
C778 C 0.62613 0.17874 0.15876 0.0
N779 N 0.63146 0.16665 0.13876 0.0
H780 H 0.61758 0.14995 0.1085 0.0
H781 H 0.63992 0.18369 0.17086 0.0
H782 H 0.63135 0.123 0.17468 0.0
H783 H 0.69603 0.15822 0.17709 0.0
O784 O 0.65018 0.12095 0.12816 0.0
O785 O 0.68807 0.12971 0.13147 0.0
O786 O 0.67952 0.18145 0.14313 0.0
C787 C 0.67182 0.11391 0.1277 0.0
H788 H 0.6971 0.17539 0.05785 0.0
H789 H 0.6493 0.11835 0.21778 0.0
H790 H 0.59887 0.19117 0.18169 0.0
H791 H 0.57681 0.15803 0.11742 0.0
H792 H 0.19813 0.12904 0.54932 0.0
H793 H 0.17198 0.19629 0.57196 0.0
H794 H 0.19333 0.14101 0.50845 0.0
H795 H 0.16703 0.20823 0.53107 0.0
H796 H 0.12433 0.195 0.46016 0.0
H797 H 0.13763 0.19194 0.50081 0.0
H798 H 0.20637 0.17072 0.4771 0.0
H799 H 0.19308 0.17393 0.43641 0.0
C800 C 0.1919 0.14658 0.54551 0.0
C801 C 0.18544 0.16174 0.56376 0.0
C802 C 0.18923 0.15347 0.52216 0.0
C803 C 0.17968 0.17551 0.51662 0.0
C804 C 0.17433 0.19111 0.53487 0.0
C805 C 0.17735 0.18435 0.55823 0.0
C806 C 0.14242 0.19021 0.46367 0.0
C807 C 0.15767 0.18471 0.44518 0.0
C808 C 0.15007 0.18856 0.48689 0.0
C809 C 0.17302 0.181 0.49208 0.0
C810 C 0.18858 0.1765 0.47357 0.0
C811 C 0.18103 0.17853 0.45032 0.0
H812 H 0.83763 0.19128 0.44316 0.0
H813 H 0.81137 0.12344 0.46404 0.0
H814 H 0.84314 0.20194 0.48439 0.0
H815 H 0.81665 0.13414 0.50522 0.0
H816 H 0.88396 0.18923 0.55622 0.0
H817 H 0.872 0.1856 0.51516 0.0
H818 H 0.803 0.16296 0.53688 0.0
H819 H 0.81491 0.16668 0.57792 0.0
C820 C 0.83242 0.17891 0.45659 0.0
C821 C 0.82401 0.15655 0.45044 0.0
C822 C 0.83578 0.18493 0.48015 0.0
C823 C 0.83041 0.16884 0.49801 0.0
C824 C 0.82078 0.14697 0.49186 0.0
C825 C 0.8178 0.14081 0.46832 0.0
C826 C 0.86612 0.18388 0.55219 0.0
C827 C 0.85038 0.17827 0.57027 0.0
C828 C 0.85923 0.18192 0.52871 0.0
C829 C 0.83657 0.17393 0.52282 0.0
C830 C 0.82059 0.16907 0.54091 0.0
C831 C 0.82736 0.17139 0.56438 0.0
H832 H 0.88832 0.81061 0.45873 0.0
H833 H 0.8194 0.8328 0.43619 0.0
H834 H 0.87633 0.81487 0.49964 0.0
H835 H 0.80746 0.8373 0.47712 0.0
H836 H 0.81867 0.8803 0.54818 0.0
H837 H 0.82269 0.8676 0.50745 0.0
H838 H 0.84694 0.79987 0.53092 0.0
H839 H 0.84268 0.81251 0.57169 0.0
C840 C 0.87046 0.81586 0.46257 0.0
C841 C 0.85478 0.82133 0.44434 0.0
C842 C 0.86356 0.81824 0.48595 0.0
C843 C 0.84099 0.82653 0.49151 0.0
C844 C 0.82498 0.83096 0.47329 0.0
C845 C 0.83175 0.82819 0.44991 0.0
C846 C 0.82434 0.86254 0.54459 0.0
C847 C 0.83033 0.84739 0.56304 0.0
C848 C 0.82656 0.85523 0.52132 0.0
C849 C 0.8352 0.83277 0.51606 0.0
C850 C 0.8403 0.81729 0.53451 0.0
C851 C 0.83769 0.82447 0.5578 0.0
H852 H 0.20055 0.84214 0.56114 0.0
H853 H 0.13475 0.81018 0.54124 0.0
H854 H 0.21087 0.8467 0.51967 0.0
H855 H 0.14498 0.81451 0.49994 0.0
H856 H 0.17403 0.81503 0.42679 0.0
H857 H 0.17276 0.80322 0.46788 0.0
H858 H 0.19327 0.87311 0.48859 0.0
H859 H 0.19478 0.8849 0.44745 0.0
C860 C 0.1887 0.83536 0.54788 0.0
C861 C 0.16694 0.82567 0.55431 0.0
C862 C 0.19445 0.83821 0.52418 0.0
C863 C 0.17868 0.83111 0.50652 0.0
C864 C 0.15762 0.81997 0.51307 0.0
C865 C 0.15174 0.81746 0.5367 0.0
C866 C 0.17884 0.82774 0.44007 0.0
C867 C 0.18446 0.85094 0.43383 0.0
C868 C 0.17792 0.821 0.46362 0.0
C869 C 0.18284 0.83723 0.4815 0.0
C870 C 0.1896 0.86012 0.47524 0.0
C871 C 0.19026 0.86694 0.45168 0.0
H872 H 0.4533 0.11369 0.18809 0.0
H873 H 0.43162 0.18386 0.16993 0.0
H874 H 0.49453 0.12551 0.18455 0.0
H875 H 0.47282 0.19564 0.16625 0.0
H876 H 0.54566 0.18988 0.12616 0.0
H877 H 0.50439 0.1838 0.13654 0.0
H878 H 0.5257 0.153 0.20228 0.0
H879 H 0.567 0.15927 0.19195 0.0
C880 C 0.45737 0.13172 0.18372 0.0
C881 C 0.43923 0.14784 0.17935 0.0
C882 C 0.48095 0.13852 0.18179 0.0
C883 C 0.4869 0.1615 0.17505 0.0
C884 C 0.46877 0.1778 0.17137 0.0
C885 C 0.4452 0.1711 0.17368 0.0
C886 C 0.54149 0.18226 0.14302 0.0
C887 C 0.55954 0.17512 0.15826 0.0
C888 C 0.51788 0.17883 0.14901 0.0
C889 C 0.51182 0.16781 0.17019 0.0
C890 C 0.52985 0.16142 0.18579 0.0
C891 C 0.55346 0.16521 0.17998 0.0
H892 H 0.85034 0.56056 0.19326 0.0
H893 H 0.82117 0.5413 0.12614 0.0
H894 H 0.8557 0.519 0.20286 0.0
H895 H 0.82622 0.49981 0.1358 0.0
H896 H 0.82346 0.4267 0.16761 0.0
H897 H 0.81266 0.4681 0.16491 0.0
H898 H 0.88326 0.48778 0.18465 0.0
H899 H 0.89412 0.44632 0.18723 0.0
C900 C 0.84452 0.54741 0.18084 0.0
C901 C 0.83528 0.5541 0.15899 0.0
C902 C 0.84777 0.52368 0.18624 0.0
C903 C 0.84144 0.50619 0.17005 0.0
C904 C 0.8311 0.51289 0.14869 0.0
C905 C 0.82825 0.5366 0.14313 0.0
C906 C 0.83653 0.43985 0.1719 0.0
C907 C 0.85964 0.43327 0.17767 0.0
C908 C 0.83039 0.46354 0.17016 0.0
C909 C 0.84712 0.48115 0.17451 0.0
C910 C 0.86994 0.47458 0.18137 0.0
C911 C 0.87619 0.45088 0.18274 0.0
H912 H 0.5557 0.87507 0.19202 0.0
H913 H 0.57898 0.80994 0.16141 0.0
H914 H 0.5148 0.86283 0.18681 0.0
H915 H 0.53809 0.79768 0.15627 0.0
H916 H 0.46531 0.80903 0.11729 0.0
H917 H 0.50638 0.81332 0.12924 0.0
H918 H 0.48421 0.83262 0.19886 0.0
H919 H 0.44308 0.82828 0.18688 0.0
C920 C 0.55206 0.85797 0.18457 0.0
C921 C 0.57054 0.84349 0.17711 0.0
C922 C 0.52867 0.85089 0.18171 0.0
C923 C 0.52325 0.82932 0.17104 0.0
C924 C 0.54174 0.81444 0.16443 0.0
C925 C 0.56514 0.82139 0.16757 0.0
C926 C 0.46925 0.81368 0.13528 0.0
C927 C 0.45102 0.8183 0.15115 0.0
C928 C 0.49275 0.81606 0.14215 0.0
C929 C 0.4985 0.82344 0.16496 0.0
C930 C 0.48028 0.82706 0.18113 0.0
C931 C 0.45677 0.82434 0.17434 0.0
H932 H 0.16631 0.43384 0.1931 0.0
H933 H 0.19667 0.45539 0.1273 0.0
H934 H 0.1626 0.47488 0.2048 0.0
H935 H 0.1928 0.49644 0.13893 0.0
H936 H 0.19463 0.56856 0.17103 0.0
H937 H 0.20593 0.52729 0.16798 0.0
H938 H 0.13612 0.50668 0.18929 0.0
H939 H 0.1249 0.54789 0.19236 0.0
C940 C 0.17271 0.44732 0.18137 0.0
C941 C 0.18174 0.4414 0.15924 0.0
C942 C 0.1704 0.47082 0.188 0.0
C943 C 0.17731 0.48888 0.17276 0.0
C944 C 0.1875 0.48292 0.15115 0.0
C945 C 0.18956 0.45943 0.14441 0.0
C946 C 0.18194 0.5552 0.17573 0.0
C947 C 0.15888 0.5614 0.18191 0.0
C948 C 0.18833 0.53159 0.17375 0.0
C949 C 0.17187 0.51376 0.17822 0.0
C950 C 0.14926 0.52001 0.18588 0.0
C951 C 0.14279 0.54358 0.18756 0.0
H952 H 0.45831 0.89018 0.81765 0.0
H953 H 0.43896 0.82187 0.8438 0.0
H954 H 0.49988 0.88064 0.82323 0.0
H955 H 0.48056 0.81236 0.84953 0.0
H956 H 0.57349 0.84857 0.81955 0.0
H957 H 0.53201 0.85304 0.80907 0.0
H958 H 0.51201 0.82808 0.87753 0.0
H959 H 0.55353 0.82367 0.88806 0.0
C960 C 0.46298 0.87299 0.82425 0.0
C961 C 0.44535 0.85676 0.8302 0.0
C962 C 0.48678 0.86749 0.82739 0.0
C963 C 0.49352 0.84577 0.83693 0.0
C964 C 0.47593 0.82929 0.84229 0.0
C965 C 0.45212 0.83465 0.83878 0.0
C966 C 0.56024 0.84361 0.83222 0.0
C967 C 0.56682 0.83572 0.85464 0.0
C968 C 0.53648 0.84638 0.82627 0.0
C969 C 0.51871 0.84098 0.84248 0.0
C970 C 0.52527 0.83222 0.86459 0.0
C971 C 0.54904 0.82981 0.87067 0.0
H972 H 0.18927 0.43875 0.83942 0.0
H973 H 0.12082 0.45839 0.8133 0.0
H974 H 0.19995 0.48017 0.84296 0.0
H975 H 0.13149 0.4998 0.81685 0.0
H976 H 0.19009 0.55378 0.87975 0.0
H977 H 0.18555 0.51227 0.86999 0.0
H978 H 0.15915 0.53115 0.80162 0.0
H979 H 0.16371 0.5727 0.8114 0.0
C980 C 0.1767 0.45191 0.83392 0.0
C981 C 0.15419 0.4453 0.82606 0.0
C982 C 0.18275 0.47563 0.83617 0.0
C983 C 0.16654 0.49327 0.83029 0.0
C984 C 0.14444 0.48664 0.82136 0.0
C985 C 0.13827 0.46294 0.81943 0.0
C986 C 0.1837 0.54904 0.8625 0.0
C987 C 0.17728 0.56651 0.84635 0.0
C988 C 0.18119 0.52527 0.85686 0.0
C989 C 0.17188 0.51842 0.83506 0.0
C990 C 0.16622 0.53588 0.81861 0.0
C991 C 0.16906 0.55966 0.82413 0.0
H992 H 0.43318 0.18467 0.80684 0.0
H993 H 0.4589 0.20788 0.87409 0.0
H994 H 0.47357 0.18321 0.79212 0.0
H995 H 0.49914 0.20647 0.85952 0.0
H996 H 0.5704 0.20546 0.82924 0.0
H997 H 0.53 0.22021 0.83126 0.0
H998 H 0.50447 0.15421 0.80413 0.0
H999 H 0.5447 0.13961 0.80226 0.0
C1000 C 0.44741 0.19028 0.81818 0.0
C1001 C 0.44299 0.19629 0.84162 0.0
C1002 C 0.47051 0.18928 0.80983 0.0
C1003 C 0.48956 0.19456 0.8247 0.0
C1004 C 0.48489 0.20251 0.84753 0.0
C1005 C 0.46186 0.20322 0.85594 0.0
C1006 C 0.55617 0.19453 0.82285 0.0
C1007 C 0.56056 0.17142 0.81562 0.0
C1008 C 0.53307 0.20287 0.82419 0.0
C1009 C 0.51403 0.18831 0.81805 0.0
C1010 C 0.51871 0.16596 0.8088 0.0
C1011 C 0.54173 0.15754 0.80776 0.0
H1012 H 0.81016 0.57296 0.83412 0.0
H1013 H 0.87791 0.54792 0.81138 0.0
H1014 H 0.79627 0.53248 0.83773 0.0
H1015 H 0.86401 0.50747 0.81484 0.0
H1016 H 0.82891 0.43673 0.81227 0.0
H1017 H 0.83382 0.47747 0.79971 0.0
H1018 H 0.80963 0.50116 0.86728 0.0
H1019 H 0.80488 0.46044 0.87985 0.0
C1020 C 0.82183 0.55881 0.82921 0.0
C1021 C 0.84512 0.56353 0.82247 0.0
C1022 C 0.81395 0.53568 0.83147 0.0
C1023 C 0.82908 0.51686 0.82665 0.0
C1024 C 0.85188 0.52163 0.81848 0.0
C1025 C 0.85988 0.54474 0.81659 0.0
C1026 C 0.82396 0.45066 0.82416 0.0
C1027 C 0.81651 0.44547 0.84704 0.0
C1028 C 0.82697 0.47394 0.81704 0.0
C1029 C 0.82223 0.49245 0.83255 0.0
C1030 C 0.81325 0.48725 0.85488 0.0
C1031 C 0.8106 0.46398 0.86212 0.0
H1032 H 0.11861 0.96099 0.34262 0.0
H1033 H 0.18545 0.98443 0.31559 0.0
H1034 H 0.10488 1.00179 0.34338 0.0
H1035 H 0.17167 0.02465 0.3158 0.0
H1036 H 0.13589 0.09162 0.29783 0.0
H1037 H 0.14194 0.04926 0.29449 0.0
H1038 H 0.115 0.03972 0.36448 0.0
H1039 H 0.10889 0.08191 0.36776 0.0
C1040 C 0.13041 0.97478 0.33704 0.0
C1041 C 0.15305 0.96939 0.3288 0.0
C1042 C 0.1225 0.99809 0.33727 0.0
C1043 C 0.13701 0.01635 0.32909 0.0
C1044 C 0.15979 0.01094 0.3215 0.0
C1045 C 0.16773 0.98785 0.32149 0.0
C1046 C 0.13063 0.08039 0.3122 0.0
C1047 C 0.1221 0.09005 0.33309 0.0
C1048 C 0.13429 0.05618 0.3104 0.0
C1049 C 0.12925 0.04122 0.32938 0.0
C1050 C 0.119 0.05075 0.34956 0.0
C1051 C 0.11559 0.07493 0.35144 0.0
H1052 H 0.92083 0.10937 0.37047 0.0
H1053 H 0.91362 0.1386 0.30105 0.0
H1054 H 0.96313 0.11537 0.36889 0.0
H1055 H 0.95655 0.14434 0.29943 0.0
H1056 H 0.04172 0.13129 0.31124 0.0
H1057 H 1.00053 0.11853 0.30638 0.0
H1058 H 0.9809 0.16047 0.36604 0.0
H1059 H 0.02156 0.17336 0.37065 0.0
C1060 C 0.92837 0.11651 0.35458 0.0
C1061 C 0.91389 0.12378 0.33598 0.0
C1062 C 0.95259 0.11993 0.35373 0.0
C1063 C 0.96297 0.13052 0.33418 0.0
C1064 C 0.94887 0.13604 0.31467 0.0
C1065 C 0.92438 0.1327 0.31557 0.0
C1066 C 0.02852 0.13768 0.32327 0.0
C1067 C 0.03477 0.15331 0.34133 0.0
C1068 C 0.00505 0.13054 0.32038 0.0
C1069 C 0.98768 0.13853 0.33587 0.0
C1070 C 0.99401 0.15404 0.35391 0.0
C1071 C 0.01723 0.16147 0.3565 0.0
H1072 H 0.87001 0.9182 0.29928 0.0
H1073 H 0.89804 0.92361 0.36947 0.0
H1074 H 0.86296 0.96081 0.29911 0.0
H1075 H 0.89072 0.9656 0.3693 0.0
H1076 H 0.83195 0.0226 0.37229 0.0
H1077 H 0.84577 0.98251 0.36673 0.0
H1078 H 0.88691 0.00467 0.30734 0.0
H1079 H 0.87319 0.04523 0.31313 0.0
C1080 C 0.87532 0.92854 0.31431 0.0
C1081 C 0.8843 0.91758 0.33448 0.0
C1082 C 0.87124 0.95283 0.31423 0.0
C1083 C 0.87603 0.96627 0.33434 0.0
C1084 C 0.88667 0.95553 0.3537 0.0
C1085 C 0.89085 0.93149 0.35374 0.0
C1086 C 0.84384 0.01892 0.35799 0.0
C1087 C 0.85153 0.03698 0.34318 0.0
C1088 C 0.85182 0.99605 0.35487 0.0
C1089 C 0.86741 0.99061 0.33664 0.0
C1090 C 0.87486 0.0085 0.32148 0.0
C1091 C 0.86717 0.03161 0.3249 0.0
H1092 H 0.96594 0.89175 0.3364 0.0
H1093 H 0.98444 0.82059 0.3185 0.0
H1094 H 0.00563 0.90455 0.32643 0.0
H1095 H 0.02421 0.83316 0.30941 0.0
H1096 H 0.09319 0.86075 0.28588 0.0
H1097 H 0.05041 0.85567 0.28413 0.0
H1098 H 0.04315 0.89916 0.34566 0.0
H1099 H 0.08549 0.90441 0.34708 0.0
C1100 C 0.97835 0.87888 0.33008 0.0
C1101 C 0.97205 0.85507 0.32861 0.0
C1102 C 1.00116 0.88619 0.32449 0.0
C1103 C 0.01819 0.86988 0.31722 0.0
C1104 C 0.01153 0.84627 0.3147 0.0
C1105 C 0.98878 0.83897 0.32032 0.0
C1106 C 0.08231 0.86986 0.29846 0.0
C1107 C 0.0926 0.88284 0.31669 0.0
C1108 C 0.05786 0.86675 0.29766 0.0
C1109 C 0.04335 0.87675 0.31495 0.0
C1110 C 0.05367 0.89132 0.33196 0.0
C1111 C 0.07799 0.89426 0.33286 0.0
H1112 H 0.1793 0.02758 0.63824 0.0
H1113 H 0.13163 0.04539 0.6941 0.0
H1114 H 0.16714 0.98666 0.64083 0.0
H1115 H 0.11952 0.00394 0.69689 0.0
H1116 H 0.13953 0.91788 0.7026 0.0
H1117 H 0.14468 0.96072 0.70543 0.0
H1118 H 0.12363 0.96786 0.63317 0.0
H1119 H 0.11824 0.92569 0.63034 0.0
C1120 C 0.16634 0.02268 0.6512 0.0
C1121 C 0.1564 0.03964 0.66595 0.0
C1122 C 0.15931 0.99931 0.65262 0.0
C1123 C 0.14241 0.99224 0.66905 0.0
C1124 C 0.13264 0.00902 0.68414 0.0
C1125 C 0.1394 0.03265 0.68242 0.0
C1126 C 0.13533 0.92873 0.68761 0.0
C1127 C 0.12881 0.91844 0.66617 0.0
C1128 C 0.13829 0.95316 0.68921 0.0
C1129 C 0.13482 0.96741 0.66939 0.0
C1130 C 0.12664 0.9572 0.6486 0.0
C1131 C 0.12359 0.93304 0.64703 0.0
H1132 H 0.09003 0.13936 0.70822 0.0
H1133 H 0.08514 0.10795 0.63964 0.0
H1134 H 0.04725 0.14089 0.71036 0.0
H1135 H 0.04243 0.10848 0.64202 0.0
H1136 H 0.97088 0.14758 0.64042 0.0
H1137 H 0.01247 0.13677 0.6391 0.0
H1138 H 0.01084 0.12162 0.71332 0.0
H1139 H 0.96968 0.13343 0.71447 0.0
C1140 C 0.07977 0.13212 0.69393 0.0
C1141 C 0.09086 0.1237 0.67373 0.0
C1142 C 0.0552 0.13294 0.6951 0.0
C1143 C 0.04123 0.12504 0.6762 0.0
C1144 C 0.05251 0.11525 0.65665 0.0
C1145 C 0.07701 0.11475 0.65537 0.0
C1146 C 0.97943 0.14143 0.65623 0.0
C1147 C 0.96732 0.14152 0.67753 0.0
C1148 C 1.00324 0.1352 0.65558 0.0
C1149 C 0.01524 0.12862 0.67623 0.0
C1150 C 1.00246 0.12719 0.69721 0.0
C1151 C 0.97885 0.13374 0.69787 0.0
H1152 H 0.89267 0.96361 0.67164 0.0
H1153 H 0.81975 0.98105 0.68313 0.0
H1154 H 0.90397 0.0035 0.68211 0.0
H1155 H 0.83096 0.02111 0.69272 0.0
H1156 H 0.8564 0.09061 0.71804 0.0
H1157 H 0.85156 0.04786 0.71986 0.0
H1158 H 0.89905 0.04034 0.66139 0.0
H1159 H 0.90392 0.08262 0.65984 0.0
C1160 C 0.87906 0.97584 0.67666 0.0
C1161 C 0.85526 0.96916 0.67623 0.0
C1162 C 0.88554 0.99875 0.68255 0.0
C1163 C 0.86837 0.01553 0.68816 0.0
C1164 C 0.84467 0.00859 0.68873 0.0
C1165 C 0.83819 0.98569 0.68282 0.0
C1166 C 0.8664 0.07966 0.70621 0.0
C1167 C 0.88044 0.08979 0.68875 0.0
C1168 C 0.86345 0.05526 0.70704 0.0
C1169 C 0.87472 0.04071 0.69059 0.0
C1170 C 0.89025 0.05093 0.67444 0.0
C1171 C 0.89298 0.07518 0.67347 0.0
H1172 H 0.02747 0.85738 0.62478 0.0
H1173 H 0.04811 0.86655 0.69692 0.0
H1174 H 0.98784 0.87007 0.63409 0.0
H1175 H 0.00786 0.8794 0.7065 0.0
H1176 H 0.92285 0.86248 0.70704 0.0
H1177 H 0.96594 0.85922 0.70583 0.0
H1178 H 0.96763 0.907 0.64723 0.0
H1179 H 0.92494 0.90986 0.64821 0.0
C1180 C 0.02347 0.86222 0.64267 0.0
C1181 C 0.04079 0.86089 0.66014 0.0
C1182 C 1.00083 0.86971 0.64799 0.0
C1183 C 0.99478 0.87592 0.67101 0.0
C1184 C 0.01209 0.87476 0.68861 0.0
C1185 C 0.03505 0.86756 0.68314 0.0
C1186 C 0.93261 0.87297 0.69458 0.0
C1187 C 0.9207 0.88624 0.67758 0.0
C1188 C 0.95722 0.87107 0.69383 0.0
C1189 C 0.97006 0.8825 0.67612 0.0
C1190 C 0.95816 0.89767 0.66078 0.0
C1191 C 0.93375 0.89939 0.66141 0.0
H1192 H 0.33141 0.11883 0.96217 0.0
H1193 H 0.33514 0.19058 0.98575 0.0
H1194 H 0.32008 0.1064 1.00168 0.0
H1195 H 0.32381 0.17828 0.02511 0.0
H1196 H 0.29297 0.15175 0.09223 0.0
H1197 H 0.2914 0.15925 0.0499 0.0
H1198 H 0.34498 0.10688 0.03892 0.0
H1199 H 0.34673 0.09973 0.08099 0.0
C1200 C 0.32931 0.13197 0.97568 0.0
C1201 C 0.33438 0.15563 0.97101 0.0
C1202 C 0.32291 0.12487 0.99826 0.0
C1203 C 0.32104 0.14138 0.01646 0.0
C1204 C 0.32484 0.16519 0.01141 0.0
C1205 C 0.33159 0.17221 0.98897 0.0
C1206 C 0.30377 0.14132 0.08062 0.0
C1207 C 0.31999 0.1252 0.08975 0.0
C1208 C 0.30303 0.14574 0.05648 0.0
C1209 C 0.31817 0.13374 0.04115 0.0
C1210 C 0.33297 0.11626 0.05023 0.0
C1211 C 0.33403 0.1122 0.07431 0.0
H1212 H 0.85619 0.28669 0.08713 0.0
H1213 H 0.90328 0.34536 0.07818 0.0
H1214 H 0.84929 0.2858 0.04467 0.0
H1215 H 0.89625 0.34483 0.03628 0.0
H1216 H 0.88689 0.33637 0.95989 0.0
H1217 H 0.89971 0.32556 0.9991 0.0
H1218 H 0.82765 0.31224 0.01872 0.0
H1219 H 0.81492 0.32198 0.97922 0.0
C1220 C 0.8656 0.29888 0.07601 0.0
C1221 C 0.88018 0.31615 0.08586 0.0
C1222 C 0.86145 0.29859 0.05177 0.0
C1223 C 0.87201 0.31542 0.03707 0.0
C1224 C 0.88796 0.33147 0.04693 0.0
C1225 C 0.89193 0.33186 0.07101 0.0
C1226 C 0.87379 0.33068 0.97236 0.0
C1227 C 0.84979 0.33038 0.96636 0.0
C1228 C 0.88115 0.32462 0.99494 0.0
C1229 C 0.86472 0.31816 0.01215 0.0
C1230 C 0.84084 0.31689 0.00588 0.0
C1231 C 0.83348 0.32291 0.98328 0.0
H1232 H 0.71925 0.87141 0.96872 0.0
H1233 H 0.64385 0.86761 0.97402 0.0
H1234 H 0.72198 0.88389 0.00949 0.0
H1235 H 0.64633 0.87943 0.01519 0.0
H1236 H 0.65447 0.90826 0.08676 0.0
H1237 H 0.6555 0.90816 0.04412 0.0
H1238 H 0.71763 0.86465 0.04621 0.0
H1239 H 0.71689 0.86548 0.08897 0.0
C1240 C 0.70322 0.87357 0.97867 0.0
C1241 C 0.68133 0.86836 0.96844 0.0
C1242 C 0.70478 0.88056 1.00204 0.0
C1243 C 0.68446 0.8823 0.01584 0.0
C1244 C 0.66238 0.87848 0.0051 0.0
C1245 C 0.66085 0.8717 0.98155 0.0
C1246 C 0.66872 0.89921 0.07805 0.0
C1247 C 0.68557 0.88678 0.0911 0.0
C1248 C 0.66916 0.89896 0.05361 0.0
C1249 C 0.68634 0.88603 0.04163 0.0
C1250 C 0.7042 0.87496 0.05478 0.0
C1251 C 0.70388 0.87544 0.07931 0.0
H1252 H 0.14081 0.70706 0.08497 0.0
H1253 H 0.11108 0.63773 0.07777 0.0
H1254 H 0.14532 0.70934 0.04239 0.0
H1255 H 0.1156 0.64 0.03533 0.0
H1256 H 0.11721 0.6614 0.95594 0.0
H1257 H 0.10471 0.66159 0.99715 0.0
H1258 H 0.17373 0.68549 0.01783 0.0
H1259 H 0.18628 0.68467 0.97728 0.0
C1260 C 0.13463 0.69262 0.07426 0.0
C1261 C 0.12582 0.67215 0.08464 0.0
C1262 C 0.13737 0.69382 0.04993 0.0
C1263 C 0.13109 0.67469 0.03561 0.0
C1264 C 0.12054 0.655 0.0459 0.0
C1265 C 0.11806 0.65369 0.0702 0.0
C1266 C 0.12974 0.66635 0.96936 0.0
C1267 C 0.15265 0.67331 0.9633 0.0
C1268 C 0.12254 0.66667 0.99288 0.0
C1269 C 0.13809 0.67417 0.01059 0.0
C1270 C 0.16113 0.68036 0.00451 0.0
C1271 C 0.16834 0.67978 0.98125 0.0
H1272 H 0.32707 0.81765 0.01955 0.0
H1273 H 0.34237 0.88869 0.04093 0.0
H1274 H 0.31805 0.83134 0.98023 0.0
H1275 H 0.33246 0.90254 1.00171 0.0
H1276 H 0.35408 0.90607 0.92257 0.0
H1277 H 0.35234 0.89924 0.9645 0.0
H1278 H 0.29219 0.85393 0.95453 0.0
H1279 H 0.29426 0.86062 0.91215 0.0
C1280 C 0.32834 0.83623 0.01594 0.0
C1281 C 0.33586 0.852 0.03336 0.0
C1282 C 0.32276 0.84415 0.99344 0.0
C1283 C 0.32455 0.86806 0.98774 0.0
C1284 C 0.33108 0.88398 0.00544 0.0
C1285 C 0.33664 0.87605 0.02799 0.0
C1286 C 0.34004 0.89519 0.9294 0.0
C1287 C 0.32439 0.88376 0.91414 0.0
C1288 C 0.33898 0.89133 0.9535 0.0
C1289 C 0.32231 0.87578 0.96291 0.0
C1290 C 0.30545 0.86574 0.94778 0.0
C1291 C 0.30642 0.86979 0.92357 0.0
H1292 H 0.10275 0.36058 0.92324 0.0
H1293 H 0.1459 0.29883 0.91621 0.0
H1294 H 0.1092 0.36042 0.9655 0.0
H1295 H 0.15235 0.29861 0.95865 0.0
H1296 H 0.19047 0.33301 0.02116 0.0
H1297 H 0.17641 0.32839 0.9812 0.0
H1298 H 0.10511 0.33901 0.00459 0.0
H1299 H 0.11931 0.34316 0.04508 0.0
C1300 C 0.11303 0.34653 0.93088 0.0
C1301 C 0.124 0.3298 0.91651 0.0
C1302 C 0.11667 0.34644 0.95507 0.0
C1303 C 0.13159 0.32977 0.96529 0.0
C1304 C 0.14101 0.31188 0.95113 0.0
C1305 C 0.13713 0.31182 0.92691 0.0
C1306 C 0.17178 0.33433 0.01782 0.0
C1307 C 0.156 0.33823 0.0363 0.0
C1308 C 0.16371 0.33148 0.99496 0.0
C1309 C 0.13961 0.33271 0.98987 0.0
C1310 C 0.12379 0.33775 0.0081 0.0
C1311 C 0.13191 0.3404 0.03119 0.0
H1312 H 0.70283 0.13288 0.03912 0.0
H1313 H 0.62885 0.14826 0.03635 0.0
H1314 H 0.70203 0.12056 0.9982 0.0
H1315 H 0.62789 0.13718 0.99498 0.0
H1316 H 0.6284 0.10846 0.92277 0.0
H1317 H 0.63027 0.10916 0.96535 0.0
H1318 H 0.70025 0.1387 0.96164 0.0
H1319 H 0.69865 0.13674 0.91899 0.0
C1320 C 0.68632 0.13333 0.02965 0.0
C1321 C 0.66589 0.14152 0.04065 0.0
C1322 C 0.68586 0.12653 0.00616 0.0
C1323 C 0.66501 0.12821 0.99299 0.0
C1324 C 0.64426 0.13534 0.0045 0.0
C1325 C 0.6447 0.14174 0.02817 0.0
C1326 C 0.64436 0.11465 0.93114 0.0
C1327 C 0.66336 0.12264 0.91765 0.0
C1328 C 0.64536 0.11527 0.95557 0.0
C1329 C 0.66523 0.12435 0.96712 0.0
C1330 C 0.68472 0.13131 0.95351 0.0
C1331 C 0.68385 0.13027 0.92901 0.0
H1332 H 0.89943 0.63736 0.92354 0.0
H1333 H 0.86905 0.70662 0.92024 0.0
H1334 H 0.89425 0.63688 0.96581 0.0
H1335 H 0.86403 0.70615 0.96307 0.0
H1336 H 0.87585 0.69277 0.04636 0.0
H1337 H 0.88828 0.69927 0.00556 0.0
H1338 H 0.85121 0.63659 0.98467 0.0
H1339 H 0.83871 0.63029 0.02501 0.0
C1340 C 0.8922 0.65277 0.93195 0.0
C1341 C 0.88435 0.67191 0.91861 0.0
C1342 C 0.88923 0.65244 0.95613 0.0
C1343 C 0.87843 0.6713 0.96755 0.0
C1344 C 0.87244 0.69141 0.95458 0.0
C1345 C 0.87537 0.69171 0.93016 0.0
C1346 C 0.87049 0.68041 0.03298 0.0
C1347 C 0.85635 0.661 0.03877 0.0
C1348 C 0.87745 0.68422 0.00973 0.0
C1349 C 0.87078 0.66835 0.99212 0.0
C1350 C 0.85671 0.64898 0.99799 0.0
C1351 C 0.84945 0.64544 0.02101 0.0
H1352 H 0.9728 0.28456 0.12869 0.0
H1353 H 0.97431 0.35942 0.13862 0.0
H1354 H 0.01389 0.28508 0.11671 0.0
H1355 H 0.01577 0.36013 0.12726 0.0
H1356 H 0.088 0.35793 0.09792 0.0
H1357 H 0.0453 0.3549 0.09812 0.0
H1358 H 0.0504 0.28987 0.13667 0.0
H1359 H 0.09323 0.29267 0.13578 0.0
C1360 C 0.98198 0.3012 0.12804 0.0
C1361 C 0.97056 0.32195 0.13481 0.0
C1362 C 0.00554 0.30149 0.12132 0.0
C1363 C 0.01835 0.32255 0.12139 0.0
C1364 C 0.00646 0.34357 0.1268 0.0
C1365 C 0.98273 0.34326 0.13333 0.0
C1366 C 0.07996 0.34269 0.10595 0.0
C1367 C 0.09388 0.32557 0.11696 0.0
C1368 C 0.05547 0.34108 0.10625 0.0
C1369 C 0.04431 0.32239 0.11776 0.0
C1370 C 0.05834 0.30444 0.12746 0.0
C1371 C 0.08292 0.30597 0.12696 0.0
H1372 H 0.96054 0.69885 0.87698 0.0
H1373 H 0.98551 0.6444 0.83082 0.0
H1374 H 1.00143 0.70803 0.88803 0.0
H1375 H 0.02597 0.65366 0.84179 0.0
H1376 H 0.0845 0.65576 0.90064 0.0
H1377 H 0.04185 0.65599 0.89608 0.0
H1378 H 0.04693 0.71549 0.84984 0.0
H1379 H 0.09002 0.7153 0.85429 0.0
C1380 C 0.97468 0.68885 0.86926 0.0
C1381 C 0.9698 0.67091 0.85298 0.0
C1382 C 0.99799 0.69426 0.87541 0.0
C1383 C 0.01665 0.68166 0.86551 0.0
C1384 C 0.01179 0.66375 0.8494 0.0
C1385 C 0.98866 0.6585 0.84313 0.0
C1386 C 0.07651 0.66943 0.89014 0.0
C1387 C 0.09054 0.68546 0.87773 0.0
C1388 C 0.05212 0.66954 0.88759 0.0
C1389 C 0.04128 0.68574 0.87266 0.0
C1390 C 0.05502 0.70302 0.86167 0.0
C1391 C 0.07958 0.70297 0.86428 0.0
H1392 H 0.30276 0.09357 0.87271 0.0
H1393 H 0.37514 0.08679 0.89455 0.0
H1394 H 0.3005 0.05103 0.86724 0.0
H1395 H 0.37281 0.04435 0.88923 0.0
H1396 H 0.35117 0.96456 0.88881 0.0
H1397 H 0.35178 0.00556 0.90204 0.0
H1398 H 0.32231 0.02726 0.83582 0.0
H1399 H 0.32253 0.98701 0.82234 0.0
C1400 C 0.31796 0.08295 0.87694 0.0
C1401 C 0.33916 0.09349 0.88384 0.0
C1402 C 0.31673 0.05865 0.87368 0.0
C1403 C 0.33658 0.04444 0.87759 0.0
C1404 C 0.35724 0.05483 0.88616 0.0
C1405 C 0.35857 0.07913 0.88909 0.0
C1406 C 0.3451 0.97811 0.87701 0.0
C1407 C 0.33645 0.97234 0.85461 0.0
C1408 C 0.34527 1.00153 0.88466 0.0
C1409 C 0.33652 0.01949 0.87015 0.0
C1410 C 0.32848 0.01374 0.84766 0.0
C1411 C 0.32864 0.99059 0.83994 0.0
H1412 H 0.91921 0.37231 0.89825 0.0
H1413 H 0.91579 0.30372 0.86653 0.0
H1414 H 0.96196 0.37108 0.89713 0.0
H1415 H 0.95861 0.30274 0.86445 0.0
H1416 H 0.03632 0.30049 0.87165 0.0
H1417 H 0.99522 0.30061 0.88366 0.0
H1418 H 0.99154 0.37482 0.86846 0.0
H1419 H 0.03309 0.37453 0.85741 0.0
C1420 C 0.92767 0.35683 0.89124 0.0
C1421 C 0.91422 0.33812 0.88239 0.0
C1422 C 0.95219 0.35621 0.89041 0.0
C1423 C 0.96387 0.33699 0.88041 0.0
C1424 C 0.95033 0.31776 0.87255 0.0
C1425 C 0.92575 0.31827 0.87368 0.0
C1426 C 0.02673 0.31687 0.87139 0.0
C1427 C 0.03766 0.33749 0.86353 0.0
C1428 C 1.00314 0.31694 0.87804 0.0
C1429 C 0.98981 0.33761 0.87666 0.0
C1430 C 1.00122 0.35857 0.86999 0.0
C1431 C 0.02499 0.35851 0.86363 0.0
H1432 H 0.6997 0.04669 0.8577 0.0
H1433 H 0.62771 0.02287 0.85768 0.0
H1434 H 0.7127 0.00724 0.86972 0.0
H1435 H 0.64046 0.98398 0.86975 0.0
H1436 H 0.66314 0.92479 0.91186 0.0
H1437 H 0.66062 0.96716 0.90711 0.0
H1438 H 0.70967 0.9638 0.8497 0.0
H1439 H 0.71231 0.92104 0.85461 0.0
C1440 C 0.68671 0.03308 0.86044 0.0
C1441 C 0.66271 0.03774 0.85671 0.0
C1442 C 0.69413 0.01059 0.8672 0.0
C1443 C 0.67756 0.99269 0.87088 0.0
C1444 C 0.6536 0.99753 0.86734 0.0
C1445 C 0.6463 0.01972 0.86023 0.0
C1446 C 0.67414 0.93321 0.89885 0.0
C1447 C 0.68784 0.91975 0.88353 0.0
C1448 C 0.67258 0.95742 0.89605 0.0
C1449 C 0.68459 0.96863 0.87776 0.0
C1450 C 0.70028 0.95554 0.86397 0.0
C1451 C 0.70191 0.93113 0.86685 0.0
H1452 H 0.04581 0.66325 0.11243 0.0
H1453 H 0.02823 0.68468 0.18276 0.0
H1454 H 0.00524 0.67002 0.10023 0.0
H1455 H 0.9876 0.6907 0.17079 0.0
H1456 H 0.91641 0.70813 0.14297 0.0
H1457 H 0.95916 0.71298 0.14675 0.0
H1458 H 0.96946 0.64818 0.10896 0.0
H1459 H 0.92718 0.64358 0.10514 0.0
C1460 C 0.0334 0.66971 0.12522 0.0
C1461 C 0.04022 0.67307 0.14867 0.0
C1462 C 0.01012 0.67348 0.11825 0.0
C1463 C 0.99313 0.68079 0.13456 0.0
C1464 C 1.00024 0.6853 0.15771 0.0
C1465 C 0.02348 0.68146 0.16468 0.0
C1466 C 0.92793 0.69544 0.13481 0.0
C1467 C 0.91861 0.67545 0.12387 0.0
C1468 C 0.95235 0.69804 0.13717 0.0
C1469 C 0.96772 0.68084 0.12836 0.0
C1470 C 0.95823 0.66187 0.11579 0.0
C1471 C 0.93397 0.65916 0.11369 0.0
H1472 H 0.3672 0.03212 0.14582 0.0
H1473 H 0.29272 0.03102 0.13218 0.0
H1474 H 0.36974 0.99072 0.13497 0.0
H1475 H 0.29508 0.99002 0.12038 0.0
H1476 H 0.30308 0.911 0.13645 0.0
H1477 H 0.29958 0.95356 0.13915 0.0
H1478 H 0.3675 0.9613 0.10616 0.0
H1479 H 0.37127 0.91884 0.10448 0.0
C1480 C 0.35154 0.0231 0.13984 0.0
C1481 C 0.32978 0.03453 0.14006 0.0
C1482 C 0.35289 0.99941 0.13357 0.0
C1483 C 0.33251 0.98682 0.12707 0.0
C1484 C 0.31101 0.99888 0.12588 0.0
C1485 C 0.30966 0.02239 0.13246 0.0
C1486 C 0.317 0.92187 0.12941 0.0
C1487 C 0.33748 0.91169 0.12044 0.0
C1488 C 0.31504 0.9463 0.13088 0.0
C1489 C 0.33341 0.96099 0.1231 0.0
C1490 C 0.35327 0.95062 0.11286 0.0
C1491 C 0.35535 0.92628 0.11172 0.0
H1492 H 0.70855 0.08923 0.14631 0.0
H1493 H 0.64518 0.08157 0.10526 0.0
H1494 H 0.71014 0.0466 0.15139 0.0
H1495 H 0.6467 0.03914 0.11037 0.0
H1496 H 0.66638 0.95972 0.11742 0.0
H1497 H 0.66893 1.00075 0.10435 0.0
H1498 H 0.68193 0.02253 0.17564 0.0
H1499 H 0.67892 0.98207 0.18858 0.0
C1500 C 0.69545 0.07839 0.13773 0.0
C1501 C 0.67665 0.08863 0.1256 0.0
C1502 C 0.69619 0.05405 0.14082 0.0
C1503 C 0.67829 0.03962 0.1316 0.0
C1504 C 0.66072 0.04977 0.11766 0.0
C1505 C 0.65984 0.07407 0.11481 0.0
C1506 C 0.66933 0.97337 0.13026 0.0
C1507 C 0.67264 0.96769 0.154 0.0
C1508 C 0.67106 0.99677 0.12278 0.0
C1509 C 0.67631 0.01473 0.13891 0.0
C1510 C 0.67866 0.00902 0.16269 0.0
C1511 C 0.67673 0.98587 0.17012 0.0
H1512 H 0.11293 0.21047 0.29709 0.0
H1513 H 0.18602 0.22822 0.30791 0.0
H1514 H 0.109 0.24355 0.27005 0.0
H1515 H 0.18194 0.26138 0.2816 0.0
H1516 H 0.17584 0.29507 0.20979 0.0
H1517 H 0.17777 0.26545 0.24012 0.0
H1518 H 0.10944 0.2866 0.26523 0.0
H1519 H 0.10718 0.31603 0.23392 0.0
C1520 C 0.12806 0.22156 0.29393 0.0
C1521 C 0.14988 0.21646 0.30439 0.0
C1522 C 0.12577 0.24061 0.27856 0.0
C1523 C 0.14523 0.25497 0.27342 0.0
C1524 C 0.16672 0.2504 0.28473 0.0
C1525 C 0.16904 0.23137 0.29991 0.0
C1526 C 0.16115 0.2934 0.22167 0.0
C1527 C 0.14125 0.30778 0.21927 0.0
C1528 C 0.16237 0.27656 0.23931 0.0
C1529 C 0.14379 0.27365 0.25522 0.0
C1530 C 0.12398 0.28828 0.25315 0.0
C1531 C 0.12278 0.30528 0.2354 0.0
H1532 H 0.68556 0.1082 0.23925 0.0
H1533 H 0.70751 0.17559 0.21272 0.0
H1534 H 0.71544 0.11091 0.27021 0.0
H1535 H 0.73757 0.17799 0.24283 0.0
H1536 H 0.77501 0.18744 0.31103 0.0
H1537 H 0.74201 0.18325 0.28432 0.0
H1538 H 0.75867 0.11002 0.2749 0.0
H1539 H 0.79165 0.11408 0.30223 0.0
C1540 C 0.69661 0.12363 0.24012 0.0
C1541 C 0.6942 0.14162 0.22344 0.0
C1542 C 0.71389 0.12508 0.25768 0.0
C1543 C 0.72894 0.14467 0.25905 0.0
C1544 C 0.72616 0.16277 0.24256 0.0
C1545 C 0.70905 0.16128 0.22507 0.0
C1546 C 0.77165 0.17037 0.30341 0.0
C1547 C 0.78622 0.15115 0.30864 0.0
C1548 C 0.75272 0.168 0.28798 0.0
C1549 C 0.74781 0.14637 0.27719 0.0
C1550 C 0.76185 0.1269 0.28299 0.0
C1551 C 0.78086 0.12927 0.29855 0.0
H1552 H 0.89696 0.79394 0.30059 0.0
H1553 H 0.82171 0.78323 0.29926 0.0
H1554 H 0.90181 0.76149 0.27293 0.0
H1555 H 0.82665 0.75092 0.27205 0.0
H1556 H 0.84082 0.71715 0.20176 0.0
H1557 H 0.83837 0.74812 0.23075 0.0
H1558 H 0.89632 0.71746 0.26887 0.0
H1559 H 0.89918 0.68642 0.2392 0.0
C1560 C 0.88149 0.78463 0.29454 0.0
C1561 C 0.85893 0.79135 0.302 0.0
C1562 C 0.8843 0.76596 0.27882 0.0
C1563 C 0.86459 0.7538 0.27017 0.0
C1564 C 0.84215 0.76019 0.2781 0.0
C1565 C 0.83935 0.77869 0.2938 0.0
C1566 C 0.85329 0.7171 0.21611 0.0
C1567 C 0.87033 0.69938 0.21807 0.0
C1568 C 0.85168 0.73472 0.23291 0.0
C1569 C 0.86705 0.73516 0.25218 0.0
C1570 C 0.8843 0.71761 0.25413 0.0
C1571 C 0.88582 0.69978 0.23729 0.0
H1572 H 0.33833 0.85313 0.24277 0.0
H1573 H 0.28573 0.87284 0.19179 0.0
H1574 H 0.30847 0.85326 0.27336 0.0
H1575 H 0.25594 0.87288 0.22228 0.0
H1576 H 0.20385 0.84869 0.27713 0.0
H1577 H 0.23477 0.84571 0.24775 0.0
H1578 H 0.28326 0.88028 0.29479 0.0
H1579 H 0.25256 0.88291 0.32428 0.0
C1580 C 0.32048 0.85774 0.2381 0.0
C1581 C 0.31447 0.8629 0.21476 0.0
C1582 C 0.30333 0.85773 0.25564 0.0
C1583 C 0.27976 0.86287 0.25025 0.0
C1584 C 0.27382 0.86833 0.22697 0.0
C1585 C 0.29095 0.86837 0.20947 0.0
C1586 C 0.22118 0.8554 0.28132 0.0
C1587 C 0.22566 0.86617 0.30302 0.0
C1588 C 0.23886 0.85387 0.2644 0.0
C1589 C 0.26144 0.86298 0.26881 0.0
C1590 C 0.26613 0.87294 0.29085 0.0
C1591 C 0.24846 0.87453 0.30774 0.0
H1592 H 0.1552 0.8072 0.71215 0.0
H1593 H 0.11834 0.75869 0.66701 0.0
H1594 H 0.15639 0.77761 0.7429 0.0
H1595 H 0.11868 0.72942 0.69799 0.0
H1596 H 0.14139 0.67432 0.75191 0.0
H1597 H 0.14185 0.70294 0.71998 0.0
H1598 H 0.13179 0.7588 0.77013 0.0
H1599 H 0.13203 0.7303 0.80175 0.0
C1600 C 0.14727 0.79025 0.70882 0.0
C1601 C 0.13664 0.78537 0.68711 0.0
C1602 C 0.14779 0.77328 0.72652 0.0
C1603 C 0.13746 0.75105 0.7231 0.0
C1604 C 0.12709 0.74614 0.70125 0.0
C1605 C 0.12679 0.76303 0.68347 0.0
C1606 C 0.13915 0.69272 0.75598 0.0
C1607 C 0.1369 0.70007 0.77933 0.0
C1608 C 0.13938 0.70916 0.73772 0.0
C1609 C 0.13708 0.73333 0.7424 0.0
C1610 C 0.13426 0.7405 0.76579 0.0
C1611 C 0.13429 0.72412 0.78398 0.0
H1612 H 0.20538 0.12063 0.71804 0.0
H1613 H 0.23117 0.18941 0.6993 0.0
H1614 H 0.23771 0.11643 0.74613 0.0
H1615 H 0.2635 0.18501 0.7271 0.0
H1616 H 0.33094 0.15778 0.76282 0.0
H1617 H 0.29998 0.15896 0.73295 0.0
H1618 H 0.24897 0.1377 0.78463 0.0
H1619 H 0.27992 0.13659 0.81445 0.0
C1620 C 0.21803 0.13475 0.71976 0.0
C1621 C 0.21565 0.1554 0.70652 0.0
C1622 C 0.23645 0.13237 0.7359 0.0
C1623 C 0.25308 0.1504 0.73877 0.0
C1624 C 0.25103 0.17077 0.72511 0.0
C1625 C 0.23243 0.17332 0.7093 0.0
C1626 C 0.31316 0.15316 0.7677 0.0
C1627 C 0.3078 0.14721 0.79096 0.0
C1628 C 0.29544 0.15397 0.75068 0.0
C1629 C 0.27209 0.14843 0.7565 0.0
C1630 C 0.26684 0.1419 0.77963 0.0
C1631 C 0.28449 0.14148 0.79672 0.0
H1632 H 0.85808 0.33684 0.75835 0.0
H1633 H 0.88323 0.28616 0.80869 0.0
H1634 H 0.85763 0.30652 0.72815 0.0
H1635 H 0.88252 0.2559 0.77865 0.0
H1636 H 0.85299 0.2025 0.72753 0.0
H1637 H 0.85222 0.23434 0.75605 0.0
H1638 H 0.88435 0.28071 0.70559 0.0
H1639 H 0.88491 0.24901 0.67696 0.0
C1640 C 0.86385 0.31936 0.76291 0.0
C1641 C 0.87051 0.31391 0.78602 0.0
C1642 C 0.86347 0.30195 0.74563 0.0
C1643 C 0.86968 0.27874 0.75112 0.0
C1644 C 0.87707 0.27349 0.77401 0.0
C1645 C 0.87754 0.29087 0.79122 0.0
C1646 C 0.85963 0.21955 0.7224 0.0
C1647 C 0.86915 0.22316 0.70001 0.0
C1648 C 0.85937 0.23773 0.73881 0.0
C1649 C 0.8685 0.25995 0.73315 0.0
C1650 C 0.87713 0.26382 0.71045 0.0
C1651 C 0.8775 0.24561 0.69408 0.0
H1652 H 0.71126 0.83139 0.7949 0.0
H1653 H 0.6929 0.90072 0.77086 0.0
H1654 H 0.74124 0.82868 0.76496 0.0
H1655 H 0.72264 0.89773 0.73995 0.0
H1656 H 0.79954 0.8928 0.71031 0.0
H1657 H 0.76565 0.89717 0.73622 0.0
H1658 H 0.74678 0.82483 0.7238 0.0
H1659 H 0.78079 0.82027 0.69866 0.0
C1660 C 0.71353 0.84602 0.78304 0.0
C1661 C 0.69984 0.86636 0.78541 0.0
C1662 C 0.73058 0.84437 0.76564 0.0
C1663 C 0.7344 0.86297 0.74996 0.0
C1664 C 0.7203 0.88316 0.75188 0.0
C1665 C 0.7031 0.88479 0.76939 0.0
C1666 C 0.78806 0.87789 0.71303 0.0
C1667 C 0.79311 0.85609 0.70269 0.0
C1668 C 0.76853 0.88044 0.72775 0.0
C1669 C 0.75361 0.86127 0.73233 0.0
C1670 C 0.75816 0.83982 0.72111 0.0
C1671 C 0.77768 0.83723 0.7066 0.0
H1672 H 0.19419 0.12537 0.2814 0.0
H1673 H 0.24563 0.14205 0.33468 0.0
H1674 H 0.22508 0.12485 0.25201 0.0
H1675 H 0.27656 0.14125 0.30525 0.0
H1676 H 0.32706 0.11199 0.24858 0.0
H1677 H 0.29718 0.11384 0.27906 0.0
H1678 H 0.25177 0.15272 0.23247 0.0
H1679 H 0.28152 0.15069 0.20187 0.0
C1680 C 0.21204 0.12901 0.28688 0.0
C1681 C 0.21731 0.13387 0.31048 0.0
C1682 C 0.22977 0.12875 0.26999 0.0
C1683 C 0.25326 0.13322 0.27624 0.0
C1684 C 0.25866 0.13756 0.29989 0.0
C1685 C 0.2409 0.13792 0.31679 0.0
C1686 C 0.3108 0.12113 0.24488 0.0
C1687 C 0.30666 0.13107 0.22272 0.0
C1688 C 0.29369 0.12224 0.2624 0.0
C1689 C 0.27201 0.13323 0.25812 0.0
C1690 C 0.26814 0.14378 0.23618 0.0
C1691 C 0.28529 0.14277 0.2187 0.0
H1692 H 0.85406 0.27681 0.19996 0.0
H1693 H 0.89317 0.32384 0.2449 0.0
H1694 H 0.85118 0.24867 0.23203 0.0
H1695 H 0.89055 0.29559 0.27677 0.0
H1696 H 0.86187 0.24679 0.3346 0.0
H1697 H 0.86286 0.27646 0.30377 0.0
H1698 H 0.87877 0.22283 0.25287 0.0
H1699 H 0.87797 0.19331 0.28358 0.0
C1700 C 0.86189 0.28123 0.2167 0.0
C1701 C 0.87398 0.30251 0.21981 0.0
C1702 C 0.8604 0.26503 0.23502 0.0
C1703 C 0.87085 0.2698 0.25687 0.0
C1704 C 0.8822 0.29144 0.26021 0.0
C1705 C 0.88378 0.30759 0.24188 0.0
C1706 C 0.86588 0.24138 0.3169 0.0
C1707 C 0.86968 0.21762 0.31157 0.0
C1708 C 0.86636 0.25837 0.29921 0.0
C1709 C 0.8706 0.25195 0.27582 0.0
C1710 C 0.87489 0.22828 0.27061 0.0
C1711 C 0.87448 0.21135 0.28826 0.0
H1712 H 0.67761 0.87487 0.25019 0.0
H1713 H 0.72909 0.84999 0.20056 0.0
H1714 H 0.70739 0.87525 0.2808 0.0
H1715 H 0.75884 0.8499 0.23143 0.0
H1716 H 0.81104 0.88231 0.28327 0.0
H1717 H 0.78039 0.87948 0.25354 0.0
H1718 H 0.73267 0.8512 0.30508 0.0
H1719 H 0.76338 0.85411 0.33483 0.0
C1720 C 0.6952 0.86911 0.24587 0.0
C1721 C 0.701 0.8626 0.22283 0.0
C1722 C 0.71228 0.86926 0.26349 0.0
C1723 C 0.73558 0.86288 0.25853 0.0
C1724 C 0.74115 0.85538 0.23572 0.0
C1725 C 0.72405 0.85521 0.21807 0.0
C1726 C 0.79402 0.87546 0.28825 0.0
C1727 C 0.7897 0.8684 0.31143 0.0
C1728 C 0.77648 0.87372 0.27118 0.0
C1729 C 0.75414 0.86485 0.27684 0.0
C1730 C 0.74962 0.85827 0.30015 0.0
C1731 C 0.7672 0.86004 0.31725 0.0
H1732 H 0.18959 0.72 0.20646 0.0
H1733 H 0.12007 0.69184 0.21764 0.0
H1734 H 0.18462 0.74615 0.23951 0.0
H1735 H 0.11548 0.71702 0.25191 0.0
H1736 H 0.10585 0.78398 0.29644 0.0
H1737 H 0.10925 0.75487 0.26517 0.0
H1738 H 0.18385 0.74937 0.27933 0.0
H1739 H 0.18027 0.77968 0.30921 0.0
C1740 C 0.17334 0.71916 0.21628 0.0
C1741 C 0.15525 0.70385 0.20947 0.0
C1742 C 0.17052 0.73405 0.23547 0.0
C1743 C 0.14972 0.73367 0.24881 0.0
C1744 C 0.13163 0.71815 0.24201 0.0
C1745 C 0.13428 0.70359 0.22242 0.0
C1746 C 0.12281 0.77615 0.29293 0.0
C1747 C 0.14282 0.7839 0.30505 0.0
C1748 C 0.12485 0.75944 0.27506 0.0
C1749 C 0.14693 0.74984 0.26928 0.0
C1750 C 0.16667 0.75679 0.28257 0.0
C1751 C 0.16467 0.77389 0.29995 0.0
H1752 H 0.2899 0.84586 0.80189 0.0
H1753 H 0.33148 0.88895 0.7555 0.0
H1754 H 0.26031 0.84123 0.77124 0.0
H1755 H 0.30167 0.88491 0.72519 0.0
H1756 H 0.25211 0.85961 0.66837 0.0
H1757 H 0.28309 0.85918 0.69795 0.0
H1758 H 0.23068 0.8642 0.75235 0.0
H1759 H 0.1998 0.86428 0.72277 0.0
C1760 C 0.29281 0.85425 0.78512 0.0
C1761 C 0.31305 0.86786 0.78122 0.0
C1762 C 0.27573 0.85174 0.76759 0.0
C1763 C 0.27843 0.86285 0.74573 0.0
C1764 C 0.29905 0.87586 0.74165 0.0
C1765 C 0.31616 0.87827 0.75913 0.0
C1766 C 0.24722 0.86067 0.68664 0.0
C1767 C 0.22345 0.86206 0.69315 0.0
C1768 C 0.26499 0.86044 0.70363 0.0
C1769 C 0.25947 0.86172 0.72762 0.0
C1770 C 0.23565 0.86278 0.73411 0.0
C1771 C 0.21788 0.86289 0.71711 0.0
H1772 H 0.12047 0.33386 0.75708 0.0
H1773 H 0.15447 0.28676 0.80578 0.0
H1774 H 0.12098 0.30344 0.72721 0.0
H1775 H 0.15536 0.25642 0.77566 0.0
H1776 H 0.12577 0.19993 0.72669 0.0
H1777 H 0.127 0.23116 0.75576 0.0
H1778 H 0.14649 0.28067 0.70194 0.0
H1779 H 0.14527 0.24942 0.67287 0.0
C1780 C 0.12836 0.31712 0.76134 0.0
C1781 C 0.13729 0.31272 0.78391 0.0
C1782 C 0.12871 0.29968 0.74415 0.0
C1783 C 0.138 0.2774 0.74909 0.0
C1784 C 0.14767 0.27326 0.77142 0.0
C1785 C 0.14735 0.29072 0.78862 0.0
C1786 C 0.13039 0.21744 0.72105 0.0
C1787 C 0.13544 0.2221 0.69741 0.0
C1788 C 0.13119 0.23535 0.73774 0.0
C1789 C 0.13704 0.2584 0.73123 0.0
C1790 C 0.1417 0.26316 0.70753 0.0
C1791 C 0.1409 0.24524 0.69082 0.0
H1792 H 0.71362 0.1528 0.80807 0.0
H1793 H 0.67293 0.11044 0.76006 0.0
H1794 H 0.74468 0.1562 0.77896 0.0
H1795 H 0.70426 0.11319 0.73124 0.0
H1796 H 0.75631 0.14025 0.67647 0.0
H1797 H 0.72408 0.13876 0.70469 0.0
H1798 H 0.77447 0.13315 0.76119 0.0
H1799 H 0.80639 0.13505 0.7331 0.0
C1800 C 0.71133 0.14413 0.79134 0.0
C1801 C 0.6908 0.13129 0.78645 0.0
C1802 C 0.72921 0.14596 0.77466 0.0
C1803 C 0.7271 0.13486 0.75271 0.0
C1804 C 0.70641 0.12224 0.74777 0.0
C1805 C 0.68847 0.12054 0.76439 0.0
C1806 C 0.76041 0.13861 0.69491 0.0
C1807 C 0.7839 0.13798 0.70252 0.0
C1808 C 0.74197 0.13773 0.71112 0.0
C1809 C 0.74661 0.13599 0.73531 0.0
C1810 C 0.77015 0.13506 0.74281 0.0
C1811 C 0.78852 0.13611 0.72665 0.0
H1812 H 0.89438 0.70373 0.79492 0.0
H1813 H 0.81918 0.71073 0.78629 0.0
H1814 H 0.90051 0.7312 0.76254 0.0
H1815 H 0.82539 0.73781 0.75405 0.0
H1816 H 0.8448 0.80824 0.7228 0.0
H1817 H 0.84098 0.77849 0.75282 0.0
H1818 H 0.89349 0.73637 0.71825 0.0
H1819 H 0.89771 0.76678 0.688 0.0
C1820 C 0.87918 0.71097 0.78605 0.0
C1821 C 0.85628 0.70523 0.79338 0.0
C1822 C 0.88272 0.72655 0.76743 0.0
C1823 C 0.86343 0.73677 0.75594 0.0
C1824 C 0.84059 0.73046 0.76282 0.0
C1825 C 0.83705 0.71487 0.78128 0.0
C1826 C 0.85584 0.79286 0.72168 0.0
C1827 C 0.87175 0.78997 0.7031 0.0
C1828 C 0.8534 0.77564 0.73876 0.0
C1829 C 0.8668 0.75504 0.73779 0.0
C1830 C 0.88299 0.75214 0.71943 0.0
C1831 C 0.8853 0.76942 0.7021 0.0
H1832 H 0.27866 0.19765 0.1383 0.0
H1833 H 0.33652 0.24532 0.14974 0.0
H1834 H 0.25119 0.23005 0.13991 0.0
H1835 H 0.30881 0.27814 0.15168 0.0
H1836 H 0.25268 0.33122 0.12484 0.0
H1837 H 0.28238 0.30069 0.12749 0.0
H1838 H 0.23408 0.25733 0.16664 0.0
H1839 H 0.20408 0.28761 0.16335 0.0
C1840 C 0.28549 0.21508 0.14148 0.0
C1841 C 0.30975 0.2189 0.14414 0.0
C1842 C 0.2697 0.2337 0.1425 0.0
C1843 C 0.2777 0.25671 0.1463 0.0
C1844 C 0.30205 0.26064 0.14863 0.0
C1845 C 0.31793 0.24191 0.14749 0.0
C1846 C 0.24846 0.31529 0.13428 0.0
C1847 C 0.22587 0.31172 0.14361 0.0
C1848 C 0.26558 0.29781 0.13588 0.0
C1849 C 0.26055 0.27639 0.14698 0.0
C1850 C 0.23837 0.27339 0.15746 0.0
C1851 C 0.2212 0.29081 0.15572 0.0
H1852 H 0.20415 0.7222 0.83965 0.0
H1853 H 0.24935 0.67697 0.8804 0.0
H1854 H 0.23522 0.75166 0.83834 0.0
H1855 H 0.28007 0.70665 0.87971 0.0
H1856 H 0.33729 0.76024 0.86016 0.0
H1857 H 0.30847 0.72835 0.85724 0.0
H1858 H 0.25223 0.77847 0.86569 0.0
H1859 H 0.28083 0.80996 0.86826 0.0
C1860 C 0.22076 0.71845 0.84817 0.0
C1861 C 0.22414 0.69729 0.8603 0.0
C1862 C 0.23854 0.73543 0.8476 0.0
C1863 C 0.26008 0.73173 0.85925 0.0
C1864 C 0.26381 0.7101 0.87044 0.0
C1865 C 0.24609 0.69308 0.87091 0.0
C1866 C 0.31876 0.7643 0.86153 0.0
C1867 C 0.31134 0.78762 0.86417 0.0
C1868 C 0.30223 0.74609 0.85981 0.0
C1869 C 0.27795 0.75084 0.86086 0.0
C1870 C 0.27069 0.77416 0.86409 0.0
C1871 C 0.28713 0.79226 0.86567 0.0
H1872 H 0.33305 0.25448 0.88861 0.0
H1873 H 0.28451 0.2016 0.86389 0.0
H1874 H 0.30262 0.2841 0.88495 0.0
H1875 H 0.25376 0.23129 0.86074 0.0
H1876 H 0.23577 0.3259 0.90045 0.0
H1877 H 0.26668 0.29645 0.903 0.0
H1878 H 0.24207 0.26532 0.83845 0.0
H1879 H 0.21112 0.29467 0.83603 0.0
C1880 C 0.31584 0.24911 0.88245 0.0
C1881 C 0.31126 0.22558 0.87659 0.0
C1882 C 0.2983 0.26614 0.8805 0.0
C1883 C 0.27563 0.26015 0.87267 0.0
C1884 C 0.27107 0.23663 0.8666 0.0
C1885 C 0.28868 0.21955 0.86853 0.0
C1886 C 0.23711 0.31296 0.88667 0.0
C1887 C 0.22086 0.31266 0.86809 0.0
C1888 C 0.25485 0.29601 0.88812 0.0
C1889 C 0.25687 0.27837 0.87098 0.0
C1890 C 0.24081 0.27831 0.85222 0.0
C1891 C 0.22306 0.29521 0.8508 0.0
H1892 H 0.715 0.2011 0.83212 0.0
H1893 H 0.68562 0.23812 0.89114 0.0
H1894 H 0.74643 0.2299 0.82963 0.0
H1895 H 0.71681 0.26751 0.88816 0.0
H1896 H 0.79166 0.30048 0.88981 0.0
H1897 H 0.75975 0.27197 0.89378 0.0
H1898 H 0.75126 0.27077 0.81861 0.0
H1899 H 0.78317 0.29879 0.81456 0.0
C1900 C 0.71527 0.21534 0.84463 0.0
C1901 C 0.69777 0.21723 0.86187 0.0
C1902 C 0.73317 0.23203 0.84304 0.0
C1903 C 0.7341 0.25109 0.85864 0.0
C1904 C 0.7167 0.25295 0.87598 0.0
C1905 C 0.69868 0.23626 0.87753 0.0
C1906 C 0.78295 0.29414 0.87414 0.0
C1907 C 0.79009 0.30186 0.85186 0.0
C1908 C 0.76458 0.27791 0.87643 0.0
C1909 C 0.75305 0.26898 0.8565 0.0
C1910 C 0.76001 0.27698 0.8343 0.0
C1911 C 0.77826 0.2932 0.83201 0.0
H1912 H 0.72529 0.80775 0.85229 0.0
H1913 H 0.67638 0.76023 0.88545 0.0
H1914 H 0.75496 0.77693 0.8519 0.0
H1915 H 0.70616 0.72961 0.88539 0.0
H1916 H 0.75965 0.67402 0.86201 0.0
H1917 H 0.72896 0.7037 0.86035 0.0
H1918 H 0.77937 0.75662 0.88073 0.0
H1919 H 0.81005 0.72694 0.88249 0.0
C1920 C 0.72077 0.79069 0.85931 0.0
C1921 C 0.69846 0.78654 0.86902 0.0
C1922 C 0.73787 0.77308 0.85928 0.0
C1923 C 0.73306 0.75087 0.86888 0.0
C1924 C 0.71045 0.74645 0.87775 0.0
C1925 C 0.69337 0.76407 0.87783 0.0
C1926 C 0.76416 0.69189 0.86649 0.0
C1927 C 0.78741 0.69803 0.87236 0.0
C1928 C 0.74654 0.70896 0.86543 0.0
C1929 C 0.75171 0.7326 0.8702 0.0
C1930 C 0.77486 0.73867 0.87646 0.0
C1931 C 0.79246 0.72161 0.87755 0.0
H1932 H 0.69421 0.76796 0.10631 0.0
H1933 H 0.71569 0.7931 0.17439 0.0
H1934 H 0.72235 0.73556 0.10967 0.0
H1935 H 0.74403 0.76154 0.17745 0.0
H1936 H 0.77856 0.69221 0.18738 0.0
H1937 H 0.74635 0.7197 0.18245 0.0
H1938 H 0.76538 0.72936 0.10991 0.0
H1939 H 0.79749 0.7013 0.11468 0.0
C1940 C 0.7048 0.76649 0.12202 0.0
C1941 C 0.70282 0.78321 0.14 0.0
C1942 C 0.72107 0.74809 0.12386 0.0
C1943 C 0.73546 0.74591 0.14384 0.0
C1944 C 0.73307 0.76243 0.16194 0.0
C1945 C 0.71698 0.78077 0.16006 0.0
C1946 C 0.77582 0.69999 0.17028 0.0
C1947 C 0.79083 0.6947 0.1515 0.0
C1948 C 0.75736 0.71587 0.16749 0.0
C1949 C 0.75344 0.72701 0.14587 0.0
C1950 C 0.76781 0.72101 0.12677 0.0
C1951 C 0.78631 0.70502 0.12955 0.0
H1952 H 0.20116 0.72159 0.11352 0.0
H1953 H 0.24887 0.67107 0.14361 0.0
H1954 H 0.23179 0.75163 0.11571 0.0
H1955 H 0.27958 0.70096 0.1455 0.0
H1956 H 0.31202 0.76888 0.17703 0.0
H1957 H 0.28439 0.73699 0.16999 0.0
H1958 H 0.27163 0.76305 0.10013 0.0
H1959 H 0.29939 0.79512 0.10712 0.0
C1960 C 0.21827 0.71685 0.12034 0.0
C1961 C 0.22254 0.69399 0.1285 0.0
C1962 C 0.23587 0.73399 0.12143 0.0
C1963 C 0.25805 0.72869 0.13092 0.0
C1964 C 0.26258 0.70562 0.13831 0.0
C1965 C 0.24507 0.68843 0.137 0.0
C1966 C 0.30347 0.76779 0.1601 0.0
C1967 C 0.30787 0.78464 0.14268 0.0
C1968 C 0.28774 0.74939 0.15602 0.0
C1969 C 0.27585 0.74748 0.1345 0.0
C1970 C 0.28042 0.76415 0.11694 0.0
C1971 C 0.29639 0.78245 0.12093 0.0
H1972 H 0.67318 0.24709 0.11968 0.0
H1973 H 0.71457 0.20109 0.16348 0.0
H1974 H 0.70414 0.27661 0.1216 0.0
H1975 H 0.74524 0.23083 0.16588 0.0
H1976 H 0.80684 0.27308 0.13761 0.0
H1977 H 0.77398 0.24606 0.13917 0.0
H1978 H 0.72602 0.30434 0.14559 0.0
H1979 H 0.75929 0.33163 0.14389 0.0
C1980 C 0.6887 0.24341 0.13006 0.0
C1981 C 0.6915 0.22158 0.14119 0.0
C1982 C 0.70643 0.26041 0.13123 0.0
C1983 C 0.72735 0.25601 0.14363 0.0
C1984 C 0.7296 0.23462 0.15572 0.0
C1985 C 0.71193 0.21759 0.15447 0.0
C1986 C 0.78936 0.28021 0.13966 0.0
C1987 C 0.78575 0.30456 0.1409 0.0
C1988 C 0.77045 0.26465 0.1406 0.0
C1989 C 0.74732 0.27295 0.14285 0.0
C1990 C 0.7436 0.29734 0.14375 0.0
C1991 C 0.76262 0.31299 0.14275 0.0
loop_
_geom_bond_atom_site_label_1
_geom_bond_atom_site_label_2
_geom_bond_distance
_geom_bond_site_symmetry_2
_ccdc_geom_bond_type
Co0 N4 2.148 . S
Co0 N10 2.128 . S
Co0 N20 2.194 . S
Co0 O25 2.351 . S
Co0 O26 2.155 . S
Co0 O27 2.096 . S
C1 N4 1.301 . S
C1 N5 1.328 . S
C1 H6 0.930 . S
C2 C3 1.333 . S
C2 N4 1.317 . S
C2 H7 0.930 . S
C3 C2 1.333 . S
C3 N5 1.350 . S
C3 H29 0.931 . S
N4 Co0 2.148 . S
N4 C1 1.301 . S
N4 C2 1.317 . S
N5 C1 1.328 . S
N5 C3 1.350 . S
H6 C1 0.930 . S
H7 C2 0.930 . S
C8 O9 1.224 . S
C8 O27 1.247 . S
O9 C8 1.224 . S
N10 Co0 2.128 . S
N10 C11 1.355 . S
N10 C13 1.311 . S
C11 N10 1.355 . S
C11 C12 1.363 . S
C11 H23 0.929 . S
C12 C11 1.363 . S
C12 N14 1.375 . S
C12 H30 0.931 . S
C13 N10 1.311 . S
C13 N14 1.347 . S
C13 H24 0.929 . S
N14 C12 1.375 . S
N14 C13 1.347 . S
C15 C18 1.365 . S
C15 N20 1.328 . S
C15 H21 0.929 . S
C16 C17 1.362 . S
C16 C19 1.378 . S
C16 H31 0.929 . S
C17 C16 1.362 . S
C17 C18 1.366 . S
C18 C15 1.365 . S
C18 C17 1.366 . S
C18 H32 0.930 . S
C19 C16 1.378 . S
C19 N20 1.315 . S
C19 H22 0.930 . S
N20 Co0 2.194 . S
N20 C15 1.328 . S
N20 C19 1.315 . S
H21 C15 0.929 . S
H22 C19 0.930 . S
H23 C11 0.929 . S
H24 C13 0.929 . S
O25 Co0 2.351 . S
O25 C28 1.244 . S
O26 Co0 2.155 . S
O26 C28 1.240 . S
O27 Co0 2.096 . S
O27 C8 1.247 . S
C28 O25 1.244 . S
C28 O26 1.240 . S
H29 C3 0.931 . S
H30 C12 0.931 . S
H31 C16 0.929 . S
H32 C18 0.930 . S
Co33 N37 2.148 . S
Co33 N43 2.128 . S
Co33 N53 2.194 . S
Co33 O58 2.351 . S
Co33 O59 2.155 . S
Co33 O60 2.096 . S
C34 N37 1.301 . S
C34 N38 1.328 . S
C34 H39 0.930 . S
C35 C36 1.333 . S
C35 N37 1.317 . S
C35 H40 0.930 . S
C36 C35 1.333 . S
C36 N38 1.350 . S
C36 H62 0.931 . S
N37 Co33 2.148 . S
N37 C34 1.301 . S
N37 C35 1.317 . S
N38 C34 1.328 . S
N38 C36 1.350 . S
H39 C34 0.930 . S
H40 C35 0.930 . S
C41 O42 1.224 . S
C41 O60 1.247 . S
O42 C41 1.224 . S
N43 Co33 2.128 . S
N43 C44 1.355 . S
N43 C46 1.311 . S
C44 N43 1.355 . S
C44 C45 1.363 . S
C44 H56 0.929 . S
C45 C44 1.363 . S
C45 N47 1.375 . S
C45 H63 0.931 . S
C46 N43 1.311 . S
C46 N47 1.347 . S
C46 H57 0.929 . S
N47 C45 1.375 . S
N47 C46 1.347 . S
C48 C51 1.365 . S
C48 N53 1.328 . S
C48 H54 0.929 . S
C49 C50 1.362 . S
C49 C52 1.378 . S
C49 H64 0.929 . S
C50 C49 1.362 . S
C50 C51 1.366 . S
C51 C48 1.365 . S
C51 C50 1.366 . S
C51 H65 0.930 . S
C52 C49 1.378 . S
C52 N53 1.315 . S
C52 H55 0.930 . S
N53 Co33 2.194 . S
N53 C48 1.328 . S
N53 C52 1.315 . S
H54 C48 0.929 . S
H55 C52 0.930 . S
H56 C44 0.929 . S
H57 C46 0.929 . S
O58 Co33 2.351 . S
O58 C61 1.244 . S
O59 Co33 2.155 . S
O59 C61 1.240 . S
O60 Co33 2.096 . S
O60 C41 1.247 . S
C61 O58 1.244 . S
C61 O59 1.240 . S
H62 C36 0.931 . S
H63 C45 0.931 . S
H64 C49 0.929 . S
H65 C51 0.930 . S
Co66 N70 2.148 . S
Co66 N76 2.128 . S
Co66 N86 2.194 . S
Co66 O91 2.351 . S
Co66 O92 2.155 . S
Co66 O93 2.096 . S
C67 N70 1.301 . S
C67 N71 1.328 . S
C67 H72 0.930 . S
C68 C69 1.333 . S
C68 N70 1.317 . S
C68 H73 0.930 . S
C69 C68 1.333 . S
C69 N71 1.350 . S
C69 H95 0.931 . S
N70 Co66 2.148 . S
N70 C67 1.301 . S
N70 C68 1.317 . S
N71 C67 1.328 . S
N71 C69 1.350 . S
H72 C67 0.930 . S
H73 C68 0.930 . S
C74 O75 1.224 . S
C74 O93 1.247 . S
O75 C74 1.224 . S
N76 Co66 2.128 . S
N76 C77 1.355 . S
N76 C79 1.311 . S
C77 N76 1.355 . S
C77 C78 1.363 . S
C77 H89 0.929 . S
C78 C77 1.363 . S
C78 N80 1.375 . S
C78 H96 0.931 . S
C79 N76 1.311 . S
C79 N80 1.347 . S
C79 H90 0.929 . S
N80 C78 1.375 . S
N80 C79 1.347 . S
C81 C84 1.365 . S
C81 N86 1.328 . S
C81 H87 0.929 . S
C82 C83 1.362 . S
C82 C85 1.378 . S
C82 H97 0.929 . S
C83 C82 1.362 . S
C83 C84 1.366 . S
C84 C81 1.365 . S
C84 C83 1.366 . S
C84 H98 0.930 . S
C85 C82 1.378 . S
C85 N86 1.315 . S
C85 H88 0.930 . S
N86 Co66 2.194 . S
N86 C81 1.328 . S
N86 C85 1.315 . S
H87 C81 0.929 . S
H88 C85 0.930 . S
H89 C77 0.929 . S
H90 C79 0.929 . S
O91 Co66 2.351 . S
O91 C94 1.244 . S
O92 Co66 2.155 . S
O92 C94 1.240 . S
O93 Co66 2.096 . S
O93 C74 1.247 . S
C94 O91 1.244 . S
C94 O92 1.240 . S
H95 C69 0.931 . S
H96 C78 0.931 . S
H97 C82 0.929 . S
H98 C84 0.930 . S
Co99 N103 2.148 . S
Co99 N109 2.128 . S
Co99 N119 2.194 . S
Co99 O124 2.351 . S
Co99 O125 2.155 . S
Co99 O126 2.096 . S
C100 N103 1.301 . S
C100 N104 1.328 . S
C100 H105 0.930 . S
C101 C102 1.333 . S
C101 N103 1.317 . S
C101 H106 0.930 . S
C102 C101 1.333 . S
C102 N104 1.350 . S
C102 H128 0.931 . S
N103 Co99 2.148 . S
N103 C100 1.301 . S
N103 C101 1.317 . S
N104 C100 1.328 . S
N104 C102 1.350 . S
H105 C100 0.930 . S
H106 C101 0.930 . S
C107 O108 1.224 . S
C107 O126 1.247 . S
O108 C107 1.224 . S
N109 Co99 2.128 . S
N109 C110 1.355 . S
N109 C112 1.311 . S
C110 N109 1.355 . S
C110 C111 1.363 . S
C110 H122 0.929 . S
C111 C110 1.363 . S
C111 N113 1.375 . S
C111 H129 0.931 . S
C112 N109 1.311 . S
C112 N113 1.347 . S
C112 H123 0.929 . S
N113 C111 1.375 . S
N113 C112 1.347 . S
C114 C117 1.365 . S
C114 N119 1.328 . S
C114 H120 0.929 . S
C115 C116 1.362 . S
C115 C118 1.378 . S
C115 H130 0.929 . S
C116 C115 1.362 . S
C116 C117 1.366 . S
C117 C114 1.365 . S
C117 C116 1.366 . S
C117 H131 0.930 . S
C118 C115 1.378 . S
C118 N119 1.315 . S
C118 H121 0.930 . S
N119 Co99 2.194 . S
N119 C114 1.328 . S
N119 C118 1.315 . S
H120 C114 0.929 . S
H121 C118 0.930 . S
H122 C110 0.929 . S
H123 C112 0.929 . S
O124 Co99 2.351 . S
O124 C127 1.244 . S
O125 Co99 2.155 . S
O125 C127 1.240 . S
O126 Co99 2.096 . S
O126 C107 1.247 . S
C127 O124 1.244 . S
C127 O125 1.240 . S
H128 C102 0.931 . S
H129 C111 0.931 . S
H130 C115 0.929 . S
H131 C117 0.930 . S
Co132 N136 2.148 . S
Co132 N142 2.128 . S
Co132 N152 2.194 . S
Co132 O157 2.351 . S
Co132 O158 2.155 . S
Co132 O159 2.096 . S
C133 N136 1.301 . S
C133 N137 1.328 . S
C133 H138 0.930 . S
C134 C135 1.333 . S
C134 N136 1.317 . S
C134 H139 0.930 . S
C135 C134 1.333 . S
C135 N137 1.350 . S
C135 H161 0.931 . S
N136 Co132 2.148 . S
N136 C133 1.301 . S
N136 C134 1.317 . S
N137 C133 1.328 . S
N137 C135 1.350 . S
H138 C133 0.930 . S
H139 C134 0.930 . S
C140 O141 1.224 . S
C140 O159 1.247 . S
O141 C140 1.224 . S
N142 Co132 2.128 . S
N142 C143 1.355 . S
N142 C145 1.311 . S
C143 N142 1.355 . S
C143 C144 1.363 . S
C143 H155 0.929 . S
C144 C143 1.363 . S
C144 N146 1.375 . S
C144 H162 0.931 . S
C145 N142 1.311 . S
C145 N146 1.347 . S
C145 H156 0.929 . S
N146 C144 1.375 . S
N146 C145 1.347 . S
C147 C150 1.365 . S
C147 N152 1.328 . S
C147 H153 0.929 . S
C148 C149 1.362 . S
C148 C151 1.378 . S
C148 H163 0.929 . S
C149 C148 1.362 . S
C149 C150 1.366 . S
C150 C147 1.365 . S
C150 C149 1.366 . S
C150 H164 0.930 . S
C151 C148 1.378 . S
C151 N152 1.315 . S
C151 H154 0.930 . S
N152 Co132 2.194 . S
N152 C147 1.328 . S
N152 C151 1.315 . S
H153 C147 0.929 . S
H154 C151 0.930 . S
H155 C143 0.929 . S
H156 C145 0.929 . S
O157 Co132 2.351 . S
O157 C160 1.244 . S
O158 Co132 2.155 . S
O158 C160 1.240 . S
O159 Co132 2.096 . S
O159 C140 1.247 . S
C160 O157 1.244 . S
C160 O158 1.240 . S
H161 C135 0.931 . S
H162 C144 0.931 . S
H163 C148 0.929 . S
H164 C150 0.930 . S
Co165 N169 2.148 . S
Co165 N175 2.128 . S
Co165 N185 2.194 . S
Co165 O190 2.351 . S
Co165 O191 2.155 . S
Co165 O192 2.096 . S
C166 N169 1.301 . S
C166 N170 1.328 . S
C166 H171 0.930 . S
C167 C168 1.333 . S
C167 N169 1.317 . S
C167 H172 0.930 . S
C168 C167 1.333 . S
C168 N170 1.350 . S
C168 H194 0.931 . S
N169 Co165 2.148 . S
N169 C166 1.301 . S
N169 C167 1.317 . S
N170 C166 1.328 . S
N170 C168 1.350 . S
H171 C166 0.930 . S
H172 C167 0.930 . S
C173 O174 1.224 . S
C173 O192 1.247 . S
O174 C173 1.224 . S
N175 Co165 2.128 . S
N175 C176 1.355 . S
N175 C178 1.311 . S
C176 N175 1.355 . S
C176 C177 1.363 . S
C176 H188 0.929 . S
C177 C176 1.363 . S
C177 N179 1.375 . S
C177 H195 0.931 . S
C178 N175 1.311 . S
C178 N179 1.347 . S
C178 H189 0.929 . S
N179 C177 1.375 . S
N179 C178 1.347 . S
C180 C183 1.365 . S
C180 N185 1.328 . S
C180 H186 0.929 . S
C181 C182 1.362 . S
C181 C184 1.378 . S
C181 H196 0.929 . S
C182 C181 1.362 . S
C182 C183 1.366 . S
C183 C180 1.365 . S
C183 C182 1.366 . S
C183 H197 0.930 . S
C184 C181 1.378 . S
C184 N185 1.315 . S
C184 H187 0.930 . S
N185 Co165 2.194 . S
N185 C180 1.328 . S
N185 C184 1.315 . S
H186 C180 0.929 . S
H187 C184 0.930 . S
H188 C176 0.929 . S
H189 C178 0.929 . S
O190 Co165 2.351 . S
O190 C193 1.244 . S
O191 Co165 2.155 . S
O191 C193 1.240 . S
O192 Co165 2.096 . S
O192 C173 1.247 . S
C193 O190 1.244 . S
C193 O191 1.240 . S
H194 C168 0.931 . S
H195 C177 0.931 . S
H196 C181 0.929 . S
H197 C183 0.930 . S
Co198 N202 2.148 . S
Co198 N208 2.128 . S
Co198 N218 2.194 . S
Co198 O223 2.351 . S
Co198 O224 2.155 . S
Co198 O225 2.096 . S
C199 N202 1.301 . S
C199 N203 1.328 . S
C199 H204 0.930 . S
C200 C201 1.333 . S
C200 N202 1.317 . S
C200 H205 0.930 . S
C201 C200 1.333 . S
C201 N203 1.350 . S
C201 H227 0.931 . S
N202 Co198 2.148 . S
N202 C199 1.301 . S
N202 C200 1.317 . S
N203 C199 1.328 . S
N203 C201 1.350 . S
H204 C199 0.930 . S
H205 C200 0.930 . S
C206 O207 1.224 . S
C206 O225 1.247 . S
O207 C206 1.224 . S
N208 Co198 2.128 . S
N208 C209 1.355 . S
N208 C211 1.311 . S
C209 N208 1.355 . S
C209 C210 1.363 . S
C209 H221 0.929 . S
C210 C209 1.363 . S
C210 N212 1.375 . S
C210 H228 0.931 . S
C211 N208 1.311 . S
C211 N212 1.347 . S
C211 H222 0.929 . S
N212 C210 1.375 . S
N212 C211 1.347 . S
C213 C216 1.365 . S
C213 N218 1.328 . S
C213 H219 0.929 . S
C214 C215 1.362 . S
C214 C217 1.378 . S
C214 H229 0.929 . S
C215 C214 1.362 . S
C215 C216 1.366 . S
C216 C213 1.365 . S
C216 C215 1.366 . S
C216 H230 0.930 . S
C217 C214 1.378 . S
C217 N218 1.315 . S
C217 H220 0.930 . S
N218 Co198 2.194 . S
N218 C213 1.328 . S
N218 C217 1.315 . S
H219 C213 0.929 . S
H220 C217 0.930 . S
H221 C209 0.929 . S
H222 C211 0.929 . S
O223 Co198 2.351 . S
O223 C226 1.244 . S
O224 Co198 2.155 . S
O224 C226 1.240 . S
O225 Co198 2.096 . S
O225 C206 1.247 . S
C226 O223 1.244 . S
C226 O224 1.240 . S
H227 C201 0.931 . S
H228 C210 0.931 . S
H229 C214 0.929 . S
H230 C216 0.930 . S
Co231 N235 2.148 . S
Co231 N241 2.128 . S
Co231 N251 2.194 . S
Co231 O256 2.351 . S
Co231 O257 2.155 . S
Co231 O258 2.096 . S
C232 N235 1.301 . S
C232 N236 1.328 . S
C232 H237 0.930 . S
C233 C234 1.333 . S
C233 N235 1.317 . S
C233 H238 0.930 . S
C234 C233 1.333 . S
C234 N236 1.350 . S
C234 H260 0.931 . S
N235 Co231 2.148 . S
N235 C232 1.301 . S
N235 C233 1.317 . S
N236 C232 1.328 . S
N236 C234 1.350 . S
H237 C232 0.930 . S
H238 C233 0.930 . S
C239 O240 1.224 . S
C239 O258 1.247 . S
O240 C239 1.224 . S
N241 Co231 2.128 . S
N241 C242 1.355 . S
N241 C244 1.311 . S
C242 N241 1.355 . S
C242 C243 1.363 . S
C242 H254 0.929 . S
C243 C242 1.363 . S
C243 N245 1.375 . S
C243 H261 0.931 . S
C244 N241 1.311 . S
C244 N245 1.347 . S
C244 H255 0.929 . S
N245 C243 1.375 . S
N245 C244 1.347 . S
C246 C249 1.365 . S
C246 N251 1.328 . S
C246 H252 0.929 . S
C247 C248 1.362 . S
C247 C250 1.378 . S
C247 H262 0.929 . S
C248 C247 1.362 . S
C248 C249 1.366 . S
C249 C246 1.365 . S
C249 C248 1.366 . S
C249 H263 0.930 . S
C250 C247 1.378 . S
C250 N251 1.315 . S
C250 H253 0.930 . S
N251 Co231 2.194 . S
N251 C246 1.328 . S
N251 C250 1.315 . S
H252 C246 0.929 . S
H253 C250 0.930 . S
H254 C242 0.929 . S
H255 C244 0.929 . S
O256 Co231 2.351 . S
O256 C259 1.244 . S
O257 Co231 2.155 . S
O257 C259 1.240 . S
O258 Co231 2.096 . S
O258 C239 1.247 . S
C259 O256 1.244 . S
C259 O257 1.240 . S
H260 C234 0.931 . S
H261 C243 0.931 . S
H262 C247 0.929 . S
H263 C249 0.930 . S
Co264 N268 2.148 . S
Co264 N274 2.128 . S
Co264 N284 2.194 . S
Co264 O289 2.351 . S
Co264 O290 2.155 . S
Co264 O291 2.096 . S
C265 N268 1.301 . S
C265 N269 1.328 . S
C265 H270 0.930 . S
C266 C267 1.333 . S
C266 N268 1.317 . S
C266 H271 0.930 . S
C267 C266 1.333 . S
C267 N269 1.350 . S
C267 H293 0.931 . S
N268 Co264 2.148 . S
N268 C265 1.301 . S
N268 C266 1.317 . S
N269 C265 1.328 . S
N269 C267 1.350 . S
H270 C265 0.930 . S
H271 C266 0.930 . S
C272 O273 1.224 . S
C272 O291 1.247 . S
O273 C272 1.224 . S
N274 Co264 2.128 . S
N274 C275 1.355 . S
N274 C277 1.311 . S
C275 N274 1.355 . S
C275 C276 1.363 . S
C275 H287 0.929 . S
C276 C275 1.363 . S
C276 N278 1.375 . S
C276 H294 0.931 . S
C277 N274 1.311 . S
C277 N278 1.347 . S
C277 H288 0.929 . S
N278 C276 1.375 . S
N278 C277 1.347 . S
C279 C282 1.365 . S
C279 N284 1.328 . S
C279 H285 0.929 . S
C280 C281 1.362 . S
C280 C283 1.378 . S
C280 H295 0.929 . S
C281 C280 1.362 . S
C281 C282 1.366 . S
C282 C279 1.365 . S
C282 C281 1.366 . S
C282 H296 0.930 . S
C283 C280 1.378 . S
C283 N284 1.315 . S
C283 H286 0.930 . S
N284 Co264 2.194 . S
N284 C279 1.328 . S
N284 C283 1.315 . S
H285 C279 0.929 . S
H286 C283 0.930 . S
H287 C275 0.929 . S
H288 C277 0.929 . S
O289 Co264 2.351 . S
O289 C292 1.244 . S
O290 Co264 2.155 . S
O290 C292 1.240 . S
O291 Co264 2.096 . S
O291 C272 1.247 . S
C292 O289 1.244 . S
C292 O290 1.240 . S
H293 C267 0.931 . S
H294 C276 0.931 . S
H295 C280 0.929 . S
H296 C282 0.930 . S
Co297 N301 2.148 . S
Co297 N307 2.128 . S
Co297 N317 2.194 . S
Co297 O322 2.351 . S
Co297 O323 2.155 . S
Co297 O324 2.096 . S
C298 N301 1.301 . S
C298 N302 1.328 . S
C298 H303 0.930 . S
C299 C300 1.333 . S
C299 N301 1.317 . S
C299 H304 0.930 . S
C300 C299 1.333 . S
C300 N302 1.350 . S
C300 H326 0.931 . S
N301 Co297 2.148 . S
N301 C298 1.301 . S
N301 C299 1.317 . S
N302 C298 1.328 . S
N302 C300 1.350 . S
H303 C298 0.930 . S
H304 C299 0.930 . S
C305 O306 1.224 . S
C305 O324 1.247 . S
O306 C305 1.224 . S
N307 Co297 2.128 . S
N307 C308 1.355 . S
N307 C310 1.311 . S
C308 N307 1.355 . S
C308 C309 1.363 . S
C308 H320 0.929 . S
C309 C308 1.363 . S
C309 N311 1.375 . S
C309 H327 0.931 . S
C310 N307 1.311 . S
C310 N311 1.347 . S
C310 H321 0.929 . S
N311 C309 1.375 . S
N311 C310 1.347 . S
C312 C315 1.365 . S
C312 N317 1.328 . S
C312 H318 0.929 . S
C313 C314 1.362 . S
C313 C316 1.378 . S
C313 H328 0.929 . S
C314 C313 1.362 . S
C314 C315 1.366 . S
C315 C312 1.365 . S
C315 C314 1.366 . S
C315 H329 0.930 . S
C316 C313 1.378 . S
C316 N317 1.315 . S
C316 H319 0.930 . S
N317 Co297 2.194 . S
N317 C312 1.328 . S
N317 C316 1.315 . S
H318 C312 0.929 . S
H319 C316 0.930 . S
H320 C308 0.929 . S
H321 C310 0.929 . S
O322 Co297 2.351 . S
O322 C325 1.244 . S
O323 Co297 2.155 . S
O323 C325 1.240 . S
O324 Co297 2.096 . S
O324 C305 1.247 . S
C325 O322 1.244 . S
C325 O323 1.240 . S
H326 C300 0.931 . S
H327 C309 0.931 . S
H328 C313 0.929 . S
H329 C315 0.930 . S
Co330 N334 2.148 . S
Co330 N340 2.128 . S
Co330 N350 2.194 . S
Co330 O355 2.351 . S
Co330 O356 2.155 . S
Co330 O357 2.096 . S
C331 N334 1.301 . S
C331 N335 1.328 . S
C331 H336 0.930 . S
C332 C333 1.333 . S
C332 N334 1.317 . S
C332 H337 0.930 . S
C333 C332 1.333 . S
C333 N335 1.350 . S
C333 H359 0.931 . S
N334 Co330 2.148 . S
N334 C331 1.301 . S
N334 C332 1.317 . S
N335 C331 1.328 . S
N335 C333 1.350 . S
H336 C331 0.930 . S
H337 C332 0.930 . S
C338 O339 1.224 . S
C338 O357 1.247 . S
O339 C338 1.224 . S
N340 Co330 2.128 . S
N340 C341 1.355 . S
N340 C343 1.311 . S
C341 N340 1.355 . S
C341 C342 1.363 . S
C341 H353 0.929 . S
C342 C341 1.363 . S
C342 N344 1.375 . S
C342 H360 0.931 . S
C343 N340 1.311 . S
C343 N344 1.347 . S
C343 H354 0.929 . S
N344 C342 1.375 . S
N344 C343 1.347 . S
C345 C348 1.365 . S
C345 N350 1.328 . S
C345 H351 0.929 . S
C346 C347 1.362 . S
C346 C349 1.378 . S
C346 H361 0.929 . S
C347 C346 1.362 . S
C347 C348 1.366 . S
C348 C345 1.365 . S
C348 C347 1.366 . S
C348 H362 0.930 . S
C349 C346 1.378 . S
C349 N350 1.315 . S
C349 H352 0.930 . S
N350 Co330 2.194 . S
N350 C345 1.328 . S
N350 C349 1.315 . S
H351 C345 0.929 . S
H352 C349 0.930 . S
H353 C341 0.929 . S
H354 C343 0.929 . S
O355 Co330 2.351 . S
O355 C358 1.244 . S
O356 Co330 2.155 . S
O356 C358 1.240 . S
O357 Co330 2.096 . S
O357 C338 1.247 . S
C358 O355 1.244 . S
C358 O356 1.240 . S
H359 C333 0.931 . S
H360 C342 0.931 . S
H361 C346 0.929 . S
H362 C348 0.930 . S
Co363 N367 2.148 . S
Co363 N373 2.128 . S
Co363 N383 2.194 . S
Co363 O388 2.351 . S
Co363 O389 2.155 . S
Co363 O390 2.096 . S
C364 N367 1.301 . S
C364 N368 1.328 . S
C364 H369 0.930 . S
C365 C366 1.333 . S
C365 N367 1.317 . S
C365 H370 0.930 . S
C366 C365 1.333 . S
C366 N368 1.350 . S
C366 H392 0.931 . S
N367 Co363 2.148 . S
N367 C364 1.301 . S
N367 C365 1.317 . S
N368 C364 1.328 . S
N368 C366 1.350 . S
H369 C364 0.930 . S
H370 C365 0.930 . S
C371 O372 1.224 . S
C371 O390 1.247 . S
O372 C371 1.224 . S
N373 Co363 2.128 . S
N373 C374 1.355 . S
N373 C376 1.311 . S
C374 N373 1.355 . S
C374 C375 1.363 . S
C374 H386 0.929 . S
C375 C374 1.363 . S
C375 N377 1.375 . S
C375 H393 0.931 . S
C376 N373 1.311 . S
C376 N377 1.347 . S
C376 H387 0.929 . S
N377 C375 1.375 . S
N377 C376 1.347 . S
C378 C381 1.365 . S
C378 N383 1.328 . S
C378 H384 0.929 . S
C379 C380 1.362 . S
C379 C382 1.378 . S
C379 H394 0.929 . S
C380 C379 1.362 . S
C380 C381 1.366 . S
C381 C378 1.365 . S
C381 C380 1.366 . S
C381 H395 0.930 . S
C382 C379 1.378 . S
C382 N383 1.315 . S
C382 H385 0.930 . S
N383 Co363 2.194 . S
N383 C378 1.328 . S
N383 C382 1.315 . S
H384 C378 0.929 . S
H385 C382 0.930 . S
H386 C374 0.929 . S
H387 C376 0.929 . S
O388 Co363 2.351 . S
O388 C391 1.244 . S
O389 Co363 2.155 . S
O389 C391 1.240 . S
O390 Co363 2.096 . S
O390 C371 1.247 . S
C391 O388 1.244 . S
C391 O389 1.240 . S
H392 C366 0.931 . S
H393 C375 0.931 . S
H394 C379 0.929 . S
H395 C381 0.930 . S
Co396 N400 2.148 . S
Co396 N406 2.128 . S
Co396 N416 2.194 . S
Co396 O421 2.351 . S
Co396 O422 2.155 . S
Co396 O423 2.096 . S
C397 N400 1.301 . S
C397 N401 1.328 . S
C397 H402 0.930 . S
C398 C399 1.333 . S
C398 N400 1.317 . S
C398 H403 0.930 . S
C399 C398 1.333 . S
C399 N401 1.350 . S
C399 H425 0.931 . S
N400 Co396 2.148 . S
N400 C397 1.301 . S
N400 C398 1.317 . S
N401 C397 1.328 . S
N401 C399 1.350 . S
H402 C397 0.930 . S
H403 C398 0.930 . S
C404 O405 1.224 . S
C404 O423 1.247 . S
O405 C404 1.224 . S
N406 Co396 2.128 . S
N406 C407 1.355 . S
N406 C409 1.311 . S
C407 N406 1.355 . S
C407 C408 1.363 . S
C407 H419 0.929 . S
C408 C407 1.363 . S
C408 N410 1.375 . S
C408 H426 0.931 . S
C409 N406 1.311 . S
C409 N410 1.347 . S
C409 H420 0.929 . S
N410 C408 1.375 . S
N410 C409 1.347 . S
C411 C414 1.365 . S
C411 N416 1.328 . S
C411 H417 0.929 . S
C412 C413 1.362 . S
C412 C415 1.378 . S
C412 H427 0.929 . S
C413 C412 1.362 . S
C413 C414 1.366 . S
C414 C411 1.365 . S
C414 C413 1.366 . S
C414 H428 0.930 . S
C415 C412 1.378 . S
C415 N416 1.315 . S
C415 H418 0.930 . S
N416 Co396 2.194 . S
N416 C411 1.328 . S
N416 C415 1.315 . S
H417 C411 0.929 . S
H418 C415 0.930 . S
H419 C407 0.929 . S
H420 C409 0.929 . S
O421 Co396 2.351 . S
O421 C424 1.244 . S
O422 Co396 2.155 . S
O422 C424 1.240 . S
O423 Co396 2.096 . S
O423 C404 1.247 . S
C424 O421 1.244 . S
C424 O422 1.240 . S
H425 C399 0.931 . S
H426 C408 0.931 . S
H427 C412 0.929 . S
H428 C414 0.930 . S
Co429 N433 2.148 . S
Co429 N439 2.128 . S
Co429 N449 2.194 . S
Co429 O454 2.351 . S
Co429 O455 2.155 . S
Co429 O456 2.096 . S
C430 N433 1.301 . S
C430 N434 1.328 . S
C430 H435 0.930 . S
C431 C432 1.333 . S
C431 N433 1.317 . S
C431 H436 0.930 . S
C432 C431 1.333 . S
C432 N434 1.350 . S
C432 H458 0.931 . S
N433 Co429 2.148 . S
N433 C430 1.301 . S
N433 C431 1.317 . S
N434 C430 1.328 . S
N434 C432 1.350 . S
H435 C430 0.930 . S
H436 C431 0.930 . S
C437 O438 1.224 . S
C437 O456 1.247 . S
O438 C437 1.224 . S
N439 Co429 2.128 . S
N439 C440 1.355 . S
N439 C442 1.311 . S
C440 N439 1.355 . S
C440 C441 1.363 . S
C440 H452 0.929 . S
C441 C440 1.363 . S
C441 N443 1.375 . S
C441 H459 0.931 . S
C442 N439 1.311 . S
C442 N443 1.347 . S
C442 H453 0.929 . S
N443 C441 1.375 . S
N443 C442 1.347 . S
C444 C447 1.365 . S
C444 N449 1.328 . S
C444 H450 0.929 . S
C445 C446 1.362 . S
C445 C448 1.378 . S
C445 H460 0.929 . S
C446 C445 1.362 . S
C446 C447 1.366 . S
C447 C444 1.365 . S
C447 C446 1.366 . S
C447 H461 0.930 . S
C448 C445 1.378 . S
C448 N449 1.315 . S
C448 H451 0.930 . S
N449 Co429 2.194 . S
N449 C444 1.328 . S
N449 C448 1.315 . S
H450 C444 0.929 . S
H451 C448 0.930 . S
H452 C440 0.929 . S
H453 C442 0.929 . S
O454 Co429 2.351 . S
O454 C457 1.244 . S
O455 Co429 2.155 . S
O455 C457 1.240 . S
O456 Co429 2.096 . S
O456 C437 1.247 . S
C457 O454 1.244 . S
C457 O455 1.240 . S
H458 C432 0.931 . S
H459 C441 0.931 . S
H460 C445 0.929 . S
H461 C447 0.930 . S
Co462 N466 2.148 . S
Co462 N472 2.128 . S
Co462 N482 2.194 . S
Co462 O487 2.351 . S
Co462 O488 2.155 . S
Co462 O489 2.096 . S
C463 N466 1.301 . S
C463 N467 1.328 . S
C463 H468 0.930 . S
C464 C465 1.333 . S
C464 N466 1.317 . S
C464 H469 0.930 . S
C465 C464 1.333 . S
C465 N467 1.350 . S
C465 H491 0.931 . S
N466 Co462 2.148 . S
N466 C463 1.301 . S
N466 C464 1.317 . S
N467 C463 1.328 . S
N467 C465 1.350 . S
H468 C463 0.930 . S
H469 C464 0.930 . S
C470 O471 1.224 . S
C470 O489 1.247 . S
O471 C470 1.224 . S
N472 Co462 2.128 . S
N472 C473 1.355 . S
N472 C475 1.311 . S
C473 N472 1.355 . S
C473 C474 1.363 . S
C473 H485 0.929 . S
C474 C473 1.363 . S
C474 N476 1.375 . S
C474 H492 0.931 . S
C475 N472 1.311 . S
C475 N476 1.347 . S
C475 H486 0.929 . S
N476 C474 1.375 . S
N476 C475 1.347 . S
C477 C480 1.365 . S
C477 N482 1.328 . S
C477 H483 0.929 . S
C478 C479 1.362 . S
C478 C481 1.378 . S
C478 H493 0.929 . S
C479 C478 1.362 . S
C479 C480 1.366 . S
C480 C477 1.365 . S
C480 C479 1.366 . S
C480 H494 0.930 . S
C481 C478 1.378 . S
C481 N482 1.315 . S
C481 H484 0.930 . S
N482 Co462 2.194 . S
N482 C477 1.328 . S
N482 C481 1.315 . S
H483 C477 0.929 . S
H484 C481 0.930 . S
H485 C473 0.929 . S
H486 C475 0.929 . S
O487 Co462 2.351 . S
O487 C490 1.244 . S
O488 Co462 2.155 . S
O488 C490 1.240 . S
O489 Co462 2.096 . S
O489 C470 1.247 . S
C490 O487 1.244 . S
C490 O488 1.240 . S
H491 C465 0.931 . S
H492 C474 0.931 . S
H493 C478 0.929 . S
H494 C480 0.930 . S
Co495 N499 2.148 . S
Co495 N505 2.128 . S
Co495 N515 2.194 . S
Co495 O520 2.351 . S
Co495 O521 2.155 . S
Co495 O522 2.096 . S
C496 N499 1.301 . S
C496 N500 1.328 . S
C496 H501 0.930 . S
C497 C498 1.333 . S
C497 N499 1.317 . S
C497 H502 0.930 . S
C498 C497 1.333 . S
C498 N500 1.350 . S
C498 H524 0.931 . S
N499 Co495 2.148 . S
N499 C496 1.301 . S
N499 C497 1.317 . S
N500 C496 1.328 . S
N500 C498 1.350 . S
H501 C496 0.930 . S
H502 C497 0.930 . S
C503 O504 1.224 . S
C503 O522 1.247 . S
O504 C503 1.224 . S
N505 Co495 2.128 . S
N505 C506 1.355 . S
N505 C508 1.311 . S
C506 N505 1.355 . S
C506 C507 1.363 . S
C506 H518 0.929 . S
C507 C506 1.363 . S
C507 N509 1.375 . S
C507 H525 0.931 . S
C508 N505 1.311 . S
C508 N509 1.347 . S
C508 H519 0.929 . S
N509 C507 1.375 . S
N509 C508 1.347 . S
C510 C513 1.365 . S
C510 N515 1.328 . S
C510 H516 0.929 . S
C511 C512 1.362 . S
C511 C514 1.378 . S
C511 H526 0.929 . S
C512 C511 1.362 . S
C512 C513 1.366 . S
C513 C510 1.365 . S
C513 C512 1.366 . S
C513 H527 0.930 . S
C514 C511 1.378 . S
C514 N515 1.315 . S
C514 H517 0.930 . S
N515 Co495 2.194 . S
N515 C510 1.328 . S
N515 C514 1.315 . S
H516 C510 0.929 . S
H517 C514 0.930 . S
H518 C506 0.929 . S
H519 C508 0.929 . S
O520 Co495 2.351 . S
O520 C523 1.244 . S
O521 Co495 2.155 . S
O521 C523 1.240 . S
O522 Co495 2.096 . S
O522 C503 1.247 . S
C523 O520 1.244 . S
C523 O521 1.240 . S
H524 C498 0.931 . S
H525 C507 0.931 . S
H526 C511 0.929 . S
H527 C513 0.930 . S
Co528 N532 2.148 . S
Co528 N538 2.128 . S
Co528 N548 2.194 . S
Co528 O553 2.351 . S
Co528 O554 2.155 . S
Co528 O555 2.096 . S
C529 N532 1.301 . S
C529 N533 1.328 . S
C529 H534 0.930 . S
C530 C531 1.333 . S
C530 N532 1.317 . S
C530 H535 0.930 . S
C531 C530 1.333 . S
C531 N533 1.350 . S
C531 H557 0.931 . S
N532 Co528 2.148 . S
N532 C529 1.301 . S
N532 C530 1.317 . S
N533 C529 1.328 . S
N533 C531 1.350 . S
H534 C529 0.930 . S
H535 C530 0.930 . S
C536 O537 1.224 . S
C536 O555 1.247 . S
O537 C536 1.224 . S
N538 Co528 2.128 . S
N538 C539 1.355 . S
N538 C541 1.311 . S
C539 N538 1.355 . S
C539 C540 1.363 . S
C539 H551 0.929 . S
C540 C539 1.363 . S
C540 N542 1.375 . S
C540 H558 0.931 . S
C541 N538 1.311 . S
C541 N542 1.347 . S
C541 H552 0.929 . S
N542 C540 1.375 . S
N542 C541 1.347 . S
C543 C546 1.365 . S
C543 N548 1.328 . S
C543 H549 0.929 . S
C544 C545 1.362 . S
C544 C547 1.378 . S
C544 H559 0.929 . S
C545 C544 1.362 . S
C545 C546 1.366 . S
C546 C543 1.365 . S
C546 C545 1.366 . S
C546 H560 0.930 . S
C547 C544 1.378 . S
C547 N548 1.315 . S
C547 H550 0.930 . S
N548 Co528 2.194 . S
N548 C543 1.328 . S
N548 C547 1.315 . S
H549 C543 0.929 . S
H550 C547 0.930 . S
H551 C539 0.929 . S
H552 C541 0.929 . S
O553 Co528 2.351 . S
O553 C556 1.244 . S
O554 Co528 2.155 . S
O554 C556 1.240 . S
O555 Co528 2.096 . S
O555 C536 1.247 . S
C556 O553 1.244 . S
C556 O554 1.240 . S
H557 C531 0.931 . S
H558 C540 0.931 . S
H559 C544 0.929 . S
H560 C546 0.930 . S
Co561 N565 2.148 . S
Co561 N571 2.128 . S
Co561 N581 2.194 . S
Co561 O586 2.351 . S
Co561 O587 2.155 . S
Co561 O588 2.096 . S
C562 N565 1.301 . S
C562 N566 1.328 . S
C562 H567 0.930 . S
C563 C564 1.333 . S
C563 N565 1.317 . S
C563 H568 0.930 . S
C564 C563 1.333 . S
C564 N566 1.350 . S
C564 H590 0.931 . S
N565 Co561 2.148 . S
N565 C562 1.301 . S
N565 C563 1.317 . S
N566 C562 1.328 . S
N566 C564 1.350 . S
H567 C562 0.930 . S
H568 C563 0.930 . S
C569 O570 1.224 . S
C569 O588 1.247 . S
O570 C569 1.224 . S
N571 Co561 2.128 . S
N571 C572 1.355 . S
N571 C574 1.311 . S
C572 N571 1.355 . S
C572 C573 1.363 . S
C572 H584 0.929 . S
C573 C572 1.363 . S
C573 N575 1.375 . S
C573 H591 0.931 . S
C574 N571 1.311 . S
C574 N575 1.347 . S
C574 H585 0.929 . S
N575 C573 1.375 . S
N575 C574 1.347 . S
C576 C579 1.365 . S
C576 N581 1.328 . S
C576 H582 0.929 . S
C577 C578 1.362 . S
C577 C580 1.378 . S
C577 H592 0.929 . S
C578 C577 1.362 . S
C578 C579 1.366 . S
C579 C576 1.365 . S
C579 C578 1.366 . S
C579 H593 0.930 . S
C580 C577 1.378 . S
C580 N581 1.315 . S
C580 H583 0.930 . S
N581 Co561 2.194 . S
N581 C576 1.328 . S
N581 C580 1.315 . S
H582 C576 0.929 . S
H583 C580 0.930 . S
H584 C572 0.929 . S
H585 C574 0.929 . S
O586 Co561 2.351 . S
O586 C589 1.244 . S
O587 Co561 2.155 . S
O587 C589 1.240 . S
O588 Co561 2.096 . S
O588 C569 1.247 . S
C589 O586 1.244 . S
C589 O587 1.240 . S
H590 C564 0.931 . S
H591 C573 0.931 . S
H592 C577 0.929 . S
H593 C579 0.930 . S
Co594 N598 2.148 . S
Co594 N604 2.128 . S
Co594 N614 2.194 . S
Co594 O619 2.351 . S
Co594 O620 2.155 . S
Co594 O621 2.096 . S
C595 N598 1.301 . S
C595 N599 1.328 . S
C595 H600 0.930 . S
C596 C597 1.333 . S
C596 N598 1.317 . S
C596 H601 0.930 . S
C597 C596 1.333 . S
C597 N599 1.350 . S
C597 H623 0.931 . S
N598 Co594 2.148 . S
N598 C595 1.301 . S
N598 C596 1.317 . S
N599 C595 1.328 . S
N599 C597 1.350 . S
H600 C595 0.930 . S
H601 C596 0.930 . S
C602 O603 1.224 . S
C602 O621 1.247 . S
O603 C602 1.224 . S
N604 Co594 2.128 . S
N604 C605 1.355 . S
N604 C607 1.311 . S
C605 N604 1.355 . S
C605 C606 1.363 . S
C605 H617 0.929 . S
C606 C605 1.363 . S
C606 N608 1.375 . S
C606 H624 0.931 . S
C607 N604 1.311 . S
C607 N608 1.347 . S
C607 H618 0.929 . S
N608 C606 1.375 . S
N608 C607 1.347 . S
C609 C612 1.365 . S
C609 N614 1.328 . S
C609 H615 0.929 . S
C610 C611 1.362 . S
C610 C613 1.378 . S
C610 H625 0.929 . S
C611 C610 1.362 . S
C611 C612 1.366 . S
C612 C609 1.365 . S
C612 C611 1.366 . S
C612 H626 0.930 . S
C613 C610 1.378 . S
C613 N614 1.315 . S
C613 H616 0.930 . S
N614 Co594 2.194 . S
N614 C609 1.328 . S
N614 C613 1.315 . S
H615 C609 0.929 . S
H616 C613 0.930 . S
H617 C605 0.929 . S
H618 C607 0.929 . S
O619 Co594 2.351 . S
O619 C622 1.244 . S
O620 Co594 2.155 . S
O620 C622 1.240 . S
O621 Co594 2.096 . S
O621 C602 1.247 . S
C622 O619 1.244 . S
C622 O620 1.240 . S
H623 C597 0.931 . S
H624 C606 0.931 . S
H625 C610 0.929 . S
H626 C612 0.930 . S
Co627 N631 2.148 . S
Co627 N637 2.128 . S
Co627 N647 2.194 . S
Co627 O652 2.351 . S
Co627 O653 2.155 . S
Co627 O654 2.096 . S
C628 N631 1.301 . S
C628 N632 1.328 . S
C628 H633 0.930 . S
C629 C630 1.333 . S
C629 N631 1.317 . S
C629 H634 0.930 . S
C630 C629 1.333 . S
C630 N632 1.350 . S
C630 H656 0.931 . S
N631 Co627 2.148 . S
N631 C628 1.301 . S
N631 C629 1.317 . S
N632 C628 1.328 . S
N632 C630 1.350 . S
H633 C628 0.930 . S
H634 C629 0.930 . S
C635 O636 1.224 . S
C635 O654 1.247 . S
O636 C635 1.224 . S
N637 Co627 2.128 . S
N637 C638 1.355 . S
N637 C640 1.311 . S
C638 N637 1.355 . S
C638 C639 1.363 . S
C638 H650 0.929 . S
C639 C638 1.363 . S
C639 N641 1.375 . S
C639 H657 0.931 . S
C640 N637 1.311 . S
C640 N641 1.347 . S
C640 H651 0.929 . S
N641 C639 1.375 . S
N641 C640 1.347 . S
C642 C645 1.365 . S
C642 N647 1.328 . S
C642 H648 0.929 . S
C643 C644 1.362 . S
C643 C646 1.378 . S
C643 H658 0.929 . S
C644 C643 1.362 . S
C644 C645 1.366 . S
C645 C642 1.365 . S
C645 C644 1.366 . S
C645 H659 0.930 . S
C646 C643 1.378 . S
C646 N647 1.315 . S
C646 H649 0.930 . S
N647 Co627 2.194 . S
N647 C642 1.328 . S
N647 C646 1.315 . S
H648 C642 0.929 . S
H649 C646 0.930 . S
H650 C638 0.929 . S
H651 C640 0.929 . S
O652 Co627 2.351 . S
O652 C655 1.244 . S
O653 Co627 2.155 . S
O653 C655 1.240 . S
O654 Co627 2.096 . S
O654 C635 1.247 . S
C655 O652 1.244 . S
C655 O653 1.240 . S
H656 C630 0.931 . S
H657 C639 0.931 . S
H658 C643 0.929 . S
H659 C645 0.930 . S
Co660 N664 2.148 . S
Co660 N670 2.128 . S
Co660 N680 2.194 . S
Co660 O685 2.351 . S
Co660 O686 2.155 . S
Co660 O687 2.096 . S
C661 N664 1.301 . S
C661 N665 1.328 . S
C661 H666 0.930 . S
C662 C663 1.333 . S
C662 N664 1.317 . S
C662 H667 0.930 . S
C663 C662 1.333 . S
C663 N665 1.350 . S
C663 H689 0.931 . S
N664 Co660 2.148 . S
N664 C661 1.301 . S
N664 C662 1.317 . S
N665 C661 1.328 . S
N665 C663 1.350 . S
H666 C661 0.930 . S
H667 C662 0.930 . S
C668 O669 1.224 . S
C668 O687 1.247 . S
O669 C668 1.224 . S
N670 Co660 2.128 . S
N670 C671 1.355 . S
N670 C673 1.311 . S
C671 N670 1.355 . S
C671 C672 1.363 . S
C671 H683 0.929 . S
C672 C671 1.363 . S
C672 N674 1.375 . S
C672 H690 0.931 . S
C673 N670 1.311 . S
C673 N674 1.347 . S
C673 H684 0.929 . S
N674 C672 1.375 . S
N674 C673 1.347 . S
C675 C678 1.365 . S
C675 N680 1.328 . S
C675 H681 0.929 . S
C676 C677 1.362 . S
C676 C679 1.378 . S
C676 H691 0.929 . S
C677 C676 1.362 . S
C677 C678 1.366 . S
C678 C675 1.365 . S
C678 C677 1.366 . S
C678 H692 0.930 . S
C679 C676 1.378 . S
C679 N680 1.315 . S
C679 H682 0.930 . S
N680 Co660 2.194 . S
N680 C675 1.328 . S
N680 C679 1.315 . S
H681 C675 0.929 . S
H682 C679 0.930 . S
H683 C671 0.929 . S
H684 C673 0.929 . S
O685 Co660 2.351 . S
O685 C688 1.244 . S
O686 Co660 2.155 . S
O686 C688 1.240 . S
O687 Co660 2.096 . S
O687 C668 1.247 . S
C688 O685 1.244 . S
C688 O686 1.240 . S
H689 C663 0.931 . S
H690 C672 0.931 . S
H691 C676 0.929 . S
H692 C678 0.930 . S
Co693 N697 2.148 . S
Co693 N703 2.128 . S
Co693 N713 2.194 . S
Co693 O718 2.351 . S
Co693 O719 2.155 . S
Co693 O720 2.096 . S
C694 N697 1.301 . S
C694 N698 1.328 . S
C694 H699 0.930 . S
C695 C696 1.333 . S
C695 N697 1.317 . S
C695 H700 0.930 . S
C696 C695 1.333 . S
C696 N698 1.350 . S
C696 H722 0.931 . S
N697 Co693 2.148 . S
N697 C694 1.301 . S
N697 C695 1.317 . S
N698 C694 1.328 . S
N698 C696 1.350 . S
H699 C694 0.930 . S
H700 C695 0.930 . S
C701 O702 1.224 . S
C701 O720 1.247 . S
O702 C701 1.224 . S
N703 Co693 2.128 . S
N703 C704 1.355 . S
N703 C706 1.311 . S
C704 N703 1.355 . S
C704 C705 1.363 . S
C704 H716 0.929 . S
C705 C704 1.363 . S
C705 N707 1.375 . S
C705 H723 0.931 . S
C706 N703 1.311 . S
C706 N707 1.347 . S
C706 H717 0.929 . S
N707 C705 1.375 . S
N707 C706 1.347 . S
C708 C711 1.365 . S
C708 N713 1.328 . S
C708 H714 0.929 . S
C709 C710 1.362 . S
C709 C712 1.378 . S
C709 H724 0.929 . S
C710 C709 1.362 . S
C710 C711 1.366 . S
C711 C708 1.365 . S
C711 C710 1.366 . S
C711 H725 0.930 . S
C712 C709 1.378 . S
C712 N713 1.315 . S
C712 H715 0.930 . S
N713 Co693 2.194 . S
N713 C708 1.328 . S
N713 C712 1.315 . S
H714 C708 0.929 . S
H715 C712 0.930 . S
H716 C704 0.929 . S
H717 C706 0.929 . S
O718 Co693 2.351 . S
O718 C721 1.244 . S
O719 Co693 2.155 . S
O719 C721 1.240 . S
O720 Co693 2.096 . S
O720 C701 1.247 . S
C721 O718 1.244 . S
C721 O719 1.240 . S
H722 C696 0.931 . S
H723 C705 0.931 . S
H724 C709 0.929 . S
H725 C711 0.930 . S
Co726 N730 2.148 . S
Co726 N736 2.128 . S
Co726 N746 2.194 . S
Co726 O751 2.351 . S
Co726 O752 2.155 . S
Co726 O753 2.096 . S
C727 N730 1.301 . S
C727 N731 1.328 . S
C727 H732 0.930 . S
C728 C729 1.333 . S
C728 N730 1.317 . S
C728 H733 0.930 . S
C729 C728 1.333 . S
C729 N731 1.350 . S
C729 H755 0.931 . S
N730 Co726 2.148 . S
N730 C727 1.301 . S
N730 C728 1.317 . S
N731 C727 1.328 . S
N731 C729 1.350 . S
H732 C727 0.930 . S
H733 C728 0.930 . S
C734 O735 1.224 . S
C734 O753 1.247 . S
O735 C734 1.224 . S
N736 Co726 2.128 . S
N736 C737 1.355 . S
N736 C739 1.311 . S
C737 N736 1.355 . S
C737 C738 1.363 . S
C737 H749 0.929 . S
C738 C737 1.363 . S
C738 N740 1.375 . S
C738 H756 0.931 . S
C739 N736 1.311 . S
C739 N740 1.347 . S
C739 H750 0.929 . S
N740 C738 1.375 . S
N740 C739 1.347 . S
C741 C744 1.365 . S
C741 N746 1.328 . S
C741 H747 0.929 . S
C742 C743 1.362 . S
C742 C745 1.378 . S
C742 H757 0.929 . S
C743 C742 1.362 . S
C743 C744 1.366 . S
C744 C741 1.365 . S
C744 C743 1.366 . S
C744 H758 0.930 . S
C745 C742 1.378 . S
C745 N746 1.315 . S
C745 H748 0.930 . S
N746 Co726 2.194 . S
N746 C741 1.328 . S
N746 C745 1.315 . S
H747 C741 0.929 . S
H748 C745 0.930 . S
H749 C737 0.929 . S
H750 C739 0.929 . S
O751 Co726 2.351 . S
O751 C754 1.244 . S
O752 Co726 2.155 . S
O752 C754 1.240 . S
O753 Co726 2.096 . S
O753 C734 1.247 . S
C754 O751 1.244 . S
C754 O752 1.240 . S
H755 C729 0.931 . S
H756 C738 0.931 . S
H757 C742 0.929 . S
H758 C744 0.930 . S
Co759 N763 2.148 . S
Co759 N769 2.128 . S
Co759 N779 2.194 . S
Co759 O784 2.351 . S
Co759 O785 2.155 . S
Co759 O786 2.096 . S
C760 N763 1.301 . S
C760 N764 1.328 . S
C760 H765 0.930 . S
C761 C762 1.333 . S
C761 N763 1.317 . S
C761 H766 0.930 . S
C762 C761 1.333 . S
C762 N764 1.350 . S
C762 H788 0.931 . S
N763 Co759 2.148 . S
N763 C760 1.301 . S
N763 C761 1.317 . S
N764 C760 1.328 . S
N764 C762 1.350 . S
H765 C760 0.930 . S
H766 C761 0.930 . S
C767 O768 1.224 . S
C767 O786 1.247 . S
O768 C767 1.224 . S
N769 Co759 2.128 . S
N769 C770 1.355 . S
N769 C772 1.311 . S
C770 N769 1.355 . S
C770 C771 1.363 . S
C770 H782 0.929 . S
C771 C770 1.363 . S
C771 N773 1.375 . S
C771 H789 0.931 . S
C772 N769 1.311 . S
C772 N773 1.347 . S
C772 H783 0.929 . S
N773 C771 1.375 . S
N773 C772 1.347 . S
C774 C777 1.365 . S
C774 N779 1.328 . S
C774 H780 0.929 . S
C775 C776 1.362 . S
C775 C778 1.378 . S
C775 H790 0.929 . S
C776 C775 1.362 . S
C776 C777 1.366 . S
C777 C774 1.365 . S
C777 C776 1.366 . S
C777 H791 0.930 . S
C778 C775 1.378 . S
C778 N779 1.315 . S
C778 H781 0.930 . S
N779 Co759 2.194 . S
N779 C774 1.328 . S
N779 C778 1.315 . S
H780 C774 0.929 . S
H781 C778 0.930 . S
H782 C770 0.929 . S
H783 C772 0.929 . S
O784 Co759 2.351 . S
O784 C787 1.244 . S
O785 Co759 2.155 . S
O785 C787 1.240 . S
O786 Co759 2.096 . S
O786 C767 1.247 . S
C787 O784 1.244 . S
C787 O785 1.240 . S
H788 C762 0.931 . S
H789 C771 0.931 . S
H790 C775 0.929 . S
H791 C777 0.930 . S
H792 C800 0.950 . S
H793 C805 0.950 . S
H794 C802 0.950 . S
H795 C804 0.950 . S
H796 C806 0.950 . S
H797 C808 0.950 . S
H798 C810 0.950 . S
H799 C811 0.950 . S
C800 H792 0.950 . S
C800 C801 1.386 . S
C800 C802 1.391 . S
C801 C800 1.386 . S
C801 C805 1.393 . S
C802 H794 0.950 . S
C802 C800 1.391 . S
C802 C803 1.400 . S
C803 C802 1.400 . S
C803 C804 1.398 . S
C803 C809 1.491 . S
C804 H795 0.950 . S
C804 C803 1.398 . S
C804 C805 1.391 . S
C805 H793 0.950 . S
C805 C801 1.393 . S
C805 C804 1.391 . S
C806 H796 0.950 . S
C806 C807 1.386 . S
C806 C808 1.391 . S
C807 C806 1.386 . S
C807 C811 1.393 . S
C808 H797 0.950 . S
C808 C806 1.391 . S
C808 C809 1.400 . S
C809 C803 1.491 . S
C809 C808 1.400 . S
C809 C810 1.398 . S
C810 H798 0.950 . S
C810 C809 1.398 . S
C810 C811 1.391 . S
C811 H799 0.950 . S
C811 C807 1.393 . S
C811 C810 1.391 . S
H812 C820 0.950 . S
H813 C825 0.950 . S
H814 C822 0.950 . S
H815 C824 0.950 . S
H816 C826 0.950 . S
H817 C828 0.950 . S
H818 C830 0.950 . S
H819 C831 0.950 . S
C820 H812 0.950 . S
C820 C821 1.386 . S
C820 C822 1.391 . S
C821 C820 1.386 . S
C821 C825 1.393 . S
C822 H814 0.950 . S
C822 C820 1.391 . S
C822 C823 1.400 . S
C823 C822 1.400 . S
C823 C824 1.398 . S
C823 C829 1.491 . S
C824 H815 0.950 . S
C824 C823 1.398 . S
C824 C825 1.391 . S
C825 H813 0.950 . S
C825 C821 1.393 . S
C825 C824 1.391 . S
C826 H816 0.950 . S
C826 C827 1.386 . S
C826 C828 1.391 . S
C827 C826 1.386 . S
C827 C831 1.393 . S
C828 H817 0.950 . S
C828 C826 1.391 . S
C828 C829 1.400 . S
C829 C823 1.491 . S
C829 C828 1.400 . S
C829 C830 1.398 . S
C830 H818 0.950 . S
C830 C829 1.398 . S
C830 C831 1.391 . S
C831 H819 0.950 . S
C831 C827 1.393 . S
C831 C830 1.391 . S
H832 C840 0.950 . S
H833 C845 0.950 . S
H834 C842 0.950 . S
H835 C844 0.950 . S
H836 C846 0.950 . S
H837 C848 0.950 . S
H838 C850 0.950 . S
H839 C851 0.950 . S
C840 H832 0.950 . S
C840 C841 1.386 . S
C840 C842 1.391 . S
C841 C840 1.386 . S
C841 C845 1.393 . S
C842 H834 0.950 . S
C842 C840 1.391 . S
C842 C843 1.400 . S
C843 C842 1.400 . S
C843 C844 1.398 . S
C843 C849 1.491 . S
C844 H835 0.950 . S
C844 C843 1.398 . S
C844 C845 1.391 . S
C845 H833 0.950 . S
C845 C841 1.393 . S
C845 C844 1.391 . S
C846 H836 0.950 . S
C846 C847 1.386 . S
C846 C848 1.391 . S
C847 C846 1.386 . S
C847 C851 1.393 . S
C848 H837 0.950 . S
C848 C846 1.391 . S
C848 C849 1.400 . S
C849 C843 1.491 . S
C849 C848 1.400 . S
C849 C850 1.398 . S
C850 H838 0.950 . S
C850 C849 1.398 . S
C850 C851 1.391 . S
C851 H839 0.950 . S
C851 C847 1.393 . S
C851 C850 1.391 . S
H852 C860 0.950 . S
H853 C865 0.950 . S
H854 C862 0.950 . S
H855 C864 0.950 . S
H856 C866 0.950 . S
H857 C868 0.950 . S
H858 C870 0.950 . S
H859 C871 0.950 . S
C860 H852 0.950 . S
C860 C861 1.386 . S
C860 C862 1.391 . S
C861 C860 1.386 . S
C861 C865 1.393 . S
C862 H854 0.950 . S
C862 C860 1.391 . S
C862 C863 1.400 . S
C863 C862 1.400 . S
C863 C864 1.398 . S
C863 C869 1.491 . S
C864 H855 0.950 . S
C864 C863 1.398 . S
C864 C865 1.391 . S
C865 H853 0.950 . S
C865 C861 1.393 . S
C865 C864 1.391 . S
C866 H856 0.950 . S
C866 C867 1.386 . S
C866 C868 1.391 . S
C867 C866 1.386 . S
C867 C871 1.393 . S
C868 H857 0.950 . S
C868 C866 1.391 . S
C868 C869 1.400 . S
C869 C863 1.491 . S
C869 C868 1.400 . S
C869 C870 1.398 . S
C870 H858 0.950 . S
C870 C869 1.398 . S
C870 C871 1.391 . S
C871 H859 0.950 . S
C871 C867 1.393 . S
C871 C870 1.391 . S
H872 C880 0.950 . S
H873 C885 0.950 . S
H874 C882 0.950 . S
H875 C884 0.950 . S
H876 C886 0.950 . S
H877 C888 0.950 . S
H878 C890 0.950 . S
H879 C891 0.950 . S
C880 H872 0.950 . S
C880 C881 1.386 . S
C880 C882 1.391 . S
C881 C880 1.386 . S
C881 C885 1.393 . S
C882 H874 0.950 . S
C882 C880 1.391 . S
C882 C883 1.400 . S
C883 C882 1.400 . S
C883 C884 1.398 . S
C883 C889 1.491 . S
C884 H875 0.950 . S
C884 C883 1.398 . S
C884 C885 1.391 . S
C885 H873 0.950 . S
C885 C881 1.393 . S
C885 C884 1.391 . S
C886 H876 0.950 . S
C886 C887 1.386 . S
C886 C888 1.391 . S
C887 C886 1.386 . S
C887 C891 1.393 . S
C888 H877 0.950 . S
C888 C886 1.391 . S
C888 C889 1.400 . S
C889 C883 1.491 . S
C889 C888 1.400 . S
C889 C890 1.398 . S
C890 H878 0.950 . S
C890 C889 1.398 . S
C890 C891 1.391 . S
C891 H879 0.950 . S
C891 C887 1.393 . S
C891 C890 1.391 . S
H892 C900 0.950 . S
H893 C905 0.950 . S
H894 C902 0.950 . S
H895 C904 0.950 . S
H896 C906 0.950 . S
H897 C908 0.950 . S
H898 C910 0.950 . S
H899 C911 0.950 . S
C900 H892 0.950 . S
C900 C901 1.386 . S
C900 C902 1.391 . S
C901 C900 1.386 . S
C901 C905 1.393 . S
C902 H894 0.950 . S
C902 C900 1.391 . S
C902 C903 1.400 . S
C903 C902 1.400 . S
C903 C904 1.398 . S
C903 C909 1.491 . S
C904 H895 0.950 . S
C904 C903 1.398 . S
C904 C905 1.391 . S
C905 H893 0.950 . S
C905 C901 1.393 . S
C905 C904 1.391 . S
C906 H896 0.950 . S
C906 C907 1.386 . S
C906 C908 1.391 . S
C907 C906 1.386 . S
C907 C911 1.393 . S
C908 H897 0.950 . S
C908 C906 1.391 . S
C908 C909 1.400 . S
C909 C903 1.491 . S
C909 C908 1.400 . S
C909 C910 1.398 . S
C910 H898 0.950 . S
C910 C909 1.398 . S
C910 C911 1.391 . S
C911 H899 0.950 . S
C911 C907 1.393 . S
C911 C910 1.391 . S
H912 C920 0.950 . S
H913 C925 0.950 . S
H914 C922 0.950 . S
H915 C924 0.950 . S
H916 C926 0.950 . S
H917 C928 0.950 . S
H918 C930 0.950 . S
H919 C931 0.950 . S
C920 H912 0.950 . S
C920 C921 1.386 . S
C920 C922 1.391 . S
C921 C920 1.386 . S
C921 C925 1.393 . S
C922 H914 0.950 . S
C922 C920 1.391 . S
C922 C923 1.400 . S
C923 C922 1.400 . S
C923 C924 1.398 . S
C923 C929 1.491 . S
C924 H915 0.950 . S
C924 C923 1.398 . S
C924 C925 1.391 . S
C925 H913 0.950 . S
C925 C921 1.393 . S
C925 C924 1.391 . S
C926 H916 0.950 . S
C926 C927 1.386 . S
C926 C928 1.391 . S
C927 C926 1.386 . S
C927 C931 1.393 . S
C928 H917 0.950 . S
C928 C926 1.391 . S
C928 C929 1.400 . S
C929 C923 1.491 . S
C929 C928 1.400 . S
C929 C930 1.398 . S
C930 H918 0.950 . S
C930 C929 1.398 . S
C930 C931 1.391 . S
C931 H919 0.950 . S
C931 C927 1.393 . S
C931 C930 1.391 . S
H932 C940 0.950 . S
H933 C945 0.950 . S
H934 C942 0.950 . S
H935 C944 0.950 . S
H936 C946 0.950 . S
H937 C948 0.950 . S
H938 C950 0.950 . S
H939 C951 0.950 . S
C940 H932 0.950 . S
C940 C941 1.386 . S
C940 C942 1.391 . S
C941 C940 1.386 . S
C941 C945 1.393 . S
C942 H934 0.950 . S
C942 C940 1.391 . S
C942 C943 1.400 . S
C943 C942 1.400 . S
C943 C944 1.398 . S
C943 C949 1.491 . S
C944 H935 0.950 . S
C944 C943 1.398 . S
C944 C945 1.391 . S
C945 H933 0.950 . S
C945 C941 1.393 . S
C945 C944 1.391 . S
C946 H936 0.950 . S
C946 C947 1.386 . S
C946 C948 1.391 . S
C947 C946 1.386 . S
C947 C951 1.393 . S
C948 H937 0.950 . S
C948 C946 1.391 . S
C948 C949 1.400 . S
C949 C943 1.491 . S
C949 C948 1.400 . S
C949 C950 1.398 . S
C950 H938 0.950 . S
C950 C949 1.398 . S
C950 C951 1.391 . S
C951 H939 0.950 . S
C951 C947 1.393 . S
C951 C950 1.391 . S
H952 C960 0.950 . S
H953 C965 0.950 . S
H954 C962 0.950 . S
H955 C964 0.950 . S
H956 C966 0.950 . S
H957 C968 0.950 . S
H958 C970 0.950 . S
H959 C971 0.950 . S
C960 H952 0.950 . S
C960 C961 1.386 . S
C960 C962 1.391 . S
C961 C960 1.386 . S
C961 C965 1.393 . S
C962 H954 0.950 . S
C962 C960 1.391 . S
C962 C963 1.400 . S
C963 C962 1.400 . S
C963 C964 1.398 . S
C963 C969 1.491 . S
C964 H955 0.950 . S
C964 C963 1.398 . S
C964 C965 1.391 . S
C965 H953 0.950 . S
C965 C961 1.393 . S
C965 C964 1.391 . S
C966 H956 0.950 . S
C966 C967 1.386 . S
C966 C968 1.391 . S
C967 C966 1.386 . S
C967 C971 1.393 . S
C968 H957 0.950 . S
C968 C966 1.391 . S
C968 C969 1.400 . S
C969 C963 1.491 . S
C969 C968 1.400 . S
C969 C970 1.398 . S
C970 H958 0.950 . S
C970 C969 1.398 . S
C970 C971 1.391 . S
C971 H959 0.950 . S
C971 C967 1.393 . S
C971 C970 1.391 . S
H972 C980 0.950 . S
H973 C985 0.950 . S
H974 C982 0.950 . S
H975 C984 0.950 . S
H976 C986 0.950 . S
H977 C988 0.950 . S
H978 C990 0.950 . S
H979 C991 0.950 . S
C980 H972 0.950 . S
C980 C981 1.386 . S
C980 C982 1.391 . S
C981 C980 1.386 . S
C981 C985 1.393 . S
C982 H974 0.950 . S
C982 C980 1.391 . S
C982 C983 1.400 . S
C983 C982 1.400 . S
C983 C984 1.398 . S
C983 C989 1.491 . S
C984 H975 0.950 . S
C984 C983 1.398 . S
C984 C985 1.391 . S
C985 H973 0.950 . S
C985 C981 1.393 . S
C985 C984 1.391 . S
C986 H976 0.950 . S
C986 C987 1.386 . S
C986 C988 1.391 . S
C987 C986 1.386 . S
C987 C991 1.393 . S
C988 H977 0.950 . S
C988 C986 1.391 . S
C988 C989 1.400 . S
C989 C983 1.491 . S
C989 C988 1.400 . S
C989 C990 1.398 . S
C990 H978 0.950 . S
C990 C989 1.398 . S
C990 C991 1.391 . S
C991 H979 0.950 . S
C991 C987 1.393 . S
C991 C990 1.391 . S
H992 C1000 0.950 . S
H993 C1005 0.950 . S
H994 C1002 0.950 . S
H995 C1004 0.950 . S
H996 C1006 0.950 . S
H997 C1008 0.950 . S
H998 C1010 0.950 . S
H999 C1011 0.950 . S
C1000 H992 0.950 . S
C1000 C1001 1.386 . S
C1000 C1002 1.391 . S
C1001 C1000 1.386 . S
C1001 C1005 1.393 . S
C1002 H994 0.950 . S
C1002 C1000 1.391 . S
C1002 C1003 1.400 . S
C1003 C1002 1.400 . S
C1003 C1004 1.398 . S
C1003 C1009 1.491 . S
C1004 H995 0.950 . S
C1004 C1003 1.398 . S
C1004 C1005 1.391 . S
C1005 H993 0.950 . S
C1005 C1001 1.393 . S
C1005 C1004 1.391 . S
C1006 H996 0.950 . S
C1006 C1007 1.386 . S
C1006 C1008 1.391 . S
C1007 C1006 1.386 . S
C1007 C1011 1.393 . S
C1008 H997 0.950 . S
C1008 C1006 1.391 . S
C1008 C1009 1.400 . S
C1009 C1003 1.491 . S
C1009 C1008 1.400 . S
C1009 C1010 1.398 . S
C1010 H998 0.950 . S
C1010 C1009 1.398 . S
C1010 C1011 1.391 . S
C1011 H999 0.950 . S
C1011 C1007 1.393 . S
C1011 C1010 1.391 . S
H1012 C1020 0.950 . S
H1013 C1025 0.950 . S
H1014 C1022 0.950 . S
H1015 C1024 0.950 . S
H1016 C1026 0.950 . S
H1017 C1028 0.950 . S
H1018 C1030 0.950 . S
H1019 C1031 0.950 . S
C1020 H1012 0.950 . S
C1020 C1021 1.386 . S
C1020 C1022 1.391 . S
C1021 C1020 1.386 . S
C1021 C1025 1.393 . S
C1022 H1014 0.950 . S
C1022 C1020 1.391 . S
C1022 C1023 1.400 . S
C1023 C1022 1.400 . S
C1023 C1024 1.398 . S
C1023 C1029 1.491 . S
C1024 H1015 0.950 . S
C1024 C1023 1.398 . S
C1024 C1025 1.391 . S
C1025 H1013 0.950 . S
C1025 C1021 1.393 . S
C1025 C1024 1.391 . S
C1026 H1016 0.950 . S
C1026 C1027 1.386 . S
C1026 C1028 1.391 . S
C1027 C1026 1.386 . S
C1027 C1031 1.393 . S
C1028 H1017 0.950 . S
C1028 C1026 1.391 . S
C1028 C1029 1.400 . S
C1029 C1023 1.491 . S
C1029 C1028 1.400 . S
C1029 C1030 1.398 . S
C1030 H1018 0.950 . S
C1030 C1029 1.398 . S
C1030 C1031 1.391 . S
C1031 H1019 0.950 . S
C1031 C1027 1.393 . S
C1031 C1030 1.391 . S
H1032 C1040 0.950 . S
H1033 C1045 0.950 . S
H1034 C1042 0.950 . S
H1035 C1044 0.950 1_545 S
H1036 C1046 0.950 . S
H1037 C1048 0.950 . S
H1038 C1050 0.950 . S
H1039 C1051 0.950 . S
C1040 H1032 0.950 . S
C1040 C1041 1.386 . S
C1040 C1042 1.391 . S
C1041 C1040 1.386 . S
C1041 C1045 1.393 . S
C1042 H1034 0.950 . S
C1042 C1040 1.391 . S
C1042 C1043 1.400 1_565 S
C1043 C1042 1.400 1_545 S
C1043 C1044 1.398 1_545 S
C1043 C1049 1.491 . S
C1044 H1035 0.950 1_565 S
C1044 C1043 1.398 1_565 S
C1044 C1045 1.391 . S
C1045 H1033 0.950 . S
C1045 C1041 1.393 . S
C1045 C1044 1.391 . S
C1046 H1036 0.950 . S
C1046 C1047 1.386 . S
C1046 C1048 1.391 . S
C1047 C1046 1.386 . S
C1047 C1051 1.393 . S
C1048 H1037 0.950 . S
C1048 C1046 1.391 . S
C1048 C1049 1.400 . S
C1049 C1043 1.491 . S
C1049 C1048 1.400 . S
C1049 C1050 1.398 . S
C1050 H1038 0.950 . S
C1050 C1049 1.398 . S
C1050 C1051 1.391 . S
C1051 H1039 0.950 . S
C1051 C1047 1.393 . S
C1051 C1050 1.391 . S
H1052 C1060 0.950 . S
H1053 C1065 0.950 . S
H1054 C1062 0.950 . S
H1055 C1064 0.950 . S
H1056 C1066 0.950 . S
H1057 C1068 0.950 . S
H1058 C1070 0.950 1_655 S
H1059 C1071 0.950 . S
C1060 H1052 0.950 . S
C1060 C1061 1.386 . S
C1060 C1062 1.391 . S
C1061 C1060 1.386 . S
C1061 C1065 1.393 . S
C1062 H1054 0.950 . S
C1062 C1060 1.391 . S
C1062 C1063 1.400 . S
C1063 C1062 1.400 . S
C1063 C1064 1.398 . S
C1063 C1069 1.491 . S
C1064 H1055 0.950 . S
C1064 C1063 1.398 . S
C1064 C1065 1.391 . S
C1065 H1053 0.950 . S
C1065 C1061 1.393 . S
C1065 C1064 1.391 . S
C1066 H1056 0.950 . S
C1066 C1067 1.386 . S
C1066 C1068 1.391 . S
C1067 C1066 1.386 . S
C1067 C1071 1.393 . S
C1068 H1057 0.950 . S
C1068 C1066 1.391 . S
C1068 C1069 1.400 1_455 S
C1069 C1063 1.491 . S
C1069 C1068 1.400 1_655 S
C1069 C1070 1.398 1_655 S
C1070 H1058 0.950 1_455 S
C1070 C1069 1.398 1_455 S
C1070 C1071 1.391 . S
C1071 H1059 0.950 . S
C1071 C1067 1.393 . S
C1071 C1070 1.391 . S
H1072 C1080 0.950 . S
H1073 C1085 0.950 . S
H1074 C1082 0.950 . S
H1075 C1084 0.950 . S
H1076 C1086 0.950 . S
H1077 C1088 0.950 1_565 S
H1078 C1090 0.950 . S
H1079 C1091 0.950 . S
C1080 H1072 0.950 . S
C1080 C1081 1.386 . S
C1080 C1082 1.391 . S
C1081 C1080 1.386 . S
C1081 C1085 1.393 . S
C1082 H1074 0.950 . S
C1082 C1080 1.391 . S
C1082 C1083 1.400 . S
C1083 C1082 1.400 . S
C1083 C1084 1.398 . S
C1083 C1089 1.491 . S
C1084 H1075 0.950 . S
C1084 C1083 1.398 . S
C1084 C1085 1.391 . S
C1085 H1073 0.950 . S
C1085 C1081 1.393 . S
C1085 C1084 1.391 . S
C1086 H1076 0.950 . S
C1086 C1087 1.386 . S
C1086 C1088 1.391 . S
C1087 C1086 1.386 . S
C1087 C1091 1.393 . S
C1088 H1077 0.950 1_545 S
C1088 C1086 1.391 . S
C1088 C1089 1.400 1_545 S
C1089 C1083 1.491 . S
C1089 C1088 1.400 1_565 S
C1089 C1090 1.398 1_565 S
C1090 H1078 0.950 . S
C1090 C1089 1.398 1_545 S
C1090 C1091 1.391 . S
C1091 H1079 0.950 . S
C1091 C1087 1.393 . S
C1091 C1090 1.391 . S
H1092 C1100 0.950 . S
H1093 C1105 0.950 . S
H1094 C1102 0.950 . S
H1095 C1104 0.950 1_455 S
H1096 C1106 0.950 . S
H1097 C1108 0.950 . S
H1098 C1110 0.950 . S
H1099 C1111 0.950 . S
C1100 H1092 0.950 . S
C1100 C1101 1.386 . S
C1100 C1102 1.391 . S
C1101 C1100 1.386 . S
C1101 C1105 1.393 . S
C1102 H1094 0.950 . S
C1102 C1100 1.391 . S
C1102 C1103 1.400 1_655 S
C1103 C1102 1.400 1_455 S
C1103 C1104 1.398 1_455 S
C1103 C1109 1.491 . S
C1104 H1095 0.950 1_655 S
C1104 C1103 1.398 1_655 S
C1104 C1105 1.391 . S
C1105 H1093 0.950 . S
C1105 C1101 1.393 . S
C1105 C1104 1.391 . S
C1106 H1096 0.950 . S
C1106 C1107 1.386 . S
C1106 C1108 1.391 . S
C1107 C1106 1.386 . S
C1107 C1111 1.393 . S
C1108 H1097 0.950 . S
C1108 C1106 1.391 . S
C1108 C1109 1.400 . S
C1109 C1103 1.491 . S
C1109 C1108 1.400 . S
C1109 C1110 1.398 . S
C1110 H1098 0.950 . S
C1110 C1109 1.398 . S
C1110 C1111 1.391 . S
C1111 H1099 0.950 . S
C1111 C1107 1.393 . S
C1111 C1110 1.391 . S
H1112 C1120 0.950 . S
H1113 C1125 0.950 . S
H1114 C1122 0.950 1_565 S
H1115 C1124 0.950 . S
H1116 C1126 0.950 . S
H1117 C1128 0.950 . S
H1118 C1130 0.950 . S
H1119 C1131 0.950 . S
C1120 H1112 0.950 . S
C1120 C1121 1.386 . S
C1120 C1122 1.391 . S
C1121 C1120 1.386 . S
C1121 C1125 1.393 . S
C1122 H1114 0.950 1_545 S
C1122 C1120 1.391 . S
C1122 C1123 1.400 1_545 S
C1123 C1122 1.400 1_565 S
C1123 C1124 1.398 1_565 S
C1123 C1129 1.491 . S
C1124 H1115 0.950 . S
C1124 C1123 1.398 1_545 S
C1124 C1125 1.391 . S
C1125 H1113 0.950 . S
C1125 C1121 1.393 . S
C1125 C1124 1.391 . S
C1126 H1116 0.950 . S
C1126 C1127 1.386 . S
C1126 C1128 1.391 . S
C1127 C1126 1.386 . S
C1127 C1131 1.393 . S
C1128 H1117 0.950 . S
C1128 C1126 1.391 . S
C1128 C1129 1.400 . S
C1129 C1123 1.491 . S
C1129 C1128 1.400 . S
C1129 C1130 1.398 . S
C1130 H1118 0.950 . S
C1130 C1129 1.398 . S
C1130 C1131 1.391 . S
C1131 H1119 0.950 . S
C1131 C1127 1.393 . S
C1131 C1130 1.391 . S
H1132 C1140 0.950 . S
H1133 C1145 0.950 . S
H1134 C1142 0.950 . S
H1135 C1144 0.950 . S
H1136 C1146 0.950 . S
H1137 C1148 0.950 1_455 S
H1138 C1150 0.950 . S
H1139 C1151 0.950 . S
C1140 H1132 0.950 . S
C1140 C1141 1.386 . S
C1140 C1142 1.391 . S
C1141 C1140 1.386 . S
C1141 C1145 1.393 . S
C1142 H1134 0.950 . S
C1142 C1140 1.391 . S
C1142 C1143 1.400 . S
C1143 C1142 1.400 . S
C1143 C1144 1.398 . S
C1143 C1149 1.491 . S
C1144 H1135 0.950 . S
C1144 C1143 1.398 . S
C1144 C1145 1.391 . S
C1145 H1133 0.950 . S
C1145 C1141 1.393 . S
C1145 C1144 1.391 . S
C1146 H1136 0.950 . S
C1146 C1147 1.386 . S
C1146 C1148 1.391 . S
C1147 C1146 1.386 . S
C1147 C1151 1.393 . S
C1148 H1137 0.950 1_655 S
C1148 C1146 1.391 . S
C1148 C1149 1.400 1_655 S
C1149 C1143 1.491 . S
C1149 C1148 1.400 1_455 S
C1149 C1150 1.398 1_455 S
C1150 H1138 0.950 . S
C1150 C1149 1.398 1_655 S
C1150 C1151 1.391 . S
C1151 H1139 0.950 . S
C1151 C1147 1.393 . S
C1151 C1150 1.391 . S
H1152 C1160 0.950 . S
H1153 C1165 0.950 . S
H1154 C1162 0.950 . S
H1155 C1164 0.950 1_545 S
H1156 C1166 0.950 . S
H1157 C1168 0.950 . S
H1158 C1170 0.950 . S
H1159 C1171 0.950 . S
C1160 H1152 0.950 . S
C1160 C1161 1.386 . S
C1160 C1162 1.391 . S
C1161 C1160 1.386 . S
C1161 C1165 1.393 . S
C1162 H1154 0.950 . S
C1162 C1160 1.391 . S
C1162 C1163 1.400 1_565 S
C1163 C1162 1.400 1_545 S
C1163 C1164 1.398 1_545 S
C1163 C1169 1.491 . S
C1164 H1155 0.950 1_565 S
C1164 C1163 1.398 1_565 S
C1164 C1165 1.391 . S
C1165 H1153 0.950 . S
C1165 C1161 1.393 . S
C1165 C1164 1.391 . S
C1166 H1156 0.950 . S
C1166 C1167 1.386 . S
C1166 C1168 1.391 . S
C1167 C1166 1.386 . S
C1167 C1171 1.393 . S
C1168 H1157 0.950 . S
C1168 C1166 1.391 . S
C1168 C1169 1.400 . S
C1169 C1163 1.491 . S
C1169 C1168 1.400 . S
C1169 C1170 1.398 . S
C1170 H1158 0.950 . S
C1170 C1169 1.398 . S
C1170 C1171 1.391 . S
C1171 H1159 0.950 . S
C1171 C1167 1.393 . S
C1171 C1170 1.391 . S
H1172 C1180 0.950 . S
H1173 C1185 0.950 . S
H1174 C1182 0.950 1_655 S
H1175 C1184 0.950 . S
H1176 C1186 0.950 . S
H1177 C1188 0.950 . S
H1178 C1190 0.950 . S
H1179 C1191 0.950 . S
C1180 H1172 0.950 . S
C1180 C1181 1.386 . S
C1180 C1182 1.391 . S
C1181 C1180 1.386 . S
C1181 C1185 1.393 . S
C1182 H1174 0.950 1_455 S
C1182 C1180 1.391 . S
C1182 C1183 1.400 1_455 S
C1183 C1182 1.400 1_655 S
C1183 C1184 1.398 1_655 S
C1183 C1189 1.491 . S
C1184 H1175 0.950 . S
C1184 C1183 1.398 1_455 S
C1184 C1185 1.391 . S
C1185 H1173 0.950 . S
C1185 C1181 1.393 . S
C1185 C1184 1.391 . S
C1186 H1176 0.950 . S
C1186 C1187 1.386 . S
C1186 C1188 1.391 . S
C1187 C1186 1.386 . S
C1187 C1191 1.393 . S
C1188 H1177 0.950 . S
C1188 C1186 1.391 . S
C1188 C1189 1.400 . S
C1189 C1183 1.491 . S
C1189 C1188 1.400 . S
C1189 C1190 1.398 . S
C1190 H1178 0.950 . S
C1190 C1189 1.398 . S
C1190 C1191 1.391 . S
C1191 H1179 0.950 . S
C1191 C1187 1.393 . S
C1191 C1190 1.391 . S
H1192 C1200 0.950 . S
H1193 C1205 0.950 . S
H1194 C1202 0.950 . S
H1195 C1204 0.950 1_554 S
H1196 C1206 0.950 . S
H1197 C1208 0.950 . S
H1198 C1210 0.950 . S
H1199 C1211 0.950 . S
C1200 H1192 0.950 . S
C1200 C1201 1.386 . S
C1200 C1202 1.391 . S
C1201 C1200 1.386 . S
C1201 C1205 1.393 . S
C1202 H1194 0.950 . S
C1202 C1200 1.391 . S
C1202 C1203 1.400 1_556 S
C1203 C1202 1.400 1_554 S
C1203 C1204 1.398 1_554 S
C1203 C1209 1.491 . S
C1204 H1195 0.950 1_556 S
C1204 C1203 1.398 1_556 S
C1204 C1205 1.391 . S
C1205 H1193 0.950 . S
C1205 C1201 1.393 . S
C1205 C1204 1.391 . S
C1206 H1196 0.950 . S
C1206 C1207 1.386 . S
C1206 C1208 1.391 . S
C1207 C1206 1.386 . S
C1207 C1211 1.393 . S
C1208 H1197 0.950 . S
C1208 C1206 1.391 . S
C1208 C1209 1.400 . S
C1209 C1203 1.491 . S
C1209 C1208 1.400 . S
C1209 C1210 1.398 . S
C1210 H1198 0.950 . S
C1210 C1209 1.398 . S
C1210 C1211 1.391 . S
C1211 H1199 0.950 . S
C1211 C1207 1.393 . S
C1211 C1210 1.391 . S
H1212 C1220 0.950 . S
H1213 C1225 0.950 . S
H1214 C1222 0.950 . S
H1215 C1224 0.950 . S
H1216 C1226 0.950 . S
H1217 C1228 0.950 . S
H1218 C1230 0.950 1_554 S
H1219 C1231 0.950 . S
C1220 H1212 0.950 . S
C1220 C1221 1.386 . S
C1220 C1222 1.391 . S
C1221 C1220 1.386 . S
C1221 C1225 1.393 . S
C1222 H1214 0.950 . S
C1222 C1220 1.391 . S
C1222 C1223 1.400 . S
C1223 C1222 1.400 . S
C1223 C1224 1.398 . S
C1223 C1229 1.491 . S
C1224 H1215 0.950 . S
C1224 C1223 1.398 . S
C1224 C1225 1.391 . S
C1225 H1213 0.950 . S
C1225 C1221 1.393 . S
C1225 C1224 1.391 . S
C1226 H1216 0.950 . S
C1226 C1227 1.386 . S
C1226 C1228 1.391 . S
C1227 C1226 1.386 . S
C1227 C1231 1.393 . S
C1228 H1217 0.950 . S
C1228 C1226 1.391 . S
C1228 C1229 1.400 1_556 S
C1229 C1223 1.491 . S
C1229 C1228 1.400 1_554 S
C1229 C1230 1.398 1_554 S
C1230 H1218 0.950 1_556 S
C1230 C1229 1.398 1_556 S
C1230 C1231 1.391 . S
C1231 H1219 0.950 . S
C1231 C1227 1.393 . S
C1231 C1230 1.391 . S
H1232 C1240 0.950 . S
H1233 C1245 0.950 . S
H1234 C1242 0.950 . S
H1235 C1244 0.950 1_554 S
H1236 C1246 0.950 . S
H1237 C1248 0.950 . S
H1238 C1250 0.950 . S
H1239 C1251 0.950 . S
C1240 H1232 0.950 . S
C1240 C1241 1.386 . S
C1240 C1242 1.391 . S
C1241 C1240 1.386 . S
C1241 C1245 1.393 . S
C1242 H1234 0.950 . S
C1242 C1240 1.391 . S
C1242 C1243 1.400 1_556 S
C1243 C1242 1.400 1_554 S
C1243 C1244 1.398 1_554 S
C1243 C1249 1.491 . S
C1244 H1235 0.950 1_556 S
C1244 C1243 1.398 1_556 S
C1244 C1245 1.391 . S
C1245 H1233 0.950 . S
C1245 C1241 1.393 . S
C1245 C1244 1.391 . S
C1246 H1236 0.950 . S
C1246 C1247 1.386 . S
C1246 C1248 1.391 . S
C1247 C1246 1.386 . S
C1247 C1251 1.393 . S
C1248 H1237 0.950 . S
C1248 C1246 1.391 . S
C1248 C1249 1.400 . S
C1249 C1243 1.491 . S
C1249 C1248 1.400 . S
C1249 C1250 1.398 . S
C1250 H1238 0.950 . S
C1250 C1249 1.398 . S
C1250 C1251 1.391 . S
C1251 H1239 0.950 . S
C1251 C1247 1.393 . S
C1251 C1250 1.391 . S
H1252 C1260 0.950 . S
H1253 C1265 0.950 . S
H1254 C1262 0.950 . S
H1255 C1264 0.950 . S
H1256 C1266 0.950 . S
H1257 C1268 0.950 . S
H1258 C1270 0.950 1_554 S
H1259 C1271 0.950 . S
C1260 H1252 0.950 . S
C1260 C1261 1.386 . S
C1260 C1262 1.391 . S
C1261 C1260 1.386 . S
C1261 C1265 1.393 . S
C1262 H1254 0.950 . S
C1262 C1260 1.391 . S
C1262 C1263 1.400 . S
C1263 C1262 1.400 . S
C1263 C1264 1.398 . S
C1263 C1269 1.491 . S
C1264 H1255 0.950 . S
C1264 C1263 1.398 . S
C1264 C1265 1.391 . S
C1265 H1253 0.950 . S
C1265 C1261 1.393 . S
C1265 C1264 1.391 . S
C1266 H1256 0.950 . S
C1266 C1267 1.386 . S
C1266 C1268 1.391 . S
C1267 C1266 1.386 . S
C1267 C1271 1.393 . S
C1268 H1257 0.950 . S
C1268 C1266 1.391 . S
C1268 C1269 1.400 1_556 S
C1269 C1263 1.491 . S
C1269 C1268 1.400 1_554 S
C1269 C1270 1.398 1_554 S
C1270 H1258 0.950 1_556 S
C1270 C1269 1.398 1_556 S
C1270 C1271 1.391 . S
C1271 H1259 0.950 . S
C1271 C1267 1.393 . S
C1271 C1270 1.391 . S
H1272 C1280 0.950 . S
H1273 C1285 0.950 . S
H1274 C1282 0.975 . S
H1275 C1284 0.954 . S
H1276 C1286 0.950 . S
H1277 C1288 0.950 . S
H1278 C1290 0.950 . S
H1279 C1291 0.950 . S
C1280 H1272 0.950 . S
C1280 C1281 1.386 . S
C1280 C1282 1.391 . S
C1281 C1280 1.386 . S
C1281 C1285 1.393 . S
C1282 H1274 0.975 . S
C1282 C1280 1.391 . S
C1282 C1283 1.400 1_554 S
C1283 C1282 1.400 1_556 S
C1283 C1284 1.398 1_556 S
C1283 C1289 1.491 . S
C1284 H1275 0.954 . S
C1284 C1283 1.398 1_554 S
C1284 C1285 1.391 . S
C1285 H1273 0.950 . S
C1285 C1281 1.393 . S
C1285 C1284 1.391 . S
C1286 H1276 0.950 . S
C1286 C1287 1.386 . S
C1286 C1288 1.391 . S
C1287 C1286 1.386 . S
C1287 C1291 1.393 . S
C1288 H1277 0.950 . S
C1288 C1286 1.391 . S
C1288 C1289 1.400 . S
C1289 C1283 1.491 . S
C1289 C1288 1.400 . S
C1289 C1290 1.398 . S
C1290 H1278 0.950 . S
C1290 C1289 1.398 . S
C1290 C1291 1.391 . S
C1291 H1279 0.950 . S
C1291 C1287 1.393 . S
C1291 C1290 1.391 . S
H1292 C1300 0.950 . S
H1293 C1305 0.950 . S
H1294 C1302 0.950 . S
H1295 C1304 0.950 . S
H1296 C1306 0.950 . S
H1297 C1308 0.950 1_556 S
H1298 C1310 0.950 . S
H1299 C1311 0.950 . S
C1300 H1292 0.950 . S
C1300 C1301 1.386 . S
C1300 C1302 1.391 . S
C1301 C1300 1.386 . S
C1301 C1305 1.393 . S
C1302 H1294 0.950 . S
C1302 C1300 1.391 . S
C1302 C1303 1.400 . S
C1303 C1302 1.400 . S
C1303 C1304 1.398 . S
C1303 C1309 1.491 . S
C1304 H1295 0.950 . S
C1304 C1303 1.398 . S
C1304 C1305 1.391 . S
C1305 H1293 0.950 . S
C1305 C1301 1.393 . S
C1305 C1304 1.391 . S
C1306 H1296 0.950 . S
C1306 C1307 1.386 . S
C1306 C1308 1.391 . S
C1307 C1306 1.386 . S
C1307 C1311 1.393 . S
C1308 H1297 0.950 1_554 S
C1308 C1306 1.391 . S
C1308 C1309 1.400 1_554 S
C1309 C1303 1.491 . S
C1309 C1308 1.400 1_556 S
C1309 C1310 1.398 1_556 S
C1310 H1298 0.950 . S
C1310 C1309 1.398 1_554 S
C1310 C1311 1.391 . S
C1311 H1299 0.950 . S
C1311 C1307 1.393 . S
C1311 C1310 1.391 . S
H1312 C1320 0.950 . S
H1313 C1325 0.950 . S
H1314 C1322 0.950 . S
H1315 C1324 0.950 1_556 S
H1316 C1326 0.950 . S
H1317 C1328 0.950 . S
H1318 C1330 0.950 . S
H1319 C1331 0.950 . S
C1320 H1312 0.950 . S
C1320 C1321 1.386 . S
C1320 C1322 1.391 . S
C1321 C1320 1.386 . S
C1321 C1325 1.393 . S
C1322 H1314 0.950 . S
C1322 C1320 1.391 . S
C1322 C1323 1.400 1_554 S
C1323 C1322 1.400 1_556 S
C1323 C1324 1.398 1_556 S
C1323 C1329 1.491 . S
C1324 H1315 0.950 1_554 S
C1324 C1323 1.398 1_554 S
C1324 C1325 1.391 . S
C1325 H1313 0.950 . S
C1325 C1321 1.393 . S
C1325 C1324 1.391 . S
C1326 H1316 0.950 . S
C1326 C1327 1.386 . S
C1326 C1328 1.391 . S
C1327 C1326 1.386 . S
C1327 C1331 1.393 . S
C1328 H1317 0.950 . S
C1328 C1326 1.391 . S
C1328 C1329 1.400 . S
C1329 C1323 1.491 . S
C1329 C1328 1.400 . S
C1329 C1330 1.398 . S
C1330 H1318 0.950 . S
C1330 C1329 1.398 . S
C1330 C1331 1.391 . S
C1331 H1319 0.950 . S
C1331 C1327 1.393 . S
C1331 C1330 1.391 . S
H1332 C1340 0.950 . S
H1333 C1345 0.950 . S
H1334 C1342 0.950 . S
H1335 C1344 0.950 . S
H1336 C1346 0.950 . S
H1337 C1348 0.950 . S
H1338 C1350 0.950 1_556 S
H1339 C1351 0.950 . S
C1340 H1332 0.950 . S
C1340 C1341 1.386 . S
C1340 C1342 1.391 . S
C1341 C1340 1.386 . S
C1341 C1345 1.393 . S
C1342 H1334 0.950 . S
C1342 C1340 1.391 . S
C1342 C1343 1.400 . S
C1343 C1342 1.400 . S
C1343 C1344 1.398 . S
C1343 C1349 1.491 . S
C1344 H1335 0.950 . S
C1344 C1343 1.398 . S
C1344 C1345 1.391 . S
C1345 H1333 0.950 . S
C1345 C1341 1.393 . S
C1345 C1344 1.391 . S
C1346 H1336 0.950 . S
C1346 C1347 1.386 . S
C1346 C1348 1.391 . S
C1347 C1346 1.386 . S
C1347 C1351 1.393 . S
C1348 H1337 0.950 . S
C1348 C1346 1.391 . S
C1348 C1349 1.400 1_554 S
C1349 C1343 1.491 . S
C1349 C1348 1.400 1_556 S
C1349 C1350 1.398 1_556 S
C1350 H1338 0.950 1_554 S
C1350 C1349 1.398 1_554 S
C1350 C1351 1.391 . S
C1351 H1339 0.950 . S
C1351 C1347 1.393 . S
C1351 C1350 1.391 . S
H1352 C1360 0.950 . S
H1353 C1365 0.950 . S
H1354 C1362 0.950 . S
H1355 C1364 0.950 1_455 S
H1356 C1366 0.950 . S
H1357 C1368 0.950 . S
H1358 C1370 0.950 . S
H1359 C1371 0.950 . S
C1360 H1352 0.950 . S
C1360 C1361 1.386 . S
C1360 C1362 1.391 . S
C1361 C1360 1.386 . S
C1361 C1365 1.393 . S
C1362 H1354 0.950 . S
C1362 C1360 1.391 . S
C1362 C1363 1.400 1_655 S
C1363 C1362 1.400 1_455 S
C1363 C1364 1.398 1_455 S
C1363 C1369 1.491 . S
C1364 H1355 0.950 1_655 S
C1364 C1363 1.398 1_655 S
C1364 C1365 1.391 . S
C1365 H1353 0.950 . S
C1365 C1361 1.393 . S
C1365 C1364 1.391 . S
C1366 H1356 0.950 . S
C1366 C1367 1.386 . S
C1366 C1368 1.391 . S
C1367 C1366 1.386 . S
C1367 C1371 1.393 . S
C1368 H1357 0.950 . S
C1368 C1366 1.391 . S
C1368 C1369 1.400 . S
C1369 C1363 1.491 . S
C1369 C1368 1.400 . S
C1369 C1370 1.398 . S
C1370 H1358 0.950 . S
C1370 C1369 1.398 . S
C1370 C1371 1.391 . S
C1371 H1359 0.950 . S
C1371 C1367 1.393 . S
C1371 C1370 1.391 . S
H1372 C1380 0.950 . S
H1373 C1385 0.950 . S
H1374 C1382 0.950 . S
H1375 C1384 0.950 1_455 S
H1376 C1386 0.950 . S
H1377 C1388 0.950 . S
H1378 C1390 0.950 . S
H1379 C1391 0.950 . S
C1380 H1372 0.950 . S
C1380 C1381 1.386 . S
C1380 C1382 1.391 . S
C1381 C1380 1.386 . S
C1381 C1385 1.393 . S
C1382 H1374 0.950 . S
C1382 C1380 1.391 . S
C1382 C1383 1.400 1_655 S
C1383 C1382 1.400 1_455 S
C1383 C1384 1.398 1_455 S
C1383 C1389 1.491 . S
C1384 H1375 0.950 1_655 S
C1384 C1383 1.398 1_655 S
C1384 C1385 1.391 . S
C1385 H1373 0.950 . S
C1385 C1381 1.393 . S
C1385 C1384 1.391 . S
C1386 H1376 0.950 . S
C1386 C1387 1.386 . S
C1386 C1388 1.391 . S
C1387 C1386 1.386 . S
C1387 C1391 1.393 . S
C1388 H1377 0.950 . S
C1388 C1386 1.391 . S
C1388 C1389 1.400 . S
C1389 C1383 1.491 . S
C1389 C1388 1.400 . S
C1389 C1390 1.398 . S
C1390 H1378 0.950 . S
C1390 C1389 1.398 . S
C1390 C1391 1.391 . S
C1391 H1379 0.950 . S
C1391 C1387 1.393 . S
C1391 C1390 1.391 . S
H1392 C1400 0.950 . S
H1393 C1405 0.950 . S
H1394 C1402 0.950 . S
H1395 C1404 0.950 . S
H1396 C1406 0.950 . S
H1397 C1408 0.950 . S
H1398 C1410 0.950 1_545 S
H1399 C1411 0.950 . S
C1400 H1392 0.950 . S
C1400 C1401 1.386 . S
C1400 C1402 1.391 . S
C1401 C1400 1.386 . S
C1401 C1405 1.393 . S
C1402 H1394 0.950 . S
C1402 C1400 1.391 . S
C1402 C1403 1.400 . S
C1403 C1402 1.400 . S
C1403 C1404 1.398 . S
C1403 C1409 1.491 . S
C1404 H1395 0.950 . S
C1404 C1403 1.398 . S
C1404 C1405 1.391 . S
C1405 H1393 0.950 . S
C1405 C1401 1.393 . S
C1405 C1404 1.391 . S
C1406 H1396 0.950 . S
C1406 C1407 1.386 . S
C1406 C1408 1.391 . S
C1407 C1406 1.386 . S
C1407 C1411 1.393 . S
C1408 H1397 0.950 . S
C1408 C1406 1.391 . S
C1408 C1409 1.400 1_565 S
C1409 C1403 1.491 . S
C1409 C1408 1.400 1_545 S
C1409 C1410 1.398 1_545 S
C1410 H1398 0.950 1_565 S
C1410 C1409 1.398 1_565 S
C1410 C1411 1.391 . S
C1411 H1399 0.950 . S
C1411 C1407 1.393 . S
C1411 C1410 1.391 . S
H1412 C1420 0.950 . S
H1413 C1425 0.950 . S
H1414 C1422 0.950 . S
H1415 C1424 0.950 . S
H1416 C1426 0.950 . S
H1417 C1428 0.950 . S
H1418 C1430 0.950 1_655 S
H1419 C1431 0.950 . S
C1420 H1412 0.950 . S
C1420 C1421 1.386 . S
C1420 C1422 1.391 . S
C1421 C1420 1.386 . S
C1421 C1425 1.393 . S
C1422 H1414 0.950 . S
C1422 C1420 1.391 . S
C1422 C1423 1.400 . S
C1423 C1422 1.400 . S
C1423 C1424 1.398 . S
C1423 C1429 1.491 . S
C1424 H1415 0.950 . S
C1424 C1423 1.398 . S
C1424 C1425 1.391 . S
C1425 H1413 0.950 . S
C1425 C1421 1.393 . S
C1425 C1424 1.391 . S
C1426 H1416 0.950 . S
C1426 C1427 1.386 . S
C1426 C1428 1.391 . S
C1427 C1426 1.386 . S
C1427 C1431 1.393 . S
C1428 H1417 0.950 . S
C1428 C1426 1.391 . S
C1428 C1429 1.400 1_455 S
C1429 C1423 1.491 . S
C1429 C1428 1.400 1_655 S
C1429 C1430 1.398 1_655 S
C1430 H1418 0.950 1_455 S
C1430 C1429 1.398 1_455 S
C1430 C1431 1.391 . S
C1431 H1419 0.950 . S
C1431 C1427 1.393 . S
C1431 C1430 1.391 . S
H1432 C1440 0.950 . S
H1433 C1445 0.950 . S
H1434 C1442 0.950 . S
H1435 C1444 0.950 1_565 S
H1436 C1446 0.950 . S
H1437 C1448 0.950 . S
H1438 C1450 0.950 . S
H1439 C1451 0.950 . S
C1440 H1432 0.950 . S
C1440 C1441 1.386 . S
C1440 C1442 1.391 . S
C1441 C1440 1.386 . S
C1441 C1445 1.393 . S
C1442 H1434 0.950 . S
C1442 C1440 1.391 . S
C1442 C1443 1.400 1_545 S
C1443 C1442 1.400 1_565 S
C1443 C1444 1.398 1_565 S
C1443 C1449 1.491 . S
C1444 H1435 0.950 1_545 S
C1444 C1443 1.398 1_545 S
C1444 C1445 1.391 . S
C1445 H1433 0.950 . S
C1445 C1441 1.393 . S
C1445 C1444 1.391 . S
C1446 H1436 0.950 . S
C1446 C1447 1.386 . S
C1446 C1448 1.391 . S
C1447 C1446 1.386 . S
C1447 C1451 1.393 . S
C1448 H1437 0.950 . S
C1448 C1446 1.391 . S
C1448 C1449 1.400 . S
C1449 C1443 1.491 . S
C1449 C1448 1.400 . S
C1449 C1450 1.398 . S
C1450 H1438 0.950 . S
C1450 C1449 1.398 . S
C1450 C1451 1.391 . S
C1451 H1439 0.950 . S
C1451 C1447 1.393 . S
C1451 C1450 1.391 . S
H1452 C1460 0.950 . S
H1453 C1465 0.950 . S
H1454 C1462 0.950 . S
H1455 C1464 0.950 1_655 S
H1456 C1466 0.950 . S
H1457 C1468 0.950 . S
H1458 C1470 0.950 . S
H1459 C1471 0.950 . S
C1460 H1452 0.950 . S
C1460 C1461 1.386 . S
C1460 C1462 1.391 . S
C1461 C1460 1.386 . S
C1461 C1465 1.393 . S
C1462 H1454 0.950 . S
C1462 C1460 1.391 . S
C1462 C1463 1.400 1_455 S
C1463 C1462 1.400 1_655 S
C1463 C1464 1.398 1_655 S
C1463 C1469 1.491 . S
C1464 H1455 0.950 1_455 S
C1464 C1463 1.398 1_455 S
C1464 C1465 1.391 . S
C1465 H1453 0.950 . S
C1465 C1461 1.393 . S
C1465 C1464 1.391 . S
C1466 H1456 0.950 . S
C1466 C1467 1.386 . S
C1466 C1468 1.391 . S
C1467 C1466 1.386 . S
C1467 C1471 1.393 . S
C1468 H1457 0.950 . S
C1468 C1466 1.391 . S
C1468 C1469 1.400 . S
C1469 C1463 1.491 . S
C1469 C1468 1.400 . S
C1469 C1470 1.398 . S
C1470 H1458 0.950 . S
C1470 C1469 1.398 . S
C1470 C1471 1.391 . S
C1471 H1459 0.950 . S
C1471 C1467 1.393 . S
C1471 C1470 1.391 . S
H1472 C1480 0.950 . S
H1473 C1485 0.950 . S
H1474 C1482 0.950 1_565 S
H1475 C1484 0.950 . S
H1476 C1486 0.950 . S
H1477 C1488 0.950 . S
H1478 C1490 0.950 . S
H1479 C1491 0.950 . S
C1480 H1472 0.950 . S
C1480 C1481 1.386 . S
C1480 C1482 1.391 . S
C1481 C1480 1.386 . S
C1481 C1485 1.393 . S
C1482 H1474 0.950 1_545 S
C1482 C1480 1.391 . S
C1482 C1483 1.400 1_545 S
C1483 C1482 1.400 1_565 S
C1483 C1484 1.398 1_565 S
C1483 C1489 1.491 . S
C1484 H1475 0.950 . S
C1484 C1483 1.398 1_545 S
C1484 C1485 1.391 . S
C1485 H1473 0.950 . S
C1485 C1481 1.393 . S
C1485 C1484 1.391 . S
C1486 H1476 0.950 . S
C1486 C1487 1.386 . S
C1486 C1488 1.391 . S
C1487 C1486 1.386 . S
C1487 C1491 1.393 . S
C1488 H1477 0.950 . S
C1488 C1486 1.391 . S
C1488 C1489 1.400 . S
C1489 C1483 1.491 . S
C1489 C1488 1.400 . S
C1489 C1490 1.398 . S
C1490 H1478 0.950 . S
C1490 C1489 1.398 . S
C1490 C1491 1.391 . S
C1491 H1479 0.950 . S
C1491 C1487 1.393 . S
C1491 C1490 1.391 . S
H1492 C1500 0.950 . S
H1493 C1505 0.950 . S
H1494 C1502 0.950 . S
H1495 C1504 0.950 . S
H1496 C1506 0.950 . S
H1497 C1508 0.950 . S
H1498 C1510 0.945 1_545 S
H1499 C1511 0.950 . S
C1500 H1492 0.950 . S
C1500 C1501 1.386 . S
C1500 C1502 1.391 . S
C1501 C1500 1.386 . S
C1501 C1505 1.393 . S
C1502 H1494 0.950 . S
C1502 C1500 1.391 . S
C1502 C1503 1.400 . S
C1503 C1502 1.400 . S
C1503 C1504 1.398 . S
C1503 C1509 1.491 . S
C1504 H1495 0.950 . S
C1504 C1503 1.398 . S
C1504 C1505 1.391 . S
C1505 H1493 0.950 . S
C1505 C1501 1.393 . S
C1505 C1504 1.391 . S
C1506 H1496 0.950 . S
C1506 C1507 1.386 . S
C1506 C1508 1.391 . S
C1507 C1506 1.386 . S
C1507 C1511 1.393 . S
C1508 H1497 0.950 . S
C1508 C1506 1.391 . S
C1508 C1509 1.400 1_565 S
C1509 C1503 1.491 . S
C1509 C1508 1.400 1_545 S
C1509 C1510 1.398 1_545 S
C1510 H1498 0.945 1_565 S
C1510 C1509 1.398 1_565 S
C1510 C1511 1.391 . S
C1511 H1499 0.950 . S
C1511 C1507 1.393 . S
C1511 C1510 1.391 . S
H1512 C1520 0.950 . S
H1513 C1525 0.950 . S
H1514 C1522 0.950 . S
H1515 C1524 0.950 . S
H1516 C1526 0.950 . S
H1517 C1528 0.950 . S
H1518 C1530 0.950 . S
H1519 C1531 0.950 . S
C1520 H1512 0.950 . S
C1520 C1521 1.386 . S
C1520 C1522 1.391 . S
C1521 C1520 1.386 . S
C1521 C1525 1.393 . S
C1522 H1514 0.950 . S
C1522 C1520 1.391 . S
C1522 C1523 1.400 . S
C1523 C1522 1.400 . S
C1523 C1524 1.398 . S
C1523 C1529 1.491 . S
C1524 H1515 0.950 . S
C1524 C1523 1.398 . S
C1524 C1525 1.391 . S
C1525 H1513 0.950 . S
C1525 C1521 1.393 . S
C1525 C1524 1.391 . S
C1526 H1516 0.950 . S
C1526 C1527 1.386 . S
C1526 C1528 1.391 . S
C1527 C1526 1.386 . S
C1527 C1531 1.393 . S
C1528 H1517 0.950 . S
C1528 C1526 1.391 . S
C1528 C1529 1.400 . S
C1529 C1523 1.491 . S
C1529 C1528 1.400 . S
C1529 C1530 1.398 . S
C1530 H1518 0.950 . S
C1530 C1529 1.398 . S
C1530 C1531 1.391 . S
C1531 H1519 0.950 . S
C1531 C1527 1.393 . S
C1531 C1530 1.391 . S
H1532 C1540 0.950 . S
H1533 C1545 0.950 . S
H1534 C1542 0.950 . S
H1535 C1544 0.950 . S
H1536 C1546 0.950 . S
H1537 C1548 0.950 . S
H1538 C1550 0.950 . S
H1539 C1551 0.950 . S
C1540 H1532 0.950 . S
C1540 C1541 1.386 . S
C1540 C1542 1.391 . S
C1541 C1540 1.386 . S
C1541 C1545 1.393 . S
C1542 H1534 0.950 . S
C1542 C1540 1.391 . S
C1542 C1543 1.400 . S
C1543 C1542 1.400 . S
C1543 C1544 1.398 . S
C1543 C1549 1.491 . S
C1544 H1535 0.950 . S
C1544 C1543 1.398 . S
C1544 C1545 1.391 . S
C1545 H1533 0.950 . S
C1545 C1541 1.393 . S
C1545 C1544 1.391 . S
C1546 H1536 0.950 . S
C1546 C1547 1.386 . S
C1546 C1548 1.391 . S
C1547 C1546 1.386 . S
C1547 C1551 1.393 . S
C1548 H1537 0.950 . S
C1548 C1546 1.391 . S
C1548 C1549 1.400 . S
C1549 C1543 1.491 . S
C1549 C1548 1.400 . S
C1549 C1550 1.398 . S
C1550 H1538 0.950 . S
C1550 C1549 1.398 . S
C1550 C1551 1.391 . S
C1551 H1539 0.950 . S
C1551 C1547 1.393 . S
C1551 C1550 1.391 . S
H1552 C1560 0.950 . S
H1553 C1565 0.950 . S
H1554 C1562 0.950 . S
H1555 C1564 0.950 . S
H1556 C1566 0.950 . S
H1557 C1568 0.950 . S
H1558 C1570 0.950 . S
H1559 C1571 0.950 . S
C1560 H1552 0.950 . S
C1560 C1561 1.386 . S
C1560 C1562 1.391 . S
C1561 C1560 1.386 . S
C1561 C1565 1.393 . S
C1562 H1554 0.950 . S
C1562 C1560 1.391 . S
C1562 C1563 1.400 . S
C1563 C1562 1.400 . S
C1563 C1564 1.398 . S
C1563 C1569 1.491 . S
C1564 H1555 0.950 . S
C1564 C1563 1.398 . S
C1564 C1565 1.391 . S
C1565 H1553 0.950 . S
C1565 C1561 1.393 . S
C1565 C1564 1.391 . S
C1566 H1556 0.950 . S
C1566 C1567 1.386 . S
C1566 C1568 1.391 . S
C1567 C1566 1.386 . S
C1567 C1571 1.393 . S
C1568 H1557 0.950 . S
C1568 C1566 1.391 . S
C1568 C1569 1.400 . S
C1569 C1563 1.491 . S
C1569 C1568 1.400 . S
C1569 C1570 1.398 . S
C1570 H1558 0.950 . S
C1570 C1569 1.398 . S
C1570 C1571 1.391 . S
C1571 H1559 0.950 . S
C1571 C1567 1.393 . S
C1571 C1570 1.391 . S
H1572 C1580 0.950 . S
H1573 C1585 0.950 . S
H1574 C1582 0.950 . S
H1575 C1584 0.950 . S
H1576 C1586 0.950 . S
H1577 C1588 0.950 . S
H1578 C1590 0.950 . S
H1579 C1591 0.950 . S
C1580 H1572 0.950 . S
C1580 C1581 1.386 . S
C1580 C1582 1.391 . S
C1581 C1580 1.386 . S
C1581 C1585 1.393 . S
C1582 H1574 0.950 . S
C1582 C1580 1.391 . S
C1582 C1583 1.400 . S
C1583 C1582 1.400 . S
C1583 C1584 1.398 . S
C1583 C1589 1.491 . S
C1584 H1575 0.950 . S
C1584 C1583 1.398 . S
C1584 C1585 1.391 . S
C1585 H1573 0.950 . S
C1585 C1581 1.393 . S
C1585 C1584 1.391 . S
C1586 H1576 0.950 . S
C1586 C1587 1.386 . S
C1586 C1588 1.391 . S
C1587 C1586 1.386 . S
C1587 C1591 1.393 . S
C1588 H1577 0.950 . S
C1588 C1586 1.391 . S
C1588 C1589 1.400 . S
C1589 C1583 1.491 . S
C1589 C1588 1.400 . S
C1589 C1590 1.398 . S
C1590 H1578 0.950 . S
C1590 C1589 1.398 . S
C1590 C1591 1.391 . S
C1591 H1579 0.950 . S
C1591 C1587 1.393 . S
C1591 C1590 1.391 . S
H1592 C1600 0.950 . S
H1593 C1605 0.950 . S
H1594 C1602 0.950 . S
H1595 C1604 0.950 . S
H1596 C1606 0.950 . S
H1597 C1608 0.950 . S
H1598 C1610 0.950 . S
H1599 C1611 0.950 . S
C1600 H1592 0.950 . S
C1600 C1601 1.386 . S
C1600 C1602 1.391 . S
C1601 C1600 1.386 . S
C1601 C1605 1.393 . S
C1602 H1594 0.950 . S
C1602 C1600 1.391 . S
C1602 C1603 1.400 . S
C1603 C1602 1.400 . S
C1603 C1604 1.398 . S
C1603 C1609 1.491 . S
C1604 H1595 0.950 . S
C1604 C1603 1.398 . S
C1604 C1605 1.391 . S
C1605 H1593 0.950 . S
C1605 C1601 1.393 . S
C1605 C1604 1.391 . S
C1606 H1596 0.950 . S
C1606 C1607 1.386 . S
C1606 C1608 1.391 . S
C1607 C1606 1.386 . S
C1607 C1611 1.393 . S
C1608 H1597 0.950 . S
C1608 C1606 1.391 . S
C1608 C1609 1.400 . S
C1609 C1603 1.491 . S
C1609 C1608 1.400 . S
C1609 C1610 1.398 . S
C1610 H1598 0.950 . S
C1610 C1609 1.398 . S
C1610 C1611 1.391 . S
C1611 H1599 0.950 . S
C1611 C1607 1.393 . S
C1611 C1610 1.391 . S
H1612 C1620 0.950 . S
H1613 C1625 0.950 . S
H1614 C1622 0.950 . S
H1615 C1624 0.950 . S
H1616 C1626 0.950 . S
H1617 C1628 0.950 . S
H1618 C1630 0.950 . S
H1619 C1631 0.950 . S
C1620 H1612 0.950 . S
C1620 C1621 1.386 . S
C1620 C1622 1.391 . S
C1621 C1620 1.386 . S
C1621 C1625 1.393 . S
C1622 H1614 0.950 . S
C1622 C1620 1.391 . S
C1622 C1623 1.400 . S
C1623 C1622 1.400 . S
C1623 C1624 1.398 . S
C1623 C1629 1.491 . S
C1624 H1615 0.950 . S
C1624 C1623 1.398 . S
C1624 C1625 1.391 . S
C1625 H1613 0.950 . S
C1625 C1621 1.393 . S
C1625 C1624 1.391 . S
C1626 H1616 0.950 . S
C1626 C1627 1.386 . S
C1626 C1628 1.391 . S
C1627 C1626 1.386 . S
C1627 C1631 1.393 . S
C1628 H1617 0.950 . S
C1628 C1626 1.391 . S
C1628 C1629 1.400 . S
C1629 C1623 1.491 . S
C1629 C1628 1.400 . S
C1629 C1630 1.398 . S
C1630 H1618 0.950 . S
C1630 C1629 1.398 . S
C1630 C1631 1.391 . S
C1631 H1619 0.950 . S
C1631 C1627 1.393 . S
C1631 C1630 1.391 . S
H1632 C1640 0.950 . S
H1633 C1645 0.950 . S
H1634 C1642 0.950 . S
H1635 C1644 0.950 . S
H1636 C1646 0.950 . S
H1637 C1648 0.950 . S
H1638 C1650 0.950 . S
H1639 C1651 0.950 . S
C1640 H1632 0.950 . S
C1640 C1641 1.386 . S
C1640 C1642 1.391 . S
C1641 C1640 1.386 . S
C1641 C1645 1.393 . S
C1642 H1634 0.950 . S
C1642 C1640 1.391 . S
C1642 C1643 1.400 . S
C1643 C1642 1.400 . S
C1643 C1644 1.398 . S
C1643 C1649 1.491 . S
C1644 H1635 0.950 . S
C1644 C1643 1.398 . S
C1644 C1645 1.391 . S
C1645 H1633 0.950 . S
C1645 C1641 1.393 . S
C1645 C1644 1.391 . S
C1646 H1636 0.950 . S
C1646 C1647 1.386 . S
C1646 C1648 1.391 . S
C1647 C1646 1.386 . S
C1647 C1651 1.393 . S
C1648 H1637 0.950 . S
C1648 C1646 1.391 . S
C1648 C1649 1.400 . S
C1649 C1643 1.491 . S
C1649 C1648 1.400 . S
C1649 C1650 1.398 . S
C1650 H1638 0.950 . S
C1650 C1649 1.398 . S
C1650 C1651 1.391 . S
C1651 H1639 0.950 . S
C1651 C1647 1.393 . S
C1651 C1650 1.391 . S
H1652 C1660 0.950 . S
H1653 C1665 0.950 . S
H1654 C1662 0.950 . S
H1655 C1664 0.950 . S
H1656 C1666 0.950 . S
H1657 C1668 0.950 . S
H1658 C1670 0.950 . S
H1659 C1671 0.950 . S
C1660 H1652 0.950 . S
C1660 C1661 1.386 . S
C1660 C1662 1.391 . S
C1661 C1660 1.386 . S
C1661 C1665 1.393 . S
C1662 H1654 0.950 . S
C1662 C1660 1.391 . S
C1662 C1663 1.400 . S
C1663 C1662 1.400 . S
C1663 C1664 1.398 . S
C1663 C1669 1.491 . S
C1664 H1655 0.950 . S
C1664 C1663 1.398 . S
C1664 C1665 1.391 . S
C1665 H1653 0.950 . S
C1665 C1661 1.393 . S
C1665 C1664 1.391 . S
C1666 H1656 0.950 . S
C1666 C1667 1.386 . S
C1666 C1668 1.391 . S
C1667 C1666 1.386 . S
C1667 C1671 1.393 . S
C1668 H1657 0.950 . S
C1668 C1666 1.391 . S
C1668 C1669 1.400 . S
C1669 C1663 1.491 . S
C1669 C1668 1.400 . S
C1669 C1670 1.398 . S
C1670 H1658 0.950 . S
C1670 C1669 1.398 . S
C1670 C1671 1.391 . S
C1671 H1659 0.950 . S
C1671 C1667 1.393 . S
C1671 C1670 1.391 . S
H1672 C1680 0.950 . S
H1673 C1685 0.950 . S
H1674 C1682 0.950 . S
H1675 C1684 0.950 . S
H1676 C1686 0.950 . S
H1677 C1688 0.950 . S
H1678 C1690 0.950 . S
H1679 C1691 0.950 . S
C1680 H1672 0.950 . S
C1680 C1681 1.386 . S
C1680 C1682 1.391 . S
C1681 C1680 1.386 . S
C1681 C1685 1.393 . S
C1682 H1674 0.950 . S
C1682 C1680 1.391 . S
C1682 C1683 1.400 . S
C1683 C1682 1.400 . S
C1683 C1684 1.398 . S
C1683 C1689 1.491 . S
C1684 H1675 0.950 . S
C1684 C1683 1.398 . S
C1684 C1685 1.391 . S
C1685 H1673 0.950 . S
C1685 C1681 1.393 . S
C1685 C1684 1.391 . S
C1686 H1676 0.950 . S
C1686 C1687 1.386 . S
C1686 C1688 1.391 . S
C1687 C1686 1.386 . S
C1687 C1691 1.393 . S
C1688 H1677 0.950 . S
C1688 C1686 1.391 . S
C1688 C1689 1.400 . S
C1689 C1683 1.491 . S
C1689 C1688 1.400 . S
C1689 C1690 1.398 . S
C1690 H1678 0.950 . S
C1690 C1689 1.398 . S
C1690 C1691 1.391 . S
C1691 H1679 0.950 . S
C1691 C1687 1.393 . S
C1691 C1690 1.391 . S
H1692 C1700 0.950 . S
H1693 C1705 0.950 . S
H1694 C1702 0.950 . S
H1695 C1704 0.950 . S
H1696 C1706 0.950 . S
H1697 C1708 0.950 . S
H1698 C1710 0.950 . S
H1699 C1711 0.950 . S
C1700 H1692 0.950 . S
C1700 C1701 1.386 . S
C1700 C1702 1.391 . S
C1701 C1700 1.386 . S
C1701 C1705 1.393 . S
C1702 H1694 0.950 . S
C1702 C1700 1.391 . S
C1702 C1703 1.400 . S
C1703 C1702 1.400 . S
C1703 C1704 1.398 . S
C1703 C1709 1.491 . S
C1704 H1695 0.950 . S
C1704 C1703 1.398 . S
C1704 C1705 1.391 . S
C1705 H1693 0.950 . S
C1705 C1701 1.393 . S
C1705 C1704 1.391 . S
C1706 H1696 0.950 . S
C1706 C1707 1.386 . S
C1706 C1708 1.391 . S
C1707 C1706 1.386 . S
C1707 C1711 1.393 . S
C1708 H1697 0.950 . S
C1708 C1706 1.391 . S
C1708 C1709 1.400 . S
C1709 C1703 1.491 . S
C1709 C1708 1.400 . S
C1709 C1710 1.398 . S
C1710 H1698 0.950 . S
C1710 C1709 1.398 . S
C1710 C1711 1.391 . S
C1711 H1699 0.950 . S
C1711 C1707 1.393 . S
C1711 C1710 1.391 . S
H1712 C1720 0.950 . S
H1713 C1725 0.950 . S
H1714 C1722 0.950 . S
H1715 C1724 0.950 . S
H1716 C1726 0.950 . S
H1717 C1728 0.950 . S
H1718 C1730 0.950 . S
H1719 C1731 0.950 . S
C1720 H1712 0.950 . S
C1720 C1721 1.386 . S
C1720 C1722 1.391 . S
C1721 C1720 1.386 . S
C1721 C1725 1.393 . S
C1722 H1714 0.950 . S
C1722 C1720 1.391 . S
C1722 C1723 1.400 . S
C1723 C1722 1.400 . S
C1723 C1724 1.398 . S
C1723 C1729 1.491 . S
C1724 H1715 0.950 . S
C1724 C1723 1.398 . S
C1724 C1725 1.391 . S
C1725 H1713 0.950 . S
C1725 C1721 1.393 . S
C1725 C1724 1.391 . S
C1726 H1716 0.950 . S
C1726 C1727 1.386 . S
C1726 C1728 1.391 . S
C1727 C1726 1.386 . S
C1727 C1731 1.393 . S
C1728 H1717 0.950 . S
C1728 C1726 1.391 . S
C1728 C1729 1.400 . S
C1729 C1723 1.491 . S
C1729 C1728 1.400 . S
C1729 C1730 1.398 . S
C1730 H1718 0.950 . S
C1730 C1729 1.398 . S
C1730 C1731 1.391 . S
C1731 H1719 0.950 . S
C1731 C1727 1.393 . S
C1731 C1730 1.391 . S
H1732 C1740 0.950 . S
H1733 C1745 0.950 . S
H1734 C1742 0.950 . S
H1735 C1744 0.950 . S
H1736 C1746 0.950 . S
H1737 C1748 0.950 . S
H1738 C1750 0.950 . S
H1739 C1751 0.950 . S
C1740 H1732 0.950 . S
C1740 C1741 1.386 . S
C1740 C1742 1.391 . S
C1741 C1740 1.386 . S
C1741 C1745 1.393 . S
C1742 H1734 0.950 . S
C1742 C1740 1.391 . S
C1742 C1743 1.400 . S
C1743 C1742 1.400 . S
C1743 C1744 1.398 . S
C1743 C1749 1.491 . S
C1744 H1735 0.950 . S
C1744 C1743 1.398 . S
C1744 C1745 1.391 . S
C1745 H1733 0.950 . S
C1745 C1741 1.393 . S
C1745 C1744 1.391 . S
C1746 H1736 0.950 . S
C1746 C1747 1.386 . S
C1746 C1748 1.391 . S
C1747 C1746 1.386 . S
C1747 C1751 1.393 . S
C1748 H1737 0.950 . S
C1748 C1746 1.391 . S
C1748 C1749 1.400 . S
C1749 C1743 1.491 . S
C1749 C1748 1.400 . S
C1749 C1750 1.398 . S
C1750 H1738 0.950 . S
C1750 C1749 1.398 . S
C1750 C1751 1.391 . S
C1751 H1739 0.950 . S
C1751 C1747 1.393 . S
C1751 C1750 1.391 . S
H1752 C1760 0.950 . S
H1753 C1765 0.950 . S
H1754 C1762 0.950 . S
H1755 C1764 0.950 . S
H1756 C1766 0.950 . S
H1757 C1768 0.950 . S
H1758 C1770 0.950 . S
H1759 C1771 0.950 . S
C1760 H1752 0.950 . S
C1760 C1761 1.386 . S
C1760 C1762 1.391 . S
C1761 C1760 1.386 . S
C1761 C1765 1.393 . S
C1762 H1754 0.950 . S
C1762 C1760 1.391 . S
C1762 C1763 1.400 . S
C1763 C1762 1.400 . S
C1763 C1764 1.398 . S
C1763 C1769 1.491 . S
C1764 H1755 0.950 . S
C1764 C1763 1.398 . S
C1764 C1765 1.391 . S
C1765 H1753 0.950 . S
C1765 C1761 1.393 . S
C1765 C1764 1.391 . S
C1766 H1756 0.950 . S
C1766 C1767 1.386 . S
C1766 C1768 1.391 . S
C1767 C1766 1.386 . S
C1767 C1771 1.393 . S
C1768 H1757 0.950 . S
C1768 C1766 1.391 . S
C1768 C1769 1.400 . S
C1769 C1763 1.491 . S
C1769 C1768 1.400 . S
C1769 C1770 1.398 . S
C1770 H1758 0.950 . S
C1770 C1769 1.398 . S
C1770 C1771 1.391 . S
C1771 H1759 0.950 . S
C1771 C1767 1.393 . S
C1771 C1770 1.391 . S
H1772 C1780 0.950 . S
H1773 C1785 0.950 . S
H1774 C1782 0.950 . S
H1775 C1784 0.950 . S
H1776 C1786 0.950 . S
H1777 C1788 0.950 . S
H1778 C1790 0.950 . S
H1779 C1791 0.950 . S
C1780 H1772 0.950 . S
C1780 C1781 1.386 . S
C1780 C1782 1.391 . S
C1781 C1780 1.386 . S
C1781 C1785 1.393 . S
C1782 H1774 0.950 . S
C1782 C1780 1.391 . S
C1782 C1783 1.400 . S
C1783 C1782 1.400 . S
C1783 C1784 1.398 . S
C1783 C1789 1.491 . S
C1784 H1775 0.950 . S
C1784 C1783 1.398 . S
C1784 C1785 1.391 . S
C1785 H1773 0.950 . S
C1785 C1781 1.393 . S
C1785 C1784 1.391 . S
C1786 H1776 0.950 . S
C1786 C1787 1.386 . S
C1786 C1788 1.391 . S
C1787 C1786 1.386 . S
C1787 C1791 1.393 . S
C1788 H1777 0.950 . S
C1788 C1786 1.391 . S
C1788 C1789 1.400 . S
C1789 C1783 1.491 . S
C1789 C1788 1.400 . S
C1789 C1790 1.398 . S
C1790 H1778 0.950 . S
C1790 C1789 1.398 . S
C1790 C1791 1.391 . S
C1791 H1779 0.950 . S
C1791 C1787 1.393 . S
C1791 C1790 1.391 . S
H1792 C1800 0.950 . S
H1793 C1805 0.950 . S
H1794 C1802 0.950 . S
H1795 C1804 0.950 . S
H1796 C1806 0.950 . S
H1797 C1808 0.950 . S
H1798 C1810 0.950 . S
H1799 C1811 0.950 . S
C1800 H1792 0.950 . S
C1800 C1801 1.386 . S
C1800 C1802 1.391 . S
C1801 C1800 1.386 . S
C1801 C1805 1.393 . S
C1802 H1794 0.950 . S
C1802 C1800 1.391 . S
C1802 C1803 1.400 . S
C1803 C1802 1.400 . S
C1803 C1804 1.398 . S
C1803 C1809 1.491 . S
C1804 H1795 0.950 . S
C1804 C1803 1.398 . S
C1804 C1805 1.391 . S
C1805 H1793 0.950 . S
C1805 C1801 1.393 . S
C1805 C1804 1.391 . S
C1806 H1796 0.950 . S
C1806 C1807 1.386 . S
C1806 C1808 1.391 . S
C1807 C1806 1.386 . S
C1807 C1811 1.393 . S
C1808 H1797 0.950 . S
C1808 C1806 1.391 . S
C1808 C1809 1.400 . S
C1809 C1803 1.491 . S
C1809 C1808 1.400 . S
C1809 C1810 1.398 . S
C1810 H1798 0.950 . S
C1810 C1809 1.398 . S
C1810 C1811 1.391 . S
C1811 H1799 0.950 . S
C1811 C1807 1.393 . S
C1811 C1810 1.391 . S
H1812 C1820 0.950 . S
H1813 C1825 0.950 . S
H1814 C1822 0.950 . S
H1815 C1824 0.950 . S
H1816 C1826 0.950 . S
H1817 C1828 0.950 . S
H1818 C1830 0.950 . S
H1819 C1831 0.950 . S
C1820 H1812 0.950 . S
C1820 C1821 1.386 . S
C1820 C1822 1.391 . S
C1821 C1820 1.386 . S
C1821 C1825 1.393 . S
C1822 H1814 0.950 . S
C1822 C1820 1.391 . S
C1822 C1823 1.400 . S
C1823 C1822 1.400 . S
C1823 C1824 1.398 . S
C1823 C1829 1.491 . S
C1824 H1815 0.950 . S
C1824 C1823 1.398 . S
C1824 C1825 1.391 . S
C1825 H1813 0.950 . S
C1825 C1821 1.393 . S
C1825 C1824 1.391 . S
C1826 H1816 0.950 . S
C1826 C1827 1.386 . S
C1826 C1828 1.391 . S
C1827 C1826 1.386 . S
C1827 C1831 1.393 . S
C1828 H1817 0.950 . S
C1828 C1826 1.391 . S
C1828 C1829 1.400 . S
C1829 C1823 1.491 . S
C1829 C1828 1.400 . S
C1829 C1830 1.398 . S
C1830 H1818 0.950 . S
C1830 C1829 1.398 . S
C1830 C1831 1.391 . S
C1831 H1819 0.950 . S
C1831 C1827 1.393 . S
C1831 C1830 1.391 . S
H1832 C1840 0.950 . S
H1833 C1845 0.950 . S
H1834 C1842 0.950 . S
H1835 C1844 0.950 . S
H1836 C1846 0.950 . S
H1837 C1848 0.950 . S
H1838 C1850 0.950 . S
H1839 C1851 0.950 . S
C1840 H1832 0.950 . S
C1840 C1841 1.386 . S
C1840 C1842 1.391 . S
C1841 C1840 1.386 . S
C1841 C1845 1.393 . S
C1842 H1834 0.950 . S
C1842 C1840 1.391 . S
C1842 C1843 1.400 . S
C1843 C1842 1.400 . S
C1843 C1844 1.398 . S
C1843 C1849 1.491 . S
C1844 H1835 0.950 . S
C1844 C1843 1.398 . S
C1844 C1845 1.391 . S
C1845 H1833 0.950 . S
C1845 C1841 1.393 . S
C1845 C1844 1.391 . S
C1846 H1836 0.950 . S
C1846 C1847 1.386 . S
C1846 C1848 1.391 . S
C1847 C1846 1.386 . S
C1847 C1851 1.393 . S
C1848 H1837 0.950 . S
C1848 C1846 1.391 . S
C1848 C1849 1.400 . S
C1849 C1843 1.491 . S
C1849 C1848 1.400 . S
C1849 C1850 1.398 . S
C1850 H1838 0.950 . S
C1850 C1849 1.398 . S
C1850 C1851 1.391 . S
C1851 H1839 0.950 . S
C1851 C1847 1.393 . S
C1851 C1850 1.391 . S
H1852 C1860 0.950 . S
H1853 C1865 0.950 . S
H1854 C1862 0.950 . S
H1855 C1864 0.950 . S
H1856 C1866 0.950 . S
H1857 C1868 0.950 . S
H1858 C1870 0.950 . S
H1859 C1871 0.950 . S
C1860 H1852 0.950 . S
C1860 C1861 1.386 . S
C1860 C1862 1.391 . S
C1861 C1860 1.386 . S
C1861 C1865 1.393 . S
C1862 H1854 0.950 . S
C1862 C1860 1.391 . S
C1862 C1863 1.400 . S
C1863 C1862 1.400 . S
C1863 C1864 1.398 . S
C1863 C1869 1.491 . S
C1864 H1855 0.950 . S
C1864 C1863 1.398 . S
C1864 C1865 1.391 . S
C1865 H1853 0.950 . S
C1865 C1861 1.393 . S
C1865 C1864 1.391 . S
C1866 H1856 0.950 . S
C1866 C1867 1.386 . S
C1866 C1868 1.391 . S
C1867 C1866 1.386 . S
C1867 C1871 1.393 . S
C1868 H1857 0.950 . S
C1868 C1866 1.391 . S
C1868 C1869 1.400 . S
C1869 C1863 1.491 . S
C1869 C1868 1.400 . S
C1869 C1870 1.398 . S
C1870 H1858 0.950 . S
C1870 C1869 1.398 . S
C1870 C1871 1.391 . S
C1871 H1859 0.950 . S
C1871 C1867 1.393 . S
C1871 C1870 1.391 . S
H1872 C1880 0.950 . S
H1873 C1885 0.950 . S
H1874 C1882 0.950 . S
H1875 C1884 0.950 . S
H1876 C1886 0.950 . S
H1877 C1888 0.950 . S
H1878 C1890 0.950 . S
H1879 C1891 0.950 . S
C1880 H1872 0.950 . S
C1880 C1881 1.386 . S
C1880 C1882 1.391 . S
C1881 C1880 1.386 . S
C1881 C1885 1.393 . S
C1882 H1874 0.950 . S
C1882 C1880 1.391 . S
C1882 C1883 1.400 . S
C1883 C1882 1.400 . S
C1883 C1884 1.398 . S
C1883 C1889 1.491 . S
C1884 H1875 0.950 . S
C1884 C1883 1.398 . S
C1884 C1885 1.391 . S
C1885 H1873 0.950 . S
C1885 C1881 1.393 . S
C1885 C1884 1.391 . S
C1886 H1876 0.950 . S
C1886 C1887 1.386 . S
C1886 C1888 1.391 . S
C1887 C1886 1.386 . S
C1887 C1891 1.393 . S
C1888 H1877 0.950 . S
C1888 C1886 1.391 . S
C1888 C1889 1.400 . S
C1889 C1883 1.491 . S
C1889 C1888 1.400 . S
C1889 C1890 1.398 . S
C1890 H1878 0.950 . S
C1890 C1889 1.398 . S
C1890 C1891 1.391 . S
C1891 H1879 0.950 . S
C1891 C1887 1.393 . S
C1891 C1890 1.391 . S
H1892 C1900 0.950 . S
H1893 C1905 0.950 . S
H1894 C1902 0.950 . S
H1895 C1904 0.950 . S
H1896 C1906 0.950 . S
H1897 C1908 0.950 . S
H1898 C1910 0.950 . S
H1899 C1911 0.950 . S
C1900 H1892 0.950 . S
C1900 C1901 1.386 . S
C1900 C1902 1.391 . S
C1901 C1900 1.386 . S
C1901 C1905 1.393 . S
C1902 H1894 0.950 . S
C1902 C1900 1.391 . S
C1902 C1903 1.400 . S
C1903 C1902 1.400 . S
C1903 C1904 1.398 . S
C1903 C1909 1.491 . S
C1904 H1895 0.950 . S
C1904 C1903 1.398 . S
C1904 C1905 1.391 . S
C1905 H1893 0.950 . S
C1905 C1901 1.393 . S
C1905 C1904 1.391 . S
C1906 H1896 0.950 . S
C1906 C1907 1.386 . S
C1906 C1908 1.391 . S
C1907 C1906 1.386 . S
C1907 C1911 1.393 . S
C1908 H1897 0.950 . S
C1908 C1906 1.391 . S
C1908 C1909 1.400 . S
C1909 C1903 1.491 . S
C1909 C1908 1.400 . S
C1909 C1910 1.398 . S
C1910 H1898 0.950 . S
C1910 C1909 1.398 . S
C1910 C1911 1.391 . S
C1911 H1899 0.950 . S
C1911 C1907 1.393 . S
C1911 C1910 1.391 . S
H1912 C1920 0.950 . S
H1913 C1925 0.950 . S
H1914 C1922 0.950 . S
H1915 C1924 0.950 . S
H1916 C1926 0.950 . S
H1917 C1928 0.950 . S
H1918 C1930 0.950 . S
H1919 C1931 0.950 . S
C1920 H1912 0.950 . S
C1920 C1921 1.386 . S
C1920 C1922 1.391 . S
C1921 C1920 1.386 . S
C1921 C1925 1.393 . S
C1922 H1914 0.950 . S
C1922 C1920 1.391 . S
C1922 C1923 1.400 . S
C1923 C1922 1.400 . S
C1923 C1924 1.398 . S
C1923 C1929 1.491 . S
C1924 H1915 0.950 . S
C1924 C1923 1.398 . S
C1924 C1925 1.391 . S
C1925 H1913 0.950 . S
C1925 C1921 1.393 . S
C1925 C1924 1.391 . S
C1926 H1916 0.950 . S
C1926 C1927 1.386 . S
C1926 C1928 1.391 . S
C1927 C1926 1.386 . S
C1927 C1931 1.393 . S
C1928 H1917 0.950 . S
C1928 C1926 1.391 . S
C1928 C1929 1.400 . S
C1929 C1923 1.491 . S
C1929 C1928 1.400 . S
C1929 C1930 1.398 . S
C1930 H1918 0.950 . S
C1930 C1929 1.398 . S
C1930 C1931 1.391 . S
C1931 H1919 0.950 . S
C1931 C1927 1.393 . S
C1931 C1930 1.391 . S
H1932 C1940 0.950 . S
H1933 C1945 0.950 . S
H1934 C1942 0.950 . S
H1935 C1944 0.950 . S
H1936 C1946 0.950 . S
H1937 C1948 0.950 . S
H1938 C1950 0.950 . S
H1939 C1951 0.950 . S
C1940 H1932 0.950 . S
C1940 C1941 1.386 . S
C1940 C1942 1.391 . S
C1941 C1940 1.386 . S
C1941 C1945 1.393 . S
C1942 H1934 0.950 . S
C1942 C1940 1.391 . S
C1942 C1943 1.400 . S
C1943 C1942 1.400 . S
C1943 C1944 1.398 . S
C1943 C1949 1.491 . S
C1944 H1935 0.950 . S
C1944 C1943 1.398 . S
C1944 C1945 1.391 . S
C1945 H1933 0.950 . S
C1945 C1941 1.393 . S
C1945 C1944 1.391 . S
C1946 H1936 0.950 . S
C1946 C1947 1.386 . S
C1946 C1948 1.391 . S
C1947 C1946 1.386 . S
C1947 C1951 1.393 . S
C1948 H1937 0.950 . S
C1948 C1946 1.391 . S
C1948 C1949 1.400 . S
C1949 C1943 1.491 . S
C1949 C1948 1.400 . S
C1949 C1950 1.398 . S
C1950 H1938 0.950 . S
C1950 C1949 1.398 . S
C1950 C1951 1.391 . S
C1951 H1939 0.950 . S
C1951 C1947 1.393 . S
C1951 C1950 1.391 . S
H1952 C1960 0.950 . S
H1953 C1965 0.950 . S
H1954 C1962 0.950 . S
H1955 C1964 0.950 . S
H1956 C1966 0.950 . S
H1957 C1968 0.950 . S
H1958 C1970 0.950 . S
H1959 C1971 0.950 . S
C1960 H1952 0.950 . S
C1960 C1961 1.386 . S
C1960 C1962 1.391 . S
C1961 C1960 1.386 . S
C1961 C1965 1.393 . S
C1962 H1954 0.950 . S
C1962 C1960 1.391 . S
C1962 C1963 1.400 . S
C1963 C1962 1.400 . S
C1963 C1964 1.398 . S
C1963 C1969 1.491 . S
C1964 H1955 0.950 . S
C1964 C1963 1.398 . S
C1964 C1965 1.391 . S
C1965 H1953 0.950 . S
C1965 C1961 1.393 . S
C1965 C1964 1.391 . S
C1966 H1956 0.950 . S
C1966 C1967 1.386 . S
C1966 C1968 1.391 . S
C1967 C1966 1.386 . S
C1967 C1971 1.393 . S
C1968 H1957 0.950 . S
C1968 C1966 1.391 . S
C1968 C1969 1.400 . S
C1969 C1963 1.491 . S
C1969 C1968 1.400 . S
C1969 C1970 1.398 . S
C1970 H1958 0.950 . S
C1970 C1969 1.398 . S
C1970 C1971 1.391 . S
C1971 H1959 0.950 . S
C1971 C1967 1.393 . S
C1971 C1970 1.391 . S
H1972 C1980 0.950 . S
H1973 C1985 0.950 . S
H1974 C1982 0.950 . S
H1975 C1984 0.950 . S
H1976 C1986 0.950 . S
H1977 C1988 0.950 . S
H1978 C1990 0.950 . S
H1979 C1991 0.950 . S
C1980 H1972 0.950 . S
C1980 C1981 1.386 . S
C1980 C1982 1.391 . S
C1981 C1980 1.386 . S
C1981 C1985 1.393 . S
C1982 H1974 0.950 . S
C1982 C1980 1.391 . S
C1982 C1983 1.400 . S
C1983 C1982 1.400 . S
C1983 C1984 1.398 . S
C1983 C1989 1.491 . S
C1984 H1975 0.950 . S
C1984 C1983 1.398 . S
C1984 C1985 1.391 . S
C1985 H1973 0.950 . S
C1985 C1981 1.393 . S
C1985 C1984 1.391 . S
C1986 H1976 0.950 . S
C1986 C1987 1.386 . S
C1986 C1988 1.391 . S
C1987 C1986 1.386 . S
C1987 C1991 1.393 . S
C1988 H1977 0.950 . S
C1988 C1986 1.391 . S
C1988 C1989 1.400 . S
C1989 C1983 1.491 . S
C1989 C1988 1.400 . S
C1989 C1990 1.398 . S
C1990 H1978 0.950 . S
C1990 C1989 1.398 . S
C1990 C1991 1.391 . S
C1991 H1979 0.950 . S
C1991 C1987 1.393 . S
C1991 C1990 1.391 . S
C801 C182 1.006 . S
C807 C17 1.030 . S
C821 C50 1.024 . S
C827 C215 1.016 . S
C841 C83 0.998 . S
C847 C248 1.027 . S
C861 C149 1.022 . S
C867 C116 1.000 . S
C881 C281 0.999 . S
C887 C776 1.026 . S
C901 C710 1.030 . S
C907 C314 1.006 . S
C921 C347 1.001 . S
C927 C743 1.030 . S
C941 C545 1.030 . S
C947 C380 1.000 . S
C961 C413 1.005 . S
C967 C677 1.014 . S
C981 C446 1.019 . S
C987 C578 1.021 . S
C1001 C611 1.030 . S
C1007 C479 1.004 . S
C1021 C512 1.030 . S
C1027 C644 1.007 . S
C1041 N104 1.669 . S
C1047 C28 1.743 . S
C1061 C61 1.745 . S
C1067 N5 1.660 . S
C1081 C94 1.729 . S
C1087 N38 1.659 . S
C1101 N71 1.669 . S
C1107 C127 1.742 . S
C1121 N170 1.640 . S
C1127 C160 1.735 . S
C1141 C193 1.734 . S
C1147 N203 1.667 . S
C1161 N236 1.667 . S
C1167 C226 1.744 . S
C1181 N137 1.651 . S
C1187 C259 1.743 . S
C1201 N599 1.669 . S
C1207 C292 1.741 . S
C1221 C325 1.728 . S
C1227 N632 1.642 . S
C1241 N665 1.667 . S
C1247 C358 1.735 . S
C1261 C391 1.732 . S
C1267 N566 1.639 . S
C1281 N731 1.646 . S
C1287 C424 1.727 . S
C1301 C457 1.741 . S
C1307 N533 1.669 . S
C1321 N764 1.667 . S
C1327 C490 1.734 . S
C1341 C523 1.745 . S
C1347 N698 1.659 . S
C1361 N302 1.668 . S
C1367 C556 1.736 . S
C1381 N500 1.667 . S
C1387 C589 1.734 . S
C1401 C622 1.729 . S
C1407 N401 1.640 . S
C1421 C655 1.742 . S
C1427 N434 1.649 . S
C1441 N467 1.660 . S
C1447 C688 1.730 . S
C1461 N368 1.669 . S
C1467 C721 1.741 . S
C1481 N269 1.644 . S
C1487 C754 1.739 . S
C1501 C787 1.728 . S
C1507 N335 1.641 . S
C1521 C8 1.229 . S
C1527 N542 1.176 . S
C1541 N773 1.184 . S
C1547 C41 1.230 . S
C1561 C74 1.228 . S
C1567 N707 1.178 . S
C1581 N740 1.186 . S
C1587 C107 1.231 . S
C1601 C140 1.233 . S
C1607 N575 1.191 . S
C1621 C173 1.242 . S
C1627 N608 1.206 . S
C1641 N641 1.186 . S
C1647 C206 1.231 . S
C1661 N674 1.211 . S
C1667 C239 1.247 . S
C1681 N14 1.199 . S
C1687 C272 1.237 . S
C1701 C305 1.246 . S
C1707 N47 1.206 . S
C1721 C338 1.229 . S
C1727 N80 1.182 . S
C1741 C371 1.247 . S
C1747 N113 1.212 . S
C1761 C404 1.236 . S
C1767 N146 1.196 . S
C1781 C437 1.241 . S
C1787 N179 1.196 . S
C1801 C470 1.247 . S
C1807 N212 1.210 . S
C1821 C503 1.228 . S
C1827 N245 1.176 . S
C1841 N278 1.202 . S
C1847 C536 1.239 . S
C1861 C569 1.236 . S
C1867 N410 1.195 . S
C1881 C602 1.244 . S
C1887 N443 1.203 . S
C1901 N476 1.209 . S
C1907 C635 1.247 . S
C1921 C668 1.232 . S
C1927 N509 1.188 . S
C1941 N344 1.177 . S
C1947 C701 1.228 . S
C1961 N377 1.212 . S
C1967 C734 1.246 . S
C1981 C767 1.236 . S
C1987 N311 1.187 . S
